drugbank_target|O15230 Laminin subunit alpha-5 (DB06245)
 OpenBabel12092120043D

  0  0  0     0  0            999 V3000
M  V30 BEGIN CTAB
M  V30 COUNTS 55127 55796 0 0 0
M  V30 BEGIN ATOM
M  V30 1 H -0.908 1.98254 -0.117106 0
M  V30 2 N 0 1.576 0 0
M  V30 3 C 0.933 2.03868 1.02534 0
M  V30 4 C 1.911 0.928543 1.3348 0
M  V30 5 O 3.095 1.19667 1.45644 0
M  V30 6 C 0.222 2.43627 2.35294 0
M  V30 7 C -0.732 3.65373 2.2001 0
M  V30 8 S 0.101 5.13292 1.52614 0
M  V30 9 C 1.257 5.56322 2.86805 0
M  V30 10 H 1.49 2.90518 0.631377 0
M  V30 11 H -0.977 1.52953 0.210867 0
M  V30 12 H 0.981 2.67203 3.11629 0
M  V30 13 H -0.358 1.57376 2.7183 0
M  V30 14 H -1.165 3.90944 3.18086 0
M  V30 15 H -1.563 3.418 1.51819 0
M  V30 16 H 0.729 5.58782 3.83104 0
M  V30 17 H 1.672 6.56266 2.65933 0
M  V30 18 H 2.08 4.83886 2.90714 0
M  V30 19 N 1.4781 -0.272755 1.55222 0
M  V30 20 C 2.4411 -1.32041 1.87344 0
M  V30 21 C 3.4411 -1.42342 0.74803 0
M  V30 22 O 4.6311 -1.41488 1.0162 0
M  V30 23 C 1.7631 -2.70173 2.07893 0
M  V30 24 H 2.9561 -1.04789 2.80997 0
M  V30 25 H 0.5091 -0.51083 1.47717 0
M  V30 26 H 1.2441 -3.02605 1.16622 0
M  V30 27 H 1.0291 -2.64082 2.89833 0
M  V30 28 H 2.5191 -3.45869 2.34017 0
M  V30 29 N 2.9562 -1.48159 -0.537278 0
M  V30 30 C 3.9032 -1.62138 -1.64256 0
M  V30 31 C 4.8732 -0.463668 -1.59497 0
M  V30 32 O 6.0582 -0.686241 -1.78032 0
M  V30 33 C 3.1982 -1.66028 -3.02537 0
M  V30 34 C 2.3112 -2.92855 -3.17585 0
M  V30 35 C 1.4462 -2.87952 -4.46382 0
M  V30 36 C 0.4852 -4.09516 -4.54932 0
M  V30 37 N -0.3778 -4.02733 -5.75109 0
M  V30 38 H 4.4622 -2.56529 -1.51647 0
M  V30 39 H 1.9992 -1.27224 -0.738414 0
M  V30 40 H 3.9572 -1.66265 -3.82638 0
M  V30 41 H 2.5872 -0.751331 -3.13934 0
M  V30 42 H 1.6392 -3.02395 -2.30784 0
M  V30 43 H 2.9512 -3.82822 -3.19764 0
M  V30 44 H 2.1052 -2.8655 -5.34765 0
M  V30 45 H 0.8442 -1.95702 -4.46712 0
M  V30 46 H -0.1508 -4.11201 -3.64957 0
M  V30 47 H 1.0742 -5.02917 -4.56346 0
M  V30 48 H -0.9798 -3.13299 -5.76351 0
M  V30 49 H -1.0628 -4.86397 -5.78752 0
M  V30 50 H 0.2052 -4.05379 -6.65799 0
M  V30 51 N 4.4343 0.785586 -1.36625 0
M  V30 52 C 5.8503 1.08419 -1.17122 0
M  V30 53 C 6.0503 2.015 0.00208491 0
M  V30 54 O 5.1063 2.43551 0.666278 0
M  V30 55 C 6.4193 1.69498 -2.48377 0
M  V30 56 C 7.9673 1.81821 -2.54775 0
M  V30 57 C 8.4423 2.46315 -3.86126 0
M  V30 58 N 9.9333 2.53779 -3.87492 0
M  V30 59 C 10.6683 3.045 -4.85868 0
M  V30 60 N 10.1643 3.55499 -5.94637 0
M  V30 61 N 11.9573 3.03247 -4.73284 0
M  V30 62 H 4.1083 0.167264 -2.1174 0
M  V30 63 H 6.3713 0.13682 -0.938075 0
M  V30 64 H 6.0773 1.08571 -3.34522 0
M  V30 65 H 5.9513 2.6896 -2.64462 0
M  V30 66 H 8.3383 2.41884 -1.69045 0
M  V30 67 H 8.4193 0.811532 -2.42586 0
M  V30 68 H 8.0633 1.86895 -4.72263 0
M  V30 69 H 7.9933 3.47561 -3.95612 0
M  V30 70 H 10.4843 2.17672 -3.08913 0
M  V30 71 H 10.7973 3.92562 -6.65669 0
M  V30 72 H 9.1423 3.5364 -5.98301 0
M  V30 73 H 12.3333 2.62696 -3.87438 0
M  V30 74 H 12.5063 3.42467 -5.50109 0
M  V30 75 N 5.9124 1.20967 1.01018 0
M  V30 76 C 6.8424 0.988272 2.11555 0
M  V30 77 C 7.8234 -0.0849778 1.69888 0
M  V30 78 O 9.0084 0.0738202 1.9406 0
M  V30 79 C 6.1384 0.546528 3.42973 0
M  V30 80 C 5.0924 1.56375 3.9841 0
M  V30 81 C 4.4184 0.97842 5.25672 0
M  V30 82 C 5.7184 2.94922 4.31066 0
M  V30 83 H 7.4124 1.91276 2.30334 0
M  V30 84 H 4.9584 0.921073 1.1069 0
M  V30 85 H 6.9114 0.378839 4.19694 0
M  V30 86 H 5.6354 -0.413598 3.23971 0
M  V30 87 H 4.2944 1.71891 3.23804 0
M  V30 88 H 3.9424 0.0101688 5.02999 0
M  V30 89 H 3.6424 1.65784 5.63728 0
M  V30 90 H 5.1664 0.821939 6.05043 0
M  V30 91 H 6.5804 2.8288 4.9865 0
M  V30 92 H 4.9774 3.5983 4.80253 0
M  V30 93 H 6.0474 3.4616 3.39561 0
M  V30 94 N 7.3905 -1.2043 1.01659 0
M  V30 95 C 8.6305 -1.91507 0.714456 0
M  V30 96 C 8.9945 -1.77073 -0.742237 0
M  V30 97 O 10.1955 -2.42631 -1.15688 0
M  V30 98 C 8.4665 -3.38795 1.13809 0
M  V30 99 S 10.0255 -4.28216 0.957925 0
M  V30 100 H 6.8435 -0.661571 0.260471 0
M  V30 101 H 9.4455 -1.45671 1.30384 0
M  V30 102 H 8.1495 -3.46822 2.19415 0
M  V30 103 H 7.6805 -3.89656 0.541474 0
M  V30 104 H 9.6955 -4.96007 -0.138531 0
M  V30 105 N 8.8686 -0.792821 -1.36206 0
M  V30 106 C 9.8316 -0.199459 -2.2833 0
M  V30 107 C 10.8316 0.605189 -1.48977 0
M  V30 108 O 12.0216 0.425685 -1.68919 0
M  V30 109 C 9.1536 0.723523 -3.33134 0
M  V30 110 H 10.3466 -1.01181 -2.82316 0
M  V30 111 H 7.8996 -0.562485 -1.45828 0
M  V30 112 H 8.6346 1.56008 -2.84309 0
M  V30 113 H 8.4196 0.148436 -3.91819 0
M  V30 114 H 9.9096 1.13344 -4.01924 0
M  V30 115 N 10.3467 1.47872 -0.545128 0
M  V30 116 C 11.5947 2.02093 -0.016553 0
M  V30 117 C 11.9157 1.42305 1.3332 0
M  V30 118 O 11.1857 0.593853 1.86682 0
M  V30 119 H 9.7657 0.746993 -0.00313038 0
M  V30 120 H 12.4277 1.81414 -0.712397 0
M  V30 121 H 11.5237 3.11996 0.0805422 0
M  V30 122 N 11.8248 0.280983 1.55075 0
M  V30 123 C 13.0498 -0.340154 2.04592 0
M  V30 124 C 13.4748 -1.48246 1.15779 0
M  V30 125 O 12.8328 -1.80614 0.15761 0
M  V30 126 C 12.8808 -0.793104 3.5177 0
M  V30 127 O 11.9848 -1.89981 3.66034 0
M  V30 128 H 11.3258 -0.0694289 0.66036 0
M  V30 129 H 13.8558 0.416993 2.00306 0
M  V30 130 H 13.8658 -1.08729 3.93245 0
M  V30 131 H 12.5408 0.0426163 4.15878 0
M  V30 132 H 11.1178 -1.60771 3.36463 0
M  V30 133 N 13.3029 -1.57598 0.00835791 0
M  V30 134 C 14.2659 -2.07884 -0.965242 0
M  V30 135 C 15.2659 -0.989825 -1.26725 0
M  V30 136 O 16.4559 -1.25218 -1.21104 0
M  V30 137 C 13.5879 -2.52731 -2.28779 0
M  V30 138 H 14.7809 -2.95178 -0.530112 0
M  V30 139 H 12.3339 -1.54458 -0.239283 0
M  V30 140 H 13.0689 -1.68705 -2.76964 0
M  V30 141 H 12.8539 -3.32272 -2.08177 0
M  V30 142 H 14.3439 -2.91933 -2.98605 0
M  V30 143 N 14.781 0.264519 -1.55364 0
M  V30 144 C 15.711 1.33121 -1.91836 0
M  V30 145 C 16.692 1.51101 -0.781192 0
M  V30 146 O 17.877 1.64003 -1.04003 0
M  V30 147 C 15.007 2.68921 -2.19769 0
M  V30 148 C 13.961 2.65661 -3.35571 0
M  V30 149 C 13.287 4.05093 -3.49004 0
M  V30 150 C 14.587 2.24187 -4.71739 0
M  V30 151 H 16.281 1.02844 -2.81182 0
M  V30 152 H 13.827 0.493286 -1.35287 0
M  V30 153 H 15.78 3.43663 -2.43872 0
M  V30 154 H 14.504 3.00799 -1.27231 0
M  V30 155 H 13.163 1.93377 -3.1145 0
M  V30 156 H 12.811 4.34206 -2.53917 0
M  V30 157 H 12.511 4.03804 -4.26868 0
M  V30 158 H 14.035 4.81561 -3.75408 0
M  V30 159 H 15.449 2.88654 -4.9533 0
M  V30 160 H 13.846 2.34044 -5.52579 0
M  V30 161 H 14.916 1.19327 -4.69988 0
M  V30 162 N 16.2591 1.48442 0.529413 0
M  V30 163 C 17.4991 1.58086 1.29569 0
M  V30 164 C 17.8631 0.249302 1.90375 0
M  V30 165 O 19.0641 0.220738 2.67892 0
M  V30 166 C 17.3351 2.68793 2.35552 0
M  V30 167 S 18.8941 2.98207 3.21898 0
M  V30 168 H 15.7121 0.557922 0.440732 0
M  V30 169 H 18.3141 1.85966 0.603059 0
M  V30 170 H 17.0181 3.64102 1.89363 0
M  V30 171 H 16.5491 2.42817 3.09522 0
M  V30 172 H 18.5641 2.37548 4.35644 0
M  V30 173 N 17.7372 -0.778329 1.37039 0
M  V30 174 C 18.9832 -1.53892 1.32079 0
M  V30 175 C 19.3162 -1.9396 -0.0965386 0
M  V30 176 O 18.5912 -1.63568 -1.05242 0
M  V30 177 C 18.8742 -2.80847 2.25382 0
M  V30 178 C 18.7272 -2.47076 3.75864 0
M  V30 179 C 20.0462 -3.82741 2.1725 0
M  V30 180 H 17.1652 -0.558303 0.48111 0
M  V30 181 H 19.8072 -0.893397 1.67685 0
M  V30 182 H 17.9572 -3.35931 1.95148 0
M  V30 183 H 19.6292 -1.97957 4.16666 0
M  V30 184 H 17.8722 -1.79863 3.94755 0
M  V30 185 H 18.5432 -3.37798 4.36574 0
M  V30 186 H 21.0192 -3.37133 2.43887 0
M  V30 187 H 19.8952 -4.69303 2.84686 0
M  V30 188 H 20.1562 -4.2652 1.16331 0
M  V30 189 N 19.2153 -1.21501 -1.00376 0
M  V30 190 C 20.6313 -0.972629 -1.26539 0
M  V30 191 C 20.8313 0.340257 -1.98606 0
M  V30 192 O 19.8873 1.06561 -2.28913 0
M  V30 193 C 21.2003 -2.16404 -2.08781 0
M  V30 194 C 22.7483 -2.20643 -2.22004 0
M  V30 195 C 23.2233 -3.39306 -3.07629 0
M  V30 196 N 24.7143 -3.39401 -3.15217 0
M  V30 197 C 25.4493 -4.27867 -3.81729 0
M  V30 198 N 24.9453 -5.26533 -4.5026 0
M  V30 199 N 26.7383 -4.15672 -3.78382 0
M  V30 200 H 18.8893 -2.05929 -0.520281 0
M  V30 201 H 21.1523 -0.901803 -0.292328 0
M  V30 202 H 20.8583 -3.11554 -1.63178 0
M  V30 203 H 20.7323 -2.15567 -3.09533 0
M  V30 204 H 23.1193 -1.26048 -2.66825 0
M  V30 205 H 23.2003 -2.25523 -1.20718 0
M  V30 206 H 22.8443 -4.34195 -2.63509 0
M  V30 207 H 22.7743 -3.31665 -4.09031 0
M  V30 208 H 25.2653 -2.67997 -2.66432 0
M  V30 209 H 25.5783 -5.90337 -4.98721 0
M  V30 210 H 23.9233 -5.30457 -4.49044 0
M  V30 211 H 27.1143 -3.3785 -3.23998 0
M  V30 212 H 27.2873 -4.84825 -4.2994 0
M  V30 213 N 20.6934 1.19889 -1.02296 0
M  V30 214 C 21.9414 1.89046 -0.714558 0
M  V30 215 C 22.2624 1.79636 0.758681 0
M  V30 216 O 21.5324 1.20292 1.54618 0
M  V30 217 H 20.1124 0.699802 -0.261317 0
M  V30 218 H 22.7744 1.45574 -1.29592 0
M  V30 219 H 21.8704 2.95524 -1.0036 0
M  V30 220 N 22.1715 0.800033 1.35784 0
M  V30 221 C 23.5825 0.439142 1.81462 0
M  V30 222 C 23.9335 -1.03813 1.66485 0
M  V30 223 O 23.0585 -1.80626 1.19177 0
M  V30 224 C 23.6535 0.790314 3.29453 0
M  V30 225 C 22.2125 0.482111 3.733 0
M  V30 226 C 21.3595 1.01938 2.57883 0
M  V30 227 H 24.3105 0.992254 1.23855 0
M  V30 228 H 24.3315 0.0853677 3.80404 0
M  V30 229 H 23.8435 1.86554 3.40322 0
M  V30 230 H 21.9445 -0.584652 3.67984 0
M  V30 231 H 22.0575 1.01015 4.6833 0
M  V30 232 H 20.4215 0.442043 2.50835 0
M  V30 233 H 21.2045 2.10059 2.71533 0
M  V30 234 N 23.6496 -1.47581 0.552962 0
M  V30 235 C 25.0656 -1.5818 0.212424 0
M  V30 236 C 25.2656 -1.55213 -1.28496 0
M  V30 237 O 24.3216 -1.45329 -2.06484 0
M  V30 238 C 25.6346 -2.88865 0.835318 0
M  V30 239 C 27.1826 -3.0244 0.806156 0
M  V30 240 C 27.6576 -4.35819 1.40804 0
M  V30 241 N 29.1486 -4.42444 1.37103 0
M  V30 242 C 29.8836 -5.44202 1.80641 0
M  V30 243 N 29.3796 -6.52795 2.32015 0
M  V30 244 N 31.1726 -5.35222 1.71738 0
M  V30 245 H 23.3236 -1.47753 1.52587 0
M  V30 246 H 25.5866 -0.702941 0.636064 0
M  V30 247 H 25.2926 -2.9676 1.88749 0
M  V30 248 H 25.1666 -3.7579 0.325848 0
M  V30 249 H 27.5536 -2.94144 -0.237317 0
M  V30 250 H 27.6346 -2.17068 1.35334 0
M  V30 251 H 27.2786 -4.44871 2.45056 0
M  V30 252 H 27.2086 -5.19916 0.836338 0
M  V30 253 H 29.6996 -3.6456 0.995202 0
M  V30 254 H 30.0126 -7.26609 2.63171 0
M  V30 255 H 28.3576 -6.53696 2.36023 0
M  V30 256 H 31.5486 -4.49284 1.31382 0
M  V30 257 H 31.7216 -6.14389 2.05987 0
M  V30 258 N 25.1277 -0.289203 -1.54924 0
M  V30 259 C 26.3757 0.322879 -1.99504 0
M  V30 260 C 26.6967 1.55313 -1.1791 0
M  V30 261 O 25.9667 1.94001 -0.272097 0
M  V30 262 H 24.5467 0.122291 -0.736922 0
M  V30 263 H 27.2087 -0.397802 -1.90797 0
M  V30 264 H 26.3047 0.603061 -3.06218 0
M  V30 265 N 26.6058 1.57591 -0.0167156 0
M  V30 266 C 28.0168 1.79201 0.523834 0
M  V30 267 C 28.3678 0.925796 1.72984 0
M  V30 268 O 27.4928 0.132792 2.15992 0
M  V30 269 C 28.0878 3.25 0.957091 0
M  V30 270 C 26.6468 3.47648 1.44283 0
M  V30 271 C 25.7938 2.74374 0.401757 0
M  V30 272 H 28.7448 1.56831 -0.242816 0
M  V30 273 H 28.7658 3.34031 1.82219 0
M  V30 274 H 28.2778 3.88019 0.0791415 0
M  V30 275 H 26.3788 2.89866 2.34113 0
M  V30 276 H 26.4918 4.56352 1.45877 0
M  V30 277 H 24.8558 2.39485 0.867121 0
M  V30 278 H 25.6388 3.40102 -0.467513 0
M  V30 279 N 28.0839 -0.256276 1.55502 0
M  V30 280 C 29.0469 -1.30047 1.88734 0
M  V30 281 C 30.0469 -1.4154 0.763086 0
M  V30 282 O 31.2369 -1.40403 1.03115 0
M  V30 283 C 28.3689 -2.67953 2.10747 0
M  V30 284 H 29.5619 -1.01802 2.82093 0
M  V30 285 H 27.1149 -0.495134 1.4825 0
M  V30 286 H 27.8499 -3.01351 1.19825 0
M  V30 287 H 27.6349 -2.60993 2.92617 0
M  V30 288 H 29.1249 -3.43368 2.37673 0
M  V30 289 N 29.562 -1.4872 -0.521534 0
M  V30 290 C 30.973 -1.50607 -1.10337 0
M  V30 291 C 31.324 -0.280612 -1.94183 0
M  V30 292 O 30.449 0.611507 -2.0758 0
M  V30 293 C 31.044 -2.72903 -2.00772 0
M  V30 294 C 29.603 -2.77634 -2.54158 0
M  V30 295 C 28.75 -2.44241 -1.31307 0
M  V30 296 H 31.701 -1.55714 -0.306388 0
M  V30 297 H 31.722 -2.519 -2.85178 0
M  V30 298 H 31.234 -3.62077 -1.39721 0
M  V30 299 H 29.335 -1.92689 -3.18907 0
M  V30 300 H 29.448 -3.79283 -2.92714 0
M  V30 301 H 27.812 -1.95577 -1.63161 0
M  V30 302 H 28.595 -3.35666 -0.719943 0
M  V30 303 N 31.0401 0.771051 -1.3745 0
M  V30 304 C 31.9701 1.89827 -1.3597 0
M  V30 305 C 32.9511 1.68562 -0.228216 0
M  V30 306 O 34.1361 1.8941 -0.428675 0
M  V30 307 C 31.2661 3.2712 -1.16662 0
M  V30 308 C 30.2201 3.6295 -2.2683 0
M  V30 309 C 29.5461 4.98791 -1.92644 0
M  V30 310 C 30.8461 3.69627 -3.69017 0
M  V30 311 H 32.5401 1.91323 -2.30295 0
M  V30 312 H 30.0861 0.919082 -1.10855 0
M  V30 313 H 32.0391 4.05615 -1.14256 0
M  V30 314 H 30.7631 3.26059 -0.187926 0
M  V30 315 H 29.4221 2.86763 -2.28392 0
M  V30 316 H 29.0701 4.94271 -0.933021 0
M  V30 317 H 28.7701 5.23733 -2.66416 0
M  V30 318 H 30.2941 5.79685 -1.91826 0
M  V30 319 H 31.7081 4.38273 -3.69581 0
M  V30 320 H 30.1051 4.06067 -4.41848 0
M  V30 321 H 31.1751 2.70273 -4.02592 0
M  V30 322 N 32.5182 1.22032 0.997298 0
M  V30 323 C 33.4482 1.01065 2.10495 0
M  V30 324 C 34.4292 -0.0669542 1.69968 0
M  V30 325 O 35.6142 0.0943987 1.9397 0
M  V30 326 C 32.7442 0.582874 3.42374 0
M  V30 327 C 31.6982 1.60592 3.96729 0
M  V30 328 C 31.0242 1.03412 5.24605 0
M  V30 329 C 32.3242 2.99478 4.27914 0
M  V30 330 H 34.0182 1.93708 2.28292 0
M  V30 331 H 31.5642 0.932761 1.09707 0
M  V30 332 H 33.5172 0.423332 4.19268 0
M  V30 333 H 32.2412 -0.379213 3.24391 0
M  V30 334 H 30.9002 1.75316 3.21963 0
M  V30 335 H 30.5482 0.063518 5.0296 0
M  V30 336 H 30.2482 1.71754 5.61938 0
M  V30 337 H 31.7722 0.886066 6.04137 0
M  V30 338 H 33.1862 2.88153 4.95622 0
M  V30 339 H 31.5832 3.64903 4.76409 0
M  V30 340 H 32.6532 3.49742 3.3587 0
M  V30 341 N 33.9963 -1.19345 1.0293 0
M  V30 342 C 34.9263 -2.2481 0.631105 0
M  V30 343 C 35.9073 -1.66245 -0.360104 0
M  V30 344 O 37.0923 -1.92677 -0.242726 0
M  V30 345 C 34.2223 -3.47295 -0.0184607 0
M  V30 346 C 33.1763 -4.18536 0.895073 0
M  V30 347 C 32.5023 -5.34586 0.110592 0
M  V30 348 C 33.8023 -4.73287 2.209 0
M  V30 349 H 35.4963 -2.58372 1.51275 0
M  V30 350 H 33.0423 -1.24194 0.728818 0
M  V30 351 H 34.9953 -4.20268 -0.308675 0
M  V30 352 H 33.7193 -3.12933 -0.934907 0
M  V30 353 H 32.3783 -3.47446 1.16949 0
M  V30 354 H 32.0263 -4.96469 -0.807902 0
M  V30 355 H 31.7263 -5.83183 0.719087 0
M  V30 356 H 33.2503 -6.10355 -0.172871 0
M  V30 357 H 34.6643 -5.38013 1.98028 0
M  V30 358 H 33.0613 -5.32373 2.76946 0
M  V30 359 H 34.1313 -3.91331 2.86336 0
M  V30 360 N 35.4744 -0.807222 -1.35358 0
M  V30 361 C 36.7204 -0.388463 -1.99045 0
M  V30 362 C 37.0534 1.04184 -1.63888 0
M  V30 363 O 36.3284 1.72292 -0.902535 0
M  V30 364 C 36.6114 -0.572783 -3.55515 0
M  V30 365 C 36.4644 -2.04807 -4.00468 0
M  V30 366 C 37.7834 0.00114064 -4.401 0
M  V30 367 H 34.9024 -0.142619 -0.723069 0
M  V30 368 H 37.5444 -1.01687 -1.60498 0
M  V30 369 H 35.6944 -0.0378425 -3.88482 0
M  V30 370 H 37.3664 -2.64544 -3.77908 0
M  V30 371 H 35.6094 -2.54427 -3.51353 0
M  V30 372 H 36.2804 -2.12792 -5.09337 0
M  V30 373 H 38.7564 -0.455716 -4.13597 0
M  V30 374 H 37.6324 -0.157737 -5.48673 0
M  V30 375 H 37.8934 1.09488 -4.28328 0
M  V30 376 N 36.9525 1.47285 -0.560781 0
M  V30 377 C 38.2005 2.02064 -0.0379868 0
M  V30 378 C 38.5215 1.43711 1.31803 0
M  V30 379 O 37.7915 0.61362 1.86042 0
M  V30 380 H 36.3715 0.746918 -0.0110531 0
M  V30 381 H 39.0335 1.80648 -0.731598 0
M  V30 382 H 38.1295 3.12064 0.0474463 0
M  V30 383 N 38.4306 0.297415 1.54768 0
M  V30 384 C 39.3606 -0.573494 2.26348 0
M  V30 385 C 40.3416 -1.14085 1.26169 0
M  V30 386 O 41.5266 -1.17086 1.54934 0
M  V30 387 C 38.6566 -1.74716 3.00153 0
M  V30 388 C 37.6106 -1.31032 4.07449 0
M  V30 389 C 36.9366 -2.56887 4.68949 0
M  V30 390 C 38.2366 -0.444183 5.20408 0
M  V30 391 H 39.9306 0.0235131 2.99391 0
M  V30 392 H 37.4766 0.0127488 1.43994 0
M  V30 393 H 39.4296 -2.3625 3.48947 0
M  V30 394 H 38.1536 -2.37035 2.24682 0
M  V30 395 H 36.8126 -0.718066 3.59499 0
M  V30 396 H 36.4606 -3.17512 3.90122 0
M  V30 397 H 36.1606 -2.2836 5.41411 0
M  V30 398 H 37.6846 -3.19229 5.20505 0
M  V30 399 H 39.0986 -0.9651 5.65118 0
M  V30 400 H 37.4956 -0.252846 5.99567 0
M  V30 401 H 38.5656 0.531609 4.81977 0
M  V30 402 N 39.9087 -1.5758 0.0250728 0
M  V30 403 C 40.8717 -2.08896 -0.943139 0
M  V30 404 C 41.8717 -1.00321 -1.25668 0
M  V30 405 O 43.0617 -1.26495 -1.19769 0
M  V30 406 C 40.1937 -2.55143 -2.26086 0
M  V30 407 H 41.3867 -2.95723 -0.498775 0
M  V30 408 H 38.9397 -1.54703 -0.222888 0
M  V30 409 H 39.6747 -1.71633 -2.75159 0
M  V30 410 H 39.4597 -3.34461 -2.04641 0
M  V30 411 H 40.9497 -2.95083 -2.95492 0
M  V30 412 N 41.3868 0.248026 -1.55636 0
M  V30 413 C 42.3168 1.31079 -1.93237 0
M  V30 414 C 43.2978 1.50264 -0.797174 0
M  V30 415 O 44.4828 1.62891 -1.05737 0
M  V30 416 C 41.6128 2.66575 -2.22609 0
M  V30 417 C 40.5668 2.62087 -3.3837 0
M  V30 418 C 39.8928 4.01369 -3.53281 0
M  V30 419 C 41.1928 2.19171 -4.7409 0
M  V30 420 H 42.8868 0.998556 -2.82257 0
M  V30 421 H 40.4328 0.47891 -1.35803 0
M  V30 422 H 42.3858 3.41057 -2.47503 0
M  V30 423 H 41.1098 2.99432 -1.30414 0
M  V30 424 H 39.7688 1.90063 -3.13483 0
M  V30 425 H 39.4168 4.31489 -2.58508 0
M  V30 426 H 39.1168 3.99254 -4.31127 0
M  V30 427 H 40.6408 4.77552 -3.80495 0
M  V30 428 H 42.0548 2.83384 -4.98363 0
M  V30 429 H 40.4518 2.2817 -5.5503 0
M  V30 430 H 41.5218 1.14336 -4.71227 0
M  V30 431 N 42.8649 1.48995 0.513639 0
M  V30 432 C 43.7949 1.67636 1.62544 0
M  V30 433 C 44.7759 0.525087 1.61793 0
M  V30 434 O 45.9609 0.759502 1.78732 0
M  V30 435 C 43.0909 1.73114 3.01079 0
M  V30 436 C 42.0449 2.87905 3.16693 0
M  V30 437 C 41.3709 2.78486 4.56453 0
M  V30 438 C 42.6709 4.29005 2.97913 0
M  V30 439 H 44.3649 2.60716 1.47198 0
M  V30 440 H 41.9109 1.25465 0.706714 0
M  V30 441 H 43.8639 1.84742 3.78746 0
M  V30 442 H 42.5879 0.766241 3.17484 0
M  V30 443 H 41.2469 2.75859 2.41448 0
M  V30 444 H 40.8949 1.7993 4.69717 0
M  V30 445 H 40.5949 3.55523 4.67843 0
M  V30 446 H 42.1189 2.92104 5.36197 0
M  V30 447 H 43.5329 4.41798 3.65359 0
M  V30 448 H 41.9299 5.07166 3.20785 0
M  V30 449 H 42.9999 4.44329 1.94165 0
M  V30 450 N 44.343 -0.763751 1.37857 0
M  V30 451 C 45.591 -1.51957 1.33243 0
M  V30 452 C 45.912 -1.94835 -0.0801709 0
M  V30 453 O 45.182 -1.66894 -1.02582 0
M  V30 454 H 43.762 -0.563626 0.49024 0
M  V30 455 H 46.424 -0.908504 1.7243 0
M  V30 456 H 45.52 -2.41523 1.97669 0
M  V30 457 N 45.8211 -1.22559 -0.990812 0
M  V30 458 C 46.7841 -0.998863 -2.0629 0
M  V30 459 C 47.7841 0.0354834 -1.60761 0
M  V30 460 O 48.9741 -0.203231 -1.7301 0
M  V30 461 C 46.1061 -0.509203 -3.37076 0
M  V30 462 H 47.2991 -1.95014 -2.27837 0
M  V30 463 H 44.8521 -1.04456 -1.16269 0
M  V30 464 H 45.5871 0.446335 -3.21214 0
M  V30 465 H 45.3721 -1.25547 -3.71457 0
M  V30 466 H 46.8621 -0.370888 -4.1595 0
M  V30 467 N 47.2992 1.18797 -1.03562 0
M  V30 468 C 48.2622 2.20464 -0.626769 0
M  V30 469 C 49.2622 1.57721 0.313173 0
M  V30 470 O 50.4522 1.73917 0.0992615 0
M  V30 471 C 47.5842 3.40802 0.0818498 0
M  V30 472 H 48.7772 2.58149 -1.5264 0
M  V30 473 H 46.3302 1.32593 -0.827578 0
M  V30 474 H 47.0652 3.08642 0.995518 0
M  V30 475 H 46.8502 3.8758 -0.593652 0
M  V30 476 H 48.3402 4.16092 0.354584 0
M  V30 477 N 48.7773 0.814389 1.34928 0
M  V30 478 C 50.1933 0.499084 1.51596 0
M  V30 479 C 50.3933 -0.978319 1.76157 0
M  V30 480 O 49.4493 -1.76309 1.80752 0
M  V30 481 C 50.7623 1.35121 2.68631 0
M  V30 482 C 52.3103 1.34746 2.82511 0
M  V30 483 C 52.7853 2.18388 4.0258 0
M  V30 484 N 54.2763 2.15966 4.09772 0
M  V30 485 C 55.0113 2.77437 5.01813 0
M  V30 486 N 54.5073 3.47866 5.99134 0
M  V30 487 N 56.3003 2.67037 4.94619 0
M  V30 488 H 48.4513 1.7711 1.17243 0
M  V30 489 H 50.7143 0.754256 0.574284 0
M  V30 490 H 50.4203 2.40001 2.57085 0
M  V30 491 H 50.2943 1.00991 3.63429 0
M  V30 492 H 52.6813 0.30648 2.93504 0
M  V30 493 H 52.7623 1.72869 1.88547 0
M  V30 494 H 52.4063 3.2253 3.92347 0
M  V30 495 H 52.3363 1.77621 4.9574 0
M  V30 496 H 54.8273 1.64729 3.40107 0
M  V30 497 H 55.1403 3.92038 6.65977 0
M  V30 498 H 53.4853 3.51972 5.99284 0
M  V30 499 H 56.6763 2.11597 4.17546 0
M  V30 500 H 56.8493 3.15232 5.66156 0
M  V30 501 N 50.2554 -1.46986 0.568584 0
M  V30 502 C 51.2184 -2.28624 -0.162366 0
M  V30 503 C 52.2184 -1.37596 -0.832103 0
M  V30 504 O 53.4084 -1.60115 -0.68622 0
M  V30 505 C 50.5404 -3.17596 -1.23878 0
M  V30 506 H 51.7334 -2.94722 0.554899 0
M  V30 507 H 49.2864 -1.52863 0.325976 0
M  V30 508 H 50.0214 -2.56214 -1.98808 0
M  V30 509 H 49.8064 -3.846 -0.763219 0
M  V30 510 H 51.2964 -3.79078 -1.75185 0
M  V30 511 N 51.7335 -0.305618 -1.54608 0
M  V30 512 C 53.1495 0.0476228 -1.59529 0
M  V30 513 C 53.3495 1.52025 -1.32252 0
M  V30 514 O 52.4055 2.27368 -1.09818 0
M  V30 515 C 53.7185 -0.354471 -2.98603 0
M  V30 516 C 55.2665 -0.303622 -3.11524 0
M  V30 517 C 55.7415 -0.680608 -4.52915 0
M  V30 518 N 57.2325 -0.63332 -4.5885 0
M  V30 519 C 57.9675 -0.897432 -5.66334 0
M  V30 520 N 57.4635 -1.22775 -6.81834 0
M  V30 521 N 59.2565 -0.824186 -5.56025 0
M  V30 522 H 51.4075 -1.2653 -1.70599 0
M  V30 523 H 53.6705 -0.513291 -0.797017 0
M  V30 524 H 53.3765 -1.3798 -3.23503 0
M  V30 525 H 53.2505 0.289568 -3.76087 0
M  V30 526 H 55.6375 0.712472 -2.8637 0
M  V30 527 H 55.7185 -0.982348 -2.36185 0
M  V30 528 H 55.3625 -1.69453 -4.78799 0
M  V30 529 H 55.2925 0.0202385 -5.26596 0
M  V30 530 H 57.7835 -0.389138 -3.75891 0
M  V30 531 H 58.0965 -1.41513 -7.59733 0
M  V30 532 H 56.4415 -1.26583 -6.83375 0
M  V30 533 H 59.6325 -0.565748 -4.64669 0
M  V30 534 H 59.8055 -1.03338 -6.39707 0
M  V30 535 N 53.2116 1.57565 -0.0334293 0
M  V30 536 C 54.1216 2.13943 0.962572 0
M  V30 537 C 55.1376 1.09276 1.35406 0
M  V30 538 O 56.3136 1.41355 1.4346 0
M  V30 539 C 53.3786 2.65887 2.22497 0
M  V30 540 C 52.4396 3.85286 1.8935 0
M  V30 541 C 51.6726 4.34743 3.09571 0
M  V30 542 O 51.8956 3.83352 4.22371 0
M  V30 543 O 50.8296 5.26538 2.91618 0
M  V30 544 H 54.6556 2.99333 0.513169 0
M  V30 545 H 52.2406 1.4822 0.18743 0
M  V30 546 H 54.1226 2.99346 2.96598 0
M  V30 547 H 52.7976 1.83578 2.6661 0
M  V30 548 H 51.7046 3.56746 1.1262 0
M  V30 549 H 53.0376 4.68771 1.5005 0
M  V30 550 N 54.6897 -0.239769 1.55765 0
M  V30 551 C 55.5997 -1.31831 1.94056 0
M  V30 552 C 56.6157 -1.52275 0.841925 0
M  V30 553 O 57.7917 -1.65759 1.14394 0
M  V30 554 C 54.8567 -2.65156 2.23368 0
M  V30 555 C 53.9177 -2.53173 3.46701 0
M  V30 556 C 53.1507 -3.8014 3.74606 0
M  V30 557 O 53.3737 -4.82343 3.04469 0
M  V30 558 O 52.3077 -3.78344 4.68123 0
M  V30 559 H 56.1337 -1.02347 2.85935 0
M  V30 560 H 53.7187 -0.441123 1.42739 0
M  V30 561 H 55.6007 -3.43929 2.43497 0
M  V30 562 H 54.2757 -2.94358 1.34666 0
M  V30 563 H 53.1827 -1.72662 3.31871 0
M  V30 564 H 54.5157 -2.28915 4.35728 0
M  V30 565 N 56.1678 -1.49265 -0.50573 0
M  V30 566 C 57.1308 -1.65075 -1.59006 0
M  V30 567 C 58.1308 -0.522768 -1.52065 0
M  V30 568 O 59.3208 -0.789117 -1.55302 0
M  V30 569 C 56.4528 -1.64369 -2.98656 0
M  V30 570 H 57.6458 -2.61784 -1.46319 0
M  V30 571 H 55.1988 -1.38226 -0.729616 0
M  V30 572 H 55.9338 -0.692272 -3.16825 0
M  V30 573 H 55.7188 -2.46282 -3.05103 0
M  V30 574 H 57.2088 -1.78674 -3.77446 0
M  V30 575 N 57.6459 0.756429 -1.3826 0
M  V30 576 C 58.8939 1.51248 -1.34047 0
M  V30 577 C 59.2149 1.94875 0.0698372 0
M  V30 578 O 58.4849 1.67436 1.01696 0
M  V30 579 H 57.0649 0.561018 -0.493222 0
M  V30 580 H 59.7269 0.899347 -1.7291 0
M  V30 581 H 58.8229 2.40472 -1.98947 0
M  V30 582 N 59.124 1.23083 0.984299 0
M  V30 583 C 60.372 1.05848 1.72165 0
M  V30 584 C 60.693 -0.406049 1.90726 0
M  V30 585 O 59.963 -1.29139 1.47309 0
M  V30 586 H 58.543 0.388685 0.637913 0
M  V30 587 H 61.205 1.54736 1.18503 0
M  V30 588 H 60.301 1.54327 2.71274 0
M  V30 589 N 60.6021 -1.18246 1.0419 0
M  V30 590 C 61.8501 -1.87886 0.744543 0
M  V30 591 C 62.1711 -1.8082 -0.730006 0
M  V30 592 O 61.4411 -1.22736 -1.52685 0
M  V30 593 H 60.0211 -0.695556 0.272417 0
M  V30 594 H 62.6831 -1.43494 1.31892 0
M  V30 595 H 61.7791 -2.9389 1.05049 0
M  V30 596 N 62.0802 -0.821533 -1.34494 0
M  V30 597 C 63.3272 -0.408946 -1.98328 0
M  V30 598 C 63.6552 1.02764 -1.65136 0
M  V30 599 O 62.9102 1.73026 -0.914349 0
M  V30 600 C 63.2092 -0.556512 -3.53041 0
M  V30 601 C 62.8752 -1.95861 -4.0614 0
M  V30 602 C 61.5372 -2.34217 -4.20352 0
M  V30 603 C 63.8892 -2.87523 -4.34718 0
M  V30 604 C 61.2172 -3.63572 -4.6047 0
M  V30 605 C 63.5692 -4.1634 -4.76281 0
M  V30 606 C 62.2332 -4.54675 -4.88699 0
M  V30 607 H 61.5032 -0.149644 -0.725732 0
M  V30 608 H 64.1502 -1.04521 -1.6046 0
M  V30 609 H 62.4552 0.163148 -3.9146 0
M  V30 610 H 64.1522 -0.217826 -4.00408 0
M  V30 611 H 60.7422 -1.65066 -3.95539 0
M  V30 612 H 64.9262 -2.59133 -4.23277 0
M  V30 613 H 60.1822 -3.93101 -4.68275 0
M  V30 614 H 64.3562 -4.87455 -4.97354 0
M  V30 615 H 61.9832 -5.54959 -5.19542 0
M  V30 616 N 63.5583 1.46682 -0.576371 0
M  V30 617 C 64.7833 2.07304 -0.0630475 0
M  V30 618 C 65.2083 1.42329 1.2298 0
M  V30 619 O 64.5663 0.504865 1.74129 0
M  V30 620 C 64.6143 3.60472 0.095895 0
M  V30 621 O 63.7183 3.95927 1.15394 0
M  V30 622 H 63.0593 0.661288 -0.0599463 0
M  V30 623 H 65.5893 1.88417 -0.797511 0
M  V30 624 H 65.5993 4.06865 0.304071 0
M  V30 625 H 64.2743 4.07157 -0.84828 0
M  V30 626 H 62.8513 3.61252 0.924724 0
M  V30 627 N 65.0364 0.313813 1.54444 0
M  V30 628 C 65.9664 -0.549454 2.26943 0
M  V30 629 C 66.9474 -1.12741 1.27372 0
M  V30 630 O 68.1324 -1.15436 1.56167 0
M  V30 631 C 65.2624 -1.71523 3.01989 0
M  V30 632 C 64.2164 -1.26703 4.08816 0
M  V30 633 C 63.5424 -2.51898 4.71647 0
M  V30 634 C 64.8424 -0.388962 5.2085 0
M  V30 635 H 66.5364 0.0552661 2.99349 0
M  V30 636 H 64.0824 0.0280207 1.43973 0
M  V30 637 H 66.0354 -2.32535 3.51433 0
M  V30 638 H 64.7594 -2.34639 2.27183 0
M  V30 639 H 63.4184 -0.679896 3.6024 0
M  V30 640 H 63.0664 -3.13356 3.93468 0
M  V30 641 H 62.7664 -2.22605 5.43802 0
M  V30 642 H 64.2904 -3.1369 5.23861 0
M  V30 643 H 65.7044 -0.905107 5.6611 0
M  V30 644 H 64.1014 -0.18924 5.99802 0
M  V30 645 H 65.1714 0.582699 4.81386 0
M  V30 646 N 66.5145 -1.57545 0.0417849 0
M  V30 647 C 67.4645 -2.07483 -0.945247 0
M  V30 648 C 68.4485 -0.977983 -1.27767 0
M  V30 649 O 69.6405 -1.24142 -1.26166 0
M  V30 650 C 66.7695 -2.61576 -2.22335 0
M  V30 651 C 65.8555 -3.78213 -1.91874 0
M  V30 652 N 66.2465 -4.88344 -1.31733 0
M  V30 653 C 64.5445 -3.8694 -2.21796 0
M  V30 654 C 65.2455 -5.69462 -1.1869 0
M  V30 655 N 64.2215 -5.16771 -1.68666 0
M  V30 656 H 68.0235 -2.90029 -0.475441 0
M  V30 657 H 65.5375 -1.61581 -0.162911 0
M  V30 658 H 67.5345 -2.95651 -2.93932 0
M  V30 659 H 66.1945 -1.80465 -2.69931 0
M  V30 660 H 67.2055 -5.08335 -0.990729 0
M  V30 661 H 63.8825 -3.16757 -2.71977 0
M  V30 662 H 65.2725 -6.68023 -0.720793 0
M  V30 663 N 67.9926 0.231505 -1.5589 0
M  V30 664 C 69.4036 0.799327 -1.68724 0
M  V30 665 C 69.7546 1.85398 -0.642022 0
M  V30 666 O 68.8796 2.1539 0.208784 0
M  V30 667 C 69.4746 1.45664 -3.05888 0
M  V30 668 C 68.0336 1.97197 -3.20609 0
M  V30 669 C 67.1806 0.828552 -2.64632 0
M  V30 670 H 70.1316 0.00702616 -1.58698 0
M  V30 671 H 70.1526 2.32517 -3.01191 0
M  V30 672 H 69.6646 0.688808 -3.81939 0
M  V30 673 H 67.7656 2.76813 -2.4941 0
M  V30 674 H 67.8786 2.15878 -4.27707 0
M  V30 675 H 66.2426 1.23321 -2.22854 0
M  V30 676 H 67.0256 0.0735544 -3.43221 0
M  V30 677 N 69.4707 1.49531 0.497807 0
M  V30 678 C 70.8817 1.52344 1.07927 0
M  V30 679 C 71.2327 0.311469 1.93712 0
M  V30 680 O 70.3577 -0.578405 2.08527 0
M  V30 681 C 70.9527 2.76062 1.96405 0
M  V30 682 C 69.5117 2.81643 2.49709 0
M  V30 683 C 68.6587 2.46299 1.27404 0
M  V30 684 H 71.6097 1.56182 0.281576 0
M  V30 685 H 71.6307 2.56405 2.81135 0
M  V30 686 H 71.1427 3.64254 1.33943 0
M  V30 687 H 69.2437 1.97739 3.15801 0
M  V30 688 H 69.3567 3.83891 2.86643 0
M  V30 689 H 67.7207 1.98148 1.60029 0
M  V30 690 H 68.5037 3.36769 0.66645 0
M  V30 691 N 70.9488 -0.749086 1.3866 0
M  V30 692 C 72.1788 -1.53611 1.38157 0
M  V30 693 C 72.5868 -1.89177 -0.0293595 0
M  V30 694 O 71.9298 -1.53606 -1.00752 0
M  V30 695 C 71.9918 -2.86087 2.17702 0
M  V30 696 C 71.6558 -2.73034 3.66472 0
M  V30 697 C 72.6528 -2.42526 4.59866 0
M  V30 698 C 70.3378 -2.90345 4.09884 0
M  V30 699 C 72.3318 -2.29492 5.94653 0
M  V30 700 C 70.0188 -2.7693 5.4475 0
M  V30 701 C 71.0168 -2.46547 6.36949 0
M  V30 702 O 70.7048 -2.33199 7.69333 0
M  V30 703 H 70.4368 -0.481773 0.474205 0
M  V30 704 H 72.9908 -0.934465 1.82912 0
M  V30 705 H 71.2208 -3.48458 1.67672 0
M  V30 706 H 72.9098 -3.47625 2.09551 0
M  V30 707 H 73.6758 -2.28816 4.27631 0
M  V30 708 H 69.5548 -3.1299 3.38464 0
M  V30 709 H 73.0988 -2.05698 6.66584 0
M  V30 710 H 68.9958 -2.90215 5.76581 0
M  V30 711 H 69.7638 -2.48376 7.79905 0
M  V30 712 N 72.4269 -1.23603 -0.977757 0
M  V30 713 C 73.6739 -1.06971 -1.71941 0
M  V30 714 C 74.0019 0.393009 -1.90488 0
M  V30 715 O 73.2569 1.30719 -1.4564 0
M  V30 716 C 73.5559 -1.7433 -3.11999 0
M  V30 717 C 73.2219 -3.24252 -3.13323 0
M  V30 718 C 71.8839 -3.65156 -3.13392 0
M  V30 719 C 74.2359 -4.20141 -3.08433 0
M  V30 720 C 71.5639 -5.00403 -3.0629 0
M  V30 721 C 73.9159 -5.55384 -3.02873 0
M  V30 722 C 72.5799 -5.95647 -3.01265 0
M  V30 723 H 71.8499 -0.391433 -0.629175 0
M  V30 724 H 74.4969 -1.53572 -1.14403 0
M  V30 725 H 72.8019 -1.20096 -3.7294 0
M  V30 726 H 74.4989 -1.58936 -3.68158 0
M  V30 727 H 71.0889 -2.91692 -3.14029 0
M  V30 728 H 75.2729 -3.89547 -3.07517 0
M  V30 729 H 70.5289 -5.3081 -3.03399 0
M  V30 730 H 74.7029 -6.29398 -2.98046 0
M  V30 731 H 72.3299 -7.0041 -2.95516 0
M  V30 732 N 73.905 1.17692 -1.04816 0
M  V30 733 C 74.853 2.23632 -0.63966 0
M  V30 734 C 75.847 1.6601 0.337219 0
M  V30 735 O 77.053 1.78844 0.203693 0
M  V30 736 H 73.428 0.727949 -0.188665 0
M  V30 737 H 75.399 2.55387 -1.54337 0
M  V30 738 C 74.148 3.4769 -0.0264051 0
M  V30 739 H 73.471 3.92331 -0.769164 0
M  V30 740 H 74.911 4.23418 0.222098 0
M  V30 741 C 73.37 3.13807 1.22584 0
M  V30 742 O 73.9 3.28236 2.31569 0
M  V30 743 N 72.106 2.68065 1.12202 0
M  V30 744 H 71.653 2.56525 0.235133 0
M  V30 745 H 71.611 2.45767 1.96076 0
M  V30 746 N 75.3831 0.828654 1.34056 0
M  V30 747 C 76.3131 0.269443 2.3194 0
M  V30 748 C 77.2941 -0.617247 1.58506 0
M  V30 749 O 78.4791 -0.542931 1.86456 0
M  V30 750 C 75.6091 -0.564793 3.42677 0
M  V30 751 C 74.5631 0.225241 4.27407 0
M  V30 752 C 73.8891 -0.7321 5.29664 0
M  V30 753 C 75.1891 1.43663 5.02154 0
M  V30 754 H 76.8831 1.08728 2.7896 0
M  V30 755 H 74.4291 0.524283 1.34117 0
M  V30 756 H 76.3821 -0.966233 4.10173 0
M  V30 757 H 75.1061 -1.41574 2.9432 0
M  V30 758 H 73.7651 0.608117 3.61521 0
M  V30 759 H 73.4131 -1.57916 4.77568 0
M  V30 760 H 73.1131 -0.20767 5.87233 0
M  V30 761 H 74.6371 -1.13128 6.00029 0
M  V30 762 H 76.0511 1.1089 5.62473 0
M  V30 763 H 74.4481 1.89711 5.69324 0
M  V30 764 H 75.5181 2.21181 4.31517 0
M  V30 765 N 76.8612 -1.46375 0.584142 0
M  V30 766 C 77.8242 -2.28784 -0.138108 0
M  V30 767 C 78.8242 -1.38471 -0.817462 0
M  V30 768 O 80.0142 -1.60833 -0.669199 0
M  V30 769 C 77.1462 -3.18892 -1.20503 0
M  V30 770 H 78.3392 -2.94117 0.586127 0
M  V30 771 H 75.8922 -1.52509 0.342171 0
M  V30 772 H 76.6272 -2.58309 -1.96079 0
M  V30 773 H 76.4122 -3.85388 -0.722384 0
M  V30 774 H 77.9022 -3.80914 -1.71155 0
M  V30 775 N 78.3393 -0.321999 -1.54275 0
M  V30 776 C 79.2493 0.553631 -2.27974 0
M  V30 777 C 80.2653 1.13054 -1.32268 0
M  V30 778 O 81.4413 1.15084 -1.6528 0
M  V30 779 C 78.5063 1.69927 -3.02201 0
M  V30 780 C 77.5673 1.15433 -4.1349 0
M  V30 781 C 76.8003 2.24537 -4.84168 0
M  V30 782 O 77.0233 3.44852 -4.5435 0
M  V30 783 O 75.9573 1.90044 -5.7111 0
M  V30 784 H 79.7833 -0.0448345 -3.03667 0
M  V30 785 H 77.3683 -0.0877418 -1.49142 0
M  V30 786 H 79.2503 2.3663 -3.48689 0
M  V30 787 H 77.9253 2.28395 -2.29385 0
M  V30 788 H 76.8323 0.452436 -3.71354 0
M  V30 789 H 78.1653 0.614805 -4.88345 0
M  V30 790 N 79.8174 1.5752 -0.0501392 0
M  V30 791 C 81.0654 1.9227 0.622642 0
M  V30 792 C 81.3864 0.929083 1.71444 0
M  V30 793 O 80.6564 -0.0262186 1.95882 0
M  V30 794 H 79.2364 0.709739 0.232981 0
M  V30 795 H 81.8984 1.94628 -0.102898 0
M  V30 796 H 80.9944 2.93479 1.06191 0
M  V30 797 N 81.2955 -0.223234 1.56011 0
M  V30 798 C 82.2585 -1.26014 1.9145 0
M  V30 799 C 83.2585 -1.3989 0.792937 0
M  V30 800 O 84.4485 -1.38184 1.0607 0
M  V30 801 C 81.5805 -2.63422 2.16383 0
M  V30 802 H 82.7735 -0.95796 2.84189 0
M  V30 803 H 80.3265 -0.463576 1.49267 0
M  V30 804 H 81.0615 -2.98741 1.2619 0
M  V30 805 H 80.8465 -2.54728 2.98088 0
M  V30 806 H 82.3365 -3.38249 2.44903 0
M  V30 807 N 82.7736 -1.49793 -0.48987 0
M  V30 808 C 84.1896 -1.36803 -0.822022 0
M  V30 809 C 84.3896 -0.409652 -1.97292 0
M  V30 810 O 83.4456 0.154614 -2.52026 0
M  V30 811 C 84.7586 -2.77768 -1.15175 0
M  V30 812 C 86.3066 -2.86549 -1.25931 0
M  V30 813 C 86.7816 -4.28306 -1.62228 0
M  V30 814 N 88.2726 -4.31169 -1.69256 0
M  V30 815 C 89.0076 -5.37832 -1.98807 0
M  V30 816 N 88.5036 -6.54726 -2.26507 0
M  V30 817 N 90.2966 -5.25258 -2.00152 0
M  V30 818 H 82.4476 -2.10691 0.268881 0
M  V30 819 H 84.7106 -0.946241 0.057728 0
M  V30 820 H 84.4166 -3.49648 -0.379335 0
M  V30 821 H 84.2906 -3.13836 -2.09253 0
M  V30 822 H 86.6776 -2.14899 -2.02243 0
M  V30 823 H 86.7586 -2.54049 -0.298776 0
M  V30 824 H 86.4026 -5.00486 -0.864622 0
M  V30 825 H 86.3326 -4.58279 -2.594 0
M  V30 826 H 88.8236 -3.4687 -1.49965 0
M  V30 827 H 89.1366 -7.31833 -2.48276 0
M  V30 828 H 87.4816 -6.57933 -2.23939 0
M  V30 829 H 90.6726 -4.32938 -1.77996 0
M  V30 830 H 90.8456 -6.08476 -2.22848 0
M  V30 831 N 84.2517 0.741722 -1.39055 0
M  V30 832 C 85.5007 1.49656 -1.35225 0
M  V30 833 C 85.8137 1.95533 0.0512708 0
M  V30 834 O 87.0197 2.7067 0.212138 0
M  V30 835 C 85.4757 2.70389 -2.37525 0
M  V30 836 C 85.0837 2.31489 -3.83558 0
M  V30 837 C 86.8277 3.48236 -2.42759 0
M  V30 838 C 84.7347 3.48903 -4.77515 0
M  V30 839 H 83.6647 0.56197 -0.502699 0
M  V30 840 H 86.3157 0.809727 -1.64668 0
M  V30 841 H 84.6977 3.41113 -2.01142 0
M  V30 842 H 85.8717 1.68354 -4.28945 0
M  V30 843 H 84.1867 1.66749 -3.81554 0
M  V30 844 H 86.7837 4.35558 -3.1015 0
M  V30 845 H 87.1267 3.90229 -1.45008 0
M  V30 846 H 87.6597 2.84535 -2.78002 0
M  V30 847 H 84.3987 3.11966 -5.76504 0
M  V30 848 H 83.9187 4.11041 -4.36813 0
M  V30 849 H 85.5977 4.15328 -4.96096 0
M  V30 850 N 85.7298 1.2412 0.971189 0
M  V30 851 C 86.6928 1.03156 2.04674 0
M  V30 852 C 87.6928 -0.00990322 1.60797 0
M  V30 853 O 88.8828 0.230729 1.72665 0
M  V30 854 C 86.0148 0.562765 3.36223 0
M  V30 855 H 87.2078 1.98614 2.24705 0
M  V30 856 H 84.7608 1.06293 1.14593 0
M  V30 857 H 85.4958 -0.395176 3.21883 0
M  V30 858 H 85.2808 1.31441 3.69413 0
M  V30 859 H 86.7708 0.437015 4.15307 0
M  V30 860 N 87.2079 -1.17134 1.05439 0
M  V30 861 C 88.1709 -2.19439 0.661764 0
M  V30 862 C 89.1709 -1.58199 -0.288042 0
M  V30 863 O 90.3609 -1.74053 -0.0715803 0
M  V30 864 C 87.4929 -3.40889 -0.0276209 0
M  V30 865 H 88.6859 -2.55688 1.56728 0
M  V30 866 H 86.2389 -1.31259 0.848567 0
M  V30 867 H 86.9739 -3.10187 -0.94629 0
M  V30 868 H 86.7589 -3.86586 0.655238 0
M  V30 869 H 88.2489 -4.16603 -0.288342 0
M  V30 870 N 88.686 -0.835752 -1.33615 0
M  V30 871 C 89.911 -0.442389 -2.02627 0
M  V30 872 C 90.336 0.947735 -1.62479 0
M  V30 873 O 89.694 1.61907 -0.815826 0
M  V30 874 C 89.742 -0.567216 -3.56111 0
M  V30 875 O 88.846 0.407799 -4.10379 0
M  V30 876 H 88.187 -0.180278 -0.639059 0
M  V30 877 H 90.717 -1.12972 -1.70583 0
M  V30 878 H 90.727 -0.447708 -4.05536 0
M  V30 879 H 89.402 -1.58103 -3.84677 0
M  V30 880 H 87.979 0.246107 -3.72087 0
M  V30 881 N 90.1641 1.46063 -0.591896 0
M  V30 882 C 91.1271 2.28854 0.125973 0
M  V30 883 C 92.1271 1.38903 0.810107 0
M  V30 884 O 93.3171 1.61186 0.66066 0
M  V30 885 C 90.4491 3.19526 1.1881 0
M  V30 886 H 91.6421 2.93802 -0.601717 0
M  V30 887 H 89.1951 1.52325 -0.350254 0
M  V30 888 H 89.9301 2.59345 1.94707 0
M  V30 889 H 89.7151 3.85766 0.701936 0
M  V30 890 H 91.2051 3.81817 1.69132 0
M  V30 891 N 91.6422 0.330177 1.54103 0
M  V30 892 C 92.8702 -0.272179 2.05102 0
M  V30 893 C 93.2852 -1.45267 1.20595 0
M  V30 894 O 92.6422 -1.8094 0.238144 0
M  V30 895 C 92.6932 -0.70023 3.54653 0
M  V30 896 O 92.4142 0.433301 4.35952 0
M  V30 897 C 93.9152 -1.3647 4.21771 0
M  V30 898 H 91.1352 -0.0549159 0.668749 0
M  V30 899 H 93.6792 0.478285 1.98828 0
M  V30 900 H 91.8342 -1.40066 3.61193 0
M  V30 901 H 92.2482 0.0947539 5.24414 0
M  V30 902 H 93.7222 -1.61509 5.27843 0
M  V30 903 H 94.1992 -2.31409 3.73292 0
M  V30 904 H 94.8052 -0.706675 4.19388 0
M  V30 905 N 93.1203 -1.57491 0.0584922 0
M  V30 906 C 94.3603 -1.94851 -0.617458 0
M  V30 907 C 94.7243 -0.937165 -1.67575 0
M  V30 908 O 95.9253 -1.19795 -2.40629 0
M  V30 909 C 94.1963 -3.36955 -1.19147 0
M  V30 910 S 95.7553 -3.96277 -1.8844 0
M  V30 911 H 92.5733 -0.681539 -0.202547 0
M  V30 912 H 95.1753 -1.95073 0.129176 0
M  V30 913 H 93.8793 -4.08355 -0.409215 0
M  V30 914 H 93.4103 -3.40245 -1.97476 0
M  V30 915 H 95.4253 -3.82099 -3.16568 0
M  V30 916 N 94.5984 0.214957 -1.56127 0
M  V30 917 C 95.8464 0.936518 -1.79091 0
M  V30 918 C 96.1674 1.84606 -0.628148 0
M  V30 919 O 95.4374 1.92664 0.35462 0
M  V30 920 H 94.0174 0.3488 -0.660566 0
M  V30 921 H 96.6794 0.22523 -1.93594 0
M  V30 922 H 95.7754 1.53943 -2.71492 0
M  V30 923 N 96.0765 1.50051 0.48192 0
M  V30 924 C 96.9865 1.7089 1.60728 0
M  V30 925 C 98.0025 0.591788 1.63627 0
M  V30 926 O 99.1785 0.868817 1.81696 0
M  V30 927 C 96.2435 1.78855 2.97005 0
M  V30 928 C 95.3045 3.02537 3.04581 0
M  V30 929 C 94.5375 3.10112 4.34357 0
M  V30 930 O 94.7605 2.24765 5.24249 0
M  V30 931 O 93.6945 4.02747 4.47301 0
M  V30 932 H 97.5205 2.66264 1.46072 0
M  V30 933 H 95.1055 1.34018 0.660264 0
M  V30 934 H 96.9875 1.86336 3.77964 0
M  V30 935 H 95.6625 0.866628 3.11883 0
M  V30 936 H 94.5695 3.00563 2.22739 0
M  V30 937 H 95.9025 3.94272 2.94636 0
M  V30 938 N 97.5546 -0.734337 1.39446 0
M  V30 939 C 98.4646 -1.87879 1.40495 0
M  V30 940 C 99.4806 -1.714 0.299672 0
M  V30 941 O 100.657 -1.93991 0.541249 0
M  V30 942 C 97.7216 -3.23477 1.24754 0
M  V30 943 C 96.7826 -3.52344 2.45259 0
M  V30 944 C 96.0156 -4.81473 2.30259 0
M  V30 945 O 96.2386 -5.55237 1.30643 0
M  V30 946 O 95.1726 -5.10254 3.19256 0
M  V30 947 H 98.9986 -1.89949 2.36966 0
M  V30 948 H 96.5836 -0.882243 1.20569 0
M  V30 949 H 98.4656 -4.04509 1.18111 0
M  V30 950 H 97.1406 -3.22176 0.313781 0
M  V30 951 H 96.0476 -2.71396 2.57478 0
M  V30 952 H 97.3806 -3.58426 3.37331 0
M  V30 953 N 99.0327 -1.24633 -0.964593 0
M  V30 954 C 99.9957 -1.0424 -2.04124 0
M  V30 955 C 100.996 0.00137563 -1.608 0
M  V30 956 O 102.186 -0.239883 -1.7254 0
M  V30 957 C 99.3177 -0.580588 -3.3592 0
M  V30 958 H 100.511 -1.99803 -2.23649 0
M  V30 959 H 98.0637 -1.06899 -1.14027 0
M  V30 960 H 98.7987 0.3781 -3.22088 0
M  V30 961 H 98.5837 -1.33398 -3.6871 0
M  V30 962 H 100.074 -0.459034 -4.15069 0
M  V30 963 N 100.511 1.16574 -1.06058 0
M  V30 964 C 101.922 1.68662 -0.800632 0
M  V30 965 C 102.273 1.84184 0.67608 0
M  V30 966 O 101.398 1.53568 1.52466 0
M  V30 967 C 101.993 3.06356 -1.44676 0
M  V30 968 C 100.552 3.55575 -1.23465 0
M  V30 969 C 99.6988 2.31616 -1.52477 0
M  V30 970 H 102.65 1.00969 -1.22438 0
M  V30 971 H 102.671 3.70636 -0.860788 0
M  V30 972 H 102.183 2.95027 -2.52152 0
M  V30 973 H 100.284 3.72167 -0.179527 0
M  V30 974 H 100.397 4.37812 -1.94571 0
M  V30 975 H 98.7608 2.36512 -0.945209 0
M  V30 976 H 99.5438 2.22887 -2.61106 0
M  V30 977 N 101.989 0.842826 1.3317 0
M  V30 978 C 102.952 0.284065 2.27433 0
M  V30 979 C 103.952 -0.54948 1.5112 0
M  V30 980 O 105.142 -0.362699 1.70382 0
M  V30 981 C 102.274 -0.599384 3.35589 0
M  V30 982 H 103.467 1.11589 2.78366 0
M  V30 983 H 101.02 0.616221 1.4364 0
M  V30 984 H 101.755 -1.45349 2.89904 0
M  V30 985 H 101.54 -0.00291266 3.921 0
M  V30 986 H 103.03 -0.983488 4.05854 0
M  V30 987 N 103.467 -1.45747 0.599634 0
M  V30 988 C 104.883 -1.57424 0.26264 0
M  V30 989 C 105.083 -1.59222 -1.23493 0
M  V30 990 O 104.139 -1.51825 -2.01756 0
M  V30 991 C 105.452 -2.86061 0.926795 0
M  V30 992 C 107 -2.99722 0.901967 0
M  V30 993 C 107.475 -4.31119 1.54598 0
M  V30 994 N 108.966 -4.37858 1.5111 0
M  V30 995 C 109.701 -5.3818 1.97863 0
M  V30 996 N 109.197 -6.45083 2.52666 0
M  V30 997 N 110.99 -5.29487 1.88679 0
M  V30 998 H 103.141 -1.42823 1.57211 0
M  V30 999 H 105.404 -0.68235 0.658105 0
M  V30 1000 H 105.11 -2.90605 1.98095 0
M  V30 1001 H 104.984 -3.74563 0.445238 0
M  V30 1002 H 107.371 -2.9475 -0.143617 0
M  V30 1003 H 107.452 -2.12652 1.42171 0
M  V30 1004 H 107.096 -4.36849 2.59085 0
M  V30 1005 H 107.026 -5.16992 1.00132 0
M  V30 1006 H 109.517 -3.61209 1.11068 0
M  V30 1007 H 109.83 -7.17869 2.86155 0
M  V30 1008 H 108.175 -6.45856 2.56701 0
M  V30 1009 H 111.366 -4.44877 1.4561 0
M  V30 1010 H 111.539 -6.07524 2.25429 0
M  V30 1011 N 104.945 -0.338344 -1.53925 0
M  V30 1012 C 106.193 0.259245 -2.0043 0
M  V30 1013 C 106.514 1.51484 -1.22791 0
M  V30 1014 O 105.784 1.93037 -0.33368 0
M  V30 1015 H 104.364 0.0987845 -0.740439 0
M  V30 1016 H 107.026 -0.458302 -1.89435 0
M  V30 1017 H 106.122 0.505334 -3.07982 0
M  V30 1018 N 106.423 1.57458 -0.0668435 0
M  V30 1019 C 107.648 1.9804 0.616027 0
M  V30 1020 C 108.073 0.944771 1.62652 0
M  V30 1021 O 107.431 -0.0902094 1.81075 0
M  V30 1022 C 107.479 3.37665 1.26549 0
M  V30 1023 O 106.583 3.36701 2.38131 0
M  V30 1024 H 105.924 0.644719 0.158849 0
M  V30 1025 H 108.454 2.04121 -0.139891 0
M  V30 1026 H 108.464 3.7474 1.6135 0
M  V30 1027 H 107.139 4.12573 0.525016 0
M  V30 1028 H 105.716 3.1139 2.0516 0
M  V30 1029 N 107.901 -0.206675 1.56239 0
M  V30 1030 C 109.312 -0.772383 1.69974 0
M  V30 1031 C 109.663 -1.84353 0.671436 0
M  V30 1032 O 108.788 -2.15695 -0.174491 0
M  V30 1033 C 109.383 -1.40779 3.08167 0
M  V30 1034 C 107.942 -1.92072 3.23706 0
M  V30 1035 C 107.089 -0.786347 2.65917 0
M  V30 1036 H 110.04 0.0182223 1.5869 0
M  V30 1037 H 110.061 -2.27696 3.04852 0
M  V30 1038 H 109.573 -0.627958 3.82986 0
M  V30 1039 H 107.674 -2.7281 2.53782 0
M  V30 1040 H 107.787 -2.09046 4.31087 0
M  V30 1041 H 106.151 -1.1976 2.24788 0
M  V30 1042 H 106.934 -0.0189416 3.43295 0
M  V30 1043 N 109.379 -1.50304 -0.473955 0
M  V30 1044 C 110.795 -1.37667 -0.807466 0
M  V30 1045 C 110.995 -0.430555 -1.96846 0
M  V30 1046 O 110.051 0.127874 -2.52176 0
M  V30 1047 C 111.364 -2.78974 -1.12223 0
M  V30 1048 C 112.912 -2.87868 -1.22885 0
M  V30 1049 C 113.387 -4.30003 -1.57676 0
M  V30 1050 N 114.878 -4.3294 -1.64673 0
M  V30 1051 C 115.613 -5.3991 -1.93091 0
M  V30 1052 N 115.109 -6.57092 -2.1955 0
M  V30 1053 N 116.902 -5.27351 -1.94569 0
M  V30 1054 H 109.053 -2.10394 0.291212 0
M  V30 1055 H 111.316 -0.945575 0.0677609 0
M  V30 1056 H 111.022 -3.50031 -0.342229 0
M  V30 1057 H 110.896 -3.16038 -2.05913 0
M  V30 1058 H 113.283 -2.17032 -1.99953 0
M  V30 1059 H 113.364 -2.54352 -0.271814 0
M  V30 1060 H 113.008 -5.01375 -0.81149 0
M  V30 1061 H 112.938 -4.61004 -2.54525 0
M  V30 1062 H 115.429 -3.48441 -1.46277 0
M  V30 1063 H 115.742 -7.34425 -2.405 0
M  V30 1064 H 114.087 -6.60272 -2.16948 0
M  V30 1065 H 117.278 -4.34801 -1.73394 0
M  V30 1066 H 117.451 -6.10805 -2.16381 0
M  V30 1067 N 110.857 0.726932 -1.39834 0
M  V30 1068 C 112.268 1.30558 -1.3346 0
M  V30 1069 C 112.619 1.962 -0.00273003 0
M  V30 1070 O 111.744 1.96826 0.899371 0
M  V30 1071 C 112.339 2.37404 -2.41713 0
M  V30 1072 C 110.898 2.90921 -2.38835 0
M  V30 1073 C 110.045 1.64578 -2.2318 0
M  V30 1074 H 112.996 0.523862 -1.49804 0
M  V30 1075 H 113.017 3.17984 -2.08966 0
M  V30 1076 H 112.529 1.89599 -3.38635 0
M  V30 1077 H 110.63 3.42985 -1.45575 0
M  V30 1078 H 110.743 3.43487 -3.33997 0
M  V30 1079 H 109.107 1.89219 -1.70494 0
M  V30 1080 H 109.89 1.18814 -3.22084 0
M  V30 1081 N 112.336 1.25143 0.95797 0
M  V30 1082 C 113.564 1.12424 1.73691 0
M  V30 1083 C 113.979 -0.322304 1.86029 0
M  V30 1084 O 113.336 -1.22186 1.35561 0
M  V30 1085 C 113.387 1.76933 3.15241 0
M  V30 1086 O 113.108 3.15932 3.03511 0
M  V30 1087 C 114.609 1.6995 4.09429 0
M  V30 1088 H 111.829 0.3923 0.544373 0
M  V30 1089 H 114.373 1.6544 1.20207 0
M  V30 1090 H 112.528 1.27895 3.6568 0
M  V30 1091 H 112.942 3.47598 3.9278 0
M  V30 1092 H 114.416 2.19753 5.06372 0
M  V30 1093 H 114.893 0.662619 4.34173 0
M  V30 1094 H 115.499 2.18461 3.64904 0
M  V30 1095 N 113.814 -1.1601 1.06675 0
M  V30 1096 C 114.724 -2.24156 0.692179 0
M  V30 1097 C 115.74 -1.71507 -0.293513 0
M  V30 1098 O 116.916 -2.009 -0.141861 0
M  V30 1099 C 113.981 -3.46587 0.0884131 0
M  V30 1100 C 113.042 -4.14257 1.12646 0
M  V30 1101 C 112.275 -5.30844 0.551416 0
M  V30 1102 O 112.498 -5.66858 -0.634656 0
M  V30 1103 O 111.432 -5.87848 1.29298 0
M  V30 1104 H 115.258 -2.58513 1.59388 0
M  V30 1105 H 112.843 -1.23599 0.83926 0
M  V30 1106 H 114.725 -4.20679 -0.246361 0
M  V30 1107 H 113.4 -3.13994 -0.786712 0
M  V30 1108 H 112.307 -3.42118 1.51348 0
M  V30 1109 H 113.64 -4.50914 1.97325 0
M  V30 1110 N 115.292 -0.849877 -1.32721 0
M  V30 1111 C 116.569 -0.372405 -1.92022 0
M  V30 1112 C 116.949 1.1435 -1.77447 0
M  V30 1113 O 116.297 1.96296 -1.16962 0
M  V30 1114 C 116.507 -0.831482 -3.3895 0
M  V30 1115 C 117.855 -0.845882 -4.16089 0
M  V30 1116 O 118.879 -0.775806 -3.47649 0
M  V30 1117 O 117.738 -0.943753 -5.38289 0
M  V30 1118 H 114.832 -0.107667 -0.819961 0
M  V30 1119 H 117.378 -0.93646 -1.41522 0
M  V30 1120 H 116.15 -1.87448 -3.4348 0
M  V30 1121 H 115.773 -0.24461 -3.96847 0
M  V30 1122 N 116.77 1.45427 -0.607355 0
M  V30 1123 C 117.7 2.3329 0.0989352 0
M  V30 1124 C 118.681 1.46816 0.859007 0
M  V30 1125 O 119.866 1.75588 0.829604 0
M  V30 1126 C 116.996 3.29518 1.09705 0
M  V30 1127 C 115.95 4.25626 0.450206 0
M  V30 1128 C 115.276 5.11542 1.55655 0
M  V30 1129 C 116.576 5.18505 -0.628455 0
M  V30 1130 H 118.27 2.92595 -0.634716 0
M  V30 1131 H 115.816 1.40696 -0.306681 0
M  V30 1132 H 117.769 3.89855 1.59971 0
M  V30 1133 H 116.493 2.68372 1.86129 0
M  V30 1134 H 115.152 3.66586 -0.0315886 0
M  V30 1135 H 114.8 4.46765 2.31107 0
M  V30 1136 H 114.5 5.76647 1.12925 0
M  V30 1137 H 116.024 5.74748 2.06148 0
M  V30 1138 H 117.438 5.72916 -0.209877 0
M  V30 1139 H 115.835 5.92085 -0.977489 0
M  V30 1140 H 116.905 4.60948 -1.50514 0
M  V30 1141 N 118.248 0.346503 1.53744 0
M  V30 1142 C 119.478 -0.250047 2.05081 0
M  V30 1143 C 119.886 -1.44529 1.22098 0
M  V30 1144 O 119.229 -1.81992 0.249917 0
M  V30 1145 C 119.291 -0.725934 3.52094 0
M  V30 1146 C 118.955 0.350053 4.55657 0
M  V30 1147 C 119.952 1.19372 5.0601 0
M  V30 1148 C 117.637 0.504827 4.99757 0
M  V30 1149 C 119.631 2.17768 5.99046 0
M  V30 1150 C 117.318 1.49218 5.92602 0
M  V30 1151 C 118.316 2.32706 6.42135 0
M  V30 1152 O 118.004 3.2976 7.33153 0
M  V30 1153 H 117.736 -0.0515469 0.674032 0
M  V30 1154 H 120.29 0.497559 1.99282 0
M  V30 1155 H 118.52 -1.52483 3.55367 0
M  V30 1156 H 120.209 -1.24336 3.86388 0
M  V30 1157 H 120.975 1.08525 4.72702 0
M  V30 1158 H 116.854 -0.135178 4.60802 0
M  V30 1159 H 120.398 2.82971 6.37631 0
M  V30 1160 H 116.295 1.6012 6.25325 0
M  V30 1161 H 117.063 3.25265 7.51096 0
M  V30 1162 N 119.726 -1.57421 0.075193 0
M  V30 1163 C 120.966 -1.95495 -0.596757 0
M  V30 1164 C 121.33 -0.954886 -1.66571 0
M  V30 1165 O 122.531 -1.22341 -2.39345 0
M  V30 1166 C 120.802 -3.382 -1.15566 0
M  V30 1167 S 122.361 -3.98254 -1.84226 0
M  V30 1168 H 119.179 -0.683649 -0.195307 0
M  V30 1169 H 121.781 -1.94925 0.149859 0
M  V30 1170 H 120.485 -4.08766 -0.36588 0
M  V30 1171 H 120.016 -3.42321 -1.93856 0
M  V30 1172 H 122.031 -3.85435 -3.12497 0
M  V30 1173 N 121.204 0.198386 -1.56346 0
M  V30 1174 C 122.151 1.24589 -1.94284 0
M  V30 1175 C 123.121 1.454 -0.802997 0
M  V30 1176 O 124.306 1.58588 -1.06087 0
M  V30 1177 C 121.446 2.58631 -2.28482 0
M  V30 1178 C 120.559 2.45426 -3.55514 0
M  V30 1179 C 119.694 3.7215 -3.79049 0
M  V30 1180 C 118.733 3.53763 -4.99518 0
M  V30 1181 N 117.87 4.72491 -5.19323 0
M  V30 1182 H 122.71 0.915356 -2.83593 0
M  V30 1183 H 120.247 0.440629 -1.40346 0
M  V30 1184 H 122.205 3.3672 -2.46324 0
M  V30 1185 H 120.835 2.89734 -1.42317 0
M  V30 1186 H 119.887 1.58652 -3.45737 0
M  V30 1187 H 121.199 2.27772 -4.43758 0
M  V30 1188 H 120.353 4.58679 -3.97113 0
M  V30 1189 H 119.092 3.92754 -2.89129 0
M  V30 1190 H 118.097 2.65619 -4.8138 0
M  V30 1191 H 119.322 3.34607 -5.90944 0
M  V30 1192 H 117.268 4.93365 -4.3235 0
M  V30 1193 H 117.185 4.5765 -6.01741 0
M  V30 1194 H 118.453 5.6038 -5.41843 0
M  V30 1195 N 122.682 1.50554 0.465978 0
M  V30 1196 C 123.612 1.72722 1.57128 0
M  V30 1197 C 124.593 0.576294 1.6004 0
M  V30 1198 O 125.778 0.81598 1.76225 0
M  V30 1199 C 122.908 1.82605 2.95419 0
M  V30 1200 C 121.862 2.97835 3.07373 0
M  V30 1201 C 121.188 2.92867 4.47363 0
M  V30 1202 C 122.488 4.38265 2.84114 0
M  V30 1203 H 124.182 2.65267 1.38829 0
M  V30 1204 H 121.728 1.2765 0.666441 0
M  V30 1205 H 123.681 1.96698 3.72677 0
M  V30 1206 H 122.405 0.866858 3.14886 0
M  V30 1207 H 121.064 2.83401 2.3255 0
M  V30 1208 H 120.712 1.94783 4.63755 0
M  V30 1209 H 120.412 3.70227 4.56296 0
M  V30 1210 H 121.936 3.09015 5.26633 0
M  V30 1211 H 123.35 4.53198 3.51118 0
M  V30 1212 H 121.747 5.17115 3.04487 0
M  V30 1213 H 122.817 4.50281 1.7993 0
M  V30 1214 N 124.16 -0.719506 1.40217 0
M  V30 1215 C 125.406 -1.48152 1.38488 0
M  V30 1216 C 125.739 -1.94195 -0.0141867 0
M  V30 1217 O 125.014 -1.67884 -0.982096 0
M  V30 1218 C 125.297 -2.71035 2.37091 0
M  V30 1219 C 125.15 -2.30912 3.86005 0
M  V30 1220 C 126.469 -3.73182 2.33288 0
M  V30 1221 H 123.588 -0.537395 0.504357 0
M  V30 1222 H 126.23 -0.821472 1.71324 0
M  V30 1223 H 124.38 -3.27352 2.0922 0
M  V30 1224 H 126.052 -1.80107 4.24687 0
M  V30 1225 H 124.295 -1.62958 4.02029 0
M  V30 1226 H 124.966 -3.18978 4.50508 0
M  V30 1227 H 127.442 -3.26485 2.57966 0
M  V30 1228 H 126.318 -4.56806 3.04334 0
M  V30 1229 H 126.579 -4.21202 1.34317 0
M  V30 1230 N 125.638 -1.25649 -0.95132 0
M  V30 1231 C 126.886 -1.10375 -1.69298 0
M  V30 1232 C 127.207 0.355339 -1.91735 0
M  V30 1233 O 126.477 1.25188 -1.50681 0
M  V30 1234 H 125.057 -0.405461 -0.627384 0
M  V30 1235 H 127.719 -1.57823 -1.14358 0
M  V30 1236 H 126.815 -1.61465 -2.67087 0
M  V30 1237 N 127.117 1.15442 -1.07289 0
M  V30 1238 C 128.365 1.85845 -0.794096 0
M  V30 1239 C 128.686 1.82692 0.681809 0
M  V30 1240 O 127.956 1.26741 1.49377 0
M  V30 1241 H 126.536 0.688089 -0.290763 0
M  V30 1242 H 129.198 1.39947 -1.3565 0
M  V30 1243 H 128.294 2.91001 -1.12804 0
M  V30 1244 N 128.595 0.856903 1.32268 0
M  V30 1245 C 130.006 0.515711 1.79436 0
M  V30 1246 C 130.357 -0.966586 1.70738 0
M  V30 1247 O 129.482 -1.75409 1.26731 0
M  V30 1248 C 130.077 0.929335 3.25805 0
M  V30 1249 C 128.636 0.640006 3.70919 0
M  V30 1250 C 127.783 1.12784 2.53328 0
M  V30 1251 H 130.734 1.04389 1.19535 0
M  V30 1252 H 130.755 0.246633 3.797 0
M  V30 1253 H 130.267 2.00821 3.32103 0
M  V30 1254 H 128.368 -0.428051 3.70133 0
M  V30 1255 H 128.481 1.20788 4.63624 0
M  V30 1256 H 126.845 0.548033 2.48734 0
M  V30 1257 H 127.628 2.21387 2.62379 0
M  V30 1258 N 130.073 -1.45103 0.615059 0
M  V30 1259 C 131.319 -2.02483 0.113347 0
M  V30 1260 C 131.652 -1.48146 -1.25564 0
M  V30 1261 O 130.927 -0.659104 -1.82992 0
M  V30 1262 C 131.21 -3.60005 0.0825278 0
M  V30 1263 C 131.063 -4.2466 1.48271 0
M  V30 1264 C 132.382 -4.35972 -0.601401 0
M  V30 1265 H 129.501 -0.735764 0.0426632 0
M  V30 1266 H 132.143 -1.72868 0.788461 0
M  V30 1267 H 130.293 -3.85367 -0.492378 0
M  V30 1268 H 131.965 -4.10458 2.10527 0
M  V30 1269 H 130.208 -3.82772 2.04127 0
M  V30 1270 H 130.879 -5.336 1.41332 0
M  V30 1271 H 133.355 -4.15947 -0.112666 0
M  V30 1272 H 132.231 -5.45697 -0.592097 0
M  V30 1273 H 132.492 -4.09391 -1.66887 0
M  V30 1274 N 131.551 -0.354651 -1.53558 0
M  V30 1275 C 132.514 0.484566 -2.24019 0
M  V30 1276 C 133.514 1.01861 -1.24422 0
M  V30 1277 O 134.704 0.906097 -1.4878 0
M  V30 1278 C 131.836 1.67615 -2.96847 0
M  V30 1279 H 133.029 -0.131843 -2.9961 0
M  V30 1280 H 130.582 -0.106165 -1.55939 0
M  V30 1281 H 131.317 2.33095 -2.25471 0
M  V30 1282 H 131.102 1.30029 -3.69912 0
M  V30 1283 H 132.592 2.27114 -3.50441 0
M  V30 1284 N 133.029 1.57378 -0.0835403 0
M  V30 1285 C 134.277 1.93547 0.581718 0
M  V30 1286 C 134.598 0.96524 1.69435 0
M  V30 1287 O 133.868 0.0153369 1.95894 0
M  V30 1288 H 132.448 0.714521 0.217874 0
M  V30 1289 H 135.11 1.94366 -0.144158 0
M  V30 1290 H 134.206 2.95665 0.999423 0
M  V30 1291 N 134.507 -0.190092 1.56449 0
M  V30 1292 C 135.755 -0.907908 1.80559 0
M  V30 1293 C 136.076 -1.83583 0.657438 0
M  V30 1294 O 135.346 -1.93203 -0.323924 0
M  V30 1295 H 133.926 -0.338247 0.666032 0
M  V30 1296 H 136.588 -0.194403 1.93928 0
M  V30 1297 H 135.684 -1.49604 2.73907 0
M  V30 1298 N 135.985 -1.50799 -0.457987 0
M  V30 1299 C 137.262 -1.52968 -1.21902 0
M  V30 1300 C 137.642 -0.281906 -2.09209 0
M  V30 1301 O 136.99 0.734076 -2.16388 0
M  V30 1302 C 137.2 -2.8326 -2.03875 0
M  V30 1303 C 138.548 -3.34425 -2.6162 0
M  V30 1304 O 139.572 -2.8467 -2.14106 0
M  V30 1305 O 138.431 -4.21188 -3.48228 0
M  V30 1306 H 135.525 -0.614129 -0.553873 0
M  V30 1307 H 138.071 -1.63098 -0.468739 0
M  V30 1308 H 136.843 -3.65543 -1.39621 0
M  V30 1309 H 136.466 -2.76195 -2.8601 0
M  V30 1310 N 137.463 0.71206 -1.40597 0
M  V30 1311 C 138.874 1.29135 -1.34837 0
M  V30 1312 C 139.225 1.96186 -0.0235395 0
M  V30 1313 O 138.35 1.97768 0.878444 0
M  V30 1314 C 138.945 2.34827 -2.44217 0
M  V30 1315 C 137.504 2.88371 -2.41907 0
M  V30 1316 C 136.651 1.62202 -2.24913 0
M  V30 1317 H 139.602 0.507944 -1.50352 0
M  V30 1318 H 139.623 3.15749 -2.12327 0
M  V30 1319 H 139.135 1.85996 -3.40627 0
M  V30 1320 H 137.236 3.41422 -1.49204 0
M  V30 1321 H 137.349 3.39925 -3.37621 0
M  V30 1322 H 135.713 1.874 -1.72492 0
M  V30 1323 H 136.496 1.15391 -3.23326 0
M  V30 1324 N 138.941 1.26152 0.944643 0
M  V30 1325 C 139.889 1.07215 2.06417 0
M  V30 1326 C 140.883 9.2007e-05 1.694 0
M  V30 1327 O 142.089 0.1565 1.79318 0
M  V30 1328 H 138.464 0.329837 0.675805 0
M  V30 1329 H 140.435 2.02099 2.19541 0
M  V30 1330 C 139.184 0.718197 3.40202 0
M  V30 1331 H 138.507 1.53497 3.69159 0
M  V30 1332 H 139.947 0.625459 4.19361 0
M  V30 1333 C 138.406 -0.576435 3.31932 0
M  V30 1334 O 138.936 -1.61574 3.67773 0
M  V30 1335 N 137.142 -0.565781 2.85039 0
M  V30 1336 H 136.689 0.280367 2.5607 0
M  V30 1337 H 136.647 -1.43213 2.79888 0
M  V30 1338 N 140.419 -1.14872 1.07899 0
M  V30 1339 C 141.351 -2.19425 0.662231 0
M  V30 1340 C 142.364 -1.60231 -0.288079 0
M  V30 1341 O 143.553 -1.78336 -0.076534 0
M  V30 1342 C 140.653 -3.38867 -0.0470695 0
M  V30 1343 C 139.826 -4.27597 0.920831 0
M  V30 1344 C 138.885 -5.25616 0.247805 0
M  V30 1345 O 137.911 -5.62189 0.890599 0
M  V30 1346 N 139.113 -5.71746 -1.00435 0
M  V30 1347 H 141.878 -2.55797 1.56166 0
M  V30 1348 H 139.439 -1.30042 0.964404 0
M  V30 1349 H 141.431 -4.01497 -0.50813 0
M  V30 1350 H 140.001 -3.00864 -0.848523 0
M  V30 1351 H 139.221 -3.61982 1.56087 0
M  V30 1352 H 140.509 -4.83748 1.57688 0
M  V30 1353 H 139.907 -5.44153 -1.54642 0
M  V30 1354 H 138.464 -6.36389 -1.40899 0
M  V30 1355 N 141.898 -0.863906 -1.31812 0
M  V30 1356 C 143.126 -0.486111 -2.01108 0
M  V30 1357 C 143.541 0.919755 -1.64882 0
M  V30 1358 O 142.898 1.60162 -0.874893 0
M  V30 1359 C 142.949 -0.626435 -3.56031 0
M  V30 1360 O 142.67 -1.97693 -3.90959 0
M  V30 1361 C 144.171 -0.248857 -4.42601 0
M  V30 1362 H 141.391 -0.190052 -0.643523 0
M  V30 1363 H 143.935 -1.1634 -1.68182 0
M  V30 1364 H 142.09 0.00322717 -3.874 0
M  V30 1365 H 142.504 -1.98034 -4.85678 0
M  V30 1366 H 143.978 -0.398016 -5.50563 0
M  V30 1367 H 144.455 0.811489 -4.31638 0
M  V30 1368 H 145.061 -0.853971 -4.16638 0
M  V30 1369 N 143.376 1.44774 -0.622745 0
M  V30 1370 C 144.625 2.01334 -0.121397 0
M  V30 1371 C 144.938 1.49505 1.26125 0
M  V30 1372 O 146.144 1.98139 1.85616 0
M  V30 1373 C 144.6 3.59516 -0.166298 0
M  V30 1374 C 144.208 4.20342 -1.54974 0
M  V30 1375 C 145.952 4.23582 0.279021 0
M  V30 1376 C 143.859 5.70721 -1.55021 0
M  V30 1377 H 142.789 0.752851 -0.0416172 0
M  V30 1378 H 145.44 1.66083 -0.780309 0
M  V30 1379 H 143.822 3.92027 0.559557 0
M  V30 1380 H 144.996 3.99381 -2.29851 0
M  V30 1381 H 143.311 3.68529 -1.93843 0
M  V30 1382 H 145.908 5.33868 0.298083 0
M  V30 1383 H 146.251 3.95327 1.30471 0
M  V30 1384 H 146.784 3.95843 -0.394063 0
M  V30 1385 H 143.523 6.03698 -2.55399 0
M  V30 1386 H 143.043 5.93829 -0.844245 0
M  V30 1387 H 144.722 6.34203 -1.28047 0
M  V30 1388 N 144.854 0.36279 1.53368 0
M  V30 1389 C 146.27 0.0116182 1.59596 0
M  V30 1390 C 146.47 -1.47012 1.37803 0
M  V30 1391 O 145.526 -2.23136 1.18181 0
M  V30 1392 C 146.839 0.465052 2.97082 0
M  V30 1393 C 148.387 0.419033 3.10182 0
M  V30 1394 C 148.862 0.848235 4.50077 0
M  V30 1395 N 150.353 0.803183 4.56183 0
M  V30 1396 C 151.088 1.107 5.62613 0
M  V30 1397 N 150.584 1.47996 6.76808 0
M  V30 1398 N 152.377 1.02998 5.52583 0
M  V30 1399 H 144.528 1.32775 1.65785 0
M  V30 1400 H 146.791 0.542518 0.777417 0
M  V30 1401 H 146.497 1.49892 3.18159 0
M  V30 1402 H 146.371 -0.149786 3.76902 0
M  V30 1403 H 148.758 -0.605696 2.88817 0
M  V30 1404 H 148.839 1.06933 2.32377 0
M  V30 1405 H 148.483 1.87107 4.7218 0
M  V30 1406 H 148.413 0.175218 5.26308 0
M  V30 1407 H 150.904 0.52838 3.74188 0
M  V30 1408 H 151.217 1.69613 7.53957 0
M  V30 1409 H 149.562 1.51859 6.78206 0
M  V30 1410 H 152.753 0.737817 4.62249 0
M  V30 1411 H 152.926 1.2701 6.35431 0
M  V30 1412 N 146.332 -1.57332 0.0918853 0
M  V30 1413 C 147.58 -1.93853 -0.571446 0
M  V30 1414 C 147.901 -0.974212 -1.6892 0
M  V30 1415 O 147.171 -0.0257254 -1.95883 0
M  V30 1416 H 145.751 -0.715666 -0.214082 0
M  V30 1417 H 148.413 -1.94287 0.154464 0
M  V30 1418 H 147.509 -2.96191 -0.983729 0
M  V30 1419 N 147.81 0.181792 -1.56548 0
M  V30 1420 C 148.742 1.24956 -1.92142 0
M  V30 1421 C 149.755 1.41022 -0.813422 0
M  V30 1422 O 150.944 1.41212 -1.09186 0
M  V30 1423 C 148.044 2.61981 -2.14987 0
M  V30 1424 C 147.217 2.6735 -3.46183 0
M  V30 1425 C 146.276 3.85664 -3.5798 0
M  V30 1426 O 145.302 3.72148 -4.30691 0
M  V30 1427 N 146.504 5.01683 -2.92053 0
M  V30 1428 H 149.269 0.947329 -2.84334 0
M  V30 1429 H 146.83 0.371629 -1.57577 0
M  V30 1430 H 148.822 3.3958 -2.20154 0
M  V30 1431 H 147.392 2.84637 -1.2923 0
M  V30 1432 H 146.612 1.75925 -3.52766 0
M  V30 1433 H 147.9 2.67939 -4.32534 0
M  V30 1434 H 147.298 5.15564 -2.32832 0
M  V30 1435 H 145.855 5.77181 -3.0283 0
M  V30 1436 N 149.288 1.51039 0.449983 0
M  V30 1437 C 150.518 1.66627 1.22143 0
M  V30 1438 C 150.926 0.357776 1.85786 0
M  V30 1439 O 150.269 -0.672424 1.70951 0
M  V30 1440 C 150.331 2.71562 2.35573 0
M  V30 1441 C 149.995 4.14526 1.92399 0
M  V30 1442 C 150.992 4.99717 1.43453 0
M  V30 1443 C 148.677 4.60559 2.00475 0
M  V30 1444 C 150.671 6.28998 1.03155 0
M  V30 1445 C 148.358 5.8984 1.59788 0
M  V30 1446 C 149.356 6.73886 1.11208 0
M  V30 1447 O 149.044 8.0075 0.710935 0
M  V30 1448 H 148.776 0.562635 0.374724 0
M  V30 1449 H 151.33 1.98146 0.541036 0
M  V30 1450 H 149.56 2.3533 3.06849 0
M  V30 1451 H 151.249 2.76156 2.97478 0
M  V30 1452 H 152.015 4.65361 1.36618 0
M  V30 1453 H 147.894 3.95273 2.37235 0
M  V30 1454 H 151.438 6.9455 0.651663 0
M  V30 1455 H 147.335 6.23713 1.66289 0
M  V30 1456 H 148.103 8.142 0.837913 0
M  V30 1457 N 150.766 -0.704594 1.40972 0
M  V30 1458 C 152.006 -1.47691 1.41304 0
M  V30 1459 C 152.37 -1.91992 0.0178582 0
M  V30 1460 O 153.571 -2.68599 -0.103996 0
M  V30 1461 C 151.842 -2.66254 2.38419 0
M  V30 1462 S 153.401 -3.55516 2.57204 0
M  V30 1463 H 150.219 -0.504808 0.500689 0
M  V30 1464 H 152.821 -0.822962 1.77335 0
M  V30 1465 H 151.525 -2.31897 3.38603 0
M  V30 1466 H 151.056 -3.3655 2.03711 0
M  V30 1467 H 153.071 -4.61115 1.83268 0
M  V30 1468 N 152.244 -1.26651 -0.937939 0
M  V30 1469 C 153.521 -1.0313 -1.66204 0
M  V30 1470 C 153.901 0.437256 -2.06522 0
M  V30 1471 O 153.249 1.41831 -1.79154 0
M  V30 1472 C 153.459 -1.98314 -2.87181 0
M  V30 1473 C 154.807 -2.27107 -3.58758 0
M  V30 1474 O 155.831 -1.96205 -2.97291 0
M  V30 1475 O 154.69 -2.79736 -4.69479 0
M  V30 1476 H 151.784 -0.392384 -0.727986 0
M  V30 1477 H 154.33 -1.37874 -0.989382 0
M  V30 1478 H 153.102 -2.97399 -2.54302 0
M  V30 1479 H 152.725 -1.64068 -3.6217 0
M  V30 1480 N 153.722 1.14298 -1.08507 0
M  V30 1481 C 154.971 1.84708 -0.810305 0
M  V30 1482 C 155.284 1.83903 0.666271 0
M  V30 1483 O 156.49 2.50112 1.05624 0
M  V30 1484 C 154.946 3.31572 -1.39957 0
M  V30 1485 C 154.554 3.40791 -2.90801 0
M  V30 1486 C 156.298 4.07087 -1.20334 0
M  V30 1487 C 154.205 4.81872 -3.4286 0
M  V30 1488 H 153.135 0.691985 -0.299454 0
M  V30 1489 H 155.786 1.28841 -1.30661 0
M  V30 1490 H 154.168 3.87183 -0.830976 0
M  V30 1491 H 155.342 2.95225 -3.53806 0
M  V30 1492 H 153.657 2.78732 -3.0935 0
M  V30 1493 H 156.254 5.11225 -1.56693 0
M  V30 1494 H 156.597 4.16054 -0.143237 0
M  V30 1495 H 157.13 3.57779 -1.73893 0
M  V30 1496 H 153.869 4.78094 -4.48449 0
M  V30 1497 H 153.389 5.27972 -2.84615 0
M  V30 1498 H 155.068 5.50765 -3.39509 0
M  V30 1499 N 155.201 0.870884 1.31352 0
M  V30 1500 C 156.441 0.488783 1.9847 0
M  V30 1501 C 156.805 -0.941536 1.67329 0
M  V30 1502 O 158.006 -1.42903 2.27667 0
M  V30 1503 C 156.277 0.739688 3.49662 0
M  V30 1504 S 157.836 0.457582 4.36408 0
M  V30 1505 H 154.654 0.18242 0.6872 0
M  V30 1506 H 157.256 1.12711 1.59739 0
M  V30 1507 H 155.96 1.77944 3.69816 0
M  V30 1508 H 155.491 0.0883905 3.93301 0
M  V30 1509 H 157.506 -0.709752 4.91098 0
M  V30 1510 N 156.679 -1.44442 0.630414 0
M  V30 1511 C 157.907 -2.06414 0.141671 0
M  V30 1512 C 158.322 -1.47105 -1.18345 0
M  V30 1513 O 157.679 -0.593662 -1.72574 0
M  V30 1514 C 157.73 -3.61494 0.0199784 0
M  V30 1515 O 157.451 -4.18594 1.29269 0
M  V30 1516 C 158.952 -4.40499 -0.497544 0
M  V30 1517 H 156.172 -0.666292 0.0793452 0
M  V30 1518 H 158.716 -1.85323 0.864614 0
M  V30 1519 H 156.871 -3.8185 -0.653402 0
M  V30 1520 H 157.285 -5.12026 1.13707 0
M  V30 1521 H 158.759 -5.49433 -0.531708 0
M  V30 1522 H 159.236 -4.11895 -1.52445 0
M  V30 1523 H 159.842 -4.25061 0.142562 0
M  V30 1524 N 158.157 -0.370918 -1.53173 0
M  V30 1525 C 159.12 0.460778 -2.24521 0
M  V30 1526 C 160.12 1.00536 -1.25496 0
M  V30 1527 O 161.31 0.890266 -1.49733 0
M  V30 1528 C 158.442 1.64457 -2.98608 0
M  V30 1529 H 159.635 -0.163613 -2.99453 0
M  V30 1530 H 157.188 -0.122699 -1.55818 0
M  V30 1531 H 157.923 2.30691 -2.2793 0
M  V30 1532 H 157.708 1.26099 -3.7127 0
M  V30 1533 H 159.198 2.23384 -3.5283 0
M  V30 1534 N 159.635 1.57281 -0.100228 0
M  V30 1535 C 160.598 2.13158 0.842398 0
M  V30 1536 C 161.598 1.06202 1.20738 0
M  V30 1537 O 162.788 1.32066 1.13597 0
M  V30 1538 C 159.92 2.65639 2.13655 0
M  V30 1539 H 161.113 2.97766 0.357114 0
M  V30 1540 H 158.666 1.5559 0.148823 0
M  V30 1541 H 159.401 1.84566 2.66657 0
M  V30 1542 H 159.186 3.43844 1.88451 0
M  V30 1543 H 160.676 3.08846 2.81077 0
M  V30 1544 N 161.113 -0.173488 1.56642 0
M  V30 1545 C 162.061 -1.23417 1.97157 0
M  V30 1546 C 163.055 -1.45946 0.860013 0
M  V30 1547 O 164.261 -1.46551 1.04512 0
M  V30 1548 H 160.636 -0.414818 0.62724 0
M  V30 1549 H 162.607 -0.865582 2.8557 0
M  V30 1550 C 161.356 -2.5665 2.34576 0
M  V30 1551 H 160.679 -2.40137 3.19647 0
M  V30 1552 H 162.119 -3.2956 2.6677 0
M  V30 1553 C 160.578 -3.15245 1.18836 0
M  V30 1554 O 161.108 -3.98883 0.474869 0
M  V30 1555 N 159.314 -2.74303 0.959497 0
M  V30 1556 H 158.861 -2.0639 1.54146 0
M  V30 1557 H 158.819 -3.13844 0.186932 0
M  V30 1558 N 162.591 -1.51276 -0.441967 0
M  V30 1559 C 163.816 -1.67799 -1.21895 0
M  V30 1560 C 164.241 -0.372864 -1.84367 0
M  V30 1561 O 163.599 0.666501 -1.68604 0
M  V30 1562 C 163.647 -2.79199 -2.28211 0
M  V30 1563 O 162.751 -2.42479 -3.33583 0
M  V30 1564 H 162.092 -0.559649 -0.357336 0
M  V30 1565 H 164.622 -1.97815 -0.522522 0
M  V30 1566 H 164.632 -3.03146 -2.73069 0
M  V30 1567 H 163.307 -3.73906 -1.82118 0
M  V30 1568 H 161.884 -2.29087 -2.94234 0
M  V30 1569 N 164.069 0.697108 -1.41344 0
M  V30 1570 C 165.017 1.83237 -1.43272 0
M  V30 1571 C 166.011 1.66522 -0.310947 0
M  V30 1572 O 167.217 1.73402 -0.482899 0
M  V30 1573 H 163.592 0.603802 -0.448249 0
M  V30 1574 H 165.563 1.78727 -2.38954 0
M  V30 1575 C 164.312 3.21245 -1.33029 0
M  V30 1576 H 163.635 3.34723 -2.18633 0
M  V30 1577 H 165.075 4.00763 -1.38439 0
M  V30 1578 C 163.534 3.36873 -0.0424635 0
M  V30 1579 O 164.064 3.91177 0.913421 0
M  V30 1580 N 162.27 2.90581 0.0331145 0
M  V30 1581 H 161.817 2.46577 -0.745506 0
M  V30 1582 H 161.775 3.01416 0.894199 0
M  V30 1583 N 165.547 1.27147 0.931209 0
M  V30 1584 C 166.494 1.09568 2.03134 0
M  V30 1585 C 167.464 -0.00222433 1.661 0
M  V30 1586 O 168.649 0.159439 1.90133 0
M  V30 1587 C 165.789 0.745231 3.36957 0
M  V30 1588 C 164.902 1.92041 3.86968 0
M  V30 1589 C 164.037 1.51216 5.09222 0
M  V30 1590 C 163.076 2.65504 5.5152 0
M  V30 1591 N 162.213 2.25291 6.64972 0
M  V30 1592 H 167.053 2.03708 2.17502 0
M  V30 1593 H 164.59 1.01411 1.06556 0
M  V30 1594 H 166.548 0.522878 4.1391 0
M  V30 1595 H 165.178 -0.159202 3.22407 0
M  V30 1596 H 164.23 2.25541 3.06326 0
M  V30 1597 H 165.542 2.77787 4.1429 0
M  V30 1598 H 164.696 1.25084 5.93666 0
M  V30 1599 H 163.435 0.625749 4.83669 0
M  V30 1600 H 162.44 2.92354 4.65628 0
M  V30 1601 H 163.665 3.54761 5.7907 0
M  V30 1602 H 161.611 1.39098 6.41083 0
M  V30 1603 H 161.528 3.04577 6.91931 0
M  V30 1604 H 162.796 2.02398 7.52765 0
M  V30 1605 N 167.025 -1.13721 1.09112 0
M  V30 1606 C 167.988 -2.17222 0.731241 0
M  V30 1607 C 168.988 -1.59035 -0.237566 0
M  V30 1608 O 170.178 -1.74192 -0.0161704 0
M  V30 1609 C 167.31 -3.40804 0.0808443 0
M  V30 1610 H 168.503 -2.50573 1.64783 0
M  V30 1611 H 166.056 -1.28493 0.889897 0
M  V30 1612 H 166.791 -3.1304 -0.847127 0
M  V30 1613 H 166.576 -3.84306 0.777896 0
M  V30 1614 H 168.066 -4.1731 -0.155657 0
M  V30 1615 N 168.503 -0.877838 -1.30888 0
M  V30 1616 C 169.453 -0.310872 -2.25871 0
M  V30 1617 C 170.437 0.556596 -1.50966 0
M  V30 1618 O 171.629 0.402187 -1.7237 0
M  V30 1619 C 168.758 0.479821 -3.3993 0
M  V30 1620 C 167.844 -0.401333 -4.22197 0
M  V30 1621 N 168.235 -1.49848 -4.83093 0
M  V30 1622 C 166.533 -0.195167 -4.45573 0
M  V30 1623 C 167.234 -2.0425 -5.44662 0
M  V30 1624 N 166.21 -1.33843 -5.26865 0
M  V30 1625 H 170.012 -1.1493 -2.70496 0
M  V30 1626 H 167.526 -0.726458 -1.45246 0
M  V30 1627 H 169.523 0.902582 -4.07012 0
M  V30 1628 H 168.183 1.31577 -2.96846 0
M  V30 1629 H 169.194 -1.88137 -4.82519 0
M  V30 1630 H 165.871 0.604192 -4.13105 0
M  V30 1631 H 167.261 -2.96345 -6.03017 0
M  V30 1632 N 169.982 1.44106 -0.638065 0
M  V30 1633 C 171.393 1.85316 -0.226894 0
M  V30 1634 C 171.744 1.53399 1.22324 0
M  V30 1635 O 170.869 0.975463 1.93167 0
M  V30 1636 C 171.464 3.3637 -0.405013 0
M  V30 1637 C 170.023 3.76369 -0.0482902 0
M  V30 1638 C 169.17 2.67921 -0.715108 0
M  V30 1639 H 172.121 1.34474 -0.842764 0
M  V30 1640 H 172.142 3.7885 0.354 0
M  V30 1641 H 171.654 3.59569 -1.46053 0
M  V30 1642 H 169.755 3.58784 1.00522 0
M  V30 1643 H 169.868 4.76856 -0.463187 0
M  V30 1644 H 168.232 2.54259 -0.149753 0
M  V30 1645 H 169.015 2.93951 -1.77335 0
M  V30 1646 N 171.46 0.379036 1.52974 0
M  V30 1647 C 172.423 -0.448865 2.24762 0
M  V30 1648 C 173.423 -0.998689 1.26027 0
M  V30 1649 O 174.613 -0.882313 1.50203 0
M  V30 1650 C 171.745 -1.62872 2.99476 0
M  V30 1651 H 172.938 0.179491 2.99362 0
M  V30 1652 H 170.491 0.13096 1.5575 0
M  V30 1653 H 171.226 -2.29479 2.29151 0
M  V30 1654 H 171.011 -1.24128 3.71934 0
M  V30 1655 H 172.501 -2.2151 3.5401 0
M  V30 1656 N 172.938 -1.57226 0.108567 0
M  V30 1657 C 174.163 -1.99604 -0.563303 0
M  V30 1658 C 174.588 -0.987563 -1.6009 0
M  V30 1659 O 173.946 0.0421687 -1.81251 0
M  V30 1660 C 173.994 -3.40902 -1.17552 0
M  V30 1661 O 173.098 -3.42896 -2.2912 0
M  V30 1662 H 172.439 -0.648704 -0.1417 0
M  V30 1663 H 174.969 -2.03679 0.193961 0
M  V30 1664 H 174.979 -3.78886 -1.51357 0
M  V30 1665 H 173.654 -4.1382 -0.415445 0
M  V30 1666 H 172.231 -3.1672 -1.96832 0
M  V30 1667 N 174.416 0.165178 -1.56732 0
M  V30 1668 C 175.364 1.22369 -1.97809 0
M  V30 1669 C 176.358 1.45488 -0.867741 0
M  V30 1670 O 177.564 1.45995 -1.05288 0
M  V30 1671 H 173.939 0.411486 -0.629431 0
M  V30 1672 H 175.91 0.850425 -2.86025 0
M  V30 1673 C 174.659 2.55403 -2.35934 0
M  V30 1674 H 173.982 2.38438 -3.20916 0
M  V30 1675 H 175.422 3.2814 -2.68514 0
M  V30 1676 C 173.881 3.14611 -1.20506 0
M  V30 1677 O 174.411 3.98626 -0.496016 0
M  V30 1678 N 172.617 2.7379 -0.97403 0
M  V30 1679 H 172.164 2.0557 -1.55238 0
M  V30 1680 H 172.122 3.1374 -0.203573 0
M  V30 1681 N 175.894 1.51508 0.433938 0
M  V30 1682 C 176.857 1.72473 1.50949 0
M  V30 1683 C 177.857 0.594725 1.49398 0
M  V30 1684 O 179.047 0.862315 1.5136 0
M  V30 1685 C 176.179 1.78431 2.90474 0
M  V30 1686 H 177.372 2.68467 1.33662 0
M  V30 1687 H 174.925 1.41549 0.662836 0
M  V30 1688 H 175.66 0.842645 3.13161 0
M  V30 1689 H 175.445 2.60558 2.93005 0
M  V30 1690 H 176.935 1.96479 3.68491 0
M  V30 1691 N 177.372 -0.689602 1.41712 0
M  V30 1692 C 178.621 -1.44534 1.40686 0
M  V30 1693 C 178.934 -1.95588 0.0213352 0
M  V30 1694 O 180.14 -2.71271 -0.111534 0
M  V30 1695 C 178.596 -2.61387 2.47396 0
M  V30 1696 C 178.204 -2.17094 3.91885 0
M  V30 1697 C 179.948 -3.38986 2.55517 0
M  V30 1698 C 177.855 -3.3094 4.90135 0
M  V30 1699 H 176.785 -0.542925 0.52321 0
M  V30 1700 H 179.436 -0.748054 1.6756 0
M  V30 1701 H 177.818 -3.33412 2.13664 0
M  V30 1702 H 178.992 -1.52318 4.34897 0
M  V30 1703 H 177.307 -1.52473 3.8748 0
M  V30 1704 H 179.904 -4.23747 3.26102 0
M  V30 1705 H 180.247 -3.84578 1.59391 0
M  V30 1706 H 180.78 -2.74021 2.8837 0
M  V30 1707 H 177.519 -2.90355 5.87685 0
M  V30 1708 H 177.039 -3.94546 4.51767 0
M  V30 1709 H 178.718 -3.9663 5.11169 0
M  V30 1710 N 178.85 -1.27639 -0.924453 0
M  V30 1711 C 180.127 -1.04887 -1.651 0
M  V30 1712 C 180.507 0.415327 -2.06974 0
M  V30 1713 O 179.855 1.39923 -1.80648 0
M  V30 1714 C 180.065 -2.01348 -2.85061 0
M  V30 1715 C 181.413 -2.30899 -3.56329 0
M  V30 1716 O 182.437 -1.99348 -2.95193 0
M  V30 1717 O 181.296 -2.84699 -4.66485 0
M  V30 1718 H 178.39 -0.400083 -0.723784 0
M  V30 1719 H 180.936 -1.38916 -0.974703 0
M  V30 1720 H 179.708 -3.0008 -2.51133 0
M  V30 1721 H 179.331 -1.679 -3.6041 0
M  V30 1722 N 180.328 1.1314 -1.09713 0
M  V30 1723 C 181.576 1.84119 -0.833338 0
M  V30 1724 C 181.897 1.84097 0.642904 0
M  V30 1725 O 181.167 1.29881 1.46655 0
M  V30 1726 H 179.747 0.681766 -0.305293 0
M  V30 1727 H 182.409 1.37038 -1.38588 0
M  V30 1728 H 181.505 2.88543 -1.18951 0
M  V30 1729 N 181.806 0.884767 1.30421 0
M  V30 1730 C 183.034 0.518044 2.0031 0
M  V30 1731 C 183.449 -0.893408 1.66324 0
M  V30 1732 O 182.806 -1.5875 0.900262 0
M  V30 1733 C 182.857 0.682997 3.54989 0
M  V30 1734 O 182.578 2.03888 3.87764 0
M  V30 1735 C 184.079 0.31924 4.42149 0
M  V30 1736 H 181.299 0.200265 0.640418 0
M  V30 1737 H 183.843 1.19001 1.6631 0
M  V30 1738 H 181.998 0.0584052 3.87356 0
M  V30 1739 H 182.412 2.05735 4.82466 0
M  V30 1740 H 183.886 0.485555 5.4986 0
M  V30 1741 H 184.363 -0.742717 4.32875 0
M  V30 1742 H 184.969 0.920147 4.15227 0
M  V30 1743 N 183.284 -1.43765 0.645699 0
M  V30 1744 C 184.194 -2.34544 -0.0512957 0
M  V30 1745 C 185.21 -1.53455 -0.82022 0
M  V30 1746 O 186.386 -1.86133 -0.769176 0
M  V30 1747 C 183.451 -3.31636 -1.01087 0
M  V30 1748 C 182.512 -4.2863 -0.239712 0
M  V30 1749 C 181.745 -5.21084 -1.15358 0
M  V30 1750 O 181.968 -5.1779 -2.39269 0
M  V30 1751 O 180.902 -5.98593 -0.630038 0
M  V30 1752 H 184.728 -2.95624 0.695718 0
M  V30 1753 H 182.313 -1.43781 0.405882 0
M  V30 1754 H 184.195 -3.9136 -1.56254 0
M  V30 1755 H 182.87 -2.73069 -1.73824 0
M  V30 1756 H 181.777 -3.72408 0.355356 0
M  V30 1757 H 183.11 -4.90157 0.447936 0
M  V30 1758 N 184.763 -0.387143 -1.52771 0
M  V30 1759 C 186.179 -0.037007 -1.59557 0
M  V30 1760 C 186.379 1.44801 -1.40124 0
M  V30 1761 O 185.435 2.21227 -1.21716 0
M  V30 1762 C 186.748 -0.512256 -2.96305 0
M  V30 1763 C 188.296 -0.468328 -3.09476 0
M  V30 1764 C 188.771 -0.919731 -4.4867 0
M  V30 1765 N 190.262 -0.875656 -4.54848 0
M  V30 1766 C 190.997 -1.19637 -5.6078 0
M  V30 1767 N 190.493 -1.58745 -6.74368 0
M  V30 1768 N 192.286 -1.11776 -5.50874 0
M  V30 1769 H 184.437 -1.35395 -1.63652 0
M  V30 1770 H 186.7 -0.554818 -0.768688 0
M  V30 1771 H 186.406 -1.54935 -3.15734 0
M  V30 1772 H 186.28 0.089805 -3.77093 0
M  V30 1773 H 188.667 0.559671 -2.89744 0
M  V30 1774 H 188.748 -1.10616 -2.30646 0
M  V30 1775 H 188.392 -1.94595 -4.69143 0
M  V30 1776 H 188.322 -0.258927 -5.25963 0
M  V30 1777 H 190.813 -0.587843 -3.733 0
M  V30 1778 H 191.126 -1.81586 -7.51163 0
M  V30 1779 H 189.471 -1.6263 -6.75705 0
M  V30 1780 H 192.662 -0.811264 -4.61016 0
M  V30 1781 H 192.835 -1.37103 -6.3333 0
M  V30 1782 N 186.241 1.57166 -0.116904 0
M  V30 1783 C 187.487 1.96206 0.536166 0
M  V30 1784 C 187.842 0.99915 1.64422 0
M  V30 1785 O 187.135 0.0288195 1.91578 0
M  V30 1786 C 187.329 3.39508 1.11664 0
M  V30 1787 C 187.158 4.49651 0.0663474 0
M  V30 1788 C 185.928 5.03982 -0.36474 0
M  V30 1789 C 188.126 5.09322 -0.713829 0
M  V30 1790 N 186.108 5.97699 -1.40102 0
M  V30 1791 C 187.479 5.98963 -1.60136 0
M  V30 1792 C 189.534 4.91989 -0.764948 0
M  V30 1793 C 188.237 6.73128 -2.53556 0
M  V30 1794 C 190.263 5.66833 -1.68685 0
M  V30 1795 C 189.625 6.56158 -2.56196 0
M  V30 1796 H 185.724 0.764203 0.165886 0
M  V30 1797 H 188.308 1.93623 -0.204535 0
M  V30 1798 H 186.479 3.42743 1.82707 0
M  V30 1799 H 188.211 3.65677 1.73386 0
M  V30 1800 H 184.966 4.73592 0.027252 0
M  V30 1801 H 185.39 6.49262 -1.91802 0
M  V30 1802 H 190.032 4.22676 -0.102501 0
M  V30 1803 H 187.75 7.41689 -3.20816 0
M  V30 1804 H 191.336 5.55427 -1.73181 0
M  V30 1805 H 190.216 7.13057 -3.26372 0
M  V30 1806 N 187.719 -0.156864 1.56817 0
M  V30 1807 C 188.965 -0.867645 1.83966 0
M  V30 1808 C 189.32 -1.79233 0.699511 0
M  V30 1809 O 188.613 -1.89186 -0.303176 0
M  V30 1810 C 188.807 -1.68737 3.1506 0
M  V30 1811 C 188.636 -0.843548 4.41718 0
M  V30 1812 C 187.406 -0.512994 5.02689 0
M  V30 1813 C 189.604 -0.178416 5.1399 0
M  V30 1814 N 187.586 0.345456 6.12927 0
M  V30 1815 C 188.957 0.540586 6.17639 0
M  V30 1816 C 191.012 -0.0980696 4.97803 0
M  V30 1817 C 189.715 1.33233 7.06853 0
M  V30 1818 C 191.741 0.680387 5.87473 0
M  V30 1819 C 191.103 1.3877 6.90596 0
M  V30 1820 H 187.202 -0.295642 0.723961 0
M  V30 1821 H 189.786 -0.13365 1.94241 0
M  V30 1822 H 187.957 -2.39268 3.0595 0
M  V30 1823 H 189.689 -2.34056 3.30151 0
M  V30 1824 H 186.444 -0.846476 4.65974 0
M  V30 1825 H 186.868 0.765415 6.72659 0
M  V30 1826 H 191.51 -0.630562 4.18071 0
M  V30 1827 H 189.228 1.87612 7.8602 0
M  V30 1828 H 192.814 0.744415 5.77018 0
M  V30 1829 H 191.694 1.9804 7.58782 0
M  V30 1830 N 189.197 -1.51736 -0.425897 0
M  V30 1831 C 190.129 -1.70083 -1.53638 0
M  V30 1832 C 191.142 -0.581349 -1.52066 0
M  V30 1833 O 192.331 -0.856017 -1.56635 0
M  V30 1834 C 189.431 -1.71078 -2.9255 0
M  V30 1835 C 188.604 -2.99795 -3.185 0
M  V30 1836 C 187.663 -2.92825 -4.37196 0
M  V30 1837 O 186.689 -3.66756 -4.35291 0
M  V30 1838 N 187.891 -2.0946 -5.41393 0
M  V30 1839 H 190.656 -2.65882 -1.383 0
M  V30 1840 H 188.217 -1.49765 -0.614988 0
M  V30 1841 H 190.209 -1.63969 -3.69995 0
M  V30 1842 H 188.779 -0.828242 -3.01428 0
M  V30 1843 H 187.999 -3.20684 -2.2925 0
M  V30 1844 H 189.287 -3.84977 -3.32671 0
M  V30 1845 H 188.685 -1.48792 -5.45781 0
M  V30 1846 H 187.242 -2.08221 -6.17647 0
M  V30 1847 N 190.675 0.682077 -1.42076 0
M  V30 1848 C 191.9 1.47558 -1.45744 0
M  V30 1849 C 192.325 1.87977 -0.0680981 0
M  V30 1850 O 191.683 1.55522 0.9318 0
M  V30 1851 C 191.731 2.70575 -2.38373 0
M  V30 1852 O 190.835 3.68573 -1.85007 0
M  V30 1853 H 190.176 0.443585 -0.494093 0
M  V30 1854 H 192.706 0.837238 -1.86686 0
M  V30 1855 H 192.716 3.18729 -2.54707 0
M  V30 1856 H 191.391 2.40495 -3.39315 0
M  V30 1857 H 189.968 3.2757 -1.78192 0
M  V30 1858 N 192.153 1.28127 0.917671 0
M  V30 1859 C 193.564 1.13622 1.48145 0
M  V30 1860 C 193.915 -0.275207 1.9426 0
M  V30 1861 O 193.04 -1.1691 1.82102 0
M  V30 1862 C 193.635 2.05648 2.69248 0
M  V30 1863 C 192.194 1.95219 3.21818 0
M  V30 1864 C 191.341 1.97618 1.94532 0
M  V30 1865 H 194.292 1.40874 0.730772 0
M  V30 1866 H 194.313 1.61818 3.44377 0
M  V30 1867 H 193.825 3.08365 2.35653 0
M  V30 1868 H 191.926 0.955244 3.60147 0
M  V30 1869 H 192.039 2.81976 3.87333 0
M  V30 1870 H 190.403 1.41973 2.11461 0
M  V30 1871 H 191.186 3.02007 1.63238 0
M  V30 1872 N 193.631 -1.12557 1.10312 0
M  V30 1873 C 195.042 -1.65574 0.862678 0
M  V30 1874 C 195.393 -1.86566 -0.607256 0
M  V30 1875 O 194.518 -1.59121 -1.46662 0
M  V30 1876 C 195.113 -3.00776 1.55947 0
M  V30 1877 C 193.672 -3.50748 1.36576 0
M  V30 1878 C 192.819 -2.25797 1.60968 0
M  V30 1879 H 195.77 -0.963552 1.26101 0
M  V30 1880 H 195.791 -3.67185 0.997753 0
M  V30 1881 H 195.303 -2.85465 2.62928 0
M  V30 1882 H 193.404 -3.71245 0.317531 0
M  V30 1883 H 193.517 -4.30289 2.10686 0
M  V30 1884 H 191.881 -2.32841 1.03234 0
M  V30 1885 H 192.664 -2.13043 2.69198 0
M  V30 1886 N 195.109 -0.891671 -1.2995 0
M  V30 1887 C 196.039 -0.379797 -2.30391 0
M  V30 1888 C 197.02 0.540919 -1.6127 0
M  V30 1889 O 198.205 0.453352 -1.88834 0
M  V30 1890 C 195.335 0.400654 -3.44981 0
M  V30 1891 C 194.289 -0.428905 -4.25846 0
M  V30 1892 C 193.615 0.478557 -5.32554 0
M  V30 1893 C 194.915 -1.67458 -4.94727 0
M  V30 1894 H 196.609 -1.21914 -2.73454 0
M  V30 1895 H 194.155 -0.587675 -1.31462 0
M  V30 1896 H 196.108 0.769434 -4.14316 0
M  V30 1897 H 194.832 1.27371 -3.0074 0
M  V30 1898 H 193.491 -0.779911 -3.58208 0
M  V30 1899 H 193.139 1.34951 -4.84559 0
M  V30 1900 H 192.839 -0.0727433 -5.87555 0
M  V30 1901 H 194.363 0.843705 -6.04743 0
M  V30 1902 H 195.777 -1.376 -5.56542 0
M  V30 1903 H 194.174 -2.16659 -5.59624 0
M  V30 1904 H 195.244 -2.41518 -4.20473 0
M  V30 1905 N 196.587 1.43421 -0.653314 0
M  V30 1906 C 197.812 2.06678 -0.172846 0
M  V30 1907 C 198.237 1.48648 1.15262 0
M  V30 1908 O 197.595 0.596457 1.71208 0
M  V30 1909 C 197.643 3.60474 -0.0953184 0
M  V30 1910 O 196.747 4.01487 0.942442 0
M  V30 1911 H 196.088 0.657181 -0.0949155 0
M  V30 1912 H 198.618 1.83925 -0.896265 0
M  V30 1913 H 198.628 4.07905 0.0879728 0
M  V30 1914 H 197.303 4.02088 -1.06291 0
M  V30 1915 H 195.88 3.65646 0.731932 0
M  V30 1916 N 198.065 0.39524 1.52563 0
M  V30 1917 C 199.481 0.0454682 1.59535 0
M  V30 1918 C 199.681 -1.44056 1.4089 0
M  V30 1919 O 198.737 -2.20579 1.22888 0
M  V30 1920 C 200.05 0.527963 2.96029 0
M  V30 1921 C 201.598 0.484733 3.09224 0
M  V30 1922 C 202.073 0.943512 4.48176 0
M  V30 1923 N 203.564 0.899765 4.54377 0
M  V30 1924 C 204.299 1.22609 5.60138 0
M  V30 1925 N 203.795 1.62319 6.73516 0
M  V30 1926 N 205.588 1.14696 5.50274 0
M  V30 1927 H 197.739 1.36261 1.62931 0
M  V30 1928 H 200.002 0.558887 0.765735 0
M  V30 1929 H 199.708 1.56607 3.14908 0
M  V30 1930 H 199.582 -0.0698056 3.77135 0
M  V30 1931 H 201.969 -0.544298 2.90037 0
M  V30 1932 H 202.05 1.11838 2.30056 0
M  V30 1933 H 201.694 1.9708 4.68104 0
M  V30 1934 H 201.624 0.286817 5.25818 0
M  V30 1935 H 204.115 0.607632 3.72983 0
M  V30 1936 H 204.428 1.85567 7.5019 0
M  V30 1937 H 202.773 1.66211 6.74833 0
M  V30 1938 H 205.964 0.835701 4.6058 0
M  V30 1939 H 206.137 1.40459 6.32594 0
M  V30 1940 N 199.544 -1.57102 0.125237 0
M  V30 1941 C 200.792 -1.95021 -0.530198 0
M  V30 1942 C 201.113 -1.00982 -1.66816 0
M  V30 1943 O 200.383 -0.0672693 -1.95784 0
M  V30 1944 H 198.963 -0.720046 -0.198853 0
M  V30 1945 H 201.625 -1.93916 0.19564 0
M  V30 1946 H 200.721 -2.98211 -0.920681 0
M  V30 1947 N 201.022 0.148545 -1.56898 0
M  V30 1948 C 201.952 1.18524 -2.01182 0
M  V30 1949 C 202.933 1.4489 -0.891123 0
M  V30 1950 O 204.118 1.55836 -1.15882 0
M  V30 1951 C 201.248 2.51879 -2.39112 0
M  V30 1952 C 200.202 2.40038 -3.54353 0
M  V30 1953 C 199.528 3.78089 -3.78091 0
M  V30 1954 C 200.828 1.88577 -4.87069 0
M  V30 1955 H 202.522 0.817029 -2.88036 0
M  V30 1956 H 200.068 0.391575 -1.38574 0
M  V30 1957 H 202.021 3.24627 -2.68692 0
M  V30 1958 H 200.745 2.90532 -1.49193 0
M  V30 1959 H 199.404 1.69742 -3.24936 0
M  V30 1960 H 199.052 4.14175 -2.85426 0
M  V30 1961 H 198.752 3.71028 -4.55645 0
M  V30 1962 H 200.276 4.52387 -4.10095 0
M  V30 1963 H 201.69 2.51117 -5.15377 0
M  V30 1964 H 200.087 1.9241 -5.68417 0
M  V30 1965 H 201.157 0.84136 -4.77545 0
M  V30 1966 N 202.5 1.5196 0.417844 0
M  V30 1967 C 203.41 1.77554 1.53336 0
M  V30 1968 C 204.426 0.660655 1.6097 0
M  V30 1969 O 205.602 0.945099 1.77848 0
M  V30 1970 C 202.667 1.91291 2.89152 0
M  V30 1971 C 201.728 3.15183 2.91475 0
M  V30 1972 C 200.961 3.28256 4.20813 0
M  V30 1973 O 201.184 2.46798 5.14244 0
M  V30 1974 O 200.118 4.21356 4.29817 0
M  V30 1975 H 203.944 2.7222 1.34647 0
M  V30 1976 H 201.529 1.36698 0.602828 0
M  V30 1977 H 203.411 2.02199 3.69721 0
M  V30 1978 H 202.086 0.998129 3.07927 0
M  V30 1979 H 200.993 3.09739 2.09791 0
M  V30 1980 H 202.326 4.06414 2.77648 0
M  V30 1981 N 203.978 -0.674533 1.42435 0
M  V30 1982 C 205.208 -1.46071 1.46105 0
M  V30 1983 C 205.616 -1.89067 0.0709605 0
M  V30 1984 O 204.959 -1.58731 -0.924677 0
M  V30 1985 C 205.021 -2.74145 2.32561 0
M  V30 1986 C 204.685 -2.53224 3.8043 0
M  V30 1987 C 205.682 -2.17809 4.72075 0
M  V30 1988 C 203.367 -2.6821 4.24698 0
M  V30 1989 C 205.361 -1.97648 6.05982 0
M  V30 1990 C 203.048 -2.47665 5.58664 0
M  V30 1991 C 204.046 -2.12437 6.49122 0
M  V30 1992 O 203.734 -1.9209 7.80613 0
M  V30 1993 H 203.466 -0.455959 0.499076 0
M  V30 1994 H 206.02 -0.836193 1.87609 0
M  V30 1995 H 204.25 -3.3908 1.85908 0
M  V30 1996 H 205.939 -3.36028 2.27683 0
M  V30 1997 H 206.705 -2.05826 4.39159 0
M  V30 1998 H 202.584 -2.94609 3.54579 0
M  V30 1999 H 206.128 -1.70075 6.7655 0
M  V30 2000 H 202.025 -2.59244 5.91154 0
M  V30 2001 H 202.793 -2.06686 7.91974 0
M  V30 2002 N 205.456 -1.28612 -0.910864 0
M  V30 2003 C 206.404 -1.1265 -2.03501 0
M  V30 2004 C 207.398 -0.0450054 -1.6934 0
M  V30 2005 O 208.604 -0.203988 -1.7884 0
M  V30 2006 H 204.979 -0.347639 -0.666822 0
M  V30 2007 H 206.95 -2.07849 -2.14106 0
M  V30 2008 C 205.699 -0.808143 -3.38178 0
M  V30 2009 H 205.022 -1.63231 -3.6496 0
M  V30 2010 H 206.462 -0.736426 -4.17556 0
M  V30 2011 C 204.921 0.488226 -3.33344 0
M  V30 2012 O 205.451 1.51766 -3.71927 0
M  V30 2013 N 203.657 0.490009 -2.86439 0
M  V30 2014 H 203.204 -0.348161 -2.55236 0
M  V30 2015 H 203.162 1.35741 -2.83587 0
M  V30 2016 N 206.934 1.1197 -1.10907 0
M  V30 2017 C 207.844 2.21433 -0.774896 0
M  V30 2018 C 208.86 1.72478 0.229657 0
M  V30 2019 O 210.036 2.01288 0.0672008 0
M  V30 2020 C 207.101 3.4602 -0.216986 0
M  V30 2021 C 206.162 4.09791 -1.27944 0
M  V30 2022 C 205.395 5.28431 -0.748055 0
M  V30 2023 O 205.618 5.68823 0.423833 0
M  V30 2024 O 204.552 5.82644 -1.51027 0
M  V30 2025 H 208.378 2.5242 -1.68873 0
M  V30 2026 H 205.963 1.20399 -0.884555 0
M  V30 2027 H 207.845 4.21304 0.090059 0
M  V30 2028 H 206.52 3.16698 0.669633 0
M  V30 2029 H 205.427 3.36265 -1.63941 0
M  V30 2030 H 206.76 4.4328 -2.13925 0
M  V30 2031 N 208.412 0.89855 1.29475 0
M  V30 2032 C 209.658 0.524658 1.95896 0
M  V30 2033 C 209.991 -0.926468 1.70676 0
M  V30 2034 O 209.266 -1.65665 1.01908 0
M  V30 2035 C 209.549 0.81633 3.50725 0
M  V30 2036 C 209.402 2.31907 3.85408 0
M  V30 2037 C 210.721 0.302038 4.39062 0
M  V30 2038 H 207.84 0.19209 0.711527 0
M  V30 2039 H 210.482 1.12502 1.53112 0
M  V30 2040 H 208.632 0.305369 3.87298 0
M  V30 2041 H 210.304 2.89949 3.58786 0
M  V30 2042 H 208.547 2.78027 3.32992 0
M  V30 2043 H 209.218 2.47373 4.93468 0
M  V30 2044 H 211.694 0.739551 4.09475 0
M  V30 2045 H 210.57 0.535331 5.46283 0
M  V30 2046 H 210.831 -0.797216 4.34853 0
M  V30 2047 N 209.89 -1.43072 0.660911 0
M  V30 2048 C 210.838 -2.32569 -0.0378199 0
M  V30 2049 C 211.832 -1.49046 -0.805092 0
M  V30 2050 O 213.038 -1.65206 -0.714624 0
M  V30 2051 H 209.413 -0.75136 -0.031019 0
M  V30 2052 H 211.384 -2.89216 0.734609 0
M  V30 2053 C 210.133 -3.33453 -0.985124 0
M  V30 2054 H 209.456 -3.97752 -0.404147 0
M  V30 2055 H 210.896 -3.98691 -1.44297 0
M  V30 2056 C 209.355 -2.64642 -2.08486 0
M  V30 2057 O 209.885 -2.46776 -3.16961 0
M  V30 2058 N 208.091 -2.23891 -1.8526 0
M  V30 2059 H 207.638 -2.38621 -0.970449 0
M  V30 2060 H 207.596 -1.78181 -2.59034 0
M  V30 2061 N 211.368 -0.403325 -1.52352 0
M  V30 2062 C 212.614 0.174605 -2.02047 0
M  V30 2063 C 212.947 1.45282 -1.28867 0
M  V30 2064 O 212.222 1.90483 -0.393257 0
M  V30 2065 C 212.505 0.428238 -3.57545 0
M  V30 2066 C 212.358 -0.866248 -4.4138 0
M  V30 2067 C 213.677 1.21287 -4.23057 0
M  V30 2068 H 210.796 0.0619851 -0.734389 0
M  V30 2069 H 213.438 -0.53565 -1.82293 0
M  V30 2070 H 211.588 1.03327 -3.74507 0
M  V30 2071 H 213.26 -1.50265 -4.3614 0
M  V30 2072 H 211.503 -1.47851 -4.07827 0
M  V30 2073 H 212.174 -0.643249 -5.48239 0
M  V30 2074 H 214.65 0.700703 -4.10158 0
M  V30 2075 H 213.526 1.35909 -5.31808 0
M  V30 2076 H 213.787 2.23193 -3.81625 0
M  V30 2077 N 212.846 1.57033 -0.133567 0
M  V30 2078 C 214.074 2.00044 0.528195 0
M  V30 2079 C 214.489 1.01349 1.59291 0
M  V30 2080 O 213.846 0.00848369 1.82498 0
M  V30 2081 C 213.897 3.43018 1.1411 0
M  V30 2082 O 213.618 4.37939 0.11892 0
M  V30 2083 C 215.119 4.01237 1.88477 0
M  V30 2084 H 212.339 0.656517 0.138661 0
M  V30 2085 H 214.883 2.03267 -0.224196 0
M  V30 2086 H 213.038 3.40688 1.84418 0
M  V30 2087 H 213.452 5.21436 0.56613 0
M  V30 2088 H 214.926 5.03314 2.26669 0
M  V30 2089 H 215.403 3.41193 2.76558 0
M  V30 2090 H 216.009 4.07156 1.22898 0
M  V30 2091 N 214.325 -0.140222 1.56975 0
M  V30 2092 C 215.255 -1.17456 2.01808 0
M  V30 2093 C 216.236 -1.44415 0.898794 0
M  V30 2094 O 217.421 -1.5522 1.16707 0
M  V30 2095 C 214.551 -2.50607 2.40444 0
M  V30 2096 C 213.505 -2.38155 3.55621 0
M  V30 2097 C 212.831 -3.76078 3.80091 0
M  V30 2098 C 214.131 -1.85991 4.88062 0
M  V30 2099 H 215.825 -0.801743 2.88466 0
M  V30 2100 H 213.371 -0.38422 1.38779 0
M  V30 2101 H 215.324 -3.23197 2.7041 0
M  V30 2102 H 214.048 -2.89737 1.50732 0
M  V30 2103 H 212.707 -1.68016 3.25832 0
M  V30 2104 H 212.355 -4.12656 2.87618 0
M  V30 2105 H 212.055 -3.68606 4.57606 0
M  V30 2106 H 213.579 -4.50206 4.12488 0
M  V30 2107 H 214.993 -2.4838 5.16701 0
M  V30 2108 H 213.39 -1.89393 5.6943 0
M  V30 2109 H 214.46 -0.816023 4.77984 0
M  V30 2110 N 215.803 -1.52179 -0.40978 0
M  V30 2111 C 217.08 -1.56769 -1.16974 0
M  V30 2112 C 217.46 -0.348322 -2.08206 0
M  V30 2113 O 216.808 0.664862 -2.18613 0
M  V30 2114 C 217.018 -2.89603 -1.9476 0
M  V30 2115 C 218.366 -3.42579 -2.50849 0
M  V30 2116 O 219.39 -2.91338 -2.04941 0
M  V30 2117 O 218.249 -4.32054 -3.34652 0
M  V30 2118 H 215.343 -0.631439 -0.534054 0
M  V30 2119 H 217.889 -1.64507 -0.416613 0
M  V30 2120 H 216.661 -3.698 -1.27921 0
M  V30 2121 H 216.284 -2.85155 -2.77079 0
M  V30 2122 N 217.281 0.66697 -1.42791 0
M  V30 2123 C 218.211 1.79218 -1.49677 0
M  V30 2124 C 219.192 1.66405 -0.352623 0
M  V30 2125 O 220.377 1.85708 -0.567993 0
M  V30 2126 C 217.507 3.17565 -1.40605 0
M  V30 2127 C 216.461 3.45124 -2.53127 0
M  V30 2128 C 215.787 4.83127 -2.29112 0
M  V30 2129 C 217.087 3.41236 -3.95418 0
M  V30 2130 H 218.781 1.73713 -2.43853 0
M  V30 2131 H 216.327 0.83432 -1.17367 0
M  V30 2132 H 218.28 3.96022 -1.44029 0
M  V30 2133 H 217.004 3.23767 -0.429271 0
M  V30 2134 H 215.663 2.69031 -2.49034 0
M  V30 2135 H 215.311 4.85988 -1.29709 0
M  V30 2136 H 215.011 5.02528 -3.04531 0
M  V30 2137 H 216.535 5.63859 -2.34297 0
M  V30 2138 H 217.949 4.09651 -4.01073 0
M  V30 2139 H 216.346 3.72173 -4.70752 0
M  V30 2140 H 217.416 2.39665 -4.21532 0
M  V30 2141 N 218.759 1.29093 0.90403 0
M  V30 2142 C 220.007 1.16583 1.65085 0
M  V30 2143 C 220.328 -0.283933 1.92922 0
M  V30 2144 O 219.598 -1.19509 1.55224 0
M  V30 2145 H 218.178 0.428467 0.611903 0
M  V30 2146 H 220.84 1.61959 1.08422 0
M  V30 2147 H 219.936 1.71266 2.6091 0
M  V30 2148 N 220.237 -1.11381 1.11499 0
M  V30 2149 C 221.169 -2.17207 0.731704 0
M  V30 2150 C 222.182 -1.61066 -0.236957 0
M  V30 2151 O 223.371 -1.78489 -0.0197591 0
M  V30 2152 C 220.471 -3.38846 0.0607624 0
M  V30 2153 C 219.644 -4.24451 1.0564 0
M  V30 2154 C 218.703 -5.24562 0.4149 0
M  V30 2155 O 217.729 -5.59071 1.069 0
M  V30 2156 N 218.931 -5.74651 -0.821943 0
M  V30 2157 H 221.696 -2.50699 1.64225 0
M  V30 2158 H 219.257 -1.26908 1.00529 0
M  V30 2159 H 221.249 -4.02911 -0.380139 0
M  V30 2160 H 219.819 -3.03411 -0.752376 0
M  V30 2161 H 219.039 -3.56833 1.67524 0
M  V30 2162 H 220.327 -4.78486 1.72998 0
M  V30 2163 H 219.725 -5.48797 -1.37252 0
M  V30 2164 H 218.282 -6.40549 -1.20582 0
M  V30 2165 N 221.715 -0.905404 -1.28997 0
M  V30 2166 C 222.961 -0.535039 -1.95615 0
M  V30 2167 C 223.294 0.917404 -1.71165 0
M  V30 2168 O 222.569 1.65123 -1.02785 0
M  V30 2169 C 222.852 -0.834918 -3.50287 0
M  V30 2170 C 222.705 -2.33948 -3.84172 0
M  V30 2171 C 224.024 -0.325318 -4.38896 0
M  V30 2172 H 221.143 -0.195861 -0.710498 0
M  V30 2173 H 223.785 -1.13313 -1.52513 0
M  V30 2174 H 221.935 -0.325904 -3.87131 0
M  V30 2175 H 223.607 -2.91847 -3.57243 0
M  V30 2176 H 221.85 -2.79789 -3.31513 0
M  V30 2177 H 222.521 -2.49987 -4.92149 0
M  V30 2178 H 224.997 -0.761256 -4.09077 0
M  V30 2179 H 223.873 -0.564295 -5.45992 0
M  V30 2180 H 224.134 0.774144 -4.35269 0
M  V30 2181 N 223.193 1.4272 -0.668489 0
M  V30 2182 C 224.44 2.01624 -0.18814 0
M  V30 2183 C 224.768 1.5282 1.20317 0
M  V30 2184 O 224.023 0.718323 1.8204 0
M  V30 2185 C 224.322 3.57021 -0.164499 0
M  V30 2186 C 223.988 4.25232 -1.49962 0
M  V30 2187 C 222.65 4.4358 -1.8652 0
M  V30 2188 C 225.002 4.63727 -2.37921 0
M  V30 2189 C 222.33 4.97694 -3.10674 0
M  V30 2190 C 224.682 5.19218 -3.6138 0
M  V30 2191 C 223.346 5.3578 -3.98115 0
M  V30 2192 H 222.616 0.737795 -0.0688454 0
M  V30 2193 H 225.263 1.70991 -0.862225 0
M  V30 2194 H 223.568 3.87285 0.593079 0
M  V30 2195 H 225.265 4.00372 0.224271 0
M  V30 2196 H 221.855 4.11306 -1.20522 0
M  V30 2197 H 226.039 4.4923 -2.10964 0
M  V30 2198 H 221.295 5.08702 -3.39164 0
M  V30 2199 H 225.469 5.4799 -4.29743 0
M  V30 2200 H 223.096 5.77475 -4.94395 0
M  V30 2201 N 224.671 0.411399 1.52136 0
M  V30 2202 C 225.621 -0.430376 2.23901 0
M  V30 2203 C 226.605 -1.0116 1.25121 0
M  V30 2204 O 227.797 -0.934044 1.50348 0
M  V30 2205 C 224.926 -1.54527 3.06556 0
M  V30 2206 C 224.012 -0.9747 4.12747 0
M  V30 2207 N 224.403 -0.130991 5.0563 0
M  V30 2208 C 222.701 -1.24497 4.28271 0
M  V30 2209 C 223.402 0.186689 5.814 0
M  V30 2210 N 222.378 -0.42304 5.41951 0
M  V30 2211 H 226.18 0.220509 2.93072 0
M  V30 2212 H 223.694 0.221952 1.60876 0
M  V30 2213 H 225.691 -2.16093 3.56524 0
M  V30 2214 H 224.351 -2.19875 2.38925 0
M  V30 2215 H 225.362 0.23349 5.17373 0
M  V30 2216 H 222.039 -1.89787 3.7187 0
M  V30 2217 H 223.429 0.871673 6.66222 0
M  V30 2218 N 226.149 -1.5696 0.141893 0
M  V30 2219 C 227.395 -1.9625 -0.511248 0
M  V30 2220 C 227.728 -1.02654 -1.64851 0
M  V30 2221 O 227.003 -0.0679676 -1.94381 0
M  V30 2222 C 227.286 -3.45285 -1.02227 0
M  V30 2223 C 227.139 -4.49658 0.113138 0
M  V30 2224 C 228.458 -3.96698 -1.90574 0
M  V30 2225 H 225.577 -0.713567 -0.184367 0
M  V30 2226 H 228.219 -1.88698 0.222087 0
M  V30 2227 H 226.369 -3.51852 -1.64719 0
M  V30 2228 H 228.041 -4.55174 0.749302 0
M  V30 2229 H 226.284 -4.26857 0.773026 0
M  V30 2230 H 226.955 -5.51258 -0.286053 0
M  V30 2231 H 229.431 -3.92578 -1.37918 0
M  V30 2232 H 228.307 -5.01453 -2.2324 0
M  V30 2233 H 228.568 -3.3875 -2.84079 0
M  V30 2234 N 227.627 0.131896 -1.57047 0
M  V30 2235 C 228.59 1.14638 -1.98471 0
M  V30 2236 C 229.59 1.35029 -0.873148 0
M  V30 2237 O 230.78 1.31764 -1.13946 0
M  V30 2238 C 227.912 2.50358 -2.31373 0
M  V30 2239 H 229.105 0.79064 -2.8929 0
M  V30 2240 H 226.658 0.375761 -1.51716 0
M  V30 2241 H 227.393 2.90876 -1.43393 0
M  V30 2242 H 227.178 2.36915 -3.12432 0
M  V30 2243 H 228.668 3.23395 -2.64207 0
M  V30 2244 N 229.106 1.52395 0.401703 0
M  V30 2245 C 230.336 1.70429 1.1678 0
M  V30 2246 C 230.744 0.416702 1.84554 0
M  V30 2247 O 230.087 -0.617697 1.73003 0
M  V30 2248 C 230.149 2.78919 2.26814 0
M  V30 2249 C 229.813 4.20437 1.79113 0
M  V30 2250 C 230.81 5.04028 1.27482 0
M  V30 2251 C 228.495 4.66704 1.85722 0
M  V30 2252 C 230.489 6.31961 0.830913 0
M  V30 2253 C 228.176 5.94625 1.40942 0
M  V30 2254 C 229.174 6.77082 0.897128 0
M  V30 2255 O 228.862 8.02607 0.455822 0
M  V30 2256 H 228.594 0.574272 0.356634 0
M  V30 2257 H 231.148 1.99767 0.477724 0
M  V30 2258 H 229.378 2.44973 2.99207 0
M  V30 2259 H 231.067 2.8548 2.88541 0
M  V30 2260 H 231.833 4.69471 1.21744 0
M  V30 2261 H 227.712 4.0262 2.24539 0
M  V30 2262 H 231.256 6.96271 0.430368 0
M  V30 2263 H 227.153 6.28688 1.46362 0
M  V30 2264 H 227.921 8.16453 0.578457 0
M  V30 2265 N 230.584 -0.659388 1.43143 0
M  V30 2266 C 231.83 -1.42145 1.44647 0
M  V30 2267 C 232.163 -1.9408 0.0681907 0
M  V30 2268 O 231.438 -1.71899 -0.910007 0
M  V30 2269 C 231.721 -2.60735 2.48373 0
M  V30 2270 C 231.574 -2.14332 3.95451 0
M  V30 2271 C 232.893 -3.62951 2.48906 0
M  V30 2272 H 230.012 -0.51552 0.526696 0
M  V30 2273 H 232.654 -0.748069 1.74654 0
M  V30 2274 H 230.804 -3.18184 2.22916 0
M  V30 2275 H 232.476 -1.61932 4.31944 0
M  V30 2276 H 230.719 -1.4576 4.08578 0
M  V30 2277 H 231.39 -2.99583 4.63631 0
M  V30 2278 H 233.866 -3.1525 2.71582 0
M  V30 2279 H 232.742 -4.43487 3.23435 0
M  V30 2280 H 233.003 -4.15126 1.52061 0
M  V30 2281 N 232.062 -1.29571 -0.897171 0
M  V30 2282 C 232.992 -1.17473 -2.01798 0
M  V30 2283 C 233.973 -0.068323 -1.69963 0
M  V30 2284 O 235.158 -0.248239 -1.92607 0
M  V30 2285 C 232.288 -0.853099 -3.36659 0
M  V30 2286 C 231.242 -1.9161 -3.82713 0
M  V30 2287 C 230.568 -1.44773 -5.14728 0
M  V30 2288 C 231.868 -3.32535 -4.02763 0
M  V30 2289 H 233.562 -2.11237 -2.12177 0
M  V30 2290 H 231.108 -1.01699 -1.01948 0
M  V30 2291 H 233.061 -0.755165 -4.14578 0
M  V30 2292 H 231.785 0.120236 -3.26379 0
M  V30 2293 H 230.444 -2.00346 -3.07013 0
M  V30 2294 H 230.092 -0.462995 -5.00865 0
M  V30 2295 H 229.792 -2.15865 -5.46513 0
M  V30 2296 H 231.316 -1.36334 -5.95185 0
M  V30 2297 H 232.73 -3.26626 -4.71156 0
M  V30 2298 H 231.127 -4.01607 -4.45905 0
M  V30 2299 H 232.197 -3.75326 -3.07016 0
M  V30 2300 N 233.54 1.10788 -1.12088 0
M  V30 2301 C 234.789 1.82036 -0.868659 0
M  V30 2302 C 235.102 1.85929 0.607426 0
M  V30 2303 O 236.308 2.53346 0.97613 0
M  V30 2304 C 234.764 3.26951 -1.50435 0
M  V30 2305 C 234.372 3.31367 -3.01496 0
M  V30 2306 C 236.116 4.03053 -1.33225 0
M  V30 2307 C 234.023 4.7072 -3.58017 0
M  V30 2308 H 232.953 0.682108 -0.321318 0
M  V30 2309 H 235.604 1.24618 -1.34694 0
M  V30 2310 H 233.986 3.84343 -0.953735 0
M  V30 2311 H 235.16 2.83819 -3.6302 0
M  V30 2312 H 233.475 2.6875 -3.18061 0
M  V30 2313 H 236.072 5.05981 -1.72878 0
M  V30 2314 H 236.415 4.15387 -0.275529 0
M  V30 2315 H 236.948 3.52066 -1.85188 0
M  V30 2316 H 233.687 4.63585 -4.63432 0
M  V30 2317 H 233.207 5.1865 -3.01268 0
M  V30 2318 H 234.886 5.39685 -3.56859 0
M  V30 2319 N 235.018 0.912232 1.28515 0
M  V30 2320 C 235.965 0.397954 2.27343 0
M  V30 2321 C 236.935 -0.526766 1.57526 0
M  V30 2322 O 238.12 -0.449292 1.85435 0
M  V30 2323 C 235.26 -0.357263 3.43246 0
M  V30 2324 C 234.373 0.599788 4.27816 0
M  V30 2325 C 233.508 -0.173725 5.30916 0
M  V30 2326 C 232.547 0.777039 6.07148 0
M  V30 2327 N 231.684 0.0371398 7.0209 0
M  V30 2328 H 236.524 1.24577 2.70711 0
M  V30 2329 H 234.061 0.625612 1.33133 0
M  V30 2330 H 236.019 -0.8113 4.09236 0
M  V30 2331 H 234.649 -1.16943 3.00872 0
M  V30 2332 H 233.701 1.17235 3.61884 0
M  V30 2333 H 235.013 1.32704 4.80823 0
M  V30 2334 H 234.167 -0.688394 6.02782 0
M  V30 2335 H 232.906 -0.934041 4.78672 0
M  V30 2336 H 231.911 1.3031 5.34134 0
M  V30 2337 H 233.136 1.53689 6.61481 0
M  V30 2338 H 231.082 -0.705213 6.52198 0
M  V30 2339 H 230.999 0.704249 7.52713 0
M  V30 2340 H 232.267 -0.457383 7.78157 0
M  V30 2341 N 236.496 -1.42363 0.676048 0
M  V30 2342 C 237.743 -2.01522 0.19883 0
M  V30 2343 C 238.071 -1.53456 -1.19505 0
M  V30 2344 O 237.326 -0.727967 -1.81657 0
M  V30 2345 C 237.625 -3.56929 0.183431 0
M  V30 2346 C 237.291 -4.24431 1.52215 0
M  V30 2347 C 235.953 -4.42585 1.8887 0
M  V30 2348 C 238.305 -4.62459 2.40377 0
M  V30 2349 C 235.633 -4.96039 3.13309 0
M  V30 2350 C 237.985 -5.17294 3.64129 0
M  V30 2351 C 236.649 -5.33661 4.00951 0
M  V30 2352 H 235.919 -0.737419 0.0727571 0
M  V30 2353 H 238.566 -1.70531 0.871281 0
M  V30 2354 H 236.871 -3.87594 -0.572532 0
M  V30 2355 H 238.568 -4.00486 -0.203035 0
M  V30 2356 H 235.158 -4.10661 1.22701 0
M  V30 2357 H 239.342 -4.48105 2.13343 0
M  V30 2358 H 234.598 -5.06896 3.41857 0
M  V30 2359 H 238.772 -5.45704 4.32644 0
M  V30 2360 H 236.399 -5.74845 4.9745 0
M  V30 2361 N 237.974 -0.419461 -1.51915 0
M  V30 2362 C 238.937 0.389116 -2.25873 0
M  V30 2363 C 239.937 0.964924 -1.28631 0
M  V30 2364 O 241.127 0.842179 -1.52489 0
M  V30 2365 C 238.259 1.54874 -3.03689 0
M  V30 2366 H 239.452 -0.258799 -2.98781 0
M  V30 2367 H 237.005 -0.172209 -1.55348 0
M  V30 2368 H 237.74 2.23323 -2.35154 0
M  V30 2369 H 237.525 1.14223 -3.75094 0
M  V30 2370 H 239.015 2.12046 -3.59759 0
M  V30 2371 N 239.452 1.56882 -0.150215 0
M  V30 2372 C 240.4 2.18214 0.805313 0
M  V30 2373 C 241.394 1.14006 1.25296 0
M  V30 2374 O 242.6 1.3225 1.22107 0
M  V30 2375 H 238.975 0.698762 0.277913 0
M  V30 2376 H 240.946 2.97231 0.263862 0
M  V30 2377 C 239.695 2.82065 2.03309 0
M  V30 2378 H 239.018 3.61968 1.69763 0
M  V30 2379 H 240.458 3.28477 2.68103 0
M  V30 2380 C 238.917 1.80739 2.84315 0
M  V30 2381 O 239.447 1.27983 3.80767 0
M  V30 2382 N 237.653 1.4997 2.48913 0
M  V30 2383 H 237.2 1.93062 1.70542 0
M  V30 2384 H 237.158 0.824217 3.03404 0
M  V30 2385 N 240.93 -0.123565 1.57115 0
M  V30 2386 C 242.155 -0.850398 1.89164 0
M  V30 2387 C 242.58 -1.7286 0.741688 0
M  V30 2388 O 241.938 -1.78665 -0.307958 0
M  V30 2389 C 241.986 -1.66353 3.19936 0
M  V30 2390 O 241.09 -2.77004 3.0552 0
M  V30 2391 H 240.431 -0.235454 0.620852 0
M  V30 2392 H 242.961 -0.107335 2.04318 0
M  V30 2393 H 242.971 -2.05372 3.52543 0
M  V30 2394 H 241.646 -1.01881 4.03228 0
M  V30 2395 H 240.223 -2.41221 2.84371 0
M  V30 2396 N 242.408 -1.52605 -0.393616 0
M  V30 2397 C 243.819 -1.59417 -0.971761 0
M  V30 2398 C 244.17 -0.444173 -1.91106 0
M  V30 2399 O 243.295 0.433382 -2.12016 0
M  V30 2400 C 243.89 -2.88936 -1.76921 0
M  V30 2401 C 242.449 -2.98175 -2.29714 0
M  V30 2402 C 241.596 -2.54491 -1.10135 0
M  V30 2403 H 244.547 -1.57751 -0.173317 0
M  V30 2404 H 244.568 -2.75163 -2.62804 0
M  V30 2405 H 244.08 -3.72616 -1.08532 0
M  V30 2406 H 242.181 -2.19024 -3.01429 0
M  V30 2407 H 242.294 -4.02726 -2.59517 0
M  V30 2408 H 240.658 -2.08702 -1.45999 0
M  V30 2409 H 241.441 -3.4056 -0.432874 0
M  V30 2410 N 243.887 0.651787 -1.4349 0
M  V30 2411 C 245.303 0.96762 -1.26922 0
M  V30 2412 C 245.503 2.00602 -0.189982 0
M  V30 2413 O 244.559 2.48793 0.431107 0
M  V30 2414 C 245.872 1.45052 -2.63401 0
M  V30 2415 C 247.42 1.5671 -2.70945 0
M  V30 2416 C 247.895 2.0839 -4.07845 0
M  V30 2417 N 249.386 2.1569 -4.09917 0
M  V30 2418 C 250.121 2.56804 -5.12679 0
M  V30 2419 N 249.617 2.97203 -6.25813 0
M  V30 2420 N 251.41 2.56756 -5.00033 0
M  V30 2421 H 243.561 -0.0353158 -2.12371 0
M  V30 2422 H 245.824 0.0467858 -0.946845 0
M  V30 2423 H 245.53 0.761926 -3.43348 0
M  V30 2424 H 245.404 2.42529 -2.88894 0
M  V30 2425 H 247.791 2.2467 -1.9133 0
M  V30 2426 H 247.872 0.57662 -2.49216 0
M  V30 2427 H 247.516 1.41031 -4.87927 0
M  V30 2428 H 247.446 3.08271 -4.26938 0
M  V30 2429 H 249.937 1.87237 -3.28254 0
M  V30 2430 H 250.25 3.27328 -7.00055 0
M  V30 2431 H 248.595 2.95004 -6.29283 0
M  V30 2432 H 251.786 2.24572 -4.10713 0
M  V30 2433 H 251.959 2.88475 -5.80247 0
M  V30 2434 N 245.365 1.30045 0.890287 0
M  V30 2435 C 246.776 1.16738 1.45702 0
M  V30 2436 C 247.127 -0.233939 1.948 0
M  V30 2437 O 246.252 -1.13021 1.84541 0
M  V30 2438 C 246.847 2.11313 2.64825 0
M  V30 2439 C 245.406 2.02001 3.17604 0
M  V30 2440 C 244.553 2.01699 1.90296 0
M  V30 2441 H 247.504 1.42392 0.700726 0
M  V30 2442 H 247.525 1.69086 3.40867 0
M  V30 2443 H 247.037 3.13294 2.2906 0
M  V30 2444 H 245.138 1.03142 3.5804 0
M  V30 2445 H 245.251 2.90128 3.81264 0
M  V30 2446 H 243.615 1.46427 2.08402 0
M  V30 2447 H 244.398 3.05402 1.56795 0
M  V30 2448 N 246.843 -1.10192 1.12674 0
M  V30 2449 C 248.12 -1.78717 0.794965 0
M  V30 2450 C 248.5 -1.98628 -0.714853 0
M  V30 2451 O 247.848 -1.58135 -1.64941 0
M  V30 2452 C 248.058 -3.11546 1.5729 0
M  V30 2453 C 249.406 -3.86382 1.76052 0
M  V30 2454 O 250.43 -3.21274 1.53823 0
M  V30 2455 O 249.289 -5.03246 2.13087 0
M  V30 2456 H 246.383 -0.774702 0.289423 0
M  V30 2457 H 248.929 -1.16819 1.23091 0
M  V30 2458 H 247.701 -2.92489 2.59935 0
M  V30 2459 H 247.324 -3.81164 1.13137 0
M  V30 2460 N 248.321 -0.919034 -1.28029 0
M  V30 2461 C 249.251 -0.428581 -2.29533 0
M  V30 2462 C 250.232 0.50659 -1.62381 0
M  V30 2463 O 251.417 0.413195 -1.89753 0
M  V30 2464 C 248.547 0.327388 -3.45753 0
M  V30 2465 C 247.501 -0.519137 -4.2484 0
M  V30 2466 C 246.827 0.365486 -5.33449 0
M  V30 2467 C 248.127 -1.77914 -4.91064 0
M  V30 2468 H 249.821 -1.27687 -2.70807 0
M  V30 2469 H 247.367 -0.615428 -1.30186 0
M  V30 2470 H 249.32 0.681378 -4.15855 0
M  V30 2471 H 248.044 1.20963 -3.03374 0
M  V30 2472 H 246.703 -0.855717 -3.56473 0
M  V30 2473 H 246.351 1.24642 -4.87312 0
M  V30 2474 H 246.051 -0.197356 -5.87268 0
M  V30 2475 H 247.575 0.715241 -6.06396 0
M  V30 2476 H 248.989 -1.49374 -5.53498 0
M  V30 2477 H 247.386 -2.2848 -5.54903 0
M  V30 2478 H 248.456 -2.50382 -4.15255 0
M  V30 2479 N 249.799 1.42003 -0.683588 0
M  V30 2480 C 251.045 2.02223 -0.218536 0
M  V30 2481 C 251.4 1.53126 1.16492 0
M  V30 2482 O 250.693 0.727459 1.77253 0
M  V30 2483 C 250.887 3.56827 -0.202357 0
M  V30 2484 C 250.716 4.20928 -1.5827 0
M  V30 2485 C 249.486 4.5573 -2.18262 0
M  V30 2486 C 251.684 4.47933 -2.52706 0
M  V30 2487 N 249.666 5.05056 -3.48986 0
M  V30 2488 C 251.037 4.98906 -3.68094 0
M  V30 2489 C 253.092 4.29931 -2.51125 0
M  V30 2490 C 251.795 5.33768 -4.82166 0
M  V30 2491 C 253.821 4.65875 -3.643 0
M  V30 2492 C 253.183 5.17008 -4.78417 0
M  V30 2493 H 249.282 0.771931 -0.125088 0
M  V30 2494 H 251.866 1.72729 -0.898479 0
M  V30 2495 H 250.037 3.85819 0.447029 0
M  V30 2496 H 251.769 4.03755 0.276399 0
M  V30 2497 H 248.524 4.41781 -1.70665 0
M  V30 2498 H 248.948 5.34139 -4.15962 0
M  V30 2499 H 253.59 3.89647 -1.6412 0
M  V30 2500 H 251.308 5.72981 -5.6984 0
M  V30 2501 H 254.894 4.53615 -3.64314 0
M  V30 2502 H 253.774 5.44301 -5.64541 0
M  V30 2503 N 251.277 0.427512 1.51691 0
M  V30 2504 C 252.523 -0.142439 2.02299 0
M  V30 2505 C 252.856 -1.43214 1.31162 0
M  V30 2506 O 252.131 -1.89833 0.423511 0
M  V30 2507 C 252.414 -0.371301 3.58181 0
M  V30 2508 C 252.267 0.936358 4.39946 0
M  V30 2509 C 253.586 -1.14542 4.24933 0
M  V30 2510 H 250.705 -0.0502937 0.735282 0
M  V30 2511 H 253.347 0.564584 1.81418 0
M  V30 2512 H 251.497 -0.973559 3.76104 0
M  V30 2513 H 253.169 1.57184 4.33694 0
M  V30 2514 H 251.412 1.5432 4.05423 0
M  V30 2515 H 252.083 0.730388 5.47147 0
M  V30 2516 H 254.559 -0.635362 4.11221 0
M  V30 2517 H 253.435 -1.27431 5.33903 0
M  V30 2518 H 253.696 -2.17093 3.85127 0
M  V30 2519 N 252.755 -1.56801 0.158532 0
M  V30 2520 C 253.685 -2.20347 -0.772609 0
M  V30 2521 C 254.666 -1.15518 -1.24859 0
M  V30 2522 O 255.851 -1.43902 -1.30406 0
M  V30 2523 C 252.981 -2.83417 -2.00729 0
M  V30 2524 C 251.935 -3.94174 -1.66765 0
M  V30 2525 C 251.261 -4.44233 -2.97592 0
M  V30 2526 C 252.561 -5.14392 -0.905447 0
M  V30 2527 H 254.255 -2.98413 -0.242959 0
M  V30 2528 H 251.801 -1.43537 -0.115419 0
M  V30 2529 H 253.754 -3.26543 -2.6636 0
M  V30 2530 H 252.478 -2.02701 -2.56086 0
M  V30 2531 H 251.137 -3.51684 -1.03508 0
M  V30 2532 H 250.785 -3.60325 -3.50963 0
M  V30 2533 H 250.485 -5.18945 -2.75626 0
M  V30 2534 H 252.009 -4.90037 -3.64274 0
M  V30 2535 H 253.423 -5.5429 -1.46408 0
M  V30 2536 H 251.82 -5.9494 -0.7853 0
M  V30 2537 H 252.89 -4.84795 0.100668 0
M  V30 2538 N 254.233 0.115231 -1.57178 0
M  V30 2539 C 255.143 1.15994 -2.03918 0
M  V30 2540 C 256.159 1.45103 -0.960268 0
M  V30 2541 O 257.335 1.56144 -1.27204 0
M  V30 2542 C 254.4 2.46568 -2.43732 0
M  V30 2543 C 253.461 2.24822 -3.65723 0
M  V30 2544 C 252.694 3.4917 -4.03629 0
M  V30 2545 O 252.917 4.56623 -3.41835 0
M  V30 2546 O 251.851 3.39949 -4.96708 0
M  V30 2547 H 255.677 0.793019 -2.93164 0
M  V30 2548 H 253.262 0.3263 -1.45793 0
M  V30 2549 H 255.144 3.23492 -2.70057 0
M  V30 2550 H 253.819 2.82726 -1.57631 0
M  V30 2551 H 252.726 1.45744 -3.44542 0
M  V30 2552 H 254.059 1.93566 -4.52541 0
M  V30 2553 N 255.711 1.52812 0.385517 0
M  V30 2554 C 257.127 1.4214 0.725829 0
M  V30 2555 C 257.327 0.544589 1.94001 0
M  V30 2556 O 256.383 0.0193693 2.52493 0
M  V30 2557 C 257.696 2.85042 0.957668 0
M  V30 2558 C 259.244 2.94543 1.05892 0
M  V30 2559 C 259.719 4.38464 1.32337 0
M  V30 2560 N 261.21 4.41804 1.39151 0
M  V30 2561 C 261.945 5.5025 1.61285 0
M  V30 2562 N 261.441 6.68775 1.80866 0
M  V30 2563 N 263.234 5.37798 1.63492 0
M  V30 2564 H 255.385 2.08338 -0.413383 0
M  V30 2565 H 257.648 0.940016 -0.122775 0
M  V30 2566 H 257.354 3.51431 0.137568 0
M  V30 2567 H 257.228 3.27505 1.87137 0
M  V30 2568 H 259.615 2.28321 1.86959 0
M  V30 2569 H 259.696 2.55504 0.123057 0
M  V30 2570 H 259.34 5.05254 0.517793 0
M  V30 2571 H 259.27 4.75059 2.27214 0
M  V30 2572 H 261.761 3.56377 1.25713 0
M  V30 2573 H 262.074 7.47197 1.97271 0
M  V30 2574 H 260.419 6.71797 1.78083 0
M  V30 2575 H 263.61 4.44171 1.47749 0
M  V30 2576 H 263.783 6.22382 1.80402 0
M  V30 2577 N 257.189 -0.644168 1.43834 0
M  V30 2578 C 258.414 -1.43642 1.49605 0
M  V30 2579 C 258.839 -1.8773 0.117913 0
M  V30 2580 O 258.197 -1.57938 -0.890239 0
M  V30 2581 C 258.245 -2.6416 2.45463 0
M  V30 2582 O 257.349 -3.63538 1.94714 0
M  V30 2583 H 256.69 -0.430329 0.50568 0
M  V30 2584 H 259.22 -0.787448 1.8884 0
M  V30 2585 H 259.23 -3.11864 2.63068 0
M  V30 2586 H 257.905 -2.31414 3.45572 0
M  V30 2587 H 256.482 -3.2273 1.86814 0
M  V30 2588 N 258.668 -1.30515 -0.883378 0
M  V30 2589 C 259.601 -1.11359 -1.99184 0
M  V30 2590 C 260.579 -0.0207858 -1.62587 0
M  V30 2591 O 261.763 -0.174646 -1.87689 0
M  V30 2592 C 258.89 -0.69871 -3.31415 0
M  V30 2593 C 257.936 -1.79261 -3.86998 0
M  V30 2594 S 258.769 -3.39536 -4.14096 0
M  V30 2595 C 259.925 -2.99954 -5.49344 0
M  V30 2596 H 260.158 -2.052 -2.15128 0
M  V30 2597 H 257.691 -1.14847 -1.03196 0
M  V30 2598 H 259.649 -0.466075 -4.07846 0
M  V30 2599 H 258.31 0.220368 -3.13326 0
M  V30 2600 H 257.503 -1.45464 -4.82552 0
M  V30 2601 H 257.105 -1.97961 -3.17313 0
M  V30 2602 H 259.397 -2.48013 -6.30473 0
M  V30 2603 H 260.34 -3.9442 -5.8808 0
M  V30 2604 H 260.748 -2.37775 -5.1198 0
M  V30 2605 N 260.146 1.09593 -1.13257 0
M  V30 2606 C 261.423 1.78293 -0.804432 0
M  V30 2607 C 261.803 1.99004 0.70431 0
M  V30 2608 O 261.151 1.59007 1.641 0
M  V30 2609 C 261.361 3.10707 -1.5894 0
M  V30 2610 C 262.709 3.85443 -1.78099 0
M  V30 2611 O 263.733 3.20454 -1.55525 0
M  V30 2612 O 262.592 5.02108 -2.15753 0
M  V30 2613 H 259.686 0.773156 -0.293528 0
M  V30 2614 H 262.232 1.16164 -1.23709 0
M  V30 2615 H 261.004 2.91106 -2.61482 0
M  V30 2616 H 260.627 3.80558 -1.15157 0
M  V30 2617 N 261.624 0.925811 1.2754 0
M  V30 2618 C 262.871 0.565255 1.94451 0
M  V30 2619 C 263.199 -0.89316 1.7278 0
M  V30 2620 O 262.454 -1.65213 1.04895 0
M  V30 2621 C 262.753 0.835296 3.47502 0
M  V30 2622 C 262.419 2.27515 3.89291 0
M  V30 2623 C 261.081 2.66879 4.00411 0
M  V30 2624 C 263.433 3.21158 4.10496 0
M  V30 2625 C 260.761 3.99014 4.30122 0
M  V30 2626 C 263.113 4.52871 4.4169 0
M  V30 2627 C 261.777 4.92072 4.51023 0
M  V30 2628 H 261.047 0.206841 0.711546 0
M  V30 2629 H 263.694 1.16942 1.51647 0
M  V30 2630 H 261.999 0.148442 3.91519 0
M  V30 2631 H 263.696 0.535322 3.97411 0
M  V30 2632 H 260.286 1.95976 3.81171 0
M  V30 2633 H 264.47 2.9195 4.01346 0
M  V30 2634 H 259.726 4.2907 4.35556 0
M  V30 2635 H 263.9 5.25436 4.57045 0
M  V30 2636 H 261.527 5.9449 4.738 0
M  V30 2637 N 263.102 -1.41638 0.69111 0
M  V30 2638 C 264.35 -2.00902 0.219758 0
M  V30 2639 C 264.671 -1.54994 -1.18329 0
M  V30 2640 O 263.941 -0.778628 -1.79762 0
M  V30 2641 H 262.521 -0.74289 0.0782558 0
M  V30 2642 H 265.183 -1.73327 0.891271 0
M  V30 2643 H 264.279 -3.11224 0.233708 0
M  V30 2644 N 264.58 -0.43555 -1.51462 0
M  V30 2645 C 265.996 -0.0877501 -1.59359 0
M  V30 2646 C 266.196 1.4027 -1.4466 0
M  V30 2647 O 265.252 2.17243 -1.28693 0
M  V30 2648 C 266.565 -0.606264 -2.94525 0
M  V30 2649 C 268.113 -0.566548 -3.0783 0
M  V30 2650 C 268.588 -1.06201 -4.45517 0
M  V30 2651 N 270.079 -1.01992 -4.51832 0
M  V30 2652 C 270.814 -1.37417 -5.5669 0
M  V30 2653 N 270.31 -1.80119 -6.68976 0
M  V30 2654 N 272.103 -1.29245 -5.47039 0
M  V30 2655 H 264.254 -1.40533 -1.59261 0
M  V30 2656 H 266.517 -0.578992 -0.750648 0
M  V30 2657 H 266.223 -1.64901 -3.10645 0
M  V30 2658 H 266.097 -0.0302097 -3.77188 0
M  V30 2659 H 268.484 0.467208 -2.91378 0
M  V30 2660 H 268.565 -1.17898 -2.2701 0
M  V30 2661 H 268.209 -2.09422 -4.62715 0
M  V30 2662 H 268.139 -0.426127 -5.24873 0
M  V30 2663 H 270.63 -0.706308 -3.71241 0
M  V30 2664 H 270.943 -2.05392 -7.45006 0
M  V30 2665 H 269.288 -1.84044 -6.70189 0
M  V30 2666 H 272.479 -0.957522 -4.58202 0
M  V30 2667 H 272.652 -1.57182 -6.28648 0
M  V30 2668 N 266.058 1.56714 -0.166846 0
M  V30 2669 C 267.286 2.0112 0.485644 0
M  V30 2670 C 267.701 1.04705 1.57106 0
M  V30 2671 O 267.058 0.0471923 1.82439 0
M  V30 2672 C 267.109 3.45361 1.06808 0
M  V30 2673 O 266.83 4.38092 0.0259995 0
M  V30 2674 C 268.331 4.05145 1.79924 0
M  V30 2675 H 265.551 0.65931 0.124704 0
M  V30 2676 H 268.095 2.02746 -0.267262 0
M  V30 2677 H 266.25 3.44524 1.7715 0
M  V30 2678 H 266.664 5.22519 0.455398 0
M  V30 2679 H 268.138 5.08009 2.15942 0
M  V30 2680 H 268.615 3.46982 2.69258 0
M  V30 2681 H 269.221 4.09672 1.14234 0
M  V30 2682 N 267.536 -0.106894 1.57237 0
M  V30 2683 C 268.766 -0.825191 1.89405 0
M  V30 2684 C 269.174 -1.73374 0.757496 0
M  V30 2685 O 268.517 -1.81552 -0.280115 0
M  V30 2686 C 268.579 -1.70102 3.1671 0
M  V30 2687 C 268.243 -0.965523 4.46684 0
M  V30 2688 C 269.24 -0.300741 5.19029 0
M  V30 2689 C 266.925 -0.943105 4.93367 0
M  V30 2690 C 268.919 0.376622 6.36286 0
M  V30 2691 C 266.606 -0.261949 6.10538 0
M  V30 2692 C 267.604 0.396748 6.81847 0
M  V30 2693 O 267.292 1.06701 7.96787 0
M  V30 2694 H 267.024 -0.241852 0.631255 0
M  V30 2695 H 269.578 -0.0921491 2.05193 0
M  V30 2696 H 267.808 -2.47601 2.97036 0
M  V30 2697 H 269.497 -2.29483 3.34802 0
M  V30 2698 H 270.263 -0.309599 4.84011 0
M  V30 2699 H 266.142 -1.44524 4.3776 0
M  V30 2700 H 269.686 0.891334 6.91882 0
M  V30 2701 H 265.583 -0.250896 6.45012 0
M  V30 2702 H 266.351 0.972707 8.127 0
M  V30 2703 N 269.014 -1.53014 -0.377408 0
M  V30 2704 C 269.946 -1.74884 -1.48149 0
M  V30 2705 C 270.959 -0.629433 -1.5014 0
M  V30 2706 O 272.148 -0.905416 -1.53833 0
M  V30 2707 C 269.248 -1.80299 -2.86959 0
M  V30 2708 C 268.421 -3.09776 -3.08801 0
M  V30 2709 C 267.48 -3.06586 -4.27658 0
M  V30 2710 O 266.506 -3.80419 -4.23403 0
M  V30 2711 N 267.708 -2.26578 -5.34455 0
M  V30 2712 H 270.473 -2.70147 -1.29771 0
M  V30 2713 H 268.034 -1.51646 -0.56703 0
M  V30 2714 H 270.026 -1.75657 -3.64591 0
M  V30 2715 H 268.596 -0.92372 -2.98641 0
M  V30 2716 H 267.816 -3.27815 -2.18931 0
M  V30 2717 H 269.104 -3.95366 -3.20255 0
M  V30 2718 H 268.502 -1.66081 -5.40771 0
M  V30 2719 H 267.059 -2.27766 -6.10709 0
M  V30 2720 N 270.492 0.636531 -1.44174 0
M  V30 2721 C 271.903 1.21806 -1.41493 0
M  V30 2722 C 272.254 1.95785 -0.1275 0
M  V30 2723 O 271.379 2.02147 0.772376 0
M  V30 2724 C 271.974 2.21551 -2.56321 0
M  V30 2725 C 270.533 2.75143 -2.56853 0
M  V30 2726 C 269.68 1.50052 -2.33195 0
M  V30 2727 H 272.631 0.427531 -1.52833 0
M  V30 2728 H 272.652 3.0405 -2.28765 0
M  V30 2729 H 272.164 1.67679 -3.50008 0
M  V30 2730 H 270.265 3.33033 -1.67093 0
M  V30 2731 H 270.378 3.2155 -3.55165 0
M  V30 2732 H 268.742 1.77993 -1.82183 0
M  V30 2733 H 269.525 0.980903 -3.28988 0
M  V30 2734 N 271.97 1.30982 0.876444 0
M  V30 2735 C 273.216 1.21484 1.63136 0
M  V30 2736 C 273.571 -0.226339 1.91064 0
M  V30 2737 O 272.864 -1.15788 1.52656 0
M  V30 2738 C 273.058 1.98572 2.9716 0
M  V30 2739 C 272.887 3.50039 2.82317 0
M  V30 2740 C 271.657 4.19393 2.81847 0
M  V30 2741 C 273.855 4.45111 2.57644 0
M  V30 2742 N 271.837 5.57061 2.57985 0
M  V30 2743 C 273.208 5.70402 2.42986 0
M  V30 2744 C 275.263 4.3461 2.42937 0
M  V30 2745 C 273.966 6.8638 2.15115 0
M  V30 2746 C 275.992 5.50365 2.16454 0
M  V30 2747 C 275.354 6.74642 2.02578 0
M  V30 2748 H 271.453 0.499632 0.601575 0
M  V30 2749 H 274.037 1.65094 1.03209 0
M  V30 2750 H 272.208 1.5734 3.55104 0
M  V30 2751 H 273.94 1.81146 3.61895 0
M  V30 2752 H 270.695 3.71303 2.93991 0
M  V30 2753 H 271.119 6.29529 2.49043 0
M  V30 2754 H 275.761 3.39199 2.52396 0
M  V30 2755 H 273.479 7.81824 2.04394 0
M  V30 2756 H 277.065 5.44154 2.05884 0
M  V30 2757 H 275.945 7.62699 1.82374 0
M  V30 2758 N 273.449 -1.08991 1.13837 0
M  V30 2759 C 274.381 -2.15606 0.777612 0
M  V30 2760 C 275.394 -1.61533 -0.202739 0
M  V30 2761 O 276.583 -1.78491 0.0181055 0
M  V30 2762 C 273.683 -3.3864 0.132623 0
M  V30 2763 C 272.856 -4.22115 1.1462 0
M  V30 2764 C 271.915 -5.23564 0.526074 0
M  V30 2765 O 270.941 -5.56678 1.18735 0
M  V30 2766 N 272.143 -5.76266 -0.699866 0
M  V30 2767 H 274.908 -2.47159 1.69506 0
M  V30 2768 H 272.469 -1.24747 1.03198 0
M  V30 2769 H 274.461 -4.03626 -0.29459 0
M  V30 2770 H 273.031 -3.04938 -0.687849 0
M  V30 2771 H 272.251 -3.53199 1.75055 0
M  V30 2772 H 273.539 -4.74709 1.83109 0
M  V30 2773 H 272.937 -5.51585 -1.25581 0
M  V30 2774 H 271.494 -6.42963 -1.06968 0
M  V30 2775 N 274.927 -0.932562 -1.27047 0
M  V30 2776 C 276.174 -0.575559 -1.94148 0
M  V30 2777 C 276.502 0.883984 -1.73251 0
M  V30 2778 O 275.757 1.64655 -1.0577 0
M  V30 2779 C 276.056 -0.853713 -3.47054 0
M  V30 2780 C 275.722 -2.29577 -3.88079 0
M  V30 2781 C 274.384 -2.68999 -3.9899 0
M  V30 2782 C 276.736 -3.23331 -4.08787 0
M  V30 2783 C 274.064 -4.01289 -4.28 0
M  V30 2784 C 276.416 -4.55207 -4.39282 0
M  V30 2785 C 275.08 -4.94457 -4.48407 0
M  V30 2786 H 274.35 -0.210612 -0.710439 0
M  V30 2787 H 276.997 -1.17744 -1.51025 0
M  V30 2788 H 275.302 -0.169204 -3.91434 0
M  V30 2789 H 276.999 -0.55639 -3.97121 0
M  V30 2790 H 273.589 -1.97994 -3.80127 0
M  V30 2791 H 277.773 -2.94074 -3.99793 0
M  V30 2792 H 273.029 -4.31374 -4.33275 0
M  V30 2793 H 277.203 -5.27852 -4.54252 0
M  V30 2794 H 274.83 -5.96994 -4.7064 0
M  V30 2795 N 276.405 1.4127 -0.698611 0
M  V30 2796 C 277.652 2.0118 -0.230865 0
M  V30 2797 C 277.98 1.55338 1.17049 0
M  V30 2798 O 277.235 0.756775 1.80475 0
M  V30 2799 C 277.534 3.56592 -0.240192 0
M  V30 2800 C 277.2 4.21955 -1.58948 0
M  V30 2801 C 275.862 4.39524 -1.95887 0
M  V30 2802 C 278.214 4.58576 -2.47704 0
M  V30 2803 C 275.542 4.90992 -3.2116 0
M  V30 2804 C 277.894 5.11435 -3.72313 0
M  V30 2805 C 276.558 5.27215 -4.0939 0
M  V30 2806 H 275.828 0.736169 -0.0844796 0
M  V30 2807 H 278.475 1.69124 -0.8983 0
M  V30 2808 H 276.78 3.88456 0.510797 0
M  V30 2809 H 278.477 4.00758 0.139296 0
M  V30 2810 H 275.067 4.08657 -1.29219 0
M  V30 2811 H 279.251 4.44654 -2.20445 0
M  V30 2812 H 274.507 5.01393 -3.49878 0
M  V30 2813 H 278.681 5.38752 -4.4127 0
M  V30 2814 H 276.308 5.66859 -5.06533 0
M  V30 2815 N 277.883 0.443576 1.51229 0
M  V30 2816 C 278.846 -0.353132 2.26463 0
M  V30 2817 C 279.846 -0.944338 1.3015 0
M  V30 2818 O 281.036 -0.817813 1.5381 0
M  V30 2819 C 278.168 -1.50023 3.06114 0
M  V30 2820 H 279.361 0.3063 2.98332 0
M  V30 2821 H 276.914 0.196902 1.55055 0
M  V30 2822 H 277.649 -2.19553 2.38677 0
M  V30 2823 H 277.434 -1.08241 3.76864 0
M  V30 2824 H 278.924 -2.06296 3.63087 0
M  V30 2825 N 279.361 -1.56624 0.175154 0
M  V30 2826 C 280.586 -2.01813 -0.478137 0
M  V30 2827 C 281.011 -1.05457 -1.55757 0
M  V30 2828 O 280.369 -0.0347439 -1.81267 0
M  V30 2829 C 280.417 -3.45581 -1.02987 0
M  V30 2830 O 279.521 -3.52305 -2.14371 0
M  V30 2831 H 278.862 -0.65413 -0.114059 0
M  V30 2832 H 281.392 -2.02673 0.280173 0
M  V30 2833 H 281.402 -3.84965 -1.35151 0
M  V30 2834 H 280.077 -4.1521 -0.239556 0
M  V30 2835 H 278.654 -3.24783 -1.83222 0
M  V30 2836 N 280.839 0.0985539 -1.57292 0
M  V30 2837 C 282.064 0.820196 -1.90493 0
M  V30 2838 C 282.489 1.71658 -0.769094 0
M  V30 2839 O 281.847 1.79133 0.279495 0
M  V30 2840 C 281.895 1.61242 -3.22542 0
M  V30 2841 O 280.999 2.72108 -3.09888 0
M  V30 2842 H 280.34 0.225547 -0.62452 0
M  V30 2843 H 282.87 0.0748159 -2.04463 0
M  V30 2844 H 282.88 1.99737 -3.55766 0
M  V30 2845 H 281.555 0.954535 -4.04798 0
M  V30 2846 H 280.132 2.36667 -2.88172 0
M  V30 2847 N 282.317 1.53212 0.369288 0
M  V30 2848 C 283.264 1.79388 1.45219 0
M  V30 2849 C 284.234 0.638059 1.53356 0
M  V30 2850 O 285.419 0.879852 1.69302 0
M  V30 2851 C 282.559 1.98623 2.82211 0
M  V30 2852 C 281.672 3.26337 2.8307 0
M  V30 2853 C 280.807 3.35779 4.11614 0
M  V30 2854 C 279.846 4.5754 4.06601 0
M  V30 2855 N 278.983 4.64155 5.26787 0
M  V30 2856 H 283.823 2.71794 1.22198 0
M  V30 2857 H 281.36 1.34642 0.592444 0
M  V30 2858 H 283.318 2.07761 3.61789 0
M  V30 2859 H 281.948 1.09558 3.03639 0
M  V30 2860 H 281 3.26171 1.95747 0
M  V30 2861 H 282.312 4.15988 2.75237 0
M  V30 2862 H 281.466 3.44208 4.99606 0
M  V30 2863 H 280.205 2.44137 4.22195 0
M  V30 2864 H 279.21 4.49215 3.16996 0
M  V30 2865 H 280.435 5.50519 3.97625 0
M  V30 2866 H 278.381 3.75413 5.3796 0
M  V30 2867 H 278.298 5.47706 5.21109 0
M  V30 2868 H 279.566 4.76863 6.16621 0
M  V30 2869 N 283.795 -0.628877 1.44509 0
M  V30 2870 C 285.211 -0.947305 1.28446 0
M  V30 2871 C 285.411 -2.00275 0.221872 0
M  V30 2872 O 284.467 -2.49447 -0.391471 0
M  V30 2873 C 285.78 -1.40843 2.65676 0
M  V30 2874 C 287.328 -1.52379 2.73404 0
M  V30 2875 C 287.803 -2.01875 4.11109 0
M  V30 2876 N 289.294 -2.09142 4.13296 0
M  V30 2877 C 290.029 -2.48615 5.16699 0
M  V30 2878 N 289.525 -2.87209 6.30462 0
M  V30 2879 N 291.318 -2.48768 5.04054 0
M  V30 2880 H 283.469 0.0690977 2.12288 0
M  V30 2881 H 285.732 -0.0317164 0.947469 0
M  V30 2882 H 285.438 -0.707206 3.44516 0
M  V30 2883 H 285.312 -2.37902 2.92716 0
M  V30 2884 H 287.699 -2.21598 1.9488 0
M  V30 2885 H 287.78 -0.536898 2.50102 0
M  V30 2886 H 287.424 -1.3325 4.90109 0
M  V30 2887 H 287.354 -3.0144 4.31789 0
M  V30 2888 H 289.845 -1.81991 3.31191 0
M  V30 2889 H 290.158 -3.16149 7.05174 0
M  V30 2890 H 288.503 -2.84955 6.33897 0
M  V30 2891 H 291.694 -2.18009 4.14234 0
M  V30 2892 H 291.867 -2.79207 5.84763 0
M  V30 2893 N 285.273 -1.31445 -0.869486 0
M  V30 2894 C 286.55 -1.11795 -1.60503 0
M  V30 2895 C 286.93 0.327168 -2.08549 0
M  V30 2896 O 286.278 1.32135 -1.8642 0
M  V30 2897 C 286.488 -2.13258 -2.76265 0
M  V30 2898 C 287.836 -2.45805 -3.46215 0
M  V30 2899 O 288.86 -2.11688 -2.86473 0
M  V30 2900 O 287.719 -3.04228 -4.5399 0
M  V30 2901 H 284.813 -0.430421 -0.706163 0
M  V30 2902 H 287.359 -1.42925 -0.914907 0
M  V30 2903 H 286.131 -3.10461 -2.3818 0
M  V30 2904 H 285.754 -1.83035 -3.52964 0
M  V30 2905 N 286.751 1.08385 -1.14413 0
M  V30 2906 C 287.991 1.8238 -0.922868 0
M  V30 2907 C 288.355 1.84225 0.540842 0
M  V30 2908 O 289.556 2.53985 0.880058 0
M  V30 2909 C 287.827 3.24048 -1.50757 0
M  V30 2910 S 289.386 4.14917 -1.4279 0
M  V30 2911 H 286.204 0.628524 -0.332384 0
M  V30 2912 H 288.806 1.30278 -1.45766 0
M  V30 2913 H 287.51 3.20288 -2.56601 0
M  V30 2914 H 287.041 3.81224 -0.971178 0
M  V30 2915 H 289.056 4.94473 -0.413582 0
M  V30 2916 N 288.23 0.939286 1.26551 0
M  V30 2917 C 289.16 0.465044 2.28822 0
M  V30 2918 C 290.141 -0.480692 1.63167 0
M  V30 2919 O 291.326 -0.382955 1.90387 0
M  V30 2920 C 288.456 -0.27234 3.46231 0
M  V30 2921 C 287.41 0.58666 4.2396 0
M  V30 2922 C 286.736 -0.280573 5.33963 0
M  V30 2923 C 288.036 1.85704 4.88171 0
M  V30 2924 H 289.73 1.31979 2.68741 0
M  V30 2925 H 287.276 0.636061 1.29191 0
M  V30 2926 H 289.229 -0.615133 4.16886 0
M  V30 2927 H 287.953 -1.16121 3.0526 0
M  V30 2928 H 286.612 0.91232 3.55067 0
M  V30 2929 H 286.26 -1.16874 4.89234 0
M  V30 2930 H 285.96 0.29076 5.8688 0
M  V30 2931 H 287.484 -0.618678 6.07458 0
M  V30 2932 H 288.898 1.58161 5.51052 0
M  V30 2933 H 287.295 2.37279 5.51197 0
M  V30 2934 H 288.365 2.56957 4.11219 0
M  V30 2935 N 289.708 -1.40897 0.706093 0
M  V30 2936 C 290.618 -2.3455 0.0482286 0
M  V30 2937 C 291.634 -1.56796 -0.754396 0
M  V30 2938 O 292.81 -1.89228 -0.689538 0
M  V30 2939 C 289.875 -3.35625 -0.869303 0
M  V30 2940 C 288.936 -4.29261 -0.0576994 0
M  V30 2941 C 288.169 -5.25508 -0.931531 0
M  V30 2942 O 288.392 -5.27472 -2.17092 0
M  V30 2943 O 287.326 -6.00727 -0.375587 0
M  V30 2944 H 291.152 -2.92407 0.820476 0
M  V30 2945 H 288.737 -1.4193 0.4665 0
M  V30 2946 H 290.619 -3.97635 -1.39514 0
M  V30 2947 H 289.294 -2.80196 -1.62086 0
M  V30 2948 H 288.201 -3.70566 0.512988 0
M  V30 2949 H 289.534 -4.87817 0.655426 0
M  V30 2950 N 291.186 -0.45159 -1.50991 0
M  V30 2951 C 292.602 -0.104647 -1.59257 0
M  V30 2952 C 292.802 1.38728 -1.4614 0
M  V30 2953 O 291.858 2.15866 -1.30989 0
M  V30 2954 C 293.171 -0.637468 -2.93865 0
M  V30 2955 C 294.719 -0.599166 -3.07212 0
M  V30 2956 C 295.194 -1.1092 -4.44366 0
M  V30 2957 N 296.685 -1.06778 -4.50725 0
M  V30 2958 C 297.42 -1.43314 -5.55201 0
M  V30 2959 N 296.916 -1.87204 -6.67028 0
M  V30 2960 N 298.709 -1.3504 -5.45638 0
M  V30 2961 H 290.86 -1.42214 -1.57762 0
M  V30 2962 H 293.123 -0.586921 -0.744465 0
M  V30 2963 H 292.829 -1.68187 -3.08879 0
M  V30 2964 H 292.703 -0.0702139 -3.77135 0
M  V30 2965 H 295.09 0.436277 -2.91857 0
M  V30 2966 H 295.171 -1.20299 -2.25747 0
M  V30 2967 H 294.815 -2.14318 -4.60467 0
M  V30 2968 H 294.745 -0.481773 -5.24392 0
M  V30 2969 H 297.236 -0.745643 -3.70471 0
M  V30 2970 H 297.549 -2.13282 -7.42786 0
M  V30 2971 H 295.894 -1.91142 -6.68199 0
M  V30 2972 H 299.085 -1.00607 -4.57161 0
M  V30 2973 H 299.258 -1.63841 -6.26945 0
M  V30 2974 N 292.664 1.56529 -0.183458 0
M  V30 2975 C 293.911 1.97244 0.458357 0
M  V30 2976 C 294.239 1.06992 1.62428 0
M  V30 2977 O 293.494 0.106542 1.9541 0
M  V30 2978 C 293.793 3.43939 0.971637 0
M  V30 2979 C 293.459 4.5083 -0.0796784 0
M  V30 2980 C 292.121 4.79786 -0.368584 0
M  V30 2981 C 294.473 5.15138 -0.792638 0
M  V30 2982 C 291.801 5.70345 -1.37563 0
M  V30 2983 C 294.153 6.06784 -1.78875 0
M  V30 2984 C 292.817 6.34102 -2.08497 0
M  V30 2985 H 292.087 0.721768 0.167725 0
M  V30 2986 H 294.734 1.89472 -0.277976 0
M  V30 2987 H 293.039 3.48724 1.78602 0
M  V30 2988 H 294.736 3.72791 1.47744 0
M  V30 2989 H 291.326 4.28317 0.155668 0
M  V30 2990 H 295.51 4.92868 -0.582659 0
M  V30 2991 H 290.766 5.89789 -1.61118 0
M  V30 2992 H 294.94 6.55677 -2.3465 0
M  V30 2993 H 292.567 7.04074 -2.86678 0
M  V30 2994 N 294.142 -0.090211 1.57342 0
M  V30 2995 C 295.39 -0.791241 1.85967 0
M  V30 2996 C 295.711 -1.7903 0.772859 0
M  V30 2997 O 294.981 -1.94872 -0.200398 0
M  V30 2998 H 293.561 -0.295205 0.686195 0
M  V30 2999 H 296.223 -0.0706782 1.94772 0
M  V30 3000 H 295.319 -1.31882 2.82867 0
M  V30 3001 N 295.62 -1.53406 -0.361157 0
M  V30 3002 C 297.031 -1.61442 -0.937728 0
M  V30 3003 C 297.382 -0.48461 -1.90121 0
M  V30 3004 O 296.507 0.388312 -2.12888 0
M  V30 3005 C 297.102 -2.92624 -1.70753 0
M  V30 3006 C 295.661 -3.02981 -2.23337 0
M  V30 3007 C 294.808 -2.5677 -1.04712 0
M  V30 3008 H 297.759 -1.58083 -0.139816 0
M  V30 3009 H 297.78 -2.80675 -2.56908 0
M  V30 3010 H 297.292 -3.74834 -1.00604 0
M  V30 3011 H 295.393 -2.25368 -2.96715 0
M  V30 3012 H 295.506 -4.0814 -2.50916 0
M  V30 3013 H 293.87 -2.11752 -1.41539 0
M  V30 3014 H 294.653 -3.41402 -0.360539 0
M  V30 3015 N 297.098 0.621204 -1.44841 0
M  V30 3016 C 298.03 1.74615 -1.48466 0
M  V30 3017 C 299.043 1.58377 -0.37691 0
M  V30 3018 O 300.232 1.66508 -0.643215 0
M  V30 3019 C 297.332 3.12459 -1.31236 0
M  V30 3020 C 296.505 3.55064 -2.55438 0
M  V30 3021 C 295.564 4.71821 -2.32963 0
M  V30 3022 O 294.59 4.79628 -3.06505 0
M  V30 3023 N 295.792 5.64186 -1.36654 0
M  V30 3024 H 298.557 1.71973 -2.45449 0
M  V30 3025 H 296.118 0.806077 -1.40407 0
M  V30 3026 H 298.11 3.88302 -1.14032 0
M  V30 3027 H 296.68 3.09686 -0.4258 0
M  V30 3028 H 295.9 2.69324 -2.87851 0
M  V30 3029 H 297.188 3.80284 -3.38026 0
M  V30 3030 H 296.586 5.6058 -0.759344 0
M  V30 3031 H 295.143 6.39618 -1.25425 0
M  V30 3032 N 298.576 1.31904 0.862503 0
M  V30 3033 C 299.804 1.24998 1.64873 0
M  V30 3034 C 300.219 -0.183425 1.87907 0
M  V30 3035 O 299.576 -1.11794 1.44251 0
M  V30 3036 C 299.627 1.99829 3.01248 0
M  V30 3037 O 299.348 3.37575 2.79239 0
M  V30 3038 C 300.849 1.99852 3.95694 0
M  V30 3039 H 298.069 0.431599 0.513773 0
M  V30 3040 H 300.613 1.73901 1.07604 0
M  V30 3041 H 298.768 1.54668 3.55185 0
M  V30 3042 H 299.182 3.75776 3.65914 0
M  V30 3043 H 300.656 2.56709 4.88676 0
M  V30 3044 H 301.133 0.982852 4.28062 0
M  V30 3045 H 301.739 2.44926 3.47694 0
M  V30 3046 N 300.054 -1.07777 1.14986 0
M  V30 3047 C 300.984 -2.16865 0.865557 0
M  V30 3048 C 301.965 -1.69123 -0.182083 0
M  V30 3049 O 303.15 -1.94164 -0.0373815 0
M  V30 3050 C 300.28 -3.45539 0.349313 0
M  V30 3051 C 299.234 -4.06708 1.33313 0
M  V30 3052 C 298.56 -5.30411 0.675918 0
M  V30 3053 C 299.86 -4.47241 2.69764 0
M  V30 3054 H 301.554 -2.40905 1.77778 0
M  V30 3055 H 299.1 -1.15781 0.856203 0
M  V30 3056 H 301.053 -4.21174 0.137983 0
M  V30 3057 H 299.777 -3.21072 -0.598362 0
M  V30 3058 H 298.436 -3.33112 1.53075 0
M  V30 3059 H 298.084 -5.02232 -0.277767 0
M  V30 3060 H 297.784 -5.72293 1.33244 0
M  V30 3061 H 299.308 -6.08755 0.474262 0
M  V30 3062 H 300.722 -5.14025 2.53873 0
M  V30 3063 H 299.119 -5.00062 3.3175 0
M  V30 3064 H 300.189 -3.58818 3.26156 0
M  V30 3065 N 301.532 -0.945985 -1.26051 0
M  V30 3066 C 302.442 -0.465633 -2.29933 0
M  V30 3067 C 303.458 0.462761 -1.67733 0
M  V30 3068 O 304.634 0.341118 -1.9849 0
M  V30 3069 C 301.699 0.256994 -3.45746 0
M  V30 3070 C 300.76 -0.708549 -4.23412 0
M  V30 3071 C 299.993 -0.0203135 -5.33696 0
M  V30 3072 O 300.216 1.19571 -5.57726 0
M  V30 3073 O 299.15 -0.701459 -5.97799 0
M  V30 3074 H 302.976 -1.32866 -2.73094 0
M  V30 3075 H 300.561 -0.712071 -1.31339 0
M  V30 3076 H 302.443 0.663852 -4.16138 0
M  V30 3077 H 301.118 1.09533 -3.04605 0
M  V30 3078 H 300.025 -1.16545 -3.55483 0
M  V30 3079 H 301.358 -1.51465 -4.68315 0
M  V30 3080 N 303.011 1.40521 -0.713556 0
M  V30 3081 C 304.427 1.54839 -0.386907 0
M  V30 3082 C 304.627 1.68532 1.1045 0
M  V30 3083 O 303.683 1.67377 1.89053 0
M  V30 3084 C 304.996 2.77792 -1.15118 0
M  V30 3085 C 306.544 2.91607 -1.13729 0
M  V30 3086 C 307.019 4.1747 -1.88368 0
M  V30 3087 N 308.51 4.24466 -1.85427 0
M  V30 3088 C 309.245 5.20755 -2.40004 0
M  V30 3089 N 308.741 6.22965 -3.03129 0
M  V30 3090 N 310.534 5.1282 -2.30158 0
M  V30 3091 H 302.685 1.29879 -1.68063 0
M  V30 3092 H 304.948 0.627896 -0.710247 0
M  V30 3093 H 304.654 2.73944 -2.20561 0
M  V30 3094 H 304.528 3.6984 -0.741477 0
M  V30 3095 H 306.915 2.94959 -0.0910608 0
M  V30 3096 H 306.996 2.00682 -1.5862 0
M  V30 3097 H 306.64 4.1488 -2.9298 0
M  V30 3098 H 306.57 5.074 -1.40898 0
M  V30 3099 H 309.061 3.51241 -1.3942 0
M  V30 3100 H 309.374 6.92859 -3.42295 0
M  V30 3101 H 307.719 6.23415 -3.07212 0
M  V30 3102 H 310.91 4.31899 -1.80501 0
M  V30 3103 H 311.083 5.87689 -2.72993 0
M  V30 3104 N 304.489 0.459591 1.5075 0
M  V30 3105 C 305.738 -0.100971 2.01447 0
M  V30 3106 C 306.051 -1.41816 1.34713 0
M  V30 3107 O 307.257 -2.06299 1.76502 0
M  V30 3108 C 305.713 -0.23047 3.59161 0
M  V30 3109 C 305.321 1.0776 4.34847 0
M  V30 3110 C 307.065 -0.743608 4.17936 0
M  V30 3111 C 304.972 0.91253 5.84317 0
M  V30 3112 H 303.902 -0.0415102 0.752856 0
M  V30 3113 H 306.553 0.592742 1.73663 0
M  V30 3114 H 304.935 -0.987703 3.83485 0
M  V30 3115 H 306.109 1.8449 4.22256 0
M  V30 3116 H 304.424 1.52097 3.87628 0
M  V30 3117 H 307.021 -0.883959 5.27343 0
M  V30 3118 H 307.364 -1.73196 3.78562 0
M  V30 3119 H 307.897 -0.04408 3.97776 0
M  V30 3120 H 304.636 1.87391 6.28144 0
M  V30 3121 H 304.156 0.185422 5.99513 0
M  V30 3122 H 305.835 0.574547 6.44444 0
M  V30 3123 N 305.967 -1.56429 0.191757 0
M  V30 3124 C 307.195 -2.01867 -0.453586 0
M  V30 3125 C 307.61 -1.07191 -1.5542 0
M  V30 3126 O 306.967 -0.0762108 -1.82341 0
M  V30 3127 C 307.018 -3.47017 -1.013 0
M  V30 3128 O 306.739 -4.38078 0.0437005 0
M  V30 3129 C 308.24 -4.07956 -1.73456 0
M  V30 3130 H 305.46 -0.661211 -0.114199 0
M  V30 3131 H 308.004 -2.02295 0.299483 0
M  V30 3132 H 306.159 -3.47298 -1.71647 0
M  V30 3133 H 306.573 -5.23178 -0.372212 0
M  V30 3134 H 308.047 -5.1138 -2.07833 0
M  V30 3135 H 308.524 -3.51222 -2.63704 0
M  V30 3136 H 309.13 -4.11437 -1.07702 0
M  V30 3137 N 307.445 0.0818655 -1.57387 0
M  V30 3138 C 308.861 0.436412 -1.53517 0
M  V30 3139 C 309.061 1.79758 -0.910459 0
M  V30 3140 O 308.117 2.47324 -0.508636 0
M  V30 3141 C 309.43 0.386734 -2.98203 0
M  V30 3142 C 310.978 0.467644 -3.09487 0
M  V30 3143 C 311.453 0.447978 -4.55804 0
M  V30 3144 N 312.944 0.508348 -4.60402 0
M  V30 3145 C 313.679 0.515184 -5.71081 0
M  V30 3146 N 313.175 0.477435 -6.91153 0
M  V30 3147 N 314.968 0.560988 -5.59294 0
M  V30 3148 H 307.119 -0.809546 -1.96367 0
M  V30 3149 H 309.382 -0.302733 -0.898363 0
M  V30 3150 H 309.088 -0.546539 -3.47427 0
M  V30 3151 H 308.962 1.20075 -3.57578 0
M  V30 3152 H 311.349 1.39134 -2.60242 0
M  V30 3153 H 311.43 -0.374753 -2.5304 0
M  V30 3154 H 311.074 -0.471826 -5.05704 0
M  V30 3155 H 311.004 1.30777 -5.10103 0
M  V30 3156 H 313.495 0.54218 -3.7399 0
M  V30 3157 H 313.808 0.486299 -7.71268 0
M  V30 3158 H 312.153 0.444278 -6.93579 0
M  V30 3159 H 315.344 0.5881 -4.64391 0
M  V30 3160 H 315.517 0.562846 -6.45551 0
M  V30 3161 N 308.923 1.53595 0.353017 0
M  V30 3162 C 310.2 1.61002 1.11075 0
M  V30 3163 C 310.58 0.425356 2.0677 0
M  V30 3164 O 309.928 -0.583267 2.2093 0
M  V30 3165 C 310.138 2.96631 1.83877 0
M  V30 3166 C 311.486 3.51653 2.37961 0
M  V30 3167 O 312.51 2.98743 1.93987 0
M  V30 3168 O 311.369 4.44177 3.18386 0
M  V30 3169 H 308.463 0.650825 0.510251 0
M  V30 3170 H 311.009 1.6594 0.35527 0
M  V30 3171 H 309.781 3.74293 1.14108 0
M  V30 3172 H 309.404 2.95242 2.66304 0
M  V30 3173 N 310.401 -0.613514 1.45168 0
M  V30 3174 C 311.678 -1.37263 1.39349 0
M  V30 3175 C 312.058 -2.11012 0.0610848 0
M  V30 3176 O 311.406 -2.07502 -0.956825 0
M  V30 3177 C 311.616 -2.3244 2.60332 0
M  V30 3178 C 312.964 -2.9523 3.05163 0
M  V30 3179 O 313.988 -2.42762 2.60663 0
M  V30 3180 O 312.847 -3.90454 3.82372 0
M  V30 3181 H 309.941 -0.615188 0.552696 0
M  V30 3182 H 312.487 -0.637097 1.57287 0
M  V30 3183 H 311.259 -1.77164 3.48896 0
M  V30 3184 H 310.882 -3.13383 2.44698 0
M  V30 3185 N 311.879 -1.3236 -0.855495 0
M  V30 3186 C 312.842 -1.21164 -1.94556 0
M  V30 3187 C 313.842 -0.134908 -1.60233 0
M  V30 3188 O 315.032 -0.385249 -1.69887 0
M  V30 3189 C 312.164 -0.863192 -3.29791 0
M  V30 3190 H 313.357 -2.18038 -2.05911 0
M  V30 3191 H 310.91 -1.16179 -1.04557 0
M  V30 3192 H 311.645 0.103769 -3.24134 0
M  V30 3193 H 311.43 -1.64166 -3.56078 0
M  V30 3194 H 312.92 -0.809156 -4.09686 0
M  V30 3195 N 313.357 1.07166 -1.15556 0
M  V30 3196 C 314.32 2.12589 -0.856644 0
M  V30 3197 C 315.32 1.6015 0.14444 0
M  V30 3198 O 316.51 1.7399 -0.0854163 0
M  V30 3199 C 313.642 3.39753 -0.279405 0
M  V30 3200 H 314.835 2.40539 -1.79112 0
M  V30 3201 H 312.388 1.23086 -0.963298 0
M  V30 3202 H 313.123 3.17447 0.663174 0
M  V30 3203 H 312.908 3.79117 -1.00063 0
M  V30 3204 H 314.398 4.17507 -0.0879113 0
M  V30 3205 N 314.835 0.952656 1.25548 0
M  V30 3206 C 316.084 0.602053 1.92505 0
M  V30 3207 C 316.397 -0.864663 1.75451 0
M  V30 3208 O 317.603 -1.32514 2.36965 0
M  V30 3209 C 316.059 1.02607 3.44963 0
M  V30 3210 C 315.667 2.51519 3.70732 0
M  V30 3211 C 317.411 0.747905 4.1786 0
M  V30 3212 C 315.318 2.87732 5.16686 0
M  V30 3213 H 314.248 0.22146 0.720744 0
M  V30 3214 H 316.899 1.15684 1.42441 0
M  V30 3215 H 315.281 0.399712 3.93978 0
M  V30 3216 H 316.455 3.19157 3.32378 0
M  V30 3217 H 314.77 2.76786 3.11092 0
M  V30 3218 H 317.367 0.994647 5.25367 0
M  V30 3219 H 317.71 -0.315629 4.15102 0
M  V30 3220 H 318.243 1.33452 3.74747 0
M  V30 3221 H 314.982 3.93095 5.24554 0
M  V30 3222 H 314.502 2.24765 5.56094 0
M  V30 3223 H 316.181 2.76817 5.84792 0
M  V30 3224 N 316.313 -1.40141 0.720998 0
M  V30 3225 C 317.553 -2.02644 0.267335 0
M  V30 3226 C 317.917 -1.55948 -1.12001 0
M  V30 3227 O 319.118 -2.10552 -1.67097 0
M  V30 3228 C 317.389 -3.55679 0.350281 0
M  V30 3229 S 318.948 -4.38793 -0.0256004 0
M  V30 3230 H 315.766 -0.703105 0.105664 0
M  V30 3231 H 318.368 -1.71175 0.944416 0
M  V30 3232 H 317.072 -3.87157 1.36153 0
M  V30 3233 H 316.603 -3.91883 -0.345096 0
M  V30 3234 H 318.618 -4.803 -1.24604 0
M  V30 3235 N 317.792 -0.46758 -1.50504 0
M  V30 3236 C 319.02 0.0864133 -2.06719 0
M  V30 3237 C 319.435 1.33819 -1.33184 0
M  V30 3238 O 318.792 1.78061 -0.400083 0
M  V30 3239 C 318.843 0.378079 -3.59517 0
M  V30 3240 O 318.564 -0.824044 -4.3028 0
M  V30 3241 C 320.065 0.979426 -4.32345 0
M  V30 3242 H 317.285 -0.00551697 -0.670977 0
M  V30 3243 H 319.829 -0.655354 -1.93715 0
M  V30 3244 H 317.984 1.06977 -3.72337 0
M  V30 3245 H 318.398 -0.566518 -5.21432 0
M  V30 3246 H 319.872 1.1333 -5.40241 0
M  V30 3247 H 320.349 1.9686 -3.9261 0
M  V30 3248 H 320.955 0.326216 -4.24047 0
M  V30 3249 N 319.27 1.56325 -0.20005 0
M  V30 3250 C 320.498 2.02105 0.442874 0
M  V30 3251 C 320.913 1.08014 1.5485 0
M  V30 3252 O 320.27 0.0858797 1.82298 0
M  V30 3253 C 320.321 3.47549 0.994583 0
M  V30 3254 O 320.042 4.38049 -0.0669322 0
M  V30 3255 C 321.543 4.0887 1.7129 0
M  V30 3256 H 318.763 0.661807 0.110691 0
M  V30 3257 H 321.307 2.02134 -0.310207 0
M  V30 3258 H 319.462 3.48204 1.69803 0
M  V30 3259 H 319.876 5.23368 0.344462 0
M  V30 3260 H 321.35 5.12475 2.05118 0
M  V30 3261 H 321.827 3.52615 2.61838 0
M  V30 3262 H 322.433 4.12002 1.05518 0
M  V30 3263 N 320.748 -0.0735177 1.57428 0
M  V30 3264 C 321.658 -1.10547 2.06922 0
M  V30 3265 C 322.674 -1.42506 0.998402 0
M  V30 3266 O 323.85 -1.52717 1.31299 0
M  V30 3267 C 320.915 -2.40019 2.50184 0
M  V30 3268 C 319.976 -2.15046 3.71556 0
M  V30 3269 C 319.209 -3.38345 4.12745 0
M  V30 3270 O 319.432 -4.47399 3.53822 0
M  V30 3271 O 318.366 -3.2666 5.05546 0
M  V30 3272 H 322.192 -0.715013 2.95163 0
M  V30 3273 H 319.777 -0.287531 1.46607 0
M  V30 3274 H 321.659 -3.16218 2.78539 0
M  V30 3275 H 320.334 -2.78447 1.65072 0
M  V30 3276 H 319.241 -1.36558 3.48285 0
M  V30 3277 H 320.574 -1.81499 4.57514 0
M  V30 3278 N 322.226 -1.5378 -0.344866 0
M  V30 3279 C 323.456 -1.74646 -1.10374 0
M  V30 3280 C 323.864 -0.48491 -1.8288 0
M  V30 3281 O 323.207 0.553062 -1.75177 0
M  V30 3282 C 323.269 -2.87145 -2.16306 0
M  V30 3283 C 322.933 -4.26795 -1.63386 0
M  V30 3284 C 323.93 -5.08412 -1.08688 0
M  V30 3285 C 321.615 -4.73276 -1.68272 0
M  V30 3286 C 323.609 -6.34609 -0.595792 0
M  V30 3287 C 321.296 -5.99446 -1.18776 0
M  V30 3288 C 322.294 -6.79946 -0.645215 0
M  V30 3289 O 321.982 -8.03745 -0.157626 0
M  V30 3290 H 321.714 -0.587112 -0.335075 0
M  V30 3291 H 324.268 -2.01403 -0.403252 0
M  V30 3292 H 322.498 -2.55909 -2.89909 0
M  V30 3293 H 324.187 -2.95992 -2.77747 0
M  V30 3294 H 324.953 -4.73666 -1.04236 0
M  V30 3295 H 320.832 -4.10677 -2.09442 0
M  V30 3296 H 324.376 -6.97389 -0.171654 0
M  V30 3297 H 320.273 -6.33687 -1.22928 0
M  V30 3298 H 321.041 -8.18038 -0.275037 0
M  V30 3299 N 323.704 0.605807 -1.45491 0
M  V30 3300 C 324.929 1.39625 -1.53361 0
M  V30 3301 C 325.354 1.87351 -0.167645 0
M  V30 3302 O 324.712 1.60243 0.848051 0
M  V30 3303 C 324.76 2.57559 -2.5238 0
M  V30 3304 O 323.864 3.58248 -2.04285 0
M  V30 3305 H 323.205 0.416771 -0.516912 0
M  V30 3306 H 325.735 0.737103 -1.90861 0
M  V30 3307 H 325.745 3.0478 -2.71244 0
M  V30 3308 H 324.42 2.22171 -3.51586 0
M  V30 3309 H 322.997 3.17664 -1.95305 0
M  V30 3310 N 325.182 1.32811 0.848464 0
M  V30 3311 C 326.598 1.11937 1.13764 0
M  V30 3312 C 326.798 -0.0960789 2.01271 0
M  V30 3313 O 325.854 -0.779165 2.40178 0
M  V30 3314 C 327.167 2.402 1.809 0
M  V30 3315 C 328.715 2.46016 1.93508 0
M  V30 3316 C 329.19 3.74215 2.64059 0
M  V30 3317 N 330.681 3.75232 2.71579 0
M  V30 3318 C 331.416 4.71134 3.26833 0
M  V30 3319 N 330.912 5.77406 3.8285 0
M  V30 3320 N 332.705 4.58623 3.24995 0
M  V30 3321 H 324.856 2.1073 0.265855 0
M  V30 3322 H 327.119 0.930671 0.180431 0
M  V30 3323 H 326.825 3.29093 1.24058 0
M  V30 3324 H 326.699 2.51628 2.81004 0
M  V30 3325 H 329.086 1.57577 2.49506 0
M  V30 3326 H 329.167 2.38536 0.923811 0
M  V30 3327 H 328.811 4.63031 2.08722 0
M  V30 3328 H 328.741 3.78968 3.65637 0
M  V30 3329 H 331.232 2.98423 2.31845 0
M  V30 3330 H 331.545 6.46632 4.23187 0
M  V30 3331 H 329.89 5.81152 3.81165 0
M  V30 3332 H 333.081 3.74762 2.80484 0
M  V30 3333 H 333.254 5.33535 3.67756 0
M  V30 3334 N 326.66 -1.06551 1.16123 0
M  V30 3335 C 327.909 -1.78687 0.935622 0
M  V30 3336 C 328.222 -1.88056 -0.538001 0
M  V30 3337 O 329.428 -2.56794 -0.88143 0
M  V30 3338 C 327.884 -3.21143 1.62466 0
M  V30 3339 C 327.492 -3.19949 3.13587 0
M  V30 3340 C 329.236 -3.9783 1.48092 0
M  V30 3341 C 327.143 -4.57108 3.75241 0
M  V30 3342 H 326.073 -0.669712 0.346412 0
M  V30 3343 H 328.724 -1.19534 1.39226 0
M  V30 3344 H 327.106 -3.80539 1.09572 0
M  V30 3345 H 328.28 -2.70151 3.73303 0
M  V30 3346 H 326.595 -2.5676 3.27816 0
M  V30 3347 H 329.192 -4.99217 1.91538 0
M  V30 3348 H 329.535 -4.14078 0.429507 0
M  V30 3349 H 330.068 -3.4495 1.98127 0
M  V30 3350 H 326.807 -4.46065 4.80319 0
M  V30 3351 H 326.327 -5.07111 3.20309 0
M  V30 3352 H 328.006 -5.26069 3.76644 0
M  V30 3353 N 328.138 -0.959301 -1.25041 0
M  V30 3354 C 329.384 -0.617525 -1.9317 0
M  V30 3355 C 329.717 0.843981 -1.74902 0
M  V30 3356 O 328.992 1.60615 -1.09696 0
M  V30 3357 C 329.275 -0.982736 -3.46431 0
M  V30 3358 C 329.128 -2.50032 -3.73904 0
M  V30 3359 C 330.447 -0.511176 -4.37121 0
M  V30 3360 H 327.566 -0.22582 -0.701552 0
M  V30 3361 H 330.208 -1.19679 -1.4757 0
M  V30 3362 H 328.358 -0.489806 -3.854 0
M  V30 3363 H 330.03 -3.06737 -3.44544 0
M  V30 3364 H 328.273 -2.93598 -3.19348 0
M  V30 3365 H 328.944 -2.70635 -4.81103 0
M  V30 3366 H 331.42 -0.934075 -4.0548 0
M  V30 3367 H 330.296 -0.795361 -5.43107 0
M  V30 3368 H 330.557 0.588834 -4.38161 0
M  V30 3369 N 329.616 1.39756 -0.72842 0
M  V30 3370 C 331.027 1.83498 -0.344289 0
M  V30 3371 C 331.378 1.60868 1.12321 0
M  V30 3372 O 330.503 1.09634 1.86573 0
M  V30 3373 C 331.098 3.33114 -0.618112 0
M  V30 3374 C 329.657 3.753 -0.287549 0
M  V30 3375 C 328.804 2.62831 -0.884048 0
M  V30 3376 H 331.755 1.28842 -0.926578 0
M  V30 3377 H 331.776 3.80334 0.112349 0
M  V30 3378 H 331.288 3.49553 -1.68625 0
M  V30 3379 H 329.389 3.64451 0.775012 0
M  V30 3380 H 329.502 4.72945 -0.765512 0
M  V30 3381 H 327.866 2.52792 -0.311149 0
M  V30 3382 H 328.649 2.82078 -1.95671 0
M  V30 3383 N 331.094 0.475555 1.50254 0
M  V30 3384 C 332.024 -0.30611 2.31485 0
M  V30 3385 C 333.005 -0.986228 1.38591 0
M  V30 3386 O 334.19 -0.982541 1.67511 0
M  V30 3387 C 331.32 -1.38588 3.1845 0
M  V30 3388 C 330.274 -0.827115 4.19932 0
M  V30 3389 C 329.6 -2.00551 4.95665 0
M  V30 3390 C 330.9 0.16463 5.2204 0
M  V30 3391 H 332.594 0.371866 2.97082 0
M  V30 3392 H 330.14 0.180282 1.42867 0
M  V30 3393 H 332.093 -1.94023 3.74076 0
M  V30 3394 H 330.817 -2.09269 2.50747 0
M  V30 3395 H 329.476 -0.294702 3.65414 0
M  V30 3396 H 329.124 -2.6994 4.2443 0
M  V30 3397 H 328.824 -1.63784 5.64313 0
M  V30 3398 H 330.348 -2.56468 5.54127 0
M  V30 3399 H 331.762 -0.300699 5.72511 0
M  V30 3400 H 330.159 0.446813 5.98434 0
M  V30 3401 H 331.229 1.08905 4.72512 0
M  V30 3402 N 332.573 -1.56217 0.208337 0
M  V30 3403 C 333.483 -2.23316 -0.718836 0
M  V30 3404 C 334.499 -1.23648 -1.22422 0
M  V30 3405 O 335.675 -1.56423 -1.26861 0
M  V30 3406 C 332.74 -2.88968 -1.91568 0
M  V30 3407 C 331.801 -4.03943 -1.45357 0
M  V30 3408 C 331.034 -4.66455 -2.59337 0
M  V30 3409 O 331.257 -4.27919 -3.77149 0
M  V30 3410 O 330.191 -5.55686 -2.31293 0
M  V30 3411 H 334.017 -3.03182 -0.177315 0
M  V30 3412 H 331.602 -1.49384 -0.0215402 0
M  V30 3413 H 333.484 -3.30455 -2.61491 0
M  V30 3414 H 332.159 -2.12071 -2.44556 0
M  V30 3415 H 331.066 -3.67052 -0.722746 0
M  V30 3416 H 332.399 -4.82543 -0.970219 0
M  V30 3417 N 334.051 0.0651679 -1.57465 0
M  V30 3418 C 334.999 1.09542 -2.05191 0
M  V30 3419 C 335.993 1.39675 -0.958509 0
M  V30 3420 O 337.199 1.39003 -1.14359 0
M  V30 3421 H 333.574 0.370623 -0.654326 0
M  V30 3422 H 335.545 0.666802 -2.90854 0
M  V30 3423 C 334.294 2.39881 -2.51699 0
M  V30 3424 H 333.617 2.17547 -3.3543 0
M  V30 3425 H 335.057 3.104 -2.88839 0
M  V30 3426 C 333.516 3.0631 -1.40271 0
M  V30 3427 O 334.046 3.94664 -0.748523 0
M  V30 3428 N 332.252 2.67041 -1.14618 0
M  V30 3429 H 331.799 1.95281 -1.67997 0
M  V30 3430 H 331.757 3.1181 -0.402688 0
M  V30 3431 N 335.529 1.53961 0.336706 0
M  V30 3432 C 336.777 1.71197 1.07405 0
M  V30 3433 C 337.098 0.481475 1.88962 0
M  V30 3434 O 336.368 -0.504585 1.8929 0
M  V30 3435 H 334.948 0.631185 0.399517 0
M  V30 3436 H 337.61 1.91232 0.376323 0
M  V30 3437 H 336.706 2.58587 1.74755 0
M  V30 3438 N 337.007 -0.598083 1.45811 0
M  V30 3439 C 337.917 -1.73632 1.57763 0
M  V30 3440 C 338.933 -1.67763 0.461676 0
M  V30 3441 O 340.109 -1.87949 0.723685 0
M  V30 3442 C 337.174 -3.10114 1.55018 0
M  V30 3443 C 336.235 -3.27364 2.77726 0
M  V30 3444 C 335.468 -4.57334 2.75102 0
M  V30 3445 O 335.691 -5.40258 1.8297 0
M  V30 3446 O 334.625 -4.77502 3.66437 0
M  V30 3447 H 338.451 -1.66498 2.53992 0
M  V30 3448 H 336.036 -0.763308 1.28429 0
M  V30 3449 H 337.918 -3.9141 1.56129 0
M  V30 3450 H 336.593 -3.17718 0.619431 0
M  V30 3451 H 335.5 -2.45619 2.82174 0
M  V30 3452 H 336.833 -3.24641 3.69958 0
M  V30 3453 N 338.485 -1.33259 -0.841409 0
M  V30 3454 C 339.734 -1.23921 -1.59143 0
M  V30 3455 C 340.047 0.1941 -1.94635 0
M  V30 3456 O 341.253 0.409474 -2.68394 0
M  V30 3457 C 339.709 -2.17119 -2.87032 0
M  V30 3458 C 339.317 -3.65606 -2.58914 0
M  V30 3459 C 341.061 -2.16648 -3.65053 0
M  V30 3460 C 338.968 -4.50726 -3.82884 0
M  V30 3461 H 337.898 -0.460264 -0.597221 0
M  V30 3462 H 340.549 -1.58307 -0.927959 0
M  V30 3463 H 338.931 -1.75663 -3.54906 0
M  V30 3464 H 340.105 -4.15487 -1.99267 0
M  V30 3465 H 338.42 -3.68341 -1.942 0
M  V30 3466 H 341.017 -2.77474 -4.57069 0
M  V30 3467 H 341.36 -1.16088 -3.99787 0
M  V30 3468 H 341.893 -2.56453 -3.041 0
M  V30 3469 H 338.632 -5.52151 -3.53283 0
M  V30 3470 H 338.152 -4.0559 -4.41879 0
M  V30 3471 H 339.831 -4.64401 -4.50489 0
M  V30 3472 N 339.963 1.05934 -1.16686 0
M  V30 3473 C 341.209 1.79065 -0.95203 0
M  V30 3474 C 341.542 1.87147 0.518629 0
M  V30 3475 O 340.817 1.36574 1.38484 0
M  V30 3476 C 341.1 3.23359 -1.58464 0
M  V30 3477 C 340.953 3.23336 -3.12689 0
M  V30 3478 C 342.272 4.21004 -1.28232 0
M  V30 3479 H 339.391 0.65005 -0.34728 0
M  V30 3480 H 342.033 1.23868 -1.44072 0
M  V30 3481 H 340.183 3.70493 -1.16908 0
M  V30 3482 H 341.855 2.84336 -3.6325 0
M  V30 3483 H 340.098 2.61886 -3.4583 0
M  V30 3484 H 340.769 4.25144 -3.52075 0
M  V30 3485 H 343.245 3.8233 -1.64203 0
M  V30 3486 H 342.121 5.20225 -1.75092 0
M  V30 3487 H 342.382 4.41639 -0.201791 0
M  V30 3488 N 341.441 0.965919 1.2453 0
M  V30 3489 C 342.687 0.62776 1.92839 0
M  V30 3490 C 343.02 -0.834694 1.75347 0
M  V30 3491 O 342.295 -1.60031 1.10546 0
M  V30 3492 C 342.578 1.00109 3.45905 0
M  V30 3493 C 342.431 2.52011 3.72573 0
M  V30 3494 C 343.75 0.53435 4.36844 0
M  V30 3495 H 340.869 0.229537 0.700344 0
M  V30 3496 H 343.511 1.2046 1.46933 0
M  V30 3497 H 341.661 0.510238 3.85135 0
M  V30 3498 H 343.333 3.08559 3.42912 0
M  V30 3499 H 341.576 2.95287 3.17786 0
M  V30 3500 H 342.247 2.73183 4.79661 0
M  V30 3501 H 344.723 0.955565 4.04979 0
M  V30 3502 H 343.599 0.824152 5.42678 0
M  V30 3503 H 343.86 -0.565589 4.38467 0
M  V30 3504 N 342.919 -1.39368 0.735821 0
M  V30 3505 C 344.144 -2.05319 0.293052 0
M  V30 3506 C 344.569 -1.55115 -1.064 0
M  V30 3507 O 343.927 -0.695261 -1.67439 0
M  V30 3508 C 343.975 -3.59305 0.305323 0
M  V30 3509 O 343.079 -4.06299 -0.706761 0
M  V30 3510 H 342.42 -0.650529 0.13307 0
M  V30 3511 H 344.95 -1.78386 1.00197 0
M  V30 3512 H 344.96 -4.07724 0.149997 0
M  V30 3513 H 343.635 -3.95207 1.29553 0
M  V30 3514 H 342.212 -3.69292 -0.517504 0
M  V30 3515 N 344.397 -0.483516 -1.5 0
M  V30 3516 C 345.327 0.293829 -2.31644 0
M  V30 3517 C 346.308 0.978864 -1.39112 0
M  V30 3518 O 347.493 0.973644 -1.68029 0
M  V30 3519 C 344.623 1.36897 -3.19181 0
M  V30 3520 C 343.577 0.804833 -4.20365 0
M  V30 3521 C 342.903 1.9792 -4.96721 0
M  V30 3522 C 344.203 -0.192313 -5.21946 0
M  V30 3523 H 345.897 -0.387616 -2.9688 0
M  V30 3524 H 343.443 -0.187856 -1.42769 0
M  V30 3525 H 345.396 1.92037 -3.751 0
M  V30 3526 H 344.12 2.07936 -2.51853 0
M  V30 3527 H 342.779 0.275319 -3.65565 0
M  V30 3528 H 342.427 2.67686 -4.25856 0
M  V30 3529 H 342.127 1.60789 -5.65173 0
M  V30 3530 H 343.651 2.53526 -5.55479 0
M  V30 3531 H 345.065 0.270333 -5.72662 0
M  V30 3532 H 343.462 -0.478543 -5.98189 0
M  V30 3533 H 344.532 -1.11409 -4.71928 0
M  V30 3534 N 345.875 1.56104 -0.216619 0
M  V30 3535 C 347.121 1.98466 0.417033 0
M  V30 3536 C 347.454 1.10403 1.59765 0
M  V30 3537 O 346.729 0.160632 1.93836 0
M  V30 3538 C 347.012 3.49769 0.85637 0
M  V30 3539 C 346.865 4.48606 -0.327546 0
M  V30 3540 C 348.184 4.05339 1.7143 0
M  V30 3541 H 345.303 0.721551 0.150112 0
M  V30 3542 H 347.945 1.87423 -0.311864 0
M  V30 3543 H 346.095 3.5931 1.47745 0
M  V30 3544 H 347.767 4.5108 -0.965618 0
M  V30 3545 H 346.01 4.22682 -0.975805 0
M  V30 3546 H 346.681 5.51995 0.0227149 0
M  V30 3547 H 349.157 3.98712 1.19031 0
M  V30 3548 H 348.033 5.11533 1.99061 0
M  V30 3549 H 348.294 3.51918 2.67593 0
M  V30 3550 N 347.353 -0.0568162 1.57498 0
M  V30 3551 C 348.301 -1.08452 2.05769 0
M  V30 3552 C 349.295 -1.39164 0.965903 0
M  V30 3553 O 350.501 -1.38395 1.15095 0
M  V30 3554 H 346.876 -0.367148 0.656282 0
M  V30 3555 H 348.847 -0.651368 2.91204 0
M  V30 3556 C 347.596 -2.38543 2.52968 0
M  V30 3557 H 346.919 -2.15765 3.36579 0
M  V30 3558 H 348.359 -3.08863 2.90481 0
M  V30 3559 C 346.818 -3.05562 1.41893 0
M  V30 3560 O 347.348 -3.94262 0.769442 0
M  V30 3561 N 345.554 -2.6643 1.16032 0
M  V30 3562 H 345.101 -1.94387 1.6903 0
M  V30 3563 H 345.059 -3.11593 0.419219 0
M  V30 3564 N 348.832 -1.54138 -0.328536 0
M  V30 3565 C 350.08 -1.71765 -1.06496 0
M  V30 3566 C 350.401 -0.49149 -1.88704 0
M  V30 3567 O 349.671 0.494539 -1.89555 0
M  V30 3568 H 348.251 -0.633295 -0.396164 0
M  V30 3569 H 350.913 -1.91429 -0.366176 0
M  V30 3570 H 350.009 -2.5951 -1.73381 0
M  V30 3571 N 350.31 0.590341 -1.46126 0
M  V30 3572 C 351.726 0.912917 -1.30912 0
M  V30 3573 C 351.926 1.99616 -0.274893 0
M  V30 3574 O 350.982 2.50397 0.325197 0
M  V30 3575 C 352.295 1.3375 -2.69317 0
M  V30 3576 C 353.843 1.45077 -2.77348 0
M  V30 3577 C 354.318 1.90904 -4.16317 0
M  V30 3578 N 355.809 1.9811 -4.18696 0
M  V30 3579 C 356.544 2.34828 -5.23109 0
M  V30 3580 N 356.04 2.70393 -6.37856 0
M  V30 3581 N 357.833 2.35317 -5.10473 0
M  V30 3582 H 349.984 -0.125358 -2.1203 0
M  V30 3583 H 352.247 0.00658481 -0.947977 0
M  V30 3584 H 351.953 0.615614 -3.4627 0
M  V30 3585 H 351.827 2.30058 -2.9892 0
M  V30 3586 H 354.214 2.16353 -2.00687 0
M  V30 3587 H 354.295 0.4704 -2.51438 0
M  V30 3588 H 353.939 1.20209 -4.9347 0
M  V30 3589 H 353.869 2.89886 -4.39629 0
M  V30 3590 H 356.36 1.73146 -3.359 0
M  V30 3591 H 356.673 2.97341 -7.13308 0
M  V30 3592 H 355.018 2.68048 -6.41229 0
M  V30 3593 H 358.209 2.0695 -4.19868 0
M  V30 3594 H 358.382 2.63605 -5.9196 0
M  V30 3595 N 351.788 1.33704 0.83433 0
M  V30 3596 C 353.199 1.22813 1.4062 0
M  V30 3597 C 353.55 -0.151107 1.95617 0
M  V30 3598 O 352.675 -1.05092 1.89168 0
M  V30 3599 C 353.27 2.22355 2.55624 0
M  V30 3600 C 351.829 2.1529 3.08751 0
M  V30 3601 C 350.976 2.09589 1.8157 0
M  V30 3602 H 353.927 1.45236 0.639702 0
M  V30 3603 H 353.948 1.83391 3.33389 0
M  V30 3604 H 353.46 3.22728 2.15566 0
M  V30 3605 H 351.561 1.18235 3.53343 0
M  V30 3606 H 351.674 3.06038 3.68616 0
M  V30 3607 H 350.038 1.55134 2.02004 0
M  V30 3608 H 350.821 3.11777 1.43701 0
M  V30 3609 N 353.266 -1.05314 1.17247 0
M  V30 3610 C 354.514 -1.77941 0.958194 0
M  V30 3611 C 354.835 -1.88089 -0.514556 0
M  V30 3612 O 354.105 -1.39676 -1.37359 0
M  V30 3613 H 352.685 -0.659116 0.351533 0
M  V30 3614 H 355.347 -1.27166 1.47699 0
M  V30 3615 H 354.443 -2.79663 1.38546 0
M  V30 3616 N 354.744 -0.972509 -1.24016 0
M  V30 3617 C 355.707 -0.511403 -2.23422 0
M  V30 3618 C 356.707 0.394679 -1.55881 0
M  V30 3619 O 357.897 0.189469 -1.73167 0
M  V30 3620 C 355.029 0.258769 -3.39916 0
M  V30 3621 H 356.222 -1.39024 -2.6573 0
M  V30 3622 H 353.775 -0.757585 -1.36713 0
M  V30 3623 H 354.51 1.1545 -3.03054 0
M  V30 3624 H 354.295 -0.391522 -3.9014 0
M  V30 3625 H 355.785 0.570244 -4.13688 0
M  V30 3626 N 356.222 1.38976 -0.743202 0
M  V30 3627 C 357.155 2.28128 -0.0572165 0
M  V30 3628 C 358.133 1.44827 0.739182 0
M  V30 3629 O 359.317 1.74207 0.720009 0
M  V30 3630 C 356.444 3.25796 0.926001 0
M  V30 3631 C 355.49 4.25947 0.217099 0
M  V30 3632 S 356.323 5.24604 -1.07477 0
M  V30 3633 C 357.479 6.25829 -0.0943545 0
M  V30 3634 H 357.712 2.85961 -0.813246 0
M  V30 3635 H 355.245 1.44822 -0.535341 0
M  V30 3636 H 357.203 3.82583 1.48797 0
M  V30 3637 H 355.864 2.66966 1.65493 0
M  V30 3638 H 355.057 4.94746 0.961372 0
M  V30 3639 H 354.659 3.73002 -0.273059 0
M  V30 3640 H 356.951 6.73411 0.743239 0
M  V30 3641 H 357.894 7.0412 -0.749713 0
M  V30 3642 H 358.302 5.63797 0.281706 0
M  V30 3643 N 357.7 0.491464 1.49741 0
M  V30 3644 C 358.648 -0.305837 2.30581 0
M  V30 3645 C 359.642 -0.971642 1.38764 0
M  V30 3646 O 360.848 -0.90042 1.5586 0
M  V30 3647 H 357.223 -0.117482 0.742767 0
M  V30 3648 H 359.194 0.396093 2.95759 0
M  V30 3649 C 357.943 -1.36319 3.19863 0
M  V30 3650 H 357.266 -0.860258 3.90435 0
M  V30 3651 H 358.706 -1.89323 3.79385 0
M  V30 3652 C 357.165 -2.37621 2.38826 0
M  V30 3653 O 357.695 -3.43311 2.08567 0
M  V30 3654 N 355.901 -2.09849 2.01026 0
M  V30 3655 H 355.448 -1.23922 2.25834 0
M  V30 3656 H 355.406 -2.77859 1.47112 0
M  V30 3657 N 359.178 -1.55987 0.224894 0
M  V30 3658 C 360.425 -1.9839 -0.4059 0
M  V30 3659 C 360.753 -1.11261 -1.59535 0
M  V30 3660 O 360.008 -0.158314 -1.95059 0
M  V30 3661 C 360.307 -3.46394 -0.880106 0
M  V30 3662 C 359.973 -4.5046 0.19918 0
M  V30 3663 C 358.635 -4.7864 0.495661 0
M  V30 3664 C 360.987 -5.12855 0.928939 0
M  V30 3665 C 358.315 -5.66497 1.52636 0
M  V30 3666 C 360.667 -6.01828 1.949 0
M  V30 3667 C 359.331 -6.28351 2.25236 0
M  V30 3668 H 358.601 -0.725961 -0.148529 0
M  V30 3669 H 361.248 -1.88668 0.328113 0
M  V30 3670 H 359.553 -3.53337 -1.69294 0
M  V30 3671 H 361.25 -3.76577 -1.37808 0
M  V30 3672 H 357.84 -4.28579 -0.0420526 0
M  V30 3673 H 362.024 -4.9115 0.713129 0
M  V30 3674 H 357.28 -5.8531 1.76698 0
M  V30 3675 H 361.454 -6.49225 2.51951 0
M  V30 3676 H 359.081 -6.96226 3.05244 0
M  V30 3677 N 360.656 0.0484629 -1.57525 0
M  V30 3678 C 361.881 0.759177 -1.93006 0
M  V30 3679 C 362.306 1.69125 -0.823317 0
M  V30 3680 O 361.664 1.79931 0.222364 0
M  V30 3681 C 361.712 1.50899 -3.27509 0
M  V30 3682 O 360.816 2.62112 -3.18388 0
M  V30 3683 H 360.157 0.205564 -0.631379 0
M  V30 3684 H 362.687 0.00972959 -2.04598 0
M  V30 3685 H 362.697 1.88317 -3.6194 0
M  V30 3686 H 361.372 0.825269 -4.0763 0
M  V30 3687 H 359.949 2.27379 -2.95556 0
M  V30 3688 N 362.134 1.5431 0.320358 0
M  V30 3689 C 363.364 1.7638 1.07582 0
M  V30 3690 C 363.772 0.513944 1.82086 0
M  V30 3691 O 363.115 -0.525123 1.76035 0
M  V30 3692 C 363.177 2.9055 2.1171 0
M  V30 3693 C 362.841 4.2934 1.56575 0
M  V30 3694 C 363.838 5.10077 1.00586 0
M  V30 3695 C 361.523 4.75893 1.60722 0
M  V30 3696 C 363.517 6.35477 0.494756 0
M  V30 3697 C 361.204 6.0126 1.09224 0
M  V30 3698 C 362.202 6.80886 0.53696 0
M  V30 3699 O 361.89 8.03894 0.0297371 0
M  V30 3700 H 361.622 0.592369 0.325692 0
M  V30 3701 H 364.176 2.02019 0.37116 0
M  V30 3702 H 362.406 2.60489 2.85801 0
M  V30 3703 H 364.095 3.00373 2.73003 0
M  V30 3704 H 364.861 4.75265 0.966869 0
M  V30 3705 H 360.74 4.13957 2.02882 0
M  V30 3706 H 364.284 6.97574 0.0606842 0
M  V30 3707 H 360.181 6.35562 1.12831 0
M  V30 3708 H 360.949 8.18372 0.14486 0
M  V30 3709 N 363.613 -0.582584 1.46437 0
M  V30 3710 C 364.838 -1.37168 1.55563 0
M  V30 3711 C 365.263 -1.87061 0.19743 0
M  V30 3712 O 364.621 -1.61572 -0.822451 0
M  V30 3713 C 364.669 -2.53511 2.56446 0
M  V30 3714 O 363.773 -3.54953 2.09958 0
M  V30 3715 H 363.114 -0.408494 0.523477 0
M  V30 3716 H 365.644 -0.706646 1.9201 0
M  V30 3717 H 365.654 -3.00426 2.76058 0
M  V30 3718 H 364.329 -2.16549 3.55076 0
M  V30 3719 H 362.906 -3.14516 2.00334 0
M  V30 3720 N 365.091 -1.34144 -0.827227 0
M  V30 3721 C 366.502 -1.23557 -1.39966 0
M  V30 3722 C 366.853 0.140731 -1.95695 0
M  V30 3723 O 365.978 1.04087 -1.89723 0
M  V30 3724 C 366.573 -2.23708 -2.54441 0
M  V30 3725 C 365.132 -2.16924 -3.07605 0
M  V30 3726 C 364.279 -2.10549 -1.80456 0
M  V30 3727 H 367.23 -1.45573 -0.631991 0
M  V30 3728 H 367.251 -1.85157 -3.32411 0
M  V30 3729 H 366.763 -3.23866 -2.13851 0
M  V30 3730 H 364.864 -1.20107 -3.52711 0
M  V30 3731 H 364.977 -3.07988 -3.66988 0
M  V30 3732 H 363.341 -1.56203 -2.01178 0
M  V30 3733 H 364.124 -3.12535 -1.42046 0
M  V30 3734 N 366.569 1.04691 -1.17803 0
M  V30 3735 C 367.499 2.14494 -0.92275 0
M  V30 3736 C 368.48 1.69546 0.137179 0
M  V30 3737 O 369.665 1.94195 -0.0141108 0
M  V30 3738 C 366.795 3.44491 -0.440803 0
M  V30 3739 C 365.749 4.03031 -1.4405 0
M  V30 3740 C 365.075 5.28432 -0.81631 0
M  V30 3741 C 366.375 4.39932 -2.81527 0
M  V30 3742 H 368.069 2.36107 -1.84103 0
M  V30 3743 H 365.615 1.1347 -0.886599 0
M  V30 3744 H 367.568 4.2066 -0.249602 0
M  V30 3745 H 366.292 3.22546 0.513025 0
M  V30 3746 H 364.951 3.28937 -1.61853 0
M  V30 3747 H 364.599 5.02792 0.144511 0
M  V30 3748 H 364.299 5.68559 -1.48371 0
M  V30 3749 H 365.823 6.07284 -0.635496 0
M  V30 3750 H 367.237 5.07113 -2.67412 0
M  V30 3751 H 365.634 4.9109 -3.44892 0
M  V30 3752 H 366.704 3.50045 -3.35554 0
M  V30 3753 N 368.047 0.979072 1.23499 0
M  V30 3754 C 368.977 0.537606 2.27227 0
M  V30 3755 C 369.958 -0.428539 1.64613 0
M  V30 3756 O 371.143 -0.322191 1.91509 0
M  V30 3757 C 368.273 -0.162052 3.46922 0
M  V30 3758 C 367.227 0.721242 4.21879 0
M  V30 3759 C 366.553 -0.110555 5.34586 0
M  V30 3760 C 367.853 2.01141 4.82016 0
M  V30 3761 H 369.547 1.40462 2.64406 0
M  V30 3762 H 367.093 0.67684 1.27102 0
M  V30 3763 H 369.046 -0.482192 4.18632 0
M  V30 3764 H 367.77 -1.06351 3.08799 0
M  V30 3765 H 366.429 1.02482 3.51984 0
M  V30 3766 H 366.077 -1.0125 4.92704 0
M  V30 3767 H 365.777 0.477325 5.85658 0
M  V30 3768 H 367.301 -0.425107 6.09118 0
M  V30 3769 H 368.715 1.75612 5.45741 0
M  V30 3770 H 367.112 2.54695 5.43369 0
M  V30 3771 H 368.182 2.69909 4.02836 0
M  V30 3772 N 369.525 -1.3858 0.750561 0
M  V30 3773 C 370.941 -1.53759 0.427824 0
M  V30 3774 C 371.141 -1.71401 -1.05943 0
M  V30 3775 O 370.197 -1.72331 -1.84549 0
M  V30 3776 C 371.51 -2.74642 1.22443 0
M  V30 3777 C 373.058 -2.88489 1.2142 0
M  V30 3778 C 373.533 -4.12329 1.9937 0
M  V30 3779 N 375.024 -4.194 1.96616 0
M  V30 3780 C 375.759 -5.14209 2.53727 0
M  V30 3781 N 375.255 -6.14709 3.19539 0
M  V30 3782 N 377.048 -5.06537 2.43673 0
M  V30 3783 H 369.199 -1.25377 1.71447 0
M  V30 3784 H 371.462 -0.608844 0.726645 0
M  V30 3785 H 371.168 -2.68 2.27747 0
M  V30 3786 H 371.042 -3.67745 0.839273 0
M  V30 3787 H 373.429 -2.94614 0.169232 0
M  V30 3788 H 373.51 -1.96406 1.63885 0
M  V30 3789 H 373.154 -4.06966 3.03877 0
M  V30 3790 H 373.084 -5.03486 1.54302 0
M  V30 3791 H 375.575 -3.47421 1.48684 0
M  V30 3792 H 375.888 -6.8354 3.60545 0
M  V30 3793 H 374.233 -6.1505 3.23633 0
M  V30 3794 H 377.424 -4.26962 1.91889 0
M  V30 3795 H 377.597 -5.80245 2.88479 0
M  V30 3796 N 371.003 -0.499398 -1.49478 0
M  V30 3797 C 371.913 0.284489 -2.32869 0
M  V30 3798 C 372.929 0.968885 -1.44529 0
M  V30 3799 O 374.105 0.95062 -1.77553 0
M  V30 3800 C 371.17 1.33594 -3.19928 0
M  V30 3801 C 370.231 0.665149 -4.24116 0
M  V30 3802 C 369.464 1.6665 -5.07014 0
M  V30 3803 O 369.687 2.89618 -4.91404 0
M  V30 3804 O 368.621 1.22271 -5.8935 0
M  V30 3805 H 372.447 -0.39802 -3.01081 0
M  V30 3806 H 370.032 -0.260758 -1.47107 0
M  V30 3807 H 371.914 1.94431 -3.73864 0
M  V30 3808 H 370.589 2.0014 -2.54412 0
M  V30 3809 H 369.496 0.0170769 -3.74096 0
M  V30 3810 H 370.829 0.0421555 -4.92182 0
M  V30 3811 N 372.481 1.55866 -0.233164 0
M  V30 3812 C 373.728 1.98603 0.395374 0
M  V30 3813 C 374.056 1.12105 1.58942 0
M  V30 3814 O 373.311 0.168656 1.94972 0
M  V30 3815 C 373.61 3.46856 0.861724 0
M  V30 3816 C 373.276 4.50348 -0.223066 0
M  V30 3817 C 371.938 4.78371 -0.521038 0
M  V30 3818 C 374.29 5.12355 -0.956124 0
M  V30 3819 C 371.618 5.6568 -1.55638 0
M  V30 3820 C 373.97 6.00786 -1.98089 0
M  V30 3821 C 372.634 6.27148 -2.28565 0
M  V30 3822 H 371.904 0.726739 0.144677 0
M  V30 3823 H 374.551 1.88491 -0.338114 0
M  V30 3824 H 372.856 3.5423 1.67418 0
M  V30 3825 H 374.553 3.77302 1.35809 0
M  V30 3826 H 371.143 4.28596 0.0193234 0
M  V30 3827 H 375.327 4.90765 -0.739166 0
M  V30 3828 H 370.583 5.84365 -1.798 0
M  V30 3829 H 374.757 6.4788 -2.55391 0
M  V30 3830 H 372.384 6.94597 -3.08932 0
M  V30 3831 N 373.959 -0.0401083 1.57549 0
M  V30 3832 C 375.187 -0.745196 1.93014 0
M  V30 3833 C 375.602 -1.6948 0.831984 0
M  V30 3834 O 374.959 -1.81482 -0.192463 0
M  V30 3835 C 375.01 -1.51176 3.28372 0
M  V30 3836 O 374.731 -0.600284 4.33968 0
M  V30 3837 C 376.232 -2.315 3.78051 0
M  V30 3838 H 373.452 -0.210088 0.637263 0
M  V30 3839 H 375.996 -0.000924689 2.045 0
M  V30 3840 H 374.151 -2.20801 3.18317 0
M  V30 3841 H 374.565 -1.13669 5.12035 0
M  V30 3842 H 376.039 -2.80697 4.75303 0
M  V30 3843 H 376.516 -3.12436 3.08675 0
M  V30 3844 H 377.122 -1.66971 3.91153 0
M  V30 3845 N 375.437 -1.54477 -0.31217 0
M  V30 3846 C 376.384 -1.84655 -1.38461 0
M  V30 3847 C 377.354 -0.694536 -1.50882 0
M  V30 3848 O 378.539 -0.942081 -1.6592 0
M  V30 3849 C 375.679 -2.0896 -2.74645 0
M  V30 3850 C 374.792 -3.36618 -2.70763 0
M  V30 3851 C 373.927 -3.50824 -3.98868 0
M  V30 3852 C 372.966 -4.72315 -3.89339 0
M  V30 3853 N 372.103 -4.83387 -5.09197 0
M  V30 3854 H 376.943 -2.76142 -1.12026 0
M  V30 3855 H 374.48 -1.36748 -0.542065 0
M  V30 3856 H 376.438 -2.21045 -3.53829 0
M  V30 3857 H 375.068 -1.20752 -2.99364 0
M  V30 3858 H 374.12 -3.33211 -1.83506 0
M  V30 3859 H 375.432 -4.25917 -2.59608 0
M  V30 3860 H 374.586 -3.62513 -4.86486 0
M  V30 3861 H 373.325 -2.59638 -4.12843 0
M  V30 3862 H 372.33 -4.6067 -3.00105 0
M  V30 3863 H 373.555 -5.64897 -3.76919 0
M  V30 3864 H 371.501 -3.9512 -5.23657 0
M  V30 3865 H 371.418 -5.66669 -5.00422 0
M  V30 3866 H 372.686 -4.9942 -5.98498 0
M  V30 3867 N 376.915 0.57481 -1.46744 0
M  V30 3868 C 377.878 1.66533 -1.57478 0
M  V30 3869 C 378.878 1.54338 -0.451263 0
M  V30 3870 O 380.068 1.58814 -0.715813 0
M  V30 3871 C 377.2 3.05999 -1.50259 0
M  V30 3872 H 378.393 1.58372 -2.54673 0
M  V30 3873 H 375.946 0.793301 -1.34672 0
M  V30 3874 H 376.681 3.19709 -0.543725 0
M  V30 3875 H 376.466 3.16259 -2.31781 0
M  V30 3876 H 377.956 3.8537 -1.60872 0
M  V30 3877 N 378.394 1.34581 0.820102 0
M  V30 3878 C 379.622 1.3018 1.60813 0
M  V30 3879 C 380.037 -0.123551 1.88395 0
M  V30 3880 O 379.394 -1.07148 1.47735 0
M  V30 3881 C 379.445 2.09312 2.94739 0
M  V30 3882 O 379.166 3.46288 2.68358 0
M  V30 3883 C 380.667 2.1234 3.89136 0
M  V30 3884 H 377.887 0.447726 0.499782 0
M  V30 3885 H 380.431 1.77237 1.02017 0
M  V30 3886 H 378.586 1.65889 3.50085 0
M  V30 3887 H 379 3.87227 3.53774 0
M  V30 3888 H 380.474 2.72126 4.80262 0
M  V30 3889 H 380.951 1.11854 4.24718 0
M  V30 3890 H 381.557 2.55864 3.39726 0
M  V30 3891 N 379.872 -1.04064 1.18357 0
M  V30 3892 C 380.82 -2.14187 0.907007 0
M  V30 3893 C 381.814 -1.68879 -0.132725 0
M  V30 3894 O 383.02 -1.79993 0.0154248 0
M  V30 3895 H 379.395 -0.699585 0.275835 0
M  V30 3896 H 381.366 -2.34711 1.84264 0
M  V30 3897 C 380.115 -3.44785 0.449254 0
M  V30 3898 H 379.438 -3.80058 1.24081 0
M  V30 3899 H 380.878 -4.22974 0.294737 0
M  V30 3900 C 379.337 -3.26391 -0.834909 0
M  V30 3901 O 379.867 -3.53973 -1.89911 0
M  V30 3902 N 378.073 -2.79726 -0.787523 0
M  V30 3903 H 377.62 -2.5748 0.0787347 0
M  V30 3904 H 377.578 -2.67798 -1.64716 0
M  V30 3905 N 381.35 -0.985608 -1.22978 0
M  V30 3906 C 382.596 -0.65836 -1.91816 0
M  V30 3907 C 382.929 0.806692 -1.76653 0
M  V30 3908 O 382.204 1.58252 -1.13078 0
M  V30 3909 C 382.487 -1.056 -3.44268 0
M  V30 3910 C 382.34 -2.57906 -3.68516 0
M  V30 3911 C 383.659 -0.603781 -4.35939 0
M  V30 3912 H 380.778 -0.24065 -0.696604 0
M  V30 3913 H 383.42 -1.22783 -1.44998 0
M  V30 3914 H 381.57 -0.571445 -3.84274 0
M  V30 3915 H 383.242 -3.13976 -3.3796 0
M  V30 3916 H 381.485 -3.00305 -3.13048 0
M  V30 3917 H 382.156 -2.80779 -4.75255 0
M  V30 3918 H 384.632 -1.01987 -4.03408 0
M  V30 3919 H 383.508 -0.910383 -5.41298 0
M  V30 3920 H 383.769 0.495761 -4.39312 0
M  V30 3921 N 382.828 1.3818 -0.7579 0
M  V30 3922 C 384.244 1.5353 -0.435972 0
M  V30 3923 C 384.444 1.71961 1.05032 0
M  V30 3924 O 383.5 1.73307 1.83633 0
M  V30 3925 C 384.813 2.73989 -1.23898 0
M  V30 3926 C 386.361 2.87841 -1.22949 0
M  V30 3927 C 386.836 4.11266 -2.01554 0
M  V30 3928 N 388.327 4.18352 -1.98837 0
M  V30 3929 C 389.062 5.12856 -2.5645 0
M  V30 3930 N 388.558 6.13005 -3.22794 0
M  V30 3931 N 390.351 5.05238 -2.46356 0
M  V30 3932 H 382.502 1.24467 -1.7211 0
M  V30 3933 H 384.765 0.604982 -0.729864 0
M  V30 3934 H 384.471 2.66789 -2.29165 0
M  V30 3935 H 384.345 3.67294 -0.858764 0
M  V30 3936 H 386.732 2.9452 -0.184854 0
M  V30 3937 H 386.813 1.95534 -1.64924 0
M  V30 3938 H 386.457 4.05349 -3.06031 0
M  V30 3939 H 386.387 5.02661 -1.5697 0
M  V30 3940 H 388.878 3.46628 -1.50524 0
M  V30 3941 H 389.191 6.81619 -3.64165 0
M  V30 3942 H 387.536 6.13325 -3.2689 0
M  V30 3943 H 390.727 4.25938 -1.9415 0
M  V30 3944 H 390.9 5.78707 -2.91552 0
M  V30 3945 N 384.306 0.507319 1.49211 0
M  V30 3946 C 385.236 -0.256939 2.32082 0
M  V30 3947 C 386.217 -0.956609 1.40652 0
M  V30 3948 O 387.402 -0.946788 1.69557 0
M  V30 3949 C 384.532 -1.31802 3.21318 0
M  V30 3950 C 383.486 -0.737855 4.21592 0
M  V30 3951 C 382.812 -1.89992 4.99807 0
M  V30 3952 C 384.112 0.275325 5.21574 0
M  V30 3953 H 385.806 0.434798 2.96226 0
M  V30 3954 H 383.352 0.210546 1.42452 0
M  V30 3955 H 385.305 -1.86045 3.78107 0
M  V30 3956 H 384.029 -2.03903 2.5513 0
M  V30 3957 H 382.688 -0.217126 3.65956 0
M  V30 3958 H 382.336 -2.60877 4.30061 0
M  V30 3959 H 382.036 -1.51777 5.6766 0
M  V30 3960 H 383.56 -2.44657 5.59442 0
M  V30 3961 H 384.974 -0.179193 5.7302 0
M  V30 3962 H 383.371 0.573649 5.97352 0
M  V30 3963 H 384.441 1.18903 4.70096 0
M  V30 3964 N 385.784 -1.5574 0.241426 0
M  V30 3965 C 387.2 -1.59196 -0.113548 0
M  V30 3966 C 387.4 -1.25852 -1.57364 0
M  V30 3967 O 386.456 -1.00322 -2.31715 0
M  V30 3968 C 387.769 -2.99814 0.230695 0
M  V30 3969 C 389.317 -3.12513 0.174547 0
M  V30 3970 C 389.792 -4.55342 0.492744 0
M  V30 3971 N 391.283 -4.61076 0.443043 0
M  V30 3972 C 392.018 -5.6956 0.662484 0
M  V30 3973 N 391.514 -6.86328 0.944761 0
M  V30 3974 N 393.307 -5.58957 0.593564 0
M  V30 3975 H 385.458 -1.75685 1.19368 0
M  V30 3976 H 387.721 -0.81756 0.479896 0
M  V30 3977 H 387.427 -3.28932 1.24485 0
M  V30 3978 H 387.301 -3.74568 -0.444833 0
M  V30 3979 H 389.688 -2.83179 -0.830277 0
M  V30 3980 H 389.769 -2.40045 0.883845 0
M  V30 3981 H 389.413 -4.85396 1.4951 0
M  V30 3982 H 389.343 -5.26062 -0.23797 0
M  V30 3983 H 391.834 -3.77179 0.233374 0
M  V30 3984 H 392.147 -7.64935 1.09977 0
M  V30 3985 H 390.492 -6.88025 0.982175 0
M  V30 3986 H 393.683 -4.66611 0.373123 0
M  V30 3987 H 393.856 -6.43433 0.767981 0
M  V30 3988 N 387.262 0.0317525 -1.57568 0
M  V30 3989 C 388.509 0.723104 -1.89149 0
M  V30 3990 C 388.837 1.75504 -0.838377 0
M  V30 3991 O 388.092 1.95037 0.160982 0
M  V30 3992 C 388.391 1.43167 -3.27472 0
M  V30 3993 C 388.057 0.535972 -4.47703 0
M  V30 3994 C 386.719 0.289262 -4.8033 0
M  V30 3995 C 389.071 -0.0826125 -5.21135 0
M  V30 3996 C 386.399 -0.584853 -5.83778 0
M  V30 3997 C 388.751 -0.944414 -6.25511 0
M  V30 3998 C 387.415 -1.20061 -6.56614 0
M  V30 3999 H 386.685 0.264602 -0.692146 0
M  V30 4000 H 389.332 -0.0169496 -1.91492 0
M  V30 4001 H 387.637 2.24497 -3.21105 0
M  V30 4002 H 389.334 1.97209 -3.49155 0
M  V30 4003 H 385.924 0.738414 -4.22191 0
M  V30 4004 H 390.108 0.0950302 -4.96209 0
M  V30 4005 H 385.364 -0.79168 -6.06253 0
M  V30 4006 H 389.538 -1.43026 -6.81554 0
M  V30 4007 H 387.165 -1.87967 -7.36595 0
M  V30 4008 N 388.74 1.54641 0.303973 0
M  V30 4009 C 389.67 1.88386 1.3796 0
M  V30 4010 C 390.651 0.742485 1.5304 0
M  V30 4011 O 391.836 0.997959 1.66597 0
M  V30 4012 C 388.966 2.12854 2.74427 0
M  V30 4013 C 387.92 3.28702 2.74115 0
M  V30 4014 C 387.246 3.38582 4.13844 0
M  V30 4015 C 388.546 4.65881 2.3612 0
M  V30 4016 H 390.24 2.78474 1.09966 0
M  V30 4017 H 387.786 1.33988 0.527556 0
M  V30 4018 H 389.739 2.35047 3.49758 0
M  V30 4019 H 388.463 1.19535 3.03939 0
M  V30 4020 H 387.122 3.06428 2.0124 0
M  V30 4021 H 386.77 2.42784 4.40528 0
M  V30 4022 H 386.47 4.16453 4.14537 0
M  V30 4023 H 387.994 3.63031 4.90959 0
M  V30 4024 H 389.408 4.87823 3.01167 0
M  V30 4025 H 387.805 5.46444 2.48031 0
M  V30 4026 H 388.875 4.66799 1.3125 0
M  V30 4027 N 390.218 -0.567019 1.47046 0
M  V30 4028 C 391.634 -0.891975 1.32348 0
M  V30 4029 C 391.834 -1.99154 0.306616 0
M  V30 4030 O 390.89 -2.50883 -0.28532 0
M  V30 4031 C 392.203 -1.29449 2.7141 0
M  V30 4032 C 393.751 -1.40646 2.79621 0
M  V30 4033 C 394.226 -1.84257 4.19301 0
M  V30 4034 N 395.717 -1.91424 4.21795 0
M  V30 4035 C 396.452 -2.26476 5.26779 0
M  V30 4036 N 395.948 -2.60211 6.42077 0
M  V30 4037 N 397.741 -2.27166 5.14152 0
M  V30 4038 H 389.892 0.159074 2.11803 0
M  V30 4039 H 392.155 0.00849752 0.947962 0
M  V30 4040 H 391.861 -0.560448 3.47206 0
M  V30 4041 H 391.735 -2.25273 3.02542 0
M  V30 4042 H 394.122 -2.13133 2.04104 0
M  V30 4043 H 394.203 -0.430339 2.52154 0
M  V30 4044 H 393.847 -1.12343 4.95319 0
M  V30 4045 H 393.777 -2.82855 4.44185 0
M  V30 4046 H 396.268 -1.6778 3.38612 0
M  V30 4047 H 396.581 -2.85956 7.17948 0
M  V30 4048 H 394.926 -2.57813 6.45413 0
M  V30 4049 H 398.117 -2.00244 4.23107 0
M  V30 4050 H 398.29 -2.54154 5.96079 0
M  V30 4051 N 391.696 -1.35014 -0.812953 0
M  V30 4052 C 392.924 -1.31031 -1.6012 0
M  V30 4053 C 393.339 0.113558 -1.88458 0
M  V30 4054 O 392.696 1.06363 -1.48301 0
M  V30 4055 C 392.747 -2.10872 -2.93624 0
M  V30 4056 O 392.468 -3.47706 -2.66518 0
M  V30 4057 C 393.969 -2.14401 -3.88004 0
M  V30 4058 H 391.189 -0.45037 -0.497401 0
M  V30 4059 H 393.733 -1.77775 -1.01076 0
M  V30 4060 H 391.888 -1.67744 -3.492 0
M  V30 4061 H 392.302 -3.89097 -3.51715 0
M  V30 4062 H 393.776 -2.74669 -4.78812 0
M  V30 4063 H 394.253 -1.14105 -4.24119 0
M  V30 4064 H 394.859 -2.57662 -3.38364 0
M  V30 4065 N 393.175 1.03435 -1.18907 0
M  V30 4066 C 394.123 2.13703 -0.918353 0
M  V30 4067 C 395.117 1.68947 0.123767 0
M  V30 4068 O 396.323 1.79983 -0.0249701 0
M  V30 4069 H 392.698 0.698112 -0.279542 0
M  V30 4070 H 394.669 2.33731 -1.85506 0
M  V30 4071 C 393.418 3.44542 -0.467532 0
M  V30 4072 H 392.741 3.79394 -1.26095 0
M  V30 4073 H 394.181 4.22812 -0.317164 0
M  V30 4074 C 392.64 3.26829 0.817588 0
M  V30 4075 O 393.17 3.54975 1.88031 0
M  V30 4076 N 391.376 2.80139 0.772677 0
M  V30 4077 H 390.923 2.57434 -0.0923883 0
M  V30 4078 H 390.881 2.68668 1.63294 0
M  V30 4079 N 394.653 0.992116 1.22453 0
M  V30 4080 C 395.881 0.685944 1.95198 0
M  V30 4081 C 396.296 -0.749233 1.73297 0
M  V30 4082 O 395.653 -1.50549 1.03156 0
M  V30 4083 C 395.704 0.981395 3.47924 0
M  V30 4084 O 395.425 2.36018 3.6909 0
M  V30 4085 C 396.926 0.692815 4.37853 0
M  V30 4086 H 394.146 0.253821 0.621141 0
M  V30 4087 H 396.69 1.32668 1.55626 0
M  V30 4088 H 394.845 0.386481 3.85467 0
M  V30 4089 H 395.259 2.45884 4.63294 0
M  V30 4090 H 396.733 0.949818 5.43767 0
M  V30 4091 H 397.21 -0.373181 4.37612 0
M  V30 4092 H 397.816 1.26874 4.05935 0
M  V30 4093 N 396.131 -1.37776 0.765217 0
M  V30 4094 C 397.061 -2.32945 0.160953 0
M  V30 4095 C 398.042 -1.55454 -0.690516 0
M  V30 4096 O 399.227 -1.83721 -0.629318 0
M  V30 4097 C 396.357 -3.39669 -0.724031 0
M  V30 4098 C 395.311 -4.27992 0.0256173 0
M  V30 4099 C 394.637 -5.25673 -0.978383 0
M  V30 4100 C 395.937 -5.08309 1.20082 0
M  V30 4101 H 397.631 -2.83728 0.955969 0
M  V30 4102 H 395.177 -1.36416 0.461149 0
M  V30 4103 H 397.13 -4.05219 -1.15652 0
M  V30 4104 H 395.854 -2.87396 -1.5515 0
M  V30 4105 H 394.513 -3.63964 0.438812 0
M  V30 4106 H 394.161 -4.69682 -1.80022 0
M  V30 4107 H 393.861 -5.85625 -0.481378 0
M  V30 4108 H 395.385 -5.94098 -1.40995 0
M  V30 4109 H 396.799 -5.67034 0.845307 0
M  V30 4110 H 395.196 -5.77554 1.62947 0
M  V30 4111 H 396.266 -4.41365 2.00811 0
M  V30 4112 N 397.609 -0.515225 -1.4894 0
M  V30 4113 C 398.539 0.244628 -2.32215 0
M  V30 4114 C 399.52 0.949136 -1.41157 0
M  V30 4115 O 400.705 0.937783 -1.70057 0
M  V30 4116 C 397.835 1.30096 -3.22013 0
M  V30 4117 C 396.789 0.715486 -4.21977 0
M  V30 4118 C 396.115 1.87339 -5.00808 0
M  V30 4119 C 397.415 -0.302982 -5.2142 0
M  V30 4120 H 399.109 -0.450501 -2.95991 0
M  V30 4121 H 396.655 -0.218098 -1.42339 0
M  V30 4122 H 398.608 1.84037 -3.79089 0
M  V30 4123 H 397.332 2.02547 -2.56207 0
M  V30 4124 H 395.991 0.197715 -3.66066 0
M  V30 4125 H 395.639 2.58592 -4.31438 0
M  V30 4126 H 395.339 1.48764 -5.68457 0
M  V30 4127 H 396.863 2.41686 -5.60732 0
M  V30 4128 H 398.277 0.148802 -5.73107 0
M  V30 4129 H 396.674 -0.60532 -5.97039 0
M  V30 4130 H 397.744 -1.21395 -4.69459 0
M  V30 4131 N 399.087 1.5561 -0.249682 0
M  V30 4132 C 400.335 1.98618 0.373548 0
M  V30 4133 C 400.656 1.13919 1.58264 0
M  V30 4134 O 399.926 0.222637 1.94631 0
M  V30 4135 H 398.506 0.733571 0.141006 0
M  V30 4136 H 401.168 1.91748 -0.349117 0
M  V30 4137 H 400.264 3.04584 0.680796 0
M  V30 4138 N 400.565 -0.0233959 1.57583 0
M  V30 4139 C 401.515 -1.03023 2.03397 0
M  V30 4140 C 402.499 -1.31701 0.924315 0
M  V30 4141 O 403.691 -1.31191 1.18819 0
M  V30 4142 C 400.82 -2.32961 2.52159 0
M  V30 4143 C 399.906 -2.07349 3.69956 0
M  V30 4144 N 400.297 -1.51814 4.82479 0
M  V30 4145 C 398.595 -2.37606 3.77438 0
M  V30 4146 C 399.296 -1.42136 5.64068 0
M  V30 4147 N 398.272 -1.89891 5.09355 0
M  V30 4148 H 402.074 -0.594962 2.87815 0
M  V30 4149 H 399.588 -0.229586 1.60769 0
M  V30 4150 H 401.585 -3.05906 2.83244 0
M  V30 4151 H 400.245 -2.77162 1.69149 0
M  V30 4152 H 401.256 -1.20008 5.03804 0
M  V30 4153 H 397.933 -2.84842 3.05239 0
M  V30 4154 H 399.323 -0.996405 6.64471 0
M  V30 4155 N 402.043 -1.548 -0.295768 0
M  V30 4156 C 402.973 -1.89115 -1.36959 0
M  V30 4157 C 403.954 -0.75059 -1.52644 0
M  V30 4158 O 405.139 -1.00678 -1.66065 0
M  V30 4159 C 402.269 -2.14307 -2.73295 0
M  V30 4160 C 401.223 -3.30151 -2.72368 0
M  V30 4161 C 400.549 -3.40772 -4.12042 0
M  V30 4162 C 401.849 -4.67126 -2.33646 0
M  V30 4163 H 403.543 -2.79053 -1.08488 0
M  V30 4164 H 401.089 -1.34266 -0.520443 0
M  V30 4165 H 403.042 -2.36898 -3.48507 0
M  V30 4166 H 401.766 -1.21145 -3.03301 0
M  V30 4167 H 400.425 -3.0749 -1.99613 0
M  V30 4168 H 400.073 -2.45117 -4.39234 0
M  V30 4169 H 399.773 -4.18645 -4.12322 0
M  V30 4170 H 401.297 -3.6563 -4.89027 0
M  V30 4171 H 402.711 -4.89414 -2.98575 0
M  V30 4172 H 401.108 -5.47751 -2.45129 0
M  V30 4173 H 402.178 -4.67489 -1.28772 0
M  V30 4174 N 403.521 0.559213 -1.47345 0
M  V30 4175 C 404.454 1.68201 -1.5422 0
M  V30 4176 C 405.432 1.57742 -0.394497 0
M  V30 4177 O 406.616 1.78628 -0.60201 0
M  V30 4178 C 403.743 3.0643 -1.44285 0
M  V30 4179 C 402.789 3.3534 -2.63532 0
M  V30 4180 S 403.622 3.24816 -4.25741 0
M  V30 4181 C 404.778 4.65542 -4.18355 0
M  V30 4182 H 405.011 1.62114 -2.49211 0
M  V30 4183 H 402.544 0.739871 -1.35519 0
M  V30 4184 H 404.502 3.86164 -1.3924 0
M  V30 4185 H 403.163 3.09984 -0.506816 0
M  V30 4186 H 402.356 4.36107 -2.52639 0
M  V30 4187 H 401.958 2.63221 -2.65689 0
M  V30 4188 H 404.25 5.56449 -3.86485 0
M  V30 4189 H 405.193 4.81493 -5.19202 0
M  V30 4190 H 405.601 4.43495 -3.49246 0
M  V30 4191 N 404.999 1.35443 0.805782 0
M  V30 4192 C 406.247 1.28507 1.55982 0
M  V30 4193 C 406.568 -0.140046 1.94496 0
M  V30 4194 O 405.838 -1.07666 1.63661 0
M  V30 4195 H 404.418 0.472676 0.578434 0
M  V30 4196 H 407.08 1.69555 0.961098 0
M  V30 4197 H 406.176 1.90148 2.47488 0
M  V30 4198 N 406.477 -1.02803 1.19454 0
M  V30 4199 C 407.424 -2.11099 0.933046 0
M  V30 4200 C 408.394 -1.65571 -0.132447 0
M  V30 4201 O 409.579 -1.90797 0.00987576 0
M  V30 4202 C 406.719 -3.41763 0.478747 0
M  V30 4203 C 405.832 -4.00833 1.6111 0
M  V30 4204 C 404.967 -5.19511 1.10825 0
M  V30 4205 C 404.006 -5.70639 2.21445 0
M  V30 4206 N 403.143 -6.80589 1.72461 0
M  V30 4207 H 407.983 -2.32804 1.86028 0
M  V30 4208 H 405.52 -1.14179 0.927441 0
M  V30 4209 H 407.478 -4.16736 0.196745 0
M  V30 4210 H 406.108 -3.20166 -0.411493 0
M  V30 4211 H 405.16 -3.23066 2.00829 0
M  V30 4212 H 406.472 -4.34794 2.4445 0
M  V30 4213 H 405.626 -6.01645 0.781533 0
M  V30 4214 H 404.365 -4.87086 0.244606 0
M  V30 4215 H 403.37 -4.87116 2.54947 0
M  V30 4216 H 404.595 -6.05102 3.08267 0
M  V30 4217 H 402.541 -6.50016 0.884056 0
M  V30 4218 H 402.458 -7.13681 2.49389 0
M  V30 4219 H 403.726 -7.66317 1.42755 0
M  V30 4220 N 407.956 -0.998596 -1.21925 0
M  V30 4221 C 408.919 -0.558679 -2.22287 0
M  V30 4222 C 409.919 0.361525 -1.56683 0
M  V30 4223 O 411.109 0.152695 -1.73529 0
M  V30 4224 C 408.241 0.18661 -3.40389 0
M  V30 4225 H 409.434 -1.4463 -2.62721 0
M  V30 4226 H 406.987 -0.786413 -1.35075 0
M  V30 4227 H 407.722 1.08996 -3.05435 0
M  V30 4228 H 407.507 -0.474188 -3.89222 0
M  V30 4229 H 408.997 0.482367 -4.14805 0
M  V30 4230 N 409.434 1.37368 -0.772513 0
M  V30 4231 C 410.364 2.32856 -0.173304 0
M  V30 4232 C 411.345 1.55818 0.682262 0
M  V30 4233 O 412.53 1.84052 0.619566 0
M  V30 4234 C 409.66 3.40048 0.706007 0
M  V30 4235 C 408.614 4.27973 -0.0483144 0
M  V30 4236 C 407.94 5.26184 0.950491 0
M  V30 4237 C 409.24 5.07665 -1.22776 0
M  V30 4238 H 410.934 2.83217 -0.971002 0
M  V30 4239 H 408.48 1.3617 -0.468377 0
M  V30 4240 H 410.433 4.05827 1.13501 0
M  V30 4241 H 409.157 2.88214 1.53623 0
M  V30 4242 H 407.816 3.63726 -0.458107 0
M  V30 4243 H 407.464 4.7063 1.77529 0
M  V30 4244 H 407.164 5.85872 0.450314 0
M  V30 4245 H 408.688 5.94838 1.37842 0
M  V30 4246 H 410.102 5.66578 -0.875366 0
M  V30 4247 H 408.499 5.76681 -1.66007 0
M  V30 4248 H 409.569 4.40294 -2.03149 0
M  V30 4249 N 410.912 0.523116 1.48665 0
M  V30 4250 C 412.328 0.180511 1.58576 0
M  V30 4251 C 412.528 -1.31597 1.52592 0
M  V30 4252 O 411.584 -2.0937 1.4114 0
M  V30 4253 C 412.897 0.776949 2.90489 0
M  V30 4254 C 414.445 0.745058 3.04003 0
M  V30 4255 C 414.92 1.31995 4.38567 0
M  V30 4256 N 416.411 1.28162 4.45117 0
M  V30 4257 C 417.146 1.6964 5.47731 0
M  V30 4258 N 416.642 2.18816 6.57337 0
M  V30 4259 N 418.435 1.6092 5.38573 0
M  V30 4260 H 410.586 1.4958 1.50797 0
M  V30 4261 H 412.849 0.621772 0.715614 0
M  V30 4262 H 412.555 1.82732 3.00503 0
M  V30 4263 H 412.429 0.25007 3.7637 0
M  V30 4264 H 414.816 -0.296532 2.93606 0
M  V30 4265 H 414.897 1.30933 2.1975 0
M  V30 4266 H 414.541 2.36043 4.49718 0
M  V30 4267 H 414.471 0.731418 5.21496 0
M  V30 4268 H 416.962 0.92155 3.66491 0
M  V30 4269 H 417.275 2.48478 7.31764 0
M  V30 4270 H 415.62 2.22805 6.58318 0
M  V30 4271 H 418.811 1.22304 4.5184 0
M  V30 4272 H 418.984 1.93567 6.18414 0
M  V30 4273 N 412.39 -1.55475 0.257931 0
M  V30 4274 C 413.667 -1.91155 -0.414629 0
M  V30 4275 C 414.047 -1.18008 -1.75035 0
M  V30 4276 O 413.395 -0.301193 -2.26506 0
M  V30 4277 C 413.605 -3.44283 -0.571859 0
M  V30 4278 C 414.953 -4.15744 -0.862678 0
M  V30 4279 O 415.977 -3.50083 -0.657314 0
M  V30 4280 O 414.836 -5.31909 -1.2544 0
M  V30 4281 H 411.93 -0.796016 -0.22425 0
M  V30 4282 H 414.476 -1.66976 0.302814 0
M  V30 4283 H 413.248 -3.89558 0.368844 0
M  V30 4284 H 412.871 -3.7436 -1.33943 0
M  V30 4285 N 413.868 0.0150385 -1.57593 0
M  V30 4286 C 415.279 0.559832 -1.78109 0
M  V30 4287 C 415.63 1.74814 -0.890756 0
M  V30 4288 O 414.755 2.16216 -0.0892482 0
M  V30 4289 C 415.35 1.02238 -3.23006 0
M  V30 4290 C 413.909 1.51258 -3.44671 0
M  V30 4291 C 413.056 0.456955 -2.73509 0
M  V30 4292 H 416.007 -0.211169 -1.57289 0
M  V30 4293 H 416.028 1.88912 -3.30292 0
M  V30 4294 H 415.54 0.157302 -3.87781 0
M  V30 4295 H 413.641 2.39905 -2.8509 0
M  V30 4296 H 413.754 1.55042 -4.5332 0
M  V30 4297 H 412.118 0.915196 -2.37689 0
M  V30 4298 H 412.901 -0.398896 -3.40975 0
M  V30 4299 N 415.346 1.54954 0.287554 0
M  V30 4300 C 416.574 1.78881 1.03967 0
M  V30 4301 C 416.989 0.554894 1.80462 0
M  V30 4302 O 416.346 -0.475676 1.76192 0
M  V30 4303 C 416.397 3.00488 2.0097 0
M  V30 4304 O 416.118 4.19113 1.27577 0
M  V30 4305 C 417.619 3.36907 2.88112 0
M  V30 4306 H 414.839 0.596259 0.307761 0
M  V30 4307 H 417.383 2.01937 0.322749 0
M  V30 4308 H 415.538 2.79601 2.68145 0
M  V30 4309 H 415.952 4.87765 1.92835 0
M  V30 4310 H 417.426 4.25205 3.52001 0
M  V30 4311 H 417.903 2.55659 3.57121 0
M  V30 4312 H 418.509 3.60001 2.26449 0
M  V30 4313 N 416.824 -0.551391 1.4764 0
M  V30 4314 C 418.07 -1.31024 1.54792 0
M  V30 4315 C 418.403 -1.9304 0.211967 0
M  V30 4316 O 417.678 -1.78175 -0.77999 0
M  V30 4317 C 417.961 -2.41593 2.67029 0
M  V30 4318 C 417.814 -1.84408 4.10261 0
M  V30 4319 C 419.133 -3.43488 2.75143 0
M  V30 4320 H 416.252 -0.475031 0.563485 0
M  V30 4321 H 418.894 -0.616454 1.79722 0
M  V30 4322 H 417.044 -3.00772 2.45904 0
M  V30 4323 H 418.716 -1.29445 4.42766 0
M  V30 4324 H 416.959 -1.15051 4.18265 0
M  V30 4325 H 417.63 -2.64367 4.84576 0
M  V30 4326 H 420.106 -2.94236 2.94218 0
M  V30 4327 H 418.982 -4.18274 3.55441 0
M  V30 4328 H 419.243 -4.02703 1.82435 0
M  V30 4329 N 418.302 -1.35869 -0.798587 0
M  V30 4330 C 419.53 -1.32722 -1.58722 0
M  V30 4331 C 419.945 0.0935631 -1.88568 0
M  V30 4332 O 419.302 1.04784 -1.49421 0
M  V30 4333 C 419.353 -2.13974 -2.91371 0
M  V30 4334 O 419.074 -3.50514 -2.62815 0
M  V30 4335 C 420.575 -2.18504 -3.85708 0
M  V30 4336 H 417.795 -0.45562 -0.492596 0
M  V30 4337 H 420.339 -1.78837 -0.991843 0
M  V30 4338 H 418.494 -1.71438 -3.47402 0
M  V30 4339 H 418.908 -3.92806 -3.47568 0
M  V30 4340 H 420.382 -2.79732 -4.75872 0
M  V30 4341 H 420.859 -1.18597 -4.22885 0
M  V30 4342 H 421.465 -2.61236 -3.35612 0
M  V30 4343 N 419.78 1.02168 -1.19998 0
M  V30 4344 C 421.196 1.27969 -0.953737 0
M  V30 4345 C 421.396 1.98079 0.369703 0
M  V30 4346 O 420.452 2.27306 1.09947 0
M  V30 4347 C 421.765 2.11971 -2.13281 0
M  V30 4348 C 423.313 2.25255 -2.17323 0
M  V30 4349 C 423.788 3.12632 -3.34702 0
M  V30 4350 N 425.279 3.2022 -3.34684 0
M  V30 4351 C 426.014 3.88039 -4.22153 0
M  V30 4352 N 425.51 4.58027 -5.19791 0
M  V30 4353 N 427.303 3.84511 -4.10009 0
M  V30 4354 H 419.454 0.550794 -2.05134 0
M  V30 4355 H 421.717 0.305683 -0.897364 0
M  V30 4356 H 421.423 1.67785 -3.09097 0
M  V30 4357 H 421.297 3.12699 -2.10949 0
M  V30 4358 H 423.684 2.68667 -1.22073 0
M  V30 4359 H 423.765 1.24053 -2.23706 0
M  V30 4360 H 423.409 2.69926 -4.30235 0
M  V30 4361 H 423.339 4.13909 -3.25556 0
M  V30 4362 H 425.83 2.70382 -2.64012 0
M  V30 4363 H 426.143 5.07429 -5.82868 0
M  V30 4364 H 424.488 4.56869 -5.23733 0
M  V30 4365 H 427.679 3.28978 -3.33003 0
M  V30 4366 H 427.852 4.3709 -4.78389 0
M  V30 4367 N 421.258 1.00505 1.21394 0
M  V30 4368 C 422.674 0.717873 1.42544 0
M  V30 4369 C 422.874 -0.706936 1.88692 0
M  V30 4370 O 421.93 -1.47627 2.04847 0
M  V30 4371 C 423.243 1.73377 2.45684 0
M  V30 4372 C 424.791 1.75059 2.59467 0
M  V30 4373 C 425.266 2.75545 3.6584 0
M  V30 4374 N 426.757 2.74213 3.73311 0
M  V30 4375 C 427.492 3.48626 4.55245 0
M  V30 4376 N 426.988 4.32678 5.41075 0
M  V30 4377 N 428.781 3.37276 4.49668 0
M  V30 4378 H 420.932 1.92506 0.897503 0
M  V30 4379 H 423.195 0.830919 0.456375 0
M  V30 4380 H 422.901 2.75395 2.18748 0
M  V30 4381 H 422.775 1.53647 3.44489 0
M  V30 4382 H 425.162 0.737337 2.8574 0
M  V30 4383 H 425.243 1.98861 1.60897 0
M  V30 4384 H 424.887 3.77028 3.40313 0
M  V30 4385 H 424.817 2.49009 4.64007 0
M  V30 4386 H 427.308 2.13234 3.11993 0
M  V30 4387 H 427.621 4.86253 6.00648 0
M  V30 4388 H 425.966 4.3676 5.40616 0
M  V30 4389 H 429.157 2.71043 3.81646 0
M  V30 4390 H 429.33 3.95524 5.13288 0
M  V30 4391 N 422.737 -1.36956 0.779787 0
M  V30 4392 C 423.967 -2.03459 0.358877 0
M  V30 4393 C 424.375 -1.58939 -1.02641 0
M  V30 4394 O 423.718 -0.769777 -1.66794 0
M  V30 4395 C 423.78 -3.5796 0.332393 0
M  V30 4396 C 423.444 -4.25644 1.66362 0
M  V30 4397 C 424.441 -4.49205 2.61746 0
M  V30 4398 C 422.126 -4.63313 1.94027 0
M  V30 4399 C 424.12 -5.09503 3.82996 0
M  V30 4400 C 421.807 -5.2333 3.15546 0
M  V30 4401 C 422.805 -5.46363 4.0985 0
M  V30 4402 O 422.493 -6.05122 5.29228 0
M  V30 4403 H 422.225 -0.659767 0.147254 0
M  V30 4404 H 424.779 -1.76111 1.05708 0
M  V30 4405 H 423.009 -3.84388 -0.422237 0
M  V30 4406 H 424.698 -4.05852 -0.0625389 0
M  V30 4407 H 425.464 -4.20508 2.41657 0
M  V30 4408 H 421.343 -4.44715 1.21448 0
M  V30 4409 H 424.887 -5.27397 4.56617 0
M  V30 4410 H 420.784 -5.51451 3.35517 0
M  V30 4411 H 421.552 -6.23595 5.30161 0
M  V30 4412 N 424.215 -0.530993 -1.48385 0
M  V30 4413 C 425.445 -0.00133928 -2.066 0
M  V30 4414 C 425.853 1.28599 -1.38777 0
M  V30 4415 O 425.196 1.77599 -0.469495 0
M  V30 4416 C 425.258 0.292137 -3.58311 0
M  V30 4417 C 424.922 -0.901864 -4.48013 0
M  V30 4418 C 425.919 -1.80053 -4.87726 0
M  V30 4419 C 423.604 -1.10915 -4.89901 0
M  V30 4420 C 425.598 -2.89038 -5.68098 0
M  V30 4421 C 423.285 -2.20213 -5.70043 0
M  V30 4422 C 424.283 -3.09107 -6.0905 0
M  V30 4423 O 423.971 -4.16514 -6.87583 0
M  V30 4424 H 423.703 -0.0308475 -0.675296 0
M  V30 4425 H 426.257 -0.736335 -1.91748 0
M  V30 4426 H 424.487 1.08112 -3.7128 0
M  V30 4427 H 426.176 0.763994 -3.98645 0
M  V30 4428 H 426.942 -1.65234 -4.55986 0
M  V30 4429 H 422.821 -0.426498 -4.59023 0
M  V30 4430 H 426.365 -3.58451 -5.98464 0
M  V30 4431 H 422.262 -2.35016 -6.01197 0
M  V30 4432 H 423.03 -4.14237 -7.05939 0
M  V30 4433 N 425.693 1.55336 -0.266172 0
M  V30 4434 C 426.923 2.03506 0.356239 0
M  V30 4435 C 427.331 1.14426 1.50676 0
M  V30 4436 O 426.674 0.155043 1.83045 0
M  V30 4437 C 426.736 3.47848 0.90785 0
M  V30 4438 C 426.4 4.56861 -0.112888 0
M  V30 4439 C 427.397 5.11528 -0.929264 0
M  V30 4440 C 425.082 5.01704 -0.244546 0
M  V30 4441 C 427.076 6.09549 -1.86357 0
M  V30 4442 C 424.763 5.99553 -1.18234 0
M  V30 4443 C 425.761 6.53356 -1.99036 0
M  V30 4444 O 425.449 7.49293 -2.91231 0
M  V30 4445 H 425.181 0.670444 0.08649 0
M  V30 4446 H 427.735 2.01598 -0.39337 0
M  V30 4447 H 425.965 3.46967 1.70737 0
M  V30 4448 H 427.654 3.79407 1.44239 0
M  V30 4449 H 428.42 4.77701 -0.838237 0
M  V30 4450 H 424.299 4.59477 0.374359 0
M  V30 4451 H 427.843 6.51469 -2.49467 0
M  V30 4452 H 423.74 6.32799 -1.27421 0
M  V30 4453 H 424.508 7.66978 -2.8581 0
M  V30 4454 N 427.171 -0.0066808 1.57599 0
M  V30 4455 C 428.396 -0.707738 1.94951 0
M  V30 4456 C 428.821 -1.66882 0.867868 0
M  V30 4457 O 428.179 -1.80457 -0.17458 0
M  V30 4458 C 428.227 -1.42162 3.31394 0
M  V30 4459 O 427.331 -2.53578 3.25226 0
M  V30 4460 H 426.672 -0.188752 0.636607 0
M  V30 4461 H 429.202 0.0445193 2.04552 0
M  V30 4462 H 429.212 -1.78655 3.66806 0
M  V30 4463 H 427.887 -0.716903 4.09675 0
M  V30 4464 H 426.464 -2.19463 3.01481 0
M  V30 4465 N 428.649 -1.55105 -0.279332 0
M  V30 4466 C 429.898 -1.74618 -1.00952 0
M  V30 4467 C 430.211 -0.551096 -1.87676 0
M  V30 4468 O 431.417 -0.628507 -2.64125 0
M  V30 4469 C 429.873 -3.09025 -1.84476 0
M  V30 4470 C 429.481 -4.36081 -1.0265 0
M  V30 4471 C 431.225 -3.37891 -2.56963 0
M  V30 4472 C 429.132 -5.6153 -1.85576 0
M  V30 4473 H 428.062 -0.650868 -0.38064 0
M  V30 4474 H 430.713 -1.81569 -0.265475 0
M  V30 4475 H 429.095 -2.96095 -2.62952 0
M  V30 4476 H 430.269 -4.59909 -0.286354 0
M  V30 4477 H 428.584 -4.14312 -0.416464 0
M  V30 4478 H 431.181 -4.28822 -3.19399 0
M  V30 4479 H 431.524 -2.57737 -3.26921 0
M  V30 4480 H 432.057 -3.5189 -1.85522 0
M  V30 4481 H 428.796 -6.44413 -1.2005 0
M  V30 4482 H 428.316 -5.41854 -2.57204 0
M  V30 4483 H 429.995 -5.99594 -2.43096 0
M  V30 4484 N 430.127 0.543554 -1.4793 0
M  V30 4485 C 431.074 1.64942 -1.6144 0
M  V30 4486 C 432.044 1.59692 -0.456903 0
M  V30 4487 O 433.229 1.78321 -0.678688 0
M  V30 4488 C 430.369 3.03238 -1.64744 0
M  V30 4489 C 429.482 3.18823 -2.91506 0
M  V30 4490 C 428.617 4.47599 -2.86057 0
M  V30 4491 C 427.656 4.56664 -4.07584 0
M  V30 4492 N 426.793 5.76811 -4.00292 0
M  V30 4493 H 431.633 1.52733 -2.55884 0
M  V30 4494 H 429.17 0.7438 -1.2691 0
M  V30 4495 H 431.128 3.83339 -1.64641 0
M  V30 4496 H 429.758 3.1425 -0.738017 0
M  V30 4497 H 428.81 2.32064 -3.01414 0
M  V30 4498 H 430.122 3.21384 -3.81463 0
M  V30 4499 H 429.276 5.35975 -2.84281 0
M  V30 4500 H 428.015 4.47538 -1.93807 0
M  V30 4501 H 427.02 3.66697 -4.09651 0
M  V30 4502 H 428.245 4.58474 -5.00978 0
M  V30 4503 H 426.191 5.77673 -3.10853 0
M  V30 4504 H 426.108 5.80808 -4.8394 0
M  V30 4505 H 427.376 6.67512 -4.02553 0
M  V30 4506 N 431.605 1.3629 0.791371 0
M  V30 4507 C 432.882 1.20962 1.53712 0
M  V30 4508 C 433.262 -0.205021 2.10102 0
M  V30 4509 O 432.61 -1.21042 1.93807 0
M  V30 4510 C 432.82 2.29002 2.63361 0
M  V30 4511 C 434.168 2.65572 3.31295 0
M  V30 4512 O 435.192 2.2803 2.73643 0
M  V30 4513 O 434.051 3.3018 4.35481 0
M  V30 4514 H 431.145 0.47086 0.679867 0
M  V30 4515 H 433.691 1.48016 0.830021 0
M  V30 4516 H 432.463 3.2382 2.19674 0
M  V30 4517 H 432.086 2.03303 3.41692 0
M  V30 4518 N 433.083 -1.0153 1.20538 0
M  V30 4519 C 434.332 -1.74558 1.01057 0
M  V30 4520 C 434.645 -1.90168 -0.457756 0
M  V30 4521 O 435.851 -2.60301 -0.771722 0
M  V30 4522 C 434.307 -3.13963 1.75941 0
M  V30 4523 C 433.915 -3.06361 3.26875 0
M  V30 4524 C 435.659 -3.91191 1.64832 0
M  V30 4525 C 433.566 -4.40782 3.94291 0
M  V30 4526 H 432.496 -0.654417 0.374505 0
M  V30 4527 H 435.147 -1.13521 1.44171 0
M  V30 4528 H 433.529 -3.75549 1.25614 0
M  V30 4529 H 434.703 -2.54074 3.84425 0
M  V30 4530 H 433.018 -2.42625 3.38411 0
M  V30 4531 H 435.615 -4.90644 2.12539 0
M  V30 4532 H 435.958 -4.11884 0.604745 0
M  V30 4533 H 436.491 -3.36236 2.12579 0
M  V30 4534 H 433.23 -4.25292 4.98805 0
M  V30 4535 H 432.75 -4.9307 3.41529 0
M  V30 4536 H 434.429 -5.09621 3.98617 0
M  V30 4537 N 434.561 -1.01147 -1.20859 0
M  V30 4538 C 435.786 -0.716698 -1.94623 0
M  V30 4539 C 436.211 0.715415 -1.73964 0
M  V30 4540 O 435.569 1.49157 -1.03062 0
M  V30 4541 C 435.617 -1.0513 -3.44935 0
M  V30 4542 O 434.721 -0.160131 -4.12089 0
M  V30 4543 H 434.062 -0.266404 -0.608214 0
M  V30 4544 H 436.592 -1.35346 -1.53436 0
M  V30 4545 H 436.602 -1.00086 -3.95533 0
M  V30 4546 H 435.277 -2.09475 -3.59295 0
M  V30 4547 H 433.854 -0.267657 -3.71938 0
M  V30 4548 N 436.039 1.36541 -0.78704 0
M  V30 4549 C 437.288 1.98552 -0.35494 0
M  V30 4550 C 437.601 1.63171 1.07864 0
M  V30 4551 O 438.807 2.18399 1.61289 0
M  V30 4552 C 437.263 3.55136 -0.583671 0
M  V30 4553 C 436.871 3.99444 -2.02851 0
M  V30 4554 C 438.615 4.2395 -0.215957 0
M  V30 4555 C 436.522 5.48796 -2.20403 0
M  V30 4556 H 435.452 0.742888 -0.128972 0
M  V30 4557 H 438.103 1.5587 -0.968337 0
M  V30 4558 H 436.485 3.95875 0.0994046 0
M  V30 4559 H 437.659 3.6991 -2.74779 0
M  V30 4560 H 435.974 3.43459 -2.35425 0
M  V30 4561 H 438.571 5.33709 -0.325405 0
M  V30 4562 H 438.914 4.07827 0.835646 0
M  V30 4563 H 439.447 3.88565 -0.852175 0
M  V30 4564 H 436.186 5.69864 -3.23937 0
M  V30 4565 H 435.706 5.79964 -1.52977 0
M  V30 4566 H 437.385 6.14986 -2.01002 0
M  V30 4567 N 437.518 0.538854 1.48102 0
M  V30 4568 C 438.766 0.00798599 2.02098 0
M  V30 4569 C 439.087 -1.33922 1.41739 0
M  V30 4570 O 438.357 -1.86932 0.585934 0
M  V30 4571 H 436.937 -3.62179e-05 0.747 0
M  V30 4572 H 439.599 0.7047 1.81714 0
M  V30 4573 H 438.695 -0.0937672 3.11959 0
M  V30 4574 N 438.996 -1.55193 0.274407 0
M  V30 4575 C 440.244 -1.99187 -0.341902 0
M  V30 4576 C 440.565 -1.16422 -1.56431 0
M  V30 4577 O 439.835 -0.253573 -1.94252 0
M  V30 4578 H 438.415 -0.735721 -0.129317 0
M  V30 4579 H 441.077 -1.91168 0.379578 0
M  V30 4580 H 440.173 -3.05629 -0.632253 0
M  V30 4581 N 440.474 -0.00167713 -1.576 0
M  V30 4582 C 441.89 0.354422 -1.55615 0
M  V30 4583 C 442.09 1.74679 -1.00447 0
M  V30 4584 O 441.146 2.4428 -0.639022 0
M  V30 4585 C 442.459 0.22812 -2.99833 0
M  V30 4586 C 444.007 0.302934 -3.11531 0
M  V30 4587 C 444.482 0.205737 -4.57538 0
M  V30 4588 N 445.973 0.263584 -4.62449 0
M  V30 4589 C 446.708 0.211742 -5.73009 0
M  V30 4590 N 446.204 0.110399 -6.92712 0
M  V30 4591 N 447.997 0.263729 -5.61481 0
M  V30 4592 H 440.148 -0.912498 -1.918 0
M  V30 4593 H 442.411 -0.349928 -0.881053 0
M  V30 4594 H 442.117 -0.729934 -3.44042 0
M  V30 4595 H 441.991 1.00951 -3.6344 0
M  V30 4596 H 444.378 1.25143 -2.67251 0
M  V30 4597 H 444.459 -0.508357 -2.50698 0
M  V30 4598 H 444.103 -0.739225 -5.02492 0
M  V30 4599 H 444.033 1.03554 -5.16318 0
M  V30 4600 H 446.524 0.343173 -3.76339 0
M  V30 4601 H 446.837 0.0767828 -7.72762 0
M  V30 4602 H 445.182 0.0760025 -6.94958 0
M  V30 4603 H 448.373 0.34111 -4.66855 0
M  V30 4604 H 448.546 0.219862 -6.47627 0
M  V30 4605 N 441.952 1.55251 0.271103 0
M  V30 4606 C 443.192 1.77698 1.01008 0
M  V30 4607 C 443.556 0.567246 1.83429 0
M  V30 4608 O 444.757 0.670013 2.60316 0
M  V30 4609 C 443.028 3.04715 1.86772 0
M  V30 4610 S 444.587 3.48289 2.66909 0
M  V30 4611 H 441.405 0.624343 0.340172 0
M  V30 4612 H 444.007 1.9348 0.280315 0
M  V30 4613 H 442.711 3.90853 1.25149 0
M  V30 4614 H 442.242 2.91604 2.64066 0
M  V30 4615 H 444.257 3.07712 3.89266 0
M  V30 4616 N 443.43 -0.535701 1.48216 0
M  V30 4617 C 444.676 -1.29375 1.56173 0
M  V30 4618 C 445.009 -1.92804 0.232429 0
M  V30 4619 O 444.284 -1.78992 -0.761048 0
M  V30 4620 C 444.567 -2.38747 2.69577 0
M  V30 4621 C 444.42 -1.80046 4.12193 0
M  V30 4622 C 445.739 -3.40551 2.78771 0
M  V30 4623 H 442.858 -0.469027 0.568491 0
M  V30 4624 H 445.5 -0.597358 1.80365 0
M  V30 4625 H 443.65 -2.98147 2.4908 0
M  V30 4626 H 445.322 -1.24742 4.44114 0
M  V30 4627 H 443.565 -1.10609 4.19462 0
M  V30 4628 H 444.236 -2.59212 4.87353 0
M  V30 4629 H 446.712 -2.91099 2.97322 0
M  V30 4630 H 445.588 -4.1448 3.59857 0
M  V30 4631 H 445.849 -4.00746 1.86696 0
M  V30 4632 N 444.908 -1.36708 -0.784132 0
M  V30 4633 C 446.148 -1.32618 -1.55537 0
M  V30 4634 C 446.512 0.0920681 -1.91779 0
M  V30 4635 O 447.713 0.257573 -2.67563 0
M  V30 4636 C 445.984 -2.22788 -2.79464 0
M  V30 4637 S 447.543 -2.36432 -3.69656 0
M  V30 4638 H 444.361 -0.470973 -0.53264 0
M  V30 4639 H 446.963 -1.72333 -0.92312 0
M  V30 4640 H 445.667 -3.24774 -2.50899 0
M  V30 4641 H 445.198 -1.84112 -3.47658 0
M  V30 4642 H 447.213 -1.56573 -4.7085 0
M  V30 4643 N 446.386 1.0089 -1.21074 0
M  V30 4644 C 447.336 2.0799 -0.934034 0
M  V30 4645 C 448.32 1.60529 0.10919 0
M  V30 4646 O 449.512 1.76722 -0.0992198 0
M  V30 4647 C 446.641 3.39693 -0.496334 0
M  V30 4648 C 445.727 3.93833 -1.57341 0
M  V30 4649 N 446.118 4.21388 -2.7976 0
M  V30 4650 C 444.416 4.22067 -1.44137 0
M  V30 4651 C 445.117 4.65156 -3.49292 0
M  V30 4652 N 444.093 4.67895 -2.76722 0
M  V30 4653 H 447.895 2.27213 -1.86417 0
M  V30 4654 H 445.409 1.18927 -1.10589 0
M  V30 4655 H 447.406 4.15962 -0.279471 0
M  V30 4656 H 446.066 3.21879 0.427084 0
M  V30 4657 H 447.077 4.10061 -3.1634 0
M  V30 4658 H 443.754 4.1341 -0.582947 0
M  V30 4659 H 445.144 4.95231 -4.54088 0
M  V30 4660 N 447.864 1.01787 1.20321 0
M  V30 4661 C 449.112 0.706538 1.89347 0
M  V30 4662 C 449.433 -0.766289 1.79313 0
M  V30 4663 O 448.703 -1.55126 1.19635 0
M  V30 4664 H 447.283 0.258348 0.700903 0
M  V30 4665 H 449.945 1.28974 1.46122 0
M  V30 4666 H 449.041 0.991066 2.95946 0
M  V30 4667 N 449.342 -1.36122 0.79427 0
M  V30 4668 C 450.292 -2.27373 0.169017 0
M  V30 4669 C 451.276 -1.4719 -0.649913 0
M  V30 4670 O 452.468 -1.69518 -0.50919 0
M  V30 4671 C 449.597 -3.36264 -0.691455 0
M  V30 4672 C 448.683 -4.2388 0.13653 0
M  V30 4673 N 449.074 -4.91519 1.19345 0
M  V30 4674 C 447.372 -4.45921 -0.0838499 0
M  V30 4675 C 448.073 -5.56369 1.6979 0
M  V30 4676 N 447.049 -5.34204 1.00634 0
M  V30 4677 H 450.851 -2.77154 0.977897 0
M  V30 4678 H 448.365 -1.49504 0.634208 0
M  V30 4679 H 450.362 -4.00572 -1.15534 0
M  V30 4680 H 449.022 -2.88037 -1.49883 0
M  V30 4681 H 450.033 -4.9334 1.57594 0
M  V30 4682 H 446.71 -4.08518 -0.861341 0
M  V30 4683 H 448.1 -6.20368 2.58055 0
M  V30 4684 N 450.82 -0.546701 -1.47814 0
M  V30 4685 C 451.783 0.196287 -2.28358 0
M  V30 4686 C 452.783 0.852437 -1.36346 0
M  V30 4687 O 453.973 0.709913 -1.59078 0
M  V30 4688 C 451.105 1.28579 -3.15722 0
M  V30 4689 H 452.298 -0.511086 -2.95513 0
M  V30 4690 H 449.851 -0.303248 -1.5333 0
M  V30 4691 H 450.586 2.0259 -2.53235 0
M  V30 4692 H 450.371 0.820229 -3.83425 0
M  V30 4693 H 451.861 1.80793 -3.76435 0
M  V30 4694 N 452.299 1.55045 -0.282633 0
M  V30 4695 C 453.576 1.9179 0.384166 0
M  V30 4696 C 453.956 1.20778 1.73136 0
M  V30 4697 O 453.304 0.33719 2.25998 0
M  V30 4698 C 453.514 3.45149 0.517014 0
M  V30 4699 C 454.862 4.17064 0.796427 0
M  V30 4700 O 455.886 3.51084 0.601535 0
M  V30 4701 O 454.745 5.33837 1.16962 0
M  V30 4702 H 451.839 0.799483 0.211558 0
M  V30 4703 H 454.385 1.66474 -0.32934 0
M  V30 4704 H 453.157 3.88922 -0.430772 0
M  V30 4705 H 452.78 3.76443 1.2797 0
M  V30 4706 N 453.777 0.010035 1.57597 0
M  V30 4707 C 454.74 -0.963029 2.07986 0
M  V30 4708 C 455.74 -1.26619 0.991173 0
M  V30 4709 O 456.93 -1.2097 1.25347 0
M  V30 4710 C 454.062 -2.2851 2.52974 0
M  V30 4711 H 455.255 -0.526971 2.95234 0
M  V30 4712 H 452.808 -0.237639 1.54483 0
M  V30 4713 H 453.543 -2.76784 1.69 0
M  V30 4714 H 453.328 -2.07824 3.32493 0
M  V30 4715 H 454.818 -2.98294 2.9225 0
M  V30 4716 N 455.255 -1.55392 -0.262866 0
M  V30 4717 C 456.495 -1.78231 -1.00064 0
M  V30 4718 C 456.859 -0.576966 -1.83126 0
M  V30 4719 O 458.06 -0.683809 -2.59957 0
M  V30 4720 C 456.331 -3.05701 -1.85153 0
M  V30 4721 S 457.89 -3.49699 -2.65058 0
M  V30 4722 H 454.708 -0.626138 -0.336856 0
M  V30 4723 H 457.31 -1.93626 -0.27005 0
M  V30 4724 H 456.014 -3.91511 -1.23074 0
M  V30 4725 H 455.545 -2.93 -2.62515 0
M  V30 4726 H 457.56 -3.09772 -3.87629 0
M  V30 4727 N 456.733 0.527833 -1.48498 0
M  V30 4728 C 458.01 1.28905 -1.47115 0
M  V30 4729 C 458.39 2.10297 -0.184007 0
M  V30 4730 O 457.738 2.12728 0.834218 0
M  V30 4731 C 457.948 2.16866 -2.73441 0
M  V30 4732 C 459.296 2.76936 -3.21857 0
M  V30 4733 O 460.32 2.27152 -2.74373 0
M  V30 4734 O 459.179 3.67496 -4.04486 0
M  V30 4735 H 456.273 0.581918 -0.587623 0
M  V30 4736 H 458.819 0.544311 -1.60734 0
M  V30 4737 H 457.591 1.56521 -3.58632 0
M  V30 4738 H 457.214 2.98583 -2.62553 0
M  V30 4739 N 458.211 1.37122 0.776871 0
M  V30 4740 C 459.174 1.32301 1.8716 0
M  V30 4741 C 460.174 0.228099 1.59174 0
M  V30 4742 O 461.364 0.483642 1.67352 0
M  V30 4743 C 458.496 1.054 3.24197 0
M  V30 4744 H 459.689 2.29673 1.92848 0
M  V30 4745 H 457.242 1.22077 0.97606 0
M  V30 4746 H 457.977 0.0853872 3.24188 0
M  V30 4747 H 457.762 1.84648 3.45901 0
M  V30 4748 H 459.252 1.04664 4.04271 0
M  V30 4749 N 459.689 -1.00246 1.21608 0
M  V30 4750 C 460.636 -2.09073 0.977613 0
M  V30 4751 C 461.606 -1.65815 -0.097297 0
M  V30 4752 O 462.791 -1.90734 0.0503445 0
M  V30 4753 C 459.931 -3.40671 0.551133 0
M  V30 4754 C 459.044 -3.97326 1.69576 0
M  V30 4755 C 458.179 -5.17043 1.2182 0
M  V30 4756 C 457.218 -5.65813 2.335 0
M  V30 4757 N 456.355 -6.76778 1.86859 0
M  V30 4758 H 461.195 -2.28806 1.90924 0
M  V30 4759 H 458.732 -1.12186 0.951452 0
M  V30 4760 H 460.69 -4.16225 0.285097 0
M  V30 4761 H 459.32 -3.20967 -0.343489 0
M  V30 4762 H 458.372 -3.18734 2.07637 0
M  V30 4763 H 459.684 -4.29511 2.53617 0
M  V30 4764 H 458.838 -5.99852 0.908975 0
M  V30 4765 H 457.577 -4.86458 0.347869 0
M  V30 4766 H 456.582 -4.81599 2.65222 0
M  V30 4767 H 457.807 -5.98427 3.21033 0
M  V30 4768 H 455.753 -6.47994 1.02174 0
M  V30 4769 H 455.67 -7.08231 2.64471 0
M  V30 4770 H 456.938 -7.63116 1.58978 0
M  V30 4771 N 461.167 -1.02423 -1.1978 0
M  V30 4772 C 462.444 -0.632802 -1.85081 0
M  V30 4773 C 462.824 0.888745 -1.9148 0
M  V30 4774 O 462.172 1.78357 -1.42832 0
M  V30 4775 C 462.382 -1.28947 -3.24305 0
M  V30 4776 C 463.73 -1.40976 -4.00513 0
M  V30 4777 O 464.754 -1.24628 -3.33686 0
M  V30 4778 O 463.613 -1.67467 -5.20209 0
M  V30 4779 H 460.707 -0.219348 -0.79738 0
M  V30 4780 H 463.253 -1.12209 -1.27307 0
M  V30 4781 H 462.025 -2.3288 -3.14456 0
M  V30 4782 H 461.648 -0.787748 -3.89718 0
M  V30 4783 N 462.645 1.35699 -0.801477 0
M  V30 4784 C 464.056 1.81415 -0.441073 0
M  V30 4785 C 464.407 1.66595 1.03636 0
M  V30 4786 O 463.532 1.19369 1.80499 0
M  V30 4787 C 464.127 3.29369 -0.793819 0
M  V30 4788 C 462.686 3.73248 -0.486083 0
M  V30 4789 C 461.833 2.57775 -1.02213 0
M  V30 4790 H 464.784 1.23749 -0.993572 0
M  V30 4791 H 464.805 3.80395 -0.0894158 0
M  V30 4792 H 464.317 3.40123 -1.86917 0
M  V30 4793 H 462.418 3.68046 0.580735 0
M  V30 4794 H 462.531 4.68222 -1.01513 0
M  V30 4795 H 460.895 2.50788 -0.444712 0
M  V30 4796 H 461.678 2.71309 -2.10348 0
M  V30 4797 N 464.123 0.554532 1.47522 0
M  V30 4798 C 465.351 0.034257 2.06872 0
M  V30 4799 C 465.766 -1.25826 1.40759 0
M  V30 4800 O 465.123 -1.75425 0.503217 0
M  V30 4801 C 465.174 -0.167827 3.6111 0
M  V30 4802 O 464.895 1.07351 4.24744 0
M  V30 4803 C 466.396 -0.72569 4.3732 0
M  V30 4804 H 463.616 0.0446275 0.669514 0
M  V30 4805 H 466.16 0.767181 1.89564 0
M  V30 4806 H 464.315 -0.850872 3.7794 0
M  V30 4807 H 464.729 0.869563 5.17242 0
M  V30 4808 H 466.203 -0.816394 5.45929 0
M  V30 4809 H 466.68 -1.73635 4.0342 0
M  V30 4810 H 467.286 -0.0784292 4.25228 0
M  V30 4811 N 465.601 -1.54893 0.290851 0
M  V30 4812 C 466.878 -1.91991 -0.373989 0
M  V30 4813 C 467.258 -1.21694 -1.72493 0
M  V30 4814 O 466.606 -0.34917 -2.25816 0
M  V30 4815 C 466.816 -3.45419 -0.498703 0
M  V30 4816 C 468.164 -4.1748 -0.774298 0
M  V30 4817 O 469.188 -3.51398 -0.582908 0
M  V30 4818 O 468.047 -5.3445 -1.14129 0
M  V30 4819 H 465.141 -0.800593 -0.207315 0
M  V30 4820 H 467.687 -1.66297 0.338164 0
M  V30 4821 H 466.459 -3.88688 0.451392 0
M  V30 4822 H 466.082 -3.77117 -1.25972 0
M  V30 4823 N 467.08 -0.0183926 -1.57589 0
M  V30 4824 C 468.491 0.521927 -1.79256 0
M  V30 4825 C 468.842 1.72885 -0.927636 0
M  V30 4826 O 467.967 2.15978 -0.135091 0
M  V30 4827 C 468.562 0.953632 -3.25102 0
M  V30 4828 C 467.121 1.43913 -3.47801 0
M  V30 4829 C 466.268 0.398837 -2.74417 0
M  V30 4830 H 469.219 -0.244485 -1.56805 0
M  V30 4831 H 469.24 1.81863 -3.34224 0
M  V30 4832 H 468.752 0.0750123 -3.88028 0
M  V30 4833 H 466.853 2.33804 -2.90115 0
M  V30 4834 H 466.966 1.45391 -4.56507 0
M  V30 4835 H 465.33 0.864572 -2.39577 0
M  V30 4836 H 466.113 -0.471132 -3.40052 0
M  V30 4837 N 468.558 1.5553 0.254621 0
M  V30 4838 C 469.805 1.77 0.983736 0
M  V30 4839 C 470.133 0.58133 1.85609 0
M  V30 4840 O 469.388 -0.435621 1.9079 0
M  V30 4841 C 469.687 3.03891 1.88109 0
M  V30 4842 C 469.353 4.35597 1.16472 0
M  V30 4843 C 468.015 4.7139 0.966714 0
M  V30 4844 C 470.367 5.1705 0.656387 0
M  V30 4845 C 467.695 5.86176 0.247942 0
M  V30 4846 C 470.047 6.32581 -0.0488807 0
M  V30 4847 C 468.711 6.67 -0.258438 0
M  V30 4848 H 467.981 0.647688 0.359974 0
M  V30 4849 H 470.628 1.89802 0.254463 0
M  V30 4850 H 468.933 2.86068 2.67717 0
M  V30 4851 H 470.63 3.17701 2.44677 0
M  V30 4852 H 467.22 4.07475 1.32899 0
M  V30 4853 H 471.404 4.8986 0.796933 0
M  V30 4854 H 466.66 6.11354 0.075035 0
M  V30 4855 H 470.834 6.94942 -0.450444 0
M  V30 4856 H 468.461 7.55793 -0.817358 0
M  V30 4857 N 470.036 -0.519951 1.48776 0
M  V30 4858 C 471.452 -0.849418 1.35119 0
M  V30 4859 C 471.652 -1.98077 0.36982 0
M  V30 4860 O 470.708 -2.51664 -0.205359 0
M  V30 4861 C 472.021 -1.20748 2.75391 0
M  V30 4862 C 473.569 -1.31679 2.83954 0
M  V30 4863 C 474.044 -1.70824 4.24951 0
M  V30 4864 N 475.535 -1.77908 4.27672 0
M  V30 4865 C 476.27 -2.09603 5.33717 0
M  V30 4866 N 475.766 -2.39652 6.5003 0
M  V30 4867 N 477.559 -2.10694 5.21119 0
M  V30 4868 H 469.71 0.226377 2.1119 0
M  V30 4869 H 471.973 0.0386519 0.947212 0
M  V30 4870 H 471.679 -0.449703 3.48813 0
M  V30 4871 H 471.553 -2.15534 3.09556 0
M  V30 4872 H 473.94 -2.06532 2.10781 0
M  V30 4873 H 474.021 -0.3499 2.53396 0
M  V30 4874 H 473.665 -0.965282 4.98643 0
M  V30 4875 H 473.595 -2.6858 4.52959 0
M  V30 4876 H 476.086 -1.56923 3.43779 0
M  V30 4877 H 476.399 -2.6297 7.26682 0
M  V30 4878 H 474.744 -2.37149 6.53288 0
M  V30 4879 H 477.935 -1.86682 4.29264 0
M  V30 4880 H 478.108 -2.35062 6.03863 0
M  V30 4881 N 471.514 -1.37532 -0.769588 0
M  V30 4882 C 472.444 -1.36172 -1.89682 0
M  V30 4883 C 473.425 -0.23001 -1.68538 0
M  V30 4884 O 474.61 -0.43069 -1.89364 0
M  V30 4885 C 471.74 -1.1701 -3.26995 0
M  V30 4886 C 470.694 -2.27216 -3.62708 0
M  V30 4887 C 470.02 -1.93174 -4.98586 0
M  V30 4888 C 471.32 -3.6941 -3.69234 0
M  V30 4889 H 473.014 -2.30499 -1.91078 0
M  V30 4890 H 470.56 -1.10953 -0.917902 0
M  V30 4891 H 472.513 -1.14688 -4.05493 0
M  V30 4892 H 471.237 -0.191395 -3.26039 0
M  V30 4893 H 469.896 -2.28697 -2.86519 0
M  V30 4894 H 469.544 -0.938281 -4.94171 0
M  V30 4895 H 469.244 -2.66973 -5.23449 0
M  V30 4896 H 470.768 -1.92443 -5.79481 0
M  V30 4897 H 472.182 -3.70047 -4.37879 0
M  V30 4898 H 470.579 -4.4228 -4.05597 0
M  V30 4899 H 471.649 -4.0288 -2.69844 0
M  V30 4900 N 472.992 0.995999 -1.22138 0
M  V30 4901 C 473.924 2.08745 -0.946485 0
M  V30 4902 C 474.937 1.62633 0.0737356 0
M  V30 4903 O 476.126 1.77782 -0.159886 0
M  V30 4904 C 473.226 3.36516 -0.401305 0
M  V30 4905 C 472.399 4.11672 -1.47801 0
M  V30 4906 C 471.458 5.17728 -0.940461 0
M  V30 4907 O 470.484 5.45482 -1.62596 0
M  V30 4908 N 471.686 5.80005 0.239723 0
M  V30 4909 H 474.451 2.32908 -1.88611 0
M  V30 4910 H 472.012 1.16152 -1.12785 0
M  V30 4911 H 474.004 4.04691 -0.0270837 0
M  V30 4912 H 472.574 3.0944 0.443354 0
M  V30 4913 H 471.794 3.38171 -2.02568 0
M  V30 4914 H 473.082 4.58657 -2.20253 0
M  V30 4915 H 472.48 5.5982 0.813518 0
M  V30 4916 H 471.037 6.4943 0.555361 0
M  V30 4917 N 474.47 1.03057 1.19235 0
M  V30 4918 C 475.71 0.736757 1.9066 0
M  V30 4919 C 476.074 -0.721521 1.77927 0
M  V30 4920 O 477.275 -1.12849 2.43964 0
M  V30 4921 C 475.546 1.17755 3.37444 0
M  V30 4922 S 477.105 1.00783 4.27069 0
M  V30 4923 H 473.923 0.268174 0.658486 0
M  V30 4924 H 476.525 1.32076 1.4414 0
M  V30 4925 H 475.229 2.23448 3.44237 0
M  V30 4926 H 474.76 0.586912 3.88997 0
M  V30 4927 H 476.775 -0.0806356 4.96134 0
M  V30 4928 N 475.948 -1.35272 0.808662 0
M  V30 4929 C 477.176 -2.02946 0.402537 0
M  V30 4930 C 477.591 -1.60937 -0.987147 0
M  V30 4931 O 476.948 -0.807917 -1.63643 0
M  V30 4932 C 476.999 -3.58317 0.47868 0
M  V30 4933 O 476.72 -3.98799 1.81358 0
M  V30 4934 C 478.221 -4.43251 0.0656281 0
M  V30 4935 H 475.441 -0.650831 0.163279 0
M  V30 4936 H 477.985 -1.72849 1.09286 0
M  V30 4937 H 476.14 -3.87055 -0.163415 0
M  V30 4938 H 476.554 -4.93451 1.77781 0
M  V30 4939 H 478.028 -5.51738 0.170017 0
M  V30 4940 H 478.505 -4.27913 -0.989278 0
M  V30 4941 H 479.111 -4.19813 0.68096 0
M  V30 4942 N 477.426 -0.562348 -1.47226 0
M  V30 4943 C 478.666 -0.0426374 -2.04356 0
M  V30 4944 C 479.03 1.28487 -1.42671 0
M  V30 4945 O 480.231 1.89259 -1.90878 0
M  V30 4946 C 478.502 0.0433826 -3.57374 0
M  V30 4947 S 480.061 0.508472 -4.35844 0
M  V30 4948 H 476.879 -0.0276234 -0.710463 0
M  V30 4949 H 479.481 -0.750245 -1.80531 0
M  V30 4950 H 478.185 -0.927072 -3.99792 0
M  V30 4951 H 477.716 0.774387 -3.85703 0
M  V30 4952 H 479.731 1.76719 -4.63665 0
M  V30 4953 N 478.904 1.54736 -0.299062 0
M  V30 4954 C 479.836 2.20891 0.61153 0
M  V30 4955 C 480.849 1.20104 1.09904 0
M  V30 4956 O 482.038 1.46707 1.01683 0
M  V30 4957 C 479.138 2.84018 1.84897 0
M  V30 4958 C 478.311 4.10719 1.50428 0
M  V30 4959 C 477.37 4.57667 2.59667 0
M  V30 4960 O 476.396 5.2291 2.24842 0
M  V30 4961 N 477.598 4.29821 3.90172 0
M  V30 4962 H 480.363 2.99666 0.0452001 0
M  V30 4963 H 477.924 1.61446 -0.121178 0
M  V30 4964 H 479.916 3.1236 2.5732 0
M  V30 4965 H 478.486 2.09095 2.32375 0
M  V30 4966 H 477.706 3.89408 0.612781 0
M  V30 4967 H 478.994 4.93223 1.24934 0
M  V30 4968 H 478.392 3.77549 4.21276 0
M  V30 4969 H 476.949 4.62877 4.58899 0
M  V30 4970 N 480.382 0.0267497 1.57577 0
M  V30 4971 C 481.332 -0.965003 2.06571 0
M  V30 4972 C 482.316 -1.28694 0.965746 0
M  V30 4973 O 483.508 -1.27345 1.22932 0
M  V30 4974 C 480.637 -2.24821 2.59443 0
M  V30 4975 C 479.723 -1.95474 3.76365 0
M  V30 4976 N 480.114 -1.36387 4.87065 0
M  V30 4977 C 478.412 -2.25478 3.84806 0
M  V30 4978 C 479.113 -1.24119 5.68304 0
M  V30 4979 N 478.089 -1.7359 5.15138 0
M  V30 4980 H 481.891 -0.503095 2.89562 0
M  V30 4981 H 479.405 -0.178322 1.61418 0
M  V30 4982 H 481.402 -2.9674 2.92833 0
M  V30 4983 H 480.062 -2.7164 1.77881 0
M  V30 4984 H 481.073 -1.03919 5.07367 0
M  V30 4985 H 477.75 -2.74987 3.14147 0
M  V30 4986 H 479.14 -0.784504 6.67304 0
M  V30 4987 N 481.861 -1.55662 -0.24637 0
M  V30 4988 C 482.809 -1.91186 -1.3248 0
M  V30 4989 C 483.803 -0.790996 -1.49799 0
M  V30 4990 O 485.009 -0.975617 -1.51267 0
M  V30 4991 H 481.384 -0.607207 -0.443626 0
M  V30 4992 H 483.355 -2.81221 -0.997853 0
M  V30 4993 C 482.104 -2.22349 -2.67313 0
M  V30 4994 H 481.427 -3.08097 -2.54786 0
M  V30 4995 H 482.867 -2.51107 -3.41645 0
M  V30 4996 C 481.326 -1.04001 -3.20446 0
M  V30 4997 O 481.856 -0.28828 -4.00664 0
M  V30 4998 N 480.062 -0.830494 -2.7848 0
M  V30 4999 H 479.609 -1.4435 -2.13356 0
M  V30 5000 H 479.567 -0.0403258 -3.14374 0
M  V30 5001 N 483.339 0.512053 -1.4905 0
M  V30 5002 C 484.567 1.29116 -1.61669 0
M  V30 5003 C 484.982 1.86655 -0.283787 0
M  V30 5004 O 484.339 1.67293 0.729331 0
M  V30 5005 C 484.39 2.4293 -2.67707 0
M  V30 5006 O 484.111 1.87758 -3.95826 0
M  V30 5007 C 485.612 3.34476 -2.90931 0
M  V30 5008 H 482.832 0.392009 -0.544583 0
M  V30 5009 H 485.376 0.615881 -1.95006 0
M  V30 5010 H 483.531 3.06308 -2.37179 0
M  V30 5011 H 483.945 2.62393 -4.54148 0
M  V30 5012 H 485.419 4.10642 -3.68886 0
M  V30 5013 H 485.896 3.90801 -2.00427 0
M  V30 5014 H 486.502 2.76874 -3.22832 0
M  V30 5015 N 484.817 1.37938 0.762283 0
M  V30 5016 C 486.057 1.35076 1.53407 0
M  V30 5017 C 486.421 -0.061546 1.91901 0
M  V30 5018 O 487.622 -0.214973 2.67939 0
M  V30 5019 C 485.893 2.27206 2.75884 0
M  V30 5020 S 487.452 2.42283 3.65848 0
M  V30 5021 H 484.27 0.479387 0.52508 0
M  V30 5022 H 486.872 1.7378 0.895586 0
M  V30 5023 H 485.576 3.28724 2.457 0
M  V30 5024 H 485.107 1.8962 3.44685 0
M  V30 5025 H 487.122 1.64044 4.68299 0
M  V30 5026 N 486.295 -0.989507 1.22664 0
M  V30 5027 C 487.543 -1.72612 1.05117 0
M  V30 5028 C 487.864 -1.90552 -0.414131 0
M  V30 5029 O 487.134 -1.4676 -1.29762 0
M  V30 5030 H 485.714 -0.639555 0.385977 0
M  V30 5031 H 488.376 -1.19158 1.54232 0
M  V30 5032 H 487.472 -2.71926 1.53175 0
M  V30 5033 N 487.773 -1.03688 -1.18687 0
M  V30 5034 C 489.021 -0.736572 -1.88199 0
M  V30 5035 C 489.342 0.737665 -1.80509 0
M  V30 5036 O 488.612 1.53204 -1.22088 0
M  V30 5037 H 487.192 -0.269466 -0.696704 0
M  V30 5038 H 489.854 -1.31282 -1.44052 0
M  V30 5039 H 488.95 -1.03802 -2.94332 0
M  V30 5040 N 489.251 1.34841 -0.815825 0
M  V30 5041 C 490.479 2.0273 -0.413294 0
M  V30 5042 C 490.894 1.61459 0.978599 0
M  V30 5043 O 490.251 0.816584 1.63212 0
M  V30 5044 C 490.302 3.58058 -0.497676 0
M  V30 5045 O 490.023 3.97832 -1.8347 0
M  V30 5046 C 491.524 4.4321 -0.0891339 0
M  V30 5047 H 488.744 0.649956 -0.166728 0
M  V30 5048 H 491.288 1.72267 -1.10201 0
M  V30 5049 H 489.443 3.87136 0.142886 0
M  V30 5050 H 489.857 4.92501 -1.80396 0
M  V30 5051 H 491.331 5.5164 -0.199274 0
M  V30 5052 H 491.808 4.28432 0.966571 0
M  V30 5053 H 492.414 4.19446 -0.703214 0
M  V30 5054 N 490.729 0.570148 1.46925 0
M  V30 5055 C 491.969 0.0534743 2.0433 0
M  V30 5056 C 492.333 -1.27729 1.4335 0
M  V30 5057 O 493.534 -1.88244 1.91879 0
M  V30 5058 C 491.805 -0.0244296 3.57392 0
M  V30 5059 S 493.364 -0.485351 4.36108 0
M  V30 5060 H 490.182 0.0313908 0.710307 0
M  V30 5061 H 492.784 0.759808 1.80131 0
M  V30 5062 H 491.488 0.948261 3.99295 0
M  V30 5063 H 491.019 -0.753922 3.86108 0
M  V30 5064 H 493.034 -1.74258 4.64595 0
M  V30 5065 N 492.207 -1.54576 0.307264 0
M  V30 5066 C 493.484 -1.92377 -0.353605 0
M  V30 5067 C 493.864 -1.23517 -1.71192 0
M  V30 5068 O 493.212 -0.373101 -2.25433 0
M  V30 5069 C 493.422 -3.45928 -0.462039 0
M  V30 5070 C 494.77 -4.18278 -0.729975 0
M  V30 5071 O 495.794 -3.51997 -0.545605 0
M  V30 5072 O 494.653 -5.3563 -1.08454 0
M  V30 5073 H 491.747 -0.802747 -0.198812 0
M  V30 5074 H 494.293 -1.65929 0.355783 0
M  V30 5075 H 493.065 -3.88187 0.492592 0
M  V30 5076 H 492.688 -3.78431 -1.21965 0
M  V30 5077 N 493.685 -0.035106 -1.57561 0
M  V30 5078 C 495.101 0.321334 -1.56332 0
M  V30 5079 C 495.301 1.72509 -1.04129 0
M  V30 5080 O 494.357 2.4287 -0.690694 0
M  V30 5081 C 495.67 0.164469 -3.0025 0
M  V30 5082 C 497.218 0.236786 -3.12103 0
M  V30 5083 C 497.693 0.10864 -4.57871 0
M  V30 5084 N 499.184 0.165433 -4.62904 0
M  V30 5085 C 499.919 0.0901506 -5.73329 0
M  V30 5086 N 499.415 -0.0365606 -6.9279 0
M  V30 5087 N 501.208 0.144572 -5.61914 0
M  V30 5088 H 493.359 -0.952976 -1.89821 0
M  V30 5089 H 495.622 -0.368537 -0.873432 0
M  V30 5090 H 495.328 -0.802746 -3.42416 0
M  V30 5091 H 495.202 0.932194 -3.655 0
M  V30 5092 H 497.589 1.19446 -2.69845 0
M  V30 5093 H 497.67 -0.561419 -2.49563 0
M  V30 5094 H 497.314 -0.845644 -5.00811 0
M  V30 5095 H 497.244 0.925786 -5.18398 0
M  V30 5096 H 499.735 0.263269 -3.76982 0
M  V30 5097 H 500.048 -0.0871487 -7.72751 0
M  V30 5098 H 498.393 -0.0714256 -6.94963 0
M  V30 5099 H 501.584 0.242006 -4.67474 0
M  V30 5100 H 501.757 0.0824413 -6.47948 0
M  V30 5101 N 495.163 1.55791 0.238111 0
M  V30 5102 C 496.403 1.79801 0.972163 0
M  V30 5103 C 496.767 0.606027 1.82185 0
M  V30 5104 O 497.968 0.725079 2.58836 0
M  V30 5105 C 496.239 3.08608 1.80266 0
M  V30 5106 S 497.798 3.53872 2.59461 0
M  V30 5107 H 494.616 0.631418 0.326852 0
M  V30 5108 H 497.218 1.94031 0.239212 0
M  V30 5109 H 495.922 3.93419 1.1683 0
M  V30 5110 H 495.453 2.9714 2.57821 0
M  V30 5111 H 497.468 3.15899 3.82651 0
M  V30 5112 N 496.642 -0.504142 1.49319 0
M  V30 5113 C 497.882 -1.26867 1.60263 0
M  V30 5114 C 498.246 -1.89924 0.281578 0
M  V30 5115 O 499.447 -2.67479 0.266176 0
M  V30 5116 C 497.718 -2.30956 2.72753 0
M  V30 5117 S 499.277 -3.1679 3.03628 0
M  V30 5118 H 496.095 -0.431198 0.565322 0
M  V30 5119 H 498.697 -0.571407 1.86963 0
M  V30 5120 H 497.401 -1.83156 3.67263 0
M  V30 5121 H 496.932 -3.05356 2.48035 0
M  V30 5122 H 498.947 -4.31549 2.44908 0
M  V30 5123 N 498.12 -1.38341 -0.754957 0
M  V30 5124 C 499.531 -1.30803 -1.3322 0
M  V30 5125 C 499.882 0.0368 -1.96165 0
M  V30 5126 O 499.007 0.938844 -1.94974 0
M  V30 5127 C 499.602 -2.3688 -2.42225 0
M  V30 5128 C 498.161 -2.32925 -2.95674 0
M  V30 5129 C 497.308 -2.19819 -1.69042 0
M  V30 5130 H 500.259 -1.48719 -0.553937 0
M  V30 5131 H 500.28 -2.02517 -3.22129 0
M  V30 5132 H 499.792 -3.34747 -1.96383 0
M  V30 5133 H 497.893 -1.38635 -3.45848 0
M  V30 5134 H 498.006 -3.27008 -3.50146 0
M  V30 5135 H 496.37 -1.66648 -1.92615 0
M  V30 5136 H 497.153 -3.19625 -1.25279 0
M  V30 5137 N 499.598 0.982988 -1.23187 0
M  V30 5138 C 500.846 1.72052 -1.06031 0
M  V30 5139 C 501.167 1.90769 0.404019 0
M  V30 5140 O 500.437 1.47446 1.28982 0
M  V30 5141 H 499.017 0.637499 -0.389363 0
M  V30 5142 H 501.679 1.18338 -1.54862 0
M  V30 5143 H 500.775 2.7111 -1.54615 0
M  V30 5144 N 501.076 1.04316 1.18135 0
M  V30 5145 C 502.323 0.74802 1.88178 0
M  V30 5146 C 502.651 -0.72441 1.80506 0
M  V30 5147 O 501.906 -1.54463 1.20165 0
M  V30 5148 C 502.205 1.16271 3.37958 0
M  V30 5149 C 501.871 2.63585 3.65833 0
M  V30 5150 C 500.533 3.03829 3.73151 0
M  V30 5151 C 502.885 3.58822 3.78016 0
M  V30 5152 C 500.213 4.38194 3.90132 0
M  V30 5153 C 502.565 4.92909 3.96514 0
M  V30 5154 C 501.229 5.3282 4.02068 0
M  V30 5155 H 500.499 0.27372 0.688592 0
M  V30 5156 H 503.146 1.30863 1.39811 0
M  V30 5157 H 501.451 0.520938 3.88321 0
M  V30 5158 H 503.148 0.911672 3.90499 0
M  V30 5159 H 499.738 2.31414 3.60757 0
M  V30 5160 H 503.922 3.28875 3.71692 0
M  V30 5161 H 499.178 4.68631 3.92677 0
M  V30 5162 H 503.352 5.66606 4.04883 0
M  V30 5163 H 500.979 6.36943 4.14979 0
M  V30 5164 N 502.554 -1.34406 0.822964 0
M  V30 5165 C 503.502 -2.31428 0.233165 0
M  V30 5166 C 504.496 -1.57404 -0.626118 0
M  V30 5167 O 505.702 -1.72402 -0.517453 0
M  V30 5168 H 502.077 -0.749863 0.0566557 0
M  V30 5169 H 504.048 -2.78699 1.06628 0
M  V30 5170 C 502.797 -3.42653 -0.590264 0
M  V30 5171 H 502.12 -3.99753 0.0616129 0
M  V30 5172 H 503.56 -4.12778 -0.969054 0
M  V30 5173 C 502.019 -2.87112 -1.76262 0
M  V30 5174 O 502.549 -2.81995 -2.8608 0
M  V30 5175 N 500.755 -2.43934 -1.57938 0
M  V30 5176 H 500.302 -2.48296 -0.686078 0
M  V30 5177 H 500.26 -2.07123 -2.36532 0
M  V30 5178 N 504.032 -0.577932 -1.46621 0
M  V30 5179 C 504.964 0.195801 -2.28362 0
M  V30 5180 C 505.977 0.859983 -1.38232 0
M  V30 5181 O 507.166 0.730349 -1.62875 0
M  V30 5182 C 504.266 1.29639 -3.13124 0
M  V30 5183 C 503.439 0.725049 -4.31349 0
M  V30 5184 C 502.498 1.71274 -4.97546 0
M  V30 5185 O 501.524 1.25067 -5.5529 0
M  V30 5186 N 502.726 3.04672 -4.94121 0
M  V30 5187 H 505.491 -0.505468 -2.95407 0
M  V30 5188 H 503.052 -0.415381 -1.56481 0
M  V30 5189 H 505.044 1.95631 -3.54275 0
M  V30 5190 H 503.614 1.90059 -2.48186 0
M  V30 5191 H 502.834 -0.112205 -3.9404 0
M  V30 5192 H 504.122 0.323034 -5.07774 0
M  V30 5193 H 503.52 3.4484 -4.48444 0
M  V30 5194 H 502.077 3.66166 -5.39227 0
M  V30 5195 N 505.51 1.54411 -0.315457 0
M  V30 5196 C 506.442 2.21527 0.588067 0
M  V30 5197 C 507.455 1.21263 1.08624 0
M  V30 5198 O 508.644 1.47777 1.00121 0
M  V30 5199 C 505.744 2.85963 1.81875 0
M  V30 5200 C 504.917 4.12291 1.46063 0
M  V30 5201 C 503.976 4.60396 2.54799 0
M  V30 5202 O 503.002 5.25265 2.19283 0
M  V30 5203 N 504.204 4.33935 3.85591 0
M  V30 5204 H 506.969 2.99697 0.013414 0
M  V30 5205 H 504.53 1.61308 -0.138295 0
M  V30 5206 H 506.522 3.15071 2.53993 0
M  V30 5207 H 505.092 2.11548 2.30144 0
M  V30 5208 H 504.312 3.90036 0.571445 0
M  V30 5209 H 505.6 4.9452 1.19695 0
M  V30 5210 H 504.998 3.81996 4.17248 0
M  V30 5211 H 503.555 4.67718 4.53964 0
M  V30 5212 N 506.988 0.0434614 1.5754 0
M  V30 5213 C 508.399 -0.493343 1.80064 0
M  V30 5214 C 508.75 -1.71388 0.955023 0
M  V30 5215 O 507.875 -2.15736 0.169434 0
M  V30 5216 C 508.47 -0.90179 3.26578 0
M  V30 5217 C 507.029 -1.38362 3.50047 0
M  V30 5218 C 506.176 -0.355129 2.75017 0
M  V30 5219 H 509.127 0.2694 1.56397 0
M  V30 5220 H 509.148 -1.76523 3.37075 0
M  V30 5221 H 508.66 -0.013271 3.88098 0
M  V30 5222 H 506.761 -2.29159 2.93798 0
M  V30 5223 H 506.874 -1.3811 4.58762 0
M  V30 5224 H 505.238 -0.826348 2.40922 0
M  V30 5225 H 506.021 0.525172 3.39259 0
M  V30 5226 N 508.466 -1.55915 -0.229846 0
M  V30 5227 C 509.712 -1.79718 -0.952517 0
M  V30 5228 C 510.067 -0.61514 -1.82301 0
M  V30 5229 O 509.36 0.391098 -1.87566 0
M  V30 5230 C 509.554 -3.06845 -1.8325 0
M  V30 5231 C 509.383 -4.37302 -1.04868 0
M  V30 5232 C 508.153 -4.99749 -0.746932 0
M  V30 5233 C 510.351 -5.12599 -0.417989 0
M  V30 5234 N 508.333 -6.13871 0.0591596 0
M  V30 5235 C 509.704 -6.19488 0.251879 0
M  V30 5236 C 511.759 -4.96804 -0.33018 0
M  V30 5237 C 510.462 -7.12299 1.00115 0
M  V30 5238 C 512.488 -5.90007 0.4056 0
M  V30 5239 C 511.85 -6.96317 1.06404 0
M  V30 5240 H 507.949 -0.709382 -0.329091 0
M  V30 5241 H 510.533 -1.93406 -0.224114 0
M  V30 5242 H 508.704 -2.94456 -2.53279 0
M  V30 5243 H 510.436 -3.18874 -2.49202 0
M  V30 5244 H 507.191 -4.61518 -1.06292 0
M  V30 5245 H 507.615 -6.75497 0.450798 0
M  V30 5246 H 512.257 -4.14675 -0.824898 0
M  V30 5247 H 509.975 -7.93916 1.50741 0
M  V30 5248 H 513.561 -5.79862 0.474436 0
M  V30 5249 H 512.441 -7.67194 1.62429 0
M  V30 5250 N 509.944 0.496216 -1.49584 0
M  V30 5251 C 510.891 1.59722 -1.66606 0
M  V30 5252 C 511.861 1.58158 -0.507477 0
M  V30 5253 O 513.046 1.76072 -0.735076 0
M  V30 5254 C 510.186 2.97844 -1.74308 0
M  V30 5255 C 509.299 3.09388 -3.01502 0
M  V30 5256 C 508.434 4.38271 -3.00153 0
M  V30 5257 C 507.473 4.43466 -4.21906 0
M  V30 5258 N 506.61 5.63784 -4.1844 0
M  V30 5259 H 511.45 1.44515 -2.60613 0
M  V30 5260 H 508.987 0.703048 -1.29212 0
M  V30 5261 H 510.945 3.77907 -1.76754 0
M  V30 5262 H 509.575 3.11743 -0.837619 0
M  V30 5263 H 508.627 2.22357 -3.08645 0
M  V30 5264 H 509.939 3.09085 -3.91494 0
M  V30 5265 H 509.093 5.2666 -3.01188 0
M  V30 5266 H 507.832 4.41146 -2.07947 0
M  V30 5267 H 506.837 3.53478 -4.21109 0
M  V30 5268 H 508.062 4.42303 -5.1531 0
M  V30 5269 H 506.008 5.67491 -3.29074 0
M  V30 5270 H 505.925 5.65118 -5.02173 0
M  V30 5271 H 507.193 6.54367 -4.23585 0
M  V30 5272 N 511.423 1.38739 0.74761 0
M  V30 5273 C 512.834 1.31507 1.32524 0
M  V30 5274 C 513.185 -0.0263963 1.96182 0
M  V30 5275 O 512.31 -0.92849 1.95469 0
M  V30 5276 C 512.905 2.38162 2.40966 0
M  V30 5277 C 511.464 2.34489 2.94434 0
M  V30 5278 C 510.611 2.20712 1.67873 0
M  V30 5279 H 513.562 1.4901 0.546043 0
M  V30 5280 H 513.583 2.04222 3.21051 0
M  V30 5281 H 513.095 3.35783 1.94605 0
M  V30 5282 H 511.196 1.40467 3.45108 0
M  V30 5283 H 511.309 3.28861 3.48407 0
M  V30 5284 H 509.673 1.67667 1.91729 0
M  V30 5285 H 510.456 3.20285 1.23582 0
M  V30 5286 N 512.901 -0.976442 1.23707 0
M  V30 5287 C 513.864 -2.0511 1.02287 0
M  V30 5288 C 514.864 -1.60791 -0.0167195 0
M  V30 5289 O 516.054 -1.72761 0.223408 0
M  V30 5290 C 513.186 -3.36458 0.548507 0
M  V30 5291 H 514.379 -2.25545 1.9766 0
M  V30 5292 H 511.932 -1.15042 1.05806 0
M  V30 5293 H 512.667 -3.21713 -0.408818 0
M  V30 5294 H 512.452 -3.69967 1.29874 0
M  V30 5295 H 513.942 -4.15489 0.419406 0
M  V30 5296 N 514.379 -1.04941 -1.1758 0
M  V30 5297 C 515.607 -0.778294 -1.91703 0
M  V30 5298 C 516.022 0.665697 -1.76675 0
M  V30 5299 O 515.379 1.45456 -1.10222 0
M  V30 5300 C 515.43 -1.14628 -3.42845 0
M  V30 5301 O 515.151 -2.53359 -3.57409 0
M  V30 5302 C 516.652 -0.900931 -4.34049 0
M  V30 5303 H 513.872 -0.283167 -0.608323 0
M  V30 5304 H 516.416 -1.39942 -1.49119 0
M  V30 5305 H 514.571 -0.569953 -3.83184 0
M  V30 5306 H 514.985 -2.67709 -4.51035 0
M  V30 5307 H 516.459 -1.20817 -5.38616 0
M  V30 5308 H 516.936 0.163966 -4.38894 0
M  V30 5309 H 517.542 -1.46097 -3.99419 0
M  V30 5310 N 515.857 1.33968 -0.830081 0
M  V30 5311 C 516.82 2.27694 -0.26235 0
M  V30 5312 C 517.82 1.50589 0.563876 0
M  V30 5313 O 519.01 1.70028 0.378941 0
M  V30 5314 C 516.142 3.35002 0.63138 0
M  V30 5315 H 517.335 2.79419 -1.08928 0
M  V30 5316 H 514.888 1.44221 -0.602486 0
M  V30 5317 H 515.623 2.88504 1.48109 0
M  V30 5318 H 515.408 3.92079 0.0403276 0
M  V30 5319 H 516.898 4.04897 1.02217 0
M  V30 5320 N 517.335 0.585699 1.46312 0
M  V30 5321 C 518.283 -0.158577 2.32059 0
M  V30 5322 C 519.277 -0.881427 1.44662 0
M  V30 5323 O 520.483 -0.799476 1.61271 0
M  V30 5324 H 516.858 -0.0700066 0.748734 0
M  V30 5325 H 518.829 0.583383 2.92642 0
M  V30 5326 C 517.578 -1.15701 3.27885 0
M  V30 5327 H 516.901 -0.610215 3.95116 0
M  V30 5328 H 518.341 -1.64812 3.90657 0
M  V30 5329 C 516.8 -2.21951 2.53455 0
M  V30 5330 O 517.33 -3.29352 2.29978 0
M  V30 5331 N 515.536 -1.9664 2.13965 0
M  V30 5332 H 515.083 -1.09309 2.33258 0
M  V30 5333 H 515.041 -2.6794 1.64485 0
M  V30 5334 N 518.813 -1.54241 0.323641 0
M  V30 5335 C 520.038 -2.05452 -0.283605 0
M  V30 5336 C 520.463 -1.19823 -1.44997 0
M  V30 5337 O 519.821 -0.207358 -1.8011 0
M  V30 5338 C 519.869 -3.53823 -0.695795 0
M  V30 5339 O 518.973 -3.71134 -1.79815 0
M  V30 5340 H 518.314 -0.662024 -0.0511917 0
M  V30 5341 H 520.844 -1.99079 0.472073 0
M  V30 5342 H 520.854 -3.96094 -0.978434 0
M  V30 5343 H 519.529 -4.15602 0.157287 0
M  V30 5344 H 518.106 -3.40768 -1.51431 0
M  V30 5345 N 520.291 -0.0518155 -1.57515 0
M  V30 5346 C 521.254 0.907547 -2.10467 0
M  V30 5347 C 522.254 1.23947 -1.02439 0
M  V30 5348 O 523.444 1.17604 -1.2851 0
M  V30 5349 C 520.576 2.21723 -2.58944 0
M  V30 5350 H 521.769 0.44851 -2.96527 0
M  V30 5351 H 519.322 0.196598 -1.55059 0
M  V30 5352 H 520.057 2.72206 -1.76279 0
M  V30 5353 H 519.842 1.98935 -3.37886 0
M  V30 5354 H 521.332 2.90441 -3.00056 0
M  V30 5355 N 521.769 1.56035 0.221574 0
M  V30 5356 C 522.717 1.93269 1.29421 0
M  V30 5357 C 523.711 0.814727 1.48521 0
M  V30 5358 O 524.917 0.999559 1.49696 0
M  V30 5359 H 521.292 0.614188 0.43391 0
M  V30 5360 H 523.263 2.82773 0.952987 0
M  V30 5361 C 522.012 2.26573 2.63742 0
M  V30 5362 H 521.335 3.12112 2.49853 0
M  V30 5363 H 522.775 2.5651 3.37607 0
M  V30 5364 C 521.234 1.09086 3.1875 0
M  V30 5365 O 521.764 0.351985 4.00155 0
M  V30 5366 N 519.97 0.874693 2.77124 0
M  V30 5367 H 519.517 1.47726 2.11033 0
M  V30 5368 H 519.475 0.0903349 3.1427 0
M  V30 5369 N 523.247 -0.488276 1.49845 0
M  V30 5370 C 524.157 -1.61451 1.70207 0
M  V30 5371 C 525.173 -1.63877 0.584846 0
M  V30 5372 O 526.349 -1.82063 0.861107 0
M  V30 5373 C 523.414 -2.9776 1.77594 0
M  V30 5374 C 522.475 -3.05861 3.01243 0
M  V30 5375 C 521.708 -4.35668 3.08268 0
M  V30 5376 O 521.931 -5.25197 2.22541 0
M  V30 5377 O 520.865 -4.49005 4.00847 0
M  V30 5378 H 524.691 -1.47199 2.65643 0
M  V30 5379 H 522.276 -0.665939 1.33737 0
M  V30 5380 H 524.158 -3.7875 1.84732 0
M  V30 5381 H 522.833 -3.12248 0.8534 0
M  V30 5382 H 521.74 -2.24012 2.99616 0
M  V30 5383 H 523.073 -2.96304 3.9302 0
M  V30 5384 N 524.725 -1.39134 -0.740242 0
M  V30 5385 C 525.965 -1.37499 -1.51239 0
M  V30 5386 C 526.329 0.0310084 -1.91975 0
M  V30 5387 O 527.53 0.172319 -2.68247 0
M  V30 5388 C 525.801 -2.31566 -2.72235 0
M  V30 5389 S 527.36 -2.48073 -3.61947 0
M  V30 5390 H 524.178 -0.48768 -0.517387 0
M  V30 5391 H 526.78 -1.75183 -0.867826 0
M  V30 5392 H 525.484 -3.32592 -2.40439 0
M  V30 5393 H 525.015 -1.9508 -3.41625 0
M  V30 5394 H 527.03 -1.71473 -4.6563 0
M  V30 5395 N 526.204 0.969867 -1.24223 0
M  V30 5396 C 527.136 2.0669 -0.99055 0
M  V30 5397 C 528.149 1.62753 0.0392222 0
M  V30 5398 O 529.338 1.77403 -0.197561 0
M  V30 5399 C 526.438 3.35589 -0.472594 0
M  V30 5400 C 525.611 4.08444 -1.56499 0
M  V30 5401 C 524.67 5.15616 -1.05007 0
M  V30 5402 O 523.696 5.41911 -1.7413 0
M  V30 5403 N 524.898 5.80383 0.116641 0
M  V30 5404 H 527.663 2.28855 -1.93508 0
M  V30 5405 H 525.224 1.13733 -1.15223 0
M  V30 5406 H 527.216 4.04542 -0.112919 0
M  V30 5407 H 525.786 3.10311 0.377617 0
M  V30 5408 H 525.006 3.33798 -2.09696 0
M  V30 5409 H 526.294 4.53882 -2.29932 0
M  V30 5410 H 525.692 5.6142 0.694589 0
M  V30 5411 H 524.249 6.50462 0.417483 0
M  V30 5412 N 527.682 1.05563 1.17022 0
M  V30 5413 C 528.907 0.788437 1.91829 0
M  V30 5414 C 529.332 -0.650356 1.76499 0
M  V30 5415 O 528.69 -1.45229 1.08527 0
M  V30 5416 C 528.738 1.1786 3.40795 0
M  V30 5417 O 527.842 0.312965 4.11211 0
M  V30 5418 H 527.183 0.288794 0.597908 0
M  V30 5419 H 529.713 1.40948 1.48307 0
M  V30 5420 H 529.723 1.14697 3.91546 0
M  V30 5421 H 528.398 2.22666 3.51273 0
M  V30 5422 H 526.975 0.405515 3.70689 0
M  V30 5423 N 529.16 -1.33526 0.837174 0
M  V30 5424 C 530.4 -1.99649 0.438115 0
M  V30 5425 C 530.764 -1.64879 -0.983816 0
M  V30 5426 O 531.965 -2.23956 -1.48651 0
M  V30 5427 C 530.236 -3.51431 0.650461 0
M  V30 5428 S 531.795 -4.37431 0.346371 0
M  V30 5429 H 528.613 -0.69162 0.164872 0
M  V30 5430 H 531.215 -1.62556 1.08609 0
M  V30 5431 H 529.919 -3.74225 1.68475 0
M  V30 5432 H 529.45 -3.93398 -0.0117309 0
M  V30 5433 H 531.465 -4.89132 -0.834504 0
M  V30 5434 N 530.638 -0.59345 -1.46 0
M  V30 5435 C 531.586 0.146268 -2.3214 0
M  V30 5436 C 532.58 0.873743 -1.45128 0
M  V30 5437 O 533.786 0.790912 -1.61693 0
M  V30 5438 H 530.161 0.0660349 -0.749095 0
M  V30 5439 H 532.132 -0.598895 -2.92328 0
M  V30 5440 C 530.881 1.1396 -3.28494 0
M  V30 5441 H 530.204 0.589252 -3.95434 0
M  V30 5442 H 531.644 1.62738 -3.91526 0
M  V30 5443 C 530.103 2.20604 -2.54628 0
M  V30 5444 O 530.633 3.28128 -2.31722 0
M  V30 5445 N 528.839 1.95502 -2.15005 0
M  V30 5446 H 528.386 1.0807 -2.33834 0
M  V30 5447 H 528.344 2.67064 -1.65904 0
M  V30 5448 N 532.116 1.54067 -0.331816 0
M  V30 5449 C 533.356 2.02625 0.26876 0
M  V30 5450 C 533.72 1.21462 1.48697 0
M  V30 5451 O 534.921 1.59863 2.16096 0
M  V30 5452 C 533.192 3.52554 0.586577 0
M  V30 5453 S 534.751 4.23035 1.16563 0
M  V30 5454 H 531.569 0.706395 0.0807862 0
M  V30 5455 H 534.171 1.89844 -0.466856 0
M  V30 5456 H 532.875 4.09242 -0.308046 0
M  V30 5457 H 532.406 3.69432 1.35217 0
M  V30 5458 H 534.421 4.31382 2.45203 0
M  V30 5459 N 533.594 0.0601682 1.57485 0
M  V30 5460 C 534.824 -0.620037 1.97076 0
M  V30 5461 C 535.232 -1.64381 0.936784 0
M  V30 5462 O 534.575 -1.83497 -0.0863377 0
M  V30 5463 C 534.637 -1.35617 3.32939 0
M  V30 5464 C 534.301 -0.487208 4.54396 0
M  V30 5465 C 535.298 0.250428 5.19297 0
M  V30 5466 C 532.983 -0.415494 5.00579 0
M  V30 5467 C 534.977 1.04812 6.28723 0
M  V30 5468 C 532.664 0.385879 6.0988 0
M  V30 5469 C 533.662 1.11637 6.73815 0
M  V30 5470 O 533.35 1.90454 7.81014 0
M  V30 5471 H 533.082 -0.173664 0.653312 0
M  V30 5472 H 535.636 0.1256 2.05016 0
M  V30 5473 H 533.866 -2.14763 3.2158 0
M  V30 5474 H 535.555 -1.92749 3.57215 0
M  V30 5475 H 536.321 0.204546 4.84568 0
M  V30 5476 H 532.2 -0.973679 4.506 0
M  V30 5477 H 535.744 1.6188 6.78558 0
M  V30 5478 H 531.641 0.433366 6.44044 0
M  V30 5479 H 532.409 1.82762 7.97835 0
M  V30 5480 N 535.072 -1.5615 -0.213296 0
M  V30 5481 C 536.32 -1.79191 -0.934612 0
M  V30 5482 C 536.641 -0.630112 -1.84539 0
M  V30 5483 O 535.911 0.35257 -1.92701 0
M  V30 5484 H 534.491 -0.660937 -0.348097 0
M  V30 5485 H 537.153 -1.93618 -0.22317 0
M  V30 5486 H 536.249 -2.71656 -1.53654 0
M  V30 5487 N 536.55 0.480323 -1.50102 0
M  V30 5488 C 537.5 1.57685 -1.6468 0
M  V30 5489 C 538.484 1.52878 -0.5017 0
M  V30 5490 O 539.676 1.60058 -0.755668 0
M  V30 5491 C 536.805 2.96185 -1.73578 0
M  V30 5492 C 535.891 3.0591 -2.93734 0
M  V30 5493 N 536.282 2.85471 -4.1754 0
M  V30 5494 C 534.58 3.37036 -2.92101 0
M  V30 5495 C 535.281 2.99921 -4.9842 0
M  V30 5496 N 534.257 3.29715 -4.32191 0
M  V30 5497 H 538.059 1.40568 -2.58104 0
M  V30 5498 H 535.573 0.686874 -1.47159 0
M  V30 5499 H 537.57 3.75015 -1.82124 0
M  V30 5500 H 536.23 3.14356 -0.813057 0
M  V30 5501 H 537.241 2.61235 -4.47188 0
M  V30 5502 H 533.918 3.61253 -2.09291 0
M  V30 5503 H 535.308 2.88436 -6.06839 0
M  V30 5504 N 538.028 1.39524 0.732853 0
M  V30 5505 C 538.991 1.38189 1.82857 0
M  V30 5506 C 539.991 0.278624 1.58368 0
M  V30 5507 O 541.181 0.536639 1.65728 0
M  V30 5508 C 538.313 1.15661 3.2068 0
M  V30 5509 H 539.506 2.35692 1.85444 0
M  V30 5510 H 537.059 1.2512 0.936728 0
M  V30 5511 H 537.794 0.188482 3.23752 0
M  V30 5512 H 537.579 1.95559 3.39852 0
M  V30 5513 H 539.069 1.17472 4.00737 0
M  V30 5514 N 539.506 -0.963266 1.24736 0
M  V30 5515 C 540.734 -1.74166 1.11686 0
M  V30 5516 C 541.149 -1.8589 -0.330187 0
M  V30 5517 O 540.506 -1.35042 -1.2276 0
M  V30 5518 C 540.557 -3.15989 1.75595 0
M  V30 5519 O 540.278 -3.04847 3.14642 0
M  V30 5520 C 541.779 -4.10145 1.68213 0
M  V30 5521 H 538.999 -0.546031 0.389989 0
M  V30 5522 H 541.543 -1.20907 1.64929 0
M  V30 5523 H 539.698 -3.66219 1.26343 0
M  V30 5524 H 540.112 -3.9425 3.4593 0
M  V30 5525 H 541.586 -5.07299 2.17604 0
M  V30 5526 H 542.063 -4.3445 0.644208 0
M  V30 5527 H 542.669 -3.65827 2.16912 0
M  V30 5528 N 540.985 -1.06182 -1.16461 0
M  V30 5529 C 542.262 -0.691364 -1.82974 0
M  V30 5530 C 542.642 0.827377 -1.9421 0
M  V30 5531 O 541.99 1.73723 -1.48434 0
M  V30 5532 C 542.2 -1.39199 -3.20038 0
M  V30 5533 C 543.548 -1.53647 -3.95825 0
M  V30 5534 O 544.572 -1.35181 -3.29552 0
M  V30 5535 O 543.431 -1.83932 -5.14618 0
M  V30 5536 H 540.525 -0.244605 -0.789998 0
M  V30 5537 H 543.071 -1.16203 -1.23673 0
M  V30 5538 H 541.843 -2.42766 -3.06888 0
M  V30 5539 H 541.466 -0.911335 -3.87015 0
M  V30 5540 N 542.463 1.3308 -0.844243 0
M  V30 5541 C 543.703 1.99414 -0.448697 0
M  V30 5542 C 544.067 1.65398 0.975058 0
M  V30 5543 O 545.268 2.24741 1.47461 0
M  V30 5544 C 543.539 3.51081 -0.669089 0
M  V30 5545 S 545.098 4.37241 -0.369564 0
M  V30 5546 H 541.916 0.690736 -0.168538 0
M  V30 5547 H 544.518 1.61977 -1.0947 0
M  V30 5548 H 543.222 3.73326 -1.70457 0
M  V30 5549 H 542.753 3.93399 -0.00913211 0
M  V30 5550 H 544.768 4.89568 0.808552 0
M  V30 5551 N 543.941 0.601185 1.45683 0
M  V30 5552 C 545.171 0.0999093 2.06358 0
M  V30 5553 C 545.579 -1.21831 1.44754 0
M  V30 5554 O 544.922 -1.75157 0.553695 0
M  V30 5555 C 544.984 -0.12085 3.59297 0
M  V30 5556 C 544.648 1.11459 4.432 0
M  V30 5557 C 545.645 2.03118 4.7858 0
M  V30 5558 C 543.33 1.34162 4.84051 0
M  V30 5559 C 545.324 3.15814 5.53661 0
M  V30 5560 C 543.011 2.4716 5.58888 0
M  V30 5561 C 544.009 3.37814 5.93608 0
M  V30 5562 O 543.697 4.48846 6.66928 0
M  V30 5563 H 543.429 0.0630316 0.673055 0
M  V30 5564 H 545.983 0.826982 1.88016 0
M  V30 5565 H 544.213 -0.902744 3.76015 0
M  V30 5566 H 545.902 -0.572925 4.01836 0
M  V30 5567 H 546.668 1.86801 4.47583 0
M  V30 5568 H 542.547 0.645018 4.56465 0
M  V30 5569 H 546.091 3.86596 5.8068 0
M  V30 5570 H 541.988 2.63432 5.89299 0
M  V30 5571 H 542.756 4.47446 6.85371 0
M  V30 5572 N 545.419 -1.53889 0.339982 0
M  V30 5573 C 546.649 -2.04973 -0.258738 0
M  V30 5574 C 547.057 -1.21485 -1.45045 0
M  V30 5575 O 546.4 -0.2422 -1.82096 0
M  V30 5576 C 546.462 -3.51783 -0.740853 0
M  V30 5577 C 546.126 -4.55802 0.330734 0
M  V30 5578 C 547.123 -5.06512 1.17226 0
M  V30 5579 C 544.808 -4.99966 0.483637 0
M  V30 5580 C 546.802 -5.99963 2.15227 0
M  V30 5581 C 544.489 -5.93229 1.46704 0
M  V30 5582 C 545.487 -6.43115 2.29981 0
M  V30 5583 O 545.175 -7.34545 3.26649 0
M  V30 5584 H 544.907 -0.673807 -0.0544037 0
M  V30 5585 H 547.461 -1.99492 0.489107 0
M  V30 5586 H 545.691 -3.54717 -1.53988 0
M  V30 5587 H 547.38 -3.85857 -1.25973 0
M  V30 5588 H 548.146 -4.73158 1.0652 0
M  V30 5589 H 544.025 -4.6074 -0.15471 0
M  V30 5590 H 547.569 -6.38825 2.80265 0
M  V30 5591 H 543.466 -6.25998 1.57468 0
M  V30 5592 H 544.234 -7.52468 3.22078 0
M  V30 5593 N 546.897 -0.0685191 -1.57451 0
M  V30 5594 C 548.174 0.642167 -1.84758 0
M  V30 5595 C 548.554 1.87991 -0.960344 0
M  V30 5596 O 547.902 2.28485 -0.0257894 0
M  V30 5597 C 548.112 0.982946 -3.34872 0
M  V30 5598 C 549.46 1.35784 -4.02303 0
M  V30 5599 O 550.484 1.07477 -3.39598 0
M  V30 5600 O 549.343 1.88681 -5.12895 0
M  V30 5601 H 546.437 0.318625 -0.763156 0
M  V30 5602 H 548.983 -0.0992015 -1.6941 0
M  V30 5603 H 547.755 0.10372 -3.91163 0
M  V30 5604 H 547.378 1.78119 -3.55471 0
M  V30 5605 N 548.375 1.56261 0.205012 0
M  V30 5606 C 549.786 1.70056 0.770574 0
M  V30 5607 C 550.137 0.673398 1.84282 0
M  V30 5608 O 549.262 -0.172196 2.15714 0
M  V30 5609 C 549.857 3.08316 1.40451 0
M  V30 5610 C 548.416 3.2391 1.91727 0
M  V30 5611 C 547.563 2.66001 0.783516 0
M  V30 5612 H 550.514 1.58688 -0.019911 0
M  V30 5613 H 550.535 3.05094 2.27371 0
M  V30 5614 H 550.047 3.83053 0.623882 0
M  V30 5615 H 548.148 2.54072 2.7254 0
M  V30 5616 H 548.261 4.3131 2.08588 0
M  V30 5617 H 546.625 2.24915 1.19521 0
M  V30 5618 H 547.408 3.43297 0.0152883 0
M  V30 5619 N 549.853 -0.472356 1.50355 0
M  V30 5620 C 550.763 -1.59637 1.7191 0
M  V30 5621 C 551.779 -1.63247 0.602195 0
M  V30 5622 O 552.955 -1.81139 0.880369 0
M  V30 5623 C 550.02 -2.9586 1.80742 0
M  V30 5624 C 549.081 -3.02649 3.04471 0
M  V30 5625 C 548.314 -4.32374 3.12872 0
M  V30 5626 O 548.537 -5.22807 2.28099 0
M  V30 5627 O 547.471 -4.44728 4.05587 0
M  V30 5628 H 551.297 -1.44373 2.67189 0
M  V30 5629 H 548.882 -0.651717 1.34436 0
M  V30 5630 H 550.764 -3.7677 1.88739 0
M  V30 5631 H 549.439 -3.11325 0.88647 0
M  V30 5632 H 548.346 -2.20821 3.01975 0
M  V30 5633 H 549.679 -2.92119 3.9614 0
M  V30 5634 N 551.331 -1.39911 -0.725443 0
M  V30 5635 C 552.577 -1.37858 -1.48738 0
M  V30 5636 C 552.91 0.0224187 -1.94187 0
M  V30 5637 O 552.185 0.989204 -1.67466 0
M  V30 5638 C 552.468 -2.3594 -2.72038 0
M  V30 5639 C 552.321 -3.85023 -2.32546 0
M  V30 5640 C 553.64 -2.31704 -3.74167 0
M  V30 5641 H 550.759 -0.502074 -0.539528 0
M  V30 5642 H 553.401 -1.70974 -0.828728 0
M  V30 5643 H 551.551 -2.0783 -3.28236 0
M  V30 5644 H 553.223 -4.2392 -1.81905 0
M  V30 5645 H 551.466 -4.01334 -1.64661 0
M  V30 5646 H 552.137 -4.49152 -3.20884 0
M  V30 5647 H 554.613 -2.5658 -3.27576 0
M  V30 5648 H 553.489 -3.02395 -4.58092 0
M  V30 5649 H 553.75 -1.3253 -4.21768 0
M  V30 5650 N 552.809 0.956637 -1.25245 0
M  V30 5651 C 554.086 1.67716 -1.00651 0
M  V30 5652 C 554.466 2.0585 0.467866 0
M  V30 5653 O 553.814 1.77029 1.44475 0
M  V30 5654 C 554.024 2.90093 -1.94028 0
M  V30 5655 C 555.372 3.6209 -2.21756 0
M  V30 5656 O 556.396 3.00171 -1.9177 0
M  V30 5657 O 555.255 4.7358 -2.72735 0
M  V30 5658 H 552.349 0.733731 -0.381533 0
M  V30 5659 H 554.895 1.00974 -1.3639 0
M  V30 5660 H 553.667 2.58689 -2.93591 0
M  V30 5661 H 553.29 3.64566 -1.58674 0
M  V30 5662 N 554.287 1.06798 1.15896 0
M  V30 5663 C 555.703 0.792423 1.38538 0
M  V30 5664 C 555.903 -0.60592 1.92174 0
M  V30 5665 O 554.959 -1.36561 2.12385 0
M  V30 5666 C 556.272 1.86157 2.36149 0
M  V30 5667 C 557.82 1.88567 2.49823 0
M  V30 5668 C 558.295 2.9455 3.5072 0
M  V30 5669 N 559.786 2.93616 3.58251 0
M  V30 5670 C 560.521 3.72267 4.36125 0
M  V30 5671 N 560.017 4.60751 5.17379 0
M  V30 5672 N 561.81 3.60637 4.31158 0
M  V30 5673 H 553.961 1.96993 0.794198 0
M  V30 5674 H 556.224 0.853942 0.411688 0
M  V30 5675 H 555.93 2.86603 2.03843 0
M  V30 5676 H 555.804 1.71692 3.3586 0
M  V30 5677 H 558.191 0.887765 2.8143 0
M  V30 5678 H 558.272 2.0711 1.5013 0
M  V30 5679 H 557.916 3.94537 3.19849 0
M  V30 5680 H 557.846 2.73255 4.50155 0
M  V30 5681 H 560.337 2.29472 3.00252 0
M  V30 5682 H 560.65 5.17408 5.74028 0
M  V30 5683 H 558.995 4.64803 5.16704 0
M  V30 5684 H 562.186 2.90892 3.66742 0
M  V30 5685 H 562.359 4.22176 4.91601 0
M  V30 5686 N 555.766 -1.3263 0.851289 0
M  V30 5687 C 557.182 -1.50162 0.5407 0
M  V30 5688 C 557.382 -1.78788 -0.929369 0
M  V30 5689 O 556.438 -1.85545 -1.71258 0
M  V30 5690 C 557.751 -2.64803 1.42478 0
M  V30 5691 C 559.299 -2.78688 1.42485 0
M  V30 5692 C 559.774 -3.96405 2.29407 0
M  V30 5693 N 561.265 -4.0366 2.27184 0
M  V30 5694 C 562 -4.93971 2.9117 0
M  V30 5695 N 561.496 -5.89313 3.64256 0
M  V30 5696 N 563.289 -4.87066 2.80576 0
M  V30 5697 H 555.44 -1.12315 1.80275 0
M  V30 5698 H 557.703 -0.553266 0.769806 0
M  V30 5699 H 557.409 -2.50368 2.46999 0
M  V30 5700 H 557.283 -3.60506 1.10974 0
M  V30 5701 H 559.67 -2.92547 0.387304 0
M  V30 5702 H 559.751 -1.83708 1.78002 0
M  V30 5703 H 559.395 -3.83304 3.33228 0
M  V30 5704 H 559.325 -4.90654 1.91224 0
M  V30 5705 H 561.816 -3.35435 1.74045 0
M  V30 5706 H 562.129 -6.54913 4.10255 0
M  V30 5707 H 560.474 -5.8935 3.68364 0
M  V30 5708 H 563.665 -4.11552 2.23031 0
M  V30 5709 H 563.838 -5.57248 3.30725 0
M  V30 5710 N 557.244 -0.608902 -1.45362 0
M  V30 5711 C 558.66 -0.272659 -1.57254 0
M  V30 5712 C 558.86 1.22477 -1.60005 0
M  V30 5713 O 557.916 2.00785 -1.53106 0
M  V30 5714 C 559.229 -0.944991 -2.85465 0
M  V30 5715 C 560.777 -0.921033 -2.99142 0
M  V30 5716 C 561.252 -1.5734 -4.30126 0
M  V30 5717 N 562.743 -1.53895 -4.36887 0
M  V30 5718 C 563.478 -2.01286 -5.36909 0
M  V30 5719 N 562.974 -2.56768 -6.43461 0
M  V30 5720 N 564.767 -1.92046 -5.28275 0
M  V30 5721 H 556.918 -1.58117 -1.4182 0
M  V30 5722 H 559.181 -0.662437 -0.678146 0
M  V30 5723 H 558.887 -1.99941 -2.89338 0
M  V30 5724 H 558.761 -0.469079 -3.74272 0
M  V30 5725 H 561.148 0.124846 -2.94836 0
M  V30 5726 H 561.229 -1.43522 -2.11743 0
M  V30 5727 H 560.873 -2.61862 -4.35191 0
M  V30 5728 H 560.803 -1.03422 -5.16344 0
M  V30 5729 H 563.294 -1.13366 -3.60495 0
M  V30 5730 H 563.607 -2.9072 -7.16032 0
M  V30 5731 H 561.952 -2.60808 -6.44208 0
M  V30 5732 H 565.143 -1.48439 -4.43941 0
M  V30 5733 H 565.316 -2.29293 -6.06077 0
M  V30 5734 N 558.722 1.53707 -0.348139 0
M  V30 5735 C 559.685 2.23812 0.494058 0
M  V30 5736 C 560.685 1.23989 1.02388 0
M  V30 5737 O 561.875 1.48395 0.912396 0
M  V30 5738 C 559.007 2.96133 1.68872 0
M  V30 5739 H 560.2 2.99663 -0.119141 0
M  V30 5740 H 557.753 1.55983 -0.0995539 0
M  V30 5741 H 558.488 2.24481 2.34049 0
M  V30 5742 H 558.273 3.69357 1.31596 0
M  V30 5743 H 559.763 3.49475 2.28597 0
M  V30 5744 N 560.2 0.0768682 1.57412 0
M  V30 5745 C 561.425 -0.603404 1.98428 0
M  V30 5746 C 561.85 -1.62047 0.955108 0
M  V30 5747 O 561.208 -1.81129 -0.0786778 0
M  V30 5748 C 561.256 -1.24396 3.38464 0
M  V30 5749 O 560.36 -2.35982 3.3821 0
M  V30 5750 H 559.701 -0.154741 0.645718 0
M  V30 5751 H 562.231 0.152885 2.04028 0
M  V30 5752 H 562.241 -1.5896 3.7576 0
M  V30 5753 H 560.916 -0.498735 4.12899 0
M  V30 5754 H 559.493 -2.03173 3.1269 0
M  V30 5755 N 561.678 -1.56367 -0.196722 0
M  V30 5756 C 562.61 -1.90941 -1.26784 0
M  V30 5757 C 563.623 -0.799928 -1.41792 0
M  V30 5758 O 564.812 -1.07833 -1.42247 0
M  V30 5759 C 561.912 -2.12477 -2.6402 0
M  V30 5760 C 561.085 -3.43616 -2.70641 0
M  V30 5761 C 560.144 -3.54284 -3.89062 0
M  V30 5762 O 559.17 -4.2712 -3.76241 0
M  V30 5763 N 560.372 -2.87252 -5.04447 0
M  V30 5764 H 563.137 -2.83417 -0.974417 0
M  V30 5765 H 560.698 -1.57215 -0.386649 0
M  V30 5766 H 562.69 -2.16904 -3.41665 0
M  V30 5767 H 561.26 -1.26508 -2.85857 0
M  V30 5768 H 560.48 -3.51072 -1.79283 0
M  V30 5769 H 561.768 -4.29958 -2.72054 0
M  V30 5770 H 561.166 -2.27901 -5.17762 0
M  V30 5771 H 559.723 -2.97308 -5.80044 0
M  V30 5772 N 563.156 0.464375 -1.50603 0
M  V30 5773 C 564.381 1.24372 -1.65971 0
M  V30 5774 C 564.806 1.84901 -0.345453 0
M  V30 5775 O 564.164 1.67596 0.691457 0
M  V30 5776 C 564.212 2.32331 -2.7578 0
M  V30 5777 O 563.316 3.37146 -2.375 0
M  V30 5778 H 562.657 0.365604 -0.554283 0
M  V30 5779 H 565.187 0.55183 -1.97018 0
M  V30 5780 H 565.197 2.77539 -2.99059 0
M  V30 5781 H 563.872 1.87648 -3.71162 0
M  V30 5782 H 562.449 2.97602 -2.24694 0
M  V30 5783 N 564.634 1.40294 0.718013 0
M  V30 5784 C 565.564 1.43118 1.84498 0
M  V30 5785 C 566.545 0.292403 1.67568 0
M  V30 5786 O 567.73 0.500675 1.87635 0
M  V30 5787 C 564.86 1.29065 3.22427 0
M  V30 5788 C 563.814 2.40521 3.54025 0
M  V30 5789 C 563.14 2.11546 4.91073 0
M  V30 5790 C 564.44 3.82859 3.55269 0
M  V30 5791 H 566.134 2.37432 1.82391 0
M  V30 5792 H 563.68 1.14283 0.87609 0
M  V30 5793 H 565.633 1.29658 4.00957 0
M  V30 5794 H 564.357 0.312271 3.25104 0
M  V30 5795 H 563.016 2.39173 2.77834 0
M  V30 5796 H 562.664 1.12104 4.90348 0
M  V30 5797 H 562.364 2.86216 5.1318 0
M  V30 5798 H 563.888 2.13817 5.71939 0
M  V30 5799 H 565.302 3.86044 4.23843 0
M  V30 5800 H 563.699 4.57029 3.88902 0
M  V30 5801 H 564.769 4.12617 2.54706 0
M  V30 5802 N 566.112 -0.949982 1.2575 0
M  V30 5803 C 567.389 -1.6718 1.01539 0
M  V30 5804 C 567.769 -2.06095 -0.456942 0
M  V30 5805 O 567.117 -1.77792 -1.43534 0
M  V30 5806 C 567.327 -2.8906 1.95564 0
M  V30 5807 C 568.675 -3.60909 2.23673 0
M  V30 5808 O 569.699 -2.9915 1.9336 0
M  V30 5809 O 568.558 -4.72127 2.75243 0
M  V30 5810 H 565.652 -0.731697 0.385419 0
M  V30 5811 H 568.198 -1.00249 1.36924 0
M  V30 5812 H 566.97 -2.57128 2.94959 0
M  V30 5813 H 566.593 -3.63719 1.60605 0
M  V30 5814 N 567.59 -1.07411 -1.15328 0
M  V30 5815 C 568.838 -0.796073 -1.85761 0
M  V30 5816 C 569.159 0.679864 -1.82764 0
M  V30 5817 O 568.429 1.49242 -1.269 0
M  V30 5818 H 567.009 -0.291495 -0.687779 0
M  V30 5819 H 569.671 -1.35799 -1.39802 0
M  V30 5820 H 568.767 -1.13114 -2.90881 0
M  V30 5821 N 569.068 1.32177 -0.85831 0
M  V30 5822 C 570.296 2.01313 -0.477582 0
M  V30 5823 C 570.711 1.6449 0.926736 0
M  V30 5824 O 570.068 0.868096 1.60531 0
M  V30 5825 C 570.119 3.56293 -0.611337 0
M  V30 5826 O 569.84 3.91794 -1.96034 0
M  V30 5827 C 571.341 4.42702 -0.230093 0
M  V30 5828 H 568.561 0.644323 -0.187322 0
M  V30 5829 H 571.105 1.68674 -1.15626 0
M  V30 5830 H 569.26 3.87395 0.0196494 0
M  V30 5831 H 569.674 4.86513 -1.95973 0
M  V30 5832 H 571.148 5.50727 -0.374674 0
M  V30 5833 H 571.625 4.3129 0.829779 0
M  V30 5834 H 572.231 4.16997 -0.836302 0
M  V30 5835 N 570.547 0.616602 1.45037 0
M  V30 5836 C 571.777 0.121791 2.06241 0
M  V30 5837 C 572.185 -1.20289 1.46038 0
M  V30 5838 O 571.528 -1.7456 0.572242 0
M  V30 5839 C 571.59 -0.0827345 3.59405 0
M  V30 5840 C 571.254 1.16153 4.41993 0
M  V30 5841 C 572.251 2.08183 4.76399 0
M  V30 5842 C 569.936 1.39288 4.82601 0
M  V30 5843 C 571.93 3.21668 5.5028 0
M  V30 5844 C 569.617 2.53073 5.56235 0
M  V30 5845 C 570.615 3.44091 5.89992 0
M  V30 5846 O 570.303 4.55894 6.6213 0
M  V30 5847 H 570.035 0.0701667 0.672349 0
M  V30 5848 H 572.589 0.846877 1.87129 0
M  V30 5849 H 570.819 -0.862812 3.76952 0
M  V30 5850 H 572.508 -0.530273 4.02421 0
M  V30 5851 H 573.274 1.91538 4.45576 0
M  V30 5852 H 569.153 0.693396 4.55755 0
M  V30 5853 H 572.697 3.92733 5.76547 0
M  V30 5854 H 568.594 2.69667 5.86472 0
M  V30 5855 H 569.362 4.5469 6.80587 0
M  V30 5856 N 572.025 -1.5352 0.356285 0
M  V30 5857 C 572.957 -2.23009 -0.529127 0
M  V30 5858 C 573.97 -1.241 -1.05371 0
M  V30 5859 O 575.159 -1.50379 -0.961679 0
M  V30 5860 C 572.259 -2.90685 -1.74229 0
M  V30 5861 C 571.432 -4.16019 -1.35081 0
M  V30 5862 C 570.491 -4.66989 -2.42502 0
M  V30 5863 O 569.517 -5.30895 -2.05279 0
M  V30 5864 N 570.719 -4.44006 -3.7395 0
M  V30 5865 H 573.484 -2.99627 0.0660501 0
M  V30 5866 H 571.045 -1.60885 0.181014 0
M  V30 5867 H 573.037 -3.21695 -2.4555 0
M  V30 5868 H 571.607 -2.17575 -2.24454 0
M  V30 5869 H 570.827 -3.91414 -0.467833 0
M  V30 5870 H 572.115 -4.9752 -1.06542 0
M  V30 5871 H 571.513 -3.92924 -4.06973 0
M  V30 5872 H 570.07 -4.7959 -4.41403 0
M  V30 5873 N 573.503 -0.0852151 -1.57369 0
M  V30 5874 C 574.751 0.579658 -1.93609 0
M  V30 5875 C 575.072 1.69332 -0.967043 0
M  V30 5876 O 574.342 1.95892 -0.0174215 0
M  V30 5877 H 572.922 0.217113 -0.714752 0
M  V30 5878 H 575.584 -0.146226 -1.94351 0
M  V30 5879 H 574.68 0.996276 -2.95771 0
M  V30 5880 N 574.981 1.5647 0.188427 0
M  V30 5881 C 576.229 1.80655 0.905986 0
M  V30 5882 C 576.55 0.659391 1.83513 0
M  V30 5883 O 575.82 -0.321868 1.93238 0
M  V30 5884 H 574.4 0.666391 0.337538 0
M  V30 5885 H 577.062 1.93949 0.192339 0
M  V30 5886 H 576.158 2.74066 1.49313 0
M  V30 5887 N 576.459 -0.456382 1.50847 0
M  V30 5888 C 577.707 -1.20497 1.62249 0
M  V30 5889 C 578.028 -1.92156 0.331839 0
M  V30 5890 O 577.298 -1.84751 -0.651443 0
M  V30 5891 H 575.878 -0.447775 0.597918 0
M  V30 5892 H 578.54 -0.525099 1.87693 0
M  V30 5893 H 577.636 -1.94492 2.44089 0
M  V30 5894 N 577.937 -1.40673 -0.710563 0
M  V30 5895 C 579.183 -1.39428 -1.47267 0
M  V30 5896 C 579.516 0.00182129 -1.942 0
M  V30 5897 O 578.791 0.971387 -1.68506 0
M  V30 5898 C 579.074 -2.38812 -2.6952 0
M  V30 5899 C 578.927 -3.87467 -2.28449 0
M  V30 5900 C 580.246 -2.3566 -3.71689 0
M  V30 5901 H 577.365 -0.507768 -0.534173 0
M  V30 5902 H 580.007 -1.71843 -0.810547 0
M  V30 5903 H 578.157 -2.113 -3.26013 0
M  V30 5904 H 579.829 -4.25825 -1.77399 0
M  V30 5905 H 578.072 -4.03058 -1.60395 0
M  V30 5906 H 578.743 -4.5253 -3.16103 0
M  V30 5907 H 581.219 -2.6004 -3.24836 0
M  V30 5908 H 580.095 -3.07237 -4.54859 0
M  V30 5909 H 580.356 -1.36996 -4.20339 0
M  V30 5910 N 579.415 0.9433 -1.26252 0
M  V30 5911 C 580.655 1.70397 -1.1289 0
M  V30 5912 C 581.019 1.89268 0.322713 0
M  V30 5913 O 582.22 2.62503 0.578418 0
M  V30 5914 C 580.491 3.04296 -1.87453 0
M  V30 5915 S 582.05 3.95475 -1.90119 0
M  V30 5916 H 578.868 0.585559 -0.403289 0
M  V30 5917 H 581.47 1.12424 -1.59941 0
M  V30 5918 H 580.174 2.8824 -2.9214 0
M  V30 5919 H 579.705 3.67327 -1.40835 0
M  V30 5920 H 581.72 4.86297 -0.986373 0
M  V30 5921 N 580.893 1.08022 1.14757 0
M  V30 5922 C 582.142 0.802468 1.8505 0
M  V30 5923 C 582.455 -0.674061 1.83619 0
M  V30 5924 O 583.661 -1.06683 2.49662 0
M  V30 5925 C 582.117 1.38551 3.32162 0
M  V30 5926 C 581.725 2.89354 3.42021 0
M  V30 5927 C 583.469 1.18608 4.07594 0
M  V30 5928 C 581.376 3.40815 4.83321 0
M  V30 5929 H 580.306 0.296518 0.693248 0
M  V30 5930 H 582.957 1.30114 1.29393 0
M  V30 5931 H 581.339 0.814556 3.87532 0
M  V30 5932 H 582.513 3.52552 2.96722 0
M  V30 5933 H 580.828 3.08165 2.80041 0
M  V30 5934 H 583.425 1.54525 5.11885 0
M  V30 5935 H 583.768 0.125599 4.1611 0
M  V30 5936 H 584.301 1.72375 3.58513 0
M  V30 5937 H 581.04 4.46418 4.79991 0
M  V30 5938 H 580.56 2.82374 5.29174 0
M  V30 5939 H 582.239 3.37171 5.522 0
M  V30 5940 N 582.371 -1.3172 0.865308 0
M  V30 5941 C 583.648 -1.91574 0.394789 0
M  V30 5942 C 584.028 -1.78769 -1.12271 0
M  V30 5943 O 583.376 -1.19245 -1.94918 0
M  V30 5944 C 583.586 -3.37957 0.870982 0
M  V30 5945 C 584.934 -4.15073 0.894384 0
M  V30 5946 O 585.958 -3.4672 0.816325 0
M  V30 5947 O 584.817 -5.37151 1.00651 0
M  V30 5948 H 581.911 -0.818649 0.117229 0
M  V30 5949 H 584.457 -1.4042 0.952913 0
M  V30 5950 H 583.229 -3.41269 1.91444 0
M  V30 5951 H 582.852 -3.96534 0.290907 0
M  V30 5952 N 583.85 -0.624285 -1.44708 0
M  V30 5953 C 585.09 -0.129273 -2.03991 0
M  V30 5954 C 585.454 1.22321 -1.47992 0
M  V30 5955 O 586.654 1.80993 -1.98734 0
M  V30 5956 C 584.926 -0.108231 -3.57236 0
M  V30 5957 S 586.485 0.323158 -4.37608 0
M  V30 5958 H 583.303 -0.0577318 -0.708652 0
M  V30 5959 H 585.904 -0.826139 -1.77187 0
M  V30 5960 H 584.609 -1.0958 -3.955 0
M  V30 5961 H 584.139 0.610101 -3.8864 0
M  V30 5962 H 586.154 1.56894 -4.70743 0
M  V30 5963 N 585.328 1.53329 -0.364422 0
M  V30 5964 C 586.26 2.23286 0.517293 0
M  V30 5965 C 587.273 1.24657 1.04711 0
M  V30 5966 O 588.462 1.50887 0.95369 0
M  V30 5967 C 585.562 2.91604 1.72685 0
M  V30 5968 C 584.735 4.1673 1.32873 0
M  V30 5969 C 583.794 4.68269 2.40022 0
M  V30 5970 O 582.82 5.31976 2.02461 0
M  V30 5971 N 584.022 4.45983 3.7159 0
M  V30 5972 H 586.787 2.99588 -0.0819391 0
M  V30 5973 H 584.348 1.60787 -0.189544 0
M  V30 5974 H 586.34 3.22992 2.4384 0
M  V30 5975 H 584.91 2.18763 2.23297 0
M  V30 5976 H 584.13 3.91657 0.447069 0
M  V30 5977 H 585.418 4.98078 1.03902 0
M  V30 5978 H 584.816 3.95077 4.04883 0
M  V30 5979 H 583.373 4.81924 4.38854 0
M  V30 5980 N 586.806 0.0935595 1.57322 0
M  V30 5981 C 587.756 -0.876521 2.10478 0
M  V30 5982 C 588.74 -1.24482 1.01946 0
M  V30 5983 O 589.932 -1.22016 1.28223 0
M  V30 5984 C 587.061 -2.13615 2.68745 0
M  V30 5985 C 586.147 -1.79335 3.84317 0
M  V30 5986 N 586.538 -1.15606 4.92411 0
M  V30 5987 C 584.836 -2.08954 3.94023 0
M  V30 5988 C 585.537 -0.999036 5.73057 0
M  V30 5989 N 584.513 -1.51585 5.22037 0
M  V30 5990 H 588.315 -0.379829 2.91435 0
M  V30 5991 H 585.829 -0.109699 1.62029 0
M  V30 5992 H 587.826 -2.84053 3.05155 0
M  V30 5993 H 586.486 -2.63851 1.89242 0
M  V30 5994 H 587.497 -0.823063 5.11318 0
M  V30 5995 H 584.174 -2.61416 3.25527 0
M  V30 5996 H 585.564 -0.500772 6.70031 0
M  V30 5997 N 588.284 -1.56567 -0.180126 0
M  V30 5998 C 589.234 -1.92132 -1.22756 0
M  V30 5999 C 590.218 -0.788639 -1.40247 0
M  V30 6000 O 591.41 -1.05171 -1.42366 0
M  V30 6001 C 588.539 -2.27719 -2.56902 0
M  V30 6002 C 587.625 -3.47481 -2.43142 0
M  V30 6003 N 588.016 -4.64973 -1.99082 0
M  V30 6004 C 586.314 -3.51914 -2.73994 0
M  V30 6005 C 587.015 -5.47119 -1.97574 0
M  V30 6006 N 585.991 -4.87925 -2.39645 0
M  V30 6007 H 589.793 -2.80464 -0.878478 0
M  V30 6008 H 587.307 -1.57686 -0.388463 0
M  V30 6009 H 589.304 -2.51389 -3.32579 0
M  V30 6010 H 587.964 -1.40722 -2.92621 0
M  V30 6011 H 588.975 -4.89358 -1.69557 0
M  V30 6012 H 585.652 -2.75372 -3.13809 0
M  V30 6013 H 587.042 -6.51254 -1.65282 0
M  V30 6014 N 589.762 0.448376 -1.51087 0
M  V30 6015 C 590.99 1.22143 -1.66999 0
M  V30 6016 C 591.405 1.85283 -0.362699 0
M  V30 6017 O 590.762 1.70236 0.65772 0
M  V30 6018 C 590.813 2.31357 -2.7777 0
M  V30 6019 O 590.534 1.70801 -4.03434 0
M  V30 6020 C 592.035 3.21836 -3.04855 0
M  V30 6021 H 589.255 0.368558 -0.560719 0
M  V30 6022 H 591.799 0.532618 -1.97442 0
M  V30 6023 H 589.954 2.95973 -2.49958 0
M  V30 6024 H 590.368 2.42895 -4.64868 0
M  V30 6025 H 591.842 3.94627 -3.85971 0
M  V30 6026 H 592.319 3.81949 -2.16821 0
M  V30 6027 H 592.925 2.62933 -3.34285 0
M  V30 6028 N 591.24 1.41047 0.703093 0
M  V30 6029 C 592.468 1.4334 1.49202 0
M  V30 6030 C 592.883 0.0365596 1.88765 0
M  V30 6031 O 592.24 -0.942419 1.56284 0
M  V30 6032 C 592.291 2.33538 2.75939 0
M  V30 6033 O 592.012 3.67786 2.38045 0
M  V30 6034 C 593.513 2.44555 3.6974 0
M  V30 6035 H 590.733 0.488472 0.460039 0
M  V30 6036 H 593.277 1.85245 0.86629 0
M  V30 6037 H 591.432 1.94962 3.34766 0
M  V30 6038 H 591.846 4.15816 3.19683 0
M  V30 6039 H 593.32 3.11849 4.55471 0
M  V30 6040 H 593.797 1.47447 4.1371 0
M  V30 6041 H 594.403 2.83735 3.16819 0
M  V30 6042 N 592.718 -0.936591 1.26751 0
M  V30 6043 C 593.966 -1.67998 1.12343 0
M  V30 6044 C 594.287 -1.92137 -0.332938 0
M  V30 6045 O 593.557 -1.52132 -1.23421 0
M  V30 6046 H 592.137 -0.622609 0.412756 0
M  V30 6047 H 594.799 -1.12509 1.59147 0
M  V30 6048 H 593.895 -2.65185 1.64571 0
M  V30 6049 N 594.196 -1.08629 -1.14182 0
M  V30 6050 C 595.442 -0.818556 -1.85546 0
M  V30 6051 C 595.775 0.654076 -1.82854 0
M  V30 6052 O 595.05 1.48099 -1.26083 0
M  V30 6053 C 595.333 -1.34397 -3.3408 0
M  V30 6054 C 595.186 -2.8821 -3.45333 0
M  V30 6055 C 596.505 -0.971069 -4.29253 0
M  V30 6056 H 593.624 -0.298821 -0.673702 0
M  V30 6057 H 596.266 -1.34629 -1.34071 0
M  V30 6058 H 594.416 -0.895064 -3.78049 0
M  V30 6059 H 596.088 -3.41488 -3.10134 0
M  V30 6060 H 594.331 -3.25756 -2.86471 0
M  V30 6061 H 595.002 -3.20047 -4.49749 0
M  V30 6062 H 597.478 -1.35809 -3.93313 0
M  V30 6063 H 596.354 -1.36586 -5.31635 0
M  V30 6064 H 596.615 0.121659 -4.41933 0
M  V30 6065 N 595.674 1.31259 -0.872281 0
M  V30 6066 C 596.622 2.30404 -0.318897 0
M  V30 6067 C 597.616 1.5962 0.567267 0
M  V30 6068 O 598.822 1.74204 0.453111 0
M  V30 6069 H 595.197 0.747243 -0.0844474 0
M  V30 6070 H 597.168 2.74549 -1.16899 0
M  V30 6071 C 595.917 3.44608 0.462683 0
M  V30 6072 H 595.24 3.99248 -0.209936 0
M  V30 6073 H 596.68 4.1609 0.815187 0
M  V30 6074 C 595.139 2.93456 1.65485 0
M  V30 6075 O 595.669 2.92418 2.75417 0
M  V30 6076 N 593.875 2.49628 1.48776 0
M  V30 6077 H 593.422 2.50671 0.593452 0
M  V30 6078 H 593.38 2.15759 2.28682 0
M  V30 6079 N 597.152 0.631951 1.44375 0
M  V30 6080 C 598.392 0.14009 2.03919 0
M  V30 6081 C 598.756 -1.21534 1.48639 0
M  V30 6082 O 599.957 -1.79936 1.99691 0
M  V30 6083 C 598.228 0.127174 3.57174 0
M  V30 6084 S 599.787 -0.299946 4.37774 0
M  V30 6085 H 596.605 0.0614891 0.708336 0
M  V30 6086 H 599.207 0.835524 1.76746 0
M  V30 6087 H 597.911 1.11676 3.94913 0
M  V30 6088 H 597.442 -0.589482 3.88958 0
M  V30 6089 H 599.457 -1.54396 4.71568 0
M  V30 6090 N 598.631 -1.53133 0.372548 0
M  V30 6091 C 599.541 -2.29671 -0.478379 0
M  V30 6092 C 600.557 -1.35913 -1.08644 0
M  V30 6093 O 601.733 -1.68975 -1.09588 0
M  V30 6094 C 598.798 -3.07625 -1.599 0
M  V30 6095 C 597.859 -4.17061 -1.01776 0
M  V30 6096 C 597.092 -4.91289 -2.08497 0
M  V30 6097 O 597.315 -4.65442 -3.29727 0
M  V30 6098 O 596.249 -5.7705 -1.71164 0
M  V30 6099 H 600.075 -3.03355 0.144649 0
M  V30 6100 H 597.66 -1.48773 0.136729 0
M  V30 6101 H 599.542 -3.56281 -2.25038 0
M  V30 6102 H 598.217 -2.3677 -2.2073 0
M  V30 6103 H 597.124 -3.72641 -0.330098 0
M  V30 6104 H 598.457 -4.90102 -0.453915 0
M  V30 6105 N 600.109 -0.101901 -1.5727 0
M  V30 6106 C 601.525 0.254739 -1.57554 0
M  V30 6107 C 601.725 1.67937 -1.11352 0
M  V30 6108 O 600.781 2.39722 -0.793081 0
M  V30 6109 C 602.094 0.036975 -3.00677 0
M  V30 6110 C 603.642 0.104199 -3.12827 0
M  V30 6111 C 604.117 -0.0856565 -4.5792 0
M  V30 6112 N 605.608 -0.0310498 -4.6319 0
M  V30 6113 C 606.343 -0.153099 -5.73196 0
M  V30 6114 N 605.839 -0.330364 -6.92012 0
M  V30 6115 N 607.632 -0.0938854 -5.62022 0
M  V30 6116 H 599.783 -1.03263 -1.85609 0
M  V30 6117 H 602.046 -0.405251 -0.857016 0
M  V30 6118 H 601.752 -0.947254 -3.38703 0
M  V30 6119 H 601.626 0.776335 -3.69124 0
M  V30 6120 H 604.013 1.07894 -2.74669 0
M  V30 6121 H 604.094 -0.666762 -2.46957 0
M  V30 6122 H 603.738 -1.05729 -4.96773 0
M  V30 6123 H 603.668 0.705082 -5.21858 0
M  V30 6124 H 606.159 0.103141 -3.77759 0
M  V30 6125 H 606.472 -0.41482 -7.71686 0
M  V30 6126 H 604.817 -0.366119 -6.94035 0
M  V30 6127 H 608.008 0.0435168 -4.6808 0
M  V30 6128 H 608.181 -0.19245 -6.47714 0
M  V30 6129 N 601.587 1.56661 0.17182 0
M  V30 6130 C 602.827 1.83762 0.895029 0
M  V30 6131 C 603.191 0.682752 1.79451 0
M  V30 6132 O 604.392 0.834208 2.55528 0
M  V30 6133 C 602.663 3.15976 1.67015 0
M  V30 6134 S 604.222 3.64558 2.44219 0
M  V30 6135 H 601.04 0.644713 0.299778 0
M  V30 6136 H 603.642 1.94871 0.156701 0
M  V30 6137 H 602.346 3.98021 1.00039 0
M  V30 6138 H 601.877 3.07807 2.44986 0
M  V30 6139 H 603.892 3.31845 3.68909 0
M  V30 6140 N 603.065 -0.440357 1.51323 0
M  V30 6141 C 603.995 -1.54174 1.75364 0
M  V30 6142 C 604.976 -1.59039 0.603375 0
M  V30 6143 O 606.161 -1.74815 0.845774 0
M  V30 6144 C 603.291 -2.92277 1.87593 0
M  V30 6145 C 602.245 -3.02274 3.03009 0
M  V30 6146 C 601.571 -4.42327 3.00418 0
M  V30 6147 C 602.871 -2.76634 4.43024 0
M  V30 6148 H 604.565 -1.34307 2.67585 0
M  V30 6149 H 602.111 -0.644678 1.28763 0
M  V30 6150 H 604.064 -3.69284 2.02995 0
M  V30 6151 H 602.788 -3.13369 0.920179 0
M  V30 6152 H 601.447 -2.27706 2.87307 0
M  V30 6153 H 601.095 -4.60382 2.02626 0
M  V30 6154 H 600.795 -4.49946 3.77918 0
M  V30 6155 H 602.319 -5.21312 3.17909 0
M  V30 6156 H 603.733 -3.43376 4.59093 0
M  V30 6157 H 602.13 -2.95666 5.22208 0
M  V30 6158 H 603.2 -1.72262 4.5327 0
M  V30 6159 N 604.543 -1.41418 -0.695603 0
M  V30 6160 C 605.954 -1.36335 -1.27552 0
M  V30 6161 C 606.305 -0.0464336 -1.96145 0
M  V30 6162 O 605.43 0.855304 -1.9878 0
M  V30 6163 C 606.025 -2.46941 -2.3196 0
M  V30 6164 C 604.584 -2.45256 -2.85529 0
M  V30 6165 C 603.731 -2.2679 -1.59566 0
M  V30 6166 H 606.682 -1.50934 -0.490362 0
M  V30 6167 H 606.703 -2.15997 -3.1325 0
M  V30 6168 H 606.215 -3.42775 -1.82008 0
M  V30 6169 H 604.316 -1.53179 -3.39657 0
M  V30 6170 H 604.429 -3.41565 -3.35961 0
M  V30 6171 H 602.793 -1.74667 -1.85374 0
M  V30 6172 H 603.576 -3.24651 -1.1161 0
M  V30 6173 N 606.021 0.929856 -1.27246 0
M  V30 6174 C 607.269 1.674 -1.13233 0
M  V30 6175 C 607.59 1.92311 0.322744 0
M  V30 6176 O 606.86 1.52784 1.22612 0
M  V30 6177 H 605.44 0.620411 -0.416052 0
M  V30 6178 H 608.102 1.11663 -1.59741 0
M  V30 6179 H 607.198 2.64308 -1.65975 0
M  V30 6180 N 607.499 1.09233 1.13605 0
M  V30 6181 C 608.746 0.827159 1.84836 0
M  V30 6182 C 609.074 -0.647199 1.83416 0
M  V30 6183 O 608.329 -1.49228 1.26608 0
M  V30 6184 C 608.628 1.305 3.32723 0
M  V30 6185 C 608.294 2.78864 3.54325 0
M  V30 6186 C 606.956 3.19382 3.59928 0
M  V30 6187 C 609.308 3.74532 3.62457 0
M  V30 6188 C 606.636 4.54346 3.71196 0
M  V30 6189 C 608.988 5.09283 3.75252 0
M  V30 6190 C 607.652 5.49394 3.79108 0
M  V30 6191 H 606.922 0.302679 0.676363 0
M  V30 6192 H 609.569 1.36676 1.34134 0
M  V30 6193 H 607.874 0.68517 3.85762 0
M  V30 6194 H 609.571 1.07648 3.86281 0
M  V30 6195 H 606.161 2.46507 3.50617 0
M  V30 6196 H 610.345 3.44343 3.57409 0
M  V30 6197 H 605.601 4.84864 3.72447 0
M  V30 6198 H 609.775 5.83269 3.80487 0
M  V30 6199 H 607.402 6.5397 3.87591 0
M  V30 6200 N 608.977 -1.30795 0.87923 0
M  V30 6201 C 610.207 -2.00237 0.50881 0
M  V30 6202 C 610.615 -1.66115 -0.905682 0
M  V30 6203 O 609.958 -0.89138 -1.60624 0
M  V30 6204 C 610.02 -3.54508 0.597003 0
M  V30 6205 C 609.684 -4.12131 1.97477 0
M  V30 6206 C 610.681 -4.28552 2.94346 0
M  V30 6207 C 608.366 -4.47644 2.2786 0
M  V30 6208 C 610.36 -4.79689 4.19735 0
M  V30 6209 C 608.047 -4.98481 3.53496 0
M  V30 6210 C 609.045 -5.14456 4.49248 0
M  V30 6211 O 608.733 -5.64199 5.72656 0
M  V30 6212 H 608.465 -0.647026 0.195788 0
M  V30 6213 H 611.019 -1.67785 1.1848 0
M  V30 6214 H 609.249 -3.86461 -0.135945 0
M  V30 6215 H 610.938 -4.05198 0.238684 0
M  V30 6216 H 611.704 -4.01424 2.72183 0
M  V30 6217 H 607.583 -4.34481 1.54102 0
M  V30 6218 H 611.127 -4.92073 4.9448 0
M  V30 6219 H 607.024 -5.25044 3.75498 0
M  V30 6220 H 607.792 -5.82551 5.74957 0
M  V30 6221 N 610.455 -0.639598 -1.44038 0
M  V30 6222 C 611.871 -0.305953 -1.5664 0
M  V30 6223 C 612.071 1.19055 -1.62567 0
M  V30 6224 O 611.127 1.97492 -1.57331 0
M  V30 6225 C 612.44 -1.00533 -2.83397 0
M  V30 6226 C 613.988 -0.984278 -2.97121 0
M  V30 6227 C 614.463 -1.66428 -4.26691 0
M  V30 6228 N 615.954 -1.63127 -4.33525 0
M  V30 6229 C 616.689 -2.12629 -5.32519 0
M  V30 6230 N 616.185 -2.70359 -6.3787 0
M  V30 6231 N 617.978 -2.03208 -5.24083 0
M  V30 6232 H 610.129 -1.6109 -1.38434 0
M  V30 6233 H 612.392 -0.676672 -0.663942 0
M  V30 6234 H 612.098 -2.06034 -2.85032 0
M  V30 6235 H 611.972 -0.548362 -3.73193 0
M  V30 6236 H 614.359 0.0622792 -2.95034 0
M  V30 6237 H 614.44 -1.47981 -2.08651 0
M  V30 6238 H 614.084 -2.71034 -4.29538 0
M  V30 6239 H 614.014 -1.14351 -5.14034 0
M  V30 6240 H 616.505 -1.20987 -3.58009 0
M  V30 6241 H 616.818 -3.05842 -7.09704 0
M  V30 6242 H 615.163 -2.74414 -6.38531 0
M  V30 6243 H 618.354 -1.57823 -4.40692 0
M  V30 6244 H 618.527 -2.42097 -6.01077 0
M  V30 6245 N 611.933 1.52934 -0.380664 0
M  V30 6246 C 613.158 2.06363 0.207157 0
M  V30 6247 C 613.583 1.25122 1.4045 0
M  V30 6248 O 612.941 0.274062 1.79217 0
M  V30 6249 C 612.989 3.56162 0.563996 0
M  V30 6250 O 612.093 3.77552 1.65917 0
M  V30 6251 H 611.434 0.663468 0.0265859 0
M  V30 6252 H 613.964 1.9719 -0.545635 0
M  V30 6253 H 613.974 3.99453 0.830752 0
M  V30 6254 H 612.649 4.14732 -0.311427 0
M  V30 6255 H 611.226 3.46154 1.3868 0
M  V30 6256 N 613.412 0.11024 1.57214 0
M  V30 6257 C 614.823 -0.416527 1.81994 0
M  V30 6258 C 615.174 -1.67183 1.02686 0
M  V30 6259 O 614.299 -2.14823 0.260782 0
M  V30 6260 C 614.894 -0.762466 3.30109 0
M  V30 6261 C 613.453 -1.23391 3.556 0
M  V30 6262 C 612.6 -0.238166 2.76275 0
M  V30 6263 H 615.551 0.335491 1.55113 0
M  V30 6264 H 615.572 -1.62068 3.44259 0
M  V30 6265 H 615.084 0.151346 3.87805 0
M  V30 6266 H 613.185 -2.16492 3.03253 0
M  V30 6267 H 613.298 -1.18528 4.64207 0
M  V30 6268 H 611.662 -0.723421 2.4421 0
M  V30 6269 H 612.445 0.668591 3.36727 0
M  V30 6270 N 614.89 -1.56749 -0.16351 0
M  V30 6271 C 615.838 -1.97939 -1.22159 0
M  V30 6272 C 616.832 -0.869288 -1.45395 0
M  V30 6273 O 618.038 -1.05443 -1.45883 0
M  V30 6274 H 614.413 -0.629869 -0.410815 0
M  V30 6275 H 616.384 -2.86115 -0.847381 0
M  V30 6276 C 615.133 -2.36206 -2.55151 0
M  V30 6277 H 614.456 -3.2117 -2.38097 0
M  V30 6278 H 615.896 -2.68863 -3.27854 0
M  V30 6279 C 614.355 -1.20841 -3.14482 0
M  V30 6280 O 614.885 -0.500258 -3.98573 0
M  V30 6281 N 613.091 -0.976943 -2.73686 0
M  V30 6282 H 612.638 -1.55457 -2.05404 0
M  V30 6283 H 612.596 -0.206912 -3.13718 0
M  V30 6284 N 616.368 0.432326 -1.51554 0
M  V30 6285 C 617.318 1.52366 -1.69614 0
M  V30 6286 C 618.302 1.51205 -0.550083 0
M  V30 6287 O 619.494 1.57573 -0.806206 0
M  V30 6288 C 616.623 2.90513 -1.82913 0
M  V30 6289 C 615.709 2.9641 -3.03318 0
M  V30 6290 N 616.1 2.72043 -4.26411 0
M  V30 6291 C 614.398 3.27572 -3.02675 0
M  V30 6292 C 615.099 2.83912 -5.07709 0
M  V30 6293 N 614.075 3.15798 -4.42462 0
M  V30 6294 H 617.877 1.32285 -2.62446 0
M  V30 6295 H 615.391 0.639708 -1.4927 0
M  V30 6296 H 617.388 3.69032 -1.93962 0
M  V30 6297 H 616.048 3.1161 -0.912655 0
M  V30 6298 H 617.059 2.46876 -4.55272 0
M  V30 6299 H 613.736 3.54411 -2.20678 0
M  V30 6300 H 615.126 2.68984 -6.15709 0
M  V30 6301 N 617.846 1.41785 0.688094 0
M  V30 6302 C 619.257 1.3701 1.26828 0
M  V30 6303 C 619.608 0.056835 1.96118 0
M  V30 6304 O 618.733 -0.84475 1.99231 0
M  V30 6305 C 619.328 2.48168 2.30648 0
M  V30 6306 C 617.887 2.46766 2.84224 0
M  V30 6307 C 617.034 2.27633 1.58361 0
M  V30 6308 H 619.985 1.51192 0.482351 0
M  V30 6309 H 620.006 2.17655 3.121 0
M  V30 6310 H 619.518 3.43735 1.80188 0
M  V30 6311 H 617.619 1.54978 3.3884 0
M  V30 6312 H 617.732 3.43342 3.34145 0
M  V30 6313 H 616.096 1.75648 1.84445 0
M  V30 6314 H 616.879 3.25238 1.09887 0
M  V30 6315 N 619.324 -0.923095 1.27737 0
M  V30 6316 C 620.254 -2.04124 1.13383 0
M  V30 6317 C 621.235 -1.70066 0.0340658 0
M  V30 6318 O 622.42 -1.93068 0.209383 0
M  V30 6319 C 619.55 -3.3831 0.785097 0
M  V30 6320 C 618.504 -3.86496 1.8386 0
M  V30 6321 C 617.83 -5.1754 1.34373 0
M  V30 6322 C 619.13 -4.09381 3.24353 0
M  V30 6323 H 620.824 -2.1639 2.06919 0
M  V30 6324 H 618.37 -1.03976 0.996243 0
M  V30 6325 H 620.323 -4.16016 0.671485 0
M  V30 6326 H 619.047 -3.2607 -0.185969 0
M  V30 6327 H 617.706 -3.10987 1.9412 0
M  V30 6328 H 617.354 -5.01696 0.361989 0
M  V30 6329 H 617.054 -5.50751 2.04811 0
M  V30 6330 H 618.578 -5.97811 1.24315 0
M  V30 6331 H 619.992 -4.77641 3.17067 0
M  V30 6332 H 618.389 -4.53906 3.92542 0
M  V30 6333 H 619.459 -3.14515 3.69064 0
M  V30 6334 N 620.802 -1.09834 -1.13024 0
M  V30 6335 C 622.079 -0.749225 -1.80682 0
M  V30 6336 C 622.459 0.765171 -1.96744 0
M  V30 6337 O 621.807 1.68912 -1.53886 0
M  V30 6338 C 622.017 -1.49311 -3.15448 0
M  V30 6339 C 623.365 -1.66162 -3.90737 0
M  V30 6340 O 624.389 -1.45597 -3.25085 0
M  V30 6341 O 623.248 -2.00211 -5.08505 0
M  V30 6342 H 620.342 -0.269614 -0.781817 0
M  V30 6343 H 622.888 -1.20078 -1.19914 0
M  V30 6344 H 621.66 -2.52407 -2.99009 0
M  V30 6345 H 621.283 -1.034 -3.8392 0
M  V30 6346 N 622.28 1.30327 -0.886154 0
M  V30 6347 C 623.505 2.0079 -0.519425 0
M  V30 6348 C 623.93 1.65979 0.885013 0
M  V30 6349 O 623.288 0.877043 1.58675 0
M  V30 6350 C 623.336 3.53686 -0.702758 0
M  V30 6351 O 622.44 4.11637 0.250828 0
M  V30 6352 H 621.781 0.63171 -0.204544 0
M  V30 6353 H 624.311 1.66145 -1.19402 0
M  V30 6354 H 624.321 4.03531 -0.602207 0
M  V30 6355 H 622.996 3.78361 -1.72673 0
M  V30 6356 H 621.573 3.72755 0.103873 0
M  V30 6357 N 623.758 0.647228 1.43697 0
M  V30 6358 C 625.169 0.238689 1.85168 0
M  V30 6359 C 625.52 -1.21345 1.54175 0
M  V30 6360 O 624.645 -1.92542 0.987743 0
M  V30 6361 C 625.24 0.426422 3.36106 0
M  V30 6362 C 623.799 0.0722541 3.76331 0
M  V30 6363 C 622.946 0.732153 2.6746 0
M  V30 6364 H 625.897 0.851309 1.33934 0
M  V30 6365 H 625.918 -0.32987 3.79067 0
M  V30 6366 H 625.43 1.48339 3.58632 0
M  V30 6367 H 623.531 -0.982355 3.59417 0
M  V30 6368 H 623.644 0.493541 4.76551 0
M  V30 6369 H 622.008 0.16594 2.54159 0
M  V30 6370 H 622.791 1.79204 2.92816 0
M  V30 6371 N 625.236 -1.5273 0.388769 0
M  V30 6372 C 626.186 -2.23238 -0.463567 0
M  V30 6373 C 627.17 -1.23606 -1.03007 0
M  V30 6374 O 628.362 -1.48945 -0.956261 0
M  V30 6375 C 625.491 -3.04228 -1.5906 0
M  V30 6376 C 624.577 -4.11255 -1.03587 0
M  V30 6377 N 624.968 -5.0538 -0.206038 0
M  V30 6378 C 623.266 -4.26376 -1.30841 0
M  V30 6379 C 623.967 -5.81613 0.100359 0
M  V30 6380 N 622.943 -5.41264 -0.503447 0
M  V30 6381 H 626.745 -2.93367 0.176978 0
M  V30 6382 H 624.259 -1.61188 0.198046 0
M  V30 6383 H 626.256 -3.53277 -2.21362 0
M  V30 6384 H 624.916 -2.35634 -2.23398 0
M  V30 6385 H 625.927 -5.17663 0.156659 0
M  V30 6386 H 622.604 -3.69011 -1.95287 0
M  V30 6387 H 623.994 -6.67442 0.772676 0
M  V30 6388 N 626.714 -0.118576 -1.57153 0
M  V30 6389 C 627.96 0.540326 -1.95469 0
M  V30 6390 C 628.293 1.66356 -1.00196 0
M  V30 6391 O 627.568 1.94461 -0.039104 0
M  V30 6392 C 627.851 1.07342 -3.43729 0
M  V30 6393 C 627.704 -0.0463732 -4.49776 0
M  V30 6394 C 629.023 1.96442 -3.93826 0
M  V30 6395 H 626.142 0.19494 -0.710751 0
M  V30 6396 H 628.784 -0.19405 -1.89006 0
M  V30 6397 H 626.934 1.69925 -3.49368 0
M  V30 6398 H 628.606 -0.681648 -4.56236 0
M  V30 6399 H 626.849 -0.709574 -4.27957 0
M  V30 6400 H 627.52 0.367856 -5.50773 0
M  V30 6401 H 629.996 1.43731 -3.90488 0
M  V30 6402 H 628.872 2.3066 -4.98084 0
M  V30 6403 H 629.133 2.89077 -3.34495 0
M  V30 6404 N 628.193 1.56834 0.155195 0
M  V30 6405 C 629.433 1.84701 0.875488 0
M  V30 6406 C 629.797 0.701747 1.78716 0
M  V30 6407 O 630.998 0.861263 2.54629 0
M  V30 6408 C 629.269 3.1773 1.63654 0
M  V30 6409 S 630.828 3.67128 2.40338 0
M  V30 6410 H 627.646 0.647856 0.292923 0
M  V30 6411 H 630.248 1.95026 0.136024 0
M  V30 6412 H 628.952 3.99059 0.958117 0
M  V30 6413 H 628.483 3.10388 2.41708 0
M  V30 6414 H 630.498 3.35739 3.65368 0
M  V30 6415 N 629.671 -0.424282 1.51781 0
M  V30 6416 C 631.087 -0.761768 1.40247 0
M  V30 6417 C 631.287 -1.95324 0.495041 0
M  V30 6418 O 630.343 -2.5246 -0.0448949 0
M  V30 6419 C 631.656 -1.0299 2.82513 0
M  V30 6420 C 633.204 -1.13354 2.91753 0
M  V30 6421 C 633.679 -1.43453 4.34954 0
M  V30 6422 N 635.17 -1.5035 4.3812 0
M  V30 6423 C 635.905 -1.75236 5.45967 0
M  V30 6424 N 635.401 -1.97827 6.63955 0
M  V30 6425 N 637.194 -1.77126 5.33463 0
M  V30 6426 H 629.345 0.360228 2.09323 0
M  V30 6427 H 631.608 0.0988128 0.942836 0
M  V30 6428 H 631.314 -0.226961 3.50967 0
M  V30 6429 H 631.188 -1.95411 3.22637 0
M  V30 6430 H 633.575 -1.92709 2.23489 0
M  V30 6431 H 633.656 -0.188041 2.55108 0
M  V30 6432 H 633.3 -0.646209 5.03772 0
M  V30 6433 H 633.23 -2.3923 4.69123 0
M  V30 6434 H 635.721 -1.34742 3.53062 0
M  V30 6435 H 636.034 -2.16223 7.41935 0
M  V30 6436 H 634.379 -1.95123 6.67047 0
M  V30 6437 H 637.57 -1.59005 4.40267 0
M  V30 6438 H 637.743 -1.96182 6.17589 0
M  V30 6439 N 631.149 -1.42148 -0.680565 0
M  V30 6440 C 632.565 -1.24947 -0.992995 0
M  V30 6441 C 632.765 -0.149527 -2.00944 0
M  V30 6442 O 631.821 0.481145 -2.47873 0
M  V30 6443 C 633.134 -2.60426 -1.5033 0
M  V30 6444 C 634.682 -2.67733 -1.62137 0
M  V30 6445 C 635.157 -4.03564 -2.16565 0
M  V30 6446 N 636.648 -4.05488 -2.23905 0
M  V30 6447 C 637.383 -5.07401 -2.67081 0
M  V30 6448 N 636.879 -6.19698 -3.09751 0
M  V30 6449 N 638.672 -4.94758 -2.66778 0
M  V30 6450 H 630.823 -2.12399 -0.0074788 0
M  V30 6451 H 633.086 -0.94571 -0.0658529 0
M  V30 6452 H 632.792 -3.41743 -0.830947 0
M  V30 6453 H 632.666 -2.83949 -2.483 0
M  V30 6454 H 635.053 -1.86765 -2.2848 0
M  V30 6455 H 635.134 -2.48004 -0.626713 0
M  V30 6456 H 634.778 -4.84987 -1.50833 0
M  V30 6457 H 634.708 -4.20641 -3.1681 0
M  V30 6458 H 637.199 -3.24415 -1.93812 0
M  V30 6459 H 637.512 -6.93318 -3.41365 0
M  V30 6460 H 635.857 -6.23212 -3.07623 0
M  V30 6461 H 639.048 -4.06105 -2.32801 0
M  V30 6462 H 639.221 -5.74317 -3.00107 0
M  V30 6463 N 632.627 0.916307 -1.28225 0
M  V30 6464 C 633.867 1.67964 -1.16479 0
M  V30 6465 C 634.231 1.8991 0.282494 0
M  V30 6466 O 635.432 2.63671 0.522607 0
M  V30 6467 C 633.703 3.00251 -1.93866 0
M  V30 6468 S 635.262 3.91353 -1.98465 0
M  V30 6469 H 632.08 0.576873 -0.415619 0
M  V30 6470 H 634.682 1.09006 -1.62289 0
M  V30 6471 H 633.386 2.81978 -2.98189 0
M  V30 6472 H 632.917 3.64257 -1.48595 0
M  V30 6473 H 634.932 4.84096 -1.0893 0
M  V30 6474 N 634.105 1.10431 1.1244 0
M  V30 6475 C 635.053 0.747974 2.20246 0
M  V30 6476 C 636.047 -0.255848 1.67457 0
M  V30 6477 O 637.253 -0.116221 1.79624 0
M  V30 6478 H 633.628 0.223946 0.71788 0
M  V30 6479 H 635.599 1.6661 2.47556 0
M  V30 6480 C 634.348 0.195957 3.47147 0
M  V30 6481 H 633.671 0.959606 3.88113 0
M  V30 6482 H 635.111 -0.0153154 4.23997 0
M  V30 6483 C 633.57 -1.07132 3.19413 0
M  V30 6484 O 634.1 -2.15284 3.3914 0
M  V30 6485 N 632.306 -0.98994 2.73219 0
M  V30 6486 H 631.853 -0.109736 2.57366 0
M  V30 6487 H 631.811 -1.83856 2.55038 0
M  V30 6488 N 635.583 -1.29855 0.893053 0
M  V30 6489 C 636.823 -1.97612 0.522399 0
M  V30 6490 C 637.187 -1.68903 -0.913 0
M  V30 6491 O 638.388 -2.30059 -1.39019 0
M  V30 6492 C 636.659 -3.48356 0.79893 0
M  V30 6493 S 638.218 -4.35568 0.531588 0
M  V30 6494 H 635.036 -0.684005 0.194058 0
M  V30 6495 H 637.638 -1.57803 1.15406 0
M  V30 6496 H 636.342 -3.66743 1.84196 0
M  V30 6497 H 635.873 -3.93094 0.155133 0
M  V30 6498 H 637.888 -4.92232 -0.626295 0
M  V30 6499 N 637.061 -0.65484 -1.43351 0
M  V30 6500 C 637.971 0.0363603 -2.34572 0
M  V30 6501 C 638.987 0.810432 -1.53974 0
M  V30 6502 O 640.163 0.757308 -1.86619 0
M  V30 6503 C 637.228 0.989733 -3.32273 0
M  V30 6504 C 636.289 0.212414 -4.28774 0
M  V30 6505 C 635.522 1.12038 -5.21808 0
M  V30 6506 O 635.745 2.35967 -5.19303 0
M  V30 6507 O 634.679 0.59191 -5.98982 0
M  V30 6508 H 638.505 -0.714527 -2.95175 0
M  V30 6509 H 636.09 -0.415029 -1.4352 0
M  V30 6510 H 637.972 1.53759 -3.92347 0
M  V30 6511 H 636.647 1.72082 -2.74171 0
M  V30 6512 H 635.554 -0.379062 -3.72175 0
M  V30 6513 H 636.887 -0.479138 -4.89862 0
M  V30 6514 N 638.539 1.52521 -0.396863 0
M  V30 6515 C 639.764 2.06571 0.185258 0
M  V30 6516 C 640.189 1.26605 1.39115 0
M  V30 6517 O 639.547 0.293055 1.78916 0
M  V30 6518 C 639.595 3.5674 0.526189 0
M  V30 6519 O 638.699 3.7929 1.61903 0
M  V30 6520 H 638.04 0.663712 0.0195474 0
M  V30 6521 H 640.57 1.966 -0.566519 0
M  V30 6522 H 640.58 4.00311 0.788338 0
M  V30 6523 H 639.255 4.14379 -0.355397 0
M  V30 6524 H 637.832 3.47605 1.35 0
M  V30 6525 N 640.017 0.126909 1.57088 0
M  V30 6526 C 641.294 -0.573152 1.87014 0
M  V30 6527 C 641.674 -1.84297 1.02945 0
M  V30 6528 O 641.022 -2.28232 0.110573 0
M  V30 6529 C 641.232 -0.857984 3.38289 0
M  V30 6530 C 642.58 -1.20759 4.07066 0
M  V30 6531 O 643.604 -0.947992 3.43353 0
M  V30 6532 O 642.463 -1.69516 5.19545 0
M  V30 6533 H 639.557 -0.290082 0.774456 0
M  V30 6534 H 642.103 0.162008 1.68925 0
M  V30 6535 H 640.875 0.0415286 3.91278 0
M  V30 6536 H 640.498 -1.64803 3.61837 0
M  V30 6537 N 641.495 -1.56914 -0.146875 0
M  V30 6538 C 642.742 -1.83356 -0.859467 0
M  V30 6539 C 643.07 -0.707811 -1.81164 0
M  V30 6540 O 642.325 0.303155 -1.93338 0
M  V30 6541 C 642.624 -3.16128 -1.66727 0
M  V30 6542 C 642.29 -4.42586 -0.861881 0
M  V30 6543 C 640.952 -4.76929 -0.639687 0
M  V30 6544 C 643.304 -5.20344 -0.298643 0
M  V30 6545 C 640.632 -5.86491 0.156451 0
M  V30 6546 C 642.984 -6.30742 0.484536 0
M  V30 6547 C 641.648 -6.63635 0.717306 0
M  V30 6548 H 640.918 -0.670947 -0.314501 0
M  V30 6549 H 643.565 -1.91104 -0.123108 0
M  V30 6550 H 641.87 -3.03831 -2.47374 0
M  V30 6551 H 643.567 -3.33802 -2.2221 0
M  V30 6552 H 640.157 -4.15662 -1.04513 0
M  V30 6553 H 644.341 -4.94186 -0.457585 0
M  V30 6554 H 639.597 -6.10419 0.346292 0
M  V30 6555 H 643.771 -6.90188 0.928105 0
M  V30 6556 H 641.398 -7.48367 1.33607 0
M  V30 6557 N 642.974 0.416227 -1.52004 0
M  V30 6558 C 644.202 1.18573 -1.69553 0
M  V30 6559 C 644.617 1.84472 -0.401919 0
M  V30 6560 O 643.974 1.71593 0.621463 0
M  V30 6561 C 644.025 2.25413 -2.82615 0
M  V30 6562 O 643.746 1.62205 -4.06966 0
M  V30 6563 C 645.247 3.15297 -3.11613 0
M  V30 6564 H 642.467 0.356582 -0.56841 0
M  V30 6565 H 645.011 0.490618 -1.98528 0
M  V30 6566 H 643.166 2.90604 -2.56179 0
M  V30 6567 H 643.58 2.3298 -4.69916 0
M  V30 6568 H 645.054 3.86351 -3.94255 0
M  V30 6569 H 645.531 3.77264 -2.24874 0
M  V30 6570 H 646.137 2.55783 -3.39787 0
M  V30 6571 N 644.452 1.42507 0.673017 0
M  V30 6572 C 645.729 1.33554 1.42908 0
M  V30 6573 C 646.109 -0.0262211 2.11084 0
M  V30 6574 O 645.457 -1.04181 2.03368 0
M  V30 6575 C 645.667 2.50498 2.43006 0
M  V30 6576 C 647.015 2.92694 3.07596 0
M  V30 6577 O 648.039 2.50401 2.53333 0
M  V30 6578 O 646.898 3.65899 4.05931 0
M  V30 6579 H 643.992 0.526785 0.637516 0
M  V30 6580 H 646.538 1.54518 0.701591 0
M  V30 6581 H 645.31 3.41272 1.9144 0
M  V30 6582 H 644.933 2.3153 3.23233 0
M  V30 6583 N 645.93 -0.909495 1.28709 0
M  V30 6584 C 647.178 -1.65577 1.15882 0
M  V30 6585 C 647.499 -1.928 -0.292108 0
M  V30 6586 O 646.769 -1.54716 -1.20166 0
M  V30 6587 H 645.349 -0.613714 0.425869 0
M  V30 6588 H 648.011 -1.09108 1.61498 0
M  V30 6589 H 647.107 -2.61634 1.70159 0
M  V30 6590 N 647.408 -1.11026 -1.11852 0
M  V30 6591 C 648.636 -0.878818 -1.87308 0
M  V30 6592 C 649.051 0.57111 -1.79955 0
M  V30 6593 O 648.408 1.39409 -1.17777 0
M  V30 6594 C 648.459 -1.3264 -3.36287 0
M  V30 6595 O 648.18 -2.71948 -3.43476 0
M  V30 6596 C 649.681 -1.12974 -4.28663 0
M  V30 6597 H 646.901 -0.315015 -0.592458 0
M  V30 6598 H 649.445 -1.47649 -1.41492 0
M  V30 6599 H 647.6 -0.772269 -3.79625 0
M  V30 6600 H 648.014 -2.91241 -4.3621 0
M  V30 6601 H 649.488 -1.49198 -5.31454 0
M  V30 6602 H 649.965 -0.0689127 -4.39146 0
M  V30 6603 H 650.571 -1.67064 -3.91113 0
M  V30 6604 N 648.886 1.2938 -0.899927 0
M  V30 6605 C 650.126 1.97332 -0.532871 0
M  V30 6606 C 650.49 1.69385 0.904029 0
M  V30 6607 O 651.691 2.30793 1.37797 0
M  V30 6608 C 649.962 3.47927 -0.817393 0
M  V30 6609 S 651.521 4.3528 -0.55468 0
M  V30 6610 H 648.339 0.682966 -0.197683 0
M  V30 6611 H 650.941 1.57189 -1.16241 0
M  V30 6612 H 649.645 3.65761 -1.86138 0
M  V30 6613 H 649.176 3.93006 -0.175978 0
M  V30 6614 H 651.191 4.92557 0.600182 0
M  V30 6615 N 650.364 0.662433 1.43002 0
M  V30 6616 C 651.274 -0.0239199 2.34588 0
M  V30 6617 C 652.29 -0.802255 1.54402 0
M  V30 6618 O 653.466 -0.747401 1.87018 0
M  V30 6619 C 650.531 -0.972098 3.32793 0
M  V30 6620 C 649.592 -0.189673 4.28881 0
M  V30 6621 C 648.825 -1.09269 5.22395 0
M  V30 6622 O 649.048 -2.33209 5.20547 0
M  V30 6623 O 647.982 -0.560136 5.99288 0
M  V30 6624 H 651.808 0.730171 2.94792 0
M  V30 6625 H 649.393 0.422635 1.43297 0
M  V30 6626 H 651.275 -1.51676 3.93157 0
M  V30 6627 H 649.95 -1.70626 2.75079 0
M  V30 6628 H 648.857 0.398794 3.71968 0
M  V30 6629 H 650.19 0.50511 4.89601 0
M  V30 6630 N 651.842 -1.52309 0.404946 0
M  V30 6631 C 653.119 -1.94237 -0.230544 0
M  V30 6632 C 653.499 -1.34154 -1.6299 0
M  V30 6633 O 652.847 -0.515713 -2.22604 0
M  V30 6634 C 653.057 -3.48166 -0.241106 0
M  V30 6635 C 654.405 -4.22074 -0.462488 0
M  V30 6636 O 655.429 -3.54754 -0.320644 0
M  V30 6637 O 654.288 -5.41443 -0.741708 0
M  V30 6638 H 651.382 -0.813766 -0.147358 0
M  V30 6639 H 653.928 -1.6333 0.460587 0
M  V30 6640 H 652.7 -3.84269 0.738467 0
M  V30 6641 H 652.323 -3.85422 -0.97651 0
M  V30 6642 N 653.32 -0.135238 -1.57019 0
M  V30 6643 C 654.25 0.805235 -2.19176 0
M  V30 6644 C 655.231 1.2656 -1.13651 0
M  V30 6645 O 656.416 1.32528 -1.4195 0
M  V30 6646 C 653.546 2.04914 -2.80406 0
M  V30 6647 C 652.5 1.72598 -3.91655 0
M  V30 6648 C 651.826 3.04154 -4.39766 0
M  V30 6649 C 653.126 0.981709 -5.12991 0
M  V30 6650 H 654.82 0.287232 -2.98019 0
M  V30 6651 H 652.366 0.136714 -1.4335 0
M  V30 6652 H 654.319 2.71178 -3.22553 0
M  V30 6653 H 653.043 2.59067 -1.98877 0
M  V30 6654 H 651.702 1.08717 -3.50109 0
M  V30 6655 H 651.35 3.56274 -3.55075 0
M  V30 6656 H 651.05 2.83299 -5.14796 0
M  V30 6657 H 652.574 3.71509 -4.84576 0
M  V30 6658 H 653.988 1.5462 -5.52056 0
M  V30 6659 H 652.385 0.873533 -5.93708 0
M  V30 6660 H 653.455 -0.0286887 -4.84892 0
M  V30 6661 N 654.798 1.5699 0.138552 0
M  V30 6662 C 656.026 1.87976 0.864437 0
M  V30 6663 C 656.441 0.724372 1.74351 0
M  V30 6664 O 655.798 -0.305575 1.79924 0
M  V30 6665 C 655.849 3.18276 1.71414 0
M  V30 6666 O 655.57 4.29365 0.870487 0
M  V30 6667 C 657.071 3.62834 2.54688 0
M  V30 6668 H 654.291 0.622878 0.249528 0
M  V30 6669 H 656.835 2.04094 0.128805 0
M  V30 6670 H 654.99 3.03886 2.40274 0
M  V30 6671 H 655.404 5.03924 1.45466 0
M  V30 6672 H 656.878 4.5682 3.0987 0
M  V30 6673 H 657.355 2.88533 3.31127 0
M  V30 6674 H 657.961 3.79946 1.91105 0
M  V30 6675 N 656.276 -0.40816 1.52223 0
M  V30 6676 C 657.524 -1.15274 1.66001 0
M  V30 6677 C 657.845 -1.91003 0.392803 0
M  V30 6678 O 657.115 -1.8673 -0.592336 0
M  V30 6679 H 655.695 -0.428526 0.611861 0
M  V30 6680 H 658.357 -0.46512 1.89269 0
M  V30 6681 H 657.453 -1.86628 2.50153 0
M  V30 6682 N 657.755 -1.42862 -0.66545 0
M  V30 6683 C 659.171 -1.25993 -0.979687 0
M  V30 6684 C 659.371 -0.170831 -2.00775 0
M  V30 6685 O 658.427 0.454827 -2.4837 0
M  V30 6686 C 659.74 -2.62005 -1.47559 0
M  V30 6687 C 661.288 -2.69437 -1.59288 0
M  V30 6688 C 661.763 -4.05838 -2.12272 0
M  V30 6689 N 663.254 -4.0784 -2.19592 0
M  V30 6690 C 663.989 -5.10205 -2.61684 0
M  V30 6691 N 663.485 -6.22949 -3.03161 0
M  V30 6692 N 665.278 -4.9756 -2.61516 0
M  V30 6693 H 657.429 -2.12395 0.0150493 0
M  V30 6694 H 659.692 -0.946355 -0.0558187 0
M  V30 6695 H 659.398 -3.42605 -0.794654 0
M  V30 6696 H 659.272 -2.86566 -2.45275 0
M  V30 6697 H 661.659 -1.89178 -2.26486 0
M  V30 6698 H 661.74 -2.48655 -0.600374 0
M  V30 6699 H 661.384 -4.86559 -1.4568 0
M  V30 6700 H 661.314 -4.23977 -3.12331 0
M  V30 6701 H 663.805 -3.26452 -1.90361 0
M  V30 6702 H 664.118 -6.96899 -3.33993 0
M  V30 6703 H 662.463 -6.2644 -3.00995 0
M  V30 6704 H 665.654 -4.08551 -2.28481 0
M  V30 6705 H 665.827 -5.77468 -2.93999 0
M  V30 6706 N 659.233 0.902656 -1.29189 0
M  V30 6707 C 660.473 1.6672 -1.18254 0
M  V30 6708 C 660.837 1.90199 0.262336 0
M  V30 6709 O 662.038 2.6421 0.494612 0
M  V30 6710 C 660.309 2.98178 -1.9704 0
M  V30 6711 S 661.868 3.89226 -2.02605 0
M  V30 6712 H 658.686 0.572432 -0.421714 0
M  V30 6713 H 661.288 1.07279 -1.63436 0
M  V30 6714 H 659.992 2.788 -3.01163 0
M  V30 6715 H 659.523 3.62661 -1.5245 0
M  V30 6716 H 661.538 4.82913 -1.14059 0
M  V30 6717 N 660.711 1.11618 1.11262 0
M  V30 6718 C 661.941 0.88745 1.86569 0
M  V30 6719 C 662.349 -0.56636 1.80524 0
M  V30 6720 O 661.692 -1.40289 1.18594 0
M  V30 6721 C 661.754 1.27313 3.36202 0
M  V30 6722 C 661.418 2.73649 3.66013 0
M  V30 6723 C 662.415 3.71863 3.63337 0
M  V30 6724 C 660.1 3.10342 3.9496 0
M  V30 6725 C 662.094 5.04788 3.89188 0
M  V30 6726 C 659.781 4.43451 4.20469 0
M  V30 6727 C 660.779 5.40484 4.17572 0
M  V30 6728 O 660.467 6.71195 4.42439 0
M  V30 6729 H 660.199 0.317543 0.596777 0
M  V30 6730 H 662.753 1.48768 1.41624 0
M  V30 6731 H 660.983 0.616062 3.81761 0
M  V30 6732 H 662.672 1.01991 3.92877 0
M  V30 6733 H 663.438 3.44861 3.41022 0
M  V30 6734 H 659.317 2.35431 3.9635 0
M  V30 6735 H 662.861 5.80516 3.86842 0
M  V30 6736 H 658.758 4.70187 4.42261 0
M  V30 6737 H 659.526 6.77012 4.59997 0
M  V30 6738 N 662.189 -1.289 0.906776 0
M  V30 6739 C 663.429 -1.97046 0.543329 0
M  V30 6740 C 663.793 -1.69862 -0.895034 0
M  V30 6741 O 664.994 -2.31521 -1.36571 0
M  V30 6742 C 663.265 -3.47489 0.835833 0
M  V30 6743 S 664.824 -4.3498 0.577756 0
M  V30 6744 H 661.642 -0.681908 0.201302 0
M  V30 6745 H 664.244 -1.5657 1.17073 0
M  V30 6746 H 662.948 -3.64768 1.88075 0
M  V30 6747 H 662.479 -3.92907 0.196817 0
M  V30 6748 H 664.494 -4.92868 -0.574052 0
M  V30 6749 N 663.667 -0.670007 -1.42649 0
M  V30 6750 C 665.083 -0.33911 -1.55956 0
M  V30 6751 C 665.283 1.1558 -1.65056 0
M  V30 6752 O 664.339 1.94111 -1.61485 0
M  V30 6753 C 665.652 -1.06522 -2.812 0
M  V30 6754 C 667.2 -1.04708 -2.94966 0
M  V30 6755 C 667.675 -1.75442 -4.23065 0
M  V30 6756 N 669.166 -1.72286 -4.29967 0
M  V30 6757 C 669.901 -2.23877 -5.27889 0
M  V30 6758 N 669.397 -2.83829 -6.31991 0
M  V30 6759 N 671.19 -2.14279 -5.19654 0
M  V30 6760 H 663.341 -1.6399 -1.34986 0
M  V30 6761 H 665.604 -0.690603 -0.649439 0
M  V30 6762 H 665.31 -2.12033 -2.80597 0
M  V30 6763 H 665.184 -0.627398 -3.71946 0
M  V30 6764 H 667.571 -0.000315966 -2.951 0
M  V30 6765 H 667.652 -1.52374 -2.05465 0
M  V30 6766 H 667.296 -2.80084 -4.23693 0
M  V30 6767 H 667.226 -1.25229 -5.11493 0
M  V30 6768 H 669.717 -1.28554 -3.55362 0
M  V30 6769 H 670.03 -3.20827 -7.03057 0
M  V30 6770 H 668.375 -2.87896 -6.32567 0
M  V30 6771 H 671.566 -1.67135 -4.37245 0
M  V30 6772 H 671.739 -2.54792 -5.95806 0
M  V30 6773 N 665.145 1.52092 -0.413018 0
M  V30 6774 C 666.556 1.86617 0.0556967 0
M  V30 6775 C 666.907 1.33156 1.44097 0
M  V30 6776 O 666.032 0.672417 2.05688 0
M  V30 6777 C 666.627 3.38628 0.107844 0
M  V30 6778 C 665.186 3.72778 0.520904 0
M  V30 6779 C 664.333 2.75649 -0.302109 0
M  V30 6780 H 667.284 1.45663 -0.629919 0
M  V30 6781 H 667.305 3.69152 0.922324 0
M  V30 6782 H 666.817 3.77508 -0.900506 0
M  V30 6783 H 664.918 3.39478 1.53575 0
M  V30 6784 H 665.031 4.7838 0.262591 0
M  V30 6785 H 663.395 2.53603 0.236115 0
M  V30 6786 H 664.178 3.17369 -1.30888 0
M  V30 6787 N 666.623 0.143563 1.56945 0
M  V30 6788 C 667.571 -0.814556 2.17871 0
M  V30 6789 C 668.565 -1.25778 1.13474 0
M  V30 6790 O 669.771 -1.22666 1.31731 0
M  V30 6791 H 666.146 -0.280873 0.697578 0
M  V30 6792 H 668.117 -0.276459 2.97117 0
M  V30 6793 C 666.866 -2.04503 2.81201 0
M  V30 6794 H 666.189 -1.71296 3.61245 0
M  V30 6795 H 667.629 -2.69493 3.27337 0
M  V30 6796 C 666.088 -2.85079 1.79532 0
M  V30 6797 O 666.618 -3.81306 1.26368 0
M  V30 6798 N 664.824 -2.49546 1.48913 0
M  V30 6799 H 664.371 -1.71359 1.92338 0
M  V30 6800 H 664.329 -3.03751 0.811348 0
M  V30 6801 N 668.101 -1.57061 -0.130224 0
M  V30 6802 C 669.348 -1.84257 -0.839972 0
M  V30 6803 C 669.676 -0.726986 -1.80403 0
M  V30 6804 O 668.931 0.282632 -1.93648 0
M  V30 6805 C 669.23 -3.17878 -1.63365 0
M  V30 6806 C 668.896 -4.43475 -0.814891 0
M  V30 6807 C 667.558 -4.77581 -0.589066 0
M  V30 6808 C 669.91 -5.20631 -0.243437 0
M  V30 6809 C 667.238 -5.86292 0.218648 0
M  V30 6810 C 669.59 -6.30192 0.551408 0
M  V30 6811 C 668.254 -6.62837 0.787653 0
M  V30 6812 H 667.524 -0.674245 -0.307367 0
M  V30 6813 H 670.171 -1.91224 -0.102832 0
M  V30 6814 H 668.476 -3.06437 -2.44138 0
M  V30 6815 H 670.173 -3.3614 -2.18658 0
M  V30 6816 H 666.763 -4.16747 -1.00098 0
M  V30 6817 H 670.947 -4.94644 -0.405145 0
M  V30 6818 H 666.203 -6.10017 0.411016 0
M  V30 6819 H 670.377 -6.89165 1.00126 0
M  V30 6820 H 668.004 -7.46908 1.41537 0
M  V30 6821 N 669.579 0.400081 -1.52437 0
M  V30 6822 C 670.804 1.17221 -1.71096 0
M  V30 6823 C 671.229 1.83269 -0.423565 0
M  V30 6824 O 670.587 1.70378 0.619751 0
M  V30 6825 C 670.635 2.20425 -2.85386 0
M  V30 6826 O 669.739 3.26769 -2.51586 0
M  V30 6827 H 669.08 0.341766 -0.569291 0
M  V30 6828 H 671.61 0.467772 -1.99181 0
M  V30 6829 H 671.62 2.64605 -3.10561 0
M  V30 6830 H 670.295 1.71737 -3.78786 0
M  V30 6831 H 668.872 2.87804 -2.37114 0
M  V30 6832 N 671.057 1.43213 0.657864 0
M  V30 6833 C 672.305 1.44298 1.41501 0
M  V30 6834 C 672.626 0.0666478 1.94886 0
M  V30 6835 O 671.896 -0.897345 1.74139 0
M  V30 6836 H 670.476 0.531257 0.525143 0
M  V30 6837 H 673.138 1.78777 0.776195 0
M  V30 6838 H 672.234 2.1528 2.25966 0
M  V30 6839 N 672.536 -0.895792 1.29666 0
M  V30 6840 C 673.446 -2.03329 1.17024 0
M  V30 6841 C 674.462 -1.73753 0.0925962 0
M  V30 6842 O 675.638 -1.99071 0.305431 0
M  V30 6843 C 672.703 -3.36072 0.851841 0
M  V30 6844 C 671.764 -3.7914 2.01373 0
M  V30 6845 C 670.997 -5.05549 1.71043 0
M  V30 6846 O 671.22 -5.66874 0.633213 0
M  V30 6847 O 670.154 -5.44764 2.5596 0
M  V30 6848 H 673.98 -2.16918 2.12556 0
M  V30 6849 H 671.565 -1.02007 1.09156 0
M  V30 6850 H 673.447 -4.15729 0.689006 0
M  V30 6851 H 672.122 -3.23616 -0.0736634 0
M  V30 6852 H 671.029 -3.00233 2.23183 0
M  V30 6853 H 672.362 -3.96186 2.92058 0
M  V30 6854 N 674.014 -1.12206 -1.10668 0
M  V30 6855 C 675.43 -0.857619 -1.346 0
M  V30 6856 C 675.63 0.513542 -1.94846 0
M  V30 6857 O 674.686 1.26273 -2.18658 0
M  V30 6858 C 675.999 -1.97212 -2.26998 0
M  V30 6859 C 677.547 -2.00272 -2.40542 0
M  V30 6860 C 678.022 -3.10948 -3.36267 0
M  V30 6861 N 679.513 -3.10375 -3.43834 0
M  V30 6862 C 680.248 -3.92651 -4.17867 0
M  V30 6863 N 679.744 -4.84911 -4.94807 0
M  V30 6864 N 681.537 -3.80798 -4.1346 0
M  V30 6865 H 673.688 -2.00558 -0.699306 0
M  V30 6866 H 675.951 -0.872612 -0.370477 0
M  V30 6867 H 675.657 -2.96002 -1.89936 0
M  V30 6868 H 675.531 -1.87521 -3.27286 0
M  V30 6869 H 677.918 -1.02103 -2.76874 0
M  V30 6870 H 677.999 -2.14037 -1.40077 0
M  V30 6871 H 677.643 -4.09348 -3.00661 0
M  V30 6872 H 677.573 -2.94421 -4.36605 0
M  V30 6873 H 680.064 -2.43536 -2.88961 0
M  V30 6874 H 680.377 -5.44207 -5.48688 0
M  V30 6875 H 678.722 -4.88926 -4.93939 0
M  V30 6876 H 681.913 -3.08058 -3.52445 0
M  V30 6877 H 682.086 -4.4515 -4.70898 0
M  V30 6878 N 675.492 1.28418 -0.913599 0
M  V30 6879 C 676.732 1.96756 -0.553771 0
M  V30 6880 C 677.096 1.70334 0.886013 0
M  V30 6881 O 678.297 2.32242 1.35341 0
M  V30 6882 C 676.568 3.47041 -0.854249 0
M  V30 6883 S 678.127 4.34667 -0.600816 0
M  V30 6884 H 674.945 0.680831 -0.204915 0
M  V30 6885 H 677.547 1.55947 -1.17902 0
M  V30 6886 H 676.251 3.63766 -1.90007 0
M  V30 6887 H 675.782 3.92797 -0.217651 0
M  V30 6888 H 677.797 4.93166 0.547906 0
M  V30 6889 N 676.97 0.677563 1.42291 0
M  V30 6890 C 678.247 0.129803 1.95169 0
M  V30 6891 C 678.627 -1.35605 1.61786 0
M  V30 6892 O 677.975 -2.09361 0.915444 0
M  V30 6893 C 678.185 0.401889 3.46678 0
M  V30 6894 C 679.533 0.319889 4.23393 0
M  V30 6895 O 680.557 0.33579 3.54614 0
M  V30 6896 O 679.416 0.264459 5.4586 0
M  V30 6897 H 676.51 0.00447433 0.826988 0
M  V30 6898 H 679.056 0.752483 1.52105 0
M  V30 6899 H 677.828 1.43108 3.64192 0
M  V30 6900 H 677.451 -0.252662 3.96796 0
M  V30 6901 N 678.448 -1.51871 0.421078 0
M  V30 6902 C 679.694 -2.02237 -0.151014 0
M  V30 6903 C 680.027 -1.30554 -1.43768 0
M  V30 6904 O 679.302 -0.41546 -1.90011 0
M  V30 6905 C 679.585 -3.5802 -0.386482 0
M  V30 6906 C 679.438 -4.40339 0.9177 0
M  V30 6907 C 680.757 -4.24444 -1.16342 0
M  V30 6908 H 677.876 -0.735062 -0.0534102 0
M  V30 6909 H 680.518 -1.81656 0.556888 0
M  V30 6910 H 678.668 -3.75688 -0.989494 0
M  V30 6911 H 680.34 -4.34357 1.55344 0
M  V30 6912 H 678.583 -4.06073 1.526 0
M  V30 6913 H 679.254 -5.47451 0.707187 0
M  V30 6914 H 681.73 -4.10948 -0.652788 0
M  V30 6915 H 680.606 -5.33358 -1.29693 0
M  V30 6916 H 680.867 -3.84204 -2.18724 0
M  V30 6917 N 679.926 -0.151884 -1.56866 0
M  V30 6918 C 681.166 0.500695 -1.98173 0
M  V30 6919 C 681.53 1.61715 -1.03499 0
M  V30 6920 O 682.731 2.33093 -1.33869 0
M  V30 6921 C 681.002 0.989333 -3.43434 0
M  V30 6922 S 682.561 1.64583 -4.06765 0
M  V30 6923 H 679.379 0.16173 -0.692361 0
M  V30 6924 H 681.981 -0.244754 -1.93962 0
M  V30 6925 H 680.685 0.166072 -4.10064 0
M  V30 6926 H 680.216 1.76929 -3.51368 0
M  V30 6927 H 682.231 2.93326 -4.00218 0
M  V30 6928 N 681.404 1.57128 0.121893 0
M  V30 6929 C 682.367 1.99197 1.13372 0
M  V30 6930 C 683.367 0.881728 1.3447 0
M  V30 6931 O 684.557 1.14783 1.31036 0
M  V30 6932 C 681.689 2.32963 2.4888 0
M  V30 6933 H 682.882 2.89788 0.772204 0
M  V30 6934 H 680.435 1.51952 0.366093 0
M  V30 6935 H 681.17 1.45243 2.89957 0
M  V30 6936 H 680.955 3.13934 2.34921 0
M  V30 6937 H 682.445 2.66261 3.21706 0
M  V30 6938 N 682.882 -0.391992 1.52647 0
M  V30 6939 C 683.792 -1.503 1.80131 0
M  V30 6940 C 684.808 -1.59825 0.687882 0
M  V30 6941 O 685.984 -1.76218 0.975149 0
M  V30 6942 C 683.049 -2.85863 1.96171 0
M  V30 6943 C 682.11 -2.86084 3.20085 0
M  V30 6944 C 681.343 -4.15181 3.35351 0
M  V30 6945 O 681.566 -5.09981 2.55491 0
M  V30 6946 O 680.5 -4.22603 4.28591 0
M  V30 6947 H 684.326 -1.30007 2.74466 0
M  V30 6948 H 681.911 -0.579539 1.37701 0
M  V30 6949 H 683.793 -3.66236 2.08445 0
M  V30 6950 H 682.468 -3.06189 1.05025 0
M  V30 6951 H 681.375 -2.04504 3.13256 0
M  V30 6952 H 682.708 -2.7071 4.11068 0
M  V30 6953 N 684.36 -1.4356 -0.65026 0
M  V30 6954 C 685.608 -1.45046 -1.40734 0
M  V30 6955 C 685.929 -0.0769822 -1.94848 0
M  V30 6956 O 685.199 0.888098 -1.74613 0
M  V30 6957 H 683.779 -0.534034 -0.522318 0
M  V30 6958 H 686.441 -1.79186 -0.766703 0
M  V30 6959 H 685.537 -2.16476 -2.24822 0
M  V30 6960 N 685.838 0.888903 -1.30139 0
M  V30 6961 C 687.085 1.64037 -1.18736 0
M  V30 6962 C 687.413 1.92771 0.258801 0
M  V30 6963 O 686.668 1.54427 1.20212 0
M  V30 6964 C 686.967 2.99041 -1.95728 0
M  V30 6965 C 686.633 2.89874 -3.45375 0
M  V30 6966 C 685.295 2.87082 -3.86183 0
M  V30 6967 C 687.647 2.78289 -4.40687 0
M  V30 6968 C 684.975 2.70536 -5.20603 0
M  V30 6969 C 687.327 2.63282 -5.75209 0
M  V30 6970 C 685.991 2.58861 -6.15262 0
M  V30 6971 H 685.261 0.600253 -0.434485 0
M  V30 6972 H 687.908 1.0338 -1.61198 0
M  V30 6973 H 686.213 3.63626 -1.45888 0
M  V30 6974 H 687.91 3.56139 -1.843 0
M  V30 6975 H 684.5 2.92856 -3.12943 0
M  V30 6976 H 688.684 2.79516 -4.10103 0
M  V30 6977 H 683.94 2.65526 -5.50732 0
M  V30 6978 H 688.114 2.5329 -6.48704 0
M  V30 6979 H 685.741 2.45799 -7.19366 0
M  V30 6980 N 687.317 1.12792 1.10072 0
M  V30 6981 C 688.545 0.908506 1.85886 0
M  V30 6982 C 688.96 -0.542408 1.80841 0
M  V30 6983 O 688.317 -1.37517 1.1998 0
M  V30 6984 C 688.368 1.37973 3.34134 0
M  V30 6985 O 688.089 2.77378 3.39106 0
M  V30 6986 C 689.59 1.1978 4.26811 0
M  V30 6987 H 686.81 0.3244 0.587372 0
M  V30 6988 H 689.354 1.49882 1.39125 0
M  V30 6989 H 687.509 0.832566 3.78348 0
M  V30 6990 H 687.923 2.98144 4.31521 0
M  V30 6991 H 689.397 1.57635 5.29014 0
M  V30 6992 H 689.874 0.138768 4.38981 0
M  V30 6993 H 690.48 1.73266 3.88406 0
M  V30 6994 N 688.795 -1.27931 0.920396 0
M  V30 6995 C 690.043 -1.94304 0.555906 0
M  V30 6996 C 690.364 -1.72753 -0.904519 0
M  V30 6997 O 689.634 -1.07104 -1.64029 0
M  V30 6998 H 688.214 -0.719001 0.202599 0
M  V30 6999 H 690.876 -1.55785 1.1712 0
M  V30 7000 H 689.972 -3.02806 0.755981 0
M  V30 7001 N 690.273 -0.685099 -1.4193 0
M  V30 7002 C 691.52 -0.211658 -2.01391 0
M  V30 7003 C 691.848 1.18526 -1.54214 0
M  V30 7004 O 691.103 1.81189 -0.739519 0
M  V30 7005 C 691.402 -0.206154 -3.56805 0
M  V30 7006 C 691.068 -1.54915 -4.23453 0
M  V30 7007 C 689.73 -1.91684 -4.41373 0
M  V30 7008 C 692.082 -2.43317 -4.60919 0
M  V30 7009 C 689.41 -3.16461 -4.94034 0
M  V30 7010 C 691.762 -3.67415 -5.14965 0
M  V30 7011 C 690.426 -4.04341 -5.31098 0
M  V30 7012 H 689.696 -0.0774511 -0.736941 0
M  V30 7013 H 692.343 -0.882121 -1.69973 0
M  V30 7014 H 690.648 0.547841 -3.87951 0
M  V30 7015 H 692.345 0.17753 -4.00607 0
M  V30 7016 H 688.935 -1.25314 -4.09871 0
M  V30 7017 H 693.119 -2.16192 -4.46738 0
M  V30 7018 H 688.375 -3.45078 -5.04709 0
M  V30 7019 H 692.549 -4.3611 -5.42938 0
M  V30 7020 H 690.176 -5.01101 -5.71666 0
M  V30 7021 N 691.751 1.51645 -0.429126 0
M  V30 7022 C 693.162 1.86665 0.0359003 0
M  V30 7023 C 693.513 1.34677 1.42676 0
M  V30 7024 O 692.638 0.694195 2.04963 0
M  V30 7025 C 693.233 3.38724 0.0719221 0
M  V30 7026 C 691.792 3.7331 0.481336 0
M  V30 7027 C 690.939 2.75313 -0.331329 0
M  V30 7028 H 693.89 1.44987 -0.645333 0
M  V30 7029 H 693.911 3.7011 0.883118 0
M  V30 7030 H 693.423 3.76532 -0.940495 0
M  V30 7031 H 691.524 3.41088 1.49966 0
M  V30 7032 H 691.637 4.78631 0.211837 0
M  V30 7033 H 690.001 2.53839 0.209204 0
M  V30 7034 H 690.784 3.15963 -1.34247 0
M  V30 7035 N 693.229 0.160201 1.56784 0
M  V30 7036 C 694.454 -0.497373 2.01348 0
M  V30 7037 C 694.879 -1.56757 1.03966 0
M  V30 7038 O 694.237 -1.81292 0.0174455 0
M  V30 7039 C 694.285 -1.0628 3.44582 0
M  V30 7040 O 693.389 -2.17723 3.50244 0
M  V30 7041 H 692.73 -0.120295 0.653012 0
M  V30 7042 H 695.26 0.260821 2.02931 0
M  V30 7043 H 695.27 -1.38819 3.83658 0
M  V30 7044 H 693.945 -0.279166 4.14962 0
M  V30 7045 H 692.522 -1.86313 3.2302 0
M  V30 7046 N 694.707 -1.5719 -0.113559 0
M  V30 7047 C 695.947 -1.86958 -0.82621 0
M  V30 7048 C 696.311 -0.748884 -1.76793 0
M  V30 7049 O 697.512 -0.92847 -2.52256 0
M  V30 7050 C 695.783 -3.21957 -1.55173 0
M  V30 7051 S 697.342 -3.73371 -2.3052 0
M  V30 7052 H 694.16 -0.655394 -0.275643 0
M  V30 7053 H 696.762 -1.95318 -0.0842684 0
M  V30 7054 H 695.466 -4.01459 -0.851977 0
M  V30 7055 H 694.997 -3.16688 -2.33393 0
M  V30 7056 H 697.012 -3.45308 -3.56338 0
M  V30 7057 N 696.185 0.383891 -1.52853 0
M  V30 7058 C 697.415 1.14783 -1.7178 0
M  V30 7059 C 697.823 1.84055 -0.438211 0
M  V30 7060 O 697.166 1.73713 0.597465 0
M  V30 7061 C 697.228 2.23543 -2.81547 0
M  V30 7062 C 696.892 1.74195 -4.22499 0
M  V30 7063 C 697.889 1.21591 -5.05481 0
M  V30 7064 C 695.574 1.80262 -4.6884 0
M  V30 7065 C 697.568 0.757104 -6.32888 0
M  V30 7066 C 695.255 1.33993 -5.96229 0
M  V30 7067 C 696.253 0.818049 -6.78083 0
M  V30 7068 O 695.941 0.362123 -8.03084 0
M  V30 7069 H 695.673 0.349908 -0.578395 0
M  V30 7070 H 698.227 0.454377 -2.00311 0
M  V30 7071 H 696.457 2.96328 -2.48449 0
M  V30 7072 H 698.146 2.8519 -2.88828 0
M  V30 7073 H 698.912 1.16257 -4.7086 0
M  V30 7074 H 694.791 2.19825 -4.05213 0
M  V30 7075 H 698.335 0.34908 -6.96726 0
M  V30 7076 H 694.232 1.39015 -6.30353 0
M  V30 7077 H 695 0.483134 -8.17073 0
M  V30 7078 N 697.663 1.43903 0.642637 0
M  V30 7079 C 699.074 1.40975 1.22404 0
M  V30 7080 C 699.425 0.1192 1.95838 0
M  V30 7081 O 698.55 -0.780939 2.01818 0
M  V30 7082 C 699.145 2.5538 2.22636 0
M  V30 7083 C 697.704 2.55684 2.76229 0
M  V30 7084 C 696.851 2.32556 1.51039 0
M  V30 7085 H 699.802 1.5265 0.434006 0
M  V30 7086 H 699.823 2.27474 3.05017 0
M  V30 7087 H 699.335 3.49294 1.69161 0
M  V30 7088 H 697.436 1.65679 3.33738 0
M  V30 7089 H 697.549 3.53799 3.23053 0
M  V30 7090 H 695.913 1.81427 1.78764 0
M  V30 7091 H 696.696 3.28569 0.99484 0
M  V30 7092 N 699.141 -0.881989 1.30609 0
M  V30 7093 C 700.369 -1.66711 1.22536 0
M  V30 7094 C 700.784 -1.87614 -0.2113 0
M  V30 7095 O 700.141 -1.42576 -1.13923 0
M  V30 7096 C 700.192 -3.04182 1.95335 0
M  V30 7097 O 699.913 -2.8422 3.33393 0
M  V30 7098 C 701.414 -3.98617 1.93956 0
M  V30 7099 H 698.634 -0.520124 0.423925 0
M  V30 7100 H 701.178 -1.10174 1.72285 0
M  V30 7101 H 699.333 -3.57442 1.49378 0
M  V30 7102 H 699.747 -3.71452 3.70302 0
M  V30 7103 H 701.221 -4.92433 2.49426 0
M  V30 7104 H 701.698 -4.29473 0.919198 0
M  V30 7105 H 702.304 -3.51292 2.39738 0
M  V30 7106 N 700.619 -1.13374 -1.09472 0
M  V30 7107 C 702.03 -0.90801 -1.63132 0
M  V30 7108 C 702.381 0.555576 -1.8817 0
M  V30 7109 O 701.506 1.42218 -1.63104 0
M  V30 7110 C 702.101 -1.64182 -2.96361 0
M  V30 7111 C 700.66 -1.46197 -3.46848 0
M  V30 7112 C 699.807 -1.67134 -2.21273 0
M  V30 7113 H 702.758 -1.2871 -0.928411 0
M  V30 7114 H 702.779 -1.09863 -3.64294 0
M  V30 7115 H 702.291 -2.707 -2.78106 0
M  V30 7116 H 700.392 -0.419788 -3.70228 0
M  V30 7117 H 700.505 -2.22472 -4.24315 0
M  V30 7118 H 698.869 -1.09616 -2.29905 0
M  V30 7119 H 699.652 -2.74971 -2.05538 0
M  V30 7120 N 702.098 1.27442 -0.927168 0
M  V30 7121 C 703.323 1.99036 -0.583042 0
M  V30 7122 C 703.748 1.68711 0.83176 0
M  V30 7123 O 703.106 0.927081 1.55804 0
M  V30 7124 C 703.154 3.51271 -0.814925 0
M  V30 7125 O 702.258 4.12226 0.119742 0
M  V30 7126 H 701.599 0.624883 -0.224538 0
M  V30 7127 H 704.129 1.62263 -1.24628 0
M  V30 7128 H 704.139 4.01411 -0.730282 0
M  V30 7129 H 702.814 3.72676 -1.84623 0
M  V30 7130 H 701.391 3.72897 -0.0147688 0
M  V30 7131 N 703.576 0.692616 1.41565 0
M  V30 7132 C 704.801 0.229776 2.06123 0
M  V30 7133 C 705.226 -1.11119 1.5177 0
M  V30 7134 O 704.584 -1.69498 0.643444 0
M  V30 7135 C 704.632 0.19469 3.60074 0
M  V30 7136 O 703.736 -0.831366 4.03933 0
M  V30 7137 H 703.077 0.113002 0.654314 0
M  V30 7138 H 705.607 0.946645 1.81383 0
M  V30 7139 H 705.617 0.0245487 4.07993 0
M  V30 7140 H 704.292 1.17339 3.99004 0
M  V30 7141 H 702.869 -0.630819 3.67526 0
M  V30 7142 N 705.054 -1.51416 0.437162 0
M  V30 7143 C 706.279 -2.0699 -0.130424 0
M  V30 7144 C 706.704 -1.30249 -1.35709 0
M  V30 7145 O 706.062 -0.340388 -1.78076 0
M  V30 7146 C 706.11 -3.5801 -0.43142 0
M  V30 7147 O 705.214 -3.8345 -1.5179 0
M  V30 7148 H 704.555 -0.663997 -0.00194339 0
M  V30 7149 H 707.085 -1.95029 0.618445 0
M  V30 7150 H 707.095 -4.02261 -0.681926 0
M  V30 7151 H 705.77 -4.13291 0.465137 0
M  V30 7152 H 704.347 -3.51062 -1.25737 0
M  V30 7153 N 706.532 -0.168513 -1.56696 0
M  V30 7154 C 707.48 0.779791 -2.19139 0
M  V30 7155 C 708.474 1.23957 -1.1546 0
M  V30 7156 O 709.68 1.20555 -1.33666 0
M  V30 7157 H 706.055 0.269739 -0.701958 0
M  V30 7158 H 708.026 0.229156 -2.97519 0
M  V30 7159 C 706.775 2.00003 -2.84419 0
M  V30 7160 H 706.098 1.65527 -3.63924 0
M  V30 7161 H 707.538 2.64251 -3.31583 0
M  V30 7162 C 705.997 2.82187 -1.84044 0
M  V30 7163 O 706.527 3.79247 -1.32418 0
M  V30 7164 N 704.733 2.47145 -1.52864 0
M  V30 7165 H 704.28 1.68277 -1.9504 0
M  V30 7166 H 704.238 3.02422 -0.859569 0
M  V30 7167 N 708.01 1.57248 0.105221 0
M  V30 7168 C 709.287 1.76566 0.841647 0
M  V30 7169 C 709.667 0.747566 1.9742 0
M  V30 7170 O 709.015 -0.225886 2.27381 0
M  V30 7171 C 709.225 3.22016 1.3456 0
M  V30 7172 C 710.573 3.84911 1.79244 0
M  V30 7173 O 711.597 3.25703 1.44207 0
M  V30 7174 O 710.456 4.89008 2.43995 0
M  V30 7175 H 707.55 0.723443 0.400698 0
M  V30 7176 H 710.096 1.69472 0.0878893 0
M  V30 7177 H 708.868 3.87644 0.533685 0
M  V30 7178 H 708.491 3.33703 2.16167 0
M  V30 7179 N 709.488 -0.375779 1.53054 0
M  V30 7180 C 710.716 -1.14036 1.72637 0
M  V30 7181 C 711.131 -1.83342 0.450687 0
M  V30 7182 O 710.488 -1.7318 -0.575749 0
M  V30 7183 C 710.539 -2.17841 2.88492 0
M  V30 7184 O 710.26 -1.51358 4.11123 0
M  V30 7185 C 711.761 -3.06924 3.19863 0
M  V30 7186 H 708.981 -0.341386 0.577665 0
M  V30 7187 H 711.525 -0.437809 1.99759 0
M  V30 7188 H 709.68 -2.8371 2.63794 0
M  V30 7189 H 710.094 -2.20439 4.75928 0
M  V30 7190 H 711.568 -3.75763 4.04359 0
M  V30 7191 H 712.045 -3.71169 2.34798 0
M  V30 7192 H 712.651 -2.46684 3.46449 0
M  V30 7193 N 710.966 -1.44241 -0.634997 0
M  V30 7194 C 712.382 -1.28043 -0.952742 0
M  V30 7195 C 712.582 -0.21338 -2.00367 0
M  V30 7196 O 711.638 0.402042 -2.49279 0
M  V30 7197 C 712.951 -2.65076 -1.41968 0
M  V30 7198 C 714.499 -2.72755 -1.53537 0
M  V30 7199 C 714.974 -4.10249 -2.03616 0
M  V30 7200 N 716.465 -4.12406 -2.10892 0
M  V30 7201 C 717.2 -5.15641 -2.50803 0
M  V30 7202 N 716.696 -6.29239 -2.89879 0
M  V30 7203 N 718.489 -5.02995 -2.50903 0
M  V30 7204 H 710.64 -2.12315 0.060098 0
M  V30 7205 H 712.903 -0.947326 -0.0357325 0
M  V30 7206 H 712.609 -3.44213 -0.721804 0
M  V30 7207 H 712.483 -2.91704 -2.39141 0
M  V30 7208 H 714.87 -1.93939 -2.22422 0
M  V30 7209 H 714.951 -2.49872 -0.547496 0
M  V30 7210 H 714.595 -4.8954 -1.35327 0
M  V30 7211 H 714.525 -4.30507 -3.03268 0
M  V30 7212 H 717.016 -3.30417 -1.83393 0
M  V30 7213 H 717.329 -7.03827 -3.19135 0
M  V30 7214 H 715.674 -6.32683 -2.8764 0
M  V30 7215 H 718.865 -4.13306 -2.19763 0
M  V30 7216 H 719.038 -5.83574 -2.81683 0
M  V30 7217 N 712.444 0.87505 -1.31075 0
M  V30 7218 C 713.354 2.01441 -1.20244 0
M  V30 7219 C 714.37 1.73584 -0.120227 0
M  V30 7220 O 715.546 1.98559 -0.337063 0
M  V30 7221 C 712.611 3.34675 -0.905199 0
M  V30 7222 C 711.672 3.75889 -2.0738 0
M  V30 7223 C 710.905 5.02764 -1.79064 0
M  V30 7224 O 711.128 5.65795 -0.723318 0
M  V30 7225 O 710.062 5.40623 -2.64594 0
M  V30 7226 H 713.888 2.13509 -2.1598 0
M  V30 7227 H 711.473 1.00257 -1.10765 0
M  V30 7228 H 713.355 4.1458 -0.755057 0
M  V30 7229 H 712.03 3.23692 0.0221695 0
M  V30 7230 H 710.937 2.96645 -2.27931 0
M  V30 7231 H 712.27 3.91489 -2.98324 0
M  V30 7232 N 713.922 1.13953 1.08869 0
M  V30 7233 C 714.854 0.779906 2.15523 0
M  V30 7234 C 715.867 -0.20102 1.61554 0
M  V30 7235 O 717.056 0.0200049 1.78489 0
M  V30 7236 C 714.156 0.136226 3.38626 0
M  V30 7237 C 713.329 1.15069 4.21993 0
M  V30 7238 C 712.388 0.531645 5.23507 0
M  V30 7239 O 711.414 1.19327 5.56552 0
M  V30 7240 N 712.616 -0.693734 5.7634 0
M  V30 7241 H 715.381 1.69769 2.46979 0
M  V30 7242 H 712.942 1.03331 1.24637 0
M  V30 7243 H 714.934 -0.290295 4.03658 0
M  V30 7244 H 713.504 -0.684603 3.05011 0
M  V30 7245 H 712.724 1.75431 3.53012 0
M  V30 7246 H 714.012 1.83614 4.74514 0
M  V30 7247 H 713.41 -1.24994 5.51718 0
M  V30 7248 H 711.967 -1.06283 6.43076 0
M  V30 7249 N 715.4 -1.26948 0.933913 0
M  V30 7250 C 716.646 -1.94374 0.57848 0
M  V30 7251 C 716.979 -1.73166 -0.879048 0
M  V30 7252 O 716.254 -1.06438 -1.62792 0
M  V30 7253 C 716.537 -3.4834 0.912739 0
M  V30 7254 C 716.39 -3.78866 2.42448 0
M  V30 7255 C 717.709 -4.38062 0.423003 0
M  V30 7256 H 714.828 -0.705959 0.211639 0
M  V30 7257 H 717.47 -1.49951 1.16682 0
M  V30 7258 H 715.62 -3.86309 0.412058 0
M  V30 7259 H 717.292 -3.50654 2.99733 0
M  V30 7260 H 715.535 -3.25198 2.87104 0
M  V30 7261 H 716.206 -4.86458 2.60887 0
M  V30 7262 H 718.682 -4.0728 0.852191 0
M  V30 7263 H 717.558 -5.44599 0.685776 0
M  V30 7264 H 717.819 -4.36886 -0.676994 0
M  V30 7265 N 716.879 -0.700114 -1.41195 0
M  V30 7266 C 717.809 -0.0521132 -2.33442 0
M  V30 7267 C 718.79 0.76228 -1.52063 0
M  V30 7268 O 719.975 0.714336 -1.80585 0
M  V30 7269 C 717.105 0.881693 -3.35922 0
M  V30 7270 C 716.059 0.174062 -4.27646 0
M  V30 7271 C 715.385 1.22254 -5.20536 0
M  V30 7272 C 716.685 -0.962396 -5.13357 0
M  V30 7273 H 718.379 -0.822574 -2.87879 0
M  V30 7274 H 715.925 -0.397011 -1.38419 0
M  V30 7275 H 717.878 1.34429 -3.99383 0
M  V30 7276 H 716.602 1.68387 -2.79845 0
M  V30 7277 H 715.261 -0.268551 -3.65615 0
M  V30 7278 H 714.909 2.01736 -4.60773 0
M  V30 7279 H 714.609 0.754038 -5.82742 0
M  V30 7280 H 716.133 1.68555 -5.86874 0
M  V30 7281 H 717.547 -0.579875 -5.7036 0
M  V30 7282 H 715.944 -1.35828 -5.84526 0
M  V30 7283 H 717.014 -1.80003 -4.50252 0
M  V30 7284 N 718.357 1.51182 -0.445186 0
M  V30 7285 C 719.768 1.86693 0.0160999 0
M  V30 7286 C 720.119 1.36183 1.4124 0
M  V30 7287 O 719.244 0.715895 2.04215 0
M  V30 7288 C 719.839 3.38781 0.0359918 0
M  V30 7289 C 718.398 3.73799 0.441715 0
M  V30 7290 C 717.545 2.74947 -0.360511 0
M  V30 7291 H 720.496 1.44294 -0.660674 0
M  V30 7292 H 720.517 3.71026 0.843813 0
M  V30 7293 H 720.029 3.75513 -0.980378 0
M  V30 7294 H 718.13 3.42659 1.4634 0
M  V30 7295 H 718.243 4.78829 0.16106 0
M  V30 7296 H 716.607 2.54047 0.182269 0
M  V30 7297 H 717.39 3.14521 -1.3759 0
M  V30 7298 N 719.835 0.176821 1.56605 0
M  V30 7299 C 720.798 -0.737429 2.17013 0
M  V30 7300 C 721.798 -1.15414 1.11965 0
M  V30 7301 O 722.988 -1.0702 1.37449 0
M  V30 7302 C 720.12 -2.00445 2.75744 0
M  V30 7303 H 721.313 -0.211455 2.99154 0
M  V30 7304 H 718.866 -0.0727582 1.56131 0
M  V30 7305 H 719.601 -2.57338 1.97352 0
M  V30 7306 H 719.386 -1.71456 3.52626 0
M  V30 7307 H 720.876 -2.65679 3.22187 0
M  V30 7308 N 721.313 -1.57302 -0.09688 0
M  V30 7309 C 722.561 -1.8563 -0.799117 0
M  V30 7310 C 722.882 -0.765263 -1.79356 0
M  V30 7311 O 722.152 0.208657 -1.94786 0
M  V30 7312 H 720.732 -0.684937 -0.298111 0
M  V30 7313 H 723.394 -1.9474 -0.0789341 0
M  V30 7314 H 722.49 -2.82305 -1.3308 0
M  V30 7315 N 722.791 0.367657 -1.53252 0
M  V30 7316 C 723.723 1.47032 -1.75824 0
M  V30 7317 C 724.736 1.49736 -0.63898 0
M  V30 7318 O 725.925 1.53253 -0.915193 0
M  V30 7319 C 723.025 2.85805 -1.82122 0
M  V30 7320 C 722.198 3.06822 -3.11736 0
M  V30 7321 C 721.257 4.25698 -3.09302 0
M  V30 7322 O 720.283 4.20972 -3.83107 0
M  V30 7323 N 721.485 5.33002 -2.29977 0
M  V30 7324 H 724.25 1.28048 -2.70968 0
M  V30 7325 H 721.811 0.557363 -1.52004 0
M  V30 7326 H 723.803 3.63465 -1.77975 0
M  V30 7327 H 722.373 2.98046 -0.942716 0
M  V30 7328 H 721.593 2.1684 -3.29202 0
M  V30 7329 H 722.881 3.17731 -3.97397 0
M  V30 7330 H 722.279 5.39703 -1.69521 0
M  V30 7331 H 720.836 6.09247 -2.3165 0
M  V30 7332 N 724.269 1.44576 0.627338 0
M  V30 7333 C 725.518 1.46837 1.38281 0
M  V30 7334 C 725.831 0.10635 1.95311 0
M  V30 7335 O 727.037 0.00651084 2.71499 0
M  V30 7336 C 725.493 2.58527 2.50384 0
M  V30 7337 C 725.101 4.00953 1.99851 0
M  V30 7338 C 726.845 2.70013 3.27557 0
M  V30 7339 C 724.752 5.0406 3.09318 0
M  V30 7340 H 723.682 0.546319 0.519664 0
M  V30 7341 H 726.333 1.70654 0.674497 0
M  V30 7342 H 724.715 2.27957 3.23808 0
M  V30 7343 H 725.889 4.41108 1.33267 0
M  V30 7344 H 724.204 3.93743 1.35482 0
M  V30 7345 H 726.801 3.44217 4.09168 0
M  V30 7346 H 727.144 1.75961 3.77284 0
M  V30 7347 H 727.677 3.00011 2.61224 0
M  V30 7348 H 724.416 5.99753 2.6453 0
M  V30 7349 H 723.936 4.68493 3.74532 0
M  V30 7350 H 725.615 5.2793 3.74031 0
M  V30 7351 N 725.747 -0.868086 1.31537 0
M  V30 7352 C 726.993 -1.62367 1.2151 0
M  V30 7353 C 727.326 -1.92883 -0.225819 0
M  V30 7354 O 726.601 -1.56176 -1.15927 0
M  V30 7355 C 726.884 -2.95268 2.06129 0
M  V30 7356 C 726.737 -2.71619 3.58529 0
M  V30 7357 C 728.056 -3.96391 1.91212 0
M  V30 7358 H 725.175 -0.589178 0.442762 0
M  V30 7359 H 727.817 -1.00336 1.61347 0
M  V30 7360 H 725.967 -3.4821 1.72284 0
M  V30 7361 H 727.639 -2.25334 4.0252 0
M  V30 7362 H 725.882 -2.05817 3.81866 0
M  V30 7363 H 726.553 -3.66192 4.13047 0
M  V30 7364 H 729.029 -3.52663 2.20834 0
M  V30 7365 H 727.905 -4.87263 2.52718 0
M  V30 7366 H 728.166 -4.33335 0.875953 0
M  V30 7367 N 727.225 -1.14528 -1.08264 0
M  V30 7368 C 728.173 -0.829201 -2.17318 0
M  V30 7369 C 729.167 0.193521 -1.68291 0
M  V30 7370 O 730.373 0.0494744 -1.79932 0
M  V30 7371 H 726.748 -0.250435 -0.709074 0
M  V30 7372 H 728.719 -1.75683 -2.41201 0
M  V30 7373 C 727.468 -0.324663 -3.46181 0
M  V30 7374 H 726.791 -1.10299 -3.84284 0
M  V30 7375 H 728.231 -0.142059 -4.23762 0
M  V30 7376 C 726.69 0.952033 -3.23169 0
M  V30 7377 O 727.22 2.02549 -3.46896 0
M  V30 7378 N 725.426 0.887854 -2.76705 0
M  V30 7379 H 724.973 0.0141402 -2.57596 0
M  V30 7380 H 724.931 1.74263 -2.61686 0
M  V30 7381 N 728.703 1.26451 -0.940633 0
M  V30 7382 C 729.943 1.95537 -0.595381 0
M  V30 7383 C 730.307 1.72175 0.849683 0
M  V30 7384 O 731.508 2.3506 1.30384 0
M  V30 7385 C 729.779 3.45151 -0.927669 0
M  V30 7386 S 731.338 4.33295 -0.69288 0
M  V30 7387 H 728.156 0.676331 -0.219311 0
M  V30 7388 H 730.758 1.53411 -1.21183 0
M  V30 7389 H 729.462 3.59654 -1.9768 0
M  V30 7390 H 728.993 3.92247 -0.300921 0
M  V30 7391 H 731.008 4.94217 0.443175 0
M  V30 7392 N 730.181 0.707592 1.40822 0
M  V30 7393 C 731.458 0.171172 1.9485 0
M  V30 7394 C 731.838 -1.32143 1.64625 0
M  V30 7395 O 731.186 -2.07372 0.959647 0
M  V30 7396 C 731.396 0.475334 3.45748 0
M  V30 7397 C 732.744 0.409625 4.22619 0
M  V30 7398 O 733.768 0.410934 3.53822 0
M  V30 7399 O 732.627 0.380185 5.45176 0
M  V30 7400 H 729.721 0.022015 0.826707 0
M  V30 7401 H 732.267 0.784577 1.50474 0
M  V30 7402 H 731.039 1.50801 3.61075 0
M  V30 7403 H 730.662 -0.168439 3.97243 0
M  V30 7404 N 731.66 -1.50943 0.453197 0
M  V30 7405 C 732.9 -2.0412 -0.106894 0
M  V30 7406 C 733.264 -1.32895 -1.38575 0
M  V30 7407 O 734.465 -1.76529 -2.02709 0
M  V30 7408 C 732.736 -3.561 -0.304565 0
M  V30 7409 S 734.295 -4.3096 -0.825784 0
M  V30 7410 H 731.113 -0.710581 -0.0243969 0
M  V30 7411 H 733.715 -1.85534 0.616239 0
M  V30 7412 H 732.419 -4.055 0.632277 0
M  V30 7413 H 731.95 -3.79009 -1.05433 0
M  V30 7414 H 733.965 -4.49503 -2.10147 0
M  V30 7415 N 733.138 -0.185124 -1.56509 0
M  V30 7416 C 734.363 0.465278 -2.02114 0
M  V30 7417 C 734.788 1.55083 -1.06447 0
M  V30 7418 O 734.146 1.81241 -0.0462852 0
M  V30 7419 C 734.194 1.00784 -3.46229 0
M  V30 7420 O 733.298 2.12123 -3.53663 0
M  V30 7421 H 732.639 0.109891 -0.654843 0
M  V30 7422 H 735.169 -0.293072 -2.0249 0
M  V30 7423 H 735.179 1.32697 -3.85818 0
M  V30 7424 H 733.854 0.213113 -4.15354 0
M  V30 7425 H 732.431 1.8115 -3.25943 0
M  V30 7426 N 734.616 1.57351 0.0885366 0
M  V30 7427 C 735.579 2.01557 1.09121 0
M  V30 7428 C 736.579 0.910052 1.3257 0
M  V30 7429 O 737.769 1.17537 1.28572 0
M  V30 7430 C 734.901 2.38189 2.43883 0
M  V30 7431 H 736.094 2.91361 0.710562 0
M  V30 7432 H 733.647 1.52694 0.333779 0
M  V30 7433 H 734.382 1.5136 2.86811 0
M  V30 7434 H 734.167 3.18846 2.28209 0
M  V30 7435 H 735.657 2.73025 3.15986 0
M  V30 7436 N 736.094 -0.359525 1.53444 0
M  V30 7437 C 737.057 -1.42357 1.7963 0
M  V30 7438 C 738.057 -1.46319 0.666884 0
M  V30 7439 O 739.247 -1.46974 0.935113 0
M  V30 7440 C 736.379 -2.81425 1.92387 0
M  V30 7441 H 737.572 -1.20409 2.74666 0
M  V30 7442 H 735.125 -0.593007 1.44614 0
M  V30 7443 H 735.86 -3.08679 0.994384 0
M  V30 7444 H 735.645 -2.79947 2.74539 0
M  V30 7445 H 737.135 -3.5847 2.14218 0
M  V30 7446 N 737.572 -1.44907 -0.619662 0
M  V30 7447 C 738.82 -1.47999 -1.37625 0
M  V30 7448 C 739.141 -0.118295 -1.94641 0
M  V30 7449 O 738.411 0.85086 -1.76457 0
M  V30 7450 H 736.991 -0.544993 -0.510873 0
M  V30 7451 H 739.653 -1.80772 -0.728522 0
M  V30 7452 H 738.749 -2.21196 -2.20179 0
M  V30 7453 N 739.05 0.861098 -1.31996 0
M  V30 7454 C 740.278 1.6474 -1.25173 0
M  V30 7455 C 740.693 1.87926 0.181425 0
M  V30 7456 O 740.05 1.4437 1.1164 0
M  V30 7457 C 740.101 3.01036 -2.0015 0
M  V30 7458 O 739.822 2.7888 -3.37872 0
M  V30 7459 C 741.323 3.95481 -2.00273 0
M  V30 7460 H 738.543 0.513314 -0.432146 0
M  V30 7461 H 741.087 1.07419 -1.74016 0
M  V30 7462 H 739.242 3.55021 -1.55046 0
M  V30 7463 H 739.656 3.65514 -3.76165 0
M  V30 7464 H 741.13 4.88403 -2.57229 0
M  V30 7465 H 741.607 4.27957 -0.987407 0
M  V30 7466 H 742.213 3.47433 -2.45296 0
M  V30 7467 N 740.528 1.15101 1.07655 0
M  V30 7468 C 741.46 0.802722 2.14684 0
M  V30 7469 C 742.473 -0.183874 1.61758 0
M  V30 7470 O 743.662 0.0389349 1.78458 0
M  V30 7471 C 740.762 0.172135 3.38463 0
M  V30 7472 C 739.935 1.19538 4.20749 0
M  V30 7473 C 738.994 0.58714 5.22914 0
M  V30 7474 O 738.02 1.25224 5.55255 0
M  V30 7475 N 739.222 -0.632566 5.77043 0
M  V30 7476 H 741.987 1.72379 2.45164 0
M  V30 7477 H 739.548 1.04647 1.23534 0
M  V30 7478 H 741.54 -0.247465 4.03943 0
M  V30 7479 H 740.11 -0.652214 3.0572 0
M  V30 7480 H 739.33 1.79165 3.51132 0
M  V30 7481 H 740.618 1.88636 4.7254 0
M  V30 7482 H 740.016 -1.19135 5.53013 0
M  V30 7483 H 738.573 -0.994566 6.44167 0
M  V30 7484 N 742.006 -1.2595 0.947325 0
M  V30 7485 C 743.254 -1.93081 0.596996 0
M  V30 7486 C 743.575 -1.74632 -0.867672 0
M  V30 7487 O 742.845 -1.1056 -1.6172 0
M  V30 7488 H 741.425 -0.714542 0.217805 0
M  V30 7489 H 744.087 -1.53265 1.20398 0
M  V30 7490 H 743.183 -3.01134 0.82004 0
M  V30 7491 N 743.484 -0.715051 -1.40445 0
M  V30 7492 C 744.432 -0.0509974 -2.32544 0
M  V30 7493 C 745.426 0.747602 -1.52011 0
M  V30 7494 O 746.632 0.651031 -1.67814 0
M  V30 7495 H 743.007 0.00231113 -0.751996 0
M  V30 7496 H 744.978 -0.84449 -2.86201 0
M  V30 7497 C 743.727 0.857101 -3.3697 0
M  V30 7498 H 743.05 0.252 -3.99005 0
M  V30 7499 H 744.49 1.28971 -4.03909 0
M  V30 7500 C 742.949 1.98231 -2.72408 0
M  V30 7501 O 743.479 3.07309 -2.58697 0
M  V30 7502 N 741.685 1.76577 -2.308 0
M  V30 7503 H 741.232 0.878641 -2.42152 0
M  V30 7504 H 741.19 2.52043 -1.87941 0
M  V30 7505 N 744.962 1.50701 -0.461195 0
M  V30 7506 C 745.925 2.2686 0.326679 0
M  V30 7507 C 746.925 1.31243 0.929085 0
M  V30 7508 O 748.115 1.54754 0.799807 0
M  V30 7509 C 745.247 3.07844 1.46441 0
M  V30 7510 H 746.44 2.97954 -0.341095 0
M  V30 7511 H 743.993 1.54814 -0.214984 0
M  V30 7512 H 744.728 2.41223 2.16753 0
M  V30 7513 H 744.513 3.78101 1.03836 0
M  V30 7514 H 746.003 3.65469 2.02044 0
M  V30 7515 N 746.441 0.193421 1.56409 0
M  V30 7516 C 747.681 -0.447977 1.9943 0
M  V30 7517 C 748.045 -1.58915 1.07751 0
M  V30 7518 O 749.246 -2.29462 1.40002 0
M  V30 7519 C 747.517 -0.89793 3.45936 0
M  V30 7520 S 749.076 -1.5374 4.10986 0
M  V30 7521 H 745.894 -0.143316 0.696406 0
M  V30 7522 H 748.496 0.296093 1.93245 0
M  V30 7523 H 747.2 -0.0572927 4.1036 0
M  V30 7524 H 746.731 -1.67551 3.55936 0
M  V30 7525 H 748.746 -2.82612 4.07854 0
M  V30 7526 N 747.919 -1.57396 -0.0801906 0
M  V30 7527 C 749.335 -1.53564 -0.434778 0
M  V30 7528 C 749.535 -0.912372 -1.79661 0
M  V30 7529 O 748.591 -0.511268 -2.4727 0
M  V30 7530 C 749.904 -2.98244 -0.383561 0
M  V30 7531 C 751.452 -3.09536 -0.46435 0
M  V30 7532 C 751.927 -4.55851 -0.443128 0
M  V30 7533 N 753.418 -4.60456 -0.503448 0
M  V30 7534 C 754.153 -5.71135 -0.509106 0
M  V30 7535 N 753.649 -6.91203 -0.47008 0
M  V30 7536 N 755.442 -5.59353 -0.555035 0
M  V30 7537 H 747.593 -1.96281 0.811635 0
M  V30 7538 H 749.856 -0.898041 0.303689 0
M  V30 7539 H 749.562 -3.47369 0.550236 0
M  V30 7540 H 749.436 -3.57705 -1.19694 0
M  V30 7541 H 751.823 -2.6039 -1.38857 0
M  V30 7542 H 751.904 -2.53 0.377445 0
M  V30 7543 H 751.548 -5.05653 0.477207 0
M  V30 7544 H 751.478 -5.10242 -1.30234 0
M  V30 7545 H 753.969 -3.74048 -0.538199 0
M  V30 7546 H 754.282 -7.7132 -0.478091 0
M  V30 7547 H 752.627 -6.93625 -0.436897 0
M  V30 7548 H 755.818 -4.64453 -0.583158 0
M  V30 7549 H 755.991 -6.4561 -0.555976 0
M  V30 7550 N 749.397 0.351382 -1.53633 0
M  V30 7551 C 750.344 1.43115 -1.81071 0
M  V30 7552 C 751.314 1.52601 -0.655913 0
M  V30 7553 O 752.499 1.68264 -0.89955 0
M  V30 7554 C 749.639 2.79874 -2.01903 0
M  V30 7555 C 748.752 2.79242 -3.29618 0
M  V30 7556 C 747.887 4.07667 -3.40559 0
M  V30 7557 C 746.926 4.01233 -4.62254 0
M  V30 7558 N 746.063 5.21334 -4.70271 0
M  V30 7559 H 750.903 1.19017 -2.73201 0
M  V30 7560 H 748.44 0.576691 -1.35324 0
M  V30 7561 H 750.398 3.5934 -2.11969 0
M  V30 7562 H 749.028 3.0234 -1.13094 0
M  V30 7563 H 748.08 1.91927 -3.28433 0
M  V30 7564 H 749.392 2.70363 -4.19172 0
M  V30 7565 H 748.546 4.95555 -3.50015 0
M  V30 7566 H 747.285 4.19317 -2.49047 0
M  V30 7567 H 746.29 3.11732 -4.52884 0
M  V30 7568 H 747.515 3.91173 -5.55122 0
M  V30 7569 H 745.461 5.33543 -3.81665 0
M  V30 7570 H 745.378 5.14681 -5.5375 0
M  V30 7571 H 746.646 6.11014 -4.84027 0
M  V30 7572 N 750.875 1.45233 0.611969 0
M  V30 7573 C 752.152 1.39495 1.37115 0
M  V30 7574 C 752.532 0.0633303 2.11005 0
M  V30 7575 O 751.88 -0.954617 2.07604 0
M  V30 7576 C 752.09 2.60579 2.32163 0
M  V30 7577 C 753.438 3.05477 2.94905 0
M  V30 7578 O 754.462 2.60921 2.42485 0
M  V30 7579 O 753.321 3.82787 3.90047 0
M  V30 7580 H 750.415 0.55335 0.614599 0
M  V30 7581 H 752.961 1.57355 0.635423 0
M  V30 7582 H 751.733 3.49085 1.76793 0
M  V30 7583 H 751.356 2.45031 3.13122 0
M  V30 7584 N 752.353 -0.854086 1.3245 0
M  V30 7585 C 753.764 -1.42427 1.20712 0
M  V30 7586 C 754.115 -1.95371 -0.18013 0
M  V30 7587 O 753.24 -1.87587 -1.07889 0
M  V30 7588 C 753.835 -2.58897 2.18536 0
M  V30 7589 C 752.394 -3.11913 2.10683 0
M  V30 7590 C 751.541 -1.84661 2.06871 0
M  V30 7591 H 754.492 -0.661192 1.4427 0
M  V30 7592 H 754.513 -3.36074 1.78422 0
M  V30 7593 H 754.025 -2.20333 3.19492 0
M  V30 7594 H 752.126 -3.55059 1.12977 0
M  V30 7595 H 752.239 -3.73119 3.00532 0
M  V30 7596 H 750.603 -2.04285 1.52118 0
M  V30 7597 H 751.386 -1.48314 3.09609 0
M  V30 7598 N 753.831 -1.1567 -1.07043 0
M  V30 7599 C 755.247 -0.900006 -1.31803 0
M  V30 7600 C 755.447 0.451293 -1.96381 0
M  V30 7601 O 754.503 1.19252 -2.22565 0
M  V30 7602 C 755.816 -2.04334 -2.20609 0
M  V30 7603 C 757.364 -2.07823 -2.34048 0
M  V30 7604 C 757.839 -3.21488 -3.26204 0
M  V30 7605 N 759.33 -3.21156 -3.33786 0
M  V30 7606 C 760.065 -4.05746 -4.05163 0
M  V30 7607 N 759.561 -5.00407 -4.79129 0
M  V30 7608 N 761.354 -3.93759 -4.01136 0
M  V30 7609 H 753.505 -2.02681 -0.635146 0
M  V30 7610 H 755.768 -0.883956 -0.342528 0
M  V30 7611 H 755.474 -3.01895 -1.80423 0
M  V30 7612 H 755.348 -1.97838 -3.21154 0
M  V30 7613 H 757.735 -1.1086 -2.73485 0
M  V30 7614 H 757.816 -2.18386 -1.33197 0
M  V30 7615 H 757.46 -4.18706 -2.87485 0
M  V30 7616 H 757.39 -3.08162 -4.27017 0
M  V30 7617 H 759.881 -2.52606 -2.81067 0
M  V30 7618 H 760.194 -5.61387 -5.31097 0
M  V30 7619 H 758.539 -5.04393 -4.78135 0
M  V30 7620 H 761.73 -3.19115 -3.42466 0
M  V30 7621 H 761.903 -4.59906 -4.56498 0
M  V30 7622 N 755.309 1.25446 -0.953992 0
M  V30 7623 C 756.555 1.9343 -0.60933 0
M  V30 7624 C 756.888 1.74542 0.851388 0
M  V30 7625 O 756.163 1.09014 1.61078 0
M  V30 7626 C 756.446 3.46844 -0.968041 0
M  V30 7627 C 756.299 3.74961 -2.48444 0
M  V30 7628 C 757.618 4.37334 -0.492641 0
M  V30 7629 H 754.737 0.702502 -0.222844 0
M  V30 7630 H 757.379 1.48076 -1.19053 0
M  V30 7631 H 755.529 3.85604 -0.473465 0
M  V30 7632 H 757.201 3.45841 -3.05273 0
M  V30 7633 H 755.444 3.20589 -2.92241 0
M  V30 7634 H 756.115 4.82246 -2.68594 0
M  V30 7635 H 758.591 4.05873 -0.916878 0
M  V30 7636 H 757.467 5.43439 -0.772331 0
M  V30 7637 H 757.728 4.37908 0.607403 0
M  V30 7638 N 756.787 0.722489 1.40064 0
M  V30 7639 C 758.035 0.264455 2.00362 0
M  V30 7640 C 758.356 -1.14847 1.57592 0
M  V30 7641 O 757.626 -1.77982 0.818477 0
M  V30 7642 H 756.206 0.0947846 0.740962 0
M  V30 7643 H 758.868 0.929659 1.71299 0
M  V30 7644 H 757.964 0.302977 3.10626 0
M  V30 7645 N 758.265 -1.50454 0.469181 0
M  V30 7646 C 759.681 -1.59124 0.123226 0
M  V30 7647 C 759.881 -1.47749 -1.37013 0
M  V30 7648 O 758.937 -1.335 -2.14322 0
M  V30 7649 C 760.25 -2.93101 0.67172 0
M  V30 7650 C 761.798 -3.06491 0.634978 0
M  V30 7651 C 762.273 -4.43041 1.16098 0
M  V30 7652 N 763.764 -4.49448 1.12031 0
M  V30 7653 C 764.499 -5.53491 1.49784 0
M  V30 7654 N 763.995 -6.64798 1.94976 0
M  V30 7655 N 765.788 -5.44025 1.41399 0
M  V30 7656 H 757.939 -1.56091 1.44046 0
M  V30 7657 H 760.202 -0.737564 0.59557 0
M  V30 7658 H 759.908 -3.06895 1.7178 0
M  V30 7659 H 759.782 -3.77027 0.114222 0
M  V30 7660 H 762.169 -2.92346 -0.402187 0
M  V30 7661 H 762.25 -2.24328 1.22926 0
M  V30 7662 H 761.894 -4.57935 2.19677 0
M  V30 7663 H 761.824 -5.23794 0.542939 0
M  V30 7664 H 764.315 -3.69575 0.788828 0
M  V30 7665 H 764.628 -7.40246 2.21936 0
M  V30 7666 H 762.973 -6.65923 1.98927 0
M  V30 7667 H 766.164 -4.55955 1.05935 0
M  V30 7668 H 766.337 -6.2499 1.71147 0
M  V30 7669 N 759.743 -0.201713 -1.56304 0
M  V30 7670 C 760.983 0.437395 -1.99665 0
M  V30 7671 C 761.347 1.58341 -1.08592 0
M  V30 7672 O 762.548 2.28716 -1.41217 0
M  V30 7673 C 760.819 0.879572 -3.46408 0
M  V30 7674 S 762.378 1.51558 -4.11795 0
M  V30 7675 H 759.196 0.139621 -0.697156 0
M  V30 7676 H 761.798 -0.306337 -1.93085 0
M  V30 7677 H 760.502 0.0355295 -4.10385 0
M  V30 7678 H 760.033 1.65661 -3.56819 0
M  V30 7679 H 762.048 2.80445 -4.09347 0
M  V30 7680 N 761.222 1.57436 0.0718424 0
M  V30 7681 C 762.152 2.06724 1.08571 0
M  V30 7682 C 763.133 0.960731 1.40371 0
M  V30 7683 O 764.318 1.23345 1.49999 0
M  V30 7684 C 761.448 2.51112 2.39916 0
M  V30 7685 C 760.402 3.65639 2.22469 0
M  V30 7686 C 759.728 3.96082 3.59198 0
M  V30 7687 C 761.028 4.95687 1.64596 0
M  V30 7688 H 762.722 2.91679 0.675569 0
M  V30 7689 H 760.268 1.40319 0.32352 0
M  V30 7690 H 762.221 2.84206 3.11135 0
M  V30 7691 H 760.945 1.63186 2.8291 0
M  V30 7692 H 759.604 3.32828 1.53691 0
M  V30 7693 H 759.252 3.05287 3.99761 0
M  V30 7694 H 758.952 4.73199 3.48362 0
M  V30 7695 H 760.476 4.31672 4.31847 0
M  V30 7696 H 761.89 5.27011 2.25681 0
M  V30 7697 H 760.287 5.77126 1.64457 0
M  V30 7698 H 761.357 4.8108 0.60744 0
M  V30 7699 N 762.7 -0.34323 1.53817 0
M  V30 7700 C 763.94 -1.09188 1.72793 0
M  V30 7701 C 764.304 -1.85876 0.481062 0
M  V30 7702 O 765.505 -2.63158 0.547851 0
M  V30 7703 C 763.776 -2.00783 2.9567 0
M  V30 7704 S 765.335 -2.82866 3.35459 0
M  V30 7705 H 762.153 -0.368926 0.607795 0
M  V30 7706 H 764.755 -0.370265 1.91962 0
M  V30 7707 H 763.459 -1.43245 3.84589 0
M  V30 7708 H 762.99 -2.77381 2.78968 0
M  V30 7709 H 765.005 -4.03196 2.89218 0
M  V30 7710 N 764.178 -1.45556 -0.604258 0
M  V30 7711 C 765.125 -1.54482 -1.71476 0
M  V30 7712 C 766.095 -0.390479 -1.61445 0
M  V30 7713 O 767.28 -0.604371 -1.80975 0
M  V30 7714 C 764.42 -1.52064 -3.09791 0
M  V30 7715 C 763.533 -2.78073 -3.30604 0
M  V30 7716 C 762.668 -2.67304 -4.59044 0
M  V30 7717 C 761.707 -3.88352 -4.73127 0
M  V30 7718 N 760.844 -3.76098 -5.9287 0
M  V30 7719 H 765.684 -2.49349 -1.63184 0
M  V30 7720 H 763.221 -1.23725 -0.795641 0
M  V30 7721 H 765.179 -1.48649 -3.89819 0
M  V30 7722 H 763.809 -0.607442 -3.17033 0
M  V30 7723 H 762.861 -2.91561 -2.44329 0
M  V30 7724 H 764.173 -3.67847 -3.36883 0
M  V30 7725 H 763.327 -2.61875 -5.47272 0
M  V30 7726 H 762.066 -1.75135 -4.55169 0
M  V30 7727 H 761.071 -3.94137 -3.83322 0
M  V30 7728 H 762.296 -4.81591 -4.78797 0
M  V30 7729 H 760.242 -2.867 -5.90033 0
M  V30 7730 H 760.159 -4.59509 -6.00323 0
M  V30 7731 H 761.427 -3.74607 -6.83586 0
M  V30 7732 N 765.656 0.84705 -1.32902 0
M  V30 7733 C 767.067 1.41785 -1.21466 0
M  V30 7734 C 767.418 1.95464 0.169767 0
M  V30 7735 O 766.543 1.88157 1.06892 0
M  V30 7736 C 767.138 2.57734 -2.19906 0
M  V30 7737 C 765.697 3.10791 -2.12334 0
M  V30 7738 C 764.844 1.83562 -2.07847 0
M  V30 7739 H 767.795 0.653532 -1.44619 0
M  V30 7740 H 767.816 3.35123 -1.80202 0
M  V30 7741 H 767.328 2.18635 -3.20656 0
M  V30 7742 H 765.429 3.54455 -1.14858 0
M  V30 7743 H 765.542 3.71519 -3.02506 0
M  V30 7744 H 763.906 2.03475 -1.53199 0
M  V30 7745 H 764.689 1.4667 -3.10392 0
M  V30 7746 N 767.134 1.16236 1.06428 0
M  V30 7747 C 768.082 0.863669 2.15971 0
M  V30 7748 C 769.076 -0.166723 1.68578 0
M  V30 7749 O 770.282 -0.0208425 1.79988 0
M  V30 7750 H 766.657 0.261684 0.705 0
M  V30 7751 H 768.628 1.79498 2.38376 0
M  V30 7752 C 767.377 0.379697 3.45621 0
M  V30 7753 H 766.7 1.16399 3.82481 0
M  V30 7754 H 768.14 0.209458 4.23482 0
M  V30 7755 C 766.599 -0.900499 3.24642 0
M  V30 7756 O 767.129 -1.97004 3.50074 0
M  V30 7757 N 765.335 -0.843721 2.78082 0
M  V30 7758 H 764.882 0.0268429 2.57586 0
M  V30 7759 H 764.84 -1.70078 2.64425 0
M  V30 7760 N 768.612 -1.24939 0.960631 0
M  V30 7761 C 769.859 -1.92818 0.618663 0
M  V30 7762 C 770.187 -1.75177 -0.845173 0
M  V30 7763 O 769.442 -1.09412 -1.62258 0
M  V30 7764 C 769.741 -3.45066 0.930809 0
M  V30 7765 C 769.407 -3.82869 2.38164 0
M  V30 7766 C 768.069 -3.92899 2.7782 0
M  V30 7767 C 770.421 -4.01483 3.32356 0
M  V30 7768 C 767.749 -4.18955 4.10723 0
M  V30 7769 C 770.101 -4.29033 4.6488 0
M  V30 7770 C 768.765 -4.37282 5.04322 0
M  V30 7771 H 768.035 -0.705571 0.226385 0
M  V30 7772 H 770.682 -1.48365 1.21079 0
M  V30 7773 H 768.987 -3.9096 0.256355 0
M  V30 7774 H 770.684 -3.95783 0.644712 0
M  V30 7775 H 767.274 -3.75622 2.06413 0
M  V30 7776 H 771.458 -3.93143 3.02907 0
M  V30 7777 H 766.714 -4.23558 4.40918 0
M  V30 7778 H 770.888 -4.42381 5.3784 0
M  V30 7779 H 768.515 -4.57225 6.0733 0
M  V30 7780 N 770.09 -0.729906 -1.39679 0
M  V30 7781 C 771.022 -0.0470588 -2.29152 0
M  V30 7782 C 772.035 0.708808 -1.4656 0
M  V30 7783 O 773.224 0.553815 -1.69691 0
M  V30 7784 C 770.324 0.957612 -3.25089 0
M  V30 7785 C 769.497 0.264321 -4.36601 0
M  V30 7786 C 768.556 1.17638 -5.12882 0
M  V30 7787 O 767.582 0.655777 -5.6541 0
M  V30 7788 N 768.784 2.50649 -5.23598 0
M  V30 7789 H 771.549 -0.815364 -2.88395 0
M  V30 7790 H 769.11 -0.578707 -1.51204 0
M  V30 7791 H 771.102 1.57026 -3.72995 0
M  V30 7792 H 769.672 1.62716 -2.66912 0
M  V30 7793 H 768.892 -0.528732 -3.90638 0
M  V30 7794 H 770.18 -0.216344 -5.0834 0
M  V30 7795 H 769.578 2.95427 -4.82431 0
M  V30 7796 H 768.135 3.07022 -5.74961 0
M  V30 7797 N 771.568 1.50203 -0.477153 0
M  V30 7798 C 772.816 2.01959 0.0755889 0
M  V30 7799 C 773.137 1.3608 1.39668 0
M  V30 7800 O 772.407 0.508136 1.89195 0
M  V30 7801 H 770.987 0.74636 0.0309248 0
M  V30 7802 H 773.649 1.84473 -0.628959 0
M  V30 7803 H 772.745 3.11305 0.222683 0
M  V30 7804 N 773.046 0.209999 1.56195 0
M  V30 7805 C 774.274 -0.429996 2.02382 0
M  V30 7806 C 774.689 -1.54159 1.08998 0
M  V30 7807 O 774.046 -1.82239 0.0974856 0
M  V30 7808 C 774.097 -0.972433 3.48175 0
M  V30 7809 O 773.818 0.0948231 4.37997 0
M  V30 7810 C 775.319 -1.68683 4.09952 0
M  V30 7811 H 772.539 -0.106475 0.662498 0
M  V30 7812 H 775.083 0.323072 2.01932 0
M  V30 7813 H 773.238 -1.67582 3.49278 0
M  V30 7814 H 773.652 -0.31113 5.23576 0
M  V30 7815 H 775.126 -2.01851 5.13771 0
M  V30 7816 H 775.603 -2.59587 3.54276 0
M  V30 7817 H 776.209 -1.02893 4.12666 0
M  V30 7818 N 774.524 -1.57472 -0.0634922 0
M  V30 7819 C 775.474 -2.00709 -1.08166 0
M  V30 7820 C 776.458 -0.890498 -1.34011 0
M  V30 7821 O 777.65 -1.15441 -1.34173 0
M  V30 7822 C 774.779 -2.46148 -2.39303 0
M  V30 7823 C 773.865 -3.64559 -2.16697 0
M  V30 7824 N 774.256 -4.78459 -1.64043 0
M  V30 7825 C 772.554 -3.71269 -2.47135 0
M  V30 7826 C 773.255 -5.60268 -1.56445 0
M  V30 7827 N 772.231 -5.04357 -2.02792 0
M  V30 7828 H 776.033 -2.86208 -0.668016 0
M  V30 7829 H 773.547 -1.60133 -0.270426 0
M  V30 7830 H 775.544 -2.75367 -3.13016 0
M  V30 7831 H 774.204 -1.62041 -2.81377 0
M  V30 7832 H 775.215 -5.00587 -1.32791 0
M  V30 7833 H 771.892 -2.97891 -2.92518 0
M  V30 7834 H 773.282 -6.6172 -1.16519 0
M  V30 7835 N 776.003 0.335068 -1.53997 0
M  V30 7836 C 777.243 1.0827 -1.7337 0
M  V30 7837 C 777.607 1.85618 -0.490913 0
M  V30 7838 O 778.808 2.62864 -0.561799 0
M  V30 7839 C 777.079 1.99212 -2.96731 0
M  V30 7840 S 778.638 2.81083 -3.36954 0
M  V30 7841 H 775.456 0.365698 -0.609743 0
M  V30 7842 H 778.058 0.360079 -1.92155 0
M  V30 7843 H 776.762 1.41204 -3.85344 0
M  V30 7844 H 776.293 2.75898 -2.80436 0
M  V30 7845 H 778.308 4.01657 -2.91352 0
M  V30 7846 N 777.481 1.45874 0.596531 0
M  V30 7847 C 778.391 1.57947 1.73464 0
M  V30 7848 C 779.407 0.463461 1.67714 0
M  V30 7849 O 780.583 0.725685 1.87872 0
M  V30 7850 C 777.648 1.55348 3.09948 0
M  V30 7851 C 776.709 2.78074 3.27068 0
M  V30 7852 C 775.942 2.75589 4.57041 0
M  V30 7853 O 776.165 1.83545 5.40063 0
M  V30 7854 O 775.099 3.66945 4.77111 0
M  V30 7855 H 778.925 2.54169 1.66228 0
M  V30 7856 H 776.51 1.2851 0.76194 0
M  V30 7857 H 778.392 1.56545 3.91244 0
M  V30 7858 H 777.067 0.622811 3.17652 0
M  V30 7859 H 775.974 2.82435 2.45319 0
M  V30 7860 H 777.307 3.70303 3.24248 0
M  V30 7861 N 778.959 -0.83999 1.33349 0
M  V30 7862 C 779.889 -1.965 1.26135 0
M  V30 7863 C 780.87 -1.69505 0.142152 0
M  V30 7864 O 782.055 -1.91346 0.331743 0
M  V30 7865 C 779.185 -3.32632 0.99866 0
M  V30 7866 C 778.139 -3.74021 2.08068 0
M  V30 7867 C 777.465 -5.07947 1.67014 0
M  V30 7868 C 778.765 -3.87925 3.49731 0
M  V30 7869 H 780.459 -2.02793 2.20262 0
M  V30 7870 H 778.005 -0.974297 1.06035 0
M  V30 7871 H 779.958 -4.10903 0.934696 0
M  V30 7872 H 778.682 -3.26593 0.0217759 0
M  V30 7873 H 777.341 -2.98012 2.13505 0
M  V30 7874 H 776.989 -4.98378 0.680316 0
M  V30 7875 H 776.689 -5.36611 2.39422 0
M  V30 7876 H 778.213 -5.88695 1.62082 0
M  V30 7877 H 779.627 -4.5651 3.46802 0
M  V30 7878 H 778.024 -4.28023 4.20614 0
M  V30 7879 H 779.094 -2.90407 3.88319 0
M  V30 7880 N 780.437 -1.16799 -1.0581 0
M  V30 7881 C 781.677 -0.963264 -1.80279 0
M  V30 7882 C 782.041 0.499671 -1.85384 0
M  V30 7883 O 783.242 0.823264 -2.55882 0
M  V30 7884 C 781.513 -1.57938 -3.20609 0
M  V30 7885 S 783.072 -1.51997 -4.11634 0
M  V30 7886 H 779.89 -0.346302 -0.620964 0
M  V30 7887 H 782.492 -1.48632 -1.26999 0
M  V30 7888 H 781.196 -2.63672 -3.14492 0
M  V30 7889 H 780.727 -1.05586 -3.78966 0
M  V30 7890 H 782.742 -0.523625 -4.93429 0
M  V30 7891 N 781.915 1.24427 -0.967243 0
M  V30 7892 C 782.878 2.23637 -0.501927 0
M  V30 7893 C 783.878 1.55712 0.401283 0
M  V30 7894 O 785.068 1.73085 0.196808 0
M  V30 7895 C 782.2 3.39804 0.273176 0
M  V30 7896 H 783.393 2.66317 -1.37897 0
M  V30 7897 H 780.946 1.37033 -0.751783 0
M  V30 7898 H 781.681 3.02562 1.16733 0
M  V30 7899 H 781.466 3.90303 -0.37498 0
M  V30 7900 H 782.956 4.13443 0.587776 0
M  V30 7901 N 783.393 0.737304 1.3929 0
M  V30 7902 C 784.804 0.355966 1.83275 0
M  V30 7903 C 785.155 -1.11295 1.6158 0
M  V30 7904 O 784.28 -1.85871 1.10819 0
M  V30 7905 C 784.875 0.63931 3.32713 0
M  V30 7906 C 783.434 0.31144 3.75109 0
M  V30 7907 C 782.581 0.900765 2.62262 0
M  V30 7908 H 785.532 0.934763 1.28249 0
M  V30 7909 H 785.553 -0.0881293 3.80398 0
M  V30 7910 H 785.065 1.70847 3.48472 0
M  V30 7911 H 783.166 -0.751791 3.64937 0
M  V30 7912 H 783.279 0.795611 4.72448 0
M  V30 7913 H 781.643 0.327239 2.52589 0
M  V30 7914 H 782.426 1.97463 2.80826 0
M  V30 7915 N 784.871 -1.49948 0.485112 0
M  V30 7916 C 786.119 -2.01996 -0.0648775 0
M  V30 7917 C 786.44 -1.36819 -1.38945 0
M  V30 7918 O 785.71 -0.518163 -1.88923 0
M  V30 7919 H 784.29 -0.746513 -0.0269662 0
M  V30 7920 H 786.952 -1.84136 0.638733 0
M  V30 7921 H 786.048 -3.11418 -0.20617 0
M  V30 7922 N 786.349 -0.21828 -1.56081 0
M  V30 7923 C 787.596 0.414307 -1.98216 0
M  V30 7924 C 787.924 1.60005 -1.10584 0
M  V30 7925 O 787.179 1.95124 -0.150043 0
M  V30 7926 C 787.478 0.894782 -3.46018 0
M  V30 7927 C 787.144 -0.180083 -4.5054 0
M  V30 7928 C 785.806 -0.475367 -4.78846 0
M  V30 7929 C 788.158 -0.907191 -5.13244 0
M  V30 7930 C 785.486 -1.50233 -5.67139 0
M  V30 7931 C 787.838 -1.92347 -6.02649 0
M  V30 7932 C 786.502 -2.22571 -6.293 0
M  V30 7933 H 785.772 0.151606 -0.725325 0
M  V30 7934 H 788.419 -0.320113 -1.88806 0
M  V30 7935 H 786.724 1.7079 -3.52616 0
M  V30 7936 H 788.421 1.39403 -3.75989 0
M  V30 7937 H 785.011 0.06022 -4.28558 0
M  V30 7938 H 789.195 -0.692303 -4.91448 0
M  V30 7939 H 784.451 -1.74215 -5.86054 0
M  V30 7940 H 788.625 -2.49197 -6.50288 0
M  V30 7941 H 786.252 -3.0229 -6.97513 0
M  V30 7942 N 787.827 1.57504 0.0551401 0
M  V30 7943 C 789.057 1.92015 0.762472 0
M  V30 7944 C 789.465 0.814088 1.7079 0
M  V30 7945 O 788.808 -0.220273 1.82375 0
M  V30 7946 C 788.87 3.22132 1.59598 0
M  V30 7947 C 788.534 4.49617 0.818141 0
M  V30 7948 C 789.531 5.19738 0.129933 0
M  V30 7949 C 787.216 4.96201 0.780387 0
M  V30 7950 C 789.21 6.34704 -0.585616 0
M  V30 7951 C 786.897 6.11069 0.0610756 0
M  V30 7952 C 787.895 6.80174 -0.62071 0
M  V30 7953 O 787.583 7.92849 -1.3284 0
M  V30 7954 H 787.315 0.638866 0.220967 0
M  V30 7955 H 789.869 2.05385 0.0246362 0
M  V30 7956 H 788.099 3.05016 2.37701 0
M  V30 7957 H 789.788 3.42166 2.18351 0
M  V30 7958 H 790.554 4.84767 0.150299 0
M  V30 7959 H 786.433 4.42275 1.30054 0
M  V30 7960 H 789.977 6.88578 -1.11833 0
M  V30 7961 H 785.874 6.45488 0.0386945 0
M  V30 7962 H 786.642 8.09062 -1.23938 0
M  V30 7963 N 789.305 -0.326896 1.54172 0
M  V30 7964 C 790.553 -1.06313 1.71878 0
M  V30 7965 C 790.874 -1.88652 0.493498 0
M  V30 7966 O 790.144 -1.89608 -0.492522 0
M  V30 7967 H 788.724 -0.39549 0.633716 0
M  V30 7968 H 791.386 -0.364139 1.91468 0
M  V30 7969 H 790.482 -1.73105 2.59694 0
M  V30 7970 N 790.784 -1.46188 -0.588786 0
M  V30 7971 C 792.195 -1.45421 -1.17088 0
M  V30 7972 C 792.546 -0.191801 -1.9526 0
M  V30 7973 O 791.671 0.705497 -2.04577 0
M  V30 7974 C 792.266 -2.63467 -2.13004 0
M  V30 7975 C 790.825 -2.6576 -2.6655 0
M  V30 7976 C 789.972 -2.38002 -1.42304 0
M  V30 7977 H 792.923 -1.54156 -0.377052 0
M  V30 7978 H 792.944 -2.38638 -2.96365 0
M  V30 7979 H 792.456 -3.55331 -1.56081 0
M  V30 7980 H 790.557 -1.77952 -3.27359 0
M  V30 7981 H 790.67 -3.65545 -3.09699 0
M  V30 7982 H 789.034 -1.87936 -1.71907 0
M  V30 7983 H 789.817 -3.32035 -0.872209 0
M  V30 7984 N 792.262 0.832906 -1.33792 0
M  V30 7985 C 793.51 1.58539 -1.25338 0
M  V30 7986 C 793.831 1.94175 0.179204 0
M  V30 7987 O 793.101 1.61458 1.10941 0
M  V30 7988 H 791.681 0.58784 -0.460926 0
M  V30 7989 H 794.343 0.995064 -1.67584 0
M  V30 7990 H 793.439 2.51268 -1.85123 0
M  V30 7991 N 793.74 1.17359 1.05189 0
M  V30 7992 C 794.98 0.972812 1.79766 0
M  V30 7993 C 795.344 -0.489832 1.85647 0
M  V30 7994 O 796.545 -0.809682 2.56315 0
M  V30 7995 C 794.816 1.59636 3.19767 0
M  V30 7996 S 796.375 1.54178 4.10822 0
M  V30 7997 H 793.193 0.34959 0.619119 0
M  V30 7998 H 795.795 1.49304 1.26209 0
M  V30 7999 H 794.499 2.65336 3.13089 0
M  V30 8000 H 794.03 1.07594 3.78401 0
M  V30 8001 H 796.045 0.549785 4.93145 0
M  V30 8002 N 795.218 -1.23913 0.973828 0
M  V30 8003 C 796.15 -2.24397 0.466763 0
M  V30 8004 C 797.163 -1.57078 -0.427828 0
M  V30 8005 O 798.352 -1.76973 -0.233019 0
M  V30 8006 C 795.452 -3.37141 -0.344798 0
M  V30 8007 C 794.625 -4.34037 0.541349 0
M  V30 8008 C 793.684 -5.2576 -0.215243 0
M  V30 8009 O 792.71 -5.67842 0.39291 0
M  V30 8010 N 793.912 -5.60702 -1.5031 0
M  V30 8011 H 796.677 -2.68536 1.33074 0
M  V30 8012 H 794.238 -1.38017 0.846346 0
M  V30 8013 H 796.23 -3.95476 -0.859133 0
M  V30 8014 H 794.8 -2.92239 -1.10974 0
M  V30 8015 H 794.02 -3.74302 1.23659 0
M  V30 8016 H 795.308 -4.95738 1.1455 0
M  V30 8017 H 794.706 -5.28451 -2.01882 0
M  V30 8018 H 793.263 -6.21538 -1.96301 0
M  V30 8019 N 796.696 -0.74468 -1.38897 0
M  V30 8020 C 798.107 -0.36568 -1.83084 0
M  V30 8021 C 798.458 1.10436 -1.62168 0
M  V30 8022 O 797.583 1.85281 -1.11804 0
M  V30 8023 C 798.178 -0.656946 -3.3237 0
M  V30 8024 C 796.737 -0.331329 -3.74939 0
M  V30 8025 C 795.884 -0.914661 -2.61781 0
M  V30 8026 H 798.835 -0.941551 -1.27752 0
M  V30 8027 H 798.856 0.0679546 -3.80439 0
M  V30 8028 H 798.368 -1.72693 -3.47561 0
M  V30 8029 H 796.469 0.732426 -3.6533 0
M  V30 8030 H 796.582 -0.820655 -4.72019 0
M  V30 8031 H 794.946 -0.34063 -2.52412 0
M  V30 8032 H 795.729 -1.98949 -2.79775 0
M  V30 8033 N 798.174 1.49689 -0.493057 0
M  V30 8034 C 799.414 2.04332 0.0527374 0
M  V30 8035 C 799.778 1.36522 1.35003 0
M  V30 8036 O 800.979 1.81842 1.97957 0
M  V30 8037 C 799.25 3.56782 0.210044 0
M  V30 8038 S 800.809 4.32998 0.711232 0
M  V30 8039 H 797.627 0.710978 0.00554853 0
M  V30 8040 H 800.229 1.83835 -0.665213 0
M  V30 8041 H 798.933 4.03681 -0.739566 0
M  V30 8042 H 798.464 3.81671 0.953468 0
M  V30 8043 H 800.479 4.54916 1.98156 0
M  V30 8044 N 799.652 0.226554 1.55963 0
M  V30 8045 C 800.584 -0.713907 2.17798 0
M  V30 8046 C 801.597 -1.15387 1.14846 0
M  V30 8047 O 802.786 -1.08416 1.41804 0
M  V30 8048 C 799.886 -1.97945 2.75084 0
M  V30 8049 C 799.059 -1.69424 4.03255 0
M  V30 8050 C 798.118 -2.80734 4.45056 0
M  V30 8051 O 797.144 -2.4899 5.11852 0
M  V30 8052 N 798.346 -4.09797 4.11152 0
M  V30 8053 H 801.111 -0.18494 2.99129 0
M  V30 8054 H 798.672 0.0457346 1.61835 0
M  V30 8055 H 800.664 -2.71611 3.00016 0
M  V30 8056 H 799.234 -2.41876 1.98027 0
M  V30 8057 H 798.454 -0.793767 3.86126 0
M  V30 8058 H 799.742 -1.47806 4.86858 0
M  V30 8059 H 799.14 -4.38429 3.57486 0
M  V30 8060 H 797.697 -4.79992 4.40966 0
M  V30 8061 N 801.13 -1.57531 -0.0467866 0
M  V30 8062 C 802.37 -1.90294 -0.746171 0
M  V30 8063 C 802.734 -0.823194 -1.73458 0
M  V30 8064 O 803.935 -1.03463 -2.48091 0
M  V30 8065 C 802.206 -3.28249 -1.41378 0
M  V30 8066 S 803.765 -3.82812 -2.14477 0
M  V30 8067 H 800.583 -0.666496 -0.247598 0
M  V30 8068 H 803.185 -1.955 -0.00135143 0
M  V30 8069 H 801.889 -4.04712 -0.680937 0
M  V30 8070 H 801.42 -3.26302 -2.19751 0
M  V30 8071 H 803.435 -3.60111 -3.41372 0
M  V30 8072 N 802.608 0.318715 -1.54344 0
M  V30 8073 C 803.833 1.07987 -1.77069 0
M  V30 8074 C 804.258 1.80766 -0.520117 0
M  V30 8075 O 803.616 1.73424 0.528566 0
M  V30 8076 C 803.664 2.04987 -2.96669 0
M  V30 8077 O 802.768 3.12974 -2.68554 0
M  V30 8078 H 802.109 0.311109 -0.586606 0
M  V30 8079 H 804.639 0.361533 -2.0138 0
M  V30 8080 H 804.649 2.47771 -3.2415 0
M  V30 8081 H 803.324 1.51417 -3.87357 0
M  V30 8082 H 801.901 2.74831 -2.52037 0
M  V30 8083 N 804.086 1.46499 0.581025 0
M  V30 8084 C 805.311 1.55708 1.37002 0
M  V30 8085 C 805.736 0.19942 1.8704 0
M  V30 8086 O 805.094 -0.820731 1.61659 0
M  V30 8087 C 805.142 2.56716 2.53238 0
M  V30 8088 O 804.246 2.10336 3.54729 0
M  V30 8089 H 803.587 0.523912 0.407937 0
M  V30 8090 H 806.117 1.92085 0.704602 0
M  V30 8091 H 806.127 2.76378 3.00132 0
M  V30 8092 H 804.802 3.55307 2.16171 0
M  V30 8093 H 803.379 2.00669 3.14303 0
M  V30 8094 N 805.565 -0.825799 1.34232 0
M  V30 8095 C 806.976 -1.39835 1.23706 0
M  V30 8096 C 807.327 -1.95709 -0.138649 0
M  V30 8097 O 806.452 -1.89833 -1.03886 0
M  V30 8098 C 807.047 -2.54203 2.23978 0
M  V30 8099 C 805.606 -3.07374 2.17251 0
M  V30 8100 C 804.753 -1.80232 2.10741 0
M  V30 8101 H 807.704 -0.630442 1.4564 0
M  V30 8102 H 807.725 -3.32214 1.8551 0
M  V30 8103 H 807.237 -2.13506 3.24094 0
M  V30 8104 H 805.338 -3.52583 1.20483 0
M  V30 8105 H 805.451 -3.6666 3.08379 0
M  V30 8106 H 803.815 -2.01012 1.56417 0
M  V30 8107 H 804.598 -1.41713 3.12686 0
M  V30 8108 N 807.043 -1.17915 -1.04565 0
M  V30 8109 C 808.291 -0.969505 -1.77327 0
M  V30 8110 C 808.612 0.502569 -1.88412 0
M  V30 8111 O 807.882 1.36467 -1.40547 0
M  V30 8112 H 806.462 -0.355723 -0.656864 0
M  V30 8113 H 809.124 -1.48506 -1.26223 0
M  V30 8114 H 808.22 -1.40324 -2.78775 0
M  V30 8115 N 808.521 1.23394 -0.980386 0
M  V30 8116 C 809.767 1.92094 -0.650223 0
M  V30 8117 C 810.1 1.76309 0.814173 0
M  V30 8118 O 809.375 1.12406 1.5873 0
M  V30 8119 C 809.658 3.44713 -1.04139 0
M  V30 8120 C 809.511 3.69606 -2.56342 0
M  V30 8121 C 810.83 4.36191 -0.585296 0
M  V30 8122 H 807.949 0.697618 -0.237695 0
M  V30 8123 H 810.591 1.45517 -1.22167 0
M  V30 8124 H 808.741 3.84513 -0.55515 0
M  V30 8125 H 810.413 3.39288 -3.1254 0
M  V30 8126 H 808.656 3.14318 -2.98976 0
M  V30 8127 H 809.327 4.76441 -2.78762 0
M  V30 8128 H 811.803 4.03836 -1.00276 0
M  V30 8129 H 810.679 5.41679 -0.887428 0
M  V30 8130 H 810.94 4.39097 0.51438 0
M  V30 8131 N 809.999 0.752036 1.385 0
M  V30 8132 C 810.962 0.131587 2.28822 0
M  V30 8133 C 811.962 -0.649149 1.47115 0
M  V30 8134 O 813.152 -0.475645 1.67581 0
M  V30 8135 C 810.284 -0.822101 3.30839 0
M  V30 8136 H 811.477 0.927551 2.85196 0
M  V30 8137 H 809.03 0.518945 1.47434 0
M  V30 8138 H 809.765 -1.6438 2.79553 0
M  V30 8139 H 809.55 -0.264689 3.91206 0
M  V30 8140 H 811.04 -1.25226 3.98382 0
M  V30 8141 N 811.477 -1.49425 0.500989 0
M  V30 8142 C 812.754 -1.9531 -0.106551 0
M  V30 8143 C 813.134 -1.44248 -1.54129 0
M  V30 8144 O 812.482 -0.656237 -2.18874 0
M  V30 8145 C 812.692 -3.48995 -0.0191972 0
M  V30 8146 C 814.04 -4.24161 -0.193129 0
M  V30 8147 O 815.064 -3.56075 -0.0943843 0
M  V30 8148 O 813.923 -5.45064 -0.395869 0
M  V30 8149 H 811.017 -0.82149 -0.0953068 0
M  V30 8150 H 813.563 -1.6007 0.563526 0
M  V30 8151 H 812.335 -3.78794 0.981353 0
M  V30 8152 H 811.958 -3.90852 -0.72942 0
M  V30 8153 N 812.955 -0.234822 -1.55841 0
M  V30 8154 C 814.232 0.442961 -1.90518 0
M  V30 8155 C 814.612 1.76768 -1.15397 0
M  V30 8156 O 813.96 2.26928 -0.267534 0
M  V30 8157 C 814.17 0.622905 -3.43396 0
M  V30 8158 C 815.518 0.9243 -4.14417 0
M  V30 8159 O 816.542 0.709211 -3.49068 0
M  V30 8160 O 815.401 1.33323 -5.29988 0
M  V30 8161 H 812.495 0.236042 -0.792599 0
M  V30 8162 H 815.041 -0.277992 -1.67408 0
M  V30 8163 H 813.813 -0.310973 -3.90062 0
M  V30 8164 H 813.436 1.39485 -3.7233 0
M  V30 8165 N 814.433 1.57553 0.0384317 0
M  V30 8166 C 815.849 1.54663 0.39391 0
M  V30 8167 C 816.049 0.959685 1.77179 0
M  V30 8168 O 815.105 0.576647 2.45827 0
M  V30 8169 C 816.418 2.99156 0.304352 0
M  V30 8170 C 817.966 3.10659 0.382119 0
M  V30 8171 C 818.441 4.56866 0.322111 0
M  V30 8172 N 819.932 4.61629 0.38119 0
M  V30 8173 C 820.667 5.72284 0.357501 0
M  V30 8174 N 820.163 6.92207 0.286654 0
M  V30 8175 N 821.956 5.60628 0.406538 0
M  V30 8176 H 814.107 1.9406 -0.86339 0
M  V30 8177 H 816.37 0.889673 -0.327392 0
M  V30 8178 H 816.076 3.45788 -0.642141 0
M  V30 8179 H 815.95 3.60753 1.10168 0
M  V30 8180 H 818.337 2.6398 1.31904 0
M  V30 8181 H 818.418 2.5191 -0.444391 0
M  V30 8182 H 818.062 5.0421 -0.611104 0
M  V30 8183 H 817.992 5.13515 1.1666 0
M  V30 8184 H 820.483 3.75343 0.438838 0
M  V30 8185 H 820.796 7.72316 0.273421 0
M  V30 8186 H 819.141 6.9454 0.252841 0
M  V30 8187 H 822.332 4.65836 0.459812 0
M  V30 8188 H 822.505 6.46858 0.384608 0
M  V30 8189 N 815.911 -0.310526 1.54511 0
M  V30 8190 C 817.151 -1.05498 1.7507 0
M  V30 8191 C 817.515 -1.84814 0.520381 0
M  V30 8192 O 818.716 -2.61937 0.603547 0
M  V30 8193 C 816.987 -1.94466 2.99863 0
M  V30 8194 S 818.546 -2.75686 3.41383 0
M  V30 8195 H 815.364 -0.355951 0.615483 0
M  V30 8196 H 817.966 -0.329464 1.92704 0
M  V30 8197 H 816.67 -1.35055 3.87541 0
M  V30 8198 H 816.201 -2.71401 2.84789 0
M  V30 8199 H 818.216 -3.96971 2.97706 0
M  V30 8200 N 817.389 -1.46805 -0.573248 0
M  V30 8201 C 818.666 -1.43082 -1.33368 0
M  V30 8202 C 819.046 -0.119252 -2.10763 0
M  V30 8203 O 818.394 0.899239 -2.10062 0
M  V30 8204 C 818.604 -2.66643 -2.25172 0
M  V30 8205 C 819.952 -3.13188 -2.86702 0
M  V30 8206 O 820.976 -2.67258 -2.35482 0
M  V30 8207 O 819.835 -3.92994 -3.79761 0
M  V30 8208 H 816.929 -0.569451 -0.599712 0
M  V30 8209 H 819.475 -1.58984 -0.59348 0
M  V30 8210 H 818.247 -3.53649 -1.67475 0
M  V30 8211 H 817.87 -2.53247 -3.06516 0
M  V30 8212 N 818.867 0.818669 -1.34668 0
M  V30 8213 C 820.278 1.39177 -1.24446 0
M  V30 8214 C 820.629 1.9578 0.128268 0
M  V30 8215 O 819.754 1.90382 1.02877 0
M  V30 8216 C 820.349 2.53012 -2.25323 0
M  V30 8217 C 818.908 3.06218 -2.18878 0
M  V30 8218 C 818.055 1.79112 -2.11694 0
M  V30 8219 H 821.006 0.622709 -1.45973 0
M  V30 8220 H 821.027 3.31226 -1.8727 0
M  V30 8221 H 820.539 2.11784 -3.25221 0
M  V30 8222 H 818.64 3.51939 -1.22351 0
M  V30 8223 H 818.753 3.65019 -3.10319 0
M  V30 8224 H 817.117 2.0018 -1.57481 0
M  V30 8225 H 817.9 1.40053 -3.13433 0
M  V30 8226 N 820.346 1.18468 1.03938 0
M  V30 8227 C 821.623 0.890435 1.74157 0
M  V30 8228 C 822.003 -0.606409 2.02203 0
M  V30 8229 O 821.351 -1.5615 1.66822 0
M  V30 8230 C 821.561 1.73906 3.02585 0
M  V30 8231 C 822.909 1.96686 3.76297 0
M  V30 8232 O 823.933 1.70969 3.12487 0
M  V30 8233 O 822.792 2.39986 4.90988 0
M  V30 8234 H 819.886 0.330889 0.757919 0
M  V30 8235 H 822.432 1.29228 1.09992 0
M  V30 8236 H 821.204 2.75369 2.78006 0
M  V30 8237 H 820.827 1.33581 3.74489 0
M  V30 8238 N 821.824 -1.22873 0.986916 0
M  V30 8239 C 823.052 -1.95487 0.677663 0
M  V30 8240 C 823.467 -1.72978 -0.756572 0
M  V30 8241 O 822.824 -1.02517 -1.50985 0
M  V30 8242 C 822.875 -3.48337 0.966638 0
M  V30 8243 O 822.596 -3.70087 2.34451 0
M  V30 8244 C 824.097 -4.38142 0.674248 0
M  V30 8245 H 821.317 -0.622211 0.251185 0
M  V30 8246 H 823.861 -1.56187 1.32007 0
M  V30 8247 H 822.016 -3.85628 0.370137 0
M  V30 8248 H 822.43 -4.64332 2.43918 0
M  V30 8249 H 823.904 -5.44165 0.926759 0
M  V30 8250 H 824.381 -4.3745 -0.391728 0
M  V30 8251 H 824.987 -4.06469 1.25152 0
M  V30 8252 N 823.302 -0.75937 -1.38099 0
M  V30 8253 C 824.55 -0.317485 -1.99591 0
M  V30 8254 C 824.871 1.10628 -1.60581 0
M  V30 8255 O 824.141 1.7575 -0.865378 0
M  V30 8256 H 822.721 -0.114397 -0.738189 0
M  V30 8257 H 825.383 -0.974749 -1.68774 0
M  V30 8258 H 824.479 -0.385227 -3.09713 0
M  V30 8259 N 824.78 1.49157 -0.508906 0
M  V30 8260 C 825.712 2.272 0.302115 0
M  V30 8261 C 826.725 1.3407 0.923529 0
M  V30 8262 O 827.914 1.5929 0.805532 0
M  V30 8263 C 825.014 3.06736 1.44105 0
M  V30 8264 C 824.187 4.27497 0.925477 0
M  V30 8265 C 823.246 4.89014 1.94297 0
M  V30 8266 O 822.272 5.48851 1.50834 0
M  V30 8267 N 823.474 4.7937 3.2739 0
M  V30 8268 H 826.239 2.97443 -0.367115 0
M  V30 8269 H 823.8 1.58248 -0.341933 0
M  V30 8270 H 825.792 3.44763 2.11944 0
M  V30 8271 H 824.362 2.3905 2.0143 0
M  V30 8272 H 823.582 3.94135 0.0717301 0
M  V30 8273 H 824.87 5.05714 0.55955 0
M  V30 8274 H 824.268 4.31869 3.65384 0
M  V30 8275 H 822.825 5.21559 3.90922 0
M  V30 8276 N 826.258 0.243083 1.55714 0
M  V30 8277 C 827.498 -0.384303 2.00755 0
M  V30 8278 C 827.862 -1.55406 1.12752 0
M  V30 8279 O 829.063 -2.24892 1.47231 0
M  V30 8280 C 827.334 -0.787419 3.48618 0
M  V30 8281 S 828.893 -1.40587 4.15669 0
M  V30 8282 H 825.711 -0.121088 0.700613 0
M  V30 8283 H 828.313 0.357423 1.92205 0
M  V30 8284 H 827.017 0.0732892 4.10335 0
M  V30 8285 H 826.548 -1.56142 3.61086 0
M  V30 8286 H 828.563 -2.69493 4.16639 0
M  V30 8287 N 827.736 -1.57571 -0.0300757 0
M  V30 8288 C 829.152 -1.54869 -0.385703 0
M  V30 8289 C 829.352 -0.969068 -1.76667 0
M  V30 8290 O 828.408 -0.589676 -2.45518 0
M  V30 8291 C 829.721 -2.99313 -0.288482 0
M  V30 8292 C 831.269 -3.10857 -0.365638 0
M  V30 8293 C 831.744 -4.5703 -0.297878 0
M  V30 8294 N 833.235 -4.61825 -0.356703 0
M  V30 8295 C 833.97 -5.72466 -0.327146 0
M  V30 8296 N 833.466 -6.92349 -0.249941 0
M  V30 8297 N 835.259 -5.60836 -0.376801 0
M  V30 8298 H 827.41 -1.936 0.87367 0
M  V30 8299 H 829.673 -0.887924 0.332106 0
M  V30 8300 H 829.379 -3.45443 0.66047 0
M  V30 8301 H 829.253 -3.61332 -1.08253 0
M  V30 8302 H 831.64 -2.64676 -1.30502 0
M  V30 8303 H 831.721 -2.51671 0.457744 0
M  V30 8304 H 831.365 -5.03879 0.637835 0
M  V30 8305 H 831.295 -5.14127 -1.13935 0
M  V30 8306 H 833.786 -3.75571 -0.418926 0
M  V30 8307 H 834.099 -7.7245 -0.23246 0
M  V30 8308 H 832.444 -6.94664 -0.216004 0
M  V30 8309 H 835.635 -4.66073 -0.435101 0
M  V30 8310 H 835.808 -6.47052 -0.350298 0
M  V30 8311 N 829.214 0.302327 -1.54673 0
M  V30 8312 C 830.454 1.04568 -1.75627 0
M  V30 8313 C 830.818 1.84535 -0.530175 0
M  V30 8314 O 832.019 2.61613 -0.61743 0
M  V30 8315 C 830.29 1.92873 -3.0089 0
M  V30 8316 S 831.849 2.73872 -3.4284 0
M  V30 8317 H 828.667 0.352682 -0.617362 0
M  V30 8318 H 831.269 0.319239 -1.92876 0
M  V30 8319 H 829.973 1.32998 -3.88252 0
M  V30 8320 H 829.504 2.69887 -2.86225 0
M  V30 8321 H 831.519 3.95386 -2.99807 0
M  V30 8322 N 830.692 1.47107 0.565454 0
M  V30 8323 C 832.108 1.32443 0.890566 0
M  V30 8324 C 832.308 0.308735 1.99121 0
M  V30 8325 O 831.364 -0.28265 2.50913 0
M  V30 8326 C 832.677 2.71548 1.2916 0
M  V30 8327 C 834.225 2.7977 1.40349 0
M  V30 8328 C 834.7 4.19497 1.83811 0
M  V30 8329 N 836.191 4.21998 1.90975 0
M  V30 8330 C 836.926 5.2702 2.25916 0
M  V30 8331 N 836.422 6.42353 2.59527 0
M  V30 8332 N 838.215 5.14393 2.26619 0
M  V30 8333 H 830.366 2.11786 -0.161328 0
M  V30 8334 H 832.629 0.947952 -0.00950631 0
M  V30 8335 H 832.335 3.47265 0.556753 0
M  V30 8336 H 832.209 3.02782 2.24951 0
M  V30 8337 H 834.596 2.0433 2.12916 0
M  V30 8338 H 834.677 2.522 0.427655 0
M  V30 8339 H 834.321 4.95439 1.11816 0
M  V30 8340 H 834.251 4.44486 2.82382 0
M  V30 8341 H 836.742 3.38791 1.6742 0
M  V30 8342 H 837.055 7.18252 2.85191 0
M  V30 8343 H 835.4 6.45687 2.57126 0
M  V30 8344 H 838.591 4.2332 1.99794 0
M  V30 8345 H 838.764 5.96349 2.5352 0
M  V30 8346 N 832.17 -0.811516 1.35101 0
M  V30 8347 C 833.416 -1.57068 1.28287 0
M  V30 8348 C 833.749 -1.93667 -0.143808 0
M  V30 8349 O 833.024 -1.60953 -1.09199 0
M  V30 8350 C 833.307 -2.86259 2.18466 0
M  V30 8351 C 833.16 -2.56168 3.69727 0
M  V30 8352 C 834.479 -3.87924 2.07852 0
M  V30 8353 H 831.598 -0.569869 0.467353 0
M  V30 8354 H 834.24 -0.934023 1.65457 0
M  V30 8355 H 832.39 -3.4059 1.86898 0
M  V30 8356 H 834.062 -2.08059 4.11715 0
M  V30 8357 H 832.305 -1.89436 3.90252 0
M  V30 8358 H 832.976 -3.48344 4.28206 0
M  V30 8359 H 835.452 -3.4298 2.35593 0
M  V30 8360 H 834.328 -4.76106 2.73157 0
M  V30 8361 H 834.589 -4.2923 1.05896 0
M  V30 8362 N 833.648 -1.19017 -1.03309 0
M  V30 8363 C 834.896 -0.988258 -1.76289 0
M  V30 8364 C 835.217 0.482557 -1.88935 0
M  V30 8365 O 834.487 1.34969 -1.41987 0
M  V30 8366 H 833.067 -0.36267 -0.653054 0
M  V30 8367 H 835.729 -1.49836 -1.2464 0
M  V30 8368 H 834.825 -1.43273 -2.77271 0
M  V30 8369 N 835.127 1.22348 -0.993418 0
M  V30 8370 C 836.374 1.9111 -0.669568 0
M  V30 8371 C 836.702 1.77357 0.79843 0
M  V30 8372 O 835.957 1.13675 1.593 0
M  V30 8373 C 836.256 3.42477 -1.02197 0
M  V30 8374 C 835.922 3.7642 -2.48232 0
M  V30 8375 C 834.584 3.85395 -2.88139 0
M  V30 8376 C 836.936 3.9253 -3.42884 0
M  V30 8377 C 834.264 4.07918 -4.21687 0
M  V30 8378 C 836.616 4.16557 -4.76091 0
M  V30 8379 C 835.28 4.23757 -5.15739 0
M  V30 8380 H 834.55 0.699321 -0.245012 0
M  V30 8381 H 837.197 1.45102 -1.2497 0
M  V30 8382 H 835.502 3.90143 -0.359921 0
M  V30 8383 H 837.199 3.93935 -0.74942 0
M  V30 8384 H 833.789 3.70017 -2.16299 0
M  V30 8385 H 837.973 3.84974 -3.13224 0
M  V30 8386 H 833.229 4.11719 -4.51993 0
M  V30 8387 H 837.403 4.27966 -5.4938 0
M  V30 8388 H 835.03 4.40962 -6.19239 0
M  V30 8389 N 836.605 0.766683 1.37694 0
M  V30 8390 C 837.515 0.150158 2.34119 0
M  V30 8391 C 838.531 -0.685513 1.59927 0
M  V30 8392 O 839.707 -0.606616 1.92047 0
M  V30 8393 C 836.772 -0.722562 3.39087 0
M  V30 8394 C 835.833 0.128983 4.29106 0
M  V30 8395 C 835.066 -0.702178 5.29061 0
M  V30 8396 O 835.289 -1.93954 5.36412 0
M  V30 8397 O 834.223 -0.114056 6.01792 0
M  V30 8398 H 838.049 0.946829 2.88563 0
M  V30 8399 H 835.634 0.527765 1.39768 0
M  V30 8400 H 837.516 -1.22095 4.03325 0
M  V30 8401 H 836.191 -1.49751 2.86978 0
M  V30 8402 H 835.098 0.673612 3.67985 0
M  V30 8403 H 836.431 0.866892 4.84506 0
M  V30 8404 N 838.083 -1.48885 0.516809 0
M  V30 8405 C 839.331 -2.02088 -0.0220166 0
M  V30 8406 C 839.652 -1.39735 -1.36011 0
M  V30 8407 O 838.922 -0.558119 -1.87781 0
M  V30 8408 H 837.502 -0.746917 -0.0111255 0
M  V30 8409 H 840.164 -1.8274 0.677647 0
M  V30 8410 H 839.26 -3.11786 -0.140067 0
M  V30 8411 N 839.561 -0.251338 -1.55583 0
M  V30 8412 C 840.524 0.63305 -2.20284 0
M  V30 8413 C 841.524 1.09941 -1.17344 0
M  V30 8414 O 842.714 1.00341 -1.42399 0
M  V30 8415 C 839.846 1.8706 -2.84993 0
M  V30 8416 H 841.039 0.0684846 -2.99822 0
M  V30 8417 H 838.592 -0.00181653 -1.563 0
M  V30 8418 H 839.327 2.47629 -2.09405 0
M  V30 8419 H 839.112 1.54436 -3.60405 0
M  V30 8420 H 840.602 2.50004 -3.34496 0
M  V30 8421 N 841.039 1.57585 0.0217189 0
M  V30 8422 C 842.267 1.93871 0.722619 0
M  V30 8423 C 842.682 0.851706 1.68498 0
M  V30 8424 O 842.039 -0.17127 1.81695 0
M  V30 8425 C 842.09 3.30114 1.47333 0
M  V30 8426 O 841.811 4.34639 0.549597 0
M  V30 8427 C 843.312 3.80727 2.27072 0
M  V30 8428 H 840.532 0.639671 0.202637 0
M  V30 8429 H 843.076 2.04487 -0.0229414 0
M  V30 8430 H 841.231 3.20872 2.17071 0
M  V30 8431 H 841.645 5.13326 1.07686 0
M  V30 8432 H 843.119 4.78547 2.75131 0
M  V30 8433 H 843.596 3.12301 3.08812 0
M  V30 8434 H 844.202 3.93075 1.62395 0
M  V30 8435 N 842.517 -0.29412 1.54831 0
M  V30 8436 C 843.757 -1.03635 1.76179 0
M  V30 8437 C 844.121 -1.84251 0.539953 0
M  V30 8438 O 845.322 -2.61282 0.631295 0
M  V30 8439 C 843.593 -1.91275 3.01909 0
M  V30 8440 S 845.152 -2.7205 3.44288 0
M  V30 8441 H 841.97 -0.349403 0.619224 0
M  V30 8442 H 844.572 -0.309006 1.93042 0
M  V30 8443 H 843.276 -1.30937 3.88952 0
M  V30 8444 H 842.807 -2.68365 2.87652 0
M  V30 8445 H 844.822 -3.93791 3.01899 0
M  V30 8446 N 843.995 -1.47404 -0.557645 0
M  V30 8447 C 845.272 -1.44488 -1.31843 0
M  V30 8448 C 845.652 -0.1416 -2.10625 0
M  V30 8449 O 845 0.876908 -2.11004 0
M  V30 8450 C 845.21 -2.69016 -2.22331 0
M  V30 8451 C 846.558 -3.16212 -2.83364 0
M  V30 8452 O 847.582 -2.69741 -2.32634 0
M  V30 8453 O 846.441 -3.96999 -3.75571 0
M  V30 8454 H 843.535 -0.57578 -0.593639 0
M  V30 8455 H 846.081 -1.59605 -0.576584 0
M  V30 8456 H 844.853 -3.55406 -1.63715 0
M  V30 8457 H 844.476 -2.56484 -3.03812 0
M  V30 8458 N 845.473 0.80434 -1.35529 0
M  V30 8459 C 846.889 1.10023 -1.15616 0
M  V30 8460 C 847.089 2.01478 0.0298535 0
M  V30 8461 O 846.145 2.42609 0.699778 0
M  V30 8462 C 847.458 1.72905 -2.46017 0
M  V30 8463 C 849.006 1.85315 -2.52245 0
M  V30 8464 C 849.481 2.51612 -3.82695 0
M  V30 8465 N 850.972 2.59095 -3.83958 0
M  V30 8466 C 851.707 3.11167 -4.81625 0
M  V30 8467 N 851.203 3.63659 -5.89681 0
M  V30 8468 N 852.996 3.09741 -4.6906 0
M  V30 8469 H 845.147 0.196428 -2.1149 0
M  V30 8470 H 847.41 0.149735 -0.9361 0
M  V30 8471 H 847.116 1.13171 -3.32994 0
M  V30 8472 H 846.99 2.72579 -2.6073 0
M  V30 8473 H 849.377 2.44191 -1.65695 0
M  V30 8474 H 849.458 0.844886 -2.41444 0
M  V30 8475 H 849.102 1.93385 -4.69643 0
M  V30 8476 H 849.032 3.5298 -3.90785 0
M  V30 8477 H 851.523 2.21908 -3.05884 0
M  V30 8478 H 851.836 4.01699 -6.60195 0
M  V30 8479 H 850.181 3.61852 -5.9337 0
M  V30 8480 H 853.372 2.68011 -3.83781 0
M  V30 8481 H 853.545 3.50016 -5.45338 0
M  V30 8482 N 846.951 1.19563 1.02676 0
M  V30 8483 C 848.191 1.01072 1.77662 0
M  V30 8484 C 848.555 -0.450344 1.86644 0
M  V30 8485 O 849.756 -0.755132 2.57975 0
M  V30 8486 C 848.027 1.66383 3.16309 0
M  V30 8487 S 849.586 1.62858 4.07459 0
M  V30 8488 H 846.404 0.362644 0.611564 0
M  V30 8489 H 849.006 1.51947 1.23014 0
M  V30 8490 H 847.71 2.71917 3.07391 0
M  V30 8491 H 847.241 1.15596 3.76033 0
M  V30 8492 H 849.256 0.654265 4.91868 0
M  V30 8493 N 848.429 -1.21819 0.999893 0
M  V30 8494 C 849.392 -2.22227 0.561044 0
M  V30 8495 C 850.392 -1.56722 -0.359858 0
M  V30 8496 O 851.582 -1.73546 -0.150848 0
M  V30 8497 C 848.714 -3.40409 -0.182987 0
M  V30 8498 H 849.907 -2.62567 1.44909 0
M  V30 8499 H 847.46 -1.34991 0.78785 0
M  V30 8500 H 848.195 -3.05551 -1.08671 0
M  V30 8501 H 847.98 -3.89171 0.47833 0
M  V30 8502 H 849.47 -4.14856 -0.477952 0
M  V30 8503 N 849.908 -0.773975 -1.37286 0
M  V30 8504 C 851.319 -0.404433 -1.82267 0
M  V30 8505 C 851.67 1.06971 -1.64474 0
M  V30 8506 O 850.795 1.82867 -1.15708 0
M  V30 8507 C 851.39 -0.727298 -3.30902 0
M  V30 8508 C 849.949 -0.410784 -3.74152 0
M  V30 8509 C 849.096 -0.969983 -2.59782 0
M  V30 8510 H 852.047 -0.968437 -1.25726 0
M  V30 8511 H 852.068 -0.0127575 -3.80498 0
M  V30 8512 H 851.58 -1.80026 -3.4382 0
M  V30 8513 H 849.681 0.65477 -3.66802 0
M  V30 8514 H 849.794 -0.920592 -4.70172 0
M  V30 8515 H 848.158 -0.394094 -2.51633 0
M  V30 8516 H 848.941 -2.04839 -2.75492 0
M  V30 8517 N 851.386 1.48609 -0.524698 0
M  V30 8518 C 852.634 2.02097 0.0112991 0
M  V30 8519 C 852.955 1.40455 1.35268 0
M  V30 8520 O 852.225 0.56807 1.87483 0
M  V30 8521 H 850.805 0.746966 0.00716426 0
M  V30 8522 H 853.467 1.82378 -0.687329 0
M  V30 8523 H 852.563 3.11855 0.123531 0
M  V30 8524 N 852.864 0.259585 1.55447 0
M  V30 8525 C 854.094 -0.364863 2.03353 0
M  V30 8526 C 854.502 -1.5116 1.13786 0
M  V30 8527 O 853.845 -1.83109 0.147283 0
M  V30 8528 C 853.907 -0.922587 3.4746 0
M  V30 8529 C 853.571 0.0935207 4.56904 0
M  V30 8530 C 854.568 0.907571 5.11917 0
M  V30 8531 C 852.253 0.223276 5.01804 0
M  V30 8532 C 854.247 1.83771 6.10333 0
M  V30 8533 C 851.934 1.15691 6.00049 0
M  V30 8534 C 852.932 1.96264 6.54194 0
M  V30 8535 O 852.62 2.88052 7.50521 0
M  V30 8536 H 852.352 -0.0893313 0.670072 0
M  V30 8537 H 854.906 0.384821 2.01763 0
M  V30 8538 H 853.136 -1.72206 3.4624 0
M  V30 8539 H 854.825 -1.45846 3.78792 0
M  V30 8540 H 855.591 0.817979 4.78052 0
M  V30 8541 H 851.47 -0.393834 4.59315 0
M  V30 8542 H 855.014 2.46703 6.52521 0
M  V30 8543 H 850.911 1.24738 6.33333 0
M  V30 8544 H 851.679 2.82557 7.68182 0
M  V30 8545 N 854.342 -1.57594 -0.0133615 0
M  V30 8546 C 855.589 -1.8998 -0.70098 0
M  V30 8547 C 855.917 -0.858802 -1.74513 0
M  V30 8548 O 855.172 0.138209 -1.95211 0
M  V30 8549 C 855.471 -3.29121 -1.39336 0
M  V30 8550 C 855.137 -4.48298 -0.483687 0
M  V30 8551 C 853.799 -4.80635 -0.233186 0
M  V30 8552 C 856.151 -5.21003 0.143426 0
M  V30 8553 C 853.479 -5.83055 0.652943 0
M  V30 8554 C 855.831 -6.24366 1.01735 0
M  V30 8555 C 854.495 -6.55168 1.27716 0
M  V30 8556 H 853.765 -0.695187 -0.256507 0
M  V30 8557 H 856.412 -1.9146 0.0392965 0
M  V30 8558 H 854.717 -3.23703 -2.20735 0
M  V30 8559 H 856.414 -3.51433 -1.93121 0
M  V30 8560 H 853.004 -4.23024 -0.689092 0
M  V30 8561 H 857.188 -4.96286 -0.0371139 0
M  V30 8562 H 852.444 -6.05288 0.862379 0
M  V30 8563 H 856.618 -6.79839 1.5097 0
M  V30 8564 H 854.245 -7.34351 1.9655 0
M  V30 8565 N 855.82 0.285905 -1.54985 0
M  V30 8566 C 856.77 1.35505 -1.83364 0
M  V30 8567 C 857.754 1.45273 -0.691698 0
M  V30 8568 O 858.946 1.49172 -0.952725 0
M  V30 8569 C 856.075 2.71756 -2.0977 0
M  V30 8570 C 855.161 2.6615 -3.30189 0
M  V30 8571 N 855.552 2.30161 -4.50399 0
M  V30 8572 C 853.85 2.97232 -3.3252 0
M  V30 8573 C 854.551 2.34228 -5.32459 0
M  V30 8574 N 853.527 2.72187 -4.70548 0
M  V30 8575 H 857.329 1.06668 -2.7386 0
M  V30 8576 H 854.843 0.494521 -1.54688 0
M  V30 8577 H 856.84 3.48864 -2.28253 0
M  V30 8578 H 855.5 3.01492 -1.20551 0
M  V30 8579 H 856.511 2.02358 -4.7673 0
M  V30 8580 H 853.188 3.31764 -2.53454 0
M  V30 8581 H 854.578 2.09074 -6.38543 0
M  V30 8582 N 857.298 1.47698 0.54982 0
M  V30 8583 C 858.545 1.54702 1.30665 0
M  V30 8584 C 858.873 0.212418 1.93337 0
M  V30 8585 O 858.128 -0.79543 1.78805 0
M  V30 8586 C 858.427 2.61903 2.4319 0
M  V30 8587 C 858.093 4.04953 1.98302 0
M  V30 8588 C 856.755 4.43893 1.85776 0
M  V30 8589 C 859.107 4.94682 1.64133 0
M  V30 8590 C 856.435 5.70387 1.37388 0
M  V30 8591 C 858.787 6.21646 1.17214 0
M  V30 8592 C 857.451 6.5946 1.0329 0
M  V30 8593 H 856.721 0.566096 0.478139 0
M  V30 8594 H 859.368 1.8133 0.615767 0
M  V30 8595 H 857.673 2.2906 3.17866 0
M  V30 8596 H 859.37 2.64543 3.0136 0
M  V30 8597 H 855.96 3.74191 2.08995 0
M  V30 8598 H 860.144 4.65291 1.72679 0
M  V30 8599 H 855.4 5.98427 1.25278 0
M  V30 8600 H 859.574 6.90581 0.898391 0
M  V30 8601 H 857.201 7.57367 0.655735 0
M  V30 8602 N 858.776 -0.797141 1.35954 0
M  V30 8603 C 860.187 -1.37179 1.26644 0
M  V30 8604 C 860.538 -1.9596 -0.0971046 0
M  V30 8605 O 859.663 -1.91994 -0.998355 0
M  V30 8606 C 860.258 -2.49395 2.2932 0
M  V30 8607 C 858.817 -3.02697 2.23722 0
M  V30 8608 C 857.964 -1.75721 2.14517 0
M  V30 8609 H 860.915 -0.599407 1.46945 0
M  V30 8610 H 860.936 -3.28204 1.92515 0
M  V30 8611 H 860.448 -2.06584 3.2855 0
M  V30 8612 H 858.549 -3.49948 1.27934 0
M  V30 8613 H 858.662 -3.60036 3.16087 0
M  V30 8614 H 857.026 -1.97649 1.60646 0
M  V30 8615 H 857.809 -1.35049 3.15621 0
M  V30 8616 N 860.254 -1.20106 -1.0204 0
M  V30 8617 C 861.184 -0.970301 -2.12385 0
M  V30 8618 C 862.165 0.099378 -1.69809 0
M  V30 8619 O 863.35 -0.057365 -1.94115 0
M  V30 8620 C 860.48 -0.517431 -3.43424 0
M  V30 8621 C 859.434 -1.52992 -3.99722 0
M  V30 8622 C 858.76 -0.933817 -5.26483 0
M  V30 8623 C 860.06 -2.91257 -4.33551 0
M  V30 8624 H 861.754 -1.89316 -2.31948 0
M  V30 8625 H 859.3 -0.911655 -1.11467 0
M  V30 8626 H 861.253 -0.343243 -4.2 0
M  V30 8627 H 859.977 0.441049 -3.23608 0
M  V30 8628 H 858.636 -1.6914 -3.2525 0
M  V30 8629 H 858.284 0.0324763 -5.0299 0
M  V30 8630 H 857.984 -1.60999 -5.65113 0
M  V30 8631 H 859.508 -0.770614 -6.05718 0
M  V30 8632 H 860.922 -2.78642 -5.0103 0
M  V30 8633 H 859.319 -3.55745 -4.83286 0
M  V30 8634 H 860.389 -3.43269 -3.42483 0
M  V30 8635 N 861.732 1.21287 -1.00634 0
M  V30 8636 C 862.972 1.92106 -0.698194 0
M  V30 8637 C 863.336 1.76437 0.757222 0
M  V30 8638 O 864.537 2.41641 1.17741 0
M  V30 8639 C 862.808 3.39748 -1.10932 0
M  V30 8640 S 864.367 4.29013 -0.921586 0
M  V30 8641 H 861.185 0.663755 -0.254853 0
M  V30 8642 H 863.787 1.46772 -1.29145 0
M  V30 8643 H 862.491 3.48669 -2.16467 0
M  V30 8644 H 862.022 3.90101 -0.508419 0
M  V30 8645 H 864.037 4.95871 0.180578 0
M  V30 8646 N 863.21 0.781244 1.36873 0
M  V30 8647 C 864.142 0.132075 2.28819 0
M  V30 8648 C 865.155 -0.653925 1.49089 0
M  V30 8649 O 866.344 -0.490453 1.7163 0
M  V30 8650 C 863.444 -0.836297 3.28419 0
M  V30 8651 C 862.617 -0.102097 4.37281 0
M  V30 8652 C 861.676 -0.985217 5.16894 0
M  V30 8653 O 860.702 -0.445478 5.67454 0
M  V30 8654 N 861.904 -2.31043 5.3254 0
M  V30 8655 H 864.669 0.921838 2.85171 0
M  V30 8656 H 862.23 0.634427 1.48952 0
M  V30 8657 H 864.222 -1.43074 3.78566 0
M  V30 8658 H 862.792 -1.52698 2.72767 0
M  V30 8659 H 862.012 0.67335 3.88407 0
M  V30 8660 H 863.3 0.404862 5.07187 0
M  V30 8661 H 862.698 -2.77318 4.93063 0
M  V30 8662 H 861.255 -2.85472 5.8596 0
M  V30 8663 N 864.689 -1.48329 0.532571 0
M  V30 8664 C 865.619 -2.32485 -0.217511 0
M  V30 8665 C 866.6 -1.42255 -0.932598 0
M  V30 8666 O 867.785 -1.7114 -0.917873 0
M  V30 8667 C 864.915 -3.23509 -1.26329 0
M  V30 8668 C 863.869 -4.22784 -0.666191 0
M  V30 8669 C 863.195 -5.0296 -1.81482 0
M  V30 8670 C 864.495 -5.21031 0.363813 0
M  V30 8671 H 866.189 -2.95445 0.485014 0
M  V30 8672 H 863.735 -1.42075 0.234694 0
M  V30 8673 H 865.688 -3.81211 -1.79601 0
M  V30 8674 H 864.412 -2.58554 -1.99543 0
M  V30 8675 H 863.071 -3.66272 -0.15498 0
M  V30 8676 H 862.719 -4.34427 -2.5354 0
M  V30 8677 H 862.419 -5.70154 -1.4212 0
M  V30 8678 H 863.943 -5.63514 -2.35126 0
M  V30 8679 H 865.357 -5.73241 -0.0819079 0
M  V30 8680 H 863.754 -5.96292 0.674956 0
M  V30 8681 H 864.824 -4.6801 1.26865 0
M  V30 8682 N 866.167 -0.267825 -1.55308 0
M  V30 8683 C 867.407 0.352316 -2.01341 0
M  V30 8684 C 867.771 1.53593 -1.1521 0
M  V30 8685 O 868.972 2.22521 -1.50791 0
M  V30 8686 C 867.243 0.731857 -3.49827 0
M  V30 8687 S 868.802 1.33956 -4.17853 0
M  V30 8688 H 865.62 0.109927 -0.702451 0
M  V30 8689 H 868.222 -0.387955 -1.91612 0
M  V30 8690 H 866.926 -0.138561 -4.10166 0
M  V30 8691 H 866.457 1.50378 -3.63525 0
M  V30 8692 H 868.472 2.62831 -4.20874 0
M  V30 8693 N 867.645 1.57599 0.00500368 0
M  V30 8694 C 868.893 1.89973 0.68953 0
M  V30 8695 C 869.214 0.868531 1.7459 0
M  V30 8696 O 868.484 -0.0947367 1.95671 0
M  V30 8697 H 867.064 0.701153 0.25767 0
M  V30 8698 H 869.726 1.94869 -0.0347392 0
M  V30 8699 H 868.822 2.89584 1.16394 0
M  V30 8700 N 869.123 -0.277682 1.55134 0
M  V30 8701 C 870.363 -1.01761 1.77269 0
M  V30 8702 C 870.727 -1.83668 0.559465 0
M  V30 8703 O 871.928 -2.60597 0.658972 0
M  V30 8704 C 870.199 -1.88062 3.0392 0
M  V30 8705 S 871.758 -2.68383 3.47154 0
M  V30 8706 H 868.576 -0.342816 0.622895 0
M  V30 8707 H 871.178 -0.288514 1.93359 0
M  V30 8708 H 869.882 -1.26805 3.90319 0
M  V30 8709 H 869.413 -2.65299 2.90482 0
M  V30 8710 H 871.428 -3.90567 3.06059 0
M  V30 8711 N 870.601 -1.47988 -0.541979 0
M  V30 8712 C 871.826 -1.59286 -1.32826 0
M  V30 8713 C 872.251 -0.24894 -1.86445 0
M  V30 8714 O 871.609 0.777581 -1.63778 0
M  V30 8715 C 871.657 -2.6334 -2.46343 0
M  V30 8716 O 870.761 -2.19667 -3.49028 0
M  V30 8717 H 870.102 -0.534543 -0.393903 0
M  V30 8718 H 872.632 -1.93885 -0.653427 0
M  V30 8719 H 872.642 -2.84238 -2.92699 0
M  V30 8720 H 871.317 -3.60913 -2.06675 0
M  V30 8721 H 869.894 -2.08932 -3.08872 0
M  V30 8722 N 872.079 0.78992 -1.36375 0
M  V30 8723 C 873.49 1.36506 -1.2737 0
M  V30 8724 C 873.841 1.96008 0.086711 0
M  V30 8725 O 872.966 1.92521 0.988159 0
M  V30 8726 C 873.561 2.48175 -2.30639 0
M  V30 8727 C 872.12 3.01506 -2.25325 0
M  V30 8728 C 871.267 1.74581 -2.15445 0
M  V30 8729 H 874.218 0.591606 -1.47261 0
M  V30 8730 H 874.239 3.27179 -1.94253 0
M  V30 8731 H 873.751 2.04838 -3.2964 0
M  V30 8732 H 871.852 3.49265 -1.29788 0
M  V30 8733 H 871.965 3.58355 -3.17992 0
M  V30 8734 H 870.329 1.96794 -1.61692 0
M  V30 8735 H 871.112 1.33373 -3.16333 0
M  V30 8736 N 873.557 1.20646 1.01402 0
M  V30 8737 C 874.52 0.959314 2.08158 0
M  V30 8738 C 875.52 -0.0661558 1.60664 0
M  V30 8739 O 876.71 0.170177 1.73367 0
M  V30 8740 C 873.842 0.444785 3.37986 0
M  V30 8741 H 875.035 1.90631 2.31517 0
M  V30 8742 H 872.588 1.02219 1.18241 0
M  V30 8743 H 873.323 -0.507553 3.20304 0
M  V30 8744 H 873.108 1.18435 3.73785 0
M  V30 8745 H 874.598 0.291443 4.16582 0
M  V30 8746 N 875.035 -1.20752 1.01276 0
M  V30 8747 C 876.283 -1.89645 0.698505 0
M  V30 8748 C 876.604 -1.78986 -0.773883 0
M  V30 8749 O 875.874 -1.18977 -1.55632 0
M  V30 8750 H 874.454 -0.701992 0.255375 0
M  V30 8751 H 877.116 -1.46668 1.28353 0
M  V30 8752 H 876.212 -2.96364 0.978512 0
M  V30 8753 N 876.513 -0.788492 -1.36457 0
M  V30 8754 C 877.741 -0.372365 -2.03522 0
M  V30 8755 C 878.156 1.01093 -1.59454 0
M  V30 8756 O 877.513 1.64824 -0.783535 0
M  V30 8757 C 877.564 -0.425435 -3.58988 0
M  V30 8758 O 877.285 -1.75418 -4.01448 0
M  V30 8759 C 878.786 0.000180167 -4.433 0
M  V30 8760 H 876.006 -0.1536 -0.653183 0
M  V30 8761 H 878.55 -1.06708 -1.74452 0
M  V30 8762 H 876.705 0.220856 -3.8677 0
M  V30 8763 H 877.119 -1.70437 -4.96036 0
M  V30 8764 H 878.593 -0.0880919 -5.5193 0
M  V30 8765 H 879.07 1.05269 -4.26398 0
M  V30 8766 H 879.676 -0.618563 -4.20778 0
M  V30 8767 N 877.991 1.48044 -0.54043 0
M  V30 8768 C 878.921 2.32597 0.205178 0
M  V30 8769 C 879.902 1.42748 0.925041 0
M  V30 8770 O 881.087 1.71624 0.908784 0
M  V30 8771 C 878.217 3.24175 1.24612 0
M  V30 8772 C 877.171 4.23131 0.64376 0
M  V30 8773 C 876.497 5.03915 1.78812 0
M  V30 8774 C 877.797 5.20831 -0.39144 0
M  V30 8775 H 879.491 2.95184 -0.500676 0
M  V30 8776 H 877.037 1.41948 -0.242225 0
M  V30 8777 H 878.99 3.82158 1.77576 0
M  V30 8778 H 877.714 2.59608 1.98169 0
M  V30 8779 H 876.373 3.66349 0.135554 0
M  V30 8780 H 876.021 4.35765 2.51232 0
M  V30 8781 H 875.721 5.709 1.39094 0
M  V30 8782 H 877.245 5.64753 2.32134 0
M  V30 8783 H 878.659 5.73277 0.0515064 0
M  V30 8784 H 877.056 5.95926 -0.706569 0
M  V30 8785 H 878.126 4.6733 -1.29345 0
M  V30 8786 N 879.47 0.276058 1.55163 0
M  V30 8787 C 880.881 -0.221516 1.85381 0
M  V30 8788 C 881.232 -1.55372 1.19808 0
M  V30 8789 O 880.357 -2.10855 0.486742 0
M  V30 8790 C 880.952 -0.408706 3.36326 0
M  V30 8791 C 879.511 -0.850512 3.66665 0
M  V30 8792 C 878.658 0.055656 2.77244 0
M  V30 8793 H 881.609 0.497819 1.5069 0
M  V30 8794 H 881.63 -1.24711 3.59482 0
M  V30 8795 H 881.142 0.561052 3.84023 0
M  V30 8796 H 879.243 -1.83171 3.24468 0
M  V30 8797 H 879.356 -0.687181 4.74146 0
M  V30 8798 H 877.72 -0.460819 2.50497 0
M  V30 8799 H 878.503 1.02131 3.27756 0
M  V30 8800 N 880.948 -1.576 0.00335426 0
M  V30 8801 C 881.858 -2.12067 -1.00322 0
M  V30 8802 C 882.874 -1.06672 -1.37467 0
M  V30 8803 O 884.05 -1.38592 -1.46131 0
M  V30 8804 C 881.115 -2.61593 -2.27531 0
M  V30 8805 C 880.176 -3.81602 -1.96668 0
M  V30 8806 C 879.409 -4.28756 -3.17811 0
M  V30 8807 O 879.632 -3.75222 -4.2961 0
M  V30 8808 O 878.566 -5.20877 -3.01613 0
M  V30 8809 H 882.392 -2.98299 -0.570199 0
M  V30 8810 H 879.977 -1.47835 -0.215682 0
M  V30 8811 H 881.859 -2.93631 -3.02256 0
M  V30 8812 H 880.534 -1.78457 -2.70065 0
M  V30 8813 H 879.441 -3.54531 -1.19408 0
M  V30 8814 H 880.774 -4.65822 -1.58968 0
M  V30 8815 N 882.426 0.269451 -1.5528 0
M  V30 8816 C 883.674 0.998604 -1.75705 0
M  V30 8817 C 883.995 1.86691 -0.563175 0
M  V30 8818 O 883.265 1.91305 0.421811 0
M  V30 8819 H 881.845 0.371698 -0.647958 0
M  V30 8820 H 884.507 0.292826 -1.92688 0
M  V30 8821 H 883.603 1.63348 -2.6594 0
M  V30 8822 N 883.904 1.48273 0.534124 0
M  V30 8823 C 885.144 1.57674 1.3007 0
M  V30 8824 C 885.508 0.243256 1.90453 0
M  V30 8825 O 886.709 0.212231 2.67961 0
M  V30 8826 C 884.98 2.68044 2.36405 0
M  V30 8827 S 886.539 2.97183 3.22843 0
M  V30 8828 H 883.357 0.55652 0.442501 0
M  V30 8829 H 885.959 1.85774 0.60896 0
M  V30 8830 H 884.663 3.63498 1.90518 0
M  V30 8831 H 884.194 2.41833 3.10291 0
M  V30 8832 H 886.209 2.36164 4.36396 0
M  V30 8833 N 885.382 -0.782676 1.36792 0
M  V30 8834 C 886.659 -1.52939 1.21939 0
M  V30 8835 C 887.039 -2.10228 -0.191639 0
M  V30 8836 O 886.387 -1.94574 -1.19805 0
M  V30 8837 C 886.597 -2.61898 2.30674 0
M  V30 8838 C 887.945 -3.29598 2.67676 0
M  V30 8839 O 888.969 -2.72186 2.29768 0
M  V30 8840 O 887.828 -4.3337 3.32946 0
M  V30 8841 H 884.922 -0.676856 0.47518 0
M  V30 8842 H 887.468 -0.82058 1.48542 0
M  V30 8843 H 886.24 -2.17607 3.25212 0
M  V30 8844 H 885.863 -3.40391 2.05475 0
M  V30 8845 N 886.86 -1.21182 -1.00761 0
M  V30 8846 C 887.77 -0.984691 -2.12934 0
M  V30 8847 C 888.786 0.0623657 -1.73888 0
M  V30 8848 O 889.962 -0.1271 -2.00999 0
M  V30 8849 C 887.027 -0.549447 -3.42319 0
M  V30 8850 C 886.088 -1.66841 -3.95553 0
M  V30 8851 C 885.321 -1.25384 -5.18763 0
M  V30 8852 O 885.544 -0.126333 -5.7026 0
M  V30 8853 O 884.478 -2.06475 -5.65377 0
M  V30 8854 H 888.304 -1.92413 -2.3497 0
M  V30 8855 H 885.889 -0.99647 -1.11314 0
M  V30 8856 H 887.771 -0.316384 -4.20211 0
M  V30 8857 H 886.446 0.361304 -3.21677 0
M  V30 8858 H 885.353 -1.95585 -3.189 0
M  V30 8859 H 886.686 -2.55649 -4.206 0
M  V30 8860 N 888.338 1.20213 -1.01915 0
M  V30 8861 C 889.301 2.21307 -0.596327 0
M  V30 8862 C 890.301 1.57274 0.334879 0
M  V30 8863 O 891.491 1.73764 0.12322 0
M  V30 8864 C 888.623 3.40657 0.128808 0
M  V30 8865 H 889.816 2.60228 -1.49068 0
M  V30 8866 H 887.369 1.33721 -0.809226 0
M  V30 8867 H 888.104 3.07241 1.03796 0
M  V30 8868 H 887.889 3.88361 -0.540183 0
M  V30 8869 H 889.379 4.15564 0.411892 0
M  V30 8870 N 889.816 0.795718 1.36037 0
M  V30 8871 C 891.064 0.370291 1.98679 0
M  V30 8872 C 891.385 -1.06332 1.63458 0
M  V30 8873 O 890.655 -1.73394 0.911671 0
M  V30 8874 H 889.235 0.133928 0.734896 0
M  V30 8875 H 891.897 1.01915 1.6613 0
M  V30 8876 H 890.993 0.467207 3.08583 0
M  V30 8877 N 891.294 -1.47756 0.548274 0
M  V30 8878 C 892.71 -1.58247 0.207401 0
M  V30 8879 C 892.91 -1.54804 -1.28988 0
M  V30 8880 O 891.966 -1.44673 -2.06944 0
M  V30 8881 C 893.279 -2.89129 0.826142 0
M  V30 8882 C 894.827 -3.02695 0.79655 0
M  V30 8883 C 895.302 -4.36264 1.3942 0
M  V30 8884 N 896.793 -4.42877 1.35698 0
M  V30 8885 C 897.528 -5.44773 1.78913 0
M  V30 8886 N 897.024 -6.53528 2.29942 0
M  V30 8887 N 898.817 -5.35765 1.70038 0
M  V30 8888 H 890.968 -1.48236 1.52117 0
M  V30 8889 H 893.231 -0.704957 0.633829 0
M  V30 8890 H 892.937 -2.97358 1.87806 0
M  V30 8891 H 892.811 -3.75891 0.313916 0
M  V30 8892 H 895.198 -2.94067 -0.246655 0
M  V30 8893 H 895.279 -2.17496 1.34644 0
M  V30 8894 H 894.923 -4.45646 2.43642 0
M  V30 8895 H 894.853 -5.20179 0.819827 0
M  V30 8896 H 897.344 -3.64874 0.983623 0
M  V30 8897 H 897.657 -7.27441 2.60863 0
M  V30 8898 H 896.002 -6.54442 2.33947 0
M  V30 8899 H 899.193 -4.49699 1.29955 0
M  V30 8900 H 899.366 -6.1504 2.04035 0
M  V30 8901 N 892.772 -0.284283 -1.55015 0
M  V30 8902 C 894.012 0.330942 -2.01703 0
M  V30 8903 C 894.376 1.52362 -1.16832 0
M  V30 8904 O 895.577 2.20909 -1.53142 0
M  V30 8905 C 893.848 0.694712 -3.50583 0
M  V30 8906 S 895.407 1.29517 -4.1925 0
M  V30 8907 H 892.225 0.10247 -0.703577 0
M  V30 8908 H 894.827 -0.408257 -1.9119 0
M  V30 8909 H 893.531 -0.182056 -4.09996 0
M  V30 8910 H 893.062 1.46513 -3.65099 0
M  V30 8911 H 895.077 2.58352 -4.23638 0
M  V30 8912 N 894.251 1.57596 -0.0117121 0
M  V30 8913 C 895.181 2.12188 0.9746 0
M  V30 8914 C 896.162 1.03379 1.35081 0
M  V30 8915 O 897.347 1.31123 1.4325 0
M  V30 8916 C 894.477 2.63477 2.26268 0
M  V30 8917 C 893.431 3.76917 2.02774 0
M  V30 8918 C 892.757 4.14566 3.37697 0
M  V30 8919 C 894.057 5.03715 1.38089 0
M  V30 8920 H 895.751 2.9485 0.520007 0
M  V30 8921 H 893.297 1.41836 0.248685 0
M  V30 8922 H 895.25 3.00299 2.95633 0
M  V30 8923 H 893.974 1.77953 2.73862 0
M  V30 8924 H 892.633 3.40507 1.35832 0
M  V30 8925 H 892.281 3.26048 3.83016 0
M  V30 8926 H 891.981 4.91 3.22789 0
M  V30 8927 H 893.505 4.53956 4.08358 0
M  V30 8928 H 894.919 5.38233 1.97428 0
M  V30 8929 H 893.316 5.85032 1.33634 0
M  V30 8930 H 894.386 4.83624 0.351575 0
M  V30 8931 N 895.729 -0.261212 1.5542 0
M  V30 8932 C 896.969 -0.998748 1.78338 0
M  V30 8933 C 897.333 -1.83064 0.578914 0
M  V30 8934 O 898.534 -2.59884 0.686575 0
M  V30 8935 C 896.805 -1.84828 3.05898 0
M  V30 8936 S 898.364 -2.64686 3.49981 0
M  V30 8937 H 895.182 -0.33619 0.626496 0
M  V30 8938 H 897.784 -0.26799 1.93655 0
M  V30 8939 H 896.488 -1.22658 3.91642 0
M  V30 8940 H 896.019 -2.62203 2.9328 0
M  V30 8941 H 898.034 -3.87299 3.10184 0
M  V30 8942 N 897.207 -1.48554 -0.526253 0
M  V30 8943 C 898.139 -1.59446 -1.6465 0
M  V30 8944 C 899.152 -0.478525 -1.55608 0
M  V30 8945 O 900.341 -0.74953 -1.62001 0
M  V30 8946 C 897.441 -1.51164 -3.03319 0
M  V30 8947 C 896.614 -2.77861 -3.37805 0
M  V30 8948 C 895.673 -2.62982 -4.5577 0
M  V30 8949 O 894.699 -3.36876 -4.58806 0
M  V30 8950 N 895.901 -1.72847 -5.5417 0
M  V30 8951 H 898.666 -2.56055 -1.55743 0
M  V30 8952 H 896.227 -1.45325 -0.713606 0
M  V30 8953 H 898.219 -1.389 -3.80117 0
M  V30 8954 H 896.789 -0.625147 -3.06285 0
M  V30 8955 H 896.009 -3.04663 -2.50149 0
M  V30 8956 H 897.297 -3.61908 -3.57632 0
M  V30 8957 H 896.695 -1.12022 -5.54498 0
M  V30 8958 H 895.252 -1.6652 -6.3017 0
M  V30 8959 N 898.685 0.775411 -1.37205 0
M  V30 8960 C 900.096 1.35147 -1.28811 0
M  V30 8961 C 900.447 1.96089 0.0659168 0
M  V30 8962 O 899.572 1.93558 0.967684 0
M  V30 8963 C 900.167 2.45715 -2.33258 0
M  V30 8964 C 898.726 2.99099 -2.2851 0
M  V30 8965 C 897.873 1.72286 -2.17285 0
M  V30 8966 H 900.824 0.575954 -1.4788 0
M  V30 8967 H 900.845 3.251 -1.97712 0
M  V30 8968 H 900.357 2.01331 -3.31795 0
M  V30 8969 H 898.458 3.47868 -1.33485 0
M  V30 8970 H 898.571 3.54962 -3.21774 0
M  V30 8971 H 896.935 1.95068 -1.6377 0
M  V30 8972 H 897.718 1.3001 -3.1773 0
M  V30 8973 N 900.163 1.21714 1.00117 0
M  V30 8974 C 901.073 0.99597 2.12409 0
M  V30 8975 C 902.089 -0.0531431 1.73919 0
M  V30 8976 O 903.265 0.137757 2.00928 0
M  V30 8977 C 900.33 0.567593 3.42022 0
M  V30 8978 C 899.391 1.68936 3.94663 0
M  V30 8979 C 898.624 1.28133 5.1809 0
M  V30 8980 O 898.847 0.156574 5.70185 0
M  V30 8981 O 897.781 2.0947 5.64275 0
M  V30 8982 H 901.607 1.93657 2.33946 0
M  V30 8983 H 899.192 1.00236 1.10784 0
M  V30 8984 H 901.074 0.338664 4.20037 0
M  V30 8985 H 899.749 -0.34424 3.21864 0
M  V30 8986 H 898.656 1.97274 3.17858 0
M  V30 8987 H 899.989 2.57876 4.19238 0
M  V30 8988 N 901.641 -1.19671 1.02551 0
M  V30 8989 C 902.888 -1.89268 0.720002 0
M  V30 8990 C 903.216 -1.79411 -0.751127 0
M  V30 8991 O 902.471 -1.17859 -1.5623 0
M  V30 8992 C 902.77 -3.39647 1.11241 0
M  V30 8993 C 902.436 -3.69706 2.58125 0
M  V30 8994 C 901.098 -3.7762 2.98256 0
M  V30 8995 C 903.45 -3.83301 3.53171 0
M  V30 8996 C 900.778 -3.96594 4.32354 0
M  V30 8997 C 903.13 -4.03788 4.86968 0
M  V30 8998 C 901.794 -4.09934 5.26793 0
M  V30 8999 H 901.064 -0.692579 0.263467 0
M  V30 9000 H 903.711 -1.41738 1.28774 0
M  V30 9001 H 902.016 -3.89052 0.463234 0
M  V30 9002 H 903.713 -3.91809 0.853602 0
M  V30 9003 H 900.303 -3.64152 2.26033 0
M  V30 9004 H 904.487 -3.76534 3.2332 0
M  V30 9005 H 899.743 -3.9959 4.6275 0
M  V30 9006 H 903.917 -4.1325 5.60533 0
M  V30 9007 H 901.544 -4.24389 6.30712 0
M  V30 9008 N 903.119 -0.802921 -1.35613 0
M  V30 9009 C 904.082 -0.216422 -2.28176 0
M  V30 9010 C 905.082 0.594101 -1.49422 0
M  V30 9011 O 906.272 0.41312 -1.6923 0
M  V30 9012 C 903.404 0.698746 -3.33662 0
M  V30 9013 H 904.597 -1.03276 -2.81557 0
M  V30 9014 H 902.15 -0.573307 -1.45406 0
M  V30 9015 H 902.885 1.53891 -2.85461 0
M  V30 9016 H 902.67 0.119314 -3.91918 0
M  V30 9017 H 904.16 1.10354 -4.02755 0
M  V30 9018 N 904.597 1.47463 -0.556102 0
M  V30 9019 C 905.845 2.02075 -0.0315712 0
M  V30 9020 C 906.166 1.43292 1.32259 0
M  V30 9021 O 905.436 0.60771 1.86236 0
M  V30 9022 H 904.016 0.74695 -0.0086816 0
M  V30 9023 H 906.678 1.80879 -0.725859 0
M  V30 9024 H 905.774 3.12047 0.0573538 0
M  V30 9025 N 906.075 0.2925 1.54862 0
M  V30 9026 C 907.486 -0.201841 1.85606 0
M  V30 9027 C 907.837 -1.54093 1.21449 0
M  V30 9028 O 906.962 -2.10327 0.509079 0
M  V30 9029 C 907.557 -0.373011 3.3674 0
M  V30 9030 C 906.116 -0.811574 3.67547 0
M  V30 9031 C 905.263 0.0850583 2.7717 0
M  V30 9032 H 908.214 0.513774 1.50153 0
M  V30 9033 H 908.235 -1.20892 3.60785 0
M  V30 9034 H 907.747 0.601751 3.83407 0
M  V30 9035 H 905.848 -1.79719 3.26392 0
M  V30 9036 H 905.961 -0.636853 4.74848 0
M  V30 9037 H 904.325 -0.434224 2.50971 0
M  V30 9038 H 905.108 1.05602 3.26654 0
M  V30 9039 N 907.553 -1.57587 0.0200696 0
M  V30 9040 C 908.503 -2.0616 -0.973751 0
M  V30 9041 C 909.487 -0.960282 -1.29102 0
M  V30 9042 O 910.679 -1.22391 -1.27865 0
M  V30 9043 C 907.808 -2.58487 -2.25919 0
M  V30 9044 C 906.894 -3.75533 -1.97068 0
M  V30 9045 N 907.285 -4.86482 -1.38451 0
M  V30 9046 C 905.583 -3.83847 -2.27107 0
M  V30 9047 C 906.284 -5.67773 -1.26527 0
M  V30 9048 N 905.26 -5.14398 -1.75772 0
M  V30 9049 H 909.062 -2.89346 -0.515365 0
M  V30 9050 H 906.576 -1.61341 -0.185163 0
M  V30 9051 H 908.573 -2.91572 -2.97979 0
M  V30 9052 H 907.233 -1.76728 -2.72392 0
M  V30 9053 H 908.244 -5.06922 -1.06069 0
M  V30 9054 H 904.921 -3.12978 -2.76316 0
M  V30 9055 H 906.311 -6.66966 -0.812785 0
M  V30 9056 N 909.032 0.252966 -1.55557 0
M  V30 9057 C 910.272 0.989276 -1.78865 0
M  V30 9058 C 910.636 1.82755 -0.588615 0
M  V30 9059 O 911.837 2.59516 -0.700347 0
M  V30 9060 C 910.108 1.83203 -3.06874 0
M  V30 9061 S 911.667 2.62826 -3.5138 0
M  V30 9062 H 908.485 0.332863 -0.62827 0
M  V30 9063 H 911.087 0.257716 -1.93794 0
M  V30 9064 H 909.791 1.20579 -3.92287 0
M  V30 9065 H 909.322 2.60644 -2.94666 0
M  V30 9066 H 911.337 3.85648 -3.12234 0
M  V30 9067 N 910.51 1.48831 0.518367 0
M  V30 9068 C 911.787 1.47933 1.27966 0
M  V30 9069 C 912.167 0.197393 2.10175 0
M  V30 9070 O 911.515 -0.820656 2.13255 0
M  V30 9071 C 911.725 2.74816 2.15121 0
M  V30 9072 C 913.073 3.23613 2.74881 0
M  V30 9073 O 914.097 2.75814 2.254 0
M  V30 9074 O 912.956 4.06818 3.64913 0
M  V30 9075 H 910.05 0.591316 0.578164 0
M  V30 9076 H 912.596 1.61077 0.534065 0
M  V30 9077 H 911.368 3.59621 1.54234 0
M  V30 9078 H 910.991 2.64449 2.96905 0
M  V30 9079 N 911.988 -0.768124 1.37614 0
M  V30 9080 C 913.404 -1.06919 1.18493 0
M  V30 9081 C 913.604 -2.01486 0.0235753 0
M  V30 9082 O 912.66 -2.4438 -0.635209 0
M  V30 9083 C 913.973 -1.66321 2.50515 0
M  V30 9084 C 915.521 -1.78562 2.57069 0
M  V30 9085 C 915.996 -2.41377 3.89231 0
M  V30 9086 N 917.487 -2.48824 3.90693 0
M  V30 9087 C 918.222 -2.98288 4.89706 0
M  V30 9088 N 917.718 -3.47897 5.99115 0
M  V30 9089 N 919.511 -2.97196 4.77107 0
M  V30 9090 H 911.662 -0.140286 2.11936 0
M  V30 9091 H 913.925 -0.124863 0.939741 0
M  V30 9092 H 913.631 -1.04303 3.35878 0
M  V30 9093 H 913.505 -2.65571 2.67866 0
M  V30 9094 H 915.892 -2.39712 1.72111 0
M  V30 9095 H 915.973 -0.780574 2.43599 0
M  V30 9096 H 915.617 -1.80866 4.74605 0
M  V30 9097 H 915.547 -3.42495 4.00006 0
M  V30 9098 H 918.038 -2.1372 3.1166 0
M  V30 9099 H 918.351 -3.84053 6.70614 0
M  V30 9100 H 916.696 -3.45993 6.02755 0
M  V30 9101 H 919.887 -2.57741 3.90752 0
M  V30 9102 H 920.06 -3.35434 5.54426 0
M  V30 9103 N 913.466 -1.22244 -0.994698 0
M  V30 9104 C 914.706 -1.05747 -1.7492 0
M  V30 9105 C 915.07 0.4007 -1.87772 0
M  V30 9106 O 916.271 0.686469 -2.59887 0
M  V30 9107 C 914.542 -1.7471 -3.11787 0
M  V30 9108 S 916.101 -1.73604 -4.02998 0
M  V30 9109 H 912.919 -0.378731 -0.601734 0
M  V30 9110 H 915.521 -1.55155 -1.18942 0
M  V30 9111 H 914.225 -2.79972 -3.00073 0
M  V30 9112 H 913.756 -1.25525 -3.72836 0
M  V30 9113 H 915.771 -0.784445 -4.8996 0
M  V30 9114 N 914.944 1.19125 -1.03184 0
M  V30 9115 C 916.36 1.40909 -0.749447 0
M  V30 9116 C 916.56 1.9022 0.664729 0
M  V30 9117 O 915.616 2.08085 1.43028 0
M  V30 9118 C 916.929 2.41761 -1.78807 0
M  V30 9119 C 918.477 2.55503 -1.80796 0
M  V30 9120 C 918.952 3.59612 -2.83626 0
M  V30 9121 N 920.443 3.6711 -2.82461 0
M  V30 9122 C 921.178 4.47366 -3.5868 0
M  V30 9123 N 920.674 5.31302 -4.44623 0
M  V30 9124 N 922.467 4.42044 -3.47208 0
M  V30 9125 H 914.618 0.854399 -1.94458 0
M  V30 9126 H 916.881 0.437753 -0.840878 0
M  V30 9127 H 916.587 2.12559 -2.80199 0
M  V30 9128 H 916.461 3.40981 -1.61283 0
M  V30 9129 H 918.848 2.84027 -0.800803 0
M  V30 9130 H 918.929 1.56427 -2.02396 0
M  V30 9131 H 918.573 3.3183 -3.84515 0
M  V30 9132 H 918.503 4.58345 -2.59283 0
M  V30 9133 H 920.994 3.07166 -2.2013 0
M  V30 9134 H 921.307 5.89667 -4.99512 0
M  V30 9135 H 919.652 5.30753 -4.48694 0
M  V30 9136 H 922.843 3.75513 -2.79477 0
M  V30 9137 H 923.016 5.0435 -4.06859 0
M  V30 9138 N 916.422 0.810101 1.35185 0
M  V30 9139 C 917.833 0.452616 1.81131 0
M  V30 9140 C 918.184 -1.02573 1.67252 0
M  V30 9141 O 917.309 -1.79735 1.20516 0
M  V30 9142 C 917.904 0.814775 3.28857 0
M  V30 9143 C 916.463 0.509839 3.72931 0
M  V30 9144 C 915.61 1.03852 2.57119 0
M  V30 9145 H 918.561 1.00143 1.23114 0
M  V30 9146 H 918.582 0.113635 3.8033 0
M  V30 9147 H 918.094 1.89078 3.38926 0
M  V30 9148 H 916.195 -0.557289 3.68409 0
M  V30 9149 H 916.308 1.04493 4.67566 0
M  V30 9150 H 914.672 0.460671 2.50499 0
M  V30 9151 H 915.455 2.12071 2.69964 0
M  V30 9152 N 917.9 -1.47166 0.563914 0
M  V30 9153 C 919.148 -2.02056 0.0422873 0
M  V30 9154 C 919.469 -1.43992 -1.31497 0
M  V30 9155 O 918.739 -0.617578 -1.85911 0
M  V30 9156 H 917.319 -0.746893 0.0126427 0
M  V30 9157 H 919.981 -1.80492 0.735441 0
M  V30 9158 H 919.077 -3.12073 -0.0408044 0
M  V30 9159 N 919.378 -0.300708 -1.54705 0
M  V30 9160 C 920.608 0.310819 -2.04249 0
M  V30 9161 C 921.016 1.4809 -1.17754 0
M  V30 9162 O 920.359 1.82654 -0.195779 0
M  V30 9163 C 920.421 0.83014 -3.49784 0
M  V30 9164 C 920.085 -0.214628 -4.56496 0
M  V30 9165 C 921.082 -1.04298 -5.09331 0
M  V30 9166 C 918.767 -0.356242 -5.01035 0
M  V30 9167 C 920.761 -1.99889 -6.05246 0
M  V30 9168 C 918.448 -1.3156 -5.96771 0
M  V30 9169 C 919.446 -2.1354 -6.4876 0
M  V30 9170 O 919.134 -3.07849 -7.4262 0
M  V30 9171 H 918.866 0.0715341 -0.672204 0
M  V30 9172 H 921.42 -0.438179 -2.00672 0
M  V30 9173 H 919.65 1.62966 -3.50684 0
M  V30 9174 H 921.339 1.35752 -3.82526 0
M  V30 9175 H 922.105 -0.944439 -4.75716 0
M  V30 9176 H 917.984 0.271916 -4.60197 0
M  V30 9177 H 921.528 -2.63917 -6.45751 0
M  V30 9178 H 917.425 -1.41486 -6.29803 0
M  V30 9179 H 918.193 -3.02824 -7.60421 0
M  V30 9180 N 920.856 1.57574 -0.0284266 0
M  V30 9181 C 921.806 2.06674 0.962804 0
M  V30 9182 C 922.79 0.967115 1.28591 0
M  V30 9183 O 923.982 1.23068 1.27214 0
M  V30 9184 C 921.111 2.59682 2.24545 0
M  V30 9185 C 920.197 3.76573 1.95073 0
M  V30 9186 N 920.588 4.8721 1.35869 0
M  V30 9187 C 918.886 3.85046 2.25068 0
M  V30 9188 C 919.587 5.68436 1.23514 0
M  V30 9189 N 918.563 5.15323 1.73041 0
M  V30 9190 H 922.365 2.89615 0.500013 0
M  V30 9191 H 919.879 1.61437 0.176604 0
M  V30 9192 H 921.876 2.93148 2.96428 0
M  V30 9193 H 920.536 1.7817 2.71451 0
M  V30 9194 H 921.547 5.07477 1.03379 0
M  V30 9195 H 918.224 3.14439 2.74653 0
M  V30 9196 H 919.614 6.67387 0.777403 0
M  V30 9197 N 922.334 -0.244713 1.55689 0
M  V30 9198 C 923.582 -0.970525 1.77272 0
M  V30 9199 C 923.903 -1.85771 0.592804 0
M  V30 9200 O 923.173 -1.91952 -0.391323 0
M  V30 9201 H 921.753 -0.361342 0.653789 0
M  V30 9202 H 924.415 -0.262134 1.93129 0
M  V30 9203 H 923.511 -1.59096 2.68505 0
M  V30 9204 N 923.813 -1.49104 -0.510467 0
M  V30 9205 C 925.06 -1.58112 -1.26518 0
M  V30 9206 C 925.388 -0.263603 -1.92705 0
M  V30 9207 O 924.643 0.747743 -1.80852 0
M  V30 9208 C 924.942 -2.68259 -2.36161 0
M  V30 9209 C 924.608 -4.10069 -1.87495 0
M  V30 9210 C 923.27 -4.48662 -1.73942 0
M  V30 9211 C 925.622 -4.98859 -1.5096 0
M  V30 9212 C 922.95 -5.73829 -1.22217 0
M  V30 9213 C 925.302 -6.24535 -1.00691 0
M  V30 9214 C 923.966 -6.61967 -0.857691 0
M  V30 9215 H 923.236 -0.578574 -0.462962 0
M  V30 9216 H 925.883 -1.82899 -0.567475 0
M  V30 9217 H 924.188 -2.37407 -3.11681 0
M  V30 9218 H 925.885 -2.7244 -2.9424 0
M  V30 9219 H 922.475 -3.79601 -1.99001 0
M  V30 9220 H 926.659 -4.69706 -1.60282 0
M  V30 9221 H 921.915 -6.01539 -1.09368 0
M  V30 9222 H 926.089 -6.9272 -0.71498 0
M  V30 9223 H 923.716 -7.58839 -0.454702 0
M  V30 9224 N 925.291 0.760815 -1.38019 0
M  V30 9225 C 926.702 1.33773 -1.30237 0
M  V30 9226 C 927.053 1.96148 0.0451153 0
M  V30 9227 O 926.178 1.94574 0.9471 0
M  V30 9228 C 926.773 2.43227 -2.35851 0
M  V30 9229 C 925.332 2.96659 -2.31669 0
M  V30 9230 C 924.479 1.69972 -2.191 0
M  V30 9231 H 927.43 0.560237 -1.48482 0
M  V30 9232 H 927.451 3.22985 -2.01149 0
M  V30 9233 H 926.963 1.978 -3.33911 0
M  V30 9234 H 925.064 3.46433 -1.37167 0
M  V30 9235 H 925.177 3.51529 -3.25521 0
M  V30 9236 H 923.541 1.9332 -1.65829 0
M  V30 9237 H 924.324 1.26633 -3.19091 0
M  V30 9238 N 926.769 1.22769 0.988202 0
M  V30 9239 C 927.717 0.999271 2.10041 0
M  V30 9240 C 928.711 -0.0591767 1.69297 0
M  V30 9241 O 929.917 0.0936653 1.79756 0
M  V30 9242 H 926.292 0.30599 0.686931 0
M  V30 9243 H 928.263 1.94294 2.26478 0
M  V30 9244 C 927.012 0.59873 3.42506 0
M  V30 9245 H 926.335 1.40487 3.74304 0
M  V30 9246 H 927.775 0.478353 4.21293 0
M  V30 9247 C 926.234 -0.692216 3.29712 0
M  V30 9248 O 926.764 -1.74342 3.61895 0
M  V30 9249 N 924.97 -0.665163 2.82885 0
M  V30 9250 H 924.517 0.190604 2.56894 0
M  V30 9251 H 924.475 -1.52917 2.74706 0
M  V30 9252 N 928.247 -1.18576 1.03814 0
M  V30 9253 C 929.487 -1.90187 0.748882 0
M  V30 9254 C 929.851 -1.78383 -0.710177 0
M  V30 9255 O 931.052 -2.44678 -1.11293 0
M  V30 9256 C 929.323 -3.36688 1.19901 0
M  V30 9257 S 930.882 -4.26419 1.03501 0
M  V30 9258 H 927.7 -0.656765 0.272362 0
M  V30 9259 H 930.302 -1.43296 1.32991 0
M  V30 9260 H 929.006 -3.42808 2.25635 0
M  V30 9261 H 928.537 -3.88616 0.611669 0
M  V30 9262 H 930.552 -4.96176 -0.0490431 0
M  V30 9263 N 929.725 -0.817259 -1.34754 0
M  V30 9264 C 930.657 -0.192695 -2.28389 0
M  V30 9265 C 931.67 0.614167 -1.50771 0
M  V30 9266 O 932.859 0.444776 -1.7287 0
M  V30 9267 C 929.959 0.748929 -3.30521 0
M  V30 9268 C 929.132 -0.0138762 -4.37398 0
M  V30 9269 C 928.191 0.847825 -5.19325 0
M  V30 9270 O 927.217 0.29487 -5.68436 0
M  V30 9271 N 928.419 2.16843 -5.38479 0
M  V30 9272 H 931.184 -0.997122 -2.82626 0
M  V30 9273 H 928.745 -0.673696 -1.47217 0
M  V30 9274 H 930.737 1.32987 -3.82226 0
M  V30 9275 H 929.307 1.45412 -2.7672 0
M  V30 9276 H 928.527 -0.776093 -3.86485 0
M  V30 9277 H 929.815 -0.539191 -5.05935 0
M  V30 9278 H 929.213 2.64148 -5.00242 0
M  V30 9279 H 927.77 2.69835 -5.93323 0
M  V30 9280 N 931.203 1.46865 -0.571711 0
M  V30 9281 C 932.166 2.28658 0.157499 0
M  V30 9282 C 933.166 1.37773 0.829172 0
M  V30 9283 O 934.356 1.6026 0.682811 0
M  V30 9284 C 931.488 3.17859 1.23202 0
M  V30 9285 H 932.681 2.94603 -0.561171 0
M  V30 9286 H 930.234 1.52793 -0.329229 0
M  V30 9287 H 930.969 2.56637 1.98262 0
M  V30 9288 H 930.754 3.84762 0.755031 0
M  V30 9289 H 932.244 3.7945 1.74378 0
M  V30 9290 N 932.681 0.308908 1.54543 0
M  V30 9291 C 933.921 -0.298811 2.02204 0
M  V30 9292 C 934.285 -1.50484 1.19242 0
M  V30 9293 O 935.486 -2.18445 1.56637 0
M  V30 9294 C 933.757 -0.638849 3.51644 0
M  V30 9295 S 935.316 -1.22831 4.21258 0
M  V30 9296 H 932.134 -0.0912638 0.705118 0
M  V30 9297 H 934.736 0.438622 1.90516 0
M  V30 9298 H 933.44 0.24726 4.09654 0
M  V30 9299 H 932.971 -1.40687 3.67384 0
M  V30 9300 H 934.986 -2.51579 4.27694 0
M  V30 9301 N 934.159 -1.57557 0.0367827 0
M  V30 9302 C 935.387 -1.96419 -0.650168 0
M  V30 9303 C 935.802 -0.913656 -1.6522 0
M  V30 9304 O 935.159 0.103718 -1.82205 0
M  V30 9305 C 935.21 -3.35355 -1.3498 0
M  V30 9306 O 934.931 -4.36379 -0.387905 0
M  V30 9307 C 936.432 -3.88892 -2.12786 0
M  V30 9308 H 933.652 -0.646751 -0.178756 0
M  V30 9309 H 936.196 -2.04261 0.0988197 0
M  V30 9310 H 934.351 -3.28708 -2.05012 0
M  V30 9311 H 934.765 -5.16969 -0.885596 0
M  V30 9312 H 936.239 -4.88428 -2.5718 0
M  V30 9313 H 936.716 -3.23547 -2.97008 0
M  V30 9314 H 937.322 -3.98831 -1.47694 0
M  V30 9315 N 935.637 0.236453 -1.55816 0
M  V30 9316 C 936.877 0.970249 -1.79904 0
M  V30 9317 C 937.241 1.8212 -0.607965 0
M  V30 9318 O 938.442 2.58759 -0.727833 0
M  V30 9319 C 936.713 1.79938 -3.088 0
M  V30 9320 S 938.272 2.59084 -3.54148 0
M  V30 9321 H 935.09 0.32618 -0.631765 0
M  V30 9322 H 937.692 0.237147 -1.94056 0
M  V30 9323 H 936.396 1.16412 -3.93544 0
M  V30 9324 H 935.927 2.57504 -2.97414 0
M  V30 9325 H 937.942 3.82315 -3.16306 0
M  V30 9326 N 937.115 1.49373 0.502552 0
M  V30 9327 C 938.392 1.49282 1.26389 0
M  V30 9328 C 938.772 0.219674 2.09954 0
M  V30 9329 O 938.12 -0.797991 2.14113 0
M  V30 9330 C 938.33 2.77083 2.12194 0
M  V30 9331 C 939.678 3.26511 2.71433 0
M  V30 9332 O 940.702 2.78189 2.22462 0
M  V30 9333 O 939.561 4.10665 3.60578 0
M  V30 9334 H 936.655 0.597415 0.57186 0
M  V30 9335 H 939.201 1.61634 0.516951 0
M  V30 9336 H 937.973 3.61237 1.50411 0
M  V30 9337 H 937.596 2.67583 2.94084 0
M  V30 9338 N 938.594 -0.753485 1.38421 0
M  V30 9339 C 940.005 -1.33081 1.30944 0
M  V30 9340 C 940.356 -1.96169 -0.0347124 0
M  V30 9341 O 939.481 -1.95073 -0.936768 0
M  V30 9342 C 940.076 -2.41973 2.37138 0
M  V30 9343 C 938.635 -2.95426 2.33239 0
M  V30 9344 C 937.782 -1.68808 2.19998 0
M  V30 9345 H 940.733 -0.552354 1.48777 0
M  V30 9346 H 940.754 -3.21913 2.02859 0
M  V30 9347 H 940.266 -1.96027 3.34956 0
M  V30 9348 H 938.367 -3.45701 1.39003 0
M  V30 9349 H 938.48 -3.49798 3.27381 0
M  V30 9350 H 936.844 -1.92438 1.66852 0
M  V30 9351 H 937.627 -1.24939 3.19758 0
M  V30 9352 N 940.072 -1.23292 -0.981677 0
M  V30 9353 C 941.488 -0.995295 -1.24764 0
M  V30 9354 C 941.688 0.304379 -1.99188 0
M  V30 9355 O 940.744 1.02414 -2.30798 0
M  V30 9356 C 942.057 -2.20135 -2.04844 0
M  V30 9357 C 943.605 -2.24612 -2.17988 0
M  V30 9358 C 944.08 -3.448 -3.01458 0
M  V30 9359 N 945.571 -3.45031 -3.09044 0
M  V30 9360 C 946.306 -4.34683 -3.7395 0
M  V30 9361 N 945.802 -5.34569 -4.4069 0
M  V30 9362 N 947.595 -4.22429 -3.70823 0
M  V30 9363 H 939.746 -2.06834 -0.483052 0
M  V30 9364 H 942.009 -0.906929 -0.276014 0
M  V30 9365 H 941.715 -3.14446 -1.57532 0
M  V30 9366 H 941.589 -2.21115 -3.05594 0
M  V30 9367 H 943.976 -1.30841 -2.64508 0
M  V30 9368 H 944.057 -2.27664 -1.16631 0
M  V30 9369 H 943.701 -4.38877 -2.55635 0
M  V30 9370 H 943.631 -3.38988 -4.02982 0
M  V30 9371 H 946.122 -2.72759 -2.61555 0
M  V30 9372 H 946.435 -5.99236 -4.87991 0
M  V30 9373 H 944.78 -5.3847 -4.39403 0
M  V30 9374 H 947.971 -3.43639 -3.17851 0
M  V30 9375 H 948.144 -4.92501 -4.21126 0
M  V30 9376 N 941.55 1.18024 -1.04442 0
M  V30 9377 C 942.798 1.87727 -0.74854 0
M  V30 9378 C 943.119 1.80975 0.726156 0
M  V30 9379 O 942.389 1.23061 1.52423 0
M  V30 9380 H 940.969 0.694974 -0.273897 0
M  V30 9381 H 943.631 1.43213 -1.32197 0
M  V30 9382 H 942.727 2.93665 -1.05674 0
M  V30 9383 N 943.028 0.824394 1.34319 0
M  V30 9384 C 943.991 0.252696 2.27803 0
M  V30 9385 C 944.991 -0.570254 1.50349 0
M  V30 9386 O 946.181 -0.386145 1.69866 0
M  V30 9387 C 943.313 -0.645575 3.34731 0
M  V30 9388 H 944.506 1.07742 2.79878 0
M  V30 9389 H 942.059 0.596367 1.44475 0
M  V30 9390 H 942.794 -1.4933 2.87873 0
M  V30 9391 H 942.579 -0.0569478 3.92059 0
M  V30 9392 H 944.069 -1.03933 4.0446 0
M  V30 9393 N 944.506 -1.46559 0.579492 0
M  V30 9394 C 945.436 -2.33059 -0.143437 0
M  V30 9395 C 946.417 -1.4515 -0.886868 0
M  V30 9396 O 947.602 -1.73973 -0.862961 0
M  V30 9397 C 944.732 -3.27364 -1.15973 0
M  V30 9398 C 943.686 -4.24689 -0.531348 0
M  V30 9399 C 943.012 -5.08479 -1.65388 0
M  V30 9400 C 944.312 -5.1961 0.529391 0
M  V30 9401 H 946.006 -2.93753 0.578762 0
M  V30 9402 H 943.552 -1.41256 0.279775 0
M  V30 9403 H 945.505 -3.86732 -1.67382 0
M  V30 9404 H 944.229 -2.64771 -1.91217 0
M  V30 9405 H 942.888 -3.6658 -0.0383749 0
M  V30 9406 H 942.536 -4.42273 -2.3959 0
M  V30 9407 H 942.236 -5.74387 -1.23909 0
M  V30 9408 H 943.76 -5.70709 -2.17079 0
M  V30 9409 H 945.174 -5.73212 0.100506 0
M  V30 9410 H 943.571 -5.93843 0.86432 0
M  V30 9411 H 944.641 -4.63737 1.4169 0
M  V30 9412 N 945.984 -0.3171 -1.54377 0
M  V30 9413 C 947.261 0.341348 -1.92598 0
M  V30 9414 C 947.641 1.70402 -1.24605 0
M  V30 9415 O 946.989 2.25191 -0.387448 0
M  V30 9416 C 947.199 0.440003 -3.46215 0
M  V30 9417 C 948.547 0.703327 -4.18734 0
M  V30 9418 O 949.571 0.523181 -3.52337 0
M  V30 9419 O 948.43 1.05042 -5.3631 0
M  V30 9420 H 945.524 0.193696 -0.803997 0
M  V30 9421 H 948.07 -0.366341 -1.65699 0
M  V30 9422 H 946.842 -0.517299 -3.87866 0
M  V30 9423 H 946.465 1.19553 -3.792 0
M  V30 9424 N 947.462 1.57535 -0.0451378 0
M  V30 9425 C 948.394 2.08109 0.960372 0
M  V30 9426 C 949.407 1.0077 1.27864 0
M  V30 9427 O 950.596 1.28351 1.24049 0
M  V30 9428 C 947.696 2.50414 2.28355 0
M  V30 9429 C 946.869 3.8102 2.14808 0
M  V30 9430 C 945.928 4.09702 3.30198 0
M  V30 9431 O 944.954 4.79715 3.0637 0
M  V30 9432 N 946.156 3.61138 4.54489 0
M  V30 9433 H 948.921 2.94999 0.528752 0
M  V30 9434 H 946.482 1.61283 0.141248 0
M  V30 9435 H 948.474 2.66683 3.04405 0
M  V30 9436 H 947.044 1.68805 2.63104 0
M  V30 9437 H 946.264 3.74392 1.23387 0
M  V30 9438 H 947.552 4.66559 2.02978 0
M  V30 9439 H 946.95 3.04527 4.76739 0
M  V30 9440 H 945.507 3.82656 5.27653 0
M  V30 9441 N 948.94 -0.228186 1.55939 0
M  V30 9442 C 949.87 -1.28607 1.94891 0
M  V30 9443 C 950.851 -1.49236 0.816245 0
M  V30 9444 O 952.036 -1.61531 1.07803 0
M  V30 9445 C 949.166 -2.63719 2.25986 0
M  V30 9446 C 948.12 -2.57757 3.4168 0
M  V30 9447 C 947.446 -3.96837 3.58364 0
M  V30 9448 C 948.746 -2.13116 4.76843 0
M  V30 9449 H 950.44 -0.962531 2.83506 0
M  V30 9450 H 947.986 -0.461577 1.36402 0
M  V30 9451 H 949.939 -3.37878 2.51826 0
M  V30 9452 H 948.663 -2.97747 1.34217 0
M  V30 9453 H 947.322 -1.86055 3.15878 0
M  V30 9454 H 946.97 -4.28162 2.63982 0
M  V30 9455 H 946.67 -3.93731 4.36176 0
M  V30 9456 H 948.194 -4.72668 3.86545 0
M  V30 9457 H 949.608 -2.77015 5.01932 0
M  V30 9458 H 948.005 -2.21083 5.57891 0
M  V30 9459 H 949.075 -1.08326 4.72645 0
M  V30 9460 N 950.418 -1.49637 -0.494624 0
M  V30 9461 C 951.658 -1.61067 -1.25844 0
M  V30 9462 C 952.022 -0.293666 -1.89741 0
M  V30 9463 O 953.223 -0.283202 -2.67304 0
M  V30 9464 C 951.494 -2.74218 -2.29215 0
M  V30 9465 S 953.053 -3.05639 -3.1485 0
M  V30 9466 H 949.871 -0.568056 -0.42759 0
M  V30 9467 H 952.473 -1.87323 -0.559491 0
M  V30 9468 H 951.177 -3.68422 -1.80813 0
M  V30 9469 H 950.708 -2.49975 -3.0377 0
M  V30 9470 H 952.723 -2.47651 -4.29981 0
M  V30 9471 N 951.896 0.746133 -1.38819 0
M  V30 9472 C 953.144 1.50247 -1.35167 0
M  V30 9473 C 953.465 1.94921 0.0553531 0
M  V30 9474 O 952.735 1.68187 1.00449 0
M  V30 9475 H 951.315 0.557337 -0.497377 0
M  V30 9476 H 953.977 0.886472 -1.73573 0
M  V30 9477 H 953.073 2.38986 -2.00728 0
M  V30 9478 N 953.375 1.23811 0.975125 0
M  V30 9479 C 954.338 1.02505 2.05001 0
M  V30 9480 C 955.338 -0.0150084 1.60793 0
M  V30 9481 O 956.528 0.225246 1.72738 0
M  V30 9482 C 953.66 0.552087 3.364 0
M  V30 9483 H 954.853 1.979 2.25335 0
M  V30 9484 H 952.406 1.05929 1.1493 0
M  V30 9485 H 953.141 -0.405394 3.21756 0
M  V30 9486 H 952.926 1.30267 3.69828 0
M  V30 9487 H 954.416 0.423828 4.15444 0
M  V30 9488 N 954.853 -1.17469 1.05066 0
M  V30 9489 C 956.101 -1.87327 0.758485 0
M  V30 9490 C 956.422 -1.81358 -0.716549 0
M  V30 9491 O 955.692 -1.23868 -1.51768 0
M  V30 9492 H 954.272 -0.693512 0.277579 0
M  V30 9493 H 956.934 -1.4251 1.32954 0
M  V30 9494 H 956.03 -2.93101 1.0723 0
M  V30 9495 N 956.331 -0.831506 -1.3388 0
M  V30 9496 C 957.579 -0.422837 -1.97627 0
M  V30 9497 C 957.9 1.01961 -1.6622 0
M  V30 9498 O 957.17 1.70916 -0.957323 0
M  V30 9499 H 955.75 -0.153365 -0.731087 0
M  V30 9500 H 958.412 -1.06284 -1.6337 0
M  V30 9501 H 957.508 -0.548858 -3.07236 0
M  V30 9502 N 957.809 1.4625 -0.587256 0
M  V30 9503 C 958.739 2.33132 0.131076 0
M  V30 9504 C 959.72 1.45619 0.879158 0
M  V30 9505 O 960.905 1.74428 0.853723 0
M  V30 9506 C 958.035 3.27975 1.14236 0
M  V30 9507 C 956.989 4.24965 0.508819 0
M  V30 9508 C 956.315 5.09349 1.62689 0
M  V30 9509 C 957.615 5.19322 -0.55694 0
M  V30 9510 H 959.309 2.93442 -0.594333 0
M  V30 9511 H 956.855 1.41106 -0.287263 0
M  V30 9512 H 958.808 3.87614 1.65328 0
M  V30 9513 H 957.532 2.65781 1.8981 0
M  V30 9514 H 956.191 3.66595 0.0189337 0
M  V30 9515 H 955.839 4.43537 2.37242 0
M  V30 9516 H 955.539 5.75036 1.20861 0
M  V30 9517 H 957.063 5.71852 2.14049 0
M  V30 9518 H 958.477 5.73151 -0.130903 0
M  V30 9519 H 956.874 5.93376 -0.895801 0
M  V30 9520 H 957.944 4.62979 -1.44148 0
M  V30 9521 N 959.287 0.325282 1.54207 0
M  V30 9522 C 960.527 -0.277347 2.0251 0
M  V30 9523 C 960.891 -1.49211 1.20831 0
M  V30 9524 O 962.092 -2.16771 1.58945 0
M  V30 9525 C 960.363 -0.601517 3.52302 0
M  V30 9526 S 961.922 -1.18356 4.22537 0
M  V30 9527 H 958.74 -0.08378 0.706047 0
M  V30 9528 H 961.342 0.458804 1.9004 0
M  V30 9529 H 960.046 0.290696 4.09369 0
M  V30 9530 H 959.577 -1.36782 3.68855 0
M  V30 9531 H 961.592 -2.47029 4.30338 0
M  V30 9532 N 960.765 -1.57509 0.0534917 0
M  V30 9533 C 962.181 -1.56696 -0.303067 0
M  V30 9534 C 962.381 -1.06135 -1.71282 0
M  V30 9535 O 961.437 -0.71899 -2.42047 0
M  V30 9536 C 962.75 -3.00421 -0.129418 0
M  V30 9537 C 964.298 -3.12358 -0.200346 0
M  V30 9538 C 964.773 -4.57967 -0.0551971 0
M  V30 9539 N 966.264 -4.63066 -0.111398 0
M  V30 9540 C 966.999 -5.73395 -0.0232344 0
M  V30 9541 N 966.495 -6.92701 0.11741 0
M  V30 9542 N 968.288 -5.62045 -0.078984 0
M  V30 9543 H 960.439 -1.88696 0.975064 0
M  V30 9544 H 962.702 -0.869072 0.378706 0
M  V30 9545 H 962.408 -3.41456 0.842653 0
M  V30 9546 H 962.282 -3.66563 -0.889476 0
M  V30 9547 H 964.669 -2.71221 -1.16289 0
M  V30 9548 H 964.75 -2.48891 0.590506 0
M  V30 9549 H 964.394 -4.9979 0.904034 0
M  V30 9550 H 964.324 -5.19443 -0.865223 0
M  V30 9551 H 966.815 -3.77263 -0.219256 0
M  V30 9552 H 967.128 -7.72597 0.177326 0
M  V30 9553 H 965.473 -6.94833 0.152526 0
M  V30 9554 H 968.664 -4.67725 -0.187434 0
M  V30 9555 H 968.837 -6.48 -0.00681731 0
M  V30 9556 N 962.243 0.219913 -1.56058 0
M  V30 9557 C 963.483 0.951113 -1.80923 0
M  V30 9558 C 963.847 1.81465 -0.627247 0
M  V30 9559 O 965.048 2.57972 -0.755237 0
M  V30 9560 C 963.319 1.76652 -3.10691 0
M  V30 9561 S 964.878 2.55314 -3.56876 0
M  V30 9562 H 961.696 0.319461 -0.635189 0
M  V30 9563 H 964.298 0.216551 -1.94297 0
M  V30 9564 H 963.002 1.12231 -3.94756 0
M  V30 9565 H 962.533 2.54335 -3.00128 0
M  V30 9566 H 964.548 3.78938 -3.20344 0
M  V30 9567 N 963.721 1.49897 0.486681 0
M  V30 9568 C 965.137 1.36977 0.819109 0
M  V30 9569 C 965.337 0.41385 1.97204 0
M  V30 9570 O 964.393 -0.149249 2.52059 0
M  V30 9571 C 965.706 2.78013 1.14584 0
M  V30 9572 C 967.254 2.86816 1.25321 0
M  V30 9573 C 967.729 4.28651 1.61316 0
M  V30 9574 N 969.22 4.31528 1.68337 0
M  V30 9575 C 969.955 5.38254 1.97662 0
M  V30 9576 N 969.451 6.55207 2.25113 0
M  V30 9577 N 971.244 5.25683 1.99033 0
M  V30 9578 H 963.395 2.10634 -0.273364 0
M  V30 9579 H 965.658 0.946116 -0.0597418 0
M  V30 9580 H 965.364 3.49728 0.371892 0
M  V30 9581 H 965.238 3.1428 2.08585 0
M  V30 9582 H 967.625 2.15329 2.01785 0
M  V30 9583 H 967.706 2.54112 0.293368 0
M  V30 9584 H 967.35 5.00669 0.853968 0
M  V30 9585 H 967.28 4.5883 2.58424 0
M  V30 9586 H 969.771 3.47189 1.49226 0
M  V30 9587 H 970.084 7.32359 2.46717 0
M  V30 9588 H 968.429 6.58408 2.22538 0
M  V30 9589 H 971.62 4.33316 1.77074 0
M  V30 9590 H 971.793 6.08949 2.21552 0
M  V30 9591 N 965.199 -0.738761 1.39212 0
M  V30 9592 C 966.61 -1.31684 1.32348 0
M  V30 9593 C 966.961 -1.96195 -0.0139041 0
M  V30 9594 O 966.086 -1.96056 -0.916025 0
M  V30 9595 C 966.681 -2.39444 2.39691 0
M  V30 9596 C 965.24 -2.92935 2.36359 0
M  V30 9597 C 964.387 -1.66465 2.21776 0
M  V30 9598 H 967.338 -0.536543 1.49355 0
M  V30 9599 H 967.359 -3.19744 2.06262 0
M  V30 9600 H 966.871 -1.92463 3.37016 0
M  V30 9601 H 964.972 -3.44207 1.42662 0
M  V30 9602 H 965.085 -3.46306 3.31073 0
M  V30 9603 H 963.449 -1.90657 1.68884 0
M  V30 9604 H 964.232 -1.21541 3.21065 0
M  V30 9605 N 966.677 -1.24326 -0.968545 0
M  V30 9606 C 967.925 -1.08032 -1.70803 0
M  V30 9607 C 968.246 0.381728 -1.91227 0
M  V30 9608 O 967.516 1.27253 -1.48942 0
M  V30 9609 H 966.096 -0.396777 -0.632912 0
M  V30 9610 H 968.758 -1.56232 -1.16523 0
M  V30 9611 H 967.854 -1.57769 -2.69287 0
M  V30 9612 N 968.156 1.1691 -1.05688 0
M  V30 9613 C 969.386 1.90927 -0.789339 0
M  V30 9614 C 969.794 1.77339 0.659369 0
M  V30 9615 O 969.137 1.11147 1.4626 0
M  V30 9616 C 969.199 3.42361 -1.09677 0
M  V30 9617 C 968.863 3.79733 -2.54267 0
M  V30 9618 C 969.86 3.82163 -3.52487 0
M  V30 9619 C 967.545 4.10547 -2.89406 0
M  V30 9620 C 969.539 4.14884 -4.8389 0
M  V30 9621 C 967.226 4.42936 -4.21011 0
M  V30 9622 C 968.224 4.45084 -5.18063 0
M  V30 9623 O 967.912 4.76707 -6.47307 0
M  V30 9624 H 967.644 0.612466 -0.286115 0
M  V30 9625 H 970.198 1.4916 -1.4121 0
M  V30 9626 H 968.428 3.84446 -0.416924 0
M  V30 9627 H 970.117 3.97645 -0.814456 0
M  V30 9628 H 970.883 3.58476 -3.26681 0
M  V30 9629 H 966.762 4.08044 -2.14525 0
M  V30 9630 H 970.306 4.16475 -5.59638 0
M  V30 9631 H 966.203 4.66088 -4.46579 0
M  V30 9632 H 966.971 4.94544 -6.52203 0
M  V30 9633 N 969.634 0.838594 1.33437 0
M  V30 9634 C 970.862 0.447644 2.01999 0
M  V30 9635 C 971.277 -0.951053 1.63096 0
M  V30 9636 O 970.634 -1.61802 0.844169 0
M  V30 9637 C 970.685 0.558378 3.57162 0
M  V30 9638 O 970.406 1.90196 3.94661 0
M  V30 9639 C 971.907 0.164348 4.42995 0
M  V30 9640 H 969.127 0.177736 0.647032 0
M  V30 9641 H 971.671 1.13109 1.70372 0
M  V30 9642 H 969.826 -0.0771563 3.87323 0
M  V30 9643 H 970.24 1.88729 4.89369 0
M  V30 9644 H 971.714 0.292876 5.51222 0
M  V30 9645 H 972.191 -0.893713 4.30011 0
M  V30 9646 H 972.797 0.774306 4.18192 0
M  V30 9647 N 971.112 -1.45937 0.595003 0
M  V30 9648 C 972.36 -2.01921 0.0851368 0
M  V30 9649 C 972.681 -1.46748 -1.28413 0
M  V30 9650 O 971.951 -0.656873 -1.84559 0
M  V30 9651 H 970.531 -0.746457 0.0284826 0
M  V30 9652 H 973.193 -1.78891 0.773561 0
M  V30 9653 H 972.289 -3.1209 0.0254002 0
M  V30 9654 N 972.59 -0.333456 -1.54032 0
M  V30 9655 C 973.818 0.267813 -2.05159 0
M  V30 9656 C 974.233 1.4501 -1.20903 0
M  V30 9657 O 973.59 1.80888 -0.241994 0
M  V30 9658 C 973.641 0.69268 -3.54802 0
M  V30 9659 O 973.362 -0.442579 -4.35859 0
M  V30 9660 C 974.863 1.35572 -4.2206 0
M  V30 9661 H 972.083 0.0534924 -0.668864 0
M  V30 9662 H 974.627 -0.482515 -1.98726 0
M  V30 9663 H 972.782 1.39297 -3.6149 0
M  V30 9664 H 973.196 -0.105915 -5.24393 0
M  V30 9665 H 974.67 1.60385 -5.28186 0
M  V30 9666 H 975.147 2.30614 -3.73783 0
M  V30 9667 H 975.753 0.697748 -4.19537 0
M  V30 9668 N 974.068 1.57479 -0.061844 0
M  V30 9669 C 975.031 2.1104 0.894127 0
M  V30 9670 C 976.031 1.03227 1.23292 0
M  V30 9671 O 977.221 1.29256 1.16784 0
M  V30 9672 C 974.353 2.6035 2.20069 0
M  V30 9673 H 975.546 2.96807 0.429619 0
M  V30 9674 H 973.099 1.55181 0.18672 0
M  V30 9675 H 973.834 1.78008 2.71079 0
M  V30 9676 H 973.619 3.39146 1.9678 0
M  V30 9677 H 975.109 3.019 2.88525 0
M  V30 9678 N 975.546 -0.211634 1.56173 0
M  V30 9679 C 976.786 -0.941505 1.81425 0
M  V30 9680 C 977.15 -1.8113 0.636862 0
M  V30 9681 O 978.351 -2.57568 0.768907 0
M  V30 9682 C 976.622 -1.75002 3.11623 0
M  V30 9683 S 978.181 -2.53418 3.58225 0
M  V30 9684 H 974.999 -0.316088 0.636875 0
M  V30 9685 H 977.601 -0.206244 1.94409 0
M  V30 9686 H 976.305 -1.10136 3.95346 0
M  V30 9687 H 975.836 -2.5274 3.01473 0
M  V30 9688 H 977.851 -3.77234 3.22349 0
M  V30 9689 N 977.024 -1.50153 -0.478725 0
M  V30 9690 C 977.956 -1.64603 -1.59494 0
M  V30 9691 C 978.969 -0.527789 -1.54007 0
M  V30 9692 O 980.158 -0.80069 -1.59534 0
M  V30 9693 C 977.258 -1.60738 -2.98356 0
M  V30 9694 C 976.431 -2.88468 -3.28794 0
M  V30 9695 C 975.49 -2.77349 -4.47173 0
M  V30 9696 O 974.516 -3.51302 -4.47857 0
M  V30 9697 N 975.718 -1.9039 -5.4839 0
M  V30 9698 H 978.483 -2.6088 -1.47518 0
M  V30 9699 H 976.044 -1.47521 -0.667011 0
M  V30 9700 H 978.036 -1.50923 -3.75505 0
M  V30 9701 H 976.606 -0.722273 -3.04141 0
M  V30 9702 H 975.826 -3.12467 -2.40329 0
M  V30 9703 H 977.114 -3.73102 -3.45937 0
M  V30 9704 H 976.512 -1.29606 -5.50653 0
M  V30 9705 H 975.069 -1.86484 -6.24553 0
M  V30 9706 N 978.502 0.731368 -1.39602 0
M  V30 9707 C 979.412 1.87579 -1.40894 0
M  V30 9708 C 980.428 1.71336 -0.303319 0
M  V30 9709 O 981.604 1.93875 -0.545377 0
M  V30 9710 C 978.669 3.23211 -1.25442 0
M  V30 9711 C 977.73 3.51822 -2.46008 0
M  V30 9712 C 976.963 4.80982 -2.31284 0
M  V30 9713 O 977.186 5.54958 -1.31824 0
M  V30 9714 O 976.12 5.09574 -3.20341 0
M  V30 9715 H 979.946 1.89444 -2.3737 0
M  V30 9716 H 977.531 0.879675 -1.20756 0
M  V30 9717 H 979.413 4.04257 -1.18972 0
M  V30 9718 H 978.088 3.22108 -0.320637 0
M  V30 9719 H 976.995 2.70847 -2.58055 0
M  V30 9720 H 978.328 3.57707 -3.38093 0
M  V30 9721 N 979.98 1.24838 0.961938 0
M  V30 9722 C 981.22 1.10348 1.72054 0
M  V30 9723 C 981.584 -0.350775 1.88769 0
M  V30 9724 O 982.785 -0.617323 2.61615 0
M  V30 9725 C 981.056 1.82916 3.07045 0
M  V30 9726 S 982.615 1.84227 3.98253 0
M  V30 9727 H 979.433 0.394552 0.591481 0
M  V30 9728 H 982.035 1.58254 1.14786 0
M  V30 9729 H 980.739 2.87829 2.92545 0
M  V30 9730 H 980.27 1.35366 3.69377 0
M  V30 9731 H 982.285 0.914073 4.87708 0
M  V30 9732 N 981.458 -1.16348 1.06306 0
M  V30 9733 C 982.683 -1.91323 0.800636 0
M  V30 9734 C 983.108 -1.7691 -0.639105 0
M  V30 9735 O 982.466 -1.0945 -1.44535 0
M  V30 9736 C 982.514 -3.40038 1.20027 0
M  V30 9737 O 981.618 -4.11003 0.339142 0
M  V30 9738 H 980.959 -0.596057 0.292595 0
M  V30 9739 H 983.489 -1.47406 1.41889 0
M  V30 9740 H 983.499 -3.90808 1.17188 0
M  V30 9741 H 982.174 -3.49848 2.24898 0
M  V30 9742 H 980.751 -3.70423 0.42911 0
M  V30 9743 N 982.937 -0.845659 -1.3299 0
M  V30 9744 C 984.348 -0.50048 -1.79867 0
M  V30 9745 C 984.699 0.981027 -1.69913 0
M  V30 9746 O 983.824 1.76477 -1.25239 0
M  V30 9747 C 984.419 -0.901679 -3.26581 0
M  V30 9748 C 982.978 -0.608536 -3.71448 0
M  V30 9749 C 982.125 -1.10632 -2.54275 0
M  V30 9750 H 985.076 -1.03372 -1.20416 0
M  V30 9751 H 985.097 -0.214433 -3.79895 0
M  V30 9752 H 984.609 -1.97998 -3.33794 0
M  V30 9753 H 982.71 0.459416 -3.69757 0
M  V30 9754 H 982.823 -1.16853 -4.64631 0
M  V30 9755 H 981.187 -0.526925 -2.4919 0
M  V30 9756 H 981.97 -2.19154 -2.64247 0
M  V30 9757 N 984.415 1.45619 -0.602734 0
M  V30 9758 C 985.663 2.01873 -0.095844 0
M  V30 9759 C 985.984 1.47427 1.27633 0
M  V30 9760 O 985.254 0.666652 1.84208 0
M  V30 9761 H 983.834 0.746295 -0.0324408 0
M  V30 9762 H 986.496 1.78478 -0.783037 0
M  V30 9763 H 985.592 3.12072 -0.0419507 0
M  V30 9764 N 985.893 0.34162 1.53853 0
M  V30 9765 C 987.14 -0.255484 2.00882 0
M  V30 9766 C 987.468 -1.50711 1.22949 0
M  V30 9767 O 986.723 -1.93315 0.304625 0
M  V30 9768 C 987.022 -0.616989 3.52034 0
M  V30 9769 C 986.688 0.537536 4.47684 0
M  V30 9770 C 985.35 0.854379 4.73554 0
M  V30 9771 C 987.702 1.31217 5.04412 0
M  V30 9772 C 985.03 1.94826 5.53407 0
M  V30 9773 C 987.382 2.39628 5.85458 0
M  V30 9774 C 986.046 2.71874 6.09623 0
M  V30 9775 H 985.316 -0.0934881 0.735079 0
M  V30 9776 H 987.963 0.469135 1.85665 0
M  V30 9777 H 986.268 -1.42229 3.65073 0
M  V30 9778 H 987.965 -1.09084 3.85878 0
M  V30 9779 H 984.555 0.280524 4.27681 0
M  V30 9780 H 988.739 1.08064 4.84392 0
M  V30 9781 H 983.995 2.20235 5.70356 0
M  V30 9782 H 988.169 3.00084 6.28429 0
M  V30 9783 H 985.796 3.56762 6.71286 0
M  V30 9784 N 987.371 -1.57444 0.0701946 0
M  V30 9785 C 988.321 -2.09154 -0.90767 0
M  V30 9786 C 989.305 -1.00087 -1.25982 0
M  V30 9787 O 990.497 -1.26397 -1.23906 0
M  V30 9788 C 987.626 -2.65544 -2.17581 0
M  V30 9789 C 986.712 -3.81613 -1.85021 0
M  V30 9790 N 987.103 -4.90641 -1.22904 0
M  V30 9791 C 985.401 -3.90878 -2.1478 0
M  V30 9792 C 986.102 -5.71511 -1.084 0
M  V30 9793 N 985.078 -5.1973 -1.59318 0
M  V30 9794 H 988.88 -2.90839 -0.423051 0
M  V30 9795 H 986.394 -1.61848 -0.13374 0
M  V30 9796 H 988.391 -3.00904 -2.88552 0
M  V30 9797 H 987.051 -1.85304 -2.66632 0
M  V30 9798 H 988.062 -5.1004 -0.898878 0
M  V30 9799 H 984.739 -3.21611 -2.66219 0
M  V30 9800 H 986.129 -6.69214 -0.600183 0
M  V30 9801 N 988.849 0.203349 -1.56283 0
M  V30 9802 C 990.097 0.923183 -1.79782 0
M  V30 9803 C 990.418 1.84134 -0.64185 0
M  V30 9804 O 989.688 1.92922 0.340292 0
M  V30 9805 H 988.268 0.343881 -0.66314 0
M  V30 9806 H 990.93 0.210837 -1.93756 0
M  V30 9807 H 990.026 1.51921 -2.72629 0
M  V30 9808 N 990.327 1.50405 0.470755 0
M  V30 9809 C 991.574 1.61411 1.22281 0
M  V30 9810 C 991.902 0.314603 1.91939 0
M  V30 9811 O 991.157 -0.699531 1.82771 0
M  V30 9812 C 991.456 2.74426 2.28965 0
M  V30 9813 C 991.122 4.14896 1.76557 0
M  V30 9814 C 989.784 4.53116 1.61985 0
M  V30 9815 C 992.136 5.02686 1.3768 0
M  V30 9816 C 989.464 5.76868 1.0696 0
M  V30 9817 C 991.816 6.26985 0.840967 0
M  V30 9818 C 990.48 6.64008 0.68188 0
M  V30 9819 H 989.75 0.590645 0.447459 0
M  V30 9820 H 992.397 1.84339 0.518783 0
M  V30 9821 H 990.702 2.45588 3.05277 0
M  V30 9822 H 992.399 2.80146 2.86914 0
M  V30 9823 H 988.989 3.84743 1.88867 0
M  V30 9824 H 993.173 4.7379 1.47772 0
M  V30 9825 H 988.429 6.04227 0.933808 0
M  V30 9826 H 992.603 6.94372 0.531066 0
M  V30 9827 H 990.23 7.59778 0.25335 0
M  V30 9828 N 991.805 -0.723954 1.39988 0
M  V30 9829 C 993.216 -1.30273 1.33738 0
M  V30 9830 C 993.567 -1.96199 0.00690581 0
M  V30 9831 O 992.692 -1.97016 -0.895179 0
M  V30 9832 C 993.287 -2.36889 2.42217 0
M  V30 9833 C 991.846 -2.90412 2.39453 0
M  V30 9834 C 990.993 -1.64103 2.2353 0
M  V30 9835 H 993.944 -0.520672 1.49916 0
M  V30 9836 H 993.965 -3.17538 2.09642 0
M  V30 9837 H 993.477 -1.88878 3.39038 0
M  V30 9838 H 991.578 -3.42674 1.46304 0
M  V30 9839 H 991.691 -3.42775 3.34727 0
M  V30 9840 H 990.055 -1.88855 1.70897 0
M  V30 9841 H 990.838 -1.18128 3.22336 0
M  V30 9842 N 993.283 -1.25346 -0.955304 0
M  V30 9843 C 994.508 -1.12892 -1.73983 0
M  V30 9844 C 994.933 0.313455 -1.8547 0
M  V30 9845 O 994.291 1.22706 -1.33465 0
M  V30 9846 C 994.339 -1.78729 -3.1319 0
M  V30 9847 O 993.443 -1.06648 -3.98372 0
M  V30 9848 H 992.784 -0.394178 -0.534341 0
M  V30 9849 H 995.314 -1.65897 -1.19747 0
M  V30 9850 H 995.324 -1.84987 -3.63653 0
M  V30 9851 H 993.999 -2.83669 -3.04146 0
M  V30 9852 H 992.576 -1.08266 -3.56837 0
M  V30 9853 N 994.761 1.15782 -1.06922 0
M  V30 9854 C 996.001 1.88135 -0.799043 0
M  V30 9855 C 996.365 1.80203 0.662632 0
M  V30 9856 O 997.566 2.47543 1.04767 0
M  V30 9857 C 995.837 3.3339 -1.28786 0
M  V30 9858 S 997.396 4.23525 -1.1477 0
M  V30 9859 H 994.214 0.649313 -0.289679 0
M  V30 9860 H 996.816 1.3972 -1.36743 0
M  V30 9861 H 995.52 3.36705 -2.34645 0
M  V30 9862 H 995.051 3.86857 -0.714489 0
M  V30 9863 H 997.066 4.96131 -0.0825264 0
M  V30 9864 N 996.239 0.8527 1.3254 0
M  V30 9865 C 997.485 0.455798 1.97612 0
M  V30 9866 C 997.818 -0.985616 1.6733 0
M  V30 9867 O 997.093 -1.69129 0.960493 0
M  V30 9868 C 997.376 0.69312 3.53366 0
M  V30 9869 C 997.229 2.18281 3.93285 0
M  V30 9870 C 998.548 0.148236 4.3985 0
M  V30 9871 H 995.667 0.167078 0.717812 0
M  V30 9872 H 998.309 1.07076 1.56954 0
M  V30 9873 H 996.459 0.169677 3.88129 0
M  V30 9874 H 998.131 2.77218 3.68711 0
M  V30 9875 H 996.374 2.66206 3.42515 0
M  V30 9876 H 997.045 2.29957 5.01821 0
M  V30 9877 H 999.521 0.595834 4.11812 0
M  V30 9878 H 998.397 0.343873 5.47822 0
M  V30 9879 H 998.658 -0.948872 4.31797 0
M  V30 9880 N 997.718 -1.45297 0.610449 0
M  V30 9881 C 999.129 -1.85715 0.191488 0
M  V30 9882 C 999.48 -1.51036 -1.25229 0
M  V30 9883 O 998.605 -0.938422 -1.94994 0
M  V30 9884 C 999.2 -3.37082 0.340747 0
M  V30 9885 C 997.759 -3.76393 -0.0235433 0
M  V30 9886 C 996.906 -2.69237 0.663849 0
M  V30 9887 H 999.857 -1.36058 0.816948 0
M  V30 9888 H 999.878 -3.78105 -0.426233 0
M  V30 9889 H 999.39 -3.62291 1.39164 0
M  V30 9890 H 997.491 -3.56801 -1.07351 0
M  V30 9891 H 997.604 -4.77653 0.372102 0
M  V30 9892 H 995.968 -2.54499 0.101204 0
M  V30 9893 H 996.751 -2.97281 1.71694 0
M  V30 9894 N 999.196 -0.349774 -1.5367 0
M  V30 9895 C 1000.44 0.245095 -2.02925 0
M  V30 9896 C 1000.8 1.4727 -1.23189 0
M  V30 9897 O 1002 2.14215 -1.62374 0
M  V30 9898 C 1000.27 0.545392 -3.53214 0
M  V30 9899 S 1001.83 1.11619 -4.24366 0
M  V30 9900 H 998.649 0.0725368 -0.70729 0
M  V30 9901 H 1001.25 -0.488979 -1.89286 0
M  V30 9902 H 999.955 -0.355786 -4.08855 0
M  V30 9903 H 999.486 1.30897 -3.70985 0
M  V30 9904 H 1001.5 2.40151 -4.34214 0
M  V30 9905 N 1000.67 1.57404 -0.0785433 0
M  V30 9906 C 1001.62 2.09632 0.896565 0
M  V30 9907 C 1002.61 1.00754 1.25449 0
M  V30 9908 O 1003.8 1.27053 1.23234 0
M  V30 9909 C 1000.93 2.66694 2.16169 0
M  V30 9910 C 1000.01 3.82588 1.82994 0
M  V30 9911 N 1000.41 4.91286 1.203 0
M  V30 9912 C 998.704 3.92011 2.12704 0
M  V30 9913 C 999.405 5.72077 1.05367 0
M  V30 9914 N 998.381 5.20567 1.56559 0
M  V30 9915 H 1002.18 2.9106 0.407621 0
M  V30 9916 H 999.697 1.61917 0.125155 0
M  V30 9917 H 1001.69 3.0243 2.86952 0
M  V30 9918 H 1000.35 1.86716 2.65645 0
M  V30 9919 H 1001.36 5.10509 0.871817 0
M  V30 9920 H 998.042 3.23018 2.6451 0
M  V30 9921 H 999.432 6.69523 0.564685 0
M  V30 9922 N 1002.15 -0.195058 1.56388 0
M  V30 9923 C 1003.39 -0.92221 1.82413 0
M  V30 9924 C 1003.76 -1.80444 0.656037 0
M  V30 9925 O 1004.96 -2.56738 0.796182 0
M  V30 9926 C 1003.23 -1.71687 3.13462 0
M  V30 9927 S 1004.79 -2.49604 3.60892 0
M  V30 9928 H 1001.6 -0.309316 0.640191 0
M  V30 9929 H 1004.21 -0.185613 1.94617 0
M  V30 9930 H 1002.91 -1.05936 3.96492 0
M  V30 9931 H 1002.44 -2.49529 3.04137 0
M  V30 9932 H 1004.46 -3.73794 3.26332 0
M  V30 9933 N 1003.63 -1.50653 -0.462772 0
M  V30 9934 C 1004.85 -1.66103 -1.24196 0
M  V30 9935 C 1005.28 -0.347421 -1.84864 0
M  V30 9936 O 1004.64 0.689673 -1.6767 0
M  V30 9937 C 1004.69 -2.76027 -2.32037 0
M  V30 9938 O 1003.79 -2.37859 -3.36893 0
M  V30 9939 H 1003.13 -0.554672 -0.365014 0
M  V30 9940 H 1005.66 -1.97076 -0.549734 0
M  V30 9941 H 1005.67 -2.99354 -2.77221 0
M  V30 9942 H 1004.35 -3.71361 -1.87253 0
M  V30 9943 H 1002.92 -2.2501 -2.97363 0
M  V30 9944 N 1005.11 0.71652 -1.4037 0
M  V30 9945 C 1006.07 1.81231 -1.40313 0
M  V30 9946 C 1007.07 1.58032 -0.297087 0
M  V30 9947 O 1008.26 1.65091 -0.555944 0
M  V30 9948 C 1005.39 3.19308 -1.19395 0
M  V30 9949 H 1006.59 1.8268 -2.3784 0
M  V30 9950 H 1004.14 0.922062 -1.26205 0
M  V30 9951 H 1004.87 3.2351 -0.226252 0
M  V30 9952 H 1004.66 3.37546 -1.99512 0
M  V30 9953 H 1006.15 3.99339 -1.22141 0
M  V30 9954 N 1006.59 1.25851 0.948643 0
M  V30 9955 C 1007.5 1.08516 2.07994 0
M  V30 9956 C 1008.51 0.0206696 1.73988 0
M  V30 9957 O 1009.69 0.222854 2.00163 0
M  V30 9958 C 1006.75 0.712145 3.39307 0
M  V30 9959 C 1005.81 1.85523 3.87143 0
M  V30 9960 C 1005.05 1.49992 5.1219 0
M  V30 9961 O 1005.27 0.398268 5.69008 0
M  V30 9962 O 1004.2 2.33215 5.54882 0
M  V30 9963 H 1008.03 2.03405 2.25522 0
M  V30 9964 H 1005.62 1.04844 1.06433 0
M  V30 9965 H 1007.5 0.516512 4.18223 0
M  V30 9966 H 1006.17 -0.207416 3.23035 0
M  V30 9967 H 1005.08 2.10578 3.09205 0
M  V30 9968 H 1006.41 2.75425 4.07924 0
M  V30 9969 N 1008.06 -1.15214 1.07534 0
M  V30 9970 C 1009.31 -1.85676 0.79805 0
M  V30 9971 C 1009.63 -1.82837 -0.677919 0
M  V30 9972 O 1008.9 -1.27059 -1.49107 0
M  V30 9973 H 1007.48 -0.687468 0.292227 0
M  V30 9974 H 1010.15 -1.39658 1.35947 0
M  V30 9975 H 1009.24 -2.9076 1.13423 0
M  V30 9976 N 1009.54 -0.859717 -1.32086 0
M  V30 9977 C 1010.77 -0.478865 -2.01796 0
M  V30 9978 C 1011.19 0.918274 -1.64163 0
M  V30 9979 O 1010.55 1.60409 -0.844896 0
M  V30 9980 C 1010.6 -0.631356 -3.5503 0
M  V30 9981 O 1009.7 0.333712 -4.11048 0
M  V30 9982 H 1009.04 -0.191775 -0.635703 0
M  V30 9983 H 1011.57 -1.16031 -1.68517 0
M  V30 9984 H 1011.58 -0.520783 -4.04663 0
M  V30 9985 H 1010.26 -1.65015 -3.81763 0
M  V30 9986 H 1008.84 0.178953 -3.7247 0
M  V30 9987 N 1011.02 1.44971 -0.618145 0
M  V30 9988 C 1011.95 2.33357 0.0815955 0
M  V30 9989 C 1012.93 1.47451 0.848072 0
M  V30 9990 O 1014.12 1.762 0.816532 0
M  V30 9991 C 1011.25 3.30324 1.07253 0
M  V30 9992 C 1010.2 4.25948 0.418563 0
M  V30 9993 C 1009.53 5.12685 1.51849 0
M  V30 9994 C 1010.83 5.18024 -0.66697 0
M  V30 9995 H 1012.52 2.92115 -0.656442 0
M  V30 9996 H 1010.07 1.40465 -0.317129 0
M  V30 9997 H 1012.02 3.91033 1.57069 0
M  V30 9998 H 1010.74 2.69748 1.8413 0
M  V30 9999 H 1009.4 3.66553 -0.0588308 0
M  V30 10000 H 1009.05 4.4847 2.2778 0
M  V30 10001 H 1008.75 5.7747 1.08637 0
M  V30 10002 H 1010.27 5.76264 2.01871 0
M  V30 10003 H 1011.69 5.72744 -0.252448 0
M  V30 10004 H 1010.09 5.91343 -1.02146 0
M  V30 10005 H 1011.16 4.59817 -1.53936 0
M  V30 10006 N 1012.5 0.357919 1.53482 0
M  V30 10007 C 1013.45 -0.50845 2.22258 0
M  V30 10008 C 1014.43 -1.05476 1.21506 0
M  V30 10009 O 1015.62 -0.986075 1.46988 0
M  V30 10010 C 1012.75 -1.65157 3.00962 0
M  V30 10011 C 1011.84 -1.11851 4.09084 0
M  V30 10012 N 1012.23 -0.307818 5.04862 0
M  V30 10013 C 1010.53 -1.39405 4.23653 0
M  V30 10014 C 1011.23 -0.016842 5.81698 0
M  V30 10015 N 1010.21 -0.612396 5.40139 0
M  V30 10016 H 1014.01 0.117836 2.93664 0
M  V30 10017 H 1011.52 0.16553 1.61554 0
M  V30 10018 H 1013.52 -2.28435 3.48745 0
M  V30 10019 H 1012.18 -2.281 2.31086 0
M  V30 10020 H 1013.19 0.0523313 5.17874 0
M  V30 10021 H 1009.87 -2.02682 3.65002 0
M  V30 10022 H 1011.26 0.638046 6.68864 0
M  V30 10023 N 1013.98 -1.5736 0.0868897 0
M  V30 10024 C 1014.94 -2.12436 -0.860439 0
M  V30 10025 C 1015.94 -1.05175 -1.21634 0
M  V30 10026 O 1017.13 -1.31098 -1.14713 0
M  V30 10027 C 1014.26 -2.63818 -2.159 0
M  V30 10028 H 1015.45 -2.97453 -0.382346 0
M  V30 10029 H 1013.01 -1.55458 -0.162009 0
M  V30 10030 H 1013.74 -1.82298 -2.68212 0
M  V30 10031 H 1013.53 -3.42234 -1.91359 0
M  V30 10032 H 1015.02 -3.06452 -2.83685 0
M  V30 10033 N 1015.45 0.186762 -1.56489 0
M  V30 10034 C 1016.42 1.21511 -1.94339 0
M  V30 10035 C 1017.42 1.38001 -0.82537 0
M  V30 10036 O 1018.61 1.3567 -1.09266 0
M  V30 10037 C 1015.74 2.583 -2.22472 0
M  V30 10038 H 1016.93 0.891371 -2.86347 0
M  V30 10039 H 1014.49 0.428612 -1.50308 0
M  V30 10040 H 1015.22 2.95715 -1.33129 0
M  V30 10041 H 1015.01 2.47701 -3.03951 0
M  V30 10042 H 1016.5 3.32441 -2.5273 0
M  V30 10043 N 1016.93 1.50896 0.454776 0
M  V30 10044 C 1018.17 1.64347 1.21529 0
M  V30 10045 C 1018.54 0.343869 1.88896 0
M  V30 10046 O 1019.74 0.353973 2.66459 0
M  V30 10047 C 1018.01 2.80199 2.21864 0
M  V30 10048 S 1019.57 3.13879 3.06636 0
M  V30 10049 H 1016.39 0.579193 0.412379 0
M  V30 10050 H 1018.99 1.88741 0.509629 0
M  V30 10051 H 1017.69 3.73086 1.70982 0
M  V30 10052 H 1017.22 2.57941 2.97036 0
M  V30 10053 H 1019.24 2.58964 4.23264 0
M  V30 10054 N 1018.41 -0.709066 1.40748 0
M  V30 10055 C 1019.69 -1.4626 1.29874 0
M  V30 10056 C 1020.07 -2.10949 -0.0799322 0
M  V30 10057 O 1019.42 -2.00651 -1.09323 0
M  V30 10058 C 1019.63 -2.49302 2.44232 0
M  V30 10059 C 1020.97 -3.14945 2.84771 0
M  V30 10060 O 1022 -2.59623 2.43873 0
M  V30 10061 O 1020.86 -4.15111 3.5545 0
M  V30 10062 H 1017.95 -0.650716 0.51039 0
M  V30 10063 H 1020.5 -0.740687 1.52682 0
M  V30 10064 H 1019.27 -2.00063 3.36289 0
M  V30 10065 H 1018.89 -3.29021 2.23229 0
M  V30 10066 N 1019.89 -1.26353 -0.941956 0
M  V30 10067 C 1021.3 -1.10774 -1.50287 0
M  V30 10068 C 1021.65 0.312229 -1.937 0
M  V30 10069 O 1020.78 1.20364 -1.79838 0
M  V30 10070 C 1021.37 -2.00473 -2.73123 0
M  V30 10071 C 1019.93 -1.89042 -3.25485 0
M  V30 10072 C 1019.08 -1.93869 -1.98267 0
M  V30 10073 H 1022.03 -1.39454 -0.757523 0
M  V30 10074 H 1022.05 -1.55216 -3.47402 0
M  V30 10075 H 1021.56 -3.03812 -2.41495 0
M  V30 10076 H 1019.66 -0.886341 -3.61904 0
M  V30 10077 H 1019.78 -2.74533 -3.92643 0
M  V30 10078 H 1018.14 -1.37912 -2.14132 0
M  V30 10079 H 1018.92 -2.98837 -1.68972 0
M  V30 10080 N 1021.37 1.14642 -1.08144 0
M  V30 10081 C 1022.78 1.37604 -0.808537 0
M  V30 10082 C 1022.98 1.92868 0.583452 0
M  V30 10083 O 1022.04 2.13964 1.34073 0
M  V30 10084 C 1023.35 2.3396 -1.889 0
M  V30 10085 C 1024.9 2.47605 -1.9147 0
M  V30 10086 C 1025.38 3.47258 -2.98623 0
M  V30 10087 N 1026.87 3.548 -2.97777 0
M  V30 10088 C 1027.6 4.31751 -3.77331 0
M  V30 10089 N 1027.1 5.11966 -4.66757 0
M  V30 10090 N 1028.89 4.2692 -3.65645 0
M  V30 10091 H 1021.04 0.771154 -1.97906 0
M  V30 10092 H 1023.3 0.401694 -0.858688 0
M  V30 10093 H 1023.01 2.00484 -2.88962 0
M  V30 10094 H 1022.88 3.33833 -1.756 0
M  V30 10095 H 1025.27 2.80375 -0.920548 0
M  V30 10096 H 1025.35 1.47702 -2.08848 0
M  V30 10097 H 1025 3.15223 -3.98243 0
M  V30 10098 H 1024.93 4.46935 -2.7849 0
M  V30 10099 H 1027.42 2.97553 -2.3296 0
M  V30 10100 H 1027.73 5.67951 -5.24072 0
M  V30 10101 H 1026.08 5.11245 -4.70801 0
M  V30 10102 H 1029.27 3.63322 -2.95152 0
M  V30 10103 H 1029.44 4.8664 -4.27885 0
M  V30 10104 N 1022.85 0.866709 1.31628 0
M  V30 10105 C 1024.07 0.48956 2.01539 0
M  V30 10106 C 1024.5 -0.909556 1.64647 0
M  V30 10107 O 1023.85 -1.59959 0.853391 0
M  V30 10108 C 1023.9 0.650176 3.5469 0
M  V30 10109 O 1023.01 -0.311908 4.11219 0
M  V30 10110 H 1022.35 0.195144 0.634677 0
M  V30 10111 H 1024.88 1.16923 1.679 0
M  V30 10112 H 1024.89 0.542236 4.04381 0
M  V30 10113 H 1023.56 1.67038 3.80882 0
M  V30 10114 H 1022.14 -0.159197 3.7256 0
M  V30 10115 N 1024.32 -1.44642 0.625825 0
M  V30 10116 C 1025.57 -2.01695 0.127948 0
M  V30 10117 C 1025.89 -1.49439 -1.25271 0
M  V30 10118 O 1025.16 -0.695873 -1.83124 0
M  V30 10119 H 1023.74 -0.745685 0.0443096 0
M  V30 10120 H 1026.4 -1.7721 0.811332 0
M  V30 10121 H 1025.5 -3.11966 0.0915933 0
M  V30 10122 N 1025.8 -0.366053 -1.5329 0
M  V30 10123 C 1026.73 0.514916 -2.23341 0
M  V30 10124 C 1027.75 1.04579 -1.24768 0
M  V30 10125 O 1028.94 0.952084 -1.50989 0
M  V30 10126 C 1026.04 1.72374 -2.91788 0
M  V30 10127 C 1025.21 1.32429 -4.16871 0
M  V30 10128 C 1024.27 2.39524 -4.68524 0
M  V30 10129 O 1023.29 2.01895 -5.32191 0
M  V30 10130 N 1024.5 3.71116 -4.46378 0
M  V30 10131 H 1027.26 -0.0851272 -2.99579 0
M  V30 10132 H 1024.82 -0.191255 -1.60766 0
M  V30 10133 H 1026.81 2.43496 -3.23252 0
M  V30 10134 H 1025.38 2.23064 -2.19 0
M  V30 10135 H 1024.6 0.442901 -3.91704 0
M  V30 10136 H 1025.89 1.03372 -4.98188 0
M  V30 10137 H 1025.29 4.04463 -3.95508 0
M  V30 10138 H 1023.85 4.38341 -4.82391 0
M  V30 10139 N 1027.28 1.57312 -0.0952337 0
M  V30 10140 C 1028.52 1.96239 0.571813 0
M  V30 10141 C 1028.88 0.97602 1.65342 0
M  V30 10142 O 1030.08 1.25379 2.37768 0
M  V30 10143 C 1028.36 3.39644 1.1125 0
M  V30 10144 S 1029.91 4.00568 1.7914 0
M  V30 10145 H 1026.73 0.686081 0.186585 0
M  V30 10146 H 1029.33 1.94718 -0.174669 0
M  V30 10147 H 1028.04 4.09199 0.313796 0
M  V30 10148 H 1027.57 3.44762 1.89481 0
M  V30 10149 H 1029.58 3.89383 3.07563 0
M  V30 10150 N 1028.76 -0.17846 1.56586 0
M  V30 10151 C 1029.98 -0.916061 1.86073 0
M  V30 10152 C 1030.41 -1.75349 0.680754 0
M  V30 10153 O 1029.77 -1.77479 -0.37028 0
M  V30 10154 C 1029.81 -1.77445 3.1392 0
M  V30 10155 O 1028.92 -2.87524 2.95641 0
M  V30 10156 H 1028.26 -0.257031 0.612234 0
M  V30 10157 H 1030.79 -0.178755 2.03818 0
M  V30 10158 H 1030.8 -2.1758 3.45142 0
M  V30 10159 H 1029.47 -1.15927 3.99417 0
M  V30 10160 H 1028.05 -2.51023 2.75757 0
M  V30 10161 N 1030.24 -1.51135 -0.446768 0
M  V30 10162 C 1031.48 -1.64989 -1.20656 0
M  V30 10163 C 1031.84 -0.353882 -1.88711 0
M  V30 10164 O 1033.04 -0.368099 -2.66268 0
M  V30 10165 C 1031.31 -2.81371 -2.20375 0
M  V30 10166 S 1032.87 -3.15501 -3.04967 0
M  V30 10167 H 1029.69 -0.581372 -0.409301 0
M  V30 10168 H 1032.29 -1.89008 -0.499613 0
M  V30 10169 H 1030.99 -3.73988 -1.69001 0
M  V30 10170 H 1030.53 -2.59512 -2.95664 0
M  V30 10171 H 1032.54 -2.61205 -4.21884 0
M  V30 10172 N 1031.71 0.701592 -1.41122 0
M  V30 10173 C 1033.13 1.01143 -1.23459 0
M  V30 10174 C 1033.33 2.01144 -0.11968 0
M  V30 10175 O 1032.39 2.47132 0.517889 0
M  V30 10176 C 1033.7 1.54179 -2.58165 0
M  V30 10177 C 1035.25 1.66093 -2.65296 0
M  V30 10178 C 1035.72 2.22532 -4.00304 0
M  V30 10179 N 1037.21 2.299 -4.0212 0
M  V30 10180 C 1037.95 2.74584 -5.0338 0
M  V30 10181 N 1037.44 3.18917 -6.15032 0
M  V30 10182 N 1039.24 2.74094 -4.90743 0
M  V30 10183 H 1031.39 0.0390087 -2.12364 0
M  V30 10184 H 1033.65 0.0798848 -0.944628 0
M  V30 10185 H 1033.36 0.881587 -3.40472 0
M  V30 10186 H 1033.23 2.52488 -2.80231 0
M  V30 10187 H 1035.62 2.31227 -1.83352 0
M  V30 10188 H 1035.7 0.663461 -2.47046 0
M  V30 10189 H 1035.34 1.58016 -4.82694 0
M  V30 10190 H 1035.27 3.2302 -4.15891 0
M  V30 10191 H 1037.76 1.98607 -3.21502 0
M  V30 10192 H 1038.08 3.5162 -6.88174 0
M  V30 10193 H 1036.42 3.1684 -6.18577 0
M  V30 10194 H 1039.61 2.38804 -4.02604 0
M  V30 10195 H 1039.79 3.086 -5.69798 0
M  V30 10196 N 1033.19 1.2685 0.935242 0
M  V30 10197 C 1034.6 1.11569 1.49697 0
M  V30 10198 C 1034.95 -0.301952 1.93863 0
M  V30 10199 O 1034.08 -1.19408 1.80473 0
M  V30 10200 C 1034.67 2.01918 2.72056 0
M  V30 10201 C 1033.23 1.90765 3.24477 0
M  V30 10202 C 1032.38 1.94918 1.97237 0
M  V30 10203 H 1035.33 1.39853 0.750116 0
M  V30 10204 H 1035.35 1.57056 3.46574 0
M  V30 10205 H 1034.86 3.05088 2.39881 0
M  V30 10206 H 1032.96 0.905521 3.61429 0
M  V30 10207 H 1033.08 2.76611 3.91182 0
M  V30 10208 H 1031.44 1.39046 2.13397 0
M  V30 10209 H 1032.22 2.99729 1.67385 0
M  V30 10210 N 1034.67 -1.14067 1.0875 0
M  V30 10211 C 1036.09 -1.37173 0.815823 0
M  V30 10212 C 1036.29 -1.93175 -0.573215 0
M  V30 10213 O 1035.34 -2.14672 -1.32937 0
M  V30 10214 C 1036.66 -2.32955 1.90138 0
M  V30 10215 C 1038.2 -2.46586 1.9278 0
M  V30 10216 C 1038.68 -3.4567 3.0046 0
M  V30 10217 N 1040.17 -3.53216 2.99655 0
M  V30 10218 C 1040.9 -4.29743 3.79616 0
M  V30 10219 N 1040.4 -5.09484 4.69466 0
M  V30 10220 N 1042.19 -4.24975 3.67903 0
M  V30 10221 H 1034.34 -0.760648 1.98313 0
M  V30 10222 H 1036.61 -0.397135 0.860807 0
M  V30 10223 H 1036.31 -1.98949 2.90021 0
M  V30 10224 H 1036.19 -3.32897 1.77368 0
M  V30 10225 H 1038.57 -2.79882 0.935404 0
M  V30 10226 H 1038.66 -1.46593 2.09629 0
M  V30 10227 H 1038.3 -3.13106 3.99909 0
M  V30 10228 H 1038.23 -4.45452 2.80856 0
M  V30 10229 H 1040.72 -2.96314 2.34535 0
M  V30 10230 H 1041.03 -5.65163 5.27077 0
M  V30 10231 H 1039.38 -5.08741 4.73506 0
M  V30 10232 H 1042.57 -3.61751 2.97075 0
M  V30 10233 H 1042.74 -4.84364 4.30459 0
M  V30 10234 N 1036.15 -0.873678 -1.31166 0
M  V30 10235 C 1037.39 -0.487178 -1.96861 0
M  V30 10236 C 1037.73 0.95887 -1.68877 0
M  V30 10237 O 1037 1.6758 -0.987279 0
M  V30 10238 C 1037.29 -0.74925 -3.52219 0
M  V30 10239 C 1037.14 -2.2451 -3.89763 0
M  V30 10240 C 1038.46 -0.218194 -4.39559 0
M  V30 10241 H 1035.58 -0.178477 -0.715063 0
M  V30 10242 H 1038.22 -1.0956 -1.55231 0
M  V30 10243 H 1036.37 -0.231403 -3.8781 0
M  V30 10244 H 1038.04 -2.83049 -3.64254 0
M  V30 10245 H 1036.28 -2.71621 -3.38237 0
M  V30 10246 H 1036.95 -2.37911 -4.98099 0
M  V30 10247 H 1039.43 -0.661274 -4.10812 0
M  V30 10248 H 1038.31 -0.430983 -5.47205 0
M  V30 10249 H 1038.57 0.880056 -4.33252 0
M  V30 10250 N 1037.63 1.44308 -0.633487 0
M  V30 10251 C 1038.85 2.06384 -0.146063 0
M  V30 10252 C 1039.27 1.47357 1.18031 0
M  V30 10253 O 1038.63 0.597334 1.72448 0
M  V30 10254 C 1038.68 3.61489 -0.0276722 0
M  V30 10255 O 1038.4 4.18318 -1.3016 0
M  V30 10256 C 1039.9 4.40604 0.488168 0
M  V30 10257 H 1037.12 0.666122 -0.0807632 0
M  V30 10258 H 1039.66 1.85139 -0.868557 0
M  V30 10259 H 1037.82 3.81988 0.645273 0
M  V30 10260 H 1038.23 5.11783 -1.14797 0
M  V30 10261 H 1039.71 5.49545 0.520013 0
M  V30 10262 H 1040.18 4.12218 1.51568 0
M  V30 10263 H 1040.79 4.2503 -0.151608 0
M  V30 10264 N 1039.1 0.374177 1.53094 0
M  V30 10265 C 1040.35 -0.212396 2.00981 0
M  V30 10266 C 1040.67 -1.48576 1.26293 0
M  V30 10267 O 1039.94 -1.92206 0.378642 0
M  V30 10268 H 1038.52 -0.0814763 0.742543 0
M  V30 10269 H 1041.19 0.502389 1.88314 0
M  V30 10270 H 1040.28 -0.433316 3.09077 0
M  V30 10271 N 1040.58 -1.57259 0.103575 0
M  V30 10272 C 1041.51 -2.17509 -0.84923 0
M  V30 10273 C 1042.49 -1.11079 -1.28824 0
M  V30 10274 O 1043.68 -1.39252 -1.35361 0
M  V30 10275 C 1040.81 -2.76221 -2.10522 0
M  V30 10276 C 1039.76 -3.88098 -1.80454 0
M  V30 10277 C 1039.09 -4.33549 -3.12952 0
M  V30 10278 C 1040.39 -5.10909 -1.08486 0
M  V30 10279 H 1042.08 -2.9738 -0.347217 0
M  V30 10280 H 1039.63 -1.43045 -0.165568 0
M  V30 10281 H 1041.58 -3.17024 -2.77621 0
M  V30 10282 H 1040.31 -1.93617 -2.63021 0
M  V30 10283 H 1038.96 -3.47847 -1.15749 0
M  V30 10284 H 1038.61 -3.47825 -3.63355 0
M  V30 10285 H 1038.31 -5.08984 -2.93614 0
M  V30 10286 H 1039.84 -4.76992 -3.81196 0
M  V30 10287 H 1041.25 -5.48828 -1.65711 0
M  V30 10288 H 1039.65 -5.91828 -0.992973 0
M  V30 10289 H 1040.72 -4.84851 -0.0690108 0
M  V30 10290 N 1042.06 0.170153 -1.56679 0
M  V30 10291 C 1043.48 0.521966 -1.50823 0
M  V30 10292 C 1043.68 1.84589 -0.808037 0
M  V30 10293 O 1042.73 2.49791 -0.368891 0
M  V30 10294 C 1044.05 0.553648 -2.95559 0
M  V30 10295 C 1045.59 0.640769 -3.06371 0
M  V30 10296 C 1046.07 0.703332 -4.52567 0
M  V30 10297 N 1047.56 0.76619 -4.56819 0
M  V30 10298 C 1048.29 0.835192 -5.67285 0
M  V30 10299 N 1047.79 0.864957 -6.87379 0
M  V30 10300 N 1049.58 0.874302 -5.55259 0
M  V30 10301 H 1041.73 -0.697952 -2.00605 0
M  V30 10302 H 1044 -0.251787 -0.913952 0
M  V30 10303 H 1043.7 -0.350498 -3.49949 0
M  V30 10304 H 1043.58 1.39973 -3.50268 0
M  V30 10305 H 1045.96 1.53534 -2.52015 0
M  V30 10306 H 1046.05 -0.232008 -2.54746 0
M  V30 10307 H 1045.69 -0.186986 -5.07556 0
M  V30 10308 H 1045.62 1.59227 -5.0195 0
M  V30 10309 H 1048.11 0.751424 -3.70354 0
M  V30 10310 H 1048.42 0.918814 -7.67318 0
M  V30 10311 H 1046.77 0.833215 -6.89987 0
M  V30 10312 H 1049.96 0.848057 -4.60354 0
M  V30 10313 H 1050.13 0.924615 -6.4137 0
M  V30 10314 N 1043.54 1.5137 0.438746 0
M  V30 10315 C 1044.78 1.65627 1.19779 0
M  V30 10316 C 1045.14 0.363885 1.8852 0
M  V30 10317 O 1046.34 0.382215 2.66069 0
M  V30 10318 C 1044.61 2.82536 2.18879 0
M  V30 10319 S 1046.17 3.17113 3.0329 0
M  V30 10320 H 1042.99 0.583535 0.406212 0
M  V30 10321 H 1045.59 1.89271 0.489582 0
M  V30 10322 H 1044.3 3.74879 1.67015 0
M  V30 10323 H 1043.83 2.61077 2.94283 0
M  V30 10324 H 1045.84 2.63439 4.20493 0
M  V30 10325 N 1045.02 -0.694098 1.41492 0
M  V30 10326 C 1046.29 -1.44875 1.31418 0
M  V30 10327 C 1046.67 -2.11022 -0.0575538 0
M  V30 10328 O 1046.02 -2.01799 -1.07188 0
M  V30 10329 C 1046.23 -2.46698 2.46863 0
M  V30 10330 C 1047.58 -3.11907 2.88095 0
M  V30 10331 O 1048.6 -2.57022 2.46613 0
M  V30 10332 O 1047.46 -4.11318 3.59833 0
M  V30 10333 H 1044.56 -0.645266 0.517263 0
M  V30 10334 H 1047.1 -0.724452 1.53459 0
M  V30 10335 H 1045.87 -1.96485 3.38392 0
M  V30 10336 H 1045.5 -3.26634 2.26706 0
M  V30 10337 N 1046.49 -1.27344 -0.928501 0
M  V30 10338 C 1047.72 -1.16447 -1.7102 0
M  V30 10339 C 1048.14 0.278799 -1.8673 0
M  V30 10340 O 1047.49 1.18989 -1.38376 0
M  V30 10341 C 1047.55 -1.84242 -3.11026 0
M  V30 10342 O 1047.27 -3.2293 -2.96054 0
M  V30 10343 C 1048.77 -1.7946 -4.05351 0
M  V30 10344 H 1045.99 -0.404898 -0.535069 0
M  V30 10345 H 1048.53 -1.68201 -1.16313 0
M  V30 10346 H 1046.69 -1.36395 -3.62595 0
M  V30 10347 H 1047.1 -3.5667 -3.8456 0
M  V30 10348 H 1048.57 -2.31511 -5.01105 0
M  V30 10349 H 1049.05 -0.763771 -4.32508 0
M  V30 10350 H 1049.66 -2.26918 -3.59706 0
M  V30 10351 N 1047.97 1.13488 -1.09353 0
M  V30 10352 C 1049.21 1.86397 -0.83877 0
M  V30 10353 C 1049.58 1.81568 0.624259 0
M  V30 10354 O 1050.78 2.49709 0.994923 0
M  V30 10355 C 1049.05 3.30583 -1.35828 0
M  V30 10356 S 1050.61 4.20995 -1.23728 0
M  V30 10357 H 1047.43 0.643022 -0.303387 0
M  V30 10358 H 1050.03 1.36788 -1.39676 0
M  V30 10359 H 1048.73 3.31652 -2.41734 0
M  V30 10360 H 1048.26 3.85255 -0.796386 0
M  V30 10361 H 1050.28 4.95845 -0.187745 0
M  V30 10362 N 1049.45 0.880621 1.30701 0
M  V30 10363 C 1050.7 0.497611 1.966 0
M  V30 10364 C 1051.03 -0.949901 1.69383 0
M  V30 10365 O 1050.31 -1.67054 0.996152 0
M  V30 10366 C 1050.59 0.767919 3.51817 0
M  V30 10367 C 1050.44 2.26574 3.88567 0
M  V30 10368 C 1051.76 0.241502 4.39437 0
M  V30 10369 H 1048.88 0.182267 0.714106 0
M  V30 10370 H 1051.52 1.10382 1.54648 0
M  V30 10371 H 1049.67 0.251967 3.87682 0
M  V30 10372 H 1051.34 2.84977 3.62748 0
M  V30 10373 H 1049.59 2.73411 3.36792 0
M  V30 10374 H 1050.26 2.40549 4.9683 0
M  V30 10375 H 1052.73 0.683051 4.10455 0
M  V30 10376 H 1051.61 0.459997 5.46969 0
M  V30 10377 H 1051.87 -0.857068 4.33713 0
M  V30 10378 N 1050.93 -1.4397 0.641131 0
M  V30 10379 C 1052.34 -1.85267 0.230838 0
M  V30 10380 C 1052.69 -1.53659 -1.21998 0
M  V30 10381 O 1051.82 -0.979572 -1.92959 0
M  V30 10382 C 1052.41 -3.36284 0.412171 0
M  V30 10383 C 1050.97 -3.76358 0.0563004 0
M  V30 10384 C 1050.12 -2.67768 0.720809 0
M  V30 10385 H 1053.07 -1.34294 0.845624 0
M  V30 10386 H 1053.09 -3.78924 -0.345936 0
M  V30 10387 H 1052.6 -3.59258 1.46818 0
M  V30 10388 H 1050.7 -3.58997 -0.997582 0
M  V30 10389 H 1050.82 -4.76756 0.473335 0
M  V30 10390 H 1049.18 -2.54227 0.155164 0
M  V30 10391 H 1049.96 -2.93573 1.77961 0
M  V30 10392 N 1052.41 -0.382291 -1.52893 0
M  V30 10393 C 1053.66 0.201734 -2.01091 0
M  V30 10394 C 1053.98 1.47905 -1.2708 0
M  V30 10395 O 1053.25 1.92002 -0.38883 0
M  V30 10396 H 1051.83 0.0775373 -0.742965 0
M  V30 10397 H 1054.49 -0.512369 -1.88045 0
M  V30 10398 H 1053.58 0.416919 -3.09303 0
M  V30 10399 N 1053.89 1.57202 -0.111913 0
M  V30 10400 C 1054.85 2.13778 0.826534 0
M  V30 10401 C 1055.85 1.07097 1.19945 0
M  V30 10402 O 1057.04 1.32906 1.12613 0
M  V30 10403 C 1054.17 2.6722 2.11675 0
M  V30 10404 H 1055.36 2.98023 0.334975 0
M  V30 10405 H 1052.92 1.55696 0.137256 0
M  V30 10406 H 1053.65 1.86542 2.65278 0
M  V30 10407 H 1053.44 3.45235 1.8589 0
M  V30 10408 H 1054.93 3.10926 2.78774 0
M  V30 10409 N 1055.36 -0.161842 1.56767 0
M  V30 10410 C 1056.59 -0.890953 1.86402 0
M  V30 10411 C 1057 -1.75918 0.696373 0
M  V30 10412 O 1056.34 -1.80461 -0.343463 0
M  V30 10413 C 1056.41 -1.81079 3.10565 0
M  V30 10414 C 1056.07 -1.12121 4.43032 0
M  V30 10415 C 1057.07 -0.482152 5.17659 0
M  V30 10416 C 1054.75 -1.11514 4.89765 0
M  V30 10417 C 1056.75 0.153772 6.37214 0
M  V30 10418 C 1054.43 -0.4754 6.09248 0
M  V30 10419 C 1055.43 0.157944 6.82817 0
M  V30 10420 O 1055.12 0.787579 8.00033 0
M  V30 10421 H 1054.85 -0.26379 0.622407 0
M  V30 10422 H 1057.41 -0.163884 2.04745 0
M  V30 10423 H 1055.64 -2.57842 2.88192 0
M  V30 10424 H 1057.32 -2.41056 3.26568 0
M  V30 10425 H 1058.09 -0.478752 4.82631 0
M  V30 10426 H 1053.97 -1.59752 4.32435 0
M  V30 10427 H 1057.51 0.648716 6.94577 0
M  V30 10428 H 1053.41 -0.476416 6.43739 0
M  V30 10429 H 1054.18 0.687769 8.15605 0
M  V30 10430 N 1056.84 -1.516 -0.430713 0
M  V30 10431 C 1057.79 -1.73975 -1.54387 0
M  V30 10432 C 1058.78 -0.606222 -1.58181 0
M  V30 10433 O 1059.99 -0.787764 -1.61846 0
M  V30 10434 H 1056.36 -0.549811 -0.513041 0
M  V30 10435 H 1058.34 -2.67274 -1.32692 0
M  V30 10436 C 1057.08 -1.88794 -2.9198 0
M  V30 10437 H 1056.41 -2.75425 -2.89795 0
M  V30 10438 H 1057.85 -2.08458 -3.69217 0
M  V30 10439 C 1056.31 -0.649427 -3.30581 0
M  V30 10440 O 1056.84 0.192823 -4.01237 0
M  V30 10441 N 1055.04 -0.491586 -2.86412 0
M  V30 10442 H 1054.59 -1.17806 -2.29084 0
M  V30 10443 H 1054.55 0.33583 -3.12601 0
M  V30 10444 N 1058.32 0.686584 -1.41858 0
M  V30 10445 C 1059.57 1.44665 -1.41698 0
M  V30 10446 C 1059.89 1.94478 -0.0292442 0
M  V30 10447 O 1059.15 1.70512 0.960421 0
M  V30 10448 C 1059.45 2.66793 -2.37816 0
M  V30 10449 C 1059.11 2.35587 -3.8446 0
M  V30 10450 C 1057.78 2.26788 -4.24406 0
M  V30 10451 C 1060.13 2.10028 -4.77009 0
M  V30 10452 C 1057.46 1.90538 -5.54898 0
M  V30 10453 C 1059.81 1.75285 -6.07831 0
M  V30 10454 C 1058.47 1.64987 -6.46789 0
M  V30 10455 H 1057.74 0.529367 -0.518509 0
M  V30 10456 H 1060.39 0.783938 -1.74719 0
M  V30 10457 H 1058.69 3.38041 -1.9808 0
M  V30 10458 H 1060.39 3.24953 -2.34961 0
M  V30 10459 H 1056.98 2.43334 -3.52826 0
M  V30 10460 H 1061.17 2.15766 -4.46944 0
M  V30 10461 H 1056.42 1.81125 -5.83955 0
M  V30 10462 H 1060.6 1.5453 -6.79039 0
M  V30 10463 H 1058.22 1.36667 -7.47814 0
M  V30 10464 N 1059.8 1.27835 0.921735 0
M  V30 10465 C 1061.21 1.13151 1.48505 0
M  V30 10466 C 1061.56 -0.281373 1.94172 0
M  V30 10467 O 1060.68 -1.17487 1.8173 0
M  V30 10468 C 1061.28 2.04792 2.69899 0
M  V30 10469 C 1059.84 1.94196 3.22436 0
M  V30 10470 C 1058.99 1.96999 1.95158 0
M  V30 10471 H 1061.94 1.40641 0.735241 0
M  V30 10472 H 1061.96 1.60724 3.44889 0
M  V30 10473 H 1061.47 3.07615 2.36631 0
M  V30 10474 H 1059.57 0.943805 3.60448 0
M  V30 10475 H 1059.68 2.80744 3.88226 0
M  V30 10476 H 1058.05 1.41301 2.11911 0
M  V30 10477 H 1058.83 3.01487 1.64196 0
M  V30 10478 N 1061.28 -1.12907 1.09954 0
M  V30 10479 C 1062.51 -1.87866 0.859656 0
M  V30 10480 C 1062.91 -1.79664 -0.593096 0
M  V30 10481 O 1062.26 -1.16499 -1.42034 0
M  V30 10482 C 1062.32 -3.38055 1.22308 0
M  V30 10483 C 1061.98 -3.70035 2.68185 0
M  V30 10484 C 1062.98 -3.68817 3.66428 0
M  V30 10485 C 1060.66 -3.99523 3.04444 0
M  V30 10486 C 1062.66 -3.96639 4.98955 0
M  V30 10487 C 1060.35 -4.27006 4.37161 0
M  V30 10488 C 1061.34 -4.25549 5.34225 0
M  V30 10489 O 1061.03 -4.52354 6.64553 0
M  V30 10490 H 1060.76 -0.601425 0.308649 0
M  V30 10491 H 1063.32 -1.43817 1.46649 0
M  V30 10492 H 1061.55 -3.82634 0.559322 0
M  V30 10493 H 1063.24 -3.94348 0.961479 0
M  V30 10494 H 1064 -3.46104 3.3976 0
M  V30 10495 H 1059.88 -3.99801 2.29521 0
M  V30 10496 H 1063.43 -3.95418 5.74709 0
M  V30 10497 H 1059.32 -4.49192 4.6357 0
M  V30 10498 H 1060.09 -4.69997 6.70108 0
M  V30 10499 N 1062.75 -0.88754 -1.30232 0
M  V30 10500 C 1063.99 -0.514017 -1.97831 0
M  V30 10501 C 1064.36 0.920151 -1.68515 0
M  V30 10502 O 1065.56 1.39993 -2.29468 0
M  V30 10503 C 1063.83 -0.784155 -3.48692 0
M  V30 10504 S 1065.39 -0.513119 -4.3579 0
M  V30 10505 H 1062.21 -0.191157 -0.684821 0
M  V30 10506 H 1064.81 -1.14736 -1.58291 0
M  V30 10507 H 1063.51 -1.82639 -3.6752 0
M  V30 10508 H 1063.04 -0.138468 -3.93156 0
M  V30 10509 H 1065.06 0.647155 -4.91962 0
M  V30 10510 N 1064.23 1.43628 -0.648757 0
M  V30 10511 C 1065.14 2.34554 0.0463037 0
M  V30 10512 C 1066.16 1.53629 0.816952 0
M  V30 10513 O 1067.33 1.86297 0.765212 0
M  V30 10514 C 1064.4 3.3185 1.00381 0
M  V30 10515 C 1063.46 4.2868 0.230589 0
M  V30 10516 C 1062.69 5.21328 1.14249 0
M  V30 10517 O 1062.92 5.18298 2.38166 0
M  V30 10518 O 1061.85 5.98726 0.617296 0
M  V30 10519 H 1065.68 2.95475 -0.702008 0
M  V30 10520 H 1063.26 1.43694 -0.408942 0
M  V30 10521 H 1065.14 3.91692 1.5542 0
M  V30 10522 H 1063.82 2.73439 1.73243 0
M  V30 10523 H 1062.73 3.72332 -0.363282 0
M  V30 10524 H 1064.06 4.90061 -0.458368 0
M  V30 10525 N 1065.71 0.390394 1.52688 0
M  V30 10526 C 1066.67 -0.432149 2.25089 0
M  V30 10527 C 1067.67 -0.989296 1.26766 0
M  V30 10528 O 1068.86 -0.871126 1.50854 0
M  V30 10529 C 1066 -1.60642 3.00678 0
M  V30 10530 H 1067.19 0.201734 2.99221 0
M  V30 10531 H 1064.74 0.142531 1.55649 0
M  V30 10532 H 1065.48 -2.2777 2.3085 0
M  V30 10533 H 1065.26 -1.21361 3.72846 0
M  V30 10534 H 1066.75 -2.18873 3.55647 0
M  V30 10535 N 1067.19 -1.57141 0.120249 0
M  V30 10536 C 1068.44 -1.94852 -0.536387 0
M  V30 10537 C 1068.76 -1.00452 -1.67136 0
M  V30 10538 O 1068.03 -0.061053 -1.95805 0
M  V30 10539 H 1066.61 -0.719411 -0.201138 0
M  V30 10540 H 1069.27 -1.93977 0.189482 0
M  V30 10541 H 1068.37 -2.97917 -0.930145 0
M  V30 10542 N 1068.67 0.153526 -1.5685 0
M  V30 10543 C 1069.89 0.886343 -1.87507 0
M  V30 10544 C 1070.32 1.74244 -0.708565 0
M  V30 10545 O 1069.67 1.78045 0.341997 0
M  V30 10546 C 1069.72 1.72428 -3.16703 0
M  V30 10547 O 1068.83 2.82784 -3.00178 0
M  V30 10548 H 1068.17 0.247259 -0.616246 0
M  V30 10549 H 1070.7 0.146306 -2.04076 0
M  V30 10550 H 1070.71 2.12062 -3.4856 0
M  V30 10551 H 1069.38 1.09558 -4.01211 0
M  V30 10552 H 1067.96 2.46604 -2.79716 0
M  V30 10553 N 1070.14 1.51827 0.422667 0
M  V30 10554 C 1071.38 1.66888 1.18016 0
M  V30 10555 C 1071.75 0.383859 1.88124 0
M  V30 10556 O 1072.95 0.410413 2.65648 0
M  V30 10557 C 1071.22 2.84842 2.1587 0
M  V30 10558 S 1072.78 3.20312 2.99909 0
M  V30 10559 H 1069.6 0.58781 0.4 0
M  V30 10560 H 1072.2 1.89779 0.46948 0
M  V30 10561 H 1070.9 3.76629 1.63029 0
M  V30 10562 H 1070.43 2.64183 2.91497 0
M  V30 10563 H 1072.45 2.67884 4.17675 0
M  V30 10564 N 1071.62 -0.679052 1.4222 0
M  V30 10565 C 1072.57 -1.78522 1.41824 0
M  V30 10566 C 1073.56 -1.58262 0.290179 0
M  V30 10567 O 1074.75 -1.68813 0.532092 0
M  V30 10568 C 1071.88 -3.16952 1.31895 0
M  V30 10569 C 1070.96 -3.42849 2.4963 0
M  V30 10570 N 1071.35 -3.39354 3.75063 0
M  V30 10571 C 1069.65 -3.73468 2.43799 0
M  V30 10572 C 1070.35 -3.64617 4.53243 0
M  V30 10573 N 1069.33 -3.85174 3.83591 0
M  V30 10574 H 1073.13 -1.74206 2.36705 0
M  V30 10575 H 1070.65 -0.879719 1.36509 0
M  V30 10576 H 1072.64 -3.96214 1.29693 0
M  V30 10577 H 1071.3 -3.22467 0.380127 0
M  V30 10578 H 1072.31 -3.19354 4.07718 0
M  V30 10579 H 1068.99 -3.86254 1.58474 0
M  V30 10580 H 1070.38 -3.67912 5.62219 0
M  V30 10581 N 1073.1 -1.28322 -0.914942 0
M  V30 10582 C 1074.51 -1.13937 -1.47903 0
M  V30 10583 C 1074.86 0.271072 -1.94318 0
M  V30 10584 O 1073.99 1.16522 -1.8235 0
M  V30 10585 C 1074.58 -2.06221 -2.68809 0
M  V30 10586 C 1073.14 -1.95903 -3.21402 0
M  V30 10587 C 1072.29 -1.98031 -1.94111 0
M  V30 10588 H 1075.24 -1.41029 -0.727772 0
M  V30 10589 H 1075.26 -1.6255 -3.44031 0
M  V30 10590 H 1074.77 -3.08866 -2.34997 0
M  V30 10591 H 1072.87 -0.962907 -3.59943 0
M  V30 10592 H 1072.99 -2.82799 -3.86732 0
M  V30 10593 H 1071.35 -1.42423 -2.11158 0
M  V30 10594 H 1072.13 -3.02354 -1.62595 0
M  V30 10595 N 1074.58 1.12322 -1.10551 0
M  V30 10596 C 1075.54 2.16273 -0.758844 0
M  V30 10597 C 1076.54 1.59325 0.217294 0
M  V30 10598 O 1077.73 1.74199 -0.00601346 0
M  V30 10599 C 1074.86 3.40674 -0.124238 0
M  V30 10600 H 1076.06 2.48454 -1.6796 0
M  V30 10601 H 1073.61 1.2735 -0.906188 0
M  V30 10602 H 1074.34 3.14094 0.807194 0
M  V30 10603 H 1074.13 3.83284 -0.826772 0
M  V30 10604 H 1075.62 4.17474 0.102502 0
M  V30 10605 N 1076.06 0.894434 1.2976 0
M  V30 10606 C 1077.3 0.516646 1.95385 0
M  V30 10607 C 1077.63 -0.939141 1.70895 0
M  V30 10608 O 1076.9 -1.66153 1.03778 0
M  V30 10609 H 1075.48 0.188072 0.722937 0
M  V30 10610 H 1078.14 1.13958 1.58113 0
M  V30 10611 H 1077.23 0.694819 3.04267 0
M  V30 10612 N 1077.53 -1.43282 0.656365 0
M  V30 10613 C 1078.46 -2.33492 -0.0196962 0
M  V30 10614 C 1079.45 -1.49647 -0.80868 0
M  V30 10615 O 1080.63 -1.78303 -0.769529 0
M  V30 10616 C 1077.76 -3.33052 -0.984574 0
M  V30 10617 C 1076.71 -4.26908 -0.305483 0
M  V30 10618 C 1076.04 -5.16531 -1.38202 0
M  V30 10619 C 1077.34 -5.16073 0.804081 0
M  V30 10620 H 1079.03 -2.90272 0.733661 0
M  V30 10621 H 1076.58 -1.39574 0.354259 0
M  V30 10622 H 1078.53 -3.9506 -1.46647 0
M  V30 10623 H 1077.26 -2.74535 -1.76913 0
M  V30 10624 H 1075.92 -3.66268 0.155995 0
M  V30 10625 H 1075.56 -4.54351 -2.1581 0
M  V30 10626 H 1075.26 -5.80148 -0.932878 0
M  V30 10627 H 1076.79 -5.81414 -1.86522 0
M  V30 10628 H 1078.2 -5.71873 0.404212 0
M  V30 10629 H 1076.6 -5.88427 1.17789 0
M  V30 10630 H 1077.67 -4.55574 1.66073 0
M  V30 10631 N 1079.01 -0.398486 -1.52479 0
M  V30 10632 C 1079.98 0.420206 -2.25315 0
M  V30 10633 C 1080.98 0.982559 -1.27289 0
M  V30 10634 O 1082.17 0.863113 -1.51314 0
M  V30 10635 C 1079.3 1.59045 -3.01525 0
M  V30 10636 H 1080.49 -0.217599 -2.9911 0
M  V30 10637 H 1078.04 -0.150784 -1.55571 0
M  V30 10638 H 1078.78 2.26542 -2.32054 0
M  V30 10639 H 1078.56 1.19382 -3.73484 0
M  V30 10640 H 1080.05 2.16984 -3.56802 0
M  V30 10641 N 1080.49 1.57075 -0.12858 0
M  V30 10642 C 1081.9 1.82468 0.39526 0
M  V30 10643 C 1082.25 1.0463 1.65973 0
M  V30 10644 O 1081.38 0.285835 2.14504 0
M  V30 10645 C 1081.97 3.30976 0.723889 0
M  V30 10646 C 1080.53 3.57016 1.19232 0
M  V30 10647 C 1079.68 2.76534 0.205907 0
M  V30 10648 H 1082.63 1.54711 -0.353571 0
M  V30 10649 H 1082.65 3.46127 1.58039 0
M  V30 10650 H 1082.16 3.87602 -0.196595 0
M  V30 10651 H 1080.26 3.05758 2.12938 0
M  V30 10652 H 1080.38 4.65558 1.13103 0
M  V30 10653 H 1078.74 2.45038 0.694872 0
M  V30 10654 H 1079.52 3.35923 -0.707842 0
M  V30 10655 N 1081.97 -0.145205 1.5693 0
M  V30 10656 C 1083.22 -0.858786 1.83719 0
M  V30 10657 C 1083.55 -1.80738 0.710452 0
M  V30 10658 O 1082.82 -1.92389 -0.285791 0
M  V30 10659 C 1083.11 -1.6317 3.2101 0
M  V30 10660 C 1082.96 -0.704472 4.44249 0
M  V30 10661 C 1084.28 -2.59377 3.55544 0
M  V30 10662 H 1081.4 -0.310757 0.66828 0
M  V30 10663 H 1084.04 -0.123918 1.89595 0
M  V30 10664 H 1082.19 -2.25816 3.16132 0
M  V30 10665 H 1083.86 -0.08887 4.61214 0
M  V30 10666 H 1082.1 -0.0141693 4.33798 0
M  V30 10667 H 1082.78 -1.28135 5.36922 0
M  V30 10668 H 1085.25 -2.06848 3.61044 0
M  V30 10669 H 1084.13 -3.10506 4.52634 0
M  V30 10670 H 1084.39 -3.40819 2.81594 0
M  V30 10671 N 1083.45 -1.52049 -0.414609 0
M  V30 10672 C 1084.72 -1.56397 -1.17471 0
M  V30 10673 C 1085.1 -0.34171 -2.08316 0
M  V30 10674 O 1084.45 0.6718 -2.18401 0
M  V30 10675 C 1084.66 -2.88983 -1.95678 0
M  V30 10676 C 1086.01 -3.41781 -2.51935 0
M  V30 10677 O 1087.03 -2.90686 -2.05865 0
M  V30 10678 O 1085.89 -4.30989 -3.36022 0
M  V30 10679 H 1082.99 -0.62974 -0.536056 0
M  V30 10680 H 1085.53 -1.64374 -0.421834 0
M  V30 10681 H 1084.31 -3.69392 -1.29094 0
M  V30 10682 H 1083.93 -2.84274 -2.77983 0
M  V30 10683 N 1084.93 0.6715 -1.42579 0
M  V30 10684 C 1086.34 1.2522 -1.38481 0
M  V30 10685 C 1086.69 1.96038 -0.079719 0
M  V30 10686 O 1085.81 2.00203 0.821441 0
M  V30 10687 C 1086.41 2.27736 -2.50842 0
M  V30 10688 C 1084.97 2.81325 -2.50067 0
M  V30 10689 C 1084.11 1.55694 -2.29466 0
M  V30 10690 H 1087.06 0.464673 -1.51745 0
M  V30 10691 H 1087.09 3.09539 -2.21283 0
M  V30 10692 H 1086.6 1.76164 -3.45815 0
M  V30 10693 H 1084.7 3.37008 -1.58922 0
M  V30 10694 H 1084.81 3.30116 -3.47218 0
M  V30 10695 H 1083.18 1.82383 -1.77788 0
M  V30 10696 H 1083.96 1.06084 -3.26498 0
M  V30 10697 N 1086.4 1.28806 0.908124 0
M  V30 10698 C 1087.37 1.13228 1.99279 0
M  V30 10699 C 1088.37 0.0702456 1.60646 0
M  V30 10700 O 1089.56 0.316494 1.71301 0
M  V30 10701 C 1086.69 0.729629 3.33 0
M  V30 10702 H 1087.88 2.09566 2.14528 0
M  V30 10703 H 1085.43 1.11872 1.09153 0
M  V30 10704 H 1086.17 -0.234268 3.23453 0
M  V30 10705 H 1085.95 1.49688 3.62403 0
M  V30 10706 H 1087.44 0.643449 4.12613 0
M  V30 10707 N 1087.88 -1.11734 1.11145 0
M  V30 10708 C 1088.81 -2.1976 0.789152 0
M  V30 10709 C 1089.79 -1.68382 -0.241143 0
M  V30 10710 O 1090.98 -1.93914 -0.105292 0
M  V30 10711 C 1088.11 -3.46549 0.228204 0
M  V30 10712 C 1087.06 -4.11123 1.19002 0
M  V30 10713 C 1086.39 -5.32451 0.489928 0
M  V30 10714 C 1087.69 -4.56406 2.53951 0
M  V30 10715 H 1089.38 -2.46978 1.69241 0
M  V30 10716 H 1086.93 -1.18705 0.81517 0
M  V30 10717 H 1088.88 -4.21399 -0.00945908 0
M  V30 10718 H 1087.6 -3.18782 -0.71033 0
M  V30 10719 H 1086.26 -3.38264 1.41326 0
M  V30 10720 H 1085.91 -5.00953 -0.453315 0
M  V30 10721 H 1085.61 -5.76605 1.1314 0
M  V30 10722 H 1087.14 -6.10042 0.260984 0
M  V30 10723 H 1088.55 -5.22592 2.35733 0
M  V30 10724 H 1086.95 -5.11363 3.14051 0
M  V30 10725 H 1088.02 -3.7001 3.13402 0
M  V30 10726 N 1089.36 -0.901303 -1.29284 0
M  V30 10727 C 1090.77 -0.576317 -1.77582 0
M  V30 10728 C 1091.12 0.908078 -1.73921 0
M  V30 10729 O 1090.25 1.71006 -1.32611 0
M  V30 10730 C 1090.84 -1.03938 -3.22463 0
M  V30 10731 C 1089.4 -0.765533 -3.68533 0
M  V30 10732 C 1088.55 -1.21318 -2.49354 0
M  V30 10733 H 1091.5 -1.08386 -1.15923 0
M  V30 10734 H 1091.52 -0.375367 -3.78644 0
M  V30 10735 H 1091.03 -2.11977 -3.25096 0
M  V30 10736 H 1089.13 0.302176 -3.71373 0
M  V30 10737 H 1089.25 -1.36454 -4.59257 0
M  V30 10738 H 1087.61 -0.632141 -2.46731 0
M  V30 10739 H 1088.39 -2.30165 -2.54714 0
M  V30 10740 N 1090.84 1.42931 -0.663954 0
M  V30 10741 C 1091.75 2.3459 0.0214234 0
M  V30 10742 C 1092.76 1.54487 0.800611 0
M  V30 10743 O 1093.94 1.87098 0.74541 0
M  V30 10744 C 1091 3.32896 0.968556 0
M  V30 10745 C 1090.07 4.28901 0.185108 0
M  V30 10746 C 1089.3 5.2251 1.08713 0
M  V30 10747 O 1089.52 5.20795 2.32655 0
M  V30 10748 O 1088.46 5.99347 0.553758 0
M  V30 10749 H 1092.28 2.94714 -0.733308 0
M  V30 10750 H 1089.87 1.43252 -0.424159 0
M  V30 10751 H 1091.75 3.93318 1.51257 0
M  V30 10752 H 1090.42 2.75261 1.70333 0
M  V30 10753 H 1089.33 3.71926 -0.402752 0
M  V30 10754 H 1090.66 4.89547 -0.510319 0
M  V30 10755 N 1092.32 0.406567 1.52266 0
M  V30 10756 C 1093.28 -0.408251 2.25535 0
M  V30 10757 C 1094.28 -0.975795 1.27808 0
M  V30 10758 O 1095.47 -0.855077 1.5177 0
M  V30 10759 C 1092.6 -1.57443 3.02365 0
M  V30 10760 H 1093.79 0.233459 2.9899 0
M  V30 10761 H 1091.35 0.159032 1.55489 0
M  V30 10762 H 1092.08 -2.25308 2.33252 0
M  V30 10763 H 1091.87 -1.17399 3.74112 0
M  V30 10764 H 1093.36 -2.15088 3.57948 0
M  V30 10765 N 1093.79 -1.57004 0.136909 0
M  V30 10766 C 1094.73 -2.13355 -0.837405 0
M  V30 10767 C 1095.74 -1.08053 -1.21772 0
M  V30 10768 O 1096.93 -1.35365 -1.16355 0
M  V30 10769 C 1094.03 -2.63302 -2.13366 0
M  V30 10770 C 1093.2 -3.92896 -1.92228 0
M  V30 10771 C 1092.26 -4.28257 -3.05749 0
M  V30 10772 O 1091.29 -4.96761 -2.7788 0
M  V30 10773 N 1092.49 -3.87021 -4.3266 0
M  V30 10774 H 1095.25 -2.9758 -0.35586 0
M  V30 10775 H 1092.81 -1.61832 -0.0469758 0
M  V30 10776 H 1094.81 -2.83977 -2.88339 0
M  V30 10777 H 1093.38 -1.83858 -2.52814 0
M  V30 10778 H 1092.6 -3.80949 -1.01349 0
M  V30 10779 H 1093.88 -4.776 -1.75431 0
M  V30 10780 H 1093.28 -3.31804 -4.58173 0
M  V30 10781 H 1091.84 -4.12768 -5.04446 0
M  V30 10782 N 1095.27 0.136881 -1.57004 0
M  V30 10783 C 1096.52 0.849031 -1.84172 0
M  V30 10784 C 1096.85 1.80359 -0.720027 0
M  V30 10785 O 1096.13 1.92538 0.275584 0
M  V30 10786 C 1096.41 1.61465 -3.21871 0
M  V30 10787 C 1096.26 0.680902 -4.44616 0
M  V30 10788 C 1097.58 2.57488 -3.56914 0
M  V30 10789 H 1094.7 0.307209 -0.669919 0
M  V30 10790 H 1097.34 0.113862 -1.89659 0
M  V30 10791 H 1095.49 2.24137 -3.17325 0
M  V30 10792 H 1097.16 0.0644094 -4.61255 0
M  V30 10793 H 1095.41 -0.00883629 -4.33799 0
M  V30 10794 H 1096.08 1.25286 -5.37594 0
M  V30 10795 H 1098.55 2.0493 -3.62136 0
M  V30 10796 H 1097.43 3.08101 -4.54274 0
M  V30 10797 H 1097.69 3.39321 -2.83397 0
M  V30 10798 N 1096.75 1.52266 0.40654 0
M  V30 10799 C 1098.16 1.58587 0.985241 0
M  V30 10800 C 1098.51 0.427955 1.91476 0
M  V30 10801 O 1097.64 -0.451341 2.11641 0
M  V30 10802 C 1098.23 2.87426 1.79365 0
M  V30 10803 C 1096.79 2.96217 2.32233 0
M  V30 10804 C 1095.94 2.53548 1.12288 0
M  V30 10805 H 1098.89 1.57598 0.186685 0
M  V30 10806 H 1098.91 2.72925 2.65127 0
M  V30 10807 H 1098.42 3.71682 1.11687 0
M  V30 10808 H 1096.52 2.1646 3.03275 0
M  V30 10809 H 1096.64 4.00511 2.62922 0
M  V30 10810 H 1095 2.07457 1.47763 0
M  V30 10811 H 1095.78 3.40181 0.461731 0
M  V30 10812 N 1098.23 -0.663929 1.42933 0
M  V30 10813 C 1099.47 -1.43583 1.45476 0
M  V30 10814 C 1099.83 -1.91862 0.0728387 0
M  V30 10815 O 1101.03 -2.68786 -0.0270249 0
M  V30 10816 C 1099.3 -2.59316 2.45947 0
M  V30 10817 S 1100.86 -3.48004 2.6728 0
M  V30 10818 H 1097.68 -0.490261 0.514942 0
M  V30 10819 H 1100.28 -0.771834 1.79619 0
M  V30 10820 H 1098.99 -2.22104 3.45106 0
M  V30 10821 H 1098.52 -3.30577 2.13266 0
M  V30 10822 H 1100.53 -4.55677 1.96399 0
M  V30 10823 N 1099.71 -1.29285 -0.901281 0
M  V30 10824 C 1100.64 -1.08603 -2.007 0
M  V30 10825 C 1101.62 0.00162233 -1.626 0
M  V30 10826 O 1102.8 -0.148764 -1.87912 0
M  V30 10827 C 1099.93 -0.652972 -3.32346 0
M  V30 10828 C 1098.97 -1.73911 -3.89432 0
M  V30 10829 S 1099.81 -3.33797 -4.18736 0
M  V30 10830 C 1100.96 -2.92355 -5.53425 0
M  V30 10831 H 1101.2 -2.02216 -2.17936 0
M  V30 10832 H 1098.73 -1.13414 -1.04769 0
M  V30 10833 H 1100.69 -0.409825 -4.08449 0
M  V30 10834 H 1099.35 0.263527 -3.12993 0
M  V30 10835 H 1098.54 -1.388 -4.84511 0
M  V30 10836 H 1098.14 -1.93569 -3.20011 0
M  V30 10837 H 1100.44 -2.39301 -6.33831 0
M  V30 10838 H 1101.38 -3.86278 -5.9346 0
M  V30 10839 H 1101.79 -2.30697 -5.15208 0
M  V30 10840 N 1101.18 1.11143 -1.11736 0
M  V30 10841 C 1102.42 1.84576 -0.878119 0
M  V30 10842 C 1102.79 1.82851 0.585605 0
M  V30 10843 O 1103.99 2.51763 0.941732 0
M  V30 10844 C 1102.26 3.27628 -1.4281 0
M  V30 10845 S 1103.82 4.18276 -1.3263 0
M  V30 10846 H 1100.64 0.636442 -0.316958 0
M  V30 10847 H 1103.24 1.33794 -1.42546 0
M  V30 10848 H 1101.94 3.2645 -2.48714 0
M  V30 10849 H 1101.47 3.83479 -0.877925 0
M  V30 10850 H 1103.49 4.95335 -0.292878 0
M  V30 10851 N 1102.66 0.908147 1.28804 0
M  V30 10852 C 1104.08 0.605474 1.47669 0
M  V30 10853 C 1104.28 -0.850759 1.82659 0
M  V30 10854 O 1103.33 -1.63029 1.92816 0
M  V30 10855 C 1104.65 1.53856 2.58358 0
M  V30 10856 C 1106.2 1.54467 2.7223 0
M  V30 10857 C 1106.67 2.46424 3.86056 0
M  V30 10858 N 1108.16 2.44519 3.93402 0
M  V30 10859 C 1108.9 3.12371 4.80845 0
M  V30 10860 N 1108.39 3.89533 5.72919 0
M  V30 10861 N 1110.19 3.01486 4.74407 0
M  V30 10862 H 1102.34 1.84988 1.04371 0
M  V30 10863 H 1104.6 0.793132 0.519274 0
M  V30 10864 H 1104.31 2.57651 2.39393 0
M  V30 10865 H 1104.18 1.26543 3.5534 0
M  V30 10866 H 1106.57 0.514127 2.90587 0
M  V30 10867 H 1106.65 1.85821 1.75796 0
M  V30 10868 H 1106.29 3.49577 3.68454 0
M  V30 10869 H 1106.22 2.12375 4.81876 0
M  V30 10870 H 1108.71 1.88464 3.27551 0
M  V30 10871 H 1109.03 4.3834 6.36457 0
M  V30 10872 H 1107.37 3.93639 5.72777 0
M  V30 10873 H 1110.56 2.40713 4.01466 0
M  V30 10874 H 1110.73 3.5464 5.42342 0
M  V30 10875 N 1104.14 -1.42577 0.671525 0
M  V30 10876 C 1105.1 -2.292 0.000392482 0
M  V30 10877 C 1106.1 -1.43158 -0.732294 0
M  V30 10878 O 1107.29 -1.64583 -0.570789 0
M  V30 10879 C 1104.43 -3.25591 -1.01013 0
M  V30 10880 H 1105.62 -2.90037 0.762783 0
M  V30 10881 H 1103.17 -1.50162 0.433703 0
M  V30 10882 H 1103.91 -2.69685 -1.80112 0
M  V30 10883 H 1103.69 -3.89049 -0.488183 0
M  V30 10884 H 1105.18 -3.90561 -1.47824 0
M  V30 10885 N 1105.62 -0.414636 -1.52048 0
M  V30 10886 C 1106.57 0.42561 -2.23992 0
M  V30 10887 C 1107.55 1.00894 -1.25337 0
M  V30 10888 O 1108.74 0.930842 -1.50547 0
M  V30 10889 C 1105.87 1.53874 -3.06884 0
M  V30 10890 C 1104.96 0.965913 -4.12954 0
M  V30 10891 N 1105.35 0.12023 -5.05657 0
M  V30 10892 C 1103.65 1.23586 -4.28535 0
M  V30 10893 C 1104.35 -0.199063 -5.81359 0
M  V30 10894 N 1103.33 0.411505 -5.4204 0
M  V30 10895 H 1107.13 -0.226746 -2.93024 0
M  V30 10896 H 1104.64 -0.225376 -1.60829 0
M  V30 10897 H 1106.64 2.15334 -3.56983 0
M  V30 10898 H 1105.3 2.19366 -2.39392 0
M  V30 10899 H 1106.31 -0.244501 -5.17323 0
M  V30 10900 H 1102.99 1.88995 -3.72273 0
M  V30 10901 H 1104.38 -0.88585 -6.66035 0
M  V30 10902 N 1107.1 1.56929 -0.145233 0
M  V30 10903 C 1108.34 1.96358 0.50707 0
M  V30 10904 C 1108.68 1.03005 1.64632 0
M  V30 10905 O 1107.95 0.0721045 1.94366 0
M  V30 10906 C 1108.23 3.45502 1.01492 0
M  V30 10907 C 1108.09 4.49633 -0.122708 0
M  V30 10908 C 1109.41 3.97103 1.89729 0
M  V30 10909 H 1106.52 0.713958 0.182848 0
M  V30 10910 H 1109.17 1.8865 -0.226102 0
M  V30 10911 H 1107.32 3.52202 1.6397 0
M  V30 10912 H 1108.99 4.55013 -0.758988 0
M  V30 10913 H 1107.23 4.26691 -0.782109 0
M  V30 10914 H 1107.9 5.51318 0.27432 0
M  V30 10915 H 1110.38 3.92871 1.37082 0
M  V30 10916 H 1109.25 5.01927 2.22173 0
M  V30 10917 H 1109.52 3.39354 2.83357 0
M  V30 10918 N 1108.58 -0.128553 1.57075 0
M  V30 10919 C 1109.49 -1.17718 2.02927 0
M  V30 10920 C 1110.5 -1.45912 0.947932 0
M  V30 10921 O 1111.68 -1.57217 1.25876 0
M  V30 10922 C 1108.74 -2.48625 2.41633 0
M  V30 10923 C 1107.8 -2.27914 3.63804 0
M  V30 10924 C 1107.04 -3.52579 4.00654 0
M  V30 10925 O 1107.26 -4.59505 3.37952 0
M  V30 10926 O 1106.19 -3.44147 4.93808 0
M  V30 10927 H 1110.02 -0.817846 2.92481 0
M  V30 10928 H 1107.6 -0.338649 1.45511 0
M  V30 10929 H 1109.49 -3.2577 2.67305 0
M  V30 10930 H 1108.16 -2.84052 1.55229 0
M  V30 10931 H 1107.07 -1.4866 3.43294 0
M  V30 10932 H 1108.4 -1.97395 4.50883 0
M  V30 10933 N 1110.05 -1.5248 -0.398459 0
M  V30 10934 C 1111.3 -1.66731 -1.14215 0
M  V30 10935 C 1111.62 -0.404957 -1.90749 0
M  V30 10936 O 1110.89 0.580434 -1.87104 0
M  V30 10937 H 1109.47 -0.614577 -0.424622 0
M  V30 10938 H 1112.13 -1.89561 -0.453059 0
M  V30 10939 H 1111.23 -2.51336 -1.85031 0
M  V30 10940 N 1111.53 0.65634 -1.43283 0
M  V30 10941 C 1112.94 1.23744 -1.39801 0
M  V30 10942 C 1113.29 1.95942 -0.100507 0
M  V30 10943 O 1112.42 2.01063 0.800161 0
M  V30 10944 C 1113.01 2.25062 -2.53244 0
M  V30 10945 C 1111.57 2.78657 -2.53036 0
M  V30 10946 C 1110.72 1.53251 -2.31105 0
M  V30 10947 H 1113.67 0.448553 -1.52229 0
M  V30 10948 H 1113.69 3.07174 -2.24553 0
M  V30 10949 H 1113.2 1.72487 -3.47664 0
M  V30 10950 H 1111.3 3.35304 -1.62487 0
M  V30 10951 H 1111.42 3.26414 -3.507 0
M  V30 10952 H 1109.78 1.80487 -1.79713 0
M  V30 10953 H 1110.56 1.02615 -3.27605 0
M  V30 10954 N 1113.01 1.29761 0.894412 0
M  V30 10955 C 1114.23 1.21064 1.68399 0
M  V30 10956 C 1114.66 -0.224608 1.86754 0
M  V30 10957 O 1114.02 -1.16199 1.39167 0
M  V30 10958 C 1114.07 1.93468 3.04306 0
M  V30 10959 O 1113.17 1.25533 3.9283 0
M  V30 10960 H 1112.51 0.419223 0.514925 0
M  V30 10961 H 1115.04 1.71421 1.11696 0
M  V30 10962 H 1115.05 2.02127 3.54413 0
M  V30 10963 H 1113.73 2.97857 2.90265 0
M  V30 10964 H 1112.3 1.25168 3.51266 0
M  V30 10965 N 1114.49 -1.10549 1.12324 0
M  V30 10966 C 1115.73 -1.84108 0.887895 0
M  V30 10967 C 1116.09 -1.83159 -0.5759 0
M  V30 10968 O 1117.29 -2.52259 -0.928367 0
M  V30 10969 C 1115.56 -3.26866 1.44545 0
M  V30 10970 S 1117.12 -4.17567 1.34846 0
M  V30 10971 H 1113.94 -0.634752 0.320329 0
M  V30 10972 H 1116.54 -1.33036 1.43254 0
M  V30 10973 H 1115.25 -3.25126 2.50442 0
M  V30 10974 H 1114.78 -3.83008 0.89825 0
M  V30 10975 H 1116.79 -4.95173 0.319143 0
M  V30 10976 N 1115.97 -0.914965 -1.28321 0
M  V30 10977 C 1117.24 -0.46764 -1.89928 0
M  V30 10978 C 1117.62 1.05364 -1.82925 0
M  V30 10979 O 1116.97 1.90223 -1.26599 0
M  V30 10980 C 1117.18 -0.999372 -3.34385 0
M  V30 10981 C 1118.53 -1.0522 -4.11356 0
M  V30 10982 O 1119.55 -0.9481 -3.4335 0
M  V30 10983 O 1118.41 -1.21085 -5.32917 0
M  V30 10984 H 1115.51 -0.148398 -0.813577 0
M  V30 10985 H 1118.05 -1.00583 -1.36679 0
M  V30 10986 H 1116.82 -2.04333 -3.33712 0
M  V30 10987 H 1116.45 -0.442083 -3.95135 0
M  V30 10988 N 1117.44 1.42219 -0.679077 0
M  V30 10989 C 1118.86 1.55737 -0.349034 0
M  V30 10990 C 1119.06 1.65789 1.14527 0
M  V30 10991 O 1118.12 1.62717 1.93079 0
M  V30 10992 C 1119.43 2.80516 -1.0831 0
M  V30 10993 C 1120.98 2.94294 -1.06584 0
M  V30 10994 C 1121.45 4.2194 -1.78132 0
M  V30 10995 N 1122.94 4.28861 -1.75021 0
M  V30 10996 C 1123.68 5.26453 -2.27234 0
M  V30 10997 N 1123.17 6.30171 -2.87847 0
M  V30 10998 N 1124.97 5.1828 -2.17584 0
M  V30 10999 H 1117.12 1.33939 -1.64846 0
M  V30 11000 H 1119.38 0.645029 -0.694725 0
M  V30 11001 H 1119.09 2.79241 -2.13816 0
M  V30 11002 H 1118.96 3.71539 -0.651069 0
M  V30 11003 H 1121.35 2.95094 -0.0191061 0
M  V30 11004 H 1121.43 2.04491 -1.53679 0
M  V30 11005 H 1121.07 4.21901 -2.82776 0
M  V30 11006 H 1121 5.10685 -1.28483 0
M  V30 11007 H 1123.49 3.54537 -1.30814 0
M  V30 11008 H 1123.81 7.01 -3.25298 0
M  V30 11009 H 1122.15 6.30721 -2.91918 0
M  V30 11010 H 1125.34 4.36172 -1.69916 0
M  V30 11011 H 1125.52 5.94172 -2.58581 0
M  V30 11012 N 1118.92 0.422693 1.51826 0
M  V30 11013 C 1120.16 -0.147997 2.03864 0
M  V30 11014 C 1120.53 -1.41224 1.30076 0
M  V30 11015 O 1121.73 -2.06224 1.72409 0
M  V30 11016 C 1120 -0.376248 3.55414 0
M  V30 11017 S 1121.56 -0.912444 4.29208 0
M  V30 11018 H 1118.37 -0.0387084 0.709946 0
M  V30 11019 H 1120.98 0.578733 1.86738 0
M  V30 11020 H 1119.68 0.550451 4.06692 0
M  V30 11021 H 1119.21 -1.13047 3.76807 0
M  V30 11022 H 1121.23 -2.19161 4.45177 0
M  V30 11023 N 1120.4 -1.5685 0.153553 0
M  V30 11024 C 1121.35 -2.1709 -0.783626 0
M  V30 11025 C 1122.32 -1.10567 -1.23952 0
M  V30 11026 O 1123.5 -1.38638 -1.31088 0
M  V30 11027 C 1120.64 -2.80183 -2.01473 0
M  V30 11028 C 1119.75 -4.01117 -1.60403 0
M  V30 11029 C 1118.89 -4.5219 -2.78743 0
M  V30 11030 C 1117.93 -5.65574 -2.34079 0
M  V30 11031 N 1117.07 -6.11235 -3.4545 0
M  V30 11032 H 1121.91 -2.96836 -0.263127 0
M  V30 11033 H 1119.44 -1.46625 -0.11816 0
M  V30 11034 H 1121.4 -3.14912 -2.73654 0
M  V30 11035 H 1120.03 -2.03071 -2.50923 0
M  V30 11036 H 1119.08 -3.72325 -0.779631 0
M  V30 11037 H 1120.39 -4.83243 -1.23605 0
M  V30 11038 H 1119.55 -4.89008 -3.59105 0
M  V30 11039 H 1118.29 -3.69085 -3.18791 0
M  V30 11040 H 1117.29 -5.28326 -1.52158 0
M  V30 11041 H 1118.52 -6.50468 -1.95109 0
M  V30 11042 H 1116.46 -5.31064 -3.85106 0
M  V30 11043 H 1116.38 -6.88304 -3.12687 0
M  V30 11044 H 1117.65 -6.527 -4.26149 0
M  V30 11045 N 1121.88 0.120221 -1.57141 0
M  V30 11046 C 1123.29 0.677497 -1.73974 0
M  V30 11047 C 1123.64 1.80371 -0.772055 0
M  V30 11048 O 1122.76 2.16329 0.0553062 0
M  V30 11049 C 1123.36 1.23575 -3.1546 0
M  V30 11050 C 1121.92 1.73933 -3.33803 0
M  V30 11051 C 1121.07 0.638542 -2.69848 0
M  V30 11052 H 1124.02 -0.105685 -1.58348 0
M  V30 11053 H 1124.04 2.10542 -3.16942 0
M  V30 11054 H 1123.55 0.415851 -3.85866 0
M  V30 11055 H 1121.65 2.58404 -2.68437 0
M  V30 11056 H 1121.76 1.84961 -4.41957 0
M  V30 11057 H 1120.13 1.07185 -2.31049 0
M  V30 11058 H 1120.91 -0.170356 -3.42877 0
M  V30 11059 N 1123.36 1.52689 0.390367 0
M  V30 11060 C 1124.6 1.67335 1.13329 0
M  V30 11061 C 1124.93 0.415068 1.90531 0
M  V30 11062 O 1124.2 -0.570504 1.87409 0
M  V30 11063 H 1122.78 0.616821 0.421356 0
M  V30 11064 H 1125.44 1.89799 0.443 0
M  V30 11065 H 1124.53 2.52314 1.83696 0
M  V30 11066 N 1124.83 -0.648732 1.43629 0
M  V30 11067 C 1126.08 -1.40857 1.45483 0
M  V30 11068 C 1126.41 -1.94332 0.0807963 0
M  V30 11069 O 1125.66 -1.72999 -0.914875 0
M  V30 11070 C 1125.96 -2.60394 2.44806 0
M  V30 11071 C 1125.63 -2.25311 3.90571 0
M  V30 11072 C 1124.29 -2.15456 4.3027 0
M  V30 11073 C 1126.64 -1.97307 4.8241 0
M  V30 11074 C 1123.97 -1.75759 5.59755 0
M  V30 11075 C 1126.32 -1.59108 6.12264 0
M  V30 11076 C 1124.99 -1.47781 6.50936 0
M  V30 11077 H 1124.26 -0.515434 0.532362 0
M  V30 11078 H 1126.9 -0.737339 1.76736 0
M  V30 11079 H 1125.21 -3.3267 2.06973 0
M  V30 11080 H 1126.91 -3.18609 2.43494 0
M  V30 11081 H 1123.5 -2.33894 3.59154 0
M  V30 11082 H 1127.68 -2.0384 4.52507 0
M  V30 11083 H 1122.94 -1.65579 5.88552 0
M  V30 11084 H 1127.11 -1.36472 6.82897 0
M  V30 11085 H 1124.74 -1.16792 7.51175 0
M  V30 11086 N 1126.31 -1.30234 -0.887518 0
M  V30 11087 C 1127.56 -1.20096 -1.6416 0
M  V30 11088 C 1127.91 0.24253 -1.90865 0
M  V30 11089 O 1127.21 1.17078 -1.51668 0
M  V30 11090 C 1127.4 -1.96046 -2.98832 0
M  V30 11091 C 1127.23 -3.47633 -2.85274 0
M  V30 11092 C 1126 -4.16989 -2.85392 0
M  V30 11093 C 1128.2 -4.42911 -2.61409 0
M  V30 11094 N 1126.18 -5.54854 -2.62699 0
M  V30 11095 C 1127.55 -5.68321 -2.47813 0
M  V30 11096 C 1129.61 -4.32535 -2.46613 0
M  V30 11097 C 1128.31 -6.84532 -2.20927 0
M  V30 11098 C 1130.33 -5.4851 -2.21112 0
M  V30 11099 C 1129.7 -6.729 -2.08291 0
M  V30 11100 H 1125.8 -0.494513 -0.605789 0
M  V30 11101 H 1128.38 -1.64213 -1.04605 0
M  V30 11102 H 1126.55 -1.54324 -3.56425 0
M  V30 11103 H 1128.28 -1.78072 -3.63418 0
M  V30 11104 H 1125.04 -3.68798 -2.97128 0
M  V30 11105 H 1125.46 -6.27395 -2.54371 0
M  V30 11106 H 1130.1 -3.37047 -2.55262 0
M  V30 11107 H 1127.82 -7.80063 -2.11015 0
M  V30 11108 H 1131.41 -5.42389 -2.1049 0
M  V30 11109 H 1130.29 -7.61125 -1.88833 0
M  V30 11110 N 1127.79 1.09952 -1.12909 0
M  V30 11111 C 1129.04 1.81657 -0.885729 0
M  V30 11112 C 1129.36 1.85863 0.589913 0
M  V30 11113 O 1128.63 1.34028 1.42875 0
M  V30 11114 H 1127.21 0.672743 -0.324694 0
M  V30 11115 H 1129.87 1.33013 -1.42456 0
M  V30 11116 H 1128.97 2.85018 -1.27167 0
M  V30 11117 N 1129.27 0.921757 1.27833 0
M  V30 11118 C 1130.2 0.433466 2.29441 0
M  V30 11119 C 1131.18 -0.503133 1.62489 0
M  V30 11120 O 1132.36 -0.409156 1.89841 0
M  V30 11121 C 1129.49 -0.320029 3.45822 0
M  V30 11122 C 1128.45 0.528178 4.24728 0
M  V30 11123 C 1127.77 -0.354132 5.33526 0
M  V30 11124 C 1129.07 1.78959 4.90684 0
M  V30 11125 H 1130.77 1.28263 2.70535 0
M  V30 11126 H 1128.31 0.618197 1.30055 0
M  V30 11127 H 1130.27 -0.672526 4.15999 0
M  V30 11128 H 1128.99 -1.20317 3.0363 0
M  V30 11129 H 1127.65 0.863302 3.5629 0
M  V30 11130 H 1127.3 -1.23605 4.87576 0
M  V30 11131 H 1127 0.209855 5.87225 0
M  V30 11132 H 1128.52 -0.702333 6.06547 0
M  V30 11133 H 1129.94 1.50552 5.53179 0
M  V30 11134 H 1128.33 2.29661 5.54415 0
M  V30 11135 H 1129.4 2.51265 4.14721 0
M  V30 11136 N 1130.75 -1.41857 0.686609 0
M  V30 11137 C 1131.97 -2.06219 0.221037 0
M  V30 11138 C 1132.4 -1.51298 -1.11762 0
M  V30 11139 O 1131.75 -0.636253 -1.69769 0
M  V30 11140 C 1131.8 -3.60153 0.179425 0
M  V30 11141 O 1130.91 -4.03577 -0.848481 0
M  V30 11142 H 1130.25 -0.654787 0.110228 0
M  V30 11143 H 1132.78 -1.81783 0.938948 0
M  V30 11144 H 1132.79 -4.07999 0.00725332 0
M  V30 11145 H 1131.46 -3.99498 1.15647 0
M  V30 11146 H 1130.04 -3.67255 -0.646393 0
M  V30 11147 N 1132.22 -0.430739 -1.51599 0
M  V30 11148 C 1133.64 0.0339139 -1.86669 0
M  V30 11149 C 1133.99 1.42533 -1.34829 0
M  V30 11150 O 1133.11 2.04889 -0.696376 0
M  V30 11151 C 1133.71 0.0683174 -3.38731 0
M  V30 11152 C 1132.27 0.477363 -3.73361 0
M  V30 11153 C 1131.41 -0.334258 -2.75278 0
M  V30 11154 H 1134.36 -0.646875 -1.44918 0
M  V30 11155 H 1134.38 0.879179 -3.70204 0
M  V30 11156 H 1133.9 -0.944501 -3.76432 0
M  V30 11157 H 1132 1.49603 -3.41247 0
M  V30 11158 H 1132.11 0.206744 -4.78654 0
M  V30 11159 H 1130.47 0.206503 -2.53861 0
M  V30 11160 H 1131.26 -1.34583 -3.1582 0
M  V30 11161 N 1133.7 1.56767 -0.161869 0
M  V30 11162 C 1134.93 2.01401 0.49523 0
M  V30 11163 C 1135.35 1.04133 1.56646 0
M  V30 11164 O 1134.71 0.0193747 1.8129 0
M  V30 11165 C 1134.76 3.44695 1.05913 0
M  V30 11166 O 1133.86 3.50475 2.1735 0
M  V30 11167 H 1133.2 0.65314 0.1196 0
M  V30 11168 H 1135.73 2.02903 -0.26298 0
M  V30 11169 H 1135.74 3.83805 1.3841 0
M  V30 11170 H 1134.42 4.14991 0.274749 0
M  V30 11171 H 1133 3.23218 1.85969 0
M  V30 11172 N 1135.18 -0.111886 1.57202 0
M  V30 11173 C 1136.13 -1.15585 2.01849 0
M  V30 11174 C 1137.12 -1.42458 0.916621 0
M  V30 11175 O 1138.33 -1.42337 1.10182 0
M  V30 11176 H 1134.7 -0.389885 0.643035 0
M  V30 11177 H 1136.67 -0.752854 2.88747 0
M  V30 11178 C 1135.42 -2.47247 2.44467 0
M  V30 11179 H 1134.75 -2.27409 3.28824 0
M  V30 11180 H 1136.19 -3.18837 2.79497 0
M  V30 11181 C 1134.65 -3.10339 1.31115 0
M  V30 11182 O 1135.18 -3.96713 0.631029 0
M  V30 11183 N 1133.38 -2.70326 1.0664 0
M  V30 11184 H 1132.93 -2.00182 1.62126 0
M  V30 11185 H 1132.89 -3.12869 0.309944 0
M  V30 11186 N 1136.66 -1.52894 -0.382264 0
M  V30 11187 C 1138.07 -1.60135 -0.959887 0
M  V30 11188 C 1138.42 -0.458363 -1.90771 0
M  V30 11189 O 1137.55 0.417614 -2.12332 0
M  V30 11190 C 1138.14 -2.90243 -1.74769 0
M  V30 11191 C 1136.7 -2.99874 -2.27491 0
M  V30 11192 C 1135.85 -2.55302 -1.0824 0
M  V30 11193 H 1138.8 -1.57875 -0.161589 0
M  V30 11194 H 1138.82 -2.77108 -2.60751 0
M  V30 11195 H 1138.33 -3.73412 -1.0576 0
M  V30 11196 H 1136.43 -2.21258 -2.99793 0
M  V30 11197 H 1136.54 -4.04643 -2.56516 0
M  V30 11198 H 1134.91 -2.09781 -1.44444 0
M  V30 11199 H 1135.69 -3.40872 -0.407553 0
M  V30 11200 N 1138.14 0.641106 -1.43971 0
M  V30 11201 C 1139.05 1.78239 -1.52538 0
M  V30 11202 C 1140.06 1.6906 -0.411668 0
M  V30 11203 O 1141.24 1.90014 -0.66757 0
M  V30 11204 C 1138.3 3.14579 -1.45743 0
M  V30 11205 C 1137.37 3.35464 -2.67885 0
M  V30 11206 C 1136.6 4.65299 -2.61404 0
M  V30 11207 O 1136.82 5.45451 -1.66851 0
M  V30 11208 O 1135.76 4.8817 -3.521 0
M  V30 11209 H 1139.58 1.73965 -2.48937 0
M  V30 11210 H 1137.17 0.801098 -1.26106 0
M  V30 11211 H 1139.05 3.95873 -1.4444 0
M  V30 11212 H 1137.72 3.19417 -0.524837 0
M  V30 11213 H 1136.63 2.53888 -2.74758 0
M  V30 11214 H 1137.96 3.35481 -3.60157 0
M  V30 11215 N 1139.62 1.30703 0.880598 0
M  V30 11216 C 1140.86 1.19541 1.62955 0
M  V30 11217 C 1141.18 -0.249089 1.93403 0
M  V30 11218 O 1140.45 -1.1669 1.57354 0
M  V30 11219 H 1139.03 0.439434 0.604075 0
M  V30 11220 H 1141.7 1.63888 1.05483 0
M  V30 11221 H 1140.79 1.75945 2.57779 0
M  V30 11222 N 1141.09 -1.09351 1.1349 0
M  V30 11223 C 1142.33 -1.83156 0.907372 0
M  V30 11224 C 1142.7 -1.8376 -0.556441 0
M  V30 11225 O 1143.9 -2.5323 -0.90156 0
M  V30 11226 C 1142.17 -3.25315 1.48004 0
M  V30 11227 S 1143.73 -4.16113 1.39268 0
M  V30 11228 H 1140.55 -0.631319 0.327043 0
M  V30 11229 H 1143.15 -1.31509 1.44657 0
M  V30 11230 H 1141.85 -3.22452 2.53876 0
M  V30 11231 H 1141.38 -3.82034 0.938822 0
M  V30 11232 H 1143.4 -4.94806 0.371645 0
M  V30 11233 N 1142.57 -0.928524 -1.27343 0
M  V30 11234 C 1143.8 -0.585734 -1.98436 0
M  V30 11235 C 1144.21 0.83644 -1.69261 0
M  V30 11236 O 1143.57 1.55603 -0.953626 0
M  V30 11237 C 1143.62 -0.803092 -3.52467 0
M  V30 11238 O 1143.34 -2.16932 -3.80621 0
M  V30 11239 C 1144.84 -0.469127 -4.40811 0
M  V30 11240 H 1142.06 -0.221887 -0.633251 0
M  V30 11241 H 1144.61 -1.24577 -1.62175 0
M  V30 11242 H 1142.76 -0.189846 -3.86935 0
M  V30 11243 H 1143.18 -2.21992 -4.75205 0
M  V30 11244 H 1144.65 -0.671906 -5.47895 0
M  V30 11245 H 1145.13 0.595365 -4.35146 0
M  V30 11246 H 1145.73 -1.06055 -4.11865 0
M  V30 11247 N 1144.05 1.41491 -0.694123 0
M  V30 11248 C 1145.47 1.55358 -0.365532 0
M  V30 11249 C 1145.67 1.66994 1.12762 0
M  V30 11250 O 1144.72 1.64756 1.91342 0
M  V30 11251 C 1146.03 2.79352 -1.11279 0
M  V30 11252 C 1147.58 2.93147 -1.097 0
M  V30 11253 C 1148.06 4.20027 -1.82597 0
M  V30 11254 N 1149.55 4.26981 -1.7956 0
M  V30 11255 C 1150.28 5.24013 -2.32805 0
M  V30 11256 N 1149.78 6.27083 -2.94515 0
M  V30 11257 N 1151.57 5.15943 -2.23069 0
M  V30 11258 H 1143.72 1.32183 -1.66257 0
M  V30 11259 H 1145.99 0.637624 -0.701527 0
M  V30 11260 H 1145.69 2.76958 -2.16765 0
M  V30 11261 H 1145.57 3.70827 -0.690439 0
M  V30 11262 H 1147.95 2.95057 -0.0504037 0
M  V30 11263 H 1148.03 2.02849 -1.55839 0
M  V30 11264 H 1147.68 4.18878 -2.87235 0
M  V30 11265 H 1147.61 5.09294 -1.33893 0
M  V30 11266 H 1150.1 3.53129 -1.34567 0
M  V30 11267 H 1150.41 6.97511 -3.32714 0
M  V30 11268 H 1148.76 6.27589 -2.98592 0
M  V30 11269 H 1151.95 4.34346 -1.74532 0
M  V30 11270 H 1152.12 5.91396 -2.64868 0
M  V30 11271 N 1145.53 0.438773 1.51369 0
M  V30 11272 C 1146.77 -0.126367 2.04009 0
M  V30 11273 C 1147.13 -1.39837 1.31566 0
M  V30 11274 O 1148.33 -2.04384 1.74587 0
M  V30 11275 C 1146.6 -0.338531 3.55793 0
M  V30 11276 S 1148.16 -0.866869 4.30152 0
M  V30 11277 H 1144.98 -0.0311763 0.710316 0
M  V30 11278 H 1147.58 0.598507 1.86113 0
M  V30 11279 H 1146.29 0.593555 4.06085 0
M  V30 11280 H 1145.82 -1.09044 3.77985 0
M  V30 11281 H 1147.83 -2.14427 4.47477 0
M  V30 11282 N 1147.01 -1.56678 0.170181 0
M  V30 11283 C 1148.23 -2.0166 -0.484543 0
M  V30 11284 C 1148.66 -1.04962 -1.56091 0
M  V30 11285 O 1148.01 -0.0289887 -1.81277 0
M  V30 11286 C 1148.06 -3.45252 -1.04084 0
M  V30 11287 O 1147.17 -3.51623 -2.15488 0
M  V30 11288 H 1146.51 -0.653765 -0.116135 0
M  V30 11289 H 1149.04 -2.02761 0.273737 0
M  V30 11290 H 1149.05 -3.84534 -1.36373 0
M  V30 11291 H 1147.72 -4.15131 -0.252738 0
M  V30 11292 H 1146.3 -3.242 -1.84252 0
M  V30 11293 N 1148.48 0.103547 -1.57259 0
M  V30 11294 C 1149.72 0.814289 -1.8748 0
M  V30 11295 C 1150.09 1.76312 -0.760126 0
M  V30 11296 O 1151.29 2.51659 -0.944514 0
M  V30 11297 C 1149.56 1.53119 -3.22938 0
M  V30 11298 S 1151.12 2.28138 -3.74831 0
M  V30 11299 H 1147.94 0.271464 -0.657136 0
M  V30 11300 H 1150.54 0.07183 -1.95368 0
M  V30 11301 H 1149.24 0.826397 -4.01994 0
M  V30 11302 H 1148.77 2.31372 -3.18167 0
M  V30 11303 H 1150.79 3.54132 -3.4757 0
M  V30 11304 N 1149.96 1.53094 0.37415 0
M  V30 11305 C 1151.24 1.59456 1.13283 0
M  V30 11306 C 1151.62 0.396821 2.07337 0
M  V30 11307 O 1150.97 -0.613659 2.20106 0
M  V30 11308 C 1151.18 2.94069 1.87948 0
M  V30 11309 C 1152.52 3.4834 2.42785 0
M  V30 11310 O 1153.55 2.96042 1.98085 0
M  V30 11311 O 1152.41 4.39747 3.24477 0
M  V30 11312 H 1149.5 0.643731 0.519171 0
M  V30 11313 H 1152.05 1.65434 0.378105 0
M  V30 11314 H 1150.82 3.72685 1.19255 0
M  V30 11315 H 1150.44 2.91544 2.70348 0
M  V30 11316 N 1151.44 -0.633461 1.44309 0
M  V30 11317 C 1152.37 -1.75676 1.53819 0
M  V30 11318 C 1153.35 -1.65537 0.391365 0
M  V30 11319 O 1154.54 -1.84332 0.611181 0
M  V30 11320 C 1151.67 -3.14197 1.47979 0
M  V30 11321 C 1150.62 -3.39122 2.61113 0
M  V30 11322 C 1149.95 -4.77648 2.40325 0
M  V30 11323 C 1151.25 -3.31914 4.03274 0
M  V30 11324 H 1152.94 -1.67974 2.47841 0
M  V30 11325 H 1150.49 -0.8067 1.19283 0
M  V30 11326 H 1152.44 -3.92553 1.53233 0
M  V30 11327 H 1151.16 -3.22677 0.504718 0
M  V30 11328 H 1149.82 -2.63145 2.55245 0
M  V30 11329 H 1149.47 -4.82829 1.41016 0
M  V30 11330 H 1149.17 -4.95284 3.16177 0
M  V30 11331 H 1150.69 -5.58237 2.47394 0
M  V30 11332 H 1152.11 -4.00178 4.10524 0
M  V30 11333 H 1150.5 -3.61085 4.7931 0
M  V30 11334 H 1151.57 -2.29761 4.2701 0
M  V30 11335 N 1152.92 -1.31168 -0.873655 0
M  V30 11336 C 1154.33 -1.09745 -1.1588 0
M  V30 11337 C 1154.53 0.134471 -2.01051 0
M  V30 11338 O 1153.59 0.824857 -2.38647 0
M  V30 11339 C 1154.9 -2.36704 -1.85451 0
M  V30 11340 C 1156.45 -2.42278 -1.98167 0
M  V30 11341 C 1156.93 -3.69108 -2.71152 0
M  V30 11342 N 1158.42 -3.69981 -2.7869 0
M  V30 11343 C 1159.15 -4.64811 -3.35765 0
M  V30 11344 N 1158.65 -5.69995 -3.938 0
M  V30 11345 N 1160.44 -4.52337 -3.33688 0
M  V30 11346 H 1152.59 -2.10184 -0.306021 0
M  V30 11347 H 1154.86 -0.927058 -0.198159 0
M  V30 11348 H 1154.56 -3.26666 -1.30316 0
M  V30 11349 H 1154.44 -2.46219 -2.85755 0
M  V30 11350 H 1156.82 -1.52787 -2.52468 0
M  V30 11351 H 1156.9 -2.3673 -0.969164 0
M  V30 11352 H 1156.55 -4.58963 -2.1752 0
M  V30 11353 H 1156.48 -3.71922 -3.72803 0
M  V30 11354 H 1158.97 -2.93944 -2.37498 0
M  V30 11355 H 1159.28 -6.38438 -4.3545 0
M  V30 11356 H 1157.63 -5.73773 -3.92186 0
M  V30 11357 H 1160.82 -3.69341 -2.87584 0
M  V30 11358 H 1160.99 -5.2642 -3.77871 0
M  V30 11359 N 1154.4 1.08748 -1.14068 0
M  V30 11360 C 1155.64 1.80707 -0.904947 0
M  V30 11361 C 1155.97 1.86478 0.570167 0
M  V30 11362 O 1155.24 1.35536 1.41445 0
M  V30 11363 H 1153.82 0.669261 -0.331811 0
M  V30 11364 H 1156.48 1.31494 -1.43859 0
M  V30 11365 H 1155.57 2.83653 -1.30182 0
M  V30 11366 N 1155.87 0.935264 1.26849 0
M  V30 11367 C 1157.1 0.596249 1.98122 0
M  V30 11368 C 1157.52 -0.827452 1.69702 0
M  V30 11369 O 1156.87 -1.55095 0.961864 0
M  V30 11370 C 1156.93 0.821773 3.52036 0
M  V30 11371 O 1156.65 2.18947 3.79465 0
M  V30 11372 C 1158.15 0.492498 4.40556 0
M  V30 11373 H 1155.37 0.225242 0.632066 0
M  V30 11374 H 1157.91 1.25435 1.61512 0
M  V30 11375 H 1156.07 0.210363 3.86828 0
M  V30 11376 H 1156.48 2.24509 4.74021 0
M  V30 11377 H 1157.95 0.700953 5.47531 0
M  V30 11378 H 1158.43 -0.57228 4.35456 0
M  V30 11379 H 1159.04 1.08238 4.11296 0
M  V30 11380 N 1157.35 -1.41121 0.701616 0
M  V30 11381 C 1158.28 -2.33436 0.0545974 0
M  V30 11382 C 1159.26 -1.52144 -0.760662 0
M  V30 11383 O 1160.45 -1.80661 -0.712414 0
M  V30 11384 C 1157.58 -3.36015 -0.878117 0
M  V30 11385 C 1156.53 -4.27664 -0.169511 0
M  V30 11386 C 1155.86 -5.20666 -1.21699 0
M  V30 11387 C 1157.16 -5.13254 0.967859 0
M  V30 11388 H 1158.85 -2.87791 0.825637 0
M  V30 11389 H 1156.4 -1.38377 0.398484 0
M  V30 11390 H 1158.35 -3.99526 -1.34004 0
M  V30 11391 H 1157.08 -2.80024 -1.68089 0
M  V30 11392 H 1155.73 -3.65586 0.272441 0
M  V30 11393 H 1155.38 -4.60987 -2.01246 0
M  V30 11394 H 1155.08 -5.82822 -0.747836 0
M  V30 11395 H 1156.61 -5.87053 -1.6793 0
M  V30 11396 H 1158.02 -5.70298 0.585944 0
M  V30 11397 H 1156.42 -5.84381 1.3645 0
M  V30 11398 H 1157.49 -4.5006 1.80483 0
M  V30 11399 N 1158.83 -0.446794 -1.51134 0
M  V30 11400 C 1160.08 0.116263 -2.01765 0
M  V30 11401 C 1160.4 1.42382 -1.33238 0
M  V30 11402 O 1159.67 1.9018 -0.469915 0
M  V30 11403 H 1158.25 0.0459558 -0.745585 0
M  V30 11404 H 1160.91 -0.591664 -1.85702 0
M  V30 11405 H 1160.01 0.285358 -3.10793 0
M  V30 11406 N 1160.31 1.56586 -0.178487 0
M  V30 11407 C 1161.56 1.96709 0.4637 0
M  V30 11408 C 1161.88 1.06586 1.63292 0
M  V30 11409 O 1161.15 0.133683 1.95443 0
M  V30 11410 H 1159.73 0.726381 0.174299 0
M  V30 11411 H 1162.39 1.9314 -0.261345 0
M  V30 11412 H 1161.49 3.01164 0.818934 0
M  V30 11413 N 1161.79 -0.095206 1.57312 0
M  V30 11414 C 1163.03 -0.799903 1.86358 0
M  V30 11415 C 1163.37 -1.78386 0.767593 0
M  V30 11416 O 1162.64 -1.93201 -0.224439 0
M  V30 11417 C 1162.92 -1.52875 3.26039 0
M  V30 11418 C 1162.78 -0.562781 4.46265 0
M  V30 11419 C 1164.1 -2.47935 3.63616 0
M  V30 11420 H 1161.21 -0.289339 0.677829 0
M  V30 11421 H 1163.86 -0.0635369 1.89894 0
M  V30 11422 H 1162.01 -2.15645 3.23156 0
M  V30 11423 H 1163.68 0.0579068 4.61264 0
M  V30 11424 H 1161.92 0.123847 4.33623 0
M  V30 11425 H 1162.59 -1.10989 5.40727 0
M  V30 11426 H 1165.07 -1.95257 3.67442 0
M  V30 11427 H 1163.94 -2.95948 4.62283 0
M  V30 11428 H 1164.21 -3.31687 2.92294 0
M  V30 11429 N 1163.26 -1.53291 -0.366026 0
M  V30 11430 C 1164.23 -1.79025 -1.43117 0
M  V30 11431 C 1165.23 -0.660676 -1.46601 0
M  V30 11432 O 1166.42 -0.928875 -1.47369 0
M  V30 11433 C 1163.55 -1.91192 -2.82238 0
M  V30 11434 H 1164.74 -2.74154 -1.21572 0
M  V30 11435 H 1162.3 -1.44361 -0.599132 0
M  V30 11436 H 1163.03 -0.98129 -3.09097 0
M  V30 11437 H 1162.82 -2.7335 -2.81109 0
M  V30 11438 H 1164.31 -2.12696 -3.59375 0
M  V30 11439 N 1164.74 0.6258 -1.44643 0
M  V30 11440 C 1165.65 1.76611 -1.5442 0
M  V30 11441 C 1166.67 1.68614 -0.429576 0
M  V30 11442 O 1167.84 1.89296 -0.687686 0
M  V30 11443 C 1164.91 3.13015 -1.49071 0
M  V30 11444 C 1163.97 3.32604 -2.71428 0
M  V30 11445 C 1163.2 4.62501 -2.66325 0
M  V30 11446 O 1163.43 5.43651 -1.72626 0
M  V30 11447 O 1162.36 4.84408 -3.57258 0
M  V30 11448 H 1166.19 1.71315 -2.50769 0
M  V30 11449 H 1163.77 0.787677 -1.26949 0
M  V30 11450 H 1165.65 3.94318 -1.48631 0
M  V30 11451 H 1164.33 3.18842 -0.558686 0
M  V30 11452 H 1163.24 2.50959 -2.77435 0
M  V30 11453 H 1164.57 3.31642 -3.63695 0
M  V30 11454 N 1166.22 1.31629 0.866686 0
M  V30 11455 C 1167.46 1.22806 1.63395 0
M  V30 11456 C 1167.82 -0.209785 1.9085 0
M  V30 11457 O 1169.03 -0.421562 2.65474 0
M  V30 11458 C 1167.3 2.05187 2.92631 0
M  V30 11459 S 1168.86 2.13261 3.83491 0
M  V30 11460 H 1165.67 0.437339 0.560585 0
M  V30 11461 H 1168.28 1.66333 1.02731 0
M  V30 11462 H 1166.98 3.08736 2.70389 0
M  V30 11463 H 1166.51 1.62393 3.58318 0
M  V30 11464 H 1168.53 1.27333 4.79584 0
M  V30 11465 N 1167.7 -1.08142 1.14644 0
M  V30 11466 C 1168.63 -2.15022 0.793614 0
M  V30 11467 C 1169.64 -1.61679 -0.190729 0
M  V30 11468 O 1170.83 -1.78472 0.0313696 0
M  V30 11469 C 1167.93 -3.38532 0.157785 0
M  V30 11470 C 1167.11 -4.21252 1.17753 0
M  V30 11471 C 1166.17 -5.23158 0.564968 0
M  V30 11472 O 1165.19 -5.5578 1.22869 0
M  V30 11473 N 1166.39 -5.7677 -0.657022 0
M  V30 11474 H 1169.16 -2.45893 1.71338 0
M  V30 11475 H 1166.72 -1.23976 1.04122 0
M  V30 11476 H 1168.71 -4.03834 -0.264586 0
M  V30 11477 H 1167.28 -3.05441 -0.665168 0
M  V30 11478 H 1166.5 -3.51888 1.77675 0
M  V30 11479 H 1167.79 -4.73335 1.86632 0
M  V30 11480 H 1167.19 -5.52503 -1.21478 0
M  V30 11481 H 1165.74 -6.4374 -1.02186 0
M  V30 11482 N 1169.18 -0.941978 -1.26351 0
M  V30 11483 C 1170.59 -0.632522 -1.75659 0
M  V30 11484 C 1170.94 0.852287 -1.76722 0
M  V30 11485 O 1170.06 1.66701 -1.37985 0
M  V30 11486 C 1170.66 -1.14145 -3.18993 0
M  V30 11487 C 1169.22 -0.882391 -3.65911 0
M  V30 11488 C 1168.37 -1.29189 -2.45368 0
M  V30 11489 H 1171.32 -1.12019 -1.12416 0
M  V30 11490 H 1171.34 -0.495639 -3.77258 0
M  V30 11491 H 1170.85 -2.22213 -3.18187 0
M  V30 11492 H 1168.95 0.183873 -3.72146 0
M  V30 11493 H 1169.06 -1.50996 -4.54683 0
M  V30 11494 H 1167.43 -0.710316 -2.44595 0
M  V30 11495 H 1168.21 -2.38152 -2.47262 0
M  V30 11496 N 1170.66 1.40747 -0.709091 0
M  V30 11497 C 1171.9 2.00606 -0.245324 0
M  V30 11498 C 1172.22 1.56489 1.16346 0
M  V30 11499 O 1171.49 0.801456 1.78755 0
M  V30 11500 H 1170.07 0.741833 -0.0877098 0
M  V30 11501 H 1172.74 1.72178 -0.913271 0
M  V30 11502 H 1171.83 3.10901 -0.273322 0
M  V30 11503 N 1172.13 0.454803 1.50895 0
M  V30 11504 C 1173.36 -0.103936 2.06639 0
M  V30 11505 C 1173.78 -1.34943 1.32044 0
M  V30 11506 O 1173.13 -1.78393 0.384972 0
M  V30 11507 C 1173.18 -0.408546 3.59184 0
M  V30 11508 O 1172.91 0.787535 4.30963 0
M  V30 11509 C 1174.41 -1.01605 4.31499 0
M  V30 11510 H 1171.63 -0.000171839 0.671 0
M  V30 11511 H 1174.17 0.638907 1.94263 0
M  V30 11512 H 1172.33 -1.1013 3.71416 0
M  V30 11513 H 1172.74 0.52229 5.21893 0
M  V30 11514 H 1174.21 -1.17906 5.39261 0
M  V30 11515 H 1174.69 -2.00182 3.90927 0
M  V30 11516 H 1175.3 -0.362155 4.23755 0
M  V30 11517 N 1173.61 -1.56489 0.186789 0
M  V30 11518 C 1174.86 -1.96952 -0.453261 0
M  V30 11519 C 1175.18 -1.07451 -1.62725 0
M  V30 11520 O 1174.45 -0.144046 -1.9537 0
M  V30 11521 H 1173.03 -0.727295 -0.170445 0
M  V30 11522 H 1175.69 -1.92999 0.271584 0
M  V30 11523 H 1174.79 -3.01594 -0.802951 0
M  V30 11524 N 1175.09 0.086862 -1.5736 0
M  V30 11525 C 1176.02 1.13117 -1.99342 0
M  V30 11526 C 1177.03 1.35849 -0.897151 0
M  V30 11527 O 1178.22 1.34356 -1.17519 0
M  V30 11528 C 1175.32 2.48511 -2.30425 0
M  V30 11529 C 1174.5 2.45942 -3.61706 0
M  V30 11530 C 1173.56 3.63327 -3.80631 0
M  V30 11531 O 1172.58 3.45443 -4.52392 0
M  V30 11532 N 1173.78 4.83118 -3.21835 0
M  V30 11533 H 1176.55 0.773782 -2.89539 0
M  V30 11534 H 1174.11 0.275731 -1.59535 0
M  V30 11535 H 1176.1 3.25656 -2.40272 0
M  V30 11536 H 1174.67 2.76308 -1.46194 0
M  V30 11537 H 1173.89 1.54287 -3.62752 0
M  V30 11538 H 1175.18 2.41313 -4.47935 0
M  V30 11539 H 1174.58 5.00552 -2.6356 0
M  V30 11540 H 1173.13 5.57827 -3.37154 0
M  V30 11541 N 1176.57 1.53483 0.357892 0
M  V30 11542 C 1177.81 1.71743 1.10832 0
M  V30 11543 C 1178.17 0.463303 1.86326 0
M  V30 11544 O 1179.37 0.522715 2.63669 0
M  V30 11545 C 1177.64 2.93741 2.03595 0
M  V30 11546 S 1179.2 3.32744 2.86054 0
M  V30 11547 H 1176.02 0.604247 0.374709 0
M  V30 11548 H 1178.62 1.916 0.388565 0
M  V30 11549 H 1177.33 3.83205 1.46909 0
M  V30 11550 H 1176.86 2.76309 2.8003 0
M  V30 11551 H 1178.87 2.85358 4.05938 0
M  V30 11552 N 1178.05 -0.61812 1.44973 0
M  V30 11553 C 1179.29 -1.3774 1.48439 0
M  V30 11554 C 1179.62 -1.94117 0.121999 0
M  V30 11555 O 1178.88 -1.749 -0.877974 0
M  V30 11556 C 1179.17 -2.55143 2.50274 0
M  V30 11557 C 1178.84 -2.16976 3.95262 0
M  V30 11558 C 1177.5 -2.06281 4.34743 0
M  V30 11559 C 1179.85 -1.8703 4.86486 0
M  V30 11560 C 1177.18 -1.63846 5.63357 0
M  V30 11561 C 1179.53 -1.46085 6.15501 0
M  V30 11562 C 1178.2 -1.3394 6.53924 0
M  V30 11563 H 1177.47 -0.504026 0.543175 0
M  V30 11564 H 1180.12 -0.699685 1.7826 0
M  V30 11565 H 1178.42 -3.28205 2.13983 0
M  V30 11566 H 1180.12 -3.13373 2.50197 0
M  V30 11567 H 1176.71 -2.26223 3.64034 0
M  V30 11568 H 1180.89 -1.94196 4.56729 0
M  V30 11569 H 1176.15 -1.53058 5.91932 0
M  V30 11570 H 1180.32 -1.21956 6.85638 0
M  V30 11571 H 1177.95 -1.00832 7.53483 0
M  V30 11572 N 1179.52 -1.32087 -0.859693 0
M  V30 11573 C 1180.76 -1.23671 -1.62742 0
M  V30 11574 C 1181.13 0.19966 -1.90959 0
M  V30 11575 O 1182.33 0.407478 -2.65694 0
M  V30 11576 C 1180.6 -2.06736 -2.91539 0
M  V30 11577 S 1182.16 -2.15292 -3.82354 0
M  V30 11578 H 1178.98 -0.440306 -0.558258 0
M  V30 11579 H 1181.58 -1.66875 -1.01848 0
M  V30 11580 H 1180.28 -3.10166 -2.68747 0
M  V30 11581 H 1179.81 -1.64291 -3.57452 0
M  V30 11582 H 1181.83 -1.29874 -4.78902 0
M  V30 11583 N 1181 1.07532 -1.15215 0
M  V30 11584 C 1181.95 2.14687 -0.847243 0
M  V30 11585 C 1182.92 1.64903 0.199043 0
M  V30 11586 O 1184.1 1.90682 0.0669986 0
M  V30 11587 C 1181.24 3.43414 -0.340673 0
M  V30 11588 C 1180.36 4.06999 -1.44831 0
M  V30 11589 C 1179.49 5.23554 -0.898059 0
M  V30 11590 C 1178.53 5.79097 -1.98276 0
M  V30 11591 N 1177.67 6.86985 -1.44902 0
M  V30 11592 H 1182.51 2.4011 -1.76498 0
M  V30 11593 H 1180.04 1.17823 -0.880689 0
M  V30 11594 H 1182 4.1719 -0.0286956 0
M  V30 11595 H 1180.63 3.18249 0.540144 0
M  V30 11596 H 1179.68 3.30895 -1.87651 0
M  V30 11597 H 1181 4.44289 -2.26735 0
M  V30 11598 H 1180.15 6.04305 -0.538514 0
M  V30 11599 H 1178.89 4.87676 -0.0481752 0
M  V30 11600 H 1177.89 4.96992 -2.35115 0
M  V30 11601 H 1179.12 6.1703 -2.83639 0
M  V30 11602 H 1177.07 6.5305 -0.621468 0
M  V30 11603 H 1176.98 7.23149 -2.20434 0
M  V30 11604 H 1178.25 7.71446 -1.11767 0
M  V30 11605 N 1182.48 0.948665 1.2585 0
M  V30 11606 C 1183.89 0.641829 1.75321 0
M  V30 11607 C 1184.24 -0.842903 1.77171 0
M  V30 11608 O 1183.37 -1.65967 1.38867 0
M  V30 11609 C 1183.96 1.15835 3.18383 0
M  V30 11610 C 1182.52 0.901784 3.65438 0
M  V30 11611 C 1181.67 1.30489 2.44679 0
M  V30 11612 H 1184.62 1.12614 1.1182 0
M  V30 11613 H 1184.64 0.515639 3.7699 0
M  V30 11614 H 1184.15 2.23897 3.17004 0
M  V30 11615 H 1182.25 -0.164135 3.72238 0
M  V30 11616 H 1182.37 1.53405 4.53876 0
M  V30 11617 H 1180.73 0.723278 2.44215 0
M  V30 11618 H 1181.51 2.3946 2.45996 0
M  V30 11619 N 1183.96 -1.40369 0.716545 0
M  V30 11620 C 1184.91 -2.27963 0.0410169 0
M  V30 11621 C 1185.89 -1.43307 -0.731575 0
M  V30 11622 O 1187.08 -1.66389 -0.603618 0
M  V30 11623 C 1184.21 -3.31849 -0.87927 0
M  V30 11624 C 1183.3 -4.23978 -0.101813 0
M  V30 11625 N 1183.69 -4.97447 0.915437 0
M  V30 11626 C 1181.99 -4.44746 -0.334227 0
M  V30 11627 C 1182.69 -5.65029 1.38266 0
M  V30 11628 N 1181.67 -5.39014 0.704642 0
M  V30 11629 H 1185.47 -2.8221 0.820653 0
M  V30 11630 H 1182.98 -1.52831 0.549217 0
M  V30 11631 H 1184.98 -3.93448 -1.37855 0
M  V30 11632 H 1183.64 -2.79162 -1.65827 0
M  V30 11633 H 1184.65 -5.01414 1.29631 0
M  V30 11634 H 1181.33 -4.03034 -1.08948 0
M  V30 11635 H 1182.72 -6.33886 2.22797 0
M  V30 11636 N 1185.44 -0.462799 -1.50652 0
M  V30 11637 C 1186.68 0.0951853 -2.02576 0
M  V30 11638 C 1187.02 1.40113 -1.34469 0
M  V30 11639 O 1186.29 1.88793 -0.467702 0
M  V30 11640 C 1186.57 0.287603 -3.5895 0
M  V30 11641 C 1186.43 -1.03878 -4.37641 0
M  V30 11642 C 1187.75 1.04593 -4.27491 0
M  V30 11643 H 1184.86 0.0331191 -0.736255 0
M  V30 11644 H 1187.51 -0.606772 -1.80051 0
M  V30 11645 H 1185.66 0.885514 -3.78274 0
M  V30 11646 H 1187.33 -1.67263 -4.29908 0
M  V30 11647 H 1185.57 -1.6374 -4.01711 0
M  V30 11648 H 1186.24 -0.857889 -5.45293 0
M  V30 11649 H 1188.72 0.539213 -4.12591 0
M  V30 11650 H 1187.59 1.14935 -5.36732 0
M  V30 11651 H 1187.86 2.08045 -3.90089 0
M  V30 11652 N 1186.91 1.56388 -0.195085 0
M  V30 11653 C 1188.15 1.99478 0.445855 0
M  V30 11654 C 1188.52 1.0792 1.588 0
M  V30 11655 O 1189.72 1.40246 2.29313 0
M  V30 11656 C 1187.99 3.46032 0.894248 0
M  V30 11657 S 1189.55 4.11149 1.53303 0
M  V30 11658 H 1186.37 0.696558 0.142575 0
M  V30 11659 H 1188.97 1.93213 -0.298149 0
M  V30 11660 H 1187.67 4.10366 0.0529258 0
M  V30 11661 H 1187.2 3.56114 1.67172 0
M  V30 11662 H 1189.22 4.08155 2.82177 0
M  V30 11663 N 1188.39 -0.0785156 1.57404 0
M  V30 11664 C 1189.64 -0.777399 1.8655 0
M  V30 11665 C 1189.96 -1.78451 0.786142 0
M  V30 11666 O 1189.23 -1.95016 -0.185911 0
M  V30 11667 H 1187.81 -0.290097 0.688369 0
M  V30 11668 H 1190.47 -0.0562017 1.94819 0
M  V30 11669 H 1189.57 -1.29776 2.83839 0
M  V30 11670 N 1189.87 -1.5367 -0.349747 0
M  V30 11671 C 1190.8 -1.77528 -1.4497 0
M  V30 11672 C 1191.82 -0.656412 -1.4898 0
M  V30 11673 O 1193 -0.933016 -1.52174 0
M  V30 11674 C 1190.1 -1.85445 -2.8366 0
M  V30 11675 C 1189.28 -3.15295 -3.03163 0
M  V30 11676 C 1188.34 -3.1425 -4.22059 0
M  V30 11677 O 1187.36 -3.87994 -4.16472 0
M  V30 11678 N 1188.56 -2.36181 -5.30282 0
M  V30 11679 H 1191.33 -2.72444 -1.24877 0
M  V30 11680 H 1188.89 -1.52644 -0.539586 0
M  V30 11681 H 1190.88 -1.82204 -3.61364 0
M  V30 11682 H 1189.45 -0.977436 -2.96926 0
M  V30 11683 H 1188.67 -3.31711 -2.12983 0
M  V30 11684 H 1189.96 -4.01078 -3.13072 0
M  V30 11685 H 1189.36 -1.75808 -5.37688 0
M  V30 11686 H 1187.92 -2.38744 -6.06502 0
M  V30 11687 N 1191.35 0.610423 -1.45298 0
M  V30 11688 C 1192.31 1.70324 -1.5337 0
M  V30 11689 C 1193.31 1.55393 -0.413492 0
M  V30 11690 O 1194.5 1.60512 -0.676872 0
M  V30 11691 C 1191.63 3.09572 -1.42752 0
M  V30 11692 H 1192.83 1.64535 -2.50736 0
M  V30 11693 H 1190.38 0.825906 -1.32697 0
M  V30 11694 H 1191.11 3.2094 -0.465601 0
M  V30 11695 H 1190.9 3.21817 -2.24 0
M  V30 11696 H 1192.39 3.89178 -1.51427 0
M  V30 11697 N 1192.83 1.32541 0.852676 0
M  V30 11698 C 1194.07 1.24532 1.62083 0
M  V30 11699 C 1194.43 -0.189531 1.91062 0
M  V30 11700 O 1195.63 -0.393382 2.65906 0
M  V30 11701 C 1193.9 2.0828 2.90438 0
M  V30 11702 S 1195.46 2.17317 3.81207 0
M  V30 11703 H 1192.28 0.443261 0.555915 0
M  V30 11704 H 1194.88 1.67413 1.00961 0
M  V30 11705 H 1193.59 3.11587 2.67099 0
M  V30 11706 H 1193.12 1.66184 3.56576 0
M  V30 11707 H 1195.13 1.32412 4.78207 0
M  V30 11708 N 1194.3 -1.0692 1.15784 0
M  V30 11709 C 1195.27 -2.12407 0.861167 0
M  V30 11710 C 1196.27 -1.6018 -0.141031 0
M  V30 11711 O 1197.46 -1.73972 0.0891192 0
M  V30 11712 C 1194.59 -3.39693 0.286636 0
M  V30 11713 H 1195.78 -2.40157 1.79623 0
M  V30 11714 H 1193.34 -1.22881 0.965916 0
M  V30 11715 H 1194.07 -3.17587 -0.656417 0
M  V30 11716 H 1193.86 -3.78903 1.0087 0
M  V30 11717 H 1195.35 -4.17488 0.0967971 0
M  V30 11718 N 1195.78 -0.955326 -1.25345 0
M  V30 11719 C 1197.01 -0.627233 -1.97688 0
M  V30 11720 C 1197.43 0.793973 -1.70522 0
M  V30 11721 O 1196.79 1.537 -0.961556 0
M  V30 11722 C 1196.84 -0.892969 -3.49369 0
M  V30 11723 O 1195.94 0.0278871 -4.12391 0
M  V30 11724 H 1195.28 -0.238402 -0.619726 0
M  V30 11725 H 1197.81 -1.28211 -1.59446 0
M  V30 11726 H 1197.82 -0.819517 -3.99685 0
M  V30 11727 H 1196.5 -1.92879 -3.6847 0
M  V30 11728 H 1195.08 -0.0978295 -3.72772 0
M  V30 11729 N 1197.26 1.39987 -0.723979 0
M  V30 11730 C 1198.5 2.02587 -0.271647 0
M  V30 11731 C 1198.87 1.56186 1.11669 0
M  V30 11732 O 1200.07 2.10907 1.66648 0
M  V30 11733 C 1198.34 3.55604 -0.357851 0
M  V30 11734 S 1199.9 4.38797 0.0162614 0
M  V30 11735 H 1196.71 0.702878 -0.10716 0
M  V30 11736 H 1199.32 1.70974 -0.948057 0
M  V30 11737 H 1198.02 3.86866 -1.36977 0
M  V30 11738 H 1197.55 3.91956 0.336754 0
M  V30 11739 H 1199.57 4.80564 1.23582 0
M  V30 11740 N 1198.74 0.470782 1.50404 0
M  V30 11741 C 1199.69 -0.32355 2.28521 0
M  V30 11742 C 1200.66 -0.987472 1.3356 0
M  V30 11743 O 1201.84 -0.999969 1.62497 0
M  V30 11744 C 1198.98 -1.39977 3.15437 0
M  V30 11745 C 1198.09 -0.750656 4.25428 0
M  V30 11746 C 1197.23 -1.80474 4.99602 0
M  V30 11747 C 1196.27 -1.13586 6.01469 0
M  V30 11748 N 1195.41 -2.13279 6.68922 0
M  V30 11749 H 1200.25 0.348902 2.9595 0
M  V30 11750 H 1197.78 0.183908 1.45946 0
M  V30 11751 H 1199.74 -2.0354 3.6418 0
M  V30 11752 H 1198.37 -2.04139 2.50054 0
M  V30 11753 H 1197.42 -0.00247092 3.804 0
M  V30 11754 H 1198.73 -0.222638 4.98303 0
M  V30 11755 H 1197.89 -2.51619 5.52062 0
M  V30 11756 H 1196.63 -2.36657 4.26433 0
M  V30 11757 H 1195.63 -0.410042 5.48269 0
M  V30 11758 H 1196.86 -0.580935 6.76611 0
M  V30 11759 H 1194.8 -2.68479 5.98544 0
M  V30 11760 H 1194.72 -1.65461 7.37671 0
M  V30 11761 H 1195.99 -2.83804 7.26 0
M  V30 11762 N 1200.22 -1.56282 0.203376 0
M  V30 11763 C 1201.49 -1.89587 -0.481256 0
M  V30 11764 C 1201.87 -1.11812 -1.79057 0
M  V30 11765 O 1201.22 -0.221759 -2.27421 0
M  V30 11766 C 1201.43 -3.42071 -0.691965 0
M  V30 11767 C 1202.78 -4.12471 -1.00761 0
M  V30 11768 O 1203.8 -3.47568 -0.779396 0
M  V30 11769 O 1202.66 -5.27194 -1.43974 0
M  V30 11770 H 1199.76 -0.787682 -0.251963 0
M  V30 11771 H 1202.3 -1.67934 0.244207 0
M  V30 11772 H 1201.08 -3.9061 0.232322 0
M  V30 11773 H 1200.7 -3.69444 -1.46958 0
M  V30 11774 N 1201.7 0.070167 -1.57444 0
M  V30 11775 C 1202.94 0.767495 -1.8696 0
M  V30 11776 C 1203.26 1.78032 -0.795595 0
M  V30 11777 O 1202.53 1.95112 0.175566 0
M  V30 11778 H 1201.11 0.286443 -0.689898 0
M  V30 11779 H 1203.78 0.0458692 -1.94846 0
M  V30 11780 H 1202.87 1.28269 -2.84523 0
M  V30 11781 N 1203.17 1.53854 0.341593 0
M  V30 11782 C 1204.42 1.71194 1.08162 0
M  V30 11783 C 1204.75 0.47614 1.88582 0
M  V30 11784 O 1204 -0.542115 1.88041 0
M  V30 11785 C 1204.3 2.92844 2.04884 0
M  V30 11786 C 1203.97 4.28366 1.40759 0
M  V30 11787 C 1202.63 4.65214 1.23 0
M  V30 11788 C 1204.98 5.12546 0.945819 0
M  V30 11789 C 1202.31 5.83857 0.576852 0
M  V30 11790 C 1204.66 6.31857 0.306568 0
M  V30 11791 C 1203.33 6.67398 0.116677 0
M  V30 11792 H 1202.6 0.626442 0.395792 0
M  V30 11793 H 1205.24 1.88073 0.360688 0
M  V30 11794 H 1203.55 2.70576 2.83365 0
M  V30 11795 H 1205.25 3.03454 2.62139 0
M  V30 11796 H 1201.84 3.99366 1.5558 0
M  V30 11797 H 1206.02 4.84609 1.07087 0
M  V30 11798 H 1201.28 6.09967 0.418363 0
M  V30 11799 H 1205.45 6.96375 -0.0593285 0
M  V30 11800 H 1203.08 7.59191 -0.391477 0
M  V30 11801 N 1204.65 -0.602709 1.4562 0
M  V30 11802 C 1205.9 -1.36158 1.49891 0
M  V30 11803 C 1206.23 -1.93977 0.142581 0
M  V30 11804 O 1205.48 -1.75822 -0.859374 0
M  V30 11805 C 1205.78 -2.52474 2.52966 0
M  V30 11806 C 1205.45 -2.12772 3.97541 0
M  V30 11807 C 1204.11 -2.01658 4.36907 0
M  V30 11808 C 1206.46 -1.8186 4.88443 0
M  V30 11809 C 1203.79 -1.57862 5.65063 0
M  V30 11810 C 1206.14 -1.39548 6.17016 0
M  V30 11811 C 1204.8 -1.26997 6.55308 0
M  V30 11812 H 1204.07 -0.498236 0.54849 0
M  V30 11813 H 1206.72 -0.680738 1.78992 0
M  V30 11814 H 1205.03 -3.25917 2.17452 0
M  V30 11815 H 1206.72 -3.10701 2.53507 0
M  V30 11816 H 1203.31 -2.22349 3.66413 0
M  V30 11817 H 1207.5 -1.89341 4.58763 0
M  V30 11818 H 1202.75 -1.46771 5.93522 0
M  V30 11819 H 1206.93 -1.14677 6.86893 0
M  V30 11820 H 1204.55 -0.928346 7.5451 0
M  V30 11821 N 1206.13 -1.32992 -0.845635 0
M  V30 11822 C 1207.38 -1.2382 -1.59728 0
M  V30 11823 C 1207.7 0.197724 -1.93995 0
M  V30 11824 O 1206.97 1.12477 -1.60392 0
M  V30 11825 H 1205.55 -0.455296 -0.592212 0
M  V30 11826 H 1208.21 -1.66627 -1.01101 0
M  V30 11827 H 1207.31 -1.82717 -2.53023 0
M  V30 11828 N 1207.61 1.06304 -1.1635 0
M  V30 11829 C 1208.54 2.15745 -0.893103 0
M  V30 11830 C 1209.52 1.69341 0.160531 0
M  V30 11831 O 1210.7 1.94196 0.0126526 0
M  V30 11832 C 1207.83 3.45066 -0.393287 0
M  V30 11833 C 1206.79 4.04978 -1.38482 0
M  V30 11834 C 1206.11 5.29507 -0.743409 0
M  V30 11835 C 1207.41 4.4377 -2.75438 0
M  V30 11836 H 1209.11 2.38622 -1.80831 0
M  V30 11837 H 1206.65 1.14681 -0.870878 0
M  V30 11838 H 1208.61 4.20964 -0.191607 0
M  V30 11839 H 1207.33 3.21808 0.557426 0
M  V30 11840 H 1205.99 3.31136 -1.57304 0
M  V30 11841 H 1205.64 5.02545 0.213787 0
M  V30 11842 H 1205.34 5.7055 -1.40521 0
M  V30 11843 H 1206.86 6.08102 -0.551746 0
M  V30 11844 H 1208.28 5.1075 -2.60398 0
M  V30 11845 H 1206.67 4.95797 -3.38091 0
M  V30 11846 H 1207.74 3.54636 -3.30699 0
M  V30 11847 N 1209.09 0.96196 1.24836 0
M  V30 11848 C 1210.36 0.537809 1.88061 0
M  V30 11849 C 1210.74 -0.985023 1.8671 0
M  V30 11850 O 1210.09 -1.85394 1.33572 0
M  V30 11851 C 1210.3 1.12279 3.30446 0
M  V30 11852 C 1211.65 1.20414 4.07168 0
M  V30 11853 O 1212.67 1.07488 3.39595 0
M  V30 11854 O 1211.53 1.4078 5.28056 0
M  V30 11855 H 1208.63 0.178491 0.807509 0
M  V30 11856 H 1211.17 1.05586 1.32852 0
M  V30 11857 H 1209.94 2.16578 3.25898 0
M  V30 11858 H 1209.57 0.58843 3.93222 0
M  V30 11859 N 1210.56 -1.39601 0.731392 0
M  V30 11860 C 1211.5 -2.29147 0.0494974 0
M  V30 11861 C 1212.51 -1.46635 -0.707248 0
M  V30 11862 O 1213.7 -1.6975 -0.552008 0
M  V30 11863 C 1210.8 -3.25191 -0.954152 0
M  V30 11864 C 1209.97 -4.36629 -0.259674 0
M  V30 11865 C 1209.03 -5.13007 -1.17092 0
M  V30 11866 O 1208.06 -5.65479 -0.64976 0
M  V30 11867 N 1209.26 -5.23865 -2.50092 0
M  V30 11868 H 1212.02 -2.88308 0.818433 0
M  V30 11869 H 1209.58 -1.51142 0.580316 0
M  V30 11870 H 1211.58 -3.73161 -1.56629 0
M  V30 11871 H 1210.15 -2.67085 -1.62432 0
M  V30 11872 H 1209.37 -3.90582 0.532888 0
M  V30 11873 H 1210.65 -5.08317 0.221753 0
M  V30 11874 H 1210.05 -4.82745 -2.94913 0
M  V30 11875 H 1208.61 -5.75288 -3.0641 0
M  V30 11876 N 1212.04 -0.478751 -1.50152 0
M  V30 11877 C 1213.01 0.300181 -2.27226 0
M  V30 11878 C 1214.01 0.913705 -1.32318 0
M  V30 11879 O 1215.2 0.781692 -1.55677 0
M  V30 11880 C 1212.33 1.42838 -3.09532 0
M  V30 11881 H 1213.52 -0.375845 -2.97536 0
M  V30 11882 H 1211.07 -0.233037 -1.54553 0
M  V30 11883 H 1211.81 2.13923 -2.43737 0
M  V30 11884 H 1211.59 0.994161 -3.79287 0
M  V30 11885 H 1213.08 1.97765 -3.67802 0
M  V30 11886 N 1213.52 1.56172 -0.211661 0
M  V30 11887 C 1214.8 1.8984 0.471195 0
M  V30 11888 C 1215.18 1.1276 1.78461 0
M  V30 11889 O 1214.53 0.233817 2.27301 0
M  V30 11890 C 1214.74 3.42434 0.673814 0
M  V30 11891 C 1216.08 4.13 0.985719 0
M  V30 11892 O 1217.11 3.47977 0.760953 0
M  V30 11893 O 1215.97 5.2795 1.41176 0
M  V30 11894 H 1213.06 0.789008 0.247782 0
M  V30 11895 H 1215.61 1.67802 -0.25311 0
M  V30 11896 H 1214.38 3.90481 -0.253034 0
M  V30 11897 H 1214 3.70218 1.44997 0
M  V30 11898 N 1215 -0.0618163 1.57479 0
M  V30 11899 C 1216.23 -0.770605 1.9169 0
M  V30 11900 C 1216.64 -1.71134 0.806841 0
M  V30 11901 O 1215.98 -1.8228 -0.228002 0
M  V30 11902 C 1216.04 -1.60962 3.21452 0
M  V30 11903 C 1215.71 -0.837193 4.49266 0
M  V30 11904 C 1216.7 -0.151964 5.19678 0
M  V30 11905 C 1214.39 -0.801414 4.95866 0
M  V30 11906 C 1216.38 0.558705 6.34947 0
M  V30 11907 C 1214.07 -0.0869788 6.11038 0
M  V30 11908 C 1215.07 0.591871 6.80431 0
M  V30 11909 O 1214.75 1.29478 7.93405 0
M  V30 11910 H 1214.49 -0.223673 0.637923 0
M  V30 11911 H 1217.04 -0.0333424 2.05373 0
M  V30 11912 H 1215.27 -2.38992 3.04006 0
M  V30 11913 H 1216.96 -2.19799 3.41238 0
M  V30 11914 H 1217.73 -0.170848 4.84699 0
M  V30 11915 H 1213.6 -1.31927 4.4172 0
M  V30 11916 H 1217.15 1.08913 6.89046 0
M  V30 11917 H 1213.05 -0.066057 6.45466 0
M  V30 11918 H 1213.81 1.20507 8.0958 0
M  V30 11919 N 1216.48 -1.54033 -0.333429 0
M  V30 11920 C 1217.72 -1.71765 -1.07252 0
M  V30 11921 C 1218.05 -0.486135 -1.88327 0
M  V30 11922 O 1217.31 0.532135 -1.88326 0
M  V30 11923 C 1217.61 -2.93926 -2.03328 0
M  V30 11924 C 1217.27 -4.29107 -1.38486 0
M  V30 11925 C 1215.93 -4.6586 -1.20532 0
M  V30 11926 C 1218.29 -5.13041 -0.918624 0
M  V30 11927 C 1215.61 -5.84155 -0.545881 0
M  V30 11928 C 1217.97 -6.3201 -0.273055 0
M  V30 11929 C 1216.63 -6.67451 -0.0812815 0
M  V30 11930 H 1215.9 -0.628532 -0.392464 0
M  V30 11931 H 1218.55 -1.88261 -0.350709 0
M  V30 11932 H 1216.85 -2.72075 -2.81926 0
M  V30 11933 H 1218.55 -3.0484 -2.60526 0
M  V30 11934 H 1215.14 -4.00185 -1.5346 0
M  V30 11935 H 1219.32 -4.8517 -1.04515 0
M  V30 11936 H 1214.58 -6.1018 -0.386009 0
M  V30 11937 H 1218.75 -6.96333 0.0962582 0
M  V30 11938 H 1216.38 -7.58973 0.431734 0
M  V30 11939 N 1217.95 0.594978 -1.45938 0
M  V30 11940 C 1219.2 1.35093 -1.50314 0
M  V30 11941 C 1219.52 1.94412 -0.151315 0
M  V30 11942 O 1218.79 1.77876 0.820787 0
M  V30 11943 H 1217.37 0.501549 -0.553586 0
M  V30 11944 H 1220.04 0.697735 -1.81983 0
M  V30 11945 H 1219.13 2.16393 -2.24901 0
M  V30 11946 N 1219.43 1.33438 0.838571 0
M  V30 11947 C 1220.67 1.26245 1.60753 0
M  V30 11948 C 1221.04 -0.169255 1.91253 0
M  V30 11949 O 1222.24 -0.365157 2.66308 0
M  V30 11950 C 1220.51 2.11348 2.88213 0
M  V30 11951 S 1222.07 2.21348 3.78881 0
M  V30 11952 H 1218.89 0.449132 0.551182 0
M  V30 11953 H 1221.49 1.68474 0.991798 0
M  V30 11954 H 1220.19 3.14402 2.63779 0
M  V30 11955 H 1219.72 1.69957 3.54793 0
M  V30 11956 H 1221.74 1.37477 4.76775 0
M  V30 11957 N 1220.91 -1.05686 1.16912 0
M  V30 11958 C 1222.33 -1.30744 0.915327 0
M  V30 11959 C 1222.53 -1.96895 -0.428344 0
M  V30 11960 O 1221.58 -2.23941 -1.16647 0
M  V30 11961 C 1222.9 -2.18209 2.06894 0
M  V30 11962 C 1224.44 -2.31607 2.1054 0
M  V30 11963 C 1224.92 -3.2243 3.25273 0
M  V30 11964 N 1226.41 -3.30015 3.2503 0
M  V30 11965 C 1227.14 -4.00401 4.10447 0
M  V30 11966 N 1226.64 -4.73256 5.05965 0
M  V30 11967 N 1228.43 -3.96514 3.98413 0
M  V30 11968 H 1220.58 -0.611449 2.03409 0
M  V30 11969 H 1222.85 -0.332188 0.887894 0
M  V30 11970 H 1222.55 -1.76887 3.0398 0
M  V30 11971 H 1222.43 -3.18823 2.01573 0
M  V30 11972 H 1224.81 -2.72173 1.14044 0
M  V30 11973 H 1224.9 -1.30639 2.19925 0
M  V30 11974 H 1224.54 -2.82579 4.22032 0
M  V30 11975 H 1224.47 -4.23392 3.13125 0
M  V30 11976 H 1226.96 -2.781 2.55869 0
M  V30 11977 H 1227.27 -5.24509 5.67547 0
M  V30 11978 H 1225.62 -4.72215 5.09939 0
M  V30 11979 H 1228.81 -3.38719 3.2309 0
M  V30 11980 H 1228.98 -4.511 4.65202 0
M  V30 11981 N 1222.39 -0.968567 -1.24324 0
M  V30 11982 C 1223.61 -0.648166 -1.97012 0
M  V30 11983 C 1224.04 0.775842 -1.71354 0
M  V30 11984 O 1223.4 1.52672 -0.977804 0
M  V30 11985 C 1223.44 -0.929974 -3.48402 0
M  V30 11986 O 1222.55 -0.015854 -4.12397 0
M  V30 11987 H 1221.89 -0.244961 -0.617163 0
M  V30 11988 H 1224.42 -1.29895 -1.58077 0
M  V30 11989 H 1224.43 -0.861863 -3.98793 0
M  V30 11990 H 1223.1 -1.96776 -3.66404 0
M  V30 11991 H 1221.68 -0.137361 -3.72647 0
M  V30 11992 N 1223.87 1.39211 -0.738786 0
M  V30 11993 C 1225.11 2.02287 -0.293119 0
M  V30 11994 C 1225.47 1.57361 1.10006 0
M  V30 11995 O 1226.67 2.12663 1.64402 0
M  V30 11996 C 1224.94 3.55204 -0.395547 0
M  V30 11997 S 1226.5 4.3879 -0.0302798 0
M  V30 11998 H 1223.32 0.701702 -0.114609 0
M  V30 11999 H 1225.92 1.69959 -0.966138 0
M  V30 12000 H 1224.63 3.85392 -1.41072 0
M  V30 12001 H 1224.16 3.92291 0.295163 0
M  V30 12002 H 1226.17 4.81848 1.18478 0
M  V30 12003 N 1225.34 0.486708 1.49896 0
M  V30 12004 C 1226.76 0.141788 1.58969 0
M  V30 12005 C 1226.96 -1.35279 1.49338 0
M  V30 12006 O 1226.02 -2.1275 1.35992 0
M  V30 12007 C 1227.33 0.70588 2.92297 0
M  V30 12008 C 1228.88 0.670704 3.0573 0
M  V30 12009 C 1229.35 1.21261 4.41656 0
M  V30 12010 N 1230.84 1.17269 4.4811 0
M  V30 12011 C 1231.58 1.56233 5.51705 0
M  V30 12012 N 1231.07 2.02721 6.62477 0
M  V30 12013 N 1232.87 1.47738 5.42337 0
M  V30 12014 H 1225.02 1.45858 1.544 0
M  V30 12015 H 1227.28 0.604137 0.730563 0
M  V30 12016 H 1226.99 1.7535 3.04869 0
M  V30 12017 H 1226.86 0.158215 3.76868 0
M  V30 12018 H 1229.25 -0.368041 2.92796 0
M  V30 12019 H 1229.33 1.25535 2.22878 0
M  V30 12020 H 1228.97 2.25006 4.5534 0
M  V30 12021 H 1228.9 0.604031 5.23124 0
M  V30 12022 H 1231.39 0.831905 3.6863 0
M  V30 12023 H 1231.71 2.3056 7.37606 0
M  V30 12024 H 1230.05 2.06686 6.63556 0
M  V30 12025 H 1233.24 1.11249 4.54688 0
M  V30 12026 H 1233.42 1.78429 6.2295 0
M  V30 12027 N 1226.82 -1.56058 0.219941 0
M  V30 12028 C 1228.06 -2.00162 -0.414063 0
M  V30 12029 C 1228.43 -1.10432 -1.57063 0
M  V30 12030 O 1229.63 -1.43877 -2.27053 0
M  V30 12031 C 1227.9 -3.47411 -0.839084 0
M  V30 12032 S 1229.46 -4.13536 -1.46742 0
M  V30 12033 H 1226.28 -0.698738 -0.131475 0
M  V30 12034 H 1228.88 -1.92714 0.32885 0
M  V30 12035 H 1227.58 -4.10398 0.0123666 0
M  V30 12036 H 1227.11 -3.58728 -1.61485 0
M  V30 12037 H 1229.13 -4.12592 -2.75648 0
M  V30 12038 N 1228.3 0.053464 -1.57509 0
M  V30 12039 C 1229.58 0.783141 -1.79238 0
M  V30 12040 C 1229.96 1.94855 -0.812069 0
M  V30 12041 O 1229.31 2.28 0.151006 0
M  V30 12042 C 1229.52 1.239 -3.26266 0
M  V30 12043 C 1230.86 1.66492 -3.90596 0
M  V30 12044 O 1231.89 1.33421 -3.30269 0
M  V30 12045 O 1230.75 2.27785 -4.96766 0
M  V30 12046 H 1227.84 0.376696 -0.736226 0
M  V30 12047 H 1230.39 0.0321229 -1.6967 0
M  V30 12048 H 1229.16 0.405948 -3.89189 0
M  V30 12049 H 1228.78 2.05078 -3.4063 0
M  V30 12050 N 1229.78 1.54207 0.325255 0
M  V30 12051 C 1231.03 1.71544 1.06091 0
M  V30 12052 C 1231.34 0.495137 1.89229 0
M  V30 12053 O 1232.55 0.54982 2.65874 0
M  V30 12054 C 1231 3.03412 1.93569 0
M  V30 12055 C 1230.61 4.32842 1.1555 0
M  V30 12056 C 1232.36 3.30113 2.66881 0
M  V30 12057 C 1230.26 5.55773 2.02164 0
M  V30 12058 H 1229.19 0.639281 0.399795 0
M  V30 12059 H 1231.84 1.80701 0.319261 0
M  V30 12060 H 1230.23 2.88158 2.71626 0
M  V30 12061 H 1231.4 4.58857 0.42276 0
M  V30 12062 H 1229.71 4.12893 0.539277 0
M  V30 12063 H 1232.31 4.19151 3.31988 0
M  V30 12064 H 1232.65 2.47918 3.34428 0
M  V30 12065 H 1233.19 3.46227 1.95887 0
M  V30 12066 H 1229.93 6.40565 1.39128 0
M  V30 12067 H 1229.45 5.3398 2.73177 0
M  V30 12068 H 1231.13 5.92113 2.60789 0
M  V30 12069 N 1231.26 -0.58723 1.46251 0
M  V30 12070 C 1232.51 -1.34294 1.51028 0
M  V30 12071 C 1232.83 -1.94329 0.161623 0
M  V30 12072 O 1232.1 -1.78309 -0.811342 0
M  V30 12073 H 1230.68 -0.498607 0.556238 0
M  V30 12074 H 1233.34 -0.688074 1.8235 0
M  V30 12075 H 1232.43 -2.15197 2.26045 0
M  V30 12076 N 1232.74 -1.33881 -0.831482 0
M  V30 12077 C 1233.98 -1.25507 -1.58406 0
M  V30 12078 C 1234.3 0.177137 -1.94194 0
M  V30 12079 O 1233.57 1.10769 -1.61576 0
M  V30 12080 H 1232.15 -0.461551 -0.587349 0
M  V30 12081 H 1234.82 -1.6769 -0.99328 0
M  V30 12082 H 1233.91 -1.85391 -2.51071 0
M  V30 12083 N 1234.21 1.05064 -1.1747 0
M  V30 12084 C 1235.18 2.1101 -0.89485 0
M  V30 12085 C 1236.18 1.60384 0.11553 0
M  V30 12086 O 1237.37 1.73808 -0.116785 0
M  V30 12087 C 1234.5 3.39194 -0.340642 0
M  V30 12088 H 1235.69 2.37269 -1.83421 0
M  V30 12089 H 1233.24 1.21329 -0.985343 0
M  V30 12090 H 1233.98 3.18591 0.605808 0
M  V30 12091 H 1233.76 3.77251 -1.06885 0
M  V30 12092 H 1235.25 4.17281 -0.163204 0
M  V30 12093 N 1235.69 0.975146 1.23809 0
M  V30 12094 C 1236.62 0.530389 2.27396 0
M  V30 12095 C 1237.6 -0.433763 1.64476 0
M  V30 12096 O 1238.79 -0.32827 1.91405 0
M  V30 12097 C 1235.92 -0.173066 3.46869 0
M  V30 12098 C 1234.87 0.707844 4.22106 0
M  V30 12099 C 1234.2 -0.127527 5.34548 0
M  V30 12100 C 1235.5 1.99609 4.82652 0
M  V30 12101 H 1237.19 1.39622 2.64851 0
M  V30 12102 H 1234.74 0.672802 1.27316 0
M  V30 12103 H 1236.69 -0.495481 4.18477 0
M  V30 12104 H 1235.41 -1.0733 3.0846 0
M  V30 12105 H 1234.07 1.01364 3.52308 0
M  V30 12106 H 1233.72 -1.02814 4.9238 0
M  V30 12107 H 1233.42 0.458728 5.85807 0
M  V30 12108 H 1234.95 -0.444443 6.0898 0
M  V30 12109 H 1236.36 1.73878 5.46296 0
M  V30 12110 H 1234.76 2.52969 5.44175 0
M  V30 12111 H 1235.83 2.68629 4.03691 0
M  V30 12112 N 1237.17 -1.38817 0.746158 0
M  V30 12113 C 1238.42 -1.99885 0.298425 0
M  V30 12114 C 1238.74 -1.59518 -1.12156 0
M  V30 12115 O 1238.01 -0.848568 -1.76568 0
M  V30 12116 H 1236.59 -0.739247 0.107347 0
M  V30 12117 H 1239.25 -1.69696 0.9586 0
M  V30 12118 H 1238.35 -3.10067 0.355656 0
M  V30 12119 N 1238.65 -0.49465 -1.49636 0
M  V30 12120 C 1239.58 0.323781 -2.26902 0
M  V30 12121 C 1240.59 0.936281 -1.33183 0
M  V30 12122 O 1241.78 0.820695 -1.58514 0
M  V30 12123 C 1238.88 1.47025 -3.05347 0
M  V30 12124 C 1238.05 0.966228 -4.26594 0
M  V30 12125 C 1237.11 1.98955 -4.87138 0
M  V30 12126 O 1236.14 1.56065 -5.47387 0
M  V30 12127 N 1237.34 3.3195 -4.76224 0
M  V30 12128 H 1240.11 -0.338716 -2.9778 0
M  V30 12129 H 1237.67 -0.326817 -1.58567 0
M  V30 12130 H 1239.66 2.15225 -3.42725 0
M  V30 12131 H 1238.23 2.03702 -2.37117 0
M  V30 12132 H 1237.45 0.109336 -3.94048 0
M  V30 12133 H 1238.74 0.607781 -5.05157 0
M  V30 12134 H 1238.14 3.69488 -4.28363 0
M  V30 12135 H 1236.69 3.95881 -5.17805 0
M  V30 12136 N 1240.13 1.55939 -0.228214 0
M  V30 12137 C 1241.35 2.0332 0.409364 0
M  V30 12138 C 1241.78 1.10683 1.52088 0
M  V30 12139 O 1241.13 0.0962484 1.81044 0
M  V30 12140 C 1241.18 3.48877 0.911981 0
M  V30 12141 O 1240.29 3.59378 2.02289 0
M  V30 12142 H 1239.63 0.657625 0.0917909 0
M  V30 12143 H 1242.16 2.01605 -0.348802 0
M  V30 12144 H 1242.17 3.89331 1.22007 0
M  V30 12145 H 1240.84 4.15783 0.0984902 0
M  V30 12146 H 1239.42 3.30815 1.72093 0
M  V30 12147 N 1241.6 -0.0451101 1.57535 0
M  V30 12148 C 1242.84 -0.744146 1.90373 0
M  V30 12149 C 1243.21 -1.7337 0.825039 0
M  V30 12150 O 1244.41 -2.4798 1.03726 0
M  V30 12151 C 1242.68 -1.41028 3.28399 0
M  V30 12152 S 1244.24 -2.14069 3.8304 0
M  V30 12153 H 1241.06 -0.246888 0.666759 0
M  V30 12154 H 1243.66 0.000729019 1.955 0
M  V30 12155 H 1242.36 -0.67663 4.04784 0
M  V30 12156 H 1241.89 -2.19404 3.26536 0
M  V30 12157 H 1243.91 -3.40988 3.60474 0
M  V30 12158 N 1243.08 -1.54377 -0.317073 0
M  V30 12159 C 1243.99 -1.87247 -1.41335 0
M  V30 12160 C 1245.01 -0.765017 -1.5628 0
M  V30 12161 O 1246.18 -1.05994 -1.71252 0
M  V30 12162 C 1243.25 -2.0988 -2.75955 0
M  V30 12163 C 1242.31 -3.33658 -2.70131 0
M  V30 12164 C 1241.54 -3.55202 -3.9833 0
M  V30 12165 O 1241.77 -2.80061 -4.96913 0
M  V30 12166 O 1240.7 -4.48693 -4.01196 0
M  V30 12167 H 1244.53 -2.80481 -1.16465 0
M  V30 12168 H 1242.11 -1.40364 -0.511687 0
M  V30 12169 H 1243.99 -2.2606 -3.55633 0
M  V30 12170 H 1242.67 -1.19834 -3.00702 0
M  V30 12171 H 1241.58 -3.22857 -1.88981 0
M  V30 12172 H 1242.91 -4.23782 -2.50338 0
M  V30 12173 N 1244.56 0.579466 -1.4656 0
M  V30 12174 C 1245.97 1.1616 -1.46164 0
M  V30 12175 C 1246.32 1.95134 -0.20423 0
M  V30 12176 O 1245.45 2.05022 0.692457 0
M  V30 12177 C 1246.04 2.11322 -2.64818 0
M  V30 12178 C 1244.6 2.64852 -2.67452 0
M  V30 12179 C 1243.75 1.40786 -2.38903 0
M  V30 12180 H 1246.7 0.367229 -1.54393 0
M  V30 12181 H 1246.72 2.94839 -2.4052 0
M  V30 12182 H 1246.23 1.53815 -3.56318 0
M  V30 12183 H 1244.33 3.26219 -1.80032 0
M  V30 12184 H 1244.45 3.07366 -3.67509 0
M  V30 12185 H 1242.81 1.70707 -1.89027 0
M  V30 12186 H 1243.59 0.851049 -3.32584 0
M  V30 12187 N 1246.04 1.3432 0.824371 0
M  V30 12188 C 1247.45 1.1397 1.11727 0
M  V30 12189 C 1247.65 -0.0597597 2.01411 0
M  V30 12190 O 1246.71 -0.735717 2.41544 0
M  V30 12191 C 1248.02 2.43423 1.76538 0
M  V30 12192 C 1249.57 2.49466 1.89039 0
M  V30 12193 C 1250.05 3.78917 2.57266 0
M  V30 12194 N 1251.54 3.8007 2.64767 0
M  V30 12195 C 1252.27 4.76953 3.18282 0
M  V30 12196 N 1251.77 5.84217 3.72373 0
M  V30 12197 N 1253.56 4.6441 3.1667 0
M  V30 12198 H 1245.71 2.11175 0.227802 0
M  V30 12199 H 1247.98 0.933774 0.163615 0
M  V30 12200 H 1247.68 3.31278 1.18102 0
M  V30 12201 H 1247.56 2.56655 2.7642 0
M  V30 12202 H 1249.94 1.62052 2.46623 0
M  V30 12203 H 1250.02 2.40163 0.880635 0
M  V30 12204 H 1249.67 4.6672 2.00336 0
M  V30 12205 H 1249.6 3.85502 3.58742 0
M  V30 12206 H 1252.09 3.02556 2.26425 0
M  V30 12207 H 1252.4 6.54159 4.11455 0
M  V30 12208 H 1250.75 5.87933 3.70621 0
M  V30 12209 H 1253.94 3.7976 2.73678 0
M  V30 12210 H 1254.11 5.40081 3.58073 0
M  V30 12211 N 1247.52 -1.0444 1.18026 0
M  V30 12212 C 1248.74 -1.81234 0.998089 0
M  V30 12213 C 1249.16 -1.83271 -0.453559 0
M  V30 12214 O 1248.52 -1.26545 -1.31502 0
M  V30 12215 C 1248.57 -3.27007 1.54106 0
M  V30 12216 O 1248.29 -3.25174 2.93587 0
M  V30 12217 C 1249.79 -4.20461 1.40455 0
M  V30 12218 H 1247.01 -0.57085 0.352663 0
M  V30 12219 H 1249.55 -1.31649 1.56489 0
M  V30 12220 H 1247.71 -3.73837 1.01611 0
M  V30 12221 H 1248.12 -4.16466 3.18836 0
M  V30 12222 H 1249.6 -5.20695 1.83249 0
M  V30 12223 H 1250.07 -4.37781 0.352713 0
M  V30 12224 H 1250.68 -3.79493 1.92004 0
M  V30 12225 N 1248.99 -0.981699 -1.2329 0
M  V30 12226 C 1250.24 -0.650015 -1.91361 0
M  V30 12227 C 1250.56 0.819184 -1.76959 0
M  V30 12228 O 1249.83 1.5861 -1.14977 0
M  V30 12229 H 1248.41 -0.237427 -0.708264 0
M  V30 12230 H 1251.08 -1.24579 -1.49887 0
M  V30 12231 H 1250.17 -0.902772 -2.98758 0
M  V30 12232 N 1250.47 1.3842 -0.753509 0
M  V30 12233 C 1251.72 2.00415 -0.310091 0
M  V30 12234 C 1252.05 1.59675 1.10532 0
M  V30 12235 O 1251.33 0.834261 1.757 0
M  V30 12236 C 1251.61 3.57488 -0.432897 0
M  V30 12237 C 1251.46 4.08193 -1.88941 0
M  V30 12238 C 1252.78 4.39757 0.173763 0
M  V30 12239 H 1249.9 0.728107 -0.114147 0
M  V30 12240 H 1252.54 1.64363 -0.953138 0
M  V30 12241 H 1250.69 3.88331 0.114563 0
M  V30 12242 H 1252.36 3.87993 -2.49517 0
M  V30 12243 H 1250.61 3.61063 -2.4045 0
M  V30 12244 H 1251.28 5.17291 -1.9265 0
M  V30 12245 H 1253.75 4.15066 -0.293137 0
M  V30 12246 H 1252.63 5.4887 0.057594 0
M  V30 12247 H 1252.89 4.23704 1.26205 0
M  V30 12248 N 1251.95 0.502579 1.49372 0
M  V30 12249 C 1253.19 -0.0397257 2.04361 0
M  V30 12250 C 1253.55 -1.34131 1.37379 0
M  V30 12251 O 1254.76 -1.96795 1.83099 0
M  V30 12252 C 1253.03 -0.187322 3.56909 0
M  V30 12253 S 1254.59 -0.683647 4.33442 0
M  V30 12254 H 1251.4 -0.00102134 0.710999 0
M  V30 12255 H 1254.01 0.676905 1.83407 0
M  V30 12256 H 1252.71 0.765255 4.03202 0
M  V30 12257 H 1252.24 -0.929146 3.8227 0
M  V30 12258 H 1254.26 -1.95255 4.56169 0
M  V30 12259 N 1253.43 -1.55816 0.23648 0
M  V30 12260 C 1254.84 -1.59159 -0.118601 0
M  V30 12261 C 1255.04 -1.25352 -1.57763 0
M  V30 12262 O 1254.1 -0.995863 -2.32032 0
M  V30 12263 C 1255.41 -2.99885 0.221175 0
M  V30 12264 C 1256.96 -3.12567 0.164624 0
M  V30 12265 C 1257.44 -4.55496 0.478285 0
M  V30 12266 N 1258.93 -4.61215 0.428402 0
M  V30 12267 C 1259.66 -5.69768 0.644398 0
M  V30 12268 N 1259.16 -6.86624 0.922966 0
M  V30 12269 N 1260.95 -5.59143 0.575814 0
M  V30 12270 H 1253.1 -1.76063 1.18809 0
M  V30 12271 H 1255.37 -0.819079 0.477297 0
M  V30 12272 H 1255.07 -3.29326 1.2344 0
M  V30 12273 H 1254.95 -3.74425 -0.456723 0
M  V30 12274 H 1257.33 -2.82914 -0.839263 0
M  V30 12275 H 1257.41 -2.40325 0.876219 0
M  V30 12276 H 1257.06 -4.85868 1.47968 0
M  V30 12277 H 1256.99 -5.25984 -0.254671 0
M  V30 12278 H 1259.48 -3.77251 0.221398 0
M  V30 12279 H 1259.79 -7.6528 1.07548 0
M  V30 12280 H 1258.14 -6.88333 0.960325 0
M  V30 12281 H 1261.33 -4.66727 0.358307 0
M  V30 12282 H 1261.5 -6.43674 0.747548 0
M  V30 12283 N 1254.91 0.036755 -1.57557 0
M  V30 12284 C 1256.15 0.734039 -1.90765 0
M  V30 12285 C 1256.51 1.7293 -0.834222 0
M  V30 12286 O 1257.71 2.47427 -1.0504 0
M  V30 12287 C 1255.98 1.39285 -3.29142 0
M  V30 12288 S 1257.54 2.12035 -3.8417 0
M  V30 12289 H 1254.36 0.243349 -0.668059 0
M  V30 12290 H 1256.96 -0.0110968 -1.95497 0
M  V30 12291 H 1255.67 0.655154 -4.05137 0
M  V30 12292 H 1255.2 2.17669 -3.27694 0
M  V30 12293 H 1257.21 3.39072 -3.62277 0
M  V30 12294 N 1256.39 1.54543 0.308881 0
M  V30 12295 C 1257.8 1.45581 0.654088 0
M  V30 12296 C 1258 0.640597 1.91046 0
M  V30 12297 O 1257.06 0.14518 2.52082 0
M  V30 12298 C 1258.37 2.89461 0.814422 0
M  V30 12299 C 1259.92 2.99455 0.910817 0
M  V30 12300 C 1260.39 4.44515 1.10321 0
M  V30 12301 N 1261.88 4.4819 1.1696 0
M  V30 12302 C 1262.62 5.57604 1.33661 0
M  V30 12303 N 1262.12 6.76957 1.47311 0
M  V30 12304 N 1263.91 5.45278 1.36487 0
M  V30 12305 H 1256.06 2.06019 -0.516699 0
M  V30 12306 H 1258.32 0.932729 -0.169471 0
M  V30 12307 H 1258.03 3.5168 -0.0377455 0
M  V30 12308 H 1257.9 3.36425 1.70582 0
M  V30 12309 H 1260.29 2.37355 1.75348 0
M  V30 12310 H 1260.37 2.558 -0.00443172 0
M  V30 12311 H 1260.01 5.07206 0.265346 0
M  V30 12312 H 1259.94 4.85793 2.03256 0
M  V30 12313 H 1262.44 3.62199 1.07796 0
M  V30 12314 H 1262.75 7.561 1.59788 0
M  V30 12315 H 1261.09 6.79837 1.44382 0
M  V30 12316 H 1264.28 4.50983 1.25429 0
M  V30 12317 H 1264.46 6.30599 1.4916 0
M  V30 12318 N 1257.86 -0.571685 1.46866 0
M  V30 12319 C 1259.27 -1.15383 1.46778 0
M  V30 12320 C 1259.63 -1.95023 0.214576 0
M  V30 12321 O 1258.75 -2.05386 -0.681574 0
M  V30 12322 C 1259.35 -2.09915 2.65935 0
M  V30 12323 C 1257.9 -2.6343 2.68852 0
M  V30 12324 C 1257.05 -1.39517 2.39646 0
M  V30 12325 H 1260 -0.359036 1.54585 0
M  V30 12326 H 1260.02 -2.9356 2.42081 0
M  V30 12327 H 1259.54 -1.51923 3.57129 0
M  V30 12328 H 1257.64 -3.2526 1.8176 0
M  V30 12329 H 1257.75 -3.05412 3.69134 0
M  V30 12330 H 1256.11 -1.69702 1.8993 0
M  V30 12331 H 1256.9 -0.833399 3.33031 0
M  V30 12332 N 1259.34 -1.34755 -0.817236 0
M  V30 12333 C 1260.29 -1.26816 -1.94988 0
M  V30 12334 C 1261.28 -0.165142 -1.68593 0
M  V30 12335 O 1262.49 -0.330469 -1.7694 0
M  V30 12336 H 1258.86 -0.394113 -0.640452 0
M  V30 12337 H 1260.84 -2.22528 -1.98806 0
M  V30 12338 C 1259.58 -1.04625 -3.31586 0
M  V30 12339 H 1258.91 -1.88735 -3.52447 0
M  V30 12340 H 1260.35 -1.03108 -4.11272 0
M  V30 12341 C 1258.81 0.250283 -3.35969 0
M  V30 12342 O 1259.34 1.24972 -3.81765 0
M  V30 12343 N 1257.54 0.285369 -2.89195 0
M  V30 12344 H 1257.09 -0.528528 -2.5212 0
M  V30 12345 H 1257.05 1.15261 -2.9251 0
M  V30 12346 N 1260.82 1.03812 -1.18578 0
M  V30 12347 C 1262.05 1.80702 -1.00769 0
M  V30 12348 C 1262.46 1.83509 0.443833 0
M  V30 12349 O 1261.82 1.2724 1.30829 0
M  V30 12350 C 1261.87 3.26185 -1.55838 0
M  V30 12351 O 1261.59 3.23612 -2.95308 0
M  V30 12352 C 1263.09 4.1971 -1.42682 0
M  V30 12353 H 1260.31 0.568972 -0.355685 0
M  V30 12354 H 1262.86 1.30817 -1.57185 0
M  V30 12355 H 1261.01 3.73293 -1.03592 0
M  V30 12356 H 1261.43 4.14769 -3.2104 0
M  V30 12357 H 1262.9 5.19716 -1.86008 0
M  V30 12358 H 1263.38 4.37588 -0.375924 0
M  V30 12359 H 1263.98 3.78469 -1.94013 0
M  V30 12360 N 1262.3 0.988223 1.22768 0
M  V30 12361 C 1263.23 0.492919 2.23837 0
M  V30 12362 C 1264.24 -0.409467 1.57567 0
M  V30 12363 O 1265.43 -0.21235 1.77232 0
M  V30 12364 C 1262.53 -0.305428 3.37521 0
M  V30 12365 C 1261.7 0.591966 4.33376 0
M  V30 12366 C 1260.76 -0.15387 5.25975 0
M  V30 12367 O 1259.79 0.459153 5.67345 0
M  V30 12368 N 1260.99 -1.43756 5.62418 0
M  V30 12369 H 1263.76 1.36199 2.66965 0
M  V30 12370 H 1261.32 0.862395 1.3702 0
M  V30 12371 H 1263.31 -0.812921 3.96451 0
M  V30 12372 H 1261.88 -1.07556 2.93514 0
M  V30 12373 H 1261.1 1.28019 3.72833 0
M  V30 12374 H 1262.39 1.20327 4.94367 0
M  V30 12375 H 1261.79 -1.95701 5.30771 0
M  V30 12376 H 1260.34 -1.89034 6.23786 0
M  V30 12377 N 1263.78 -1.38018 0.760839 0
M  V30 12378 C 1265.02 -1.99557 0.319609 0
M  V30 12379 C 1265.34 -1.60699 -1.10457 0
M  V30 12380 O 1264.61 -0.867248 -1.75658 0
M  V30 12381 H 1263.19 -0.738066 0.115182 0
M  V30 12382 H 1265.86 -1.6867 0.976544 0
M  V30 12383 H 1264.95 -3.09672 0.388523 0
M  V30 12384 N 1265.25 -0.510493 -1.49103 0
M  V30 12385 C 1266.66 -0.0650831 -1.86587 0
M  V30 12386 C 1267.02 1.35185 -1.42195 0
M  V30 12387 O 1266.14 2.0091 -0.804004 0
M  V30 12388 C 1266.74 -0.111333 -3.38617 0
M  V30 12389 C 1265.29 0.278782 -3.75366 0
M  V30 12390 C 1264.44 -0.479707 -2.73119 0
M  V30 12391 H 1267.39 -0.722784 -1.41285 0
M  V30 12392 H 1267.41 0.681706 -3.74343 0
M  V30 12393 H 1266.93 -1.14271 -3.70896 0
M  V30 12394 H 1265.03 1.31304 -3.48698 0
M  V30 12395 H 1265.14 -0.047271 -4.79077 0
M  V30 12396 H 1263.5 0.0716459 -2.54599 0
M  V30 12397 H 1264.29 -1.51135 -3.08242 0
M  V30 12398 N 1266.73 1.55688 -0.24474 0
M  V30 12399 C 1267.96 2.0329 0.384808 0
M  V30 12400 C 1268.37 1.12405 1.51692 0
M  V30 12401 O 1267.73 0.138056 1.81977 0
M  V30 12402 C 1267.78 3.50255 0.894635 0
M  V30 12403 O 1267.5 4.37677 -0.192365 0
M  V30 12404 C 1269 4.13608 1.59509 0
M  V30 12405 H 1266.22 0.664706 0.0916908 0
M  V30 12406 H 1268.77 2.01162 -0.367973 0
M  V30 12407 H 1266.92 3.52924 1.5976 0
M  V30 12408 H 1267.34 5.2414 0.194424 0
M  V30 12409 H 1268.81 5.1814 1.90356 0
M  V30 12410 H 1269.29 3.5997 2.51631 0
M  V30 12411 H 1269.89 4.14856 0.936749 0
M  V30 12412 N 1268.21 -0.0283989 1.57574 0
M  V30 12413 C 1269.45 -0.723912 1.91151 0
M  V30 12414 C 1269.81 -1.72485 0.843381 0
M  V30 12415 O 1271.01 -2.46866 1.06351 0
M  V30 12416 C 1269.29 -1.37537 3.29876 0
M  V30 12417 S 1270.84 -2.09995 3.85289 0
M  V30 12418 H 1267.66 -0.239802 0.66934 0
M  V30 12419 H 1270.26 0.0214644 1.95488 0
M  V30 12420 H 1268.97 -0.633659 4.05479 0
M  V30 12421 H 1268.5 -2.15928 3.28844 0
M  V30 12422 H 1270.51 -3.37146 3.6407 0
M  V30 12423 N 1269.69 -1.54705 -0.300681 0
M  V30 12424 C 1270.91 -1.78318 -1.05913 0
M  V30 12425 C 1271.34 -0.541177 -1.80147 0
M  V30 12426 O 1270.7 0.508291 -1.74029 0
M  V30 12427 C 1270.74 -2.99041 -2.01511 0
M  V30 12428 O 1269.85 -2.72188 -3.09818 0
M  V30 12429 H 1269.19 -0.590197 -0.304242 0
M  V30 12430 H 1271.72 -2.01789 -0.338006 0
M  V30 12431 H 1271.73 -3.2702 -2.43971 0
M  V30 12432 H 1270.4 -3.89098 -1.46886 0
M  V30 12433 H 1268.98 -2.55227 -2.71871 0
M  V30 12434 N 1271.17 0.563888 -1.47167 0
M  V30 12435 C 1272.08 1.69903 -1.61772 0
M  V30 12436 C 1273.09 1.6664 -0.500705 0
M  V30 12437 O 1274.27 1.86209 -0.767354 0
M  V30 12438 C 1271.33 3.06411 -1.62213 0
M  V30 12439 C 1270.39 3.20793 -2.8529 0
M  V30 12440 C 1269.63 4.50789 -2.85701 0
M  V30 12441 O 1269.85 5.3584 -1.95529 0
M  V30 12442 O 1268.78 4.68819 -3.77481 0
M  V30 12443 H 1272.61 1.60525 -2.57809 0
M  V30 12444 H 1270.2 0.733125 -1.30175 0
M  V30 12445 H 1272.08 3.87659 -1.65221 0
M  V30 12446 H 1270.75 3.16186 -0.693415 0
M  V30 12447 H 1269.66 2.38967 -2.87829 0
M  V30 12448 H 1270.99 3.15918 -3.77434 0
M  V30 12449 N 1272.64 1.35187 0.810078 0
M  V30 12450 C 1274.06 1.25329 1.38381 0
M  V30 12451 C 1274.41 -0.115799 1.95858 0
M  V30 12452 O 1273.53 -1.01663 1.91033 0
M  V30 12453 C 1274.13 2.2693 2.51572 0
M  V30 12454 C 1272.69 2.20824 3.04818 0
M  V30 12455 C 1271.83 2.1283 1.7776 0
M  V30 12456 H 1274.78 1.46366 0.613402 0
M  V30 12457 H 1274.8 1.89375 3.30026 0
M  V30 12458 H 1274.32 3.26563 2.09709 0
M  V30 12459 H 1272.42 1.24589 3.51153 0
M  V30 12460 H 1272.53 3.12637 3.63036 0
M  V30 12461 H 1270.89 1.58752 1.99173 0
M  V30 12462 H 1271.68 3.14318 1.38054 0
M  V30 12463 N 1274.12 -1.03182 1.19127 0
M  V30 12464 C 1275.09 -2.09559 0.928307 0
M  V30 12465 C 1276.09 -1.60548 -0.0899992 0
M  V30 12466 O 1277.28 -1.736 0.144422 0
M  V30 12467 C 1274.41 -3.38609 0.394561 0
M  V30 12468 H 1275.6 -2.34321 1.87173 0
M  V30 12469 H 1273.15 -1.19746 1.00452 0
M  V30 12470 H 1273.89 -3.19515 -0.555046 0
M  V30 12471 H 1273.67 -3.75502 1.12873 0
M  V30 12472 H 1275.16 -4.16969 0.229569 0
M  V30 12473 N 1275.6 -0.99472 -1.22242 0
M  V30 12474 C 1277.02 -0.705762 -1.43147 0
M  V30 12475 C 1277.22 0.722908 -1.88086 0
M  V30 12476 O 1276.27 1.49359 -2.03588 0
M  V30 12477 C 1277.59 -1.71288 -2.47145 0
M  V30 12478 C 1279.13 -1.72853 -2.60942 0
M  V30 12479 C 1279.61 -2.72433 -3.68163 0
M  V30 12480 N 1281.1 -2.71039 -3.75623 0
M  V30 12481 C 1281.83 -3.44753 -4.58184 0
M  V30 12482 N 1281.33 -4.28075 -5.44724 0
M  V30 12483 N 1283.12 -3.33451 -4.52512 0
M  V30 12484 H 1275.27 -1.91738 -0.913792 0
M  V30 12485 H 1277.54 -0.82702 -0.463403 0
M  V30 12486 H 1277.24 -2.7353 -2.21075 0
M  V30 12487 H 1277.12 -1.50721 -3.45779 0
M  V30 12488 H 1279.5 -0.713085 -2.86355 0
M  V30 12489 H 1279.59 -1.9749 -1.62577 0
M  V30 12490 H 1279.23 -3.74129 -3.43497 0
M  V30 12491 H 1279.16 -2.45066 -4.66101 0
M  V30 12492 H 1281.65 -2.10581 -3.1379 0
M  V30 12493 H 1281.96 -4.81143 -6.04749 0
M  V30 12494 H 1280.31 -4.32161 -5.44299 0
M  V30 12495 H 1283.5 -2.67797 -3.8393 0
M  V30 12496 H 1283.67 -3.91158 -5.16623 0
M  V30 12497 N 1277.08 1.37613 -0.768148 0
M  V30 12498 C 1278.36 1.93921 -0.255724 0
M  V30 12499 C 1278.74 1.70215 1.2486 0
M  V30 12500 O 1278.08 1.0489 2.03003 0
M  V30 12501 C 1278.29 3.43354 -0.625204 0
M  V30 12502 C 1279.64 4.20439 -0.592978 0
M  V30 12503 O 1280.67 3.51701 -0.564375 0
M  V30 12504 O 1279.52 5.43008 -0.616849 0
M  V30 12505 H 1276.62 0.824968 -0.0579366 0
M  V30 12506 H 1279.16 1.46921 -0.849257 0
M  V30 12507 H 1277.94 3.54177 -1.66356 0
M  V30 12508 H 1277.56 3.976 -0.00442816 0
M  V30 12509 N 1278.56 0.518393 1.4883 0
M  V30 12510 C 1279.51 -0.270295 2.26392 0
M  V30 12511 C 1280.49 -0.9202 1.31989 0
M  V30 12512 O 1281.68 -0.824923 1.56601 0
M  V30 12513 C 1278.81 -1.32368 3.16755 0
M  V30 12514 C 1277.9 -0.679143 4.18627 0
M  V30 12515 N 1278.29 0.228392 5.05284 0
M  V30 12516 C 1276.59 -0.937712 4.36031 0
M  V30 12517 C 1277.29 0.599076 5.78607 0
M  V30 12518 N 1276.26 -0.0371273 5.43587 0
M  V30 12519 H 1280.07 0.428066 2.90766 0
M  V30 12520 H 1277.58 0.335632 1.58894 0
M  V30 12521 H 1279.58 -1.9023 3.70969 0
M  V30 12522 H 1278.24 -2.02354 2.53935 0
M  V30 12523 H 1279.25 0.600292 5.14409 0
M  V30 12524 H 1275.92 -1.62901 3.84408 0
M  V30 12525 H 1277.31 1.34256 6.5835 0
M  V30 12526 N 1280.03 -1.55556 0.252993 0
M  V30 12527 C 1281.26 -2.03196 -0.37348 0
M  V30 12528 C 1281.67 -1.13145 -1.51641 0
M  V30 12529 O 1281.02 -0.139519 -1.83169 0
M  V30 12530 C 1281.08 -3.47066 -0.937308 0
M  V30 12531 C 1280.74 -4.5694 0.0741513 0
M  V30 12532 C 1281.74 -5.12297 0.885862 0
M  V30 12533 C 1279.42 -5.01894 0.202003 0
M  V30 12534 C 1281.42 -6.11107 1.81182 0
M  V30 12535 C 1279.1 -6.00534 1.13146 0
M  V30 12536 C 1280.1 -6.5502 1.93489 0
M  V30 12537 O 1279.79 -7.51735 2.84868 0
M  V30 12538 H 1279.52 -0.669687 -0.092171 0
M  V30 12539 H 1282.08 -2.01924 0.376264 0
M  V30 12540 H 1280.31 -3.45507 -1.73672 0
M  V30 12541 H 1282 -3.78171 -1.47451 0
M  V30 12542 H 1282.76 -4.78395 0.797707 0
M  V30 12543 H 1278.64 -4.59144 -0.413301 0
M  V30 12544 H 1282.18 -6.53561 2.43935 0
M  V30 12545 H 1278.08 -6.33856 1.22052 0
M  V30 12546 H 1278.85 -7.69373 2.79298 0
M  V30 12547 N 1281.51 0.0200419 -1.57587 0
M  V30 12548 C 1282.44 1.01715 -2.10181 0
M  V30 12549 C 1283.42 1.37136 -1.00636 0
M  V30 12550 O 1284.61 1.45862 -1.2821 0
M  V30 12551 C 1281.74 2.31531 -2.58865 0
M  V30 12552 C 1280.69 2.10327 -3.72755 0
M  V30 12553 C 1280.02 3.45981 -4.07678 0
M  V30 12554 C 1281.32 1.4821 -5.0083 0
M  V30 12555 H 1283.01 0.579307 -2.93742 0
M  V30 12556 H 1280.56 0.277211 -1.41307 0
M  V30 12557 H 1282.51 3.01623 -2.94281 0
M  V30 12558 H 1281.24 2.77392 -1.72399 0
M  V30 12559 H 1279.89 1.42665 -3.37701 0
M  V30 12560 H 1279.54 3.89508 -3.18265 0
M  V30 12561 H 1279.24 3.32616 -4.84397 0
M  V30 12562 H 1280.77 4.17421 -4.45637 0
M  V30 12563 H 1282.18 2.08232 -5.34146 0
M  V30 12564 H 1280.58 1.45393 -5.82221 0
M  V30 12565 H 1281.65 0.448942 -4.82817 0
M  V30 12566 N 1282.99 1.54862 0.292472 0
M  V30 12567 C 1284.4 1.65459 0.864891 0
M  V30 12568 C 1284.75 0.568808 1.87774 0
M  V30 12569 O 1283.88 -0.293107 2.14406 0
M  V30 12570 C 1284.47 2.99939 1.5755 0
M  V30 12571 C 1283.03 3.12628 2.09621 0
M  V30 12572 C 1282.18 2.61179 0.931713 0
M  V30 12573 H 1285.13 1.58549 0.0692679 0
M  V30 12574 H 1285.15 2.91839 2.44152 0
M  V30 12575 H 1284.66 3.78943 0.838088 0
M  V30 12576 H 1282.76 2.3836 2.86383 0
M  V30 12577 H 1282.88 4.18911 2.32488 0
M  V30 12578 H 1281.24 2.17846 1.31967 0
M  V30 12579 H 1282.02 3.42669 0.208121 0
M  V30 12580 N 1284.47 -0.556076 1.47464 0
M  V30 12581 C 1285.75 -1.31689 1.44628 0
M  V30 12582 C 1286.13 -2.10609 0.143841 0
M  V30 12583 O 1285.47 -2.11097 -0.874662 0
M  V30 12584 C 1285.68 -2.22045 2.69253 0
M  V30 12585 C 1287.03 -2.83028 3.16513 0
M  V30 12586 O 1288.06 -2.32346 2.69988 0
M  V30 12587 O 1286.91 -3.75148 3.97399 0
M  V30 12588 H 1284.01 -0.593026 0.576411 0
M  V30 12589 H 1286.55 -0.574885 1.59666 0
M  V30 12590 H 1285.33 -1.63337 3.5558 0
M  V30 12591 H 1284.95 -3.03539 2.56807 0
M  V30 12592 N 1285.95 -1.35615 -0.802897 0
M  V30 12593 C 1286.88 -1.31506 -1.92947 0
M  V30 12594 C 1287.86 -0.188843 -1.69048 0
M  V30 12595 O 1289.04 -0.384384 -1.90358 0
M  V30 12596 C 1286.17 -1.09001 -3.29752 0
M  V30 12597 C 1285.13 -2.18303 -3.68141 0
M  V30 12598 C 1284.45 -1.80959 -5.03148 0
M  V30 12599 C 1285.75 -3.60296 -3.78132 0
M  V30 12600 H 1287.45 -2.25771 -1.96642 0
M  V30 12601 H 1284.99 -1.08682 -0.944685 0
M  V30 12602 H 1286.95 -1.04766 -4.08169 0
M  V30 12603 H 1285.67 -0.111832 -3.26408 0
M  V30 12604 H 1284.33 -2.21642 -2.92011 0
M  V30 12605 H 1283.98 -0.817495 -4.96312 0
M  V30 12606 H 1283.68 -2.54129 -5.29804 0
M  V30 12607 H 1285.2 -1.78255 -5.84001 0
M  V30 12608 H 1286.62 -3.59259 -4.46773 0
M  V30 12609 H 1285.01 -4.32258 -4.16261 0
M  V30 12610 H 1286.08 -3.9618 -2.79588 0
M  V30 12611 N 1287.43 1.02549 -1.19673 0
M  V30 12612 C 1288.38 2.09257 -0.905282 0
M  V30 12613 C 1289.36 1.60363 0.131302 0
M  V30 12614 O 1290.55 1.76842 -0.0748563 0
M  V30 12615 C 1287.68 3.40345 -0.449474 0
M  V30 12616 C 1286.77 3.95964 -1.51899 0
M  V30 12617 N 1287.16 4.25203 -2.73926 0
M  V30 12618 C 1285.46 4.24013 -1.38307 0
M  V30 12619 C 1286.16 4.69925 -3.42849 0
M  V30 12620 N 1285.13 4.71664 -2.70248 0
M  V30 12621 H 1288.93 2.29761 -1.83268 0
M  V30 12622 H 1286.45 1.2044 -1.0894 0
M  V30 12623 H 1288.45 4.16308 -0.222121 0
M  V30 12624 H 1287.11 3.2126 0.471402 0
M  V30 12625 H 1288.12 4.14381 -3.10658 0
M  V30 12626 H 1284.79 4.14174 -0.52592 0
M  V30 12627 H 1286.18 5.01442 -4.4722 0
M  V30 12628 N 1288.9 1.00119 1.21713 0
M  V30 12629 C 1289.85 0.529464 2.21767 0
M  V30 12630 C 1290.84 -0.406858 1.55671 0
M  V30 12631 O 1292.03 -0.232329 1.75469 0
M  V30 12632 C 1289.16 -0.146336 3.42988 0
M  V30 12633 C 1288.24 0.81078 4.16278 0
M  V30 12634 N 1288.64 1.96204 4.66195 0
M  V30 12635 C 1286.93 0.628371 4.41551 0
M  V30 12636 C 1287.63 2.56346 5.2217 0
M  V30 12637 N 1286.61 1.8454 5.11318 0
M  V30 12638 H 1290.41 1.40738 2.58012 0
M  V30 12639 H 1287.93 0.864518 1.37477 0
M  V30 12640 H 1289.92 -0.501726 4.1387 0
M  V30 12641 H 1288.58 -1.02029 3.08254 0
M  V30 12642 H 1289.59 2.34255 4.61893 0
M  V30 12643 H 1286.27 -0.198819 4.17026 0
M  V30 12644 H 1287.66 3.53688 5.71274 0
M  V30 12645 N 1290.38 -1.37203 0.775435 0
M  V30 12646 C 1291.31 -2.32819 0.17826 0
M  V30 12647 C 1292.29 -1.55963 -0.678944 0
M  V30 12648 O 1293.48 -1.84183 -0.615648 0
M  V30 12649 C 1290.61 -3.40198 -0.698768 0
M  V30 12650 C 1289.56 -4.27961 0.057423 0
M  V30 12651 C 1288.89 -5.26385 -0.93929 0
M  V30 12652 C 1290.19 -5.07402 1.23856 0
M  V30 12653 H 1291.88 -2.8301 0.977028 0
M  V30 12654 H 1289.43 -1.3607 0.471274 0
M  V30 12655 H 1291.38 -4.06067 -1.12637 0
M  V30 12656 H 1290.1 -2.88541 -1.53009 0
M  V30 12657 H 1288.76 -3.63628 0.465848 0
M  V30 12658 H 1288.41 -4.71007 -1.76527 0
M  V30 12659 H 1288.11 -5.85966 -0.437844 0
M  V30 12660 H 1289.64 -5.9513 -1.36576 0
M  V30 12661 H 1291.05 -5.6639 0.887423 0
M  V30 12662 H 1289.45 -5.76327 1.67234 0
M  V30 12663 H 1290.52 -4.3986 2.04085 0
M  V30 12664 N 1291.86 -0.526279 -1.48553 0
M  V30 12665 C 1293.28 -0.183886 -1.58537 0
M  V30 12666 C 1293.48 1.31272 -1.52872 0
M  V30 12667 O 1292.53 2.09069 -1.41585 0
M  V30 12668 C 1293.84 -0.78313 -2.90323 0
M  V30 12669 C 1295.39 -0.751527 -3.03844 0
M  V30 12670 C 1295.87 -1.32928 -4.38285 0
M  V30 12671 N 1297.36 -1.29109 -4.44843 0
M  V30 12672 C 1298.09 -1.70806 -5.47369 0
M  V30 12673 N 1297.59 -2.20215 -6.56869 0
M  V30 12674 N 1299.38 -1.62065 -5.3823 0
M  V30 12675 H 1291.53 -1.499 -1.50478 0
M  V30 12676 H 1293.8 -0.623294 -0.714289 0
M  V30 12677 H 1293.5 -1.83371 -3.00113 0
M  V30 12678 H 1293.38 -0.25808 -3.76316 0
M  V30 12679 H 1295.76 0.290282 -2.93669 0
M  V30 12680 H 1295.84 -1.314 -2.19471 0
M  V30 12681 H 1295.49 -2.37 -4.49214 0
M  V30 12682 H 1295.42 -0.742516 -5.21339 0
M  V30 12683 H 1297.91 -0.929348 -3.66294 0
M  V30 12684 H 1298.22 -2.50035 -7.31233 0
M  V30 12685 H 1296.57 -2.24206 -6.57842 0
M  V30 12686 H 1299.76 -1.23265 -4.51579 0
M  V30 12687 H 1299.93 -1.94883 -6.18001 0
M  V30 12688 N 1293.34 1.5542 -0.261239 0
M  V30 12689 C 1294.27 2.24949 0.626126 0
M  V30 12690 C 1295.25 1.23474 1.16997 0
M  V30 12691 O 1296.43 1.52161 1.20667 0
M  V30 12692 C 1293.56 2.95996 1.81669 0
M  V30 12693 C 1292.52 4.04282 1.40499 0
M  V30 12694 C 1291.84 4.62831 2.67753 0
M  V30 12695 C 1293.14 5.1923 0.56543 0
M  V30 12696 H 1294.84 2.99364 0.0463164 0
M  V30 12697 H 1292.38 1.43985 0.0208366 0
M  V30 12698 H 1294.34 3.43343 2.44323 0
M  V30 12699 H 1293.06 2.19093 2.42211 0
M  V30 12700 H 1291.72 3.57726 0.801712 0
M  V30 12701 H 1291.37 3.82611 3.26524 0
M  V30 12702 H 1291.07 5.35938 2.40925 0
M  V30 12703 H 1292.59 5.12918 3.31281 0
M  V30 12704 H 1294.01 5.62714 1.09663 0
M  V30 12705 H 1292.4 5.98814 0.392607 0
M  V30 12706 H 1293.47 4.83086 -0.419059 0
M  V30 12707 N 1294.82 -0.0116844 1.57596 0
M  V30 12708 C 1295.73 -1.02342 2.111 0
M  V30 12709 C 1296.74 -1.38478 1.05355 0
M  V30 12710 O 1297.92 -1.47447 1.37191 0
M  V30 12711 C 1294.98 -2.30016 2.5941 0
M  V30 12712 C 1294.04 -2.003 3.79708 0
M  V30 12713 C 1293.28 -3.21888 4.25704 0
M  V30 12714 O 1293.5 -4.33171 3.71106 0
M  V30 12715 O 1292.43 -3.0657 5.17975 0
M  V30 12716 H 1296.26 -0.598637 2.97742 0
M  V30 12717 H 1293.84 -0.229779 1.47622 0
M  V30 12718 H 1295.73 -3.05044 2.90733 0
M  V30 12719 H 1294.4 -2.71755 1.75871 0
M  V30 12720 H 1293.31 -1.22785 3.53376 0
M  V30 12721 H 1294.64 -1.63406 4.64284 0
M  V30 12722 N 1296.29 -1.55015 -0.284256 0
M  V30 12723 C 1297.22 -1.90128 -1.3555 0
M  V30 12724 C 1298.2 -0.761914 -1.52082 0
M  V30 12725 O 1299.39 -1.01909 -1.65312 0
M  V30 12726 C 1296.52 -2.16332 -2.71695 0
M  V30 12727 C 1295.47 -3.32166 -2.69907 0
M  V30 12728 C 1294.8 -3.43824 -4.09498 0
M  V30 12729 C 1296.1 -4.6885 -2.30168 0
M  V30 12730 H 1297.79 -2.79852 -1.06411 0
M  V30 12731 H 1295.34 -1.34649 -0.510451 0
M  V30 12732 H 1297.29 -2.39482 -3.46737 0
M  V30 12733 H 1296.02 -1.23395 -3.02392 0
M  V30 12734 H 1294.68 -3.08965 -1.97322 0
M  V30 12735 H 1294.32 -2.48375 -4.374 0
M  V30 12736 H 1294.02 -4.21698 -4.092 0
M  V30 12737 H 1295.55 -3.69254 -4.86296 0
M  V30 12738 H 1296.96 -4.91619 -2.9493 0
M  V30 12739 H 1295.36 -5.49558 -2.41052 0
M  V30 12740 H 1296.43 -4.68433 -1.25294 0
M  V30 12741 N 1297.77 0.548248 -1.47757 0
M  V30 12742 C 1298.68 1.68178 -1.63565 0
M  V30 12743 C 1299.7 1.661 -0.518351 0
M  V30 12744 O 1300.87 1.85384 -0.787061 0
M  V30 12745 C 1297.94 3.04673 -1.65454 0
M  V30 12746 C 1297 3.17749 -2.88677 0
M  V30 12747 C 1296.23 4.47733 -2.90466 0
M  V30 12748 O 1296.46 5.33736 -2.01201 0
M  V30 12749 O 1295.39 4.64789 -3.82433 0
M  V30 12750 H 1299.22 1.57781 -2.59497 0
M  V30 12751 H 1296.8 0.719277 -1.30946 0
M  V30 12752 H 1298.68 3.85885 -1.69324 0
M  V30 12753 H 1297.36 3.15433 -0.726912 0
M  V30 12754 H 1296.26 2.359 -2.90348 0
M  V30 12755 H 1297.6 3.11897 -3.80763 0
M  V30 12756 N 1299.25 1.36039 0.795694 0
M  V30 12757 C 1300.16 1.31991 1.93948 0
M  V30 12758 C 1301.18 0.223064 1.72564 0
M  V30 12759 O 1302.35 0.454344 1.96208 0
M  V30 12760 C 1299.42 1.10228 3.28711 0
M  V30 12761 C 1298.48 2.29328 3.62914 0
M  V30 12762 C 1297.71 2.08595 4.91247 0
M  V30 12763 O 1297.93 1.05793 5.60503 0
M  V30 12764 O 1296.87 2.96222 5.23962 0
M  V30 12765 H 1300.69 2.28274 2.00311 0
M  V30 12766 H 1298.28 1.16521 0.935048 0
M  V30 12767 H 1300.16 0.999842 4.09367 0
M  V30 12768 H 1298.84 0.17003 3.23253 0
M  V30 12769 H 1297.74 2.4514 2.8259 0
M  V30 12770 H 1299.08 3.21038 3.73089 0
M  V30 12771 N 1300.73 -1.01913 1.20215 0
M  V30 12772 C 1301.69 -2.08563 0.950481 0
M  V30 12773 C 1302.69 -1.60634 -0.0729659 0
M  V30 12774 O 1303.88 -1.73437 0.162826 0
M  V30 12775 C 1301.01 -3.38171 0.430453 0
M  V30 12776 H 1302.21 -2.32323 1.89647 0
M  V30 12777 H 1299.76 -1.18674 1.01716 0
M  V30 12778 H 1300.49 -3.20086 -0.521126 0
M  V30 12779 H 1300.28 -3.74284 1.1685 0
M  V30 12780 H 1301.77 -4.16702 0.273781 0
M  V30 12781 N 1302.21 -1.00763 -1.2118 0
M  V30 12782 C 1303.17 -0.575183 -2.21865 0
M  V30 12783 C 1304.17 0.349871 -1.56948 0
M  V30 12784 O 1305.36 0.139795 -1.73638 0
M  V30 12785 C 1302.49 0.161308 -3.40518 0
M  V30 12786 H 1303.68 -1.46578 -2.61639 0
M  V30 12787 H 1301.24 -0.79643 -1.34487 0
M  V30 12788 H 1301.97 1.06723 -3.06236 0
M  V30 12789 H 1301.76 -0.503101 -3.88859 0
M  V30 12790 H 1303.25 0.451527 -4.15152 0
M  V30 12791 N 1303.68 1.3679 -0.7827 0
M  V30 12792 C 1304.91 2.03678 -0.363734 0
M  V30 12793 C 1305.33 1.59024 1.01768 0
M  V30 12794 O 1304.68 0.776541 1.65155 0
M  V30 12795 C 1304.74 3.59165 -0.410213 0
M  V30 12796 O 1304.46 4.02188 -1.73714 0
M  V30 12797 C 1305.96 4.43296 0.018972 0
M  V30 12798 H 1303.18 0.653828 -0.150829 0
M  V30 12799 H 1305.72 1.74903 -1.05968 0
M  V30 12800 H 1303.88 3.86673 0.237249 0
M  V30 12801 H 1304.29 4.96754 -1.68332 0
M  V30 12802 H 1305.76 5.51962 -0.0646943 0
M  V30 12803 H 1306.24 4.25948 1.07076 0
M  V30 12804 H 1306.85 4.21036 -0.600721 0
M  V30 12805 N 1305.16 0.53415 1.48272 0
M  V30 12806 C 1306.57 0.0947592 1.86459 0
M  V30 12807 C 1306.92 -1.32906 1.44328 0
M  V30 12808 O 1306.05 -1.99605 0.835866 0
M  V30 12809 C 1306.64 0.16519 3.38397 0
M  V30 12810 C 1305.2 -0.219029 3.75762 0
M  V30 12811 C 1304.35 0.523097 2.72321 0
M  V30 12812 H 1307.3 0.74517 1.40117 0
M  V30 12813 H 1307.32 -0.622065 3.75381 0
M  V30 12814 H 1306.83 1.20157 3.69031 0
M  V30 12815 H 1304.94 -1.2574 3.50742 0
M  V30 12816 H 1305.05 0.123482 4.78941 0
M  V30 12817 H 1303.41 -0.0311323 2.54681 0
M  V30 12818 H 1304.2 1.56019 3.05799 0
M  V30 12819 N 1306.64 -1.55279 0.269478 0
M  V30 12820 C 1307.55 -2.25965 -0.63065 0
M  V30 12821 C 1308.57 -1.28357 -1.17476 0
M  V30 12822 O 1309.74 -1.61281 -1.20625 0
M  V30 12823 C 1306.81 -2.96263 -1.80081 0
M  V30 12824 C 1305.87 -4.09336 -1.29394 0
M  V30 12825 C 1305.1 -4.76272 -2.40833 0
M  V30 12826 O 1305.32 -4.42389 -3.60066 0
M  V30 12827 O 1304.26 -5.64334 -2.09309 0
M  V30 12828 H 1308.08 -3.03644 -0.0582069 0
M  V30 12829 H 1305.67 -1.49354 0.0370966 0
M  V30 12830 H 1307.55 -3.40461 -2.48322 0
M  V30 12831 H 1306.23 -2.21505 -2.36045 0
M  V30 12832 H 1305.13 -3.69605 -0.578154 0
M  V30 12833 H 1306.47 -4.85978 -0.780117 0
M  V30 12834 N 1308.12 0.00332656 -1.576 0
M  V30 12835 C 1309.37 0.687508 -1.90047 0
M  V30 12836 C 1309.69 1.74497 -0.870388 0
M  V30 12837 O 1308.96 1.95681 0.0926544 0
M  V30 12838 H 1307.54 0.256924 -0.701426 0
M  V30 12839 H 1310.2 -0.0368129 -1.94865 0
M  V30 12840 H 1309.3 1.16086 -2.89707 0
M  V30 12841 N 1309.6 1.55164 0.276031 0
M  V30 12842 C 1310.55 1.84223 1.34335 0
M  V30 12843 C 1311.53 0.700934 1.4483 0
M  V30 12844 O 1312.72 0.962204 1.48562 0
M  V30 12845 C 1309.85 2.11496 2.70415 0
M  V30 12846 C 1308.94 3.31877 2.64043 0
M  V30 12847 N 1309.33 4.51856 2.27289 0
M  V30 12848 C 1307.63 3.34406 2.95108 0
M  V30 12849 C 1308.33 5.33939 2.30833 0
M  V30 12850 N 1307.3 4.72271 2.69186 0
M  V30 12851 H 1311.11 2.74533 1.04922 0
M  V30 12852 H 1308.62 1.54999 0.484661 0
M  V30 12853 H 1310.62 2.3047 3.47404 0
M  V30 12854 H 1309.28 1.22468 3.00719 0
M  V30 12855 H 1310.29 4.78009 1.99318 0
M  V30 12856 H 1306.96 2.55561 3.30144 0
M  V30 12857 H 1308.35 6.39862 2.05004 0
M  V30 12858 N 1311.07 -0.540404 1.48045 0
M  V30 12859 C 1312.04 -1.62813 1.61322 0
M  V30 12860 C 1313.04 -1.53243 0.487161 0
M  V30 12861 O 1314.23 -1.571 0.752684 0
M  V30 12862 C 1311.36 -3.02408 1.5736 0
M  V30 12863 H 1312.55 -1.52385 2.583 0
M  V30 12864 H 1310.11 -0.761654 1.36486 0
M  V30 12865 H 1310.84 -3.18353 0.618195 0
M  V30 12866 H 1310.63 -3.10763 2.39099 0
M  V30 12867 H 1312.12 -3.8151 1.69822 0
M  V30 12868 N 1312.55 -1.36459 -0.788468 0
M  V30 12869 C 1313.8 -1.30935 -1.54867 0
M  V30 12870 C 1314.13 0.110916 -1.93883 0
M  V30 12871 O 1313.41 1.06452 -1.62783 0
M  V30 12872 C 1313.69 -2.23294 -2.8251 0
M  V30 12873 C 1313.54 -3.74022 -2.49856 0
M  V30 12874 C 1314.86 -2.14407 -3.84341 0
M  V30 12875 H 1311.98 -0.476958 -0.561854 0
M  V30 12876 H 1314.62 -1.67018 -0.905805 0
M  V30 12877 H 1312.77 -1.92652 -3.37369 0
M  V30 12878 H 1314.44 -4.15187 -2.01041 0
M  V30 12879 H 1312.69 -3.93411 -1.82785 0
M  V30 12880 H 1313.36 -4.34057 -3.41026 0
M  V30 12881 H 1315.83 -2.41381 -3.38932 0
M  V30 12882 H 1314.71 -2.81199 -4.71401 0
M  V30 12883 H 1314.97 -1.13166 -4.27371 0
M  V30 12884 N 1314.03 1.01274 -1.20754 0
M  V30 12885 C 1315.45 1.27256 -0.963221 0
M  V30 12886 C 1315.65 1.98349 0.354972 0
M  V30 12887 O 1314.7 2.28116 1.08255 0
M  V30 12888 C 1316.02 2.1038 -2.14851 0
M  V30 12889 C 1317.56 2.23633 -2.18991 0
M  V30 12890 C 1318.04 3.10136 -3.37016 0
M  V30 12891 N 1319.53 3.17724 -3.37054 0
M  V30 12892 C 1320.26 3.84891 -4.25025 0
M  V30 12893 N 1319.76 4.54152 -5.23181 0
M  V30 12894 N 1321.55 3.81454 -4.12855 0
M  V30 12895 H 1313.7 0.535534 -2.05538 0
M  V30 12896 H 1315.97 0.299006 -0.899611 0
M  V30 12897 H 1315.67 1.65484 -3.10335 0
M  V30 12898 H 1315.55 3.11122 -2.13267 0
M  V30 12899 H 1317.93 2.67753 -1.24067 0
M  V30 12900 H 1318.02 1.22387 -2.24622 0
M  V30 12901 H 1317.66 2.66721 -4.32229 0
M  V30 12902 H 1317.59 4.11478 -3.28623 0
M  V30 12903 H 1320.08 2.68412 -2.66014 0
M  V30 12904 H 1320.39 5.03084 -5.86623 0
M  V30 12905 H 1318.74 4.52964 -5.27113 0
M  V30 12906 H 1321.93 3.26494 -3.35439 0
M  V30 12907 H 1322.1 4.33523 -4.81624 0
M  V30 12908 N 1315.51 1.01404 1.20644 0
M  V30 12909 C 1316.76 0.701909 1.89946 0
M  V30 12910 C 1317.08 -0.768212 1.78686 0
M  V30 12911 O 1316.34 -1.57348 1.16363 0
M  V30 12912 C 1316.64 1.07995 3.40693 0
M  V30 12913 C 1316.3 2.54585 3.72152 0
M  V30 12914 C 1314.97 2.94639 3.80449 0
M  V30 12915 C 1317.32 3.49497 3.86654 0
M  V30 12916 C 1314.65 4.2855 4.00702 0
M  V30 12917 C 1317 4.83093 4.08416 0
M  V30 12918 C 1315.66 5.22857 4.14942 0
M  V30 12919 H 1314.93 0.256847 0.695062 0
M  V30 12920 H 1317.58 1.27415 1.4296 0
M  V30 12921 H 1315.88 0.426089 3.89476 0
M  V30 12922 H 1317.58 0.816176 3.92606 0
M  V30 12923 H 1314.17 2.22548 3.66292 0
M  V30 12924 H 1318.36 3.19713 3.79602 0
M  V30 12925 H 1313.61 4.58916 4.03988 0
M  V30 12926 H 1317.79 5.56565 4.18579 0
M  V30 12927 H 1315.41 6.26634 4.30388 0
M  V30 12928 N 1316.99 -1.36373 0.789944 0
M  V30 12929 C 1318.24 -1.98834 0.361866 0
M  V30 12930 C 1318.56 -1.63006 -1.07024 0
M  V30 12931 O 1317.83 -0.904312 -1.73779 0
M  V30 12932 H 1316.41 -0.735457 0.130812 0
M  V30 12933 H 1319.07 -1.66561 1.0121 0
M  V30 12934 H 1318.16 -3.08778 0.454122 0
M  V30 12935 N 1318.47 -0.542005 -1.47987 0
M  V30 12936 C 1319.71 -0.0123116 -2.02496 0
M  V30 12937 C 1320.04 1.33136 -1.41793 0
M  V30 12938 O 1319.3 1.87591 -0.557501 0
M  V30 12939 C 1319.59 0.146208 -3.57101 0
M  V30 12940 C 1319.26 -1.12463 -4.3665 0
M  V30 12941 C 1317.92 -1.47289 -4.58104 0
M  V30 12942 C 1320.27 -1.96746 -4.82639 0
M  V30 12943 C 1317.6 -2.66273 -5.22796 0
M  V30 12944 C 1319.95 -3.14919 -5.48643 0
M  V30 12945 C 1318.62 -3.50077 -5.68333 0
M  V30 12946 H 1317.89 -0.00450514 -0.740986 0
M  V30 12947 H 1320.54 -0.710455 -1.77834 0
M  V30 12948 H 1318.84 0.927209 -3.80671 0
M  V30 12949 H 1320.54 0.571161 -3.96912 0
M  V30 12950 H 1317.13 -0.843429 -4.20219 0
M  V30 12951 H 1321.31 -1.71149 -4.65856 0
M  V30 12952 H 1316.57 -2.937 -5.36237 0
M  V30 12953 H 1320.74 -3.80525 -5.83244 0
M  V30 12954 H 1318.37 -4.42371 -6.18233 0
M  V30 12955 N 1319.94 1.55134 -0.277709 0
M  V30 12956 C 1320.89 2.24057 0.624594 0
M  V30 12957 C 1321.89 1.23848 1.15577 0
M  V30 12958 O 1323.09 1.41771 1.1091 0
M  V30 12959 H 1319.47 0.719106 0.219977 0
M  V30 12960 H 1321.44 2.98393 0.0204815 0
M  V30 12961 C 1320.19 2.97712 1.79618 0
M  V30 12962 H 1319.51 3.74611 1.39665 0
M  V30 12963 H 1320.95 3.49255 2.4041 0
M  V30 12964 C 1319.41 2.03332 2.68622 0
M  V30 12965 O 1319.94 1.58622 3.69056 0
M  V30 12966 N 1318.14 1.69778 2.35847 0
M  V30 12967 H 1317.69 2.06333 1.54222 0
M  V30 12968 H 1317.65 1.06901 2.95668 0
M  V30 12969 N 1321.42 0.00503138 1.57599 0
M  V30 12970 C 1322.83 -0.537106 1.78807 0
M  V30 12971 C 1323.18 -1.73666 0.912945 0
M  V30 12972 O 1322.31 -2.16085 0.116775 0
M  V30 12973 C 1322.9 -0.98116 3.24282 0
M  V30 12974 C 1321.46 -1.46857 3.46569 0
M  V30 12975 C 1320.61 -0.422088 2.74069 0
M  V30 12976 H 1323.56 0.231182 1.57007 0
M  V30 12977 H 1323.58 -1.8469 3.32671 0
M  V30 12978 H 1323.09 -0.107907 3.8795 0
M  V30 12979 H 1321.19 -2.36255 2.88122 0
M  V30 12980 H 1321.31 -1.49256 4.55258 0
M  V30 12981 H 1319.67 -0.884853 2.38836 0
M  V30 12982 H 1320.45 0.442285 3.40439 0
M  V30 12983 N 1322.9 -1.55308 -0.267798 0
M  V30 12984 C 1323.83 -1.91555 -1.33525 0
M  V30 12985 C 1324.81 -0.778001 -1.51265 0
M  V30 12986 O 1326 -1.03657 -1.64222 0
M  V30 12987 C 1323.13 -2.19201 -2.69385 0
M  V30 12988 C 1322.08 -3.3501 -2.66369 0
M  V30 12989 C 1321.41 -3.48148 -4.05829 0
M  V30 12990 C 1322.71 -4.71265 -2.25182 0
M  V30 12991 H 1324.4 -2.80965 -1.03437 0
M  V30 12992 H 1321.95 -1.35183 -0.496141 0
M  V30 12993 H 1323.9 -2.43146 -3.44177 0
M  V30 12994 H 1322.62 -1.26596 -3.01067 0
M  V30 12995 H 1321.28 -3.11041 -1.94034 0
M  V30 12996 H 1320.93 -2.53 -4.34741 0
M  V30 12997 H 1320.63 -4.26014 -4.04704 0
M  V30 12998 H 1322.15 -3.74391 -4.82352 0
M  V30 12999 H 1323.57 -4.94719 -2.89699 0
M  V30 13000 H 1321.96 -5.52084 -2.3521 0
M  V30 13001 H 1323.03 -4.69735 -1.20319 0
M  V30 13002 N 1324.38 0.532545 -1.4833 0
M  V30 13003 C 1325.29 1.66433 -1.65339 0
M  V30 13004 C 1326.3 1.65541 -0.535939 0
M  V30 13005 O 1327.48 1.84539 -0.806679 0
M  V30 13006 C 1324.54 3.02901 -1.68676 0
M  V30 13007 C 1323.61 3.14669 -2.92031 0
M  V30 13008 C 1322.84 4.44627 -2.95199 0
M  V30 13009 O 1323.06 5.31572 -2.06851 0
M  V30 13010 O 1322 4.60707 -3.87341 0
M  V30 13011 H 1325.82 1.5502 -2.61156 0
M  V30 13012 H 1323.41 0.705348 -1.31701 0
M  V30 13013 H 1325.29 3.84068 -1.73407 0
M  V30 13014 H 1323.96 3.14644 -0.760327 0
M  V30 13015 H 1322.87 2.32807 -2.92834 0
M  V30 13016 H 1324.2 3.07841 -3.8405 0
M  V30 13017 N 1325.86 1.36875 0.78122 0
M  V30 13018 C 1327.1 1.31559 1.53943 0
M  V30 13019 C 1327.43 -0.10273 1.94229 0
M  V30 13020 O 1326.69 -1.07386 1.63605 0
M  V30 13021 C 1326.98 2.19173 2.82309 0
M  V30 13022 C 1326.65 3.67595 2.61121 0
M  V30 13023 C 1325.31 4.08047 2.55051 0
M  V30 13024 C 1327.66 4.61665 2.41898 0
M  V30 13025 C 1324.99 5.40697 2.27736 0
M  V30 13026 C 1327.34 5.94542 2.16108 0
M  V30 13027 C 1326.01 6.34109 2.08476 0
M  V30 13028 H 1325.28 0.48141 0.563317 0
M  V30 13029 H 1327.93 1.68999 0.900638 0
M  V30 13030 H 1326.23 1.74696 3.50697 0
M  V30 13031 H 1327.93 2.12379 3.40141 0
M  V30 13032 H 1324.52 3.35509 2.66705 0
M  V30 13033 H 1328.7 4.3128 2.45584 0
M  V30 13034 H 1323.96 5.70325 2.20315 0
M  V30 13035 H 1328.13 6.66994 2.0023 0
M  V30 13036 H 1325.76 7.36823 1.87073 0
M  V30 13037 N 1327.33 -1.00632 1.21289 0
M  V30 13038 C 1328.24 -2.12829 0.986957 0
M  V30 13039 C 1329.26 -1.73895 -0.0605152 0
M  V30 13040 O 1330.44 -2.00985 0.129238 0
M  V30 13041 C 1327.5 -3.4226 0.553089 0
M  V30 13042 C 1326.56 -3.95376 1.67262 0
M  V30 13043 C 1325.79 -5.18629 1.25936 0
M  V30 13044 O 1326.02 -5.70246 0.132402 0
M  V30 13045 O 1324.95 -5.65157 2.07077 0
M  V30 13046 H 1328.78 -2.34765 1.92663 0
M  V30 13047 H 1326.36 -1.11208 0.997654 0
M  V30 13048 H 1328.24 -4.20177 0.320856 0
M  V30 13049 H 1326.92 -3.21716 -0.357881 0
M  V30 13050 H 1325.83 -3.18692 1.95924 0
M  V30 13051 H 1327.16 -4.20328 2.56097 0
M  V30 13052 N 1328.81 -1.02043 -1.20104 0
M  V30 13053 C 1329.76 -0.587332 -2.25063 0
M  V30 13054 C 1330.75 0.375844 -1.65178 0
M  V30 13055 O 1331.96 0.245347 -1.7832 0
M  V30 13056 H 1328.33 -0.171637 -0.732151 0
M  V30 13057 H 1330.31 -1.48339 -2.58917 0
M  V30 13058 C 1329.05 0.0546893 -3.47657 0
M  V30 13059 H 1328.38 -0.677457 -3.94018 0
M  V30 13060 H 1329.82 0.320786 -4.22785 0
M  V30 13061 C 1328.28 1.29869 -3.10863 0
M  V30 13062 O 1328.81 2.39161 -3.22746 0
M  V30 13063 N 1327.01 1.18423 -2.65376 0
M  V30 13064 H 1326.56 0.294895 -2.55906 0
M  V30 13065 H 1326.52 2.01755 -2.41128 0
M  V30 13066 N 1330.29 1.35952 -0.797165 0
M  V30 13067 C 1331.54 1.99032 -0.373142 0
M  V30 13068 C 1331.87 1.63257 1.05723 0
M  V30 13069 O 1331.12 0.883022 1.74646 0
M  V30 13070 C 1331.42 3.53986 -0.492805 0
M  V30 13071 C 1331.09 4.09603 -1.88511 0
M  V30 13072 C 1329.75 4.24505 -2.26604 0
M  V30 13073 C 1332.1 4.39829 -2.79643 0
M  V30 13074 C 1329.43 4.66946 -3.55215 0
M  V30 13075 C 1331.78 4.83706 -4.0769 0
M  V30 13076 C 1330.44 4.96813 -4.45795 0
M  V30 13077 H 1329.71 0.728311 -0.136542 0
M  V30 13078 H 1332.36 1.62318 -1.01613 0
M  V30 13079 H 1330.67 3.91103 0.233661 0
M  V30 13080 H 1332.36 4.00735 -0.145638 0
M  V30 13081 H 1328.95 3.98449 -1.57912 0
M  V30 13082 H 1333.14 4.27878 -2.51464 0
M  V30 13083 H 1328.39 4.75282 -3.84599 0
M  V30 13084 H 1332.57 5.06057 -4.78414 0
M  V30 13085 H 1330.19 5.29458 -5.45507 0
M  V30 13086 N 1331.77 0.549846 1.47697 0
M  V30 13087 C 1332.99 0.0256819 2.07384 0
M  V30 13088 C 1333.42 -1.25525 1.4009 0
M  V30 13089 O 1332.78 -1.7501 0.473406 0
M  V30 13090 C 1332.82 -0.160835 3.60241 0
M  V30 13091 O 1331.93 -1.22509 3.93783 0
M  V30 13092 H 1331.27 0.0480204 0.662261 0
M  V30 13093 H 1333.8 0.763429 1.89823 0
M  V30 13094 H 1333.81 -0.377337 4.06251 0
M  V30 13095 H 1332.48 0.774774 4.0862 0
M  V30 13096 H 1331.06 -0.98967 3.59527 0
M  V30 13097 N 1333.25 -1.54984 0.285932 0
M  V30 13098 C 1334.49 -2.00848 -0.321162 0
M  V30 13099 C 1334.85 -1.17086 -1.52672 0
M  V30 13100 O 1334.14 -0.235523 -1.90147 0
M  V30 13101 C 1334.33 -3.49581 -0.7435 0
M  V30 13102 C 1334.16 -4.47738 0.419586 0
M  V30 13103 C 1332.93 -4.97096 0.906821 0
M  V30 13104 C 1335.13 -4.98636 1.25963 0
M  V30 13105 N 1333.11 -5.79076 2.03824 0
M  V30 13106 C 1334.48 -5.78169 2.23878 0
M  V30 13107 C 1336.54 -4.80852 1.29174 0
M  V30 13108 C 1335.24 -6.41813 3.2476 0
M  V30 13109 C 1337.27 -5.45303 2.28906 0
M  V30 13110 C 1336.63 -6.24656 3.25552 0
M  V30 13111 H 1332.73 -0.777647 -0.0823951 0
M  V30 13112 H 1335.31 -1.90282 0.412418 0
M  V30 13113 H 1333.48 -3.60468 -1.44628 0
M  V30 13114 H 1335.22 -3.82261 -1.32885 0
M  V30 13115 H 1331.97 -4.71117 0.484305 0
M  V30 13116 H 1332.4 -6.24754 2.6079 0
M  V30 13117 H 1337.04 -4.19097 0.558318 0
M  V30 13118 H 1334.76 -7.0271 3.99029 0
M  V30 13119 H 1338.34 -5.33479 2.32145 0
M  V30 13120 H 1337.22 -6.73645 4.01462 0
M  V30 13121 N 1334.72 -0.0133892 -1.57594 0
M  V30 13122 C 1336.14 0.342848 -1.55874 0
M  V30 13123 C 1336.34 1.73928 -1.01742 0
M  V30 13124 O 1335.4 2.43798 -0.657158 0
M  V30 13125 C 1336.71 0.205831 -2.99995 0
M  V30 13126 C 1338.26 0.279774 -3.11747 0
M  V30 13127 C 1338.73 0.171729 -4.57678 0
M  V30 13128 N 1340.22 0.22921 -4.62633 0
M  V30 13129 C 1340.96 0.169153 -5.7315 0
M  V30 13130 N 1340.45 0.0589166 -6.92775 0
M  V30 13131 N 1342.25 0.221995 -5.61661 0
M  V30 13132 H 1334.4 -0.926727 -1.91117 0
M  V30 13133 H 1336.66 -0.356466 -0.878428 0
M  V30 13134 H 1336.37 -0.755482 -3.4349 0
M  V30 13135 H 1336.24 0.982476 -3.6418 0
M  V30 13136 H 1338.63 1.23154 -2.68174 0
M  V30 13137 H 1338.71 -0.526974 -2.50313 0
M  V30 13138 H 1338.35 -0.776547 -5.01928 0
M  V30 13139 H 1338.28 0.997138 -5.17073 0
M  V30 13140 H 1340.77 0.315196 -3.76583 0
M  V30 13141 H 1341.09 0.0193526 -7.72798 0
M  V30 13142 H 1339.43 0.0243543 -6.94996 0
M  V30 13143 H 1342.62 0.306406 -4.67096 0
M  V30 13144 H 1342.8 0.171727 -6.47772 0
M  V30 13145 N 1336.2 1.55448 0.259558 0
M  V30 13146 C 1337.45 1.76337 0.987396 0
M  V30 13147 C 1337.77 0.57505 1.86328 0
M  V30 13148 O 1337.04 -0.409621 1.9157 0
M  V30 13149 H 1335.62 0.650312 0.367565 0
M  V30 13150 H 1338.28 1.9287 0.280551 0
M  V30 13151 H 1337.38 2.66975 1.61651 0
M  V30 13152 N 1337.68 -0.524672 1.4861 0
M  V30 13153 C 1338.91 -1.30292 1.60335 0
M  V30 13154 C 1339.32 -1.87338 0.264774 0
M  V30 13155 O 1338.66 -1.67388 -0.756756 0
M  V30 13156 C 1338.72 -2.48809 2.59488 0
M  V30 13157 C 1338.39 -2.12811 4.04426 0
M  V30 13158 C 1339.38 -1.68171 4.9195 0
M  V30 13159 C 1337.07 -2.23171 4.5 0
M  V30 13160 C 1339.06 -1.34363 6.23077 0
M  V30 13161 C 1336.75 -1.88975 5.81147 0
M  V30 13162 C 1337.75 -1.44643 6.67508 0
M  V30 13163 O 1337.44 -1.10898 7.96214 0
M  V30 13164 H 1337.17 -0.402288 0.543268 0
M  V30 13165 H 1339.72 -0.63908 1.95205 0
M  V30 13166 H 1337.95 -3.18192 2.19751 0
M  V30 13167 H 1339.64 -3.10866 2.60992 0
M  V30 13168 H 1340.41 -1.59632 4.57977 0
M  V30 13169 H 1336.29 -2.56632 3.82963 0
M  V30 13170 H 1339.83 -0.996875 6.90441 0
M  V30 13171 H 1335.73 -1.97156 6.14654 0
M  V30 13172 H 1336.5 -1.2425 8.09014 0
M  V30 13173 N 1339.16 -1.37287 -0.77395 0
M  V30 13174 C 1340.12 -1.32699 -1.86878 0
M  V30 13175 C 1341.12 -0.231486 -1.59125 0
M  V30 13176 O 1342.31 -0.487203 -1.67248 0
M  V30 13177 C 1339.44 -1.0609 -3.23972 0
M  V30 13178 H 1340.64 -2.30083 -1.92359 0
M  V30 13179 H 1338.19 -1.22284 -0.973459 0
M  V30 13180 H 1338.92 -0.0922868 -3.24169 0
M  V30 13181 H 1338.71 -1.85383 -3.45508 0
M  V30 13182 H 1340.2 -1.05524 -4.04048 0
M  V30 13183 N 1340.64 0.999871 -1.21821 0
M  V30 13184 C 1341.57 2.09044 -0.939852 0
M  V30 13185 C 1342.58 1.62609 0.0788987 0
M  V30 13186 O 1343.77 1.77832 -0.154241 0
M  V30 13187 C 1340.87 3.36641 -0.390618 0
M  V30 13188 C 1340.04 4.12139 -1.46493 0
M  V30 13189 C 1339.1 5.18023 -0.924019 0
M  V30 13190 O 1338.13 5.45996 -1.60864 0
M  V30 13191 N 1339.33 5.79926 0.258136 0
M  V30 13192 H 1342.1 2.33506 -1.8787 0
M  V30 13193 H 1339.66 1.16509 -1.12415 0
M  V30 13194 H 1341.65 4.04697 -0.0142349 0
M  V30 13195 H 1340.22 3.09298 0.453176 0
M  V30 13196 H 1339.44 3.38813 -2.01494 0
M  V30 13197 H 1340.73 4.59354 -2.18795 0
M  V30 13198 H 1340.12 5.59559 0.831288 0
M  V30 13199 H 1338.68 6.4925 0.575977 0
M  V30 13200 N 1342.11 1.02678 1.19562 0
M  V30 13201 C 1343.05 0.550355 2.21464 0
M  V30 13202 C 1344.03 -0.407674 1.57406 0
M  V30 13203 O 1345.21 -0.325272 1.85672 0
M  V30 13204 C 1342.34 -0.197777 3.38122 0
M  V30 13205 C 1341.38 0.711362 4.20526 0
M  V30 13206 S 1342.22 2.18636 4.88834 0
M  V30 13207 C 1343.37 1.44868 6.08904 0
M  V30 13208 H 1343.6 1.41377 2.61534 0
M  V30 13209 H 1341.14 0.836535 1.29775 0
M  V30 13210 H 1343.1 -0.62329 4.0574 0
M  V30 13211 H 1341.76 -1.03689 2.96492 0
M  V30 13212 H 1340.95 0.133916 5.03822 0
M  V30 13213 H 1340.55 1.0751 3.58214 0
M  V30 13214 H 1342.84 0.734143 6.73511 0
M  V30 13215 H 1343.79 2.25816 6.71128 0
M  V30 13216 H 1344.19 0.947098 5.56498 0
M  V30 13217 N 1343.59 -1.35528 0.804364 0
M  V30 13218 C 1344.56 -2.28153 0.21885 0
M  V30 13219 C 1345.56 -1.49486 -0.592511 0
M  V30 13220 O 1346.75 -1.69274 -0.411319 0
M  V30 13221 C 1343.88 -3.33736 -0.695195 0
M  V30 13222 H 1345.07 -2.81446 1.03576 0
M  V30 13223 H 1342.62 -1.45345 0.574854 0
M  V30 13224 H 1343.36 -2.85625 -1.53587 0
M  V30 13225 H 1343.14 -3.91931 -0.115143 0
M  V30 13226 H 1344.63 -4.02872 -1.09925 0
M  V30 13227 N 1345.07 -0.557671 -1.47404 0
M  V30 13228 C 1346.48 -0.124411 -1.86285 0
M  V30 13229 C 1346.83 1.30593 -1.46424 0
M  V30 13230 O 1345.96 1.9825 -0.867515 0
M  V30 13231 C 1346.55 -0.219005 -3.38091 0
M  V30 13232 C 1345.11 0.159221 -3.76063 0
M  V30 13233 C 1344.26 -0.566355 -2.71455 0
M  V30 13234 H 1347.21 -0.767367 -1.38914 0
M  V30 13235 H 1347.23 0.562267 -3.76323 0
M  V30 13236 H 1346.74 -1.26013 -3.67073 0
M  V30 13237 H 1344.84 1.20144 -3.52698 0
M  V30 13238 H 1344.96 -0.199662 -4.78684 0
M  V30 13239 H 1343.32 -0.00938921 -2.54698 0
M  V30 13240 H 1344.1 -1.60865 -3.03278 0
M  V30 13241 N 1346.55 1.54831 -0.294147 0
M  V30 13242 C 1347.8 2.00298 0.317605 0
M  V30 13243 C 1348.13 1.18228 1.54064 0
M  V30 13244 O 1347.4 0.257034 1.92794 0
M  V30 13245 C 1347.69 3.53602 0.680991 0
M  V30 13246 C 1347.54 4.46416 -0.550711 0
M  V30 13247 C 1348.86 4.13379 1.51016 0
M  V30 13248 H 1345.98 0.728135 0.113965 0
M  V30 13249 H 1348.62 1.85636 -0.404883 0
M  V30 13250 H 1346.77 3.66227 1.29654 0
M  V30 13251 H 1348.44 4.45707 -1.18922 0
M  V30 13252 H 1346.68 4.17294 -1.18524 0
M  V30 13253 H 1347.36 5.51423 -0.252412 0
M  V30 13254 H 1349.83 4.04148 0.99012 0
M  V30 13255 H 1348.71 5.20818 1.73321 0
M  V30 13256 H 1348.97 3.64817 2.49722 0
M  V30 13257 N 1348.03 0.0217466 1.57585 0
M  V30 13258 C 1348.96 -0.99116 2.06661 0
M  V30 13259 C 1349.97 -1.29346 0.988604 0
M  V30 13260 O 1351.16 -1.25941 1.26496 0
M  V30 13261 C 1348.26 -2.32047 2.46997 0
M  V30 13262 C 1347.43 -2.20441 3.77789 0
M  V30 13263 C 1346.49 -3.36243 4.04755 0
M  V30 13264 O 1345.52 -3.13458 4.75114 0
M  V30 13265 N 1346.72 -4.598 3.54351 0
M  V30 13266 H 1349.49 -0.572486 2.94181 0
M  V30 13267 H 1347.05 -0.165175 1.61055 0
M  V30 13268 H 1349.04 -3.0833 2.62135 0
M  V30 13269 H 1347.61 -2.65581 1.64881 0
M  V30 13270 H 1346.83 -1.28931 3.72519 0
M  V30 13271 H 1348.12 -2.09882 4.63494 0
M  V30 13272 H 1347.52 -4.81207 2.97416 0
M  V30 13273 H 1346.07 -5.33276 3.7478 0
M  V30 13274 N 1349.51 -1.55583 -0.251311 0
M  V30 13275 C 1350.92 -1.67693 -0.820719 0
M  V30 13276 C 1351.27 -0.618393 -1.862 0
M  V30 13277 O 1350.39 0.236158 -2.15108 0
M  V30 13278 C 1350.99 -3.04011 -1.49542 0
M  V30 13279 C 1349.55 -3.18075 -2.01259 0
M  V30 13280 C 1348.69 -2.63557 -0.862138 0
M  V30 13281 H 1351.64 -1.58677 -0.0272072 0
M  V30 13282 H 1351.67 -2.9821 -2.36328 0
M  V30 13283 H 1351.18 -3.81032 -0.737323 0
M  V30 13284 H 1349.28 -2.45869 -2.79963 0
M  V30 13285 H 1349.39 -4.24927 -2.213 0
M  V30 13286 H 1347.76 -2.21268 -1.26145 0
M  V30 13287 H 1348.54 -3.431 -0.117196 0
M  V30 13288 N 1350.98 0.516783 -1.48886 0
M  V30 13289 C 1352.4 0.84654 -1.35299 0
M  V30 13290 C 1352.6 1.97998 -0.374035 0
M  V30 13291 O 1351.66 2.51707 0.200003 0
M  V30 13292 C 1352.97 1.20162 -2.75648 0
M  V30 13293 C 1354.52 1.31074 -2.84233 0
M  V30 13294 C 1354.99 1.69919 -4.25313 0
M  V30 13295 N 1356.48 1.76998 -4.28049 0
M  V30 13296 C 1357.22 2.08466 -5.34162 0
M  V30 13297 N 1356.71 2.38268 -6.50538 0
M  V30 13298 N 1358.51 2.09584 -5.21566 0
M  V30 13299 H 1350.66 -0.230871 -2.11142 0
M  V30 13300 H 1352.92 -0.0406678 -0.947127 0
M  V30 13301 H 1352.63 0.442278 -3.48908 0
M  V30 13302 H 1352.5 2.14875 -3.10014 0
M  V30 13303 H 1354.89 2.06083 -2.1122 0
M  V30 13304 H 1354.97 0.344506 -2.5347 0
M  V30 13305 H 1354.61 0.954667 -4.98847 0
M  V30 13306 H 1354.54 2.67616 -4.5353 0
M  V30 13307 H 1357.03 1.56191 -3.44112 0
M  V30 13308 H 1357.35 2.61423 -7.2724 0
M  V30 13309 H 1355.69 2.35758 -6.53791 0
M  V30 13310 H 1358.88 1.85768 -4.2966 0
M  V30 13311 H 1359.06 2.33776 -6.04362 0
M  V30 13312 N 1352.46 1.37696 0.766659 0
M  V30 13313 C 1353.71 1.32507 1.52069 0
M  V30 13314 C 1354.02 -0.0864967 1.95409 0
M  V30 13315 O 1355.23 -0.260877 2.70244 0
M  V30 13316 C 1353.69 2.32614 2.74625 0
M  V30 13317 C 1353.29 3.79325 2.38363 0
M  V30 13318 C 1355.04 2.36445 3.52554 0
M  V30 13319 C 1352.94 4.7115 3.57451 0
M  V30 13320 H 1351.87 0.492491 0.570937 0
M  V30 13321 H 1354.53 1.63183 0.839268 0
M  V30 13322 H 1352.91 1.94963 3.44682 0
M  V30 13323 H 1354.08 4.25841 1.76056 0
M  V30 13324 H 1352.4 3.78488 1.73597 0
M  V30 13325 H 1354.99 3.02252 4.41076 0
M  V30 13326 H 1355.34 1.37953 3.92778 0
M  V30 13327 H 1355.87 2.72829 2.89498 0
M  V30 13328 H 1352.61 5.70789 3.22304 0
M  V30 13329 H 1352.13 4.29335 4.18846 0
M  V30 13330 H 1353.81 4.88532 4.242 0
M  V30 13331 N 1353.94 -0.993397 1.22349 0
M  V30 13332 C 1355.19 -1.73544 1.04931 0
M  V30 13333 C 1355.52 -1.89721 -0.414661 0
M  V30 13334 O 1354.79 -1.44001 -1.30743 0
M  V30 13335 C 1355.08 -3.14131 1.7605 0
M  V30 13336 C 1354.93 -3.05604 3.30039 0
M  V30 13337 C 1356.25 -4.13294 1.51249 0
M  V30 13338 H 1353.37 -0.629915 0.382591 0
M  V30 13339 H 1356.01 -1.15737 1.50682 0
M  V30 13340 H 1354.16 -3.63483 1.37157 0
M  V30 13341 H 1355.83 -2.63876 3.78374 0
M  V30 13342 H 1354.07 -2.42421 3.59742 0
M  V30 13343 H 1354.75 -4.05086 3.74979 0
M  V30 13344 H 1357.22 -3.72696 1.85033 0
M  V30 13345 H 1356.1 -5.09781 2.03507 0
M  V30 13346 H 1356.36 -4.39855 0.444973 0
M  V30 13347 N 1355.42 -1.03311 -1.19015 0
M  V30 13348 C 1356.38 -0.622114 -2.20596 0
M  V30 13349 C 1357.38 0.316502 -1.57654 0
M  V30 13350 O 1358.57 0.102932 -1.73896 0
M  V30 13351 C 1355.7 0.0890432 -3.40784 0
M  V30 13352 H 1356.9 -1.52095 -2.58471 0
M  V30 13353 H 1354.45 -0.824777 -1.32767 0
M  V30 13354 H 1355.18 1.00203 -3.08431 0
M  V30 13355 H 1354.97 -0.58547 -3.87704 0
M  V30 13356 H 1356.46 0.363366 -4.16016 0
M  V30 13357 N 1356.9 1.35099 -0.81154 0
M  V30 13358 C 1358.31 1.51701 -0.495883 0
M  V30 13359 C 1358.51 1.7595 0.982035 0
M  V30 13360 O 1357.57 1.8038 1.7669 0
M  V30 13361 C 1358.88 2.68916 -1.34554 0
M  V30 13362 C 1360.43 2.82795 -1.34149 0
M  V30 13363 C 1360.9 4.0304 -2.17538 0
M  V30 13364 N 1362.39 4.10227 -2.151 0
M  V30 13365 C 1363.13 5.02397 -2.76377 0
M  V30 13366 N 1362.63 5.99866 -3.46601 0
M  V30 13367 N 1364.42 4.95181 -2.65992 0
M  V30 13368 H 1356.57 1.17617 -1.76862 0
M  V30 13369 H 1358.83 0.575875 -0.753042 0
M  V30 13370 H 1358.54 2.57591 -2.39458 0
M  V30 13371 H 1358.41 3.63641 -1.00223 0
M  V30 13372 H 1360.8 2.93568 -0.300285 0
M  V30 13373 H 1360.88 1.88912 -1.7247 0
M  V30 13374 H 1360.52 3.93027 -3.21702 0
M  V30 13375 H 1360.45 4.96114 -1.76574 0
M  V30 13376 H 1362.95 3.40454 -1.6401 0
M  V30 13377 H 1363.26 6.66803 -3.90632 0
M  V30 13378 H 1361.6 6.00025 -3.50706 0
M  V30 13379 H 1364.79 4.17991 -2.10715 0
M  V30 13380 H 1364.97 5.6682 -3.14036 0
M  V30 13381 N 1358.37 0.56548 1.47106 0
M  V30 13382 C 1359.3 -0.16567 2.32912 0
M  V30 13383 C 1360.28 -0.900678 1.44298 0
M  V30 13384 O 1361.47 -0.879523 1.73142 0
M  V30 13385 C 1358.6 -1.19092 3.26243 0
M  V30 13386 C 1357.55 -0.571849 4.24163 0
M  V30 13387 C 1356.88 -1.70233 5.06878 0
M  V30 13388 C 1358.18 0.479785 5.20092 0
M  V30 13389 H 1359.87 0.550705 2.94292 0
M  V30 13390 H 1357.42 0.266284 1.41517 0
M  V30 13391 H 1359.37 -1.71064 3.85117 0
M  V30 13392 H 1358.1 -1.93734 2.62934 0
M  V30 13393 H 1356.76 -0.073353 3.66527 0
M  V30 13394 H 1356.4 -2.438 4.39967 0
M  V30 13395 H 1356.1 -1.29384 5.73178 0
M  V30 13396 H 1357.63 -2.22515 5.68612 0
M  V30 13397 H 1359.04 0.0458042 5.73282 0
M  V30 13398 H 1357.44 0.807615 5.94641 0
M  V30 13399 H 1358.51 1.37259 4.65068 0
M  V30 13400 N 1359.85 -1.54672 0.302354 0
M  V30 13401 C 1360.8 -2.25022 -0.58887 0
M  V30 13402 C 1361.79 -1.25671 -1.13592 0
M  V30 13403 O 1363 -1.43518 -1.0864 0
M  V30 13404 H 1359.38 -0.722515 -0.208509 0
M  V30 13405 H 1361.35 -2.98388 0.0269928 0
M  V30 13406 C 1360.1 -3.00532 -1.74859 0
M  V30 13407 H 1359.42 -3.76786 -1.33688 0
M  V30 13408 H 1360.86 -3.53036 -2.34823 0
M  V30 13409 C 1359.32 -2.0758 -2.65353 0
M  V30 13410 O 1359.85 -1.64473 -3.66485 0
M  V30 13411 N 1358.05 -1.73508 -2.33116 0
M  V30 13412 H 1357.6 -2.0876 -1.5092 0
M  V30 13413 H 1357.56 -1.11591 -2.9393 0
M  V30 13414 N 1361.33 -0.0301034 -1.57571 0
M  V30 13415 C 1362.26 0.94977 -2.13311 0
M  V30 13416 C 1363.24 1.33865 -1.04948 0
M  V30 13417 O 1364.43 1.4171 -1.32786 0
M  V30 13418 C 1361.56 2.23178 -2.66099 0
M  V30 13419 C 1360.51 1.98362 -3.79258 0
M  V30 13420 C 1359.84 3.32836 -4.18479 0
M  V30 13421 C 1361.14 1.32201 -5.05292 0
M  V30 13422 H 1362.83 0.485562 -2.95436 0
M  V30 13423 H 1360.38 0.232116 -1.42117 0
M  V30 13424 H 1362.33 2.92108 -3.03728 0
M  V30 13425 H 1361.05 2.71766 -1.81137 0
M  V30 13426 H 1359.71 1.31849 -3.42069 0
M  V30 13427 H 1359.36 3.79185 -3.30496 0
M  V30 13428 H 1359.06 3.17037 -4.94733 0
M  V30 13429 H 1360.58 4.03032 -4.58691 0
M  V30 13430 H 1362 1.91133 -5.40501 0
M  V30 13431 H 1360.4 1.26797 -5.86551 0
M  V30 13432 H 1361.47 0.29511 -4.84001 0
M  V30 13433 N 1362.81 1.55714 0.243056 0
M  V30 13434 C 1364.04 1.81786 0.98801 0
M  V30 13435 C 1364.45 0.606352 1.78798 0
M  V30 13436 O 1363.81 -0.425018 1.77482 0
M  V30 13437 C 1363.86 3.06121 1.92281 0
M  V30 13438 O 1363.58 4.22595 1.15521 0
M  V30 13439 C 1365.08 3.45021 2.78344 0
M  V30 13440 H 1362.3 0.604829 0.290557 0
M  V30 13441 H 1364.85 2.02779 0.26478 0
M  V30 13442 H 1363 2.87167 2.60027 0
M  V30 13443 H 1363.41 4.93088 1.78786 0
M  V30 13444 H 1364.89 4.35112 3.39678 0
M  V30 13445 H 1365.37 2.65782 3.49652 0
M  V30 13446 H 1365.97 3.66339 2.16045 0
M  V30 13447 N 1364.29 -0.50888 1.49158 0
M  V30 13448 C 1365.51 -1.29245 1.62205 0
M  V30 13449 C 1365.94 -1.85845 0.29041 0
M  V30 13450 O 1365.29 -1.6547 -0.740906 0
M  V30 13451 C 1365.34 -2.40415 2.68762 0
M  V30 13452 O 1364.45 -3.44048 2.27387 0
M  V30 13453 H 1363.79 -0.381898 0.543185 0
M  V30 13454 H 1366.32 -0.610076 1.95293 0
M  V30 13455 H 1366.33 -2.86295 2.90688 0
M  V30 13456 H 1365 -1.98584 3.65427 0
M  V30 13457 H 1363.58 -3.04141 2.1576 0
M  V30 13458 N 1365.76 -1.381 -0.759346 0
M  V30 13459 C 1367.18 -1.30379 -1.33635 0
M  V30 13460 C 1367.53 0.0430279 -1.96153 0
M  V30 13461 O 1366.65 0.945029 -1.94675 0
M  V30 13462 C 1367.25 -2.3611 -2.42976 0
M  V30 13463 C 1365.81 -2.31985 -2.96412 0
M  V30 13464 C 1364.95 -2.19281 -1.69739 0
M  V30 13465 H 1367.9 -1.48542 -0.558656 0
M  V30 13466 H 1367.92 -2.01493 -3.22771 0
M  V30 13467 H 1367.44 -3.34122 -1.97445 0
M  V30 13468 H 1365.54 -1.37536 -3.46287 0
M  V30 13469 H 1365.65 -3.25895 -3.51183 0
M  V30 13470 H 1364.01 -1.66035 -1.93144 0
M  V30 13471 H 1364.8 -3.19225 -1.26293 0
M  V30 13472 N 1367.24 0.986894 -1.22875 0
M  V30 13473 C 1368.52 1.70121 -0.965311 0
M  V30 13474 C 1368.9 2.04648 0.517924 0
M  V30 13475 O 1368.25 1.73453 1.48749 0
M  V30 13476 C 1368.46 2.94738 -1.86897 0
M  V30 13477 C 1369.81 3.6739 -2.12861 0
M  V30 13478 O 1370.83 3.04758 -1.84394 0
M  V30 13479 O 1369.69 4.8009 -2.61106 0
M  V30 13480 H 1366.78 0.742817 -0.363527 0
M  V30 13481 H 1369.33 1.0427 -1.33887 0
M  V30 13482 H 1368.1 2.65771 -2.87196 0
M  V30 13483 H 1367.72 3.68327 -1.49736 0
M  V30 13484 N 1368.72 1.0394 1.18466 0
M  V30 13485 C 1369.65 0.650182 2.24265 0
M  V30 13486 C 1370.63 -0.345968 1.66545 0
M  V30 13487 O 1371.82 -0.226348 1.92876 0
M  V30 13488 C 1368.95 0.0110451 3.47298 0
M  V30 13489 C 1367.9 0.930599 4.17761 0
M  V30 13490 C 1367.23 0.156005 5.34472 0
M  V30 13491 C 1368.53 2.24913 4.71393 0
M  V30 13492 H 1370.22 1.53465 2.57078 0
M  V30 13493 H 1367.77 0.739343 1.23571 0
M  V30 13494 H 1369.72 -0.272959 4.20515 0
M  V30 13495 H 1368.44 -0.908288 3.13716 0
M  V30 13496 H 1367.1 1.19897 3.4644 0
M  V30 13497 H 1366.75 -0.765695 4.97138 0
M  V30 13498 H 1366.45 0.768606 5.82551 0
M  V30 13499 H 1367.97 -0.121011 6.1048 0
M  V30 13500 H 1369.39 2.02592 5.36311 0
M  V30 13501 H 1367.79 2.81459 5.30001 0
M  V30 13502 H 1368.86 2.8965 3.88884 0
M  V30 13503 N 1370.2 -1.34667 0.818693 0
M  V30 13504 C 1371.45 -1.98414 0.404759 0
M  V30 13505 C 1371.77 -1.64919 -1.03112 0
M  V30 13506 O 1371.03 -0.910695 -1.73219 0
M  V30 13507 C 1371.33 -3.53157 0.549059 0
M  V30 13508 C 1370.99 -4.06552 1.95003 0
M  V30 13509 C 1369.66 -4.20846 2.33329 0
M  V30 13510 C 1372.01 -4.35324 2.86604 0
M  V30 13511 C 1369.34 -4.61236 3.62599 0
M  V30 13512 C 1371.69 -4.77159 4.15334 0
M  V30 13513 C 1370.35 -4.89658 4.53642 0
M  V30 13514 H 1369.62 -0.726047 0.148112 0
M  V30 13515 H 1372.27 -1.60681 1.04182 0
M  V30 13516 H 1370.57 -3.91425 -0.17141 0
M  V30 13517 H 1372.27 -4.00453 0.209374 0
M  V30 13518 H 1368.86 -3.95887 1.64231 0
M  V30 13519 H 1373.04 -4.23823 2.58239 0
M  V30 13520 H 1368.3 -4.69104 3.92112 0
M  V30 13521 H 1372.47 -4.98381 4.86404 0
M  V30 13522 H 1370.1 -5.20713 5.53861 0
M  V30 13523 N 1371.68 -0.573274 -1.46804 0
M  V30 13524 C 1372.92 -0.0636394 -2.033 0
M  V30 13525 C 1373.28 1.27833 -1.43793 0
M  V30 13526 O 1372.57 1.82286 -0.590126 0
M  V30 13527 C 1372.76 0.0704285 -3.57331 0
M  V30 13528 C 1372.59 -1.257 -4.31775 0
M  V30 13529 C 1371.36 -1.82862 -4.71051 0
M  V30 13530 C 1373.56 -2.178 -4.65905 0
M  V30 13531 N 1371.54 -3.09442 -5.30206 0
M  V30 13532 C 1372.91 -3.28964 -5.25531 0
M  V30 13533 C 1374.97 -2.17597 -4.47835 0
M  V30 13534 C 1373.67 -4.40044 -5.68993 0
M  V30 13535 C 1375.7 -3.277 -4.92307 0
M  V30 13536 C 1375.06 -4.37584 -5.51996 0
M  V30 13537 H 1371.16 -0.065839 -0.779223 0
M  V30 13538 H 1373.74 -0.764099 -1.7908 0
M  V30 13539 H 1371.91 0.740038 -3.81285 0
M  V30 13540 H 1373.65 0.583588 -4.0047 0
M  V30 13541 H 1370.4 -1.36467 -4.53513 0
M  V30 13542 H 1370.83 -3.74004 -5.64314 0
M  V30 13543 H 1375.47 -1.33919 -4.01031 0
M  V30 13544 H 1373.19 -5.24471 -6.14781 0
M  V30 13545 H 1376.77 -3.2865 -4.80084 0
M  V30 13546 H 1375.65 -5.21375 -5.85779 0
M  V30 13547 N 1373.15 1.5451 -0.310553 0
M  V30 13548 C 1374.08 2.26827 0.554243 0
M  V30 13549 C 1375.07 1.27133 1.13009 0
M  V30 13550 O 1376.25 1.55923 1.15765 0
M  V30 13551 C 1373.38 3.01626 1.7216 0
M  V30 13552 C 1372.33 4.08547 1.27566 0
M  V30 13553 C 1371.66 4.71115 2.52893 0
M  V30 13554 C 1372.96 5.20766 0.399955 0
M  V30 13555 H 1374.65 2.9936 -0.0489475 0
M  V30 13556 H 1372.2 1.43978 -0.0249817 0
M  V30 13557 H 1374.15 3.50942 2.33276 0
M  V30 13558 H 1372.88 2.26688 2.35118 0
M  V30 13559 H 1371.54 3.60096 0.687499 0
M  V30 13560 H 1371.18 3.92805 3.14186 0
M  V30 13561 H 1370.88 5.43331 2.23752 0
M  V30 13562 H 1372.41 5.23198 3.14796 0
M  V30 13563 H 1373.82 5.65918 0.917054 0
M  V30 13564 H 1372.22 5.9976 0.2019 0
M  V30 13565 H 1373.29 4.81508 -0.572537 0
M  V30 13566 N 1374.63 0.0384594 1.57553 0
M  V30 13567 C 1375.88 -0.639085 1.92467 0
M  V30 13568 C 1376.21 -1.71239 0.916014 0
M  V30 13569 O 1375.49 -1.94408 -0.0598928 0
M  V30 13570 C 1375.77 -1.24693 3.37822 0
M  V30 13571 C 1375.62 -0.182544 4.49429 0
M  V30 13572 C 1376.94 -2.16226 3.8332 0
M  V30 13573 H 1374.06 -0.230852 0.699912 0
M  V30 13574 H 1376.7 0.0976276 1.89749 0
M  V30 13575 H 1374.85 -1.87481 3.40269 0
M  V30 13576 H 1376.53 0.448622 4.59113 0
M  V30 13577 H 1374.77 0.4909 4.31013 0
M  V30 13578 H 1375.44 -0.647626 5.48188 0
M  V30 13579 H 1377.92 -1.63413 3.82669 0
M  V30 13580 H 1376.79 -2.55705 4.85702 0
M  V30 13581 H 1377.05 -3.05722 3.19353 0
M  V30 13582 N 1376.11 -1.55841 -0.234795 0
M  V30 13583 C 1377.36 -1.78238 -0.961116 0
M  V30 13584 C 1377.69 -0.604919 -1.84854 0
M  V30 13585 O 1376.94 0.411289 -1.91329 0
M  V30 13586 C 1377.24 -3.06262 -1.84223 0
M  V30 13587 C 1376.91 -4.37045 -1.10916 0
M  V30 13588 C 1375.57 -4.72582 -0.906606 0
M  V30 13589 C 1377.92 -5.17844 -0.59049 0
M  V30 13590 C 1375.25 -5.86444 -0.173275 0
M  V30 13591 C 1377.6 -6.32468 0.129433 0
M  V30 13592 C 1376.26 -6.66616 0.343357 0
M  V30 13593 H 1375.53 -0.652219 -0.351697 0
M  V30 13594 H 1378.18 -1.9011 -0.230272 0
M  V30 13595 H 1376.49 -2.89454 -2.64052 0
M  V30 13596 H 1378.18 -3.20791 -2.40612 0
M  V30 13597 H 1374.77 -4.09134 -1.27699 0
M  V30 13598 H 1378.96 -4.90835 -0.734487 0
M  V30 13599 H 1374.21 -6.114 0.00282409 0
M  V30 13600 H 1378.39 -6.94312 0.538905 0
M  V30 13601 H 1376.01 -7.54691 0.913538 0
M  V30 13602 N 1377.59 0.500963 -1.49426 0
M  V30 13603 C 1379.01 0.832142 -1.36189 0
M  V30 13604 C 1379.21 1.9759 -0.395014 0
M  V30 13605 O 1378.26 2.51905 0.173294 0
M  V30 13606 C 1379.57 1.17232 -2.76907 0
M  V30 13607 C 1381.12 1.28052 -2.85607 0
M  V30 13608 C 1381.6 1.65399 -4.27092 0
M  V30 13609 N 1383.09 1.72448 -4.29902 0
M  V30 13610 C 1383.82 2.02789 -5.36343 0
M  V30 13611 N 1383.32 2.31354 -6.53029 0
M  V30 13612 N 1385.11 2.0404 -5.23759 0
M  V30 13613 H 1377.26 -0.253253 -2.10885 0
M  V30 13614 H 1379.53 -0.0507111 -0.946643 0
M  V30 13615 H 1379.23 0.405247 -3.49357 0
M  V30 13616 H 1379.11 2.11574 -3.12276 0
M  V30 13617 H 1381.49 2.03831 -2.13394 0
M  V30 13618 H 1381.57 0.317603 -2.53821 0
M  V30 13619 H 1381.22 0.901704 -4.99832 0
M  V30 13620 H 1381.15 2.6279 -4.56343 0
M  V30 13621 H 1383.64 1.52532 -3.45749 0
M  V30 13622 H 1383.95 2.53695 -7.29972 0
M  V30 13623 H 1382.3 2.28811 -6.56255 0
M  V30 13624 H 1385.49 1.812 -4.31606 0
M  V30 13625 H 1385.66 2.27353 -6.06807 0
M  V30 13626 N 1379.07 1.38501 0.752011 0
M  V30 13627 C 1380.3 1.37832 1.53902 0
M  V30 13628 C 1380.71 -0.0333526 1.89171 0
M  V30 13629 O 1380.05 -1.01076 1.53393 0
M  V30 13630 C 1380.11 2.17098 2.86546 0
M  V30 13631 C 1379.77 3.65895 2.73807 0
M  V30 13632 C 1380.77 4.59353 2.43497 0
M  V30 13633 C 1378.46 4.0927 2.9121 0
M  V30 13634 C 1380.45 5.94167 2.30746 0
M  V30 13635 C 1378.14 5.44165 2.78079 0
M  V30 13636 C 1379.14 6.36427 2.47891 0
M  V30 13637 O 1378.82 7.68839 2.34822 0
M  V30 13638 H 1378.56 0.473187 0.482773 0
M  V30 13639 H 1381.11 1.82715 0.938324 0
M  V30 13640 H 1379.34 1.66936 3.48811 0
M  V30 13641 H 1381.03 2.08817 3.48067 0
M  V30 13642 H 1381.79 4.27147 2.29718 0
M  V30 13643 H 1377.67 3.37803 3.13704 0
M  V30 13644 H 1381.22 6.66148 2.07105 0
M  V30 13645 H 1377.11 5.75967 2.91432 0
M  V30 13646 H 1377.88 7.79379 2.50022 0
M  V30 13647 N 1380.55 -0.980364 1.23396 0
M  V30 13648 C 1381.79 -1.72421 1.06765 0
M  V30 13649 C 1382.12 -1.90151 -0.394515 0
M  V30 13650 O 1381.4 -1.4538 -1.29209 0
M  V30 13651 C 1381.68 -3.12246 1.79372 0
M  V30 13652 C 1381.54 -3.02087 3.33262 0
M  V30 13653 C 1382.85 -4.11667 1.55624 0
M  V30 13654 H 1379.97 -0.625822 0.389251 0
M  V30 13655 H 1382.62 -1.14132 1.51901 0
M  V30 13656 H 1380.77 -3.62008 1.41004 0
M  V30 13657 H 1382.44 -2.59848 3.81152 0
M  V30 13658 H 1380.68 -2.38592 3.62293 0
M  V30 13659 H 1381.35 -4.01087 3.79254 0
M  V30 13660 H 1383.83 -3.70712 1.88975 0
M  V30 13661 H 1382.7 -5.07593 2.08902 0
M  V30 13662 H 1382.96 -4.39358 0.491601 0
M  V30 13663 N 1382.02 -1.04567 -1.17913 0
M  V30 13664 C 1382.97 -0.634939 -2.23766 0
M  V30 13665 C 1383.97 0.340723 -1.65938 0
M  V30 13666 O 1385.17 0.207467 -1.788 0
M  V30 13667 H 1381.55 -0.187129 -0.728345 0
M  V30 13668 H 1383.52 -1.53798 -2.55712 0
M  V30 13669 C 1382.27 -0.0190662 -3.47695 0
M  V30 13670 H 1381.59 -0.760881 -3.92493 0
M  V30 13671 H 1383.03 0.231035 -4.2337 0
M  V30 13672 C 1381.49 1.23246 -3.13548 0
M  V30 13673 O 1382.02 2.32262 -3.27746 0
M  V30 13674 N 1380.22 1.12768 -2.67828 0
M  V30 13675 H 1379.77 0.240547 -2.56474 0
M  V30 13676 H 1379.73 1.96594 -2.45353 0
M  V30 13677 N 1383.5 1.34231 -0.825823 0
M  V30 13678 C 1384.92 1.51166 -0.511945 0
M  V30 13679 C 1385.12 1.76981 0.963318 0
M  V30 13680 O 1384.17 1.82243 1.74767 0
M  V30 13681 C 1385.49 2.67474 -1.37399 0
M  V30 13682 C 1387.03 2.81356 -1.37141 0
M  V30 13683 C 1387.51 4.0071 -2.218 0
M  V30 13684 N 1389 4.07922 -2.19439 0
M  V30 13685 C 1389.74 4.99438 -2.81691 0
M  V30 13686 N 1389.23 5.96157 -3.52944 0
M  V30 13687 N 1391.02 4.92332 -2.7123 0
M  V30 13688 H 1383.18 1.15734 -1.78099 0
M  V30 13689 H 1385.44 0.567856 -0.759107 0
M  V30 13690 H 1385.14 2.55036 -2.42176 0
M  V30 13691 H 1385.02 3.62558 -1.04075 0
M  V30 13692 H 1387.41 2.93233 -0.331405 0
M  V30 13693 H 1387.49 1.87072 -1.74464 0
M  V30 13694 H 1387.13 3.89593 -3.25852 0
M  V30 13695 H 1387.06 4.94213 -1.81826 0
M  V30 13696 H 1389.55 3.38695 -1.67612 0
M  V30 13697 H 1389.86 6.62623 -3.97682 0
M  V30 13698 H 1388.21 5.96272 -3.5705 0
M  V30 13699 H 1391.4 4.15733 -2.15137 0
M  V30 13700 H 1391.57 5.63458 -3.20031 0
M  V30 13701 N 1384.98 0.581051 1.46498 0
M  V30 13702 C 1386.23 0.0658652 2.01993 0
M  V30 13703 C 1386.55 -1.29807 1.45516 0
M  V30 13704 O 1385.82 -1.85177 0.639233 0
M  V30 13705 H 1384.4 0.0213584 0.746695 0
M  V30 13706 H 1387.06 0.756456 1.79621 0
M  V30 13707 H 1386.16 -0.00438128 3.121 0
M  V30 13708 N 1386.46 -1.54343 0.318742 0
M  V30 13709 C 1387.42 -2.22828 -0.536679 0
M  V30 13710 C 1388.42 -1.22013 -1.04735 0
M  V30 13711 O 1389.61 -1.46626 -0.940549 0
M  V30 13712 C 1386.74 -2.92857 -1.74493 0
M  V30 13713 H 1387.94 -2.99836 0.0619325 0
M  V30 13714 H 1385.49 -1.56144 0.0697687 0
M  V30 13715 H 1386.22 -2.19973 -2.3829 0
M  V30 13716 H 1386.01 -3.66779 -1.38621 0
M  V30 13717 H 1387.5 -3.45049 -2.35225 0
M  V30 13718 N 1387.94 -0.0468143 -1.5753 0
M  V30 13719 C 1388.87 0.96433 -2.06823 0
M  V30 13720 C 1389.85 1.30663 -0.967783 0
M  V30 13721 O 1391.03 1.42025 -1.2394 0
M  V30 13722 C 1388.16 2.27954 -2.50509 0
M  V30 13723 C 1387.2 2.0906 -3.71748 0
M  V30 13724 S 1388.04 1.373 -5.17599 0
M  V30 13725 C 1389.19 2.70153 -5.64596 0
M  V30 13726 H 1389.43 0.544801 -2.92266 0
M  V30 13727 H 1386.96 0.16534 -1.53512 0
M  V30 13728 H 1388.92 3.03555 -2.76342 0
M  V30 13729 H 1387.58 2.67036 -1.65381 0
M  V30 13730 H 1386.77 3.06333 -4.0022 0
M  V30 13731 H 1386.37 1.41599 -3.46158 0
M  V30 13732 H 1388.66 3.66337 -5.69915 0
M  V30 13733 H 1389.61 2.46322 -6.63876 0
M  V30 13734 H 1390.02 2.76212 -4.92308 0
M  V30 13735 N 1389.41 1.55964 0.226527 0
M  V30 13736 C 1390.64 1.83168 0.972846 0
M  V30 13737 C 1391.06 0.626512 1.7736 0
M  V30 13738 O 1390.42 -0.42468 1.76256 0
M  V30 13739 C 1390.47 3.08315 1.87014 0
M  V30 13740 O 1389.57 2.8666 2.96479 0
M  V30 13741 H 1388.92 0.604041 0.275736 0
M  V30 13742 H 1391.45 2.03172 0.241345 0
M  V30 13743 H 1391.46 3.38288 2.28091 0
M  V30 13744 H 1390.13 3.95663 1.28154 0
M  V30 13745 H 1388.71 2.67907 2.59384 0
M  V30 13746 N 1390.89 -0.493031 1.4969 0
M  V30 13747 C 1392.14 -1.24849 1.59814 0
M  V30 13748 C 1392.47 -1.92059 0.287555 0
M  V30 13749 O 1391.75 -1.81099 -0.709471 0
M  V30 13750 C 1392.03 -2.30929 2.76304 0
M  V30 13751 C 1391.88 -1.68167 4.17181 0
M  V30 13752 C 1393.2 -3.32427 2.8841 0
M  V30 13753 H 1390.32 -0.452553 0.581691 0
M  V30 13754 H 1392.96 -0.545455 1.82002 0
M  V30 13755 H 1391.11 -2.9089 2.57517 0
M  V30 13756 H 1392.78 -1.11971 4.47504 0
M  V30 13757 H 1391.03 -0.985496 4.22458 0
M  V30 13758 H 1391.7 -2.45148 4.94577 0
M  V30 13759 H 1394.17 -2.82464 3.05537 0
M  V30 13760 H 1393.05 -4.04004 3.71581 0
M  V30 13761 H 1393.31 -3.95234 1.98097 0
M  V30 13762 N 1392.37 -1.38898 -0.744656 0
M  V30 13763 C 1393.6 -1.3903 -1.53901 0
M  V30 13764 C 1394.02 0.0156607 -1.88093 0
M  V30 13765 O 1393.38 1.00012 -1.51219 0
M  V30 13766 C 1393.43 -2.2609 -2.80919 0
M  V30 13767 O 1392.53 -1.68414 -3.76444 0
M  V30 13768 H 1391.87 -0.473854 -0.465144 0
M  V30 13769 H 1394.4 -1.82773 -0.919525 0
M  V30 13770 H 1394.41 -2.40264 -3.29754 0
M  V30 13771 H 1393.09 -3.28271 -2.55364 0
M  V30 13772 H 1391.66 -1.63431 -3.35179 0
M  V30 13773 N 1393.85 0.973806 -1.23914 0
M  V30 13774 C 1395.1 1.71259 -1.07307 0
M  V30 13775 C 1395.42 1.91064 0.389831 0
M  V30 13776 O 1394.69 1.48401 1.27883 0
M  V30 13777 H 1393.27 0.634588 -0.39409 0
M  V30 13778 H 1395.93 1.17184 -1.55737 0
M  V30 13779 H 1395.03 2.69953 -1.56626 0
M  V30 13780 N 1395.33 1.05191 1.17357 0
M  V30 13781 C 1396.74 0.773255 1.39617 0
M  V30 13782 C 1396.94 -0.632346 1.91321 0
M  V30 13783 O 1396 -1.39475 2.10483 0
M  V30 13784 C 1397.31 1.82885 2.38692 0
M  V30 13785 C 1398.86 1.85106 2.52398 0
M  V30 13786 C 1399.33 2.89689 3.54746 0
M  V30 13787 N 1400.83 2.88651 3.62263 0
M  V30 13788 C 1401.56 3.66221 4.41214 0
M  V30 13789 N 1401.06 4.53577 5.23679 0
M  V30 13790 N 1402.85 3.54661 4.36087 0
M  V30 13791 H 1395 1.9588 0.82127 0
M  V30 13792 H 1397.26 0.848187 0.423417 0
M  V30 13793 H 1396.97 2.83766 2.07773 0
M  V30 13794 H 1396.84 1.67047 3.38194 0
M  V30 13795 H 1399.23 0.848896 2.82627 0
M  V30 13796 H 1399.31 2.05022 1.5297 0
M  V30 13797 H 1398.96 3.90091 3.25255 0
M  V30 13798 H 1398.89 2.67025 4.53878 0
M  V30 13799 H 1401.38 2.25312 3.03386 0
M  V30 13800 H 1401.69 5.09449 5.81104 0
M  V30 13801 H 1400.03 4.57638 5.23061 0
M  V30 13802 H 1403.23 2.8581 3.70716 0
M  V30 13803 H 1403.4 4.15361 4.97372 0
M  V30 13804 N 1396.8 -1.33791 0.83293 0
M  V30 13805 C 1398.05 -1.98266 0.426412 0
M  V30 13806 C 1398.38 -1.65848 -1.01035 0
M  V30 13807 O 1397.66 -0.93528 -1.70537 0
M  V30 13808 C 1397.94 -3.54356 0.640586 0
M  V30 13809 C 1397.79 -3.96482 2.12419 0
M  V30 13810 C 1399.11 -4.40022 0.0829237 0
M  V30 13811 H 1396.23 -0.720213 0.156404 0
M  V30 13812 H 1398.87 -1.58527 1.04735 0
M  V30 13813 H 1397.02 -3.88338 0.11204 0
M  V30 13814 H 1398.7 -3.72786 2.71714 0
M  V30 13815 H 1396.94 -3.46429 2.61092 0
M  V30 13816 H 1397.61 -5.05179 2.22482 0
M  V30 13817 H 1400.09 -4.12651 0.534634 0
M  V30 13818 H 1398.96 -5.48272 0.262511 0
M  V30 13819 H 1399.22 -4.30341 -1.01287 0
M  V30 13820 N 1398.28 -0.588812 -1.46187 0
M  V30 13821 C 1399.51 -0.0806571 -2.07243 0
M  V30 13822 C 1399.93 1.21766 -1.43369 0
M  V30 13823 O 1399.29 1.73694 -0.51964 0
M  V30 13824 C 1399.34 0.065267 -3.60541 0
M  V30 13825 O 1398.44 1.12026 -3.96893 0
M  V30 13826 H 1397.78 -0.0655622 -0.660755 0
M  V30 13827 H 1400.31 -0.813489 -1.87733 0
M  V30 13828 H 1400.32 0.269494 -4.07109 0
M  V30 13829 H 1399 -0.88284 -4.06422 0
M  V30 13830 H 1397.58 0.894 -3.62025 0
M  V30 13831 N 1399.76 1.54172 -0.326923 0
M  V30 13832 C 1401.01 2.00926 0.275047 0
M  V30 13833 C 1401.34 1.21469 1.51522 0
M  V30 13834 O 1400.61 0.297871 1.92206 0
M  V30 13835 C 1400.9 3.54967 0.605833 0
M  V30 13836 C 1400.75 4.45147 -0.645279 0
M  V30 13837 C 1402.07 4.16489 1.42213 0
M  V30 13838 H 1399.19 0.730389 0.098495 0
M  V30 13839 H 1401.83 1.84735 -0.444168 0
M  V30 13840 H 1399.98 3.68895 1.21857 0
M  V30 13841 H 1401.65 4.43085 -1.2835 0
M  V30 13842 H 1399.9 4.14686 -1.27349 0
M  V30 13843 H 1400.57 5.50763 -0.36932 0
M  V30 13844 H 1403.04 4.06158 0.904172 0
M  V30 13845 H 1401.92 5.24377 1.62234 0
M  V30 13846 H 1402.18 3.70032 2.41928 0
M  V30 13847 N 1401.24 0.0551678 1.57503 0
M  V30 13848 C 1402.65 -0.3014 1.56728 0
M  V30 13849 C 1402.85 -1.71169 1.06317 0
M  V30 13850 O 1401.91 -2.4197 0.721566 0
M  V30 13851 C 1403.22 -0.12622 3.00435 0
M  V30 13852 C 1404.77 -0.197022 3.12379 0
M  V30 13853 C 1405.25 -0.0503235 4.57972 0
M  V30 13854 N 1406.74 -0.106471 4.63078 0
M  V30 13855 C 1407.47 -0.0171325 5.73397 0
M  V30 13856 N 1406.97 0.124781 6.92688 0
M  V30 13857 N 1408.76 -0.0730028 5.62053 0
M  V30 13858 H 1400.91 0.977072 1.88592 0
M  V30 13859 H 1403.18 0.37963 0.868668 0
M  V30 13860 H 1402.88 0.846286 3.41366 0
M  V30 13861 H 1402.76 -0.885574 3.66657 0
M  V30 13862 H 1405.14 -1.16 2.71345 0
M  V30 13863 H 1405.22 0.593155 2.48828 0
M  V30 13864 H 1404.87 0.909352 4.99693 0
M  V30 13865 H 1404.8 -0.859695 5.19535 0
M  V30 13866 H 1407.29 -0.215241 3.77287 0
M  V30 13867 H 1407.6 0.185548 7.72577 0
M  V30 13868 H 1405.95 0.15992 6.94816 0
M  V30 13869 H 1409.14 -0.182456 4.67744 0
M  V30 13870 H 1409.31 7.85052e-05 6.48 0
M  V30 13871 N 1402.72 -1.56081 -0.218252 0
M  V30 13872 C 1403.63 -1.95856 -1.29141 0
M  V30 13873 C 1404.64 -0.862857 -1.51099 0
M  V30 13874 O 1405.82 -1.1667 -1.64165 0
M  V30 13875 C 1402.88 -2.27005 -2.62049 0
M  V30 13876 C 1401.94 -3.50162 -2.48365 0
M  V30 13877 C 1401.18 -3.79815 -3.74935 0
M  V30 13878 O 1401.4 -3.11095 -4.78096 0
M  V30 13879 O 1400.33 -4.73299 -3.71849 0
M  V30 13880 H 1404.16 -2.8732 -0.983922 0
M  V30 13881 H 1401.75 -1.43334 -0.421385 0
M  V30 13882 H 1403.63 -2.4822 -3.40536 0
M  V30 13883 H 1402.3 -1.38715 -2.92472 0
M  V30 13884 H 1401.21 -3.34222 -1.68066 0
M  V30 13885 H 1402.54 -4.38845 -2.22881 0
M  V30 13886 N 1404.2 0.485086 -1.49949 0
M  V30 13887 C 1405.11 1.61089 -1.70551 0
M  V30 13888 C 1406.12 1.63752 -0.588333 0
M  V30 13889 O 1407.3 1.81879 -0.86498 0
M  V30 13890 C 1404.36 2.97382 -1.78227 0
M  V30 13891 C 1403.42 3.05219 -3.01894 0
M  V30 13892 C 1402.66 4.35011 -3.09195 0
M  V30 13893 O 1402.88 5.24722 -2.23658 0
M  V30 13894 O 1401.81 4.48151 -4.01802 0
M  V30 13895 H 1405.64 1.46633 -2.65956 0
M  V30 13896 H 1403.22 0.663091 -1.33879 0
M  V30 13897 H 1405.11 3.78356 -1.85538 0
M  V30 13898 H 1403.78 3.12066 -0.860043 0
M  V30 13899 H 1402.69 2.23373 -3.00092 0
M  V30 13900 H 1404.02 2.95467 -3.93649 0
M  V30 13901 N 1405.67 1.39291 0.737279 0
M  V30 13902 C 1406.92 1.36121 1.49384 0
M  V30 13903 C 1407.24 -0.0429406 1.94953 0
M  V30 13904 O 1406.51 -0.993756 1.68823 0
M  V30 13905 H 1405.09 0.500916 0.554159 0
M  V30 13906 H 1407.75 1.74134 0.875402 0
M  V30 13907 H 1406.85 2.02246 2.37704 0
M  V30 13908 N 1407.15 -0.967221 1.24429 0
M  V30 13909 C 1408.57 -1.23594 1.00979 0
M  V30 13910 C 1408.77 -1.99529 -0.281112 0
M  V30 13911 O 1407.82 -2.31977 -0.997139 0
M  V30 13912 C 1409.14 -2.02261 2.22511 0
M  V30 13913 C 1410.68 -2.15352 2.2714 0
M  V30 13914 C 1411.16 -2.97414 3.48294 0
M  V30 13915 N 1412.65 -3.04996 3.48614 0
M  V30 13916 C 1413.39 -3.68851 4.39017 0
M  V30 13917 N 1412.88 -4.34421 5.39676 0
M  V30 13918 N 1414.67 -3.65868 4.26728 0
M  V30 13919 H 1406.83 -0.458881 2.07384 0
M  V30 13920 H 1409.09 -0.265411 0.910088 0
M  V30 13921 H 1408.79 -1.53852 3.16263 0
M  V30 13922 H 1408.67 -3.02993 2.24667 0
M  V30 13923 H 1411.06 -2.62964 1.33919 0
M  V30 13924 H 1411.14 -1.13966 2.2901 0
M  V30 13925 H 1410.78 -2.50495 4.41831 0
M  V30 13926 H 1410.71 -3.98998 3.43668 0
M  V30 13927 H 1413.2 -2.58354 2.75793 0
M  V30 13928 H 1413.51 -4.80965 6.04891 0
M  V30 13929 H 1411.86 -4.33089 5.43562 0
M  V30 13930 H 1415.05 -3.13819 3.47325 0
M  V30 13931 H 1415.22 -4.15349 4.97382 0
M  V30 13932 N 1408.63 -1.05812 -1.16797 0
M  V30 13933 C 1409.85 -0.792518 -1.91661 0
M  V30 13934 C 1410.28 0.646598 -1.76637 0
M  V30 13935 O 1409.64 1.44998 -1.08836 0
M  V30 13936 C 1409.69 -1.18585 -3.40544 0
M  V30 13937 O 1408.79 -0.321716 -4.11143 0
M  V30 13938 H 1408.13 -0.290066 -0.597292 0
M  V30 13939 H 1410.66 -1.41263 -1.48007 0
M  V30 13940 H 1410.67 -1.1553 -3.91301 0
M  V30 13941 H 1409.35 -2.23413 -3.50798 0
M  V30 13942 H 1407.92 -0.413403 -3.70601 0
M  V30 13943 N 1410.11 1.33347 -0.840014 0
M  V30 13944 C 1411.07 2.27492 -0.279264 0
M  V30 13945 C 1412.07 1.51004 0.552669 0
M  V30 13946 O 1413.26 1.70305 0.366295 0
M  V30 13947 C 1410.39 3.35462 0.606466 0
M  V30 13948 H 1411.59 2.78601 -1.11001 0
M  V30 13949 H 1409.14 1.4377 -0.613187 0
M  V30 13950 H 1409.87 2.89596 1.45961 0
M  V30 13951 H 1409.66 3.92098 0.0111889 0
M  V30 13952 H 1411.15 4.05645 0.992052 0
M  V30 13953 N 1411.59 0.596556 1.45873 0
M  V30 13954 C 1412.81 0.0934926 2.06689 0
M  V30 13955 C 1413.23 -1.21743 1.44305 0
M  V30 13956 O 1412.59 -1.73912 0.553253 0
M  V30 13957 C 1412.64 -0.0643337 3.61443 0
M  V30 13958 O 1412.36 1.19472 4.21495 0
M  V30 13959 C 1413.86 -0.600141 4.39219 0
M  V30 13960 H 1411.08 0.0637846 0.667961 0
M  V30 13961 H 1413.62 0.821159 1.87289 0
M  V30 13962 H 1411.78 -0.742278 3.80222 0
M  V30 13963 H 1412.19 1.01735 5.14539 0
M  V30 13964 H 1413.67 -0.6597 5.48044 0
M  V30 13965 H 1414.14 -1.62009 4.08227 0
M  V30 13966 H 1414.75 0.0433915 4.25278 0
M  V30 13967 N 1413.06 -1.53996 0.335095 0
M  V30 13968 C 1414.3 -2.02682 -0.264447 0
M  V30 13969 C 1414.67 -1.21779 -1.48438 0
M  V30 13970 O 1415.87 -1.60322 -2.15755 0
M  V30 13971 C 1414.14 -3.52678 -0.579072 0
M  V30 13972 S 1415.7 -4.23282 -1.15663 0
M  V30 13973 H 1412.52 -0.706566 -0.0792826 0
M  V30 13974 H 1415.12 -1.89744 0.470895 0
M  V30 13975 H 1413.82 -4.09176 0.316756 0
M  V30 13976 H 1413.35 -3.69719 -1.34431 0
M  V30 13977 H 1415.37 -4.31903 -2.44284 0
M  V30 13978 N 1414.54 -0.0635198 -1.57472 0
M  V30 13979 C 1415.5 0.891881 -2.11135 0
M  V30 13980 C 1416.5 1.23182 -1.03358 0
M  V30 13981 O 1417.69 1.16646 -1.2938 0
M  V30 13982 C 1414.83 2.19792 -2.60584 0
M  V30 13983 H 1416.02 0.426461 -2.96852 0
M  V30 13984 H 1413.57 0.185069 -1.552 0
M  V30 13985 H 1414.31 2.70889 -1.78297 0
M  V30 13986 H 1414.09 1.96419 -3.39355 0
M  V30 13987 H 1415.58 2.88203 -3.02206 0
M  V30 13988 N 1416.02 1.56195 0.209972 0
M  V30 13989 C 1416.97 1.94226 1.27981 0
M  V30 13990 C 1417.96 0.825742 1.47912 0
M  V30 13991 O 1419.17 1.01066 1.48949 0
M  V30 13992 H 1415.54 0.617395 0.429333 0
M  V30 13993 H 1417.51 2.83474 0.931946 0
M  V30 13994 C 1416.26 2.28527 2.62051 0
M  V30 13995 H 1415.59 3.1396 2.47526 0
M  V30 13996 H 1417.03 2.59012 3.35692 0
M  V30 13997 C 1415.48 1.11452 3.17931 0
M  V30 13998 O 1416.01 0.381713 3.99882 0
M  V30 13999 N 1414.22 0.895263 2.76466 0
M  V30 14000 H 1413.77 1.4929 2.09929 0
M  V30 14001 H 1413.73 0.113688 3.14194 0
M  V30 14002 N 1417.5 -0.477127 1.50204 0
M  V30 14003 C 1418.74 -1.23956 1.62525 0
M  V30 14004 C 1419.1 -1.89385 0.315789 0
M  V30 14005 O 1420.3 -2.66955 0.314378 0
M  V30 14006 C 1418.57 -2.25999 2.76874 0
M  V30 14007 S 1420.13 -3.11262 3.09292 0
M  V30 14008 H 1416.95 -0.420931 0.573008 0
M  V30 14009 H 1419.55 -0.537592 1.87963 0
M  V30 14010 H 1418.26 -1.76501 3.70507 0
M  V30 14011 H 1417.79 -3.00832 2.53503 0
M  V30 14012 H 1419.8 -4.27061 2.52652 0
M  V30 14013 N 1418.98 -1.3968 -0.729882 0
M  V30 14014 C 1420.2 -1.40467 -1.5191 0
M  V30 14015 C 1420.62 -0.000529943 -1.888 0
M  V30 14016 O 1419.98 0.972072 -1.54457 0
M  V30 14017 C 1420.03 -2.2823 -2.80345 0
M  V30 14018 O 1419.75 -3.63176 -2.4502 0
M  V30 14019 C 1421.25 -2.37455 -3.74339 0
M  V30 14020 H 1418.47 -0.479604 -0.469277 0
M  V30 14021 H 1421.01 -1.83558 -0.901484 0
M  V30 14022 H 1419.17 -1.88538 -3.38426 0
M  V30 14023 H 1419.58 -4.0964 -3.2756 0
M  V30 14024 H 1421.06 -3.031 -4.6134 0
M  V30 14025 H 1421.53 -1.39525 -4.16449 0
M  V30 14026 H 1422.14 -2.77638 -3.22176 0
M  V30 14027 N 1420.45 0.960609 -1.2494 0
M  V30 14028 C 1421.42 2.03791 -1.04891 0
M  V30 14029 C 1422.42 1.608 -0.00375792 0
M  V30 14030 O 1423.61 1.72463 -0.24539 0
M  V30 14031 C 1420.74 3.35733 -0.591309 0
M  V30 14032 H 1421.93 2.2301 -2.00516 0
M  V30 14033 H 1419.49 1.13686 -1.07263 0
M  V30 14034 H 1420.22 3.22207 0.367816 0
M  V30 14035 H 1420.01 3.68283 -1.34574 0
M  V30 14036 H 1421.5 4.14921 -0.472283 0
M  V30 14037 N 1421.93 1.0643 1.16234 0
M  V30 14038 C 1422.86 0.634274 2.20249 0
M  V30 14039 C 1423.88 -0.308432 1.59852 0
M  V30 14040 O 1425.07 -0.0992067 1.78224 0
M  V30 14041 C 1422.17 -0.0901593 3.3878 0
M  V30 14042 C 1421.34 0.866379 4.28734 0
M  V30 14043 C 1420.4 0.180942 5.25889 0
M  V30 14044 O 1419.42 0.819034 5.63277 0
M  V30 14045 N 1420.63 -1.07698 5.70422 0
M  V30 14046 H 1423.39 1.52901 2.57762 0
M  V30 14047 H 1420.95 0.947789 1.31258 0
M  V30 14048 H 1422.94 -0.559147 4.00819 0
M  V30 14049 H 1421.51 -0.886715 2.9976 0
M  V30 14050 H 1420.73 1.51471 3.63937 0
M  V30 14051 H 1422.02 1.51524 4.85714 0
M  V30 14052 H 1421.42 -1.6155 5.42142 0
M  V30 14053 H 1419.98 -1.48981 6.34545 0
M  V30 14054 N 1423.41 -1.329 0.847073 0
M  V30 14055 C 1424.64 -2.02244 0.459588 0
M  V30 14056 C 1425.06 -1.63279 -0.933897 0
M  V30 14057 O 1424.42 -0.829551 -1.61208 0
M  V30 14058 C 1424.47 -3.55616 0.59745 0
M  V30 14059 O 1423.57 -4.1071 -0.372919 0
M  V30 14060 H 1422.91 -0.637504 0.1857 0
M  V30 14061 H 1425.44 -1.69617 1.14417 0
M  V30 14062 H 1425.45 -4.05141 0.482145 0
M  V30 14063 H 1424.13 -3.8332 1.61365 0
M  V30 14064 H 1422.7 -3.72283 -0.214487 0
M  V30 14065 N 1424.89 -0.604284 -1.45555 0
M  V30 14066 C 1425.82 0.154579 -2.28678 0
M  V30 14067 C 1426.83 0.83491 -1.39761 0
M  V30 14068 O 1428.02 0.700852 -1.64166 0
M  V30 14069 C 1425.12 1.2397 -3.15412 0
M  V30 14070 C 1424.3 0.647128 -4.32586 0
M  V30 14071 C 1423.35 1.62272 -5.00554 0
M  V30 14072 O 1422.38 1.15031 -5.57455 0
M  V30 14073 N 1423.58 2.9571 -4.99536 0
M  V30 14074 H 1426.35 -0.558668 -2.94447 0
M  V30 14075 H 1423.91 -0.443538 -1.55706 0
M  V30 14076 H 1425.9 1.89209 -3.57746 0
M  V30 14077 H 1424.47 1.85552 -2.51574 0
M  V30 14078 H 1423.69 -0.183261 -3.93774 0
M  V30 14079 H 1424.98 0.231394 -5.08274 0
M  V30 14080 H 1424.38 3.36695 -4.54591 0
M  V30 14081 H 1422.93 3.56381 -5.45744 0
M  V30 14082 N 1426.37 1.53816 -0.343257 0
M  V30 14083 C 1427.78 1.86169 0.140709 0
M  V30 14084 C 1428.13 1.26449 1.50017 0
M  V30 14085 O 1427.25 0.577955 2.08539 0
M  V30 14086 C 1427.85 3.37785 0.262097 0
M  V30 14087 C 1426.41 3.70016 0.690294 0
M  V30 14088 C 1425.55 2.7674 -0.17614 0
M  V30 14089 H 1428.51 1.48383 -0.562863 0
M  V30 14090 H 1428.53 3.64564 1.08964 0
M  V30 14091 H 1428.04 3.81221 -0.727481 0
M  V30 14092 H 1426.14 3.32124 1.68891 0
M  V30 14093 H 1426.25 4.76686 0.480388 0
M  V30 14094 H 1424.62 2.52263 0.351476 0
M  V30 14095 H 1425.4 3.23006 -1.16285 0
M  V30 14096 N 1427.84 0.0718701 1.57436 0
M  V30 14097 C 1429.09 -0.598116 1.93779 0
M  V30 14098 C 1429.42 -1.69258 0.952131 0
M  V30 14099 O 1428.7 -1.94491 -0.0186426 0
M  V30 14100 C 1428.98 -1.17499 3.40391 0
M  V30 14101 C 1428.83 -0.0871719 4.49716 0
M  V30 14102 C 1430.15 -2.08047 3.8782 0
M  V30 14103 H 1427.27 -0.215954 0.704651 0
M  V30 14104 H 1429.91 0.137854 1.89499 0
M  V30 14105 H 1428.06 -1.80221 3.44169 0
M  V30 14106 H 1429.74 0.545906 4.58058 0
M  V30 14107 H 1427.98 0.582213 4.29875 0
M  V30 14108 H 1428.65 -0.531202 5.49438 0
M  V30 14109 H 1431.13 -1.5526 3.86049 0
M  V30 14110 H 1430 -2.45345 4.91016 0
M  V30 14111 H 1430.26 -2.98879 3.25766 0
M  V30 14112 N 1429.32 -1.56304 -0.201686 0
M  V30 14113 C 1430.29 -1.93171 -1.2336 0
M  V30 14114 C 1431.29 -0.812164 -1.38782 0
M  V30 14115 O 1432.48 -1.07967 -1.36707 0
M  V30 14116 C 1429.61 -2.19997 -2.60411 0
M  V30 14117 H 1430.8 -2.85483 -0.918654 0
M  V30 14118 H 1428.35 -1.49893 -0.442935 0
M  V30 14119 H 1429.09 -1.30301 -2.96972 0
M  V30 14120 H 1428.87 -3.01574 -2.5059 0
M  V30 14121 H 1430.36 -2.49547 -3.34838 0
M  V30 14122 N 1430.8 0.469154 -1.50455 0
M  V30 14123 C 1432.05 1.22109 -1.61541 0
M  V30 14124 C 1432.38 1.91905 -0.316646 0
M  V30 14125 O 1431.63 1.82845 0.697585 0
M  V30 14126 C 1431.93 2.28673 -2.7467 0
M  V30 14127 C 1431.6 1.76115 -4.15083 0
M  V30 14128 C 1430.26 1.61503 -4.53288 0
M  V30 14129 C 1432.61 1.37145 -5.02833 0
M  V30 14130 C 1429.94 1.06346 -5.76981 0
M  V30 14131 C 1432.29 0.834294 -6.27074 0
M  V30 14132 C 1430.95 0.674814 -6.6408 0
M  V30 14133 H 1430.22 0.44683 -0.591121 0
M  V30 14134 H 1432.87 0.516821 -1.84394 0
M  V30 14135 H 1431.18 3.05015 -2.45912 0
M  V30 14136 H 1432.87 2.86615 -2.80451 0
M  V30 14137 H 1429.46 1.88457 -3.84944 0
M  V30 14138 H 1433.65 1.47268 -4.73947 0
M  V30 14139 H 1428.9 0.927377 -6.04326 0
M  V30 14140 H 1433.08 0.523676 -6.94428 0
M  V30 14141 H 1430.7 0.245264 -7.59804 0
M  V30 14142 N 1432.28 1.40065 0.722464 0
M  V30 14143 C 1433.69 1.33876 1.30131 0
M  V30 14144 C 1434.04 0.00899369 1.96198 0
M  V30 14145 O 1433.17 -0.893082 1.97112 0
M  V30 14146 C 1433.76 2.42469 2.36631 0
M  V30 14147 C 1432.32 2.39762 2.90157 0
M  V30 14148 C 1431.47 2.23704 1.63865 0
M  V30 14149 H 1434.42 1.49971 0.519077 0
M  V30 14150 H 1434.44 2.0998 3.17315 0
M  V30 14151 H 1433.95 3.39239 1.88517 0
M  V30 14152 H 1432.05 1.46669 3.42519 0
M  V30 14153 H 1432.16 3.35092 3.42419 0
M  V30 14154 H 1430.53 1.71098 1.88674 0
M  V30 14155 H 1431.31 3.22462 1.17785 0
M  V30 14156 N 1433.76 -0.95397 1.25448 0
M  V30 14157 C 1435.17 -1.51337 1.09335 0
M  V30 14158 C 1435.52 -1.93393 -0.330698 0
M  V30 14159 O 1434.64 -1.78681 -1.22074 0
M  V30 14160 C 1435.24 -2.75024 1.97857 0
M  V30 14161 C 1433.8 -3.27274 1.85927 0
M  V30 14162 C 1432.95 -2.00108 1.91969 0
M  V30 14163 H 1435.9 -0.770795 1.38724 0
M  V30 14164 H 1435.92 -3.48867 1.51894 0
M  V30 14165 H 1435.43 -2.44383 3.01494 0
M  V30 14166 H 1433.53 -3.62734 0.851767 0
M  V30 14167 H 1433.64 -3.95245 2.70773 0
M  V30 14168 H 1432.01 -2.15438 1.35862 0
M  V30 14169 H 1432.79 -1.71816 2.97211 0
M  V30 14170 N 1435.24 -1.07045 -1.15668 0
M  V30 14171 C 1436.46 -0.812802 -1.9081 0
M  V30 14172 C 1436.89 0.627827 -1.77313 0
M  V30 14173 O 1436.24 1.43836 -1.10368 0
M  V30 14174 C 1436.29 -1.2219 -3.39267 0
M  V30 14175 O 1435.4 -0.365305 -4.10779 0
M  V30 14176 H 1434.74 -0.296385 -0.594182 0
M  V30 14177 H 1437.27 -1.42825 -1.465 0
M  V30 14178 H 1437.28 -1.19674 -3.90054 0
M  V30 14179 H 1435.95 -2.27121 -3.48409 0
M  V30 14180 H 1434.53 -0.452687 -3.70142 0
M  V30 14181 N 1436.71 1.32449 -0.85411 0
M  V30 14182 C 1437.94 2.01463 -0.471188 0
M  V30 14183 C 1438.36 1.64195 0.931954 0
M  V30 14184 O 1437.71 0.862994 1.60806 0
M  V30 14185 C 1437.76 3.56486 -0.600022 0
M  V30 14186 O 1437.49 3.92414 -1.94789 0
M  V30 14187 C 1438.99 4.42773 -0.216036 0
M  V30 14188 H 1436.21 0.644914 -0.185275 0
M  V30 14189 H 1438.75 1.6904 -1.1509 0
M  V30 14190 H 1436.91 3.87387 0.0319488 0
M  V30 14191 H 1437.32 4.87133 -1.94427 0
M  V30 14192 H 1438.79 5.50843 -0.357186 0
M  V30 14193 H 1439.27 4.31025 0.843468 0
M  V30 14194 H 1439.88 4.1726 -0.823058 0
M  V30 14195 N 1438.19 0.611994 1.45232 0
M  V30 14196 C 1439.1 -0.105981 2.3436 0
M  V30 14197 C 1440.12 -0.855785 1.515 0
M  V30 14198 O 1441.29 -0.812376 1.84289 0
M  V30 14199 C 1438.36 -1.08794 3.29188 0
M  V30 14200 C 1437.42 -0.339611 4.27955 0
M  V30 14201 C 1436.65 -1.27479 5.18252 0
M  V30 14202 O 1436.88 -2.51279 5.12069 0
M  V30 14203 O 1435.81 -0.769469 5.96961 0
M  V30 14204 H 1439.64 0.626584 2.97166 0
M  V30 14205 H 1437.22 0.37224 1.44688 0
M  V30 14206 H 1439.1 -1.65338 3.8761 0
M  V30 14207 H 1437.78 -1.80145 2.68941 0
M  V30 14208 H 1436.68 0.268408 3.73136 0
M  V30 14209 H 1438.02 0.333501 4.91069 0
M  V30 14210 N 1439.67 -1.53632 0.351409 0
M  V30 14211 C 1441.08 -1.86241 -0.130834 0
M  V30 14212 C 1441.43 -1.27243 -1.49344 0
M  V30 14213 O 1440.56 -0.589006 -2.0823 0
M  V30 14214 C 1441.15 -3.37919 -0.244179 0
M  V30 14215 C 1439.71 -3.70377 -0.670662 0
M  V30 14216 C 1438.86 -2.76643 0.190813 0
M  V30 14217 H 1441.81 -1.48083 0.570724 0
M  V30 14218 H 1441.83 -3.65137 -1.07029 0
M  V30 14219 H 1441.34 -3.8083 0.747688 0
M  V30 14220 H 1439.44 -3.33015 -1.67127 0
M  V30 14221 H 1439.56 -4.76934 -0.455102 0
M  V30 14222 H 1437.92 -2.52446 -0.338092 0
M  V30 14223 H 1438.7 -3.22385 1.17996 0
M  V30 14224 N 1441.15 -0.0802183 -1.57396 0
M  V30 14225 C 1442.11 0.869437 -2.12069 0
M  V30 14226 C 1443.11 1.22079 -1.04658 0
M  V30 14227 O 1444.3 1.15267 -1.3061 0
M  V30 14228 C 1441.43 2.17016 -2.62901 0
M  V30 14229 H 1442.63 0.394952 -2.97288 0
M  V30 14230 H 1440.18 0.168597 -1.55388 0
M  V30 14231 H 1440.91 2.68983 -1.8116 0
M  V30 14232 H 1440.7 1.92808 -3.4142 0
M  V30 14233 H 1442.19 2.84982 -3.05246 0
M  V30 14234 N 1442.63 1.56409 0.193394 0
M  V30 14235 C 1443.87 1.80724 0.913521 0
M  V30 14236 C 1444.2 0.653718 1.83185 0
M  V30 14237 O 1443.46 -0.360417 1.92353 0
M  V30 14238 C 1443.75 3.11039 1.76039 0
M  V30 14239 C 1443.42 4.39832 0.992892 0
M  V30 14240 C 1442.08 4.7482 0.780991 0
M  V30 14241 C 1444.43 5.19228 0.452985 0
M  V30 14242 C 1441.76 5.86697 0.0177286 0
M  V30 14243 C 1444.11 6.31902 -0.297075 0
M  V30 14244 C 1442.78 6.65472 -0.519977 0
M  V30 14245 H 1442.05 0.661315 0.334281 0
M  V30 14246 H 1444.7 1.90654 0.179786 0
M  V30 14247 H 1443 2.96353 2.56285 0
M  V30 14248 H 1444.7 3.27058 2.32022 0
M  V30 14249 H 1441.29 4.12376 1.16806 0
M  V30 14250 H 1445.47 4.9261 0.604092 0
M  V30 14251 H 1440.73 6.11178 -0.164925 0
M  V30 14252 H 1444.9 6.92639 -0.7228 0
M  V30 14253 H 1442.53 7.52004 -1.11331 0
M  V30 14254 N 1444.1 -0.461169 1.50702 0
M  V30 14255 C 1445.35 -1.20934 1.61425 0
M  V30 14256 C 1445.67 -1.92884 0.32481 0
M  V30 14257 O 1446.87 -2.69712 0.311081 0
M  V30 14258 C 1445.33 -2.19797 2.84987 0
M  V30 14259 C 1444.94 -1.53604 4.20844 0
M  V30 14260 C 1446.68 -2.95194 3.05059 0
M  V30 14261 C 1444.59 -2.50811 5.35582 0
M  V30 14262 H 1443.52 -0.455088 0.601174 0
M  V30 14263 H 1446.17 -0.478771 1.77144 0
M  V30 14264 H 1444.55 -2.96187 2.62848 0
M  V30 14265 H 1445.72 -0.829345 4.53275 0
M  V30 14266 H 1444.04 -0.904504 4.06457 0
M  V30 14267 H 1446.64 -3.67965 3.87951 0
M  V30 14268 H 1446.98 -3.5516 2.1718 0
M  V30 14269 H 1447.51 -2.25915 3.27425 0
M  V30 14270 H 1444.25 -1.9557 6.25646 0
M  V30 14271 H 1443.77 -3.19604 5.07556 0
M  V30 14272 H 1445.45 -3.12437 5.66561 0
M  V30 14273 N 1445.58 -1.40446 -0.715026 0
M  V30 14274 C 1446.81 -1.4207 -1.50412 0
M  V30 14275 C 1447.22 -0.0205547 -1.88789 0
M  V30 14276 O 1446.58 0.955635 -1.55479 0
M  V30 14277 C 1446.63 -2.3119 -2.77909 0
M  V30 14278 O 1446.35 -3.65754 -2.41154 0
M  V30 14279 C 1447.85 -2.41412 -3.718 0
M  V30 14280 H 1445.07 -0.484554 -0.464164 0
M  V30 14281 H 1447.62 -1.84504 -0.881964 0
M  V30 14282 H 1445.77 -1.92117 -3.36407 0
M  V30 14283 H 1446.19 -4.13091 -3.23197 0
M  V30 14284 H 1447.66 -3.07976 -4.58099 0
M  V30 14285 H 1448.14 -1.43934 -4.14945 0
M  V30 14286 H 1448.74 -2.81039 -3.19213 0
M  V30 14287 N 1447.06 0.947303 -1.25952 0
M  V30 14288 C 1448.31 1.6953 -1.11299 0
M  V30 14289 C 1448.64 1.9113 0.343961 0
M  V30 14290 O 1447.91 1.48755 1.25309 0
M  V30 14291 C 1448.2 3.0738 -1.87588 0
M  V30 14292 C 1448.05 2.93145 -3.41154 0
M  V30 14293 C 1449.37 4.07396 -1.66483 0
M  V30 14294 H 1446.49 0.615281 -0.405707 0
M  V30 14295 H 1449.13 1.10064 -1.54874 0
M  V30 14296 H 1447.28 3.58143 -1.50553 0
M  V30 14297 H 1448.95 2.49651 -3.87907 0
M  V30 14298 H 1447.19 2.28902 -3.68492 0
M  V30 14299 H 1447.87 3.9089 -3.89755 0
M  V30 14300 H 1450.34 3.65572 -1.98738 0
M  V30 14301 H 1449.22 5.01876 -2.22287 0
M  V30 14302 H 1449.48 4.379 -0.607916 0
M  V30 14303 N 1448.54 1.07657 1.15099 0
M  V30 14304 C 1449.95 0.823828 1.67541 0
M  V30 14305 C 1450.3 -0.650601 1.85099 0
M  V30 14306 O 1449.43 -1.50333 1.55657 0
M  V30 14307 C 1450.02 1.4889 3.04331 0
M  V30 14308 C 1448.58 1.28359 3.53837 0
M  V30 14309 C 1447.73 1.55659 2.2949 0
M  V30 14310 H 1450.68 1.23819 0.992699 0
M  V30 14311 H 1450.7 0.911848 3.69412 0
M  V30 14312 H 1450.21 2.56199 2.9152 0
M  V30 14313 H 1448.31 0.230864 3.71884 0
M  V30 14314 H 1448.42 2.00593 4.35085 0
M  V30 14315 H 1446.79 0.977755 2.35185 0
M  V30 14316 H 1447.57 2.64157 2.19263 0
M  V30 14317 N 1450.02 -1.31994 0.861122 0
M  V30 14318 C 1450.95 -2.27632 0.267681 0
M  V30 14319 C 1451.96 -1.52709 -0.564265 0
M  V30 14320 O 1453.15 -1.74239 -0.3877 0
M  V30 14321 C 1450.25 -3.32805 -0.639856 0
M  V30 14322 C 1449.42 -4.37116 0.157676 0
M  V30 14323 C 1448.48 -5.21832 -0.676624 0
M  V30 14324 O 1447.51 -5.69098 -0.107822 0
M  V30 14325 N 1448.71 -5.45317 -1.99022 0
M  V30 14326 H 1451.48 -2.79195 1.0895 0
M  V30 14327 H 1449.04 -1.44923 0.721733 0
M  V30 14328 H 1451.03 -3.86391 -1.20348 0
M  V30 14329 H 1449.6 -2.81351 -1.36236 0
M  V30 14330 H 1448.82 -3.83724 0.902741 0
M  V30 14331 H 1450.11 -5.03889 0.70524 0
M  V30 14332 H 1449.5 -5.08656 -2.47558 0
M  V30 14333 H 1448.06 -6.01874 -2.50182 0
M  V30 14334 N 1451.49 -0.619688 -1.44906 0
M  V30 14335 C 1452.91 -0.284338 -1.57047 0
M  V30 14336 C 1453.11 1.21284 -1.60911 0
M  V30 14337 O 1452.17 1.99642 -1.54594 0
M  V30 14338 C 1453.48 -0.966179 -2.84755 0
M  V30 14339 C 1455.03 -0.943239 -2.98449 0
M  V30 14340 C 1455.5 -1.60532 -4.28945 0
M  V30 14341 N 1456.99 -1.57138 -4.35732 0
M  V30 14342 C 1457.73 -2.05271 -5.35399 0
M  V30 14343 N 1457.22 -2.61543 -6.41535 0
M  V30 14344 N 1459.02 -1.95967 -5.26833 0
M  V30 14345 H 1451.17 -1.59167 -1.40641 0
M  V30 14346 H 1453.43 -0.667458 -0.673204 0
M  V30 14347 H 1453.14 -2.02086 -2.87844 0
M  V30 14348 H 1453.01 -0.49688 -3.73913 0
M  V30 14349 H 1455.4 0.102932 -2.9492 0
M  V30 14350 H 1455.48 -1.45092 -2.1067 0
M  V30 14351 H 1455.12 -2.65088 -4.33233 0
M  V30 14352 H 1455.05 -1.07256 -5.15561 0
M  V30 14353 H 1457.54 -1.16042 -3.59643 0
M  V30 14354 H 1457.86 -2.96033 -7.13852 0
M  V30 14355 H 1456.2 -2.65588 -6.42252 0
M  V30 14356 H 1459.39 -1.51734 -4.42825 0
M  V30 14357 H 1459.57 -2.33791 -6.04356 0
M  V30 14358 N 1452.97 1.53444 -0.359552 0
M  V30 14359 C 1454.22 2.00769 0.231564 0
M  V30 14360 C 1454.54 1.2487 1.49775 0
M  V30 14361 O 1453.81 0.360284 1.92558 0
M  V30 14362 H 1452.39 0.741732 0.0885581 0
M  V30 14363 H 1455.05 1.88785 -0.484397 0
M  V30 14364 H 1454.15 3.0865 0.462789 0
M  V30 14365 N 1454.45 0.0885642 1.57351 0
M  V30 14366 C 1455.7 -0.576675 1.94115 0
M  V30 14367 C 1456.03 -1.68595 0.969842 0
M  V30 14368 O 1455.28 -1.95697 -0.0116998 0
M  V30 14369 C 1455.58 -1.17764 3.37441 0
M  V30 14370 C 1455.25 -0.192813 4.50488 0
M  V30 14371 C 1453.91 0.0780722 4.81137 0
M  V30 14372 C 1456.26 0.479997 5.18985 0
M  V30 14373 C 1453.59 1.02857 5.77613 0
M  V30 14374 C 1455.94 1.41892 6.16481 0
M  V30 14375 C 1454.6 1.69811 6.45539 0
M  V30 14376 H 1453.87 -0.21102 0.710318 0
M  V30 14377 H 1456.52 0.163009 1.90805 0
M  V30 14378 H 1454.83 -1.99343 3.37298 0
M  V30 14379 H 1456.52 -1.69994 3.63185 0
M  V30 14380 H 1453.11 -0.41413 4.26595 0
M  V30 14381 H 1457.3 0.283854 4.95488 0
M  V30 14382 H 1452.55 1.25194 5.98445 0
M  V30 14383 H 1456.73 1.94612 6.68655 0
M  V30 14384 H 1454.35 2.43621 7.20106 0
M  V30 14385 N 1455.93 -1.56509 -0.185096 0
M  V30 14386 C 1457.18 -1.80848 -0.902139 0
M  V30 14387 C 1457.5 -0.663295 -1.83372 0
M  V30 14388 O 1456.77 0.317754 -1.93306 0
M  V30 14389 H 1455.35 -0.667108 -0.336119 0
M  V30 14390 H 1458.01 -1.93989 -0.188211 0
M  V30 14391 H 1457.11 -2.74383 -1.48729 0
M  V30 14392 N 1457.41 0.45317 -1.50944 0
M  V30 14393 C 1458.32 1.57435 -1.73929 0
M  V30 14394 C 1459.33 1.62467 -0.622935 0
M  V30 14395 O 1460.51 1.80004 -0.903365 0
M  V30 14396 C 1457.57 2.93534 -1.84495 0
M  V30 14397 C 1456.63 2.98747 -3.083 0
M  V30 14398 C 1455.87 4.28354 -3.18352 0
M  V30 14399 O 1456.09 5.1986 -2.34738 0
M  V30 14400 O 1455.02 4.39527 -4.11217 0
M  V30 14401 H 1458.85 1.40959 -2.69006 0
M  V30 14402 H 1456.44 0.634545 -1.35255 0
M  V30 14403 H 1458.32 3.74336 -1.93522 0
M  V30 14404 H 1456.99 3.10171 -0.926044 0
M  V30 14405 H 1455.9 2.16958 -3.04762 0
M  V30 14406 H 1457.23 2.87051 -3.99828 0
M  V30 14407 N 1458.88 1.40823 0.707568 0
M  V30 14408 C 1460.3 1.35249 1.28704 0
M  V30 14409 C 1460.65 0.0298026 1.96177 0
M  V30 14410 O 1459.77 -0.872126 1.98048 0
M  V30 14411 C 1460.37 2.44965 2.34046 0
M  V30 14412 C 1458.93 2.42826 2.87598 0
M  V30 14413 C 1458.07 2.25429 1.61483 0
M  V30 14414 H 1461.02 1.50513 0.503141 0
M  V30 14415 H 1461.04 2.13334 3.1507 0
M  V30 14416 H 1460.56 3.41219 1.84908 0
M  V30 14417 H 1458.66 1.50294 3.40944 0
M  V30 14418 H 1458.77 3.38704 3.38845 0
M  V30 14419 H 1457.13 1.73089 1.86848 0
M  V30 14420 H 1457.92 3.23693 1.14359 0
M  V30 14421 N 1460.36 -0.94061 1.26453 0
M  V30 14422 C 1461.61 -1.68687 1.12031 0
M  V30 14423 C 1461.94 -1.91571 -0.336252 0
M  V30 14424 O 1461.19 -1.49458 -1.26336 0
M  V30 14425 C 1461.49 -3.06683 1.83521 0
M  V30 14426 C 1461.16 -3.03553 3.33416 0
M  V30 14427 C 1459.82 -3.02407 3.74304 0
M  V30 14428 C 1462.17 -2.95817 4.29118 0
M  V30 14429 C 1459.5 -2.9129 5.09281 0
M  V30 14430 C 1461.85 -2.86242 5.64135 0
M  V30 14431 C 1460.52 -2.83438 6.04333 0
M  V30 14432 H 1459.79 -0.61727 0.40995 0
M  V30 14433 H 1462.43 -1.0979 1.56902 0
M  V30 14434 H 1460.74 -3.69208 1.31121 0
M  V30 14435 H 1462.43 -3.63274 1.69802 0
M  V30 14436 H 1459.02 -3.05226 3.00891 0
M  V30 14437 H 1463.21 -2.9581 3.9851 0
M  V30 14438 H 1458.46 -2.87498 5.39588 0
M  V30 14439 H 1462.64 -2.79219 6.37973 0
M  V30 14440 H 1460.27 -2.74581 7.08879 0
M  V30 14441 N 1461.84 -1.08266 -1.14527 0
M  V30 14442 C 1463.09 -0.812661 -1.85805 0
M  V30 14443 C 1463.42 0.659878 -1.82645 0
M  V30 14444 O 1462.69 1.48498 -1.25612 0
M  V30 14445 C 1462.98 -1.33335 -3.34505 0
M  V30 14446 C 1462.83 -2.87113 -3.46246 0
M  V30 14447 C 1464.15 -0.957435 -4.29559 0
M  V30 14448 H 1461.27 -0.296681 -0.674648 0
M  V30 14449 H 1463.91 -1.34203 -1.34497 0
M  V30 14450 H 1462.06 -0.883056 -3.78331 0
M  V30 14451 H 1463.73 -3.40502 -3.11217 0
M  V30 14452 H 1461.98 -3.24845 -2.87504 0
M  V30 14453 H 1462.65 -3.18618 -4.50762 0
M  V30 14454 H 1465.12 -1.3456 -3.93742 0
M  V30 14455 H 1464 -1.34897 -5.32066 0
M  V30 14456 H 1464.26 0.135689 -4.41892 0
M  V30 14457 N 1463.32 1.31536 -0.86811 0
M  V30 14458 C 1464.25 2.31037 -0.33822 0
M  V30 14459 C 1465.23 1.60269 0.569892 0
M  V30 14460 O 1466.42 1.87987 0.487305 0
M  V30 14461 C 1463.55 3.44203 0.462753 0
M  V30 14462 C 1462.5 4.26549 -0.3521 0
M  V30 14463 C 1461.83 5.31605 0.574443 0
M  V30 14464 C 1463.13 4.97665 -1.58516 0
M  V30 14465 H 1464.82 2.75607 -1.16967 0
M  V30 14466 H 1462.37 1.325 -0.56389 0
M  V30 14467 H 1464.32 4.12862 0.843967 0
M  V30 14468 H 1463.04 2.98396 1.32769 0
M  V30 14469 H 1461.7 3.59555 -0.715237 0
M  V30 14470 H 1461.35 4.82048 1.43661 0
M  V30 14471 H 1461.05 5.87591 0.0331436 0
M  V30 14472 H 1462.57 6.03124 0.952541 0
M  V30 14473 H 1463.99 5.58931 -1.27549 0
M  V30 14474 H 1462.38 5.63437 -2.06539 0
M  V30 14475 H 1463.45 4.24756 -2.33902 0
M  V30 14476 N 1464.8 0.627364 1.44575 0
M  V30 14477 C 1465.75 -0.0920488 2.32418 0
M  V30 14478 C 1466.74 -0.839633 1.47128 0
M  V30 14479 O 1467.95 -0.752958 1.63495 0
M  V30 14480 H 1464.32 -0.0485336 0.750432 0
M  V30 14481 H 1466.29 0.666959 2.90851 0
M  V30 14482 C 1465.04 -1.06262 3.31064 0
M  V30 14483 H 1464.36 -0.4968 3.96701 0
M  V30 14484 H 1465.8 -1.53556 3.95217 0
M  V30 14485 C 1464.26 -2.14601 2.59707 0
M  V30 14486 O 1464.79 -3.2263 2.39317 0
M  V30 14487 N 1463 -1.90431 2.19509 0
M  V30 14488 H 1462.55 -1.02584 2.36293 0
M  V30 14489 H 1462.5 -2.6312 1.72091 0
M  V30 14490 N 1466.28 -1.53251 0.367684 0
M  V30 14491 C 1467.69 -1.86369 -0.111073 0
M  V30 14492 C 1468.04 -1.2882 -1.47986 0
M  V30 14493 O 1467.16 -0.611058 -2.07593 0
M  V30 14494 C 1467.76 -3.38159 -0.208325 0
M  V30 14495 C 1466.32 -3.71067 -0.63134 0
M  V30 14496 C 1465.46 -2.76425 0.220144 0
M  V30 14497 H 1468.41 -1.47469 0.586398 0
M  V30 14498 H 1468.44 -3.66252 -1.03151 0
M  V30 14499 H 1467.95 -3.80015 0.788038 0
M  V30 14500 H 1466.05 -3.34769 -1.63586 0
M  V30 14501 H 1466.16 -4.77389 -0.404491 0
M  V30 14502 H 1464.53 -2.5279 -0.311298 0
M  V30 14503 H 1465.31 -3.21115 1.21409 0
M  V30 14504 N 1467.75 -0.0969077 -1.57302 0
M  V30 14505 C 1469 0.565254 -1.94034 0
M  V30 14506 C 1469.32 1.68609 -0.9796 0
M  V30 14507 O 1468.59 1.95874 -0.0319788 0
M  V30 14508 H 1467.17 0.211796 -0.716346 0
M  V30 14509 H 1469.83 -0.160665 -1.94237 0
M  V30 14510 H 1468.93 0.974268 -2.96504 0
M  V30 14511 N 1469.23 1.56605 0.176793 0
M  V30 14512 C 1470.46 1.85812 0.910019 0
M  V30 14513 C 1470.87 0.68164 1.76066 0
M  V30 14514 O 1470.23 -0.34936 1.79125 0
M  V30 14515 C 1470.28 3.14001 1.79125 0
M  V30 14516 O 1470 4.27114 0.974931 0
M  V30 14517 C 1471.5 3.56516 2.6346 0
M  V30 14518 H 1468.72 0.616608 0.264643 0
M  V30 14519 H 1471.27 2.03719 0.178537 0
M  V30 14520 H 1469.42 2.97937 2.47613 0
M  V30 14521 H 1469.84 5.00227 1.57711 0
M  V30 14522 H 1471.31 4.49128 3.20918 0
M  V30 14523 H 1471.79 2.80373 3.38065 0
M  V30 14524 H 1472.39 3.75173 2.00313 0
M  V30 14525 N 1470.71 -0.445159 1.51182 0
M  V30 14526 C 1471.96 -1.19398 1.64669 0
M  V30 14527 C 1472.31 -1.89101 0.35474 0
M  V30 14528 O 1471.6 -1.80274 -0.648999 0
M  V30 14529 C 1471.8 -2.24274 2.78273 0
M  V30 14530 C 1471.63 -1.64863 4.1839 0
M  V30 14531 C 1470.4 -1.43697 4.84437 0
M  V30 14532 C 1472.59 -1.12917 5.01751 0
M  V30 14533 N 1470.58 -0.798009 6.08691 0
M  V30 14534 C 1471.95 -0.615012 6.16942 0
M  V30 14535 C 1474 -1.02018 4.87336 0
M  V30 14536 C 1472.71 -0.00258151 7.193 0
M  V30 14537 C 1474.73 -0.421658 5.89895 0
M  V30 14538 C 1474.09 0.0819981 7.04352 0
M  V30 14539 H 1470.19 -0.424858 0.656521 0
M  V30 14540 H 1472.78 -0.491798 1.88386 0
M  V30 14541 H 1470.95 -2.91889 2.56233 0
M  V30 14542 H 1472.68 -2.91259 2.8098 0
M  V30 14543 H 1469.43 -1.69652 4.42171 0
M  V30 14544 H 1469.86 -0.496194 6.75179 0
M  V30 14545 H 1474.5 -1.39546 3.99107 0
M  V30 14546 H 1472.22 0.384842 8.07183 0
M  V30 14547 H 1475.8 -0.339339 5.8081 0
M  V30 14548 H 1474.68 0.537861 7.82353 0
M  V30 14549 N 1472.19 -1.41197 -0.700089 0
M  V30 14550 C 1473.15 -1.42419 -1.79582 0
M  V30 14551 C 1474.15 -0.31551 -1.57674 0
M  V30 14552 O 1475.34 -0.575173 -1.64431 0
M  V30 14553 C 1472.47 -1.23114 -3.17893 0
M  V30 14554 H 1473.67 -2.39956 -1.79892 0
M  V30 14555 H 1471.22 -1.27273 -0.907271 0
M  V30 14556 H 1471.95 -0.263992 -3.23224 0
M  V30 14557 H 1471.74 -2.03437 -3.35195 0
M  V30 14558 H 1473.23 -1.26793 -3.97886 0
M  V30 14559 N 1473.67 0.933891 -1.2695 0
M  V30 14560 C 1474.6 2.05078 -1.11649 0
M  V30 14561 C 1475.58 1.70089 -0.0196463 0
M  V30 14562 O 1476.76 1.93239 -0.193007 0
M  V30 14563 C 1473.89 3.38963 -0.756387 0
M  V30 14564 C 1472.85 3.88041 -1.80577 0
M  V30 14565 C 1472.17 5.18661 -1.2998 0
M  V30 14566 C 1473.47 4.12116 -3.2087 0
M  V30 14567 H 1475.17 2.18137 -2.05077 0
M  V30 14568 H 1472.71 1.04817 -0.987392 0
M  V30 14569 H 1474.66 4.1657 -0.63619 0
M  V30 14570 H 1473.39 3.25901 0.213607 0
M  V30 14571 H 1472.05 3.12622 -1.91477 0
M  V30 14572 H 1471.7 5.01985 -0.319442 0
M  V30 14573 H 1471.4 5.52467 -2.00134 0
M  V30 14574 H 1472.92 5.98844 -1.19242 0
M  V30 14575 H 1474.33 4.80312 -3.13006 0
M  V30 14576 H 1472.73 4.57218 -3.88679 0
M  V30 14577 H 1473.8 3.17633 -3.66384 0
M  V30 14578 N 1475.14 1.08871 1.13951 0
M  V30 14579 C 1476.56 0.817282 1.37086 0
M  V30 14580 C 1476.76 -0.571159 1.93236 0
M  V30 14581 O 1475.82 -1.32708 2.14813 0
M  V30 14582 C 1477.13 1.90386 2.32752 0
M  V30 14583 C 1478.68 1.93043 2.46381 0
M  V30 14584 C 1479.15 3.00828 3.4535 0
M  V30 14585 N 1480.64 3.0003 3.52897 0
M  V30 14586 C 1481.38 3.80073 4.29339 0
M  V30 14587 N 1480.87 4.70008 5.08984 0
M  V30 14588 N 1482.67 3.68355 4.24583 0
M  V30 14589 H 1474.82 1.98393 0.758537 0
M  V30 14590 H 1477.08 0.861229 0.396219 0
M  V30 14591 H 1476.79 2.90233 1.9864 0
M  V30 14592 H 1476.66 1.77722 3.32708 0
M  V30 14593 H 1479.05 0.938382 2.79783 0
M  V30 14594 H 1479.13 2.09785 1.4637 0
M  V30 14595 H 1478.77 4.00242 3.1268 0
M  V30 14596 H 1478.7 2.8133 4.45153 0
M  V30 14597 H 1481.19 2.3485 2.96064 0
M  V30 14598 H 1481.51 5.27678 5.64602 0
M  V30 14599 H 1479.85 4.74047 5.08236 0
M  V30 14600 H 1483.04 2.9746 3.61435 0
M  V30 14601 H 1483.22 4.30974 4.83906 0
M  V30 14602 N 1476.62 -1.31073 0.875073 0
M  V30 14603 C 1477.87 -1.96809 0.489273 0
M  V30 14604 C 1478.2 -1.68979 -0.957073 0
M  V30 14605 O 1477.48 -0.989061 -1.67475 0
M  V30 14606 C 1477.76 -3.52139 0.752998 0
M  V30 14607 C 1477.61 -3.89524 2.24925 0
M  V30 14608 C 1478.93 -4.39535 0.222871 0
M  V30 14609 H 1476.05 -0.714873 0.179238 0
M  V30 14610 H 1478.69 -1.55114 1.09725 0
M  V30 14611 H 1476.84 -3.87785 0.23553 0
M  V30 14612 H 1478.51 -3.63953 2.83436 0
M  V30 14613 H 1476.76 -3.37948 2.71981 0
M  V30 14614 H 1477.43 -4.97845 2.38441 0
M  V30 14615 H 1479.9 -4.10741 0.665645 0
M  V30 14616 H 1478.78 -5.47159 0.436806 0
M  V30 14617 H 1479.04 -4.33346 -0.875445 0
M  V30 14618 N 1478.1 -0.635022 -1.4424 0
M  V30 14619 C 1479.01 0.0686832 -2.34499 0
M  V30 14620 C 1480.03 0.831574 -1.52843 0
M  V30 14621 O 1481.2 0.782954 -1.85558 0
M  V30 14622 C 1478.27 1.03543 -3.30877 0
M  V30 14623 C 1477.33 0.271484 -4.28441 0
M  V30 14624 C 1476.56 1.19218 -5.20214 0
M  V30 14625 O 1476.78 2.43101 -5.16002 0
M  V30 14626 O 1475.72 0.6744 -5.9811 0
M  V30 14627 H 1479.54 -0.673781 -2.96132 0
M  V30 14628 H 1477.13 -0.395211 -1.44078 0
M  V30 14629 H 1479.01 1.59151 -3.90191 0
M  V30 14630 H 1477.69 1.75844 -2.71773 0
M  V30 14631 H 1476.59 -0.327736 -3.72662 0
M  V30 14632 H 1477.93 -0.411584 -4.90476 0
M  V30 14633 N 1479.58 1.53054 -0.375806 0
M  V30 14634 C 1480.54 2.24666 0.453608 0
M  V30 14635 C 1481.54 1.25816 1.00135 0
M  V30 14636 O 1482.73 1.50016 0.885481 0
M  V30 14637 C 1479.86 2.99131 1.63503 0
M  V30 14638 H 1481.06 2.994 -0.173172 0
M  V30 14639 H 1478.61 1.55778 -0.127673 0
M  V30 14640 H 1479.34 2.28666 2.29962 0
M  V30 14641 H 1479.13 3.71671 1.24913 0
M  V30 14642 H 1480.62 3.53542 2.22256 0
M  V30 14643 N 1481.06 0.105248 1.57248 0
M  V30 14644 C 1481.97 -0.864007 2.1811 0
M  V30 14645 C 1482.98 -1.30282 1.15337 0
M  V30 14646 O 1484.16 -1.36864 1.4775 0
M  V30 14647 C 1481.22 -2.1014 2.75757 0
M  V30 14648 C 1480.28 -1.71583 3.9352 0
M  V30 14649 C 1479.52 -2.89424 4.48408 0
M  V30 14650 O 1479.74 -4.04449 4.02215 0
M  V30 14651 O 1478.67 -2.67303 5.39289 0
M  V30 14652 H 1482.5 -0.376131 3.01362 0
M  V30 14653 H 1480.09 -0.119643 1.4892 0
M  V30 14654 H 1481.97 -2.82638 3.1256 0
M  V30 14655 H 1480.64 -2.57961 1.95545 0
M  V30 14656 H 1479.55 -0.962347 3.6151 0
M  V30 14657 H 1480.88 -1.28517 4.75126 0
M  V30 14658 N 1482.53 -1.56697 -0.168486 0
M  V30 14659 C 1483.78 -1.81794 -0.882907 0
M  V30 14660 C 1484.1 -0.682707 -1.82658 0
M  V30 14661 O 1483.37 0.297234 -1.93632 0
M  V30 14662 H 1481.95 -0.670636 -0.329024 0
M  V30 14663 H 1484.62 -1.94178 -0.167625 0
M  V30 14664 H 1483.71 -2.75945 -1.45811 0
M  V30 14665 N 1484.01 0.437135 -1.51416 0
M  V30 14666 C 1485.26 1.18831 -1.64338 0
M  V30 14667 C 1485.59 1.9086 -0.358638 0
M  V30 14668 O 1484.87 1.83607 0.641769 0
M  V30 14669 C 1485.15 2.20515 -2.84685 0
M  V30 14670 C 1485 1.52568 -4.23135 0
M  V30 14671 C 1486.32 3.21494 -3.00549 0
M  V30 14672 H 1483.44 0.430652 -0.598087 0
M  V30 14673 H 1486.08 0.47753 -1.83901 0
M  V30 14674 H 1484.23 2.81132 -2.68136 0
M  V30 14675 H 1485.9 0.952851 -4.51352 0
M  V30 14676 H 1484.15 0.828025 -4.25824 0
M  V30 14677 H 1484.82 2.26623 -5.03335 0
M  V30 14678 H 1487.29 2.7093 -3.1581 0
M  V30 14679 H 1486.17 3.89934 -3.86319 0
M  V30 14680 H 1486.43 3.8761 -2.12629 0
M  V30 14681 N 1485.49 1.41566 0.692592 0
M  V30 14682 C 1486.42 1.46423 1.81886 0
M  V30 14683 C 1487.4 0.32258 1.67013 0
M  V30 14684 O 1488.59 0.534437 1.86701 0
M  V30 14685 C 1485.72 1.3486 3.20047 0
M  V30 14686 C 1484.67 2.46867 3.49629 0
M  V30 14687 C 1484 2.20369 4.87177 0
M  V30 14688 C 1485.3 3.89205 3.48306 0
M  V30 14689 H 1486.99 2.40683 1.78079 0
M  V30 14690 H 1484.54 1.15845 0.855334 0
M  V30 14691 H 1486.49 1.36869 3.98553 0
M  V30 14692 H 1485.21 0.370859 3.24488 0
M  V30 14693 H 1483.87 2.44146 2.73475 0
M  V30 14694 H 1483.52 1.20931 4.88247 0
M  V30 14695 H 1483.22 2.95426 5.07934 0
M  V30 14696 H 1484.74 2.24099 5.6799 0
M  V30 14697 H 1486.16 3.93626 4.16811 0
M  V30 14698 H 1484.56 4.63969 3.80595 0
M  V30 14699 H 1485.63 4.17144 2.47222 0
M  V30 14700 N 1486.97 -0.927146 1.27443 0
M  V30 14701 C 1487.9 -2.04483 1.12735 0
M  V30 14702 C 1488.88 -1.70076 0.0286662 0
M  V30 14703 O 1490.06 -1.93133 0.203252 0
M  V30 14704 C 1487.19 -3.38557 0.774352 0
M  V30 14705 C 1486.15 -3.87078 1.82632 0
M  V30 14706 C 1485.47 -5.17964 1.32729 0
M  V30 14707 C 1486.77 -4.10409 3.23051 0
M  V30 14708 H 1488.47 -2.17046 2.06231 0
M  V30 14709 H 1486.01 -1.04292 0.992937 0
M  V30 14710 H 1487.97 -4.16227 0.658273 0
M  V30 14711 H 1486.69 -3.26009 -0.196321 0
M  V30 14712 H 1485.35 -3.11602 1.93132 0
M  V30 14713 H 1485 -5.01808 0.346059 0
M  V30 14714 H 1484.7 -5.51398 2.03061 0
M  V30 14715 H 1486.22 -5.98203 1.22416 0
M  V30 14716 H 1487.64 -4.78646 3.15549 0
M  V30 14717 H 1486.03 -4.5515 3.91099 0
M  V30 14718 H 1487.1 -3.15685 3.68064 0
M  V30 14719 N 1488.45 -1.09474 -1.13372 0
M  V30 14720 C 1489.72 -0.743485 -1.80919 0
M  V30 14721 C 1490.1 0.771414 -1.965 0
M  V30 14722 O 1489.45 1.694 -1.53349 0
M  V30 14723 C 1489.66 -1.48309 -3.1592 0
M  V30 14724 C 1491.01 -1.64921 -3.91263 0
M  V30 14725 O 1492.03 -1.44564 -3.25545 0
M  V30 14726 O 1490.89 -1.98595 -5.09139 0
M  V30 14727 H 1487.99 -0.26713 -0.782669 0
M  V30 14728 H 1490.53 -1.19697 -1.20294 0
M  V30 14729 H 1489.3 -2.51456 -2.99809 0
M  V30 14730 H 1488.93 -1.02181 -3.84246 0
M  V30 14731 N 1489.92 1.30607 -0.882012 0
M  V30 14732 C 1491.15 2.00128 -0.51307 0
M  V30 14733 C 1491.56 1.66307 0.902144 0
M  V30 14734 O 1490.91 0.894797 1.60434 0
M  V30 14735 C 1490.97 3.5438 -0.604547 0
M  V30 14736 C 1490.63 4.1171 -1.98354 0
M  V30 14737 C 1491.63 4.27924 -2.95257 0
M  V30 14738 C 1489.31 4.47158 -2.28812 0
M  V30 14739 C 1491.31 4.78795 -4.20755 0
M  V30 14740 C 1488.99 4.97728 -3.54556 0
M  V30 14741 C 1489.99 5.13499 -4.50342 0
M  V30 14742 O 1489.68 5.62978 -5.73856 0
M  V30 14743 H 1489.41 0.646608 -0.197165 0
M  V30 14744 H 1491.97 1.67532 -1.18837 0
M  V30 14745 H 1490.2 3.86489 0.127719 0
M  V30 14746 H 1491.89 4.05146 -0.247308 0
M  V30 14747 H 1492.65 4.00844 -2.73037 0
M  V30 14748 H 1488.53 4.34152 -1.55026 0
M  V30 14749 H 1492.07 4.91019 -4.95526 0
M  V30 14750 H 1487.97 5.24244 -3.76615 0
M  V30 14751 H 1488.74 5.81326 -5.76196 0
M  V30 14752 N 1491.4 0.642663 1.43901 0
M  V30 14753 C 1492.65 0.152003 2.0223 0
M  V30 14754 C 1492.98 -1.22711 1.50518 0
M  V30 14755 O 1492.26 -1.817 0.693937 0
M  V30 14756 C 1492.54 0.151278 3.59782 0
M  V30 14757 C 1492.39 1.56356 4.2175 0
M  V30 14758 C 1493.71 -0.518016 4.37041 0
M  V30 14759 H 1490.83 0.0567094 0.734815 0
M  V30 14760 H 1493.47 0.821337 1.7133 0
M  V30 14761 H 1491.62 -0.418679 3.86237 0
M  V30 14762 H 1493.29 2.18329 4.06362 0
M  V30 14763 H 1491.54 2.11401 3.78803 0
M  V30 14764 H 1492.21 1.51499 5.30803 0
M  V30 14765 H 1494.68 -0.0331947 4.16087 0
M  V30 14766 H 1493.56 -0.487754 5.46729 0
M  V30 14767 H 1493.82 -1.59036 4.12504 0
M  V30 14768 N 1492.88 -1.52852 0.383918 0
M  V30 14769 C 1494.13 -2.01809 -0.200285 0
M  V30 14770 C 1494.46 -1.27009 -1.46909 0
M  V30 14771 O 1493.74 -0.369002 -1.90968 0
M  V30 14772 C 1494.02 -3.56971 -0.473672 0
M  V30 14773 C 1493.87 -4.42446 0.810048 0
M  V30 14774 C 1495.19 -4.21481 -1.26658 0
M  V30 14775 H 1492.31 -0.733541 -0.0713192 0
M  V30 14776 H 1494.95 -1.8296 0.512425 0
M  V30 14777 H 1493.1 -3.73163 -1.08081 0
M  V30 14778 H 1494.77 -4.38016 1.44706 0
M  V30 14779 H 1493.02 -4.09674 1.42652 0
M  V30 14780 H 1493.69 -5.49013 0.573478 0
M  V30 14781 H 1496.16 -4.09233 -0.752806 0
M  V30 14782 H 1495.04 -5.30037 -1.42661 0
M  V30 14783 H 1495.3 -3.78756 -2.28028 0
M  V30 14784 N 1494.36 -0.113586 -1.5719 0
M  V30 14785 C 1495.29 0.835363 -2.18046 0
M  V30 14786 C 1496.27 1.28114 -1.11897 0
M  V30 14787 O 1497.46 1.34472 -1.40111 0
M  V30 14788 C 1494.59 2.08759 -2.77556 0
M  V30 14789 C 1493.54 1.77979 -3.8924 0
M  V30 14790 C 1492.87 3.10185 -4.35533 0
M  V30 14791 C 1494.17 1.05231 -5.11589 0
M  V30 14792 H 1495.86 0.328275 -2.97595 0
M  V30 14793 H 1493.41 0.156456 -1.43148 0
M  V30 14794 H 1495.36 2.75597 -3.18785 0
M  V30 14795 H 1494.08 2.61783 -1.95288 0
M  V30 14796 H 1492.74 1.13532 -3.48577 0
M  V30 14797 H 1492.39 3.61133 -3.50131 0
M  V30 14798 H 1492.09 2.90367 -5.10843 0
M  V30 14799 H 1493.61 3.78151 -4.7941 0
M  V30 14800 H 1495.03 1.62213 -5.49872 0
M  V30 14801 H 1493.42 0.955269 -5.92448 0
M  V30 14802 H 1494.49 0.038137 -4.84885 0
M  V30 14803 N 1495.84 1.56784 0.160173 0
M  V30 14804 C 1496.77 2.00298 1.20012 0
M  V30 14805 C 1497.75 0.880356 1.45546 0
M  V30 14806 O 1498.93 1.14724 1.56691 0
M  V30 14807 C 1496.06 2.37238 2.53645 0
M  V30 14808 C 1495.02 3.52563 2.42658 0
M  V30 14809 C 1494.34 3.75278 3.80881 0
M  V30 14810 C 1495.64 4.85657 1.92183 0
M  V30 14811 H 1497.34 2.87423 0.838362 0
M  V30 14812 H 1494.88 1.3828 0.401838 0
M  V30 14813 H 1496.84 2.66278 3.2661 0
M  V30 14814 H 1495.56 1.47035 2.9163 0
M  V30 14815 H 1494.22 3.23669 1.72146 0
M  V30 14816 H 1493.87 2.82347 4.1628 0
M  V30 14817 H 1493.57 4.52882 3.74396 0
M  V30 14818 H 1495.09 4.0673 4.55415 0
M  V30 14819 H 1496.51 5.13501 2.54931 0
M  V30 14820 H 1494.9 5.66975 1.96619 0
M  V30 14821 H 1495.97 4.76908 0.876742 0
M  V30 14822 N 1497.32 -0.429099 1.51646 0
M  V30 14823 C 1498.73 -1.00868 1.57107 0
M  V30 14824 C 1499.08 -1.9209 0.399483 0
M  V30 14825 O 1498.2 -2.10948 -0.482709 0
M  V30 14826 C 1498.8 -1.83612 2.84732 0
M  V30 14827 C 1497.36 -2.36605 2.92737 0
M  V30 14828 C 1496.5 -1.1604 2.51853 0
M  V30 14829 H 1499.45 -0.21006 1.57304 0
M  V30 14830 H 1499.48 -2.69149 2.68959 0
M  V30 14831 H 1498.99 -1.17192 3.69983 0
M  V30 14832 H 1497.09 -3.06455 2.11934 0
M  V30 14833 H 1497.2 -2.68838 3.96564 0
M  V30 14834 H 1495.57 -1.50826 2.0524 0
M  V30 14835 H 1496.35 -0.51218 3.39458 0
M  V30 14836 N 1498.79 -1.41931 -0.685074 0
M  V30 14837 C 1500.02 -1.45432 -1.47866 0
M  V30 14838 C 1500.44 -0.0641302 -1.87991 0
M  V30 14839 O 1499.8 0.935081 -1.55325 0
M  V30 14840 C 1499.85 -2.37801 -2.71077 0
M  V30 14841 O 1498.95 -1.84229 -3.68963 0
M  V30 14842 H 1498.29 -0.493156 -0.444627 0
M  V30 14843 H 1500.82 -1.86508 -0.841177 0
M  V30 14844 H 1500.83 -2.54033 -3.19266 0
M  V30 14845 H 1499.51 -3.38807 -2.41211 0
M  V30 14846 H 1498.09 -1.775 -3.27945 0
M  V30 14847 N 1500.27 0.920374 -1.27933 0
M  V30 14848 C 1501.23 2.0035 -1.11321 0
M  V30 14849 C 1502.23 1.60706 -0.0549132 0
M  V30 14850 O 1503.42 1.71595 -0.300134 0
M  V30 14851 C 1500.56 3.33681 -0.69782 0
M  V30 14852 H 1501.75 2.16518 -2.07509 0
M  V30 14853 H 1499.3 1.10216 -1.10825 0
M  V30 14854 H 1500.04 3.23214 0.265122 0
M  V30 14855 H 1499.82 3.63815 -1.46223 0
M  V30 14856 H 1501.31 4.13208 -0.604048 0
M  V30 14857 N 1501.75 1.10074 1.1279 0
M  V30 14858 C 1502.98 0.861655 1.87774 0
M  V30 14859 C 1503.39 -0.591184 1.79727 0
M  V30 14860 O 1502.73 -1.4191 1.1665 0
M  V30 14861 C 1502.79 1.22668 3.37924 0
M  V30 14862 C 1502.46 2.68579 3.69749 0
M  V30 14863 C 1503.45 3.66821 3.68427 0
M  V30 14864 C 1501.14 3.04869 3.99199 0
M  V30 14865 C 1503.13 4.99377 3.96108 0
M  V30 14866 C 1500.82 4.37615 4.2654 0
M  V30 14867 C 1501.82 5.34678 4.24981 0
M  V30 14868 O 1501.51 6.65034 4.51647 0
M  V30 14869 H 1501.24 0.309289 0.601096 0
M  V30 14870 H 1503.79 1.46802 1.43661 0
M  V30 14871 H 1502.02 0.563393 3.82574 0
M  V30 14872 H 1503.71 0.965675 3.94246 0
M  V30 14873 H 1504.48 3.40128 3.45742 0
M  V30 14874 H 1500.36 2.29947 3.99557 0
M  V30 14875 H 1503.9 5.7513 3.94806 0
M  V30 14876 H 1499.8 4.64047 4.48698 0
M  V30 14877 H 1500.56 6.70608 4.69283 0
M  V30 14878 N 1503.23 -1.30138 0.888926 0
M  V30 14879 C 1504.46 -1.99853 0.523676 0
M  V30 14880 C 1504.87 -1.66783 -0.893312 0
M  V30 14881 O 1504.21 -0.903292 -1.59957 0
M  V30 14882 C 1504.27 -3.54055 0.623332 0
M  V30 14883 C 1503.93 -4.10652 2.00534 0
M  V30 14884 C 1504.93 -4.26353 2.97522 0
M  V30 14885 C 1502.62 -4.45938 2.3118 0
M  V30 14886 C 1504.61 -4.76557 4.23288 0
M  V30 14887 C 1502.3 -4.95841 3.57191 0
M  V30 14888 C 1503.3 -5.11103 4.53059 0
M  V30 14889 O 1502.98 -5.59927 5.76833 0
M  V30 14890 H 1502.72 -0.645553 0.200591 0
M  V30 14891 H 1505.27 -1.66899 1.19724 0
M  V30 14892 H 1503.5 -3.86551 -0.107221 0
M  V30 14893 H 1505.19 -4.05009 0.26879 0
M  V30 14894 H 1505.95 -3.9939 2.75159 0
M  V30 14895 H 1501.83 -4.33324 1.57326 0
M  V30 14896 H 1505.38 -4.88385 4.98123 0
M  V30 14897 H 1501.27 -5.22239 3.7939 0
M  V30 14898 H 1502.04 -5.78263 5.79271 0
M  V30 14899 N 1504.71 -0.650285 -1.43559 0
M  V30 14900 C 1505.62 0.0438076 -2.34559 0
M  V30 14901 C 1506.63 0.815316 -1.53716 0
M  V30 14902 O 1507.81 0.76323 -1.86378 0
M  V30 14903 C 1504.87 1.00028 -3.31957 0
M  V30 14904 C 1503.93 0.226027 -4.28705 0
M  V30 14905 C 1503.17 1.13694 -5.21449 0
M  V30 14906 O 1503.39 2.37614 -5.18551 0
M  V30 14907 O 1502.32 0.610924 -5.98792 0
M  V30 14908 H 1506.15 -0.705152 -2.954 0
M  V30 14909 H 1503.73 -0.410471 -1.43651 0
M  V30 14910 H 1505.62 1.55004 -3.91857 0
M  V30 14911 H 1504.29 1.72952 -2.73623 0
M  V30 14912 H 1503.2 -0.367244 -3.72293 0
M  V30 14913 H 1504.53 -0.463582 -4.90012 0
M  V30 14914 N 1506.18 1.52647 -0.392018 0
M  V30 14915 C 1507.15 2.25135 0.429754 0
M  V30 14916 C 1508.15 1.26871 0.987946 0
M  V30 14917 O 1509.34 1.50947 0.86952 0
M  V30 14918 C 1506.47 3.00849 1.60321 0
M  V30 14919 H 1507.66 2.99199 -0.204918 0
M  V30 14920 H 1505.21 1.55634 -0.144188 0
M  V30 14921 H 1505.95 2.31092 2.27524 0
M  V30 14922 H 1505.73 3.72975 1.20964 0
M  V30 14923 H 1507.22 3.55879 2.18494 0
M  V30 14924 N 1507.66 0.121921 1.57128 0
M  V30 14925 C 1508.63 -0.812905 2.143 0
M  V30 14926 C 1509.63 -1.19261 1.07858 0
M  V30 14927 O 1510.82 -1.11764 1.33621 0
M  V30 14928 C 1507.95 -2.09969 2.68562 0
M  V30 14929 H 1509.14 -0.315992 2.98231 0
M  V30 14930 H 1506.69 -0.12734 1.5578 0
M  V30 14931 H 1507.43 -2.64085 1.88228 0
M  V30 14932 H 1507.21 -1.83688 3.46412 0
M  V30 14933 H 1508.7 -2.76788 3.12695 0
M  V30 14934 N 1509.14 -1.56867 -0.151857 0
M  V30 14935 C 1510.07 -2.00932 -1.18949 0
M  V30 14936 C 1511.05 -0.888062 -1.45077 0
M  V30 14937 O 1512.24 -1.15553 -1.56081 0
M  V30 14938 C 1509.37 -2.3858 -2.52383 0
M  V30 14939 C 1508.32 -3.53845 -2.40785 0
M  V30 14940 C 1507.65 -3.77292 -3.78886 0
M  V30 14941 C 1508.95 -4.8667 -1.89605 0
M  V30 14942 H 1510.64 -2.87863 -0.823107 0
M  V30 14943 H 1508.19 -1.38491 -0.394499 0
M  V30 14944 H 1510.14 -2.68006 -3.25193 0
M  V30 14945 H 1508.86 -1.48579 -2.90847 0
M  V30 14946 H 1507.52 -3.24577 -1.70427 0
M  V30 14947 H 1507.17 -2.84551 -4.14777 0
M  V30 14948 H 1506.87 -4.54861 -3.71989 0
M  V30 14949 H 1508.39 -4.09139 -4.53252 0
M  V30 14950 H 1509.81 -5.14846 -2.52204 0
M  V30 14951 H 1508.21 -5.6801 -1.93609 0
M  V30 14952 H 1509.28 -4.77366 -0.851438 0
M  V30 14953 N 1510.62 0.421051 -1.51871 0
M  V30 14954 C 1511.55 1.51928 -1.77313 0
M  V30 14955 C 1512.53 1.58258 -0.623579 0
M  V30 14956 O 1513.71 1.73724 -0.867967 0
M  V30 14957 C 1510.84 2.89865 -1.913 0
M  V30 14958 C 1509.8 2.98391 -3.06834 0
M  V30 14959 C 1509.12 4.38466 -3.06026 0
M  V30 14960 C 1510.42 2.7097 -4.46511 0
M  V30 14961 H 1512.12 1.30889 -2.69274 0
M  V30 14962 H 1509.66 0.628229 -1.29573 0
M  V30 14963 H 1511.62 3.66669 -2.07682 0
M  V30 14964 H 1510.34 3.12172 -0.960011 0
M  V30 14965 H 1509 2.24029 -2.90184 0
M  V30 14966 H 1508.65 4.57764 -2.08472 0
M  V30 14967 H 1508.35 4.45097 -3.83618 0
M  V30 14968 H 1509.87 5.17221 -3.24522 0
M  V30 14969 H 1511.29 3.37501 -4.63428 0
M  V30 14970 H 1509.68 2.88992 -5.25931 0
M  V30 14971 H 1510.75 1.66476 -4.55427 0
M  V30 14972 N 1512.1 1.42293 0.677538 0
M  V30 14973 C 1513.03 1.41503 1.80304 0
M  V30 14974 C 1514.04 0.314499 1.59733 0
M  V30 14975 O 1515.23 0.57741 1.68903 0
M  V30 14976 C 1512.33 1.18879 3.17366 0
M  V30 14977 C 1511.5 2.41314 3.6481 0
M  V30 14978 C 1510.56 2.14277 4.80595 0
M  V30 14979 O 1509.59 2.87457 4.91281 0
M  V30 14980 N 1510.79 1.14419 5.69112 0
M  V30 14981 H 1513.56 2.38515 1.81468 0
M  V30 14982 H 1511.12 1.37137 0.860529 0
M  V30 14983 H 1513.11 0.987135 3.92476 0
M  V30 14984 H 1511.68 0.304002 3.11118 0
M  V30 14985 H 1510.9 2.77066 2.80407 0
M  V30 14986 H 1512.19 3.2285 3.9325 0
M  V30 14987 H 1511.58 0.53888 5.63127 0
M  V30 14988 H 1510.14 1.00241 6.44046 0
M  V30 14989 N 1513.57 -0.913576 1.28419 0
M  V30 14990 C 1514.5 -2.03275 1.14897 0
M  V30 14991 C 1515.49 -1.70036 0.0467034 0
M  V30 14992 O 1516.67 -1.92907 0.223725 0
M  V30 14993 C 1513.8 -3.37717 0.810217 0
M  V30 14994 C 1512.75 -3.85119 1.86728 0
M  V30 14995 C 1512.08 -5.16527 1.38215 0
M  V30 14996 C 1513.38 -4.06959 3.27386 0
M  V30 14997 H 1515.07 -2.14847 2.08522 0
M  V30 14998 H 1512.62 -1.03233 1.00394 0
M  V30 14999 H 1514.57 -4.15505 0.702382 0
M  V30 15000 H 1513.3 -3.26199 -0.161732 0
M  V30 15001 H 1511.96 -3.09536 1.96426 0
M  V30 15002 H 1511.6 -5.01413 0.399263 0
M  V30 15003 H 1511.3 -5.49213 2.08898 0
M  V30 15004 H 1512.83 -5.96871 1.28754 0
M  V30 15005 H 1514.24 -4.75272 3.20608 0
M  V30 15006 H 1512.64 -4.50977 3.95904 0
M  V30 15007 H 1513.71 -3.11764 3.71391 0
M  V30 15008 N 1515.05 -1.1067 -1.12204 0
M  V30 15009 C 1516.47 -0.838988 -1.35769 0
M  V30 15010 C 1516.67 0.540345 -1.9412 0
M  V30 15011 O 1515.72 1.29274 -2.16897 0
M  V30 15012 C 1517.04 -1.94065 -2.29694 0
M  V30 15013 C 1518.59 -1.96938 -2.43279 0
M  V30 15014 C 1519.06 -3.06284 -3.4052 0
M  V30 15015 N 1520.55 -3.05607 -3.48079 0
M  V30 15016 C 1521.29 -3.86855 -4.23238 0
M  V30 15017 N 1520.78 -4.78046 -5.01442 0
M  V30 15018 N 1522.58 -3.75064 -4.18669 0
M  V30 15019 H 1514.73 -1.99575 -0.726878 0
M  V30 15020 H 1516.99 -0.867423 -0.382467 0
M  V30 15021 H 1516.7 -2.93356 -1.93997 0
M  V30 15022 H 1516.57 -1.82992 -3.29839 0
M  V30 15023 H 1518.96 -0.982774 -2.78254 0
M  V30 15024 H 1519.04 -2.12087 -1.43014 0
M  V30 15025 H 1518.68 -4.05165 -3.06273 0
M  V30 15026 H 1518.61 -2.88376 -4.40621 0
M  V30 15027 H 1521.1 -2.39531 -2.9229 0
M  V30 15028 H 1521.42 -5.36594 -5.56136 0
M  V30 15029 H 1519.76 -4.82073 -5.0063 0
M  V30 15030 H 1522.95 -3.03172 -3.56657 0
M  V30 15031 H 1523.12 -4.38618 -4.76988 0
M  V30 15032 N 1516.53 1.29665 -0.895815 0
M  V30 15033 C 1517.78 1.96006 -0.520522 0
M  V30 15034 C 1518.11 1.7048 0.930068 0
M  V30 15035 O 1517.38 1.01558 1.6588 0
M  V30 15036 C 1517.67 3.50897 -0.808925 0
M  V30 15037 C 1517.52 3.85896 -2.31093 0
M  V30 15038 C 1518.84 4.39125 -0.292769 0
M  V30 15039 H 1515.96 0.711931 -0.190588 0
M  V30 15040 H 1518.6 1.53349 -1.12179 0
M  V30 15041 H 1516.75 3.87362 -0.297194 0
M  V30 15042 H 1518.42 3.59397 -2.89191 0
M  V30 15043 H 1516.67 3.33578 -2.77323 0
M  V30 15044 H 1517.34 4.93989 -2.46331 0
M  V30 15045 H 1519.81 4.0963 -0.730906 0
M  V30 15046 H 1518.69 5.46395 -0.523799 0
M  V30 15047 H 1518.95 4.34683 0.806393 0
M  V30 15048 N 1518.01 0.657889 1.43212 0
M  V30 15049 C 1519.24 0.181072 2.06106 0
M  V30 15050 C 1519.65 -1.15513 1.49339 0
M  V30 15051 O 1519.01 -1.71409 0.626517 0
M  V30 15052 C 1519.06 0.0890244 3.6139 0
M  V30 15053 O 1518.78 1.37241 4.16049 0
M  V30 15054 C 1520.28 -0.413313 4.41369 0
M  V30 15055 H 1517.5 0.0920577 0.664655 0
M  V30 15056 H 1520.05 0.899855 1.83638 0
M  V30 15057 H 1518.2 -0.580345 3.83028 0
M  V30 15058 H 1518.61 1.23467 5.09761 0
M  V30 15059 H 1520.09 -0.426663 5.50349 0
M  V30 15060 H 1520.57 -1.44549 4.14731 0
M  V30 15061 H 1521.17 0.223727 4.24711 0
M  V30 15062 N 1519.49 -1.52437 0.400108 0
M  V30 15063 C 1520.4 -2.30496 -0.436875 0
M  V30 15064 C 1521.41 -1.37851 -1.06175 0
M  V30 15065 O 1522.59 -1.70924 -1.06522 0
M  V30 15066 C 1519.65 -3.10459 -1.54325 0
M  V30 15067 C 1518.71 -4.18829 -0.942367 0
M  V30 15068 C 1517.95 -4.94969 -1.99602 0
M  V30 15069 O 1518.17 -4.71314 -3.21278 0
M  V30 15070 O 1517.1 -5.80043 -1.60728 0
M  V30 15071 H 1520.93 -3.03045 0.199343 0
M  V30 15072 H 1518.52 -1.48502 0.163541 0
M  V30 15073 H 1520.4 -3.60282 -2.18575 0
M  V30 15074 H 1519.07 -2.40713 -2.16423 0
M  V30 15075 H 1517.98 -3.73176 -0.262831 0
M  V30 15076 H 1519.31 -4.90841 -0.365441 0
M  V30 15077 N 1520.96 -0.130252 -1.57061 0
M  V30 15078 C 1521.93 0.801529 -2.14728 0
M  V30 15079 C 1522.93 1.18687 -1.08489 0
M  V30 15080 O 1524.12 1.11054 -1.34211 0
M  V30 15081 C 1521.25 2.08542 -2.69672 0
M  V30 15082 H 1522.44 0.300172 -2.98394 0
M  V30 15083 H 1520 0.119077 -1.55846 0
M  V30 15084 H 1520.73 2.63083 -1.89625 0
M  V30 15085 H 1520.52 1.81849 -3.47381 0
M  V30 15086 H 1522.01 2.75126 -3.14158 0
M  V30 15087 N 1522.44 1.56945 0.143535 0
M  V30 15088 C 1523.68 1.85347 0.861738 0
M  V30 15089 C 1524.05 0.715009 1.7819 0
M  V30 15090 O 1525.25 0.880162 2.53981 0
M  V30 15091 C 1523.52 3.18937 1.61288 0
M  V30 15092 S 1525.08 3.68904 2.37603 0
M  V30 15093 H 1521.9 0.650015 0.2881 0
M  V30 15094 H 1524.5 1.95122 0.121527 0
M  V30 15095 H 1523.2 3.9976 0.928434 0
M  V30 15096 H 1522.73 3.12176 2.39394 0
M  V30 15097 H 1524.75 3.38445 3.62863 0
M  V30 15098 N 1523.92 -0.412991 1.52093 0
M  V30 15099 C 1525.15 -1.18212 1.69805 0
M  V30 15100 C 1525.56 -1.84386 0.405844 0
M  V30 15101 O 1524.92 -1.71725 -0.617809 0
M  V30 15102 C 1524.97 -2.24811 2.83094 0
M  V30 15103 O 1524.69 -1.61338 4.0731 0
M  V30 15104 C 1526.19 -3.14633 3.12283 0
M  V30 15105 H 1523.41 -0.355371 0.569168 0
M  V30 15106 H 1525.96 -0.486392 1.98632 0
M  V30 15107 H 1524.11 -2.90058 2.56797 0
M  V30 15108 H 1524.53 -2.31979 4.7041 0
M  V30 15109 H 1526 -3.85511 3.95076 0
M  V30 15110 H 1526.48 -3.76785 2.25677 0
M  V30 15111 H 1527.08 -2.55059 3.40331 0
M  V30 15112 N 1525.4 -1.4265 -0.669982 0
M  V30 15113 C 1526.63 -1.46571 -1.45604 0
M  V30 15114 C 1527.04 -0.0769961 -1.89043 0
M  V30 15115 O 1526.38 0.919604 -1.59025 0
M  V30 15116 C 1526.44 -2.33435 -2.73401 0
M  V30 15117 C 1526.11 -3.81236 -2.52008 0
M  V30 15118 C 1527.1 -4.72768 -2.16301 0
M  V30 15119 C 1524.79 -4.25552 -2.66853 0
M  V30 15120 C 1526.78 -6.0661 -1.95712 0
M  V30 15121 C 1524.47 -5.59452 -2.4588 0
M  V30 15122 C 1525.47 -6.49797 -2.10364 0
M  V30 15123 O 1525.16 -7.81222 -1.89597 0
M  V30 15124 H 1524.89 -0.500529 -0.454364 0
M  V30 15125 H 1527.44 -1.87875 -0.830199 0
M  V30 15126 H 1525.67 -1.86989 -3.38485 0
M  V30 15127 H 1527.36 -2.28755 -3.353 0
M  V30 15128 H 1528.13 -4.39814 -2.04423 0
M  V30 15129 H 1524.01 -3.55518 -2.93475 0
M  V30 15130 H 1527.55 -6.7709 -1.67914 0
M  V30 15131 H 1523.45 -5.91978 -2.57355 0
M  V30 15132 H 1524.21 -7.9263 -2.04157 0
M  V30 15133 N 1526.88 0.906753 -1.28902 0
M  V30 15134 C 1528.29 1.18635 -1.06761 0
M  V30 15135 C 1528.49 2.00643 0.185594 0
M  V30 15136 O 1527.55 2.3647 0.885324 0
M  V30 15137 C 1528.86 1.91414 -2.31907 0
M  V30 15138 C 1530.41 2.04269 -2.37156 0
M  V30 15139 C 1530.89 2.80458 -3.62088 0
M  V30 15140 N 1532.38 2.88016 -3.62769 0
M  V30 15141 C 1533.11 3.47485 -4.56116 0
M  V30 15142 N 1532.61 4.08178 -5.59788 0
M  V30 15143 N 1534.4 3.45092 -4.43698 0
M  V30 15144 H 1526.55 0.359413 -2.09337 0
M  V30 15145 H 1528.81 0.221688 -0.921715 0
M  V30 15146 H 1528.52 1.38587 -3.23244 0
M  V30 15147 H 1528.39 2.91929 -2.38867 0
M  V30 15148 H 1530.78 2.56275 -1.46312 0
M  V30 15149 H 1530.86 1.0291 -2.34186 0
M  V30 15150 H 1530.51 2.2913 -4.53279 0
M  V30 15151 H 1530.44 3.82147 -3.62314 0
M  V30 15152 H 1532.93 2.44902 -2.87805 0
M  V30 15153 H 1533.24 4.51557 -6.27149 0
M  V30 15154 H 1531.59 4.06661 -5.63606 0
M  V30 15155 H 1534.78 2.96891 -3.61903 0
M  V30 15156 H 1534.95 3.91145 -5.16633 0
M  V30 15157 N 1528.36 1.11264 1.11616 0
M  V30 15158 C 1529.77 0.876713 1.64835 0
M  V30 15159 C 1530.12 -0.591384 1.87075 0
M  V30 15160 O 1529.24 -1.45304 1.60361 0
M  V30 15161 C 1529.84 1.58496 2.9944 0
M  V30 15162 C 1528.4 1.39551 3.49575 0
M  V30 15163 C 1527.54 1.62881 2.24422 0
M  V30 15164 H 1530.49 1.26915 0.952804 0
M  V30 15165 H 1530.52 1.02891 3.66325 0
M  V30 15166 H 1530.03 2.65344 2.83221 0
M  V30 15167 H 1528.13 0.349059 3.70961 0
M  V30 15168 H 1528.24 2.14334 4.28483 0
M  V30 15169 H 1526.61 1.05208 2.31955 0
M  V30 15170 H 1527.39 2.70999 2.10748 0
M  V30 15171 N 1529.83 -1.29188 0.902679 0
M  V30 15172 C 1531.06 -2.00113 0.544953 0
M  V30 15173 C 1531.48 -1.67093 -0.863805 0
M  V30 15174 O 1530.84 -0.897179 -1.57545 0
M  V30 15175 C 1530.89 -3.52762 0.747741 0
M  V30 15176 O 1529.99 -4.11923 -0.198388 0
M  V30 15177 H 1529.33 -0.629054 0.212572 0
M  V30 15178 H 1531.86 -1.64611 1.21508 0
M  V30 15179 H 1531.87 -4.02732 0.653546 0
M  V30 15180 H 1530.55 -3.76131 1.77478 0
M  V30 15181 H 1529.13 -3.72857 -0.0563959 0
M  V30 15182 N 1531.31 -0.665475 -1.42861 0
M  V30 15183 C 1532.27 0.00932351 -2.29198 0
M  V30 15184 C 1533.27 0.738356 -1.42846 0
M  V30 15185 O 1534.46 0.57776 -1.6434 0
M  V30 15186 C 1531.6 1.02392 -3.25159 0
M  V30 15187 H 1532.79 -0.750481 -2.90358 0
M  V30 15188 H 1530.34 -0.427334 -1.50345 0
M  V30 15189 H 1531.08 1.81254 -2.68919 0
M  V30 15190 H 1530.86 0.504671 -3.88839 0
M  V30 15191 H 1532.35 1.49479 -3.89931 0
M  V30 15192 N 1532.79 1.52222 -0.408187 0
M  V30 15193 C 1533.72 2.24676 0.453129 0
M  V30 15194 C 1534.73 1.27605 1.01098 0
M  V30 15195 O 1535.92 1.53557 0.910084 0
M  V30 15196 C 1533.02 2.96431 1.64262 0
M  V30 15197 C 1532.2 4.20364 1.20883 0
M  V30 15198 C 1531.26 4.74951 2.26512 0
M  V30 15199 O 1530.28 5.37556 1.87142 0
M  V30 15200 N 1531.48 4.56443 3.58665 0
M  V30 15201 H 1534.25 2.9923 -0.16771 0
M  V30 15202 H 1531.81 1.60178 -0.235517 0
M  V30 15203 H 1533.8 3.29844 2.3449 0
M  V30 15204 H 1532.37 2.25068 2.1694 0
M  V30 15205 H 1531.59 3.92776 0.334712 0
M  V30 15206 H 1532.88 5.0085 0.895939 0
M  V30 15207 H 1532.28 4.06511 3.93402 0
M  V30 15208 H 1530.83 4.94295 4.24871 0
M  V30 15209 N 1534.27 0.138579 1.5699 0
M  V30 15210 C 1535.2 -0.835134 2.13444 0
M  V30 15211 C 1536.21 -1.21657 1.08183 0
M  V30 15212 O 1537.4 -1.16211 1.35489 0
M  V30 15213 C 1534.5 -2.13086 2.63529 0
M  V30 15214 C 1533.67 -1.9181 3.931 0
M  V30 15215 C 1532.73 -3.05293 4.28582 0
M  V30 15216 O 1531.76 -2.77351 4.97056 0
M  V30 15217 N 1532.96 -4.32248 3.87482 0
M  V30 15218 H 1535.73 -0.352693 2.97617 0
M  V30 15219 H 1533.29 -0.0452536 1.61837 0
M  V30 15220 H 1535.28 -2.88036 2.84284 0
M  V30 15221 H 1533.85 -2.52619 1.84127 0
M  V30 15222 H 1533.07 -1.00943 3.81057 0
M  V30 15223 H 1534.36 -1.74923 4.77786 0
M  V30 15224 H 1533.76 -4.5782 3.32292 0
M  V30 15225 H 1532.31 -5.04006 4.13305 0
M  V30 15226 N 1535.75 -1.57019 -0.13521 0
M  V30 15227 C 1536.97 -1.88528 -0.864399 0
M  V30 15228 C 1537.4 -0.728852 -1.73405 0
M  V30 15229 O 1536.75 0.321196 -1.78432 0
M  V30 15230 C 1536.8 -3.18694 -1.6872 0
M  V30 15231 O 1535.91 -3.03458 -2.79262 0
M  V30 15232 H 1535.25 -0.61909 -0.24005 0
M  V30 15233 H 1537.78 -2.04233 -0.12248 0
M  V30 15234 H 1537.79 -3.51011 -2.0798 0
M  V30 15235 H 1536.46 -4.02462 -1.04868 0
M  V30 15236 H 1535.04 -2.82575 -2.43323 0
M  V30 15237 N 1537.22 0.404919 -1.52309 0
M  V30 15238 C 1538.47 1.14921 -1.66246 0
M  V30 15239 C 1538.79 1.90919 -0.396868 0
M  V30 15240 O 1538.06 1.86856 0.588361 0
M  V30 15241 H 1536.64 0.427223 -0.612772 0
M  V30 15242 H 1539.31 0.461091 -1.89367 0
M  V30 15243 H 1538.4 1.86095 -2.5055 0
M  V30 15244 N 1538.7 1.43003 0.662408 0
M  V30 15245 C 1539.98 1.34613 1.41911 0
M  V30 15246 C 1540.36 -0.0105336 2.11097 0
M  V30 15247 O 1539.71 -1.02667 2.04137 0
M  V30 15248 C 1539.92 2.52297 2.41137 0
M  V30 15249 C 1541.27 2.94972 3.05412 0
M  V30 15250 O 1542.29 2.52277 2.51465 0
M  V30 15251 O 1541.15 3.68906 4.03201 0
M  V30 15252 H 1538.24 0.531508 0.633583 0
M  V30 15253 H 1540.79 1.55035 0.690088 0
M  V30 15254 H 1539.56 3.42685 1.88898 0
M  V30 15255 H 1539.18 2.33926 3.21503 0
M  V30 15256 N 1540.18 -0.899904 1.29381 0
M  V30 15257 C 1541.13 -2.02537 1.14375 0
M  V30 15258 C 1542.12 -1.69296 0.0593904 0
M  V30 15259 O 1543.33 -1.78661 0.219174 0
M  V30 15260 H 1539.7 -0.663844 0.353291 0
M  V30 15261 H 1541.67 -2.12332 2.0966 0
M  V30 15262 C 1540.42 -3.37479 0.836845 0
M  V30 15263 H 1539.75 -3.6356 1.66326 0
M  V30 15264 H 1541.19 -4.16915 0.771873 0
M  V30 15265 C 1539.65 -3.33746 -0.459889 0
M  V30 15266 O 1540.18 -3.73203 -1.48601 0
M  V30 15267 N 1538.38 -2.86845 -0.465657 0
M  V30 15268 H 1537.93 -2.54931 0.369833 0
M  V30 15269 H 1537.89 -2.8473 -1.33327 0
M  V30 15270 N 1541.66 -1.11854 -1.11024 0
M  V30 15271 C 1542.9 -0.880082 -1.84483 0
M  V30 15272 C 1543.26 0.583659 -1.82914 0
M  V30 15273 O 1544.46 0.939053 -2.51864 0
M  V30 15274 C 1542.73 -1.43158 -3.27476 0
M  V30 15275 S 1544.29 -1.33075 -4.18135 0
M  V30 15276 H 1541.11 -0.317635 -0.636105 0
M  V30 15277 H 1543.71 -1.42688 -1.33642 0
M  V30 15278 H 1542.42 -2.49061 -3.26185 0
M  V30 15279 H 1541.95 -0.882005 -3.83385 0
M  V30 15280 H 1543.96 -0.298149 -4.95303 0
M  V30 15281 N 1543.14 1.28707 -0.909517 0
M  V30 15282 C 1544.07 2.29845 -0.411552 0
M  V30 15283 C 1545.05 1.62001 0.518615 0
M  V30 15284 O 1546.23 1.89442 0.427252 0
M  V30 15285 C 1543.36 3.45501 0.353013 0
M  V30 15286 C 1542.32 4.25213 -0.487625 0
M  V30 15287 C 1541.64 5.33164 0.405026 0
M  V30 15288 C 1542.94 4.9237 -1.74268 0
M  V30 15289 H 1544.64 2.71746 -1.25676 0
M  V30 15290 H 1542.18 1.30639 -0.605759 0
M  V30 15291 H 1544.14 4.15338 0.712191 0
M  V30 15292 H 1542.86 3.02469 1.23209 0
M  V30 15293 H 1541.52 3.57098 -0.829265 0
M  V30 15294 H 1541.17 4.86375 1.28252 0
M  V30 15295 H 1540.87 5.87399 -0.153811 0
M  V30 15296 H 1542.39 6.0585 0.760179 0
M  V30 15297 H 1543.8 5.5459 -1.45266 0
M  V30 15298 H 1542.2 5.56581 -2.2436 0
M  V30 15299 H 1543.27 4.171 -2.47297 0
M  V30 15300 N 1544.61 0.673042 1.42506 0
M  V30 15301 C 1545.54 0.00755467 2.33499 0
M  V30 15302 C 1546.53 -0.791161 1.50581 0
M  V30 15303 O 1547.71 -0.748668 1.79189 0
M  V30 15304 C 1544.84 -0.945638 3.34178 0
M  V30 15305 C 1543.79 -0.25564 4.27236 0
M  V30 15306 C 1543.12 -1.32165 5.18109 0
M  V30 15307 C 1544.42 0.864254 5.151 0
M  V30 15308 H 1546.11 0.767487 2.89396 0
M  V30 15309 H 1543.66 0.370524 1.39151 0
M  V30 15310 H 1545.61 -1.42026 3.96745 0
M  V30 15311 H 1544.34 -1.73697 2.76581 0
M  V30 15312 H 1543 0.19873 3.66061 0
M  V30 15313 H 1542.64 -2.10492 4.56839 0
M  V30 15314 H 1542.34 -0.865109 5.81197 0
M  V30 15315 H 1543.87 -1.79724 5.83551 0
M  V30 15316 H 1545.28 0.470924 5.71363 0
M  V30 15317 H 1543.68 1.24648 5.87012 0
M  V30 15318 H 1544.75 1.71378 4.53605 0
M  V30 15319 N 1546.09 -1.52004 0.416254 0
M  V30 15320 C 1547.32 -2.06008 -0.156264 0
M  V30 15321 C 1547.73 -1.28562 -1.3881 0
M  V30 15322 O 1547.07 -0.33265 -1.80663 0
M  V30 15323 C 1547.14 -3.55039 -0.564614 0
M  V30 15324 C 1546.8 -4.53587 0.557481 0
M  V30 15325 C 1547.8 -5.0004 1.42324 0
M  V30 15326 C 1545.48 -4.96935 0.732205 0
M  V30 15327 C 1547.48 -5.88492 2.4486 0
M  V30 15328 C 1545.16 -5.85181 1.76087 0
M  V30 15329 C 1546.16 -6.30855 2.61747 0
M  V30 15330 O 1545.85 -7.17353 3.6285 0
M  V30 15331 H 1545.58 -0.675681 -0.0207555 0
M  V30 15332 H 1548.13 -1.96806 0.58792 0
M  V30 15333 H 1546.36 -3.61951 -1.36119 0
M  V30 15334 H 1548.05 -3.91656 -1.06586 0
M  V30 15335 H 1548.82 -4.67261 1.29968 0
M  V30 15336 H 1544.7 -4.60939 0.0751016 0
M  V30 15337 H 1548.24 -6.24063 3.11754 0
M  V30 15338 H 1544.14 -6.17373 1.8847 0
M  V30 15339 H 1544.91 -7.35481 3.59179 0
M  V30 15340 N 1547.57 -0.146903 -1.56914 0
M  V30 15341 C 1548.8 0.511181 -2.00486 0
M  V30 15342 C 1549.21 1.58425 -1.02699 0
M  V30 15343 O 1548.57 1.82484 -0.0239878 0
M  V30 15344 C 1548.62 1.11191 -3.43975 0
M  V30 15345 O 1548.34 0.0817094 -4.38024 0
M  V30 15346 C 1549.84 1.85061 -4.02824 0
M  V30 15347 H 1547.06 0.133078 -0.657671 0
M  V30 15348 H 1549.61 -0.241457 -2.0307 0
M  V30 15349 H 1547.76 1.81517 -3.42243 0
M  V30 15350 H 1548.18 0.52181 -5.21898 0
M  V30 15351 H 1549.65 2.22385 -5.05222 0
M  V30 15352 H 1550.13 2.73649 -3.4353 0
M  V30 15353 H 1550.73 1.19434 -4.08186 0
M  V30 15354 N 1549.05 1.57088 0.126881 0
M  V30 15355 C 1550 1.96188 1.16164 0
M  V30 15356 C 1550.98 0.835786 1.3749 0
M  V30 15357 O 1552.17 1.09942 1.38714 0
M  V30 15358 C 1549.3 2.36308 2.49025 0
M  V30 15359 C 1548.39 3.55533 2.31208 0
M  V30 15360 N 1548.78 4.71462 1.83186 0
M  V30 15361 C 1547.08 3.61011 2.61891 0
M  V30 15362 C 1547.78 5.5351 1.7889 0
M  V30 15363 N 1546.76 4.95778 2.22946 0
M  V30 15364 H 1550.56 2.83284 0.782778 0
M  V30 15365 H 1548.07 1.58913 0.334719 0
M  V30 15366 H 1550.07 2.62533 3.23855 0
M  V30 15367 H 1548.73 1.50573 2.87677 0
M  V30 15368 H 1549.74 4.94831 1.5285 0
M  V30 15369 H 1546.42 2.85865 3.04282 0
M  V30 15370 H 1547.81 6.56488 1.43083 0
M  V30 15371 N 1550.53 -0.396836 1.52522 0
M  V30 15372 C 1551.46 -1.49088 1.79708 0
M  V30 15373 C 1552.44 -1.57246 0.648678 0
M  V30 15374 O 1553.62 -1.72321 0.895495 0
M  V30 15375 C 1550.75 -2.86785 1.95887 0
M  V30 15376 C 1549.71 -2.93472 3.11542 0
M  V30 15377 C 1549.03 -4.33542 3.12963 0
M  V30 15378 C 1550.33 -2.63832 4.50766 0
M  V30 15379 H 1552.03 -1.26588 2.71322 0
M  V30 15380 H 1549.57 -0.607535 1.30557 0
M  V30 15381 H 1551.53 -3.63319 2.13489 0
M  V30 15382 H 1550.25 -3.10605 1.00955 0
M  V30 15383 H 1548.91 -2.19384 2.93711 0
M  V30 15384 H 1548.56 -4.5439 2.15729 0
M  V30 15385 H 1548.26 -4.38938 3.9065 0
M  V30 15386 H 1549.78 -5.11993 3.32709 0
M  V30 15387 H 1551.19 -3.30086 4.68739 0
M  V30 15388 H 1549.59 -2.80589 5.30462 0
M  V30 15389 H 1550.66 -1.59209 4.58018 0
M  V30 15390 N 1552.01 -1.43353 -0.654814 0
M  V30 15391 C 1553.42 -1.39933 -1.23595 0
M  V30 15392 C 1553.77 -0.102592 -1.95932 0
M  V30 15393 O 1552.89 0.798021 -2.01148 0
M  V30 15394 C 1553.49 -2.53483 -2.24793 0
M  V30 15395 C 1552.05 -2.53333 -2.78387 0
M  V30 15396 C 1551.19 -2.31268 -1.53005 0
M  V30 15397 H 1554.14 -1.52277 -0.446932 0
M  V30 15398 H 1554.17 -2.2488 -3.06935 0
M  V30 15399 H 1553.68 -3.47847 -1.72116 0
M  V30 15400 H 1551.78 -1.62844 -3.35131 0
M  V30 15401 H 1551.89 -3.51047 -3.26041 0
M  V30 15402 H 1550.26 -1.79905 -1.80295 0
M  V30 15403 H 1551.04 -3.27714 -1.02266 0
M  V30 15404 N 1553.48 0.89303 -1.29857 0
M  V30 15405 C 1554.41 2.01422 -1.18117 0
M  V30 15406 C 1555.39 1.6994 -0.0737487 0
M  V30 15407 O 1556.58 1.92527 -0.254387 0
M  V30 15408 C 1553.71 3.36385 -0.863842 0
M  V30 15409 C 1552.66 3.821 -1.92831 0
M  V30 15410 C 1551.99 5.14263 -1.46415 0
M  V30 15411 C 1553.29 4.01699 -3.33819 0
M  V30 15412 H 1554.98 2.11502 -2.11913 0
M  V30 15413 H 1552.53 1.01622 -1.02024 0
M  V30 15414 H 1554.48 4.14335 -0.768397 0
M  V30 15415 H 1553.21 3.26415 0.109816 0
M  V30 15416 H 1551.87 3.06372 -2.01325 0
M  V30 15417 H 1551.51 5.00714 -0.478983 0
M  V30 15418 H 1551.21 5.45821 -2.17609 0
M  V30 15419 H 1552.74 5.94747 -1.38234 0
M  V30 15420 H 1554.15 4.70111 -3.28129 0
M  V30 15421 H 1552.55 4.44621 -4.03029 0
M  V30 15422 H 1553.62 3.05816 -3.76304 0
M  V30 15423 N 1554.96 1.12442 1.10429 0
M  V30 15424 C 1556.24 0.791191 1.78884 0
M  V30 15425 C 1556.62 -0.719044 1.98477 0
M  V30 15426 O 1555.97 -1.65275 1.57786 0
M  V30 15427 C 1556.18 1.56632 3.11877 0
M  V30 15428 C 1557.52 1.75236 3.86752 0
M  V30 15429 O 1558.55 1.53145 3.21598 0
M  V30 15430 O 1557.41 2.12025 5.03694 0
M  V30 15431 H 1554.5 0.287788 0.775311 0
M  V30 15432 H 1557.05 1.22844 1.17078 0
M  V30 15433 H 1555.82 2.59317 2.93037 0
M  V30 15434 H 1555.44 1.12332 3.81402 0
M  V30 15435 N 1556.44 -1.28223 0.91633 0
M  V30 15436 C 1557.69 -1.9448 0.549734 0
M  V30 15437 C 1558.01 -1.72465 -0.909999 0
M  V30 15438 O 1557.28 -1.06583 -1.64368 0
M  V30 15439 H 1555.86 -0.719641 0.200315 0
M  V30 15440 H 1558.52 -1.56156 1.16625 0
M  V30 15441 H 1557.62 -3.03044 0.746363 0
M  V30 15442 N 1557.92 -0.68059 -1.42147 0
M  V30 15443 C 1559.16 -0.205263 -2.01457 0
M  V30 15444 C 1559.49 1.19015 -1.53837 0
M  V30 15445 O 1558.75 1.81423 -0.733763 0
M  V30 15446 C 1559.05 -0.194825 -3.56869 0
M  V30 15447 C 1558.71 -1.5357 -4.23942 0
M  V30 15448 C 1557.37 -1.90282 -4.4198 0
M  V30 15449 C 1559.73 -2.41852 -4.61689 0
M  V30 15450 C 1557.05 -3.14891 -4.95036 0
M  V30 15451 C 1559.41 -3.65779 -5.16129 0
M  V30 15452 C 1558.07 -4.02653 -5.32379 0
M  V30 15453 H 1557.34 -0.0751109 -0.737183 0
M  V30 15454 H 1559.99 -0.87672 -1.70252 0
M  V30 15455 H 1558.29 0.560155 -3.87775 0
M  V30 15456 H 1559.99 0.190248 -4.00548 0
M  V30 15457 H 1556.58 -1.24012 -4.10267 0
M  V30 15458 H 1560.76 -2.14773 -4.47422 0
M  V30 15459 H 1556.02 -3.43474 -5.05802 0
M  V30 15460 H 1560.19 -4.34384 -5.4432 0
M  V30 15461 H 1557.82 -4.99283 -5.73254 0
M  V30 15462 N 1559.4 1.51781 -0.424309 0
M  V30 15463 C 1560.81 1.86653 0.0418266 0
M  V30 15464 C 1561.16 1.34224 1.43103 0
M  V30 15465 O 1560.28 0.687684 2.05183 0
M  V30 15466 C 1560.88 3.38699 0.0826759 0
M  V30 15467 C 1559.44 3.73155 0.493186 0
M  V30 15468 C 1558.58 2.75417 -0.322586 0
M  V30 15469 H 1561.53 1.45191 -0.640726 0
M  V30 15470 H 1561.56 3.69828 0.894864 0
M  V30 15471 H 1561.07 3.76829 -0.928536 0
M  V30 15472 H 1559.17 3.4061 1.51048 0
M  V30 15473 H 1559.28 4.78562 0.227032 0
M  V30 15474 H 1557.65 2.53772 0.217262 0
M  V30 15475 H 1558.43 3.16388 -1.33243 0
M  V30 15476 N 1560.87 0.155222 1.56834 0
M  V30 15477 C 1562.1 -0.503763 2.01189 0
M  V30 15478 C 1562.52 -1.57086 1.03468 0
M  V30 15479 O 1561.88 -1.81296 0.0116895 0
M  V30 15480 C 1561.93 -1.07373 3.44243 0
M  V30 15481 O 1561.03 -2.18834 3.49551 0
M  V30 15482 H 1560.37 -0.122368 0.652627 0
M  V30 15483 H 1562.9 0.254377 2.03013 0
M  V30 15484 H 1562.91 -1.40036 3.83215 0
M  V30 15485 H 1561.59 -0.292339 4.14871 0
M  V30 15486 H 1560.17 -1.87337 3.22427 0
M  V30 15487 N 1562.35 -1.57153 -0.118549 0
M  V30 15488 C 1563.31 -1.99438 -1.12947 0
M  V30 15489 C 1564.31 -0.884588 -1.34282 0
M  V30 15490 O 1565.5 -1.15062 -1.30792 0
M  V30 15491 C 1562.64 -2.33492 -2.48384 0
M  V30 15492 H 1563.83 -2.89952 -0.766034 0
M  V30 15493 H 1561.38 -1.5203 -0.362858 0
M  V30 15494 H 1562.12 -1.45859 -2.89647 0
M  V30 15495 H 1561.9 -3.14433 -2.34252 0
M  V30 15496 H 1563.39 -2.66945 -3.21139 0
M  V30 15497 N 1563.83 0.388742 -1.5273 0
M  V30 15498 C 1564.79 1.45759 -1.76881 0
M  V30 15499 C 1565.79 1.47565 -0.63884 0
M  V30 15500 O 1566.98 1.48731 -0.906895 0
M  V30 15501 C 1564.11 2.85045 -1.86981 0
M  V30 15502 H 1565.31 1.25629 -2.72319 0
M  V30 15503 H 1562.86 0.620497 -1.43456 0
M  V30 15504 H 1563.6 3.1052 -0.935296 0
M  V30 15505 H 1563.38 2.85136 -2.69147 0
M  V30 15506 H 1564.87 3.62492 -2.07338 0
M  V30 15507 N 1565.31 1.43698 0.647203 0
M  V30 15508 C 1566.56 1.45346 1.40425 0
M  V30 15509 C 1566.88 0.081129 1.94831 0
M  V30 15510 O 1566.15 -0.884379 1.74801 0
M  V30 15511 H 1564.73 0.535145 0.521181 0
M  V30 15512 H 1567.39 1.79349 0.762887 0
M  V30 15513 H 1566.48 2.16954 2.2436 0
M  V30 15514 N 1566.79 -0.886131 1.30328 0
M  V30 15515 C 1567.72 -2.00793 1.19183 0
M  V30 15516 C 1568.7 -1.69899 0.08276 0
M  V30 15517 O 1569.88 -1.92389 0.264593 0
M  V30 15518 C 1567.01 -3.35922 0.881669 0
M  V30 15519 C 1565.97 -3.81072 1.94855 0
M  V30 15520 C 1565.29 -5.1348 1.4914 0
M  V30 15521 C 1566.59 -3.99923 3.35944 0
M  V30 15522 H 1568.29 -2.10375 2.13032 0
M  V30 15523 H 1565.83 -1.0108 1.02561 0
M  V30 15524 H 1567.79 -4.13922 0.790359 0
M  V30 15525 H 1566.51 -3.26469 -0.0925037 0
M  V30 15526 H 1565.17 -3.053 2.02947 0
M  V30 15527 H 1564.82 -5.00453 0.50553 0
M  V30 15528 H 1564.52 -5.44659 2.205 0
M  V30 15529 H 1566.04 -5.94005 1.41386 0
M  V30 15530 H 1567.45 -4.68364 3.30617 0
M  V30 15531 H 1565.85 -4.42477 4.05381 0
M  V30 15532 H 1566.92 -3.03816 3.77921 0
M  V30 15533 N 1568.26 -1.13026 -1.09832 0
M  V30 15534 C 1569.17 -0.817051 -2.19912 0
M  V30 15535 C 1570.19 0.19667 -1.72885 0
M  V30 15536 O 1571.37 0.0287402 -2.01379 0
M  V30 15537 C 1568.43 -0.28304 -3.45543 0
M  V30 15538 C 1567.49 -1.35748 -4.07273 0
M  V30 15539 C 1566.73 -0.848855 -5.26906 0
M  V30 15540 O 1566.95 0.315104 -5.69529 0
M  V30 15541 O 1565.88 -1.62128 -5.79653 0
M  V30 15542 H 1569.71 -1.73663 -2.49148 0
M  V30 15543 H 1567.29 -0.907391 -1.18688 0
M  V30 15544 H 1569.18 0.00956876 -4.21399 0
M  V30 15545 H 1567.85 0.609018 -3.17919 0
M  V30 15546 H 1566.76 -1.70334 -3.33072 0
M  V30 15547 H 1568.09 -2.22353 -4.39113 0
M  V30 15548 N 1569.74 1.27735 -0.923117 0
M  V30 15549 C 1570.71 2.25256 -0.423375 0
M  V30 15550 C 1571.71 1.54213 0.455517 0
M  V30 15551 O 1572.9 1.7229 0.257245 0
M  V30 15552 C 1570.03 3.3864 0.391897 0
M  V30 15553 H 1571.22 2.70978 -1.28495 0
M  V30 15554 H 1568.77 1.39579 -0.703378 0
M  V30 15555 H 1569.51 2.98293 1.27248 0
M  V30 15556 H 1569.29 3.91376 -0.238194 0
M  V30 15557 H 1570.78 4.11133 0.732069 0
M  V30 15558 N 1571.22 0.688118 1.41784 0
M  V30 15559 C 1572.15 0.0323199 2.33478 0
M  V30 15560 C 1573.13 -0.775145 1.51412 0
M  V30 15561 O 1574.32 -0.72962 1.79973 0
M  V30 15562 C 1571.45 -0.910141 3.35162 0
M  V30 15563 C 1570.4 -0.210312 4.27483 0
M  V30 15564 C 1569.73 -1.26662 5.19481 0
M  V30 15565 C 1571.03 0.918839 5.14154 0
M  V30 15566 H 1572.72 0.798138 2.88566 0
M  V30 15567 H 1570.27 0.385262 1.38751 0
M  V30 15568 H 1572.22 -1.3781 3.98229 0
M  V30 15569 H 1570.94 -1.70754 2.78408 0
M  V30 15570 H 1569.6 0.237544 3.6583 0
M  V30 15571 H 1569.25 -2.05635 4.59046 0
M  V30 15572 H 1568.95 -0.803416 5.82082 0
M  V30 15573 H 1570.47 -1.73524 5.85424 0
M  V30 15574 H 1571.89 0.531499 5.70831 0
M  V30 15575 H 1570.29 1.30867 5.85657 0
M  V30 15576 H 1571.36 1.7618 4.51762 0
M  V30 15577 N 1572.7 -1.51554 0.432352 0
M  V30 15578 C 1573.94 -2.03954 -0.135014 0
M  V30 15579 C 1574.3 -1.30972 -1.40393 0
M  V30 15580 O 1575.5 -1.73719 -2.05122 0
M  V30 15581 C 1573.77 -3.55646 -0.35361 0
M  V30 15582 S 1575.33 -4.29781 -0.885096 0
M  V30 15583 H 1572.15 -0.710178 -0.0341871 0
M  V30 15584 H 1574.75 -1.86365 0.590612 0
M  V30 15585 H 1573.46 -4.06333 0.576335 0
M  V30 15586 H 1572.99 -3.7752 -1.10646 0
M  V30 15587 H 1575 -4.46564 -2.16322 0
M  V30 15588 N 1574.18 -0.163538 -1.56749 0
M  V30 15589 C 1575.59 0.192717 -1.58432 0
M  V30 15590 C 1575.79 1.63438 -1.17856 0
M  V30 15591 O 1574.85 2.36425 -0.88654 0
M  V30 15592 C 1576.16 -0.0810427 -3.00591 0
M  V30 15593 C 1577.71 -0.0186378 -3.12994 0
M  V30 15594 C 1578.18 -0.265283 -4.57231 0
M  V30 15595 N 1579.68 -0.212787 -4.62711 0
M  V30 15596 C 1580.41 -0.37791 -5.72153 0
M  V30 15597 N 1579.91 -0.601663 -6.90182 0
M  V30 15598 N 1581.7 -0.314357 -5.6122 0
M  V30 15599 H 1573.85 -1.10467 -1.81413 0
M  V30 15600 H 1576.11 -0.438569 -0.840453 0
M  V30 15601 H 1575.82 -1.07944 -3.34725 0
M  V30 15602 H 1575.69 0.630888 -3.71887 0
M  V30 15603 H 1578.08 0.970324 -2.78691 0
M  V30 15604 H 1578.16 -0.763158 -2.44151 0
M  V30 15605 H 1577.81 -1.25142 -4.92242 0
M  V30 15606 H 1577.74 0.499756 -5.24223 0
M  V30 15607 H 1580.23 -0.0451754 -3.77873 0
M  V30 15608 H 1580.54 -0.717319 -7.69464 0
M  V30 15609 H 1578.88 -0.638184 -6.92064 0
M  V30 15610 H 1582.08 -0.140197 -4.6789 0
M  V30 15611 H 1582.25 -0.446472 -6.4646 0
M  V30 15612 N 1575.65 1.57214 0.110213 0
M  V30 15613 C 1576.59 1.97641 1.16064 0
M  V30 15614 C 1577.6 0.876886 1.37166 0
M  V30 15615 O 1578.79 1.15512 1.36086 0
M  V30 15616 C 1575.89 2.2671 2.51904 0
M  V30 15617 C 1575.06 3.58015 2.51285 0
M  V30 15618 C 1574.12 3.75195 3.68938 0
M  V30 15619 O 1573.15 4.47214 3.5212 0
M  V30 15620 N 1574.35 3.14627 4.87842 0
M  V30 15621 H 1577.11 2.88358 0.816679 0
M  V30 15622 H 1574.67 1.59108 0.299383 0
M  V30 15623 H 1576.67 2.35411 3.29187 0
M  V30 15624 H 1575.24 1.42076 2.78448 0
M  V30 15625 H 1574.46 3.60422 1.59655 0
M  V30 15626 H 1575.74 4.44303 2.47936 0
M  V30 15627 H 1575.14 2.56101 5.0441 0
M  V30 15628 H 1573.7 3.28836 5.6277 0
M  V30 15629 N 1577.13 -0.380637 1.52934 0
M  V30 15630 C 1578.41 -1.13958 1.58975 0
M  V30 15631 C 1578.79 -2.07503 0.388028 0
M  V30 15632 O 1578.14 -2.19844 -0.622984 0
M  V30 15633 C 1578.35 -1.89192 2.9327 0
M  V30 15634 C 1579.7 -2.44259 3.47308 0
M  V30 15635 O 1580.72 -1.99338 2.95199 0
M  V30 15636 O 1579.58 -3.26338 4.38367 0
M  V30 15637 H 1576.67 -0.521896 0.641525 0
M  V30 15638 H 1579.22 -0.385114 1.65272 0
M  V30 15639 H 1577.99 -1.20834 3.72176 0
M  V30 15640 H 1577.61 -2.71581 2.90395 0
M  V30 15641 N 1578.61 -1.44039 -0.639573 0
M  V30 15642 C 1579.56 -1.50541 -1.77314 0
M  V30 15643 C 1580.55 -0.37781 -1.65133 0
M  V30 15644 O 1581.76 -0.552396 -1.71314 0
M  V30 15645 H 1578.13 -0.472221 -0.585245 0
M  V30 15646 H 1580.1 -2.45964 -1.68951 0
M  V30 15647 C 1578.85 -1.45868 -3.15623 0
M  V30 15648 H 1578.18 -2.31946 -3.25639 0
M  V30 15649 H 1579.62 -1.54479 -3.94857 0
M  V30 15650 C 1578.08 -0.178204 -3.36428 0
M  V30 15651 O 1578.61 0.755017 -3.94541 0
M  V30 15652 N 1576.81 -0.0840295 -2.90478 0
M  V30 15653 H 1576.36 -0.844281 -2.43371 0
M  V30 15654 H 1576.32 0.771988 -3.04775 0
M  V30 15655 N 1580.09 0.879207 -1.30796 0
M  V30 15656 C 1581.31 1.66975 -1.23021 0
M  V30 15657 C 1581.74 1.87004 0.202798 0
M  V30 15658 O 1581.1 1.40514 1.14566 0
M  V30 15659 C 1581.14 3.02028 -1.97007 0
M  V30 15660 O 1580.25 3.91338 -1.30109 0
M  V30 15661 H 1579.59 0.509998 -0.425204 0
M  V30 15662 H 1582.12 1.09688 -1.72713 0
M  V30 15663 H 1582.13 3.5203 -2.06249 0
M  V30 15664 H 1580.8 2.8677 -3.01224 0
M  V30 15665 H 1579.38 3.49781 -1.29258 0
M  V30 15666 N 1581.57 1.13606 1.09231 0
M  V30 15667 C 1582.5 0.837908 2.17948 0
M  V30 15668 C 1583.48 -0.203575 1.68877 0
M  V30 15669 O 1584.66 -0.0620702 1.94101 0
M  V30 15670 C 1581.79 0.305342 3.45955 0
M  V30 15671 C 1580.75 1.2813 4.08371 0
M  V30 15672 C 1580.07 0.608412 5.31227 0
M  V30 15673 C 1581.37 2.64055 4.50636 0
M  V30 15674 H 1583.07 1.747 2.43147 0
M  V30 15675 H 1580.61 0.84141 1.1686 0
M  V30 15676 H 1582.57 0.0844116 4.21315 0
M  V30 15677 H 1581.29 -0.639144 3.20285 0
M  V30 15678 H 1579.95 1.48826 3.35032 0
M  V30 15679 H 1579.6 -0.341613 5.01839 0
M  V30 15680 H 1579.3 1.25956 5.73942 0
M  V30 15681 H 1580.82 0.396809 6.09309 0
M  V30 15682 H 1582.24 2.47316 5.17212 0
M  V30 15683 H 1580.63 3.25364 5.0424 0
M  V30 15684 H 1581.7 3.21566 3.62937 0
M  V30 15685 N 1583.05 -1.27244 0.929878 0
M  V30 15686 C 1584.46 -1.76254 0.615732 0
M  V30 15687 C 1584.81 -1.759 -0.869111 0
M  V30 15688 O 1583.93 -1.36388 -1.6801 0
M  V30 15689 C 1584.53 -3.20068 1.11095 0
M  V30 15690 C 1583.09 -3.66736 0.847435 0
M  V30 15691 C 1582.23 -2.4659 1.26842 0
M  V30 15692 H 1585.18 -1.1348 1.10942 0
M  V30 15693 H 1585.21 -3.77714 0.459618 0
M  V30 15694 H 1584.72 -3.20293 2.19166 0
M  V30 15695 H 1582.82 -3.71954 -0.219376 0
M  V30 15696 H 1582.93 -4.56104 1.4665 0
M  V30 15697 H 1581.3 -2.45261 0.686944 0
M  V30 15698 H 1582.08 -2.49524 2.35781 0
M  V30 15699 N 1584.52 -0.695628 -1.41417 0
M  V30 15700 C 1585.94 -0.367185 -1.55319 0
M  V30 15701 C 1586.14 1.12584 -1.67114 0
M  V30 15702 O 1585.2 1.91166 -1.64959 0
M  V30 15703 C 1586.51 -1.11576 -2.79233 0
M  V30 15704 C 1588.06 -1.10011 -2.9303 0
M  V30 15705 C 1588.53 -1.83044 -4.19832 0
M  V30 15706 N 1590.02 -1.80014 -4.26789 0
M  V30 15707 C 1590.76 -2.33362 -5.23765 0
M  V30 15708 N 1590.25 -2.95182 -6.26769 0
M  V30 15709 N 1592.05 -2.23618 -5.15705 0
M  V30 15710 H 1584.2 -1.66398 -1.32006 0
M  V30 15711 H 1586.46 -0.702205 -0.636877 0
M  V30 15712 H 1586.17 -2.1706 -2.76727 0
M  V30 15713 H 1586.04 -0.694385 -3.70753 0
M  V30 15714 H 1588.43 -0.0535436 -2.95051 0
M  V30 15715 H 1588.51 -1.56055 -2.02683 0
M  V30 15716 H 1588.15 -2.8768 -4.18572 0
M  V30 15717 H 1588.08 -1.34434 -5.09151 0
M  V30 15718 H 1590.57 -1.34942 -3.52986 0
M  V30 15719 H 1590.89 -3.33456 -6.97156 0
M  V30 15720 H 1589.23 -2.99259 -6.27271 0
M  V30 15721 H 1592.42 -1.74994 -4.3416 0
M  V30 15722 H 1592.6 -2.65497 -5.91113 0
M  V30 15723 N 1586 1.51322 -0.440383 0
M  V30 15724 C 1587.41 1.86687 0.0220272 0
M  V30 15725 C 1587.76 1.35734 1.41671 0
M  V30 15726 O 1586.89 0.709408 2.04442 0
M  V30 15727 C 1587.48 3.38768 0.0467477 0
M  V30 15728 C 1586.04 3.73657 0.45358 0
M  V30 15729 C 1585.19 2.7506 -0.351779 0
M  V30 15730 H 1588.14 1.44503 -0.65609 0
M  V30 15731 H 1588.16 3.70756 0.855589 0
M  V30 15732 H 1587.67 3.75823 -0.968451 0
M  V30 15733 H 1585.77 3.42193 1.47427 0
M  V30 15734 H 1585.89 4.78776 0.176262 0
M  V30 15735 H 1584.25 2.53988 0.190334 0
M  V30 15736 H 1585.03 3.14957 -1.36591 0
M  V30 15737 N 1587.48 0.171848 1.5666 0
M  V30 15738 C 1588.72 -0.475418 1.98794 0
M  V30 15739 C 1589.08 -1.60384 1.0555 0
M  V30 15740 O 1590.28 -2.3137 1.36827 0
M  V30 15741 C 1588.56 -0.945518 3.44666 0
M  V30 15742 S 1590.11 -1.59389 4.08828 0
M  V30 15743 H 1586.93 -0.1529 0.694365 0
M  V30 15744 H 1589.53 0.269434 1.93634 0
M  V30 15745 H 1588.24 -0.113839 4.10242 0
M  V30 15746 H 1587.77 -1.7244 3.53593 0
M  V30 15747 H 1589.78 -2.88205 4.03921 0
M  V30 15748 N 1588.96 -1.5727 -0.101874 0
M  V30 15749 C 1590.37 -1.74753 -0.657147 0
M  V30 15750 C 1590.72 -0.793052 -1.79458 0
M  V30 15751 O 1589.84 0.0300559 -2.16379 0
M  V30 15752 C 1590.44 -3.1688 -1.19885 0
M  V30 15753 C 1589 -3.3581 -1.70025 0
M  V30 15754 C 1588.15 -2.70575 -0.607007 0
M  V30 15755 H 1591.1 -1.58214 0.124158 0
M  V30 15756 H 1591.12 -3.19378 -2.06829 0
M  V30 15757 H 1590.63 -3.86325 -0.37079 0
M  V30 15758 H 1588.73 -2.71434 -2.55253 0
M  V30 15759 H 1588.84 -4.44086 -1.79791 0
M  V30 15760 H 1587.21 -2.32284 -1.04481 0
M  V30 15761 H 1587.99 -3.42655 0.21036 0
M  V30 15762 N 1590.44 0.372521 -1.53134 0
M  V30 15763 C 1591.66 1.13668 -1.72879 0
M  V30 15764 C 1592.08 1.83246 -0.454588 0
M  V30 15765 O 1591.44 1.73302 0.572062 0
M  V30 15766 C 1591.49 2.17226 -2.88955 0
M  V30 15767 O 1591.21 1.50483 -4.11445 0
M  V30 15768 C 1592.71 3.06243 -3.20516 0
M  V30 15769 H 1589.93 0.340156 -0.57839 0
M  V30 15770 H 1592.47 0.433557 -1.99851 0
M  V30 15771 H 1590.63 2.83148 -2.64397 0
M  V30 15772 H 1591.04 2.19425 -4.76396 0
M  V30 15773 H 1592.52 3.74901 -4.05158 0
M  V30 15774 H 1592.99 3.70669 -2.35587 0
M  V30 15775 H 1593.6 2.45946 -3.46973 0
M  V30 15776 N 1591.91 1.44376 0.631925 0
M  V30 15777 C 1592.82 1.5367 1.77264 0
M  V30 15778 C 1593.84 0.422425 1.68794 0
M  V30 15779 O 1595.02 0.679656 1.89585 0
M  V30 15780 C 1592.08 1.47743 3.13644 0
M  V30 15781 C 1591.14 2.70015 3.33752 0
M  V30 15782 C 1590.37 2.64362 4.63626 0
M  V30 15783 O 1590.6 1.7032 5.44378 0
M  V30 15784 O 1589.53 3.55201 4.85918 0
M  V30 15785 H 1593.36 2.5004 1.72376 0
M  V30 15786 H 1590.94 1.26614 0.793052 0
M  V30 15787 H 1592.82 1.46958 3.94945 0
M  V30 15788 H 1591.5 0.545165 3.19076 0
M  V30 15789 H 1590.41 2.76369 2.52133 0
M  V30 15790 H 1591.74 3.62286 3.33181 0
M  V30 15791 N 1593.39 -0.872258 1.31261 0
M  V30 15792 C 1594.32 -1.9853 1.14537 0
M  V30 15793 C 1595.34 -1.62578 0.0850723 0
M  V30 15794 O 1596.53 -1.75379 0.332343 0
M  V30 15795 C 1593.63 -3.31005 0.72727 0
M  V30 15796 C 1592.8 -3.95313 1.87208 0
M  V30 15797 C 1591.86 -5.06101 1.44042 0
M  V30 15798 O 1590.88 -5.27045 2.1497 0
M  V30 15799 N 1592.09 -5.79581 0.32653 0
M  V30 15800 H 1594.85 -2.13423 2.10406 0
M  V30 15801 H 1592.41 -1.0461 1.23565 0
M  V30 15802 H 1594.4 -4.02502 0.421255 0
M  V30 15803 H 1592.97 -3.12287 -0.13975 0
M  V30 15804 H 1592.19 -3.16825 2.34553 0
M  V30 15805 H 1593.48 -4.35015 2.63893 0
M  V30 15806 H 1592.88 -5.65083 -0.264202 0
M  V30 15807 H 1591.44 -6.51751 0.0800358 0
M  V30 15808 N 1594.87 -1.14184 -1.08627 0
M  V30 15809 C 1595.8 -0.849455 -2.17501 0
M  V30 15810 C 1596.78 0.194617 -1.68983 0
M  V30 15811 O 1597.97 0.0517757 -1.94131 0
M  V30 15812 C 1595.1 -0.323685 -3.45788 0
M  V30 15813 C 1594.05 -1.30294 -4.07685 0
M  V30 15814 C 1593.38 -0.636575 -5.30897 0
M  V30 15815 C 1594.68 -2.66441 -4.49229 0
M  V30 15816 H 1596.37 -1.75987 -2.42217 0
M  V30 15817 H 1593.92 -0.847595 -1.16412 0
M  V30 15818 H 1595.87 -0.106754 -4.21265 0
M  V30 15819 H 1594.59 0.62215 -3.20619 0
M  V30 15820 H 1593.25 -1.50601 -3.34238 0
M  V30 15821 H 1592.9 0.314995 -5.02013 0
M  V30 15822 H 1592.6 -1.28998 -5.73266 0
M  V30 15823 H 1594.12 -0.429117 -6.0909 0
M  V30 15824 H 1595.54 -2.50055 -5.15893 0
M  V30 15825 H 1593.93 -3.28033 -5.02508 0
M  V30 15826 H 1595 -3.23486 -3.61226 0
M  V30 15827 N 1596.35 1.26749 -0.936613 0
M  V30 15828 C 1597.57 1.98597 -0.597817 0
M  V30 15829 C 1598 1.69324 0.8192 0
M  V30 15830 O 1597.36 0.938634 1.55111 0
M  V30 15831 C 1597.4 3.50656 -0.841007 0
M  V30 15832 O 1596.51 4.12304 0.0891038 0
M  V30 15833 H 1595.85 0.623197 -0.229176 0
M  V30 15834 H 1598.38 1.61332 -1.2583 0
M  V30 15835 H 1598.39 4.00857 -0.760093 0
M  V30 15836 H 1597.06 3.71293 -1.87388 0
M  V30 15837 H 1595.64 3.72876 -0.0424804 0
M  V30 15838 N 1597.83 0.703118 1.41046 0
M  V30 15839 C 1599.24 0.311167 1.84089 0
M  V30 15840 C 1599.59 -1.15202 1.58818 0
M  V30 15841 O 1598.71 -1.88518 1.06254 0
M  V30 15842 C 1599.31 0.557986 3.34174 0
M  V30 15843 C 1597.87 0.219875 3.75757 0
M  V30 15844 C 1597.01 0.836543 2.64381 0
M  V30 15845 H 1599.97 0.903211 1.30491 0
M  V30 15846 H 1599.99 -0.180865 3.8007 0
M  V30 15847 H 1599.5 1.62298 3.52535 0
M  V30 15848 H 1597.6 -0.840559 3.62995 0
M  V30 15849 H 1597.71 0.680165 4.74247 0
M  V30 15850 H 1596.08 0.265547 2.53312 0
M  V30 15851 H 1596.86 1.90556 2.85558 0
M  V30 15852 N 1599.3 -1.51086 0.448402 0
M  V30 15853 C 1600.53 -2.07081 -0.115038 0
M  V30 15854 C 1600.95 -1.31253 -1.34737 0
M  V30 15855 O 1600.31 -0.353613 -1.77818 0
M  V30 15856 C 1600.36 -3.58321 -0.404803 0
M  V30 15857 O 1599.46 -3.84567 -1.48936 0
M  V30 15858 H 1598.81 -0.663993 0.00299118 0
M  V30 15859 H 1601.34 -1.94564 0.632921 0
M  V30 15860 H 1601.35 -4.02756 -0.652013 0
M  V30 15861 H 1600.02 -4.12934 0.495838 0
M  V30 15862 H 1598.6 -3.51987 -1.23124 0
M  V30 15863 N 1600.78 -0.180154 -1.56567 0
M  V30 15864 C 1601.73 0.759144 -2.14991 0
M  V30 15865 C 1602.72 1.18672 -1.08654 0
M  V30 15866 O 1603.91 1.14761 -1.34755 0
M  V30 15867 C 1601.04 1.98473 -2.80113 0
M  V30 15868 C 1600.12 1.57874 -3.9362 0
M  V30 15869 N 1600.51 0.882825 -4.98036 0
M  V30 15870 C 1598.81 1.86913 -4.04944 0
M  V30 15871 C 1599.51 0.681573 -5.77693 0
M  V30 15872 N 1598.49 1.22573 -5.29601 0
M  V30 15873 H 1602.29 0.218574 -2.93086 0
M  V30 15874 H 1599.81 0.0202002 -1.62387 0
M  V30 15875 H 1601.8 2.66797 -3.20351 0
M  V30 15876 H 1600.46 2.53017 -2.03501 0
M  V30 15877 H 1601.47 0.539906 -5.15078 0
M  V30 15878 H 1598.15 2.43071 -3.39445 0
M  V30 15879 H 1599.54 0.130602 -6.71773 0
M  V30 15880 N 1602.26 1.57322 0.0935319 0
M  V30 15881 C 1603.67 1.75099 0.64787 0
M  V30 15882 C 1604.02 0.802558 1.79035 0
M  V30 15883 O 1603.15 -0.0185803 2.16392 0
M  V30 15884 C 1603.74 3.17512 1.18203 0
M  V30 15885 C 1602.3 3.36707 1.68242 0
M  V30 15886 C 1601.45 2.70893 0.592649 0
M  V30 15887 H 1604.4 1.58146 -0.132546 0
M  V30 15888 H 1604.42 3.2047 2.05132 0
M  V30 15889 H 1603.93 3.86516 0.350297 0
M  V30 15890 H 1602.03 2.72784 2.5381 0
M  V30 15891 H 1602.15 4.45033 1.77433 0
M  V30 15892 H 1600.51 2.32835 1.03248 0
M  V30 15893 H 1601.29 3.42539 -0.228529 0
M  V30 15894 N 1603.74 -0.364395 1.53329 0
M  V30 15895 C 1605.15 -0.941133 1.61244 0
M  V30 15896 C 1605.5 -1.90223 0.480596 0
M  V30 15897 O 1604.63 -2.12805 -0.392805 0
M  V30 15898 C 1605.22 -1.7137 2.92263 0
M  V30 15899 C 1603.78 -2.23976 3.02509 0
M  V30 15900 C 1602.93 -1.05253 2.56548 0
M  V30 15901 H 1605.88 -0.143153 1.58053 0
M  V30 15902 H 1605.9 -2.575 2.80132 0
M  V30 15903 H 1605.41 -1.01395 3.74621 0
M  V30 15904 H 1603.51 -2.9719 2.24741 0
M  V30 15905 H 1603.62 -2.51777 4.07609 0
M  V30 15906 H 1601.99 -1.41986 2.11452 0
M  V30 15907 H 1602.77 -0.367744 3.41325 0
M  V30 15908 N 1605.22 -1.44709 -0.62426 0
M  V30 15909 C 1606.15 -1.54934 -1.74693 0
M  V30 15910 C 1607.13 -0.401897 -1.65284 0
M  V30 15911 O 1608.31 -0.622906 -1.83939 0
M  V30 15912 C 1605.44 -1.49976 -3.13248 0
M  V30 15913 C 1604.4 -2.63267 -3.37453 0
M  V30 15914 C 1603.72 -2.43362 -4.76108 0
M  V30 15915 C 1605.02 -4.0538 -3.2934 0
M  V30 15916 H 1606.72 -2.48905 -1.66393 0
M  V30 15917 H 1604.26 -1.19794 -0.799088 0
M  V30 15918 H 1606.22 -1.55729 -3.91569 0
M  V30 15919 H 1604.94 -0.525254 -3.22349 0
M  V30 15920 H 1603.6 -2.56915 -2.61515 0
M  V30 15921 H 1603.25 -1.44088 -4.81921 0
M  V30 15922 H 1602.95 -3.19324 -4.93261 0
M  V30 15923 H 1604.47 -2.50943 -5.56651 0
M  V30 15924 H 1605.88 -4.13064 -3.97556 0
M  V30 15925 H 1604.28 -4.81599 -3.58025 0
M  V30 15926 H 1605.35 -4.28465 -2.27038 0
M  V30 15927 N 1606.69 0.865285 -1.31722 0
M  V30 15928 C 1607.94 1.6135 -1.21033 0
M  V30 15929 C 1608.26 1.94253 0.229141 0
M  V30 15930 O 1609.46 2.67613 0.457771 0
M  V30 15931 C 1607.92 2.90898 -2.11912 0
M  V30 15932 C 1607.53 2.6546 -3.60881 0
M  V30 15933 C 1609.27 3.68898 -2.10035 0
M  V30 15934 C 1607.18 3.90943 -4.43754 0
M  V30 15935 H 1606.11 0.605418 -0.449428 0
M  V30 15936 H 1608.76 0.956335 -1.56609 0
M  V30 15937 H 1607.14 3.58014 -1.69239 0
M  V30 15938 H 1608.31 2.06721 -4.11829 0
M  V30 15939 H 1606.63 2.00806 -3.64782 0
M  V30 15940 H 1609.23 4.61995 -2.69193 0
M  V30 15941 H 1609.57 4.01813 -1.08865 0
M  V30 15942 H 1610.1 3.08671 -2.50932 0
M  V30 15943 H 1606.84 3.63176 -5.45696 0
M  V30 15944 H 1606.36 4.49116 -3.97561 0
M  V30 15945 H 1608.04 4.58784 -4.56208 0
M  V30 15946 N 1608.17 1.14759 1.0802 0
M  V30 15947 C 1609.4 0.941887 1.84218 0
M  V30 15948 C 1609.82 -0.509702 1.8179 0
M  V30 15949 O 1609.17 -1.35331 1.22441 0
M  V30 15950 C 1609.22 1.43978 3.31591 0
M  V30 15951 O 1608.94 2.83449 3.34048 0
M  V30 15952 C 1610.45 1.27459 4.24581 0
M  V30 15953 H 1607.67 0.334942 0.581425 0
M  V30 15954 H 1610.21 1.52367 1.36399 0
M  V30 15955 H 1608.36 0.900674 3.76785 0
M  V30 15956 H 1608.78 3.05878 4.26073 0
M  V30 15957 H 1610.25 1.67151 5.26084 0
M  V30 15958 H 1610.73 0.217925 4.38659 0
M  V30 15959 H 1611.34 1.80243 3.85217 0
M  V30 15960 N 1609.65 -1.26251 0.943322 0
M  V30 15961 C 1610.89 -1.95409 0.599542 0
M  V30 15962 C 1611.25 -1.72356 -0.846017 0
M  V30 15963 O 1612.46 -2.35337 -1.29884 0
M  V30 15964 C 1610.73 -3.44953 0.935013 0
M  V30 15965 S 1612.29 -4.33147 0.702101 0
M  V30 15966 H 1609.1 -0.675863 0.22075 0
M  V30 15967 H 1611.71 -1.53153 1.21509 0
M  V30 15968 H 1610.41 -3.59232 1.98445 0
M  V30 15969 H 1609.94 -3.92182 0.309268 0
M  V30 15970 H 1611.96 -4.9431 -0.432655 0
M  V30 15971 N 1611.13 -0.710588 -1.40671 0
M  V30 15972 C 1612.36 -0.257442 -2.05292 0
M  V30 15973 C 1612.77 1.09891 -1.53523 0
M  V30 15974 O 1612.13 1.68966 -0.689703 0
M  V30 15975 C 1612.18 -0.223091 -3.60811 0
M  V30 15976 O 1611.9 -1.52588 -4.10668 0
M  V30 15977 C 1613.4 0.249217 -4.42599 0
M  V30 15978 H 1610.62 -0.116663 -0.66078 0
M  V30 15979 H 1613.17 -0.967391 -1.80172 0
M  V30 15980 H 1611.32 0.437787 -3.84918 0
M  V30 15981 H 1611.74 -1.42301 -5.04827 0
M  V30 15982 H 1613.21 0.22211 -5.51553 0
M  V30 15983 H 1613.69 1.29057 -4.19811 0
M  V30 15984 H 1614.29 -0.381202 -4.23588 0
M  V30 15985 N 1612.61 1.50847 -0.456408 0
M  V30 15986 C 1613.86 2.01835 0.103414 0
M  V30 15987 C 1614.18 1.34142 1.4153 0
M  V30 15988 O 1613.45 0.482015 1.89877 0
M  V30 15989 H 1612.03 0.745863 0.0412074 0
M  V30 15990 H 1614.69 1.85322 -0.603477 0
M  V30 15991 H 1613.78 3.10968 0.265562 0
M  V30 15992 N 1614.09 0.188454 1.56469 0
M  V30 15993 C 1615.31 -0.460975 2.02212 0
M  V30 15994 C 1615.74 -1.54856 1.06777 0
M  V30 15995 O 1615.09 -1.81231 0.0501425 0
M  V30 15996 C 1615.14 -1.00047 3.46443 0
M  V30 15997 O 1614.25 -2.1137 3.54114 0
M  V30 15998 H 1613.59 -0.108497 0.655076 0
M  V30 15999 H 1616.12 0.297381 2.02427 0
M  V30 16000 H 1616.13 -1.31876 3.86099 0
M  V30 16001 H 1614.8 -0.204273 4.15398 0
M  V30 16002 H 1613.38 -1.80456 3.26328 0
M  V30 16003 N 1615.56 -1.5737 -0.0851874 0
M  V30 16004 C 1616.84 -1.77624 -0.819094 0
M  V30 16005 C 1617.22 -0.772645 -1.96452 0
M  V30 16006 O 1616.57 0.196912 -2.2765 0
M  V30 16007 C 1616.78 -3.23704 -1.30449 0
M  V30 16008 C 1618.13 -3.87163 -1.74328 0
M  V30 16009 O 1619.15 -3.27513 -1.40048 0
M  V30 16010 O 1618.01 -4.92075 -2.37748 0
M  V30 16011 H 1615.1 -0.728487 -0.391453 0
M  V30 16012 H 1617.65 -1.6957 -0.0663006 0
M  V30 16013 H 1616.42 -3.88292 -0.484277 0
M  V30 16014 H 1616.04 -3.36429 -2.119 0
M  V30 16015 N 1617.04 0.356258 -1.53521 0
M  V30 16016 C 1618.29 1.09953 -1.70406 0
M  V30 16017 C 1618.62 1.8869 -0.459304 0
M  V30 16018 O 1617.9 1.86751 0.54354 0
M  V30 16019 C 1618.18 2.05114 -2.95973 0
M  V30 16020 C 1618.03 1.29924 -4.30627 0
M  V30 16021 C 1619.35 3.0511 -3.17168 0
M  V30 16022 H 1616.47 0.398343 -0.620074 0
M  V30 16023 H 1619.11 0.379376 -1.86174 0
M  V30 16024 H 1617.26 2.66524 -2.82661 0
M  V30 16025 H 1618.93 0.71226 -4.55768 0
M  V30 16026 H 1617.18 0.601141 -4.29615 0
M  V30 16027 H 1617.85 1.99624 -5.1464 0
M  V30 16028 H 1620.32 2.53809 -3.29728 0
M  V30 16029 H 1619.2 3.68908 -4.06445 0
M  V30 16030 H 1619.46 3.75794 -2.32876 0
M  V30 16031 N 1618.52 1.45038 0.616577 0
M  V30 16032 C 1619.8 1.39059 1.37557 0
M  V30 16033 C 1620.18 0.0566307 2.11024 0
M  V30 16034 O 1619.52 -0.961203 2.073 0
M  V30 16035 C 1619.73 2.59841 2.32989 0
M  V30 16036 C 1621.08 3.04539 2.95874 0
M  V30 16037 O 1622.11 2.6015 2.43312 0
M  V30 16038 O 1620.97 3.81547 3.9126 0
M  V30 16039 H 1618.06 0.551396 0.616353 0
M  V30 16040 H 1620.61 1.57152 0.640416 0
M  V30 16041 H 1619.38 3.48521 1.779 0
M  V30 16042 H 1619 2.44036 3.13899 0
M  V30 16043 N 1620 -0.858287 1.32179 0
M  V30 16044 C 1621.24 -1.6146 1.22713 0
M  V30 16045 C 1621.58 -1.93045 -0.211479 0
M  V30 16046 O 1620.85 -1.57034 -1.14764 0
M  V30 16047 C 1621.13 -2.93728 2.08317 0
M  V30 16048 C 1620.99 -2.68947 3.60538 0
M  V30 16049 C 1622.31 -3.94959 1.94153 0
M  V30 16050 H 1619.43 -0.585872 0.447128 0
M  V30 16051 H 1622.07 -0.99134 1.62088 0
M  V30 16052 H 1620.22 -3.4692 1.74867 0
M  V30 16053 H 1621.89 -2.22336 4.04183 0
M  V30 16054 H 1620.13 -2.02974 3.83385 0
M  V30 16055 H 1620.8 -3.63112 4.15756 0
M  V30 16056 H 1623.28 -3.51013 2.23449 0
M  V30 16057 H 1622.16 -4.85371 2.56332 0
M  V30 16058 H 1622.42 -4.32672 0.908132 0
M  V30 16059 N 1621.48 -1.1533 -1.07409 0
M  V30 16060 C 1622.41 -0.807289 -2.14512 0
M  V30 16061 C 1623.42 0.18043 -1.61797 0
M  V30 16062 O 1624.61 -0.042733 -1.78449 0
M  V30 16063 C 1621.71 -0.179338 -3.38425 0
M  V30 16064 C 1620.88 -1.20433 -4.20493 0
M  V30 16065 C 1619.94 -0.598268 -5.22788 0
M  V30 16066 O 1618.97 -1.26405 -5.54987 0
M  V30 16067 N 1620.17 0.620283 -5.77177 0
M  V30 16068 H 1622.93 -1.729 -2.44797 0
M  V30 16069 H 1620.5 -1.0491 -1.23311 0
M  V30 16070 H 1622.49 0.238867 -4.03994 0
M  V30 16071 H 1621.06 0.645706 -3.05858 0
M  V30 16072 H 1620.28 -1.79912 -3.5075 0
M  V30 16073 H 1621.57 -1.89642 -4.72137 0
M  V30 16074 H 1620.96 1.17958 -5.53265 0
M  V30 16075 H 1619.52 0.980853 -6.44378 0
M  V30 16076 N 1622.95 1.25748 -0.950004 0
M  V30 16077 C 1623.88 2.28419 -0.484467 0
M  V30 16078 C 1624.86 1.63569 0.466813 0
M  V30 16079 O 1626.05 1.90705 0.366766 0
M  V30 16080 C 1623.18 3.46449 0.242916 0
M  V30 16081 C 1622.13 4.23447 -0.622657 0
M  V30 16082 C 1621.46 5.34182 0.235199 0
M  V30 16083 C 1622.76 4.86576 -1.89845 0
M  V30 16084 H 1624.45 2.6761 -1.34257 0
M  V30 16085 H 1622 1.28646 -0.647014 0
M  V30 16086 H 1623.95 4.17394 0.579693 0
M  V30 16087 H 1622.68 3.06235 1.13523 0
M  V30 16088 H 1621.34 3.54279 -0.942453 0
M  V30 16089 H 1620.98 4.90209 1.12713 0
M  V30 16090 H 1620.68 5.86612 -0.340609 0
M  V30 16091 H 1622.21 6.07961 0.567048 0
M  V30 16092 H 1623.62 5.49688 -1.62837 0
M  V30 16093 H 1622.02 5.49162 -2.41954 0
M  V30 16094 H 1623.09 4.09021 -2.60441 0
M  V30 16095 N 1624.43 0.718038 1.40292 0
M  V30 16096 C 1625.36 0.0276294 2.29183 0
M  V30 16097 C 1626.38 -0.721208 1.45954 0
M  V30 16098 O 1627.57 -0.568181 1.69216 0
M  V30 16099 C 1624.67 -0.985139 3.24266 0
M  V30 16100 C 1623.84 -0.301327 4.36361 0
M  V30 16101 C 1622.9 -1.21982 5.11866 0
M  V30 16102 O 1621.92 -0.70369 5.64833 0
M  V30 16103 N 1623.13 -2.55079 5.21455 0
M  V30 16104 H 1625.89 0.790884 2.89076 0
M  V30 16105 H 1623.45 0.565867 1.51689 0
M  V30 16106 H 1625.44 -1.60183 3.7165 0
M  V30 16107 H 1624.01 -1.64973 2.65523 0
M  V30 16108 H 1623.23 0.495594 3.91072 0
M  V30 16109 H 1624.52 0.173238 5.08505 0
M  V30 16110 H 1623.92 -2.99506 4.79909 0
M  V30 16111 H 1622.48 -3.11886 5.72338 0
M  V30 16112 N 1625.91 -1.50602 0.464402 0
M  V30 16113 C 1627.16 -2.02587 -0.0930295 0
M  V30 16114 C 1627.49 -1.34618 -1.3997 0
M  V30 16115 O 1626.76 -0.469711 -1.88743 0
M  V30 16116 C 1627.05 -3.5898 -0.283783 0
M  V30 16117 C 1626.9 -4.3753 1.04344 0
M  V30 16118 C 1628.22 -4.27602 -1.04138 0
M  V30 16119 H 1625.34 -0.73629 -0.0323356 0
M  V30 16120 H 1627.98 -1.79986 0.608687 0
M  V30 16121 H 1626.13 -3.78368 -0.881488 0
M  V30 16122 H 1627.8 -4.29729 1.67721 0
M  V30 16123 H 1626.05 -4.01536 1.64168 0
M  V30 16124 H 1626.72 -5.45201 0.863691 0
M  V30 16125 H 1629.19 -4.12649 -0.534822 0
M  V30 16126 H 1628.07 -5.36854 -1.14364 0
M  V30 16127 H 1628.33 -3.9031 -2.0763 0
M  V30 16128 N 1627.39 -0.19675 -1.56367 0
M  V30 16129 C 1628.35 0.709734 -2.17934 0
M  V30 16130 C 1629.35 1.13979 -1.13426 0
M  V30 16131 O 1630.54 1.05261 -1.38801 0
M  V30 16132 C 1627.67 1.96917 -2.78274 0
M  V30 16133 H 1628.87 0.173342 -2.99399 0
M  V30 16134 H 1626.42 0.0528698 -1.56211 0
M  V30 16135 H 1627.15 2.54804 -2.00613 0
M  V30 16136 H 1626.94 1.66951 -3.54781 0
M  V30 16137 H 1628.43 2.61554 -3.25545 0
M  V30 16138 N 1628.87 1.57413 0.0768405 0
M  V30 16139 C 1630.11 1.87279 0.778099 0
M  V30 16140 C 1630.45 0.788359 1.77478 0
M  V30 16141 O 1629.72 -0.201876 1.9345 0
M  V30 16142 C 1630 3.27801 1.49059 0
M  V30 16143 C 1629.86 4.46892 0.510661 0
M  V30 16144 C 1631.18 3.66485 2.43674 0
M  V30 16145 H 1628.29 0.681159 0.281409 0
M  V30 16146 H 1630.94 1.89955 0.0413711 0
M  V30 16147 H 1629.09 3.2565 2.11859 0
M  V30 16148 H 1630.76 4.61165 -0.111734 0
M  V30 16149 H 1629 4.33449 -0.174445 0
M  V30 16150 H 1629.67 5.41985 1.04671 0
M  V30 16151 H 1632.15 3.69696 1.90955 0
M  V30 16152 H 1631.02 4.65706 2.90533 0
M  V30 16153 H 1631.29 2.96145 3.28254 0
M  V30 16154 N 1630.34 -0.348112 1.53707 0
M  V30 16155 C 1631.76 -0.923978 1.62233 0
M  V30 16156 C 1632.11 -1.89702 0.500744 0
M  V30 16157 O 1631.23 -2.1321 -0.370212 0
M  V30 16158 C 1631.83 -1.68261 2.94064 0
M  V30 16159 C 1630.39 -2.20755 3.04867 0
M  V30 16160 C 1629.53 -1.02526 2.5765 0
M  V30 16161 H 1632.48 -0.126381 1.58196 0
M  V30 16162 H 1632.5 -2.54514 2.82848 0
M  V30 16163 H 1632.02 -0.974155 3.75675 0
M  V30 16164 H 1630.12 -2.9479 2.27881 0
M  V30 16165 H 1630.23 -2.47439 4.10257 0
M  V30 16166 H 1628.59 -1.39735 2.12947 0
M  V30 16167 H 1629.38 -0.331521 3.41696 0
M  V30 16168 N 1631.82 -1.45363 -0.608876 0
M  V30 16169 C 1632.75 -1.49944 -1.73348 0
M  V30 16170 C 1633.77 -0.390352 -1.58051 0
M  V30 16171 O 1634.96 -0.657338 -1.65956 0
M  V30 16172 C 1632.06 -1.33886 -3.11332 0
M  V30 16173 C 1631.23 -2.58445 -3.52881 0
M  V30 16174 C 1630.29 -2.36963 -4.69825 0
M  V30 16175 O 1629.31 -3.10569 -4.77007 0
M  V30 16176 N 1630.52 -1.41442 -5.63005 0
M  V30 16177 H 1633.28 -2.46902 -1.69882 0
M  V30 16178 H 1630.84 -1.41086 -0.794119 0
M  V30 16179 H 1632.83 -1.17327 -3.8732 0
M  V30 16180 H 1631.4 -0.452095 -3.09314 0
M  V30 16181 H 1630.62 -2.90129 -2.66869 0
M  V30 16182 H 1631.91 -3.41245 -3.77398 0
M  V30 16183 H 1631.31 -0.806941 -5.59915 0
M  V30 16184 H 1629.87 -1.30855 -6.3853 0
M  V30 16185 N 1633.3 0.851265 -1.32632 0
M  V30 16186 C 1634.71 1.4217 -1.21015 0
M  V30 16187 C 1635.06 1.95409 0.175972 0
M  V30 16188 O 1634.19 1.87816 1.07489 0
M  V30 16189 C 1634.78 2.58431 -2.19086 0
M  V30 16190 C 1633.34 3.11464 -2.11346 0
M  V30 16191 C 1632.49 1.84221 -2.07263 0
M  V30 16192 H 1635.44 0.65812 -1.44411 0
M  V30 16193 H 1635.46 3.35694 -1.79137 0
M  V30 16194 H 1634.97 2.19652 -3.1996 0
M  V30 16195 H 1633.07 3.54818 -1.13732 0
M  V30 16196 H 1633.19 3.72478 -3.01325 0
M  V30 16197 H 1631.55 2.0396 -1.52553 0
M  V30 16198 H 1632.33 1.47654 -3.09924 0
M  V30 16199 N 1634.78 1.15898 1.06796 0
M  V30 16200 C 1636.03 0.935488 1.79145 0
M  V30 16201 C 1636.35 -0.538433 1.87419 0
M  V30 16202 O 1635.62 -1.39124 1.37917 0
M  V30 16203 H 1634.2 0.343123 0.663533 0
M  V30 16204 H 1636.86 1.4607 1.29034 0
M  V30 16205 H 1635.96 1.34978 2.81402 0
M  V30 16206 N 1636.26 -1.25243 0.956659 0
M  V30 16207 C 1637.67 -1.4525 0.661409 0
M  V30 16208 C 1637.87 -1.85774 -0.780404 0
M  V30 16209 O 1636.93 -1.98899 -1.55549 0
M  V30 16210 C 1638.24 -2.52296 1.63607 0
M  V30 16211 C 1639.79 -2.66134 1.64748 0
M  V30 16212 C 1640.26 -3.76366 2.60983 0
M  V30 16213 N 1641.76 -3.8378 2.5936 0
M  V30 16214 C 1642.49 -4.68569 3.30501 0
M  V30 16215 N 1641.99 -5.5763 4.11122 0
M  V30 16216 N 1643.78 -4.62551 3.19378 0
M  V30 16217 H 1635.93 -0.972321 1.88838 0
M  V30 16218 H 1638.19 -0.488615 0.812379 0
M  V30 16219 H 1637.9 -2.29382 2.66603 0
M  V30 16220 H 1637.77 -3.5025 1.40017 0
M  V30 16221 H 1640.16 -2.88412 0.624692 0
M  V30 16222 H 1640.24 -1.68573 1.92397 0
M  V30 16223 H 1639.89 -3.54839 3.63389 0
M  V30 16224 H 1639.82 -4.73417 2.30617 0
M  V30 16225 H 1642.31 -3.20117 2.00832 0
M  V30 16226 H 1642.62 -6.19258 4.62319 0
M  V30 16227 H 1640.96 -5.57331 4.15219 0
M  V30 16228 H 1644.16 -3.91983 2.55865 0
M  V30 16229 H 1644.33 -5.28407 3.75086 0
M  V30 16230 N 1637.73 -0.725468 -1.3991 0
M  V30 16231 C 1638.96 -0.278797 -2.0471 0
M  V30 16232 C 1639.37 1.08796 -1.54791 0
M  V30 16233 O 1638.72 1.69685 -0.703763 0
M  V30 16234 C 1638.78 -0.191732 -3.58988 0
M  V30 16235 C 1638.44 -1.49539 -4.31842 0
M  V30 16236 C 1639.44 -2.43925 -4.59126 0
M  V30 16237 C 1637.12 -1.75705 -4.70567 0
M  V30 16238 C 1639.12 -3.62717 -5.24133 0
M  V30 16239 C 1636.8 -2.94776 -5.35304 0
M  V30 16240 C 1637.8 -3.88104 -5.62018 0
M  V30 16241 O 1637.49 -5.05085 -6.25415 0
M  V30 16242 H 1637.22 -0.121262 -0.665035 0
M  V30 16243 H 1639.78 -0.987188 -1.80122 0
M  V30 16244 H 1638.01 0.572683 -3.82436 0
M  V30 16245 H 1639.7 0.22168 -4.05294 0
M  V30 16246 H 1640.46 -2.24977 -4.29663 0
M  V30 16247 H 1636.34 -1.03912 -4.49136 0
M  V30 16248 H 1639.88 -4.35579 -5.44901 0
M  V30 16249 H 1635.78 -3.13629 -5.64187 0
M  V30 16250 H 1636.55 -5.05294 -6.4391 0
M  V30 16251 N 1639.21 1.50354 -0.472382 0
M  V30 16252 C 1640.18 2.27096 0.30981 0
M  V30 16253 C 1641.18 1.3193 0.919306 0
M  V30 16254 O 1642.37 1.55344 0.788284 0
M  V30 16255 C 1639.5 3.08924 1.44149 0
M  V30 16256 H 1640.69 2.97692 -0.363228 0
M  V30 16257 H 1638.24 1.5465 -0.226483 0
M  V30 16258 H 1638.98 2.42828 2.14954 0
M  V30 16259 H 1638.76 3.78862 1.01023 0
M  V30 16260 H 1640.25 3.66961 1.99323 0
M  V30 16261 N 1640.69 0.205039 1.56261 0
M  V30 16262 C 1641.62 -0.706815 2.22545 0
M  V30 16263 C 1642.6 -1.21372 1.19176 0
M  V30 16264 O 1643.79 -1.26074 1.47712 0
M  V30 16265 C 1640.92 -1.92221 2.89255 0
M  V30 16266 C 1639.87 -1.54982 3.98954 0
M  V30 16267 C 1639.2 -2.84265 4.52877 0
M  V30 16268 C 1640.5 -0.75225 5.16854 0
M  V30 16269 H 1642.19 -0.15421 2.99003 0
M  V30 16270 H 1639.74 -0.0727309 1.43816 0
M  V30 16271 H 1641.69 -2.56542 3.34311 0
M  V30 16272 H 1640.41 -2.49952 2.10218 0
M  V30 16273 H 1639.07 -0.930155 3.54604 0
M  V30 16274 H 1638.72 -3.40105 3.70591 0
M  V30 16275 H 1638.42 -2.60089 5.26904 0
M  V30 16276 H 1639.95 -3.49557 5.00642 0
M  V30 16277 H 1641.36 -1.29878 5.58395 0
M  V30 16278 H 1639.76 -0.60823 5.9701 0
M  V30 16279 H 1640.83 0.24463 4.84283 0
M  V30 16280 N 1642.17 -1.57451 -0.0684915 0
M  V30 16281 C 1643.42 -1.87689 -0.768156 0
M  V30 16282 C 1643.75 -0.79776 -1.77058 0
M  V30 16283 O 1643.02 0.191614 -1.93554 0
M  V30 16284 C 1643.31 -3.28587 -1.47319 0
M  V30 16285 C 1643.16 -4.47156 -0.486954 0
M  V30 16286 C 1644.48 -3.67772 -2.41727 0
M  V30 16287 H 1641.6 -0.682642 -0.277793 0
M  V30 16288 H 1644.24 -1.89974 -0.0312968 0
M  V30 16289 H 1642.39 -3.26769 -2.10129 0
M  V30 16290 H 1644.06 -4.61099 0.136189 0
M  V30 16291 H 1642.3 -4.33351 0.197429 0
M  V30 16292 H 1642.98 -5.42533 -1.01795 0
M  V30 16293 H 1645.45 -3.70704 -1.88992 0
M  V30 16294 H 1644.33 -4.6724 -2.88059 0
M  V30 16295 H 1644.59 -2.97882 -3.26679 0
M  V30 16296 N 1643.65 0.339955 -1.5389 0
M  V30 16297 C 1644.89 1.08139 -1.71563 0
M  V30 16298 C 1645.23 1.88193 -0.479292 0
M  V30 16299 O 1644.5 1.87317 0.523702 0
M  V30 16300 C 1644.78 2.01963 -2.98132 0
M  V30 16301 C 1644.64 1.25349 -4.31981 0
M  V30 16302 C 1645.96 3.01729 -3.20387 0
M  V30 16303 H 1643.08 0.391744 -0.624264 0
M  V30 16304 H 1645.72 0.359609 -1.86566 0
M  V30 16305 H 1643.87 2.63511 -2.85472 0
M  V30 16306 H 1645.54 0.66388 -4.56498 0
M  V30 16307 H 1643.78 0.555541 -4.30228 0
M  V30 16308 H 1644.45 1.94154 -5.16728 0
M  V30 16309 H 1646.93 2.50297 -3.32401 0
M  V30 16310 H 1645.81 3.64577 -4.10335 0
M  V30 16311 H 1646.07 3.73303 -2.36849 0
M  V30 16312 N 1645.13 1.45684 0.601159 0
M  V30 16313 C 1646.04 1.57396 1.73965 0
M  V30 16314 C 1647.05 0.458133 1.6786 0
M  V30 16315 O 1648.23 0.719717 1.88101 0
M  V30 16316 C 1645.29 1.54363 3.1044 0
M  V30 16317 C 1644.35 2.77034 3.27949 0
M  V30 16318 C 1643.59 2.74136 4.57914 0
M  V30 16319 O 1643.81 1.81829 5.40643 0
M  V30 16320 O 1642.74 3.65428 4.78274 0
M  V30 16321 H 1646.57 2.5364 1.67034 0
M  V30 16322 H 1644.15 1.28267 0.766017 0
M  V30 16323 H 1646.04 1.55302 3.91739 0
M  V30 16324 H 1644.71 0.612723 3.17848 0
M  V30 16325 H 1643.62 2.81655 2.46214 0
M  V30 16326 H 1644.95 3.69272 3.25422 0
M  V30 16327 N 1646.6 -0.84422 1.33082 0
M  V30 16328 C 1647.83 -1.62896 1.27076 0
M  V30 16329 C 1648.24 -1.88509 -0.161583 0
M  V30 16330 O 1647.58 -1.46184 -1.11247 0
M  V30 16331 C 1647.65 -3.00611 1.97163 0
M  V30 16332 C 1647.31 -2.97993 3.46481 0
M  V30 16333 C 1648.31 -2.74092 4.4178 0
M  V30 16334 C 1645.99 -3.18299 3.88576 0
M  V30 16335 C 1647.99 -2.70515 5.77148 0
M  V30 16336 C 1645.67 -3.14348 5.2405 0
M  V30 16337 C 1646.67 -2.90486 6.18148 0
M  V30 16338 O 1646.36 -2.86429 7.51142 0
M  V30 16339 H 1646.09 -0.513756 0.439353 0
M  V30 16340 H 1648.65 -1.06009 1.7593 0
M  V30 16341 H 1646.88 -3.5933 1.42893 0
M  V30 16342 H 1648.56 -3.61428 1.84728 0
M  V30 16343 H 1649.33 -2.58161 4.10582 0
M  V30 16344 H 1645.21 -3.35893 3.15748 0
M  V30 16345 H 1648.75 -2.5181 6.50567 0
M  V30 16346 H 1644.65 -3.29826 5.54874 0
M  V30 16347 H 1645.42 -3.02309 7.60626 0
M  V30 16348 N 1648.08 -1.16463 -1.0618 0
M  V30 16349 C 1649.04 -0.874674 -2.11854 0
M  V30 16350 C 1650.04 0.130829 -1.60267 0
M  V30 16351 O 1651.23 -0.100195 -1.73912 0
M  V30 16352 C 1648.37 -0.30826 -3.39503 0
M  V30 16353 H 1649.56 -1.81149 -2.39009 0
M  V30 16354 H 1647.11 -0.973721 -1.22264 0
M  V30 16355 H 1647.85 0.636181 -3.17999 0
M  V30 16356 H 1647.63 -1.03281 -3.78253 0
M  V30 16357 H 1649.12 -0.123378 -4.17418 0
M  V30 16358 N 1649.56 1.24734 -0.963288 0
M  V30 16359 C 1650.51 2.27557 -0.481704 0
M  V30 16360 C 1651.5 1.63245 0.452488 0
M  V30 16361 O 1652.71 1.76981 0.328263 0
M  V30 16362 H 1649.08 0.73936 -0.137297 0
M  V30 16363 H 1651.05 2.65555 -1.361 0
M  V30 16364 C 1649.8 3.47023 0.216806 0
M  V30 16365 H 1649.13 3.9675 -0.492916 0
M  V30 16366 H 1650.57 4.20828 0.517659 0
M  V30 16367 C 1649.02 3.04466 1.44229 0
M  V30 16368 O 1649.55 3.11238 2.53956 0
M  V30 16369 N 1647.76 2.59563 1.30674 0
M  V30 16370 H 1647.31 2.54252 0.41395 0
M  V30 16371 H 1647.27 2.31453 2.12783 0
M  V30 16372 N 1651.04 0.732878 1.39523 0
M  V30 16373 C 1651.95 0.0930216 2.34416 0
M  V30 16374 C 1652.96 -0.724309 1.58208 0
M  V30 16375 O 1654.14 -0.653267 1.90511 0
M  V30 16376 C 1651.2 -0.805036 3.37224 0
M  V30 16377 C 1650.27 0.0243049 4.29293 0
M  V30 16378 C 1649.5 -0.830984 5.27191 0
M  V30 16379 O 1649.72 -2.06977 5.31523 0
M  V30 16380 O 1648.66 -0.260772 6.01335 0
M  V30 16381 H 1652.48 0.876179 2.90786 0
M  V30 16382 H 1650.07 0.493525 1.41013 0
M  V30 16383 H 1651.95 -1.31894 4.00228 0
M  V30 16384 H 1650.62 -1.56704 2.83241 0
M  V30 16385 H 1649.53 0.583677 3.69519 0
M  V30 16386 H 1650.86 0.748485 4.86476 0
M  V30 16387 N 1652.52 -1.50101 0.480349 0
M  V30 16388 C 1653.79 -1.95144 -0.133456 0
M  V30 16389 C 1654.17 -1.4211 -1.56102 0
M  V30 16390 O 1653.52 -0.626012 -2.19757 0
M  V30 16391 C 1653.73 -3.48935 -0.0672904 0
M  V30 16392 C 1655.08 -4.23854 -0.251564 0
M  V30 16393 O 1656.1 -3.55911 -0.143446 0
M  V30 16394 O 1654.96 -5.44467 -0.470947 0
M  V30 16395 H 1652.06 -0.820098 -0.106619 0
M  V30 16396 H 1654.6 -1.60832 0.541413 0
M  V30 16397 H 1653.37 -3.80111 0.929058 0
M  V30 16398 H 1653 -3.8981 -0.783214 0
M  V30 16399 N 1653.99 -0.213323 -1.5615 0
M  V30 16400 C 1654.96 0.686579 -2.18675 0
M  V30 16401 C 1655.96 1.1277 -1.14628 0
M  V30 16402 O 1657.15 1.03783 -1.39909 0
M  V30 16403 C 1654.28 1.93954 -2.80347 0
M  V30 16404 H 1655.47 0.141578 -2.99566 0
M  V30 16405 H 1653.02 0.0362987 -1.56258 0
M  V30 16406 H 1653.76 2.52661 -2.03304 0
M  V30 16407 H 1653.54 1.63179 -3.56532 0
M  V30 16408 H 1655.03 2.58087 -3.283 0
M  V30 16409 N 1655.47 1.57485 0.0601405 0
M  V30 16410 C 1656.89 1.54105 0.415187 0
M  V30 16411 C 1657.09 0.935177 1.78484 0
M  V30 16412 O 1656.14 0.542715 2.46599 0
M  V30 16413 C 1657.46 2.98708 0.34555 0
M  V30 16414 C 1659.01 3.10103 0.424895 0
M  V30 16415 C 1659.48 4.56379 0.385041 0
M  V30 16416 N 1660.97 4.6106 0.444771 0
M  V30 16417 C 1661.71 5.71737 0.436334 0
M  V30 16418 N 1661.2 6.91746 0.38202 0
M  V30 16419 N 1663 5.60014 0.483759 0
M  V30 16420 H 1655.15 1.95232 -0.836565 0
M  V30 16421 H 1657.41 0.894101 -0.3151 0
M  V30 16422 H 1657.12 3.4664 -0.594427 0
M  V30 16423 H 1656.99 3.59201 1.15129 0
M  V30 16424 H 1659.38 2.62137 1.3553 0
M  V30 16425 H 1659.46 2.52499 -0.409633 0
M  V30 16426 H 1659.1 5.05004 -0.541561 0
M  V30 16427 H 1659.03 5.11859 1.23726 0
M  V30 16428 H 1661.52 3.74703 0.490522 0
M  V30 16429 H 1661.84 7.71866 0.379829 0
M  V30 16430 H 1660.18 6.94126 0.348532 0
M  V30 16431 H 1663.37 4.65158 0.523965 0
M  V30 16432 H 1663.54 6.46266 0.473715 0
M  V30 16433 N 1656.95 -0.331789 1.54068 0
M  V30 16434 C 1657.88 -1.42889 1.79208 0
M  V30 16435 C 1658.9 -1.48204 0.673754 0
M  V30 16436 O 1660.08 -1.51075 0.950712 0
M  V30 16437 C 1657.18 -2.81477 1.88743 0
M  V30 16438 C 1656.36 -2.99463 3.18812 0
M  V30 16439 C 1655.42 -4.18363 3.19154 0
M  V30 16440 O 1654.44 -4.11916 3.92828 0
M  V30 16441 N 1655.64 -5.27489 2.42354 0
M  V30 16442 H 1658.41 -1.21689 2.73883 0
M  V30 16443 H 1655.97 -0.521735 1.53263 0
M  V30 16444 H 1657.96 -3.59213 1.86409 0
M  V30 16445 H 1656.53 -2.95765 1.01202 0
M  V30 16446 H 1655.75 -2.09097 3.34174 0
M  V30 16447 H 1657.04 -3.0837 4.04704 0
M  V30 16448 H 1656.44 -5.35599 1.82071 0
M  V30 16449 H 1655 -6.03674 2.45806 0
M  V30 16450 N 1658.43 -1.46001 -0.593424 0
M  V30 16451 C 1659.34 -1.58316 -1.73128 0
M  V30 16452 C 1660.35 -0.467029 -1.67615 0
M  V30 16453 O 1661.53 -0.729682 -1.87717 0
M  V30 16454 C 1658.6 -1.56007 -3.09617 0
M  V30 16455 C 1657.66 -2.78769 -3.26475 0
M  V30 16456 C 1656.89 -2.76561 -4.56453 0
M  V30 16457 O 1657.11 -1.84694 -5.39671 0
M  V30 16458 O 1656.05 -3.67959 -4.76329 0
M  V30 16459 H 1659.87 -2.54522 -1.65686 0
M  V30 16460 H 1657.46 -1.28672 -0.759204 0
M  V30 16461 H 1659.34 -1.57377 -3.9091 0
M  V30 16462 H 1658.01 -0.629571 -3.17519 0
M  V30 16463 H 1656.92 -2.82956 -2.44717 0
M  V30 16464 H 1658.25 -3.70992 -3.23459 0
M  V30 16465 N 1659.91 0.83715 -1.33527 0
M  V30 16466 C 1661.15 1.59487 -1.25267 0
M  V30 16467 C 1661.49 1.93357 0.180741 0
M  V30 16468 O 1660.76 1.5884 1.12251 0
M  V30 16469 C 1661.04 2.90376 -2.12964 0
M  V30 16470 C 1660.9 2.63177 -3.64771 0
M  V30 16471 C 1662.22 3.9182 -2.00412 0
M  V30 16472 H 1659.33 0.578684 -0.456392 0
M  V30 16473 H 1661.98 0.965428 -1.63644 0
M  V30 16474 H 1660.13 3.44095 -1.80364 0
M  V30 16475 H 1661.8 2.15878 -4.0767 0
M  V30 16476 H 1660.04 1.96849 -3.86566 0
M  V30 16477 H 1660.71 3.56452 -4.21481 0
M  V30 16478 H 1663.19 3.47413 -2.29005 0
M  V30 16479 H 1662.06 4.81232 -2.64021 0
M  V30 16480 H 1662.33 4.31173 -0.976852 0
M  V30 16481 N 1661.38 1.17024 1.05561 0
M  V30 16482 C 1662.63 0.954436 1.78143 0
M  V30 16483 C 1662.95 -0.518525 1.8798 0
M  V30 16484 O 1662.22 -1.37654 1.39385 0
M  V30 16485 H 1660.8 0.350141 0.659856 0
M  V30 16486 H 1663.47 1.4743 1.27477 0
M  V30 16487 H 1662.56 1.37955 2.79955 0
M  V30 16488 N 1662.86 -1.24221 0.969889 0
M  V30 16489 C 1664.11 -1.92638 0.633913 0
M  V30 16490 C 1664.44 -1.75612 -0.829092 0
M  V30 16491 O 1663.72 -1.11057 -1.59677 0
M  V30 16492 C 1664 -3.45583 1.01213 0
M  V30 16493 C 1663.85 -3.71766 2.53199 0
M  V30 16494 C 1665.17 -4.36671 0.548294 0
M  V30 16495 H 1662.29 -0.699608 0.231772 0
M  V30 16496 H 1664.93 -1.46548 1.20929 0
M  V30 16497 H 1663.08 -3.8497 0.522531 0
M  V30 16498 H 1664.75 -3.41925 3.09653 0
M  V30 16499 H 1663 -3.16842 2.963 0
M  V30 16500 H 1663.67 -4.78787 2.74713 0
M  V30 16501 H 1666.14 -4.04672 0.968489 0
M  V30 16502 H 1665.02 -5.42412 0.841472 0
M  V30 16503 H 1665.28 -4.38646 -0.551588 0
M  V30 16504 N 1664.34 -0.740267 -1.39132 0
M  V30 16505 C 1665.3 -0.112183 -2.28925 0
M  V30 16506 C 1666.3 0.661598 -1.46559 0
M  V30 16507 O 1667.49 0.489835 -1.67171 0
M  V30 16508 C 1664.63 0.850121 -3.3013 0
M  V30 16509 H 1665.82 -0.903339 -2.85972 0
M  V30 16510 H 1663.37 -0.506427 -1.47868 0
M  V30 16511 H 1664.11 1.66744 -2.78149 0
M  V30 16512 H 1663.89 0.297847 -3.90967 0
M  V30 16513 H 1665.38 1.28599 -3.97306 0
M  V30 16514 N 1665.82 1.49844 -0.488302 0
M  V30 16515 C 1667.06 2.02709 0.060788 0
M  V30 16516 C 1667.4 1.36828 1.37811 0
M  V30 16517 O 1666.67 0.499679 1.87972 0
M  V30 16518 C 1666.96 3.59386 0.226637 0
M  V30 16519 C 1666.81 4.35814 -1.11292 0
M  V30 16520 C 1668.13 4.29204 0.973218 0
M  V30 16521 H 1665.25 0.736712 0.0206177 0
M  V30 16522 H 1667.89 1.78995 -0.637245 0
M  V30 16523 H 1666.04 3.79722 0.821182 0
M  V30 16524 H 1667.71 4.27007 -1.74536 0
M  V30 16525 H 1665.95 3.98874 -1.70535 0
M  V30 16526 H 1666.62 5.43758 -0.950319 0
M  V30 16527 H 1669.1 4.13447 0.469106 0
M  V30 16528 H 1667.98 5.38605 1.05809 0
M  V30 16529 H 1668.24 3.93564 2.01394 0
M  V30 16530 N 1667.3 0.221601 1.56034 0
M  V30 16531 C 1668.25 -0.701876 2.16928 0
M  V30 16532 C 1669.23 -1.1575 1.11762 0
M  V30 16533 O 1670.42 -1.11148 1.3775 0
M  V30 16534 C 1667.55 -1.90977 2.85277 0
M  V30 16535 C 1666.64 -1.47382 3.97667 0
M  V30 16536 N 1667.03 -0.750469 5.00202 0
M  V30 16537 C 1665.33 -1.7611 4.09757 0
M  V30 16538 C 1666.03 -0.528168 5.79297 0
M  V30 16539 N 1665 -1.08488 5.32664 0
M  V30 16540 H 1668.81 -0.14079 2.93563 0
M  V30 16541 H 1666.32 0.0228611 1.62384 0
M  V30 16542 H 1668.32 -2.5821 3.27312 0
M  V30 16543 H 1666.98 -2.47532 2.10138 0
M  V30 16544 H 1667.99 -0.403152 5.16328 0
M  V30 16545 H 1664.66 -2.33986 3.4577 0
M  V30 16546 H 1666.05 0.0475532 6.71883 0
M  V30 16547 N 1668.77 -1.57515 -0.0517878 0
M  V30 16548 C 1670 -1.92456 -0.759485 0
M  V30 16549 C 1670.42 -0.819396 -1.70092 0
M  V30 16550 O 1669.77 0.205913 -1.81335 0
M  V30 16551 C 1669.83 -3.27242 -1.53606 0
M  V30 16552 O 1669.55 -4.33511 -0.632441 0
M  V30 16553 C 1671.05 -3.76324 -2.34297 0
M  V30 16554 H 1668.27 -0.635688 -0.214807 0
M  V30 16555 H 1670.81 -2.04494 -0.0160862 0
M  V30 16556 H 1668.97 -3.16671 -2.23155 0
M  V30 16557 H 1669.38 -5.11178 -1.17462 0
M  V30 16558 H 1670.85 -4.73209 -2.84213 0
M  V30 16559 H 1671.33 -3.06351 -3.14716 0
M  V30 16560 H 1671.94 -3.89904 -1.69866 0
M  V30 16561 N 1670.25 0.323614 -1.54242 0
M  V30 16562 C 1671.66 0.898051 -1.63682 0
M  V30 16563 C 1672.02 1.88882 -0.530861 0
M  V30 16564 O 1671.14 2.13772 0.336245 0
M  V30 16565 C 1671.74 1.63561 -2.96704 0
M  V30 16566 C 1670.29 2.15877 -3.08341 0
M  V30 16567 C 1669.44 0.984145 -2.59249 0
M  V30 16568 H 1672.39 0.101198 -1.58377 0
M  V30 16569 H 1672.41 2.49982 -2.86861 0
M  V30 16570 H 1671.93 0.914265 -3.77177 0
M  V30 16571 H 1670.03 2.91127 -2.32542 0
M  V30 16572 H 1670.14 2.40881 -4.14141 0
M  V30 16573 H 1668.5 1.3633 -2.15143 0
M  V30 16574 H 1669.29 0.277118 -3.4218 0
M  V30 16575 N 1671.73 1.46313 0.585673 0
M  V30 16576 C 1672.66 1.52683 1.7094 0
M  V30 16577 C 1673.68 0.415447 1.5741 0
M  V30 16578 O 1674.87 0.683657 1.64889 0
M  V30 16579 C 1671.97 1.38822 3.09163 0
M  V30 16580 C 1671.14 2.64027 3.48724 0
M  V30 16581 C 1670.2 2.44407 4.65995 0
M  V30 16582 O 1669.22 3.18118 4.72006 0
M  V30 16583 N 1670.43 1.50381 5.60683 0
M  V30 16584 H 1673.19 2.49573 1.65932 0
M  V30 16585 H 1670.75 1.42332 0.771573 0
M  V30 16586 H 1672.74 1.23474 3.85404 0
M  V30 16587 H 1671.31 0.501247 3.08555 0
M  V30 16588 H 1670.53 2.94338 2.62219 0
M  V30 16589 H 1671.82 3.47206 3.71921 0
M  V30 16590 H 1671.22 0.895917 5.5856 0
M  V30 16591 H 1669.78 1.40997 6.36367 0
M  V30 16592 N 1673.21 -0.830057 1.33969 0
M  V30 16593 C 1674.63 -1.12209 1.13496 0
M  V30 16594 C 1674.83 -2.01384 -0.0682972 0
M  V30 16595 O 1673.88 -2.4123 -0.745949 0
M  V30 16596 C 1675.19 -1.77568 2.42673 0
M  V30 16597 C 1676.74 -1.90095 2.48662 0
M  V30 16598 C 1677.22 -2.5887 3.77823 0
M  V30 16599 N 1678.71 -2.66375 3.78944 0
M  V30 16600 C 1679.44 -3.20301 4.75599 0
M  V30 16601 N 1678.94 -3.74846 5.82634 0
M  V30 16602 N 1680.73 -3.18636 4.63063 0
M  V30 16603 H 1672.88 -0.236752 2.11076 0
M  V30 16604 H 1675.15 -0.167572 0.933072 0
M  V30 16605 H 1674.85 -1.19505 3.30774 0
M  V30 16606 H 1674.73 -2.77505 2.55481 0
M  V30 16607 H 1677.11 -2.47308 1.61005 0
M  V30 16608 H 1677.19 -0.890808 2.39788 0
M  V30 16609 H 1676.84 -2.02313 4.65867 0
M  V30 16610 H 1676.77 -3.60373 3.83978 0
M  V30 16611 H 1679.26 -2.27705 3.01594 0
M  V30 16612 H 1679.57 -4.14224 6.52409 0
M  V30 16613 H 1677.92 -3.7311 5.86357 0
M  V30 16614 H 1681.11 -2.75286 3.78597 0
M  V30 16615 H 1681.28 -3.60359 5.38559 0
M  V30 16616 N 1674.69 -1.17582 -1.04939 0
M  V30 16617 C 1675.65 -0.897095 -2.10914 0
M  V30 16618 C 1676.65 0.113823 -1.60397 0
M  V30 16619 O 1677.84 -0.118635 -1.73796 0
M  V30 16620 C 1674.97 -0.344251 -3.39157 0
M  V30 16621 H 1676.17 -1.83674 -2.37074 0
M  V30 16622 H 1673.72 -0.986634 -1.21224 0
M  V30 16623 H 1674.45 0.602417 -3.18656 0
M  V30 16624 H 1674.24 -1.07287 -3.77137 0
M  V30 16625 H 1675.73 -0.167644 -4.17263 0
M  V30 16626 N 1676.17 1.23705 -0.976463 0
M  V30 16627 C 1677.58 1.73848 -0.680723 0
M  V30 16628 C 1677.93 1.79005 0.803228 0
M  V30 16629 O 1677.05 1.42529 1.62832 0
M  V30 16630 C 1677.65 3.15724 -1.22898 0
M  V30 16631 C 1676.21 3.63338 -0.982963 0
M  V30 16632 C 1675.35 2.41712 -1.35906 0
M  V30 16633 H 1678.3 1.09284 -1.15077 0
M  V30 16634 H 1678.33 3.75748 -0.599487 0
M  V30 16635 H 1677.84 3.11938 -2.30903 0
M  V30 16636 H 1675.94 3.72512 0.0811766 0
M  V30 16637 H 1676.05 4.50347 -1.63477 0
M  V30 16638 H 1674.42 2.42543 -0.777498 0
M  V30 16639 H 1675.2 2.40601 -2.4488 0
M  V30 16640 N 1677.64 0.747635 1.38738 0
M  V30 16641 C 1678.58 0.0762364 2.29073 0
M  V30 16642 C 1679.59 -0.690087 1.4745 0
M  V30 16643 O 1680.78 -0.53216 1.70383 0
M  V30 16644 C 1677.88 -0.916136 3.26282 0
M  V30 16645 C 1677.05 -0.2087 4.36902 0
M  V30 16646 C 1676.11 -1.11097 5.14338 0
M  V30 16647 O 1675.14 -0.583722 5.66199 0
M  V30 16648 N 1676.34 -2.43961 5.26748 0
M  V30 16649 H 1679.1 0.852024 2.87334 0
M  V30 16650 H 1676.66 0.597915 1.50455 0
M  V30 16651 H 1678.66 -1.52263 3.74964 0
M  V30 16652 H 1677.23 -1.59304 2.68963 0
M  V30 16653 H 1676.45 0.578435 3.89933 0
M  V30 16654 H 1677.73 0.281061 5.08023 0
M  V30 16655 H 1677.13 -2.89259 4.86154 0
M  V30 16656 H 1675.69 -2.99676 5.78824 0
M  V30 16657 N 1679.12 -1.49583 0.496242 0
M  V30 16658 C 1680.05 -2.26936 -0.321366 0
M  V30 16659 C 1681.07 -1.33282 -0.934863 0
M  V30 16660 O 1682.26 -1.58602 -0.819008 0
M  V30 16661 C 1679.36 -3.05503 -1.467 0
M  V30 16662 C 1678.53 -4.26697 -0.961687 0
M  V30 16663 C 1677.59 -4.8735 -1.98436 0
M  V30 16664 O 1676.61 -5.47553 -1.55482 0
M  V30 16665 N 1677.82 -4.76577 -3.31443 0
M  V30 16666 H 1680.58 -2.97744 0.341884 0
M  V30 16667 H 1678.14 -1.58532 0.328504 0
M  V30 16668 H 1680.13 -3.42954 -2.1486 0
M  V30 16669 H 1678.7 -2.37334 -2.03449 0
M  V30 16670 H 1677.92 -3.9406 -0.105143 0
M  V30 16671 H 1679.21 -5.05221 -0.602405 0
M  V30 16672 H 1678.61 -4.28756 -3.69032 0
M  V30 16673 H 1677.17 -5.18226 -3.95329 0
M  V30 16674 N 1680.6 -0.229873 -1.55915 0
M  V30 16675 C 1681.85 0.398775 -1.98127 0
M  V30 16676 C 1682.17 1.597 -1.11897 0
M  V30 16677 O 1681.44 1.94898 -0.197868 0
M  V30 16678 H 1680.02 0.150323 -0.731719 0
M  V30 16679 H 1682.68 -0.324704 -1.92176 0
M  V30 16680 H 1681.78 0.719475 -3.03694 0
M  V30 16681 N 1682.08 1.5754 0.0434337 0
M  V30 16682 C 1683.01 2.08648 1.04824 0
M  V30 16683 C 1683.99 0.985894 1.38615 0
M  V30 16684 O 1685.17 1.2603 1.4775 0
M  V30 16685 C 1682.3 2.55399 2.35348 0
M  V30 16686 C 1681.26 3.69592 2.15837 0
M  V30 16687 C 1680.58 4.02497 3.51995 0
M  V30 16688 C 1681.88 4.98575 1.55629 0
M  V30 16689 H 1683.58 2.9285 0.622849 0
M  V30 16690 H 1681.12 1.40879 0.298158 0
M  V30 16691 H 1683.08 2.89771 3.05958 0
M  V30 16692 H 1681.8 1.68262 2.7992 0
M  V30 16693 H 1680.46 3.35546 1.47663 0
M  V30 16694 H 1680.11 3.12448 3.94189 0
M  V30 16695 H 1679.81 4.79406 3.39771 0
M  V30 16696 H 1681.33 4.39391 4.23991 0
M  V30 16697 H 1682.75 5.30996 2.16138 0
M  V30 16698 H 1681.14 5.79998 1.54021 0
M  V30 16699 H 1682.21 4.82098 0.520567 0
M  V30 16700 N 1683.56 -0.31543 1.54411 0
M  V30 16701 C 1684.49 -1.39353 1.87358 0
M  V30 16702 C 1685.47 -1.53586 0.731118 0
M  V30 16703 O 1686.65 -1.67332 0.98558 0
M  V30 16704 C 1683.78 -2.75998 2.10814 0
M  V30 16705 C 1682.74 -2.76545 3.2666 0
M  V30 16706 C 1682.06 -4.16343 3.35504 0
M  V30 16707 C 1683.36 -2.39567 4.64117 0
M  V30 16708 H 1685.06 -1.12028 2.77651 0
M  V30 16709 H 1682.6 -0.537476 1.33593 0
M  V30 16710 H 1684.55 -3.51491 2.32447 0
M  V30 16711 H 1683.28 -3.04817 1.17278 0
M  V30 16712 H 1681.94 -2.03507 3.04927 0
M  V30 16713 H 1681.59 -4.42316 2.39512 0
M  V30 16714 H 1681.29 -4.17613 4.13368 0
M  V30 16715 H 1682.81 -4.93637 3.59381 0
M  V30 16716 H 1684.22 -3.04775 4.85577 0
M  V30 16717 H 1682.62 -2.52075 5.4459 0
M  V30 16718 H 1683.69 -1.34707 4.65813 0
M  V30 16719 N 1685.03 -1.46622 -0.577906 0
M  V30 16720 C 1686.26 -1.56 -1.36671 0
M  V30 16721 C 1686.68 -0.2034 -1.86997 0
M  V30 16722 O 1686.04 0.817288 -1.61834 0
M  V30 16723 C 1686.09 -2.57254 -2.52691 0
M  V30 16724 O 1685.19 -2.1109 -3.54281 0
M  V30 16725 H 1684.54 -0.524779 -0.406821 0
M  V30 16726 H 1687.07 -1.92234 -0.700512 0
M  V30 16727 H 1687.08 -2.77016 -2.99543 0
M  V30 16728 H 1685.75 -3.55766 -2.15415 0
M  V30 16729 H 1684.33 -2.01337 -3.13875 0
M  V30 16730 N 1686.51 0.822941 -1.34408 0
M  V30 16731 C 1687.44 1.94878 -1.28627 0
M  V30 16732 C 1688.42 1.6931 -0.163727 0
M  V30 16733 O 1689.61 1.90908 -0.356083 0
M  V30 16734 C 1686.74 3.31333 -1.04094 0
M  V30 16735 C 1685.69 3.71341 -2.12814 0
M  V30 16736 C 1685.02 5.05779 -1.73469 0
M  V30 16737 C 1686.32 3.83439 -3.54643 0
M  V30 16738 H 1688.01 1.99972 -2.22827 0
M  V30 16739 H 1685.56 0.960715 -1.07267 0
M  V30 16740 H 1687.51 4.0968 -0.986947 0
M  V30 16741 H 1686.24 3.26539 -0.0633642 0
M  V30 16742 H 1684.89 2.95269 -2.17282 0
M  V30 16743 H 1684.54 4.97471 -0.743727 0
M  V30 16744 H 1684.24 5.33518 -2.46236 0
M  V30 16745 H 1685.77 5.86583 -1.69566 0
M  V30 16746 H 1687.18 4.52057 -3.52587 0
M  V30 16747 H 1685.58 4.22632 -4.2603 0
M  V30 16748 H 1686.65 2.85439 -3.91986 0
M  V30 16749 N 1687.99 1.18137 1.04314 0
M  V30 16750 C 1688.94 0.874118 2.10578 0
M  V30 16751 C 1689.92 -0.155094 1.60151 0
M  V30 16752 O 1691.12 0.0485958 1.76933 0
M  V30 16753 C 1688.25 0.3989 3.40975 0
M  V30 16754 C 1687.33 1.46004 3.98175 0
M  V30 16755 N 1687.72 2.67584 4.29223 0
M  V30 16756 C 1686.02 1.31997 4.2602 0
M  V30 16757 C 1686.72 3.35835 4.74963 0
M  V30 16758 N 1685.7 2.63216 4.75624 0
M  V30 16759 H 1689.5 1.79837 2.32456 0
M  V30 16760 H 1687.01 1.0714 1.22044 0
M  V30 16761 H 1689.01 0.160295 4.16592 0
M  V30 16762 H 1687.67 -0.519041 3.20525 0
M  V30 16763 H 1688.68 3.04473 4.18947 0
M  V30 16764 H 1685.36 0.464377 4.14909 0
M  V30 16765 H 1686.75 4.39727 5.08026 0
M  V30 16766 N 1689.47 -1.23186 0.98301 0
M  V30 16767 C 1690.88 -1.73484 0.689933 0
M  V30 16768 C 1691.23 -1.79428 -0.793724 0
M  V30 16769 O 1690.36 -1.43391 -1.62074 0
M  V30 16770 C 1690.95 -3.15068 1.24571 0
M  V30 16771 C 1689.51 -3.62812 1.00222 0
M  V30 16772 C 1688.66 -2.40988 1.37186 0
M  V30 16773 H 1691.61 -1.08672 1.15655 0
M  V30 16774 H 1691.63 -3.75425 0.619406 0
M  V30 16775 H 1691.14 -3.10709 2.32554 0
M  V30 16776 H 1689.24 -3.72549 -0.0614202 0
M  V30 16777 H 1689.35 -4.49473 1.65863 0
M  V30 16778 H 1687.72 -2.42127 0.79035 0
M  V30 16779 H 1688.5 -2.39299 2.46152 0
M  V30 16780 N 1690.95 -0.754982 -1.38339 0
M  V30 16781 C 1692.19 -0.316707 -2.01931 0
M  V30 16782 C 1692.55 1.08162 -1.58635 0
M  V30 16783 O 1693.75 1.61909 -2.14567 0
M  V30 16784 C 1692.02 -0.436974 -3.54719 0
M  V30 16785 S 1693.58 -0.0814864 -4.38724 0
M  V30 16786 H 1690.4 -0.122791 -0.700317 0
M  V30 16787 H 1693 -0.985907 -1.6882 0
M  V30 16788 H 1691.71 -1.45561 -3.83719 0
M  V30 16789 H 1691.24 0.249361 -3.92609 0
M  V30 16790 H 1693.25 1.12846 -4.83198 0
M  V30 16791 N 1692.42 1.49318 -0.504168 0
M  V30 16792 C 1693.35 2.32027 0.261837 0
M  V30 16793 C 1694.34 1.4045 0.959575 0
M  V30 16794 O 1695.52 1.69357 0.950365 0
M  V30 16795 C 1692.65 3.21039 1.3248 0
M  V30 16796 C 1691.6 4.21435 0.746752 0
M  V30 16797 C 1690.93 4.99405 1.91047 0
M  V30 16798 C 1692.23 5.21631 -0.264315 0
M  V30 16799 H 1693.92 2.96317 -0.428544 0
M  V30 16800 H 1691.47 1.42497 -0.207539 0
M  V30 16801 H 1693.42 3.77714 1.86843 0
M  V30 16802 H 1692.15 2.54699 2.04441 0
M  V30 16803 H 1690.81 3.6591 0.22485 0
M  V30 16804 H 1690.45 4.29509 2.61784 0
M  V30 16805 H 1690.15 5.67338 1.52975 0
M  V30 16806 H 1691.68 5.58924 2.45837 0
M  V30 16807 H 1693.09 5.72981 0.191288 0
M  V30 16808 H 1691.49 5.97472 -0.561039 0
M  V30 16809 H 1692.56 4.70346 -1.17911 0
M  V30 16810 N 1693.9 0.238138 1.5579 0
M  V30 16811 C 1695.13 -0.392852 2.02831 0
M  V30 16812 C 1695.54 -1.52714 1.11692 0
M  V30 16813 O 1694.88 -1.83294 0.122034 0
M  V30 16814 C 1694.95 -0.970383 3.46156 0
M  V30 16815 C 1694.61 0.0305457 4.5699 0
M  V30 16816 C 1695.61 0.836938 5.13119 0
M  V30 16817 C 1693.29 0.154102 5.02064 0
M  V30 16818 C 1695.29 1.75343 6.12808 0
M  V30 16819 C 1692.97 1.07411 6.01586 0
M  V30 16820 C 1693.97 1.8723 6.56836 0
M  V30 16821 O 1693.66 2.77681 7.54419 0
M  V30 16822 H 1693.39 -0.0985571 0.668777 0
M  V30 16823 H 1695.94 0.356979 2.02274 0
M  V30 16824 H 1694.17 -1.76961 3.43834 0
M  V30 16825 H 1695.86 -1.51053 3.76747 0
M  V30 16826 H 1696.63 0.752021 4.79134 0
M  V30 16827 H 1692.51 -0.457094 4.58728 0
M  V30 16828 H 1696.05 2.37687 6.55859 0
M  V30 16829 H 1691.95 1.15998 6.34992 0
M  V30 16830 H 1692.72 2.71943 7.72003 0
M  V30 16831 N 1695.38 -1.57561 -0.0350783 0
M  V30 16832 C 1696.61 -1.93644 -0.742753 0
M  V30 16833 C 1697.03 -0.837655 -1.68419 0
M  V30 16834 O 1696.39 0.207069 -1.80114 0
M  V30 16835 C 1696.44 -3.28779 -1.48111 0
M  V30 16836 O 1695.54 -3.20604 -2.59398 0
M  V30 16837 H 1694.88 -0.633103 -0.200192 0
M  V30 16838 H 1697.41 -2.04599 0.00765271 0
M  V30 16839 H 1697.42 -3.63527 -1.85236 0
M  V30 16840 H 1696.1 -4.08316 -0.790608 0
M  V30 16841 H 1694.67 -2.97477 -2.2486 0
M  V30 16842 N 1696.86 0.307236 -1.54576 0
M  V30 16843 C 1698.09 1.06233 -1.77545 0
M  V30 16844 C 1698.5 1.81153 -0.5319 0
M  V30 16845 O 1697.86 1.75573 0.498044 0
M  V30 16846 C 1697.91 2.04775 -2.97908 0
M  V30 16847 O 1697.63 1.32896 -4.17457 0
M  V30 16848 C 1699.13 2.92373 -3.33216 0
M  V30 16849 H 1696.35 0.315318 -0.592297 0
M  V30 16850 H 1698.9 0.348403 -2.0151 0
M  V30 16851 H 1697.05 2.71679 -2.76169 0
M  V30 16852 H 1697.46 1.99022 -4.85274 0
M  V30 16853 H 1698.94 3.5738 -4.20694 0
M  V30 16854 H 1699.42 3.60343 -2.51097 0
M  V30 16855 H 1700.02 2.31009 -3.57093 0
M  V30 16856 N 1698.34 1.46926 0.570122 0
M  V30 16857 C 1699.27 1.61311 1.68822 0
M  V30 16858 C 1700.25 0.462964 1.63678 0
M  V30 16859 O 1701.43 0.690745 1.815 0
M  V30 16860 C 1698.56 1.61499 3.07466 0
M  V30 16861 C 1697.52 2.7561 3.27449 0
M  V30 16862 C 1696.84 2.60865 4.66748 0
M  V30 16863 C 1698.14 4.17324 3.14067 0
M  V30 16864 H 1699.84 2.54909 1.5704 0
M  V30 16865 H 1697.38 1.22677 0.754077 0
M  V30 16866 H 1699.34 1.70155 3.8552 0
M  V30 16867 H 1698.06 0.64453 3.20177 0
M  V30 16868 H 1696.72 2.66444 2.51799 0
M  V30 16869 H 1696.37 1.61875 4.76241 0
M  V30 16870 H 1696.07 3.37411 4.81069 0
M  V30 16871 H 1697.59 2.7143 5.46954 0
M  V30 16872 H 1699 4.27534 3.81952 0
M  V30 16873 H 1697.4 4.94555 3.39905 0
M  V30 16874 H 1698.47 4.36596 2.10979 0
M  V30 16875 N 1699.82 -0.815801 1.34842 0
M  V30 16876 C 1701.06 -1.58588 1.28955 0
M  V30 16877 C 1701.42 -1.91512 -0.136769 0
M  V30 16878 O 1702.62 -2.6689 -0.319903 0
M  V30 16879 C 1700.89 -2.84584 2.1621 0
M  V30 16880 S 1702.45 -3.75069 2.27747 0
M  V30 16881 H 1699.27 -0.543479 0.458422 0
M  V30 16882 H 1701.87 -0.96306 1.70133 0
M  V30 16883 H 1700.57 -2.58405 3.18834 0
M  V30 16884 H 1700.11 -3.51857 1.75954 0
M  V30 16885 H 1702.12 -4.74373 1.45549 0
M  V30 16886 N 1701.29 -1.18689 -1.03686 0
M  V30 16887 C 1702.71 -0.937386 -1.29171 0
M  V30 16888 C 1702.91 0.394863 -1.97593 0
M  V30 16889 O 1701.97 1.12829 -2.25889 0
M  V30 16890 C 1703.28 -2.10568 -2.14666 0
M  V30 16891 C 1704.83 -2.14441 -2.28 0
M  V30 16892 C 1705.3 -3.30699 -3.16863 0
M  V30 16893 N 1706.79 -3.30584 -3.24451 0
M  V30 16894 C 1707.53 -4.17184 -3.93376 0
M  V30 16895 N 1707.02 -5.13924 -4.646 0
M  V30 16896 N 1708.82 -4.05086 -3.89694 0
M  V30 16897 H 1700.97 -2.04417 -0.576836 0
M  V30 16898 H 1703.23 -0.893404 -0.31707 0
M  V30 16899 H 1702.94 -3.06938 -1.71702 0
M  V30 16900 H 1702.81 -2.06955 -3.15356 0
M  V30 16901 H 1705.2 -1.18647 -2.70198 0
M  V30 16902 H 1705.28 -2.22111 -1.26888 0
M  V30 16903 H 1704.92 -4.26768 -2.75375 0
M  V30 16904 H 1704.85 -3.20266 -4.18016 0
M  V30 16905 H 1707.34 -2.60552 -2.73717 0
M  V30 16906 H 1707.66 -5.76368 -5.14801 0
M  V30 16907 H 1706 -5.1788 -4.63492 0
M  V30 16908 H 1709.19 -3.28793 -3.33186 0
M  V30 16909 H 1709.37 -4.72792 -4.43139 0
M  V30 16910 N 1702.77 1.22662 -0.989529 0
M  V30 16911 C 1704.02 1.90944 -0.662187 0
M  V30 16912 C 1704.34 1.77477 0.807899 0
M  V30 16913 O 1703.61 1.15985 1.57874 0
M  V30 16914 H 1702.19 0.706738 -0.241932 0
M  V30 16915 H 1704.85 1.49091 -1.25531 0
M  V30 16916 H 1703.95 2.98177 -0.921777 0
M  V30 16917 N 1704.25 0.762308 1.37937 0
M  V30 16918 C 1705.48 0.333458 2.04195 0
M  V30 16919 C 1705.89 -1.04118 1.57496 0
M  V30 16920 O 1705.25 -1.66289 0.751938 0
M  V30 16921 C 1705.3 0.35685 3.59734 0
M  V30 16922 O 1705.02 1.67725 4.04722 0
M  V30 16923 C 1706.52 -0.0847776 4.43219 0
M  V30 16924 H 1703.74 0.141107 0.655995 0
M  V30 16925 H 1706.29 1.03359 1.76457 0
M  V30 16926 H 1704.44 -0.294625 3.86278 0
M  V30 16927 H 1704.86 1.60939 4.99198 0
M  V30 16928 H 1706.33 -0.017252 5.51997 0
M  V30 16929 H 1706.81 -1.13387 4.24311 0
M  V30 16930 H 1707.41 0.538151 4.21882 0
M  V30 16931 N 1705.73 -1.49049 0.51208 0
M  V30 16932 C 1706.69 -2.27838 -0.249491 0
M  V30 16933 C 1707.69 -1.34321 -0.884004 0
M  V30 16934 O 1708.88 -1.57379 -0.74682 0
M  V30 16935 C 1706.01 -3.12637 -1.35908 0
M  V30 16936 H 1707.21 -2.96625 0.442029 0
M  V30 16937 H 1704.76 -1.53996 0.267406 0
M  V30 16938 H 1705.49 -2.48441 -2.0844 0
M  V30 16939 H 1705.28 -3.81408 -0.909427 0
M  V30 16940 H 1706.77 -3.72117 -1.89523 0
M  V30 16941 N 1707.21 -0.246397 -1.55662 0
M  V30 16942 C 1708.62 0.108465 -1.59231 0
M  V30 16943 C 1708.82 1.56961 -1.26354 0
M  V30 16944 O 1707.88 2.31393 -1.01062 0
M  V30 16945 C 1709.19 -0.240265 -2.99739 0
M  V30 16946 C 1710.74 -0.184523 -3.12456 0
M  V30 16947 C 1711.21 -0.507279 -4.55182 0
M  V30 16948 N 1712.7 -0.457761 -4.60933 0
M  V30 16949 C 1713.44 -0.680664 -5.69346 0
M  V30 16950 N 1712.94 -0.966667 -6.86023 0
M  V30 16951 N 1714.73 -0.611405 -5.58765 0
M  V30 16952 H 1706.88 -1.19928 -1.75303 0
M  V30 16953 H 1709.14 -0.482503 -0.816024 0
M  V30 16954 H 1708.85 -1.25535 -3.28533 0
M  V30 16955 H 1708.72 0.432872 -3.74708 0
M  V30 16956 H 1711.11 0.821232 -2.83443 0
M  V30 16957 H 1711.19 -0.891504 -2.39762 0
M  V30 16958 H 1710.83 -1.51059 -4.84916 0
M  V30 16959 H 1710.76 0.221174 -5.26135 0
M  V30 16960 H 1713.26 -0.245414 -3.77102 0
M  V30 16961 H 1713.57 -1.12419 -7.6458 0
M  V30 16962 H 1711.91 -1.00413 -6.87708 0
M  V30 16963 H 1715.1 -0.388018 -4.66489 0
M  V30 16964 H 1715.28 -0.788519 -6.43185 0
M  V30 16965 N 1708.68 1.57577 0.026722 0
M  V30 16966 C 1709.96 1.80541 0.752606 0
M  V30 16967 C 1710.34 0.845025 1.93449 0
M  V30 16968 O 1709.69 -0.112286 2.28224 0
M  V30 16969 C 1709.9 3.28322 1.18345 0
M  V30 16970 C 1711.25 3.93366 1.59839 0
M  V30 16971 O 1712.27 3.32486 1.27796 0
M  V30 16972 O 1711.13 5.0056 2.19321 0
M  V30 16973 H 1708.22 0.742514 0.364146 0
M  V30 16974 H 1710.77 1.697 0.00332 0
M  V30 16975 H 1709.54 3.89822 0.339832 0
M  V30 16976 H 1709.16 3.44061 1.99267 0
M  V30 16977 N 1710.16 -0.299034 1.54737 0
M  V30 16978 C 1711.39 -1.0529 1.78105 0
M  V30 16979 C 1711.8 -1.80868 0.541499 0
M  V30 16980 O 1711.16 -1.75834 -0.488726 0
M  V30 16981 C 1711.21 -2.03192 2.9899 0
M  V30 16982 O 1710.93 -1.30681 4.18156 0
M  V30 16983 C 1712.43 -2.90602 3.34762 0
M  V30 16984 H 1709.65 -0.312173 0.593961 0
M  V30 16985 H 1712.2 -0.337712 2.01692 0
M  V30 16986 H 1710.35 -2.70211 2.77606 0
M  V30 16987 H 1710.77 -1.96446 4.86322 0
M  V30 16988 H 1712.24 -3.55144 4.22584 0
M  V30 16989 H 1712.72 -3.59006 2.53004 0
M  V30 16990 H 1713.32 -2.29112 3.58313 0
M  V30 16991 N 1711.64 -1.47227 -0.562322 0
M  V30 16992 C 1712.57 -1.55383 -1.6849 0
M  V30 16993 C 1713.58 -0.440437 -1.56729 0
M  V30 16994 O 1714.77 -0.709803 -1.63781 0
M  V30 16995 C 1711.87 -1.43723 -3.06915 0
M  V30 16996 C 1711.05 -2.69541 -3.4448 0
M  V30 16997 C 1710.11 -2.5179 -4.62048 0
M  V30 16998 O 1709.13 -3.25587 -4.66885 0
M  V30 16999 N 1710.33 -1.59282 -5.5822 0
M  V30 17000 H 1713.1 -2.52181 -1.61941 0
M  V30 17001 H 1710.66 -1.43541 -0.748832 0
M  V30 17002 H 1712.65 -1.2959 -3.83391 0
M  V30 17003 H 1711.22 -0.550272 -3.07719 0
M  V30 17004 H 1710.44 -2.98472 -2.57504 0
M  V30 17005 H 1711.73 -3.53079 -3.66351 0
M  V30 17006 H 1711.13 -0.984666 -5.57064 0
M  V30 17007 H 1709.68 -1.51103 -6.34043 0
M  V30 17008 N 1713.12 0.808639 -1.35273 0
M  V30 17009 C 1714.39 1.55238 -1.18998 0
M  V30 17010 C 1714.77 2.09824 0.231723 0
M  V30 17011 O 1714.12 1.92252 1.23497 0
M  V30 17012 C 1714.33 2.66252 -2.25634 0
M  V30 17013 C 1715.68 3.34646 -2.61338 0
M  V30 17014 O 1716.7 2.76521 -2.24532 0
M  V30 17015 O 1715.56 4.39644 -3.24615 0
M  V30 17016 H 1712.66 0.6858 -0.462176 0
M  V30 17017 H 1715.2 0.848777 -1.46949 0
M  V30 17018 H 1713.98 2.23774 -3.21 0
M  V30 17019 H 1713.6 3.4425 -1.98941 0
M  V30 17020 N 1714.6 1.19237 1.03055 0
M  V30 17021 C 1715.55 0.896404 2.09639 0
M  V30 17022 C 1716.53 -0.138099 1.60306 0
M  V30 17023 O 1717.72 0.0673592 1.76872 0
M  V30 17024 C 1714.85 0.435042 3.40532 0
M  V30 17025 C 1713.94 1.50219 3.96604 0
M  V30 17026 N 1714.33 2.72121 4.26361 0
M  V30 17027 C 1712.63 1.36509 4.24596 0
M  V30 17028 C 1713.33 3.40853 4.71374 0
M  V30 17029 N 1712.3 2.68246 4.72806 0
M  V30 17030 H 1716.11 1.82292 2.30536 0
M  V30 17031 H 1713.62 1.08428 1.20901 0
M  V30 17032 H 1715.62 0.204471 4.16398 0
M  V30 17033 H 1714.28 -0.485016 3.21057 0
M  V30 17034 H 1715.29 3.08899 4.15694 0
M  V30 17035 H 1711.96 0.508358 4.14394 0
M  V30 17036 H 1713.35 4.4509 5.03333 0
M  V30 17037 N 1716.07 -1.22136 0.99602 0
M  V30 17038 C 1717 -2.26463 0.568909 0
M  V30 17039 C 1717.99 -1.65189 -0.405783 0
M  V30 17040 O 1719.17 -1.91935 -0.295735 0
M  V30 17041 C 1716.3 -3.47112 -0.114166 0
M  V30 17042 C 1715.25 -4.20844 0.779387 0
M  V30 17043 C 1714.58 -5.34687 -0.0367787 0
M  V30 17044 C 1715.88 -4.79195 2.07773 0
M  V30 17045 H 1717.57 -2.62443 1.44097 0
M  V30 17046 H 1715.12 -1.26156 0.694314 0
M  V30 17047 H 1717.07 -4.19258 -0.424381 0
M  V30 17048 H 1715.8 -3.10238 -1.02079 0
M  V30 17049 H 1714.46 -3.50537 1.07329 0
M  V30 17050 H 1714.1 -4.94054 -0.94442 0
M  V30 17051 H 1713.8 -5.84944 0.558092 0
M  V30 17052 H 1715.33 -6.09647 -0.341016 0
M  V30 17053 H 1716.74 -5.43266 1.83126 0
M  V30 17054 H 1715.14 -5.39803 2.62169 0
M  V30 17055 H 1716.21 -3.99073 2.75442 0
M  V30 17056 N 1717.55 -0.769612 -1.37531 0
M  V30 17057 C 1718.52 -0.160716 -2.28636 0
M  V30 17058 C 1719.52 0.630362 -1.47929 0
M  V30 17059 O 1720.71 0.454265 -1.68173 0
M  V30 17060 C 1717.84 0.779904 -3.31859 0
M  V30 17061 H 1719.03 -0.963794 -2.83991 0
M  V30 17062 H 1716.58 -0.537678 -1.46761 0
M  V30 17063 H 1717.32 1.60807 -2.81623 0
M  V30 17064 H 1717.1 0.21485 -3.91511 0
M  V30 17065 H 1718.59 1.20143 -3.99944 0
M  V30 17066 N 1719.03 1.48775 -0.519977 0
M  V30 17067 C 1720.28 2.02792 0.0177768 0
M  V30 17068 C 1720.61 1.3972 1.34878 0
M  V30 17069 O 1719.88 0.539438 1.8687 0
M  V30 17070 C 1720.17 3.59786 0.150355 0
M  V30 17071 C 1720.02 4.33356 -1.20511 0
M  V30 17072 C 1721.34 4.31172 0.881959 0
M  V30 17073 H 1718.46 0.736983 0.00498634 0
M  V30 17074 H 1721.1 1.77603 -0.675069 0
M  V30 17075 H 1719.25 3.81378 0.740452 0
M  V30 17076 H 1720.92 4.23209 -1.83554 0
M  V30 17077 H 1719.17 3.95167 -1.78957 0
M  V30 17078 H 1719.84 5.4162 -1.06544 0
M  V30 17079 H 1722.31 4.14349 0.381302 0
M  V30 17080 H 1721.19 5.40729 0.943601 0
M  V30 17081 H 1721.45 3.97747 1.93001 0
M  V30 17082 N 1720.51 0.254649 1.55529 0
M  V30 17083 C 1721.76 -0.367932 1.99129 0
M  V30 17084 C 1722.08 -1.5738 1.14288 0
M  V30 17085 O 1721.34 -1.94721 0.195543 0
M  V30 17086 C 1721.64 -0.813781 3.48012 0
M  V30 17087 C 1721.3 0.285187 4.49997 0
M  V30 17088 C 1719.97 0.586996 4.77606 0
M  V30 17089 C 1722.32 1.02673 5.10987 0
M  V30 17090 C 1719.65 1.63429 5.63478 0
M  V30 17091 C 1722 2.0636 5.97995 0
M  V30 17092 C 1720.66 2.37197 6.23934 0
M  V30 17093 H 1719.93 -0.134636 0.728666 0
M  V30 17094 H 1722.58 0.364091 1.88007 0
M  V30 17095 H 1720.88 -1.62514 3.56506 0
M  V30 17096 H 1722.58 -1.3059 3.7914 0
M  V30 17097 H 1719.17 0.0398187 4.28582 0
M  V30 17098 H 1723.35 0.806814 4.89698 0
M  V30 17099 H 1718.61 1.87846 5.81828 0
M  V30 17100 H 1722.78 2.64306 6.44294 0
M  V30 17101 H 1720.41 3.18487 6.90268 0
M  V30 17102 N 1721.99 -1.57589 -0.0183649 0
M  V30 17103 C 1722.94 -2.03724 -1.02373 0
M  V30 17104 C 1723.92 -0.928514 -1.31406 0
M  V30 17105 O 1725.11 -1.19237 -1.30811 0
M  V30 17106 C 1722.24 -2.52901 -2.32155 0
M  V30 17107 C 1721.33 -3.70616 -2.06167 0
M  V30 17108 N 1721.72 -4.82961 -1.50273 0
M  V30 17109 C 1720.02 -3.78195 -2.364 0
M  V30 17110 C 1720.72 -5.64518 -1.40335 0
M  V30 17111 N 1719.69 -5.09959 -1.88263 0
M  V30 17112 H 1723.5 -2.88003 -0.58577 0
M  V30 17113 H 1721.01 -1.60841 -0.224452 0
M  V30 17114 H 1723.01 -2.84219 -3.05 0
M  V30 17115 H 1721.67 -1.70033 -2.76621 0
M  V30 17116 H 1722.68 -5.04185 -1.18399 0
M  V30 17117 H 1719.35 -3.06147 -2.83866 0
M  V30 17118 H 1720.74 -6.64785 -0.975187 0
M  V30 17119 N 1723.46 0.290824 -1.54893 0
M  V30 17120 C 1724.39 1.36354 -1.89551 0
M  V30 17121 C 1725.38 1.52403 -0.75546 0
M  V30 17122 O 1726.56 1.65743 -1.01208 0
M  V30 17123 C 1723.69 2.72609 -2.15178 0
M  V30 17124 C 1722.64 2.71313 -3.31019 0
M  V30 17125 C 1721.97 4.10952 -3.42085 0
M  V30 17126 C 1723.27 2.32153 -4.6787 0
M  V30 17127 H 1724.96 1.07597 -2.79398 0
M  V30 17128 H 1722.51 0.516154 -1.34432 0
M  V30 17129 H 1724.46 3.47749 -2.3801 0
M  V30 17130 H 1723.19 3.02913 -1.22112 0
M  V30 17131 H 1721.85 1.9863 -3.08126 0
M  V30 17132 H 1721.49 4.38449 -2.46518 0
M  V30 17133 H 1721.19 4.10984 -4.1996 0
M  V30 17134 H 1722.72 4.87857 -3.67189 0
M  V30 17135 H 1724.13 2.97011 -4.90364 0
M  V30 17136 H 1722.53 2.4338 -5.48531 0
M  V30 17137 H 1723.6 1.27279 -4.67897 0
M  V30 17138 N 1724.94 1.47523 0.554506 0
M  V30 17139 C 1726.22 1.44768 1.31535 0
M  V30 17140 C 1726.6 0.146082 2.10594 0
M  V30 17141 O 1725.95 -0.872415 2.1119 0
M  V30 17142 C 1726.16 2.69489 2.21758 0
M  V30 17143 C 1727.51 3.16814 2.82691 0
M  V30 17144 O 1728.53 2.70235 2.32059 0
M  V30 17145 O 1727.39 3.97798 3.74725 0
M  V30 17146 H 1724.48 0.577042 0.592412 0
M  V30 17147 H 1727.03 1.59727 0.573186 0
M  V30 17148 H 1725.8 3.55753 1.62958 0
M  V30 17149 H 1725.42 2.5713 3.03266 0
M  V30 17150 N 1726.42 -0.801453 1.357 0
M  V30 17151 C 1727.65 -1.59518 1.32547 0
M  V30 17152 C 1728.07 -1.87868 -0.0934243 0
M  V30 17153 O 1727.43 -1.46955 -1.06179 0
M  V30 17154 C 1727.48 -2.90028 2.14281 0
M  V30 17155 O 1726.58 -3.83086 1.52704 0
M  V30 17156 H 1725.92 -0.48434 0.454215 0
M  V30 17157 H 1728.45 -0.994315 1.78814 0
M  V30 17158 H 1728.46 -3.39406 2.26423 0
M  V30 17159 H 1727.14 -2.6872 3.17431 0
M  V30 17160 H 1725.71 -3.4165 1.49432 0
M  V30 17161 N 1727.9 -1.19782 -1.02421 0
M  V30 17162 C 1728.81 -0.955253 -2.14271 0
M  V30 17163 C 1729.82 0.0863233 -1.73786 0
M  V30 17164 O 1731 -0.0993878 -2.01155 0
M  V30 17165 C 1728.07 -0.502219 -3.43043 0
M  V30 17166 C 1727.13 -1.61374 -3.97815 0
M  V30 17167 C 1726.36 -1.18223 -5.20441 0
M  V30 17168 O 1726.58 -0.0477334 -5.7038 0
M  V30 17169 O 1725.52 -1.98664 -5.68169 0
M  V30 17170 H 1729.34 -1.89157 -2.37599 0
M  V30 17171 H 1726.93 -0.981035 -1.12677 0
M  V30 17172 H 1728.81 -0.258445 -4.20607 0
M  V30 17173 H 1727.48 0.4056 -3.21149 0
M  V30 17174 H 1726.39 -1.91172 -3.21565 0
M  V30 17175 H 1727.72 -2.49829 -4.24083 0
M  V30 17176 N 1729.38 1.21606 -1.00248 0
M  V30 17177 C 1730.34 2.22107 -0.565772 0
M  V30 17178 C 1731.34 1.56798 0.356521 0
M  V30 17179 O 1732.53 1.73577 0.147154 0
M  V30 17180 C 1729.66 3.40447 0.175742 0
M  V30 17181 H 1730.86 2.62258 -1.45468 0
M  V30 17182 H 1728.41 1.34823 -0.790721 0
M  V30 17183 H 1729.14 3.05781 1.0802 0
M  V30 17184 H 1728.93 3.89069 -0.486612 0
M  V30 17185 H 1730.42 4.14957 0.469122 0
M  V30 17186 N 1730.86 0.776895 1.37121 0
M  V30 17187 C 1732.08 0.353911 2.04358 0
M  V30 17188 C 1732.51 -1.01745 1.58207 0
M  V30 17189 O 1731.86 -1.653 0.744691 0
M  V30 17190 C 1731.91 0.411918 3.5824 0
M  V30 17191 O 1731.02 -0.58576 4.08219 0
M  V30 17192 H 1730.36 0.152335 0.64629 0
M  V30 17193 H 1732.89 1.05452 1.75331 0
M  V30 17194 H 1732.9 0.271043 4.07099 0
M  V30 17195 H 1731.57 1.41236 3.91185 0
M  V30 17196 H 1730.15 -0.40758 3.70666 0
M  V30 17197 N 1732.33 -1.48497 0.527859 0
M  V30 17198 C 1733.58 -2.02799 -0.00702196 0
M  V30 17199 C 1733.91 -1.40433 -1.34135 0
M  V30 17200 O 1733.19 -0.54934 -1.86581 0
M  V30 17201 C 1733.47 -3.59861 -0.131272 0
M  V30 17202 C 1733.32 -4.32711 1.22807 0
M  V30 17203 C 1734.64 -4.31634 -0.85908 0
M  V30 17204 H 1731.76 -0.736999 -0.00107787 0
M  V30 17205 H 1734.4 -1.77242 0.684478 0
M  V30 17206 H 1732.55 -3.81766 -0.720216 0
M  V30 17207 H 1734.23 -4.22229 1.85796 0
M  V30 17208 H 1732.47 -3.94212 1.8105 0
M  V30 17209 H 1733.14 -5.41047 1.09415 0
M  V30 17210 H 1735.62 -4.14546 -0.359322 0
M  V30 17211 H 1734.49 -5.41221 -0.914911 0
M  V30 17212 H 1734.75 -3.98765 -1.90889 0
M  V30 17213 N 1733.81 -0.262893 -1.55392 0
M  V30 17214 C 1735.23 0.09157 -1.59337 0
M  V30 17215 C 1735.43 1.55612 -1.28012 0
M  V30 17216 O 1734.48 2.30308 -1.0351 0
M  V30 17217 C 1735.8 -0.272043 -2.99467 0
M  V30 17218 C 1737.34 -0.217653 -3.12242 0
M  V30 17219 C 1737.82 -0.555528 -4.54618 0
M  V30 17220 N 1739.31 -0.506623 -4.60421 0
M  V30 17221 C 1740.05 -0.741013 -5.68592 0
M  V30 17222 N 1739.54 -1.03937 -6.84959 0
M  V30 17223 N 1741.33 -0.670636 -5.58085 0
M  V30 17224 H 1733.49 -1.2178 -1.74021 0
M  V30 17225 H 1735.75 -0.491131 -0.81086 0
M  V30 17226 H 1735.45 -1.29012 -3.27183 0
M  V30 17227 H 1735.33 0.393105 -3.75146 0
M  V30 17228 H 1737.72 0.791123 -2.84298 0
M  V30 17229 H 1737.8 -0.916884 -2.38803 0
M  V30 17230 H 1737.44 -1.56193 -4.83287 0
M  V30 17231 H 1737.37 0.165358 -5.2634 0
M  V30 17232 H 1739.86 -0.285397 -3.76821 0
M  V30 17233 H 1740.17 -1.20522 -7.63344 0
M  V30 17234 H 1738.52 -1.07702 -6.86604 0
M  V30 17235 H 1741.71 -0.437473 -4.66051 0
M  V30 17236 H 1741.88 -0.856692 -6.42312 0
M  V30 17237 N 1735.29 1.57597 0.0100073 0
M  V30 17238 C 1736.22 2.10825 1.00375 0
M  V30 17239 C 1737.2 1.01507 1.36493 0
M  V30 17240 O 1738.39 1.29136 1.45043 0
M  V30 17241 C 1735.52 2.60334 2.29878 0
M  V30 17242 C 1734.47 3.74087 2.07949 0
M  V30 17243 C 1733.8 4.09873 3.43378 0
M  V30 17244 C 1735.1 5.01764 1.45018 0
M  V30 17245 H 1736.79 2.94105 0.560591 0
M  V30 17246 H 1734.34 1.4148 0.268208 0
M  V30 17247 H 1736.29 2.96196 2.99743 0
M  V30 17248 H 1735.01 1.74162 2.76288 0
M  V30 17249 H 1733.67 3.38603 1.40512 0
M  V30 17250 H 1733.32 3.20739 3.87473 0
M  V30 17251 H 1733.02 4.86505 3.29525 0
M  V30 17252 H 1734.54 4.48285 4.14575 0
M  V30 17253 H 1735.96 5.35462 2.04826 0
M  V30 17254 H 1734.35 5.83135 1.41683 0
M  V30 17255 H 1735.42 4.83093 0.41819 0
M  V30 17256 N 1736.77 -0.282606 1.55045 0
M  V30 17257 C 1738 -1.03395 1.79212 0
M  V30 17258 C 1738.41 -1.80283 0.560652 0
M  V30 17259 O 1737.77 -1.76343 -0.470049 0
M  V30 17260 C 1737.82 -2.0001 3.01128 0
M  V30 17261 O 1737.54 -1.26238 4.19518 0
M  V30 17262 C 1739.04 -2.87035 3.37825 0
M  V30 17263 H 1736.26 -0.305855 0.597238 0
M  V30 17264 H 1738.8 -0.3163 2.02039 0
M  V30 17265 H 1736.96 -2.67251 2.80456 0
M  V30 17266 H 1737.37 -1.91277 4.88378 0
M  V30 17267 H 1738.85 -3.50642 4.26327 0
M  V30 17268 H 1739.32 -3.56303 2.56798 0
M  V30 17269 H 1739.93 -2.25298 3.60723 0
M  V30 17270 N 1738.25 -1.47815 -0.546675 0
M  V30 17271 C 1739.21 -1.6063 -1.63495 0
M  V30 17272 C 1740.21 -0.480661 -1.53448 0
M  V30 17273 O 1741.4 -0.746017 -1.57417 0
M  V30 17274 C 1738.53 -1.56076 -3.03073 0
M  V30 17275 H 1739.72 -2.57652 -1.53478 0
M  V30 17276 H 1737.28 -1.36162 -0.767433 0
M  V30 17277 H 1738.01 -0.604694 -3.18613 0
M  V30 17278 H 1737.8 -2.3778 -3.11774 0
M  V30 17279 H 1739.29 -1.68204 -3.82227 0
M  V30 17280 N 1739.72 0.794246 -1.36123 0
M  V30 17281 C 1740.63 1.93807 -1.32197 0
M  V30 17282 C 1741.65 1.7254 -0.2249 0
M  V30 17283 O 1742.83 1.9616 -0.456431 0
M  V30 17284 C 1739.89 3.28593 -1.10578 0
M  V30 17285 C 1738.95 3.6267 -2.29715 0
M  V30 17286 C 1738.18 4.91025 -2.09118 0
M  V30 17287 O 1738.41 5.6039 -1.06389 0
M  V30 17288 O 1737.34 5.23647 -2.96779 0
M  V30 17289 H 1741.17 2.00068 -2.28487 0
M  V30 17290 H 1738.75 0.933808 -1.16621 0
M  V30 17291 H 1740.63 4.0926 -1.0042 0
M  V30 17292 H 1739.31 3.23235 -0.17347 0
M  V30 17293 H 1738.22 2.82329 -2.4544 0
M  V30 17294 H 1739.55 3.72747 -3.21435 0
M  V30 17295 N 1741.2 1.20323 1.01785 0
M  V30 17296 C 1742.13 0.908716 2.10416 0
M  V30 17297 C 1743.15 -0.103029 1.62474 0
M  V30 17298 O 1744.34 0.127825 1.78042 0
M  V30 17299 C 1741.44 0.340601 3.37184 0
M  V30 17300 C 1740.61 1.40358 4.14268 0
M  V30 17301 C 1739.67 0.847016 5.19338 0
M  V30 17302 O 1738.69 1.5274 5.48324 0
M  V30 17303 N 1739.9 -0.344198 5.79479 0
M  V30 17304 H 1742.66 1.84383 2.36269 0
M  V30 17305 H 1740.22 1.10673 1.18165 0
M  V30 17306 H 1742.21 -0.0458443 4.04674 0
M  V30 17307 H 1740.78 -0.499042 3.08591 0
M  V30 17308 H 1740 1.96442 3.41766 0
M  V30 17309 H 1741.29 2.11952 4.62551 0
M  V30 17310 H 1740.69 -0.914263 5.58263 0
M  V30 17311 H 1739.25 -0.672296 6.48324 0
M  V30 17312 N 1742.68 -1.21073 1.00892 0
M  V30 17313 C 1743.64 -2.21804 0.577543 0
M  V30 17314 C 1744.64 -1.56985 -0.348201 0
M  V30 17315 O 1745.83 -1.73653 -0.137947 0
M  V30 17316 C 1742.96 -3.40535 -0.157685 0
M  V30 17317 H 1744.16 -2.61483 1.46856 0
M  V30 17318 H 1741.71 -1.34402 0.79786 0
M  V30 17319 H 1742.45 -3.0635 -1.06397 0
M  V30 17320 H 1742.23 -3.88805 0.507238 0
M  V30 17321 H 1743.72 -4.152 -0.447109 0
M  V30 17322 N 1744.16 -0.784156 -1.36707 0
M  V30 17323 C 1745.57 -0.465219 -1.52669 0
M  V30 17324 C 1745.77 1.01729 -1.73935 0
M  V30 17325 O 1744.83 1.80289 -1.76783 0
M  V30 17326 C 1746.14 -1.29109 -2.71572 0
M  V30 17327 C 1747.69 -1.28424 -2.8544 0
M  V30 17328 C 1748.17 -2.09373 -4.07341 0
M  V30 17329 N 1749.66 -2.06792 -4.14477 0
M  V30 17330 C 1750.39 -2.66199 -5.07864 0
M  V30 17331 N 1749.89 -3.34445 -6.06728 0
M  V30 17332 N 1751.68 -2.55962 -5.0044 0
M  V30 17333 H 1743.83 -1.74456 -1.21156 0
M  V30 17334 H 1746.1 -0.741286 -0.59093 0
M  V30 17335 H 1745.8 -2.34219 -2.62363 0
M  V30 17336 H 1745.68 -0.928764 -3.65587 0
M  V30 17337 H 1748.06 -0.241077 -2.94114 0
M  V30 17338 H 1748.14 -1.68629 -1.92348 0
M  V30 17339 H 1747.79 -3.13718 -3.99429 0
M  V30 17340 H 1747.72 -1.66542 -4.99571 0
M  V30 17341 H 1750.21 -1.57118 -3.43689 0
M  V30 17342 H 1750.52 -3.77118 -6.74538 0
M  V30 17343 H 1748.87 -3.38546 -6.06969 0
M  V30 17344 H 1752.06 -2.02251 -4.22152 0
M  V30 17345 H 1752.23 -3.02553 -5.73032 0
M  V30 17346 N 1745.64 1.48215 -0.535727 0
M  V30 17347 C 1746.88 2.025 -0.00372753 0
M  V30 17348 C 1747.21 1.41227 1.33735 0
M  V30 17349 O 1746.47 0.549544 1.87826 0
M  V30 17350 C 1746.77 3.57036 0.161344 0
M  V30 17351 C 1746.43 4.37122 -1.10611 0
M  V30 17352 C 1745.09 4.58724 -1.45346 0
M  V30 17353 C 1747.45 4.83469 -1.94698 0
M  V30 17354 C 1744.77 5.2392 -2.64055 0
M  V30 17355 C 1747.13 5.49973 -3.1259 0
M  V30 17356 C 1745.79 5.69812 -3.47664 0
M  V30 17357 H 1745.06 0.740999 -0.001364 0
M  V30 17358 H 1747.71 1.78133 -0.70291 0
M  V30 17359 H 1746.01 3.80274 0.943337 0
M  V30 17360 H 1747.71 3.96666 0.587981 0
M  V30 17361 H 1744.3 4.20573 -0.825608 0
M  V30 17362 H 1748.48 4.66577 -1.69173 0
M  V30 17363 H 1743.74 5.37477 -2.91424 0
M  V30 17364 H 1747.91 5.84852 -3.78049 0
M  V30 17365 H 1745.54 6.20103 -4.39746 0
M  V30 17366 N 1747.11 0.27113 1.5525 0
M  V30 17367 C 1748.36 -0.346791 1.99508 0
M  V30 17368 C 1748.69 -1.56159 1.15951 0
M  V30 17369 O 1747.94 -1.94502 0.216185 0
M  V30 17370 C 1748.24 -0.776823 3.48856 0
M  V30 17371 C 1747.91 0.332899 4.49669 0
M  V30 17372 C 1746.57 0.63762 4.76957 0
M  V30 17373 C 1748.92 1.08087 5.09869 0
M  V30 17374 C 1746.25 1.69396 5.61713 0
M  V30 17375 C 1748.6 2.12691 5.95773 0
M  V30 17376 C 1747.27 2.43802 6.21383 0
M  V30 17377 H 1746.54 -0.1269 0.730053 0
M  V30 17378 H 1749.18 0.384012 1.8761 0
M  V30 17379 H 1747.49 -1.58723 3.5821 0
M  V30 17380 H 1749.19 -1.26561 3.80504 0
M  V30 17381 H 1745.78 0.0852733 4.28515 0
M  V30 17382 H 1749.96 0.858708 4.88815 0
M  V30 17383 H 1745.22 1.94007 5.79803 0
M  V30 17384 H 1749.39 2.71125 6.41455 0
M  V30 17385 H 1747.02 3.2579 6.86851 0
M  V30 17386 N 1748.59 -1.576 -0.00164943 0
M  V30 17387 C 1749.52 -2.11354 -0.992554 0
M  V30 17388 C 1750.5 -1.0223 -1.35952 0
M  V30 17389 O 1751.69 -1.29904 -1.44356 0
M  V30 17390 C 1748.82 -2.61549 -2.28494 0
M  V30 17391 C 1747.77 -3.75185 -2.05962 0
M  V30 17392 C 1747.1 -4.11688 -3.412 0
M  V30 17393 C 1748.4 -5.02526 -1.42355 0
M  V30 17394 H 1750.09 -2.94398 -0.544986 0
M  V30 17395 H 1747.64 -1.4162 -0.260702 0
M  V30 17396 H 1749.59 -2.97782 -2.98168 0
M  V30 17397 H 1748.32 -1.75625 -2.75361 0
M  V30 17398 H 1746.97 -3.39343 -1.38714 0
M  V30 17399 H 1746.62 -3.22789 -3.85767 0
M  V30 17400 H 1746.32 -4.88246 -3.2694 0
M  V30 17401 H 1747.85 -4.50478 -4.12192 0
M  V30 17402 H 1749.26 -5.3654 -2.01984 0
M  V30 17403 H 1747.66 -5.83878 -1.38589 0
M  V30 17404 H 1748.73 -4.83308 -0.392565 0
M  V30 17405 N 1750.07 0.274379 -1.55193 0
M  V30 17406 C 1751.02 1.34139 -1.84366 0
M  V30 17407 C 1752 1.44755 -0.702475 0
M  V30 17408 O 1753.2 1.48459 -0.963785 0
M  V30 17409 C 1750.33 2.7019 -2.11784 0
M  V30 17410 C 1749.41 2.63689 -3.32158 0
M  V30 17411 N 1749.8 2.26808 -4.52097 0
M  V30 17412 C 1748.1 2.94752 -3.34719 0
M  V30 17413 C 1748.8 2.30264 -5.34185 0
M  V30 17414 N 1747.78 2.68683 -4.72557 0
M  V30 17415 H 1751.58 1.0463 -2.74645 0
M  V30 17416 H 1749.09 0.483012 -1.55051 0
M  V30 17417 H 1751.09 3.47158 -2.30839 0
M  V30 17418 H 1749.75 3.00588 -1.22788 0
M  V30 17419 H 1750.76 1.98809 -4.78221 0
M  V30 17420 H 1747.44 3.29871 -2.55912 0
M  V30 17421 H 1748.83 2.04323 -6.4008 0
M  V30 17422 N 1751.55 1.48103 0.538828 0
M  V30 17423 C 1752.8 1.55362 1.29256 0
M  V30 17424 C 1753.12 0.225427 1.93693 0
M  V30 17425 O 1752.39 -0.75228 1.8088 0
M  V30 17426 H 1750.97 0.57233 0.480049 0
M  V30 17427 H 1753.63 1.84514 0.627749 0
M  V30 17428 H 1752.73 2.32998 2.07649 0
M  V30 17429 N 1753.03 -0.787016 1.36542 0
M  V30 17430 C 1754.27 -1.54728 1.311 0
M  V30 17431 C 1754.61 -1.93895 -0.108853 0
M  V30 17432 O 1753.88 -1.62896 -1.06278 0
M  V30 17433 C 1754.16 -2.82272 2.23594 0
M  V30 17434 C 1754.02 -2.49457 3.74287 0
M  V30 17435 C 1755.34 -3.84112 2.14816 0
M  V30 17436 H 1752.45 -0.561347 0.477555 0
M  V30 17437 H 1755.1 -0.904027 1.67115 0
M  V30 17438 H 1753.25 -3.37163 1.93011 0
M  V30 17439 H 1754.92 -2.00599 4.15401 0
M  V30 17440 H 1753.16 -1.82366 3.93605 0
M  V30 17441 H 1753.83 -3.40563 4.3442 0
M  V30 17442 H 1756.31 -3.38674 2.41741 0
M  V30 17443 H 1755.18 -4.71101 2.817 0
M  V30 17444 H 1755.45 -4.2725 1.13621 0
M  V30 17445 N 1754.5 -1.20861 -1.01145 0
M  V30 17446 C 1755.73 -1.04769 -1.78413 0
M  V30 17447 C 1756.15 0.402846 -1.84452 0
M  V30 17448 O 1755.5 1.27962 -1.30123 0
M  V30 17449 C 1755.56 -1.63065 -3.22633 0
M  V30 17450 O 1755.28 -3.02443 -3.16954 0
M  V30 17451 C 1756.78 -1.51996 -4.16428 0
M  V30 17452 H 1754 -0.368271 -0.560908 0
M  V30 17453 H 1756.54 -1.6006 -1.27283 0
M  V30 17454 H 1754.7 -1.11882 -3.70892 0
M  V30 17455 H 1755.11 -3.30199 -4.07515 0
M  V30 17456 H 1756.58 -1.97539 -5.15444 0
M  V30 17457 H 1757.06 -0.473305 -4.36642 0
M  V30 17458 H 1757.67 -2.02396 -3.74054 0
M  V30 17459 N 1755.98 1.20536 -1.01532 0
M  V30 17460 C 1756.91 2.2553 -0.604866 0
M  V30 17461 C 1757.89 1.65814 0.379452 0
M  V30 17462 O 1759.08 1.92381 0.265162 0
M  V30 17463 C 1756.21 3.4725 0.0589292 0
M  V30 17464 C 1755.16 4.19551 -0.846241 0
M  V30 17465 C 1754.49 5.34678 -0.0482901 0
M  V30 17466 C 1755.79 4.75829 -2.1537 0
M  V30 17467 H 1757.48 2.60117 -1.48254 0
M  V30 17468 H 1755.03 1.25035 -0.714297 0
M  V30 17469 H 1756.98 4.1988 0.357627 0
M  V30 17470 H 1755.71 3.11822 0.97131 0
M  V30 17471 H 1754.36 3.48785 -1.12892 0
M  V30 17472 H 1754.01 4.95494 0.8657 0
M  V30 17473 H 1753.71 5.83982 -0.651081 0
M  V30 17474 H 1755.24 6.10112 0.243983 0
M  V30 17475 H 1756.65 5.40284 -1.91745 0
M  V30 17476 H 1755.05 5.35564 -2.70723 0
M  V30 17477 H 1756.12 3.94641 -2.81756 0
M  V30 17478 N 1757.46 0.791395 1.36289 0
M  V30 17479 C 1758.71 0.365242 1.99484 0
M  V30 17480 C 1759.04 -1.06087 1.62663 0
M  V30 17481 O 1758.31 -1.73332 0.882396 0
M  V30 17482 C 1758.6 0.531317 3.56159 0
M  V30 17483 C 1758.45 2.00126 4.02827 0
M  V30 17484 C 1759.77 -0.0524248 4.40069 0
M  V30 17485 H 1756.89 0.134183 0.724682 0
M  V30 17486 H 1759.53 0.998102 1.61672 0
M  V30 17487 H 1757.68 -0.0074293 3.88499 0
M  V30 17488 H 1759.35 2.60122 3.80965 0
M  V30 17489 H 1757.6 2.50316 3.54294 0
M  V30 17490 H 1758.27 2.06842 5.11782 0
M  V30 17491 H 1760.74 0.407489 4.141 0
M  V30 17492 H 1759.62 0.0937898 5.4882 0
M  V30 17493 H 1759.88 -1.14472 4.27023 0
M  V30 17494 N 1758.94 -1.47929 0.54358 0
M  V30 17495 C 1760.35 -1.86395 0.10663 0
M  V30 17496 C 1760.7 -1.45171 -1.31984 0
M  V30 17497 O 1759.83 -0.848558 -1.99069 0
M  V30 17498 C 1760.42 -3.38285 0.186733 0
M  V30 17499 C 1758.98 -3.75894 -0.195098 0
M  V30 17500 C 1758.13 -2.71983 0.540427 0
M  V30 17501 H 1761.08 -1.3964 0.754076 0
M  V30 17502 H 1761.1 -3.75769 -0.598151 0
M  V30 17503 H 1760.61 -3.68258 1.22505 0
M  V30 17504 H 1758.71 -3.51536 -1.23504 0
M  V30 17505 H 1758.83 -4.78853 0.153975 0
M  V30 17506 H 1757.19 -2.54696 -0.0149151 0
M  V30 17507 H 1757.97 -3.04799 1.57963 0
M  V30 17508 N 1760.42 -0.27936 -1.55104 0
M  V30 17509 C 1761.67 0.336866 -1.98867 0
M  V30 17510 C 1761.98 1.56656 -1.17124 0
M  V30 17511 O 1763.19 2.25601 -1.51051 0
M  V30 17512 C 1761.64 0.650699 -3.53969 0
M  V30 17513 C 1761.25 -0.559433 -4.44493 0
M  V30 17514 C 1762.99 1.22931 -4.0631 0
M  V30 17515 C 1760.9 -0.219952 -5.90991 0
M  V30 17516 H 1759.83 0.129643 -0.742771 0
M  V30 17517 H 1762.48 -0.384678 -1.79423 0
M  V30 17518 H 1760.86 1.43126 -3.6923 0
M  V30 17519 H 1762.04 -1.3362 -4.41001 0
M  V30 17520 H 1760.35 -1.05519 -4.02809 0
M  V30 17521 H 1762.95 1.49719 -5.13311 0
M  V30 17522 H 1763.29 2.16458 -3.55601 0
M  V30 17523 H 1763.83 0.51095 -3.94505 0
M  V30 17524 H 1760.56 -1.1232 -6.45805 0
M  V30 17525 H 1760.08 0.519971 -5.97542 0
M  V30 17526 H 1761.76 0.186308 -6.46732 0
M  V30 17527 N 1761.9 1.57599 -0.0067085 0
M  V30 17528 C 1762.81 2.1228 0.998709 0
M  V30 17529 C 1763.82 1.06964 1.37239 0
M  V30 17530 O 1765 1.38902 1.45836 0
M  V30 17531 C 1762.06 2.62076 2.26973 0
M  V30 17532 C 1761.12 3.8202 1.95855 0
M  V30 17533 C 1760.36 4.29431 3.16898 0
M  V30 17534 O 1760.58 3.76136 4.2881 0
M  V30 17535 O 1759.51 5.21518 3.00504 0
M  V30 17536 H 1763.34 2.9842 0.563849 0
M  V30 17537 H 1760.92 1.47881 0.212535 0
M  V30 17538 H 1762.81 2.94274 3.01631 0
M  V30 17539 H 1761.48 1.79031 2.69684 0
M  V30 17540 H 1760.39 3.54785 1.18653 0
M  V30 17541 H 1761.72 4.66159 1.57977 0
M  V30 17542 N 1763.37 -0.266145 1.55336 0
M  V30 17543 C 1764.28 -1.35103 1.91793 0
M  V30 17544 C 1765.3 -1.5368 0.815985 0
M  V30 17545 O 1766.48 -1.67675 1.11567 0
M  V30 17546 C 1763.54 -2.68905 2.1884 0
M  V30 17547 C 1762.6 -2.59015 3.42359 0
M  V30 17548 C 1761.83 -3.86437 3.68106 0
M  V30 17549 O 1762.06 -4.87436 2.96247 0
M  V30 17550 O 1760.99 -3.86227 4.61641 0
M  V30 17551 H 1764.82 -1.07181 2.84158 0
M  V30 17552 H 1762.4 -0.465262 1.41971 0
M  V30 17553 H 1764.28 -3.48008 2.3763 0
M  V30 17554 H 1762.96 -2.96599 1.29656 0
M  V30 17555 H 1761.87 -1.78264 3.28896 0
M  V30 17556 H 1763.2 -2.3627 4.31784 0
M  V30 17557 N 1764.85 -1.48386 -0.530967 0
M  V30 17558 C 1766.1 -1.56354 -1.28685 0
M  V30 17559 C 1766.43 -0.237022 -1.9305 0
M  V30 17560 O 1765.68 0.772595 -1.79804 0
M  V30 17561 C 1765.98 -2.64979 -2.39835 0
M  V30 17562 C 1765.65 -4.07446 -1.93129 0
M  V30 17563 C 1764.31 -4.46222 -1.80108 0
M  V30 17564 C 1766.66 -4.96732 -1.5782 0
M  V30 17565 C 1763.99 -5.7209 -1.30113 0
M  V30 17566 C 1766.34 -6.23088 -1.09288 0
M  V30 17567 C 1765 -6.60722 -0.948835 0
M  V30 17568 H 1764.27 -0.572139 -0.470891 0
M  V30 17569 H 1766.92 -1.82099 -0.592626 0
M  V30 17570 H 1765.23 -2.3309 -3.14923 0
M  V30 17571 H 1766.92 -2.68359 -2.97967 0
M  V30 17572 H 1763.51 -3.76822 -2.04213 0
M  V30 17573 H 1767.7 -4.67452 -1.6674 0
M  V30 17574 H 1762.95 -5.99974 -1.17647 0
M  V30 17575 H 1767.13 -6.91669 -0.810376 0
M  V30 17576 H 1764.75 -7.5814 -0.559235 0
M  V30 17577 N 1766.33 0.779763 -1.36958 0
M  V30 17578 C 1767.55 1.57389 -1.35068 0
M  V30 17579 C 1767.98 1.87993 0.0635244 0
M  V30 17580 O 1767.34 1.48625 1.03828 0
M  V30 17581 C 1767.39 2.86582 -2.18868 0
M  V30 17582 O 1766.49 3.80609 -1.58779 0
M  V30 17583 H 1765.83 0.477052 -0.461863 0
M  V30 17584 H 1768.36 0.965741 -1.80373 0
M  V30 17585 H 1768.37 3.35761 -2.31794 0
M  V30 17586 H 1767.05 2.63635 -3.21666 0
M  V30 17587 H 1765.62 3.39229 -1.54848 0
M  V30 17588 N 1767.81 1.21396 1.00503 0
M  V30 17589 C 1769.22 1.02983 1.55728 0
M  V30 17590 C 1769.57 -0.410383 1.9186 0
M  V30 17591 O 1768.69 -1.29358 1.7348 0
M  V30 17592 C 1769.29 1.86316 2.8297 0
M  V30 17593 C 1767.85 1.72235 3.34682 0
M  V30 17594 C 1767 1.8353 2.07875 0
M  V30 17595 H 1769.95 1.35418 0.827499 0
M  V30 17596 H 1769.97 1.37339 3.5485 0
M  V30 17597 H 1769.48 2.91131 2.56641 0
M  V30 17598 H 1767.58 0.701047 3.65945 0
M  V30 17599 H 1767.69 2.54198 4.06103 0
M  V30 17600 H 1766.06 1.26838 2.20872 0
M  V30 17601 H 1766.84 2.89852 1.83958 0
M  V30 17602 N 1769.29 -1.19996 1.0217 0
M  V30 17603 C 1770.2 -2.26634 0.606136 0
M  V30 17604 C 1771.21 -1.70262 -0.358746 0
M  V30 17605 O 1772.39 -2.00212 -0.218422 0
M  V30 17606 C 1769.45 -3.46672 -0.0439096 0
M  V30 17607 C 1768.51 -4.18254 0.967563 0
M  V30 17608 C 1767.75 -5.32561 0.348443 0
M  V30 17609 O 1767.97 -5.64024 -0.850508 0
M  V30 17610 O 1766.9 -5.92354 1.06772 0
M  V30 17611 H 1770.73 -2.64407 1.49407 0
M  V30 17612 H 1768.31 -1.26712 0.791483 0
M  V30 17613 H 1770.2 -4.19433 -0.406714 0
M  V30 17614 H 1768.87 -3.10764 -0.90596 0
M  V30 17615 H 1767.78 -3.47644 1.38183 0
M  V30 17616 H 1769.11 -4.58116 1.79975 0
M  V30 17617 N 1770.76 -0.798611 -1.35867 0
M  V30 17618 C 1772.01 -0.37526 -1.98993 0
M  V30 17619 C 1772.34 1.05549 -1.6337 0
M  V30 17620 O 1771.59 1.74552 -0.88488 0
M  V30 17621 C 1771.89 -0.496572 -3.53934 0
M  V30 17622 C 1771.56 -1.88946 -4.09402 0
M  V30 17623 C 1770.22 -2.27056 -4.24263 0
M  V30 17624 C 1772.57 -2.8011 -4.39531 0
M  V30 17625 C 1769.9 -3.55712 -4.66568 0
M  V30 17626 C 1772.25 -4.08205 -4.83272 0
M  V30 17627 C 1770.92 -4.46323 -4.96338 0
M  V30 17628 H 1770.19 -0.137317 -0.728165 0
M  V30 17629 H 1772.83 -1.01786 -1.6221 0
M  V30 17630 H 1771.14 0.229499 -3.91127 0
M  V30 17631 H 1772.84 -0.149903 -4.0072 0
M  V30 17632 H 1769.43 -1.58336 -3.98281 0
M  V30 17633 H 1773.61 -2.51919 -4.2761 0
M  V30 17634 H 1768.87 -3.85105 -4.74873 0
M  V30 17635 H 1773.04 -4.78952 -5.05547 0
M  V30 17636 H 1770.67 -5.4607 -5.28877 0
M  V30 17637 N 1772.24 1.47639 -0.551417 0
M  V30 17638 C 1773.49 2.02784 -0.0252425 0
M  V30 17639 C 1773.82 1.42549 1.31884 0
M  V30 17640 O 1773.1 0.578954 1.85684 0
M  V30 17641 C 1773.38 3.60024 0.0740051 0
M  V30 17642 C 1773.23 4.30702 -1.29676 0
M  V30 17643 C 1774.55 4.32946 0.790302 0
M  V30 17644 H 1771.67 0.736923 -0.0106473 0
M  V30 17645 H 1774.31 1.76131 -0.712589 0
M  V30 17646 H 1772.46 3.82863 0.65939 0
M  V30 17647 H 1774.13 4.1922 -1.9249 0
M  V30 17648 H 1772.38 3.91282 -1.87299 0
M  V30 17649 H 1773.05 5.39238 -1.18009 0
M  V30 17650 H 1775.52 4.15065 0.293326 0
M  V30 17651 H 1774.4 5.42608 0.828692 0
M  V30 17652 H 1774.66 4.01752 1.84521 0
M  V30 17653 N 1773.72 0.287581 1.54954 0
M  V30 17654 C 1774.63 -0.604236 2.26685 0
M  V30 17655 C 1775.65 -1.1597 1.29719 0
M  V30 17656 O 1776.82 -1.18735 1.62678 0
M  V30 17657 C 1773.89 -1.76612 2.98344 0
M  V30 17658 C 1772.95 -1.24608 4.10818 0
M  V30 17659 C 1772.18 -2.35258 4.7905 0
M  V30 17660 O 1772.4 -3.54879 4.46561 0
M  V30 17661 O 1771.34 -2.02709 5.66739 0
M  V30 17662 H 1775.16 -0.0227663 3.03691 0
M  V30 17663 H 1772.75 0.0545243 1.493 0
M  V30 17664 H 1774.63 -2.44332 3.43336 0
M  V30 17665 H 1773.31 -2.33444 2.24244 0
M  V30 17666 H 1772.21 -0.53498 3.70255 0
M  V30 17667 H 1773.55 -0.723348 4.86856 0
M  V30 17668 N 1775.2 -1.57593 0.0150662 0
M  V30 17669 C 1776.61 -1.79146 -0.525709 0
M  V30 17670 C 1776.96 -0.923985 -1.73081 0
M  V30 17671 O 1776.09 -0.130532 -2.16006 0
M  V30 17672 C 1776.68 -3.249 -0.960492 0
M  V30 17673 C 1775.24 -3.47497 -1.44647 0
M  V30 17674 C 1774.39 -2.74332 -0.404628 0
M  V30 17675 H 1777.34 -1.56857 0.241175 0
M  V30 17676 H 1777.36 -3.3384 -1.82568 0
M  V30 17677 H 1776.87 -3.88011 -0.0832025 0
M  V30 17678 H 1774.97 -2.8962 -2.34416 0
M  V30 17679 H 1775.08 -4.56199 -1.46354 0
M  V30 17680 H 1773.45 -2.39394 -0.869627 0
M  V30 17681 H 1774.23 -3.40151 0.463953 0
M  V30 17682 N 1776.68 0.257904 -1.55475 0
M  V30 17683 C 1778.09 0.605871 -1.47653 0
M  V30 17684 C 1778.29 1.88837 -0.703063 0
M  V30 17685 O 1777.35 2.51469 -0.227981 0
M  V30 17686 C 1778.66 0.718813 -2.91982 0
M  V30 17687 C 1780.21 0.81187 -3.02287 0
M  V30 17688 C 1780.68 0.956465 -4.47901 0
M  V30 17689 N 1782.18 1.02161 -4.51793 0
M  V30 17690 C 1782.91 1.15256 -5.61697 0
M  V30 17691 N 1782.41 1.24975 -6.81435 0
M  V30 17692 N 1784.2 1.18485 -5.4947 0
M  V30 17693 H 1776.35 -0.584154 -2.04209 0
M  V30 17694 H 1778.61 -0.200045 -0.926653 0
M  V30 17695 H 1778.32 -0.15335 -3.51366 0
M  V30 17696 H 1778.19 1.59429 -3.41851 0
M  V30 17697 H 1780.58 1.67449 -2.42991 0
M  V30 17698 H 1780.66 -0.0885307 -2.55647 0
M  V30 17699 H 1780.31 0.0984438 -5.07805 0
M  V30 17700 H 1780.24 1.87174 -4.92213 0
M  V30 17701 H 1782.73 0.958295 -3.65548 0
M  V30 17702 H 1783.04 1.34843 -7.60945 0
M  V30 17703 H 1781.38 1.21952 -6.84217 0
M  V30 17704 H 1784.58 1.10534 -4.54863 0
M  V30 17705 H 1784.75 1.28346 -6.35162 0
M  V30 17706 N 1778.15 1.48666 0.52309 0
M  V30 17707 C 1779.4 1.57267 1.28043 0
M  V30 17708 C 1779.73 0.248801 1.926 0
M  V30 17709 O 1779.01 -0.745814 1.79633 0
M  V30 17710 C 1779.29 2.71595 2.36449 0
M  V30 17711 C 1779.14 4.13708 1.76538 0
M  V30 17712 C 1780.46 2.81654 3.3817 0
M  V30 17713 H 1777.58 0.572455 0.464181 0
M  V30 17714 H 1780.22 1.80866 0.582013 0
M  V30 17715 H 1778.37 2.51604 2.9602 0
M  V30 17716 H 1780.05 4.45158 1.20964 0
M  V30 17717 H 1778.29 4.20386 1.07041 0
M  V30 17718 H 1778.96 4.89538 2.55062 0
M  V30 17719 H 1781.44 2.99784 2.88563 0
M  V30 17720 H 1780.31 3.63366 4.11408 0
M  V30 17721 H 1780.57 1.90093 3.99145 0
M  V30 17722 N 1779.63 -0.772489 1.37369 0
M  V30 17723 C 1780.86 -1.56671 1.35901 0
M  V30 17724 C 1781.28 -1.88024 -0.0535538 0
M  V30 17725 O 1780.64 -1.49174 -1.03038 0
M  V30 17726 C 1780.69 -2.85417 2.20384 0
M  V30 17727 O 1779.79 -3.79761 1.60796 0
M  V30 17728 H 1779.13 -0.474596 0.464386 0
M  V30 17729 H 1781.66 -0.956162 1.80883 0
M  V30 17730 H 1781.67 -3.34527 2.33571 0
M  V30 17731 H 1780.35 -2.61926 3.2306 0
M  V30 17732 H 1778.93 -3.38403 1.56645 0
M  V30 17733 N 1781.11 -1.21927 -0.998575 0
M  V30 17734 C 1782.35 -1.05191 -1.75255 0
M  V30 17735 C 1782.71 0.40666 -1.87644 0
M  V30 17736 O 1783.92 0.694716 -2.59667 0
M  V30 17737 C 1782.19 -1.7372 -3.1234 0
M  V30 17738 S 1783.75 -1.72323 -4.03547 0
M  V30 17739 H 1780.56 -0.376819 -0.602933 0
M  V30 17740 H 1783.17 -1.54777 -1.19434 0
M  V30 17741 H 1781.87 -2.79018 -3.00961 0
M  V30 17742 H 1781.4 -1.24341 -3.73233 0
M  V30 17743 H 1783.42 -0.768885 -4.90207 0
M  V30 17744 N 1782.59 1.19452 -1.02805 0
M  V30 17745 C 1783.84 1.88439 -0.719284 0
M  V30 17746 C 1784.15 1.80435 0.755143 0
M  V30 17747 O 1785.36 2.44664 1.17693 0
M  V30 17748 C 1783.81 3.38001 -1.23625 0
M  V30 17749 C 1783.42 3.54564 -2.7384 0
M  V30 17750 C 1785.16 4.1247 -1.00343 0
M  V30 17751 C 1783.07 4.98016 -3.18958 0
M  V30 17752 H 1782 0.705762 -0.265359 0
M  V30 17753 H 1784.65 1.35058 -1.24224 0
M  V30 17754 H 1783.03 3.90774 -0.641211 0
M  V30 17755 H 1784.21 3.12124 -3.38991 0
M  V30 17756 H 1782.52 2.93484 -2.95392 0
M  V30 17757 H 1785.12 5.18257 -1.31581 0
M  V30 17758 H 1785.46 4.16257 0.0597873 0
M  V30 17759 H 1786 3.65832 -1.56243 0
M  V30 17760 H 1782.74 4.9939 -4.24605 0
M  V30 17761 H 1782.26 5.41221 -2.58534 0
M  V30 17762 H 1783.93 5.66664 -3.12252 0
M  V30 17763 N 1784.07 0.805805 1.35442 0
M  V30 17764 C 1785.29 0.397179 2.03561 0
M  V30 17765 C 1785.72 -0.983665 1.6033 0
M  V30 17766 O 1785.07 -1.63683 0.779586 0
M  V30 17767 C 1785.12 0.487813 3.57285 0
M  V30 17768 O 1784.23 -0.499039 4.09369 0
M  V30 17769 H 1783.57 0.166009 0.642913 0
M  V30 17770 H 1786.1 1.09147 1.73055 0
M  V30 17771 H 1786.11 0.357334 4.06432 0
M  V30 17772 H 1784.78 1.49501 3.88101 0
M  V30 17773 H 1783.36 -0.328864 3.71447 0
M  V30 17774 N 1785.54 -1.47344 0.559239 0
M  V30 17775 C 1786.77 -2.07364 0.0388864 0
M  V30 17776 C 1787.19 -1.40886 -1.2463 0
M  V30 17777 O 1786.55 -0.48454 -1.74705 0
M  V30 17778 C 1786.6 -3.60336 -0.137894 0
M  V30 17779 O 1785.7 -3.94555 -1.2 0
M  V30 17780 H 1785.05 -0.661942 0.0522363 0
M  V30 17781 H 1787.58 -1.89333 0.7755 0
M  V30 17782 H 1787.59 -4.06483 -0.351462 0
M  V30 17783 H 1786.26 -4.08118 0.800776 0
M  V30 17784 H 1784.84 -3.6015 -0.966757 0
M  V30 17785 N 1787.02 -0.295795 -1.54799 0
M  V30 17786 C 1787.97 0.597578 -2.2003 0
M  V30 17787 C 1788.96 1.10286 -1.17158 0
M  V30 17788 O 1790.15 1.04449 -1.42896 0
M  V30 17789 C 1787.28 1.77148 -2.94064 0
M  V30 17790 C 1786.36 1.28241 -4.04246 0
M  V30 17791 N 1786.75 0.510962 -5.03213 0
M  V30 17792 C 1785.05 1.5636 -4.17693 0
M  V30 17793 C 1785.75 0.251176 -5.81157 0
M  V30 17794 N 1784.73 0.829504 -5.37234 0
M  V30 17795 H 1788.53 0.000567564 -2.939 0
M  V30 17796 H 1786.05 -0.10031 -1.6209 0
M  V30 17797 H 1788.04 2.42299 -3.39259 0
M  V30 17798 H 1786.7 2.37224 -2.21709 0
M  V30 17799 H 1787.71 0.156346 -5.17664 0
M  V30 17800 H 1784.39 2.17222 -3.5654 0
M  V30 17801 H 1785.78 -0.368063 -6.70891 0
M  V30 17802 N 1788.5 1.57583 -0.0234236 0
M  V30 17803 C 1789.75 1.91186 0.655152 0
M  V30 17804 C 1790.07 0.89988 1.72995 0
M  V30 17805 O 1789.34 -0.0594278 1.9581 0
M  V30 17806 H 1787.92 0.705686 0.244982 0
M  V30 17807 H 1790.58 1.94775 -0.0698824 0
M  V30 17808 H 1789.68 2.91636 1.11152 0
M  V30 17809 N 1789.98 -0.249655 1.5561 0
M  V30 17810 C 1790.94 -1.29242 1.89286 0
M  V30 17811 C 1791.94 -1.41214 0.769104 0
M  V30 17812 O 1793.13 -1.39962 1.03712 0
M  V30 17813 C 1790.26 -2.67053 2.11885 0
M  V30 17814 H 1791.46 -1.00601 2.82523 0
M  V30 17815 H 1789.01 -0.488819 1.4846 0
M  V30 17816 H 1789.75 -3.00838 1.21107 0
M  V30 17817 H 1789.53 -2.59745 2.93726 0
M  V30 17818 H 1791.02 -3.42353 2.39132 0
M  V30 17819 N 1791.46 -1.48941 -0.515198 0
M  V30 17820 C 1792.7 -1.5771 -1.27019 0
M  V30 17821 C 1793.03 -0.257484 -1.92788 0
M  V30 17822 O 1792.29 0.753481 -1.80613 0
M  V30 17823 C 1792.59 -2.67508 -2.37011 0
M  V30 17824 C 1792.25 -4.09471 -1.88796 0
M  V30 17825 C 1790.91 -4.48108 -1.75365 0
M  V30 17826 C 1793.27 -4.98378 -1.52543 0
M  V30 17827 C 1790.59 -5.73438 -1.24038 0
M  V30 17828 C 1792.95 -6.24212 -1.02673 0
M  V30 17829 C 1791.61 -6.61691 -0.878703 0
M  V30 17830 H 1790.88 -0.577101 -0.464796 0
M  V30 17831 H 1793.53 -1.82718 -0.573279 0
M  V30 17832 H 1791.83 -2.36417 -3.12433 0
M  V30 17833 H 1793.53 -2.71505 -2.95104 0
M  V30 17834 H 1790.12 -3.78967 -2.00205 0
M  V30 17835 H 1794.3 -4.69194 -1.61773 0
M  V30 17836 H 1789.56 -6.01188 -1.11277 0
M  V30 17837 H 1793.73 -6.9249 -0.73697 0
M  V30 17838 H 1791.36 -7.58691 -0.478792 0
M  V30 17839 N 1792.94 0.765193 -1.37777 0
M  V30 17840 C 1794.18 1.52096 -1.33084 0
M  V30 17841 C 1794.5 1.94827 0.08221 0
M  V30 17842 O 1793.77 1.66787 1.02757 0
M  V30 17843 H 1792.35 0.564139 -0.489649 0
M  V30 17844 H 1795.02 0.910308 -1.72335 0
M  V30 17845 H 1794.11 2.4173 -1.97416 0
M  V30 17846 N 1794.41 1.22455 0.992094 0
M  V30 17847 C 1795.82 1.04629 1.54627 0
M  V30 17848 C 1796.18 -0.390011 1.92285 0
M  V30 17849 O 1795.3 -1.27511 1.74842 0
M  V30 17850 C 1795.9 1.89306 2.80978 0
M  V30 17851 C 1794.45 1.75775 3.32836 0
M  V30 17852 C 1793.6 1.85724 2.05917 0
M  V30 17853 H 1796.55 1.36288 0.813089 0
M  V30 17854 H 1796.57 1.41095 3.53373 0
M  V30 17855 H 1796.09 2.93836 2.53539 0
M  V30 17856 H 1794.19 0.739821 3.65181 0
M  V30 17857 H 1794.3 2.58491 4.03385 0
M  V30 17858 H 1792.66 1.29173 2.19514 0
M  V30 17859 H 1793.45 2.91787 1.80874 0
M  V30 17860 N 1795.89 -1.18905 1.03437 0
M  V30 17861 C 1796.84 -2.24362 0.613557 0
M  V30 17862 C 1797.83 -1.65605 -0.356541 0
M  V30 17863 O 1799.04 -1.78594 -0.22452 0
M  V30 17864 H 1795.41 -0.730098 0.18017 0
M  V30 17865 H 1797.39 -2.57168 1.51351 0
M  V30 17866 C 1796.13 -3.47697 -0.0141125 0
M  V30 17867 H 1795.46 -3.93201 0.723394 0
M  V30 17868 H 1796.9 -4.2313 -0.271424 0
M  V30 17869 C 1795.36 -3.12357 -1.26232 0
M  V30 17870 O 1795.89 -3.25515 -2.35378 0
M  V30 17871 N 1794.09 -2.6674 -1.15318 0
M  V30 17872 H 1793.64 -2.56233 -0.26501 0
M  V30 17873 H 1793.6 -2.43466 -1.98927 0
M  V30 17874 N 1797.37 -0.812977 -1.35013 0
M  V30 17875 C 1798.59 -0.407969 -2.03348 0
M  V30 17876 C 1799.02 0.975148 -1.60849 0
M  V30 17877 O 1798.38 1.63267 -0.788256 0
M  V30 17878 C 1798.43 -0.506754 -3.57022 0
M  V30 17879 O 1797.53 0.477322 -4.09628 0
M  V30 17880 H 1796.87 -0.169416 -0.642023 0
M  V30 17881 H 1799.4 -1.10064 -1.72474 0
M  V30 17882 H 1799.41 -0.378883 -4.06237 0
M  V30 17883 H 1798.09 -1.51557 -3.87302 0
M  V30 17884 H 1796.66 0.309161 -3.71616 0
M  V30 17885 N 1798.85 1.47045 -0.567045 0
M  V30 17886 C 1799.81 2.28607 0.164758 0
M  V30 17887 C 1800.81 1.37509 0.833542 0
M  V30 17888 O 1802 1.60043 0.687895 0
M  V30 17889 C 1799.13 3.17466 1.24211 0
M  V30 17890 H 1800.33 2.9478 -0.551814 0
M  V30 17891 H 1797.88 1.52897 -0.324376 0
M  V30 17892 H 1798.61 2.56006 1.99076 0
M  V30 17893 H 1798.4 3.8452 0.767243 0
M  V30 17894 H 1799.89 3.78894 1.75582 0
M  V30 17895 N 1800.33 0.304 1.5464 0
M  V30 17896 C 1801.29 -0.557917 2.22306 0
M  V30 17897 C 1802.29 -1.05895 1.21008 0
M  V30 17898 O 1803.48 -0.954497 1.45722 0
M  V30 17899 C 1800.61 -1.77279 2.91178 0
M  V30 17900 H 1801.8 0.0333187 2.99881 0
M  V30 17901 H 1799.36 0.0548659 1.56204 0
M  V30 17902 H 1800.09 -2.40378 2.17689 0
M  V30 17903 H 1799.88 -1.42115 3.65439 0
M  V30 17904 H 1801.37 -2.38507 3.42789 0
M  V30 17905 N 1801.8 -1.57568 0.0317802 0
M  V30 17906 C 1803.04 -1.93776 -0.650407 0
M  V30 17907 C 1803.41 -0.908617 -1.69139 0
M  V30 17908 O 1804.61 -1.15698 -2.42626 0
M  V30 17909 C 1802.88 -3.34887 -1.24843 0
M  V30 17910 S 1804.44 -3.93025 -1.95132 0
M  V30 17911 H 1801.26 -0.678007 -0.214074 0
M  V30 17912 H 1803.86 -1.95264 0.0960817 0
M  V30 17913 H 1802.56 -4.07602 -0.478395 0
M  V30 17914 H 1802.09 -3.36848 -2.03216 0
M  V30 17915 H 1804.11 -3.76676 -3.23001 0
M  V30 17916 N 1803.28 0.241399 -1.5574 0
M  V30 17917 C 1804.21 1.30255 -1.93793 0
M  V30 17918 C 1805.19 1.49923 -0.803563 0
M  V30 17919 O 1806.38 1.62439 -1.06429 0
M  V30 17920 C 1803.51 2.65625 -2.23742 0
M  V30 17921 C 1802.46 2.60645 -3.39483 0
M  V30 17922 C 1801.79 3.99861 -3.54986 0
M  V30 17923 C 1803.09 2.17151 -4.75019 0
M  V30 17924 H 1804.78 0.986532 -2.8268 0
M  V30 17925 H 1802.33 0.473125 -1.36006 0
M  V30 17926 H 1804.28 3.40001 -2.48953 0
M  V30 17927 H 1803.01 2.98874 -1.31688 0
M  V30 17928 H 1801.66 1.88727 -3.14289 0
M  V30 17929 H 1801.31 4.30385 -2.60342 0
M  V30 17930 H 1801.01 3.97415 -4.32822 0
M  V30 17931 H 1802.54 4.75928 -3.82524 0
M  V30 17932 H 1803.95 2.8126 -4.99565 0
M  V30 17933 H 1802.35 2.25805 -5.55996 0
M  V30 17934 H 1803.42 1.12329 -4.7171 0
M  V30 17935 N 1804.76 1.49212 0.507292 0
M  V30 17936 C 1806.17 1.51655 1.08892 0
M  V30 17937 C 1806.52 0.299163 1.93906 0
M  V30 17938 O 1805.65 -0.591635 2.08155 0
M  V30 17939 C 1806.24 2.7481 1.98154 0
M  V30 17940 C 1804.8 2.80051 2.51492 0
M  V30 17941 C 1803.95 2.45486 1.28966 0
M  V30 17942 H 1806.9 1.56 0.291488 0
M  V30 17943 H 1806.92 2.54615 2.82757 0
M  V30 17944 H 1806.43 3.63396 1.36253 0
M  V30 17945 H 1804.53 1.95729 3.1705 0
M  V30 17946 H 1804.65 3.82064 2.89075 0
M  V30 17947 H 1803.01 1.97128 1.61284 0
M  V30 17948 H 1803.79 3.36339 0.687821 0
M  V30 17949 N 1806.24 -0.757876 1.38181 0
M  V30 17950 C 1807.46 -1.55221 1.37555 0
M  V30 17951 C 1807.89 -1.8807 -0.0336083 0
M  V30 17952 O 1807.25 -1.50258 -1.0145 0
M  V30 17953 C 1807.29 -2.83064 2.23399 0
M  V30 17954 O 1806.4 -3.78034 1.64814 0
M  V30 17955 H 1805.74 -0.469644 0.469394 0
M  V30 17956 H 1808.27 -0.936923 1.81887 0
M  V30 17957 H 1808.28 -3.32031 2.37106 0
M  V30 17958 H 1806.95 -2.58485 3.2582 0
M  V30 17959 H 1805.53 -3.36723 1.60225 0
M  V30 17960 N 1807.72 -1.22979 -0.985586 0
M  V30 17961 C 1809.13 -0.991329 -1.25079 0
M  V30 17962 C 1809.33 0.310701 -1.9909 0
M  V30 17963 O 1808.39 1.03147 -2.30471 0
M  V30 17964 C 1809.7 -2.19483 -2.05542 0
M  V30 17965 C 1811.25 -2.23918 -2.187 0
M  V30 17966 C 1811.72 -3.43841 -3.02552 0
M  V30 17967 N 1813.22 -3.44048 -3.10137 0
M  V30 17968 C 1813.95 -4.33493 -3.75328 0
M  V30 17969 N 1813.45 -5.33167 -4.42385 0
M  V30 17970 N 1815.24 -4.2125 -3.72163 0
M  V30 17971 H 1807.39 -2.0668 -0.489617 0
M  V30 17972 H 1809.65 -0.906048 -0.278892 0
M  V30 17973 H 1809.36 -3.13945 -1.5853 0
M  V30 17974 H 1809.23 -2.20144 -3.06295 0
M  V30 17975 H 1811.62 -1.3 -2.64923 0
M  V30 17976 H 1811.7 -2.27293 -1.17353 0
M  V30 17977 H 1811.35 -4.38063 -2.57027 0
M  V30 17978 H 1811.28 -3.37707 -4.04056 0
M  V30 17979 H 1813.77 -2.71927 -2.6242 0
M  V30 17980 H 1814.08 -5.97684 -4.89892 0
M  V30 17981 H 1812.42 -5.37073 -4.4111 0
M  V30 17982 H 1815.62 -3.42629 -3.18941 0
M  V30 17983 H 1815.79 -4.91162 -4.22687 0
M  V30 17984 N 1809.19 1.18355 -1.04066 0
M  V30 17985 C 1810.44 1.88335 -0.744046 0
M  V30 17986 C 1810.77 1.80353 0.728219 0
M  V30 17987 O 1810.02 1.19839 1.54717 0
M  V30 17988 C 1810.32 3.38203 -1.15557 0
M  V30 17989 C 1809.99 3.66389 -2.62812 0
M  V30 17990 C 1808.65 3.73791 -3.03041 0
M  V30 17991 C 1811 3.78773 -3.58023 0
M  V30 17992 C 1808.33 3.91056 -4.37369 0
M  V30 17993 C 1810.68 3.97554 -4.92071 0
M  V30 17994 C 1809.35 4.03192 -5.3197 0
M  V30 17995 H 1808.62 0.689168 -0.272266 0
M  V30 17996 H 1811.26 1.40087 -1.30568 0
M  V30 17997 H 1809.57 3.8843 -0.512741 0
M  V30 17998 H 1811.27 3.90691 -0.903428 0
M  V30 17999 H 1807.86 3.61244 -2.30652 0
M  V30 18000 H 1812.04 3.72386 -3.28089 0
M  V30 18001 H 1807.3 3.93665 -4.67801 0
M  V30 18002 H 1811.47 4.06078 -5.65751 0
M  V30 18003 H 1809.1 4.16323 -6.36066 0
M  V30 18004 N 1810.67 0.820125 1.3458 0
M  V30 18005 C 1812.08 0.466064 1.80789 0
M  V30 18006 C 1812.43 -1.01327 1.6801 0
M  V30 18007 O 1811.56 -1.78835 1.21849 0
M  V30 18008 C 1812.15 0.839192 3.28242 0
M  V30 18009 C 1810.71 0.53754 3.72542 0
M  V30 18010 C 1809.86 1.0576 2.5634 0
M  V30 18011 H 1812.81 1.01055 1.22366 0
M  V30 18012 H 1812.83 0.141897 3.80235 0
M  V30 18013 H 1812.34 1.91592 3.37512 0
M  V30 18014 H 1810.45 -0.529895 3.68813 0
M  V30 18015 H 1810.56 1.07964 4.66777 0
M  V30 18016 H 1808.92 0.479275 2.5015 0
M  V30 18017 H 1809.71 2.14072 2.68381 0
M  V30 18018 N 1812.15 -1.46743 0.574835 0
M  V30 18019 C 1813.1 -2.30224 -0.162908 0
M  V30 18020 C 1814.07 -1.4014 -0.891629 0
M  V30 18021 O 1815.25 -1.69094 -0.883854 0
M  V30 18022 C 1812.39 -3.24456 -1.1757 0
M  V30 18023 C 1811.51 -4.29637 -0.451233 0
M  V30 18024 C 1810.64 -5.11003 -1.45085 0
M  V30 18025 C 1809.68 -6.07941 -0.712353 0
M  V30 18026 N 1808.82 -6.82202 -1.65965 0
M  V30 18027 H 1813.66 -2.92785 0.555063 0
M  V30 18028 H 1811.19 -1.44302 0.285546 0
M  V30 18029 H 1813.15 -3.77526 -1.77567 0
M  V30 18030 H 1811.78 -2.63721 -1.86148 0
M  V30 18031 H 1810.83 -3.79485 0.263623 0
M  V30 18032 H 1812.15 -4.9864 0.126468 0
M  V30 18033 H 1811.3 -5.68311 -2.12386 0
M  V30 18034 H 1810.04 -4.41942 -2.06248 0
M  V30 18035 H 1809.04 -5.49794 -0.0255266 0
M  V30 18036 H 1810.27 -6.79017 -0.106227 0
M  V30 18037 H 1808.21 -6.15858 -2.25953 0
M  V30 18038 H 1808.13 -7.47438 -1.13456 0
M  V30 18039 H 1809.4 -7.44073 -2.32325 0
M  V30 18040 N 1813.63 -0.312197 -1.54477 0
M  V30 18041 C 1815.04 0.178189 -1.85848 0
M  V30 18042 C 1815.39 1.52534 -1.23401 0
M  V30 18043 O 1814.52 2.09661 -0.535822 0
M  V30 18044 C 1815.11 0.330099 -3.37188 0
M  V30 18045 C 1813.67 0.764703 -3.6855 0
M  V30 18046 C 1812.82 -0.120348 -2.77039 0
M  V30 18047 H 1815.77 -0.532853 -1.49487 0
M  V30 18048 H 1815.79 1.16287 -3.62295 0
M  V30 18049 H 1815.3 -0.650527 -3.82609 0
M  V30 18050 H 1813.4 1.75548 -3.28654 0
M  V30 18051 H 1813.51 0.576331 -4.75621 0
M  V30 18052 H 1811.88 0.402229 -2.51504 0
M  V30 18053 H 1812.66 -1.09753 -3.25283 0
M  V30 18054 N 1815.11 1.57549 -0.040136 0
M  V30 18055 C 1816.52 1.79959 0.497142 0
M  V30 18056 C 1816.87 0.951403 1.71589 0
M  V30 18057 O 1815.99 0.16488 2.15771 0
M  V30 18058 C 1816.59 3.26387 0.908682 0
M  V30 18059 C 1815.15 3.49754 1.39101 0
M  V30 18060 C 1814.29 2.74941 0.360933 0
M  V30 18061 H 1817.25 1.56453 -0.266099 0
M  V30 18062 H 1817.27 3.36702 1.77234 0
M  V30 18063 H 1816.78 3.88094 0.0214628 0
M  V30 18064 H 1814.88 2.93313 2.29778 0
M  V30 18065 H 1814.99 4.58469 1.39078 0
M  V30 18066 H 1813.36 2.40747 0.831432 0
M  V30 18067 H 1814.14 3.39369 -0.51801 0
M  V30 18068 N 1816.58 -0.233136 1.55866 0
M  V30 18069 C 1817.52 -1.31202 1.87932 0
M  V30 18070 C 1818.53 -1.43619 0.766642 0
M  V30 18071 O 1819.72 -1.44723 1.04487 0
M  V30 18072 C 1816.82 -2.68904 2.06262 0
M  V30 18073 C 1815.99 -2.78581 3.37211 0
M  V30 18074 C 1815.05 -3.97219 3.45114 0
M  V30 18075 O 1814.08 -3.861 4.18229 0
M  V30 18076 N 1815.28 -5.11009 2.7541 0
M  V30 18077 H 1818.04 -1.04025 2.81067 0
M  V30 18078 H 1815.6 -0.423209 1.56271 0
M  V30 18079 H 1817.6 -3.46631 2.08876 0
M  V30 18080 H 1816.17 -2.8873 1.19807 0
M  V30 18081 H 1815.39 -1.87422 3.46795 0
M  V30 18082 H 1816.67 -2.82008 4.23496 0
M  V30 18083 H 1816.07 -5.22936 2.15764 0
M  V30 18084 H 1814.63 -5.8682 2.837 0
M  V30 18085 N 1818.06 -1.49479 -0.499372 0
M  V30 18086 C 1819.47 -1.52231 -1.08087 0
M  V30 18087 C 1819.83 -0.309442 -1.93744 0
M  V30 18088 O 1818.95 0.580587 -2.08466 0
M  V30 18089 C 1819.55 -2.75857 -1.96694 0
M  V30 18090 C 1818.1 -2.81381 -2.50003 0
M  V30 18091 C 1817.25 -2.46166 -1.27662 0
M  V30 18092 H 1820.2 -1.56153 -0.283211 0
M  V30 18093 H 1820.22 -2.56111 -2.81403 0
M  V30 18094 H 1819.74 -3.64114 -1.34324 0
M  V30 18095 H 1817.84 -1.97408 -3.16008 0
M  V30 18096 H 1817.95 -3.83591 -2.87045 0
M  V30 18097 H 1816.31 -1.97981 -1.60236 0
M  V30 18098 H 1817.1 -3.36699 -0.669974 0
M  V30 18099 N 1819.54 0.750537 -1.38581 0
M  V30 18100 C 1820.79 1.50512 -1.34272 0
M  V30 18101 C 1821.1 1.95496 0.0636858 0
M  V30 18102 O 1822.31 2.7053 0.22932 0
M  V30 18103 C 1820.77 2.71891 -2.35803 0
M  V30 18104 C 1820.37 2.3392 -3.8208 0
M  V30 18105 C 1822.12 3.4977 -2.40543 0
M  V30 18106 C 1820.02 3.51928 -4.7529 0
M  V30 18107 H 1818.95 0.56515 -0.49912 0
M  V30 18108 H 1821.61 0.820167 -1.64151 0
M  V30 18109 H 1819.99 3.42383 -1.98972 0
M  V30 18110 H 1821.16 1.71075 -4.27867 0
M  V30 18111 H 1819.48 1.69168 -3.80488 0
M  V30 18112 H 1822.07 4.37519 -3.07379 0
M  V30 18113 H 1822.42 3.91141 -1.42527 0
M  V30 18114 H 1822.95 2.86294 -2.76189 0
M  V30 18115 H 1819.69 3.15621 -5.74512 0
M  V30 18116 H 1819.21 4.13807 -4.34194 0
M  V30 18117 H 1820.89 4.1847 -4.93449 0
M  V30 18118 N 1821.02 1.235 0.979051 0
M  V30 18119 C 1822.27 1.06197 1.71479 0
M  V30 18120 C 1822.58 -0.401066 1.91444 0
M  V30 18121 O 1823.79 -0.69406 2.62479 0
M  V30 18122 C 1822.24 1.85189 3.08598 0
M  V30 18123 C 1821.85 3.35831 2.96516 0
M  V30 18124 C 1823.6 1.76379 3.86122 0
M  V30 18125 C 1821.5 4.0721 4.28875 0
M  V30 18126 H 1820.43 0.393779 0.643004 0
M  V30 18127 H 1823.08 1.47479 1.09188 0
M  V30 18128 H 1821.47 1.36714 3.71652 0
M  V30 18129 H 1822.64 3.91803 2.42543 0
M  V30 18130 H 1820.95 3.45469 2.32466 0
M  V30 18131 H 1823.55 2.2702 4.84114 0
M  V30 18132 H 1823.89 0.726826 4.09906 0
M  V30 18133 H 1824.43 2.22473 3.29773 0
M  V30 18134 H 1821.17 5.11218 4.10288 0
M  V30 18135 H 1820.69 3.56025 4.82707 0
M  V30 18136 H 1822.37 4.13579 4.97555 0
M  V30 18137 N 1822.5 -1.17802 1.04693 0
M  V30 18138 C 1823.43 -2.23847 0.664448 0
M  V30 18139 C 1824.41 -1.66761 -0.335356 0
M  V30 18140 O 1825.59 -1.93017 -0.214062 0
M  V30 18141 C 1822.72 -3.47284 0.0331587 0
M  V30 18142 C 1821.68 -4.1716 0.95718 0
M  V30 18143 C 1821 -5.34362 0.190034 0
M  V30 18144 C 1822.3 -4.69951 2.2791 0
M  V30 18145 H 1824 -2.56095 1.55099 0
M  V30 18146 H 1821.54 -1.23097 0.747196 0
M  V30 18147 H 1823.5 -4.2068 -0.246178 0
M  V30 18148 H 1822.22 -3.14288 -0.888294 0
M  V30 18149 H 1820.88 -3.45669 1.221 0
M  V30 18150 H 1820.53 -4.97615 -0.734025 0
M  V30 18151 H 1820.23 -5.8205 0.805684 0
M  V30 18152 H 1821.75 -6.10545 -0.0821372 0
M  V30 18153 H 1823.17 -5.3501 2.06003 0
M  V30 18154 H 1821.56 -5.28198 2.84828 0
M  V30 18155 H 1822.63 -3.87032 2.9212 0
M  V30 18156 N 1823.98 -0.827251 -1.34143 0
M  V30 18157 C 1825.39 -0.513554 -1.51112 0
M  V30 18158 C 1825.59 0.961434 -1.77084 0
M  V30 18159 O 1824.65 1.74573 -1.82429 0
M  V30 18160 C 1825.96 -1.37683 -2.67327 0
M  V30 18161 C 1827.51 -1.3744 -2.8121 0
M  V30 18162 C 1827.98 -2.22226 -4.00474 0
M  V30 18163 N 1829.47 -2.19873 -4.07689 0
M  V30 18164 C 1830.21 -2.82222 -4.99138 0
M  V30 18165 N 1829.71 -3.53578 -5.95781 0
M  V30 18166 N 1831.5 -2.71753 -4.92043 0
M  V30 18167 H 1823.65 -1.78222 -1.15545 0
M  V30 18168 H 1825.91 -0.759711 -0.567047 0
M  V30 18169 H 1825.62 -2.42448 -2.54778 0
M  V30 18170 H 1825.49 -1.0446 -3.62447 0
M  V30 18171 H 1827.88 -0.334525 -2.93198 0
M  V30 18172 H 1827.96 -1.74663 -1.86886 0
M  V30 18173 H 1827.6 -3.26266 -3.89246 0
M  V30 18174 H 1827.53 -1.82352 -4.9402 0
M  V30 18175 H 1830.03 -1.67972 -3.38517 0
M  V30 18176 H 1830.34 -3.98387 -6.62199 0
M  V30 18177 H 1828.68 -3.57685 -5.95892 0
M  V30 18178 H 1831.87 -2.15579 -4.15504 0
M  V30 18179 H 1832.05 -3.2063 -5.63117 0
M  V30 18180 N 1825.45 1.46436 -0.582609 0
M  V30 18181 C 1826.73 1.956 -0.00129167 0
M  V30 18182 C 1827.11 1.52526 1.45942 0
M  V30 18183 O 1826.46 0.775911 2.14923 0
M  V30 18184 C 1826.67 3.4857 -0.173243 0
M  V30 18185 C 1828.02 4.2458 -0.0410173 0
M  V30 18186 O 1829.04 3.56054 -0.102074 0
M  V30 18187 O 1827.9 5.46418 0.0947564 0
M  V30 18188 H 1824.99 0.825495 0.0498706 0
M  V30 18189 H 1827.54 1.5672 -0.650921 0
M  V30 18190 H 1826.31 3.72808 -1.1887 0
M  V30 18191 H 1825.93 3.94279 0.512822 0
M  V30 18192 N 1826.93 0.320385 1.54309 0
M  V30 18193 C 1828.17 -0.283775 2.02421 0
M  V30 18194 C 1828.54 -1.49594 1.20357 0
M  V30 18195 O 1829.74 -2.17275 1.58256 0
M  V30 18196 C 1828.01 -0.612699 3.52109 0
M  V30 18197 S 1829.57 -1.19697 4.22159 0
M  V30 18198 H 1826.38 -0.0860212 0.705777 0
M  V30 18199 H 1828.99 0.452768 1.90185 0
M  V30 18200 H 1827.69 0.277697 4.09459 0
M  V30 18201 H 1827.22 -1.37952 3.68419 0
M  V30 18202 H 1829.24 -2.48394 4.29552 0
M  V30 18203 N 1828.41 -1.57525 0.0484906 0
M  V30 18204 C 1829.34 -2.08313 -0.955941 0
M  V30 18205 C 1830.35 -1.01042 -1.2765 0
M  V30 18206 O 1831.54 -1.28615 -1.23776 0
M  V30 18207 C 1828.64 -2.509 -2.27821 0
M  V30 18208 C 1827.82 -3.81476 -2.13997 0
M  V30 18209 C 1826.88 -4.10404 -3.29325 0
M  V30 18210 O 1825.9 -4.80366 -3.05348 0
M  V30 18211 N 1827.1 -3.62104 -4.53719 0
M  V30 18212 H 1829.87 -2.95111 -0.522472 0
M  V30 18213 H 1827.43 -1.61312 -0.137816 0
M  V30 18214 H 1829.42 -2.6733 -3.03837 0
M  V30 18215 H 1827.99 -1.69365 -2.62744 0
M  V30 18216 H 1827.21 -3.74654 -1.22589 0
M  V30 18217 H 1828.5 -4.6699 -2.01985 0
M  V30 18218 H 1827.9 -3.05541 -4.7609 0
M  V30 18219 H 1826.45 -3.83778 -5.26838 0
M  V30 18220 N 1829.89 0.224867 -1.55988 0
M  V30 18221 C 1831.13 0.951154 -1.79111 0
M  V30 18222 C 1831.47 1.84119 -0.617568 0
M  V30 18223 O 1830.74 1.90686 0.383312 0
M  V30 18224 C 1831.02 1.79292 -3.12292 0
M  V30 18225 C 1830.88 0.929603 -4.40089 0
M  V30 18226 C 1832.2 2.77132 -3.41886 0
M  V30 18227 H 1829.32 0.344359 -0.651603 0
M  V30 18228 H 1831.96 0.220228 -1.88719 0
M  V30 18229 H 1830.11 2.41609 -3.04232 0
M  V30 18230 H 1831.78 0.323432 -4.60165 0
M  V30 18231 H 1830.02 0.234877 -4.33164 0
M  V30 18232 H 1830.69 1.55289 -5.29707 0
M  V30 18233 H 1833.17 2.24951 -3.50052 0
M  V30 18234 H 1832.05 3.33135 -4.36248 0
M  V30 18235 H 1832.31 3.54705 -2.63887 0
M  V30 18236 N 1831.37 1.49742 0.491438 0
M  V30 18237 C 1832.61 1.58956 1.24161 0
M  V30 18238 C 1832.93 0.285882 1.935 0
M  V30 18239 O 1834.13 0.256678 2.70284 0
M  V30 18240 C 1832.59 2.805 2.25494 0
M  V30 18241 C 1832.2 4.17664 1.62051 0
M  V30 18242 C 1833.94 2.99049 3.0128 0
M  V30 18243 C 1831.85 5.3042 2.61551 0
M  V30 18244 H 1830.78 0.591883 0.467108 0
M  V30 18245 H 1833.43 1.76144 0.514364 0
M  V30 18246 H 1831.81 2.56827 3.01423 0
M  V30 18247 H 1832.99 4.51512 0.9205 0
M  V30 18248 H 1831.3 4.04553 0.986211 0
M  V30 18249 H 1833.9 3.80458 3.75707 0
M  V30 18250 H 1834.24 2.0998 3.59464 0
M  V30 18251 H 1834.77 3.22807 2.32466 0
M  V30 18252 H 1831.51 6.21579 2.08135 0
M  V30 18253 H 1831.03 5.01014 3.29765 0
M  V30 18254 H 1832.71 5.60152 3.23789 0
M  V30 18255 N 1832.84 -0.743177 1.38977 0
M  V30 18256 C 1834.26 -1.32104 1.3193 0
M  V30 18257 C 1834.61 -1.9619 -0.0201331 0
M  V30 18258 O 1833.73 -1.95764 -0.922245 0
M  V30 18259 C 1834.33 -2.40204 2.3893 0
M  V30 18260 C 1832.89 -2.93684 2.35428 0
M  V30 18261 C 1832.03 -1.67168 2.21247 0
M  V30 18262 H 1834.98 -0.541283 1.49184 0
M  V30 18263 H 1835 -3.20397 2.05246 0
M  V30 18264 H 1834.52 -1.93532 3.36403 0
M  V30 18265 H 1832.62 -3.44658 1.41568 0
M  V30 18266 H 1832.73 -3.47355 3.29971 0
M  V30 18267 H 1831.09 -1.91193 1.68278 0
M  V30 18268 H 1831.88 -1.22559 3.20678 0
M  V30 18269 N 1834.32 -1.24018 -0.972487 0
M  V30 18270 C 1835.25 -1.0529 -2.08414 0
M  V30 18271 C 1836.23 0.0326663 -1.70069 0
M  V30 18272 O 1837.42 -0.133494 -1.93741 0
M  V30 18273 C 1834.55 -0.651796 -3.41129 0
M  V30 18274 C 1833.5 -1.68559 -3.9341 0
M  V30 18275 C 1832.83 -1.1397 -5.22413 0
M  V30 18276 C 1834.13 -3.08046 -4.21788 0
M  V30 18277 H 1835.82 -1.98272 -2.2434 0
M  V30 18278 H 1833.37 -0.954694 -1.07804 0
M  V30 18279 H 1835.32 -0.507792 -4.18329 0
M  V30 18280 H 1834.05 0.313722 -3.2509 0
M  V30 18281 H 1832.7 -1.81773 -3.18362 0
M  V30 18282 H 1832.35 -0.164928 -5.0273 0
M  V30 18283 H 1832.05 -1.83051 -5.5836 0
M  V30 18284 H 1833.58 -1.00771 -6.02227 0
M  V30 18285 H 1834.99 -2.98088 -4.8971 0
M  V30 18286 H 1833.39 -3.74436 -4.68954 0
M  V30 18287 H 1834.46 -3.56444 -3.28749 0
M  V30 18288 N 1835.8 1.17245 -1.05316 0
M  V30 18289 C 1837.21 1.69167 -0.789906 0
M  V30 18290 C 1837.56 1.83751 0.687762 0
M  V30 18291 O 1836.69 1.52596 1.53438 0
M  V30 18292 C 1837.28 3.07269 -1.42728 0
M  V30 18293 C 1835.84 3.56352 -1.21204 0
M  V30 18294 C 1834.99 2.3258 -1.51003 0
M  V30 18295 H 1837.94 1.01744 -1.21794 0
M  V30 18296 H 1837.96 3.71175 -0.837236 0
M  V30 18297 H 1837.47 2.96622 -2.50273 0
M  V30 18298 H 1835.57 3.72274 -0.155891 0
M  V30 18299 H 1835.69 4.39038 -1.91787 0
M  V30 18300 H 1834.05 2.37107 -0.930172 0
M  V30 18301 H 1834.83 2.2454 -2.59685 0
M  V30 18302 N 1837.28 0.834353 1.33702 0
M  V30 18303 C 1838.69 0.485213 1.80285 0
M  V30 18304 C 1839.04 -0.995397 1.69075 0
M  V30 18305 O 1838.17 -1.77532 1.23738 0
M  V30 18306 C 1838.76 0.873959 3.27334 0
M  V30 18307 C 1837.32 0.577023 3.71951 0
M  V30 18308 C 1836.47 1.08473 2.55204 0
M  V30 18309 H 1839.42 1.02347 1.21288 0
M  V30 18310 H 1839.44 0.182218 3.80063 0
M  V30 18311 H 1838.95 1.95161 3.35461 0
M  V30 18312 H 1837.05 -0.490747 3.69354 0
M  V30 18313 H 1837.16 1.12909 4.65605 0
M  V30 18314 H 1835.53 0.505779 2.49628 0
M  V30 18315 H 1836.31 2.16906 2.66095 0
M  V30 18316 N 1838.76 -1.46125 0.590367 0
M  V30 18317 C 1840 -2.01947 0.0787256 0
M  V30 18318 C 1840.33 -1.4634 -1.28878 0
M  V30 18319 O 1839.6 -0.651011 -1.84767 0
M  V30 18320 H 1838.18 -0.746543 0.0261125 0
M  V30 18321 H 1840.84 -1.79136 0.767877 0
M  V30 18322 H 1839.93 -3.12096 0.0154914 0
M  V30 18323 N 1840.23 -0.328564 -1.54137 0
M  V30 18324 C 1841.16 0.527734 -2.27458 0
M  V30 18325 C 1842.15 1.11518 -1.28444 0
M  V30 18326 O 1843.33 1.13938 -1.57264 0
M  V30 18327 C 1840.46 1.68628 -3.03615 0
M  V30 18328 C 1839.41 1.22789 -4.10008 0
M  V30 18329 C 1838.74 2.47378 -4.74034 0
M  V30 18330 C 1840.04 0.339152 -5.21198 0
M  V30 18331 H 1841.73 -0.0838808 -2.99282 0
M  V30 18332 H 1839.28 -0.0417829 -1.43939 0
M  V30 18333 H 1841.23 2.29165 -3.5364 0
M  V30 18334 H 1839.96 2.32456 -2.29416 0
M  V30 18335 H 1838.62 0.645427 -3.60874 0
M  V30 18336 H 1838.26 3.09581 -3.96445 0
M  V30 18337 H 1837.96 2.17396 -5.45905 0
M  V30 18338 H 1839.49 3.08668 -5.26836 0
M  V30 18339 H 1840.9 0.850947 -5.6695 0
M  V30 18340 H 1839.3 0.131892 -5.99955 0
M  V30 18341 H 1840.37 -0.628692 -4.80807 0
M  V30 18342 N 1841.71 1.57497 -0.0568439 0
M  V30 18343 C 1843.12 1.80477 0.478027 0
M  V30 18344 C 1843.47 0.969549 1.7057 0
M  V30 18345 O 1842.6 0.187756 2.15584 0
M  V30 18346 C 1843.19 3.27332 0.874013 0
M  V30 18347 C 1841.75 3.5121 1.35383 0
M  V30 18348 C 1840.9 2.75308 0.331752 0
M  V30 18349 H 1843.85 1.56162 -0.282678 0
M  V30 18350 H 1843.87 3.38563 1.73653 0
M  V30 18351 H 1843.38 3.88095 -0.019701 0
M  V30 18352 H 1841.49 2.95734 2.26655 0
M  V30 18353 H 1841.6 4.59919 1.34208 0
M  V30 18354 H 1839.96 2.41616 0.805851 0
M  V30 18355 H 1840.75 3.38801 -0.553975 0
M  V30 18356 N 1843.19 -0.216591 1.56105 0
M  V30 18357 C 1844.12 -1.27155 1.95841 0
M  V30 18358 C 1845.1 -1.48626 0.827313 0
M  V30 18359 O 1846.29 -1.60725 1.09 0
M  V30 18360 C 1843.42 -2.62032 2.27939 0
M  V30 18361 C 1842.37 -2.55211 3.43586 0
M  V30 18362 C 1841.7 -3.94163 3.61303 0
M  V30 18363 C 1843 -2.09566 4.78413 0
M  V30 18364 H 1844.69 -0.941435 2.84214 0
M  V30 18365 H 1842.24 -0.451427 1.36741 0
M  V30 18366 H 1844.19 -3.35997 2.5433 0
M  V30 18367 H 1842.91 -2.96742 1.36426 0
M  V30 18368 H 1841.57 -1.83703 3.17252 0
M  V30 18369 H 1841.22 -4.26188 2.67156 0
M  V30 18370 H 1840.92 -3.90479 4.3909 0
M  V30 18371 H 1842.44 -4.69782 3.90047 0
M  V30 18372 H 1843.86 -2.73277 5.03977 0
M  V30 18373 H 1842.26 -2.16931 5.59518 0
M  V30 18374 H 1843.33 -1.0481 4.73437 0
M  V30 18375 N 1844.67 -1.5 -0.48349 0
M  V30 18376 C 1845.9 -1.64105 -1.26004 0
M  V30 18377 C 1846.31 -0.319389 -1.86079 0
M  V30 18378 O 1845.67 0.697243 -1.68656 0
M  V30 18379 C 1845.72 -2.72299 -2.37772 0
M  V30 18380 O 1845.44 -3.99341 -1.80163 0
M  V30 18381 C 1846.94 -2.97266 -3.28858 0
M  V30 18382 H 1844.16 -0.551971 -0.381535 0
M  V30 18383 H 1846.71 -1.96146 -0.57852 0
M  V30 18384 H 1844.86 -2.42987 -3.01722 0
M  V30 18385 H 1845.27 -4.59077 -2.5367 0
M  V30 18386 H 1846.75 -3.76662 -4.03521 0
M  V30 18387 H 1847.23 -2.07855 -3.86902 0
M  V30 18388 H 1847.83 -3.28062 -2.70657 0
M  V30 18389 N 1846.15 0.735796 -1.39369 0
M  V30 18390 C 1847.1 1.8409 -1.34517 0
M  V30 18391 C 1848.08 1.59302 -0.226184 0
M  V30 18392 O 1849.27 1.70819 -0.46365 0
M  V30 18393 C 1846.4 3.22008 -1.19019 0
M  V30 18394 C 1845.49 3.52628 -2.35615 0
M  V30 18395 N 1845.88 3.54189 -3.61087 0
M  V30 18396 C 1844.18 3.82986 -2.28555 0
M  V30 18397 C 1844.88 3.82581 -4.38185 0
M  V30 18398 N 1843.85 4.00315 -3.67762 0
M  V30 18399 H 1847.66 1.83601 -2.29495 0
M  V30 18400 H 1845.17 0.934 -1.32854 0
M  V30 18401 H 1847.17 4.01117 -1.13626 0
M  V30 18402 H 1845.83 3.23737 -0.249907 0
M  V30 18403 H 1846.84 3.3552 -3.94521 0
M  V30 18404 H 1843.51 3.92325 -1.42784 0
M  V30 18405 H 1844.9 3.90263 -5.46941 0
M  V30 18406 N 1847.63 1.24532 0.965897 0
M  V30 18407 C 1848.59 1.04026 2.04233 0
M  V30 18408 C 1849.59 -0.00305855 1.608 0
M  V30 18409 O 1850.78 0.238077 1.72565 0
M  V30 18410 C 1847.91 0.577072 3.3598 0
M  V30 18411 H 1849.1 1.99569 2.23858 0
M  V30 18412 H 1846.66 1.0678 1.14139 0
M  V30 18413 H 1847.39 -0.381471 3.22049 0
M  V30 18414 H 1847.18 1.33012 3.6885 0
M  V30 18415 H 1848.67 0.45469 4.15117 0
M  V30 18416 N 1849.1 -1.16685 1.05936 0
M  V30 18417 C 1850.04 -2.20516 0.624931 0
M  V30 18418 C 1851.05 -1.59719 -0.315206 0
M  V30 18419 O 1852.24 -1.7818 -0.106761 0
M  V30 18420 C 1849.34 -3.38739 -0.10452 0
M  V30 18421 C 1848.51 -4.29097 0.848197 0
M  V30 18422 C 1847.57 -5.25961 0.158648 0
M  V30 18423 O 1846.6 -5.63619 0.795149 0
M  V30 18424 N 1847.8 -5.69961 -1.10115 0
M  V30 18425 H 1850.56 -2.58408 1.51807 0
M  V30 18426 H 1848.12 -1.31658 0.942216 0
M  V30 18427 H 1850.12 -4.00578 -0.576133 0
M  V30 18428 H 1848.69 -2.99382 -0.899414 0
M  V30 18429 H 1847.91 -3.64576 1.49927 0
M  V30 18430 H 1849.19 -4.86352 1.49463 0
M  V30 18431 H 1848.59 -5.41452 -1.63847 0
M  V30 18432 H 1847.15 -6.33908 -1.51669 0
M  V30 18433 N 1850.58 -0.841432 -1.33258 0
M  V30 18434 C 1851.86 -0.360204 -1.92255 0
M  V30 18435 C 1852.24 1.15474 -1.76717 0
M  V30 18436 O 1851.59 1.97035 -1.15713 0
M  V30 18437 C 1851.8 -0.809942 -3.39472 0
M  V30 18438 C 1853.14 -0.819444 -4.16618 0
M  V30 18439 O 1854.17 -0.753715 -3.48134 0
M  V30 18440 O 1853.03 -0.909553 -5.38878 0
M  V30 18441 H 1850.12 -0.102458 -0.820629 0
M  V30 18442 H 1852.67 -0.927455 -1.42114 0
M  V30 18443 H 1851.44 -1.85263 -3.44664 0
M  V30 18444 H 1851.06 -0.219406 -3.96994 0
M  V30 18445 N 1852.06 1.4581 -0.598108 0
M  V30 18446 C 1852.99 2.33223 0.113747 0
M  V30 18447 C 1853.97 1.46268 0.868312 0
M  V30 18448 O 1855.16 1.75058 0.840737 0
M  V30 18449 C 1852.29 3.28815 1.11795 0
M  V30 18450 C 1851.24 4.25331 0.477223 0
M  V30 18451 C 1850.57 5.10544 1.589 0
M  V30 18452 C 1851.87 5.18894 -0.595518 0
M  V30 18453 H 1853.56 2.92992 -0.616123 0
M  V30 18454 H 1851.11 1.40888 -0.297741 0
M  V30 18455 H 1853.06 3.88832 1.62443 0
M  V30 18456 H 1851.78 2.67185 1.87829 0
M  V30 18457 H 1850.44 3.66599 -0.00831044 0
M  V30 18458 H 1850.09 4.45288 2.33939 0
M  V30 18459 H 1849.79 5.75918 1.16584 0
M  V30 18460 H 1851.31 5.73427 2.09794 0
M  V30 18461 H 1852.73 5.73037 -0.173494 0
M  V30 18462 H 1851.12 5.92694 -0.939873 0
M  V30 18463 H 1852.19 4.61895 -1.47584 0
M  V30 18464 N 1853.54 0.336733 1.53961 0
M  V30 18465 C 1854.77 -0.263446 2.05216 0
M  V30 18466 C 1855.18 -1.44752 1.21212 0
M  V30 18467 O 1854.54 -1.80837 0.245844 0
M  V30 18468 C 1854.59 -0.685127 3.54948 0
M  V30 18469 O 1854.31 0.451854 4.35764 0
M  V30 18470 C 1855.81 -1.34674 4.22348 0
M  V30 18471 H 1853.03 -0.0520687 0.668977 0
M  V30 18472 H 1855.57 0.486744 1.98623 0
M  V30 18473 H 1853.73 -1.38527 3.61786 0
M  V30 18474 H 1854.14 0.117076 5.24369 0
M  V30 18475 H 1855.62 -1.59261 5.28526 0
M  V30 18476 H 1856.09 -2.29818 3.74273 0
M  V30 18477 H 1856.7 -0.688817 4.19685 0
M  V30 18478 N 1855.02 -1.57465 0.0651956 0
M  V30 18479 C 1856.43 -1.80728 -0.468449 0
M  V30 18480 C 1856.78 -0.978581 -1.70054 0
M  V30 18481 O 1855.9 -0.199186 -2.15481 0
M  V30 18482 C 1856.5 -3.27791 -0.856641 0
M  V30 18483 C 1855.06 -3.51923 -1.33519 0
M  V30 18484 C 1854.2 -2.7548 -0.317147 0
M  V30 18485 H 1857.15 -1.5601 0.290955 0
M  V30 18486 H 1857.18 -3.39479 -1.71855 0
M  V30 18487 H 1856.69 -3.88079 0.0402823 0
M  V30 18488 H 1854.79 -2.96932 -2.25083 0
M  V30 18489 H 1854.9 -4.60624 -1.31767 0
M  V30 18490 H 1853.27 -2.4204 -0.793026 0
M  V30 18491 H 1854.05 -3.38502 0.571935 0
M  V30 18492 N 1856.49 0.20831 -1.56217 0
M  V30 18493 C 1857.46 1.24178 -1.92646 0
M  V30 18494 C 1858.46 1.39125 -0.806274 0
M  V30 18495 O 1859.65 1.37163 -1.07386 0
M  V30 18496 C 1856.78 2.61342 -2.18891 0
M  V30 18497 H 1857.97 0.930748 -2.85091 0
M  V30 18498 H 1855.52 0.449285 -1.49703 0
M  V30 18499 H 1856.26 2.97521 -1.29041 0
M  V30 18500 H 1856.04 2.51866 -3.00509 0
M  V30 18501 H 1857.53 3.35892 -2.48125 0
M  V30 18502 N 1857.97 1.50255 0.475528 0
M  V30 18503 C 1858.9 1.63428 1.59268 0
M  V30 18504 C 1859.88 0.482517 1.55276 0
M  V30 18505 O 1861.07 0.70144 1.74963 0
M  V30 18506 C 1858.19 1.61277 2.97838 0
M  V30 18507 C 1857.24 2.81961 3.20001 0
M  V30 18508 S 1858.07 4.43321 3.00378 0
M  V30 18509 C 1859.23 4.43855 4.41297 0
M  V30 18510 H 1859.46 2.57928 1.47853 0
M  V30 18511 H 1856.99 1.39462 0.662547 0
M  V30 18512 H 1858.95 1.60721 3.77729 0
M  V30 18513 H 1857.61 0.680212 3.06646 0
M  V30 18514 H 1856.81 2.76747 4.21221 0
M  V30 18515 H 1856.41 2.80061 2.47875 0
M  V30 18516 H 1858.7 4.17145 5.33851 0
M  V30 18517 H 1859.64 5.45439 4.51555 0
M  V30 18518 H 1860.05 3.73616 4.23168 0
M  V30 18519 N 1859.45 -0.728395 1.39758 0
M  V30 18520 C 1860.67 -1.52268 1.40816 0
M  V30 18521 C 1861.1 -1.88099 0.00629167 0
M  V30 18522 O 1860.46 -1.52376 -0.982402 0
M  V30 18523 C 1860.51 -2.78262 2.29353 0
M  V30 18524 O 1859.61 -3.74453 1.72796 0
M  V30 18525 H 1858.95 -0.459582 0.47925 0
M  V30 18526 H 1861.48 -0.898132 1.83833 0
M  V30 18527 H 1861.49 -3.26927 2.44096 0
M  V30 18528 H 1860.17 -2.51515 3.31229 0
M  V30 18529 H 1858.74 -3.33248 1.67332 0
M  V30 18530 N 1860.93 -1.25042 -0.959279 0
M  V30 18531 C 1862.34 -1.08692 -1.51799 0
M  V30 18532 C 1862.69 0.338893 -1.93251 0
M  V30 18533 O 1861.81 1.22831 -1.78162 0
M  V30 18534 C 1862.41 -1.9669 -2.7586 0
M  V30 18535 C 1860.97 -1.84538 -3.28059 0
M  V30 18536 C 1860.12 -1.91119 -2.0092 0
M  V30 18537 H 1863.07 -1.38396 -0.776669 0
M  V30 18538 H 1863.09 -1.50414 -3.49508 0
M  V30 18539 H 1862.6 -3.00455 -2.45659 0
M  V30 18540 H 1860.7 -0.836383 -3.63091 0
M  V30 18541 H 1860.81 -2.69095 -3.96389 0
M  V30 18542 H 1859.18 -1.34948 -2.16012 0
M  V30 18543 H 1859.96 -2.9648 -1.73074 0
M  V30 18544 N 1862.41 1.16121 -1.06553 0
M  V30 18545 C 1863.37 2.18796 -0.682711 0
M  V30 18546 C 1864.37 1.58467 0.272905 0
M  V30 18547 O 1865.56 1.74113 0.0549379 0
M  V30 18548 C 1862.69 3.409 -0.00496866 0
M  V30 18549 H 1863.88 2.54178 -1.59165 0
M  V30 18550 H 1861.44 1.30442 -0.861077 0
M  V30 18551 H 1862.17 3.11077 0.916593 0
M  V30 18552 H 1861.96 3.85942 -0.692165 0
M  V30 18553 H 1863.45 4.1686 0.248503 0
M  V30 18554 N 1863.88 0.848487 1.3281 0
M  V30 18555 C 1865.13 0.44797 1.97073 0
M  V30 18556 C 1865.45 -0.998358 1.67505 0
M  V30 18557 O 1864.72 -1.69683 0.97901 0
M  V30 18558 H 1863.3 0.162663 0.729075 0
M  V30 18559 H 1865.97 1.08356 1.62003 0
M  V30 18560 H 1865.06 0.587939 3.06512 0
M  V30 18561 N 1865.36 -1.4549 0.605832 0
M  V30 18562 C 1866.77 -1.85775 0.18559 0
M  V30 18563 C 1867.12 -1.50638 -1.25708 0
M  V30 18564 O 1866.25 -0.932227 -1.95291 0
M  V30 18565 C 1866.84 -3.37189 0.330043 0
M  V30 18566 C 1865.4 -3.76383 -0.0354934 0
M  V30 18567 C 1864.55 -2.69446 0.655297 0
M  V30 18568 H 1867.5 -1.36316 0.812624 0
M  V30 18569 H 1867.52 -3.77968 -0.438236 0
M  V30 18570 H 1867.03 -3.62731 1.38014 0
M  V30 18571 H 1865.14 -3.56458 -1.08483 0
M  V30 18572 H 1865.25 -4.77769 0.356935 0
M  V30 18573 H 1863.61 -2.5453 0.0931235 0
M  V30 18574 H 1864.4 -2.97825 1.70749 0
M  V30 18575 N 1866.84 -0.344893 -1.5378 0
M  V30 18576 C 1868.26 0.00698009 -1.59598 0
M  V30 18577 C 1868.46 1.48608 -1.36081 0
M  V30 18578 O 1867.51 2.24498 -1.15573 0
M  V30 18579 C 1868.83 -0.430402 -2.97604 0
M  V30 18580 C 1870.37 -0.38286 -3.1065 0
M  V30 18581 C 1870.85 -0.795731 -4.51035 0
M  V30 18582 N 1872.34 -0.74997 -4.57088 0
M  V30 18583 C 1873.07 -1.04137 -5.63864 0
M  V30 18584 N 1872.57 -1.401 -6.78487 0
M  V30 18585 N 1874.36 -0.965521 -5.53746 0
M  V30 18586 H 1866.51 -1.30834 -1.67321 0
M  V30 18587 H 1868.78 -0.533422 -0.783686 0
M  V30 18588 H 1868.48 -1.46174 -3.19884 0
M  V30 18589 H 1868.36 0.193696 -3.76702 0
M  V30 18590 H 1870.74 0.639311 -2.88092 0
M  V30 18591 H 1870.83 -1.04218 -2.33607 0
M  V30 18592 H 1870.47 -1.81592 -4.74328 0
M  V30 18593 H 1870.4 -0.113876 -5.26477 0
M  V30 18594 H 1872.89 -0.48474 -3.74778 0
M  V30 18595 H 1873.2 -1.60815 -7.55882 0
M  V30 18596 H 1871.55 -1.43946 -6.7993 0
M  V30 18597 H 1874.74 -0.683902 -4.63077 0
M  V30 18598 H 1874.91 -1.19596 -6.36868 0
M  V30 18599 N 1868.32 1.57428 -0.0735454 0
M  V30 18600 C 1869.73 1.80973 0.458858 0
M  V30 18601 C 1870.08 0.987586 1.69532 0
M  V30 18602 O 1869.21 0.210611 2.15373 0
M  V30 18603 C 1869.8 3.28241 0.839246 0
M  V30 18604 C 1868.36 3.52626 1.3165 0
M  V30 18605 C 1867.51 2.75645 0.302533 0
M  V30 18606 H 1870.46 1.55854 -0.299225 0
M  V30 18607 H 1870.48 3.40386 1.70052 0
M  V30 18608 H 1869.99 3.88052 -0.0608625 0
M  V30 18609 H 1868.09 2.98121 2.23505 0
M  V30 18610 H 1868.2 4.61316 1.29322 0
M  V30 18611 H 1866.57 2.42457 0.780179 0
M  V30 18612 H 1867.35 3.38194 -0.589878 0
M  V30 18613 N 1869.8 -0.200022 1.56326 0
M  V30 18614 C 1871.21 -0.550653 1.498 0
M  V30 18615 C 1871.41 -1.86097 0.772664 0
M  V30 18616 O 1870.47 -2.50449 0.321155 0
M  V30 18617 C 1871.78 -0.60995 2.94449 0
M  V30 18618 C 1873.33 -0.699119 3.05092 0
M  V30 18619 C 1873.8 -0.78957 4.51143 0
M  V30 18620 N 1875.3 -0.853228 4.55274 0
M  V30 18621 C 1876.03 -0.943298 5.65588 0
M  V30 18622 N 1875.53 -0.995976 6.85603 0
M  V30 18623 N 1877.32 -0.980106 5.53489 0
M  V30 18624 H 1869.47 0.659543 2.019 0
M  V30 18625 H 1871.73 0.234299 0.91859 0
M  V30 18626 H 1871.44 0.283651 3.50554 0
M  V30 18627 H 1871.31 -1.46632 3.47533 0
M  V30 18628 H 1873.7 -1.58315 2.49039 0
M  V30 18629 H 1873.78 0.183351 2.55142 0
M  V30 18630 H 1873.43 0.0900924 5.0782 0
M  V30 18631 H 1873.36 -1.68777 4.9882 0
M  V30 18632 H 1875.85 -0.821964 3.68853 0
M  V30 18633 H 1876.16 -1.06508 7.65425 0
M  V30 18634 H 1874.5 -0.964738 6.88272 0
M  V30 18635 H 1877.7 -0.935755 4.58652 0
M  V30 18636 H 1877.87 -1.04684 6.39488 0
M  V30 18637 N 1871.27 -1.50505 -0.467553 0
M  V30 18638 C 1872.69 -1.54489 -1.04833 0
M  V30 18639 C 1873.04 -0.350468 -1.93044 0
M  V30 18640 O 1872.16 0.536238 -2.09651 0
M  V30 18641 C 1872.76 -2.79967 -1.90799 0
M  V30 18642 C 1871.32 -2.86621 -2.43979 0
M  V30 18643 C 1870.46 -2.48819 -1.22412 0
M  V30 18644 H 1873.41 -1.56718 -0.250025 0
M  V30 18645 H 1873.43 -2.62022 -2.75907 0
M  V30 18646 H 1872.95 -3.66881 -1.2657 0
M  V30 18647 H 1871.05 -2.04066 -3.11749 0
M  V30 18648 H 1871.16 -3.89594 -2.78843 0
M  V30 18649 H 1869.52 -2.01335 -1.56001 0
M  V30 18650 H 1870.31 -3.38044 -0.598405 0
M  V30 18651 N 1872.75 0.720973 -1.40142 0
M  V30 18652 C 1874.16 1.29988 -1.34015 0
M  V30 18653 C 1874.51 1.96197 -0.0110816 0
M  V30 18654 O 1873.64 1.97207 0.890984 0
M  V30 18655 C 1874.23 2.36373 -2.42721 0
M  V30 18656 C 1872.79 2.89902 -2.40071 0
M  V30 18657 C 1871.94 1.63627 -2.23878 0
M  V30 18658 H 1874.89 0.51748 -1.50026 0
M  V30 18659 H 1874.91 3.17091 -2.10317 0
M  V30 18660 H 1874.42 1.88156 -3.39439 0
M  V30 18661 H 1872.53 3.42362 -1.47033 0
M  V30 18662 H 1872.64 3.42062 -3.35456 0
M  V30 18663 H 1871 1.88491 -1.71298 0
M  V30 18664 H 1871.79 1.17442 -3.22587 0
M  V30 18665 N 1874.23 1.25549 0.952634 0
M  V30 18666 C 1875.46 1.13162 1.73211 0
M  V30 18667 C 1875.87 -0.314383 1.86164 0
M  V30 18668 O 1875.23 -1.21608 1.3608 0
M  V30 18669 C 1875.28 1.78273 3.14485 0
M  V30 18670 O 1875 3.17221 3.02163 0
M  V30 18671 C 1876.5 1.71691 4.08702 0
M  V30 18672 H 1873.72 0.394613 0.542698 0
M  V30 18673 H 1876.27 1.65951 1.19502 0
M  V30 18674 H 1874.42 1.2945 3.65132 0
M  V30 18675 H 1874.84 3.49266 3.91297 0
M  V30 18676 H 1876.31 2.21906 5.05432 0
M  V30 18677 H 1876.79 0.681094 4.33887 0
M  V30 18678 H 1877.39 2.20012 3.63971 0
M  V30 18679 N 1875.71 -1.15554 1.07168 0
M  V30 18680 C 1876.67 -2.18431 0.694305 0
M  V30 18681 C 1877.67 -1.5861 -0.264497 0
M  V30 18682 O 1878.86 -1.7414 -0.0457035 0
M  V30 18683 C 1875.99 -3.40892 0.0230473 0
M  V30 18684 H 1877.19 -2.53331 1.60511 0
M  V30 18685 H 1874.74 -1.29984 0.867982 0
M  V30 18686 H 1875.47 -3.11559 -0.900083 0
M  V30 18687 H 1875.26 -3.8557 0.712622 0
M  V30 18688 H 1876.75 -4.16986 -0.226392 0
M  V30 18689 N 1877.19 -0.855519 -1.32358 0
M  V30 18690 C 1878.43 -0.460002 -1.97514 0
M  V30 18691 C 1878.77 0.982052 -1.67539 0
M  V30 18692 O 1878.04 1.68925 -0.964091 0
M  V30 18693 C 1878.32 -0.70064 -3.53218 0
M  V30 18694 C 1878.18 -2.19118 -3.9282 0
M  V30 18695 C 1879.5 -0.157597 -4.39818 0
M  V30 18696 H 1876.62 -0.168606 -0.717455 0
M  V30 18697 H 1879.26 -1.0741 -1.56726 0
M  V30 18698 H 1877.41 -0.177937 -3.88092 0
M  V30 18699 H 1879.08 -2.78002 -3.6812 0
M  V30 18700 H 1877.32 -2.66934 -3.41948 0
M  V30 18701 H 1877.99 -2.31024 -5.0133 0
M  V30 18702 H 1880.47 -0.604597 -4.11684 0
M  V30 18703 H 1879.35 -0.355532 -5.47747 0
M  V30 18704 H 1879.61 0.939679 -4.31998 0
M  V30 18705 N 1878.67 1.45167 -0.61354 0
M  V30 18706 C 1879.94 1.95553 -0.042781 0
M  V30 18707 C 1880.32 1.55588 1.42673 0
M  V30 18708 O 1879.67 0.821325 2.13229 0
M  V30 18709 C 1879.88 3.48124 -0.247141 0
M  V30 18710 C 1881.23 4.24398 -0.131068 0
M  V30 18711 O 1882.25 3.55757 -0.177576 0
M  V30 18712 O 1881.11 5.46496 -0.0211683 0
M  V30 18713 H 1878.21 0.826367 0.0323494 0
M  V30 18714 H 1880.75 1.55304 -0.684017 0
M  V30 18715 H 1879.52 3.70202 -1.26751 0
M  V30 18716 H 1879.15 3.95278 0.429074 0
M  V30 18717 N 1880.14 0.353044 1.53595 0
M  V30 18718 C 1881.55 -0.128852 1.86255 0
M  V30 18719 C 1881.91 -1.49209 1.27402 0
M  V30 18720 O 1881.03 -2.08167 0.591222 0
M  V30 18721 C 1881.63 -0.240583 3.37945 0
M  V30 18722 C 1880.18 -0.66672 3.70448 0
M  V30 18723 C 1879.33 0.193757 2.76622 0
M  V30 18724 H 1882.28 0.5723 1.48022 0
M  V30 18725 H 1882.3 -1.06641 3.65251 0
M  V30 18726 H 1881.82 0.75174 3.8075 0
M  V30 18727 H 1879.92 -1.66773 3.33193 0
M  V30 18728 H 1880.03 -0.450026 4.76982 0
M  V30 18729 H 1878.39 -0.335406 2.52482 0
M  V30 18730 H 1879.18 1.18339 3.22259 0
M  V30 18731 N 1881.62 -1.57387 0.0818932 0
M  V30 18732 C 1882.9 -1.85297 -0.626447 0
M  V30 18733 C 1883.28 -0.976281 -1.87168 0
M  V30 18734 O 1882.63 -0.0451999 -2.28455 0
M  V30 18735 C 1882.84 -3.35695 -0.954461 0
M  V30 18736 C 1884.18 -4.03442 -1.32361 0
M  V30 18737 O 1885.21 -3.40499 -1.04588 0
M  V30 18738 O 1884.07 -5.1448 -1.84317 0
M  V30 18739 H 1881.16 -0.765835 -0.31213 0
M  V30 18740 H 1883.71 -1.69319 0.11359 0
M  V30 18741 H 1882.48 -3.91237 -0.0704846 0
M  V30 18742 H 1882.1 -3.56971 -1.75092 0
M  V30 18743 N 1883.1 0.191729 -1.56429 0
M  V30 18744 C 1884.06 1.22128 -1.93952 0
M  V30 18745 C 1885.06 1.38262 -0.820984 0
M  V30 18746 O 1886.25 1.36017 -1.08835 0
M  V30 18747 C 1883.38 2.59005 -2.21651 0
M  V30 18748 H 1884.58 0.900458 -2.86063 0
M  V30 18749 H 1882.13 0.433382 -1.50172 0
M  V30 18750 H 1882.87 2.96136 -1.32189 0
M  V30 18751 H 1882.65 2.48665 -3.03164 0
M  V30 18752 H 1884.14 3.33242 -2.51674 0
M  V30 18753 N 1884.58 1.50751 0.459565 0
M  V30 18754 C 1885.49 1.7326 1.58171 0
M  V30 18755 C 1886.5 0.616042 1.6273 0
M  V30 18756 O 1887.68 0.895726 1.80385 0
M  V30 18757 C 1884.74 1.83249 2.94314 0
M  V30 18758 C 1883.81 3.07031 3.00051 0
M  V30 18759 C 1883.04 3.16534 4.297 0
M  V30 18760 O 1883.26 2.32532 5.2085 0
M  V30 18761 O 1882.2 4.0935 4.41266 0
M  V30 18762 H 1886.02 2.68406 1.42098 0
M  V30 18763 H 1883.61 1.34985 0.640273 0
M  V30 18764 H 1885.49 1.91933 3.75153 0
M  V30 18765 H 1884.16 0.912887 3.10561 0
M  V30 18766 H 1883.07 3.0384 2.18248 0
M  V30 18767 H 1884.4 3.98608 2.88743 0
M  V30 18768 N 1886.06 -0.713531 1.40522 0
M  V30 18769 C 1887.47 -1.29276 1.34702 0
M  V30 18770 C 1887.82 -1.96188 0.0214862 0
M  V30 18771 O 1886.94 -1.97676 -0.880513 0
M  V30 18772 C 1887.54 -2.35082 2.43971 0
M  V30 18773 C 1886.1 -2.88624 2.41605 0
M  V30 18774 C 1885.24 -1.62437 2.24743 0
M  V30 18775 H 1888.19 -0.509517 1.50298 0
M  V30 18776 H 1888.22 -3.15971 2.11996 0
M  V30 18777 H 1887.73 -1.86353 3.40432 0
M  V30 18778 H 1885.83 -3.41578 1.48847 0
M  V30 18779 H 1885.94 -3.40278 3.37265 0
M  V30 18780 H 1884.31 -1.8758 1.72296 0
M  V30 18781 H 1885.09 -1.1573 3.23205 0
M  V30 18782 N 1887.53 -1.26053 -0.945962 0
M  V30 18783 C 1888.76 -1.14079 -1.72608 0
M  V30 18784 C 1889.18 0.304506 -1.86328 0
M  V30 18785 O 1888.53 1.20885 -1.36723 0
M  V30 18786 C 1888.58 -1.79938 -3.13535 0
M  V30 18787 O 1888.31 -3.18819 -3.00476 0
M  V30 18788 C 1889.81 -1.73856 -4.07785 0
M  V30 18789 H 1887.03 -0.397486 -0.540598 0
M  V30 18790 H 1889.57 -1.66582 -1.1862 0
M  V30 18791 H 1887.73 -1.31385 -3.6444 0
M  V30 18792 H 1888.14 -3.51337 -3.89439 0
M  V30 18793 H 1889.61 -2.24584 -5.04248 0
M  V30 18794 H 1890.09 -0.704095 -4.33519 0
M  V30 18795 H 1890.7 -2.21939 -3.62799 0
M  V30 18796 N 1889.01 1.14984 -1.07779 0
M  V30 18797 C 1889.94 2.22006 -0.723564 0
M  V30 18798 C 1890.92 1.67592 0.291024 0
M  V30 18799 O 1892.11 1.93516 0.162812 0
M  V30 18800 C 1889.24 3.47074 -0.125223 0
M  V30 18801 C 1888.19 4.14475 -1.06745 0
M  V30 18802 C 1887.52 5.33671 -0.331643 0
M  V30 18803 C 1888.82 4.63744 -2.4029 0
M  V30 18804 H 1890.51 2.51893 -1.61834 0
M  V30 18805 H 1888.06 1.21073 -0.779571 0
M  V30 18806 H 1890.01 4.21185 0.134555 0
M  V30 18807 H 1888.73 3.16533 0.804654 0
M  V30 18808 H 1887.39 3.4231 -1.31222 0
M  V30 18809 H 1887.04 4.99387 0.601833 0
M  V30 18810 H 1886.74 5.7971 -0.959721 0
M  V30 18811 H 1888.27 6.10548 -0.0797668 0
M  V30 18812 H 1889.68 5.2936 -2.20115 0
M  V30 18813 H 1888.08 5.20461 -2.98732 0
M  V30 18814 H 1889.15 3.79151 -3.02279 0
M  V30 18815 N 1890.49 0.862526 1.31902 0
M  V30 18816 C 1891.42 0.328423 2.31179 0
M  V30 18817 C 1892.4 -0.57668 1.60026 0
M  V30 18818 O 1893.59 -0.49527 1.87778 0
M  V30 18819 C 1890.72 -0.47734 3.44004 0
M  V30 18820 C 1889.67 0.334015 4.26695 0
M  V30 18821 C 1889 -0.596973 5.31357 0
M  V30 18822 C 1890.3 1.56405 4.98332 0
M  V30 18823 H 1891.99 1.15797 2.761 0
M  V30 18824 H 1889.54 0.558268 1.32738 0
M  V30 18825 H 1891.49 -0.861461 4.12501 0
M  V30 18826 H 1890.21 -1.34033 2.9783 0
M  V30 18827 H 1888.87 0.699989 3.59855 0
M  V30 18828 H 1888.52 -1.45703 4.81435 0
M  V30 18829 H 1888.22 -0.0580517 5.87571 0
M  V30 18830 H 1889.74 -0.978099 6.02715 0
M  V30 18831 H 1891.16 1.25178 5.59467 0
M  V30 18832 H 1889.55 2.04149 5.64308 0
M  V30 18833 H 1890.62 2.32099 4.25744 0
M  V30 18834 N 1891.97 -1.4484 0.62123 0
M  V30 18835 C 1893.38 -1.57016 0.286009 0
M  V30 18836 C 1893.58 -1.6104 -1.21113 0
M  V30 18837 O 1892.64 -1.54807 -1.99477 0
M  V30 18838 C 1893.95 -2.84652 0.969209 0
M  V30 18839 C 1895.5 -2.98349 0.946414 0
M  V30 18840 C 1895.98 -4.28773 1.60989 0
M  V30 18841 N 1897.47 -4.35564 1.57601 0
M  V30 18842 C 1898.2 -5.3518 2.0584 0
M  V30 18843 N 1897.7 -6.41256 2.62226 0
M  V30 18844 N 1899.49 -5.26625 1.96527 0
M  V30 18845 H 1891.64 -1.40471 1.59316 0
M  V30 18846 H 1893.91 -0.672493 0.668174 0
M  V30 18847 H 1893.61 -2.87629 2.02392 0
M  V30 18848 H 1893.49 -3.7386 0.500859 0
M  V30 18849 H 1895.87 -2.94931 -0.0997935 0
M  V30 18850 H 1895.95 -2.10516 1.45316 0
M  V30 18851 H 1895.6 -4.3295 2.65549 0
M  V30 18852 H 1895.53 -5.15447 1.07805 0
M  V30 18853 H 1898.02 -3.59519 1.16424 0
M  V30 18854 H 1898.33 -7.13536 2.96792 0
M  V30 18855 H 1896.68 -6.41969 2.66272 0
M  V30 18856 H 1899.87 -4.42664 1.52206 0
M  V30 18857 H 1900.04 -6.04107 2.34434 0
M  V30 18858 N 1893.45 -0.361184 -1.53405 0
M  V30 18859 C 1894.36 0.495394 -2.2931 0
M  V30 18860 C 1895.37 1.09649 -1.35104 0
M  V30 18861 O 1896.55 1.10838 -1.68158 0
M  V30 18862 C 1893.61 1.62176 -3.06431 0
M  V30 18863 C 1892.67 1.04865 -4.16295 0
M  V30 18864 C 1891.91 2.12134 -4.89729 0
M  V30 18865 O 1892.13 3.33169 -4.62985 0
M  V30 18866 O 1891.06 1.75438 -5.75765 0
M  V30 18867 H 1894.89 -0.122155 -3.03454 0
M  V30 18868 H 1892.48 -0.125695 -1.4887 0
M  V30 18869 H 1894.36 2.27673 -3.54603 0
M  V30 18870 H 1893.03 2.22479 -2.35127 0
M  V30 18871 H 1891.94 0.357717 -3.72386 0
M  V30 18872 H 1893.27 0.490239 -4.89752 0
M  V30 18873 N 1894.92 1.57341 -0.0902386 0
M  V30 18874 C 1896.34 1.8145 0.439638 0
M  V30 18875 C 1896.69 1.00551 1.68475 0
M  V30 18876 O 1895.81 0.233442 2.15137 0
M  V30 18877 C 1896.41 3.29113 0.804384 0
M  V30 18878 C 1894.97 3.54003 1.27903 0
M  V30 18879 C 1894.11 2.7595 0.27328 0
M  V30 18880 H 1897.06 1.55527 -0.315738 0
M  V30 18881 H 1897.08 3.4217 1.66432 0
M  V30 18882 H 1896.6 3.87966 -0.102017 0
M  V30 18883 H 1894.7 3.00475 2.20331 0
M  V30 18884 H 1894.81 4.62662 1.24422 0
M  V30 18885 H 1893.17 2.43271 0.754419 0
M  V30 18886 H 1893.96 3.3755 -0.625715 0
M  V30 18887 N 1896.4 -0.183431 1.56529 0
M  V30 18888 C 1897.33 -1.25157 1.92011 0
M  V30 18889 C 1898.35 -1.41107 0.811945 0
M  V30 18890 O 1899.54 -1.41326 1.09038 0
M  V30 18891 C 1896.64 -2.62206 2.14712 0
M  V30 18892 C 1895.81 -2.67712 3.45903 0
M  V30 18893 C 1894.87 -3.86038 3.57576 0
M  V30 18894 O 1893.89 -3.72599 4.30301 0
M  V30 18895 N 1895.1 -5.01988 2.91528 0
M  V30 18896 H 1897.86 -0.950304 2.84235 0
M  V30 18897 H 1895.42 -0.373278 1.57538 0
M  V30 18898 H 1897.41 -3.3981 2.19798 0
M  V30 18899 H 1895.98 -2.84772 1.28932 0
M  V30 18900 H 1895.2 -1.76294 3.52582 0
M  V30 18901 H 1896.49 -2.68392 4.32254 0
M  V30 18902 H 1895.89 -5.15807 2.32292 0
M  V30 18903 H 1894.45 -5.77497 3.02225 0
M  V30 18904 N 1897.88 -1.50992 -0.451564 0
M  V30 18905 C 1898.84 -1.70703 -1.52949 0
M  V30 18906 C 1899.84 -0.577275 -1.50081 0
M  V30 18907 O 1901.03 -0.844619 -1.52354 0
M  V30 18908 C 1898.17 -1.75035 -2.92533 0
M  V30 18909 H 1899.36 -2.66891 -1.36782 0
M  V30 18910 H 1896.91 -1.40767 -0.679285 0
M  V30 18911 H 1897.65 -0.806096 -3.14122 0
M  V30 18912 H 1897.43 -2.57126 -2.96021 0
M  V30 18913 H 1898.92 -1.92171 -3.70756 0
M  V30 18914 N 1899.36 0.706069 -1.40899 0
M  V30 18915 C 1900.59 1.49504 -1.43025 0
M  V30 18916 C 1901 1.88772 -0.0325752 0
M  V30 18917 O 1900.36 1.56085 0.945716 0
M  V30 18918 C 1900.41 2.76431 -2.32955 0
M  V30 18919 O 1900.13 2.38821 -3.67282 0
M  V30 18920 C 1901.63 3.70255 -2.43774 0
M  V30 18921 H 1898.85 0.461069 -0.4875 0
M  V30 18922 H 1901.4 0.870198 -1.85062 0
M  V30 18923 H 1899.55 3.35177 -1.94255 0
M  V30 18924 H 1899.96 3.2056 -4.1514 0
M  V30 18925 H 1901.44 4.56129 -3.10887 0
M  V30 18926 H 1901.92 4.14021 -1.46573 0
M  V30 18927 H 1902.52 3.17417 -2.83066 0
M  V30 18928 N 1900.84 1.26553 0.939264 0
M  V30 18929 C 1902.08 1.12376 1.68818 0
M  V30 18930 C 1902.42 -0.331784 1.91345 0
M  V30 18931 O 1901.69 -1.24359 1.4955 0
M  V30 18932 C 1901.97 1.89541 3.0618 0
M  V30 18933 C 1901.83 3.43014 2.90966 0
M  V30 18934 C 1903.15 1.69074 4.06327 0
M  V30 18935 H 1900.26 0.409616 0.612686 0
M  V30 18936 H 1902.91 1.55571 1.09076 0
M  V30 18937 H 1901.06 1.5283 3.57177 0
M  V30 18938 H 1902.73 3.89489 2.47176 0
M  V30 18939 H 1900.97 3.69942 2.26551 0
M  V30 18940 H 1901.64 3.92236 3.88401 0
M  V30 18941 H 1904.12 2.01061 3.64299 0
M  V30 18942 H 1902.99 2.25478 5.00451 0
M  V30 18943 H 1903.26 0.635787 4.37504 0
M  V30 18944 N 1902.31 -1.14411 1.08387 0
M  V30 18945 C 1903.56 -1.85719 0.814638 0
M  V30 18946 C 1903.89 -1.82715 -0.657934 0
M  V30 18947 O 1903.17 -1.2577 -1.48365 0
M  V30 18948 C 1903.45 -3.34363 1.33691 0
M  V30 18949 C 1903.3 -3.4594 2.87481 0
M  V30 18950 C 1904.62 -4.29457 0.962006 0
M  V30 18951 H 1901.74 -0.674332 0.297399 0
M  V30 18952 H 1904.38 -1.34354 1.34346 0
M  V30 18953 H 1902.53 -3.78237 0.887082 0
M  V30 18954 H 1904.21 -3.10854 3.40833 0
M  V30 18955 H 1902.45 -2.87158 3.25151 0
M  V30 18956 H 1903.12 -4.50423 3.19097 0
M  V30 18957 H 1905.6 -3.93599 1.34979 0
M  V30 18958 H 1904.47 -5.31922 1.35464 0
M  V30 18959 H 1904.73 -4.41906 -0.130987 0
M  V30 18960 N 1903.79 -0.869509 -1.31443 0
M  V30 18961 C 1905.04 -0.480214 -1.96724 0
M  V30 18962 C 1905.37 0.967405 -1.68735 0
M  V30 18963 O 1904.62 1.69616 -0.976162 0
M  V30 18964 C 1904.92 -0.683486 -3.50804 0
M  V30 18965 C 1904.59 -2.10382 -3.98811 0
M  V30 18966 C 1903.25 -2.49226 -4.11631 0
M  V30 18967 C 1905.6 -3.03015 -4.24065 0
M  V30 18968 C 1902.93 -3.79944 -4.47057 0
M  V30 18969 C 1905.28 -4.33248 -4.60954 0
M  V30 18970 C 1903.95 -4.72006 -4.71982 0
M  V30 18971 H 1903.22 -0.175723 -0.719863 0
M  V30 18972 H 1905.86 -1.10241 -1.56586 0
M  V30 18973 H 1904.17 0.0218481 -3.91794 0
M  V30 18974 H 1905.86 -0.362105 -3.99362 0
M  V30 18975 H 1902.45 -1.79225 -3.89328 0
M  V30 18976 H 1906.64 -2.74232 -4.13655 0
M  V30 18977 H 1901.89 -4.09736 -4.53792 0
M  V30 18978 H 1906.07 -5.05077 -4.79448 0
M  V30 18979 H 1903.7 -5.73337 -4.99188 0
M  V30 18980 N 1905.27 1.44508 -0.628902 0
M  V30 18981 C 1906.5 2.06429 -0.13951 0
M  V30 18982 C 1906.91 1.46981 1.18499 0
M  V30 18983 O 1906.27 0.591856 1.72636 0
M  V30 18984 C 1906.32 3.61496 -0.016195 0
M  V30 18985 O 1906.04 4.18729 -1.28831 0
M  V30 18986 C 1907.54 4.40447 0.502154 0
M  V30 18987 H 1904.76 0.666375 -0.0786479 0
M  V30 18988 H 1907.31 1.85414 -0.862674 0
M  V30 18989 H 1905.46 3.81781 0.657398 0
M  V30 18990 H 1905.88 5.12145 -1.13171 0
M  V30 18991 H 1907.35 5.49377 0.537458 0
M  V30 18992 H 1907.83 4.11735 1.52876 0
M  V30 18993 H 1908.43 4.25076 -0.138113 0
M  V30 18994 N 1906.75 0.369315 1.53212 0
M  V30 18995 C 1907.98 -0.219858 2.05729 0
M  V30 18996 C 1908.39 -1.42148 1.24255 0
M  V30 18997 O 1907.75 -1.80274 0.284146 0
M  V30 18998 C 1907.8 -0.609683 3.56322 0
M  V30 18999 O 1907.52 0.544184 4.34707 0
M  V30 19000 C 1909.02 -1.25685 4.2511 0
M  V30 19001 H 1906.24 -0.037867 0.669931 0
M  V30 19002 H 1908.79 0.528765 1.97546 0
M  V30 19003 H 1906.94 -1.30822 3.64643 0
M  V30 19004 H 1907.36 0.228276 5.24003 0
M  V30 19005 H 1908.83 -1.48014 5.31785 0
M  V30 19006 H 1909.31 -2.21827 3.79064 0
M  V30 19007 H 1909.91 -0.59964 4.21052 0
M  V30 19008 N 1908.23 -1.57291 0.0985816 0
M  V30 19009 C 1909.18 -2.10757 -0.869797 0
M  V30 19010 C 1910.16 -1.02343 -1.24156 0
M  V30 19011 O 1911.35 -1.28612 -1.21606 0
M  V30 19012 C 1908.48 -2.69425 -2.12756 0
M  V30 19013 C 1907.57 -3.84888 -1.78107 0
M  V30 19014 N 1907.96 -4.92778 -1.14034 0
M  V30 19015 C 1906.26 -3.94688 -2.07695 0
M  V30 19016 C 1906.96 -5.73373 -0.980736 0
M  V30 19017 N 1905.93 -5.22519 -1.49917 0
M  V30 19018 H 1909.74 -2.91555 -0.370523 0
M  V30 19019 H 1907.25 -1.62063 -0.104525 0
M  V30 19020 H 1909.25 -3.0606 -2.83077 0
M  V30 19021 H 1907.91 -1.90083 -2.63246 0
M  V30 19022 H 1908.92 -5.11578 -0.806735 0
M  V30 19023 H 1905.6 -3.2636 -2.60375 0
M  V30 19024 H 1906.99 -6.70188 -0.479379 0
M  V30 19025 N 1909.71 0.175127 -1.56624 0
M  V30 19026 C 1910.95 0.89369 -1.82047 0
M  V30 19027 C 1911.28 1.82061 -0.675831 0
M  V30 19028 O 1910.56 1.91808 0.322453 0
M  V30 19029 C 1910.84 1.69266 -3.17838 0
M  V30 19030 C 1910.7 0.789122 -4.42824 0
M  V30 19031 C 1912.01 2.66115 -3.50529 0
M  V30 19032 H 1909.13 0.323454 -0.662228 0
M  V30 19033 H 1911.78 0.160077 -1.89324 0
M  V30 19034 H 1909.93 2.31808 -3.11765 0
M  V30 19035 H 1911.6 0.17687 -4.60961 0
M  V30 19036 H 1909.84 0.0969508 -4.33692 0
M  V30 19037 H 1910.51 1.38358 -5.34379 0
M  V30 19038 H 1912.99 2.137 -3.57031 0
M  V30 19039 H 1911.86 3.19087 -4.46626 0
M  V30 19040 H 1912.12 3.4613 -2.75038 0
M  V30 19041 N 1911.18 1.5123 0.44355 0
M  V30 19042 C 1912.59 1.56137 1.02362 0
M  V30 19043 C 1912.95 0.381135 1.92462 0
M  V30 19044 O 1912.07 -0.502817 2.10477 0
M  V30 19045 C 1912.67 2.82967 1.8632 0
M  V30 19046 C 1911.22 2.90466 2.39388 0
M  V30 19047 C 1910.37 2.50735 1.18438 0
M  V30 19048 H 1913.32 1.57096 0.22506 0
M  V30 19049 H 1913.34 2.66378 2.71704 0
M  V30 19050 H 1912.86 3.68848 1.20717 0
M  V30 19051 H 1910.96 2.09 3.08463 0
M  V30 19052 H 1911.07 3.9398 2.7261 0
M  V30 19053 H 1909.43 2.03792 1.52778 0
M  V30 19054 H 1910.22 3.38954 0.544549 0
M  V30 19055 N 1912.66 -0.698586 1.41271 0
M  V30 19056 C 1913.89 -1.48743 1.43816 0
M  V30 19057 C 1914.3 -1.88752 0.0425858 0
M  V30 19058 O 1913.66 -1.56584 -0.937425 0
M  V30 19059 C 1913.71 -2.75192 2.34418 0
M  V30 19060 O 1913.43 -2.36869 3.68544 0
M  V30 19061 C 1914.93 -3.68957 2.45735 0
M  V30 19062 H 1912.15 -0.458477 0.489938 0
M  V30 19063 H 1914.7 -0.860372 1.85521 0
M  V30 19064 H 1912.85 -3.34142 1.9603 0
M  V30 19065 H 1913.27 -3.18354 4.16834 0
M  V30 19066 H 1914.74 -4.54473 3.13302 0
M  V30 19067 H 1915.22 -4.13237 1.48767 0
M  V30 19068 H 1915.82 -3.15912 2.84745 0
M  V30 19069 N 1914.14 -1.27049 -0.93254 0
M  V30 19070 C 1915.07 -1.11867 -2.04959 0
M  V30 19071 C 1916.05 -0.0214563 -1.70086 0
M  V30 19072 O 1917.24 -0.195063 -1.93218 0
M  V30 19073 C 1914.37 -0.759993 -3.38883 0
M  V30 19074 C 1913.32 -1.8099 -3.87849 0
M  V30 19075 C 1912.65 -1.30532 -5.18522 0
M  V30 19076 C 1913.95 -3.21309 -4.11774 0
M  V30 19077 H 1915.64 -2.05309 -2.17918 0
M  V30 19078 H 1913.19 -0.988507 -1.04712 0
M  V30 19079 H 1915.14 -0.640623 -4.16502 0
M  V30 19080 H 1913.86 0.210139 -3.25923 0
M  V30 19081 H 1912.52 -1.91809 -3.12418 0
M  V30 19082 H 1912.17 -0.324784 -5.0195 0
M  V30 19083 H 1911.87 -2.00722 -5.52254 0
M  V30 19084 H 1913.39 -1.19879 -5.98716 0
M  V30 19085 H 1914.81 -3.13517 -4.79979 0
M  V30 19086 H 1913.2 -3.89166 -4.56804 0
M  V30 19087 H 1914.27 -3.66722 -3.17243 0
M  V30 19088 N 1915.62 1.13835 -1.08993 0
M  V30 19089 C 1916.87 1.84645 -0.82163 0
M  V30 19090 C 1917.19 1.83685 0.65458 0
M  V30 19091 O 1916.46 1.28948 1.47477 0
M  V30 19092 H 1915.04 0.683691 -0.300958 0
M  V30 19093 H 1917.7 1.37915 -1.37715 0
M  V30 19094 H 1916.79 2.89292 -1.17117 0
M  V30 19095 N 1917.1 0.876467 1.3098 0
M  V30 19096 C 1918.51 0.569284 1.49102 0
M  V30 19097 C 1918.71 -0.895048 1.8053 0
M  V30 19098 O 1917.77 -1.67682 1.88783 0
M  V30 19099 C 1919.08 1.4751 2.62033 0
M  V30 19100 C 1920.63 1.47783 2.75915 0
M  V30 19101 C 1921.1 2.36937 3.9195 0
M  V30 19102 N 1922.59 2.34853 3.99247 0
M  V30 19103 C 1923.33 3.00553 4.88319 0
M  V30 19104 N 1922.83 3.75446 5.82247 0
M  V30 19105 N 1924.62 2.89828 4.81618 0
M  V30 19106 H 1916.77 1.82388 1.08851 0
M  V30 19107 H 1919.03 0.780233 0.538461 0
M  V30 19108 H 1918.74 2.51737 2.45605 0
M  V30 19109 H 1918.61 1.1784 3.5832 0
M  V30 19110 H 1921 0.443113 2.91754 0
M  V30 19111 H 1921.08 1.81479 1.80275 0
M  V30 19112 H 1920.72 3.40488 3.76869 0
M  V30 19113 H 1920.65 2.00561 4.86911 0
M  V30 19114 H 1923.15 1.80421 3.32049 0
M  V30 19115 H 1923.46 4.2269 6.46957 0
M  V30 19116 H 1921.8 3.79554 5.82206 0
M  V30 19117 H 1924.99 2.30852 4.07216 0
M  V30 19118 H 1925.17 3.41309 5.50829 0
M  V30 19119 N 1918.57 -1.44173 0.636557 0
M  V30 19120 C 1919.8 -2.06053 0.150237 0
M  V30 19121 C 1920.21 -1.47684 -1.18263 0
M  V30 19122 O 1919.55 -0.596274 -1.73753 0
M  V30 19123 C 1919.62 -3.59485 -0.0331338 0
M  V30 19124 C 1919.28 -4.40348 1.22241 0
M  V30 19125 C 1920.28 -4.73481 2.14736 0
M  V30 19126 C 1917.96 -4.80633 1.45934 0
M  V30 19127 C 1919.96 -5.45789 3.29231 0
M  V30 19128 C 1917.64 -5.5269 2.60725 0
M  V30 19129 C 1918.64 -5.85188 3.52199 0
M  V30 19130 O 1918.33 -6.55776 4.64987 0
M  V30 19131 H 1918.06 -0.671316 0.0794375 0
M  V30 19132 H 1920.62 -1.85942 0.872618 0
M  V30 19133 H 1918.85 -3.78106 -0.810716 0
M  V30 19134 H 1920.53 -4.03115 -0.474694 0
M  V30 19135 H 1921.3 -4.42891 1.97668 0
M  V30 19136 H 1917.18 -4.54755 0.756218 0
M  V30 19137 H 1920.72 -5.71073 4.00651 0
M  V30 19138 H 1916.62 -5.82695 2.77734 0
M  V30 19139 H 1917.39 -6.74248 4.64038 0
M  V30 19140 N 1920.05 -0.377435 -1.53014 0
M  V30 19141 C 1921.01 0.451217 -2.24715 0
M  V30 19142 C 1922.01 1.00001 -1.25923 0
M  V30 19143 O 1923.2 0.883884 -1.5011 0
M  V30 19144 C 1920.34 1.63185 -2.99305 0
M  V30 19145 H 1921.53 -0.176358 -2.99381 0
M  V30 19146 H 1919.08 -0.12933 -1.55764 0
M  V30 19147 H 1919.82 2.29718 -2.2891 0
M  V30 19148 H 1919.6 1.24517 -3.71804 0
M  V30 19149 H 1921.09 2.2188 -3.53778 0
M  V30 19150 N 1921.53 1.57237 -0.106922 0
M  V30 19151 C 1922.78 1.94775 0.553982 0
M  V30 19152 C 1923.11 0.989452 1.67452 0
M  V30 19153 O 1922.36 0.0111396 1.95697 0
M  V30 19154 C 1922.66 3.38792 1.13817 0
M  V30 19155 C 1922.33 4.50682 0.140226 0
M  V30 19156 C 1920.99 4.81013 -0.134218 0
M  V30 19157 C 1923.34 5.1839 -0.540532 0
M  V30 19158 C 1920.67 5.76374 -1.09591 0
M  V30 19159 C 1923.02 6.14783 -1.49077 0
M  V30 19160 C 1921.68 6.43513 -1.77333 0
M  V30 19161 H 1920.95 0.712732 0.202716 0
M  V30 19162 H 1923.6 1.90602 -0.185265 0
M  V30 19163 H 1921.91 3.39601 1.95393 0
M  V30 19164 H 1923.6 3.65144 1.65744 0
M  V30 19165 H 1920.19 4.27049 0.364316 0
M  V30 19166 H 1924.38 4.95123 -0.34166 0
M  V30 19167 H 1919.63 5.96943 -1.3217 0
M  V30 19168 H 1923.81 6.66338 -2.02402 0
M  V30 19169 H 1921.43 7.17214 -2.52008 0
M  V30 19170 N 1923.01 -0.166818 1.56715 0
M  V30 19171 C 1923.94 -1.2086 1.99787 0
M  V30 19172 C 1924.92 -1.45918 0.874178 0
M  V30 19173 O 1926.1 -1.57176 1.14058 0
M  V30 19174 C 1923.23 -2.54648 2.3616 0
M  V30 19175 C 1922.19 -2.44151 3.51532 0
M  V30 19176 C 1921.51 -3.82469 3.7366 0
M  V30 19177 C 1922.81 -1.9424 4.84838 0
M  V30 19178 H 1924.51 -0.850538 2.87065 0
M  V30 19179 H 1922.05 -0.407696 1.38108 0
M  V30 19180 H 1924.01 -3.27736 2.64891 0
M  V30 19181 H 1922.73 -2.92251 1.45797 0
M  V30 19182 H 1921.39 -1.73516 3.22936 0
M  V30 19183 H 1921.04 -4.17473 2.8058 0
M  V30 19184 H 1920.74 -3.76312 4.5129 0
M  V30 19185 H 1922.26 -4.57136 4.04796 0
M  V30 19186 H 1923.68 -2.57105 5.12416 0
M  V30 19187 H 1922.07 -1.99021 5.66137 0
M  V30 19188 H 1923.14 -0.89695 4.76532 0
M  V30 19189 N 1924.49 -1.51463 -0.435524 0
M  V30 19190 C 1925.42 -1.75856 -1.53613 0
M  V30 19191 C 1926.4 -0.608449 -1.58846 0
M  V30 19192 O 1927.58 -0.85135 -1.74544 0
M  V30 19193 C 1924.71 -1.88525 -2.91677 0
M  V30 19194 C 1923.67 -3.03972 -3.01305 0
M  V30 19195 C 1922.99 -3.01828 -4.41366 0
M  V30 19196 C 1924.29 -4.43905 -2.75219 0
M  V30 19197 H 1925.99 -2.68013 -1.33452 0
M  V30 19198 H 1923.53 -1.28968 -0.640564 0
M  V30 19199 H 1925.49 -2.04173 -3.68634 0
M  V30 19200 H 1924.21 -0.930179 -3.13074 0
M  V30 19201 H 1922.87 -2.88033 -2.26788 0
M  V30 19202 H 1922.52 -2.04095 -4.59733 0
M  V30 19203 H 1922.22 -3.79353 -4.48737 0
M  V30 19204 H 1923.74 -3.19572 -5.20294 0
M  V30 19205 H 1925.15 -4.60187 -3.41908 0
M  V30 19206 H 1923.55 -5.2315 -2.93998 0
M  V30 19207 H 1924.62 -4.53818 -1.70814 0
M  V30 19208 N 1925.96 0.691085 -1.4164 0
M  V30 19209 C 1926.91 1.79718 -1.40305 0
M  V30 19210 C 1927.9 1.58502 -0.276751 0
M  V30 19211 O 1929.09 1.69258 -0.517761 0
M  V30 19212 C 1926.22 3.18059 -1.29203 0
M  V30 19213 C 1925.31 3.44954 -2.46714 0
M  V30 19214 N 1925.7 3.42522 -3.72172 0
M  V30 19215 C 1923.99 3.75521 -2.40624 0
M  V30 19216 C 1924.7 3.68447 -4.50135 0
M  V30 19217 N 1923.67 3.88412 -3.80312 0
M  V30 19218 H 1927.47 1.76207 -2.3522 0
M  V30 19219 H 1924.99 0.891261 -1.35758 0
M  V30 19220 H 1926.98 3.97299 -1.26329 0
M  V30 19221 H 1925.64 3.22778 -0.352775 0
M  V30 19222 H 1926.66 3.22799 -4.04996 0
M  V30 19223 H 1923.33 3.87584 -1.55193 0
M  V30 19224 H 1924.72 3.72665 -5.5908 0
M  V30 19225 N 1927.44 1.27542 0.925789 0
M  V30 19226 C 1928.69 1.13767 1.67038 0
M  V30 19227 C 1929.01 -0.316603 1.92413 0
M  V30 19228 O 1928.28 -1.22124 1.53175 0
M  V30 19229 H 1926.86 0.41803 0.61908 0
M  V30 19230 H 1929.52 1.60097 1.11153 0
M  V30 19231 H 1928.62 1.66818 2.63777 0
M  V30 19232 N 1928.92 -1.13255 1.09595 0
M  V30 19233 C 1930.15 -1.88138 0.853687 0
M  V30 19234 C 1930.56 -1.79474 -0.598798 0
M  V30 19235 O 1929.9 -1.16047 -1.42404 0
M  V30 19236 C 1929.96 -3.38441 1.21234 0
M  V30 19237 C 1929.63 -3.70884 2.67009 0
M  V30 19238 C 1930.62 -3.69979 3.65256 0
M  V30 19239 C 1928.31 -4.00488 3.03174 0
M  V30 19240 C 1930.3 -3.98221 4.97693 0
M  V30 19241 C 1927.99 -4.28391 4.35803 0
M  V30 19242 C 1928.99 -4.27243 5.32872 0
M  V30 19243 O 1928.68 -4.54462 6.63114 0
M  V30 19244 H 1928.41 -0.602402 0.306738 0
M  V30 19245 H 1930.96 -1.44282 1.46192 0
M  V30 19246 H 1929.19 -3.82809 0.54717 0
M  V30 19247 H 1930.88 -3.94651 0.948953 0
M  V30 19248 H 1931.65 -3.47181 3.3866 0
M  V30 19249 H 1927.53 -4.00528 2.28251 0
M  V30 19250 H 1931.07 -3.9724 5.73451 0
M  V30 19251 H 1926.97 -4.50661 4.62141 0
M  V30 19252 H 1927.74 -4.72122 6.68613 0
M  V30 19253 N 1930.4 -0.883401 -1.30514 0
M  V30 19254 C 1931.33 -0.306278 -2.27144 0
M  V30 19255 C 1932.34 0.538264 -1.53644 0
M  V30 19256 O 1933.53 0.35807 -1.74872 0
M  V30 19257 C 1930.63 0.583276 -3.33843 0
M  V30 19258 C 1929.81 -0.231845 -4.36785 0
M  V30 19259 C 1928.86 0.587955 -5.22905 0
M  V30 19260 O 1927.89 0.0112122 -5.69199 0
M  V30 19261 N 1929.09 1.89737 -5.48617 0
M  V30 19262 H 1931.86 -1.13674 -2.77306 0
M  V30 19263 H 1929.42 -0.746227 -1.43677 0
M  V30 19264 H 1931.41 1.13773 -3.88379 0
M  V30 19265 H 1929.98 1.31441 -2.83623 0
M  V30 19266 H 1929.2 -0.967741 -3.82137 0
M  V30 19267 H 1930.49 -0.790664 -5.02619 0
M  V30 19268 H 1929.89 2.38889 -5.12785 0
M  V30 19269 H 1928.44 2.39931 -6.06033 0
M  V30 19270 N 1931.88 1.43833 -0.644194 0
M  V30 19271 C 1933.29 1.85218 -0.23478 0
M  V30 19272 C 1933.64 1.53918 1.2167 0
M  V30 19273 O 1932.76 0.983677 1.92751 0
M  V30 19274 C 1933.36 3.36195 -0.419327 0
M  V30 19275 C 1931.92 3.76345 -0.0643105 0
M  V30 19276 C 1931.06 2.67614 -0.726506 0
M  V30 19277 H 1934.02 1.34114 -0.84848 0
M  V30 19278 H 1934.04 3.78997 0.33787 0
M  V30 19279 H 1933.55 3.58944 -1.47582 0
M  V30 19280 H 1931.65 3.59209 0.989939 0
M  V30 19281 H 1931.76 4.76654 -0.483481 0
M  V30 19282 H 1930.13 2.54193 -0.160575 0
M  V30 19283 H 1930.91 2.93193 -1.78585 0
M  V30 19284 N 1933.35 0.385544 1.52811 0
M  V30 19285 C 1934.32 -0.439294 2.24951 0
M  V30 19286 C 1935.32 -0.993315 1.26451 0
M  V30 19287 O 1936.51 -0.875911 1.50577 0
M  V30 19288 C 1933.64 -1.61595 3.00166 0
M  V30 19289 H 1934.83 0.192232 2.99283 0
M  V30 19290 H 1932.39 0.137589 1.55693 0
M  V30 19291 H 1933.12 -2.28501 2.30125 0
M  V30 19292 H 1932.91 -1.22544 3.72459 0
M  V30 19293 H 1934.4 -2.20001 3.5495 0
M  V30 19294 N 1934.83 -1.57178 0.115259 0
M  V30 19295 C 1935.78 -2.11668 -0.847394 0
M  V30 19296 C 1936.77 -1.03654 -1.23064 0
M  V30 19297 O 1937.96 -1.29894 -1.20235 0
M  V30 19298 C 1935.09 -2.71667 -2.09886 0
M  V30 19299 C 1934.17 -3.86755 -1.74015 0
M  V30 19300 N 1934.56 -4.9396 -1.08801 0
M  V30 19301 C 1932.86 -3.96869 -2.03497 0
M  V30 19302 C 1933.56 -5.74381 -0.919867 0
M  V30 19303 N 1932.54 -5.24079 -1.44367 0
M  V30 19304 H 1936.34 -2.91932 -0.339579 0
M  V30 19305 H 1933.86 -1.62165 -0.0873304 0
M  V30 19306 H 1935.85 -3.09045 -2.79815 0
M  V30 19307 H 1934.51 -1.92865 -2.61215 0
M  V30 19308 H 1935.52 -5.12405 -0.75243 0
M  V30 19309 H 1932.2 -3.29104 -2.56899 0
M  V30 19310 H 1933.59 -6.70658 -0.408269 0
M  V30 19311 N 1936.31 0.158505 -1.56801 0
M  V30 19312 C 1937.72 0.71972 -1.7227 0
M  V30 19313 C 1938.07 1.822 -0.72784 0
M  V30 19314 O 1937.2 2.1613 0.108043 0
M  V30 19315 C 1937.79 1.31231 -3.12352 0
M  V30 19316 C 1936.35 1.82021 -3.29462 0
M  V30 19317 C 1935.5 0.704157 -2.68211 0
M  V30 19318 H 1938.45 -0.0670395 -1.58558 0
M  V30 19319 H 1938.47 2.18208 -3.11714 0
M  V30 19320 H 1937.98 0.509823 -3.84737 0
M  V30 19321 H 1936.08 2.64873 -2.62056 0
M  V30 19322 H 1936.2 1.95684 -4.37315 0
M  V30 19323 H 1934.56 1.12787 -2.28366 0
M  V30 19324 H 1935.34 -0.0866929 -3.43191 0
M  V30 19325 N 1937.79 1.51692 0.427485 0
M  V30 19326 C 1939.02 1.68669 1.19827 0
M  V30 19327 C 1939.43 0.388231 1.84765 0
M  V30 19328 O 1938.79 -0.634167 1.71127 0
M  V30 19329 C 1938.84 2.80936 2.27502 0
M  V30 19330 O 1938.56 4.05752 1.65218 0
M  V30 19331 C 1940.06 3.09267 3.17599 0
M  V30 19332 H 1937.28 0.565751 0.360786 0
M  V30 19333 H 1939.83 1.98158 0.505323 0
M  V30 19334 H 1937.98 2.54018 2.92496 0
M  V30 19335 H 1938.4 4.68175 2.36457 0
M  V30 19336 H 1939.87 3.91379 3.89264 0
M  V30 19337 H 1940.35 2.22071 3.78921 0
M  V30 19338 H 1940.95 3.37881 2.58295 0
M  V30 19339 N 1939.27 -0.683564 1.42004 0
M  V30 19340 C 1940.51 -1.44363 1.42005 0
M  V30 19341 C 1940.84 -1.94471 0.0333832 0
M  V30 19342 O 1940.1 -1.70716 -0.95679 0
M  V30 19343 C 1940.4 -2.66286 2.38383 0
M  V30 19344 C 1940.06 -2.34769 3.8496 0
M  V30 19345 C 1938.72 -2.25884 4.24888 0
M  V30 19346 C 1941.08 -2.09012 4.77455 0
M  V30 19347 C 1938.4 -1.89356 5.55303 0
M  V30 19348 C 1940.76 -1.73991 6.08202 0
M  V30 19349 C 1939.42 -1.6361 6.47138 0
M  V30 19350 H 1938.69 -0.528262 0.519634 0
M  V30 19351 H 1941.34 -0.780217 1.74885 0
M  V30 19352 H 1939.64 -3.37618 1.98799 0
M  V30 19353 H 1941.34 -3.24452 2.35652 0
M  V30 19354 H 1937.93 -2.42583 3.53343 0
M  V30 19355 H 1942.11 -2.14814 4.47402 0
M  V30 19356 H 1937.37 -1.79882 5.84339 0
M  V30 19357 H 1941.54 -1.53084 6.79366 0
M  V30 19358 H 1939.17 -1.35075 7.48103 0
M  V30 19359 N 1940.75 -1.28031 -0.919012 0
M  V30 19360 C 1942.16 -1.13466 -1.48264 0
M  V30 19361 C 1942.51 0.27724 -1.94231 0
M  V30 19362 O 1941.63 1.171 -1.81979 0
M  V30 19363 C 1942.23 -2.05366 -2.69463 0
M  V30 19364 C 1940.79 -1.94882 -3.22022 0
M  V30 19365 C 1939.93 -1.97414 -1.94738 0
M  V30 19366 H 1942.88 -1.40797 -0.732246 0
M  V30 19367 H 1942.91 -1.61457 -3.44546 0
M  V30 19368 H 1942.42 -3.08118 -2.35976 0
M  V30 19369 H 1940.52 -0.951474 -3.60247 0
M  V30 19370 H 1940.63 -2.8157 -3.87628 0
M  V30 19371 H 1939 -1.41752 -2.11609 0
M  V30 19372 H 1939.78 -3.01836 -1.63554 0
M  V30 19373 N 1942.22 1.12672 -1.10194 0
M  V30 19374 C 1943.47 1.84399 -0.844081 0
M  V30 19375 C 1943.8 1.83739 0.628782 0
M  V30 19376 O 1943.08 1.28115 1.46345 0
M  V30 19377 C 1943.36 3.32194 -1.38994 0
M  V30 19378 C 1943.21 3.41323 -2.92948 0
M  V30 19379 C 1944.53 4.27872 -1.03021 0
M  V30 19380 H 1941.65 0.669515 -0.308089 0
M  V30 19381 H 1944.29 1.322 -1.36467 0
M  V30 19382 H 1942.44 3.76778 -0.947144 0
M  V30 19383 H 1944.12 3.05393 -3.45735 0
M  V30 19384 H 1942.36 2.81948 -3.29678 0
M  V30 19385 H 1943.03 4.45289 -3.26223 0
M  V30 19386 H 1945.51 3.91401 -1.41224 0
M  V30 19387 H 1944.38 5.29699 -1.43909 0
M  V30 19388 H 1944.64 4.42058 0.0606669 0
M  V30 19389 N 1943.7 0.89031 1.30043 0
M  V30 19390 C 1944.61 0.365266 2.31739 0
M  V30 19391 C 1945.63 -0.535219 1.65564 0
M  V30 19392 O 1946.8 -0.427058 1.9682 0
M  V30 19393 C 1943.87 -0.407009 3.44303 0
M  V30 19394 C 1942.93 0.523869 4.26092 0
M  V30 19395 C 1942.16 -0.211645 5.3328 0
M  V30 19396 O 1942.39 -1.43697 5.52003 0
M  V30 19397 O 1941.32 0.440999 6.00282 0
M  V30 19398 H 1945.15 1.20872 2.7861 0
M  V30 19399 H 1942.73 0.654319 1.34309 0
M  V30 19400 H 1944.61 -0.844074 4.1286 0
M  V30 19401 H 1943.29 -1.22668 2.99557 0
M  V30 19402 H 1942.19 1.00986 3.60212 0
M  V30 19403 H 1943.53 1.30969 4.74455 0
M  V30 19404 N 1945.18 -1.43489 0.651812 0
M  V30 19405 C 1946.43 -2.02129 0.164876 0
M  V30 19406 C 1946.76 -1.51296 -1.2175 0
M  V30 19407 O 1946.03 -0.705492 -1.81254 0
M  V30 19408 C 1946.32 -3.59678 0.174184 0
M  V30 19409 C 1946.17 -4.20746 1.59038 0
M  V30 19410 C 1947.49 -4.37362 -0.490177 0
M  V30 19411 H 1944.61 -0.734439 0.0613871 0
M  V30 19412 H 1947.25 -1.70804 0.832229 0
M  V30 19413 H 1945.4 -3.86496 -0.394077 0
M  V30 19414 H 1947.07 -4.04964 2.20912 0
M  V30 19415 H 1945.31 -3.7745 2.13809 0
M  V30 19416 H 1945.99 -5.29828 1.54876 0
M  V30 19417 H 1948.46 -4.16099 -0.00670015 0
M  V30 19418 H 1947.34 -5.47028 -0.452932 0
M  V30 19419 H 1947.6 -4.13509 -1.56406 0
M  V30 19420 N 1946.66 -0.393643 -1.52605 0
M  V30 19421 C 1947.59 0.430786 -2.29492 0
M  V30 19422 C 1948.57 1.0597 -1.33058 0
M  V30 19423 O 1949.75 1.07165 -1.61955 0
M  V30 19424 C 1946.88 1.55599 -3.10494 0
M  V30 19425 C 1945.84 1.05289 -4.14847 0
M  V30 19426 C 1945.16 2.2705 -4.841 0
M  V30 19427 C 1946.46 0.117789 -5.22167 0
M  V30 19428 H 1948.16 -0.210741 -2.98657 0
M  V30 19429 H 1945.7 -0.102795 -1.43633 0
M  V30 19430 H 1947.66 2.1396 -3.63042 0
M  V30 19431 H 1946.38 2.22517 -2.39069 0
M  V30 19432 H 1945.04 0.491788 -3.63286 0
M  V30 19433 H 1944.69 2.92487 -4.09219 0
M  V30 19434 H 1944.39 1.94047 -5.54635 0
M  V30 19435 H 1945.91 2.86045 -5.39454 0
M  V30 19436 H 1947.33 0.609718 -5.70049 0
M  V30 19437 H 1945.72 -0.122689 -5.99975 0
M  V30 19438 H 1946.79 -0.832053 -4.77708 0
M  V30 19439 N 1948.14 1.57115 -0.123593 0
M  V30 19440 C 1949.38 1.94527 0.533131 0
M  V30 19441 C 1949.7 1.0095 1.67536 0
M  V30 19442 O 1950.9 1.27846 2.39515 0
M  V30 19443 C 1949.36 3.45735 0.999783 0
M  V30 19444 C 1948.97 4.47854 -0.114238 0
M  V30 19445 C 1950.71 3.92057 1.62762 0
M  V30 19446 C 1948.62 5.90245 0.36937 0
M  V30 19447 H 1947.55 0.726179 0.20293 0
M  V30 19448 H 1950.2 1.8236 -0.204183 0
M  V30 19449 H 1948.58 3.53151 1.79166 0
M  V30 19450 H 1949.76 4.52111 -0.890627 0
M  V30 19451 H 1948.07 4.11311 -0.649019 0
M  V30 19452 H 1950.67 4.9586 2.00067 0
M  V30 19453 H 1951.01 3.3229 2.50777 0
M  V30 19454 H 1951.54 3.8746 0.901074 0
M  V30 19455 H 1948.28 6.53778 -0.474837 0
M  V30 19456 H 1947.8 5.89399 1.11214 0
M  V30 19457 H 1949.48 6.41666 0.829093 0
M  V30 19458 N 1949.61 -0.150187 1.56883 0
M  V30 19459 C 1950.56 -1.20473 1.9897 0
M  V30 19460 C 1951.56 -1.44651 0.881609 0
M  V30 19461 O 1952.76 -1.44982 1.06678 0
M  V30 19462 H 1949.14 -0.405449 0.633336 0
M  V30 19463 H 1951.11 -0.823043 2.86825 0
M  V30 19464 C 1949.86 -2.53135 2.38365 0
M  V30 19465 H 1949.18 -2.3536 3.23181 0
M  V30 19466 H 1950.62 -3.25558 2.71639 0
M  V30 19467 C 1949.08 -3.13444 1.23509 0
M  V30 19468 O 1949.61 -3.98133 0.534101 0
M  V30 19469 N 1947.81 -2.72846 1.00016 0
M  V30 19470 H 1947.36 -2.04076 1.57196 0
M  V30 19471 H 1947.32 -3.13531 0.233557 0
M  V30 19472 N 1951.09 -1.51916 -0.419434 0
M  V30 19473 C 1952.06 -1.73908 -1.49293 0
M  V30 19474 C 1953.06 -0.60898 -1.48822 0
M  V30 19475 O 1954.25 -0.876745 -1.50528 0
M  V30 19476 C 1951.38 -1.812 -2.88755 0
M  V30 19477 H 1952.57 -2.69732 -1.3109 0
M  V30 19478 H 1950.12 -1.42176 -0.649274 0
M  V30 19479 H 1950.86 -0.872544 -3.12341 0
M  V30 19480 H 1950.64 -2.63348 -2.905 0
M  V30 19481 H 1952.13 -1.99992 -3.66596 0
M  V30 19482 N 1952.57 0.676023 -1.42365 0
M  V30 19483 C 1953.82 1.43324 -1.42487 0
M  V30 19484 C 1954.14 1.94955 -0.0418589 0
M  V30 19485 O 1953.41 1.72984 0.919418 0
M  V30 19486 H 1951.99 0.531857 -0.524535 0
M  V30 19487 H 1954.65 0.798867 -1.77775 0
M  V30 19488 H 1953.75 2.28686 -2.12389 0
M  V30 19489 N 1954.05 1.28517 0.912209 0
M  V30 19490 C 1955.46 1.06257 1.19087 0
M  V30 19491 C 1955.66 -0.194098 2.00563 0
M  V30 19492 O 1954.72 -0.895341 2.36093 0
M  V30 19493 C 1956.03 2.31094 1.92396 0
M  V30 19494 C 1957.58 2.36288 2.05273 0
M  V30 19495 C 1958.06 3.60896 2.8199 0
M  V30 19496 N 1959.55 3.61545 2.89551 0
M  V30 19497 C 1960.28 4.54639 3.49416 0
M  V30 19498 N 1959.78 5.58053 4.10547 0
M  V30 19499 N 1961.57 4.42231 3.46969 0
M  V30 19500 H 1953.72 2.09183 0.368283 0
M  V30 19501 H 1955.99 0.920767 0.225593 0
M  V30 19502 H 1955.69 3.22653 1.39956 0
M  V30 19503 H 1955.57 2.37627 2.92939 0
M  V30 19504 H 1957.95 1.45225 2.56893 0
M  V30 19505 H 1958.03 2.33748 1.03901 0
M  V30 19506 H 1957.68 4.52304 2.31049 0
M  V30 19507 H 1957.61 3.6069 3.8368 0
M  V30 19508 H 1960.1 2.86764 2.46119 0
M  V30 19509 H 1960.41 6.25229 4.54212 0
M  V30 19510 H 1958.76 5.61877 4.09047 0
M  V30 19511 H 1961.95 3.60641 2.98422 0
M  V30 19512 H 1962.12 5.1497 3.93332 0
M  V30 19513 N 1955.53 -1.12086 1.1079 0
M  V30 19514 C 1956.77 -1.83949 0.853848 0
M  V30 19515 C 1957.11 -1.8407 -0.619029 0
M  V30 19516 O 1956.38 -1.28889 -1.45664 0
M  V30 19517 C 1956.66 -3.31452 1.40754 0
M  V30 19518 C 1956.52 -3.39765 2.94754 0
M  V30 19519 C 1957.84 -4.2732 1.05288 0
M  V30 19520 H 1954.95 -0.667872 0.311635 0
M  V30 19521 H 1957.6 -1.31475 1.37166 0
M  V30 19522 H 1955.75 -3.7627 0.967112 0
M  V30 19523 H 1957.42 -3.03555 3.4735 0
M  V30 19524 H 1955.66 -2.80196 3.31168 0
M  V30 19525 H 1956.33 -4.43553 3.2858 0
M  V30 19526 H 1958.81 -3.90647 1.43297 0
M  V30 19527 H 1957.68 -5.28929 1.46716 0
M  V30 19528 H 1957.95 -4.42084 -0.0372227 0
M  V30 19529 N 1957 -0.897194 -1.29569 0
M  V30 19530 C 1958.25 -0.53201 -1.96319 0
M  V30 19531 C 1958.61 0.911189 -1.69455 0
M  V30 19532 O 1957.9 1.637 -0.995636 0
M  V30 19533 C 1958.09 -0.757743 -3.49275 0
M  V30 19534 C 1957.92 -2.22133 -3.91008 0
M  V30 19535 C 1956.69 -2.86829 -4.16002 0
M  V30 19536 C 1958.89 -3.1963 -4.02916 0
M  V30 19537 N 1956.87 -4.23657 -4.44284 0
M  V30 19538 C 1958.24 -4.41568 -4.35221 0
M  V30 19539 C 1960.3 -3.15253 -3.85383 0
M  V30 19540 C 1959 -5.59688 -4.51821 0
M  V30 19541 C 1961.03 -4.32656 -4.0319 0
M  V30 19542 C 1960.39 -5.53364 -4.35853 0
M  V30 19543 H 1956.49 -0.244236 -0.742881 0
M  V30 19544 H 1959.07 -1.15748 -1.56558 0
M  V30 19545 H 1957.24 -0.16167 -3.88063 0
M  V30 19546 H 1958.97 -0.358243 -4.03111 0
M  V30 19547 H 1955.73 -2.37635 -4.09666 0
M  V30 19548 H 1956.15 -4.94356 -4.62538 0
M  V30 19549 H 1960.8 -2.2302 -3.59196 0
M  V30 19550 H 1958.51 -6.52415 -4.76845 0
M  V30 19551 H 1962.1 -4.30754 -3.91079 0
M  V30 19552 H 1960.98 -6.42696 -4.49345 0
M  V30 19553 N 1958.48 1.43142 -0.659413 0
M  V30 19554 C 1959.41 2.29102 0.0671619 0
M  V30 19555 C 1960.43 1.42846 0.780943 0
M  V30 19556 O 1961.62 1.66722 0.637666 0
M  V30 19557 C 1958.72 3.19915 1.11838 0
M  V30 19558 C 1957.89 4.34742 0.481505 0
M  V30 19559 C 1956.95 5.06384 1.43043 0
M  V30 19560 O 1955.97 5.61441 0.936648 0
M  V30 19561 N 1957.18 5.10461 2.76423 0
M  V30 19562 H 1959.94 2.92099 -0.670674 0
M  V30 19563 H 1957.5 1.53899 -0.50266 0
M  V30 19564 H 1959.49 3.64708 1.75413 0
M  V30 19565 H 1958.06 2.58474 1.75812 0
M  V30 19566 H 1957.28 3.92787 -0.333461 0
M  V30 19567 H 1958.57 5.08786 0.0371775 0
M  V30 19568 H 1957.97 4.67114 3.19095 0
M  V30 19569 H 1956.53 5.58952 3.35285 0
M  V30 19570 N 1959.96 0.40173 1.52394 0
M  V30 19571 C 1961.21 -0.17611 2.01331 0
M  V30 19572 C 1961.53 -1.46274 1.28953 0
M  V30 19573 O 1960.8 -1.91492 0.413249 0
M  V30 19574 H 1959.38 -0.0680697 0.743892 0
M  V30 19575 H 1962.04 0.536274 1.87377 0
M  V30 19576 H 1961.14 -0.377497 3.09809 0
M  V30 19577 N 1961.44 -1.57047 0.131923 0
M  V30 19578 C 1962.39 -2.12555 -0.824896 0
M  V30 19579 C 1963.37 -1.04953 -1.21957 0
M  V30 19580 O 1964.56 -1.31162 -1.18851 0
M  V30 19581 C 1961.69 -2.73877 -2.06993 0
M  V30 19582 C 1960.78 -3.88579 -1.69903 0
M  V30 19583 N 1961.17 -4.95086 -1.03556 0
M  V30 19584 C 1959.47 -3.99005 -1.99276 0
M  V30 19585 C 1960.17 -5.75324 -0.858894 0
M  V30 19586 N 1959.15 -5.25581 -1.388 0
M  V30 19587 H 1962.95 -2.92275 -0.308596 0
M  V30 19588 H 1960.46 -1.62249 -0.0701257 0
M  V30 19589 H 1962.46 -3.11996 -2.76522 0
M  V30 19590 H 1961.12 -1.95625 -2.59155 0
M  V30 19591 H 1962.13 -5.13174 -0.69804 0
M  V30 19592 H 1958.81 -3.3181 -2.53394 0
M  V30 19593 H 1960.2 -6.71054 -0.337114 0
M  V30 19594 N 1962.92 0.141865 -1.5696 0
M  V30 19595 C 1963.88 1.15896 -1.97739 0
M  V30 19596 C 1964.88 1.3558 -0.864556 0
M  V30 19597 O 1966.07 1.32485 -1.13107 0
M  V30 19598 C 1963.2 2.51822 -2.29779 0
M  V30 19599 H 1964.39 0.808993 -2.88782 0
M  V30 19600 H 1961.95 0.385387 -1.51474 0
M  V30 19601 H 1962.68 2.91781 -1.41543 0
M  V30 19602 H 1962.47 2.38894 -3.10921 0
M  V30 19603 H 1963.96 3.25066 -2.62148 0
M  V30 19604 N 1964.39 1.52136 0.411372 0
M  V30 19605 C 1965.34 1.75927 1.52159 0
M  V30 19606 C 1966.34 0.626317 1.57396 0
M  V30 19607 O 1967.54 0.808311 1.6083 0
M  V30 19608 H 1963.92 0.5563 0.505998 0
M  V30 19609 H 1965.89 2.68942 1.29278 0
M  V30 19610 C 1964.64 1.92496 2.89552 0
M  V30 19611 H 1963.96 2.79093 2.86264 0
M  V30 19612 H 1965.4 2.13143 3.66532 0
M  V30 19613 C 1963.86 0.691473 3.29728 0
M  V30 19614 O 1964.39 -0.141712 4.0145 0
M  V30 19615 N 1962.6 0.528019 2.85763 0
M  V30 19616 H 1962.14 1.20713 2.27565 0
M  V30 19617 H 1962.1 -0.295994 3.13004 0
M  V30 19618 N 1965.87 -0.668464 1.42721 0
M  V30 19619 C 1966.84 -1.76365 1.46384 0
M  V30 19620 C 1967.84 -1.56932 0.350554 0
M  V30 19621 O 1969.03 -1.63109 0.611658 0
M  V30 19622 C 1966.16 -3.15071 1.30164 0
M  V30 19623 H 1967.35 -1.74503 2.43903 0
M  V30 19624 H 1964.9 -0.878695 1.29262 0
M  V30 19625 H 1965.64 -3.22555 0.335926 0
M  V30 19626 H 1965.42 -3.3058 2.10853 0
M  V30 19627 H 1966.91 -3.94963 1.35625 0
M  V30 19628 N 1967.35 -1.28999 -0.905381 0
M  V30 19629 C 1968.58 -1.19632 -1.69419 0
M  V30 19630 C 1969 0.240433 -1.86557 0
M  V30 19631 O 1968.36 1.17374 -1.38177 0
M  V30 19632 C 1968.41 -1.90881 -3.05936 0
M  V30 19633 O 1967.51 -1.22198 -3.9388 0
M  V30 19634 H 1966.85 -0.414842 -0.518461 0
M  V30 19635 H 1969.38 -1.70468 -1.13145 0
M  V30 19636 H 1969.39 -1.99115 -3.56114 0
M  V30 19637 H 1968.07 -2.95385 -2.9278 0
M  V30 19638 H 1966.64 -1.22185 -3.52314 0
M  V30 19639 N 1968.83 1.11497 -1.11383 0
M  V30 19640 C 1970.08 1.83222 -0.862314 0
M  V30 19641 C 1970.4 1.84619 0.612047 0
M  V30 19642 O 1969.66 1.29435 1.46782 0
M  V30 19643 C 1969.96 3.30169 -1.36832 0
M  V30 19644 C 1969.62 3.48933 -2.85581 0
M  V30 19645 C 1968.29 3.53762 -3.26199 0
M  V30 19646 C 1970.64 3.55237 -3.81387 0
M  V30 19647 C 1967.97 3.6245 -4.61353 0
M  V30 19648 C 1970.32 3.65455 -5.16358 0
M  V30 19649 C 1968.98 3.68544 -5.56535 0
M  V30 19650 H 1968.25 0.670458 -0.315543 0
M  V30 19651 H 1970.9 1.31499 -1.39213 0
M  V30 19652 H 1969.2 3.84383 -0.75873 0
M  V30 19653 H 1970.9 3.84154 -1.15006 0
M  V30 19654 H 1967.49 3.45844 -2.53159 0
M  V30 19655 H 1971.68 3.50767 -3.51107 0
M  V30 19656 H 1966.93 3.63118 -4.9189 0
M  V30 19657 H 1971.11 3.69276 -5.9043 0
M  V30 19658 H 1968.73 3.75029 -6.61255 0
M  V30 19659 N 1970.31 0.904053 1.29092 0
M  V30 19660 C 1971.55 0.539168 1.97161 0
M  V30 19661 C 1971.91 -0.898617 1.69673 0
M  V30 19662 O 1973.11 -1.37059 2.31232 0
M  V30 19663 C 1971.38 0.828496 3.47665 0
M  V30 19664 S 1972.94 0.568573 4.35101 0
M  V30 19665 H 1969.76 0.199862 0.682331 0
M  V30 19666 H 1972.36 1.16742 1.56817 0
M  V30 19667 H 1971.07 1.87305 3.65164 0
M  V30 19668 H 1970.6 0.188524 3.92948 0
M  V30 19669 H 1972.61 -0.584454 4.92746 0
M  V30 19670 N 1971.79 -1.4279 0.666995 0
M  V30 19671 C 1973.2 -1.84821 0.264217 0
M  V30 19672 C 1973.55 -1.55834 -1.19206 0
M  V30 19673 O 1972.67 -1.01422 -1.91161 0
M  V30 19674 C 1973.27 -3.35485 0.47276 0
M  V30 19675 C 1971.83 -3.76195 0.124176 0
M  V30 19676 C 1970.97 -2.66424 0.768989 0
M  V30 19677 H 1973.92 -1.32747 0.869709 0
M  V30 19678 H 1973.95 -3.79487 -0.277532 0
M  V30 19679 H 1973.46 -3.56551 1.53274 0
M  V30 19680 H 1971.56 -3.60738 -0.932667 0
M  V30 19681 H 1971.67 -4.75825 0.559251 0
M  V30 19682 H 1970.04 -2.53906 0.200994 0
M  V30 19683 H 1970.82 -2.90315 1.83227 0
M  V30 19684 N 1973.26 -0.409806 -1.52179 0
M  V30 19685 C 1974.21 0.432719 -2.23856 0
M  V30 19686 C 1975.2 1.01291 -1.25016 0
M  V30 19687 O 1976.39 0.935617 -1.5025 0
M  V30 19688 C 1973.52 1.54847 -3.06394 0
M  V30 19689 C 1972.6 0.979019 -4.12645 0
M  V30 19690 N 1973 0.136283 -5.05616 0
M  V30 19691 C 1971.29 1.24946 -4.28141 0
M  V30 19692 C 1971.99 -0.180604 -5.8142 0
M  V30 19693 N 1970.97 0.428712 -5.41907 0
M  V30 19694 H 1974.77 -0.217442 -2.93095 0
M  V30 19695 H 1972.29 -0.220268 -1.60899 0
M  V30 19696 H 1974.28 2.16466 -3.56298 0
M  V30 19697 H 1972.94 2.20125 -2.38695 0
M  V30 19698 H 1973.95 -0.228075 -5.17398 0
M  V30 19699 H 1970.63 1.90176 -3.71671 0
M  V30 19700 H 1972.02 -0.8647 -6.66313 0
M  V30 19701 N 1974.74 1.56975 -0.14025 0
M  V30 19702 C 1975.99 1.95519 0.51153 0
M  V30 19703 C 1976.31 1.02572 1.65843 0
M  V30 19704 O 1975.58 0.0859828 1.95711 0
M  V30 19705 H 1974.16 0.721914 0.191961 0
M  V30 19706 H 1976.82 1.9372 -0.214169 0
M  V30 19707 H 1975.92 2.99078 0.892131 0
M  V30 19708 N 1976.22 -0.133539 1.57033 0
M  V30 19709 C 1977.45 -0.857187 1.87978 0
M  V30 19710 C 1977.86 -1.74634 0.72799 0
M  V30 19711 O 1977.2 -1.81051 -0.310857 0
M  V30 19712 C 1977.26 -1.75448 3.13781 0
M  V30 19713 C 1976.93 -1.04112 4.44983 0
M  V30 19714 C 1977.92 -0.388703 5.18445 0
M  V30 19715 C 1975.61 -1.02662 4.91697 0
M  V30 19716 C 1977.6 0.268682 6.36833 0
M  V30 19717 C 1975.29 -0.365432 6.10006 0
M  V30 19718 C 1976.29 0.28108 6.82421 0
M  V30 19719 O 1975.98 0.931754 7.98482 0
M  V30 19720 H 1975.71 -0.252521 0.627064 0
M  V30 19721 H 1978.26 -0.126928 2.05007 0
M  V30 19722 H 1976.49 -2.52602 2.92796 0
M  V30 19723 H 1978.18 -2.35126 3.30863 0
M  V30 19724 H 1978.95 -0.391622 4.83416 0
M  V30 19725 H 1974.83 -1.51926 4.35246 0
M  V30 19726 H 1978.37 0.773893 6.93294 0
M  V30 19727 H 1974.27 -0.360226 6.44494 0
M  V30 19728 H 1975.03 0.834769 8.14232 0
M  V30 19729 N 1977.7 -1.52352 -0.403298 0
M  V30 19730 C 1978.95 -1.66368 -1.14744 0
M  V30 19731 C 1979.27 -0.398899 -1.90876 0
M  V30 19732 O 1978.54 0.586372 -1.86918 0
M  V30 19733 H 1977.12 -0.613226 -0.426571 0
M  V30 19734 H 1979.78 -1.89416 -0.459075 0
M  V30 19735 H 1978.87 -2.50748 -1.85828 0
M  V30 19736 N 1979.18 0.660885 -1.43074 0
M  V30 19737 C 1980.42 1.43273 -1.45781 0
M  V30 19738 C 1980.78 1.91846 -0.076922 0
M  V30 19739 O 1981.98 2.68792 0.0213041 0
M  V30 19740 C 1980.25 2.58792 -2.46499 0
M  V30 19741 S 1981.81 3.47434 -2.6802 0
M  V30 19742 H 1978.63 0.489164 -0.515984 0
M  V30 19743 H 1981.23 0.76801 -1.79783 0
M  V30 19744 H 1979.93 2.21369 -3.45578 0
M  V30 19745 H 1979.47 3.30122 -2.13969 0
M  V30 19746 H 1981.48 4.55258 -1.97369 0
M  V30 19747 N 1980.65 1.29477 0.898527 0
M  V30 19748 C 1982.07 1.07514 1.17953 0
M  V30 19749 C 1982.27 -0.172814 2.00758 0
M  V30 19750 O 1981.33 -0.87025 2.37029 0
M  V30 19751 C 1982.64 2.33121 1.89934 0
M  V30 19752 C 1984.19 2.38452 2.02755 0
M  V30 19753 C 1984.66 3.63866 2.78146 0
M  V30 19754 N 1986.15 3.64595 2.857 0
M  V30 19755 C 1986.89 4.58319 3.44574 0
M  V30 19756 N 1986.38 5.62376 4.04605 0
M  V30 19757 N 1988.18 4.45887 3.42259 0
M  V30 19758 H 1980.33 2.09562 0.346076 0
M  V30 19759 H 1982.59 0.923108 0.215814 0
M  V30 19760 H 1982.3 3.2412 1.36526 0
M  V30 19761 H 1982.17 2.40721 2.90402 0
M  V30 19762 H 1984.56 1.47941 2.55338 0
M  V30 19763 H 1984.64 2.34837 1.01416 0
M  V30 19764 H 1984.28 4.54729 2.26239 0
M  V30 19765 H 1984.21 3.6474 3.79832 0
M  V30 19766 H 1986.7 2.89358 2.43064 0
M  V30 19767 H 1987.02 6.30012 4.47555 0
M  V30 19768 H 1985.36 5.66184 4.03064 0
M  V30 19769 H 1988.55 3.63786 2.9458 0
M  V30 19770 H 1988.73 5.19113 3.87848 0
M  V30 19771 N 1982.13 -1.10905 1.11972 0
M  V30 19772 C 1983.36 -1.86555 0.894699 0
M  V30 19773 C 1983.78 -1.80434 -0.555801 0
M  V30 19774 O 1983.13 -1.18957 -1.38403 0
M  V30 19775 C 1983.18 -3.35148 1.35492 0
M  V30 19776 O 1982.9 -3.41154 2.74856 0
M  V30 19777 C 1984.41 -4.27687 1.16612 0
M  V30 19778 H 1981.63 -0.589761 0.320037 0
M  V30 19779 H 1984.17 -1.40232 1.48846 0
M  V30 19780 H 1982.32 -3.78955 0.804493 0
M  V30 19781 H 1982.74 -4.3372 2.94936 0
M  V30 19782 H 1984.21 -5.30168 1.53708 0
M  V30 19783 H 1984.69 -4.39072 0.106219 0
M  V30 19784 H 1985.3 -3.8968 1.70381 0
M  V30 19785 N 1983.61 -0.910886 -1.2861 0
M  V30 19786 C 1984.54 -0.413998 -2.29801 0
M  V30 19787 C 1985.52 0.51689 -1.62056 0
M  V30 19788 O 1986.71 0.425236 -1.89487 0
M  V30 19789 C 1983.84 0.349336 -3.45539 0
M  V30 19790 C 1982.79 -0.49215 -4.25161 0
M  V30 19791 C 1982.12 0.399352 -5.33207 0
M  V30 19792 C 1983.42 -1.74792 -4.92184 0
M  V30 19793 H 1985.11 -1.25965 -2.71612 0
M  V30 19794 H 1982.66 -0.607149 -1.30575 0
M  V30 19795 H 1984.61 0.70777 -4.15414 0
M  V30 19796 H 1983.33 1.22887 -3.02599 0
M  V30 19797 H 1981.99 -0.833064 -3.57009 0
M  V30 19798 H 1981.64 1.27734 -4.86511 0
M  V30 19799 H 1981.34 -0.160062 -5.87382 0
M  V30 19800 H 1982.86 0.753731 -6.0593 0
M  V30 19801 H 1984.28 -1.45856 -5.54436 0
M  V30 19802 H 1982.68 -2.24952 -5.56342 0
M  V30 19803 H 1983.75 -2.4774 -4.16837 0
M  V30 19804 N 1985.09 1.42434 -0.674558 0
M  V30 19805 C 1986.33 2.01841 -0.197012 0
M  V30 19806 C 1986.67 1.53214 1.19328 0
M  V30 19807 O 1985.94 0.734239 1.80109 0
M  V30 19808 C 1986.23 3.59356 -0.231383 0
M  V30 19809 C 1986.08 4.18162 -1.65711 0
M  V30 19810 C 1987.4 4.38086 0.420535 0
M  V30 19811 H 1984.52 0.733369 -0.0730636 0
M  V30 19812 H 1987.16 1.69458 -0.859297 0
M  V30 19813 H 1985.31 3.87074 0.332539 0
M  V30 19814 H 1986.98 4.01398 -2.27327 0
M  V30 19815 H 1985.22 3.74 -2.19787 0
M  V30 19816 H 1985.89 5.27297 -1.63285 0
M  V30 19817 H 1988.37 4.16057 -0.0594985 0
M  V30 19818 H 1987.25 5.47679 0.365847 0
M  V30 19819 H 1987.51 4.15945 1.49808 0
M  V30 19820 N 1986.57 0.417871 1.51959 0
M  V30 19821 C 1987.81 -0.155282 2.02205 0
M  V30 19822 C 1988.15 -1.44044 1.3025 0
M  V30 19823 O 1987.42 -1.90098 0.411449 0
M  V30 19824 C 1987.7 -0.394038 3.57938 0
M  V30 19825 C 1987.56 0.908404 4.40532 0
M  V30 19826 C 1988.88 -1.17238 4.24197 0
M  V30 19827 H 1985.99 -0.0549616 0.734948 0
M  V30 19828 H 1988.64 0.553053 1.81773 0
M  V30 19829 H 1986.79 -0.997422 3.75478 0
M  V30 19830 H 1988.46 1.54427 4.34684 0
M  V30 19831 H 1986.7 1.51743 4.06395 0
M  V30 19832 H 1987.37 0.69563 5.47599 0
M  V30 19833 H 1989.85 -0.661461 4.10809 0
M  V30 19834 H 1988.72 -1.30818 5.33083 0
M  V30 19835 H 1988.99 -2.19534 3.83741 0
M  V30 19836 N 1988.04 -1.56898 0.148573 0
M  V30 19837 C 1989.28 -1.98067 -0.504877 0
M  V30 19838 C 1989.65 -1.03158 -1.61934 0
M  V30 19839 O 1990.85 -1.33377 -2.33375 0
M  V30 19840 C 1989.12 -3.43224 -0.99658 0
M  V30 19841 S 1990.68 -4.06417 -1.65441 0
M  V30 19842 H 1987.5 -0.692019 -0.163191 0
M  V30 19843 H 1990.1 -1.94013 0.240659 0
M  V30 19844 H 1988.8 -4.10028 -0.174727 0
M  V30 19845 H 1988.33 -3.50994 -1.7767 0
M  V30 19846 H 1990.35 -3.99598 -2.9417 0
M  V30 19847 N 1989.52 0.125209 -1.57102 0
M  V30 19848 C 1990.43 1.17286 -2.03177 0
M  V30 19849 C 1991.45 1.4571 -0.951035 0
M  V30 19850 O 1992.62 1.56949 -1.2621 0
M  V30 19851 C 1989.69 2.4811 -2.42161 0
M  V30 19852 C 1988.75 2.2714 -3.64288 0
M  V30 19853 C 1987.98 3.51726 -4.01404 0
M  V30 19854 O 1988.21 4.58785 -3.38929 0
M  V30 19855 O 1987.14 3.43096 -4.94539 0
M  V30 19856 H 1990.97 0.811619 -2.92654 0
M  V30 19857 H 1988.55 0.335551 -1.45583 0
M  V30 19858 H 1990.43 3.252 -2.67998 0
M  V30 19859 H 1989.11 2.83721 -1.55833 0
M  V30 19860 H 1988.02 1.47929 -3.4361 0
M  V30 19861 H 1989.35 1.96435 -4.51303 0
M  V30 19862 N 1991 1.52564 0.395213 0
M  V30 19863 C 1992.25 1.66974 1.1386 0
M  V30 19864 C 1992.57 0.409016 1.90662 0
M  V30 19865 O 1991.84 -0.576451 1.87227 0
M  V30 19866 H 1990.42 0.61548 0.423313 0
M  V30 19867 H 1993.08 1.89657 0.449024 0
M  V30 19868 H 1992.18 2.5173 1.84496 0
M  V30 19869 N 1992.48 -0.653289 1.43422 0
M  V30 19870 C 1993.41 -1.77877 1.44543 0
M  V30 19871 C 1994.42 -1.59177 0.341566 0
M  V30 19872 O 1995.61 -1.67899 0.605995 0
M  V30 19873 C 1992.71 -3.15302 1.24249 0
M  V30 19874 C 1991.89 -3.60661 2.47472 0
M  V30 19875 C 1990.94 -4.76889 2.22403 0
M  V30 19876 O 1989.97 -4.86332 2.95754 0
M  V30 19877 N 1991.17 -5.67088 1.24062 0
M  V30 19878 H 1993.94 -1.77394 2.41561 0
M  V30 19879 H 1991.5 -0.837129 1.38578 0
M  V30 19880 H 1993.49 -3.90744 1.05361 0
M  V30 19881 H 1992.06 -3.10557 0.356765 0
M  V30 19882 H 1991.28 -2.75664 2.81785 0
M  V30 19883 H 1992.57 -3.87713 3.29478 0
M  V30 19884 H 1991.97 -5.62132 0.634383 0
M  V30 19885 H 1990.52 -6.42252 1.11158 0
M  V30 19886 N 1993.96 -1.29952 -0.891648 0
M  V30 19887 C 1994.92 -1.15756 -1.97821 0
M  V30 19888 C 1995.92 -0.0906975 -1.60544 0
M  V30 19889 O 1997.11 -0.338283 -1.70884 0
M  V30 19890 C 1994.24 -0.771976 -3.32044 0
M  V30 19891 H 1995.43 -2.12281 -2.11842 0
M  V30 19892 H 1992.99 -1.13253 -1.07719 0
M  V30 19893 H 1993.72 0.193059 -3.23725 0
M  V30 19894 H 1993.51 -1.54291 -3.60467 0
M  V30 19895 H 1995 -0.695941 -4.1176 0
M  V30 19896 N 1995.44 1.1031 -1.12559 0
M  V30 19897 C 1996.37 2.18738 -0.817073 0
M  V30 19898 C 1997.35 1.68675 0.219681 0
M  V30 19899 O 1998.53 1.94033 0.0805889 0
M  V30 19900 C 1995.66 3.46231 -0.272317 0
M  V30 19901 C 1994.62 4.09575 -1.24228 0
M  V30 19902 C 1993.94 5.31784 -0.557693 0
M  V30 19903 C 1995.24 4.53135 -2.59743 0
M  V30 19904 H 1996.94 2.44802 -1.72372 0
M  V30 19905 H 1994.48 1.17658 -0.830221 0
M  V30 19906 H 1996.43 4.21377 -0.0442049 0
M  V30 19907 H 1995.16 3.19661 0.669677 0
M  V30 19908 H 1993.82 3.36437 -1.45622 0
M  V30 19909 H 1993.47 5.0149 0.389484 0
M  V30 19910 H 1993.17 5.75117 -1.20473 0
M  V30 19911 H 1994.69 6.0966 -0.338649 0
M  V30 19912 H 1996.1 5.19548 -2.42369 0
M  V30 19913 H 1994.5 5.07322 -3.20537 0
M  V30 19914 H 1995.57 3.65989 -3.18088 0
M  V30 19915 N 1996.91 0.917694 1.28125 0
M  V30 19916 C 1997.84 0.426179 2.29578 0
M  V30 19917 C 1998.82 -0.508289 1.62328 0
M  V30 19918 O 2000.01 -0.415181 1.8971 0
M  V30 19919 C 1997.14 -0.331007 3.45719 0
M  V30 19920 C 1996.09 0.51469 4.24894 0
M  V30 19921 C 1995.42 -0.371069 5.33411 0
M  V30 19922 C 1996.72 1.774 4.9125 0
M  V30 19923 H 1998.41 1.27403 2.7094 0
M  V30 19924 H 1995.96 0.614065 1.30251 0
M  V30 19925 H 1997.91 -0.68573 4.15783 0
M  V30 19926 H 1996.64 -1.2128 3.03247 0
M  V30 19927 H 1995.3 0.851986 3.56562 0
M  V30 19928 H 1994.94 -1.25152 4.87182 0
M  V30 19929 H 1994.64 0.19121 5.87289 0
M  V30 19930 H 1996.17 -0.721587 6.06321 0
M  V30 19931 H 1997.58 1.48795 5.53654 0
M  V30 19932 H 1995.98 2.27899 5.55141 0
M  V30 19933 H 1997.05 2.49947 4.15517 0
M  V30 19934 N 1998.39 -1.42074 0.682102 0
M  V30 19935 C 1999.67 -1.95126 0.136033 0
M  V30 19936 C 2000.05 -1.62218 -1.35088 0
M  V30 19937 O 1999.4 -0.922124 -2.09067 0
M  V30 19938 C 1999.61 -3.46548 0.412954 0
M  V30 19939 C 2000.95 -4.23289 0.333404 0
M  V30 19940 O 2001.98 -3.54505 0.34711 0
M  V30 19941 O 2000.84 -5.45773 0.281884 0
M  V30 19942 H 1997.93 -0.826969 0.00711447 0
M  V30 19943 H 2000.48 -1.51864 0.757335 0
M  V30 19944 H 1999.25 -3.63733 1.4427 0
M  V30 19945 H 1998.87 -3.96875 -0.239993 0
M  V30 19946 N 1999.87 -0.425924 -1.51735 0
M  V30 19947 C 2001.12 0.144557 -2.02284 0
M  V30 19948 C 2001.45 1.43351 -1.31012 0
M  V30 19949 O 2000.72 1.89877 -0.421524 0
M  V30 19950 C 2001.01 0.37505 -3.58142 0
M  V30 19951 C 2000.86 -0.931753 -4.40044 0
M  V30 19952 C 2002.18 1.14986 -4.24813 0
M  V30 19953 H 1999.3 0.0510632 -0.735229 0
M  V30 19954 H 2001.94 -0.562685 -1.81477 0
M  V30 19955 H 2000.09 0.977495 -3.76002 0
M  V30 19956 H 2001.76 -1.5673 -4.33859 0
M  V30 19957 H 2000 -1.53896 -4.05584 0
M  V30 19958 H 2000.68 -0.724661 -5.47223 0
M  V30 19959 H 2003.15 0.639666 -4.11154 0
M  V30 19960 H 2002.03 1.27989 -5.3377 0
M  V30 19961 H 2002.29 2.17496 -3.849 0
M  V30 19962 N 2001.35 1.56817 -0.156891 0
M  V30 19963 C 2002.58 2.00807 0.498405 0
M  V30 19964 C 2002.99 1.03706 1.57768 0
M  V30 19965 O 2002.35 0.0356068 1.82465 0
M  V30 19966 C 2002.4 3.44676 1.08999 0
M  V30 19967 O 2002.12 4.38067 0.053817 0
M  V30 19968 C 2003.62 4.03994 1.82493 0
M  V30 19969 H 2000.84 0.658505 0.128888 0
M  V30 19970 H 2003.38 2.02912 -0.254383 0
M  V30 19971 H 2001.54 3.43392 1.79334 0
M  V30 19972 H 2001.95 5.2222 0.488568 0
M  V30 19973 H 2003.43 5.06627 2.19164 0
M  V30 19974 H 2003.9 3.45265 2.71456 0
M  V30 19975 H 2004.51 4.08938 1.16833 0
M  V30 19976 N 2002.83 -0.116876 1.57166 0
M  V30 19977 C 2003.78 -1.14913 1.96924 0
M  V30 19978 C 2004.76 -1.36955 0.844524 0
M  V30 19979 O 2005.95 -1.38012 1.10823 0
M  V30 19980 C 2003.08 -2.47515 2.37889 0
M  V30 19981 C 2002.17 -2.28939 3.56998 0
M  V30 19982 N 2002.56 -1.8018 4.72619 0
M  V30 19983 C 2000.86 -2.59587 3.62671 0
M  V30 19984 C 2001.56 -1.75362 5.54638 0
M  V30 19985 N 2000.53 -2.19785 4.97188 0
M  V30 19986 H 2004.33 -0.764725 2.83777 0
M  V30 19987 H 2001.85 -0.324594 1.59123 0
M  V30 19988 H 2003.85 -3.22177 2.6459 0
M  V30 19989 H 2002.51 -2.86712 1.52402 0
M  V30 19990 H 2003.52 -1.49696 4.95794 0
M  V30 19991 H 2000.19 -3.02456 2.87797 0
M  V30 19992 H 2001.58 -1.389 6.57386 0
M  V30 19993 N 2004.3 -1.52772 -0.387116 0
M  V30 19994 C 2005.53 -1.72086 -1.15763 0
M  V30 19995 C 2005.95 -0.43912 -1.82903 0
M  V30 19996 O 2005.31 0.605254 -1.70899 0
M  V30 19997 C 2005.36 -2.87248 -2.17992 0
M  V30 19998 O 2004.46 -2.54353 -3.2462 0
M  V30 19999 H 2003.8 -0.572174 -0.336918 0
M  V30 20000 H 2006.33 -1.99571 -0.450833 0
M  V30 20001 H 2006.34 -3.12798 -2.61957 0
M  V30 20002 H 2005.02 -3.80232 -1.68513 0
M  V30 20003 H 2003.6 -2.39551 -2.8578 0
M  V30 20004 N 2005.78 0.645673 -1.43767 0
M  V30 20005 C 2006.69 1.78723 -1.51972 0
M  V30 20006 C 2007.71 1.6919 -0.406299 0
M  V30 20007 O 2008.88 1.90225 -0.661534 0
M  V30 20008 C 2005.95 3.1504 -1.44744 0
M  V30 20009 C 2005.01 3.36313 -2.66818 0
M  V30 20010 C 2004.24 4.66127 -2.59926 0
M  V30 20011 O 2004.47 5.45978 -1.65118 0
M  V30 20012 O 2003.4 4.89285 -3.50548 0
M  V30 20013 H 2007.23 1.74755 -2.48384 0
M  V30 20014 H 2004.81 0.805097 -1.25851 0
M  V30 20015 H 2006.69 3.96329 -1.43182 0
M  V30 20016 H 2005.37 3.19582 -0.514693 0
M  V30 20017 H 2004.27 2.54759 -2.7395 0
M  V30 20018 H 2005.61 3.36623 -3.5909 0
M  V30 20019 N 2007.26 1.30423 0.884744 0
M  V30 20020 C 2008.19 1.19397 2.00666 0
M  V30 20021 C 2009.17 0.084568 1.6989 0
M  V30 20022 O 2010.36 0.266641 1.92361 0
M  V30 20023 C 2007.49 0.885244 3.35828 0
M  V30 20024 C 2006.44 1.9526 3.80864 0
M  V30 20025 C 2005.77 1.49687 5.13321 0
M  V30 20026 C 2007.07 3.3637 3.99566 0
M  V30 20027 H 2008.76 2.13256 2.10148 0
M  V30 20028 H 2006.31 1.02669 1.00971 0
M  V30 20029 H 2008.26 0.794764 4.13837 0
M  V30 20030 H 2006.98 -0.0890295 3.26479 0
M  V30 20031 H 2005.64 2.03272 3.05084 0
M  V30 20032 H 2005.29 0.510855 5.00399 0
M  V30 20033 H 2004.99 2.2108 5.44424 0
M  V30 20034 H 2006.51 1.42018 5.93855 0
M  V30 20035 H 2007.93 3.31115 4.68012 0
M  V30 20036 H 2006.32 4.05852 4.42046 0
M  V30 20037 H 2007.39 3.78244 3.03414 0
M  V30 20038 N 2008.74 -1.09711 1.13142 0
M  V30 20039 C 2009.97 -1.85595 0.914436 0
M  V30 20040 C 2010.38 -1.81013 -0.536632 0
M  V30 20041 O 2009.74 -1.20419 -1.37134 0
M  V30 20042 C 2009.79 -3.33692 1.39039 0
M  V30 20043 O 2009.51 -3.38219 2.78459 0
M  V30 20044 C 2011.01 -4.26427 1.21142 0
M  V30 20045 H 2008.23 -0.586333 0.326274 0
M  V30 20046 H 2010.77 -1.38646 1.50325 0
M  V30 20047 H 2008.93 -3.7808 0.844641 0
M  V30 20048 H 2009.34 -4.30567 2.9952 0
M  V30 20049 H 2010.82 -5.28508 1.59323 0
M  V30 20050 H 2011.29 -4.38934 0.152782 0
M  V30 20051 H 2011.9 -3.87851 1.74505 0
M  V30 20052 N 2010.22 -0.924476 -1.27637 0
M  V30 20053 C 2011.46 -0.564054 -1.94798 0
M  V30 20054 C 2011.8 0.891863 -1.72509 0
M  V30 20055 O 2011.07 1.63577 -1.05228 0
M  V30 20056 C 2011.35 -0.886888 -3.49008 0
M  V30 20057 C 2011.21 -2.39632 -3.80653 0
M  V30 20058 C 2012.53 -0.390514 -4.38364 0
M  V30 20059 H 2009.64 -0.206399 -0.707509 0
M  V30 20060 H 2012.29 -1.15567 -1.50812 0
M  V30 20061 H 2010.44 -0.383406 -3.86603 0
M  V30 20062 H 2012.11 -2.97125 -3.52866 0
M  V30 20063 H 2010.35 -2.84685 -3.27318 0
M  V30 20064 H 2011.02 -2.57274 -4.88379 0
M  V30 20065 H 2013.5 -0.821972 -4.07901 0
M  V30 20066 H 2012.37 -0.645381 -5.45093 0
M  V30 20067 H 2012.64 0.709365 -4.36372 0
M  V30 20068 N 2011.69 1.41711 -0.689627 0
M  V30 20069 C 2012.92 2.05652 -0.226938 0
M  V30 20070 C 2013.34 1.51875 1.12158 0
M  V30 20071 O 2012.69 0.664544 1.69971 0
M  V30 20072 C 2012.75 3.61102 -0.169503 0
M  V30 20073 O 2012.47 4.12888 -1.46475 0
M  V30 20074 C 2013.97 4.4218 0.314894 0
M  V30 20075 H 2011.19 0.66244 -0.10684 0
M  V30 20076 H 2013.73 1.81588 -0.940538 0
M  V30 20077 H 2011.89 3.84226 0.49488 0
M  V30 20078 H 2012.3 5.06884 -1.34791 0
M  V30 20079 H 2013.77 5.51162 0.303964 0
M  V30 20080 H 2014.25 4.17848 1.35275 0
M  V30 20081 H 2014.86 4.24107 -0.318278 0
M  V30 20082 N 2013.17 0.433965 1.51507 0
M  V30 20083 C 2014.42 -0.133827 2.02358 0
M  V30 20084 C 2014.75 -1.42654 1.3177 0
M  V30 20085 O 2014.03 -1.89651 0.431588 0
M  V30 20086 C 2014.31 -0.356052 3.58335 0
M  V30 20087 C 2014.16 0.955077 4.39543 0
M  V30 20088 C 2015.48 -1.12732 4.25417 0
M  V30 20089 H 2012.6 -0.0471634 0.735489 0
M  V30 20090 H 2015.24 0.572301 1.81176 0
M  V30 20091 H 2013.39 -0.957541 3.76515 0
M  V30 20092 H 2015.06 1.59029 4.33021 0
M  V30 20093 H 2013.31 1.56044 4.04762 0
M  V30 20094 H 2013.98 0.753671 5.46831 0
M  V30 20095 H 2016.45 -0.617852 4.11487 0
M  V30 20096 H 2015.33 -1.25157 5.34441 0
M  V30 20097 H 2015.59 -2.15452 3.86048 0
M  V30 20098 N 2014.65 -1.56732 0.165206 0
M  V30 20099 C 2016.07 -1.58453 -0.191031 0
M  V30 20100 C 2016.27 -1.1803 -1.63313 0
M  V30 20101 O 2015.32 -0.889055 -2.3633 0
M  V30 20102 C 2016.64 -3.00582 0.0842414 0
M  V30 20103 C 2018.18 -3.12992 0.0219686 0
M  V30 20104 C 2018.66 -4.57203 0.270149 0
M  V30 20105 N 2020.15 -4.62688 0.217711 0
M  V30 20106 C 2020.88 -5.72113 0.383998 0
M  V30 20107 N 2020.38 -6.90118 0.609007 0
M  V30 20108 N 2022.17 -5.61187 0.320329 0
M  V30 20109 H 2014.32 -1.81296 1.1066 0
M  V30 20110 H 2016.59 -0.839986 0.439463 0
M  V30 20111 H 2016.29 -3.3461 1.083 0
M  V30 20112 H 2016.17 -3.71954 -0.62693 0
M  V30 20113 H 2018.55 -2.78794 -0.967358 0
M  V30 20114 H 2018.64 -2.44069 0.765755 0
M  V30 20115 H 2018.28 -4.92108 1.25666 0
M  V30 20116 H 2018.21 -5.24276 -0.494177 0
M  V30 20117 H 2020.7 -3.77868 0.0491965 0
M  V30 20118 H 2021.01 -7.69387 0.725507 0
M  V30 20119 H 2019.36 -6.91995 0.645549 0
M  V30 20120 H 2022.55 -4.67875 0.145176 0
M  V30 20121 H 2022.72 -6.46412 0.453351 0
M  V30 20122 N 2016.13 0.10854 -1.57226 0
M  V30 20123 C 2017.37 0.815673 -1.85673 0
M  V30 20124 C 2017.71 1.79031 -0.752441 0
M  V30 20125 O 2016.98 1.93004 0.240811 0
M  V30 20126 C 2017.27 1.55633 -3.24731 0
M  V30 20127 C 2017.12 0.600595 -4.45772 0
M  V30 20128 C 2018.44 2.51009 -3.61501 0
M  V30 20129 H 2015.56 0.295076 -0.675351 0
M  V30 20130 H 2018.2 0.079634 -1.89833 0
M  V30 20131 H 2016.35 2.18377 -3.21316 0
M  V30 20132 H 2018.02 -0.0187984 -4.61296 0
M  V30 20133 H 2016.26 -0.0870799 -4.33713 0
M  V30 20134 H 2016.93 1.15569 -5.39766 0
M  V30 20135 H 2019.41 1.98365 -3.65774 0
M  V30 20136 H 2018.29 2.99857 -4.59758 0
M  V30 20137 H 2018.55 3.34154 -2.89472 0
M  V30 20138 N 2017.61 1.52975 0.379009 0
M  V30 20139 C 2019.02 1.60338 0.956477 0
M  V30 20140 C 2019.37 0.462422 1.90673 0
M  V30 20141 O 2018.49 -0.413093 2.12421 0
M  V30 20142 C 2019.09 2.90615 1.74151 0
M  V30 20143 C 2017.65 3.00358 2.26853 0
M  V30 20144 C 2016.79 2.55532 1.07697 0
M  V30 20145 H 2019.75 1.57909 0.158228 0
M  V30 20146 H 2019.77 2.77662 2.60161 0
M  V30 20147 H 2019.28 3.73636 1.04965 0
M  V30 20148 H 2017.38 2.21895 2.99321 0
M  V30 20149 H 2017.49 4.05188 2.55655 0
M  V30 20150 H 2015.86 2.10088 1.43997 0
M  V30 20151 H 2016.64 3.40958 0.400297 0
M  V30 20152 N 2019.08 -0.63804 1.44107 0
M  V30 20153 C 2020.03 -1.75032 1.5044 0
M  V30 20154 C 2021 -1.62312 0.352721 0
M  V30 20155 O 2022.19 -1.82335 0.562 0
M  V30 20156 C 2019.33 -3.13253 1.44798 0
M  V30 20157 C 2018.44 -3.37 2.70287 0
M  V30 20158 C 2017.57 -4.65154 2.56526 0
M  V30 20159 C 2016.61 -4.82055 3.77212 0
M  V30 20160 N 2015.75 -6.0148 3.62169 0
M  V30 20161 H 2020.59 -1.68954 2.45476 0
M  V30 20162 H 2018.13 -0.82428 1.21836 0
M  V30 20163 H 2020.09 -3.9318 1.39518 0
M  V30 20164 H 2018.72 -3.18364 0.53334 0
M  V30 20165 H 2017.77 -2.51062 2.85783 0
M  V30 20166 H 2019.08 -3.4537 3.5989 0
M  V30 20167 H 2018.23 -5.5323 2.4904 0
M  V30 20168 H 2016.97 -4.5913 1.64472 0
M  V30 20169 H 2015.98 -3.9241 3.8509 0
M  V30 20170 H 2017.2 -4.89898 4.70294 0
M  V30 20171 H 2015.15 -5.96559 2.72861 0
M  V30 20172 H 2015.07 -6.10876 4.45384 0
M  V30 20173 H 2016.33 -6.92137 3.58562 0
M  V30 20174 N 2020.56 -1.3089 -0.877815 0
M  V30 20175 C 2021.81 -1.19888 -1.627 0
M  V30 20176 C 2022.13 0.244972 -1.93455 0
M  V30 20177 O 2021.4 1.16355 -1.57602 0
M  V30 20178 H 2019.98 -0.440719 -0.603138 0
M  V30 20179 H 2022.64 -1.64112 -1.05134 0
M  V30 20180 H 2021.74 -1.76493 -2.57404 0
M  V30 20181 N 2022.04 1.0911 -1.13723 0
M  V30 20182 C 2023.46 1.33403 -0.87611 0
M  V30 20183 C 2023.66 1.95536 0.486607 0
M  V30 20184 O 2022.71 2.2038 1.23243 0
M  V30 20185 C 2024.03 2.24255 -2.00325 0
M  V30 20186 C 2025.57 2.37755 -2.03572 0
M  V30 20187 C 2026.05 3.31944 -3.15558 0
M  V30 20188 N 2027.54 3.39519 -3.15089 0
M  V30 20189 C 2028.27 4.12409 -3.9838 0
M  V30 20190 N 2027.77 4.88068 -4.91692 0
M  V30 20191 N 2029.56 4.08167 -3.86467 0
M  V30 20192 H 2021.71 0.671565 -2.01504 0
M  V30 20193 H 2023.98 0.358401 -0.877641 0
M  V30 20194 H 2023.68 1.85834 -2.98595 0
M  V30 20195 H 2023.56 3.24667 -1.92019 0
M  V30 20196 H 2025.94 2.75438 -1.05913 0
M  V30 20197 H 2026.03 1.3711 -2.1595 0
M  V30 20198 H 2025.67 2.94984 -4.13458 0
M  V30 20199 H 2025.6 4.32501 -3.00418 0
M  V30 20200 H 2028.09 2.85573 -2.475 0
M  V30 20201 H 2028.4 5.41127 -5.51726 0
M  V30 20202 H 2026.75 4.87146 -4.95695 0
M  V30 20203 H 2029.94 3.48161 -3.12892 0
M  V30 20204 H 2030.11 4.64711 -4.51606 0
M  V30 20205 N 2023.52 0.931232 1.27145 0
M  V30 20206 C 2024.76 0.583874 1.9484 0
M  V30 20207 C 2025.12 -0.86594 1.71812 0
M  V30 20208 O 2024.41 -1.61003 1.03869 0
M  V30 20209 C 2024.61 0.850081 3.47143 0
M  V30 20210 C 2024.44 2.32422 3.84981 0
M  V30 20211 C 2023.21 2.97757 4.08251 0
M  V30 20212 C 2025.4 3.302 3.943 0
M  V30 20213 N 2023.39 4.35287 4.32895 0
M  V30 20214 C 2024.76 4.52952 4.23361 0
M  V30 20215 C 2026.81 3.2536 3.76889 0
M  V30 20216 C 2025.51 5.7147 4.36823 0
M  V30 20217 C 2027.54 4.43194 3.91577 0
M  V30 20218 C 2026.9 5.64726 4.21028 0
M  V30 20219 H 2023 0.263846 0.736145 0
M  V30 20220 H 2025.59 1.19858 1.53434 0
M  V30 20221 H 2023.76 0.264502 3.87498 0
M  V30 20222 H 2025.49 0.464995 4.0202 0
M  V30 20223 H 2022.24 2.48413 4.03222 0
M  V30 20224 H 2022.67 5.06445 4.49269 0
M  V30 20225 H 2027.31 2.32465 3.53157 0
M  V30 20226 H 2025.03 6.64828 4.5938 0
M  V30 20227 H 2028.61 4.40971 3.79521 0
M  V30 20228 H 2027.49 6.54384 4.32147 0
M  V30 20229 N 2025 -1.41343 0.697132 0
M  V30 20230 C 2025.93 -2.33452 0.0471857 0
M  V30 20231 C 2026.91 -1.51902 -0.765488 0
M  V30 20232 O 2028.09 -1.80434 -0.718146 0
M  V30 20233 C 2025.22 -3.35735 -0.888781 0
M  V30 20234 C 2024.18 -4.27608 -0.183088 0
M  V30 20235 C 2023.5 -5.20277 -1.23352 0
M  V30 20236 C 2024.8 -5.13559 0.951558 0
M  V30 20237 H 2026.5 -2.88052 0.816496 0
M  V30 20238 H 2024.04 -1.38502 0.394089 0
M  V30 20239 H 2026 -3.99098 -1.35272 0
M  V30 20240 H 2024.72 -2.79489 -1.68977 0
M  V30 20241 H 2023.38 -3.65671 0.260833 0
M  V30 20242 H 2023.03 -4.60346 -2.02708 0
M  V30 20243 H 2022.73 -5.82581 -0.766336 0
M  V30 20244 H 2024.25 -5.86517 -1.69793 0
M  V30 20245 H 2025.67 -5.70481 0.567835 0
M  V30 20246 H 2024.06 -5.84812 1.34593 0
M  V30 20247 H 2025.13 -4.50631 1.79053 0
M  V30 20248 N 2026.48 -0.441993 -1.51275 0
M  V30 20249 C 2027.72 0.115336 -2.03073 0
M  V30 20250 C 2028.08 1.39979 -1.31998 0
M  V30 20251 O 2027.37 1.86768 -0.427588 0
M  V30 20252 C 2027.56 0.384298 -3.55328 0
M  V30 20253 C 2027.39 -0.87254 -4.41154 0
M  V30 20254 C 2026.16 -1.40742 -4.85304 0
M  V30 20255 C 2028.36 -1.75998 -4.83249 0
M  V30 20256 N 2026.34 -2.61632 -5.55358 0
M  V30 20257 C 2027.71 -2.81489 -5.52416 0
M  V30 20258 C 2029.77 -1.77383 -4.65231 0
M  V30 20259 C 2028.47 -3.88318 -6.05476 0
M  V30 20260 C 2030.5 -2.83151 -5.1921 0
M  V30 20261 C 2029.86 -3.87362 -5.88328 0
M  V30 20262 H 2025.96 0.00292021 -0.781995 0
M  V30 20263 H 2028.54 -0.603705 -1.85104 0
M  V30 20264 H 2026.71 1.07237 -3.73302 0
M  V30 20265 H 2028.45 0.933396 -3.93789 0
M  V30 20266 H 2025.2 -0.960689 -4.63754 0
M  V30 20267 H 2025.62 -3.22945 -5.95009 0
M  V30 20268 H 2030.27 -0.981441 -4.11251 0
M  V30 20269 H 2027.98 -4.68393 -6.58509 0
M  V30 20270 H 2031.57 -2.85171 -5.07118 0
M  V30 20271 H 2030.45 -4.67859 -6.29347 0
M  V30 20272 N 2027.95 1.56642 -0.173515 0
M  V30 20273 C 2028.88 2.21076 0.751509 0
M  V30 20274 C 2029.86 1.16706 1.23749 0
M  V30 20275 O 2031.05 1.45142 1.29025 0
M  V30 20276 C 2028.18 2.85323 1.9801 0
M  V30 20277 C 2027.13 3.95751 1.62989 0
M  V30 20278 C 2026.46 4.47058 2.93332 0
M  V30 20279 C 2027.76 5.15234 0.856231 0
M  V30 20280 H 2029.45 2.98631 0.21442 0
M  V30 20281 H 2027 1.4364 0.101692 0
M  V30 20282 H 2028.95 3.29075 2.63226 0
M  V30 20283 H 2027.68 2.0514 2.54136 0
M  V30 20284 H 2026.34 3.52658 1.00141 0
M  V30 20285 H 2025.98 3.63663 3.47503 0
M  V30 20286 H 2025.68 5.21556 2.70652 0
M  V30 20287 H 2027.21 4.93497 3.59573 0
M  V30 20288 H 2028.62 5.55665 1.41102 0
M  V30 20289 H 2027.02 5.95663 0.728389 0
M  V30 20290 H 2028.09 4.84677 -0.147009 0
M  V30 20291 N 2029.43 -0.1002 1.57281 0
M  V30 20292 C 2030.71 -0.836006 1.76834 0
M  V30 20293 C 2031.09 -1.9718 0.753864 0
M  V30 20294 O 2030.44 -2.27452 -0.218626 0
M  V30 20295 C 2030.65 -1.33532 3.22444 0
M  V30 20296 C 2031.99 -1.78015 3.85481 0
M  V30 20297 O 2033.02 -1.43167 3.26162 0
M  V30 20298 O 2031.88 -2.42432 4.89784 0
M  V30 20299 H 2028.97 -0.398386 0.724719 0
M  V30 20300 H 2031.52 -0.0824784 1.69499 0
M  V30 20301 H 2030.29 -0.521307 3.87812 0
M  V30 20302 H 2029.91 -2.151 3.34391 0
M  V30 20303 N 2030.91 -1.53174 -0.370891 0
M  V30 20304 C 2032.14 -1.72749 -1.13319 0
M  V30 20305 C 2032.55 -0.453832 -1.83676 0
M  V30 20306 O 2031.89 0.582685 -1.74214 0
M  V30 20307 C 2031.95 -2.83436 -2.21143 0
M  V30 20308 C 2031.62 -4.23963 -1.70599 0
M  V30 20309 C 2032.61 -5.06496 -1.17293 0
M  V30 20310 C 2030.3 -4.70354 -1.76273 0
M  V30 20311 C 2032.29 -6.33508 -0.703308 0
M  V30 20312 C 2029.98 -5.97346 -1.28923 0
M  V30 20313 C 2030.98 -6.78754 -0.760411 0
M  V30 20314 O 2030.67 -8.03363 -0.293883 0
M  V30 20315 H 2030.4 -0.581347 -0.344981 0
M  V30 20316 H 2032.95 -2.0069 -0.437343 0
M  V30 20317 H 2031.18 -2.50957 -2.94206 0
M  V30 20318 H 2032.87 -2.9124 -2.82726 0
M  V30 20319 H 2033.64 -4.71831 -1.12252 0
M  V30 20320 H 2029.52 -4.07066 -2.16375 0
M  V30 20321 H 2033.06 -6.96997 -0.289876 0
M  V30 20322 H 2028.96 -6.31511 -1.33655 0
M  V30 20323 H 2029.72 -8.17454 -0.413701 0
M  V30 20324 N 2032.39 0.630389 -1.44443 0
M  V30 20325 C 2033.63 1.39199 -1.47484 0
M  V30 20326 C 2033.97 1.93903 -0.107313 0
M  V30 20327 O 2033.24 1.73699 0.875158 0
M  V30 20328 C 2033.52 2.55674 -2.5358 0
M  V30 20329 C 2033.38 2.06314 -3.99693 0
M  V30 20330 C 2034.7 3.57858 -2.56174 0
M  V30 20331 H 2031.82 0.504794 -0.536984 0
M  V30 20332 H 2034.46 0.712698 -1.76127 0
M  V30 20333 H 2032.61 3.13624 -2.29287 0
M  V30 20334 H 2034.28 1.53189 -4.35122 0
M  V30 20335 H 2032.52 1.37492 -4.11435 0
M  V30 20336 H 2033.19 2.90173 -4.69578 0
M  V30 20337 H 2035.67 3.0971 -2.77883 0
M  V30 20338 H 2034.55 4.36875 -3.32312 0
M  V30 20339 H 2034.81 4.11976 -1.60401 0
M  V30 20340 N 2033.87 1.31354 0.870861 0
M  V30 20341 C 2034.8 1.21518 1.99388 0
M  V30 20342 C 2035.78 0.102582 1.6979 0
M  V30 20343 O 2036.96 0.287028 1.92067 0
M  V30 20344 C 2034.09 0.920813 3.34871 0
M  V30 20345 C 2033.05 1.99289 3.78772 0
M  V30 20346 C 2032.37 1.55123 5.11704 0
M  V30 20347 C 2033.67 3.40589 3.95975 0
M  V30 20348 H 2035.37 2.15473 2.07875 0
M  V30 20349 H 2032.91 1.03734 0.998761 0
M  V30 20350 H 2034.86 0.838612 4.12971 0
M  V30 20351 H 2033.59 -0.0543971 3.26555 0
M  V30 20352 H 2032.25 2.06496 3.0291 0
M  V30 20353 H 2031.9 0.563901 4.99829 0
M  V30 20354 H 2031.6 2.26842 5.42048 0
M  V30 20355 H 2033.12 1.48308 5.92315 0
M  V30 20356 H 2034.53 3.36061 4.64474 0
M  V30 20357 H 2032.93 4.10517 4.37716 0
M  V30 20358 H 2034 3.8144 2.99385 0
M  V30 20359 N 2035.34 -1.08505 1.143 0
M  V30 20360 C 2036.59 -1.8114 0.911938 0
M  V30 20361 C 2036.92 -1.85946 -0.560156 0
M  V30 20362 O 2036.2 -1.33458 -1.41489 0
M  V30 20363 C 2036.48 -3.26806 1.51227 0
M  V30 20364 C 2036.33 -3.30215 3.05414 0
M  V30 20365 C 2037.65 -4.23754 1.1883 0
M  V30 20366 H 2034.77 -0.657619 0.332725 0
M  V30 20367 H 2037.41 -1.27044 1.41279 0
M  V30 20368 H 2035.56 -3.73003 1.08633 0
M  V30 20369 H 2037.24 -2.92351 3.56832 0
M  V30 20370 H 2035.48 -2.69518 3.39915 0
M  V30 20371 H 2036.15 -4.32875 3.42525 0
M  V30 20372 H 2038.63 -3.8589 1.55653 0
M  V30 20373 H 2037.5 -5.23993 1.63469 0
M  V30 20374 H 2037.76 -4.41979 0.103442 0
M  V30 20375 N 2036.82 -0.937962 -1.26649 0
M  V30 20376 C 2038.07 -0.584683 -1.94189 0
M  V30 20377 C 2038.4 0.873516 -1.73446 0
M  V30 20378 O 2037.68 1.62451 -1.06957 0
M  V30 20379 C 2037.96 -0.923855 -3.48047 0
M  V30 20380 C 2037.81 -2.43656 -3.7809 0
M  V30 20381 C 2039.13 -0.436986 -4.37925 0
M  V30 20382 H 2036.25 -0.213892 -0.70528 0
M  V30 20383 H 2038.89 -1.1716 -1.49578 0
M  V30 20384 H 2037.04 -0.424389 -3.86175 0
M  V30 20385 H 2038.71 -3.00851 -3.49695 0
M  V30 20386 H 2036.96 -2.88141 -3.2428 0
M  V30 20387 H 2037.63 -2.62439 -4.85623 0
M  V30 20388 H 2040.1 -0.865189 -4.07006 0
M  V30 20389 H 2038.98 -0.703159 -5.44378 0
M  V30 20390 H 2039.24 0.663042 -4.371 0
M  V30 20391 N 2038.3 1.40971 -0.704618 0
M  V30 20392 C 2039.71 1.84055 -0.313126 0
M  V30 20393 C 2040.06 1.5894 1.15033 0
M  V30 20394 O 2039.19 1.06454 1.88405 0
M  V30 20395 C 2039.78 3.34114 -0.561542 0
M  V30 20396 C 2038.34 3.75734 -0.223873 0
M  V30 20397 C 2037.49 2.64292 -0.839356 0
M  V30 20398 H 2040.44 1.30394 -0.904599 0
M  V30 20399 H 2040.46 3.80089 0.176821 0
M  V30 20400 H 2039.97 3.52362 -1.62673 0
M  V30 20401 H 2038.07 3.63084 0.836696 0
M  V30 20402 H 2038.19 4.74175 -0.685211 0
M  V30 20403 H 2036.55 2.53284 -0.268242 0
M  V30 20404 H 2037.33 2.85355 -1.9086 0
M  V30 20405 N 2039.78 0.45001 1.51039 0
M  V30 20406 C 2040.69 -0.360857 2.31808 0
M  V30 20407 C 2041.7 -1.01585 1.41267 0
M  V30 20408 O 2042.88 -1.00845 1.74334 0
M  V30 20409 C 2039.95 -1.44034 3.15365 0
M  V30 20410 C 2039.01 -0.804156 4.21701 0
M  V30 20411 C 2038.24 -1.83221 5.01264 0
M  V30 20412 O 2038.46 -3.05609 4.81622 0
M  V30 20413 O 2037.4 -1.41571 5.85014 0
M  V30 20414 H 2041.22 0.298869 3.02226 0
M  V30 20415 H 2038.81 0.212277 1.47884 0
M  V30 20416 H 2040.69 -2.06611 3.67273 0
M  V30 20417 H 2039.36 -2.08392 2.47698 0
M  V30 20418 H 2038.27 -0.139997 3.73838 0
M  V30 20419 H 2039.6 -0.203865 4.91778 0
M  V30 20420 N 2041.26 -1.56548 0.18182 0
M  V30 20421 C 2042.2 -2.19794 -0.761146 0
M  V30 20422 C 2043.2 -1.16509 -1.22971 0
M  V30 20423 O 2044.4 -1.34685 -1.19415 0
M  V30 20424 H 2040.78 -0.704224 -0.263766 0
M  V30 20425 H 2042.75 -2.97703 -0.203871 0
M  V30 20426 C 2041.5 -2.86108 -1.9758 0
M  V30 20427 H 2040.82 -3.65317 -1.62429 0
M  V30 20428 H 2042.26 -3.33816 -2.61424 0
M  V30 20429 C 2040.72 -1.86435 -2.80613 0
M  V30 20430 O 2041.25 -1.35635 -3.78109 0
M  V30 20431 N 2039.46 -1.54958 -2.45838 0
M  V30 20432 H 2039 -1.96462 -1.66614 0
M  V30 20433 H 2038.96 -0.885231 -3.0168 0
M  V30 20434 N 2042.73 0.0918577 -1.57332 0
M  V30 20435 C 2043.98 0.795934 -1.86528 0
M  V30 20436 C 2044.31 1.78222 -0.771388 0
M  V30 20437 O 2043.59 1.93248 0.220326 0
M  V30 20438 C 2043.87 1.5218 -3.26364 0
M  V30 20439 C 2043.72 0.553281 -4.46384 0
M  V30 20440 C 2045.04 2.4716 -3.64143 0
M  V30 20441 H 2042.16 0.287896 -0.678443 0
M  V30 20442 H 2044.8 0.0594952 -1.89907 0
M  V30 20443 H 2042.95 2.14956 -3.23614 0
M  V30 20444 H 2044.63 -0.0677239 -4.6125 0
M  V30 20445 H 2042.87 -0.133076 -4.33596 0
M  V30 20446 H 2043.54 1.09838 -5.40962 0
M  V30 20447 H 2046.02 1.94474 -3.67857 0
M  V30 20448 H 2044.89 2.94964 -4.62912 0
M  V30 20449 H 2045.15 3.31065 -2.92999 0
M  V30 20450 N 2044.21 1.53368 0.362763 0
M  V30 20451 C 2045.44 1.73348 1.12402 0
M  V30 20452 C 2045.85 0.463567 1.83433 0
M  V30 20453 O 2045.19 -0.573438 1.7452 0
M  V30 20454 C 2045.26 2.84605 2.19637 0
M  V30 20455 C 2044.92 4.24862 1.68348 0
M  V30 20456 C 2045.92 5.07111 1.14605 0
M  V30 20457 C 2043.6 4.71283 1.73776 0
M  V30 20458 C 2045.6 6.33872 0.669702 0
M  V30 20459 C 2043.28 5.98021 1.25753 0
M  V30 20460 C 2044.28 6.79148 0.724405 0
M  V30 20461 O 2043.97 8.03507 0.251275 0
M  V30 20462 H 2043.7 0.583168 0.341893 0
M  V30 20463 H 2046.25 2.00919 0.426694 0
M  V30 20464 H 2044.48 2.52514 2.92871 0
M  V30 20465 H 2046.17 2.92735 2.81177 0
M  V30 20466 H 2046.94 4.7242 1.09748 0
M  V30 20467 H 2042.82 4.08208 2.14213 0
M  V30 20468 H 2046.36 6.97141 0.252909 0
M  V30 20469 H 2042.26 6.32211 1.30304 0
M  V30 20470 H 2043.03 8.17662 0.370343 0
M  V30 20471 N 2045.69 -0.62272 1.44776 0
M  V30 20472 C 2046.92 -1.41403 1.51723 0
M  V30 20473 C 2047.34 -1.87534 0.145802 0
M  V30 20474 O 2046.7 -1.59244 -0.866667 0
M  V30 20475 C 2046.75 -2.60482 2.49362 0
M  V30 20476 O 2045.85 -3.60604 2.00096 0
M  V30 20477 H 2045.19 -0.422766 0.51202 0
M  V30 20478 H 2047.72 -0.759294 1.89989 0
M  V30 20479 H 2047.73 -3.0792 2.67674 0
M  V30 20480 H 2046.41 -2.26253 3.48974 0
M  V30 20481 H 2044.98 -3.19918 1.9159 0
M  V30 20482 N 2047.17 -1.31814 -0.863883 0
M  V30 20483 C 2048.42 -1.21847 -1.61739 0
M  V30 20484 C 2048.74 0.221932 -1.9323 0
M  V30 20485 O 2048 1.1724 -1.56695 0
M  V30 20486 C 2048.3 -2.01404 -2.95248 0
M  V30 20487 C 2047.96 -3.50849 -2.83224 0
M  V30 20488 C 2046.63 -3.91597 -2.79653 0
M  V30 20489 C 2048.98 -4.45922 -2.6982 0
M  V30 20490 C 2046.31 -5.25675 -2.60543 0
M  V30 20491 C 2048.66 -5.80133 -2.52247 0
M  V30 20492 C 2047.32 -6.20094 -2.47062 0
M  V30 20493 H 2046.59 -0.445871 -0.591845 0
M  V30 20494 H 2049.24 -1.63143 -1.00282 0
M  V30 20495 H 2047.54 -1.52808 -3.60773 0
M  V30 20496 H 2049.24 -1.91069 -3.52553 0
M  V30 20497 H 2045.83 -3.1848 -2.86825 0
M  V30 20498 H 2050.01 -4.15368 -2.71631 0
M  V30 20499 H 2045.27 -5.55704 -2.54958 0
M  V30 20500 H 2049.44 -6.53424 -2.40853 0
M  V30 20501 H 2047.07 -7.23929 -2.32014 0
M  V30 20502 N 2048.65 1.07897 -1.14873 0
M  V30 20503 C 2049.89 1.8003 -0.918351 0
M  V30 20504 C 2050.22 1.86897 0.556293 0
M  V30 20505 O 2049.49 1.36584 1.40434 0
M  V30 20506 H 2048.07 0.666777 -0.336776 0
M  V30 20507 H 2050.73 1.30421 -1.44832 0
M  V30 20508 H 2049.82 2.82678 -1.32287 0
M  V30 20509 N 2050.12 0.944665 1.2615 0
M  V30 20510 C 2051.35 0.61007 1.97387 0
M  V30 20511 C 2051.76 -0.819956 1.70509 0
M  V30 20512 O 2051.11 -1.55879 0.971982 0
M  V30 20513 C 2051.17 0.776673 3.5101 0
M  V30 20514 C 2050.83 2.18198 4.01545 0
M  V30 20515 C 2051.83 3.15777 4.13014 0
M  V30 20516 C 2049.51 2.5035 4.35466 0
M  V30 20517 C 2051.51 4.43607 4.57703 0
M  V30 20518 C 2049.19 3.7841 4.79842 0
M  V30 20519 C 2050.19 4.74852 4.90922 0
M  V30 20520 O 2049.88 6.00632 5.34319 0
M  V30 20521 H 2049.61 0.228468 0.636222 0
M  V30 20522 H 2052.17 1.26867 1.61536 0
M  V30 20523 H 2050.4 0.0609398 3.86652 0
M  V30 20524 H 2052.09 0.44462 4.03457 0
M  V30 20525 H 2052.85 2.92263 3.8705 0
M  V30 20526 H 2048.73 1.76017 4.26074 0
M  V30 20527 H 2052.27 5.18885 4.66266 0
M  V30 20528 H 2048.17 4.01736 5.05251 0
M  V30 20529 H 2048.94 6.03864 5.52531 0
M  V30 20530 N 2051.6 -1.40596 0.712085 0
M  V30 20531 C 2052.53 -2.33389 0.0719438 0
M  V30 20532 C 2053.51 -1.52706 -0.749334 0
M  V30 20533 O 2054.7 -1.81185 -0.698968 0
M  V30 20534 C 2051.83 -3.36659 -0.853122 0
M  V30 20535 C 2050.78 -4.27778 -0.137724 0
M  V30 20536 C 2050.11 -5.21556 -1.17827 0
M  V30 20537 C 2051.41 -5.12521 1.00597 0
M  V30 20538 H 2053.1 -2.87169 0.847002 0
M  V30 20539 H 2050.65 -1.38077 0.408756 0
M  V30 20540 H 2052.6 -4.00511 -1.31031 0
M  V30 20541 H 2051.33 -2.81266 -1.66004 0
M  V30 20542 H 2049.98 -3.65374 0.299603 0
M  V30 20543 H 2049.63 -4.6247 -1.97814 0
M  V30 20544 H 2049.33 -5.83361 -0.704503 0
M  V30 20545 H 2050.86 -5.88285 -1.63563 0
M  V30 20546 H 2052.27 -5.69847 0.62831 0
M  V30 20547 H 2050.67 -5.83351 1.40789 0
M  V30 20548 H 2051.74 -4.48706 1.83822 0
M  V30 20549 N 2053.08 -0.458013 -1.50798 0
M  V30 20550 C 2054.5 -0.111425 -1.59211 0
M  V30 20551 C 2054.7 1.38104 -1.46729 0
M  V30 20552 O 2053.75 2.15306 -1.31907 0
M  V30 20553 C 2055.07 -0.649971 -2.93591 0
M  V30 20554 C 2056.61 -0.612237 -3.06954 0
M  V30 20555 C 2057.09 -1.1281 -4.43889 0
M  V30 20556 N 2058.58 -1.08696 -4.50266 0
M  V30 20557 C 2059.31 -1.45676 -5.54586 0
M  V30 20558 N 2058.81 -1.90042 -6.66225 0
M  V30 20559 N 2060.6 -1.37362 -5.45058 0
M  V30 20560 H 2052.75 -1.42885 -1.57155 0
M  V30 20561 H 2055.02 -0.590085 -0.741959 0
M  V30 20562 H 2054.72 -1.695 -3.0816 0
M  V30 20563 H 2054.6 -0.0862666 -3.77101 0
M  V30 20564 H 2056.98 0.42385 -2.9204 0
M  V30 20565 H 2057.07 -1.21259 -2.25233 0
M  V30 20566 H 2056.71 -2.16276 -4.59551 0
M  V30 20567 H 2056.64 -0.50409 -5.24182 0
M  V30 20568 H 2059.13 -0.761406 -3.7015 0
M  V30 20569 H 2059.44 -2.16442 -7.41871 0
M  V30 20570 H 2057.79 -1.93985 -6.67379 0
M  V30 20571 H 2060.98 -1.02552 -4.56728 0
M  V30 20572 H 2061.15 -1.66508 -6.26242 0
M  V30 20573 N 2054.56 1.56449 -0.190119 0
M  V30 20574 C 2055.47 2.22463 0.744809 0
M  V30 20575 C 2056.49 1.22213 1.23855 0
M  V30 20576 O 2057.66 1.54934 1.28675 0
M  V30 20577 C 2054.73 2.86716 1.94923 0
M  V30 20578 C 2053.79 4.02222 1.50054 0
M  V30 20579 C 2053.02 4.63401 2.64755 0
M  V30 20580 O 2053.24 4.23495 3.8211 0
M  V30 20581 O 2052.18 5.52953 2.37752 0
M  V30 20582 H 2056 3.02955 0.212633 0
M  V30 20583 H 2053.59 1.49349 0.0389463 0
M  V30 20584 H 2055.47 3.27385 2.65324 0
M  V30 20585 H 2054.15 2.09207 2.4701 0
M  V30 20586 H 2053.05 3.66185 0.765469 0
M  V30 20587 H 2054.39 4.81379 1.02638 0
M  V30 20588 N 2056.04 -0.0835127 1.57379 0
M  V30 20589 C 2056.95 -1.11858 2.06216 0
M  V30 20590 C 2057.96 -1.43137 0.989333 0
M  V30 20591 O 2059.14 -1.53548 1.30327 0
M  V30 20592 C 2056.2 -2.41603 2.48655 0
M  V30 20593 C 2055.27 -2.17401 3.70183 0
M  V30 20594 C 2054.5 -3.40959 4.10588 0
M  V30 20595 O 2054.72 -4.49637 3.50974 0
M  V30 20596 O 2053.66 -3.29863 5.03462 0
M  V30 20597 H 2057.48 -0.733741 2.94703 0
M  V30 20598 H 2055.07 -0.296834 1.46421 0
M  V30 20599 H 2056.95 -3.1798 2.76526 0
M  V30 20600 H 2055.62 -2.7949 1.63301 0
M  V30 20601 H 2054.53 -1.38767 3.47411 0
M  V30 20602 H 2055.86 -1.84401 4.56352 0
M  V30 20603 N 2057.52 -1.53558 -0.354624 0
M  V30 20604 C 2058.93 -1.6184 -0.930847 0
M  V30 20605 C 2059.28 -0.492698 -1.89913 0
M  V30 20606 O 2058.4 0.379247 -2.13051 0
M  V30 20607 C 2059 -2.93348 -1.69506 0
M  V30 20608 C 2057.56 -3.03929 -2.22046 0
M  V30 20609 C 2056.7 -2.57213 -1.03618 0
M  V30 20610 H 2059.65 -1.58141 -0.133086 0
M  V30 20611 H 2059.68 -2.81766 -2.55711 0
M  V30 20612 H 2059.19 -3.75259 -0.990072 0
M  V30 20613 H 2057.29 -2.26629 -2.95753 0
M  V30 20614 H 2057.4 -4.09204 -2.49176 0
M  V30 20615 H 2055.77 -2.12352 -1.40636 0
M  V30 20616 H 2056.55 -3.41552 -0.346003 0
M  V30 20617 N 2058.99 0.615033 -1.45104 0
M  V30 20618 C 2059.92 1.73703 -1.56043 0
M  V30 20619 C 2060.9 1.65025 -0.412413 0
M  V30 20620 O 2062.09 1.83539 -0.634606 0
M  V30 20621 C 2059.22 3.12287 -1.51968 0
M  V30 20622 C 2058.17 3.35769 -2.65411 0
M  V30 20623 C 2057.5 4.74549 -2.46389 0
M  V30 20624 C 2058.8 3.26752 -4.07469 0
M  V30 20625 H 2060.49 1.64805 -2.4996 0
M  V30 20626 H 2058.04 0.791445 -1.203 0
M  V30 20627 H 2059.99 3.9057 -1.58219 0
M  V30 20628 H 2058.72 3.22008 -0.545769 0
M  V30 20629 H 2057.38 2.59874 -2.58575 0
M  V30 20630 H 2057.02 4.80994 -1.47153 0
M  V30 20631 H 2056.72 4.91217 -3.22458 0
M  V30 20632 H 2058.25 5.55041 -2.54482 0
M  V30 20633 H 2059.66 3.94918 -4.15587 0
M  V30 20634 H 2058.06 3.54952 -4.83869 0
M  V30 20635 H 2059.13 2.24305 -4.29902 0
M  V30 20636 N 2060.47 1.3227 0.85688 0
M  V30 20637 C 2061.75 1.13324 1.59427 0
M  V30 20638 C 2062.13 -0.307216 2.08853 0
M  V30 20639 O 2061.48 -1.30347 1.87675 0
M  V30 20640 C 2061.69 2.15889 2.74213 0
M  V30 20641 C 2063.03 2.49103 3.4385 0
M  V30 20642 O 2064.06 2.14417 2.84436 0
M  V30 20643 O 2062.92 3.08555 4.51061 0
M  V30 20644 H 2060.01 0.437152 0.702016 0
M  V30 20645 H 2062.56 1.43793 0.901202 0
M  V30 20646 H 2061.33 3.12724 2.35201 0
M  V30 20647 H 2060.95 1.86401 3.51198 0
M  V30 20648 N 2061.95 -1.07287 1.15444 0
M  V30 20649 C 2062.9 -2.14506 0.85181 0
M  V30 20650 C 2063.87 -1.64945 -0.195533 0
M  V30 20651 O 2065.05 -1.90696 -0.0629401 0
M  V30 20652 C 2062.19 -3.43341 0.347981 0
M  V30 20653 C 2061.3 -4.0669 1.45697 0
M  V30 20654 C 2060.44 -5.23361 0.9092 0
M  V30 20655 C 2059.48 -5.78673 1.99508 0
M  V30 20656 N 2058.62 -6.86675 1.46364 0
M  V30 20657 H 2063.46 -2.39733 1.77008 0
M  V30 20658 H 2060.99 -1.17635 0.883195 0
M  V30 20659 H 2062.95 -4.17183 0.0375747 0
M  V30 20660 H 2061.58 -3.18363 -0.53337 0
M  V30 20661 H 2060.63 -3.30495 1.88355 0
M  V30 20662 H 2061.94 -4.43806 2.2768 0
M  V30 20663 H 2061.1 -6.04189 0.551375 0
M  V30 20664 H 2059.84 -4.87665 0.0585544 0
M  V30 20665 H 2058.84 -4.9649 2.36173 0
M  V30 20666 H 2060.07 -6.16425 2.84952 0
M  V30 20667 H 2058.01 -6.52916 0.635365 0
M  V30 20668 H 2057.93 -7.22678 2.21973 0
M  V30 20669 H 2059.2 -7.71206 1.13408 0
M  V30 20670 N 2063.43 -0.951342 -1.25647 0
M  V30 20671 C 2064.65 -0.620954 -1.97886 0
M  V30 20672 C 2065.08 0.799383 -1.70269 0
M  V30 20673 O 2064.44 1.54005 -0.956672 0
M  V30 20674 C 2064.48 -0.881873 -3.4965 0
M  V30 20675 O 2063.59 0.0409801 -4.1238 0
M  V30 20676 H 2062.93 -0.236433 -0.62048 0
M  V30 20677 H 2065.46 -1.27704 -1.59852 0
M  V30 20678 H 2065.47 -0.806823 -3.99943 0
M  V30 20679 H 2064.14 -1.91708 -3.69081 0
M  V30 20680 H 2062.72 -0.0859938 -3.72801 0
M  V30 20681 N 2064.91 1.40216 -0.719531 0
M  V30 20682 C 2066.14 2.04827 -0.270117 0
M  V30 20683 C 2066.54 1.54328 1.09451 0
M  V30 20684 O 2065.89 0.696563 1.69981 0
M  V30 20685 C 2065.95 3.59066 -0.176512 0
M  V30 20686 C 2065.61 4.32472 -1.47707 0
M  V30 20687 C 2066.61 4.60156 -2.41977 0
M  V30 20688 C 2064.29 4.71307 -1.73709 0
M  V30 20689 C 2066.29 5.25666 -3.60492 0
M  V30 20690 C 2063.98 5.36549 -2.92504 0
M  V30 20691 C 2064.97 5.63658 -3.85718 0
M  V30 20692 O 2064.66 6.2755 -5.0243 0
M  V30 20693 H 2064.39 0.665543 -0.118442 0
M  V30 20694 H 2066.95 1.80538 -0.979543 0
M  V30 20695 H 2065.18 3.8219 0.58889 0
M  V30 20696 H 2066.87 4.05197 0.238859 0
M  V30 20697 H 2067.63 4.30613 -2.23153 0
M  V30 20698 H 2063.51 4.49573 -1.02007 0
M  V30 20699 H 2067.06 5.46742 -4.33265 0
M  V30 20700 H 2062.95 5.65511 -3.11235 0
M  V30 20701 H 2063.72 6.46047 -5.0256 0
M  V30 20702 N 2066.38 0.466004 1.50553 0
M  V30 20703 C 2067.66 -0.152071 1.95008 0
M  V30 20704 C 2068.04 -1.57451 1.40614 0
M  V30 20705 O 2067.39 -2.20345 0.605014 0
M  V30 20706 C 2067.6 -0.100584 3.48855 0
M  V30 20707 C 2068.95 -0.291998 4.23595 0
M  V30 20708 O 2069.97 -0.177401 3.55758 0
M  V30 20709 O 2068.83 -0.52288 5.43993 0
M  V30 20710 H 2065.92 -0.114439 0.819044 0
M  V30 20711 H 2068.47 0.526042 1.61341 0
M  V30 20712 H 2067.24 0.892745 3.8098 0
M  V30 20713 H 2066.86 -0.820375 3.89044 0
M  V30 20714 N 2067.86 -1.56346 0.198413 0
M  V30 20715 C 2069.11 -1.97674 -0.43948 0
M  V30 20716 C 2069.44 -1.0854 -1.61398 0
M  V30 20717 O 2068.69 -0.125218 -1.95299 0
M  V30 20718 C 2068.99 -3.44852 -0.938713 0
M  V30 20719 C 2068.66 -4.50733 0.122773 0
M  V30 20720 C 2067.32 -4.79412 0.414434 0
M  V30 20721 C 2069.67 -5.14356 0.841848 0
M  V30 20722 C 2067 -5.69004 1.43009 0
M  V30 20723 C 2069.35 -6.05046 1.84667 0
M  V30 20724 C 2068.01 -6.3208 2.1455 0
M  V30 20725 H 2067.28 -0.723339 -0.160817 0
M  V30 20726 H 2069.93 -1.89197 0.296077 0
M  V30 20727 H 2068.24 -3.50415 -1.75261 0
M  V30 20728 H 2069.93 -3.74186 -1.44173 0
M  V30 20729 H 2066.52 -4.28446 -0.114715 0
M  V30 20730 H 2070.71 -4.92288 0.629749 0
M  V30 20731 H 2065.96 -5.88222 1.66749 0
M  V30 20732 H 2070.14 -6.53404 2.40907 0
M  V30 20733 H 2067.76 -7.01301 2.93395 0
M  V30 20734 N 2069.34 0.0751653 -1.57421 0
M  V30 20735 C 2070.59 0.773759 -1.86268 0
M  V30 20736 C 2070.9 1.78911 -0.79058 0
M  V30 20737 O 2072.11 2.53703 -0.966795 0
M  V30 20738 C 2070.56 1.42704 -3.30399 0
M  V30 20739 C 2070.17 0.450427 -4.4573 0
M  V30 20740 C 2071.92 2.10819 -3.6845 0
M  V30 20741 C 2069.82 1.10943 -5.80901 0
M  V30 20742 H 2068.75 0.292727 -0.694858 0
M  V30 20743 H 2071.4 0.0269952 -1.8348 0
M  V30 20744 H 2069.79 2.22195 -3.27789 0
M  V30 20745 H 2070.96 -0.314427 -4.59726 0
M  V30 20746 H 2069.28 -0.126101 -4.16209 0
M  V30 20747 H 2071.87 2.60894 -4.66732 0
M  V30 20748 H 2072.22 2.90611 -2.98079 0
M  V30 20749 H 2072.75 1.38164 -3.73036 0
M  V30 20750 H 2069.49 0.351912 -6.54555 0
M  V30 20751 H 2069.01 1.84523 -5.70711 0
M  V30 20752 H 2070.69 1.63022 -6.26125 0
M  V30 20753 N 2070.82 1.53744 0.346476 0
M  V30 20754 C 2072.04 1.75095 1.1116 0
M  V30 20755 C 2072.47 0.487459 1.81674 0
M  V30 20756 O 2071.83 -0.55973 1.72443 0
M  V30 20757 C 2071.87 2.92927 2.103 0
M  V30 20758 O 2070.98 2.62871 3.17762 0
M  V30 20759 H 2070.32 0.580905 0.321629 0
M  V30 20760 H 2072.85 2.00696 0.397762 0
M  V30 20761 H 2072.86 3.19633 2.53572 0
M  V30 20762 H 2071.53 3.84566 1.58372 0
M  V30 20763 H 2070.11 2.47043 2.79328 0
M  V30 20764 N 2072.3 -0.607329 1.45428 0
M  V30 20765 C 2073.25 -1.71232 1.50545 0
M  V30 20766 C 2074.23 -1.56619 0.368691 0
M  V30 20767 O 2075.42 -1.65951 0.615562 0
M  V30 20768 C 2072.55 -3.09985 1.47527 0
M  V30 20769 C 2071.64 -3.29983 2.66406 0
M  V30 20770 N 2072.03 -3.20241 3.91509 0
M  V30 20771 C 2070.33 -3.60853 2.62108 0
M  V30 20772 C 2071.03 -3.41576 4.70851 0
M  V30 20773 N 2070 -3.65578 4.0231 0
M  V30 20774 H 2073.81 -1.62193 2.45093 0
M  V30 20775 H 2071.32 -0.810594 1.40724 0
M  V30 20776 H 2073.32 -3.89258 1.49278 0
M  V30 20777 H 2071.98 -3.20172 0.540363 0
M  V30 20778 H 2072.99 -2.98637 4.23127 0
M  V30 20779 H 2069.66 -3.77876 1.77526 0
M  V30 20780 H 2071.05 -3.39435 5.79856 0
M  V30 20781 N 2073.77 -1.32722 -0.849853 0
M  V30 20782 C 2075.01 -1.24877 -1.61818 0
M  V30 20783 C 2075.38 0.185464 -1.91102 0
M  V30 20784 O 2076.58 0.387721 -2.65989 0
M  V30 20785 C 2074.85 -2.08897 -2.89994 0
M  V30 20786 S 2076.41 -2.18128 -3.80744 0
M  V30 20787 H 2073.23 -0.444443 -0.55497 0
M  V30 20788 H 2075.83 -1.67627 -1.00605 0
M  V30 20789 H 2074.53 -3.12155 -2.66435 0
M  V30 20790 H 2074.06 -1.66943 -3.56221 0
M  V30 20791 H 2076.08 -1.33429 -4.77924 0
M  V30 20792 N 2075.25 1.06673 -1.16011 0
M  V30 20793 C 2076.22 2.12223 -0.865686 0
M  V30 20794 C 2077.22 1.6021 0.137621 0
M  V30 20795 O 2078.41 1.73953 -0.0928217 0
M  V30 20796 C 2075.54 3.39631 -0.293865 0
M  V30 20797 H 2076.73 2.39774 -1.80134 0
M  V30 20798 H 2074.28 1.22675 -0.968529 0
M  V30 20799 H 2075.02 3.17726 0.649656 0
M  V30 20800 H 2074.8 3.78688 -1.01676 0
M  V30 20801 H 2076.29 4.17466 -0.105682 0
M  V30 20802 N 2076.73 0.957992 1.25141 0
M  V30 20803 C 2077.69 0.485333 2.24003 0
M  V30 20804 C 2078.69 -0.412817 1.55411 0
M  V30 20805 O 2079.88 -0.209635 1.72934 0
M  V30 20806 C 2077.02 -0.298362 3.39592 0
M  V30 20807 H 2078.21 1.35918 2.67332 0
M  V30 20808 H 2075.76 0.741602 1.37586 0
M  V30 20809 H 2076.5 -1.18973 3.01688 0
M  V30 20810 H 2076.28 0.346033 3.9057 0
M  V30 20811 H 2077.77 -0.618412 4.12996 0
M  V30 20812 N 2078.21 -1.39832 0.726957 0
M  V30 20813 C 2079.14 -2.29161 0.0422219 0
M  V30 20814 C 2080.15 -1.4641 -0.7119 0
M  V30 20815 O 2081.34 -1.69574 -0.557395 0
M  V30 20816 C 2078.44 -3.24886 -0.964472 0
M  V30 20817 C 2077.62 -4.36544 -0.273536 0
M  V30 20818 C 2076.67 -5.12632 -1.1872 0
M  V30 20819 O 2075.7 -5.6527 -0.66771 0
M  V30 20820 N 2076.9 -5.23068 -2.51754 0
M  V30 20821 H 2079.67 -2.88567 0.809275 0
M  V30 20822 H 2077.23 -1.51326 0.575514 0
M  V30 20823 H 2079.22 -3.72662 -1.57813 0
M  V30 20824 H 2077.79 -2.66568 -1.63279 0
M  V30 20825 H 2077.01 -3.90749 0.520485 0
M  V30 20826 H 2078.3 -5.08384 0.205613 0
M  V30 20827 H 2077.7 -4.81806 -2.96445 0
M  V30 20828 H 2076.25 -5.74312 -3.08235 0
M  V30 20829 N 2079.69 -0.473982 -1.50304 0
M  V30 20830 C 2080.93 0.0798516 -2.01942 0
M  V30 20831 C 2081.26 1.39955 -1.35785 0
M  V30 20832 O 2080.53 1.89302 -0.504142 0
M  V30 20833 H 2079.11 0.0325001 -0.746293 0
M  V30 20834 H 2081.77 -0.625063 -1.84605 0
M  V30 20835 H 2080.86 0.229253 -3.11257 0
M  V30 20836 N 2081.16 1.56239 -0.206702 0
M  V30 20837 C 2082.39 2.01998 0.433638 0
M  V30 20838 C 2082.8 1.08593 1.54933 0
M  V30 20839 O 2082.15 0.0850804 1.83503 0
M  V30 20840 C 2082.21 3.4413 1.03993 0
M  V30 20841 C 2081.87 4.56959 0.0615327 0
M  V30 20842 C 2082.87 5.14701 -0.733387 0
M  V30 20843 C 2080.55 5.02272 -0.0529169 0
M  V30 20844 C 2082.55 6.16216 -1.62961 0
M  V30 20845 C 2080.23 6.03628 -0.952684 0
M  V30 20846 C 2081.23 6.60475 -1.73959 0
M  V30 20847 O 2080.92 7.59861 -2.62425 0
M  V30 20848 H 2080.65 0.666655 0.112011 0
M  V30 20849 H 2083.21 2.02952 -0.316153 0
M  V30 20850 H 2081.44 3.40198 1.83853 0
M  V30 20851 H 2083.13 3.73627 1.58612 0
M  V30 20852 H 2083.89 4.80552 -0.655335 0
M  V30 20853 H 2079.77 4.57714 0.549424 0
M  V30 20854 H 2083.31 6.60514 -2.24425 0
M  V30 20855 H 2079.21 6.372 -1.03181 0
M  V30 20856 H 2079.98 7.77326 -2.56334 0
M  V30 20857 N 2082.64 -0.0668159 1.57458 0
M  V30 20858 C 2083.59 -1.0859 2.0048 0
M  V30 20859 C 2084.58 -1.34199 0.887667 0
M  V30 20860 O 2085.77 -1.34416 1.15158 0
M  V30 20861 C 2082.9 -2.39822 2.45643 0
M  V30 20862 C 2081.98 -2.17466 3.64101 0
M  V30 20863 N 2082.37 -1.65053 4.78112 0
M  V30 20864 C 2080.67 -2.47918 3.70746 0
M  V30 20865 C 2081.37 -1.57628 5.59936 0
M  V30 20866 N 2080.35 -2.03856 5.03928 0
M  V30 20867 H 2084.15 -0.674056 2.86066 0
M  V30 20868 H 2081.67 -0.273805 1.60075 0
M  V30 20869 H 2083.66 -3.13596 2.74706 0
M  V30 20870 H 2082.32 -2.81718 1.61446 0
M  V30 20871 H 2083.33 -1.33847 5.00305 0
M  V30 20872 H 2080.01 -2.93146 2.97273 0
M  V30 20873 H 2081.4 -1.17915 6.61472 0
M  V30 20874 N 2084.12 -1.53926 -0.338317 0
M  V30 20875 C 2085.37 -1.70639 -1.07542 0
M  V30 20876 C 2085.68 -0.479077 -1.89642 0
M  V30 20877 O 2086.89 -0.527259 -2.66331 0
M  V30 20878 C 2085.35 -3.0176 -1.96134 0
M  V30 20879 C 2084.95 -4.31847 -1.19216 0
M  V30 20880 C 2086.7 -3.27839 -2.6967 0
M  V30 20881 C 2084.6 -5.54039 -2.06869 0
M  V30 20882 H 2083.53 -0.635868 -0.4052 0
M  V30 20883 H 2086.19 -1.80424 -0.334569 0
M  V30 20884 H 2084.57 -2.85845 -2.7406 0
M  V30 20885 H 2085.74 -4.58482 -0.461647 0
M  V30 20886 H 2084.06 -4.12421 -0.574263 0
M  V30 20887 H 2086.65 -4.16322 -3.3553 0
M  V30 20888 H 2087 -2.45074 -3.36518 0
M  V30 20889 H 2087.53 -3.44554 -1.98815 0
M  V30 20890 H 2084.27 -6.39363 -1.44554 0
M  V30 20891 H 2083.79 -5.31645 -2.77694 0
M  V30 20892 H 2085.47 -5.89881 -2.658 0
M  V30 20893 N 2085.6 0.599608 -1.45748 0
M  V30 20894 C 2086.82 1.38971 -1.53954 0
M  V30 20895 C 2087.25 1.87278 -0.175618 0
M  V30 20896 O 2086.61 1.60602 0.841223 0
M  V30 20897 C 2086.66 2.56482 -2.53474 0
M  V30 20898 O 2085.76 3.57375 -2.05808 0
M  V30 20899 H 2085.1 0.414567 -0.518681 0
M  V30 20900 H 2087.63 0.728972 -1.91173 0
M  V30 20901 H 2087.64 3.03623 -2.72539 0
M  V30 20902 H 2086.32 2.20672 -3.52529 0
M  V30 20903 H 2084.89 3.1683 -1.96656 0
M  V30 20904 N 2087.08 1.33171 0.842803 0
M  V30 20905 C 2088.49 1.21918 1.41397 0
M  V30 20906 C 2088.84 -0.163526 1.95517 0
M  V30 20907 O 2087.96 -1.06291 1.88497 0
M  V30 20908 C 2088.56 2.20727 2.57031 0
M  V30 20909 C 2087.12 2.13325 3.10112 0
M  V30 20910 C 2086.27 2.08432 1.82897 0
M  V30 20911 H 2089.22 1.44827 0.648912 0
M  V30 20912 H 2089.24 1.81271 3.34546 0
M  V30 20913 H 2088.75 3.21352 2.1761 0
M  V30 20914 H 2086.85 1.15989 3.54087 0
M  V30 20915 H 2086.96 3.03691 3.70552 0
M  V30 20916 H 2085.33 1.53848 2.02985 0
M  V30 20917 H 2086.11 3.10858 1.45678 0
M  V30 20918 N 2088.56 -1.06056 1.16576 0
M  V30 20919 C 2089.78 -1.83131 0.973539 0
M  V30 20920 C 2090.21 -1.82047 -0.473358 0
M  V30 20921 O 2089.56 -1.22303 -1.33834 0
M  V30 20922 C 2089.61 -3.2753 1.50852 0
M  V30 20923 O 2088.72 -4.06129 0.716451 0
M  V30 20924 H 2088.06 -0.566557 0.346279 0
M  V30 20925 H 2090.59 -1.33704 1.54869 0
M  V30 20926 H 2090.6 -3.78346 1.52704 0
M  V30 20927 H 2089.27 -3.27634 2.56181 0
M  V30 20928 H 2087.85 -3.64892 0.768639 0
M  V30 20929 N 2090.03 -0.964615 -1.24631 0
M  V30 20930 C 2091.26 -0.641907 -1.97216 0
M  V30 20931 C 2091.68 0.781279 -1.71107 0
M  V30 20932 O 2091.04 1.52981 -0.972952 0
M  V30 20933 C 2091.09 -0.918908 -3.48695 0
M  V30 20934 O 2090.19 -0.00276058 -4.124 0
M  V30 20935 H 2089.53 -0.243001 -0.617937 0
M  V30 20936 H 2092.06 -1.29393 -1.58489 0
M  V30 20937 H 2092.07 -0.849197 -3.99065 0
M  V30 20938 H 2090.75 -1.95612 -3.67027 0
M  V30 20939 H 2089.33 -0.125529 -3.72689 0
M  V30 20940 N 2091.51 1.39445 -0.734362 0
M  V30 20941 C 2092.74 2.0535 -0.290903 0
M  V30 20942 C 2093.16 1.55004 1.06562 0
M  V30 20943 O 2092.52 0.693509 1.67512 0
M  V30 20944 C 2092.57 3.59337 -0.301562 0
M  V30 20945 O 2091.67 4.06225 0.711013 0
M  V30 20946 H 2091.01 0.650668 -0.132389 0
M  V30 20947 H 2093.54 1.78491 -1.00011 0
M  V30 20948 H 2093.55 4.0774 -0.14573 0
M  V30 20949 H 2092.23 3.95343 -1.2914 0
M  V30 20950 H 2090.8 3.69237 0.521369 0
M  V30 20951 N 2092.99 0.481946 1.5005 0
M  V30 20952 C 2094.21 -0.0688814 2.07286 0
M  V30 20953 C 2094.64 -1.3178 1.34222 0
M  V30 20954 O 2094 -1.76986 0.393135 0
M  V30 20955 C 2094.05 -0.324885 3.59133 0
M  V30 20956 O 2093.15 -1.40333 3.87789 0
M  V30 20957 H 2092.49 0.0177812 0.663762 0
M  V30 20958 H 2095.02 0.676104 1.93106 0
M  V30 20959 H 2095.03 -0.562135 4.04109 0
M  V30 20960 H 2093.71 0.587698 4.11727 0
M  V30 20961 H 2092.28 -1.15253 3.54642 0
M  V30 20962 N 2094.47 -1.56127 0.214985 0
M  V30 20963 C 2095.4 -2.22991 -0.69263 0
M  V30 20964 C 2096.38 -1.19946 -1.20611 0
M  V30 20965 O 2097.56 -1.48512 -1.25131 0
M  V30 20966 C 2094.69 -2.90473 -1.90376 0
M  V30 20967 C 2093.65 -3.99933 -1.52439 0
M  V30 20968 C 2092.97 -4.54678 -2.81375 0
M  V30 20969 C 2094.27 -5.17323 -0.719325 0
M  V30 20970 H 2095.97 -2.99095 -0.135168 0
M  V30 20971 H 2093.51 -1.4386 -0.0635721 0
M  V30 20972 H 2095.47 -3.35938 -2.54408 0
M  V30 20973 H 2094.19 -2.11806 -2.48608 0
M  V30 20974 H 2092.85 -3.55189 -0.907557 0
M  V30 20975 H 2092.5 -3.72749 -3.37739 0
M  V30 20976 H 2092.2 -5.28549 -2.56729 0
M  V30 20977 H 2093.72 -5.02857 -3.46362 0
M  V30 20978 H 2095.14 -5.5921 -1.2632 0
M  V30 20979 H 2093.53 -5.97385 -0.570203 0
M  V30 20980 H 2094.6 -4.84117 0.275461 0
M  V30 20981 N 2095.95 0.0584645 -1.57492 0
M  V30 20982 C 2097.19 0.755071 -1.87896 0
M  V30 20983 C 2097.52 1.769 -0.808499 0
M  V30 20984 O 2096.78 1.94736 0.194028 0
M  V30 20985 C 2097.07 1.48699 -3.24998 0
M  V30 20986 C 2096.74 0.611806 -4.4673 0
M  V30 20987 C 2095.4 0.370663 -4.7977 0
M  V30 20988 C 2097.75 0.00576081 -5.212 0
M  V30 20989 C 2095.08 -0.485786 -5.84685 0
M  V30 20990 C 2097.43 -0.838219 -6.27022 0
M  V30 20991 C 2096.1 -1.08911 -6.58555 0
M  V30 20992 H 2095.37 0.2763 -0.68756 0
M  V30 20993 H 2098.02 0.0155215 -1.91494 0
M  V30 20994 H 2096.32 2.2991 -3.17252 0
M  V30 20995 H 2098.02 2.03101 -3.45761 0
M  V30 20996 H 2094.61 0.809892 -4.20878 0
M  V30 20997 H 2098.79 0.179152 -4.95977 0
M  V30 20998 H 2094.05 -0.688773 -6.07508 0
M  V30 20999 H 2098.22 -1.31449 -6.83882 0
M  V30 21000 H 2095.85 -1.7545 -7.39676 0
M  V30 21001 N 2097.42 1.54103 0.330149 0
M  V30 21002 C 2098.66 1.73714 1.07716 0
M  V30 21003 C 2099.03 0.496836 1.8546 0
M  V30 21004 O 2100.23 0.570188 2.62683 0
M  V30 21005 C 2098.5 2.97366 1.98264 0
M  V30 21006 S 2100.06 3.3785 2.80005 0
M  V30 21007 H 2096.88 0.610907 0.363749 0
M  V30 21008 H 2099.48 1.92269 0.353943 0
M  V30 21009 H 2098.18 3.85792 1.39973 0
M  V30 21010 H 2097.71 2.81315 2.75001 0
M  V30 21011 H 2099.73 2.92633 4.00725 0
M  V30 21012 N 2098.9 -0.59187 1.46064 0
M  V30 21013 C 2100.32 -0.914287 1.30816 0
M  V30 21014 C 2100.52 -1.99645 0.272804 0
M  V30 21015 O 2099.57 -2.50363 -0.327818 0
M  V30 21016 C 2100.89 -1.34032 2.69176 0
M  V30 21017 C 2102.44 -1.45367 2.77196 0
M  V30 21018 C 2102.91 -1.9134 4.16117 0
M  V30 21019 N 2104.4 -1.98548 4.18489 0
M  V30 21020 C 2105.14 -2.35376 5.22863 0
M  V30 21021 N 2104.63 -2.7106 6.37572 0
M  V30 21022 N 2106.43 -2.35851 5.10226 0
M  V30 21023 H 2098.58 0.123139 2.12043 0
M  V30 21024 H 2100.84 -0.00757695 0.94797 0
M  V30 21025 H 2100.55 -0.619238 3.46206 0
M  V30 21026 H 2100.42 -2.3037 2.98679 0
M  V30 21027 H 2102.81 -2.16563 2.0046 0
M  V30 21028 H 2102.89 -0.473031 2.51388 0
M  V30 21029 H 2102.53 -1.20726 4.93343 0
M  V30 21030 H 2102.46 -2.90346 4.39325 0
M  V30 21031 H 2104.95 -1.73498 3.35719 0
M  V30 21032 H 2105.27 -2.98088 7.12996 0
M  V30 21033 H 2103.61 -2.68719 6.40948 0
M  V30 21034 H 2106.8 -2.07389 4.19651 0
M  V30 21035 H 2106.97 -2.64224 5.91684 0
M  V30 21036 N 2100.38 -1.33616 -0.835729 0
M  V30 21037 C 2101.33 -1.24117 -1.96717 0
M  V30 21038 C 2102.32 -0.141892 -1.68805 0
M  V30 21039 O 2103.53 -0.306054 -1.77379 0
M  V30 21040 H 2099.9 -0.385249 -0.645823 0
M  V30 21041 H 2101.87 -2.19767 -2.01854 0
M  V30 21042 C 2100.62 -1.00045 -3.32996 0
M  V30 21043 H 2099.95 -1.8386 -3.55015 0
M  V30 21044 H 2101.39 -0.974302 -4.12654 0
M  V30 21045 C 2099.85 0.296559 -3.35592 0
M  V30 21046 O 2100.38 1.30221 -3.80007 0
M  V30 21047 N 2098.58 0.325196 -2.88775 0
M  V30 21048 H 2098.13 -0.493733 -2.52824 0
M  V30 21049 H 2098.09 1.19281 -2.90894 0
M  V30 21050 N 2101.86 1.05436 -1.17136 0
M  V30 21051 C 2102.82 2.11293 -0.888146 0
M  V30 21052 C 2103.82 1.60347 0.120621 0
M  V30 21053 O 2105.01 1.73844 -0.111266 0
M  V30 21054 C 2102.14 3.393 -0.329871 0
M  V30 21055 H 2103.34 2.3785 -1.82667 0
M  V30 21056 H 2100.89 1.21641 -0.981486 0
M  V30 21057 H 2101.62 3.18397 0.61592 0
M  V30 21058 H 2101.41 3.77588 -1.05687 0
M  V30 21059 H 2102.9 4.17331 -0.149954 0
M  V30 21060 N 2103.34 0.971211 1.24118 0
M  V30 21061 C 2104.3 0.509064 2.23475 0
M  V30 21062 C 2105.3 -0.39631 1.5584 0
M  V30 21063 O 2106.49 -0.191281 1.73147 0
M  V30 21064 C 2103.62 -0.262327 3.39889 0
M  V30 21065 H 2104.81 1.38746 2.65875 0
M  V30 21066 H 2102.37 0.756154 1.36792 0
M  V30 21067 H 2103.1 -1.15767 3.02933 0
M  V30 21068 H 2102.89 0.387439 3.90181 0
M  V30 21069 H 2104.38 -0.574574 4.13628 0
M  V30 21070 N 2104.81 -1.39054 0.741747 0
M  V30 21071 C 2105.78 -2.28913 0.114619 0
M  V30 21072 C 2106.78 -1.46629 -0.660038 0
M  V30 21073 O 2107.97 -1.67223 -0.488056 0
M  V30 21074 C 2105.1 -3.3022 -0.846607 0
M  V30 21075 H 2106.29 -2.85875 0.906381 0
M  V30 21076 H 2103.85 -1.47814 0.508001 0
M  V30 21077 H 2104.58 -2.78326 -1.66448 0
M  V30 21078 H 2104.37 -3.90999 -0.293686 0
M  V30 21079 H 2105.86 -3.97443 -1.28176 0
M  V30 21080 N 2106.29 -0.489897 -1.49792 0
M  V30 21081 C 2107.52 0.0578875 -2.07319 0
M  V30 21082 C 2107.94 1.31067 -1.34919 0
M  V30 21083 O 2107.3 1.76775 -0.402515 0
M  V30 21084 C 2107.35 0.305835 -3.59301 0
M  V30 21085 O 2106.45 1.38274 -3.88528 0
M  V30 21086 H 2105.79 -0.021301 -0.663658 0
M  V30 21087 H 2108.32 -0.686335 -1.92745 0
M  V30 21088 H 2108.33 0.540697 -4.04401 0
M  V30 21089 H 2107.01 -0.609525 -4.11409 0
M  V30 21090 H 2105.59 1.13371 -3.55248 0
M  V30 21091 N 2107.77 1.56011 -0.223262 0
M  V30 21092 C 2108.7 2.23355 0.680795 0
M  V30 21093 C 2109.68 1.20584 1.19973 0
M  V30 21094 O 2110.87 1.49174 1.24342 0
M  V30 21095 C 2108 2.91478 1.88833 0
M  V30 21096 C 2106.95 4.00736 1.50316 0
M  V30 21097 C 2106.28 4.56164 2.7896 0
M  V30 21098 C 2107.58 5.17697 0.69188 0
M  V30 21099 H 2109.27 2.99162 0.119304 0
M  V30 21100 H 2106.82 1.43891 0.055942 0
M  V30 21101 H 2108.77 3.37282 2.52623 0
M  V30 21102 H 2107.49 2.13121 2.47481 0
M  V30 21103 H 2106.15 3.55665 0.888708 0
M  V30 21104 H 2105.8 3.74535 3.35757 0
M  V30 21105 H 2105.5 5.29903 2.53922 0
M  V30 21106 H 2107.02 5.04687 3.43691 0
M  V30 21107 H 2108.44 5.59872 1.23353 0
M  V30 21108 H 2106.84 5.97679 0.538515 0
M  V30 21109 H 2107.91 4.83964 -0.301131 0
M  V30 21110 N 2109.25 -0.0501116 1.5752 0
M  V30 21111 C 2110.47 -0.761197 1.92926 0
M  V30 21112 C 2110.9 -1.69211 0.821546 0
M  V30 21113 O 2110.26 -1.79908 -0.224247 0
M  V30 21114 C 2110.3 -1.51241 3.27351 0
M  V30 21115 O 2109.41 -2.62445 3.18114 0
M  V30 21116 H 2108.75 -0.206224 0.631164 0
M  V30 21117 H 2111.28 -0.0118709 2.04597 0
M  V30 21118 H 2111.29 -1.88696 3.61743 0
M  V30 21119 H 2109.96 -0.829535 4.07543 0
M  V30 21120 H 2108.54 -2.27688 2.95318 0
M  V30 21121 N 2110.73 -1.54276 -0.321972 0
M  V30 21122 C 2111.66 -1.86766 -1.40146 0
M  V30 21123 C 2112.64 -0.724601 -1.53895 0
M  V30 21124 O 2113.82 -0.978478 -1.67748 0
M  V30 21125 C 2110.95 -2.09642 -2.76889 0
M  V30 21126 C 2109.91 -3.25485 -2.77927 0
M  V30 21127 C 2109.23 -3.33736 -4.17761 0
M  V30 21128 C 2110.53 -4.63097 -2.41533 0
M  V30 21129 H 2112.23 -2.77174 -1.13204 0
M  V30 21130 H 2109.77 -1.33364 -0.543134 0
M  V30 21131 H 2111.73 -2.30955 -3.52474 0
M  V30 21132 H 2110.45 -1.15985 -3.05311 0
M  V30 21133 H 2109.11 -3.04062 -2.04798 0
M  V30 21134 H 2108.76 -2.37634 -4.43327 0
M  V30 21135 H 2108.46 -4.11594 -4.19362 0
M  V30 21136 H 2109.98 -3.57285 -4.95156 0
M  V30 21137 H 2111.39 -4.84281 -3.06831 0
M  V30 21138 H 2109.79 -5.43516 -2.54382 0
M  V30 21139 H 2110.86 -4.65238 -1.3668 0
M  V30 21140 N 2112.2 0.584116 -1.46376 0
M  V30 21141 C 2113.45 1.34238 -1.51613 0
M  V30 21142 C 2113.78 1.93779 -0.167271 0
M  V30 21143 O 2113.03 1.76902 0.836914 0
M  V30 21144 C 2113.33 2.49232 -2.56161 0
M  V30 21145 C 2113 2.07692 -4.00219 0
M  V30 21146 C 2111.66 1.96078 -4.39439 0
M  V30 21147 C 2114.01 1.75625 -4.90719 0
M  V30 21148 C 2111.34 1.50653 -5.67028 0
M  V30 21149 C 2113.69 1.3168 -6.18743 0
M  V30 21150 C 2112.36 1.18641 -6.56872 0
M  V30 21151 H 2111.63 0.491211 -0.554791 0
M  V30 21152 H 2114.27 0.657889 -1.79845 0
M  V30 21153 H 2112.58 3.23121 -2.21585 0
M  V30 21154 H 2114.28 3.07448 -2.57443 0
M  V30 21155 H 2110.87 2.17665 -3.69215 0
M  V30 21156 H 2115.05 1.83484 -4.61137 0
M  V30 21157 H 2110.31 1.39201 -5.95343 0
M  V30 21158 H 2114.48 1.0592 -6.88298 0
M  V30 21159 H 2112.11 0.832188 -7.55631 0
M  V30 21160 N 2113.68 1.34058 0.828631 0
M  V30 21161 C 2114.91 1.28969 1.61402 0
M  V30 21162 C 2115.32 -0.139572 1.88684 0
M  V30 21163 O 2114.66 -1.09533 1.47473 0
M  V30 21164 C 2114.73 2.00658 2.9829 0
M  V30 21165 C 2114.39 3.49935 2.93929 0
M  V30 21166 C 2115.39 4.44949 2.68918 0
M  V30 21167 C 2113.07 3.92264 3.13742 0
M  V30 21168 C 2115.07 5.80266 2.63761 0
M  V30 21169 C 2112.75 5.27683 3.0821 0
M  V30 21170 C 2113.75 6.21496 2.83253 0
M  V30 21171 O 2113.44 7.54433 2.77643 0
M  V30 21172 H 2113.17 0.445319 0.508593 0
M  V30 21173 H 2115.73 1.77155 1.03949 0
M  V30 21174 H 2113.96 1.47077 3.57638 0
M  V30 21175 H 2115.64 1.88933 3.59248 0
M  V30 21176 H 2116.41 4.13567 2.53352 0
M  V30 21177 H 2112.29 3.19646 3.32186 0
M  V30 21178 H 2115.83 6.53461 2.442 0
M  V30 21179 H 2111.73 5.58685 3.23328 0
M  V30 21180 H 2112.5 7.64102 2.93411 0
M  V30 21181 N 2115.16 -1.04814 1.17694 0
M  V30 21182 C 2116.11 -2.14759 0.893388 0
M  V30 21183 C 2117.1 -1.68792 -0.143446 0
M  V30 21184 O 2118.31 -1.8 0.00399528 0
M  V30 21185 H 2114.68 -0.701322 0.271388 0
M  V30 21186 H 2116.66 -2.35876 1.8277 0
M  V30 21187 C 2115.4 -3.45064 0.427351 0
M  V30 21188 H 2114.73 -3.80838 1.21665 0
M  V30 21189 H 2116.17 -4.23153 0.267873 0
M  V30 21190 C 2114.63 -3.25854 -0.855618 0
M  V30 21191 O 2115.16 -3.5276 -1.92155 0
M  V30 21192 N 2113.36 -2.7922 -0.805269 0
M  V30 21193 H 2112.91 -2.57524 0.0623836 0
M  V30 21194 H 2112.87 -2.66747 -1.66413 0
M  V30 21195 N 2116.64 -0.977779 -1.23601 0
M  V30 21196 C 2117.59 -0.508228 -2.2698 0
M  V30 21197 C 2118.58 0.433405 -1.63762 0
M  V30 21198 O 2119.79 0.307586 -1.77352 0
M  V30 21199 H 2116.16 -0.145916 -0.737708 0
M  V30 21200 H 2118.13 -1.39189 -2.63949 0
M  V30 21201 C 2116.88 0.176292 -3.47253 0
M  V30 21202 H 2116.21 -0.539185 -3.96147 0
M  V30 21203 H 2117.65 0.468511 -4.21404 0
M  V30 21204 C 2116.1 1.40665 -3.06129 0
M  V30 21205 O 2116.63 2.50307 -3.1418 0
M  V30 21206 N 2114.84 1.27636 -2.6107 0
M  V30 21207 H 2114.39 0.38425 -2.54718 0
M  V30 21208 H 2114.35 2.10067 -2.33921 0
M  V30 21209 N 2118.12 1.38658 -0.749111 0
M  V30 21210 C 2119.37 1.99821 -0.302678 0
M  V30 21211 C 2119.69 1.59757 1.11816 0
M  V30 21212 O 2118.96 0.852324 1.76387 0
M  V30 21213 H 2117.54 0.739016 -0.108921 0
M  V30 21214 H 2120.2 1.69492 -0.962209 0
M  V30 21215 H 2119.29 3.09991 -0.362255 0
M  V30 21216 N 2119.6 0.497834 1.49531 0
M  V30 21217 C 2120.56 -0.27122 2.2759 0
M  V30 21218 C 2121.56 -0.89678 1.33471 0
M  V30 21219 O 2122.75 -0.761804 1.56659 0
M  V30 21220 C 2119.88 -1.38885 3.11326 0
M  V30 21221 H 2121.07 0.413704 2.97033 0
M  V30 21222 H 2118.63 0.252699 1.54244 0
M  V30 21223 H 2119.36 -2.10802 2.46441 0
M  V30 21224 H 2119.15 -0.94578 3.80523 0
M  V30 21225 H 2120.64 -1.93065 3.70291 0
M  V30 21226 N 2121.07 -1.5589 0.231532 0
M  V30 21227 C 2122.49 -1.5912 -0.123654 0
M  V30 21228 C 2122.69 -1.24851 -1.5816 0
M  V30 21229 O 2121.75 -0.988491 -2.32347 0
M  V30 21230 C 2123.06 -2.99954 0.211653 0
M  V30 21231 C 2124.61 -3.12617 0.1547 0
M  V30 21232 C 2125.08 -4.55645 0.463821 0
M  V30 21233 N 2126.57 -4.61348 0.413757 0
M  V30 21234 C 2127.31 -5.69969 0.626305 0
M  V30 21235 N 2126.8 -6.86914 0.901162 0
M  V30 21236 N 2128.6 -5.59323 0.558059 0
M  V30 21237 H 2120.75 -1.76439 1.1825 0
M  V30 21238 H 2123.01 -0.820591 0.474695 0
M  V30 21239 H 2122.72 -3.29716 1.22394 0
M  V30 21240 H 2122.59 -3.74278 -0.468608 0
M  V30 21241 H 2124.98 -2.82646 -0.848241 0
M  V30 21242 H 2125.06 -2.40602 0.868584 0
M  V30 21243 H 2124.7 -4.86336 1.46425 0
M  V30 21244 H 2124.63 -5.259 -0.271369 0
M  V30 21245 H 2127.12 -3.77319 0.209419 0
M  V30 21246 H 2127.44 -7.65617 1.05118 0
M  V30 21247 H 2125.78 -6.88635 0.938467 0
M  V30 21248 H 2128.97 -4.66838 0.343487 0
M  V30 21249 H 2129.15 -6.43908 0.727109 0
M  V30 21250 N 2122.55 0.0417572 -1.57545 0
M  V30 21251 C 2123.96 0.589951 -1.77134 0
M  V30 21252 C 2124.31 1.76299 -0.860987 0
M  V30 21253 O 2123.44 2.16336 -0.0525748 0
M  V30 21254 C 2124.03 1.077 -3.21226 0
M  V30 21255 C 2122.59 1.57081 -3.42056 0
M  V30 21256 C 2121.74 0.503265 -2.72695 0
M  V30 21257 H 2124.69 -0.18447 -1.57624 0
M  V30 21258 H 2124.71 1.94485 -3.27041 0
M  V30 21259 H 2124.22 0.22303 -3.87459 0
M  V30 21260 H 2122.32 2.44704 -2.80981 0
M  V30 21261 H 2122.44 1.62706 -4.50626 0
M  V30 21262 H 2120.8 0.955366 -2.36103 0
M  V30 21263 H 2121.58 -0.341024 -3.41602 0
M  V30 21264 N 2124.03 1.54445 0.313786 0
M  V30 21265 C 2125.27 1.74847 1.05867 0
M  V30 21266 C 2125.63 0.516479 1.84923 0
M  V30 21267 O 2126.83 0.598017 2.62063 0
M  V30 21268 C 2125.11 2.99452 1.95099 0
M  V30 21269 S 2126.66 3.40801 2.76406 0
M  V30 21270 H 2123.48 0.614731 0.35725 0
M  V30 21271 H 2126.08 1.92634 0.33353 0
M  V30 21272 H 2124.79 3.87255 1.35873 0
M  V30 21273 H 2124.32 2.84216 2.72002 0
M  V30 21274 H 2126.33 2.96867 3.97598 0
M  V30 21275 N 2125.51 -0.576345 1.46683 0
M  V30 21276 C 2126.76 -1.33168 1.52022 0
M  V30 21277 C 2127.08 -1.94204 0.17606 0
M  V30 21278 O 2126.35 -1.78907 -0.798069 0
M  V30 21279 H 2124.93 -0.494459 0.559928 0
M  V30 21280 H 2127.59 -0.674503 1.82856 0
M  V30 21281 H 2126.68 -2.13511 2.27638 0
M  V30 21282 N 2126.99 -1.34495 -0.82151 0
M  V30 21283 C 2128.23 -1.28281 -1.59133 0
M  V30 21284 C 2128.59 0.144886 -1.91453 0
M  V30 21285 O 2129.79 0.331214 -2.66752 0
M  V30 21286 C 2128.06 -2.15002 -2.85498 0
M  V30 21287 S 2129.62 -2.26155 -3.76031 0
M  V30 21288 H 2126.44 -0.456114 -0.545418 0
M  V30 21289 H 2129.04 -1.69724 -0.970263 0
M  V30 21290 H 2127.74 -3.17736 -2.59754 0
M  V30 21291 H 2127.28 -1.74461 -3.526 0
M  V30 21292 H 2129.29 -1.43537 -4.74986 0
M  V30 21293 N 2128.46 1.04188 -1.18248 0
M  V30 21294 C 2129.41 2.10485 -0.876358 0
M  V30 21295 C 2130.4 1.60167 0.153389 0
M  V30 21296 O 2131.59 1.76928 -0.0504786 0
M  V30 21297 C 2128.72 3.40932 -0.402528 0
M  V30 21298 C 2127.81 3.9802 -1.46428 0
M  V30 21299 N 2128.2 4.28938 -2.68041 0
M  V30 21300 C 2126.49 4.25879 -1.32451 0
M  V30 21301 C 2127.2 4.74605 -3.3634 0
M  V30 21302 N 2126.17 4.75344 -2.63722 0
M  V30 21303 H 2129.97 2.32265 -1.80084 0
M  V30 21304 H 2127.49 1.2193 -1.0727 0
M  V30 21305 H 2129.48 4.16574 -0.164728 0
M  V30 21306 H 2128.14 3.2058 0.51563 0
M  V30 21307 H 2129.16 4.18623 -3.04918 0
M  V30 21308 H 2125.83 4.1486 -0.468792 0
M  V30 21309 H 2127.22 5.07557 -4.40267 0
M  V30 21310 N 2129.94 0.98432 1.23081 0
M  V30 21311 C 2130.85 0.536158 2.28391 0
M  V30 21312 C 2131.87 -0.410933 1.69078 0
M  V30 21313 O 2133.04 -0.279885 1.99446 0
M  V30 21314 C 2130.11 -0.150493 3.46373 0
M  V30 21315 C 2129.17 0.83849 4.21032 0
M  V30 21316 C 2128.4 0.184512 5.33381 0
M  V30 21317 O 2128.63 -1.02355 5.61141 0
M  V30 21318 O 2127.56 0.885058 5.95357 0
M  V30 21319 H 2131.39 1.41206 2.68877 0
M  V30 21320 H 2128.97 0.752144 1.29086 0
M  V30 21321 H 2130.85 -0.535499 4.17984 0
M  V30 21322 H 2129.53 -1.00109 3.07831 0
M  V30 21323 H 2128.44 1.27427 3.51729 0
M  V30 21324 H 2129.77 1.65802 4.63433 0
M  V30 21325 N 2131.42 -1.38259 0.756453 0
M  V30 21326 C 2132.67 -2.00349 0.314356 0
M  V30 21327 C 2133 -1.5991 -1.10192 0
M  V30 21328 O 2132.27 -0.837999 -1.75522 0
M  V30 21329 C 2132.56 -3.57396 0.440504 0
M  V30 21330 C 2132.41 -4.0779 1.8981 0
M  V30 21331 C 2133.73 -4.39793 -0.164403 0
M  V30 21332 H 2130.85 -0.727862 0.115697 0
M  V30 21333 H 2133.49 -1.6416 0.956635 0
M  V30 21334 H 2131.64 -3.88355 -0.106298 0
M  V30 21335 H 2133.31 -3.87461 2.50343 0
M  V30 21336 H 2131.56 -3.6055 2.41218 0
M  V30 21337 H 2132.23 -5.1688 1.9375 0
M  V30 21338 H 2134.7 -4.15003 0.301971 0
M  V30 21339 H 2133.58 -5.48881 -0.0459121 0
M  V30 21340 H 2133.84 -4.23971 -1.25303 0
M  V30 21341 N 2132.9 -0.505757 -1.49264 0
M  V30 21342 C 2134.15 0.0369987 -2.02066 0
M  V30 21343 C 2134.47 1.37044 -1.38723 0
M  V30 21344 O 2133.74 1.8819 -0.544182 0
M  V30 21345 H 2132.32 0.0166628 -0.746814 0
M  V30 21346 H 2134.98 -0.66408 -1.83238 0
M  V30 21347 H 2134.08 0.163179 -3.11673 0
M  V30 21348 N 2134.38 1.55765 -0.239796 0
M  V30 21349 C 2135.34 2.19809 0.649364 0
M  V30 21350 C 2136.34 1.16526 1.10808 0
M  V30 21351 O 2137.53 1.41651 1.01394 0
M  V30 21352 C 2134.66 2.83599 1.89168 0
M  V30 21353 H 2135.85 2.99763 0.0907114 0
M  V30 21354 H 2133.41 1.56297 0.00977153 0
M  V30 21355 H 2134.14 2.07564 2.49174 0
M  V30 21356 H 2133.93 3.5925 1.57104 0
M  V30 21357 H 2135.42 3.32634 2.52477 0
M  V30 21358 N 2135.85 -0.0334016 1.57565 0
M  V30 21359 C 2137.08 -0.736973 1.9333 0
M  V30 21360 C 2137.5 -1.69124 0.83919 0
M  V30 21361 O 2136.85 -1.81563 -0.184737 0
M  V30 21362 C 2136.91 -1.49777 3.29012 0
M  V30 21363 O 2136.63 -0.581806 4.3422 0
M  V30 21364 C 2138.13 -2.29889 3.79033 0
M  V30 21365 H 2135.35 -0.207374 0.638151 0
M  V30 21366 H 2137.89 0.0077802 2.04499 0
M  V30 21367 H 2136.05 -2.19444 3.19254 0
M  V30 21368 H 2136.46 -1.11488 5.12514 0
M  V30 21369 H 2137.93 -2.78671 4.76494 0
M  V30 21370 H 2138.41 -3.11119 3.10003 0
M  V30 21371 H 2139.02 -1.65304 3.9186 0
M  V30 21372 N 2137.33 -1.54609 -0.305591 0
M  V30 21373 C 2138.58 -1.73328 -1.03931 0
M  V30 21374 C 2138.9 -0.519482 -1.87953 0
M  V30 21375 O 2138.17 0.466312 -1.90269 0
M  V30 21376 H 2136.75 -0.639113 -0.386708 0
M  V30 21377 H 2139.41 -1.91952 -0.337684 0
M  V30 21378 H 2138.51 -2.62058 -1.69505 0
M  V30 21379 N 2138.81 0.568558 -1.46987 0
M  V30 21380 C 2140.22 1.1507 -1.47023 0
M  V30 21381 C 2140.57 1.94977 -0.218726 0
M  V30 21382 O 2139.7 2.05531 0.677201 0
M  V30 21383 C 2140.29 2.09348 -2.66381 0
M  V30 21384 C 2138.85 2.62857 -2.69413 0
M  V30 21385 C 2138 1.39006 -2.39943 0
M  V30 21386 H 2140.95 0.355745 -1.54661 0
M  V30 21387 H 2140.97 2.93044 -2.42705 0
M  V30 21388 H 2140.48 1.51163 -3.57451 0
M  V30 21389 H 2138.58 3.24872 -1.82452 0
M  V30 21390 H 2138.7 3.04626 -3.69784 0
M  V30 21391 H 2137.06 1.69297 -1.90291 0
M  V30 21392 H 2137.84 0.826309 -3.33207 0
M  V30 21393 N 2140.29 1.34929 0.814366 0
M  V30 21394 C 2141.52 1.30863 1.60257 0
M  V30 21395 C 2141.93 -0.11553 1.88446 0
M  V30 21396 O 2141.29 -1.06518 1.4819 0
M  V30 21397 C 2141.34 2.10565 2.93845 0
M  V30 21398 O 2141.06 3.47427 2.66882 0
M  V30 21399 C 2142.56 2.13994 3.88228 0
M  V30 21400 H 2139.78 0.449849 0.497872 0
M  V30 21401 H 2142.33 1.77669 1.01262 0
M  V30 21402 H 2140.48 1.67378 3.49376 0
M  V30 21403 H 2140.89 3.88729 3.52122 0
M  V30 21404 H 2142.37 2.74168 4.79099 0
M  V30 21405 H 2142.85 1.13661 4.24238 0
M  V30 21406 H 2143.45 2.57308 3.38634 0
M  V30 21407 N 2141.77 -1.0356 1.18799 0
M  V30 21408 C 2143.01 -1.78406 0.997524 0
M  V30 21409 C 2143.37 -1.86305 -0.464169 0
M  V30 21410 O 2144.57 -2.57408 -0.774237 0
M  V30 21411 C 2142.84 -3.17534 1.64033 0
M  V30 21412 S 2144.4 -4.08655 1.59832 0
M  V30 21413 H 2141.22 -0.614236 0.3581 0
M  V30 21414 H 2143.82 -1.24137 1.51031 0
M  V30 21415 H 2142.53 -3.09398 2.69631 0
M  V30 21416 H 2142.06 -3.7688 1.12805 0
M  V30 21417 H 2144.07 -4.92339 0.61778 0
M  V30 21418 N 2143.25 -0.990834 -1.22557 0
M  V30 21419 C 2144.16 -0.548263 -2.28104 0
M  V30 21420 C 2145.17 0.401961 -1.69293 0
M  V30 21421 O 2146.35 0.269304 -1.99591 0
M  V30 21422 C 2143.41 0.132121 -3.46448 0
M  V30 21423 C 2142.47 -0.860806 -4.20581 0
M  V30 21424 C 2141.71 -0.212796 -5.33276 0
M  V30 21425 O 2141.93 0.993773 -5.61676 0
M  V30 21426 O 2140.86 -0.916619 -5.9488 0
M  V30 21427 H 2144.69 -1.4263 -2.68124 0
M  V30 21428 H 2142.27 -0.758979 -1.28685 0
M  V30 21429 H 2144.16 0.513325 -4.18262 0
M  V30 21430 H 2142.83 0.984754 -3.08357 0
M  V30 21431 H 2141.74 -1.2929 -3.51048 0
M  V30 21432 H 2143.07 -1.68257 -4.62548 0
M  V30 21433 N 2144.72 1.37856 -0.763775 0
M  V30 21434 C 2146.13 1.82562 -0.390909 0
M  V30 21435 C 2146.49 1.63676 1.08188 0
M  V30 21436 O 2145.61 1.14349 1.8372 0
M  V30 21437 C 2146.21 3.31432 -0.702745 0
M  V30 21438 C 2144.76 3.74446 -0.383033 0
M  V30 21439 C 2143.91 2.60494 -0.950696 0
M  V30 21440 H 2146.86 1.2644 -0.95909 0
M  V30 21441 H 2146.88 3.80497 0.0154528 0
M  V30 21442 H 2146.4 3.45145 -1.77472 0
M  V30 21443 H 2144.5 3.66306 0.681946 0
M  V30 21444 H 2144.61 4.70842 -0.885708 0
M  V30 21445 H 2142.97 2.51918 -0.375427 0
M  V30 21446 H 2143.76 2.77003 -2.02791 0
M  V30 21447 N 2146.2 0.513665 1.48994 0
M  V30 21448 C 2147.45 -0.0263341 2.02483 0
M  V30 21449 C 2147.78 -1.35817 1.39226 0
M  V30 21450 O 2147.03 -1.88621 0.5216 0
M  V30 21451 C 2147.33 -0.214329 3.56757 0
M  V30 21452 C 2147 1.0411 4.38716 0
M  V30 21453 C 2145.66 1.3852 4.60832 0
M  V30 21454 C 2148.01 1.87499 4.86306 0
M  V30 21455 C 2145.34 2.56248 5.27782 0
M  V30 21456 C 2147.69 3.04392 5.54553 0
M  V30 21457 C 2146.35 3.39167 5.7491 0
M  V30 21458 H 2145.62 -0.00963634 0.740937 0
M  V30 21459 H 2148.27 0.676388 1.79157 0
M  V30 21460 H 2146.58 -0.999685 3.78832 0
M  V30 21461 H 2148.27 -0.646802 3.95749 0
M  V30 21462 H 2144.86 0.763083 4.21752 0
M  V30 21463 H 2149.05 1.62228 4.69037 0
M  V30 21464 H 2144.3 2.83413 5.41744 0
M  V30 21465 H 2148.48 3.69325 5.904 0
M  V30 21466 H 2146.1 4.30492 6.26562 0
M  V30 21467 N 2147.68 -1.55636 0.248053 0
M  V30 21468 C 2148.93 -1.98579 -0.375626 0
M  V30 21469 C 2149.25 -1.13753 -1.58383 0
M  V30 21470 O 2148.52 -0.2206 -1.94654 0
M  V30 21471 H 2147.1 -0.733423 -0.141773 0
M  V30 21472 H 2149.76 -1.91784 0.34711 0
M  V30 21473 H 2148.86 -3.04513 -0.683983 0
M  V30 21474 N 2149.16 0.0250451 -1.5758 0
M  V30 21475 C 2150.41 0.713634 -1.89081 0
M  V30 21476 C 2150.73 1.7568 -0.846258 0
M  V30 21477 O 2150 1.95534 0.119612 0
M  V30 21478 H 2148.58 0.266566 -0.697819 0
M  V30 21479 H 2151.24 -0.00995501 -1.94897 0
M  V30 21480 H 2150.33 1.20068 -2.8808 0
M  V30 21481 N 2150.64 1.54769 0.297388 0
M  V30 21482 C 2151.57 1.82346 1.38861 0
M  V30 21483 C 2152.58 0.7066 1.46666 0
M  V30 21484 O 2153.77 0.984128 1.4892 0
M  V30 21485 C 2150.87 1.94966 2.77203 0
M  V30 21486 C 2150.04 3.25403 2.92287 0
M  V30 21487 C 2149.1 3.28394 4.1115 0
M  V30 21488 O 2148.13 4.01906 4.03063 0
M  V30 21489 N 2149.33 2.54044 5.2196 0
M  V30 21490 H 2152.09 2.76526 1.15558 0
M  V30 21491 H 2149.66 1.54387 0.487465 0
M  V30 21492 H 2151.65 1.94365 3.54971 0
M  V30 21493 H 2150.22 1.07765 2.93437 0
M  V30 21494 H 2149.44 3.38748 2.01602 0
M  V30 21495 H 2150.73 4.11473 2.99278 0
M  V30 21496 H 2150.12 1.93956 5.31411 0
M  V30 21497 H 2148.68 2.59192 5.98049 0
M  V30 21498 N 2152.11 -0.560755 1.47286 0
M  V30 21499 C 2153.35 -1.3289 1.55305 0
M  V30 21500 C 2153.72 -1.9086 0.208898 0
M  V30 21501 O 2154.92 -2.683 0.163911 0
M  V30 21502 C 2153.19 -2.41196 2.63741 0
M  V30 21503 S 2154.75 -3.28146 2.91318 0
M  V30 21504 H 2151.57 -0.452457 0.548456 0
M  V30 21505 H 2154.17 -0.642337 1.84646 0
M  V30 21506 H 2152.87 -1.97037 3.60006 0
M  V30 21507 H 2152.4 -3.14598 2.36202 0
M  V30 21508 H 2154.42 -4.4058 2.28261 0
M  V30 21509 N 2153.59 -1.35359 -0.807199 0
M  V30 21510 C 2155 -1.25624 -1.38114 0
M  V30 21511 C 2155.35 0.11163 -1.95882 0
M  V30 21512 O 2154.48 1.01256 -1.91249 0
M  V30 21513 C 2155.07 -2.27464 -2.51088 0
M  V30 21514 C 2153.63 -2.21472 -3.04347 0
M  V30 21515 C 2152.78 -2.13208 -1.77307 0
M  V30 21516 H 2155.73 -1.46496 -0.610285 0
M  V30 21517 H 2155.75 -1.90077 -3.29623 0
M  V30 21518 H 2155.26 -3.27009 -2.09014 0
M  V30 21519 H 2153.36 -1.25336 -3.50887 0
M  V30 21520 H 2153.48 -3.13409 -3.6237 0
M  V30 21521 H 2151.84 -1.59176 -1.98834 0
M  V30 21522 H 2152.62 -3.14611 -1.37385 0
M  V30 21523 N 2155.07 1.02928 -1.19346 0
M  V30 21524 C 2156.31 1.77875 -1.00697 0
M  V30 21525 C 2156.67 1.86548 0.454282 0
M  V30 21526 O 2157.87 2.57815 0.760575 0
M  V30 21527 C 2156.15 3.1666 -1.65715 0
M  V30 21528 S 2157.7 4.07802 -1.61997 0
M  V30 21529 H 2154.52 0.612328 -0.361352 0
M  V30 21530 H 2157.12 1.23334 -1.51687 0
M  V30 21531 H 2155.83 3.07964 -2.71268 0
M  V30 21532 H 2155.36 3.76277 -1.14802 0
M  V30 21533 H 2157.37 4.92005 -0.643881 0
M  V30 21534 N 2156.55 0.997319 1.2203 0
M  V30 21535 C 2157.5 0.522421 2.21934 0
M  V30 21536 C 2158.48 -0.411799 1.55541 0
M  V30 21537 O 2159.67 -0.237899 1.75394 0
M  V30 21538 C 2156.8 -0.157225 3.4294 0
M  V30 21539 C 2155.89 0.797559 4.16533 0
M  V30 21540 N 2156.28 1.94723 4.66816 0
M  V30 21541 C 2154.58 0.614349 4.41749 0
M  V30 21542 C 2155.28 2.54687 5.22981 0
M  V30 21543 N 2154.25 1.82915 5.11901 0
M  V30 21544 H 2158.06 1.39918 2.58457 0
M  V30 21545 H 2155.57 0.860149 1.37751 0
M  V30 21546 H 2157.57 -0.514864 4.13709 0
M  V30 21547 H 2156.23 -1.03007 3.07928 0
M  V30 21548 H 2157.24 2.32787 4.62634 0
M  V30 21549 H 2153.92 -0.212058 4.16961 0
M  V30 21550 H 2155.31 3.51873 5.72394 0
M  V30 21551 N 2158.03 -1.37449 0.771075 0
M  V30 21552 C 2158.99 -2.28619 0.163149 0
M  V30 21553 C 2159.99 -1.47996 -0.628787 0
M  V30 21554 O 2161.18 -1.68221 -0.452475 0
M  V30 21555 C 2158.31 -3.31942 -0.776372 0
M  V30 21556 H 2159.5 -2.83888 0.966816 0
M  V30 21557 H 2157.06 -1.46703 0.53924 0
M  V30 21558 H 2157.79 -2.81794 -1.60507 0
M  V30 21559 H 2157.58 -3.91534 -0.210683 0
M  V30 21560 H 2159.07 -4.00072 -1.19717 0
M  V30 21561 N 2159.5 -0.52156 -1.4872 0
M  V30 21562 C 2160.45 0.265476 -2.26449 0
M  V30 21563 C 2161.44 0.917389 -1.32185 0
M  V30 21564 O 2162.63 0.821588 -1.56777 0
M  V30 21565 C 2159.76 1.31693 -3.17036 0
M  V30 21566 C 2158.85 0.670232 -4.1877 0
M  V30 21567 N 2159.24 -0.239146 -5.05234 0
M  V30 21568 C 2157.53 0.92843 -4.3623 0
M  V30 21569 C 2158.24 -0.611389 -5.78478 0
M  V30 21570 N 2157.21 0.0255579 -5.43594 0
M  V30 21571 H 2161.01 -0.434253 -2.90674 0
M  V30 21572 H 2158.53 -0.339013 -1.58822 0
M  V30 21573 H 2160.52 1.8944 -3.71373 0
M  V30 21574 H 2159.18 2.01813 -2.54365 0
M  V30 21575 H 2160.2 -0.611239 -5.1428 0
M  V30 21576 H 2156.87 1.62083 -3.84754 0
M  V30 21577 H 2158.26 -1.35657 -6.58063 0
M  V30 21578 N 2160.98 1.55502 -0.256304 0
M  V30 21579 C 2162.23 1.99463 0.366354 0
M  V30 21580 C 2162.56 1.14436 1.56902 0
M  V30 21581 O 2161.84 0.209944 1.93364 0
M  V30 21582 C 2162.12 3.51836 0.767016 0
M  V30 21583 C 2161.97 4.47626 -0.441687 0
M  V30 21584 C 2163.29 4.09574 1.61051 0
M  V30 21585 H 2160.41 0.72514 0.131688 0
M  V30 21586 H 2163.05 1.86568 -0.359494 0
M  V30 21587 H 2161.2 3.62956 1.38546 0
M  V30 21588 H 2162.87 4.48475 -1.08018 0
M  V30 21589 H 2161.12 4.2006 -1.08313 0
M  V30 21590 H 2161.79 5.51874 -0.117869 0
M  V30 21591 H 2164.26 4.01614 1.08838 0
M  V30 21592 H 2163.14 5.16436 1.85969 0
M  V30 21593 H 2163.4 3.58619 2.58544 0
M  V30 21594 N 2162.46 -0.0166879 1.57591 0
M  V30 21595 C 2163.71 -0.704094 1.89012 0
M  V30 21596 C 2164.02 -1.75854 0.856437 0
M  V30 21597 O 2165.23 -2.4994 1.06029 0
M  V30 21598 C 2163.68 -1.30343 3.35468 0
M  V30 21599 C 2163.29 -0.284687 4.47095 0
M  V30 21600 C 2165.04 -1.96999 3.76021 0
M  V30 21601 C 2162.94 -0.893068 5.84618 0
M  V30 21602 H 2161.87 -0.266736 0.705243 0
M  V30 21603 H 2164.52 0.0411208 1.83454 0
M  V30 21604 H 2162.91 -2.09876 3.3581 0
M  V30 21605 H 2164.08 0.484835 4.58242 0
M  V30 21606 H 2162.4 0.280487 4.15454 0
M  V30 21607 H 2164.99 -2.43392 4.76093 0
M  V30 21608 H 2165.34 -2.79347 3.0866 0
M  V30 21609 H 2165.87 -1.24224 3.77906 0
M  V30 21610 H 2162.61 -0.108736 6.5541 0
M  V30 21611 H 2162.13 -1.63214 5.77167 0
M  V30 21612 H 2163.81 -1.39672 6.31744 0
M  V30 21613 N 2163.94 -1.54924 -0.289176 0
M  V30 21614 C 2165.19 -1.74421 -1.02087 0
M  V30 21615 C 2165.51 -0.539388 -1.87392 0
M  V30 21616 O 2164.78 0.446105 -1.90753 0
M  V30 21617 H 2163.36 -0.643179 -0.379908 0
M  V30 21618 H 2166.02 -1.923 -0.317306 0
M  V30 21619 H 2165.12 -2.63841 -1.66716 0
M  V30 21620 N 2165.42 0.552936 -1.47582 0
M  V30 21621 C 2166.83 0.879282 -1.33195 0
M  V30 21622 C 2167.03 1.98851 -0.32564 0
M  V30 21623 O 2166.09 2.51144 0.261323 0
M  V30 21624 C 2167.4 1.26848 -2.72635 0
M  V30 21625 C 2168.95 1.37967 -2.80952 0
M  V30 21626 C 2169.42 1.8024 -4.21043 0
M  V30 21627 N 2170.92 1.87383 -4.23606 0
M  V30 21628 C 2171.65 2.2143 -5.2892 0
M  V30 21629 N 2171.15 2.54061 -6.44535 0
M  V30 21630 N 2172.94 2.2224 -5.163 0
M  V30 21631 H 2165.09 -0.179315 -2.11642 0
M  V30 21632 H 2167.35 -0.0175595 -0.947837 0
M  V30 21633 H 2167.06 0.52723 -3.47726 0
M  V30 21634 H 2166.93 2.22371 -3.04682 0
M  V30 21635 H 2169.32 2.11172 -2.06132 0
M  V30 21636 H 2169.4 0.406213 -2.52554 0
M  V30 21637 H 2169.05 1.07603 -4.96371 0
M  V30 21638 H 2168.98 2.78596 -4.46869 0
M  V30 21639 H 2171.47 1.64536 -3.40201 0
M  V30 21640 H 2171.78 2.79079 -7.20649 0
M  V30 21641 H 2170.12 2.51631 -6.47848 0
M  V30 21642 H 2173.32 1.9619 -4.25002 0
M  V30 21643 H 2173.49 2.48444 -5.98481 0
M  V30 21644 N 2166.89 1.35785 0.800009 0
M  V30 21645 C 2168.17 1.19984 1.54477 0
M  V30 21646 C 2168.55 -0.218358 2.09968 0
M  V30 21647 O 2167.9 -1.2227 1.93035 0
M  V30 21648 C 2168.11 2.27325 2.6481 0
M  V30 21649 C 2169.46 2.63463 3.32975 0
M  V30 21650 O 2170.48 2.26288 2.75086 0
M  V30 21651 O 2169.34 3.27408 4.37569 0
M  V30 21652 H 2166.43 0.466534 0.682844 0
M  V30 21653 H 2168.98 1.47486 0.839403 0
M  V30 21654 H 2167.75 3.22418 2.21725 0
M  V30 21655 H 2167.38 2.01129 3.42976 0
M  V30 21656 N 2168.37 -1.02294 1.19891 0
M  V30 21657 C 2169.61 -1.77338 1.01639 0
M  V30 21658 C 2169.98 -1.86787 -0.444383 0
M  V30 21659 O 2171.18 -2.58215 -0.746892 0
M  V30 21660 C 2169.45 -3.15777 1.67392 0
M  V30 21661 S 2171.01 -4.06937 1.64158 0
M  V30 21662 H 2167.83 -0.610403 0.364594 0
M  V30 21663 H 2170.43 -1.22528 1.52339 0
M  V30 21664 H 2169.13 -3.06521 2.72897 0
M  V30 21665 H 2168.66 -3.75662 1.16796 0
M  V30 21666 H 2170.68 -4.91656 0.669964 0
M  V30 21667 N 2169.85 -1.00378 -1.21499 0
M  V30 21668 C 2171.08 -0.704325 -1.95074 0
M  V30 21669 C 2171.5 0.726447 -1.73506 0
M  V30 21670 O 2170.86 1.49809 -1.02113 0
M  V30 21671 C 2170.91 -1.02938 -3.45595 0
M  V30 21672 O 2170.01 -0.133961 -4.12182 0
M  V30 21673 H 2169.35 -0.262537 -0.609894 0
M  V30 21674 H 2171.88 -1.34369 -1.54292 0
M  V30 21675 H 2171.89 -0.975727 -3.96161 0
M  V30 21676 H 2170.57 -2.0719 -3.60618 0
M  V30 21677 H 2169.14 -0.244034 -3.72101 0
M  V30 21678 N 2171.33 1.37038 -0.778354 0
M  V30 21679 C 2172.74 1.52865 -0.458743 0
M  V30 21680 C 2172.94 1.73503 1.02465 0
M  V30 21681 O 2172 1.76017 1.81036 0
M  V30 21682 C 2173.31 2.72117 -1.27956 0
M  V30 21683 C 2174.86 2.85982 -1.27213 0
M  V30 21684 C 2175.34 4.08225 -2.07645 0
M  V30 21685 N 2176.83 4.1535 -2.05033 0
M  V30 21686 C 2177.56 5.08988 -2.64044 0
M  V30 21687 N 2177.06 6.0814 -3.3187 0
M  V30 21688 N 2178.85 5.0152 -2.53838 0
M  V30 21689 H 2171 1.21895 -1.73941 0
M  V30 21690 H 2173.27 0.594067 -0.738775 0
M  V30 21691 H 2172.97 2.63353 -2.33105 0
M  V30 21692 H 2172.85 3.65977 -0.913259 0
M  V30 21693 H 2175.23 2.94213 -0.228607 0
M  V30 21694 H 2175.31 1.93061 -1.67812 0
M  V30 21695 H 2174.96 4.00755 -3.12022 0
M  V30 21696 H 2174.89 5.00272 -1.64423 0
M  V30 21697 H 2177.38 3.44352 -1.55659 0
M  V30 21698 H 2177.69 6.76131 -3.74255 0
M  V30 21699 H 2176.04 6.08399 -3.3597 0
M  V30 21700 H 2179.23 4.23005 -2.0046 0
M  V30 21701 H 2179.4 5.7431 -3.00121 0
M  V30 21702 N 2172.81 0.529439 1.48441 0
M  V30 21703 C 2174.05 -0.00285821 2.044 0
M  V30 21704 C 2174.41 -1.31631 1.39776 0
M  V30 21705 O 2175.61 -1.93461 1.86618 0
M  V30 21706 C 2173.88 -0.122915 3.57189 0
M  V30 21707 S 2175.44 -0.605355 4.34604 0
M  V30 21708 H 2172.26 0.0118032 0.710902 0
M  V30 21709 H 2174.86 0.709877 1.82157 0
M  V30 21710 H 2173.57 0.837857 4.01756 0
M  V30 21711 H 2173.1 -0.860045 3.83884 0
M  V30 21712 H 2175.11 -1.86995 4.59616 0
M  V30 21713 N 2174.29 -1.55364 0.264547 0
M  V30 21714 C 2175.25 -2.20814 -0.614312 0
M  V30 21715 C 2176.25 -1.18274 -1.0894 0
M  V30 21716 O 2177.44 -1.43246 -0.991274 0
M  V30 21717 C 2174.57 -2.86572 -1.84632 0
M  V30 21718 H 2175.76 -2.99869 -0.0430102 0
M  V30 21719 H 2173.32 -1.56293 0.0150952 0
M  V30 21720 H 2174.05 -2.11501 -2.45841 0
M  V30 21721 H 2173.84 -3.61704 -1.51369 0
M  V30 21722 H 2175.33 -3.36608 -2.47153 0
M  V30 21723 N 2175.76 0.00833021 -1.57598 0
M  V30 21724 C 2176.99 0.706123 -1.94478 0
M  V30 21725 C 2177.41 1.67768 -0.86599 0
M  V30 21726 O 2176.76 1.81834 0.155828 0
M  V30 21727 C 2176.81 1.44523 -3.31354 0
M  V30 21728 O 2176.54 0.512651 -4.3509 0
M  V30 21729 C 2178.04 2.2383 -3.82642 0
M  V30 21730 H 2175.26 0.197195 -0.64137 0
M  V30 21731 H 2177.8 -0.0403132 -2.0446 0
M  V30 21732 H 2175.96 2.14337 -3.22705 0
M  V30 21733 H 2176.37 1.03321 -5.14223 0
M  V30 21734 H 2177.84 2.71055 -4.80867 0
M  V30 21735 H 2178.32 3.06148 -3.14913 0
M  V30 21736 H 2178.93 1.59049 -3.94441 0
M  V30 21737 N 2177.24 1.55075 0.280956 0
M  V30 21738 C 2178.49 1.7496 1.0116 0
M  V30 21739 C 2178.81 0.549318 1.87103 0
M  V30 21740 O 2178.08 -0.435983 1.90987 0
M  V30 21741 H 2176.66 0.645185 0.376492 0
M  V30 21742 H 2179.32 1.92465 0.307104 0
M  V30 21743 H 2178.42 2.64721 1.65315 0
M  V30 21744 N 2178.72 -0.545102 1.47873 0
M  V30 21745 C 2179.95 -1.3249 1.58525 0
M  V30 21746 C 2180.36 -1.87685 0.238932 0
M  V30 21747 O 2179.7 -1.6633 -0.779752 0
M  V30 21748 C 2179.76 -2.52362 2.56035 0
M  V30 21749 C 2179.43 -2.18364 4.01455 0
M  V30 21750 C 2180.42 -1.74934 4.89586 0
M  V30 21751 C 2178.11 -2.29352 4.46882 0
M  V30 21752 C 2180.1 -1.42937 6.21167 0
M  V30 21753 C 2177.79 -1.96966 5.78487 0
M  V30 21754 C 2178.79 -1.53828 6.65452 0
M  V30 21755 O 2178.48 -1.2186 7.9461 0
M  V30 21756 H 2178.21 -0.409737 0.537672 0
M  V30 21757 H 2180.76 -0.665921 1.94306 0
M  V30 21758 H 2178.99 -3.21191 2.15345 0
M  V30 21759 H 2180.68 -3.14433 2.56684 0
M  V30 21760 H 2181.45 -1.65929 4.55733 0
M  V30 21761 H 2177.33 -2.61886 3.7939 0
M  V30 21762 H 2180.87 -1.09193 6.89001 0
M  V30 21763 H 2176.77 -2.05608 6.11879 0
M  V30 21764 H 2177.53 -1.35388 8.07225 0
M  V30 21765 N 2180.2 -1.36208 -0.792797 0
M  V30 21766 C 2181.44 -1.3145 -1.55217 0
M  V30 21767 C 2181.8 0.106382 -1.92106 0
M  V30 21768 O 2181.09 1.06012 -1.59599 0
M  V30 21769 C 2181.29 -2.16771 -2.84157 0
M  V30 21770 C 2181.11 -3.67013 -2.59868 0
M  V30 21771 C 2179.88 -4.36202 -2.55061 0
M  V30 21772 C 2182.08 -4.60355 -2.29297 0
M  V30 21773 N 2180.06 -5.72107 -2.22635 0
M  V30 21774 C 2181.44 -5.84484 -2.0683 0
M  V30 21775 C 2183.49 -4.48955 -2.15276 0
M  V30 21776 C 2182.19 -6.98492 -1.7176 0
M  V30 21777 C 2184.22 -5.62827 -1.81603 0
M  V30 21778 C 2183.58 -6.85992 -1.59982 0
M  V30 21779 H 2179.68 -0.536283 -0.569144 0
M  V30 21780 H 2182.26 -1.71227 -0.926799 0
M  V30 21781 H 2180.44 -1.79245 -3.44566 0
M  V30 21782 H 2182.17 -2.03429 -3.49855 0
M  V30 21783 H 2178.92 -3.88966 -2.7019 0
M  V30 21784 H 2179.35 -6.43874 -2.09177 0
M  V30 21785 H 2183.99 -3.54323 -2.30684 0
M  V30 21786 H 2181.71 -7.93078 -1.55089 0
M  V30 21787 H 2185.29 -5.55966 -1.71443 0
M  V30 21788 H 2184.17 -7.72613 -1.34308 0
M  V30 21789 N 2181.68 1.01656 -1.20431 0
M  V30 21790 C 2182.92 1.74909 -1.01249 0
M  V30 21791 C 2183.24 1.89583 0.456441 0
M  V30 21792 O 2182.51 1.43836 1.32997 0
M  V30 21793 H 2181.09 0.647988 -0.371646 0
M  V30 21794 H 2183.76 1.22561 -1.51542 0
M  V30 21795 H 2182.85 2.75268 -1.47085 0
M  V30 21796 N 2183.15 1.01021 1.20965 0
M  V30 21797 C 2184.4 0.695875 1.90168 0
M  V30 21798 C 2184.73 -0.773882 1.78441 0
M  V30 21799 O 2183.98 -1.57716 1.15862 0
M  V30 21800 C 2184.28 1.06913 3.41034 0
M  V30 21801 C 2183.95 2.53402 3.72959 0
M  V30 21802 C 2182.61 2.9343 3.81382 0
M  V30 21803 C 2184.96 3.48268 3.87761 0
M  V30 21804 C 2182.29 4.27275 4.02061 0
M  V30 21805 C 2184.64 4.81794 4.09948 0
M  V30 21806 C 2183.31 5.21537 4.166 0
M  V30 21807 H 2182.58 0.254639 0.695874 0
M  V30 21808 H 2185.22 1.26961 1.43364 0
M  V30 21809 H 2183.53 0.413721 3.8961 0
M  V30 21810 H 2185.23 0.803706 3.92863 0
M  V30 21811 H 2181.82 2.21384 3.66997 0
M  V30 21812 H 2186 3.18506 3.80615 0
M  V30 21813 H 2181.26 4.57631 4.05443 0
M  V30 21814 H 2185.43 5.55233 4.20344 0
M  V30 21815 H 2183.06 6.25264 4.32375 0
M  V30 21816 N 2184.63 -1.36623 0.78561 0
M  V30 21817 C 2186.04 -1.81917 0.419903 0
M  V30 21818 C 2186.39 -1.65376 -1.0557 0
M  V30 21819 O 2185.52 -1.17258 -1.81878 0
M  V30 21820 C 2186.11 -3.30272 0.755384 0
M  V30 21821 C 2184.67 -3.73789 0.442556 0
M  V30 21822 C 2183.82 -2.58948 0.992018 0
M  V30 21823 H 2186.77 -1.24899 0.979084 0
M  V30 21824 H 2186.79 -3.80473 0.0450829 0
M  V30 21825 H 2186.3 -3.42278 1.8294 0
M  V30 21826 H 2184.4 -3.67345 -0.623584 0
M  V30 21827 H 2184.52 -4.69373 0.960503 0
M  V30 21828 H 2182.88 -2.51289 0.415458 0
M  V30 21829 H 2183.66 -2.73742 2.07172 0
M  V30 21830 N 2186.11 -0.537304 -1.48158 0
M  V30 21831 C 2187.06 0.234747 -2.31412 0
M  V30 21832 C 2188.05 0.928487 -1.41688 0
M  V30 21833 O 2189.26 0.852038 -1.58557 0
M  V30 21834 H 2185.63 0.0945724 -0.74603 0
M  V30 21835 H 2187.6 -0.486905 -2.94401 0
M  V30 21836 C 2186.35 1.26413 -3.23906 0
M  V30 21837 H 2185.68 0.739721 -3.92897 0
M  V30 21838 H 2187.12 1.7756 -3.8503 0
M  V30 21839 C 2185.57 2.3016 -2.46024 0
M  V30 21840 O 2186.1 3.36731 -2.19032 0
M  V30 21841 N 2184.31 2.03565 -2.07388 0
M  V30 21842 H 2183.86 1.16915 -2.2954 0
M  V30 21843 H 2183.82 2.73201 -1.55592 0
M  V30 21844 N 2187.59 1.55221 -0.272782 0
M  V30 21845 C 2188.83 2.01452 0.345887 0
M  V30 21846 C 2189.19 1.157 1.53224 0
M  V30 21847 O 2190.39 1.515 2.22039 0
M  V30 21848 C 2188.66 3.50058 0.720685 0
M  V30 21849 S 2190.22 4.18279 1.32622 0
M  V30 21850 H 2187.04 0.702798 0.107684 0
M  V30 21851 H 2189.64 1.91487 -0.394071 0
M  V30 21852 H 2188.35 4.1012 -0.151654 0
M  V30 21853 H 2187.88 3.64003 1.49216 0
M  V30 21854 H 2189.89 4.2171 2.61486 0
M  V30 21855 N 2189.07 2.77022e-05 1.576 0
M  V30 21856 C 2190.48 -0.35605 1.55578 0
M  V30 21857 C 2190.68 -1.74784 1.00264 0
M  V30 21858 O 2189.74 -2.44347 0.636465 0
M  V30 21859 C 2191.05 -0.231258 2.99809 0
M  V30 21860 C 2192.6 -0.306194 3.11499 0
M  V30 21861 C 2193.07 -0.210525 4.57516 0
M  V30 21862 N 2194.57 -0.268424 4.62422 0
M  V30 21863 C 2195.3 -0.217739 5.72986 0
M  V30 21864 N 2194.8 -0.117649 6.927 0
M  V30 21865 N 2196.59 -0.269606 5.61453 0
M  V30 21866 H 2188.74 0.91049 1.91895 0
M  V30 21867 H 2191 0.349005 0.881419 0
M  V30 21868 H 2190.71 0.726333 3.44118 0
M  V30 21869 H 2190.58 -1.01332 3.63334 0
M  V30 21870 H 2192.97 -1.25423 2.6712 0
M  V30 21871 H 2193.05 0.505733 2.50751 0
M  V30 21872 H 2192.7 0.733965 5.02569 0
M  V30 21873 H 2192.63 -1.04094 5.16209 0
M  V30 21874 H 2195.12 -0.347112 3.76302 0
M  V30 21875 H 2195.43 -0.0848705 7.72753 0
M  V30 21876 H 2193.77 -0.0832758 6.9495 0
M  V30 21877 H 2196.97 -0.345996 4.6682 0
M  V30 21878 H 2197.14 -0.22664 6.47604 0
M  V30 21879 N 2190.54 -1.55222 -0.272728 0
M  V30 21880 C 2191.96 -1.66547 -0.843751 0
M  V30 21881 C 2192.31 -0.592674 -1.87034 0
M  V30 21882 O 2191.43 0.26578 -2.14762 0
M  V30 21883 C 2192.03 -3.01921 -1.53718 0
M  V30 21884 C 2190.59 -3.15272 -2.05623 0
M  V30 21885 C 2189.73 -2.62344 -0.898377 0
M  V30 21886 H 2192.68 -1.58624 -0.0490719 0
M  V30 21887 H 2192.7 -2.94925 -2.40415 0
M  V30 21888 H 2192.22 -3.79979 -0.789763 0
M  V30 21889 H 2190.32 -2.41988 -2.83324 0
M  V30 21890 H 2190.43 -4.21837 -2.27135 0
M  V30 21891 H 2188.79 -2.19509 -1.29182 0
M  V30 21892 H 2189.58 -3.42906 -0.164467 0
M  V30 21893 N 2192.02 0.537252 -1.4816 0
M  V30 21894 C 2193.26 1.30403 -1.57399 0
M  V30 21895 C 2193.63 1.90504 -0.239236 0
M  V30 21896 O 2194.83 2.68005 -0.206575 0
M  V30 21897 C 2193.1 2.3697 -2.67545 0
M  V30 21898 S 2194.66 3.23469 -2.96501 0
M  V30 21899 H 2191.48 0.443674 -0.555584 0
M  V30 21900 H 2194.08 0.61288 -1.85645 0
M  V30 21901 H 2192.78 1.91285 -3.63096 0
M  V30 21902 H 2192.31 3.10801 -2.41177 0
M  V30 21903 H 2194.33 4.36893 -2.35242 0
M  V30 21904 N 2193.5 1.36626 0.785562 0
M  V30 21905 C 2194.78 1.21615 1.53196 0
M  V30 21906 C 2195.16 -0.196076 2.10187 0
M  V30 21907 O 2194.51 -1.20216 1.94321 0
M  V30 21908 C 2194.72 2.30121 2.62384 0
M  V30 21909 C 2196.06 2.6698 3.30162 0
M  V30 21910 O 2197.09 2.29193 2.7267 0
M  V30 21911 O 2195.95 3.32031 4.34071 0
M  V30 21912 H 2193.04 0.47375 0.677857 0
M  V30 21913 H 2195.59 1.48368 0.823713 0
M  V30 21914 H 2194.36 3.24752 2.18293 0
M  V30 21915 H 2193.98 2.04756 3.40824 0
M  V30 21916 N 2194.98 -1.01016 1.20969 0
M  V30 21917 C 2196.22 -1.7625 1.03514 0
M  V30 21918 C 2196.58 -1.87247 -0.424547 0
M  V30 21919 O 2197.78 -2.58993 -0.719463 0
M  V30 21920 C 2196.05 -3.13983 1.70731 0
M  V30 21921 S 2197.61 -4.05173 1.68465 0
M  V30 21922 H 2194.43 -0.606502 0.371048 0
M  V30 21923 H 2197.03 -1.20905 1.5363 0
M  V30 21924 H 2195.74 -3.0361 2.76133 0
M  V30 21925 H 2195.27 -3.74403 1.20774 0
M  V30 21926 H 2197.28 -4.90918 0.722074 0
M  V30 21927 N 2196.46 -1.01661 -1.20428 0
M  V30 21928 C 2197.7 -0.704556 -1.89421 0
M  V30 21929 C 2198.03 0.768165 -1.79232 0
M  V30 21930 O 2197.3 1.55252 -1.19473 0
M  V30 21931 H 2195.88 -0.257615 -0.701173 0
M  V30 21932 H 2198.54 -1.28821 -1.46257 0
M  V30 21933 H 2197.63 -0.987968 -2.9605 0
M  V30 21934 N 2197.93 1.36205 -0.792844 0
M  V30 21935 C 2198.9 2.2833 -0.199499 0
M  V30 21936 C 2199.9 1.48978 0.605163 0
M  V30 21937 O 2201.09 1.6892 0.425656 0
M  V30 21938 C 2198.22 3.33135 0.723465 0
M  V30 21939 H 2199.41 2.82314 -1.01186 0
M  V30 21940 H 2196.97 1.45827 -0.562511 0
M  V30 21941 H 2197.7 2.84312 1.56003 0
M  V30 21942 H 2197.49 3.91819 0.148367 0
M  V30 21943 H 2198.98 4.01926 1.13337 0
M  V30 21944 N 2199.41 0.545154 1.47871 0
M  V30 21945 C 2200.83 0.20406 1.5829 0
M  V30 21946 C 2201.03 -1.29315 1.54531 0
M  V30 21947 O 2200.08 -2.07249 1.44236 0
M  V30 21948 C 2201.4 0.820038 2.89302 0
M  V30 21949 C 2202.95 0.790159 3.02862 0
M  V30 21950 C 2203.42 1.38499 4.36557 0
M  V30 21951 N 2204.91 1.34763 4.43163 0
M  V30 21952 C 2205.65 1.77762 5.4515 0
M  V30 21953 N 2205.14 2.28562 6.54012 0
M  V30 21954 N 2206.94 1.68906 5.36122 0
M  V30 21955 H 2199.09 1.51804 1.48557 0
M  V30 21956 H 2201.35 0.632339 0.706294 0
M  V30 21957 H 2201.06 1.87178 2.97754 0
M  V30 21958 H 2200.93 0.305981 3.75957 0
M  V30 21959 H 2203.32 -0.252861 2.94015 0
M  V30 21960 H 2203.4 1.34185 2.1778 0
M  V30 21961 H 2203.04 2.42701 4.4616 0
M  V30 21962 H 2202.97 0.808846 5.20351 0
M  V30 21963 H 2205.46 0.975919 3.65081 0
M  V30 21964 H 2205.78 2.59327 7.2799 0
M  V30 21965 H 2204.12 2.32565 6.54934 0
M  V30 21966 H 2207.31 1.29006 4.49972 0
M  V30 21967 H 2207.48 2.02737 6.15469 0
M  V30 21968 N 2200.89 -1.55074 0.28101 0
M  V30 21969 C 2201.82 -2.25728 -0.597429 0
M  V30 21970 C 2202.8 -1.24954 -1.15415 0
M  V30 21971 O 2203.99 -1.53686 -1.1872 0
M  V30 21972 C 2201.12 -2.98286 -1.77884 0
M  V30 21973 C 2200.07 -4.06038 -1.35339 0
M  V30 21974 C 2199.4 -4.66203 -2.61838 0
M  V30 21975 C 2200.7 -5.19908 -0.499263 0
M  V30 21976 H 2202.39 -2.99399 -0.00819002 0
M  V30 21977 H 2199.94 -1.44 -0.00249909 0
M  V30 21978 H 2201.89 -3.46426 -2.39931 0
M  V30 21979 H 2200.61 -2.22159 -2.39401 0
M  V30 21980 H 2199.27 -3.58718 -0.756093 0
M  V30 21981 H 2198.92 -3.86738 -3.21625 0
M  V30 21982 H 2198.62 -5.38962 -2.3408 0
M  V30 21983 H 2200.14 -5.17095 -3.24723 0
M  V30 21984 H 2201.56 -5.64065 -1.02488 0
M  V30 21985 H 2199.96 -5.99266 -0.316319 0
M  V30 21986 H 2201.03 -4.82513 0.480544 0
M  V30 21987 N 2202.37 -0.00838561 -1.57598 0
M  V30 21988 C 2203.61 0.679102 -1.92789 0
M  V30 21989 C 2203.97 1.7047 -0.883408 0
M  V30 21990 O 2205.17 2.44317 -1.12083 0
M  V30 21991 C 2203.45 1.29801 -3.32996 0
M  V30 21992 S 2205 2.00945 -3.90085 0
M  V30 21993 H 2201.82 0.224115 -0.674754 0
M  V30 21994 H 2204.42 -0.0670841 -1.95385 0
M  V30 21995 H 2203.13 0.538851 -4.06847 0
M  V30 21996 H 2202.66 2.08195 -3.33794 0
M  V30 21997 H 2204.67 3.28557 -3.7184 0
M  V30 21998 N 2203.85 1.55365 0.264492 0
M  V30 21999 C 2205.12 1.67098 1.01674 0
M  V30 22000 C 2205.5 0.543051 2.03996 0
M  V30 22001 O 2204.85 -0.45581 2.23908 0
M  V30 22002 C 2205.06 3.06673 1.66591 0
M  V30 22003 C 2206.41 3.64701 2.17436 0
M  V30 22004 O 2207.43 3.09361 1.76563 0
M  V30 22005 O 2206.29 4.61678 2.92431 0
M  V30 22006 H 2203.39 0.678973 0.472149 0
M  V30 22007 H 2205.93 1.67701 0.259674 0
M  V30 22008 H 2204.71 3.80212 0.924895 0
M  V30 22009 H 2204.33 3.10005 2.48963 0
M  V30 22010 N 2205.33 -0.529387 1.48443 0
M  V30 22011 C 2206.24 -1.66081 1.65693 0
M  V30 22012 C 2207.25 -1.65426 0.539461 0
M  V30 22013 O 2208.43 -1.84367 0.810605 0
M  V30 22014 C 2205.49 -3.02542 1.69321 0
M  V30 22015 C 2204.55 -3.14047 2.927 0
M  V30 22016 C 2203.79 -4.43998 2.96144 0
M  V30 22017 O 2204.01 -5.31131 2.07982 0
M  V30 22018 O 2202.94 -4.59881 3.8832 0
M  V30 22019 H 2206.77 -1.54464 2.61485 0
M  V30 22020 H 2204.35 -0.702544 1.31851 0
M  V30 22021 H 2206.24 -3.83698 1.74224 0
M  V30 22022 H 2204.91 -3.14481 0.767022 0
M  V30 22023 H 2203.82 -2.32184 2.93328 0
M  V30 22024 H 2205.15 -3.07023 3.84704 0
M  V30 22025 N 2206.8 -1.37041 -0.778305 0
M  V30 22026 C 2207.73 -1.34965 -1.90543 0
M  V30 22027 C 2208.71 -0.219304 -1.6868 0
M  V30 22028 O 2209.9 -0.418657 -1.89634 0
M  V30 22029 C 2207.03 -1.14931 -3.27732 0
M  V30 22030 C 2205.98 -2.24908 -3.64143 0
M  V30 22031 C 2205.31 -1.90004 -4.99802 0
M  V30 22032 C 2206.61 -3.67058 -3.71572 0
M  V30 22033 H 2208.3 -2.29281 -1.92537 0
M  V30 22034 H 2205.85 -1.10368 -0.924928 0
M  V30 22035 H 2207.8 -1.12111 -4.06213 0
M  V30 22036 H 2206.53 -0.170689 -3.26154 0
M  V30 22037 H 2205.19 -2.26873 -2.87966 0
M  V30 22038 H 2204.83 -0.906883 -4.94757 0
M  V30 22039 H 2204.53 -2.63644 -5.25134 0
M  V30 22040 H 2206.06 -1.88759 -5.80691 0
M  V30 22041 H 2207.47 -3.67259 -4.4022 0
M  V30 22042 H 2205.87 -4.39695 -4.08397 0
M  V30 22043 H 2206.94 -4.01158 -2.72397 0
M  V30 22044 N 2208.28 1.00373 -1.21503 0
M  V30 22045 C 2209.51 1.77742 -1.05903 0
M  V30 22046 C 2209.92 1.84705 0.391093 0
M  V30 22047 O 2209.28 1.30935 1.27131 0
M  V30 22048 C 2209.33 3.21588 -1.65116 0
M  V30 22049 O 2209.05 3.15022 -3.04455 0
M  V30 22050 C 2210.55 4.15451 -1.54645 0
M  V30 22051 H 2207.77 0.558551 -0.371835 0
M  V30 22052 H 2210.32 1.26262 -1.60867 0
M  V30 22053 H 2208.47 3.70173 -1.14241 0
M  V30 22054 H 2208.89 4.05404 -3.32788 0
M  V30 22055 H 2210.36 5.14176 -2.00817 0
M  V30 22056 H 2210.84 4.36332 -0.501099 0
M  V30 22057 H 2211.44 3.72757 -2.04773 0
M  V30 22058 N 2209.76 1.02298 1.19887 0
M  V30 22059 C 2211.01 0.714591 1.89045 0
M  V30 22060 C 2211.33 -0.758649 1.79637 0
M  V30 22061 O 2210.6 -1.54616 1.20294 0
M  V30 22062 H 2209.18 0.261329 0.699797 0
M  V30 22063 H 2211.84 1.29595 1.45572 0
M  V30 22064 H 2210.94 1.00365 2.95522 0
M  V30 22065 N 2211.24 -1.35782 0.800057 0
M  V30 22066 C 2212.17 -2.28615 0.163636 0
M  V30 22067 C 2213.18 -1.49978 -0.633291 0
M  V30 22068 O 2214.37 -1.7229 -0.466724 0
M  V30 22069 C 2211.47 -3.29542 -0.790901 0
M  V30 22070 C 2210.64 -4.3738 -0.0417486 0
M  V30 22071 C 2209.7 -5.18205 -0.913799 0
M  V30 22072 O 2208.73 -5.68015 -0.367134 0
M  V30 22073 N 2209.93 -5.35678 -2.23673 0
M  V30 22074 H 2212.7 -2.83871 0.9611 0
M  V30 22075 H 2210.26 -1.48062 0.65492 0
M  V30 22076 H 2212.25 -3.80504 -1.37837 0
M  V30 22077 H 2210.82 -2.74848 -1.4892 0
M  V30 22078 H 2210.04 -3.8744 0.726881 0
M  V30 22079 H 2211.33 -5.0658 0.474808 0
M  V30 22080 H 2210.73 -4.96843 -2.70488 0
M  V30 22081 H 2209.28 -5.89843 -2.77359 0
M  V30 22082 N 2212.72 -0.552988 -1.4758 0
M  V30 22083 C 2213.96 -0.0296604 -2.04378 0
M  V30 22084 C 2214.32 1.29391 -1.41852 0
M  V30 22085 O 2215.52 1.90467 -1.89673 0
M  V30 22086 C 2213.79 0.0660743 -3.57339 0
M  V30 22087 S 2215.35 0.536137 -4.35512 0
M  V30 22088 H 2212.17 -0.0231116 -0.710624 0
M  V30 22089 H 2214.77 -0.738766 -1.81004 0
M  V30 22090 H 2213.47 -0.901667 -4.00372 0
M  V30 22091 H 2213.01 0.798863 -3.85204 0
M  V30 22092 H 2215.02 1.7966 -4.62533 0
M  V30 22093 N 2214.19 1.54923 -0.28923 0
M  V30 22094 C 2215.44 1.99078 0.324196 0
M  V30 22095 C 2215.76 1.1812 1.55907 0
M  V30 22096 O 2216.96 1.52485 2.24635 0
M  V30 22097 C 2215.42 3.54376 0.628147 0
M  V30 22098 C 2215.03 4.44128 -0.587725 0
M  V30 22099 C 2216.77 4.07085 1.20342 0
M  V30 22100 C 2214.68 5.90839 -0.257578 0
M  V30 22101 H 2213.61 0.743581 0.124911 0
M  V30 22102 H 2216.26 1.79174 -0.396095 0
M  V30 22103 H 2214.64 3.70134 1.40772 0
M  V30 22104 H 2215.81 4.40142 -1.36426 0
M  V30 22105 H 2214.13 4.02129 -1.08081 0
M  V30 22106 H 2216.73 5.14254 1.46447 0
M  V30 22107 H 2217.07 3.56972 2.14189 0
M  V30 22108 H 2217.6 3.94822 0.48582 0
M  V30 22109 H 2214.34 6.45077 -1.1643 0
M  V30 22110 H 2213.86 5.97861 0.481912 0
M  V30 22111 H 2215.54 6.46837 0.145124 0
M  V30 22112 N 2215.67 0.0167433 1.57591 0
M  V30 22113 C 2216.91 -0.668868 1.93146 0
M  V30 22114 C 2217.28 -1.69999 0.892436 0
M  V30 22115 O 2218.48 -2.43719 1.13378 0
M  V30 22116 C 2216.75 -1.28033 3.3368 0
M  V30 22117 S 2218.31 -1.98874 3.91145 0
M  V30 22118 H 2215.12 -0.220534 0.675933 0
M  V30 22119 H 2217.73 0.0774449 1.95347 0
M  V30 22120 H 2216.43 -0.517267 4.07127 0
M  V30 22121 H 2215.96 -2.06421 3.34894 0
M  V30 22122 H 2217.98 -3.2658 3.73577 0
M  V30 22123 N 2217.15 -1.55503 -0.256249 0
M  V30 22124 C 2218.56 -1.67432 -0.826039 0
M  V30 22125 C 2218.91 -0.612478 -1.86395 0
M  V30 22126 O 2218.04 0.242987 -2.15031 0
M  V30 22127 C 2218.63 -3.03535 -1.50507 0
M  V30 22128 C 2217.19 -3.17435 -2.02267 0
M  V30 22129 C 2216.34 -2.63282 -0.870502 0
M  V30 22130 H 2219.29 -1.58667 -0.0322449 0
M  V30 22131 H 2219.31 -2.97458 -2.37274 0
M  V30 22132 H 2218.82 -3.80796 -0.749417 0
M  V30 22133 H 2216.92 -2.44979 -2.80742 0
M  V30 22134 H 2217.04 -4.24223 -2.22648 0
M  V30 22135 H 2215.4 -2.20866 -1.26847 0
M  V30 22136 H 2216.18 -3.43061 -0.128088 0
M  V30 22137 N 2218.63 0.521507 -1.48721 0
M  V30 22138 C 2220.04 1.10334 -1.50609 0
M  V30 22139 C 2220.39 1.94182 -0.280646 0
M  V30 22140 O 2219.52 2.07581 0.61147 0
M  V30 22141 C 2220.11 2.00768 -2.72906 0
M  V30 22142 C 2218.67 2.54153 -2.77639 0
M  V30 22143 C 2217.82 1.31302 -2.44244 0
M  V30 22144 H 2220.77 0.30636 -1.55715 0
M  V30 22145 H 2220.79 2.85174 -2.51905 0
M  V30 22146 H 2220.3 1.39714 -3.62079 0
M  V30 22147 H 2218.4 3.18903 -1.92695 0
M  V30 22148 H 2218.51 2.92707 -3.79288 0
M  V30 22149 H 2216.88 1.63158 -1.9558 0
M  V30 22150 H 2217.66 0.719884 -3.35667 0
M  V30 22151 N 2220.11 1.37452 0.771027 0
M  V30 22152 C 2221.52 1.18267 1.07169 0
M  V30 22153 C 2221.72 0.0193224 2.01491 0
M  V30 22154 O 2220.78 -0.640366 2.44245 0
M  V30 22155 C 2222.09 2.50163 1.66849 0
M  V30 22156 C 2223.64 2.56692 1.79104 0
M  V30 22157 C 2224.11 3.88721 2.42198 0
M  V30 22158 N 2225.61 3.90167 2.49648 0
M  V30 22159 C 2226.34 4.89075 2.99321 0
M  V30 22160 N 2225.84 5.9838 3.49161 0
M  V30 22161 N 2227.63 4.76479 2.98202 0
M  V30 22162 H 2219.78 2.11906 0.144759 0
M  V30 22163 H 2222.04 0.939475 0.126847 0
M  V30 22164 H 2221.75 3.35657 1.05011 0
M  V30 22165 H 2221.62 2.67304 2.66136 0
M  V30 22166 H 2224.01 1.71605 2.40074 0
M  V30 22167 H 2224.09 2.43434 0.785714 0
M  V30 22168 H 2223.74 4.74222 1.81867 0
M  V30 22169 H 2223.67 3.99282 3.43338 0
M  V30 22170 H 2226.16 3.11208 2.14378 0
M  V30 22171 H 2226.47 6.69802 3.85468 0
M  V30 22172 H 2224.81 6.02024 3.47264 0
M  V30 22173 H 2228.01 3.90207 2.58565 0
M  V30 22174 H 2228.18 5.53717 3.36603 0
M  V30 22175 N 2221.58 -0.997276 1.22033 0
M  V30 22176 C 2222.81 -1.77178 1.06844 0
M  V30 22177 C 2223.23 -1.8491 -0.381292 0
M  V30 22178 O 2222.58 -1.31607 -1.26435 0
M  V30 22179 C 2222.64 -3.20708 1.6682 0
M  V30 22180 O 2222.36 -3.13403 3.06121 0
M  V30 22181 C 2223.86 -4.14625 1.56846 0
M  V30 22182 H 2221.08 -0.556572 0.374792 0
M  V30 22183 H 2223.62 -1.25407 1.61535 0
M  V30 22184 H 2221.78 -3.69561 1.16203 0
M  V30 22185 H 2222.19 -4.03634 3.34933 0
M  V30 22186 H 2223.66 -5.13103 2.03541 0
M  V30 22187 H 2224.14 -4.3606 0.524231 0
M  V30 22188 H 2224.75 -3.71666 2.06747 0
M  V30 22189 N 2223.06 -1.02932 -1.19343 0
M  V30 22190 C 2224.31 -0.721289 -1.88362 0
M  V30 22191 C 2224.62 0.753223 -1.80516 0
M  V30 22192 O 2225.83 1.17432 -2.4479 0
M  V30 22193 C 2224.29 -1.23984 -3.3787 0
M  V30 22194 C 2223.89 -2.74217 -3.54273 0
M  V30 22195 C 2225.64 -1.00782 -4.12363 0
M  V30 22196 C 2223.55 -3.19488 -4.97676 0
M  V30 22197 H 2222.48 -0.26611 -0.70548 0
M  V30 22198 H 2225.13 -1.24368 -1.34926 0
M  V30 22199 H 2223.51 -0.645369 -3.90706 0
M  V30 22200 H 2224.68 -3.39323 -3.11763 0
M  V30 22201 H 2223 -2.95704 -2.93169 0
M  V30 22202 H 2225.59 -1.32133 -5.18117 0
M  V30 22203 H 2225.94 0.0553576 -4.16263 0
M  V30 22204 H 2226.47 -1.56632 -3.65666 0
M  V30 22205 H 2223.21 -4.25137 -4.98938 0
M  V30 22206 H 2222.73 -2.5911 -5.40946 0
M  V30 22207 H 2224.41 -3.12855 -5.66331 0
M  V30 22208 N 2224.54 1.35356 -0.807246 0
M  V30 22209 C 2225.95 1.81226 -0.448791 0
M  V30 22210 C 2226.3 1.67035 1.02926 0
M  V30 22211 O 2225.43 1.20137 1.79989 0
M  V30 22212 C 2226.02 3.29028 -0.807832 0
M  V30 22213 C 2224.58 3.73038 -0.501967 0
M  V30 22214 C 2223.73 2.57337 -1.03309 0
M  V30 22215 H 2226.68 1.23325 -0.99883 0
M  V30 22216 H 2226.7 3.80353 -0.105607 0
M  V30 22217 H 2226.21 3.39325 -1.88363 0
M  V30 22218 H 2224.31 3.6829 0.565063 0
M  V30 22219 H 2224.43 4.67786 -1.03505 0
M  V30 22220 H 2222.79 2.50596 -0.455383 0
M  V30 22221 H 2223.57 2.70411 -2.11501 0
M  V30 22222 N 2226.02 0.560807 1.47284 0
M  V30 22223 C 2227.43 0.128376 1.86258 0
M  V30 22224 C 2227.78 -1.30281 1.46701 0
M  V30 22225 O 2226.91 -1.98065 0.871733 0
M  V30 22226 C 2227.5 0.2262 3.38044 0
M  V30 22227 C 2226.06 -0.151217 3.76096 0
M  V30 22228 C 2225.21 0.572131 2.71334 0
M  V30 22229 H 2228.16 0.770322 1.38751 0
M  V30 22230 H 2228.18 -0.554256 3.76442 0
M  V30 22231 H 2227.69 1.26794 3.66804 0
M  V30 22232 H 2225.79 -1.19393 3.52953 0
M  V30 22233 H 2225.9 0.209849 4.7864 0
M  V30 22234 H 2224.27 0.01481 2.54696 0
M  V30 22235 H 2225.05 1.6151 3.02935 0
M  V30 22236 N 2227.5 -1.54768 0.297442 0
M  V30 22237 C 2228.77 -1.92149 -0.365813 0
M  V30 22238 C 2229.15 -1.22427 -1.71973 0
M  V30 22239 O 2228.5 -0.358779 -2.25666 0
M  V30 22240 C 2228.71 -3.45628 -0.483995 0
M  V30 22241 C 2230.06 -4.17806 -0.756521 0
M  V30 22242 O 2231.08 -3.51643 -0.567945 0
M  V30 22243 O 2229.94 -5.34931 -1.11853 0
M  V30 22244 H 2227.04 -0.801468 -0.203905 0
M  V30 22245 H 2229.58 -1.66151 0.345239 0
M  V30 22246 H 2228.35 -3.88492 0.467933 0
M  V30 22247 H 2227.98 -3.77649 -1.24365 0
M  V30 22248 N 2228.97 -0.0251005 -1.5758 0
M  V30 22249 C 2230.21 0.658616 -1.93498 0
M  V30 22250 C 2230.58 1.69523 -0.901439 0
M  V30 22251 O 2231.78 2.43114 -1.14669 0
M  V30 22252 C 2230.05 1.26262 -3.34354 0
M  V30 22253 S 2231.61 1.96796 -3.92195 0
M  V30 22254 H 2228.43 0.216946 -0.677093 0
M  V30 22255 H 2231.03 -0.0878035 -1.95303 0
M  V30 22256 H 2229.73 0.495669 -4.07396 0
M  V30 22257 H 2229.26 2.04642 -3.35984 0
M  V30 22258 H 2231.28 3.24595 -3.75304 0
M  V30 22259 N 2230.45 1.55637 0.247999 0
M  V30 22260 C 2231.38 1.9324 1.31075 0
M  V30 22261 C 2232.36 0.797201 1.50262 0
M  V30 22262 O 2233.55 1.0574 1.62889 0
M  V30 22263 C 2230.68 2.22614 2.66571 0
M  V30 22264 C 2229.63 3.38375 2.62081 0
M  V30 22265 C 2228.96 3.53288 4.01362 0
M  V30 22266 C 2230.26 4.74094 2.19163 0
M  V30 22267 H 2231.95 2.82259 0.998506 0
M  V30 22268 H 2229.5 1.35804 0.478886 0
M  V30 22269 H 2231.45 2.47509 3.41053 0
M  V30 22270 H 2230.18 1.30419 2.9943 0
M  V30 22271 H 2228.83 3.13487 1.90057 0
M  V30 22272 H 2228.48 2.58515 4.31484 0
M  V30 22273 H 2228.18 4.31134 3.99246 0
M  V30 22274 H 2229.71 3.80503 4.77546 0
M  V30 22275 H 2231.12 4.98368 2.83376 0
M  V30 22276 H 2229.52 5.55034 2.2816 0
M  V30 22277 H 2230.59 4.7123 1.14327 0
M  V30 22278 N 2231.93 -0.513613 1.48996 0
M  V30 22279 C 2232.86 -1.62541 1.67639 0
M  V30 22280 C 2233.84 -1.61792 0.525116 0
M  V30 22281 O 2235.03 -1.78731 0.759534 0
M  V30 22282 C 2232.16 -3.01076 1.7312 0
M  V30 22283 C 2231.11 -3.16688 2.87911 0
M  V30 22284 C 2230.44 -4.56448 2.78494 0
M  V30 22285 C 2231.74 -2.97906 4.2901 0
M  V30 22286 H 2233.43 -1.47194 2.60719 0
M  V30 22287 H 2230.98 -0.706692 1.25467 0
M  V30 22288 H 2232.93 -3.78742 1.84749 0
M  V30 22289 H 2231.65 -3.17483 0.766297 0
M  V30 22290 H 2230.31 -2.41444 2.75863 0
M  V30 22291 H 2229.96 -4.69714 1.79938 0
M  V30 22292 H 2229.66 -4.67837 3.55531 0
M  V30 22293 H 2231.19 -5.36192 2.92113 0
M  V30 22294 H 2232.6 -3.65351 4.41805 0
M  V30 22295 H 2231 -3.20776 5.07172 0
M  V30 22296 H 2232.07 -1.94157 4.44332 0
M  V30 22297 N 2233.41 -1.37859 -0.763727 0
M  V30 22298 C 2234.65 -1.34915 -1.53549 0
M  V30 22299 C 2235.01 0.0635544 -1.91895 0
M  V30 22300 O 2236.21 0.217777 -2.67916 0
M  V30 22301 C 2234.49 -2.26917 -2.76122 0
M  V30 22302 S 2236.04 -2.419 -3.66101 0
M  V30 22303 H 2232.86 -0.478837 -0.525582 0
M  V30 22304 H 2235.46 -1.73686 -0.897405 0
M  V30 22305 H 2234.17 -3.28467 -2.46044 0
M  V30 22306 H 2233.7 -1.89259 -3.44883 0
M  V30 22307 H 2235.71 -1.63554 -4.68471 0
M  V30 22308 N 2234.89 0.990791 -1.22561 0
M  V30 22309 C 2235.82 2.0834 -0.955362 0
M  V30 22310 C 2236.83 1.62663 0.0668122 0
M  V30 22311 O 2238.02 1.77713 -0.167452 0
M  V30 22312 C 2235.12 3.36342 -0.415625 0
M  V30 22313 C 2234.29 4.11039 -1.49552 0
M  V30 22314 C 2233.35 5.17322 -0.96249 0
M  V30 22315 O 2232.38 5.44785 -1.64917 0
M  V30 22316 N 2233.58 5.80102 0.215032 0
M  V30 22317 H 2236.35 2.32103 -1.896 0
M  V30 22318 H 2233.91 1.15671 -1.13278 0
M  V30 22319 H 2235.9 4.04676 -0.0443098 0
M  V30 22320 H 2234.47 3.09626 0.430178 0
M  V30 22321 H 2233.69 3.37306 -2.04006 0
M  V30 22322 H 2234.98 4.57715 -2.22203 0
M  V30 22323 H 2234.38 5.60161 0.789681 0
M  V30 22324 H 2232.93 6.4966 0.527712 0
M  V30 22325 N 2236.37 1.03564 1.18795 0
M  V30 22326 C 2237.78 0.764706 1.70321 0
M  V30 22327 C 2238.13 -0.714964 1.82709 0
M  V30 22328 O 2237.25 -1.55687 1.50302 0
M  V30 22329 C 2237.85 1.38151 3.09354 0
M  V30 22330 C 2236.41 1.15901 3.58112 0
M  V30 22331 C 2235.55 1.47534 2.34796 0
M  V30 22332 H 2238.5 1.2027 1.03541 0
M  V30 22333 H 2238.53 0.782042 3.72377 0
M  V30 22334 H 2238.04 2.45842 3.00305 0
M  V30 22335 H 2236.14 0.10061 3.72464 0
M  V30 22336 H 2236.25 1.85248 4.41837 0
M  V30 22337 H 2234.62 0.894871 2.38462 0
M  V30 22338 H 2235.4 2.56323 2.28371 0
M  V30 22339 N 2237.84 -1.34926 0.814413 0
M  V30 22340 C 2238.78 -2.28429 0.187874 0
M  V30 22341 C 2239.79 -1.50641 -0.617348 0
M  V30 22342 O 2240.98 -1.72776 -0.448424 0
M  V30 22343 C 2238.08 -3.30362 -0.755904 0
M  V30 22344 C 2237.25 -4.374 0.00464374 0
M  V30 22345 C 2236.31 -5.19145 -0.858785 0
M  V30 22346 O 2235.34 -5.68372 -0.306868 0
M  V30 22347 N 2236.54 -5.3802 -2.17979 0
M  V30 22348 H 2239.3 -2.82836 0.991154 0
M  V30 22349 H 2236.86 -1.47359 0.670587 0
M  V30 22350 H 2238.86 -3.81944 -1.33793 0
M  V30 22351 H 2237.43 -2.76413 -1.45996 0
M  V30 22352 H 2236.65 -3.86648 0.767933 0
M  V30 22353 H 2237.93 -5.06048 0.528511 0
M  V30 22354 H 2237.33 -4.99684 -2.65203 0
M  V30 22355 H 2235.89 -5.92752 -2.71087 0
M  V30 22356 N 2239.32 -0.56861 -1.46985 0
M  V30 22357 C 2240.55 -0.054032 -2.06829 0
M  V30 22358 C 2240.96 1.24475 -1.41956 0
M  V30 22359 O 2240.32 1.74936 -0.519964 0
M  V30 22360 C 2240.37 0.133298 -3.61254 0
M  V30 22361 O 2240.09 -1.11406 -4.23698 0
M  V30 22362 C 2241.59 0.68385 -4.37994 0
M  V30 22363 H 2238.81 -0.0510259 -0.669057 0
M  V30 22364 H 2241.36 -0.785268 -1.88822 0
M  V30 22365 H 2239.51 0.814703 -3.78737 0
M  V30 22366 H 2239.93 -0.918971 -5.16387 0
M  V30 22367 H 2241.4 0.764167 -5.46685 0
M  V30 22368 H 2241.88 1.6977 -4.05061 0
M  V30 22369 H 2242.48 0.0377747 -4.25283 0
M  V30 22370 N 2240.8 1.54608 -0.305646 0
M  V30 22371 C 2242.05 2.00231 0.302263 0
M  V30 22372 C 2242.37 1.194 1.53538 0
M  V30 22373 O 2241.63 0.259457 1.93972 0
M  V30 22374 C 2241.93 3.50499 0.698922 0
M  V30 22375 C 2241.59 4.48816 -0.432982 0
M  V30 22376 C 2240.26 4.75418 -0.743706 0
M  V30 22377 C 2242.61 5.07335 -1.19418 0
M  V30 22378 C 2239.94 5.57801 -1.81867 0
M  V30 22379 C 2242.29 5.90887 -2.25909 0
M  V30 22380 C 2240.95 6.15798 -2.57583 0
M  V30 22381 H 2240.22 0.732699 0.110606 0
M  V30 22382 H 2242.87 1.86708 -0.425707 0
M  V30 22383 H 2241.17 3.61656 1.50705 0
M  V30 22384 H 2242.87 3.83229 1.18054 0
M  V30 22385 H 2239.46 4.28219 -0.180706 0
M  V30 22386 H 2243.65 4.86781 -0.96738 0
M  V30 22387 H 2238.9 5.75337 -2.06874 0
M  V30 22388 H 2243.08 6.35256 -2.85346 0
M  V30 22389 H 2240.7 6.79424 -3.41009 0
M  V30 22390 N 2242.28 0.033457 1.57564 0
M  V30 22391 C 2243.53 -0.642966 1.91599 0
M  V30 22392 C 2243.85 -1.72418 0.910877 0
M  V30 22393 O 2243.12 -1.95844 -0.0469587 0
M  V30 22394 H 2241.7 -0.240483 0.707232 0
M  V30 22395 H 2244.36 0.0822831 1.94726 0
M  V30 22396 H 2243.45 -1.09293 2.92338 0
M  V30 22397 N 2243.76 -1.55766 -0.239741 0
M  V30 22398 C 2245 -1.79699 -0.974044 0
M  V30 22399 C 2245.36 -0.60412 -1.82248 0
M  V30 22400 O 2246.56 -0.72237 -2.58912 0
M  V30 22401 C 2244.83 -3.08419 -1.80589 0
M  V30 22402 S 2246.39 -3.536 -2.59831 0
M  V30 22403 H 2243.21 -0.631075 -0.327513 0
M  V30 22404 H 2245.81 -1.94006 -0.241242 0
M  V30 22405 H 2244.51 -3.93297 -1.17242 0
M  V30 22406 H 2244.05 -2.9687 -2.58132 0
M  V30 22407 H 2246.06 -3.15499 -3.82982 0
M  V30 22408 N 2245.23 0.505704 -1.49266 0
M  V30 22409 C 2246.18 1.60454 -1.61983 0
M  V30 22410 C 2247.17 1.53707 -0.475707 0
M  V30 22411 O 2248.36 1.61317 -0.72842 0
M  V30 22412 C 2245.49 2.99086 -1.68531 0
M  V30 22413 C 2244.57 3.10847 -2.88505 0
M  V30 22414 N 2244.97 2.9251 -4.1264 0
M  V30 22415 C 2243.26 3.4194 -2.86344 0
M  V30 22416 C 2243.96 3.08329 -4.93263 0
M  V30 22417 N 2242.94 3.36995 -4.26539 0
M  V30 22418 H 2246.74 1.44924 -2.55684 0
M  V30 22419 H 2244.26 0.711727 -1.45973 0
M  V30 22420 H 2246.25 3.7805 -1.75739 0
M  V30 22421 H 2244.91 3.15689 -0.759639 0
M  V30 22422 H 2245.92 2.6878 -4.42694 0
M  V30 22423 H 2242.6 3.64749 -2.03136 0
M  V30 22424 H 2243.99 2.98684 -6.01862 0
M  V30 22425 N 2246.71 1.38262 0.756405 0
M  V30 22426 C 2248.12 1.30663 1.33357 0
M  V30 22427 C 2248.47 -0.038853 1.96162 0
M  V30 22428 O 2247.6 -0.940884 1.94875 0
M  V30 22429 C 2248.19 2.36627 2.42473 0
M  V30 22430 C 2246.75 2.32615 2.95917 0
M  V30 22431 C 2245.9 2.19642 1.69272 0
M  V30 22432 H 2248.85 1.48661 0.555494 0
M  V30 22433 H 2248.87 2.0218 3.22341 0
M  V30 22434 H 2248.38 3.34541 1.96733 0
M  V30 22435 H 2246.49 1.38273 3.45993 0
M  V30 22436 H 2246.6 3.26642 3.50488 0
M  V30 22437 H 2244.96 1.66446 1.9279 0
M  V30 22438 H 2245.75 3.19493 1.25614 0
M  V30 22439 N 2248.19 -0.984277 1.23084 0
M  V30 22440 C 2249.12 -2.09409 1.03296 0
M  V30 22441 C 2250.1 -1.7003 -0.0488931 0
M  V30 22442 O 2251.29 -1.93859 0.115001 0
M  V30 22443 C 2248.42 -3.41735 0.619215 0
M  V30 22444 C 2247.37 -3.95001 1.64798 0
M  V30 22445 C 2246.7 -5.23476 1.08979 0
M  V30 22446 C 2248 -4.24708 3.04007 0
M  V30 22447 H 2249.69 -2.26222 1.96123 0
M  V30 22448 H 2247.24 -1.0871 0.944363 0
M  V30 22449 H 2249.19 -4.18795 0.467851 0
M  V30 22450 H 2247.91 -3.24776 -0.344729 0
M  V30 22451 H 2246.57 -3.20082 1.78726 0
M  V30 22452 H 2246.22 -5.02864 0.116948 0
M  V30 22453 H 2245.92 -5.60082 1.77714 0
M  V30 22454 H 2247.44 -6.03161 0.950199 0
M  V30 22455 H 2248.86 -4.92532 2.93402 0
M  V30 22456 H 2247.26 -4.72506 3.69944 0
M  V30 22457 H 2248.33 -3.32135 3.5329 0
M  V30 22458 N 2249.67 -1.04192 -1.18244 0
M  V30 22459 C 2250.91 -0.747155 -1.88535 0
M  V30 22460 C 2251.25 0.723377 -1.80225 0
M  V30 22461 O 2250.52 1.52802 -1.2034 0
M  V30 22462 C 2250.81 -1.2155 -3.38965 0
M  V30 22463 C 2250.66 -2.74823 -3.56079 0
M  V30 22464 C 2251.98 -0.806558 -4.32646 0
M  V30 22465 H 2249.1 -0.272895 -0.684615 0
M  V30 22466 H 2251.74 -1.29415 -1.3911 0
M  V30 22467 H 2249.89 -0.750148 -3.81189 0
M  V30 22468 H 2251.56 -3.29405 -3.2294 0
M  V30 22469 H 2249.8 -3.14587 -2.98693 0
M  V30 22470 H 2250.47 -3.02652 -4.61634 0
M  V30 22471 H 2252.95 -1.20702 -3.98209 0
M  V30 22472 H 2251.83 -1.16199 -5.3646 0
M  V30 22473 H 2252.09 0.290213 -4.41146 0
M  V30 22474 N 2251.15 1.34492 -0.821557 0
M  V30 22475 C 2252.39 1.97935 -0.408173 0
M  V30 22476 C 2252.72 1.65459 1.0319 0
M  V30 22477 O 2251.99 0.944625 1.71621 0
M  V30 22478 H 2250.57 0.732204 -0.147941 0
M  V30 22479 H 2253.23 1.64153 -1.0507 0
M  V30 22480 H 2252.32 3.07634 -0.526065 0
M  V30 22481 N 2252.62 0.576397 1.46681 0
M  V30 22482 C 2253.86 0.0621715 2.04305 0
M  V30 22483 C 2254.23 -1.27118 1.43893 0
M  V30 22484 O 2255.43 -1.87426 1.92679 0
M  V30 22485 C 2253.7 -0.00921639 3.57399 0
M  V30 22486 S 2255.26 -0.466783 4.3631 0
M  V30 22487 H 2252.08 0.0344141 0.710167 0
M  V30 22488 H 2254.68 0.767469 1.79806 0
M  V30 22489 H 2253.38 0.965249 3.98887 0
M  V30 22490 H 2252.91 -0.73748 3.86426 0
M  V30 22491 H 2254.93 -1.72278 4.65333 0
M  V30 22492 N 2254.1 -1.54444 0.313841 0
M  V30 22493 C 2255.01 -2.27678 -0.565674 0
M  V30 22494 C 2256.03 -1.31668 -1.13752 0
M  V30 22495 O 2257.2 -1.6467 -1.15956 0
M  V30 22496 C 2254.27 -3.01299 -1.71522 0
M  V30 22497 C 2253.33 -4.12874 -1.17617 0
M  V30 22498 C 2252.56 -4.82974 -2.27093 0
M  V30 22499 O 2252.79 -4.5252 -3.47248 0
M  V30 22500 O 2251.72 -5.70098 -1.9306 0
M  V30 22501 H 2255.55 -3.03686 0.028783 0
M  V30 22502 H 2253.13 -1.49186 0.0798574 0
M  V30 22503 H 2255.01 -3.47434 -2.3847 0
M  V30 22504 H 2253.69 -2.28174 -2.29604 0
M  V30 22505 H 2252.6 -3.7111 -0.472059 0
M  V30 22506 H 2253.93 -4.88013 -0.640609 0
M  V30 22507 N 2255.58 -0.0418125 -1.57545 0
M  V30 22508 C 2256.49 0.951175 -2.14452 0
M  V30 22509 C 2257.51 1.34823 -1.09995 0
M  V30 22510 O 2258.68 1.42705 -1.42117 0
M  V30 22511 C 2255.75 2.21079 -2.67067 0
M  V30 22512 C 2254.81 1.87297 -3.86288 0
M  V30 22513 C 2254.04 3.07254 -4.36384 0
M  V30 22514 O 2254.26 4.20325 -3.85594 0
M  V30 22515 O 2253.2 2.88812 -5.28082 0
M  V30 22516 H 2257.02 0.497235 -2.99602 0
M  V30 22517 H 2254.61 0.179541 -1.48317 0
M  V30 22518 H 2256.49 2.95001 -3.0092 0
M  V30 22519 H 2255.17 2.65629 -1.84994 0
M  V30 22520 H 2254.07 1.10721 -3.5734 0
M  V30 22521 H 2255.41 1.47554 -4.69562 0
M  V30 22522 N 2257.06 1.55891 0.231477 0
M  V30 22523 C 2258.3 1.80213 0.964501 0
M  V30 22524 C 2258.66 0.613776 1.81925 0
M  V30 22525 O 2259.86 0.73609 2.58525 0
M  V30 22526 C 2258.13 3.09372 1.78951 0
M  V30 22527 S 2259.69 3.54973 2.57953 0
M  V30 22528 H 2256.51 0.632803 0.324162 0
M  V30 22529 H 2259.11 1.94131 0.230951 0
M  V30 22530 H 2257.82 3.93913 1.15155 0
M  V30 22531 H 2257.35 2.98234 2.56554 0
M  V30 22532 H 2259.36 3.17525 3.81303 0
M  V30 22533 N 2258.54 -0.497781 1.49532 0
M  V30 22534 C 2259.48 -1.6198 1.66929 0
M  V30 22535 C 2260.48 -1.60723 0.535195 0
M  V30 22536 O 2261.68 -1.65193 0.714925 0
M  V30 22537 H 2258.06 -0.537012 0.526424 0
M  V30 22538 H 2260.03 -1.4446 2.61101 0
M  V30 22539 C 2258.78 -3.00096 1.75607 0
M  V30 22540 H 2258.1 -3.0177 2.6225 0
M  V30 22541 H 2259.54 -3.78132 1.91813 0
M  V30 22542 C 2258 -3.33145 0.501601 0
M  V30 22543 O 2258.53 -3.99981 -0.371271 0
M  V30 22544 N 2256.74 -2.88317 0.363582 0
M  V30 22545 H 2256.28 -2.34102 1.0749 0
M  V30 22546 H 2256.24 -3.10796 -0.474673 0
M  V30 22547 N 2260.01 -1.38661 -0.749062 0
M  V30 22548 C 2261.25 -1.36536 -1.52109 0
M  V30 22549 C 2261.62 0.0431978 -1.91951 0
M  V30 22550 O 2262.82 0.189349 -2.68132 0
M  V30 22551 C 2261.09 -2.29833 -2.737 0
M  V30 22552 S 2262.65 -2.45769 -3.63515 0
M  V30 22553 H 2259.47 -0.484385 -0.520473 0
M  V30 22554 H 2262.07 -1.74628 -0.878932 0
M  V30 22555 H 2260.77 -3.31058 -2.42546 0
M  V30 22556 H 2260.3 -1.92906 -3.42857 0
M  V30 22557 H 2262.32 -1.68513 -4.6671 0
M  V30 22558 N 2261.49 0.977736 -1.23605 0
M  V30 22559 C 2262.72 1.75989 -1.09738 0
M  V30 22560 C 2263.14 1.84875 0.346825 0
M  V30 22561 O 2262.5 1.31232 1.25091 0
M  V30 22562 C 2262.55 3.1636 -1.73057 0
M  V30 22563 O 2261.65 4.00229 -0.994522 0
M  V30 22564 H 2260.99 0.541357 -0.384485 0
M  V30 22565 H 2263.52 1.22717 -1.63712 0
M  V30 22566 H 2263.53 3.66928 -1.78404 0
M  V30 22567 H 2262.21 3.09208 -2.78142 0
M  V30 22568 H 2260.79 3.5873 -1.01818 0
M  V30 22569 N 2262.97 1.04818 1.1769 0
M  V30 22570 C 2264.22 0.75453 1.87487 0
M  V30 22571 C 2264.54 -0.720375 1.81206 0
M  V30 22572 O 2263.81 -1.52029 1.23547 0
M  V30 22573 H 2262.39 0.276114 0.694096 0
M  V30 22574 H 2265.05 1.32653 1.4279 0
M  V30 22575 H 2264.15 1.06611 2.93326 0
M  V30 22576 N 2264.45 -1.34055 0.828678 0
M  V30 22577 C 2265.86 -1.80489 0.477566 0
M  V30 22578 C 2266.21 -1.68651 -1.00256 0
M  V30 22579 O 2265.34 -1.22985 -1.78055 0
M  V30 22580 C 2265.93 -3.27701 0.860075 0
M  V30 22581 C 2264.49 -3.72192 0.56125 0
M  V30 22582 C 2263.64 -2.55661 1.0739 0
M  V30 22583 H 2266.59 -1.2172 1.01832 0
M  V30 22584 H 2266.61 -3.80137 0.166105 0
M  V30 22585 H 2266.12 -3.36285 1.93737 0
M  V30 22586 H 2264.22 -3.69143 -0.5064 0
M  V30 22587 H 2264.34 -4.6608 1.10934 0
M  V30 22588 H 2262.7 -2.4984 0.495193 0
M  V30 22589 H 2263.48 -2.67012 2.15776 0
M  V30 22590 N 2265.93 -0.584167 -1.46374 0
M  V30 22591 C 2267.18 -0.0701642 -2.01978 0
M  V30 22592 C 2267.5 1.29497 -1.45792 0
M  V30 22593 O 2266.77 1.85041 -0.643172 0
M  V30 22594 H 2265.35 -0.0229476 -0.746647 0
M  V30 22595 H 2268.01 -0.760277 -1.7946 0
M  V30 22596 H 2267.1 -0.00226126 -3.121 0
M  V30 22597 N 2267.41 1.54275 -0.322027 0
M  V30 22598 C 2268.65 1.9972 0.281896 0
M  V30 22599 C 2268.97 1.214 1.53367 0
M  V30 22600 O 2270.17 1.57215 2.2135 0
M  V30 22601 C 2268.63 3.55629 0.552837 0
M  V30 22602 C 2268.24 4.42782 -0.681799 0
M  V30 22603 C 2269.98 4.09546 1.1168 0
M  V30 22604 C 2267.89 5.9016 -0.382846 0
M  V30 22605 H 2266.82 0.746064 0.109111 0
M  V30 22606 H 2269.47 1.78294 -0.434011 0
M  V30 22607 H 2267.85 3.73037 1.32889 0
M  V30 22608 H 2269.03 4.37149 -1.45731 0
M  V30 22609 H 2267.34 3.99746 -1.16587 0
M  V30 22610 H 2269.94 5.17245 1.35506 0
M  V30 22611 H 2270.28 3.61435 2.06569 0
M  V30 22612 H 2270.81 3.95764 0.401963 0
M  V30 22613 H 2267.55 6.42462 -1.30087 0
M  V30 22614 H 2267.07 5.98749 0.354989 0
M  V30 22615 H 2268.75 6.47 0.00788784 0
M  V30 22616 N 2268.88 0.0501669 1.5752 0
M  V30 22617 C 2269.82 -0.953723 2.08415 0
M  V30 22618 C 2270.83 -1.27542 1.01177 0
M  V30 22619 O 2272.02 -1.23639 1.28747 0
M  V30 22620 C 2269.12 -2.27554 2.51142 0
M  V30 22621 C 2268.29 -2.13591 3.81704 0
M  V30 22622 C 2267.35 -3.28888 4.10754 0
M  V30 22623 O 2266.38 -3.04837 4.8069 0
M  V30 22624 N 2267.58 -4.53333 3.62587 0
M  V30 22625 H 2270.34 -0.519331 2.95166 0
M  V30 22626 H 2267.9 -0.136099 1.61327 0
M  V30 22627 H 2269.9 -3.03552 2.67653 0
M  V30 22628 H 2268.47 -2.62564 1.69644 0
M  V30 22629 H 2267.69 -1.22191 3.74784 0
M  V30 22630 H 2268.97 -2.01488 4.67205 0
M  V30 22631 H 2268.37 -4.75764 3.06047 0
M  V30 22632 H 2266.93 -5.26429 3.84338 0
M  V30 22633 N 2270.36 -1.56011 -0.223207 0
M  V30 22634 C 2271.27 -1.95445 -1.29762 0
M  V30 22635 C 2272.29 -0.858055 -1.51372 0
M  V30 22636 O 2273.46 -1.16148 -1.64534 0
M  V30 22637 C 2270.53 -2.26172 -2.62768 0
M  V30 22638 C 2269.59 -3.49371 -2.49476 0
M  V30 22639 C 2268.82 -3.78623 -3.76139 0
M  V30 22640 O 2269.05 -3.09576 -4.79081 0
M  V30 22641 O 2267.98 -4.72116 -3.7335 0
M  V30 22642 H 2271.81 -2.87006 -0.993039 0
M  V30 22643 H 2269.39 -1.432 -0.425933 0
M  V30 22644 H 2271.27 -2.47137 -3.41323 0
M  V30 22645 H 2269.95 -1.37786 -2.92911 0
M  V30 22646 H 2268.85 -3.33687 -1.69127 0
M  V30 22647 H 2270.19 -4.38135 -2.24273 0
M  V30 22648 N 2271.84 0.489844 -1.49794 0
M  V30 22649 C 2272.77 1.59853 -1.70203 0
M  V30 22650 C 2273.75 1.60936 -0.550789 0
M  V30 22651 O 2274.94 1.775 -0.787872 0
M  V30 22652 C 2272.07 2.98284 -1.77888 0
M  V30 22653 C 2271.02 3.12068 -2.92912 0
M  V30 22654 C 2270.35 4.5196 -2.8572 0
M  V30 22655 C 2271.65 2.91043 -4.33695 0
M  V30 22656 H 2273.34 1.43027 -2.63028 0
M  V30 22657 H 2270.89 0.686642 -1.26575 0
M  V30 22658 H 2272.84 3.75755 -1.90751 0
M  V30 22659 H 2271.56 3.16224 -0.816708 0
M  V30 22660 H 2270.22 2.37024 -2.79669 0
M  V30 22661 H 2269.87 4.66792 -1.87388 0
M  V30 22662 H 2269.57 4.62122 -3.62929 0
M  V30 22663 H 2271.09 5.31477 -3.00607 0
M  V30 22664 H 2272.51 3.58276 -4.47561 0
M  V30 22665 H 2270.9 3.12666 -5.12211 0
M  V30 22666 H 2271.97 1.87063 -4.47365 0
M  V30 22667 N 2273.32 1.39056 0.741698 0
M  V30 22668 C 2274.55 1.39174 1.53095 0
M  V30 22669 C 2274.96 -0.0154767 1.88794 0
M  V30 22670 O 2274.32 -0.985132 1.53627 0
M  V30 22671 C 2274.37 2.25845 2.8227 0
M  V30 22672 O 2274.09 3.61086 2.4809 0
M  V30 22673 C 2275.59 2.34273 3.76339 0
M  V30 22674 H 2272.81 0.475608 0.473327 0
M  V30 22675 H 2275.35 1.82787 0.917013 0
M  V30 22676 H 2273.51 1.85662 3.40012 0
M  V30 22677 H 2273.92 4.06848 3.31021 0
M  V30 22678 H 2275.4 2.99178 4.63893 0
M  V30 22679 H 2275.87 1.35989 4.17617 0
M  V30 22680 H 2276.48 2.74896 3.24518 0
M  V30 22681 N 2274.8 -0.971167 1.24121 0
M  V30 22682 C 2276.07 -1.68878 0.986897 0
M  V30 22683 C 2276.45 -2.05291 -0.491821 0
M  V30 22684 O 2275.8 -1.75333 -1.46528 0
M  V30 22685 C 2276.01 -2.92334 1.90635 0
M  V30 22686 C 2277.36 -3.6465 2.17522 0
M  V30 22687 O 2278.38 -3.02385 1.8826 0
M  V30 22688 O 2277.24 -4.76726 2.67198 0
M  V30 22689 H 2274.34 -0.738127 0.372957 0
M  V30 22690 H 2276.88 -1.02557 1.35204 0
M  V30 22691 H 2275.65 -2.62092 2.90557 0
M  V30 22692 H 2275.28 -3.6639 1.54415 0
M  V30 22693 N 2276.27 -1.05441 -1.17133 0
M  V30 22694 C 2277.69 -0.791706 -1.69083 0
M  V30 22695 C 2278.04 0.685806 -1.83824 0
M  V30 22696 O 2277.16 1.53276 -1.5276 0
M  V30 22697 C 2277.76 -1.43055 -3.07117 0
M  V30 22698 C 2276.32 -1.21583 -3.56222 0
M  V30 22699 C 2275.46 -1.51251 -2.32419 0
M  V30 22700 H 2278.41 -1.21902 -1.01615 0
M  V30 22701 H 2278.43 -0.841185 -3.71085 0
M  V30 22702 H 2277.95 -2.50589 -2.96356 0
M  V30 22703 H 2276.05 -0.159853 -3.72257 0
M  V30 22704 H 2276.16 -1.92254 -4.38834 0
M  V30 22705 H 2274.52 -0.932695 -2.37008 0
M  V30 22706 H 2275.31 -2.59924 -2.24264 0
M  V30 22707 N 2277.75 1.33613 -0.835776 0
M  V30 22708 C 2278.98 2.02093 -0.443379 0
M  V30 22709 C 2279.4 1.62895 0.954493 0
M  V30 22710 O 2278.75 0.840752 1.6198 0
M  V30 22711 C 2278.8 3.57279 -0.550838 0
M  V30 22712 O 2278.52 3.95061 -1.89363 0
M  V30 22713 C 2280.03 4.43029 -0.154997 0
M  V30 22714 H 2277.25 0.647406 -0.17637 0
M  V30 22715 H 2279.79 1.7061 -1.12749 0
M  V30 22716 H 2277.94 3.87306 0.0853316 0
M  V30 22717 H 2278.36 4.89766 -1.87696 0
M  V30 22718 H 2279.83 5.51283 -0.281241 0
M  V30 22719 H 2280.31 4.29821 0.902788 0
M  V30 22720 H 2280.92 4.18355 -0.765477 0
M  V30 22721 N 2279.23 0.591922 1.46062 0
M  V30 22722 C 2280.47 0.0838373 2.04228 0
M  V30 22723 C 2280.83 -1.25584 1.45233 0
M  V30 22724 O 2282.04 -1.85371 1.94656 0
M  V30 22725 C 2280.31 0.028691 3.57388 0
M  V30 22726 S 2281.87 -0.42048 4.36781 0
M  V30 22727 H 2278.68 0.0419444 0.709762 0
M  V30 22728 H 2281.29 0.786497 1.78982 0
M  V30 22729 H 2279.99 1.0075 3.97841 0
M  V30 22730 H 2279.52 -0.696452 3.87186 0
M  V30 22731 H 2281.54 -1.67333 4.67134 0
M  V30 22732 N 2280.71 -1.54102 0.330204 0
M  V30 22733 C 2281.99 -1.92882 -0.324974 0
M  V30 22734 C 2282.37 -1.26048 -1.69337 0
M  V30 22735 O 2281.71 -0.406565 -2.24854 0
M  V30 22736 C 2281.92 -3.46577 -0.410573 0
M  V30 22737 C 2283.27 -4.19317 -0.667727 0
M  V30 22738 O 2284.3 -3.52769 -0.493228 0
M  V30 22739 O 2283.15 -5.37183 -1.00482 0
M  V30 22740 H 2280.25 -0.805613 -0.186859 0
M  V30 22741 H 2282.79 -1.65381 0.380405 0
M  V30 22742 H 2281.57 -3.87412 0.550233 0
M  V30 22743 H 2281.19 -3.80202 -1.16327 0
M  V30 22744 N 2282.19 -0.0585199 -1.57491 0
M  V30 22745 C 2283.41 0.623003 -1.97297 0
M  V30 22746 C 2283.83 1.63944 -0.936367 0
M  V30 22747 O 2283.19 1.82331 0.0785661 0
M  V30 22748 C 2283.24 1.3034 -3.37185 0
M  V30 22749 O 2282.96 0.327653 -4.36873 0
M  V30 22750 C 2284.46 2.07399 -3.91791 0
M  V30 22751 H 2281.68 0.169815 -0.649156 0
M  V30 22752 H 2284.22 -0.126995 -2.04105 0
M  V30 22753 H 2282.38 2.00457 -3.31505 0
M  V30 22754 H 2282.79 0.814178 -5.18142 0
M  V30 22755 H 2284.27 2.50416 -4.91931 0
M  V30 22756 H 2284.74 2.92516 -3.27614 0
M  V30 22757 H 2285.35 1.42177 -4.00831 0
M  V30 22758 N 2283.66 1.56128 0.21493 0
M  V30 22759 C 2284.94 1.70248 0.963063 0
M  V30 22760 C 2285.32 0.607676 2.02165 0
M  V30 22761 O 2284.67 -0.384345 2.25244 0
M  V30 22762 C 2284.88 3.11818 1.5675 0
M  V30 22763 C 2286.23 3.71434 2.05723 0
M  V30 22764 O 2287.25 3.14821 1.66631 0
M  V30 22765 O 2286.11 4.70748 2.77595 0
M  V30 22766 H 2283.2 0.693651 0.450309 0
M  V30 22767 H 2285.75 1.68443 0.206189 0
M  V30 22768 H 2284.52 3.82962 0.803465 0
M  V30 22769 H 2284.15 3.17769 2.38974 0
M  V30 22770 N 2285.14 -0.481893 1.50052 0
M  V30 22771 C 2286.37 -1.26298 1.6451 0
M  V30 22772 C 2286.79 -1.85291 0.323884 0
M  V30 22773 O 2286.15 -1.66779 -0.710939 0
M  V30 22774 C 2286.2 -2.35529 2.73054 0
M  V30 22775 O 2285.3 -3.3989 2.33556 0
M  V30 22776 H 2284.64 -0.372039 0.549985 0
M  V30 22777 H 2287.17 -0.574751 1.96361 0
M  V30 22778 H 2287.18 -2.81005 2.95804 0
M  V30 22779 H 2285.86 -1.91961 3.6895 0
M  V30 22780 H 2284.44 -3.002 2.21211 0
M  V30 22781 N 2286.62 -1.39448 -0.734313 0
M  V30 22782 C 2287.87 -1.36439 -1.49094 0
M  V30 22783 C 2288.19 0.0387912 -1.94961 0
M  V30 22784 O 2287.46 0.990161 -1.69034 0
M  V30 22785 H 2286.04 -0.502094 -0.553092 0
M  V30 22786 H 2288.7 -1.7432 -0.871694 0
M  V30 22787 H 2287.8 -2.02751 -2.37273 0
M  V30 22788 N 2288.1 0.964571 -1.24635 0
M  V30 22789 C 2289.03 2.06266 -0.999339 0
M  V30 22790 C 2290.04 1.62768 0.032294 0
M  V30 22791 O 2291.23 1.77318 -0.20511 0
M  V30 22792 C 2288.33 3.35384 -0.486875 0
M  V30 22793 C 2287.51 4.07774 -1.58237 0
M  V30 22794 C 2286.56 5.15165 -1.07201 0
M  V30 22795 O 2285.59 5.41165 -1.76435 0
M  V30 22796 N 2286.79 5.80427 0.0919352 0
M  V30 22797 H 2289.56 2.28029 -1.94481 0
M  V30 22798 H 2287.12 1.13242 -1.15706 0
M  V30 22799 H 2289.11 4.04491 -0.130138 0
M  V30 22800 H 2287.68 3.10469 0.364405 0
M  V30 22801 H 2286.9 3.32903 -2.11115 0
M  V30 22802 H 2288.19 4.52899 -2.31862 0
M  V30 22803 H 2287.59 5.6171 0.670685 0
M  V30 22804 H 2286.14 6.50633 0.389791 0
M  V30 22805 N 2289.58 1.0606 1.16572 0
M  V30 22806 C 2290.82 0.785073 1.88722 0
M  V30 22807 C 2291.18 -0.675974 1.79707 0
M  V30 22808 O 2292.38 -1.06599 2.46759 0
M  V30 22809 C 2290.65 1.2631 3.34336 0
M  V30 22810 S 2292.21 1.11627 4.24364 0
M  V30 22811 H 2289.03 0.284857 0.651443 0
M  V30 22812 H 2291.63 1.35704 1.4073 0
M  V30 22813 H 2290.34 2.32142 3.38435 0
M  V30 22814 H 2289.87 0.685788 3.87376 0
M  V30 22815 H 2291.88 0.0457411 4.96179 0
M  V30 22816 N 2291.06 -1.33168 0.84285 0
M  V30 22817 C 2292 -2.29133 0.276925 0
M  V30 22818 C 2292.97 -1.54513 -0.609499 0
M  V30 22819 O 2294.16 -1.82793 -0.546923 0
M  V30 22820 C 2291.3 -3.4087 -0.538647 0
M  V30 22821 C 2290.41 -4.30393 0.372245 0
M  V30 22822 C 2289.55 -5.29249 -0.454815 0
M  V30 22823 C 2288.58 -6.10412 0.454218 0
M  V30 22824 N 2287.72 -7.01301 -0.334952 0
M  V30 22825 H 2292.56 -2.76932 1.10057 0
M  V30 22826 H 2290.1 -1.36262 0.554185 0
M  V30 22827 H 2292.06 -4.04362 -1.02702 0
M  V30 22828 H 2290.69 -2.94253 -1.32722 0
M  V30 22829 H 2289.74 -3.67588 0.978944 0
M  V30 22830 H 2291.05 -4.8718 1.07039 0
M  V30 22831 H 2290.2 -5.98287 -1.00684 0
M  V30 22832 H 2288.94 -4.7305 -1.18638 0
M  V30 22833 H 2287.95 -5.40289 1.01823 0
M  V30 22834 H 2289.17 -6.68695 1.18421 0
M  V30 22835 H 2287.12 -6.47545 -1.04982 0
M  V30 22836 H 2287.04 -7.55387 0.304395 0
M  V30 22837 H 2288.3 -7.7464 -0.869088 0
M  V30 22838 N 2292.53 -0.599659 -1.45746 0
M  V30 22839 C 2293.77 -0.0946668 -2.04181 0
M  V30 22840 C 2294.14 1.24812 -1.45897 0
M  V30 22841 O 2295.34 1.84337 -1.95636 0
M  V30 22842 C 2293.61 -0.0476438 -3.57368 0
M  V30 22843 S 2295.17 0.39731 -4.36998 0
M  V30 22844 H 2291.99 -0.0457078 -0.709529 0
M  V30 22845 H 2294.59 -0.795977 -1.78562 0
M  V30 22846 H 2293.29 -1.02859 -3.97301 0
M  V30 22847 H 2292.82 0.675909 -3.8755 0
M  V30 22848 H 2294.84 1.64853 -4.68015 0
M  V30 22849 N 2294.01 1.53925 -0.338371 0
M  V30 22850 C 2295.43 1.59594 0.0137455 0
M  V30 22851 C 2295.63 1.35449 1.49183 0
M  V30 22852 O 2294.68 1.1462 2.24985 0
M  V30 22853 C 2296 2.97784 -0.417782 0
M  V30 22854 C 2297.54 3.10809 -0.369688 0
M  V30 22855 C 2298.02 4.51368 -0.776604 0
M  V30 22856 N 2299.51 4.57402 -0.730587 0
M  V30 22857 C 2300.25 5.64301 -1.01746 0
M  V30 22858 N 2299.74 6.79074 -1.37222 0
M  V30 22859 N 2301.53 5.5415 -0.942039 0
M  V30 22860 H 2293.69 1.67874 -1.30123 0
M  V30 22861 H 2295.95 0.785941 -0.530096 0
M  V30 22862 H 2295.65 3.20501 -1.44817 0
M  V30 22863 H 2295.53 3.76617 0.209663 0
M  V30 22864 H 2297.92 2.87818 0.651517 0
M  V30 22865 H 2298 2.34047 -1.03227 0
M  V30 22866 H 2297.64 4.75093 -1.79579 0
M  V30 22867 H 2297.57 5.2652 -0.0915574 0
M  V30 22868 H 2300.06 3.7498 -0.468849 0
M  V30 22869 H 2300.37 7.56557 -1.5761 0
M  V30 22870 H 2298.72 6.80534 -1.41062 0
M  V30 22871 H 2301.91 4.63363 -0.664266 0
M  V30 22872 H 2302.08 6.37369 -1.16896 0
M  V30 22873 N 2295.49 0.0668712 1.57458 0
M  V30 22874 C 2296.9 -0.466526 1.80777 0
M  V30 22875 C 2297.25 -1.69949 0.98039 0
M  V30 22876 O 2296.38 -2.1546 0.201479 0
M  V30 22877 C 2296.97 -0.853153 3.27882 0
M  V30 22878 C 2295.53 -1.33144 3.52065 0
M  V30 22879 C 2294.68 -0.314215 2.75514 0
M  V30 22880 H 2297.63 0.292615 1.55979 0
M  V30 22881 H 2297.65 -1.71494 3.39662 0
M  V30 22882 H 2297.16 0.0444121 3.88075 0
M  V30 22883 H 2295.26 -2.24767 2.97171 0
M  V30 22884 H 2295.38 -1.31276 4.60764 0
M  V30 22885 H 2293.74 -0.79045 2.42124 0
M  V30 22886 H 2294.52 0.575537 3.38441 0
M  V30 22887 N 2296.97 -1.56239 -0.206647 0
M  V30 22888 C 2297.92 -1.94497 -1.27568 0
M  V30 22889 C 2298.91 -0.828888 -1.47736 0
M  V30 22890 O 2300.12 -1.01382 -1.48733 0
M  V30 22891 H 2296.49 -0.618308 -0.428018 0
M  V30 22892 H 2298.46 -2.83671 -0.925911 0
M  V30 22893 C 2297.21 -2.29084 -2.61564 0
M  V30 22894 H 2296.53 -3.14486 -2.46858 0
M  V30 22895 H 2297.97 -2.59726 -3.3514 0
M  V30 22896 C 2296.43 -1.12128 -3.17693 0
M  V30 22897 O 2296.96 -0.390223 -3.998 0
M  V30 22898 N 2295.17 -0.901146 -2.76275 0
M  V30 22899 H 2294.72 -1.49737 -2.09611 0
M  V30 22900 H 2294.67 -0.120374 -3.14169 0
M  V30 22901 N 2298.45 0.473929 -1.50305 0
M  V30 22902 C 2299.69 1.22803 -1.61391 0
M  V30 22903 C 2300.02 1.91678 -0.311989 0
M  V30 22904 O 2299.3 1.81988 0.686352 0
M  V30 22905 C 2299.58 2.27391 -2.79223 0
M  V30 22906 C 2299.44 1.62841 -4.19289 0
M  V30 22907 C 2300.75 3.28727 -2.9262 0
M  V30 22908 H 2297.87 0.445109 -0.587407 0
M  V30 22909 H 2300.52 0.522233 -1.82682 0
M  V30 22910 H 2298.67 2.87588 -2.612 0
M  V30 22911 H 2300.34 1.06263 -4.48894 0
M  V30 22912 H 2298.58 0.931618 -4.23678 0
M  V30 22913 H 2299.25 2.3883 -4.97659 0
M  V30 22914 H 2301.73 2.78551 -3.0911 0
M  V30 22915 H 2300.6 3.99239 -3.76695 0
M  V30 22916 H 2300.86 3.9268 -2.03114 0
M  V30 22917 N 2299.92 1.39835 0.726907 0
M  V30 22918 C 2301.15 1.4079 1.51611 0
M  V30 22919 C 2301.57 0.00454824 1.88799 0
M  V30 22920 O 2300.92 -0.968782 1.54664 0
M  V30 22921 C 2300.97 2.28826 2.79859 0
M  V30 22922 O 2300.7 3.63697 2.44247 0
M  V30 22923 C 2302.2 2.38251 3.73833 0
M  V30 22924 H 2299.42 0.480602 0.468255 0
M  V30 22925 H 2301.96 1.83749 0.897575 0
M  V30 22926 H 2300.12 1.89258 3.38024 0
M  V30 22927 H 2300.53 4.10336 3.26688 0
M  V30 22928 H 2302 3.04081 4.60693 0
M  V30 22929 H 2302.48 1.40411 4.16151 0
M  V30 22930 H 2303.09 2.78323 3.21584 0
M  V30 22931 N 2301.4 -0.957948 1.25144 0
M  V30 22932 C 2302.65 -1.69879 1.09479 0
M  V30 22933 C 2302.97 -1.91545 -0.365468 0
M  V30 22934 O 2302.24 -1.50017 -1.25983 0
M  V30 22935 H 2300.82 -0.629518 0.40214 0
M  V30 22936 H 2303.48 -1.15191 1.57216 0
M  V30 22937 H 2302.58 -2.67937 1.60051 0
M  V30 22938 N 2302.88 -1.06677 -1.16008 0
M  V30 22939 C 2304.3 -0.790972 -1.38621 0
M  V30 22940 C 2304.5 0.607931 -1.9211 0
M  V30 22941 O 2303.55 1.36784 -2.12242 0
M  V30 22942 C 2304.86 -1.8591 -2.36343 0
M  V30 22943 C 2306.41 -1.88306 -2.5002 0
M  V30 22944 C 2306.89 -2.94183 -3.51028 0
M  V30 22945 N 2308.38 -2.93241 -3.58558 0
M  V30 22946 C 2309.11 -3.7181 -4.36514 0
M  V30 22947 N 2308.61 -4.60209 -5.17861 0
M  V30 22948 N 2310.4 -3.60186 -4.31535 0
M  V30 22949 H 2302.55 -1.9691 -0.79626 0
M  V30 22950 H 2304.82 -0.853511 -0.412582 0
M  V30 22951 H 2304.52 -2.86389 -2.04142 0
M  V30 22952 H 2304.4 -1.7134 -3.36039 0
M  V30 22953 H 2306.78 -0.884819 -2.81523 0
M  V30 22954 H 2306.86 -2.06953 -1.50346 0
M  V30 22955 H 2306.51 -3.94202 -3.20261 0
M  V30 22956 H 2306.44 -2.72784 -4.50441 0
M  V30 22957 H 2308.93 -2.29157 -3.00492 0
M  V30 22958 H 2309.24 -5.16807 -5.74569 0
M  V30 22959 H 2307.59 -4.64262 -5.1719 0
M  V30 22960 H 2310.78 -2.90508 -3.67046 0
M  V30 22961 H 2310.95 -4.21661 -4.92042 0
M  V30 22962 N 2304.36 1.32719 -0.8499 0
M  V30 22963 C 2305.77 1.50218 -0.539128 0
M  V30 22964 C 2305.97 1.7869 0.931239 0
M  V30 22965 O 2305.03 1.85366 1.71452 0
M  V30 22966 C 2306.34 2.64952 -1.42201 0
M  V30 22967 C 2307.89 2.78837 -1.42194 0
M  V30 22968 C 2308.37 3.96644 -2.28992 0
M  V30 22969 N 2309.86 4.03898 -2.26761 0
M  V30 22970 C 2310.59 4.94276 -2.90653 0
M  V30 22971 N 2310.09 5.89693 -3.63639 0
M  V30 22972 N 2311.88 4.8736 -2.80066 0
M  V30 22973 H 2304.03 1.12503 -1.80158 0
M  V30 22974 H 2306.29 0.554071 -0.769226 0
M  V30 22975 H 2306 2.50627 -2.46737 0
M  V30 22976 H 2305.87 3.60622 -1.10597 0
M  V30 22977 H 2308.26 2.92588 -0.384242 0
M  V30 22978 H 2308.34 1.83895 -1.7781 0
M  V30 22979 H 2307.99 3.83652 -3.32826 0
M  V30 22980 H 2307.92 4.90853 -1.9071 0
M  V30 22981 H 2310.41 3.35617 -1.73694 0
M  V30 22982 H 2310.72 6.55342 -4.09569 0
M  V30 22983 H 2309.07 5.89735 -3.67747 0
M  V30 22984 H 2312.26 4.11785 -2.226 0
M  V30 22985 H 2312.43 5.57593 -3.30142 0
M  V30 22986 N 2305.84 0.60738 1.45426 0
M  V30 22987 C 2307.08 0.105494 2.04128 0
M  V30 22988 C 2307.44 -1.24037 1.46557 0
M  V30 22989 O 2308.64 -1.83296 1.96611 0
M  V30 22990 C 2306.91 0.0665953 3.57338 0
M  V30 22991 S 2308.47 -0.37413 4.37202 0
M  V30 22992 H 2305.29 0.04947 0.709277 0
M  V30 22993 H 2307.89 0.805436 1.78138 0
M  V30 22994 H 2306.6 1.04964 3.9675 0
M  V30 22995 H 2306.13 -0.655347 3.87903 0
M  V30 22996 H 2308.14 -1.62369 4.68882 0
M  V30 22997 N 2307.31 -1.53743 0.34653 0
M  V30 22998 C 2308.59 -1.93215 -0.304498 0
M  V30 22999 C 2308.97 -1.27837 -1.67991 0
M  V30 23000 O 2308.32 -0.430391 -2.2441 0
M  V30 23001 C 2308.53 -3.46993 -0.373791 0
M  V30 23002 C 2309.88 -4.20001 -0.623216 0
M  V30 23003 O 2310.9 -3.53272 -0.455785 0
M  V30 23004 O 2309.76 -5.38219 -0.947784 0
M  V30 23005 H 2306.85 -0.80755 -0.178304 0
M  V30 23006 H 2309.4 -1.64969 0.397924 0
M  V30 23007 H 2308.17 -3.86807 0.591292 0
M  V30 23008 H 2307.8 -3.81415 -1.12288 0
M  V30 23009 N 2308.79 -0.0752207 -1.5742 0
M  V30 23010 C 2310.02 0.602042 -1.97947 0
M  V30 23011 C 2310.44 1.62942 -0.953703 0
M  V30 23012 O 2309.79 1.82404 0.059223 0
M  V30 23013 C 2309.84 1.26756 -3.38549 0
M  V30 23014 O 2309.56 0.281299 -4.37196 0
M  V30 23015 C 2311.07 2.03232 -3.93969 0
M  V30 23016 H 2308.29 0.16292 -0.650921 0
M  V30 23017 H 2310.83 -0.148636 -2.03959 0
M  V30 23018 H 2308.98 1.9693 -3.33613 0
M  V30 23019 H 2309.4 0.759176 -5.18977 0
M  V30 23020 H 2310.87 2.45184 -4.94559 0
M  V30 23021 H 2311.35 2.89024 -3.30699 0
M  V30 23022 H 2311.96 1.37917 -4.02317 0
M  V30 23023 N 2310.27 1.56347 0.198358 0
M  V30 23024 C 2311.51 1.82218 0.926058 0
M  V30 23025 C 2311.87 0.652227 1.80582 0
M  V30 23026 O 2313.08 0.790761 2.56905 0
M  V30 23027 C 2311.35 3.13099 1.72348 0
M  V30 23028 S 2312.91 3.60365 2.50365 0
M  V30 23029 H 2309.72 0.639537 0.310666 0
M  V30 23030 H 2312.33 1.94577 0.18972 0
M  V30 23031 H 2311.03 3.96267 1.06773 0
M  V30 23032 H 2310.56 3.03609 2.5017 0
M  V30 23033 H 2312.58 3.25542 3.74482 0
M  V30 23034 N 2311.75 -0.465951 1.50554 0
M  V30 23035 C 2312.97 -1.24546 1.6584 0
M  V30 23036 C 2313.4 -1.84937 0.343518 0
M  V30 23037 O 2312.76 -1.67524 -0.69321 0
M  V30 23038 C 2312.8 -2.32619 2.75537 0
M  V30 23039 O 2311.91 -3.37394 2.37147 0
M  V30 23040 H 2311.25 -0.366184 0.5539 0
M  V30 23041 H 2313.78 -0.553892 1.9696 0
M  V30 23042 H 2313.79 -2.77852 2.98768 0
M  V30 23043 H 2312.46 -1.88037 3.70965 0
M  V30 23044 H 2311.04 -2.97837 2.24382 0
M  V30 23045 N 2313.23 -1.40218 -0.719481 0
M  V30 23046 C 2314.64 -1.34153 -1.29846 0
M  V30 23047 C 2314.99 -0.0131694 -1.96196 0
M  V30 23048 O 2314.11 0.888885 -1.97301 0
M  V30 23049 C 2314.71 -2.42972 -2.36114 0
M  V30 23050 C 2313.27 -2.40379 -2.89646 0
M  V30 23051 C 2312.41 -2.24052 -1.63389 0
M  V30 23052 H 2315.37 -1.50081 -0.515884 0
M  V30 23053 H 2315.39 -2.10655 -3.16867 0
M  V30 23054 H 2314.9 -3.39639 -1.87794 0
M  V30 23055 H 2313 -1.47398 -3.42206 0
M  V30 23056 H 2313.11 -3.3582 -3.41705 0
M  V30 23057 H 2311.48 -1.71499 -1.88309 0
M  V30 23058 H 2312.26 -3.22712 -1.17099 0
M  V30 23059 N 2314.7 0.951297 -1.25651 0
M  V30 23060 C 2315.95 1.69296 -1.10378 0
M  V30 23061 C 2316.27 1.91736 0.355305 0
M  V30 23062 O 2315.54 1.50683 1.25185 0
M  V30 23063 H 2314.12 0.627376 -0.405472 0
M  V30 23064 H 2316.79 1.14356 -1.57825 0
M  V30 23065 H 2315.88 2.67084 -1.6147 0
M  V30 23066 N 2316.18 1.07291 1.1544 0
M  V30 23067 C 2317.43 0.7957 1.86212 0
M  V30 23068 C 2317.76 -0.678206 1.82293 0
M  V30 23069 O 2317.01 -1.51353 1.2406 0
M  V30 23070 C 2317.31 1.2484 3.34888 0
M  V30 23071 C 2316.98 2.72816 3.59002 0
M  V30 23072 C 2315.64 3.13233 3.65292 0
M  V30 23073 C 2317.99 3.68333 3.68755 0
M  V30 23074 C 2315.32 4.47987 3.78846 0
M  V30 23075 C 2317.67 5.02847 3.83833 0
M  V30 23076 C 2316.34 5.42887 3.88369 0
M  V30 23077 H 2315.61 0.291167 0.681397 0
M  V30 23078 H 2318.25 1.34382 1.36433 0
M  V30 23079 H 2316.56 0.619663 3.86869 0
M  V30 23080 H 2318.25 1.01082 3.88051 0
M  V30 23081 H 2314.84 2.40527 3.54746 0
M  V30 23082 H 2319.03 3.38234 3.63196 0
M  V30 23083 H 2314.28 4.78479 3.80615 0
M  V30 23084 H 2318.46 5.76734 3.90322 0
M  V30 23085 H 2316.09 6.47305 3.98624 0
M  V30 23086 N 2317.66 -1.32267 0.856927 0
M  V30 23087 C 2318.61 -2.26336 0.274939 0
M  V30 23088 C 2319.59 -1.50063 -0.580517 0
M  V30 23089 O 2320.79 -1.71709 -0.429529 0
M  V30 23090 C 2317.92 -3.39125 -0.533781 0
M  V30 23091 C 2317 -4.22781 0.334189 0
M  V30 23092 N 2317.39 -4.85414 1.42152 0
M  V30 23093 C 2315.69 -4.45827 0.124334 0
M  V30 23094 C 2316.39 -5.47839 1.95569 0
M  V30 23095 N 2315.37 -5.28926 1.25453 0
M  V30 23096 H 2319.17 -2.72289 1.10617 0
M  V30 23097 H 2316.68 -1.46382 0.703284 0
M  V30 23098 H 2318.68 -4.05527 -0.967149 0
M  V30 23099 H 2317.34 -2.94718 -1.36278 0
M  V30 23100 H 2318.35 -4.85448 1.80445 0
M  V30 23101 H 2315.03 -4.12093 -0.669764 0
M  V30 23102 H 2316.42 -6.0765 2.86724 0
M  V30 23103 N 2319.14 -0.615084 -1.45102 0
M  V30 23104 C 2320.39 -0.112991 -2.01784 0
M  V30 23105 C 2320.71 1.26376 -1.48506 0
M  V30 23106 O 2319.98 1.83635 -0.682277 0
M  V30 23107 H 2318.56 -0.0387799 -0.745993 0
M  V30 23108 H 2321.22 -0.798172 -1.77807 0
M  V30 23109 H 2320.32 -0.0684618 -3.12025 0
M  V30 23110 N 2320.62 1.53557 -0.354678 0
M  V30 23111 C 2321.85 2.05211 0.239131 0
M  V30 23112 C 2322.26 1.22866 1.43877 0
M  V30 23113 O 2321.6 0.259597 1.81856 0
M  V30 23114 C 2321.66 3.52476 0.70719 0
M  V30 23115 C 2321.32 4.55465 -0.374293 0
M  V30 23116 C 2322.32 5.05368 -1.22063 0
M  V30 23117 C 2320.01 4.99481 -0.531411 0
M  V30 23118 C 2322 5.97878 -2.20953 0
M  V30 23119 C 2319.69 5.918 -1.52369 0
M  V30 23120 C 2320.69 6.40888 -2.36119 0
M  V30 23121 O 2320.37 7.31388 -3.33656 0
M  V30 23122 H 2320.11 0.674297 0.0479598 0
M  V30 23123 H 2322.66 1.99015 -0.508156 0
M  V30 23124 H 2320.89 3.56173 1.5059 0
M  V30 23125 H 2322.58 3.87044 1.22278 0
M  V30 23126 H 2323.34 4.72118 -1.11038 0
M  V30 23127 H 2319.22 4.60867 0.110657 0
M  V30 23128 H 2322.77 6.36116 -2.86359 0
M  V30 23129 H 2318.66 6.24465 -1.63445 0
M  V30 23130 H 2319.43 7.49354 -3.29257 0
M  V30 23131 N 2322.1 0.083568 1.57378 0
M  V30 23132 C 2323.51 -0.447326 1.81262 0
M  V30 23133 C 2323.86 -1.689 0.998361 0
M  V30 23134 O 2322.98 -2.15234 0.22432 0
M  V30 23135 C 2323.58 -0.818328 3.28769 0
M  V30 23136 C 2322.14 -1.29402 3.53457 0
M  V30 23137 C 2321.28 -0.284976 2.75832 0
M  V30 23138 H 2324.23 0.309142 1.5566 0
M  V30 23139 H 2324.26 -1.67881 3.41462 0
M  V30 23140 H 2323.77 0.0855701 3.88006 0
M  V30 23141 H 2321.87 -2.21602 2.99538 0
M  V30 23142 H 2321.98 -1.26382 4.6213 0
M  V30 23143 H 2320.35 -0.764725 2.42949 0
M  V30 23144 H 2321.13 0.6114 3.37812 0
M  V30 23145 N 2323.57 -1.5645 -0.190064 0
M  V30 23146 C 2324.99 -1.50147 -0.541104 0
M  V30 23147 C 2325.19 -0.784498 -1.85601 0
M  V30 23148 O 2324.25 -0.337095 -2.5024 0
M  V30 23149 C 2325.56 -2.94831 -0.591189 0
M  V30 23150 C 2327.11 -3.05531 -0.679678 0
M  V30 23151 C 2327.58 -4.51636 -0.760828 0
M  V30 23152 N 2329.07 -4.55808 -0.824222 0
M  V30 23153 C 2329.81 -5.66177 -0.907266 0
M  V30 23154 N 2329.3 -6.86224 -0.952301 0
M  V30 23155 N 2331.1 -5.54102 -0.944843 0
M  V30 23156 H 2323.25 -2.01476 0.672385 0
M  V30 23157 H 2325.51 -0.91708 0.240144 0
M  V30 23158 H 2325.22 -3.50367 0.305967 0
M  V30 23159 H 2325.09 -3.48459 -1.44416 0
M  V30 23160 H 2327.48 -2.50042 -1.56726 0
M  V30 23161 H 2327.56 -2.5502 0.199594 0
M  V30 23162 H 2327.2 -5.07752 0.122425 0
M  V30 23163 H 2327.13 -4.99885 -1.65597 0
M  V30 23164 H 2329.62 -3.69368 -0.798461 0
M  V30 23165 H 2329.94 -7.66088 -1.01632 0
M  V30 23166 H 2328.28 -6.88872 -0.920893 0
M  V30 23167 H 2331.47 -4.59238 -0.906532 0
M  V30 23168 H 2331.65 -6.40142 -1.0061 0
M  V30 23169 N 2325.05 0.45796 -1.50799 0
M  V30 23170 C 2326.29 1.21876 -1.6409 0
M  V30 23171 C 2326.66 1.88968 -0.339881 0
M  V30 23172 O 2327.86 2.66533 -0.348348 0
M  V30 23173 C 2326.13 2.22455 -2.7973 0
M  V30 23174 S 2327.69 3.07298 -3.13231 0
M  V30 23175 H 2324.5 0.4136 -0.578322 0
M  V30 23176 H 2327.11 0.513612 -1.88633 0
M  V30 23177 H 2325.81 1.71769 -3.72725 0
M  V30 23178 H 2325.34 2.97579 -2.57313 0
M  V30 23179 H 2327.36 4.23809 -2.5807 0
M  V30 23180 N 2326.53 1.40598 0.712035 0
M  V30 23181 C 2327.95 1.22706 1.02056 0
M  V30 23182 C 2328.15 0.104764 2.01227 0
M  V30 23183 O 2327.2 -0.536197 2.46741 0
M  V30 23184 C 2328.51 2.57015 1.56089 0
M  V30 23185 C 2330.06 2.64057 1.68056 0
M  V30 23186 C 2330.54 3.98644 2.25494 0
M  V30 23187 N 2332.03 4.00404 2.32875 0
M  V30 23188 C 2332.76 5.0133 2.78308 0
M  V30 23189 N 2332.26 6.1265 3.23468 0
M  V30 23190 N 2334.05 4.88698 2.77725 0
M  V30 23191 H 2326.2 2.12329 0.0547523 0
M  V30 23192 H 2328.47 0.94401 0.0868861 0
M  V30 23193 H 2328.17 3.39809 0.906806 0
M  V30 23194 H 2328.05 2.78352 2.54559 0
M  V30 23195 H 2330.43 1.81633 2.3258 0
M  V30 23196 H 2330.51 2.46548 0.681759 0
M  V30 23197 H 2330.16 4.81509 1.6159 0
M  V30 23198 H 2330.09 4.13485 3.26094 0
M  V30 23199 H 2332.58 3.20021 2.00985 0
M  V30 23200 H 2332.89 6.85548 3.56713 0
M  V30 23201 H 2331.24 6.16211 3.21418 0
M  V30 23202 H 2334.43 4.00823 2.41783 0
M  V30 23203 H 2334.6 5.67495 3.12816 0
M  V30 23204 N 2328.01 -0.94462 1.26153 0
M  V30 23205 C 2329.42 -1.5052 1.10456 0
M  V30 23206 C 2329.77 -1.93633 -0.316316 0
M  V30 23207 O 2328.89 -1.79583 -1.20743 0
M  V30 23208 C 2329.49 -2.73546 1.99896 0
M  V30 23209 C 2328.05 -3.25883 1.88354 0
M  V30 23210 C 2327.2 -1.98676 1.9345 0
M  V30 23211 H 2330.15 -0.760465 1.39293 0
M  V30 23212 H 2330.17 -3.47729 1.54483 0
M  V30 23213 H 2329.68 -2.42136 3.03301 0
M  V30 23214 H 2327.78 -3.62091 0.8787 0
M  V30 23215 H 2327.89 -3.93222 2.73703 0
M  V30 23216 H 2326.26 -2.14422 1.3746 0
M  V30 23217 H 2327.04 -1.69602 2.98479 0
M  V30 23218 N 2329.49 -1.07901 -1.1487 0
M  V30 23219 C 2330.73 -0.814998 -1.87449 0
M  V30 23220 C 2331.09 0.647299 -1.8076 0
M  V30 23221 O 2332.29 1.0266 -2.48424 0
M  V30 23222 C 2330.56 -1.31613 -3.32284 0
M  V30 23223 S 2332.12 -1.18364 -4.22534 0
M  V30 23224 H 2328.94 -0.295185 -0.646828 0
M  V30 23225 H 2331.54 -1.37925 -1.38553 0
M  V30 23226 H 2330.24 -2.37497 -3.34699 0
M  V30 23227 H 2329.78 -0.747329 -3.86236 0
M  V30 23228 H 2331.79 -0.124673 -4.96043 0
M  V30 23229 N 2330.96 1.31811 -0.863929 0
M  V30 23230 C 2332.24 1.91616 -0.392784 0
M  V30 23231 C 2332.62 1.78652 1.12458 0
M  V30 23232 O 2331.97 1.1904 1.95043 0
M  V30 23233 C 2332.18 3.38048 -0.867445 0
M  V30 23234 C 2333.53 4.15167 -0.890039 0
M  V30 23235 O 2334.55 3.46805 -0.812696 0
M  V30 23236 O 2333.41 5.37256 -1.00089 0
M  V30 23237 H 2330.5 0.818771 -0.116372 0
M  V30 23238 H 2333.05 1.40519 -0.951443 0
M  V30 23239 H 2331.82 3.4147 -1.91087 0
M  V30 23240 H 2331.44 3.96565 -0.286757 0
M  V30 23241 N 2332.44 0.62277 1.44773 0
M  V30 23242 C 2333.68 0.127138 2.04004 0
M  V30 23243 C 2334.05 -1.22475 1.47864 0
M  V30 23244 O 2335.25 -1.81201 1.98544 0
M  V30 23245 C 2333.52 0.104492 3.57247 0
M  V30 23246 S 2335.08 -0.327738 4.37574 0
M  V30 23247 H 2331.89 0.0569901 0.708712 0
M  V30 23248 H 2334.5 0.824284 1.77273 0
M  V30 23249 H 2333.2 1.09166 3.95615 0
M  V30 23250 H 2332.73 -0.614168 3.88576 0
M  V30 23251 H 2334.75 -1.57387 4.70578 0
M  V30 23252 N 2333.92 -1.53367 0.362817 0
M  V30 23253 C 2334.87 -2.2242 -0.501352 0
M  V30 23254 C 2335.85 -1.21842 -1.05088 0
M  V30 23255 O 2337.05 -1.47302 -0.981378 0
M  V30 23256 C 2334.17 -3.01487 -1.64196 0
M  V30 23257 C 2333.26 -4.09439 -1.10545 0
M  V30 23258 N 2333.65 -5.04958 -0.291699 0
M  V30 23259 C 2331.95 -4.24096 -1.38052 0
M  V30 23260 C 2332.65 -5.817 0.0017288 0
M  V30 23261 N 2331.63 -5.40332 -0.595149 0
M  V30 23262 H 2335.43 -2.93625 0.127211 0
M  V30 23263 H 2332.94 -1.61501 0.170687 0
M  V30 23264 H 2334.94 -3.49473 -2.2732 0
M  V30 23265 H 2333.6 -2.31813 -2.27361 0
M  V30 23266 H 2334.61 -5.17854 0.0688642 0
M  V30 23267 H 2331.29 -3.65647 -2.01515 0
M  V30 23268 H 2332.68 -6.68657 0.659396 0
M  V30 23269 N 2335.4 -0.091913 -1.57332 0
M  V30 23270 C 2336.31 0.882467 -2.1737 0
M  V30 23271 C 2337.32 1.31255 -1.14228 0
M  V30 23272 O 2338.5 1.38112 -1.46585 0
M  V30 23273 C 2335.57 2.12471 -2.73965 0
M  V30 23274 C 2334.63 1.74913 -3.92051 0
M  V30 23275 C 2333.86 2.93215 -4.45938 0
M  V30 23276 O 2334.08 4.07845 -3.98771 0
M  V30 23277 O 2333.02 2.71866 -5.37003 0
M  V30 23278 H 2336.84 0.401667 -3.01032 0
M  V30 23279 H 2334.43 0.132264 -1.48813 0
M  V30 23280 H 2336.31 2.85278 -3.10152 0
M  V30 23281 H 2334.98 2.59609 -1.93351 0
M  V30 23282 H 2333.89 0.992961 -3.60681 0
M  V30 23283 H 2335.22 1.3254 -4.74019 0
M  V30 23284 N 2336.88 1.56548 0.181765 0
M  V30 23285 C 2337.84 1.94726 1.2089 0
M  V30 23286 C 2338.84 0.829771 1.37737 0
M  V30 23287 O 2340.03 1.09699 1.35321 0
M  V30 23288 C 2337.16 2.23296 2.57589 0
M  V30 23289 H 2338.35 2.8663 0.882225 0
M  V30 23290 H 2335.91 1.50444 0.423811 0
M  V30 23291 H 2336.64 1.34072 2.95288 0
M  V30 23292 H 2336.43 3.04741 2.4673 0
M  V30 23293 H 2337.92 2.5379 3.31633 0
M  V30 23294 N 2338.35 -0.449957 1.5104 0
M  V30 23295 C 2339.6 -1.19805 1.62761 0
M  V30 23296 C 2339.92 -1.92013 0.340015 0
M  V30 23297 O 2339.19 -1.85027 -0.643573 0
M  V30 23298 H 2337.77 -0.445226 0.599819 0
M  V30 23299 H 2340.44 -0.517105 1.87915 0
M  V30 23300 H 2339.53 -1.93451 2.44915 0
M  V30 23301 N 2339.83 -1.40974 -0.704569 0
M  V30 23302 C 2341.06 -1.43184 -1.49352 0
M  V30 23303 C 2341.48 -0.034584 -1.88768 0
M  V30 23304 O 2340.83 0.944054 -1.56185 0
M  V30 23305 C 2340.88 -2.33249 -2.76183 0
M  V30 23306 O 2340.6 -3.67536 -2.3843 0
M  V30 23307 C 2342.11 -2.44168 -3.69996 0
M  V30 23308 H 2339.33 -0.48799 -0.46055 0
M  V30 23309 H 2341.87 -1.85154 -0.868228 0
M  V30 23310 H 2340.02 -1.94612 -3.3497 0
M  V30 23311 H 2340.44 -4.15481 -3.20118 0
M  V30 23312 H 2341.91 -3.11372 -4.55797 0
M  V30 23313 H 2342.39 -1.47013 -4.13864 0
M  V30 23314 H 2343 -2.83404 -3.17116 0
M  V30 23315 N 2341.31 0.937917 -1.26653 0
M  V30 23316 C 2342.27 2.01865 -1.08549 0
M  V30 23317 C 2343.27 1.60767 -0.032761 0
M  V30 23318 O 2344.46 1.71992 -0.276458 0
M  V30 23319 C 2341.6 3.34611 -0.651769 0
M  V30 23320 H 2342.79 2.19357 -2.04506 0
M  V30 23321 H 2340.34 1.11732 -1.09296 0
M  V30 23322 H 2341.08 3.22818 0.309639 0
M  V30 23323 H 2340.86 3.65795 -1.41195 0
M  V30 23324 H 2342.35 4.14001 -0.547046 0
M  V30 23325 N 2342.79 1.08509 1.14296 0
M  V30 23326 C 2344.2 0.836257 1.66924 0
M  V30 23327 C 2344.55 -0.636828 1.85577 0
M  V30 23328 O 2343.68 -1.49172 1.5677 0
M  V30 23329 C 2344.27 1.51147 3.03216 0
M  V30 23330 C 2342.83 1.30985 3.52874 0
M  V30 23331 C 2341.98 1.5736 2.28327 0
M  V30 23332 H 2344.93 1.24553 0.983469 0
M  V30 23333 H 2344.95 0.939276 3.68725 0
M  V30 23334 H 2344.46 2.58358 2.89608 0
M  V30 23335 H 2342.56 0.258494 3.71702 0
M  V30 23336 H 2342.67 2.03821 4.33582 0
M  V30 23337 H 2341.04 0.995206 2.34452 0
M  V30 23338 H 2341.82 2.65779 2.17294 0
M  V30 23339 N 2344.27 -1.31351 0.870907 0
M  V30 23340 C 2345.51 -1.96284 0.481355 0
M  V30 23341 C 2345.84 -1.69175 -0.969783 0
M  V30 23342 O 2345.11 -1.00767 -1.67997 0
M  V30 23343 H 2343.69 -0.726209 0.175014 0
M  V30 23344 H 2346.35 -1.60141 1.1109 0
M  V30 23345 H 2345.44 -3.0547 0.639879 0
M  V30 23346 N 2345.74 -0.630439 -1.44441 0
M  V30 23347 C 2346.99 -0.134852 -2.02351 0
M  V30 23348 C 2347.32 1.23983 -1.49472 0
M  V30 23349 O 2346.6 1.82281 -0.678507 0
M  V30 23350 C 2346.88 -0.12077 -3.59897 0
M  V30 23351 C 2346.73 -1.52774 -4.2306 0
M  V30 23352 C 2348.05 0.55505 -4.36586 0
M  V30 23353 H 2345.17 -0.0504775 -0.735269 0
M  V30 23354 H 2347.81 -0.806781 -1.7202 0
M  V30 23355 H 2345.96 0.451409 -3.85869 0
M  V30 23356 H 2347.64 -2.14876 -4.08199 0
M  V30 23357 H 2345.88 -2.08182 -3.80582 0
M  V30 23358 H 2346.55 -1.46993 -5.32069 0
M  V30 23359 H 2349.03 0.0684697 -4.16044 0
M  V30 23360 H 2347.9 0.534089 -5.46295 0
M  V30 23361 H 2348.16 1.62528 -4.11141 0
M  V30 23362 N 2347.22 1.53172 -0.370945 0
M  V30 23363 C 2348.46 2.03244 0.217071 0
M  V30 23364 C 2348.83 1.2521 1.45556 0
M  V30 23365 O 2350.03 1.65314 2.11954 0
M  V30 23366 C 2348.3 3.53933 0.496602 0
M  V30 23367 S 2349.86 4.25866 1.05752 0
M  V30 23368 H 2346.68 0.708224 0.0627702 0
M  V30 23369 H 2349.28 1.88593 -0.515052 0
M  V30 23370 H 2347.98 4.08325 -0.412168 0
M  V30 23371 H 2347.51 3.72756 1.25765 0
M  V30 23372 H 2349.53 4.37486 2.34137 0
M  V30 23373 N 2348.7 0.100255 1.57281 0
M  V30 23374 C 2349.98 -0.604779 1.86016 0
M  V30 23375 C 2350.36 -1.86016 0.998057 0
M  V30 23376 O 2349.71 -2.28387 0.0718585 0
M  V30 23377 C 2349.92 -0.915219 3.36786 0
M  V30 23378 C 2351.26 -1.27643 4.0496 0
M  V30 23379 O 2352.29 -1.00607 3.41697 0
M  V30 23380 O 2351.15 -1.783 5.16596 0
M  V30 23381 H 2348.24 -0.303171 0.769426 0
M  V30 23382 H 2350.79 0.133343 1.69175 0
M  V30 23383 H 2349.56 -0.0248208 3.91292 0
M  V30 23384 H 2349.18 -1.70914 3.5899 0
M  V30 23385 N 2350.18 -1.56643 -0.17346 0
M  V30 23386 C 2351.59 -1.71575 -0.736125 0
M  V30 23387 C 2351.94 -0.710421 -1.82886 0
M  V30 23388 O 2351.07 0.128662 -2.16017 0
M  V30 23389 C 2351.66 -3.11086 -1.34205 0
M  V30 23390 C 2350.22 -3.2771 -1.85156 0
M  V30 23391 C 2349.37 -2.67526 -0.729718 0
M  V30 23392 H 2352.32 -1.58615 0.0519065 0
M  V30 23393 H 2352.34 -3.09617 -2.21173 0
M  V30 23394 H 2351.85 -3.84233 -0.546512 0
M  V30 23395 H 2349.95 -2.59516 -2.67361 0
M  V30 23396 H 2350.07 -4.35428 -1.99848 0
M  V30 23397 H 2348.43 -2.2728 -1.14961 0
M  V30 23398 H 2349.21 -3.43258 0.0539409 0
M  V30 23399 N 2351.66 0.44194 -1.51277 0
M  V30 23400 C 2352.59 1.54358 -1.75203 0
M  V30 23401 C 2353.57 1.59102 -0.60171 0
M  V30 23402 O 2354.75 1.74903 -0.843944 0
M  V30 23403 C 2351.88 2.92474 -1.87287 0
M  V30 23404 C 2350.84 3.02591 -3.02692 0
M  V30 23405 C 2350.16 4.42641 -2.99955 0
M  V30 23406 C 2351.46 2.77098 -4.42735 0
M  V30 23407 H 2353.16 1.34587 -2.67445 0
M  V30 23408 H 2350.7 0.646026 -1.28695 0
M  V30 23409 H 2352.66 3.69497 -2.02609 0
M  V30 23410 H 2351.38 3.13465 -0.916899 0
M  V30 23411 H 2350.04 2.28007 -2.87069 0
M  V30 23412 H 2349.69 4.60594 -2.02144 0
M  V30 23413 H 2349.39 4.50341 -3.77447 0
M  V30 23414 H 2350.91 5.21644 -3.17363 0
M  V30 23415 H 2352.33 3.43856 -4.58733 0
M  V30 23416 H 2350.72 2.96213 -5.21899 0
M  V30 23417 H 2351.79 1.72736 -4.5309 0
M  V30 23418 N 2353.14 1.41345 0.697083 0
M  V30 23419 C 2354.36 1.43974 1.4859 0
M  V30 23420 C 2354.78 0.0445944 1.88747 0
M  V30 23421 O 2354.14 -0.935758 1.56684 0
M  V30 23422 C 2354.19 2.34711 2.74942 0
M  V30 23423 O 2353.91 3.68796 2.36477 0
M  V30 23424 C 2355.41 2.46127 3.68695 0
M  V30 23425 H 2352.63 0.490426 0.457956 0
M  V30 23426 H 2355.17 1.85612 0.858397 0
M  V30 23427 H 2353.33 1.96386 3.33933 0
M  V30 23428 H 2353.74 4.17173 3.1791 0
M  V30 23429 H 2355.22 3.13785 4.5414 0
M  V30 23430 H 2355.69 1.49206 4.13079 0
M  V30 23431 H 2356.3 2.85081 3.15608 0
M  V30 23432 N 2354.61 -0.931187 1.27148 0
M  V30 23433 C 2355.86 -1.67518 1.13058 0
M  V30 23434 C 2356.18 -1.92277 -0.324757 0
M  V30 23435 O 2355.45 -1.52656 -1.22772 0
M  V30 23436 H 2354.03 -0.620846 0.415402 0
M  V30 23437 H 2356.69 -1.1183 1.59624 0
M  V30 23438 H 2355.79 -2.64482 1.65698 0
M  V30 23439 N 2356.09 -1.09114 -1.13719 0
M  V30 23440 C 2357.02 -0.685505 -2.18709 0
M  V30 23441 C 2358.04 0.27104 -1.60528 0
M  V30 23442 O 2359.23 0.0575835 -1.78407 0
M  V30 23443 C 2356.33 0.0110659 -3.38898 0
M  V30 23444 C 2355.5 -0.966206 -4.26595 0
M  V30 23445 C 2354.56 -0.303632 -5.25323 0
M  V30 23446 O 2353.58 -0.950276 -5.61212 0
M  V30 23447 N 2354.79 0.94355 -5.7278 0
M  V30 23448 H 2357.55 -1.58875 -2.54124 0
M  V30 23449 H 2355.11 -0.978165 -1.2901 0
M  V30 23450 H 2357.1 0.465446 -4.02015 0
M  V30 23451 H 2355.67 0.816511 -3.01748 0
M  V30 23452 H 2354.89 -1.59923 -3.60303 0
M  V30 23453 H 2356.18 -1.62819 -4.82045 0
M  V30 23454 H 2355.58 1.48853 -5.45765 0
M  V30 23455 H 2354.14 1.3413 -6.3785 0
M  V30 23456 N 2357.57 1.30887 -0.877861 0
M  V30 23457 C 2358.81 1.98207 -0.499336 0
M  V30 23458 C 2359.17 1.67828 0.93262 0
M  V30 23459 O 2360.37 2.28424 1.4169 0
M  V30 23460 C 2358.65 3.49263 -0.758282 0
M  V30 23461 S 2360.2 4.36158 -0.480796 0
M  V30 23462 H 2357.02 0.68622 -0.186074 0
M  V30 23463 H 2359.62 1.59137 -1.13559 0
M  V30 23464 H 2358.33 3.68864 -1.7991 0
M  V30 23465 H 2357.86 3.93248 -0.109316 0
M  V30 23466 H 2359.87 4.91468 0.683611 0
M  V30 23467 N 2359.05 0.638091 1.44105 0
M  V30 23468 C 2360.28 0.15243 2.06037 0
M  V30 23469 C 2360.69 -1.18105 1.4781 0
M  V30 23470 O 2360.03 -1.7369 0.598123 0
M  V30 23471 C 2360.09 -0.0293082 3.59488 0
M  V30 23472 C 2359.75 1.2271 4.40217 0
M  V30 23473 C 2360.75 2.1524 4.73252 0
M  V30 23474 C 2358.44 1.46446 4.80478 0
M  V30 23475 C 2360.43 3.29811 5.45439 0
M  V30 23476 C 2358.12 2.61313 5.52412 0
M  V30 23477 C 2359.12 3.52822 5.84813 0
M  V30 23478 O 2358.8 4.65685 6.55281 0
M  V30 23479 H 2358.54 0.0801518 0.671231 0
M  V30 23480 H 2361.09 0.874596 1.85849 0
M  V30 23481 H 2359.32 -0.806692 3.78192 0
M  V30 23482 H 2361.01 -0.470404 4.03165 0
M  V30 23483 H 2361.77 1.98139 4.4268 0
M  V30 23484 H 2357.65 0.761056 4.54675 0
M  V30 23485 H 2361.2 4.01259 5.70646 0
M  V30 23486 H 2357.09 2.78354 5.824 0
M  V30 23487 H 2357.86 4.64756 6.73754 0
M  V30 23488 N 2360.53 -1.52973 0.379063 0
M  V30 23489 C 2361.77 -2.03356 -0.206289 0
M  V30 23490 C 2362.13 -1.2598 -1.4489 0
M  V30 23491 O 2363.33 -1.66436 -2.11075 0
M  V30 23492 C 2361.6 -3.54191 -0.477825 0
M  V30 23493 S 2363.16 -4.26421 -1.03492 0
M  V30 23494 H 2359.98 -0.708547 -0.0590135 0
M  V30 23495 H 2362.58 -1.88318 0.525046 0
M  V30 23496 H 2361.28 -4.08101 0.433817 0
M  V30 23497 H 2360.82 -3.73417 -1.23786 0
M  V30 23498 H 2362.83 -4.38722 -2.31814 0
M  V30 23499 N 2362 -0.108595 -1.57225 0
M  V30 23500 C 2362.95 0.845443 -2.14758 0
M  V30 23501 C 2363.92 1.27066 -1.06974 0
M  V30 23502 O 2365.11 1.35003 -1.34829 0
M  V30 23503 C 2362.25 2.0941 -2.74302 0
M  V30 23504 C 2361.36 1.71819 -3.96361 0
M  V30 23505 C 2360.49 2.91572 -4.44026 0
M  V30 23506 C 2359.53 2.50171 -5.58642 0
M  V30 23507 N 2358.67 3.62804 -6.01097 0
M  V30 23508 H 2363.51 0.347983 -2.95961 0
M  V30 23509 H 2361.05 0.16008 -1.46226 0
M  V30 23510 H 2363 2.82555 -3.0695 0
M  V30 23511 H 2361.63 2.56632 -1.95805 0
M  V30 23512 H 2360.69 0.885882 -3.69941 0
M  V30 23513 H 2362 1.37386 -4.79507 0
M  V30 23514 H 2361.15 3.72955 -4.78528 0
M  V30 23515 H 2359.89 3.29225 -3.59809 0
M  V30 23516 H 2358.9 1.67218 -5.23754 0
M  V30 23517 H 2360.12 2.13648 -6.44617 0
M  V30 23518 H 2358.07 4.00149 -5.19824 0
M  V30 23519 H 2357.98 3.32261 -6.79072 0
M  V30 23520 H 2359.25 4.44657 -6.40235 0
M  V30 23521 N 2363.48 1.56732 0.16515 0
M  V30 23522 C 2364.39 2.00127 1.22419 0
M  V30 23523 C 2365.41 0.913645 1.48083 0
M  V30 23524 O 2366.58 1.22175 1.6011 0
M  V30 23525 C 2363.65 2.35769 2.54193 0
M  V30 23526 C 2362.71 3.5839 2.36337 0
M  V30 23527 C 2361.94 3.92322 3.61827 0
M  V30 23528 O 2362.17 3.27143 4.67262 0
M  V30 23529 O 2361.1 4.85647 3.5557 0
M  V30 23530 H 2364.93 2.90494 0.885835 0
M  V30 23531 H 2362.51 1.44682 0.372492 0
M  V30 23532 H 2364.39 2.59635 3.31915 0
M  V30 23533 H 2363.07 1.48562 2.87595 0
M  V30 23534 H 2361.97 3.39734 1.56626 0
M  V30 23535 H 2363.31 4.46157 2.07857 0
M  V30 23536 N 2364.96 -0.433911 1.51509 0
M  V30 23537 C 2365.91 -1.54754 1.73649 0
M  V30 23538 C 2366.9 -1.58309 0.602882 0
M  V30 23539 O 2368.11 -1.62012 0.784346 0
M  V30 23540 H 2364.48 -0.514201 0.548727 0
M  V30 23541 H 2366.45 -1.33256 2.66993 0
M  V30 23542 C 2365.2 -2.92378 1.88177 0
M  V30 23543 H 2364.53 -2.90376 2.74813 0
M  V30 23544 H 2365.97 -3.69656 2.07678 0
M  V30 23545 C 2364.43 -3.30718 0.642448 0
M  V30 23546 O 2364.95 -4.01195 -0.201292 0
M  V30 23547 N 2363.16 -2.86515 0.485539 0
M  V30 23548 H 2362.71 -2.29332 1.17322 0
M  V30 23549 H 2362.67 -3.1253 -0.342427 0
M  V30 23550 N 2366.44 -1.41713 -0.689577 0
M  V30 23551 C 2367.68 -1.41602 -1.45179 0
M  V30 23552 C 2368.02 -0.0270422 -1.94181 0
M  V30 23553 O 2367.29 0.946235 -1.69931 0
M  V30 23554 C 2367.58 -2.42791 -2.65941 0
M  V30 23555 C 2367.43 -3.9082 -2.22665 0
M  V30 23556 C 2368.75 -2.41158 -3.68145 0
M  V30 23557 H 2365.87 -0.515651 -0.526567 0
M  V30 23558 H 2368.51 -1.73029 -0.784917 0
M  V30 23559 H 2366.66 -2.16122 -3.22837 0
M  V30 23560 H 2368.33 -4.28415 -1.7105 0
M  V30 23561 H 2366.57 -4.05397 -1.54387 0
M  V30 23562 H 2367.24 -4.57178 -3.09342 0
M  V30 23563 H 2369.72 -2.64839 -3.20935 0
M  V30 23564 H 2368.6 -3.13963 -4.50242 0
M  V30 23565 H 2368.86 -1.43228 -4.18256 0
M  V30 23566 N 2367.92 0.924431 -1.2764 0
M  V30 23567 C 2368.85 2.02983 -1.06445 0
M  V30 23568 C 2369.86 1.62788 -0.0195057 0
M  V30 23569 O 2371.05 1.76575 -0.261419 0
M  V30 23570 C 2368.15 3.33666 -0.593328 0
M  V30 23571 C 2367.32 4.02534 -1.7113 0
M  V30 23572 C 2366.38 5.11493 -1.23536 0
M  V30 23573 O 2365.41 5.35278 -1.93563 0
M  V30 23574 N 2366.61 5.80426 -0.0927698 0
M  V30 23575 H 2369.38 2.21726 -2.01637 0
M  V30 23576 H 2366.94 1.09503 -1.1925 0
M  V30 23577 H 2368.93 4.03872 -0.258757 0
M  V30 23578 H 2367.5 3.11471 0.265447 0
M  V30 23579 H 2366.72 3.26018 -2.21599 0
M  V30 23580 H 2368.01 4.45293 -2.46153 0
M  V30 23581 H 2367.4 5.6356 0.491642 0
M  V30 23582 H 2365.96 6.51544 0.182599 0
M  V30 23583 N 2369.39 1.09715 1.13139 0
M  V30 23584 C 2370.64 0.83337 1.84118 0
M  V30 23585 C 2370.96 -0.642871 1.84098 0
M  V30 23586 O 2370.23 -1.46653 1.29884 0
M  V30 23587 H 2368.81 0.305305 0.681761 0
M  V30 23588 H 2371.48 1.3859 1.37036 0
M  V30 23589 H 2370.57 1.18956 2.88541 0
M  V30 23590 N 2370.87 -1.30419 0.88479 0
M  V30 23591 C 2372.28 -1.78301 0.553688 0
M  V30 23592 C 2372.63 -1.72752 -0.930122 0
M  V30 23593 O 2371.76 -1.30426 -1.72679 0
M  V30 23594 C 2372.35 -3.23759 0.998291 0
M  V30 23595 C 2370.91 -3.69477 0.718605 0
M  V30 23596 C 2370.06 -2.50876 1.18137 0
M  V30 23597 H 2373.01 -1.17292 1.06903 0
M  V30 23598 H 2373.03 -3.79091 0.327184 0
M  V30 23599 H 2372.54 -3.27765 2.07826 0
M  V30 23600 H 2370.65 -3.70958 -0.349378 0
M  V30 23601 H 2370.76 -4.60955 1.30603 0
M  V30 23602 H 2369.12 -2.47515 0.600713 0
M  V30 23603 H 2369.91 -2.5762 2.26907 0
M  V30 23604 N 2372.35 -0.645724 -1.43764 0
M  V30 23605 C 2373.3 0.0504242 -2.30745 0
M  V30 23606 C 2374.27 0.822216 -1.44322 0
M  V30 23607 O 2375.45 0.800328 -1.73203 0
M  V30 23608 C 2372.59 1.01605 -3.29804 0
M  V30 23609 C 2371.71 0.241144 -4.31326 0
M  V30 23610 C 2370.84 1.19989 -5.17471 0
M  V30 23611 C 2369.88 0.414987 -6.10692 0
M  V30 23612 N 2369.02 1.32494 -6.89485 0
M  V30 23613 H 2373.86 -0.697206 -2.89729 0
M  V30 23614 H 2371.39 -0.355588 -1.42737 0
M  V30 23615 H 2373.35 1.58942 -3.85737 0
M  V30 23616 H 2371.98 1.73064 -2.72486 0
M  V30 23617 H 2371.03 -0.4484 -3.77748 0
M  V30 23618 H 2372.35 -0.369525 -4.97429 0
M  V30 23619 H 2371.5 1.84414 -5.77993 0
M  V30 23620 H 2370.24 1.84447 -4.51476 0
M  V30 23621 H 2369.24 -0.242662 -5.49264 0
M  V30 23622 H 2370.47 -0.225085 -6.78727 0
M  V30 23623 H 2368.41 1.95646 -6.26146 0
M  V30 23624 H 2368.33 0.76865 -7.52082 0
M  V30 23625 H 2369.6 1.95757 -7.54519 0
M  V30 23626 N 2373.83 1.5277 -0.38717 0
M  V30 23627 C 2375.07 2.03463 0.195502 0
M  V30 23628 C 2375.43 1.26747 1.4422 0
M  V30 23629 O 2376.63 1.67553 2.10189 0
M  V30 23630 C 2374.9 3.5444 0.459035 0
M  V30 23631 S 2376.46 4.26964 1.01229 0
M  V30 23632 H 2373.28 0.70885 0.0552551 0
M  V30 23633 H 2375.88 1.88037 -0.535026 0
M  V30 23634 H 2374.59 4.07865 -0.455453 0
M  V30 23635 H 2374.12 3.74069 1.21804 0
M  V30 23636 H 2376.13 4.39945 2.29484 0
M  V30 23637 N 2375.31 0.116931 1.57166 0
M  V30 23638 C 2376.58 -0.585016 1.86647 0
M  V30 23639 C 2376.96 -1.84947 1.01773 0
M  V30 23640 O 2376.31 -2.28298 0.096078 0
M  V30 23641 C 2376.52 -0.879447 3.37738 0
M  V30 23642 C 2377.87 -1.23341 4.06291 0
M  V30 23643 O 2378.89 -0.969775 3.42745 0
M  V30 23644 O 2377.75 -1.72811 5.18458 0
M  V30 23645 H 2374.85 -0.294994 0.772598 0
M  V30 23646 H 2377.39 0.151279 1.69024 0
M  V30 23647 H 2376.16 0.0166824 3.91296 0
M  V30 23648 H 2375.79 -1.67097 3.60783 0
M  V30 23649 N 2376.78 -1.56818 -0.156836 0
M  V30 23650 C 2377.72 -1.94108 -1.2188 0
M  V30 23651 C 2378.73 -0.835779 -1.39709 0
M  V30 23652 O 2379.92 -1.11421 -1.39455 0
M  V30 23653 C 2377.02 -2.19132 -2.58523 0
M  V30 23654 C 2376.19 -3.50397 -2.61802 0
M  V30 23655 C 2375.25 -3.64077 -3.79913 0
M  V30 23656 O 2374.28 -4.36563 -3.65241 0
M  V30 23657 N 2375.48 -3.00006 -4.96967 0
M  V30 23658 H 2378.24 -2.85807 -0.901923 0
M  V30 23659 H 2375.8 -1.58149 -0.346486 0
M  V30 23660 H 2377.8 -2.25534 -3.3603 0
M  V30 23661 H 2376.37 -1.33747 -2.82543 0
M  V30 23662 H 2375.59 -3.55523 -1.70284 0
M  V30 23663 H 2376.87 -4.36747 -2.61016 0
M  V30 23664 H 2376.27 -2.41013 -5.1179 0
M  V30 23665 H 2374.83 -3.11984 -5.72284 0
M  V30 23666 N 2378.26 0.425871 -1.51737 0
M  V30 23667 C 2379.5 1.18368 -1.66638 0
M  V30 23668 C 2379.87 1.88204 -0.379887 0
M  V30 23669 O 2381.07 2.65734 -0.404805 0
M  V30 23670 C 2379.34 2.16471 -2.84385 0
M  V30 23671 S 2380.9 3.00584 -3.19679 0
M  V30 23672 H 2377.72 0.40124 -0.586965 0
M  V30 23673 H 2380.32 0.473484 -1.8968 0
M  V30 23674 H 2379.02 1.63824 -3.76284 0
M  V30 23675 H 2378.55 2.92054 -2.63567 0
M  V30 23676 H 2380.57 4.1824 -2.67001 0
M  V30 23677 N 2379.74 1.42077 0.682052 0
M  V30 23678 C 2380.97 1.45746 1.47556 0
M  V30 23679 C 2381.39 0.0681312 1.87977 0
M  V30 23680 O 2380.75 -0.931773 1.55524 0
M  V30 23681 C 2380.8 2.38378 2.70571 0
M  V30 23682 O 2379.9 1.85014 3.6857 0
M  V30 23683 H 2379.24 0.494101 0.443577 0
M  V30 23684 H 2381.77 1.86687 0.837206 0
M  V30 23685 H 2381.78 2.54712 3.18725 0
M  V30 23686 H 2380.46 3.39319 2.40489 0
M  V30 23687 H 2379.03 1.78198 3.27567 0
M  V30 23688 N 2381.22 -0.917649 1.28129 0
M  V30 23689 C 2382.15 -2.03639 1.14251 0
M  V30 23690 C 2383.13 -1.7005 0.0413047 0
M  V30 23691 O 2384.32 -1.92977 0.217599 0
M  V30 23692 C 2381.45 -3.37973 0.799491 0
M  V30 23693 C 2380.4 -3.8571 1.85504 0
M  V30 23694 C 2379.73 -5.16964 1.36575 0
M  V30 23695 C 2381.03 -4.07997 3.26092 0
M  V30 23696 H 2382.72 -2.15508 2.07839 0
M  V30 23697 H 2380.27 -1.03551 1.00066 0
M  V30 23698 H 2382.22 -4.15726 0.689187 0
M  V30 23699 H 2380.94 -3.26146 -0.172088 0
M  V30 23700 H 2379.6 -3.10158 1.95442 0
M  V30 23701 H 2379.25 -5.01537 0.383341 0
M  V30 23702 H 2378.95 -5.49874 2.07153 0
M  V30 23703 H 2380.47 -5.97277 1.26859 0
M  V30 23704 H 2381.89 -4.76287 3.19098 0
M  V30 23705 H 2380.28 -4.52231 3.9447 0
M  V30 23706 H 2381.35 -3.12941 3.70399 0
M  V30 23707 N 2382.7 -1.10314 -1.12555 0
M  V30 23708 C 2383.95 -0.843123 -1.83673 0
M  V30 23709 C 2384.27 0.633099 -1.84437 0
M  V30 23710 O 2383.54 1.45962 -1.3066 0
M  V30 23711 H 2382.12 -0.308916 -0.680132 0
M  V30 23712 H 2384.78 -1.39315 -1.36299 0
M  V30 23713 H 2383.87 -1.20485 -2.87906 0
M  V30 23714 N 2384.18 1.29948 -0.891694 0
M  V30 23715 C 2385.4 2.00031 -0.528695 0
M  V30 23716 C 2385.82 1.66797 0.884545 0
M  V30 23717 O 2385.18 0.908697 1.58269 0
M  V30 23718 C 2385.23 3.54621 -0.701876 0
M  V30 23719 O 2384.95 3.86674 -2.05948 0
M  V30 23720 C 2386.45 4.41973 -0.342761 0
M  V30 23721 H 2383.67 0.639343 -0.20367 0
M  V30 23722 H 2386.21 1.65675 -1.19884 0
M  V30 23723 H 2384.37 3.87319 -0.0790149 0
M  V30 23724 H 2384.78 4.81364 -2.083 0
M  V30 23725 H 2386.26 5.49594 -0.514806 0
M  V30 23726 H 2386.73 4.33264 0.719674 0
M  V30 23727 H 2387.34 4.14731 -0.942227 0
M  V30 23728 N 2385.65 0.653339 1.4342 0
M  V30 23729 C 2386.9 0.16678 2.01812 0
M  V30 23730 C 2387.23 -1.21929 1.51538 0
M  V30 23731 O 2386.48 -1.82791 0.699007 0
M  V30 23732 C 2386.78 0.126686 3.57175 0
M  V30 23733 C 2386.45 1.45451 4.26796 0
M  V30 23734 C 2385.11 1.81813 4.45531 0
M  V30 23735 C 2387.46 2.32997 4.66221 0
M  V30 23736 C 2384.79 3.05386 5.00955 0
M  V30 23737 C 2387.14 3.55862 5.23015 0
M  V30 23738 C 2385.81 3.9242 5.39966 0
M  V30 23739 H 2385.08 0.0610292 0.738483 0
M  V30 23740 H 2387.72 0.84407 1.71894 0
M  V30 23741 H 2386.03 -0.634055 3.86635 0
M  V30 23742 H 2387.73 -0.266653 4.00112 0
M  V30 23743 H 2384.32 1.1616 4.12559 0
M  V30 23744 H 2388.5 2.06195 4.51439 0
M  V30 23745 H 2383.76 3.33759 5.12265 0
M  V30 23746 H 2387.93 4.23917 5.5251 0
M  V30 23747 H 2385.56 4.88252 5.82678 0
M  V30 23748 N 2387.13 -1.52563 0.395266 0
M  V30 23749 C 2388.36 -2.06551 -0.18742 0
M  V30 23750 C 2388.78 -1.26459 -1.39247 0
M  V30 23751 O 2388.14 -0.291182 -1.78946 0
M  V30 23752 C 2388.19 -3.56685 -0.529922 0
M  V30 23753 O 2387.29 -3.79121 -1.623 0
M  V30 23754 H 2386.63 -0.663691 -0.020242 0
M  V30 23755 H 2389.16 -1.9666 0.564461 0
M  V30 23756 H 2389.17 -4.00229 -0.792528 0
M  V30 23757 H 2387.85 -4.14416 0.35106 0
M  V30 23758 H 2386.42 -3.47464 -1.35364 0
M  V30 23759 N 2388.61 -0.125265 -1.57101 0
M  V30 23760 C 2389.54 0.819136 -2.18661 0
M  V30 23761 C 2390.52 1.27279 -1.12846 0
M  V30 23762 O 2391.71 1.33427 -1.41106 0
M  V30 23763 C 2388.84 2.0669 -2.79099 0
M  V30 23764 C 2387.79 1.75081 -3.90552 0
M  V30 23765 C 2387.12 3.0694 -4.37826 0
M  V30 23766 C 2388.42 1.01426 -5.12357 0
M  V30 23767 H 2390.11 0.30615 -2.97831 0
M  V30 23768 H 2387.66 0.145814 -1.4326 0
M  V30 23769 H 2389.61 2.73221 -3.20825 0
M  V30 23770 H 2388.33 2.60324 -1.97228 0
M  V30 23771 H 2386.99 1.10938 -3.49411 0
M  V30 23772 H 2386.64 3.58521 -3.52805 0
M  V30 23773 H 2386.34 2.86562 -5.12987 0
M  V30 23774 H 2387.86 3.74578 -4.82207 0
M  V30 23775 H 2389.28 1.58122 -5.51063 0
M  V30 23776 H 2387.67 0.911214 -5.93142 0
M  V30 23777 H 2388.74 0.00210157 -4.849 0
M  V30 23778 N 2390.09 1.56899 0.148518 0
M  V30 23779 C 2391.36 1.7418 0.889988 0
M  V30 23780 C 2391.74 0.692874 1.99405 0
M  V30 23781 O 2391.09 -0.288465 2.26672 0
M  V30 23782 C 2391.3 3.18186 1.43384 0
M  V30 23783 C 2392.65 3.79825 1.89784 0
M  V30 23784 O 2393.67 3.21605 1.53129 0
M  V30 23785 O 2392.53 4.82098 2.57379 0
M  V30 23786 H 2389.63 0.712126 0.420483 0
M  V30 23787 H 2392.17 1.69166 0.134561 0
M  V30 23788 H 2390.95 3.86025 0.640315 0
M  V30 23789 H 2390.57 3.27619 2.25281 0
M  V30 23790 N 2391.57 -0.417818 1.51961 0
M  V30 23791 C 2392.53 -1.49108 1.74067 0
M  V30 23792 C 2393.53 -1.48757 0.610563 0
M  V30 23793 O 2394.72 -1.50435 0.878347 0
M  V30 23794 C 2391.85 -2.88562 1.81507 0
M  V30 23795 H 2393.04 -1.30803 2.69872 0
M  V30 23796 H 2390.6 -0.64776 1.42245 0
M  V30 23797 H 2391.33 -3.12248 0.875868 0
M  V30 23798 H 2391.12 -2.9022 2.63656 0
M  V30 23799 H 2392.61 -3.66383 2.00382 0
M  V30 23800 N 2393.04 -1.42436 -0.674508 0
M  V30 23801 C 2394.01 -1.45635 -1.76984 0
M  V30 23802 C 2395.01 -0.343898 -1.5708 0
M  V30 23803 O 2396.2 -0.604738 -1.63366 0
M  V30 23804 C 2393.33 -1.28828 -3.1562 0
M  V30 23805 H 2394.52 -2.43161 -1.75535 0
M  V30 23806 H 2392.07 -1.28888 -0.884167 0
M  V30 23807 H 2392.81 -0.322249 -3.22695 0
M  V30 23808 H 2392.59 -2.0945 -3.31471 0
M  V30 23809 H 2394.08 -1.33949 -3.95534 0
M  V30 23810 N 2394.52 0.910841 -1.28614 0
M  V30 23811 C 2395.47 2.03499 -1.12653 0
M  V30 23812 C 2396.46 1.6934 -0.0450352 0
M  V30 23813 O 2397.67 1.7884 -0.204019 0
M  V30 23814 H 2394.04 0.666816 -0.34765 0
M  V30 23815 H 2396.02 2.14102 -2.07853 0
M  V30 23816 C 2394.76 3.38177 -0.808203 0
M  V30 23817 H 2394.09 3.64957 -1.63237 0
M  V30 23818 H 2395.53 4.17554 -0.736499 0
M  V30 23819 C 2393.99 3.33344 0.488168 0
M  V30 23820 O 2394.52 3.7193 1.5176 0
M  V30 23821 N 2392.72 2.8644 0.489959 0
M  V30 23822 H 2392.27 2.55236 -0.348206 0
M  V30 23823 H 2392.23 2.83589 1.35736 0
M  V30 23824 N 2396 1.10909 1.11969 0
M  V30 23825 C 2397.41 0.871475 1.65113 0
M  V30 23826 C 2397.76 -0.597321 1.86886 0
M  V30 23827 O 2396.89 -1.45813 1.59899 0
M  V30 23828 C 2397.48 1.57545 2.99942 0
M  V30 23829 C 2396.04 1.38441 3.50016 0
M  V30 23830 C 2395.19 1.62168 2.24938 0
M  V30 23831 H 2398.14 1.26612 0.956829 0
M  V30 23832 H 2398.16 1.01728 3.66649 0
M  V30 23833 H 2397.67 2.64443 2.84062 0
M  V30 23834 H 2395.77 0.337279 3.7107 0
M  V30 23835 H 2395.89 2.12972 4.29162 0
M  V30 23836 H 2394.25 1.04471 2.32288 0
M  V30 23837 H 2395.03 2.70328 2.11607 0
M  V30 23838 N 2397.48 -1.29474 0.898573 0
M  V30 23839 C 2398.43 -2.27752 0.373859 0
M  V30 23840 C 2399.4 -1.56959 -0.543417 0
M  V30 23841 O 2400.58 -1.84949 -0.468902 0
M  V30 23842 C 2397.72 -3.42848 -0.393588 0
M  V30 23843 C 2396.83 -4.28427 0.554454 0
M  V30 23844 C 2395.97 -5.30702 -0.229933 0
M  V30 23845 C 2395.01 -6.07937 0.712706 0
M  V30 23846 N 2394.14 -7.0209 -0.0372049 0
M  V30 23847 H 2398.98 -2.72015 1.21703 0
M  V30 23848 H 2396.52 -1.33788 0.611479 0
M  V30 23849 H 2398.48 -4.08354 -0.854588 0
M  V30 23850 H 2397.11 -2.99617 -1.20122 0
M  V30 23851 H 2396.16 -3.63105 1.13397 0
M  V30 23852 H 2397.47 -4.82202 1.27605 0
M  V30 23853 H 2396.63 -6.02019 -0.752182 0
M  V30 23854 H 2395.37 -4.77656 -0.984674 0
M  V30 23855 H 2394.37 -5.35484 1.24646 0
M  V30 23856 H 2395.6 -6.63071 1.46676 0
M  V30 23857 H 2393.54 -6.51415 -0.774233 0
M  V30 23858 H 2393.46 -7.53416 0.624506 0
M  V30 23859 H 2394.73 -7.77629 -0.539754 0
M  V30 23860 N 2398.96 -0.660936 -1.43071 0
M  V30 23861 C 2400.2 -0.17713 -2.01322 0
M  V30 23862 C 2400.53 1.21587 -1.52452 0
M  V30 23863 O 2399.8 1.81371 -0.740354 0
M  V30 23864 H 2398.38 -0.0624935 -0.744381 0
M  V30 23865 H 2401.04 -0.854336 -1.75177 0
M  V30 23866 H 2400.13 -0.167695 -3.11649 0
M  V30 23867 N 2400.43 1.52351 -0.403352 0
M  V30 23868 C 2401.67 2.03659 0.173911 0
M  V30 23869 C 2402.04 1.28269 1.42867 0
M  V30 23870 O 2403.24 1.69773 2.084 0
M  V30 23871 C 2401.51 3.54907 0.421416 0
M  V30 23872 S 2403.07 4.28013 0.966952 0
M  V30 23873 H 2399.89 0.709396 0.0477336 0
M  V30 23874 H 2402.49 1.87458 -0.554939 0
M  V30 23875 H 2401.19 4.07359 -0.498687 0
M  V30 23876 H 2400.72 3.75339 1.1783 0
M  V30 23877 H 2402.74 4.42354 2.24805 0
M  V30 23878 N 2401.91 0.133594 1.57033 0
M  V30 23879 C 2403.14 -0.52816 2.00045 0
M  V30 23880 C 2403.56 -1.5929 1.01352 0
M  V30 23881 O 2402.91 -1.82498 0.00851577 0
M  V30 23882 C 2402.96 -1.14104 3.4302 0
M  V30 23883 O 2402.68 -0.118843 4.37939 0
M  V30 23884 C 2404.19 -1.8847 4.01241 0
M  V30 23885 H 2401.41 -0.138649 0.656519 0
M  V30 23886 H 2403.95 0.224232 2.03267 0
M  V30 23887 H 2402.1 -1.84412 3.40692 0
M  V30 23888 H 2402.52 -0.566038 5.21437 0
M  V30 23889 H 2403.99 -2.2666 5.03318 0
M  V30 23890 H 2404.47 -2.76552 3.41198 0
M  V30 23891 H 2405.08 -1.22891 4.07158 0
M  V30 23892 N 2403.39 -1.56975 -0.140195 0
M  V30 23893 C 2404.81 -1.51793 -0.493061 0
M  V30 23894 C 2405.01 -0.843148 -1.83012 0
M  V30 23895 O 2404.06 -0.416537 -2.49041 0
M  V30 23896 C 2405.38 -2.96563 -0.497092 0
M  V30 23897 C 2406.92 -3.07539 -0.582132 0
M  V30 23898 C 2407.4 -4.53828 -0.616759 0
M  V30 23899 N 2408.89 -4.58199 -0.678793 0
M  V30 23900 C 2409.62 -5.68777 -0.726682 0
M  V30 23901 N 2409.12 -6.88906 -0.733502 0
M  V30 23902 N 2410.91 -5.56828 -0.768081 0
M  V30 23903 H 2403.06 -1.99235 0.736143 0
M  V30 23904 H 2405.33 -0.908975 0.269198 0
M  V30 23905 H 2405.03 -3.49216 0.417278 0
M  V30 23906 H 2404.91 -3.52877 -1.33257 0
M  V30 23907 H 2407.29 -2.54901 -1.48692 0
M  V30 23908 H 2407.38 -2.54256 0.280625 0
M  V30 23909 H 2407.02 -5.07106 0.283901 0
M  V30 23910 H 2406.95 -5.049 -1.4961 0
M  V30 23911 H 2409.44 -3.71722 -0.680545 0
M  V30 23912 H 2409.75 -7.68934 -0.77208 0
M  V30 23913 H 2408.1 -6.91453 -0.701268 0
M  V30 23914 H 2411.29 -4.6189 -0.75997 0
M  V30 23915 H 2411.46 -6.43019 -0.801937 0
M  V30 23916 N 2404.87 0.409753 -1.5218 0
M  V30 23917 C 2406.11 1.16594 -1.67885 0
M  V30 23918 C 2406.47 1.87791 -0.399828 0
M  V30 23919 O 2407.67 2.6529 -0.432967 0
M  V30 23920 C 2405.94 2.13443 -2.86665 0
M  V30 23921 S 2407.5 2.97177 -3.22849 0
M  V30 23922 H 2404.32 0.394992 -0.591187 0
M  V30 23923 H 2406.92 0.45334 -1.90171 0
M  V30 23924 H 2405.63 1.59824 -3.78001 0
M  V30 23925 H 2405.16 2.89243 -2.6665 0
M  V30 23926 H 2407.17 4.15385 -2.71422 0
M  V30 23927 N 2406.35 1.42792 0.666944 0
M  V30 23928 C 2407.59 1.4368 1.42696 0
M  V30 23929 C 2407.92 0.0560766 1.94419 0
M  V30 23930 O 2407.18 -0.936801 1.71821 0
M  V30 23931 C 2407.48 2.41474 2.63486 0
M  V30 23932 C 2407.14 3.87674 2.3026 0
M  V30 23933 C 2405.8 4.27495 2.2091 0
M  V30 23934 C 2408.16 4.79862 2.03426 0
M  V30 23935 C 2405.48 5.57475 1.82863 0
M  V30 23936 C 2407.84 6.10191 1.66881 0
M  V30 23937 C 2406.5 6.49004 1.56047 0
M  V30 23938 H 2405.77 0.525764 0.522162 0
M  V30 23939 H 2408.42 1.75784 0.759754 0
M  V30 23940 H 2406.72 2.02726 3.35275 0
M  V30 23941 H 2408.42 2.39422 3.2168 0
M  V30 23942 H 2405.01 3.5615 2.38442 0
M  V30 23943 H 2409.19 4.49878 2.09578 0
M  V30 23944 H 2404.45 5.86399 1.7305 0
M  V30 23945 H 2408.62 6.81106 1.45145 0
M  V30 23946 H 2406.25 7.49629 1.26335 0
M  V30 23947 N 2407.82 -0.904008 1.29095 0
M  V30 23948 C 2409.06 -1.66843 1.18079 0
M  V30 23949 C 2409.43 -1.90172 -0.264326 0
M  V30 23950 O 2410.63 -2.64158 -0.497377 0
M  V30 23951 C 2408.9 -2.98384 1.96727 0
M  V30 23952 S 2410.46 -3.89438 2.02197 0
M  V30 23953 H 2407.28 -0.572873 0.421114 0
M  V30 23954 H 2409.88 -1.0745 1.63324 0
M  V30 23955 H 2408.58 -2.79115 3.00871 0
M  V30 23956 H 2408.11 -3.6282 1.5207 0
M  V30 23957 H 2410.13 -4.83032 1.13553 0
M  V30 23958 N 2409.3 -1.11501 -1.11379 0
M  V30 23959 C 2410.55 -0.864264 -1.8313 0
M  V30 23960 C 2410.88 0.610082 -1.84684 0
M  V30 23961 O 2410.13 1.46644 -1.29592 0
M  V30 23962 C 2410.43 -1.37183 -3.30023 0
M  V30 23963 C 2410.1 -2.85952 -3.48629 0
M  V30 23964 C 2408.76 -3.26575 -3.53415 0
M  V30 23965 C 2411.11 -3.81765 -3.54831 0
M  V30 23966 C 2408.44 -4.61739 -3.61959 0
M  V30 23967 C 2410.79 -5.16746 -3.64906 0
M  V30 23968 C 2409.46 -5.56927 -3.67952 0
M  V30 23969 H 2408.73 -0.316256 -0.670122 0
M  V30 23970 H 2411.37 -1.39353 -1.31351 0
M  V30 23971 H 2409.68 -0.76282 -3.84302 0
M  V30 23972 H 2411.37 -1.15415 -3.84032 0
M  V30 23973 H 2407.96 -2.53527 -3.45575 0
M  V30 23974 H 2412.15 -3.51481 -3.50393 0
M  V30 23975 H 2407.4 -4.92276 -3.62594 0
M  V30 23976 H 2411.58 -5.90823 -3.68648 0
M  V30 23977 H 2409.21 -6.61653 -3.74325 0
M  V30 23978 N 2410.78 1.28995 -0.905426 0
M  V30 23979 C 2412.03 1.94939 -0.533227 0
M  V30 23980 C 2412.35 1.71687 0.924588 0
M  V30 23981 O 2411.62 1.05186 1.65266 0
M  V30 23982 H 2410.2 0.721313 -0.194207 0
M  V30 23983 H 2412.86 1.57139 -1.15297 0
M  V30 23984 H 2411.96 3.03666 -0.720644 0
M  V30 23985 N 2412.26 0.668514 1.42719 0
M  V30 23986 C 2413.22 -0.00444538 2.292 0
M  V30 23987 C 2414.22 -0.735314 1.43003 0
M  V30 23988 O 2415.41 -0.574261 1.64462 0
M  V30 23989 C 2412.54 -1.017 3.25377 0
M  V30 23990 H 2413.74 0.756659 2.90198 0
M  V30 23991 H 2411.29 0.430532 1.50253 0
M  V30 23992 H 2412.03 -1.80681 2.69304 0
M  V30 23993 H 2411.81 -0.496394 3.88945 0
M  V30 23994 H 2413.3 -1.48648 3.90248 0
M  V30 23995 N 2413.74 -1.52135 0.411426 0
M  V30 23996 C 2414.97 -2.06257 -0.16304 0
M  V30 23997 C 2415.38 -1.28128 -1.38668 0
M  V30 23998 O 2414.74 -0.333753 -1.79422 0
M  V30 23999 C 2414.79 -3.57867 -0.511189 0
M  V30 24000 O 2414.51 -4.33041 0.663857 0
M  V30 24001 C 2416.01 -4.28414 -1.13914 0
M  V30 24002 H 2413.23 -0.67072 -0.0193779 0
M  V30 24003 H 2415.77 -1.96012 0.583041 0
M  V30 24004 H 2413.93 -3.68112 -1.20716 0
M  V30 24005 H 2414.34 -5.23174 0.372693 0
M  V30 24006 H 2415.82 -5.35665 -1.33293 0
M  V30 24007 H 2416.29 -3.85037 -2.11289 0
M  V30 24008 H 2416.9 -4.22545 -0.483299 0
M  V30 24009 N 2415.22 -0.14192 -1.5696 0
M  V30 24010 C 2416.13 0.812866 -2.20067 0
M  V30 24011 C 2417.14 1.27554 -1.18346 0
M  V30 24012 O 2418.32 1.33379 -1.50904 0
M  V30 24013 C 2415.38 2.03647 -2.80586 0
M  V30 24014 C 2414.44 1.62352 -3.97417 0
M  V30 24015 C 2413.68 2.78879 -4.55041 0
M  V30 24016 O 2413.9 3.94952 -4.11545 0
M  V30 24017 O 2412.83 2.54644 -5.45381 0
M  V30 24018 H 2416.66 0.305693 -3.02158 0
M  V30 24019 H 2414.24 0.0848537 -1.49159 0
M  V30 24020 H 2416.13 2.75266 -3.19071 0
M  V30 24021 H 2414.8 2.53327 -2.01512 0
M  V30 24022 H 2413.71 0.877711 -3.63658 0
M  V30 24023 H 2415.04 1.17393 -4.77996 0
M  V30 24024 N 2416.69 1.57047 0.131868 0
M  V30 24025 C 2418.11 1.52052 0.485005 0
M  V30 24026 C 2418.31 0.852842 1.82562 0
M  V30 24027 O 2417.37 0.429738 2.48816 0
M  V30 24028 C 2418.68 2.96822 0.481357 0
M  V30 24029 C 2420.23 3.07843 0.565814 0
M  V30 24030 C 2420.7 4.54149 0.592682 0
M  V30 24031 N 2422.19 4.58553 0.654484 0
M  V30 24032 C 2422.93 5.69154 0.696508 0
M  V30 24033 N 2422.42 6.89285 0.696957 0
M  V30 24034 N 2424.22 5.57227 0.738541 0
M  V30 24035 H 2416.37 1.98842 -0.746699 0
M  V30 24036 H 2418.63 0.907535 -0.274015 0
M  V30 24037 H 2418.34 3.4899 -0.435792 0
M  V30 24038 H 2418.21 3.53579 1.31384 0
M  V30 24039 H 2420.6 2.55686 1.47338 0
M  V30 24040 H 2420.68 2.54104 -0.294105 0
M  V30 24041 H 2420.32 5.06948 -0.31079 0
M  V30 24042 H 2420.25 5.05687 1.4693 0
M  V30 24043 H 2422.74 3.72077 0.660822 0
M  V30 24044 H 2423.06 7.69332 0.731291 0
M  V30 24045 H 2421.4 6.91815 0.664588 0
M  V30 24046 H 2424.59 4.62286 0.735464 0
M  V30 24047 H 2424.77 6.43435 0.767825 0
M  V30 24048 N 2418.17 -0.401677 1.52395 0
M  V30 24049 C 2419.41 -1.15702 1.68501 0
M  V30 24050 C 2419.78 -1.87576 0.409781 0
M  V30 24051 O 2420.98 -2.65057 0.44703 0
M  V30 24052 C 2419.25 -2.11919 2.87793 0
M  V30 24053 S 2420.81 -2.95461 3.2442 0
M  V30 24054 H 2417.62 -0.391851 0.593274 0
M  V30 24055 H 2420.23 -0.443248 1.90409 0
M  V30 24056 H 2418.93 -1.57817 3.78843 0
M  V30 24057 H 2418.46 -2.87824 2.6818 0
M  V30 24058 H 2420.48 -4.13939 2.73621 0
M  V30 24059 N 2419.65 -1.43144 -0.659362 0
M  V30 24060 C 2421.07 -1.26409 -0.974315 0
M  V30 24061 C 2421.27 -0.179376 -2.007 0
M  V30 24062 O 2420.32 0.444251 -2.48561 0
M  V30 24063 C 2421.63 -2.62631 -1.46443 0
M  V30 24064 C 2423.18 -2.70113 -1.5814 0
M  V30 24065 C 2423.66 -4.06738 -2.10543 0
M  V30 24066 N 2425.15 -4.08771 -2.17854 0
M  V30 24067 C 2425.88 -5.11314 -2.5951 0
M  V30 24068 N 2425.38 -6.24234 -3.00507 0
M  V30 24069 N 2427.17 -4.98669 -2.59395 0
M  V30 24070 H 2419.32 -2.12386 0.0240901 0
M  V30 24071 H 2421.59 -0.946584 -0.0517899 0
M  V30 24072 H 2421.29 -3.4294 -0.780063 0
M  V30 24073 H 2421.17 -2.87608 -2.44053 0
M  V30 24074 H 2423.55 -1.9014 -2.25679 0
M  V30 24075 H 2423.63 -2.48908 -0.589784 0
M  V30 24076 H 2423.28 -4.87175 -1.43608 0
M  V30 24077 H 2423.21 -4.25303 -3.10523 0
M  V30 24078 H 2425.7 -3.2726 -1.88969 0
M  V30 24079 H 2426.01 -6.98315 -3.31023 0
M  V30 24080 H 2424.36 -6.27715 -2.98326 0
M  V30 24081 H 2427.55 -4.0952 -2.2674 0
M  V30 24082 H 2427.72 -5.78714 -2.91538 0
M  V30 24083 N 2421.13 0.897149 -1.29572 0
M  V30 24084 C 2422.35 1.68654 -1.20708 0
M  V30 24085 C 2422.78 1.86706 0.22855 0
M  V30 24086 O 2422.14 1.38922 1.16492 0
M  V30 24087 C 2422.18 3.04714 -1.92826 0
M  V30 24088 O 2421.29 3.93094 -1.24704 0
M  V30 24089 H 2420.63 0.515809 -0.418135 0
M  V30 24090 H 2423.16 1.12057 -1.71185 0
M  V30 24091 H 2423.17 3.54839 -2.01378 0
M  V30 24092 H 2421.84 2.90894 -2.97244 0
M  V30 24093 H 2420.42 3.51529 -1.24426 0
M  V30 24094 N 2422.61 1.1209 1.10786 0
M  V30 24095 C 2423.83 0.896981 1.87 0
M  V30 24096 C 2424.26 -0.548229 1.79933 0
M  V30 24097 O 2423.61 -1.38777 1.16665 0
M  V30 24098 C 2423.66 1.3718 3.33488 0
M  V30 24099 O 2422.77 0.547903 4.08744 0
M  V30 24100 H 2422.11 0.322555 0.580391 0
M  V30 24101 H 2424.64 1.49208 1.39993 0
M  V30 24102 H 2424.65 1.36928 3.84337 0
M  V30 24103 H 2423.32 2.42414 3.37947 0
M  V30 24104 H 2421.9 0.617098 3.67758 0
M  V30 24105 N 2424.08 -1.28513 0.912254 0
M  V30 24106 C 2425.31 -1.99702 0.559809 0
M  V30 24107 C 2425.73 -1.6773 -0.851364 0
M  V30 24108 O 2425.09 -0.908862 -1.56874 0
M  V30 24109 C 2425.14 -3.52197 0.773936 0
M  V30 24110 O 2424.24 -4.12059 -0.16777 0
M  V30 24111 H 2423.58 -0.627457 0.217241 0
M  V30 24112 H 2426.11 -1.63704 1.22728 0
M  V30 24113 H 2426.12 -4.02235 0.683457 0
M  V30 24114 H 2424.8 -3.74802 1.80268 0
M  V30 24115 H 2423.38 -3.72889 -0.0286853 0
M  V30 24116 N 2425.56 -0.676073 -1.42362 0
M  V30 24117 C 2426.79 -0.207004 -2.0556 0
M  V30 24118 C 2427.2 1.14145 -1.50889 0
M  V30 24119 O 2426.54 1.72043 -0.643963 0
M  V30 24120 C 2426.61 -0.066014 -3.59439 0
M  V30 24121 C 2426.27 -1.34338 -4.36809 0
M  V30 24122 C 2427.27 -2.27712 -4.67379 0
M  V30 24123 C 2424.95 -1.59133 -4.76426 0
M  V30 24124 C 2426.95 -3.44157 -5.36503 0
M  V30 24125 C 2424.63 -2.75867 -5.45289 0
M  V30 24126 C 2425.63 -3.68203 -5.75253 0
M  V30 24127 O 2425.32 -4.82895 -6.42704 0
M  V30 24128 H 2425.05 -0.0979202 -0.66887 0
M  V30 24129 H 2427.6 -0.923563 -1.83465 0
M  V30 24130 H 2425.83 0.706137 -3.80198 0
M  V30 24131 H 2427.52 0.363347 -4.0427 0
M  V30 24132 H 2428.29 -2.09806 -4.37271 0
M  V30 24133 H 2424.17 -0.881338 -4.52497 0
M  V30 24134 H 2427.71 -4.16247 -5.59807 0
M  V30 24135 H 2423.61 -2.93698 -5.74815 0
M  V30 24136 H 2424.38 -4.82456 -6.61195 0
M  V30 24137 N 2427.04 1.51915 -0.419488 0
M  V30 24138 C 2428.27 2.0634 0.1521 0
M  V30 24139 C 2428.68 1.28861 1.37986 0
M  V30 24140 O 2428.04 0.343263 1.79243 0
M  V30 24141 C 2428.09 3.58134 0.492203 0
M  V30 24142 O 2427.81 4.32683 -0.686812 0
M  V30 24143 C 2429.31 4.29012 1.1164 0
M  V30 24144 H 2426.53 0.670813 0.0158207 0
M  V30 24145 H 2429.08 1.957 -0.593428 0
M  V30 24146 H 2427.23 3.68747 1.18762 0
M  V30 24147 H 2427.65 5.22969 -0.400433 0
M  V30 24148 H 2429.12 5.36364 1.3045 0
M  V30 24149 H 2429.6 3.86152 2.09244 0
M  V30 24150 H 2430.2 4.22795 0.460884 0
M  V30 24151 N 2428.52 0.150242 1.56882 0
M  V30 24152 C 2429.93 -0.206142 1.58263 0
M  V30 24153 C 2430.13 -1.64432 1.16467 0
M  V30 24154 O 2429.19 -2.37168 0.866464 0
M  V30 24155 C 2430.5 0.0555554 3.00649 0
M  V30 24156 C 2432.05 -0.00789886 3.12999 0
M  V30 24157 C 2432.53 0.226509 4.5744 0
M  V30 24158 N 2434.02 0.17355 4.62875 0
M  V30 24159 C 2434.75 0.329388 5.72453 0
M  V30 24160 N 2434.25 0.543127 6.90668 0
M  V30 24161 N 2436.04 0.266765 5.61467 0
M  V30 24162 H 2428.19 1.08925 1.82343 0
M  V30 24163 H 2430.46 0.431428 0.844141 0
M  V30 24164 H 2430.16 1.05102 3.35628 0
M  V30 24165 H 2430.04 -0.662394 3.71338 0
M  V30 24166 H 2432.42 -0.993917 2.77858 0
M  V30 24167 H 2432.5 0.742431 2.44789 0
M  V30 24168 H 2432.15 1.20964 4.93285 0
M  V30 24169 H 2432.08 -0.544182 5.23781 0
M  V30 24170 H 2434.57 0.0131373 3.77898 0
M  V30 24171 H 2434.88 0.652057 7.70044 0
M  V30 24172 H 2433.23 0.579487 6.9258 0
M  V30 24173 H 2436.42 0.100523 4.67992 0
M  V30 24174 H 2436.59 0.391648 6.46815 0
M  V30 24175 N 2430 -1.57115 -0.123538 0
M  V30 24176 C 2430.93 -1.9665 -1.17735 0
M  V30 24177 C 2431.94 -0.865225 -1.37905 0
M  V30 24178 O 2433.13 -1.14354 -1.3706 0
M  V30 24179 C 2430.23 -2.24566 -2.53817 0
M  V30 24180 C 2429.4 -3.55872 -2.54311 0
M  V30 24181 C 2428.46 -3.72054 -3.72105 0
M  V30 24182 O 2427.49 -4.44212 -3.55899 0
M  V30 24183 N 2428.69 -3.1048 -4.90492 0
M  V30 24184 H 2431.46 -2.87655 -0.841097 0
M  V30 24185 H 2429.02 -1.58848 -0.312862 0
M  V30 24186 H 2431.01 -2.32611 -3.31171 0
M  V30 24187 H 2429.58 -1.3971 -2.79642 0
M  V30 24188 H 2428.8 -3.59055 -1.62705 0
M  V30 24189 H 2430.09 -4.42185 -2.51693 0
M  V30 24190 H 2429.48 -2.51815 -5.06563 0
M  V30 24191 H 2428.04 -3.24053 -5.65538 0
M  V30 24192 N 2431.47 0.393589 -1.52606 0
M  V30 24193 C 2432.38 1.50489 -1.79973 0
M  V30 24194 C 2433.4 1.59897 -0.686209 0
M  V30 24195 O 2434.58 1.7632 -0.973305 0
M  V30 24196 C 2431.64 2.86068 -1.95872 0
M  V30 24197 C 2430.7 2.86419 -3.19786 0
M  V30 24198 C 2429.94 4.15532 -3.34916 0
M  V30 24199 O 2430.16 5.10248 -2.54957 0
M  V30 24200 O 2429.09 4.23052 -4.28148 0
M  V30 24201 H 2432.92 1.30294 -2.7433 0
M  V30 24202 H 2430.5 0.58098 -1.37641 0
M  V30 24203 H 2432.39 3.66453 -2.08062 0
M  V30 24204 H 2431.06 3.06298 -1.04704 0
M  V30 24205 H 2429.97 2.04831 -3.13041 0
M  V30 24206 H 2431.3 2.7114 -4.10784 0
M  V30 24207 N 2432.95 1.43492 0.651762 0
M  V30 24208 C 2434.2 1.45186 1.41164 0
M  V30 24209 C 2434.53 0.0766942 1.94349 0
M  V30 24210 O 2433.78 -0.918524 1.72805 0
M  V30 24211 C 2434.08 2.44255 2.6091 0
M  V30 24212 C 2433.75 3.90094 2.26135 0
M  V30 24213 C 2432.41 4.29814 2.16363 0
M  V30 24214 C 2434.76 4.81992 1.98325 0
M  V30 24215 C 2432.09 5.59383 1.7694 0
M  V30 24216 C 2434.44 6.11927 1.604 0
M  V30 24217 C 2433.11 6.50622 1.49154 0
M  V30 24218 H 2432.38 0.531273 0.516556 0
M  V30 24219 H 2435.02 1.7658 0.741068 0
M  V30 24220 H 2433.33 2.0627 3.33106 0
M  V30 24221 H 2435.02 2.42821 3.19122 0
M  V30 24222 H 2431.61 3.58659 2.34652 0
M  V30 24223 H 2435.8 4.52076 2.04795 0
M  V30 24224 H 2431.05 5.88201 1.66821 0
M  V30 24225 H 2435.23 6.82608 1.37913 0
M  V30 24226 H 2432.86 7.50927 1.18377 0
M  V30 24227 N 2434.43 -0.890264 1.30046 0
M  V30 24228 C 2435.68 -1.64404 1.1874 0
M  V30 24229 C 2436.01 -1.92472 -0.258491 0
M  V30 24230 O 2435.28 -1.54188 -1.18559 0
M  V30 24231 C 2435.57 -2.9872 2.01092 0
M  V30 24232 C 2435.42 -2.77659 3.53872 0
M  V30 24233 C 2436.74 -3.99576 1.84464 0
M  V30 24234 H 2433.86 -0.596601 0.432708 0
M  V30 24235 H 2436.5 -1.03057 1.59622 0
M  V30 24236 H 2434.65 -3.51082 1.66355 0
M  V30 24237 H 2436.32 -2.32126 3.98641 0
M  V30 24238 H 2434.57 -2.12263 3.78321 0
M  V30 24239 H 2435.24 -3.73143 4.06778 0
M  V30 24240 H 2437.71 -3.56357 2.14823 0
M  V30 24241 H 2436.59 -4.91478 2.4442 0
M  V30 24242 H 2436.85 -4.34758 0.802353 0
M  V30 24243 N 2435.91 -1.12676 -1.1019 0
M  V30 24244 C 2437.19 -0.794997 -1.78715 0
M  V30 24245 C 2437.57 0.714818 -1.98629 0
M  V30 24246 O 2436.91 1.64939 -1.58138 0
M  V30 24247 C 2437.12 -1.57296 -3.11543 0
M  V30 24248 C 2438.47 -1.76059 -3.86379 0
M  V30 24249 O 2439.5 -1.53829 -3.21271 0
M  V30 24250 O 2438.35 -2.13096 -5.03242 0
M  V30 24251 H 2435.45 -0.289437 -0.774697 0
M  V30 24252 H 2437.99 -1.23093 -1.16817 0
M  V30 24253 H 2436.77 -2.5994 -2.92484 0
M  V30 24254 H 2436.39 -1.13144 -3.81162 0
M  V30 24255 N 2437.39 1.28028 -0.919057 0
M  V30 24256 C 2438.32 2.25407 -0.355926 0
M  V30 24257 C 2439.3 1.53271 0.542847 0
M  V30 24258 O 2440.48 1.82146 0.485306 0
M  V30 24259 C 2437.61 3.35127 0.490701 0
M  V30 24260 C 2436.65 4.25115 -0.343432 0
M  V30 24261 S 2437.49 5.05976 -1.75353 0
M  V30 24262 C 2438.64 6.19185 -0.914352 0
M  V30 24263 H 2438.88 2.72824 -1.18128 0
M  V30 24264 H 2436.41 1.3655 -0.72066 0
M  V30 24265 H 2438.37 3.98794 0.973334 0
M  V30 24266 H 2437.03 2.86365 1.29049 0
M  V30 24267 H 2436.22 5.03081 0.304177 0
M  V30 24268 H 2435.82 3.66198 -0.759916 0
M  V30 24269 H 2438.12 6.77342 -0.146401 0
M  V30 24270 H 2439.06 6.88205 -1.66673 0
M  V30 24271 H 2439.47 5.62621 -0.460181 0
M  V30 24272 N 2438.86 0.683613 1.42002 0
M  V30 24273 C 2439.77 0.0109488 2.34597 0
M  V30 24274 C 2440.79 -0.779218 1.55577 0
M  V30 24275 O 2441.97 -0.719522 1.88109 0
M  V30 24276 C 2439.03 -0.922529 3.34201 0
M  V30 24277 C 2438.09 -0.125908 4.29115 0
M  V30 24278 C 2437.33 -1.01493 5.23961 0
M  V30 24279 O 2437.55 -2.25447 5.23956 0
M  V30 24280 O 2436.48 -0.471004 6.00054 0
M  V30 24281 H 2440.31 0.773904 2.93674 0
M  V30 24282 H 2437.89 0.443886 1.42653 0
M  V30 24283 H 2439.78 -1.45816 3.95368 0
M  V30 24284 H 2438.45 -1.66518 2.77585 0
M  V30 24285 H 2437.36 0.454034 3.71335 0
M  V30 24286 H 2438.69 0.577822 4.88797 0
M  V30 24287 N 2440.34 -1.5169 0.427538 0
M  V30 24288 C 2441.59 -2.01601 -0.141912 0
M  V30 24289 C 2441.91 -1.31417 -1.44065 0
M  V30 24290 O 2441.18 -0.445692 -1.90763 0
M  V30 24291 H 2439.76 -0.74494 -0.0554337 0
M  V30 24292 H 2442.42 -1.8644 0.568001 0
M  V30 24293 H 2441.52 -3.10405 -0.324858 0
M  V30 24294 N 2441.82 -0.15856 -1.568 0
M  V30 24295 C 2443.07 0.483922 -1.97559 0
M  V30 24296 C 2443.42 1.61714 -1.04242 0
M  V30 24297 O 2442.72 1.91434 -0.0796367 0
M  V30 24298 C 2442.91 1.02617 -3.42351 0
M  V30 24299 C 2442.74 -0.0529719 -4.49669 0
M  V30 24300 C 2441.51 -0.498322 -5.02837 0
M  V30 24301 C 2443.71 -0.848705 -5.07249 0
M  V30 24302 N 2441.69 -1.5591 -5.93772 0
M  V30 24303 C 2443.06 -1.75971 -5.94503 0
M  V30 24304 C 2445.11 -0.895207 -4.89786 0
M  V30 24305 C 2443.82 -2.71326 -6.66164 0
M  V30 24306 C 2445.84 -1.83664 -5.62158 0
M  V30 24307 C 2445.21 -2.73514 -6.4913 0
M  V30 24308 H 2441.3 0.145553 -0.768335 0
M  V30 24309 H 2443.89 -0.255833 -1.93012 0
M  V30 24310 H 2442.06 1.73549 -3.4747 0
M  V30 24311 H 2443.79 1.63623 -3.70148 0
M  V30 24312 H 2440.55 -0.0984054 -4.73498 0
M  V30 24313 H 2440.97 -2.0896 -6.43945 0
M  V30 24314 H 2445.61 -0.214604 -4.22255 0
M  V30 24315 H 2443.33 -3.4038 -7.32917 0
M  V30 24316 H 2446.92 -1.87856 -5.50637 0
M  V30 24317 H 2445.8 -3.45175 -7.04147 0
M  V30 24318 N 2443.3 1.57178 0.115204 0
M  V30 24319 C 2444.55 1.85326 0.823537 0
M  V30 24320 C 2444.88 0.744845 1.79348 0
M  V30 24321 O 2444.15 -0.24899 1.929 0
M  V30 24322 C 2444.44 3.24068 1.57008 0
M  V30 24323 C 2444.29 4.45514 0.619486 0
M  V30 24324 C 2445.61 3.60433 2.52539 0
M  V30 24325 H 2442.73 0.674094 0.297936 0
M  V30 24326 H 2445.37 1.89798 0.0876805 0
M  V30 24327 H 2443.52 3.20387 2.19737 0
M  V30 24328 H 2445.19 4.613 0.000756553 0
M  V30 24329 H 2443.43 4.33746 -0.0686937 0
M  V30 24330 H 2444.11 5.39272 1.17856 0
M  V30 24331 H 2446.58 3.6493 1.99914 0
M  V30 24332 H 2445.46 4.58482 3.01803 0
M  V30 24333 H 2445.72 2.88052 3.35378 0
M  V30 24334 N 2444.78 -0.38549 1.52813 0
M  V30 24335 C 2445.71 -1.47749 1.80811 0
M  V30 24336 C 2446.69 -1.56759 0.660346 0
M  V30 24337 O 2447.87 -1.71651 0.908277 0
M  V30 24338 C 2445 -2.85321 1.98013 0
M  V30 24339 C 2443.96 -2.91148 3.13714 0
M  V30 24340 C 2443.28 -4.31204 3.16176 0
M  V30 24341 C 2444.58 -2.60475 4.52714 0
M  V30 24342 H 2446.28 -1.24568 2.72256 0
M  V30 24343 H 2443.82 -0.597816 1.31004 0
M  V30 24344 H 2445.78 -3.61722 2.16183 0
M  V30 24345 H 2444.5 -3.09846 1.03261 0
M  V30 24346 H 2443.16 -2.17195 2.95333 0
M  V30 24347 H 2442.81 -4.52774 2.191 0
M  V30 24348 H 2442.51 -4.36022 3.93901 0
M  V30 24349 H 2444.03 -5.09506 3.36505 0
M  V30 24350 H 2445.45 -3.26593 4.71179 0
M  V30 24351 H 2443.84 -2.76639 5.32533 0
M  V30 24352 H 2444.91 -1.55801 4.59188 0
M  V30 24353 N 2446.26 -1.43835 -0.644143 0
M  V30 24354 C 2447.19 -1.52512 -1.76812 0
M  V30 24355 C 2448.17 -0.379081 -1.65822 0
M  V30 24356 O 2449.35 -0.597498 -1.8478 0
M  V30 24357 C 2446.48 -1.45645 -3.15285 0
M  V30 24358 C 2445.44 -2.58592 -3.41049 0
M  V30 24359 C 2444.76 -2.36778 -4.79417 0
M  V30 24360 C 2446.06 -4.00803 -3.34895 0
M  V30 24361 H 2447.76 -2.46588 -1.69807 0
M  V30 24362 H 2445.3 -1.18681 -0.815521 0
M  V30 24363 H 2447.25 -1.50318 -3.93678 0
M  V30 24364 H 2445.98 -0.480781 -3.23042 0
M  V30 24365 H 2444.64 -2.53287 -2.65031 0
M  V30 24366 H 2444.29 -1.37433 -4.83861 0
M  V30 24367 H 2443.99 -3.12496 -4.97614 0
M  V30 24368 H 2445.51 -2.43248 -5.60056 0
M  V30 24369 H 2446.92 -4.07546 -4.03211 0
M  V30 24370 H 2445.32 -4.76619 -3.64628 0
M  V30 24371 H 2446.39 -4.25295 -2.32921 0
M  V30 24372 N 2447.73 0.883355 -1.30517 0
M  V30 24373 C 2448.96 1.67365 -1.2249 0
M  V30 24374 C 2449.38 1.86938 0.208734 0
M  V30 24375 O 2448.74 1.4015 1.15012 0
M  V30 24376 C 2448.79 3.02652 -1.96047 0
M  V30 24377 O 2447.89 3.91749 -1.28866 0
M  V30 24378 H 2447.23 0.511345 -0.423582 0
M  V30 24379 H 2449.76 1.10236 -1.72364 0
M  V30 24380 H 2449.77 3.52683 -2.05131 0
M  V30 24381 H 2448.45 2.87724 -3.00312 0
M  V30 24382 H 2447.03 3.5019 -1.28147 0
M  V30 24383 N 2449.21 1.13259 1.09591 0
M  V30 24384 C 2450.44 0.91641 1.85498 0
M  V30 24385 C 2450.85 -0.534706 1.8107 0
M  V30 24386 O 2450.21 -1.37005 1.20564 0
M  V30 24387 C 2450.26 1.39394 3.33544 0
M  V30 24388 O 2449.98 2.78819 3.37923 0
M  V30 24389 C 2451.48 1.21595 4.26297 0
M  V30 24390 H 2448.7 0.326898 0.585985 0
M  V30 24391 H 2451.25 1.50473 1.38486 0
M  V30 24392 H 2449.4 0.848664 3.7799 0
M  V30 24393 H 2449.82 2.99978 4.30248 0
M  V30 24394 H 2451.29 1.59885 5.28338 0
M  V30 24395 H 2451.77 0.157453 4.38918 0
M  V30 24396 H 2452.37 1.74917 3.87665 0
M  V30 24397 N 2450.69 -1.27539 0.925834 0
M  V30 24398 C 2451.97 -1.89523 0.483759 0
M  V30 24399 C 2452.35 -1.83814 -1.03806 0
M  V30 24400 O 2451.69 -1.28211 -1.89141 0
M  V30 24401 C 2451.9 -3.33524 1.02774 0
M  V30 24402 C 2453.25 -4.10447 1.08711 0
M  V30 24403 O 2454.28 -3.42533 0.977236 0
M  V30 24404 O 2453.14 -5.31869 1.25608 0
M  V30 24405 H 2450.23 -0.812287 0.155304 0
M  V30 24406 H 2452.78 -1.3582 1.0174 0
M  V30 24407 H 2451.55 -3.31964 2.07161 0
M  V30 24408 H 2451.17 -3.94745 0.475636 0
M  V30 24409 N 2452.17 -0.691135 -1.41637 0
M  V30 24410 C 2453.58 -0.362252 -1.55435 0
M  V30 24411 C 2453.78 1.13114 -1.66756 0
M  V30 24412 O 2452.84 1.91689 -1.64352 0
M  V30 24413 C 2454.15 -1.10689 -2.79586 0
M  V30 24414 C 2455.7 -1.0908 -2.93378 0
M  V30 24415 C 2456.18 -1.8171 -4.20411 0
M  V30 24416 N 2457.67 -1.78658 -4.27359 0
M  V30 24417 C 2458.4 -2.31698 -5.24503 0
M  V30 24418 N 2457.9 -2.9319 -6.27703 0
M  V30 24419 N 2459.69 -2.21979 -5.16412 0
M  V30 24420 H 2451.84 -1.65978 -1.32533 0
M  V30 24421 H 2454.1 -0.700179 -0.639103 0
M  V30 24422 H 2453.81 -2.1618 -2.77415 0
M  V30 24423 H 2453.68 -0.68261 -3.70972 0
M  V30 24424 H 2456.07 -0.0441757 -2.95067 0
M  V30 24425 H 2456.15 -1.55411 -2.03178 0
M  V30 24426 H 2455.8 -2.8635 -4.19483 0
M  V30 24427 H 2455.73 -1.32817 -5.09575 0
M  V30 24428 H 2458.22 -1.33821 -3.53412 0
M  V30 24429 H 2458.53 -3.31241 -6.98211 0
M  V30 24430 H 2456.88 -2.97266 -6.28218 0
M  V30 24431 H 2460.07 -1.73615 -4.34713 0
M  V30 24432 H 2460.24 -2.63619 -5.91953 0
M  V30 24433 N 2453.65 1.51461 -0.435577 0
M  V30 24434 C 2454.58 2.25457 0.412531 0
M  V30 24435 C 2455.59 1.29408 0.987799 0
M  V30 24436 O 2456.78 1.55173 0.882239 0
M  V30 24437 C 2453.88 2.99345 1.58889 0
M  V30 24438 C 2453.05 4.22476 1.13281 0
M  V30 24439 C 2452.11 4.78959 2.17909 0
M  V30 24440 O 2451.14 5.40844 1.77415 0
M  V30 24441 N 2452.34 4.62838 3.50373 0
M  V30 24442 H 2455.1 2.98879 -0.221655 0
M  V30 24443 H 2452.67 1.59727 -0.26437 0
M  V30 24444 H 2454.66 3.34019 2.28502 0
M  V30 24445 H 2453.23 2.28945 2.12845 0
M  V30 24446 H 2452.45 3.93316 0.263812 0
M  V30 24447 H 2453.74 5.02384 0.805454 0
M  V30 24448 H 2453.13 4.13541 3.86006 0
M  V30 24449 H 2451.69 5.01878 4.15886 0
M  V30 24450 N 2455.12 0.166873 1.56714 0
M  V30 24451 C 2456.37 -0.479927 1.97039 0
M  V30 24452 C 2456.7 -1.63195 1.05267 0
M  V30 24453 O 2455.98 -1.94248 0.0989175 0
M  V30 24454 C 2456.26 -0.967151 3.46869 0
M  V30 24455 C 2456.11 0.184739 4.4942 0
M  V30 24456 C 2457.43 -1.84231 3.99683 0
M  V30 24457 H 2454.55 -0.172979 0.716413 0
M  V30 24458 H 2457.19 0.252112 1.8832 0
M  V30 24459 H 2455.34 -1.59095 3.54431 0
M  V30 24460 H 2457.02 0.821701 4.53923 0
M  V30 24461 H 2455.26 0.840912 4.25572 0
M  V30 24462 H 2455.93 -0.19822 5.51644 0
M  V30 24463 H 2458.41 -1.31648 3.94725 0
M  V30 24464 H 2457.28 -2.15226 5.04945 0
M  V30 24465 H 2457.54 -2.78648 3.43231 0
M  V30 24466 N 2456.6 -1.57237 -0.106866 0
M  V30 24467 C 2457.85 -1.8576 -0.813697 0
M  V30 24468 C 2458.18 -0.754346 -1.7895 0
M  V30 24469 O 2457.46 0.238757 -1.93029 0
M  V30 24470 C 2457.74 -3.24897 -1.55288 0
M  V30 24471 C 2457.59 -4.45836 -0.595851 0
M  V30 24472 C 2458.91 -3.61768 -2.50624 0
M  V30 24473 H 2456.03 -0.675665 -0.294357 0
M  V30 24474 H 2458.67 -1.89841 -0.0776138 0
M  V30 24475 H 2456.82 -3.21548 -2.18035 0
M  V30 24476 H 2458.49 -4.61294 0.0237073 0
M  V30 24477 H 2456.74 -4.33703 0.0916953 0
M  V30 24478 H 2457.41 -5.39889 -1.14995 0
M  V30 24479 H 2459.88 -3.65985 -1.97976 0
M  V30 24480 H 2458.76 -4.60076 -2.99368 0
M  V30 24481 H 2459.02 -2.89827 -3.33845 0
M  V30 24482 N 2458.08 0.377381 -1.53015 0
M  V30 24483 C 2459.49 0.95477 -1.6044 0
M  V30 24484 C 2459.84 1.90623 -0.464451 0
M  V30 24485 O 2458.97 2.12464 0.410833 0
M  V30 24486 C 2459.56 1.73842 -2.908 0
M  V30 24487 C 2458.12 2.26533 -3.00599 0
M  V30 24488 C 2457.27 1.07425 -2.55647 0
M  V30 24489 H 2460.22 0.156548 -1.57926 0
M  V30 24490 H 2460.24 2.59865 -2.77939 0
M  V30 24491 H 2459.75 1.04567 -3.73748 0
M  V30 24492 H 2457.85 2.99085 -2.22214 0
M  V30 24493 H 2457.97 2.55223 -4.0546 0
M  V30 24494 H 2456.33 1.43773 -2.10241 0
M  V30 24495 H 2457.11 0.396669 -3.41001 0
M  V30 24496 N 2459.56 1.44175 0.636506 0
M  V30 24497 C 2460.51 1.47064 1.7423 0
M  V30 24498 C 2461.49 0.337061 1.5733 0
M  V30 24499 O 2462.68 0.582002 1.67158 0
M  V30 24500 C 2459.81 1.41252 3.12894 0
M  V30 24501 C 2458.9 2.59704 3.35283 0
M  V30 24502 N 2459.29 3.84978 3.28064 0
M  V30 24503 C 2457.59 2.54785 3.66061 0
M  V30 24504 C 2458.29 4.63874 3.50993 0
M  V30 24505 N 2457.27 3.94863 3.73609 0
M  V30 24506 H 2461.07 2.41775 1.67098 0
M  V30 24507 H 2458.58 1.39062 0.838782 0
M  V30 24508 H 2460.58 1.41405 3.92186 0
M  V30 24509 H 2459.24 0.475747 3.21196 0
M  V30 24510 H 2460.25 4.17024 3.07102 0
M  V30 24511 H 2456.93 1.69877 3.81376 0
M  V30 24512 H 2458.32 5.729 3.51049 0
M  V30 24513 N 2461.04 -0.876421 1.30983 0
M  V30 24514 C 2461.95 -2.01567 1.20033 0
M  V30 24515 C 2462.96 -1.73597 0.11841 0
M  V30 24516 O 2464.14 -1.98595 0.334984 0
M  V30 24517 C 2461.2 -3.34769 0.901696 0
M  V30 24518 C 2460.26 -3.76105 2.06986 0
M  V30 24519 C 2459.5 -5.02951 1.78538 0
M  V30 24520 O 2459.72 -5.65871 0.717396 0
M  V30 24521 O 2458.65 -5.409 2.64028 0
M  V30 24522 H 2462.48 -2.13735 2.15757 0
M  V30 24523 H 2460.07 -1.00373 1.1066 0
M  V30 24524 H 2461.95 -4.14659 0.750718 0
M  V30 24525 H 2460.62 -3.2369 -0.0255572 0
M  V30 24526 H 2459.53 -2.96883 2.27621 0
M  V30 24527 H 2460.86 -3.91801 2.97914 0
M  V30 24528 N 2462.51 -1.13839 -1.08989 0
M  V30 24529 C 2463.93 -0.877529 -1.3331 0
M  V30 24530 C 2464.13 0.484526 -1.95588 0
M  V30 24531 O 2463.19 1.23009 -2.20511 0
M  V30 24532 C 2464.5 -2.00564 -2.24042 0
M  V30 24533 C 2466.05 -2.03825 -2.37538 0
M  V30 24534 C 2466.52 -3.15911 -3.31608 0
M  V30 24535 N 2468.01 -3.15451 -3.39183 0
M  V30 24536 C 2468.75 -3.98818 -4.11985 0
M  V30 24537 N 2468.24 -4.92211 -4.87545 0
M  V30 24538 N 2470.04 -3.86901 -4.07755 0
M  V30 24539 H 2462.19 -2.01575 -0.66942 0
M  V30 24540 H 2464.45 -0.878021 -0.357466 0
M  V30 24541 H 2464.16 -2.98792 -1.85516 0
M  V30 24542 H 2464.03 -1.92364 -3.24462 0
M  V30 24543 H 2466.42 -1.06207 -2.75326 0
M  V30 24544 H 2466.5 -2.16096 -1.36881 0
M  V30 24545 H 2466.14 -4.13771 -2.94543 0
M  V30 24546 H 2466.07 -3.00878 -4.32181 0
M  V30 24547 H 2468.56 -2.47804 -2.8531 0
M  V30 24548 H 2468.88 -5.52302 -5.40539 0
M  V30 24549 H 2467.22 -4.96214 -4.86618 0
M  V30 24550 H 2470.41 -3.13263 -3.47828 0
M  V30 24551 H 2470.59 -4.521 -4.6423 0
M  V30 24552 N 2463.99 1.27046 -0.932584 0
M  V30 24553 C 2464.92 2.25809 -0.392774 0
M  V30 24554 C 2465.94 1.55587 0.479213 0
M  V30 24555 O 2467.13 1.76111 0.291047 0
M  V30 24556 C 2464.23 3.35826 0.455397 0
M  V30 24557 C 2463.4 4.35582 -0.398431 0
M  V30 24558 C 2462.46 5.24768 0.387893 0
M  V30 24559 O 2461.48 5.68827 -0.206103 0
M  V30 24560 N 2462.69 5.5546 1.68654 0
M  V30 24561 H 2465.45 2.72764 -1.24178 0
M  V30 24562 H 2463.01 1.40723 -0.800536 0
M  V30 24563 H 2465 3.92439 0.988623 0
M  V30 24564 H 2463.57 2.88434 1.20517 0
M  V30 24565 H 2462.79 3.78163 -1.11293 0
M  V30 24566 H 2464.08 4.99234 -0.981977 0
M  V30 24567 H 2463.48 5.21531 2.19138 0
M  V30 24568 H 2462.04 6.14752 2.16619 0
M  V30 24569 N 2465.47 0.698636 1.41269 0
M  V30 24570 C 2466.88 0.305321 1.84187 0
M  V30 24571 C 2467.23 -1.15705 1.58451 0
M  V30 24572 O 2466.36 -1.88855 1.05655 0
M  V30 24573 C 2466.95 0.547373 3.34349 0
M  V30 24574 C 2465.51 0.207944 3.75825 0
M  V30 24575 C 2464.66 0.828145 2.64645 0
M  V30 24576 H 2467.61 0.899063 1.30777 0
M  V30 24577 H 2467.63 -0.192931 3.80011 0
M  V30 24578 H 2467.14 1.61178 3.53048 0
M  V30 24579 H 2465.24 -0.852079 3.62726 0
M  V30 24580 H 2465.36 0.665105 4.74461 0
M  V30 24581 H 2463.72 0.257503 2.53395 0
M  V30 24582 H 2464.5 1.89648 2.86161 0
M  V30 24583 N 2466.95 -1.51228 0.443603 0
M  V30 24584 C 2468.2 -2.0174 -0.120522 0
M  V30 24585 C 2468.52 -1.32938 -1.42663 0
M  V30 24586 O 2467.79 -0.4659 -1.90279 0
M  V30 24587 H 2466.37 -0.745486 -0.0475295 0
M  V30 24588 H 2469.03 -1.85827 0.587743 0
M  V30 24589 H 2468.13 -3.10732 -0.291917 0
M  V30 24590 N 2468.43 -0.175182 -1.56623 0
M  V30 24591 C 2469.65 0.474936 -2.01375 0
M  V30 24592 C 2470.07 1.56547 -1.0554 0
M  V30 24593 O 2469.43 1.82411 -0.0568989 0
M  V30 24594 C 2469.48 1.04969 -3.45925 0
M  V30 24595 O 2469.2 0.00268904 -4.381 0
M  V30 24596 C 2470.7 1.77766 -4.06096 0
M  V30 24597 H 2467.92 0.121194 -0.659964 0
M  V30 24598 H 2470.46 -0.278046 -2.02601 0
M  V30 24599 H 2468.62 1.75315 -3.45461 0
M  V30 24600 H 2469.03 0.427589 -5.22754 0
M  V30 24601 H 2470.51 2.13236 -5.09151 0
M  V30 24602 H 2470.98 2.67408 -3.4841 0
M  V30 24603 H 2471.59 1.12052 -4.10274 0
M  V30 24604 N 2469.91 1.57292 0.0985263 0
M  V30 24605 C 2470.82 2.05139 1.13821 0
M  V30 24606 C 2471.83 0.975629 1.44075 0
M  V30 24607 O 2473.01 1.28856 1.54784 0
M  V30 24608 C 2470.07 2.46338 2.43964 0
M  V30 24609 C 2469.13 3.68091 2.20924 0
M  V30 24610 C 2468.37 4.07316 3.44862 0
M  V30 24611 O 2468.59 3.46667 4.52966 0
M  V30 24612 O 2467.52 5.00291 3.34652 0
M  V30 24613 H 2471.35 2.9399 0.761829 0
M  V30 24614 H 2468.93 1.46132 0.310792 0
M  V30 24615 H 2470.82 2.73479 3.20605 0
M  V30 24616 H 2469.49 1.60626 2.81035 0
M  V30 24617 H 2468.4 3.46071 1.42075 0
M  V30 24618 H 2469.73 4.54572 1.88747 0
M  V30 24619 N 2471.38 -0.369261 1.53213 0
M  V30 24620 C 2472.32 -1.47447 1.74169 0
M  V30 24621 C 2473.29 -1.5152 0.58995 0
M  V30 24622 O 2474.48 -1.69628 0.822108 0
M  V30 24623 C 2471.61 -2.85827 1.81716 0
M  V30 24624 C 2470.65 -2.99494 3.03654 0
M  V30 24625 S 2471.48 -2.68632 4.63246 0
M  V30 24626 C 2472.64 -4.09169 4.73637 0
M  V30 24627 H 2472.87 -1.29449 2.67638 0
M  V30 24628 H 2470.41 -0.563371 1.43755 0
M  V30 24629 H 2472.36 -3.65561 1.86749 0
M  V30 24630 H 2471.03 -3.01137 0.893043 0
M  V30 24631 H 2470.22 -4.00831 3.05533 0
M  V30 24632 H 2469.82 -2.27678 2.96714 0
M  V30 24633 H 2472.11 -5.03364 4.53465 0
M  V30 24634 H 2473.06 -4.12296 5.75689 0
M  V30 24635 H 2473.46 -3.95997 4.02301 0
M  V30 24636 N 2472.86 -1.4451 -0.628851 0
M  V30 24637 C 2473.79 -1.54379 -1.75184 0
M  V30 24638 C 2474.77 -0.396647 -1.65411 0
M  V30 24639 O 2475.96 -0.617063 -1.84136 0
M  V30 24640 C 2473.09 -1.48981 -3.13723 0
M  V30 24641 C 2472.04 -2.62195 -3.38287 0
M  V30 24642 C 2471.37 -2.41849 -4.76879 0
M  V30 24643 C 2472.67 -4.04332 -3.30625 0
M  V30 24644 H 2474.36 -2.48376 -1.67182 0
M  V30 24645 H 2471.91 -1.1954 -0.802888 0
M  V30 24646 H 2473.86 -1.54485 -3.92062 0
M  V30 24647 H 2472.58 -0.515017 -3.22514 0
M  V30 24648 H 2471.24 -2.56084 -2.62329 0
M  V30 24649 H 2470.89 -1.42557 -4.82376 0
M  V30 24650 H 2470.59 -3.17756 -4.94272 0
M  V30 24651 H 2472.12 -2.49174 -5.57445 0
M  V30 24652 H 2473.53 -4.118 -3.98866 0
M  V30 24653 H 2471.93 -4.8046 -3.59553 0
M  V30 24654 H 2473 -4.27742 -2.28397 0
M  V30 24655 N 2474.34 0.869463 -1.31446 0
M  V30 24656 C 2475.76 1.15529 -1.10115 0
M  V30 24657 C 2475.96 2.01093 0.128052 0
M  V30 24658 O 2475.01 2.38909 0.817234 0
M  V30 24659 C 2476.32 1.84694 -2.37294 0
M  V30 24660 C 2477.87 1.97393 -2.42909 0
M  V30 24661 C 2478.35 2.69972 -3.69972 0
M  V30 24662 N 2479.84 2.77508 -3.70869 0
M  V30 24663 C 2480.57 3.34279 -4.65881 0
M  V30 24664 N 2480.07 3.91978 -5.71249 0
M  V30 24665 N 2481.86 3.32242 -4.534 0
M  V30 24666 H 2474.01 0.29931 -2.10281 0
M  V30 24667 H 2476.28 0.195198 -0.927686 0
M  V30 24668 H 2475.98 1.29272 -3.2708 0
M  V30 24669 H 2475.86 2.84968 -2.4713 0
M  V30 24670 H 2478.24 2.51979 -1.53592 0
M  V30 24671 H 2478.32 0.961601 -2.37038 0
M  V30 24672 H 2477.97 2.16054 -4.59656 0
M  V30 24673 H 2477.9 3.71613 -3.7311 0
M  V30 24674 H 2480.39 2.36558 -2.94701 0
M  V30 24675 H 2480.7 4.3341 -6.39825 0
M  V30 24676 H 2479.05 3.90352 -5.75022 0
M  V30 24677 H 2482.24 2.86404 -3.70257 0
M  V30 24678 H 2482.41 3.76188 -5.27623 0
M  V30 24679 N 2475.82 1.14415 1.08383 0
M  V30 24680 C 2476.78 0.834086 2.13485 0
M  V30 24681 C 2477.78 -0.161389 1.59988 0
M  V30 24682 O 2478.97 0.0669881 1.74071 0
M  V30 24683 C 2476.1 0.243414 3.4003 0
M  V30 24684 H 2477.3 1.76555 2.42422 0
M  V30 24685 H 2474.85 0.950211 1.24099 0
M  V30 24686 H 2475.58 -0.696751 3.16727 0
M  V30 24687 H 2475.37 0.960434 3.80155 0
M  V30 24688 H 2476.86 0.0436976 4.17577 0
M  V30 24689 N 2477.3 -1.26549 0.939309 0
M  V30 24690 C 2478.57 -1.89 0.503833 0
M  V30 24691 C 2478.95 -1.84904 -1.01851 0
M  V30 24692 O 2478.3 -1.3021 -1.8777 0
M  V30 24693 C 2478.51 -3.32415 1.06306 0
M  V30 24694 C 2479.86 -4.09271 1.13058 0
M  V30 24695 O 2480.88 -3.41477 1.01351 0
M  V30 24696 O 2479.74 -5.30507 1.31242 0
M  V30 24697 H 2476.84 -0.810594 0.163911 0
M  V30 24698 H 2479.38 -1.34733 1.03175 0
M  V30 24699 H 2478.15 -3.29748 2.1067 0
M  V30 24700 H 2477.78 -3.94218 0.517477 0
M  V30 24701 N 2478.77 -0.706118 -1.40896 0
M  V30 24702 C 2479.7 -0.0620496 -2.33418 0
M  V30 24703 C 2480.68 0.755801 -1.52387 0
M  V30 24704 O 2481.87 0.706642 -1.80887 0
M  V30 24705 C 2479 0.867386 -3.36294 0
M  V30 24706 C 2477.95 0.155857 -4.27716 0
M  V30 24707 C 2477.28 1.20037 -5.21052 0
M  V30 24708 C 2478.58 -0.984239 -5.12943 0
M  V30 24709 H 2480.27 -0.834821 -2.87526 0
M  V30 24710 H 2477.82 -0.4029 -1.38249 0
M  V30 24711 H 2479.77 1.32728 -3.99952 0
M  V30 24712 H 2478.5 1.67194 -2.80559 0
M  V30 24713 H 2477.16 -0.284111 -3.65497 0
M  V30 24714 H 2476.8 1.99773 -4.61627 0
M  V30 24715 H 2476.5 0.729226 -5.83058 0
M  V30 24716 H 2478.03 1.66055 -5.87587 0
M  V30 24717 H 2479.44 -0.604148 -5.70108 0
M  V30 24718 H 2477.84 -1.38314 -5.83943 0
M  V30 24719 H 2478.91 -1.81918 -4.49482 0
M  V30 24720 N 2480.25 1.50991 -0.451617 0
M  V30 24721 C 2481.67 1.59256 -0.104675 0
M  V30 24722 C 2481.87 1.46142 1.38725 0
M  V30 24723 O 2480.92 1.30993 2.15863 0
M  V30 24724 C 2482.24 2.93864 -0.63752 0
M  V30 24725 C 2483.78 3.07211 -0.59922 0
M  V30 24726 C 2484.26 4.44364 -1.10928 0
M  V30 24727 N 2485.75 4.50723 -1.06786 0
M  V30 24728 C 2486.49 5.55199 -1.43324 0
M  V30 24729 N 2485.98 6.67025 -1.87216 0
M  V30 24730 N 2487.77 5.45635 -1.3505 0
M  V30 24731 H 2479.93 1.57759 -1.42217 0
M  V30 24732 H 2482.19 0.744454 -0.586934 0
M  V30 24733 H 2481.89 3.08876 -1.68192 0
M  V30 24734 H 2481.77 3.77135 -0.0702802 0
M  V30 24735 H 2484.16 2.91858 0.436226 0
M  V30 24736 H 2484.24 2.25745 -1.20303 0
M  V30 24737 H 2483.88 4.60464 -2.14326 0
M  V30 24738 H 2483.81 5.24391 -0.481865 0
M  V30 24739 H 2486.3 3.70469 -0.745708 0
M  V30 24740 H 2486.61 7.42782 -2.13295 0
M  V30 24741 H 2484.96 6.68195 -1.91154 0
M  V30 24742 H 2488.15 4.57159 -1.00615 0
M  V30 24743 H 2488.32 6.26942 -1.63852 0
M  V30 24744 N 2481.73 0.183486 1.56528 0
M  V30 24745 C 2482.68 -0.754567 2.15152 0
M  V30 24746 C 2483.66 -1.18441 1.08906 0
M  V30 24747 O 2484.86 -1.14474 1.34999 0
M  V30 24748 C 2481.98 -1.97876 2.80535 0
M  V30 24749 C 2481.07 -1.57036 3.93955 0
M  V30 24750 N 2481.46 -0.872223 4.98223 0
M  V30 24751 C 2479.76 -1.8605 4.05341 0
M  V30 24752 C 2480.46 -0.669276 5.77837 0
M  V30 24753 N 2479.44 -1.21445 5.2986 0
M  V30 24754 H 2483.24 -0.212335 2.93132 0
M  V30 24755 H 2480.75 -0.016744 1.62391 0
M  V30 24756 H 2482.75 -2.66115 3.20918 0
M  V30 24757 H 2481.41 -2.52583 2.04039 0
M  V30 24758 H 2482.42 -0.528942 5.15192 0
M  V30 24759 H 2479.1 -2.42348 3.39961 0
M  V30 24760 H 2480.49 -0.116304 6.71799 0
M  V30 24761 N 2483.21 -1.57342 -0.0901833 0
M  V30 24762 C 2484.45 -1.86613 -0.793949 0
M  V30 24763 C 2484.79 -0.773284 -1.7814 0
M  V30 24764 O 2484.06 0.21827 -1.93271 0
M  V30 24765 C 2484.34 -3.26525 -1.51833 0
M  V30 24766 C 2484.2 -4.46443 -0.548531 0
M  V30 24767 C 2485.52 -3.64405 -2.46773 0
M  V30 24768 H 2482.64 -0.678749 -0.287174 0
M  V30 24769 H 2485.28 -1.89913 -0.0574742 0
M  V30 24770 H 2483.43 -3.23843 -2.14612 0
M  V30 24771 H 2485.1 -4.61243 0.0726324 0
M  V30 24772 H 2483.34 -4.33581 0.13769 0
M  V30 24773 H 2484.01 -5.41078 -1.09262 0
M  V30 24774 H 2486.49 -3.68064 -1.94083 0
M  V30 24775 H 2485.37 -4.63226 -2.94471 0
M  V30 24776 H 2485.63 -2.93352 -3.30753 0
M  V30 24777 N 2484.69 0.36113 -1.53407 0
M  V30 24778 C 2486.1 0.937699 -1.61444 0
M  V30 24779 C 2486.45 1.9012 -0.484643 0
M  V30 24780 O 2485.57 2.12888 0.388275 0
M  V30 24781 C 2486.17 1.70748 -2.92627 0
M  V30 24782 C 2484.73 2.23332 -3.02985 0
M  V30 24783 C 2483.87 1.04707 -2.56772 0
M  V30 24784 H 2486.83 0.139789 -1.58083 0
M  V30 24785 H 2486.85 2.56903 -2.8068 0
M  V30 24786 H 2486.36 1.00597 -3.74836 0
M  V30 24787 H 2484.46 2.96711 -2.25373 0
M  V30 24788 H 2484.57 2.50909 -4.08144 0
M  V30 24789 H 2482.94 1.41535 -2.11754 0
M  V30 24790 H 2483.72 0.360479 -3.41402 0
M  V30 24791 N 2486.16 1.44842 0.621179 0
M  V30 24792 C 2487.07 1.54983 1.76117 0
M  V30 24793 C 2488.09 0.434957 1.68476 0
M  V30 24794 O 2489.27 0.693726 1.89075 0
M  V30 24795 C 2486.33 1.5007 3.12538 0
M  V30 24796 C 2485.39 2.72488 3.31736 0
M  V30 24797 C 2484.63 2.678 4.61648 0
M  V30 24798 O 2484.85 1.74361 5.43097 0
M  V30 24799 O 2483.78 3.58802 4.83265 0
M  V30 24800 H 2487.61 2.51314 1.70514 0
M  V30 24801 H 2485.19 1.272 0.783621 0
M  V30 24802 H 2487.08 1.49889 3.93842 0
M  V30 24803 H 2485.75 0.568862 3.18662 0
M  V30 24804 H 2484.66 2.78235 2.50072 0
M  V30 24805 H 2485.99 3.64752 3.3048 0
M  V30 24806 N 2487.64 -0.862479 1.31905 0
M  V30 24807 C 2488.61 -1.95193 1.20134 0
M  V30 24808 C 2489.61 -1.60302 0.126437 0
M  V30 24809 O 2490.8 -1.70088 0.376264 0
M  V30 24810 C 2487.93 -3.30242 0.845749 0
M  V30 24811 H 2489.12 -2.0706 2.16947 0
M  V30 24812 H 2486.67 -1.0517 1.15624 0
M  V30 24813 H 2487.41 -3.24075 -0.1209 0
M  V30 24814 H 2487.19 -3.56941 1.62282 0
M  V30 24815 H 2488.68 -4.10108 0.78749 0
M  V30 24816 N 2489.12 -1.14988 -1.07775 0
M  V30 24817 C 2490.37 -0.923454 -1.80555 0
M  V30 24818 C 2490.7 0.548304 -1.86299 0
M  V30 24819 O 2489.97 1.40637 -1.34356 0
M  V30 24820 C 2490.26 -1.53305 -3.25837 0
M  V30 24821 C 2490.11 -3.07511 -3.28264 0
M  V30 24822 C 2491.43 -1.21526 -4.22989 0
M  V30 24823 H 2488.55 -0.336906 -0.655487 0
M  V30 24824 H 2491.19 -1.42085 -1.26142 0
M  V30 24825 H 2489.34 -1.11006 -3.72304 0
M  V30 24826 H 2491.01 -3.58686 -2.90073 0
M  V30 24827 H 2489.26 -3.41624 -2.67349 0
M  V30 24828 H 2489.93 -3.45274 -4.30685 0
M  V30 24829 H 2492.4 -1.58107 -3.84891 0
M  V30 24830 H 2491.28 -1.66802 -5.22942 0
M  V30 24831 H 2491.54 -0.131582 -4.41904 0
M  V30 24832 N 2490.6 1.26049 -0.946007 0
M  V30 24833 C 2492.01 1.75456 -0.638127 0
M  V30 24834 C 2492.36 1.76993 0.846641 0
M  V30 24835 O 2491.49 1.38516 1.66259 0
M  V30 24836 C 2492.08 3.18627 -1.15162 0
M  V30 24837 C 2490.64 3.65627 -0.894068 0
M  V30 24838 C 2489.79 2.44954 -1.29972 0
M  V30 24839 H 2492.74 1.12058 -1.12378 0
M  V30 24840 H 2492.76 3.77098 -0.507681 0
M  V30 24841 H 2492.27 3.17476 -2.23227 0
M  V30 24842 H 2490.37 3.72203 0.171992 0
M  V30 24843 H 2490.48 4.54199 -1.52447 0
M  V30 24844 H 2488.85 2.44367 -0.718121 0
M  V30 24845 H 2489.63 2.46501 -2.3894 0
M  V30 24846 N 2492.08 0.71358 1.4052 0
M  V30 24847 C 2492.99 0.0607079 2.34521 0
M  V30 24848 C 2494 -0.746043 1.57195 0
M  V30 24849 O 2495.18 -0.67946 1.89592 0
M  V30 24850 C 2492.24 -0.851432 3.36083 0
M  V30 24851 C 2491.3 -0.0348584 4.29286 0
M  V30 24852 C 2490.54 -0.903557 5.25996 0
M  V30 24853 O 2490.76 -2.14282 5.2862 0
M  V30 24854 O 2489.69 -0.343618 6.00918 0
M  V30 24855 H 2493.52 0.836023 2.91966 0
M  V30 24856 H 2491.11 0.474045 1.4168 0
M  V30 24857 H 2492.99 -1.37397 3.98372 0
M  V30 24858 H 2491.66 -1.60593 2.81055 0
M  V30 24859 H 2490.57 0.532698 3.70288 0
M  V30 24860 H 2491.9 0.681372 4.87461 0
M  V30 24861 N 2493.55 -1.50749 0.459618 0
M  V30 24862 C 2494.52 -2.26826 -0.329053 0
M  V30 24863 C 2495.52 -1.31145 -0.930458 0
M  V30 24864 O 2496.71 -1.5467 -0.801426 0
M  V30 24865 C 2493.84 -3.07691 -1.46763 0
M  V30 24866 H 2495.03 -2.97989 0.337977 0
M  V30 24867 H 2492.59 -1.54837 0.213363 0
M  V30 24868 H 2493.32 -2.40996 -2.17005 0
M  V30 24869 H 2493.11 -3.77992 -1.04231 0
M  V30 24870 H 2494.6 -3.65258 -2.02427 0
M  V30 24871 N 2495.03 -0.191784 -1.56429 0
M  V30 24872 C 2496.28 0.447856 -1.97485 0
M  V30 24873 C 2496.61 1.61857 -1.07855 0
M  V30 24874 O 2495.86 1.9535 -0.116938 0
M  V30 24875 C 2496.16 0.953323 -3.44451 0
M  V30 24876 C 2495.83 -0.103665 -4.50781 0
M  V30 24877 C 2494.49 -0.394107 -4.79583 0
M  V30 24878 C 2496.84 -0.820037 -5.14708 0
M  V30 24879 C 2494.17 -1.40595 -5.69605 0
M  V30 24880 C 2496.52 -1.82101 -6.05823 0
M  V30 24881 C 2495.19 -2.11868 -6.32983 0
M  V30 24882 H 2494.46 0.163882 -0.72265 0
M  V30 24883 H 2497.1 -0.288054 -1.89321 0
M  V30 24884 H 2495.41 1.76744 -3.49669 0
M  V30 24885 H 2497.1 1.45758 -3.73571 0
M  V30 24886 H 2493.69 0.132876 -4.28394 0
M  V30 24887 H 2497.88 -0.608875 -4.92551 0
M  V30 24888 H 2493.13 -1.64253 -5.88923 0
M  V30 24889 H 2497.31 -2.38135 -6.54419 0
M  V30 24890 H 2494.94 -2.9042 -7.02539 0
M  V30 24891 N 2496.51 1.57387 0.0818378 0
M  V30 24892 C 2497.92 1.75575 0.63484 0
M  V30 24893 C 2498.27 0.815841 1.78433 0
M  V30 24894 O 2497.4 -0.00249857 2.164 0
M  V30 24895 C 2497.99 3.18381 1.1584 0
M  V30 24896 C 2496.55 3.37948 1.65735 0
M  V30 24897 C 2495.7 2.71326 0.572501 0
M  V30 24898 H 2498.65 1.58043 -0.144295 0
M  V30 24899 H 2498.67 3.21986 2.02745 0
M  V30 24900 H 2498.18 3.86766 0.321564 0
M  V30 24901 H 2496.28 2.74663 2.51776 0
M  V30 24902 H 2496.4 4.46339 1.74121 0
M  V30 24903 H 2494.76 2.33596 1.01514 0
M  V30 24904 H 2495.54 3.42359 -0.253978 0
M  V30 24905 N 2497.99 -0.35299 1.53596 0
M  V30 24906 C 2498.9 -1.45664 1.839 0
M  V30 24907 C 2499.91 -1.58022 0.728362 0
M  V30 24908 O 2501.09 -1.73677 1.01971 0
M  V30 24909 C 2498.16 -2.80775 2.03388 0
M  V30 24910 C 2497.22 -2.77839 3.27267 0
M  V30 24911 C 2496.45 -4.06506 3.45816 0
M  V30 24912 O 2496.67 -5.03309 2.68396 0
M  V30 24913 O 2495.61 -4.11551 4.39214 0
M  V30 24914 H 2499.43 -1.22975 2.77688 0
M  V30 24915 H 2497.02 -0.544283 1.39133 0
M  V30 24916 H 2498.9 -3.60808 2.17705 0
M  V30 24917 H 2497.57 -3.03415 1.12789 0
M  V30 24918 H 2496.48 -1.9646 3.18362 0
M  V30 24919 H 2497.81 -2.60154 4.17829 0
M  V30 24920 N 2499.47 -1.45169 -0.613489 0
M  V30 24921 C 2500.4 -1.56228 -1.73537 0
M  V30 24922 C 2501.38 -0.414169 -1.64981 0
M  V30 24923 O 2502.56 -0.636558 -1.83471 0
M  V30 24924 C 2499.69 -1.523 -3.12125 0
M  V30 24925 C 2498.65 -2.65768 -3.35487 0
M  V30 24926 C 2497.97 -2.46893 -4.74287 0
M  V30 24927 C 2499.27 -4.07816 -3.26318 0
M  V30 24928 H 2500.97 -2.50135 -1.64538 0
M  V30 24929 H 2498.51 -1.20384 -0.790164 0
M  V30 24930 H 2500.47 -1.58635 -3.90401 0
M  V30 24931 H 2499.19 -0.549195 -3.21949 0
M  V30 24932 H 2497.85 -2.58852 -2.59598 0
M  V30 24933 H 2497.5 -1.47665 -4.80837 0
M  V30 24934 H 2497.2 -3.22981 -4.90874 0
M  V30 24935 H 2498.72 -2.55073 -5.5477 0
M  V30 24936 H 2500.14 -4.16007 -3.94476 0
M  V30 24937 H 2498.53 -4.84247 -3.54437 0
M  V30 24938 H 2499.6 -4.3014 -2.23847 0
M  V30 24939 N 2500.95 0.855472 -1.32361 0
M  V30 24940 C 2502.18 1.63968 -1.25691 0
M  V30 24941 C 2502.58 1.88365 0.177559 0
M  V30 24942 O 2501.93 1.45236 1.12482 0
M  V30 24943 C 2501.99 3.02272 -1.94607 0
M  V30 24944 C 2501.65 3.0092 -3.43942 0
M  V30 24945 C 2502.65 2.77828 -4.3944 0
M  V30 24946 C 2500.33 3.21581 -3.85864 0
M  V30 24947 C 2502.33 2.75399 -5.74834 0
M  V30 24948 C 2500.02 3.18779 -5.21366 0
M  V30 24949 C 2501.01 2.95717 -6.15663 0
M  V30 24950 O 2500.7 2.92787 -7.48686 0
M  V30 24951 H 2500.43 0.517462 -0.434981 0
M  V30 24952 H 2502.99 1.07497 -1.75025 0
M  V30 24953 H 2501.22 3.60529 -1.39842 0
M  V30 24954 H 2502.91 3.62981 -1.81657 0
M  V30 24955 H 2503.67 2.61633 -4.08379 0
M  V30 24956 H 2499.55 3.38558 -3.12889 0
M  V30 24957 H 2503.1 2.57317 -6.48409 0
M  V30 24958 H 2498.99 3.34519 -5.52058 0
M  V30 24959 H 2499.76 3.08746 -7.58036 0
M  V30 24960 N 2502.42 1.15558 1.07164 0
M  V30 24961 C 2503.67 0.942993 1.8022 0
M  V30 24962 C 2504.02 -0.524177 1.85122 0
M  V30 24963 O 2503.32 -1.38367 1.32533 0
M  V30 24964 C 2503.51 1.49337 3.24705 0
M  V30 24965 C 2503.34 3.01253 3.33881 0
M  V30 24966 C 2502.11 3.69817 3.44331 0
M  V30 24967 C 2504.31 3.99023 3.24477 0
M  V30 24968 N 2502.29 5.09524 3.4243 0
M  V30 24969 C 2503.66 5.25059 3.29717 0
M  V30 24970 C 2505.72 3.90967 3.08301 0
M  V30 24971 C 2504.42 6.43979 3.20444 0
M  V30 24972 C 2506.45 5.09447 3.00362 0
M  V30 24973 C 2505.81 6.34359 3.06216 0
M  V30 24974 H 2501.91 0.398743 0.672702 0
M  V30 24975 H 2504.49 1.46796 1.27902 0
M  V30 24976 H 2502.66 0.995012 3.75438 0
M  V30 24977 H 2504.39 1.21942 3.85892 0
M  V30 24978 H 2501.15 3.20415 3.48756 0
M  V30 24979 H 2501.57 5.82497 3.45003 0
M  V30 24980 H 2506.21 2.95257 3.02627 0
M  V30 24981 H 2503.93 7.3992 3.24875 0
M  V30 24982 H 2507.52 5.04976 2.88946 0
M  V30 24983 H 2506.4 7.24498 3.0012 0
M  V30 24984 N 2503.9 -1.25546 0.952678 0
M  V30 24985 C 2504.83 -2.25156 0.428648 0
M  V30 24986 C 2505.85 -1.5633 -0.4544 0
M  V30 24987 O 2507.04 -1.76552 -0.262992 0
M  V30 24988 C 2504.14 -3.36508 -0.401912 0
M  V30 24989 C 2503.31 -4.34893 0.467678 0
M  V30 24990 C 2502.37 -5.25319 -0.304358 0
M  V30 24991 O 2501.39 -5.68427 0.296573 0
M  V30 24992 N 2502.6 -5.58073 -1.59796 0
M  V30 24993 H 2505.36 -2.70754 1.28501 0
M  V30 24994 H 2502.92 -1.39432 0.822823 0
M  V30 24995 H 2504.91 -3.93962 -0.926065 0
M  V30 24996 H 2503.48 -2.90315 -1.15913 0
M  V30 24997 H 2502.7 -3.76345 1.17295 0
M  V30 24998 H 2503.99 -4.97609 1.06128 0
M  V30 24999 H 2503.39 -5.24952 -2.10813 0
M  V30 25000 H 2501.95 -6.1812 -2.06811 0
M  V30 25001 N 2505.38 -0.721022 -1.40139 0
M  V30 25002 C 2506.34 -0.0806236 -2.29058 0
M  V30 25003 C 2507.34 0.681733 -1.45633 0
M  V30 25004 O 2508.53 0.512827 -1.6648 0
M  V30 25005 C 2505.66 0.895535 -3.28927 0
M  V30 25006 H 2506.86 -0.863843 -2.87189 0
M  V30 25007 H 2504.41 -0.486001 -1.48552 0
M  V30 25008 H 2505.15 1.70561 -2.75825 0
M  V30 25009 H 2504.93 0.351698 -3.9052 0
M  V30 25010 H 2506.42 1.34062 -3.95496 0
M  V30 25011 N 2506.86 1.50503 -0.467606 0
M  V30 25012 C 2508.27 1.86696 -0.0116494 0
M  V30 25013 C 2508.62 1.38267 1.392 0
M  V30 25014 O 2507.74 0.746168 2.03129 0
M  V30 25015 C 2508.34 3.38797 -0.014364 0
M  V30 25016 C 2506.9 3.74414 0.386109 0
M  V30 25017 C 2506.05 2.7438 -0.401335 0
M  V30 25018 H 2509 1.43296 -0.682047 0
M  V30 25019 H 2509.02 3.72239 0.788576 0
M  V30 25020 H 2508.53 3.74015 -1.03608 0
M  V30 25021 H 2506.63 3.44796 1.41231 0
M  V30 25022 H 2506.74 4.79016 0.0898754 0
M  V30 25023 H 2505.11 2.5429 0.144491 0
M  V30 25024 H 2505.89 3.12442 -1.4225 0
M  V30 25025 N 2508.34 0.200077 1.56325 0
M  V30 25026 C 2509.75 -0.311638 1.84081 0
M  V30 25027 C 2510.1 -1.61029 1.1209 0
M  V30 25028 O 2509.22 -2.12977 0.383358 0
M  V30 25029 C 2509.82 -0.572201 3.33933 0
M  V30 25030 C 2508.38 -1.02827 3.62082 0
M  V30 25031 C 2507.52 -0.0795852 2.77186 0
M  V30 25032 H 2510.47 0.423756 1.52938 0
M  V30 25033 H 2510.5 -1.4209 3.52974 0
M  V30 25034 H 2510.01 0.373147 3.86302 0
M  V30 25035 H 2508.11 -1.98773 3.15151 0
M  V30 25036 H 2508.22 -0.917541 4.70232 0
M  V30 25037 H 2506.59 -0.582404 2.47952 0
M  V30 25038 H 2507.37 0.860297 3.32346 0
M  V30 25039 N 2509.81 -1.57429 -0.0734901 0
M  V30 25040 C 2511.04 -1.91775 -0.789753 0
M  V30 25041 C 2511.46 -0.796336 -1.70412 0
M  V30 25042 O 2510.82 0.250929 -1.79555 0
M  V30 25043 C 2510.87 -3.25069 -1.56084 0
M  V30 25044 O 2509.97 -3.14183 -2.67138 0
M  V30 25045 H 2509.31 -0.628033 -0.215571 0
M  V30 25046 H 2511.84 -2.04556 -0.0422421 0
M  V30 25047 H 2511.85 -3.58902 -1.94045 0
M  V30 25048 H 2510.53 -4.06267 -0.889943 0
M  V30 25049 H 2509.11 -2.91905 -2.32047 0
M  V30 25050 N 2511.29 0.344839 -1.53781 0
M  V30 25051 C 2512.52 1.10371 -1.74648 0
M  V30 25052 C 2512.93 1.8288 -0.484943 0
M  V30 25053 O 2512.27 1.75178 0.553031 0
M  V30 25054 C 2512.33 2.16301 -2.87149 0
M  V30 25055 C 2512 1.63378 -4.26798 0
M  V30 25056 C 2513 1.08679 -5.08414 0
M  V30 25057 C 2510.68 1.68264 -4.73279 0
M  V30 25058 C 2512.67 0.595681 -6.3461 0
M  V30 25059 C 2510.36 1.18765 -5.99448 0
M  V30 25060 C 2511.36 0.645096 -6.79947 0
M  V30 25061 O 2511.05 0.157485 -8.03746 0
M  V30 25062 H 2510.78 0.335064 -0.587118 0
M  V30 25063 H 2513.33 0.403217 -2.01403 0
M  V30 25064 H 2511.56 2.89905 -2.55915 0
M  V30 25065 H 2513.25 2.77742 -2.95997 0
M  V30 25066 H 2514.02 1.04227 -4.73668 0
M  V30 25067 H 2509.9 2.09434 -4.1068 0
M  V30 25068 H 2513.44 0.171532 -6.97389 0
M  V30 25069 H 2509.34 1.22917 -6.33689 0
M  V30 25070 H 2510.11 0.274893 -8.18038 0
M  V30 25071 N 2512.77 1.45492 0.605781 0
M  V30 25072 C 2513.7 1.57146 1.72706 0
M  V30 25073 C 2514.68 0.422913 1.64759 0
M  V30 25074 O 2515.87 0.646279 1.83131 0
M  V30 25075 C 2513 1.53953 3.11313 0
M  V30 25076 C 2511.95 2.67543 3.34073 0
M  V30 25077 C 2511.28 2.49405 4.72971 0
M  V30 25078 C 2512.58 4.09541 3.24151 0
M  V30 25079 H 2514.27 2.51004 1.6321 0
M  V30 25080 H 2511.82 1.20802 0.783769 0
M  V30 25081 H 2513.77 1.60703 3.89554 0
M  V30 25082 H 2512.49 0.566261 3.21654 0
M  V30 25083 H 2511.15 2.60225 2.58222 0
M  V30 25084 H 2510.8 1.50213 4.80047 0
M  V30 25085 H 2510.5 3.25579 4.89154 0
M  V30 25086 H 2512.02 2.58011 5.5341 0
M  V30 25087 H 2513.44 4.18093 3.92264 0
M  V30 25088 H 2511.83 4.86119 3.51863 0
M  V30 25089 H 2512.9 4.31321 2.21563 0
M  V30 25090 N 2514.25 -0.848441 1.32813 0
M  V30 25091 C 2515.5 -1.59989 1.23482 0
M  V30 25092 C 2515.82 -1.93953 -0.201819 0
M  V30 25093 O 2515.09 -1.60155 -1.12815 0
M  V30 25094 H 2513.67 -0.593172 0.454045 0
M  V30 25095 H 2516.33 -1.01452 1.66413 0
M  V30 25096 H 2515.43 -2.53408 1.82183 0
M  V30 25097 N 2515.73 -1.16125 -1.06549 0
M  V30 25098 C 2517 -0.851451 -1.76096 0
M  V30 25099 C 2517.38 0.651264 -2.00803 0
M  V30 25100 O 2516.73 1.59824 -1.63305 0
M  V30 25101 C 2516.94 -1.67128 -3.06381 0
M  V30 25102 C 2518.29 -1.88262 -3.80582 0
M  V30 25103 O 2519.31 -1.63972 -3.16215 0
M  V30 25104 O 2518.17 -2.28999 -4.96208 0
M  V30 25105 H 2515.27 -0.313937 -0.765096 0
M  V30 25106 H 2517.81 -1.26747 -1.12841 0
M  V30 25107 H 2516.58 -2.69113 -2.84066 0
M  V30 25108 H 2516.21 -1.25213 -3.77369 0
M  V30 25109 N 2517.2 1.25039 -0.959323 0
M  V30 25110 C 2518.62 1.45109 -0.664499 0
M  V30 25111 C 2518.82 1.8594 0.776448 0
M  V30 25112 O 2517.88 1.9923 1.55125 0
M  V30 25113 C 2519.19 2.51947 -1.64144 0
M  V30 25114 C 2520.74 2.65783 -1.65314 0
M  V30 25115 C 2521.21 3.7581 -2.61784 0
M  V30 25116 N 2522.7 3.83227 -2.60176 0
M  V30 25117 C 2523.44 4.67864 -3.31498 0
M  V30 25118 N 2522.93 5.56753 -4.12308 0
M  V30 25119 N 2524.73 4.61871 -3.20362 0
M  V30 25120 H 2516.88 0.968299 -1.89044 0
M  V30 25121 H 2519.14 0.486885 -0.813417 0
M  V30 25122 H 2518.85 2.28814 -2.6709 0
M  V30 25123 H 2518.72 3.49951 -1.40762 0
M  V30 25124 H 2521.11 2.88279 -0.630829 0
M  V30 25125 H 2521.19 1.68163 -1.92756 0
M  V30 25126 H 2520.83 3.54065 -3.64144 0
M  V30 25127 H 2520.76 4.72925 -2.31624 0
M  V30 25128 H 2523.25 3.19689 -2.01513 0
M  V30 25129 H 2523.57 6.18273 -4.63636 0
M  V30 25130 H 2521.91 5.56446 -4.16404 0
M  V30 25131 H 2525.1 3.91438 -2.56698 0
M  V30 25132 H 2525.28 5.27608 -3.7621 0
M  V30 25133 N 2518.68 0.728444 1.39755 0
M  V30 25134 C 2519.93 0.273927 2.00941 0
M  V30 25135 C 2520.26 -1.13392 1.57658 0
M  V30 25136 O 2519.54 -1.77174 0.802465 0
M  V30 25137 C 2519.82 0.368409 3.5821 0
M  V30 25138 C 2519.67 1.81555 4.11531 0
M  V30 25139 C 2520.99 -0.252977 4.39372 0
M  V30 25140 H 2518.11 0.101009 0.730045 0
M  V30 25141 H 2520.75 0.923366 1.66054 0
M  V30 25142 H 2518.9 -0.18452 3.88062 0
M  V30 25143 H 2520.57 2.42485 3.92426 0
M  V30 25144 H 2518.82 2.33905 3.65337 0
M  V30 25145 H 2519.49 1.83297 5.20679 0
M  V30 25146 H 2521.96 0.218297 4.15527 0
M  V30 25147 H 2520.84 -0.156489 5.48677 0
M  V30 25148 H 2521.1 -1.33819 4.21361 0
M  V30 25149 N 2520.16 -1.50253 0.475581 0
M  V30 25150 C 2521.39 -2.07255 -0.0776678 0
M  V30 25151 C 2521.81 -1.33662 -1.32348 0
M  V30 25152 O 2521.17 -0.385628 -1.77151 0
M  V30 25153 C 2521.22 -3.58993 -0.340106 0
M  V30 25154 O 2520.32 -3.87191 -1.41975 0
M  V30 25155 H 2519.66 -0.663831 0.0149673 0
M  V30 25156 H 2522.19 -1.93391 0.667912 0
M  V30 25157 H 2522.2 -4.03867 -0.579261 0
M  V30 25158 H 2520.88 -4.11972 0.570239 0
M  V30 25159 H 2519.45 -3.5415 -1.16756 0
M  V30 25160 N 2521.64 -0.208365 -1.56217 0
M  V30 25161 C 2522.86 0.435187 -2.02783 0
M  V30 25162 C 2523.29 1.53483 -1.0874 0
M  V30 25163 O 2522.65 1.81152 -0.0732173 0
M  V30 25164 C 2522.69 0.956274 -3.47689 0
M  V30 25165 O 2521.8 2.06843 -3.56777 0
M  V30 25166 H 2521.14 0.100146 -0.656404 0
M  V30 25167 H 2523.67 -0.323135 -2.02032 0
M  V30 25168 H 2523.68 1.26948 -3.87747 0
M  V30 25169 H 2522.35 0.151357 -4.15624 0
M  V30 25170 H 2520.93 1.76286 -3.286 0
M  V30 25171 N 2523.12 1.57465 0.0651402 0
M  V30 25172 C 2524.35 1.91527 0.77465 0
M  V30 25173 C 2524.75 0.803227 1.71304 0
M  V30 25174 O 2524.1 -0.231849 1.82231 0
M  V30 25175 C 2524.16 3.21112 1.6164 0
M  V30 25176 C 2523.82 4.49088 0.846674 0
M  V30 25177 C 2524.82 5.19645 0.162933 0
M  V30 25178 C 2522.51 4.95695 0.811879 0
M  V30 25179 C 2524.5 6.35063 -0.545301 0
M  V30 25180 C 2522.19 6.11018 0.0998762 0
M  V30 25181 C 2523.18 6.80554 -0.577507 0
M  V30 25182 O 2522.87 7.93676 -1.27803 0
M  V30 25183 H 2522.6 0.63745 0.225019 0
M  V30 25184 H 2525.16 2.05365 0.0376773 0
M  V30 25185 H 2523.39 3.03501 2.39633 0
M  V30 25186 H 2525.08 3.40773 2.20519 0
M  V30 25187 H 2525.84 4.84662 0.181078 0
M  V30 25188 H 2521.72 4.4144 1.32859 0
M  V30 25189 H 2525.27 6.89274 -1.07458 0
M  V30 25190 H 2521.16 6.45451 0.0796811 0
M  V30 25191 H 2521.93 8.09833 -1.18798 0
M  V30 25192 N 2524.59 -0.336679 1.53962 0
M  V30 25193 C 2525.84 -1.07402 1.71199 0
M  V30 25194 C 2526.16 -1.88962 0.481509 0
M  V30 25195 O 2525.43 -1.89291 -0.504552 0
M  V30 25196 H 2524.01 -0.399506 0.631192 0
M  V30 25197 H 2526.68 -0.37629 1.91233 0
M  V30 25198 H 2525.77 -1.74751 2.5859 0
M  V30 25199 N 2526.07 -1.45812 -0.598057 0
M  V30 25200 C 2527.32 -1.50028 -1.3541 0
M  V30 25201 C 2527.64 -0.147211 -1.94444 0
M  V30 25202 O 2526.91 0.82454 -1.77702 0
M  V30 25203 H 2525.49 -0.552526 -0.502717 0
M  V30 25204 H 2528.15 -1.81835 -0.701574 0
M  V30 25205 H 2527.25 -2.24444 -2.16867 0
M  V30 25206 N 2527.55 0.841385 -1.33261 0
M  V30 25207 C 2528.78 1.62861 -1.27608 0
M  V30 25208 C 2529.19 1.88175 0.153474 0
M  V30 25209 O 2528.55 1.46013 1.09482 0
M  V30 25210 C 2528.6 2.98028 -2.04602 0
M  V30 25211 O 2528.32 2.73828 -3.4198 0
M  V30 25212 C 2529.82 3.92461 -2.06129 0
M  V30 25213 H 2527.04 0.506834 -0.439727 0
M  V30 25214 H 2529.59 1.04821 -1.75593 0
M  V30 25215 H 2527.74 3.52677 -1.60305 0
M  V30 25216 H 2528.16 3.59883 -3.81556 0
M  V30 25217 H 2529.63 4.84526 -2.64459 0
M  V30 25218 H 2530.11 4.26442 -1.0509 0
M  V30 25219 H 2530.71 3.43749 -2.50433 0
M  V30 25220 N 2529.03 1.16688 1.05932 0
M  V30 25221 C 2529.96 0.899986 2.15459 0
M  V30 25222 C 2530.94 -0.155124 1.69391 0
M  V30 25223 O 2532.13 -0.00645279 1.94199 0
M  V30 25224 C 2529.26 0.404301 3.44939 0
M  V30 25225 C 2528.21 1.39774 4.04533 0
M  V30 25226 C 2527.54 0.760309 5.29267 0
M  V30 25227 C 2528.84 2.76853 4.42888 0
M  V30 25228 H 2530.53 1.81592 2.38043 0
M  V30 25229 H 2528.08 0.874534 1.14402 0
M  V30 25230 H 2530.03 0.205045 4.20901 0
M  V30 25231 H 2528.75 -0.54715 3.21984 0
M  V30 25232 H 2527.41 1.58361 3.30632 0
M  V30 25233 H 2527.06 -0.197743 5.02611 0
M  V30 25234 H 2526.76 1.42342 5.70099 0
M  V30 25235 H 2528.28 0.571157 6.07923 0
M  V30 25236 H 2529.7 2.62028 5.09916 0
M  V30 25237 H 2528.09 3.39672 4.94715 0
M  V30 25238 H 2529.16 3.31829 3.53578 0
M  V30 25239 N 2530.51 -1.24529 0.96594 0
M  V30 25240 C 2531.92 -1.44754 0.672185 0
M  V30 25241 C 2532.12 -1.86349 -0.766576 0
M  V30 25242 O 2531.18 -2.0005 -1.54066 0
M  V30 25243 C 2532.49 -2.51073 1.65478 0
M  V30 25244 C 2534.04 -2.64902 1.66721 0
M  V30 25245 C 2534.52 -3.74417 2.63773 0
M  V30 25246 N 2536.01 -3.81841 2.62205 0
M  V30 25247 C 2536.74 -4.661 3.33974 0
M  V30 25248 N 2536.24 -5.54559 4.15254 0
M  V30 25249 N 2538.03 -4.60165 3.22807 0
M  V30 25250 H 2530.18 -0.95826 1.89555 0
M  V30 25251 H 2532.44 -0.482565 0.815987 0
M  V30 25252 H 2532.15 -2.27394 2.683 0
M  V30 25253 H 2532.02 -3.492 1.42616 0
M  V30 25254 H 2534.41 -2.8794 0.646108 0
M  V30 25255 H 2534.49 -1.67139 1.93645 0
M  V30 25256 H 2534.14 -3.52129 3.66016 0
M  V30 25257 H 2534.07 -4.7169 2.34129 0
M  V30 25258 H 2536.56 -3.18616 2.03205 0
M  V30 25259 H 2536.87 -6.15805 4.66909 0
M  V30 25260 H 2535.22 -5.5423 4.1935 0
M  V30 25261 H 2538.41 -3.90071 2.58771 0
M  V30 25262 H 2538.58 -5.25605 3.79003 0
M  V30 25263 N 2531.99 -0.735845 -1.39367 0
M  V30 25264 C 2533.22 -0.294002 -2.04497 0
M  V30 25265 C 2533.62 1.07642 -1.55595 0
M  V30 25266 O 2532.97 1.69157 -0.716353 0
M  V30 25267 C 2533.03 -0.218405 -3.58836 0
M  V30 25268 C 2532.69 -1.52744 -4.30718 0
M  V30 25269 C 2533.69 -2.4733 -4.57301 0
M  V30 25270 C 2531.37 -1.79197 -4.69248 0
M  V30 25271 C 2533.37 -3.66602 -5.21423 0
M  V30 25272 C 2531.06 -2.98746 -5.33098 0
M  V30 25273 C 2532.05 -3.9227 -5.59118 0
M  V30 25274 O 2531.74 -5.09719 -6.21644 0
M  V30 25275 H 2531.47 -0.126201 -0.664115 0
M  V30 25276 H 2534.03 -1.00055 -1.79383 0
M  V30 25277 H 2532.26 0.544247 -3.82851 0
M  V30 25278 H 2533.95 0.191555 -4.05448 0
M  V30 25279 H 2534.71 -2.28164 -4.27979 0
M  V30 25280 H 2530.59 -1.07246 -4.48352 0
M  V30 25281 H 2534.14 -4.39616 -5.41649 0
M  V30 25282 H 2530.03 -3.17813 -5.61841 0
M  V30 25283 H 2530.8 -5.10065 -6.40138 0
M  V30 25284 N 2533.46 1.49999 -0.483543 0
M  V30 25285 C 2534.37 2.32554 0.309131 0
M  V30 25286 C 2535.39 1.43495 0.984134 0
M  V30 25287 O 2536.57 1.76537 0.969367 0
M  V30 25288 C 2533.63 3.18495 1.36974 0
M  V30 25289 C 2532.69 4.23388 0.710021 0
M  V30 25290 C 2531.92 5.05221 1.72009 0
M  V30 25291 O 2532.15 4.8831 2.94805 0
M  V30 25292 O 2531.08 5.88022 1.28504 0
M  V30 25293 H 2534.91 3.01485 -0.366117 0
M  V30 25294 H 2532.49 1.47375 -0.245166 0
M  V30 25295 H 2534.37 3.71785 1.98379 0
M  V30 25296 H 2533.05 2.52279 2.02823 0
M  V30 25297 H 2531.96 3.74057 0.0566881 0
M  V30 25298 H 2533.29 4.9211 0.0942692 0
M  V30 25299 N 2534.94 0.216646 1.56104 0
M  V30 25300 C 2535.87 -0.690257 2.23064 0
M  V30 25301 C 2536.85 -1.20483 1.20074 0
M  V30 25302 O 2538.04 -1.24973 1.48645 0
M  V30 25303 C 2535.17 -1.90066 2.90675 0
M  V30 25304 C 2534.12 -1.52013 4.00095 0
M  V30 25305 C 2533.45 -2.80891 4.54977 0
M  V30 25306 C 2534.75 -0.713819 5.17399 0
M  V30 25307 H 2536.44 -0.131985 2.99109 0
M  V30 25308 H 2533.99 -0.0620411 1.43866 0
M  V30 25309 H 2535.94 -2.54051 3.36209 0
M  V30 25310 H 2534.66 -2.48382 2.1207 0
M  V30 25311 H 2533.32 -0.903777 3.55285 0
M  V30 25312 H 2532.97 -3.37342 3.73108 0
M  V30 25313 H 2532.67 -2.56166 5.28822 0
M  V30 25314 H 2534.2 -3.45827 5.03226 0
M  V30 25315 H 2535.61 -1.25725 5.59344 0
M  V30 25316 H 2534.01 -0.563846 5.97445 0
M  V30 25317 H 2535.08 0.280613 4.84087 0
M  V30 25318 N 2536.42 -1.57498 -0.0567885 0
M  V30 25319 C 2537.37 -2.01167 -1.07311 0
M  V30 25320 C 2538.35 -0.896194 -1.33631 0
M  V30 25321 O 2539.55 -1.16012 -1.3368 0
M  V30 25322 C 2536.67 -2.47165 -2.38253 0
M  V30 25323 C 2535.76 -3.65478 -2.15143 0
M  V30 25324 N 2536.15 -4.79153 -1.62005 0
M  V30 25325 C 2534.45 -3.72317 -2.45552 0
M  V30 25326 C 2535.15 -5.60928 -1.54059 0
M  V30 25327 N 2534.13 -5.05216 -2.00643 0
M  V30 25328 H 2537.93 -2.86489 -0.655827 0
M  V30 25329 H 2535.44 -1.60246 -0.263607 0
M  V30 25330 H 2537.44 -2.76697 -3.11841 0
M  V30 25331 H 2536.1 -1.63237 -2.80685 0
M  V30 25332 H 2537.11 -5.01147 -1.30659 0
M  V30 25333 H 2533.79 -2.99134 -2.91248 0
M  V30 25334 H 2535.18 -6.6221 -1.13701 0
M  V30 25335 N 2537.9 0.328509 -1.54138 0
M  V30 25336 C 2539.12 1.09109 -1.7638 0
M  V30 25337 C 2539.55 1.81093 -0.508628 0
M  V30 25338 O 2538.91 1.73085 0.539567 0
M  V30 25339 C 2538.95 2.06867 -2.95361 0
M  V30 25340 O 2538.06 3.14673 -2.66561 0
M  V30 25341 H 2537.4 0.314828 -0.584619 0
M  V30 25342 H 2539.93 0.374313 -2.01147 0
M  V30 25343 H 2539.94 2.49824 -3.22571 0
M  V30 25344 H 2538.61 1.53874 -3.86388 0
M  V30 25345 H 2537.19 2.76426 -2.50286 0
M  V30 25346 N 2539.38 1.46127 0.590316 0
M  V30 25347 C 2540.29 1.58684 1.7279 0
M  V30 25348 C 2541.3 0.470595 1.67515 0
M  V30 25349 O 2542.48 0.733675 1.87561 0
M  V30 25350 C 2539.54 1.56666 3.09284 0
M  V30 25351 C 2538.6 2.79463 3.25881 0
M  V30 25352 C 2537.84 2.77532 4.55864 0
M  V30 25353 O 2538.06 1.85842 5.39276 0
M  V30 25354 O 2536.99 3.68972 4.75545 0
M  V30 25355 H 2540.82 2.54875 1.65144 0
M  V30 25356 H 2538.4 1.28833 0.756463 0
M  V30 25357 H 2540.29 1.58209 3.90574 0
M  V30 25358 H 2538.96 0.636327 3.17384 0
M  V30 25359 H 2537.87 2.83477 2.44114 0
M  V30 25360 H 2539.2 3.7168 3.22668 0
M  V30 25361 N 2540.85 -0.834306 1.33705 0
M  V30 25362 C 2542.08 -1.62182 1.2847 0
M  V30 25363 C 2542.5 -1.88254 -0.143493 0
M  V30 25364 O 2541.85 -1.46592 -1.08706 0
M  V30 25365 C 2541.9 -2.96938 2.06179 0
M  V30 25366 O 2541.63 -2.7201 3.43427 0
M  V30 25367 C 2543.13 -3.91362 2.08208 0
M  V30 25368 H 2540.35 -0.504495 0.442409 0
M  V30 25369 H 2542.89 -1.03888 1.76146 0
M  V30 25370 H 2541.05 -3.51822 1.62173 0
M  V30 25371 H 2541.46 -3.57854 3.83459 0
M  V30 25372 H 2542.93 -4.83117 2.67025 0
M  V30 25373 H 2543.41 -4.25879 1.0735 0
M  V30 25374 H 2544.02 -3.42416 2.52252 0
M  V30 25375 N 2542.33 -1.17248 -1.05312 0
M  V30 25376 C 2543.26 -0.845849 -2.13021 0
M  V30 25377 C 2544.28 0.151217 -1.62096 0
M  V30 25378 O 2545.47 -0.0749132 -1.78343 0
M  V30 25379 C 2542.57 -0.240351 -3.38047 0
M  V30 25380 C 2541.74 -1.27998 -4.18253 0
M  V30 25381 C 2540.8 -0.692467 -5.21624 0
M  V30 25382 O 2539.82 -1.36395 -5.52617 0
M  V30 25383 N 2541.03 0.516076 -5.78201 0
M  V30 25384 H 2543.79 -1.77288 -2.41639 0
M  V30 25385 H 2541.35 -1.07117 -1.21399 0
M  V30 25386 H 2543.34 0.165959 -4.0436 0
M  V30 25387 H 2541.91 0.590433 -3.06973 0
M  V30 25388 H 2541.13 -1.86209 -3.47448 0
M  V30 25389 H 2542.42 -1.98127 -4.6864 0
M  V30 25390 H 2541.82 1.07959 -5.55303 0
M  V30 25391 H 2540.38 0.864466 -6.46042 0
M  V30 25392 N 2543.81 1.24015 -0.972531 0
M  V30 25393 C 2545.23 1.44396 -0.679853 0
M  V30 25394 C 2545.43 1.86753 0.756683 0
M  V30 25395 O 2544.48 2.00864 1.53003 0
M  V30 25396 C 2545.8 2.50192 -1.66807 0
M  V30 25397 C 2547.34 2.64014 -1.68123 0
M  V30 25398 C 2547.82 3.73012 -2.65755 0
M  V30 25399 N 2549.31 3.80446 -2.64226 0
M  V30 25400 C 2550.04 4.64322 -3.36441 0
M  V30 25401 N 2549.54 5.52349 -4.1819 0
M  V30 25402 N 2551.33 4.58447 -3.25243 0
M  V30 25403 H 2543.48 0.948194 -1.90061 0
M  V30 25404 H 2545.75 0.478231 -0.818535 0
M  V30 25405 H 2545.45 2.25968 -2.69502 0
M  V30 25406 H 2545.33 3.48439 -1.44466 0
M  V30 25407 H 2547.71 2.87593 -0.661369 0
M  V30 25408 H 2547.8 1.6611 -1.94528 0
M  V30 25409 H 2547.44 3.50183 -3.67878 0
M  V30 25410 H 2547.37 4.70441 -2.36627 0
M  V30 25411 H 2549.86 3.17534 -2.04892 0
M  V30 25412 H 2550.17 6.13321 -4.70168 0
M  V30 25413 H 2548.52 5.51998 -4.22283 0
M  V30 25414 H 2551.71 3.88693 -2.60836 0
M  V30 25415 H 2551.88 5.23588 -3.81785 0
M  V30 25416 N 2545.29 0.743226 1.38974 0
M  V30 25417 C 2546.54 0.294205 1.99947 0
M  V30 25418 C 2546.86 -1.12492 1.59281 0
M  V30 25419 O 2546.13 -1.76746 0.844839 0
M  V30 25420 H 2544.71 0.105787 0.739472 0
M  V30 25421 H 2547.37 0.955016 1.69898 0
M  V30 25422 H 2546.47 0.349111 3.10141 0
M  V30 25423 N 2546.77 -1.4974 0.491491 0
M  V30 25424 C 2548.04 -1.95238 -0.11895 0
M  V30 25425 C 2548.42 -1.43267 -1.55042 0
M  V30 25426 O 2547.77 -0.642326 -2.19286 0
M  V30 25427 C 2547.98 -3.48975 -0.0413573 0
M  V30 25428 C 2549.33 -4.24029 -0.220059 0
M  V30 25429 O 2550.35 -3.56008 -0.116992 0
M  V30 25430 O 2549.21 -5.44802 -0.430472 0
M  V30 25431 H 2546.31 -0.820868 -0.100521 0
M  V30 25432 H 2548.85 -1.60425 0.553351 0
M  V30 25433 H 2547.62 -3.7941 0.95728 0
M  V30 25434 H 2547.25 -3.90381 -0.754223 0
M  V30 25435 N 2548.24 -0.224922 -1.55987 0
M  V30 25436 C 2549.49 0.406467 -1.98685 0
M  V30 25437 C 2549.82 1.59175 -1.11251 0
M  V30 25438 O 2549.1 1.93747 -0.170943 0
M  V30 25439 C 2549.38 0.837747 -3.5022 0
M  V30 25440 C 2549.23 -0.351411 -4.48425 0
M  V30 25441 C 2550.55 1.6927 -4.06246 0
M  V30 25442 H 2547.67 0.146271 -0.722339 0
M  V30 25443 H 2550.31 -0.321832 -1.87254 0
M  V30 25444 H 2548.46 1.45831 -3.60091 0
M  V30 25445 H 2550.14 -0.989605 -4.5056 0
M  V30 25446 H 2548.38 -0.998281 -4.22157 0
M  V30 25447 H 2549.05 -0.00665608 -5.52 0
M  V30 25448 H 2551.53 1.16907 -3.99339 0
M  V30 25449 H 2550.4 1.96337 -5.12585 0
M  V30 25450 H 2550.66 2.65717 -3.53337 0
M  V30 25451 N 2549.72 1.57526 0.0484352 0
M  V30 25452 C 2550.97 1.88373 0.743092 0
M  V30 25453 C 2551.3 0.819746 1.76381 0
M  V30 25454 O 2550.55 -0.181625 1.94855 0
M  V30 25455 C 2550.85 3.25938 1.46627 0
M  V30 25456 C 2550.52 4.47111 0.583348 0
M  V30 25457 C 2549.18 4.79997 0.340107 0
M  V30 25458 C 2551.53 5.21193 -0.0274261 0
M  V30 25459 C 2548.86 5.84364 -0.523006 0
M  V30 25460 C 2551.21 6.26476 -0.878127 0
M  V30 25461 C 2549.88 6.57848 -1.13102 0
M  V30 25462 H 2549.15 0.689306 0.271917 0
M  V30 25463 H 2551.79 1.915 0.003328 0
M  V30 25464 H 2550.1 3.1871 2.27885 0
M  V30 25465 H 2551.79 3.47048 2.00895 0
M  V30 25466 H 2548.38 4.21386 0.783077 0
M  V30 25467 H 2552.57 4.96081 0.147567 0
M  V30 25468 H 2547.82 6.07057 -0.727441 0
M  V30 25469 H 2552 6.83031 -1.35801 0
M  V30 25470 H 2549.63 7.38544 -1.80157 0
M  V30 25471 N 2551.2 -0.32033 1.5431 0
M  V30 25472 C 2552.45 -1.05946 1.72926 0
M  V30 25473 C 2552.78 -1.87567 0.503218 0
M  V30 25474 O 2552.05 -1.87969 -0.499806 0
M  V30 25475 C 2552.34 -1.9815 3.0068 0
M  V30 25476 C 2552.19 -1.19838 4.33542 0
M  V30 25477 C 2553.51 -2.97625 3.24203 0
M  V30 25478 H 2550.63 -0.383763 0.629202 0
M  V30 25479 H 2553.27 -0.335821 1.87009 0
M  V30 25480 H 2551.42 -2.59854 2.88804 0
M  V30 25481 H 2553.09 -0.605693 4.57306 0
M  V30 25482 H 2551.34 -0.500708 4.30901 0
M  V30 25483 H 2552.01 -1.87558 5.19159 0
M  V30 25484 H 2554.48 -2.46044 3.35562 0
M  V30 25485 H 2553.36 -3.59322 4.14945 0
M  V30 25486 H 2553.62 -3.70256 2.41584 0
M  V30 25487 N 2552.68 -1.46438 -0.582558 0
M  V30 25488 C 2554.09 -1.45918 -1.16468 0
M  V30 25489 C 2554.44 -0.200111 -1.95177 0
M  V30 25490 O 2553.57 0.696783 -2.04875 0
M  V30 25491 C 2554.16 -2.64371 -2.11881 0
M  V30 25492 C 2552.72 -2.66892 -2.65416 0
M  V30 25493 C 2551.87 -2.38605 -1.4129 0
M  V30 25494 H 2554.82 -1.54315 -0.370487 0
M  V30 25495 H 2554.84 -2.39898 -2.95346 0
M  V30 25496 H 2554.35 -3.55993 -1.54567 0
M  V30 25497 H 2552.45 -1.79343 -3.26599 0
M  V30 25498 H 2552.56 -3.6686 -3.08141 0
M  V30 25499 H 2550.93 -1.88666 -1.71105 0
M  V30 25500 H 2551.71 -3.32404 -0.858067 0
M  V30 25501 N 2554.16 0.827204 -1.34146 0
M  V30 25502 C 2555.09 1.9428 -1.1971 0
M  V30 25503 C 2556.07 1.62352 -0.0897542 0
M  V30 25504 O 2557.25 1.86779 -0.254128 0
M  V30 25505 C 2554.38 3.28152 -0.838704 0
M  V30 25506 C 2553.42 3.79044 -1.9552 0
M  V30 25507 S 2554.26 3.99317 -3.568 0
M  V30 25508 C 2555.41 5.36122 -3.22993 0
M  V30 25509 H 2555.65 2.06227 -2.14144 0
M  V30 25510 H 2553.18 0.9823 -1.19123 0
M  V30 25511 H 2555.14 4.05501 -0.638708 0
M  V30 25512 H 2553.8 3.13979 0.0872224 0
M  V30 25513 H 2552.99 4.75945 -1.65808 0
M  V30 25514 H 2552.59 3.08627 -2.11246 0
M  V30 25515 H 2554.89 6.19381 -2.74541 0
M  V30 25516 H 2555.83 5.70815 -4.19018 0
M  V30 25517 H 2556.24 5.01429 -2.59285 0
M  V30 25518 N 2555.63 1.17805 1.04688 0
M  V30 25519 C 2556.54 0.914189 2.16055 0
M  V30 25520 C 2557.56 -0.119472 1.73589 0
M  V30 25521 O 2558.74 0.0609822 2.01308 0
M  V30 25522 C 2555.8 0.436663 3.43939 0
M  V30 25523 C 2554.86 1.53753 4.00822 0
M  V30 25524 C 2554.1 1.0827 5.22603 0
M  V30 25525 O 2554.32 -0.0611242 5.70367 0
M  V30 25526 O 2553.25 1.87785 5.71857 0
M  V30 25527 H 2557.08 1.84588 2.41166 0
M  V30 25528 H 2554.66 0.959354 1.14528 0
M  V30 25529 H 2556.55 0.178131 4.21023 0
M  V30 25530 H 2555.22 -0.466813 3.20316 0
M  V30 25531 H 2554.13 1.85 3.25155 0
M  V30 25532 H 2555.46 2.4169 4.28774 0
M  V30 25533 N 2557.11 -1.23497 0.979094 0
M  V30 25534 C 2558.34 -1.96454 0.66488 0
M  V30 25535 C 2558.76 -1.72007 -0.761256 0
M  V30 25536 O 2558.12 -0.99074 -1.51836 0
M  V30 25537 C 2558.17 -3.47599 0.95954 0
M  V30 25538 O 2557.27 -4.12369 0.0508893 0
M  V30 25539 H 2556.61 -0.615059 0.250196 0
M  V30 25540 H 2559.14 -1.56968 1.31233 0
M  V30 25541 H 2559.15 -3.98046 0.895712 0
M  V30 25542 H 2557.83 -3.64719 1.99882 0
M  V30 25543 H 2556.41 -3.72517 0.169015 0
M  V30 25544 N 2558.59 -0.750586 -1.38578 0
M  V30 25545 C 2560.01 -0.427851 -1.53758 0
M  V30 25546 C 2560.21 1.0594 -1.71403 0
M  V30 25547 O 2559.26 1.84546 -1.72334 0
M  V30 25548 C 2560.58 -1.22448 -2.7464 0
M  V30 25549 C 2562.12 -1.21425 -2.88487 0
M  V30 25550 C 2562.6 -1.99378 -4.12326 0
M  V30 25551 N 2564.09 -1.96623 -4.19397 0
M  V30 25552 C 2564.83 -2.53736 -5.14204 0
M  V30 25553 N 2564.32 -3.1955 -6.14703 0
M  V30 25554 N 2566.11 -2.43682 -5.06533 0
M  V30 25555 H 2558.27 -1.7145 -1.25374 0
M  V30 25556 H 2560.53 -0.726656 -0.608831 0
M  V30 25557 H 2560.23 -2.27752 -2.67996 0
M  V30 25558 H 2560.11 -0.839338 -3.67743 0
M  V30 25559 H 2562.5 -0.169284 -2.94614 0
M  V30 25560 H 2562.58 -1.63888 -1.96403 0
M  V30 25561 H 2562.22 -3.03884 -4.0696 0
M  V30 25562 H 2562.15 -1.54311 -5.03484 0
M  V30 25563 H 2564.64 -1.4869 -3.47419 0
M  V30 25564 H 2564.95 -3.60557 -6.83534 0
M  V30 25565 H 2563.3 -3.23644 -6.15045 0
M  V30 25566 H 2566.49 -1.91896 -4.26958 0
M  V30 25567 H 2566.66 -2.88489 -5.8024 0
M  V30 25568 N 2560.07 1.49477 -0.499425 0
M  V30 25569 C 2561.48 1.8663 -0.0512479 0
M  V30 25570 C 2561.83 1.41189 1.36236 0
M  V30 25571 O 2560.96 0.789087 2.015 0
M  V30 25572 C 2561.55 3.3869 -0.0862246 0
M  V30 25573 C 2560.11 3.75149 0.306604 0
M  V30 25574 C 2559.26 2.73467 -0.459445 0
M  V30 25575 H 2562.21 1.41817 -0.712289 0
M  V30 25576 H 2562.23 3.73828 0.709441 0
M  V30 25577 H 2561.74 3.71733 -1.11518 0
M  V30 25578 H 2559.84 3.47715 1.33885 0
M  V30 25579 H 2559.96 4.79099 -0.0117511 0
M  V30 25580 H 2558.32 2.54539 0.0905198 0
M  V30 25581 H 2559.1 3.09354 -1.48845 0
M  V30 25582 N 2561.55 0.233191 1.55865 0
M  V30 25583 C 2562.82 -0.444954 1.90472 0
M  V30 25584 C 2563.2 -1.76888 1.15212 0
M  V30 25585 O 2562.55 -2.26956 0.265159 0
M  V30 25586 C 2562.76 -0.626499 3.43331 0
M  V30 25587 C 2564.11 -0.928637 4.14321 0
M  V30 25588 O 2565.13 -0.712864 3.48994 0
M  V30 25589 O 2563.99 -1.33877 5.29848 0
M  V30 25590 H 2561.09 -0.236871 0.792351 0
M  V30 25591 H 2563.63 0.27624 1.67437 0
M  V30 25592 H 2562.41 0.306891 3.90095 0
M  V30 25593 H 2562.03 -1.39875 3.72184 0
M  V30 25594 N 2563.03 -1.57549 -0.0400806 0
M  V30 25595 C 2564.27 -1.89044 -0.734178 0
M  V30 25596 C 2564.6 -0.829566 -1.7559 0
M  V30 25597 O 2563.88 0.156672 -1.93868 0
M  V30 25598 C 2564.16 -3.3119 -1.41368 0
M  V30 25599 C 2564.02 -4.47962 -0.406221 0
M  V30 25600 C 2565.33 -3.72072 -2.35054 0
M  V30 25601 H 2562.45 -0.687542 -0.265435 0
M  V30 25602 H 2565.1 -1.9 0.00297427 0
M  V30 25603 H 2563.25 -3.30506 -2.042 0
M  V30 25604 H 2564.92 -4.60778 0.219336 0
M  V30 25605 H 2563.16 -4.32924 0.275561 0
M  V30 25606 H 2563.83 -5.44281 -0.919927 0
M  V30 25607 H 2566.31 -3.74052 -1.82275 0
M  V30 25608 H 2565.18 -4.7236 -2.79585 0
M  V30 25609 H 2565.44 -3.03726 -3.21252 0
M  V30 25610 N 2564.5 0.312142 -1.54478 0
M  V30 25611 C 2565.75 1.05027 -1.73485 0
M  V30 25612 C 2566.08 1.87297 -0.513158 0
M  V30 25613 O 2565.36 1.88231 0.48983 0
M  V30 25614 C 2565.64 1.96553 -3.01727 0
M  V30 25615 C 2565.49 1.17537 -4.34172 0
M  V30 25616 C 2566.81 2.95901 -3.25777 0
M  V30 25617 H 2563.93 0.380421 -0.631228 0
M  V30 25618 H 2566.57 0.325899 -1.87184 0
M  V30 25619 H 2564.72 2.58319 -2.90178 0
M  V30 25620 H 2566.4 0.581432 -4.57621 0
M  V30 25621 H 2564.64 0.477849 -4.3116 0
M  V30 25622 H 2565.31 1.84802 -5.20146 0
M  V30 25623 H 2567.79 2.44261 -3.36862 0
M  V30 25624 H 2566.66 3.57116 -4.16845 0
M  V30 25625 H 2566.92 3.6897 -2.43544 0
M  V30 25626 N 2565.98 1.46745 0.574784 0
M  V30 25627 C 2566.91 1.60774 1.69334 0
M  V30 25628 C 2567.89 0.457765 1.63825 0
M  V30 25629 O 2569.08 0.684979 1.81719 0
M  V30 25630 C 2566.21 1.60522 3.07977 0
M  V30 25631 C 2565.16 2.74569 3.28323 0
M  V30 25632 C 2564.49 2.59382 4.67574 0
M  V30 25633 C 2565.79 4.16324 3.15391 0
M  V30 25634 H 2567.48 2.54409 1.57849 0
M  V30 25635 H 2565.03 1.22437 0.757968 0
M  V30 25636 H 2566.98 1.6893 3.86058 0
M  V30 25637 H 2565.7 0.634361 3.2038 0
M  V30 25638 H 2564.36 2.65644 2.52644 0
M  V30 25639 H 2564.01 1.60362 4.76753 0
M  V30 25640 H 2563.71 3.35882 4.82138 0
M  V30 25641 H 2565.24 2.69692 5.47813 0
M  V30 25642 H 2566.65 4.2632 3.83307 0
M  V30 25643 H 2565.05 4.93474 3.41473 0
M  V30 25644 H 2566.12 4.35924 2.12364 0
M  V30 25645 N 2567.46 -0.820078 1.34583 0
M  V30 25646 C 2568.39 -1.93882 1.22239 0
M  V30 25647 C 2569.4 -1.62119 0.148804 0
M  V30 25648 O 2570.59 -1.7394 0.400908 0
M  V30 25649 C 2567.69 -3.27896 0.8566 0
M  V30 25650 C 2566.87 -3.87662 2.02576 0
M  V30 25651 C 2565.93 -5.00059 1.63791 0
M  V30 25652 O 2564.95 -5.18203 2.35486 0
M  V30 25653 N 2566.15 -5.77853 0.553713 0
M  V30 25654 H 2568.92 -2.05002 2.18619 0
M  V30 25655 H 2566.48 -0.996808 1.27575 0
M  V30 25656 H 2568.47 -4.00539 0.578876 0
M  V30 25657 H 2567.04 -3.12595 -0.0170969 0
M  V30 25658 H 2566.26 -3.07377 2.46805 0
M  V30 25659 H 2567.55 -4.24325 2.8076 0
M  V30 25660 H 2566.95 -5.65684 -0.0422534 0
M  V30 25661 H 2565.5 -6.50935 0.335729 0
M  V30 25662 N 2568.94 -1.18359 -1.04062 0
M  V30 25663 C 2570.19 -0.977044 -1.76913 0
M  V30 25664 C 2570.51 0.494544 -1.88625 0
M  V30 25665 O 2569.78 1.35868 -1.41127 0
M  V30 25666 H 2568.36 -0.358516 -0.655344 0
M  V30 25667 H 2571.02 -1.49041 -1.25589 0
M  V30 25668 H 2570.11 -1.41509 -2.78175 0
M  V30 25669 N 2570.42 1.22976 -0.98563 0
M  V30 25670 C 2571.36 2.26652 -0.522671 0
M  V30 25671 C 2572.36 1.64035 0.422969 0
M  V30 25672 O 2573.56 1.77545 0.296287 0
M  V30 25673 H 2569.94 0.736764 -0.15061 0
M  V30 25674 H 2571.91 2.63057 -1.40867 0
M  V30 25675 C 2570.66 3.47358 0.154177 0
M  V30 25676 H 2569.98 3.95796 -0.564399 0
M  V30 25677 H 2571.42 4.21693 0.441669 0
M  V30 25678 C 2569.88 3.07018 1.38713 0
M  V30 25679 O 2570.41 3.15768 2.48301 0
M  V30 25680 N 2568.62 2.61877 1.25971 0
M  V30 25681 H 2568.16 2.54958 0.368023 0
M  V30 25682 H 2568.12 2.35254 2.08574 0
M  V30 25683 N 2571.89 0.757924 1.38178 0
M  V30 25684 C 2572.83 0.0932579 2.2901 0
M  V30 25685 C 2573.84 -0.67911 1.47959 0
M  V30 25686 O 2575.03 -0.519483 1.70774 0
M  V30 25687 C 2572.13 -0.891863 3.26954 0
M  V30 25688 C 2571.3 -0.176226 4.37045 0
M  V30 25689 C 2570.36 -1.07272 5.1515 0
M  V30 25690 O 2569.39 -0.541629 5.66617 0
M  V30 25691 N 2570.59 -2.4004 5.28546 0
M  V30 25692 H 2573.35 0.873354 2.86693 0
M  V30 25693 H 2570.91 0.60908 1.50006 0
M  V30 25694 H 2572.91 -1.49473 3.76085 0
M  V30 25695 H 2571.48 -1.57301 2.70139 0
M  V30 25696 H 2570.7 0.607397 3.89492 0
M  V30 25697 H 2571.98 0.318807 5.078 0
M  V30 25698 H 2571.38 -2.85639 4.8829 0
M  V30 25699 H 2569.94 -2.95366 5.81036 0
M  V30 25700 N 2573.37 -1.4921 0.507345 0
M  V30 25701 C 2574.31 -2.26023 -0.314469 0
M  V30 25702 C 2575.28 -1.30881 -0.964826 0
M  V30 25703 O 2576.47 -1.60182 -0.993679 0
M  V30 25704 C 2573.59 -3.06404 -1.4434 0
M  V30 25705 C 2572.64 -4.16749 -0.906776 0
M  V30 25706 S 2573.47 -5.35098 0.207487 0
M  V30 25707 C 2574.63 -6.19035 -0.924464 0
M  V30 25708 H 2574.86 -2.95378 0.337468 0
M  V30 25709 H 2572.4 -1.51599 0.292744 0
M  V30 25710 H 2574.35 -3.53298 -2.09023 0
M  V30 25711 H 2573.01 -2.36506 -2.06698 0
M  V30 25712 H 2572.21 -4.72531 -1.75301 0
M  V30 25713 H 2571.81 -3.72478 -0.337055 0
M  V30 25714 H 2574.1 -6.52365 -1.82828 0
M  V30 25715 H 2575.04 -7.0694 -0.405123 0
M  V30 25716 H 2575.45 -5.51714 -1.19466 0
M  V30 25717 N 2574.85 -0.241454 -1.55739 0
M  V30 25718 C 2576.08 0.392076 -2.0366 0
M  V30 25719 C 2576.5 1.51142 -1.11971 0
M  V30 25720 O 2575.86 1.80956 -0.111626 0
M  V30 25721 C 2575.91 0.882309 -3.49639 0
M  V30 25722 O 2575.01 1.99229 -3.61084 0
M  V30 25723 H 2574.35 0.0862006 -0.658381 0
M  V30 25724 H 2576.88 -0.365917 -2.01301 0
M  V30 25725 H 2576.89 1.18695 -3.90353 0
M  V30 25726 H 2575.57 0.063163 -4.15852 0
M  V30 25727 H 2574.14 1.69276 -3.32265 0
M  V30 25728 N 2576.33 1.57568 0.0317248 0
M  V30 25729 C 2577.58 1.88331 0.722098 0
M  V30 25730 C 2577.89 0.839618 1.76663 0
M  V30 25731 O 2579.1 1.03639 2.50941 0
M  V30 25732 C 2577.55 3.34209 1.33538 0
M  V30 25733 C 2577.16 4.46803 0.327336 0
M  V30 25734 C 2578.9 3.74124 2.00579 0
M  V30 25735 C 2576.81 5.83739 0.948812 0
M  V30 25736 H 2575.74 0.702666 0.273453 0
M  V30 25737 H 2578.39 1.83485 -0.0236134 0
M  V30 25738 H 2576.77 3.33792 2.13071 0
M  V30 25739 H 2577.95 4.58684 -0.441086 0
M  V30 25740 H 2576.26 4.15703 -0.240831 0
M  V30 25741 H 2578.86 4.73749 2.47924 0
M  V30 25742 H 2579.2 3.0598 2.8228 0
M  V30 25743 H 2579.74 3.76704 1.27824 0
M  V30 25744 H 2576.48 6.55276 0.171271 0
M  V30 25745 H 2576 5.75583 1.68714 0
M  V30 25746 H 2577.67 6.30383 1.45694 0
M  V30 25747 N 2577.81 -0.303946 1.54641 0
M  V30 25748 C 2579.03 -1.05855 1.7777 0
M  V30 25749 C 2579.45 -1.81039 0.535754 0
M  V30 25750 O 2578.81 -1.75678 -0.494306 0
M  V30 25751 C 2578.86 -2.04141 2.98344 0
M  V30 25752 O 2578.58 -1.32008 4.17739 0
M  V30 25753 C 2580.08 -2.91663 3.33838 0
M  V30 25754 H 2577.3 -0.314057 0.592967 0
M  V30 25755 H 2579.84 -0.344113 2.01584 0
M  V30 25756 H 2578 -2.71091 2.76746 0
M  V30 25757 H 2578.41 -1.97989 4.85696 0
M  V30 25758 H 2579.89 -3.56483 4.21454 0
M  V30 25759 H 2580.36 -3.59808 2.51863 0
M  V30 25760 H 2580.97 -2.30248 3.57583 0
M  V30 25761 N 2579.28 -1.47047 -0.566994 0
M  V30 25762 C 2580.53 -1.53169 -1.32459 0
M  V30 25763 C 2580.86 -0.189875 -1.93571 0
M  V30 25764 O 2580.11 0.816212 -1.77866 0
M  V30 25765 C 2580.41 -2.59052 -2.46225 0
M  V30 25766 C 2580.08 -4.02615 -2.03007 0
M  V30 25767 C 2578.74 -4.41698 -1.90936 0
M  V30 25768 C 2581.09 -4.92735 -1.69886 0
M  V30 25769 C 2578.42 -5.68747 -1.44025 0
M  V30 25770 C 2580.77 -6.20238 -1.2445 0
M  V30 25771 C 2579.44 -6.58212 -1.10967 0
M  V30 25772 H 2578.71 -0.560486 -0.484703 0
M  V30 25773 H 2581.35 -1.806 -0.636856 0
M  V30 25774 H 2579.66 -2.25341 -3.20513 0
M  V30 25775 H 2581.36 -2.61013 -3.04422 0
M  V30 25776 H 2577.95 -3.7173 -2.13342 0
M  V30 25777 H 2582.13 -4.63247 -1.78089 0
M  V30 25778 H 2577.39 -5.96927 -1.32243 0
M  V30 25779 H 2581.56 -6.89487 -0.978802 0
M  V30 25780 H 2579.19 -7.56551 -0.743945 0
M  V30 25781 N 2580.76 0.812929 -1.35016 0
M  V30 25782 C 2581.69 1.93916 -1.30072 0
M  V30 25783 C 2582.67 1.69184 -0.176304 0
M  V30 25784 O 2583.86 1.90638 -0.370261 0
M  V30 25785 C 2580.99 3.30551 -1.06553 0
M  V30 25786 C 2579.94 3.69749 -2.15568 0
M  V30 25787 C 2579.27 5.04476 -1.77223 0
M  V30 25788 C 2580.57 3.80793 -3.57483 0
M  V30 25789 H 2582.26 1.9831 -2.24307 0
M  V30 25790 H 2579.81 0.952717 -1.07978 0
M  V30 25791 H 2581.76 4.08935 -1.01736 0
M  V30 25792 H 2580.49 3.26482 -0.0876293 0
M  V30 25793 H 2579.14 2.93646 -2.19471 0
M  V30 25794 H 2578.79 4.96905 -0.780676 0
M  V30 25795 H 2578.49 5.31674 -2.50194 0
M  V30 25796 H 2580.02 5.85307 -1.7392 0
M  V30 25797 H 2581.43 4.49424 -3.55937 0
M  V30 25798 H 2579.83 4.19455 -4.2916 0
M  V30 25799 H 2580.9 2.82518 -3.94096 0
M  V30 25800 N 2582.24 1.18909 1.03433 0
M  V30 25801 C 2583.15 0.937053 2.15073 0
M  V30 25802 C 2584.17 -0.101054 1.73706 0
M  V30 25803 O 2585.34 0.0823301 2.01232 0
M  V30 25804 C 2582.41 0.473118 3.43457 0
M  V30 25805 C 2581.47 1.57996 3.99169 0
M  V30 25806 C 2580.7 1.13806 5.21425 0
M  V30 25807 O 2580.92 -0.000625679 5.704 0
M  V30 25808 O 2579.86 1.9384 5.69833 0
M  V30 25809 H 2583.68 1.87136 2.39194 0
M  V30 25810 H 2581.27 0.971447 1.13504 0
M  V30 25811 H 2583.15 0.222776 4.20811 0
M  V30 25812 H 2581.83 -0.432813 3.20793 0
M  V30 25813 H 2580.73 1.88439 3.23174 0
M  V30 25814 H 2582.07 2.46224 4.26186 0
M  V30 25815 N 2583.72 -1.22452 0.992137 0
M  V30 25816 C 2585.13 -1.72967 0.702807 0
M  V30 25817 C 2585.48 -1.80013 -0.780368 0
M  V30 25818 O 2584.61 -1.44591 -1.61004 0
M  V30 25819 C 2585.2 -3.14133 1.26909 0
M  V30 25820 C 2583.76 -3.62057 1.02915 0
M  V30 25821 C 2582.91 -2.39962 1.38974 0
M  V30 25822 H 2585.86 -1.0781 1.16459 0
M  V30 25823 H 2585.88 -3.74954 0.647289 0
M  V30 25824 H 2585.39 -3.08973 2.34856 0
M  V30 25825 H 2583.49 -3.72585 -0.0337324 0
M  V30 25826 H 2583.6 -4.48228 1.69199 0
M  V30 25827 H 2581.97 -2.41533 0.808322 0
M  V30 25828 H 2582.75 -2.37463 2.47924 0
M  V30 25829 N 2585.2 -0.765242 -1.37774 0
M  V30 25830 C 2586.16 -0.153456 -2.28686 0
M  V30 25831 C 2587.16 0.635055 -1.47728 0
M  V30 25832 O 2588.35 0.459602 -1.68028 0
M  V30 25833 C 2585.48 0.790436 -3.3161 0
M  V30 25834 H 2586.67 -0.954773 -2.84296 0
M  V30 25835 H 2584.23 -0.533016 -1.46931 0
M  V30 25836 H 2584.96 1.617 -2.81111 0
M  V30 25837 H 2584.75 0.227279 -3.91441 0
M  V30 25838 H 2586.24 1.21412 -3.99561 0
M  V30 25839 N 2586.67 1.48939 -0.515251 0
M  V30 25840 C 2587.9 2.0659 0.0205372 0
M  V30 25841 C 2588.31 1.37407 1.30061 0
M  V30 25842 O 2587.66 0.450663 1.78086 0
M  V30 25843 C 2587.72 3.57982 0.330061 0
M  V30 25844 C 2587.38 4.48943 -0.854374 0
M  V30 25845 C 2588.38 4.89605 -1.74879 0
M  V30 25846 C 2586.06 4.91048 -1.05721 0
M  V30 25847 C 2588.06 5.71127 -2.83006 0
M  V30 25848 C 2585.74 5.72343 -2.14164 0
M  V30 25849 C 2586.74 6.12289 -3.02641 0
M  V30 25850 O 2586.43 6.91955 -4.0921 0
M  V30 25851 H 2586.16 0.675585 -0.0236952 0
M  V30 25852 H 2588.72 1.92517 -0.71599 0
M  V30 25853 H 2586.95 3.70114 1.12037 0
M  V30 25854 H 2588.64 3.97814 0.806163 0
M  V30 25855 H 2589.4 4.5771 -1.60396 0
M  V30 25856 H 2585.28 4.59449 -0.377869 0
M  V30 25857 H 2588.82 6.02226 -3.52094 0
M  V30 25858 H 2584.72 6.03652 -2.28637 0
M  V30 25859 H 2585.49 7.10286 -4.06739 0
M  V30 25860 N 2588.15 0.249709 1.55609 0
M  V30 25861 C 2589.56 -0.252916 1.84979 0
M  V30 25862 C 2589.92 -1.57382 1.17156 0
M  V30 25863 O 2589.04 -2.1165 0.450921 0
M  V30 25864 C 2589.64 -0.465673 3.35584 0
M  V30 25865 C 2588.19 -0.91256 3.6517 0
M  V30 25866 C 2587.34 0.00863959 2.77299 0
M  V30 25867 H 2590.29 0.472197 1.51512 0
M  V30 25868 H 2590.31 -1.30789 3.57316 0
M  V30 25869 H 2589.83 0.495858 3.84919 0
M  V30 25870 H 2587.93 -1.88646 3.21315 0
M  V30 25871 H 2588.04 -0.767476 4.72913 0
M  V30 25872 H 2586.4 -0.503226 2.49679 0
M  V30 25873 H 2587.19 0.965594 3.29441 0
M  V30 25874 N 2589.63 -1.57583 -0.0233682 0
M  V30 25875 C 2590.86 -1.93795 -0.724648 0
M  V30 25876 C 2591.27 -0.849942 -1.68587 0
M  V30 25877 O 2590.63 0.173172 -1.81677 0
M  V30 25878 C 2590.68 -3.29959 -1.47679 0
M  V30 25879 O 2590.4 -4.34581 -0.554145 0
M  V30 25880 C 2591.9 -3.80489 -2.27471 0
M  V30 25881 H 2589.12 -0.639459 -0.203306 0
M  V30 25882 H 2591.67 -2.04489 0.0208013 0
M  V30 25883 H 2589.82 -3.20645 -2.17407 0
M  V30 25884 H 2590.24 -5.13213 -1.08223 0
M  V30 25885 H 2591.71 -4.78259 -2.75631 0
M  V30 25886 H 2592.19 -3.11977 -3.09139 0
M  V30 25887 H 2592.79 -3.92905 -1.62806 0
M  V30 25888 N 2591.11 0.29574 -1.548 0
M  V30 25889 C 2592.52 0.868382 -1.65276 0
M  V30 25890 C 2592.87 1.87893 -0.564844 0
M  V30 25891 O 2592 2.14343 0.297632 0
M  V30 25892 C 2592.59 1.58183 -2.99606 0
M  V30 25893 C 2591.15 2.1028 -3.12184 0
M  V30 25894 C 2590.3 0.937224 -2.60982 0
M  V30 25895 H 2593.25 0.0726144 -1.58534 0
M  V30 25896 H 2593.27 2.44767 -2.91323 0
M  V30 25897 H 2592.78 0.846085 -3.78765 0
M  V30 25898 H 2590.88 2.86885 -2.37755 0
M  V30 25899 H 2591 2.33372 -4.18419 0
M  V30 25900 H 2589.36 1.32427 -2.17567 0
M  V30 25901 H 2590.14 0.215354 -3.42624 0
M  V30 25902 N 2592.59 1.47346 0.559187 0
M  V30 25903 C 2593.84 1.53565 1.31385 0
M  V30 25904 C 2594.16 0.198712 1.93985 0
M  V30 25905 O 2593.43 -0.777135 1.79826 0
M  V30 25906 H 2592.01 0.56566 0.487891 0
M  V30 25907 H 2594.67 1.83631 0.653117 0
M  V30 25908 H 2593.76 2.30115 2.1084 0
M  V30 25909 N 2594.07 -0.805758 1.35445 0
M  V30 25910 C 2595.02 -1.90696 1.24976 0
M  V30 25911 C 2596 -1.60247 0.144835 0
M  V30 25912 O 2597.19 -1.72957 0.376133 0
M  V30 25913 C 2594.32 -3.27647 1.02481 0
M  V30 25914 C 2593.41 -3.6416 2.17367 0
M  V30 25915 N 2593.8 -3.72103 3.42597 0
M  V30 25916 C 2592.1 -3.9412 2.08772 0
M  V30 25917 C 2592.8 -4.04382 4.18151 0
M  V30 25918 N 2591.77 -4.18509 3.46917 0
M  V30 25919 H 2595.57 -1.9504 2.19855 0
M  V30 25920 H 2593.09 -1.00039 1.2793 0
M  V30 25921 H 2595.09 -4.06379 0.930688 0
M  V30 25922 H 2593.75 -3.24589 0.084858 0
M  V30 25923 H 2594.76 -3.5516 3.76938 0
M  V30 25924 H 2591.43 -3.99082 1.22637 0
M  V30 25925 H 2592.82 -4.17587 5.26375 0
M  V30 25926 N 2595.54 -1.19456 -1.02801 0
M  V30 25927 C 2596.79 -0.999202 -1.76476 0
M  V30 25928 C 2597.12 0.468795 -1.88457 0
M  V30 25929 O 2596.4 1.34812 -1.402 0
M  V30 25930 C 2596.68 -1.66987 -3.19041 0
M  V30 25931 C 2596.53 -3.21157 -3.14926 0
M  V30 25932 C 2597.85 -1.39357 -4.17454 0
M  V30 25933 H 2594.97 -0.364404 -0.640608 0
M  V30 25934 H 2597.61 -1.47307 -1.20002 0
M  V30 25935 H 2595.76 -1.26697 -3.6726 0
M  V30 25936 H 2597.44 -3.70666 -2.74598 0
M  V30 25937 H 2595.68 -3.52656 -2.52619 0
M  V30 25938 H 2596.35 -3.6323 -4.15654 0
M  V30 25939 H 2598.83 -1.74289 -3.77839 0
M  V30 25940 H 2597.7 -1.88832 -5.15397 0
M  V30 25941 H 2597.96 -0.318891 -4.40948 0
M  V30 25942 N 2597.02 1.21924 -0.998617 0
M  V30 25943 C 2597.97 2.21878 -0.524782 0
M  V30 25944 C 2598.96 1.55585 0.410143 0
M  V30 25945 O 2600.15 1.75419 0.236032 0
M  V30 25946 C 2597.28 3.42956 0.153576 0
M  V30 25947 C 2596.36 4.16448 -0.801991 0
M  V30 25948 N 2596.75 4.66608 -1.95219 0
M  V30 25949 C 2595.05 4.41683 -0.619049 0
M  V30 25950 C 2595.75 5.2271 -2.55243 0
M  V30 25951 N 2594.73 5.11706 -1.8346 0
M  V30 25952 H 2598.53 2.58308 -1.40193 0
M  V30 25953 H 2596.04 1.37659 -0.861614 0
M  V30 25954 H 2598.04 4.13763 0.510461 0
M  V30 25955 H 2596.7 3.08038 1.02679 0
M  V30 25956 H 2597.71 4.62387 -2.33279 0
M  V30 25957 H 2594.39 4.16983 0.207621 0
M  V30 25958 H 2595.78 5.7202 -3.52481 0
M  V30 25959 N 2598.5 0.772537 1.37367 0
M  V30 25960 C 2599.92 0.452258 1.53058 0
M  V30 25961 C 2600.12 -1.032 1.73067 0
M  V30 25962 O 2599.17 -1.81781 1.75248 0
M  V30 25963 C 2600.48 1.26802 2.72657 0
M  V30 25964 C 2602.03 1.26 2.86519 0
M  V30 25965 C 2602.51 2.05912 4.09102 0
M  V30 25966 N 2604 2.0327 4.16216 0
M  V30 25967 C 2604.73 2.61884 5.10102 0
M  V30 25968 N 2604.23 3.29289 6.09542 0
M  V30 25969 N 2606.02 2.5171 5.02592 0
M  V30 25970 H 2598.17 1.73423 1.22631 0
M  V30 25971 H 2600.44 0.73625 0.597194 0
M  V30 25972 H 2600.14 2.31987 2.64339 0
M  V30 25973 H 2600.02 0.897736 3.66361 0
M  V30 25974 H 2602.4 0.216133 2.94307 0
M  V30 25975 H 2602.48 1.66992 1.93771 0
M  V30 25976 H 2602.13 3.1032 4.02074 0
M  V30 25977 H 2602.06 1.62301 5.00965 0
M  V30 25978 H 2604.55 1.54198 3.45009 0
M  V30 25979 H 2604.86 3.71386 6.77711 0
M  V30 25980 H 2603.21 3.33388 6.09818 0
M  V30 25981 H 2606.4 1.98665 4.23851 0
M  V30 25982 H 2606.57 2.97684 5.75577 0
M  V30 25983 N 2599.98 -1.48664 0.523142 0
M  V30 25984 C 2601.23 -2.02096 -0.0134142 0
M  V30 25985 C 2601.55 -1.40313 -1.35415 0
M  V30 25986 O 2600.82 -0.566107 -1.87542 0
M  V30 25987 H 2599.4 -0.746958 -0.00794602 0
M  V30 25988 H 2602.06 -1.8245 0.68542 0
M  V30 25989 H 2601.15 -3.11842 -0.126795 0
M  V30 25990 N 2601.46 -0.257958 -1.55475 0
M  V30 25991 C 2602.39 0.669842 -2.19193 0
M  V30 25992 C 2603.4 1.13048 -1.1715 0
M  V30 25993 O 2604.59 1.05534 -1.43961 0
M  V30 25994 C 2601.69 1.92358 -2.79019 0
M  V30 25995 C 2600.86 1.61258 -4.06589 0
M  V30 25996 C 2599.92 2.71702 -4.50627 0
M  V30 25997 O 2598.95 2.38617 -5.16769 0
M  V30 25998 N 2600.15 4.01423 -4.19332 0
M  V30 25999 H 2602.91 0.124583 -2.99441 0
M  V30 26000 H 2600.48 -0.0783595 -1.6171 0
M  V30 26001 H 2602.47 2.65506 -3.05432 0
M  V30 26002 H 2601.04 2.37833 -2.02865 0
M  V30 26003 H 2600.26 0.715743 -3.87648 0
M  V30 26004 H 2601.55 1.37958 -4.8974 0
M  V30 26005 H 2600.94 4.31131 -3.66255 0
M  V30 26006 H 2599.5 4.71002 -4.50556 0
M  V30 26007 N 2602.93 1.57593 0.0150108 0
M  V30 26008 C 2603.86 2.10505 1.01044 0
M  V30 26009 C 2604.85 1.01074 1.36814 0
M  V30 26010 O 2606.03 1.28675 1.45452 0
M  V30 26011 C 2603.16 2.59602 2.30703 0
M  V30 26012 C 2602.11 3.73425 2.09136 0
M  V30 26013 C 2601.44 4.0878 3.44678 0
M  V30 26014 C 2602.74 5.01301 1.4661 0
M  V30 26015 H 2604.43 2.93926 0.569926 0
M  V30 26016 H 2601.98 1.41394 0.272699 0
M  V30 26017 H 2603.93 2.95243 3.00682 0
M  V30 26018 H 2602.66 1.73284 2.7684 0
M  V30 26019 H 2601.32 3.38155 1.41586 0
M  V30 26020 H 2600.96 3.19507 3.8849 0
M  V30 26021 H 2600.66 4.85456 3.31068 0
M  V30 26022 H 2602.19 4.46967 4.15996 0
M  V30 26023 H 2603.6 5.34809 2.06525 0
M  V30 26024 H 2602 5.82682 1.43534 0
M  V30 26025 H 2603.07 4.82958 0.433526 0
M  V30 26026 N 2604.41 -0.287527 1.54955 0
M  V30 26027 C 2605.34 -1.37697 1.83227 0
M  V30 26028 C 2606.36 -1.46213 0.715924 0
M  V30 26029 O 2607.55 -1.4829 0.993591 0
M  V30 26030 C 2604.65 -2.75956 1.96727 0
M  V30 26031 C 2603.82 -2.90209 3.27258 0
M  V30 26032 C 2602.88 -4.0905 3.31005 0
M  V30 26033 O 2601.9 -4.00496 4.04464 0
M  V30 26034 N 2603.11 -5.20332 2.57362 0
M  V30 26035 H 2605.87 -1.13795 2.77256 0
M  V30 26036 H 2603.43 -0.477625 1.54694 0
M  V30 26037 H 2605.42 -3.53726 1.96621 0
M  V30 26038 H 2603.99 -2.92745 1.09632 0
M  V30 26039 H 2603.21 -1.99441 3.40025 0
M  V30 26040 H 2604.5 -2.96652 4.1337 0
M  V30 26041 H 2603.9 -5.30165 1.97336 0
M  V30 26042 H 2602.46 -5.96387 2.62995 0
M  V30 26043 N 2605.89 -1.47641 -0.551365 0
M  V30 26044 C 2606.82 -1.63448 -1.66755 0
M  V30 26045 C 2607.8 -0.48377 -1.63076 0
M  V30 26046 O 2608.99 -0.713802 -1.80606 0
M  V30 26047 C 2606.12 -1.65401 -3.05384 0
M  V30 26048 C 2605.07 -2.79758 -3.23913 0
M  V30 26049 C 2604.4 -2.66787 -4.63388 0
M  V30 26050 C 2605.7 -4.21289 -3.08727 0
M  V30 26051 H 2607.39 -2.56888 -1.53781 0
M  V30 26052 H 2604.94 -1.23627 -0.738394 0
M  V30 26053 H 2606.89 -1.7505 -3.83322 0
M  V30 26054 H 2605.61 -0.685251 -3.1933 0
M  V30 26055 H 2604.27 -2.69629 -2.48386 0
M  V30 26056 H 2603.92 -1.67926 -4.74141 0
M  V30 26057 H 2603.62 -3.4351 -4.76734 0
M  V30 26058 H 2605.14 -2.78373 -5.43453 0
M  V30 26059 H 2606.56 -4.32364 -3.76476 0
M  V30 26060 H 2604.96 -4.98844 -3.33579 0
M  V30 26061 H 2606.03 -4.39247 -2.05402 0
M  V30 26062 N 2607.37 0.798563 -1.3587 0
M  V30 26063 C 2608.61 1.55834 -1.29783 0
M  V30 26064 C 2608.95 1.93795 0.125287 0
M  V30 26065 O 2608.22 1.61989 1.07656 0
M  V30 26066 C 2608.51 2.84158 -2.21193 0
M  V30 26067 C 2608.36 2.52622 -3.72159 0
M  V30 26068 C 2609.68 3.8592 -2.11551 0
M  V30 26069 H 2606.8 0.565375 -0.472779 0
M  V30 26070 H 2609.44 0.918163 -1.66342 0
M  V30 26071 H 2607.59 3.38788 -1.90145 0
M  V30 26072 H 2609.26 2.04113 -4.13685 0
M  V30 26073 H 2607.5 1.85697 -3.92045 0
M  V30 26074 H 2608.17 3.44234 -4.31517 0
M  V30 26075 H 2610.65 3.40712 -2.38861 0
M  V30 26076 H 2609.53 4.73473 -2.77696 0
M  V30 26077 H 2609.79 4.28198 -1.09994 0
M  V30 26078 N 2608.85 1.19999 1.02166 0
M  V30 26079 C 2609.76 0.959811 2.14067 0
M  V30 26080 C 2610.77 -0.0826244 1.73804 0
M  V30 26081 O 2611.95 0.103669 2.01133 0
M  V30 26082 C 2609.01 0.509519 3.42936 0
M  V30 26083 C 2608.07 1.6222 3.97471 0
M  V30 26084 C 2607.31 1.1933 5.20188 0
M  V30 26085 O 2607.53 0.0598729 5.70369 0
M  V30 26086 O 2606.46 1.99873 5.67745 0
M  V30 26087 H 2610.29 1.89662 2.37196 0
M  V30 26088 H 2607.88 0.983431 1.12468 0
M  V30 26089 H 2609.76 0.267396 4.20551 0
M  V30 26090 H 2608.43 -0.398764 3.21234 0
M  V30 26091 H 2607.34 1.91856 3.21158 0
M  V30 26092 H 2608.67 2.50731 4.2355 0
M  V30 26093 N 2610.32 -1.21392 1.00507 0
M  V30 26094 C 2611.57 -1.90085 0.686449 0
M  V30 26095 C 2611.89 -1.78491 -0.785233 0
M  V30 26096 O 2611.16 -1.17986 -1.56385 0
M  V30 26097 H 2609.74 -0.703599 0.250912 0
M  V30 26098 H 2612.41 -1.4748 1.27419 0
M  V30 26099 H 2611.5 -2.96979 0.959674 0
M  V30 26100 N 2611.8 -0.779811 -1.36955 0
M  V30 26101 C 2612.75 -0.159461 -2.32053 0
M  V30 26102 C 2613.74 0.675851 -1.55334 0
M  V30 26103 O 2614.95 0.57201 -1.70669 0
M  V30 26104 H 2611.33 -0.0327839 -0.751285 0
M  V30 26105 H 2613.3 -0.977128 -2.81948 0
M  V30 26106 C 2612.05 0.698917 -3.40603 0
M  V30 26107 H 2611.37 0.0655263 -3.99746 0
M  V30 26108 H 2612.81 1.09981 -4.09488 0
M  V30 26109 C 2611.27 1.85302 -2.81362 0
M  V30 26110 O 2611.8 2.94902 -2.72756 0
M  V30 26111 N 2610 1.65614 -2.38789 0
M  V30 26112 H 2609.55 0.764681 -2.45989 0
M  V30 26113 H 2609.51 2.42998 -1.99498 0
M  V30 26114 N 2613.28 1.48384 -0.531019 0
M  V30 26115 C 2614.53 2.025 0.0027017 0
M  V30 26116 C 2614.86 1.40802 1.34183 0
M  V30 26117 O 2614.11 0.543577 1.87999 0
M  V30 26118 C 2614.41 3.56983 0.172679 0
M  V30 26119 C 2614.08 4.37471 -1.09222 0
M  V30 26120 C 2612.74 4.59184 -1.43889 0
M  V30 26121 C 2615.09 4.84085 -1.93162 0
M  V30 26122 C 2612.42 5.24756 -2.6239 0
M  V30 26123 C 2614.77 5.50962 -3.10843 0
M  V30 26124 C 2613.43 5.70913 -3.45853 0
M  V30 26125 H 2612.7 0.740999 0.000988623 0
M  V30 26126 H 2615.35 1.78355 -0.697251 0
M  V30 26127 H 2613.66 3.79973 0.955406 0
M  V30 26128 H 2615.35 3.96477 0.600572 0
M  V30 26129 H 2611.94 4.20833 -0.812251 0
M  V30 26130 H 2616.13 4.67112 -1.67691 0
M  V30 26131 H 2611.38 5.384 -2.89716 0
M  V30 26132 H 2615.56 5.86049 -3.7619 0
M  V30 26133 H 2613.18 6.21496 -4.37775 0
M  V30 26134 N 2614.76 0.2662 1.55336 0
M  V30 26135 C 2616.17 -0.0881785 1.59356 0
M  V30 26136 C 2616.37 -1.5534 1.28343 0
M  V30 26137 O 2615.43 -2.30087 1.04 0
M  V30 26138 C 2616.74 0.278416 2.99408 0
M  V30 26139 C 2618.29 0.224298 3.12195 0
M  V30 26140 C 2618.77 0.565203 4.54499 0
M  V30 26141 N 2620.26 0.516421 4.60312 0
M  V30 26142 C 2620.99 0.753113 5.68433 0
M  V30 26143 N 2620.49 1.05395 6.84736 0
M  V30 26144 N 2622.28 0.682512 5.57941 0
M  V30 26145 H 2614.43 1.22151 1.73761 0
M  V30 26146 H 2616.7 0.492856 0.809813 0
M  V30 26147 H 2616.4 1.29708 3.26908 0
M  V30 26148 H 2616.28 -0.38512 3.75229 0
M  V30 26149 H 2618.66 -0.78507 2.84466 0
M  V30 26150 H 2618.74 0.921964 2.38607 0
M  V30 26151 H 2618.39 1.57222 4.82953 0
M  V30 26152 H 2618.32 -0.154155 5.26374 0
M  V30 26153 H 2620.81 0.293416 3.76759 0
M  V30 26154 H 2621.12 1.22146 7.63086 0
M  V30 26155 H 2619.47 1.09163 6.86373 0
M  V30 26156 H 2622.66 0.447391 4.65957 0
M  V30 26157 H 2622.83 0.870361 6.42128 0
M  V30 26158 N 2616.24 -1.57599 -0.0066531 0
M  V30 26159 C 2617.19 -2.0448 -1.00857 0
M  V30 26160 C 2618.17 -0.938254 -1.30712 0
M  V30 26161 O 2619.36 -1.20206 -1.29921 0
M  V30 26162 C 2616.49 -2.54619 -2.30269 0
M  V30 26163 C 2615.58 -3.72138 -2.03407 0
M  V30 26164 N 2615.97 -4.84065 -1.46679 0
M  V30 26165 C 2614.27 -3.79941 -2.33583 0
M  V30 26166 C 2614.97 -5.65546 -1.36136 0
M  V30 26167 N 2613.94 -5.11344 -1.84468 0
M  V30 26168 H 2617.75 -2.88431 -0.564351 0
M  V30 26169 H 2615.26 -1.61004 -0.212493 0
M  V30 26170 H 2617.26 -2.86478 -3.0288 0
M  V30 26171 H 2615.92 -1.72084 -2.75349 0
M  V30 26172 H 2616.93 -5.05051 -1.14649 0
M  V30 26173 H 2613.6 -3.08248 -2.81583 0
M  V30 26174 H 2614.99 -6.65492 -0.925756 0
M  V30 26175 N 2617.72 0.279305 -1.55105 0
M  V30 26176 C 2618.94 1.03014 -1.79432 0
M  V30 26177 C 2619.36 1.80164 -0.564488 0
M  V30 26178 O 2618.72 1.76442 0.466295 0
M  V30 26179 C 2618.77 1.99368 -3.01553 0
M  V30 26180 O 2618.49 1.25345 -4.19786 0
M  V30 26181 C 2619.99 2.86315 -3.38435 0
M  V30 26182 H 2617.21 0.304584 -0.597888 0
M  V30 26183 H 2619.75 0.312 -2.02106 0
M  V30 26184 H 2617.91 2.66654 -2.81024 0
M  V30 26185 H 2618.32 1.90237 -4.88784 0
M  V30 26186 H 2619.8 3.49733 -4.27072 0
M  V30 26187 H 2620.27 3.55755 -2.57555 0
M  V30 26188 H 2620.88 2.2453 -3.61201 0
M  V30 26189 N 2619.19 1.47931 0.543528 0
M  V30 26190 C 2620.1 1.64101 1.67654 0
M  V30 26191 C 2621.12 0.523651 1.65933 0
M  V30 26192 O 2622.3 0.792975 1.85132 0
M  V30 26193 C 2619.36 1.66426 3.04144 0
M  V30 26194 C 2618.42 2.8969 3.16825 0
M  V30 26195 C 2617.65 2.91894 4.46804 0
M  V30 26196 O 2617.88 2.02904 5.33091 0
M  V30 26197 O 2616.81 3.83915 4.63566 0
M  V30 26198 H 2620.64 2.59999 1.56952 0
M  V30 26199 H 2618.22 1.31175 0.715093 0
M  V30 26200 H 2620.1 1.70555 3.85343 0
M  V30 26201 H 2618.78 0.736978 3.15199 0
M  V30 26202 H 2617.69 2.91099 2.34972 0
M  V30 26203 H 2619.02 3.81757 3.1068 0
M  V30 26204 N 2620.67 -0.791347 1.36292 0
M  V30 26205 C 2621.9 -1.58013 1.33564 0
M  V30 26206 C 2622.31 -1.88615 -0.0835285 0
M  V30 26207 O 2621.67 -1.49976 -1.03988 0
M  V30 26208 C 2621.72 -2.90229 2.15522 0
M  V30 26209 O 2621.44 -2.60946 3.51907 0
M  V30 26210 C 2622.94 -3.8454 2.20553 0
M  V30 26211 H 2620.16 -0.490165 0.458235 0
M  V30 26212 H 2622.71 -0.982314 1.79362 0
M  V30 26213 H 2620.86 -3.46484 1.73284 0
M  V30 26214 H 2621.28 -3.45474 3.9465 0
M  V30 26215 H 2622.75 -4.74377 2.8226 0
M  V30 26216 H 2623.23 -4.22248 1.20845 0
M  V30 26217 H 2623.83 -3.34218 2.63018 0
M  V30 26218 N 2622.15 -1.2054 -1.01528 0
M  V30 26219 C 2623.57 -0.960533 -1.2746 0
M  V30 26220 C 2623.77 0.359158 -1.98273 0
M  V30 26221 O 2622.82 1.08736 -2.27887 0
M  V30 26222 C 2624.13 -2.14406 -2.10833 0
M  V30 26223 C 2625.68 -2.18519 -2.24095 0
M  V30 26224 C 2626.16 -3.36361 -3.10846 0
M  V30 26225 N 2627.65 -3.36383 -3.18435 0
M  V30 26226 C 2628.38 -4.24212 -3.85787 0
M  V30 26227 N 2627.88 -5.22221 -4.55255 0
M  V30 26228 N 2629.67 -4.12049 -3.82324 0
M  V30 26229 H 2621.82 -2.05424 -0.539871 0
M  V30 26230 H 2624.09 -0.898978 -0.300904 0
M  V30 26231 H 2623.79 -3.09985 -1.66138 0
M  V30 26232 H 2623.67 -2.12609 -3.11572 0
M  V30 26233 H 2626.05 -1.23501 -2.68014 0
M  V30 26234 H 2626.13 -2.24363 -1.22861 0
M  V30 26235 H 2625.78 -4.31665 -2.67633 0
M  V30 26236 H 2625.71 -3.27754 -4.12171 0
M  V30 26237 H 2628.2 -2.65447 -2.68973 0
M  V30 26238 H 2628.51 -5.8556 -5.04321 0
M  V30 26239 H 2626.86 -5.26156 -4.54076 0
M  V30 26240 H 2630.05 -3.34749 -3.27201 0
M  V30 26241 H 2630.22 -4.80708 -4.34539 0
M  V30 26242 N 2623.63 1.20858 -1.01149 0
M  V30 26243 C 2624.58 2.25492 -0.570629 0
M  V30 26244 C 2625.57 1.64895 0.38808 0
M  V30 26245 O 2626.78 1.78133 0.258561 0
M  V30 26246 H 2623.15 0.733403 -0.166204 0
M  V30 26247 H 2625.12 2.6001 -1.46415 0
M  V30 26248 C 2623.87 3.47607 0.080463 0
M  V30 26249 H 2623.19 3.9451 -0.648226 0
M  V30 26250 H 2624.63 4.22535 0.352123 0
M  V30 26251 C 2623.09 3.09891 1.3217 0
M  V30 26252 O 2623.62 3.20964 2.41547 0
M  V30 26253 N 2621.83 2.6449 1.20388 0
M  V30 26254 H 2621.38 2.55681 0.31386 0
M  V30 26255 H 2621.33 2.39625 2.03537 0
M  V30 26256 N 2625.11 0.787064 1.3654 0
M  V30 26257 C 2626.33 0.370235 2.0356 0
M  V30 26258 C 2626.75 -1.0126 1.59348 0
M  V30 26259 O 2626.11 -1.64906 0.78181 0
M  V30 26260 C 2626.16 0.421677 3.59032 0
M  V30 26261 O 2625.88 1.74997 4.01631 0
M  V30 26262 C 2627.38 -0.00481971 4.433 0
M  V30 26263 H 2624.6 0.152916 0.653343 0
M  V30 26264 H 2627.14 1.06525 1.74564 0
M  V30 26265 H 2625.3 -0.224903 3.86747 0
M  V30 26266 H 2625.71 1.69917 4.96214 0
M  V30 26267 H 2627.19 0.0823154 5.51939 0
M  V30 26268 H 2627.66 -1.05716 4.26287 0
M  V30 26269 H 2628.27 0.614159 4.20842 0
M  V30 26270 N 2626.58 -1.48101 0.53888 0
M  V30 26271 C 2627.83 -2.02798 0.0080493 0
M  V30 26272 C 2628.16 -1.41426 -1.33087 0
M  V30 26273 O 2627.44 -0.563191 -1.86168 0
M  V30 26274 C 2627.72 -3.59948 -0.104526 0
M  V30 26275 C 2627.57 -4.31786 1.2602 0
M  V30 26276 C 2628.89 -4.3226 -0.826979 0
M  V30 26277 H 2626.01 -0.736987 0.0043992 0
M  V30 26278 H 2628.65 -1.76729 0.697631 0
M  V30 26279 H 2626.8 -3.8229 -0.691825 0
M  V30 26280 H 2628.48 -4.20837 1.88929 0
M  V30 26281 H 2626.72 -3.92856 1.83975 0
M  V30 26282 H 2627.39 -5.40219 1.13433 0
M  V30 26283 H 2629.87 -4.14801 -0.328505 0
M  V30 26284 H 2628.74 -5.41886 -0.874665 0
M  V30 26285 H 2629 -4.00173 -1.8792 0
M  V30 26286 N 2628.06 -0.274434 -1.55192 0
M  V30 26287 C 2629.29 0.348788 -2.04446 0
M  V30 26288 C 2629.71 1.48733 -1.15152 0
M  V30 26289 O 2629.07 1.80679 -0.149984 0
M  V30 26290 C 2629.12 0.807947 -3.51432 0
M  V30 26291 O 2628.22 1.91525 -3.65229 0
M  V30 26292 H 2627.56 0.072216 -0.660061 0
M  V30 26293 H 2630.09 -0.408533 -2.0048 0
M  V30 26294 H 2630.1 1.10388 -3.92783 0
M  V30 26295 H 2628.78 -0.0250596 -4.15892 0
M  V30 26296 H 2627.35 1.6219 -3.35781 0
M  V30 26297 N 2629.54 1.576 -0.00170483 0
M  V30 26298 C 2630.96 1.55616 0.354395 0
M  V30 26299 C 2631.16 1.0045 1.74677 0
M  V30 26300 O 2630.21 0.639065 2.44279 0
M  V30 26301 C 2631.52 2.99834 0.228067 0
M  V30 26302 C 2633.07 3.11531 0.302879 0
M  V30 26303 C 2633.55 4.57538 0.205656 0
M  V30 26304 N 2635.04 4.6245 0.263503 0
M  V30 26305 C 2635.77 5.73009 0.211641 0
M  V30 26306 N 2635.27 6.92712 0.110277 0
M  V30 26307 N 2637.06 5.61481 0.263631 0
M  V30 26308 H 2629.21 1.91798 -0.912532 0
M  V30 26309 H 2631.48 0.881047 -0.349943 0
M  V30 26310 H 2631.18 3.44041 -0.729995 0
M  V30 26311 H 2631.06 3.63442 1.00945 0
M  V30 26312 H 2633.44 2.67253 1.25139 0
M  V30 26313 H 2633.52 2.50697 -0.508401 0
M  V30 26314 H 2633.17 5.0249 -0.739313 0
M  V30 26315 H 2633.1 5.1632 1.03545 0
M  V30 26316 H 2635.59 3.76339 0.343107 0
M  V30 26317 H 2635.9 7.72762 0.076647 0
M  V30 26318 H 2634.25 6.94959 0.0758804 0
M  V30 26319 H 2637.44 4.66856 0.341028 0
M  V30 26320 H 2637.61 6.47627 0.219748 0
M  V30 26321 N 2631.02 -0.271076 1.55251 0
M  V30 26322 C 2631.93 -1.35711 1.91363 0
M  V30 26323 C 2632.94 -1.53939 0.811102 0
M  V30 26324 O 2634.12 -1.68028 1.11034 0
M  V30 26325 C 2631.18 -2.69599 2.17985 0
M  V30 26326 C 2630.25 -2.60101 3.41535 0
M  V30 26327 C 2629.48 -3.87604 3.66878 0
M  V30 26328 O 2629.7 -4.88374 2.94698 0
M  V30 26329 O 2628.64 -3.87691 4.60412 0
M  V30 26330 H 2632.46 -1.08083 2.83817 0
M  V30 26331 H 2630.05 -0.469767 1.41822 0
M  V30 26332 H 2631.93 -3.48761 2.36524 0
M  V30 26333 H 2630.6 -2.97009 1.28713 0
M  V30 26334 H 2629.51 -1.79308 3.28328 0
M  V30 26335 H 2630.84 -2.3764 4.31032 0
M  V30 26336 N 2632.5 -1.48217 -0.535675 0
M  V30 26337 C 2633.41 -1.64988 -1.66782 0
M  V30 26338 C 2634.42 -0.532443 -1.65653 0
M  V30 26339 O 2635.6 -0.802782 -1.84709 0
M  V30 26340 C 2632.66 -1.68037 -3.03257 0
M  V30 26341 C 2631.72 -2.91366 -3.15285 0
M  V30 26342 C 2630.96 -2.9426 -4.45249 0
M  V30 26343 O 2631.18 -2.05729 -5.32007 0
M  V30 26344 O 2630.11 -3.86368 -4.61523 0
M  V30 26345 H 2633.94 -2.60828 -1.55571 0
M  V30 26346 H 2631.53 -1.31552 -0.708127 0
M  V30 26347 H 2633.41 -1.72596 -3.84433 0
M  V30 26348 H 2632.08 -0.753684 -3.14804 0
M  V30 26349 H 2630.99 -2.92341 -2.33425 0
M  V30 26350 H 2632.32 -3.834 -3.08651 0
M  V30 26351 N 2633.97 0.784108 -1.3671 0
M  V30 26352 C 2634.9 1.91114 -1.34156 0
M  V30 26353 C 2635.89 1.68772 -0.212151 0
M  V30 26354 O 2637.07 1.89809 -0.410615 0
M  V30 26355 C 2634.2 3.28216 -1.13541 0
M  V30 26356 C 2633.15 3.65094 -2.23362 0
M  V30 26357 C 2632.48 5.00603 -1.87884 0
M  V30 26358 C 2633.78 3.73125 -3.65479 0
M  V30 26359 H 2635.47 1.93508 -2.28463 0
M  V30 26360 H 2633.02 0.929599 -1.09975 0
M  V30 26361 H 2634.97 4.06685 -1.10388 0
M  V30 26362 H 2633.7 3.26223 -0.156861 0
M  V30 26363 H 2632.36 2.88925 -2.2565 0
M  V30 26364 H 2632 4.95137 -0.885902 0
M  V30 26365 H 2631.7 5.26247 -2.61415 0
M  V30 26366 H 2633.23 5.81486 -1.86296 0
M  V30 26367 H 2634.64 4.41773 -3.6539 0
M  V30 26368 H 2633.04 4.10257 -4.3796 0
M  V30 26369 H 2634.11 2.74095 -4 0
M  V30 26370 N 2635.45 1.21076 1.00888 0
M  V30 26371 C 2636.39 0.909843 2.09278 0
M  V30 26372 C 2637.36 -0.141116 1.61986 0
M  V30 26373 O 2638.55 -0.013 1.88496 0
M  V30 26374 C 2635.67 0.365433 3.36723 0
M  V30 26375 C 2634.72 1.39859 4.02917 0
M  V30 26376 S 2635.55 2.96641 4.4583 0
M  V30 26377 C 2636.71 2.43797 5.76467 0
M  V30 26378 H 2636.94 1.82773 2.34481 0
M  V30 26379 H 2634.48 1.04008 1.14113 0
M  V30 26380 H 2636.43 0.0578925 4.10459 0
M  V30 26381 H 2635.09 -0.531082 3.09578 0
M  V30 26382 H 2634.29 0.967204 4.94632 0
M  V30 26383 H 2633.89 1.65401 3.35438 0
M  V30 26384 H 2636.18 1.8404 6.52024 0
M  V30 26385 H 2637.12 3.33939 6.24412 0
M  V30 26386 H 2637.53 1.85645 5.331 0
M  V30 26387 N 2636.93 -1.2032 1.01789 0
M  V30 26388 C 2637.86 -2.21866 0.533921 0
M  V30 26389 C 2638.84 -1.571 -0.419333 0
M  V30 26390 O 2640.03 -1.85426 -0.339029 0
M  V30 26391 C 2637.15 -3.37966 -0.22284 0
M  V30 26392 C 2636.2 -4.21042 0.680165 0
M  V30 26393 S 2637.03 -4.90441 2.15006 0
M  V30 26394 C 2638.19 -6.09961 1.4035 0
M  V30 26395 H 2638.42 -2.62575 1.39434 0
M  V30 26396 H 2635.95 -1.30391 0.82689 0
M  V30 26397 H 2637.91 -4.05267 -0.653354 0
M  V30 26398 H 2636.57 -2.95715 -1.05885 0
M  V30 26399 H 2635.77 -5.03907 0.096559 0
M  V30 26400 H 2635.37 -3.59002 1.04851 0
M  V30 26401 H 2637.66 -6.74036 0.684189 0
M  V30 26402 H 2638.6 -6.72784 2.20835 0
M  V30 26403 H 2639.01 -5.57185 0.905814 0
M  V30 26404 N 2638.41 -0.794293 -1.3612 0
M  V30 26405 C 2639.65 -0.369487 -1.99406 0
M  V30 26406 C 2639.99 1.0574 -1.62888 0
M  V30 26407 O 2639.26 1.73144 -0.886084 0
M  V30 26408 C 2639.55 -0.538896 -3.56045 0
M  V30 26409 C 2639.4 -2.00983 -4.024 0
M  V30 26410 C 2640.72 0.0430585 -4.40079 0
M  V30 26411 H 2637.84 -0.135725 -0.724395 0
M  V30 26412 H 2640.48 -1.00154 -1.61459 0
M  V30 26413 H 2638.63 -0.000839293 -3.885 0
M  V30 26414 H 2640.3 -2.60932 -3.8041 0
M  V30 26415 H 2638.54 -2.51069 -3.53761 0
M  V30 26416 H 2639.21 -2.07931 -5.1134 0
M  V30 26417 H 2641.69 -0.416301 -4.14012 0
M  V30 26418 H 2640.57 -0.10547 -5.48799 0
M  V30 26419 H 2640.83 1.13563 -4.27266 0
M  V30 26420 N 2639.89 1.47813 -0.546727 0
M  V30 26421 C 2640.82 2.32682 0.195276 0
M  V30 26422 C 2641.8 1.43141 0.918956 0
M  V30 26423 O 2642.98 1.72009 0.90147 0
M  V30 26424 C 2640.11 3.24702 1.23231 0
M  V30 26425 C 2639.07 4.23401 0.625743 0
M  V30 26426 C 2638.39 5.04672 1.76665 0
M  V30 26427 C 2639.69 5.2066 -0.413606 0
M  V30 26428 H 2641.39 2.94968 -0.513236 0
M  V30 26429 H 2638.93 1.41844 -0.248266 0
M  V30 26430 H 2640.89 3.8291 1.75948 0
M  V30 26431 H 2639.61 2.60449 1.97063 0
M  V30 26432 H 2638.27 3.66404 0.119958 0
M  V30 26433 H 2637.92 4.36831 2.49375 0
M  V30 26434 H 2637.62 5.71487 1.36663 0
M  V30 26435 H 2639.14 5.65736 2.29728 0
M  V30 26436 H 2640.55 5.73294 0.0271035 0
M  V30 26437 H 2638.95 5.9562 -0.731929 0
M  V30 26438 H 2640.02 4.66776 -1.31334 0
M  V30 26439 N 2641.36 0.28266 1.55044 0
M  V30 26440 C 2642.33 -0.588501 2.21516 0
M  V30 26441 C 2643.33 -1.07552 1.19537 0
M  V30 26442 O 2644.52 -0.974489 1.44393 0
M  V30 26443 C 2641.65 -1.81275 2.88708 0
M  V30 26444 H 2642.84 -0.00801126 2.99899 0
M  V30 26445 H 2640.4 0.0333342 1.56264 0
M  V30 26446 H 2641.13 -2.43356 2.14356 0
M  V30 26447 H 2640.92 -1.47137 3.63446 0
M  V30 26448 H 2642.41 -2.43208 3.3947 0
M  V30 26449 N 2642.84 -1.57597 0.0100627 0
M  V30 26450 C 2644.07 -1.95692 -0.686987 0
M  V30 26451 C 2644.49 -0.885548 -1.65951 0
M  V30 26452 O 2643.85 0.155398 -1.80633 0
M  V30 26453 C 2643.9 -3.32886 -1.38634 0
M  V30 26454 O 2643 -3.27901 -2.50109 0
M  V30 26455 H 2642.34 -0.638577 -0.181978 0
M  V30 26456 H 2644.87 -2.04493 0.0662482 0
M  V30 26457 H 2644.88 -3.68683 -1.74748 0
M  V30 26458 H 2643.56 -4.10413 -0.673339 0
M  V30 26459 H 2642.14 -3.03795 -2.16247 0
M  V30 26460 N 2644.32 0.262839 -1.55393 0
M  V30 26461 C 2645.25 1.32913 -1.9198 0
M  V30 26462 C 2646.23 1.51016 -0.782826 0
M  V30 26463 O 2647.42 1.6389 -1.04181 0
M  V30 26464 C 2644.55 2.68684 -2.2006 0
M  V30 26465 C 2643.5 2.65298 -3.35858 0
M  V30 26466 C 2642.83 4.04715 -3.49442 0
M  V30 26467 C 2644.13 2.23677 -4.71981 0
M  V30 26468 H 2645.82 1.02539 -2.81293 0
M  V30 26469 H 2643.37 0.491823 -1.35341 0
M  V30 26470 H 2645.32 3.43399 -2.44243 0
M  V30 26471 H 2644.04 3.00661 -1.27556 0
M  V30 26472 H 2642.7 1.9304 -3.11659 0
M  V30 26473 H 2642.35 4.33932 -2.54386 0
M  V30 26474 H 2642.05 4.03342 -4.27304 0
M  V30 26475 H 2643.57 4.81155 -3.75929 0
M  V30 26476 H 2644.99 2.88118 -4.95642 0
M  V30 26477 H 2643.39 2.33446 -5.52832 0
M  V30 26478 H 2644.46 1.18819 -4.70117 0
M  V30 26479 N 2645.8 1.48499 0.527807 0
M  V30 26480 C 2646.71 1.6587 1.65905 0
M  V30 26481 C 2647.72 0.541221 1.65369 0
M  V30 26482 O 2648.9 0.812566 1.84281 0
M  V30 26483 C 2645.97 1.69642 3.02361 0
M  V30 26484 C 2645.03 2.93034 3.13735 0
M  V30 26485 C 2644.26 2.96617 4.43683 0
M  V30 26486 O 2644.48 2.08547 5.30909 0
M  V30 26487 O 2643.42 3.8881 4.59468 0
M  V30 26488 H 2647.24 2.6165 1.54186 0
M  V30 26489 H 2644.83 1.31926 0.70114 0
M  V30 26490 H 2646.71 1.74632 3.83512 0
M  V30 26491 H 2645.38 0.770368 3.14399 0
M  V30 26492 H 2644.29 2.93575 2.31871 0
M  V30 26493 H 2645.62 3.85031 3.06614 0
M  V30 26494 N 2647.28 -0.776847 1.37123 0
M  V30 26495 C 2648.21 -1.89895 1.28345 0
M  V30 26496 C 2649.22 -1.61563 0.200305 0
M  V30 26497 O 2650.41 -1.72576 0.456042 0
M  V30 26498 C 2647.51 -3.25004 0.960484 0
M  V30 26499 C 2646.68 -3.81021 2.14806 0
M  V30 26500 C 2645.74 -4.94595 1.79617 0
M  V30 26501 O 2644.77 -5.10449 2.51854 0
M  V30 26502 N 2645.97 -5.75799 0.737272 0
M  V30 26503 H 2648.74 -1.97943 2.2503 0
M  V30 26504 H 2646.3 -0.955716 1.30682 0
M  V30 26505 H 2648.29 -3.98494 0.706012 0
M  V30 26506 H 2646.86 -3.12491 0.0823616 0
M  V30 26507 H 2646.08 -2.9937 2.56459 0
M  V30 26508 H 2647.37 -4.15178 2.94117 0
M  V30 26509 H 2646.77 -5.65532 0.137736 0
M  V30 26510 H 2645.32 -6.49537 0.542649 0
M  V30 26511 N 2648.76 -1.2161 -1.00244 0
M  V30 26512 C 2649.69 -1.00176 -2.10919 0
M  V30 26513 C 2650.67 0.0741288 -1.69938 0
M  V30 26514 O 2651.85 -0.0862094 -1.94009 0
M  V30 26515 C 2648.98 -0.568416 -3.42617 0
M  V30 26516 C 2647.94 -1.58916 -3.97404 0
M  V30 26517 C 2647.26 -1.01196 -5.25037 0
M  V30 26518 C 2648.56 -2.97668 -4.29175 0
M  V30 26519 H 2650.26 -1.92743 -2.29108 0
M  V30 26520 H 2647.8 -0.928121 -1.101 0
M  V30 26521 H 2649.75 -0.405629 -4.19443 0
M  V30 26522 H 2648.48 0.392904 -3.24228 0
M  V30 26523 H 2647.14 -1.73955 -3.227 0
M  V30 26524 H 2646.79 -0.0422849 -5.02982 0
M  V30 26525 H 2646.49 -1.6938 -5.62658 0
M  V30 26526 H 2648.01 -0.860554 -6.04505 0
M  V30 26527 H 2649.42 -2.86058 -4.96834 0
M  V30 26528 H 2647.82 -3.62889 -4.77945 0
M  V30 26529 H 2648.89 -3.48321 -3.37343 0
M  V30 26530 N 2650.23 1.19778 -1.02425 0
M  V30 26531 C 2651.17 2.22274 -0.559192 0
M  V30 26532 C 2652.18 1.58713 0.362482 0
M  V30 26533 O 2653.37 1.77785 0.15961 0
M  V30 26534 C 2650.47 3.38279 0.205035 0
M  V30 26535 C 2649.64 4.31426 -0.720437 0
M  V30 26536 C 2648.7 5.262 -0.00243618 0
M  V30 26537 O 2647.73 5.65731 -0.627477 0
M  V30 26538 N 2648.93 5.6644 1.26987 0
M  V30 26539 H 2651.69 2.62801 -1.44068 0
M  V30 26540 H 2649.25 1.34397 -0.902716 0
M  V30 26541 H 2651.25 3.98691 0.694798 0
M  V30 26542 H 2649.82 2.9658 0.987895 0
M  V30 26543 H 2649.04 3.68866 -1.39037 0
M  V30 26544 H 2650.32 4.90575 -1.34959 0
M  V30 26545 H 2649.72 5.3635 1.79849 0
M  V30 26546 H 2648.28 6.29126 1.70421 0
M  V30 26547 N 2651.71 0.801501 1.35697 0
M  V30 26548 C 2652.96 0.376014 1.98164 0
M  V30 26549 C 2653.27 -1.06125 1.64307 0
M  V30 26550 O 2654.48 -1.5896 2.201 0
M  V30 26551 C 2652.94 0.621367 3.54495 0
M  V30 26552 C 2652.54 2.07083 3.97266 0
M  V30 26553 C 2654.29 0.260985 4.23697 0
M  V30 26554 C 2652.19 2.26221 5.46423 0
M  V30 26555 H 2651.12 0.136857 0.741476 0
M  V30 26556 H 2653.78 0.984842 1.54833 0
M  V30 26557 H 2652.16 -0.0573416 3.95958 0
M  V30 26558 H 2653.33 2.78694 3.66969 0
M  V30 26559 H 2651.65 2.3906 3.40939 0
M  V30 26560 H 2654.24 0.382088 5.33333 0
M  V30 26561 H 2654.59 -0.792272 4.08691 0
M  V30 26562 H 2655.12 0.893408 3.87638 0
M  V30 26563 H 2651.86 3.29973 5.6639 0
M  V30 26564 H 2651.38 1.59129 5.78306 0
M  V30 26565 H 2653.06 2.07524 6.12815 0
M  V30 26566 N 2653.19 -1.47521 0.554558 0
M  V30 26567 C 2654.61 -1.58157 0.214135 0
M  V30 26568 C 2654.81 -1.55352 -1.28328 0
M  V30 26569 O 2653.86 -1.45552 -2.06327 0
M  V30 26570 C 2655.17 -2.88774 0.838442 0
M  V30 26571 C 2656.72 -3.02353 0.809427 0
M  V30 26572 C 2657.2 -4.35666 1.41276 0
M  V30 26573 N 2658.69 -4.42296 1.37582 0
M  V30 26574 C 2659.42 -5.44007 1.8123 0
M  V30 26575 N 2658.92 -6.52543 2.32721 0
M  V30 26576 N 2660.71 -5.35036 1.72317 0
M  V30 26577 H 2652.86 -1.47588 1.52747 0
M  V30 26578 H 2655.13 -0.702253 0.636824 0
M  V30 26579 H 2654.83 -2.96556 1.8907 0
M  V30 26580 H 2654.71 -3.75754 0.329913 0
M  V30 26581 H 2657.09 -2.9417 -0.234135 0
M  V30 26582 H 2657.17 -2.16921 1.35569 0
M  V30 26583 H 2656.82 -4.44605 2.45537 0
M  V30 26584 H 2656.75 -5.19826 0.841962 0
M  V30 26585 H 2659.24 -3.64452 0.999145 0
M  V30 26586 H 2659.55 -7.26324 2.63957 0
M  V30 26587 H 2657.9 -6.5344 2.3673 0
M  V30 26588 H 2661.09 -4.49142 1.31868 0
M  V30 26589 H 2661.26 -6.14165 2.06651 0
M  V30 26590 N 2654.67 -0.290879 -1.54892 0
M  V30 26591 C 2655.63 0.576745 -2.21825 0
M  V30 26592 C 2656.63 1.06917 -1.20106 0
M  V30 26593 O 2657.82 0.966817 -1.44908 0
M  V30 26594 C 2654.95 1.79742 -2.89665 0
M  V30 26595 H 2656.15 -0.00789323 -2.99899 0
M  V30 26596 H 2653.7 -0.0416208 -1.56245 0
M  V30 26597 H 2654.43 2.42215 -2.15644 0
M  V30 26598 H 2654.22 1.45208 -3.64221 0
M  V30 26599 H 2655.71 2.41404 -3.40755 0
M  V30 26600 N 2656.15 1.57589 -0.0184203 0
M  V30 26601 C 2657.08 2.12601 0.965559 0
M  V30 26602 C 2658.06 1.03953 1.3464 0
M  V30 26603 O 2659.24 1.31731 1.4269 0
M  V30 26604 C 2656.37 2.64438 2.25145 0
M  V30 26605 C 2655.33 3.77777 2.01168 0
M  V30 26606 C 2654.65 4.15999 3.35929 0
M  V30 26607 C 2655.95 5.04298 1.35944 0
M  V30 26608 H 2657.65 2.95068 0.507452 0
M  V30 26609 H 2655.19 1.41941 0.242646 0
M  V30 26610 H 2657.14 3.01554 2.94352 0
M  V30 26611 H 2655.87 1.79117 2.73102 0
M  V30 26612 H 2654.53 3.41082 1.34382 0
M  V30 26613 H 2654.18 3.27676 3.81625 0
M  V30 26614 H 2653.88 4.92369 3.20696 0
M  V30 26615 H 2655.4 4.5569 4.06422 0
M  V30 26616 H 2656.81 5.39069 1.95135 0
M  V30 26617 H 2655.21 5.85595 1.31142 0
M  V30 26618 H 2656.28 4.83769 0.330986 0
M  V30 26619 N 2657.62 -0.254594 1.5553 0
M  V30 26620 C 2658.87 -0.983705 1.77001 0
M  V30 26621 C 2659.2 -1.85608 0.581363 0
M  V30 26622 O 2658.45 -1.90791 -0.435587 0
M  V30 26623 C 2658.75 -1.88103 3.03895 0
M  V30 26624 C 2658.42 -1.16465 4.35599 0
M  V30 26625 C 2657.08 -0.966631 4.71391 0
M  V30 26626 C 2659.43 -0.656296 5.17051 0
M  V30 26627 C 2656.76 -0.247839 5.86176 0
M  V30 26628 C 2659.11 0.0489919 6.32581 0
M  V30 26629 C 2657.78 0.258556 6.66999 0
M  V30 26630 H 2657.05 -0.359963 0.647694 0
M  V30 26631 H 2659.69 -0.25443 1.89802 0
M  V30 26632 H 2658 -2.67712 2.86073 0
M  V30 26633 H 2659.7 -2.44672 3.17705 0
M  V30 26634 H 2656.29 -1.32891 4.07477 0
M  V30 26635 H 2660.47 -0.796847 4.89861 0
M  V30 26636 H 2655.73 -0.0749276 6.11354 0
M  V30 26637 H 2659.9 0.450567 6.94941 0
M  V30 26638 H 2657.53 0.817491 7.55792 0
M  V30 26639 N 2659.1 -1.48777 -0.519925 0
M  V30 26640 C 2660.33 -1.61243 -1.30444 0
M  V30 26641 C 2660.75 -0.276624 -1.86055 0
M  V30 26642 O 2660.11 0.753154 -1.64916 0
M  V30 26643 C 2660.16 -2.66972 -2.42401 0
M  V30 26644 O 2659.26 -2.2483 -3.45724 0
M  V30 26645 H 2658.6 -0.540338 -0.385915 0
M  V30 26646 H 2661.13 -1.94835 -0.624538 0
M  V30 26647 H 2661.14 -2.88557 -2.88442 0
M  V30 26648 H 2659.82 -3.63945 -2.01288 0
M  V30 26649 H 2658.39 -2.13499 -3.05733 0
M  V30 26650 N 2660.58 0.769564 -1.37534 0
M  V30 26651 C 2661.51 1.89212 -1.29351 0
M  V30 26652 C 2662.52 1.61455 -0.208871 0
M  V30 26653 O 2663.71 1.72332 -0.465188 0
M  V30 26654 C 2660.81 3.24491 -0.977706 0
M  V30 26655 C 2659.99 3.79876 -2.16824 0
M  V30 26656 C 2659.05 4.93635 -1.82238 0
M  V30 26657 O 2658.07 5.09106 -2.54557 0
M  V30 26658 N 2659.27 5.754 -0.767798 0
M  V30 26659 H 2662.04 1.96747 -2.26077 0
M  V30 26660 H 2659.6 0.948772 -1.31187 0
M  V30 26661 H 2661.59 3.98114 -0.727135 0
M  V30 26662 H 2660.16 3.12443 -0.0989326 0
M  V30 26663 H 2659.38 2.98005 -2.58043 0
M  V30 26664 H 2660.67 4.13612 -2.96315 0
M  V30 26665 H 2660.07 5.65451 -0.167726 0
M  V30 26666 H 2658.62 6.4924 -0.577087 0
M  V30 26667 N 2662.06 1.22139 0.995977 0
M  V30 26668 C 2663.31 1.03824 1.72926 0
M  V30 26669 C 2663.62 -0.427411 1.90873 0
M  V30 26670 O 2664.83 -0.730166 2.61497 0
M  V30 26671 C 2663.28 1.80919 3.11121 0
M  V30 26672 C 2662.89 3.31713 3.01116 0
M  V30 26673 C 2664.63 1.71041 3.88517 0
M  V30 26674 C 2662.54 4.01261 4.34446 0
M  V30 26675 H 2661.47 0.384881 0.648369 0
M  V30 26676 H 2664.12 1.45961 1.1121 0
M  V30 26677 H 2662.5 1.31579 3.73501 0
M  V30 26678 H 2663.68 3.88423 2.4792 0
M  V30 26679 H 2661.99 3.42232 2.37204 0
M  V30 26680 H 2664.59 2.20327 4.87196 0
M  V30 26681 H 2664.93 0.670268 4.10869 0
M  V30 26682 H 2665.47 2.17907 3.32808 0
M  V30 26683 H 2662.21 5.05516 4.17294 0
M  V30 26684 H 2661.73 3.49339 4.87568 0
M  V30 26685 H 2663.4 4.06683 5.03208 0
M  V30 26686 N 2663.54 -1.19233 1.03059 0
M  V30 26687 C 2664.76 -1.93457 0.747604 0
M  V30 26688 C 2665.19 -1.75081 -0.687617 0
M  V30 26689 O 2664.54 -1.05425 -1.47497 0
M  V30 26690 C 2664.59 -3.43217 1.10611 0
M  V30 26691 O 2663.7 -4.11782 0.225743 0
M  V30 26692 H 2663.04 -0.603894 0.276057 0
M  V30 26693 H 2665.57 -1.51261 1.37773 0
M  V30 26694 H 2665.58 -3.93889 1.06373 0
M  V30 26695 H 2664.25 -3.55913 2.15171 0
M  V30 26696 H 2662.83 -3.71465 0.32686 0
M  V30 26697 N 2665.01 -0.808686 -1.3527 0
M  V30 26698 C 2666.24 -0.401511 -2.03476 0
M  V30 26699 C 2666.66 0.98025 -1.60539 0
M  V30 26700 O 2666.02 1.63517 -0.783068 0
M  V30 26701 C 2666.07 -0.495416 -3.57181 0
M  V30 26702 O 2665.17 0.490325 -4.09475 0
M  V30 26703 H 2664.52 -0.167377 -0.642558 0
M  V30 26704 H 2667.05 -1.09515 -1.72822 0
M  V30 26705 H 2667.06 -0.365983 -4.06355 0
M  V30 26706 H 2665.73 -1.50327 -3.87782 0
M  V30 26707 H 2664.31 0.320958 -3.71516 0
M  V30 26708 N 2666.49 1.47225 -0.562374 0
M  V30 26709 C 2667.46 2.28554 0.172016 0
M  V30 26710 C 2668.46 1.37244 0.837904 0
M  V30 26711 O 2669.65 1.59823 0.692973 0
M  V30 26712 C 2666.78 3.1707 1.25218 0
M  V30 26713 H 2667.97 2.94953 -0.542453 0
M  V30 26714 H 2665.52 1.52999 -0.31952 0
M  V30 26715 H 2666.26 2.55373 1.99888 0
M  V30 26716 H 2666.04 3.84275 0.779448 0
M  V30 26717 H 2667.53 3.78335 1.76784 0
M  V30 26718 N 2667.97 0.299089 1.54736 0
M  V30 26719 C 2669.22 -0.311209 2.00398 0
M  V30 26720 C 2669.55 -1.53686 1.18719 0
M  V30 26721 O 2668.82 -1.92711 0.263188 0
M  V30 26722 C 2669.11 -0.669698 3.53818 0
M  V30 26723 C 2668.96 0.564961 4.46238 0
M  V30 26724 C 2670.28 -1.49695 4.13859 0
M  V30 26725 H 2667.4 -0.11164 0.728495 0
M  V30 26726 H 2670.04 0.410807 1.85506 0
M  V30 26727 H 2668.19 -1.28484 3.66639 0
M  V30 26728 H 2669.86 1.20345 4.45326 0
M  V30 26729 H 2668.11 1.19856 4.16914 0
M  V30 26730 H 2668.78 0.270015 5.51339 0
M  V30 26731 H 2671.25 -0.977213 4.04462 0
M  V30 26732 H 2670.13 -1.71657 5.21368 0
M  V30 26733 H 2670.39 -2.48556 3.65612 0
M  V30 26734 N 2669.45 -1.57577 0.0267774 0
M  V30 26735 C 2670.7 -1.91704 -0.652371 0
M  V30 26736 C 2671.02 -0.902967 -1.72269 0
M  V30 26737 O 2670.28 0.08845 -1.955 0
M  V30 26738 C 2670.58 -3.32562 -1.30909 0
M  V30 26739 C 2670.24 -4.49385 -0.369362 0
M  V30 26740 C 2668.91 -4.81073 -0.110707 0
M  V30 26741 C 2671.26 -5.20468 0.276063 0
M  V30 26742 C 2668.59 -5.81203 0.801218 0
M  V30 26743 C 2670.94 -6.21572 1.17603 0
M  V30 26744 C 2669.6 -6.51703 1.4436 0
M  V30 26745 H 2668.87 -0.701494 -0.238719 0
M  V30 26746 H 2671.52 -1.91298 0.0880428 0
M  V30 26747 H 2669.82 -3.29219 -2.12419 0
M  V30 26748 H 2671.52 -3.56237 -1.84109 0
M  V30 26749 H 2668.11 -4.24642 -0.581137 0
M  V30 26750 H 2672.29 -4.9622 0.0892872 0
M  V30 26751 H 2667.55 -6.02895 1.01625 0
M  V30 26752 H 2671.72 -6.75774 1.68235 0
M  V30 26753 H 2669.35 -7.29108 2.15188 0
M  V30 26754 N 2670.93 0.246342 -1.55663 0
M  V30 26755 C 2671.86 1.3087 -1.93379 0
M  V30 26756 C 2672.84 1.50177 -0.798799 0
M  V30 26757 O 2674.02 1.62776 -1.05913 0
M  V30 26758 C 2671.15 2.66334 -2.22897 0
M  V30 26759 C 2670.11 2.61721 -3.38653 0
M  V30 26760 C 2669.43 4.00986 -3.53715 0
M  V30 26761 C 2670.73 2.18658 -4.74327 0
M  V30 26762 H 2672.43 0.995502 -2.82365 0
M  V30 26763 H 2669.97 0.47744 -1.35855 0
M  V30 26764 H 2671.93 3.4079 -2.47872 0
M  V30 26765 H 2670.65 2.99291 -1.30738 0
M  V30 26766 H 2669.31 1.89723 -3.13689 0
M  V30 26767 H 2668.96 4.31209 -2.58975 0
M  V30 26768 H 2668.66 3.98787 -4.31558 0
M  V30 26769 H 2670.18 4.7714 -3.81011 0
M  V30 26770 H 2671.59 2.82845 -4.9867 0
M  V30 26771 H 2669.99 2.27569 -5.55277 0
M  V30 26772 H 2671.06 1.13826 -4.71351 0
M  V30 26773 N 2672.4 1.4905 0.512027 0
M  V30 26774 C 2673.82 1.35569 0.842216 0
M  V30 26775 C 2674.02 0.380354 1.97878 0
M  V30 26776 O 2673.08 -0.191966 2.51769 0
M  V30 26777 C 2674.39 2.7603 1.19281 0
M  V30 26778 C 2675.94 2.8465 1.30166 0
M  V30 26779 C 2676.41 4.25854 1.6856 0
M  V30 26780 N 2677.9 4.28612 1.7563 0
M  V30 26781 C 2678.64 5.34825 2.0676 0
M  V30 26782 N 2678.13 6.51296 2.3619 0
M  V30 26783 N 2679.93 5.22232 2.07918 0
M  V30 26784 H 2672.08 2.11067 -0.237611 0
M  V30 26785 H 2674.34 0.946993 -0.0436913 0
M  V30 26786 H 2674.05 3.49047 0.431137 0
M  V30 26787 H 2673.92 3.10699 2.13884 0
M  V30 26788 H 2676.31 2.11877 2.05407 0
M  V30 26789 H 2676.39 2.53578 0.336412 0
M  V30 26790 H 2676.03 4.99149 0.938736 0
M  V30 26791 H 2675.96 4.54382 2.66167 0
M  V30 26792 H 2678.45 3.44609 1.55091 0
M  V30 26793 H 2678.77 7.28071 2.591 0
M  V30 26794 H 2677.11 6.54541 2.3367 0
M  V30 26795 H 2680.3 4.30251 1.84395 0
M  V30 26796 H 2680.48 6.05105 2.31845 0
M  V30 26797 N 2673.88 -0.762259 1.3794 0
M  V30 26798 C 2675.3 -1.06413 1.18947 0
M  V30 26799 C 2675.5 -2.01474 0.0321517 0
M  V30 26800 O 2674.55 -2.44648 -0.624801 0
M  V30 26801 C 2675.87 -1.65253 2.51221 0
M  V30 26802 C 2677.42 -1.77466 2.57827 0
M  V30 26803 C 2677.89 -2.39718 3.90255 0
M  V30 26804 N 2679.38 -2.47159 3.91748 0
M  V30 26805 C 2680.12 -2.96201 4.90971 0
M  V30 26806 N 2679.61 -3.45344 6.00591 0
M  V30 26807 N 2681.41 -2.95162 4.78368 0
M  V30 26808 H 2673.56 -0.131263 2.11994 0
M  V30 26809 H 2675.82 -0.120862 0.940264 0
M  V30 26810 H 2675.53 -1.02872 3.36319 0
M  V30 26811 H 2675.4 -2.64428 2.68994 0
M  V30 26812 H 2677.79 -2.38977 1.7313 0
M  V30 26813 H 2677.87 -0.770198 2.43929 0
M  V30 26814 H 2677.51 -1.78844 4.75371 0
M  V30 26815 H 2677.44 -3.40789 4.0146 0
M  V30 26816 H 2679.93 -2.12392 3.12567 0
M  V30 26817 H 2680.25 -3.81195 6.72242 0
M  V30 26818 H 2678.59 -3.43424 6.04223 0
M  V30 26819 H 2681.78 -2.56075 3.91846 0
M  V30 26820 H 2681.95 -3.33071 5.55849 0
M  V30 26821 N 2675.36 -1.22666 -0.989486 0
M  V30 26822 C 2676.61 -1.05484 -1.73208 0
M  V30 26823 C 2676.94 0.408602 -1.89853 0
M  V30 26824 O 2676.21 1.30283 -1.44418 0
M  V30 26825 C 2676.5 -1.77052 -3.13567 0
M  V30 26826 C 2676.35 -3.31013 -3.04549 0
M  V30 26827 C 2677.67 -1.52567 -4.12809 0
M  V30 26828 H 2674.79 -0.3846 -0.62869 0
M  V30 26829 H 2677.43 -1.51051 -1.15255 0
M  V30 26830 H 2675.58 -1.38317 -3.63044 0
M  V30 26831 H 2677.25 -3.79215 -2.62667 0
M  V30 26832 H 2675.5 -3.60514 -2.41271 0
M  V30 26833 H 2676.17 -3.7627 -4.03887 0
M  V30 26834 H 2678.64 -1.86222 -3.72103 0
M  V30 26835 H 2677.52 -2.05133 -5.09128 0
M  V30 26836 H 2677.78 -0.459014 -4.39711 0
M  V30 26837 N 2676.84 1.18685 -1.0369 0
M  V30 26838 C 2677.8 2.20396 -0.629154 0
M  V30 26839 C 2678.8 1.57755 0.311467 0
M  V30 26840 O 2679.99 1.73928 0.0973801 0
M  V30 26841 C 2677.12 3.4081 0.0781632 0
M  V30 26842 H 2678.32 2.57984 -1.52919 0
M  V30 26843 H 2675.87 1.32503 -0.829011 0
M  V30 26844 H 2676.61 3.0875 0.992178 0
M  V30 26845 H 2676.39 3.87515 -0.597845 0
M  V30 26846 H 2677.88 4.1613 0.350082 0
M  V30 26847 N 2678.32 0.815849 1.34839 0
M  V30 26848 C 2679.25 0.247339 2.32186 0
M  V30 26849 C 2680.23 -0.632316 1.57911 0
M  V30 26850 O 2681.41 -0.560665 1.85931 0
M  V30 26851 C 2678.54 -0.597406 3.42123 0
M  V30 26852 C 2677.5 0.184521 4.27602 0
M  V30 26853 C 2676.82 -0.782516 5.28943 0
M  V30 26854 C 2678.12 1.38874 5.03499 0
M  V30 26855 H 2679.82 1.06066 2.79983 0
M  V30 26856 H 2677.36 0.511485 1.3461 0
M  V30 26857 H 2679.32 -1.00526 4.09234 0
M  V30 26858 H 2678.04 -1.44371 2.92958 0
M  V30 26859 H 2676.7 0.573656 3.62084 0
M  V30 26860 H 2676.35 -1.62458 4.76043 0
M  V30 26861 H 2676.05 -0.263592 5.87008 0
M  V30 26862 H 2677.57 -1.18837 5.98924 0
M  V30 26863 H 2678.99 1.05527 5.63504 0
M  V30 26864 H 2677.38 1.8428 5.71105 0
M  V30 26865 H 2678.45 2.17061 4.33604 0
M  V30 26866 N 2679.8 -1.46924 0.570174 0
M  V30 26867 C 2680.71 -2.33961 -0.173019 0
M  V30 26868 C 2681.72 -1.48989 -0.898798 0
M  V30 26869 O 2682.9 -1.81888 -0.864793 0
M  V30 26870 C 2679.96 -3.25939 -1.18172 0
M  V30 26871 C 2679.02 -4.26807 -0.461966 0
M  V30 26872 C 2678.26 -5.1439 -1.42261 0
M  V30 26873 O 2678.48 -5.04667 -2.65833 0
M  V30 26874 O 2677.41 -5.94514 -0.940023 0
M  V30 26875 H 2681.24 -2.98838 0.541269 0
M  V30 26876 H 2678.82 -1.45695 0.330673 0
M  V30 26877 H 2680.71 -3.82718 -1.76365 0
M  V30 26878 H 2679.38 -2.63675 -1.8777 0
M  V30 26879 H 2678.29 -3.73751 0.161494 0
M  V30 26880 H 2679.62 -4.91822 0.192805 0
M  V30 26881 N 2681.27 -0.307291 -1.54575 0
M  V30 26882 C 2682.52 0.300577 -2.0056 0
M  V30 26883 C 2682.85 1.53054 -1.19532 0
M  V30 26884 O 2682.13 1.92569 -0.273404 0
M  V30 26885 C 2682.41 0.650925 -3.54168 0
M  V30 26886 C 2682.26 -0.588618 -4.45932 0
M  V30 26887 C 2683.58 1.47498 -4.14647 0
M  V30 26888 H 2680.7 0.107775 -0.729077 0
M  V30 26889 H 2683.34 -0.420639 -1.85285 0
M  V30 26890 H 2681.49 1.26538 -3.67315 0
M  V30 26891 H 2683.17 -1.22705 -4.44681 0
M  V30 26892 H 2681.41 -1.22065 -4.16272 0
M  V30 26893 H 2682.08 -0.29925 -5.51188 0
M  V30 26894 H 2684.56 0.95575 -4.04975 0
M  V30 26895 H 2683.43 1.6889 -5.22271 0
M  V30 26896 H 2683.69 2.46614 -3.66925 0
M  V30 26897 N 2682.75 1.57561 -0.0351337 0
M  V30 26898 C 2683.71 2.09494 0.929782 0
M  V30 26899 C 2684.71 1.01121 1.25024 0
M  V30 26900 O 2685.9 1.27258 1.18959 0
M  V30 26901 C 2683.04 2.56581 2.24452 0
M  V30 26902 H 2684.23 2.96036 0.479883 0
M  V30 26903 H 2681.78 1.54842 0.213005 0
M  V30 26904 H 2682.52 1.73386 2.74058 0
M  V30 26905 H 2682.3 3.35761 2.02502 0
M  V30 26906 H 2683.79 2.96964 2.93602 0
M  V30 26907 N 2684.23 -0.238084 1.55791 0
M  V30 26908 C 2685.45 -0.9864 1.82442 0
M  V30 26909 C 2685.88 -1.77819 0.613345 0
M  V30 26910 O 2685.24 -1.75936 -0.437736 0
M  V30 26911 C 2685.29 -1.89295 3.0692 0
M  V30 26912 O 2684.39 -2.98596 2.84454 0
M  V30 26913 H 2683.73 -0.280207 0.60198 0
M  V30 26914 H 2686.26 -0.256402 2.02987 0
M  V30 26915 H 2686.27 -2.30593 3.36587 0
M  V30 26916 H 2684.95 -1.31084 3.94702 0
M  V30 26917 H 2683.52 -2.61363 2.65977 0
M  V30 26918 N 2685.71 -1.4932 -0.504115 0
M  V30 26919 C 2687.12 -1.51887 -1.08569 0
M  V30 26920 C 2687.47 -0.303289 -1.93842 0
M  V30 26921 O 2686.59 0.587203 -2.08281 0
M  V30 26922 C 2687.19 -2.75231 -1.97569 0
M  V30 26923 C 2685.75 -2.80586 -2.50895 0
M  V30 26924 C 2684.9 -2.45759 -1.28443 0
M  V30 26925 H 2687.85 -1.56062 -0.288167 0
M  V30 26926 H 2687.87 -2.55216 -2.82215 0
M  V30 26927 H 2687.38 -3.63685 -1.35479 0
M  V30 26928 H 2685.48 -1.96404 -3.16633 0
M  V30 26929 H 2685.59 -3.82678 -2.88261 0
M  V30 26930 H 2683.96 -1.97471 -1.60864 0
M  V30 26931 H 2684.74 -3.36485 -0.680661 0
M  V30 26932 N 2687.19 0.754933 -1.38342 0
M  V30 26933 C 2688.15 1.8503 -1.35265 0
M  V30 26934 C 2689.15 1.5879 -0.253421 0
M  V30 26935 O 2690.34 1.6656 -0.510235 0
M  V30 26936 C 2687.47 3.22477 -1.1055 0
M  V30 26937 H 2688.66 1.89166 -2.32715 0
M  V30 26938 H 2686.22 0.956493 -1.23616 0
M  V30 26939 H 2686.95 3.2401 -0.137009 0
M  V30 26940 H 2686.74 3.42917 -1.90133 0
M  V30 26941 H 2688.23 4.02553 -1.11089 0
M  V30 26942 N 2688.66 1.23189 0.982967 0
M  V30 26943 C 2689.91 1.06034 1.7205 0
M  V30 26944 C 2690.23 -0.403986 1.90769 0
M  V30 26945 O 2689.5 -1.28979 1.47449 0
M  V30 26946 H 2688.08 0.389375 0.637492 0
M  V30 26947 H 2690.74 1.54864 1.18335 0
M  V30 26948 H 2689.84 1.5462 2.71107 0
M  V30 26949 N 2690.14 -1.18133 1.04318 0
M  V30 26950 C 2691.07 -2.21356 0.594483 0
M  V30 26951 C 2692.09 -1.5927 -0.337187 0
M  V30 26952 O 2693.28 -1.78016 -0.131306 0
M  V30 26953 C 2690.38 -3.38563 -0.151191 0
M  V30 26954 C 2689.55 -4.30225 0.788982 0
M  V30 26955 C 2688.61 -5.26129 0.0861497 0
M  V30 26956 O 2687.63 -5.64661 0.717401 0
M  V30 26957 N 2688.84 -5.68389 -1.17959 0
M  V30 26958 H 2691.6 -2.60476 1.48231 0
M  V30 26959 H 2689.16 -1.32944 0.923983 0
M  V30 26960 H 2691.15 -3.99746 -0.631282 0
M  V30 26961 H 2689.72 -2.98114 -0.940586 0
M  V30 26962 H 2688.94 -3.66608 1.44888 0
M  V30 26963 H 2690.23 -4.88365 1.42747 0
M  V30 26964 H 2689.63 -5.39143 -1.71293 0
M  V30 26965 H 2688.19 -6.31758 -1.60391 0
M  V30 26966 N 2691.62 -0.822988 -1.34405 0
M  V30 26967 C 2692.87 -0.41028 -1.97892 0
M  V30 26968 C 2693.19 1.03014 -1.65569 0
M  V30 26969 O 2692.46 1.7152 -0.946451 0
M  V30 26970 H 2691.04 -0.14872 -0.732046 0
M  V30 26971 H 2693.7 -1.05245 -1.64041 0
M  V30 26972 H 2692.8 -0.529338 -3.07578 0
M  V30 26973 N 2693.1 1.4662 -0.577957 0
M  V30 26974 C 2694.06 2.28723 0.147765 0
M  V30 26975 C 2695.06 1.38125 0.8233 0
M  V30 26976 O 2696.25 1.60549 0.675983 0
M  V30 26977 C 2693.38 3.1838 1.21848 0
M  V30 26978 H 2694.58 2.94361 -0.573706 0
M  V30 26979 H 2692.13 1.52652 -0.33573 0
M  V30 26980 H 2692.86 2.57479 1.97168 0
M  V30 26981 H 2692.65 3.8508 0.738647 0
M  V30 26982 H 2694.14 3.80189 1.72761 0
M  V30 26983 N 2694.58 0.315484 1.5441 0
M  V30 26984 C 2695.51 -0.546999 2.27003 0
M  V30 26985 C 2696.49 -1.12603 1.27494 0
M  V30 26986 O 2697.67 -1.15267 1.56292 0
M  V30 26987 C 2694.8 -1.71196 3.02174 0
M  V30 26988 C 2693.76 -1.26261 4.08952 0
M  V30 26989 C 2693.08 -2.51388 4.7192 0
M  V30 26990 C 2694.38 -0.383327 5.20891 0
M  V30 26991 H 2696.08 0.0585043 2.99343 0
M  V30 26992 H 2693.62 0.0295781 1.4397 0
M  V30 26993 H 2695.58 -2.32155 3.51685 0
M  V30 26994 H 2694.3 -2.34393 2.27437 0
M  V30 26995 H 2692.96 -0.675999 3.60313 0
M  V30 26996 H 2692.61 -3.12931 3.93806 0
M  V30 26997 H 2692.31 -2.22017 5.44043 0
M  V30 26998 H 2693.83 -3.13124 5.242 0
M  V30 26999 H 2695.24 -0.898983 5.66208 0
M  V30 27000 H 2693.64 -0.182752 5.99822 0
M  V30 27001 H 2694.71 0.587906 4.81323 0
M  V30 27002 N 2696.05 -1.5754 0.0434891 0
M  V30 27003 C 2697.02 -2.09984 -0.918659 0
M  V30 27004 C 2698.02 -1.01783 -1.24486 0
M  V30 27005 O 2699.21 -1.27887 -1.18282 0
M  V30 27006 C 2696.34 -2.57768 -2.23088 0
M  V30 27007 H 2697.53 -2.96286 -0.464177 0
M  V30 27008 H 2695.09 -1.54953 -0.204791 0
M  V30 27009 H 2695.82 -1.74837 -2.73134 0
M  V30 27010 H 2695.61 -3.3683 -2.00718 0
M  V30 27011 H 2697.1 -2.98517 -2.92023 0
M  V30 27012 N 2697.53 0.229818 -1.55915 0
M  V30 27013 C 2698.76 0.97671 -1.82962 0
M  V30 27014 C 2699.18 1.77491 -0.622767 0
M  V30 27015 O 2698.54 1.76166 0.4284 0
M  V30 27016 C 2698.59 1.87664 -3.0792 0
M  V30 27017 O 2697.69 2.97083 -2.86034 0
M  V30 27018 H 2697.03 0.277011 -0.603458 0
M  V30 27019 H 2699.56 0.245633 -2.0312 0
M  V30 27020 H 2699.57 2.28804 -3.37806 0
M  V30 27021 H 2698.25 1.28989 -3.95392 0
M  V30 27022 H 2696.83 2.59949 -2.67359 0
M  V30 27023 N 2699.01 1.49585 0.49619 0
M  V30 27024 C 2699.96 1.67101 1.61802 0
M  V30 27025 C 2700.95 0.536905 1.60666 0
M  V30 27026 O 2702.16 0.716683 1.65117 0
M  V30 27027 H 2698.53 0.526996 0.536451 0
M  V30 27028 H 2700.5 2.61255 1.44182 0
M  V30 27029 C 2699.25 1.75926 2.99909 0
M  V30 27030 H 2698.58 2.62571 3.01491 0
M  V30 27031 H 2700.02 1.92215 3.77928 0
M  V30 27032 C 2698.48 0.505146 3.33091 0
M  V30 27033 O 2699.01 -0.367015 4.0002 0
M  V30 27034 N 2697.21 0.36665 2.88278 0
M  V30 27035 H 2696.76 1.07739 2.33987 0
M  V30 27036 H 2696.72 -0.471366 3.10846 0
M  V30 27037 N 2700.49 -0.747586 1.3874 0
M  V30 27038 C 2701.73 -1.5091 1.35477 0
M  V30 27039 C 2702.07 -1.94127 -0.0532752 0
M  V30 27040 O 2701.34 -1.65873 -1.01569 0
M  V30 27041 C 2701.63 -2.75753 2.31587 0
M  V30 27042 C 2701.48 -2.38635 3.81279 0
M  V30 27043 C 2702.8 -3.77802 2.25729 0
M  V30 27044 H 2699.92 -0.547439 0.493437 0
M  V30 27045 H 2702.56 -0.855793 1.69635 0
M  V30 27046 H 2700.71 -3.31497 2.02588 0
M  V30 27047 H 2702.38 -1.88619 4.20976 0
M  V30 27048 H 2700.62 -1.71018 3.98667 0
M  V30 27049 H 2701.29 -3.27982 4.43996 0
M  V30 27050 H 2703.77 -3.31612 2.51342 0
M  V30 27051 H 2702.65 -4.6284 2.95077 0
M  V30 27052 H 2702.91 -4.23821 1.25811 0
M  V30 27053 N 2701.97 -1.23709 -0.97642 0
M  V30 27054 C 2702.88 -1.0386 -2.10357 0
M  V30 27055 C 2703.89 0.0180614 -1.73991 0
M  V30 27056 O 2705.07 -0.178247 -2.0061 0
M  V30 27057 C 2702.13 -0.636447 -3.40808 0
M  V30 27058 C 2701.19 -1.76861 -3.91176 0
M  V30 27059 C 2700.43 -1.38555 -5.15401 0
M  V30 27060 O 2700.65 -0.27152 -5.69753 0
M  V30 27061 O 2699.58 -2.20806 -5.59936 0
M  V30 27062 H 2703.41 -1.98335 -2.29994 0
M  V30 27063 H 2701 -1.0245 -1.0874 0
M  V30 27064 H 2702.88 -0.423296 -4.19269 0
M  V30 27065 H 2701.55 0.279265 -3.22493 0
M  V30 27066 H 2700.46 -2.03643 -3.13816 0
M  V30 27067 H 2701.79 -2.66278 -4.13953 0
M  V30 27068 N 2703.44 1.17579 -1.04943 0
M  V30 27069 C 2704.37 2.23705 -0.669211 0
M  V30 27070 C 2705.36 1.66832 0.331806 0
M  V30 27071 O 2706.54 1.93062 0.209954 0
M  V30 27072 C 2703.67 3.47276 -0.04055 0
M  V30 27073 C 2702.62 4.16955 -0.966057 0
M  V30 27074 C 2701.95 5.34321 -0.201406 0
M  V30 27075 C 2703.25 4.69465 -2.2891 0
M  V30 27076 H 2704.94 2.55765 -1.55643 0
M  V30 27077 H 2702.49 1.22938 -0.749815 0
M  V30 27078 H 2704.44 4.20732 0.237224 0
M  V30 27079 H 2703.17 3.14476 0.881603 0
M  V30 27080 H 2701.83 3.45408 -1.22835 0
M  V30 27081 H 2701.47 4.9777 0.723432 0
M  V30 27082 H 2701.17 5.81877 -0.81807 0
M  V30 27083 H 2702.7 6.10561 0.0691426 0
M  V30 27084 H 2704.11 5.3457 -2.07141 0
M  V30 27085 H 2702.51 5.27591 -2.85951 0
M  V30 27086 H 2703.58 3.86409 -2.92944 0
M  V30 27087 N 2704.92 0.830104 1.33967 0
M  V30 27088 C 2706.16 0.427556 1.99878 0
M  V30 27089 C 2706.53 -0.992517 1.64357 0
M  V30 27090 O 2707.73 -1.49833 2.23167 0
M  V30 27091 C 2706 0.631877 3.5177 0
M  V30 27092 S 2707.56 0.323245 4.37608 0
M  V30 27093 H 2704.38 0.161214 0.692482 0
M  V30 27094 H 2706.98 1.07748 1.63127 0
M  V30 27095 H 2705.68 1.66495 3.7511 0
M  V30 27096 H 2705.21 -0.0325245 3.93387 0
M  V30 27097 H 2707.23 -0.860346 4.88684 0
M  V30 27098 N 2706.4 -1.46311 0.585725 0
M  V30 27099 C 2707.33 -2.33118 -0.133516 0
M  V30 27100 C 2708.31 -1.45527 -0.880682 0
M  V30 27101 O 2709.5 -1.74339 -0.855548 0
M  V30 27102 C 2706.63 -3.27855 -1.14579 0
M  V30 27103 C 2705.58 -4.24911 -0.513266 0
M  V30 27104 C 2704.91 -5.09178 -1.63222 0
M  V30 27105 C 2706.21 -5.1938 0.551504 0
M  V30 27106 H 2707.9 -2.93504 0.591261 0
M  V30 27107 H 2705.45 -1.41136 0.285786 0
M  V30 27108 H 2707.4 -3.87441 -1.65734 0
M  V30 27109 H 2706.12 -2.65583 -1.90088 0
M  V30 27110 H 2704.78 -3.66593 -0.0227705 0
M  V30 27111 H 2704.43 -4.43289 -2.37706 0
M  V30 27112 H 2704.13 -5.74909 -1.21463 0
M  V30 27113 H 2705.66 -5.71628 -2.14648 0
M  V30 27114 H 2707.07 -5.73164 0.124905 0
M  V30 27115 H 2705.47 -5.9347 0.88959 0
M  V30 27116 H 2706.54 -4.6313 1.43663 0
M  V30 27117 N 2707.88 -0.323668 -1.54241 0
M  V30 27118 C 2709.12 0.279467 -2.0248 0
M  V30 27119 C 2709.48 1.49337 -1.20675 0
M  V30 27120 O 2710.68 2.16938 -1.58718 0
M  V30 27121 C 2708.96 0.605204 -3.52239 0
M  V30 27122 S 2710.51 1.18798 -4.22413 0
M  V30 27123 H 2707.33 0.0845189 -0.705959 0
M  V30 27124 H 2709.93 -0.456814 -1.90088 0
M  V30 27125 H 2708.64 -0.286411 -4.09399 0
M  V30 27126 H 2708.17 1.37168 -3.68712 0
M  V30 27127 H 2710.18 2.47479 -4.3008 0
M  V30 27128 N 2709.36 1.57515 -0.0518432 0
M  V30 27129 C 2710.77 1.80324 0.483755 0
M  V30 27130 C 2711.12 0.964129 1.70877 0
M  V30 27131 O 2710.24 0.18091 2.15642 0
M  V30 27132 C 2710.84 3.27053 0.884401 0
M  V30 27133 C 2709.4 3.50778 1.36498 0
M  V30 27134 C 2708.55 2.75202 0.340491 0
M  V30 27135 H 2711.5 1.56251 -0.277718 0
M  V30 27136 H 2711.52 3.3801 1.74727 0
M  V30 27137 H 2711.03 3.88099 -0.00737915 0
M  V30 27138 H 2709.13 2.95013 2.27592 0
M  V30 27139 H 2709.24 4.5949 1.35667 0
M  V30 27140 H 2707.61 2.41359 0.813518 0
M  V30 27141 H 2708.39 3.38975 -0.543216 0
M  V30 27142 N 2710.84 -0.221546 1.56035 0
M  V30 27143 C 2711.8 -1.25807 1.91586 0
M  V30 27144 C 2712.8 -1.39804 0.794449 0
M  V30 27145 O 2713.99 -1.38069 1.0622 0
M  V30 27146 C 2711.12 -2.63188 2.16668 0
M  V30 27147 H 2712.31 -0.954885 2.84292 0
M  V30 27148 H 2709.87 -0.461961 1.49317 0
M  V30 27149 H 2710.6 -2.98605 1.26514 0
M  V30 27150 H 2710.39 -2.54405 2.98363 0
M  V30 27151 H 2711.88 -3.37984 2.45268 0
M  V30 27152 N 2712.31 -1.49846 -0.48825 0
M  V30 27153 C 2713.54 -1.63973 -1.26994 0
M  V30 27154 C 2713.96 -0.316026 -1.85426 0
M  V30 27155 O 2713.32 0.718003 -1.66476 0
M  V30 27156 C 2713.37 -2.72053 -2.36684 0
M  V30 27157 O 2712.47 -2.32113 -3.40877 0
M  V30 27158 H 2711.81 -0.548403 -0.374367 0
M  V30 27159 H 2714.34 -1.96116 -0.58307 0
M  V30 27160 H 2714.35 -2.9461 -2.82257 0
M  V30 27161 H 2713.03 -3.68133 -1.93523 0
M  V30 27162 H 2711.61 -2.19936 -3.01135 0
M  V30 27163 N 2713.79 0.740218 -1.39135 0
M  V30 27164 C 2715.02 1.52725 -1.39135 0
M  V30 27165 C 2715.43 1.89192 0.01728 0
M  V30 27166 O 2714.77 1.54246 0.997688 0
M  V30 27167 C 2714.83 2.84691 -2.19525 0
M  V30 27168 C 2714.5 2.70688 -3.68208 0
M  V30 27169 C 2715.5 2.39585 -4.61405 0
M  V30 27170 C 2713.18 2.87722 -4.11729 0
M  V30 27171 C 2715.17 2.2569 -5.96106 0
M  V30 27172 C 2712.86 2.73446 -5.46507 0
M  V30 27173 C 2713.86 2.42475 -6.3851 0
M  V30 27174 O 2713.55 2.28282 -7.70807 0
M  V30 27175 H 2713.28 0.478736 -0.477272 0
M  V30 27176 H 2715.83 0.922767 -1.83505 0
M  V30 27177 H 2714.06 3.4738 -1.69894 0
M  V30 27178 H 2715.75 3.4628 -2.11766 0
M  V30 27179 H 2716.52 2.26081 -4.29083 0
M  V30 27180 H 2712.4 3.10823 -3.40456 0
M  V30 27181 H 2715.94 2.01438 -6.67884 0
M  V30 27182 H 2711.84 2.86528 -5.78422 0
M  V30 27183 H 2712.61 2.43392 -7.81475 0
M  V30 27184 N 2715.27 1.24225 0.969846 0
M  V30 27185 C 2716.69 1.00718 1.23807 0
M  V30 27186 C 2716.89 -0.285323 1.9947 0
M  V30 27187 O 2715.94 -1.00203 2.31766 0
M  V30 27188 C 2717.25 2.22083 2.0273 0
M  V30 27189 C 2718.8 2.26685 2.1583 0
M  V30 27190 C 2719.28 3.47666 2.98148 0
M  V30 27191 N 2720.77 3.4797 3.05731 0
M  V30 27192 C 2721.5 4.38238 3.69777 0
M  V30 27193 N 2721 5.38758 4.3556 0
M  V30 27194 N 2722.79 4.25955 3.66768 0
M  V30 27195 H 2714.94 2.07286 0.463257 0
M  V30 27196 H 2717.21 0.909526 0.267332 0
M  V30 27197 H 2716.91 3.15938 1.54519 0
M  V30 27198 H 2716.79 2.24027 3.03466 0
M  V30 27199 H 2719.17 1.33363 2.63246 0
M  V30 27200 H 2719.25 2.28769 1.14449 0
M  V30 27201 H 2718.9 4.41301 2.51427 0
M  V30 27202 H 2718.83 3.42825 3.99723 0
M  V30 27203 H 2721.32 2.75247 2.58936 0
M  V30 27204 H 2721.63 6.03874 4.82241 0
M  V30 27205 H 2719.98 5.42646 4.34235 0
M  V30 27206 H 2723.17 3.46662 3.14552 0
M  V30 27207 H 2723.34 4.96504 4.16398 0
M  V30 27208 N 2716.75 -1.1702 1.05565 0
M  V30 27209 C 2718 -1.87002 0.766452 0
M  V30 27210 C 2718.32 -1.81661 -0.708822 0
M  V30 27211 O 2717.59 -1.24513 -1.5124 0
M  V30 27212 H 2716.17 -0.692324 0.280528 0
M  V30 27213 H 2718.83 -1.41943 1.3356 0
M  V30 27214 H 2717.92 -2.92642 1.08477 0
M  V30 27215 N 2718.23 -0.837197 -1.33524 0
M  V30 27216 C 2719.5 -0.354099 -1.92368 0
M  V30 27217 C 2719.88 1.16034 -1.7635 0
M  V30 27218 O 2719.23 1.97401 -1.15087 0
M  V30 27219 C 2719.44 -0.79916 -3.39727 0
M  V30 27220 C 2720.79 -0.806213 -4.16876 0
M  V30 27221 O 2721.81 -0.742658 -3.48372 0
M  V30 27222 O 2720.67 -0.89244 -5.39164 0
M  V30 27223 H 2717.77 -0.0998523 -0.82095 0
M  V30 27224 H 2720.31 -0.922938 -1.42408 0
M  V30 27225 H 2719.08 -1.84168 -3.4525 0
M  V30 27226 H 2718.71 -0.2068 -3.97062 0
M  V30 27227 N 2719.7 1.45999 -0.593476 0
M  V30 27228 C 2720.93 2.07216 -0.087273 0
M  V30 27229 C 2721.35 1.43757 1.21308 0
M  V30 27230 O 2720.71 0.525183 1.73527 0
M  V30 27231 C 2720.76 3.6056 0.0537564 0
M  V30 27232 O 2719.86 3.97249 1.10758 0
M  V30 27233 H 2719.2 0.660543 -0.0676714 0
M  V30 27234 H 2721.73 1.87472 -0.819478 0
M  V30 27235 H 2721.74 4.07193 0.256496 0
M  V30 27236 H 2720.42 4.06138 -0.89581 0
M  V30 27237 H 2719 3.62309 0.882437 0
M  V30 27238 N 2721.18 0.331843 1.54067 0
M  V30 27239 C 2722.42 -0.268725 2.02626 0
M  V30 27240 C 2722.79 -1.48695 1.21465 0
M  V30 27241 O 2723.99 -2.16093 1.59867 0
M  V30 27242 C 2722.26 -0.586515 3.52555 0
M  V30 27243 S 2723.82 -1.16556 4.23037 0
M  V30 27244 H 2720.64 -0.0807738 0.706397 0
M  V30 27245 H 2723.24 0.466889 1.89843 0
M  V30 27246 H 2721.94 0.308118 4.09242 0
M  V30 27247 H 2721.47 -1.35211 3.69434 0
M  V30 27248 H 2723.49 -2.45195 4.31386 0
M  V30 27249 N 2722.66 -1.57485 0.0601958 0
M  V30 27250 C 2723.59 -2.09018 -0.940433 0
M  V30 27251 C 2724.61 -1.01987 -1.26895 0
M  V30 27252 O 2725.79 -1.29531 -1.22817 0
M  V30 27253 C 2722.89 -2.52586 -2.2595 0
M  V30 27254 C 2722.07 -3.83056 -2.11156 0
M  V30 27255 C 2721.13 -4.1284 -3.26266 0
M  V30 27256 O 2720.15 -4.82621 -3.0177 0
M  V30 27257 N 2721.35 -3.65466 -4.51015 0
M  V30 27258 H 2724.12 -2.95491 -0.500526 0
M  V30 27259 H 2721.68 -1.6141 -0.125824 0
M  V30 27260 H 2723.67 -2.69581 -3.01842 0
M  V30 27261 H 2722.24 -1.71313 -2.61478 0
M  V30 27262 H 2721.46 -3.75554 -1.19802 0
M  V30 27263 H 2722.75 -4.68478 -1.98509 0
M  V30 27264 H 2722.15 -3.09071 -4.73806 0
M  V30 27265 H 2720.71 -3.87682 -5.23971 0
M  V30 27266 N 2724.14 0.213268 -1.5615 0
M  V30 27267 C 2725.05 1.28515 -1.96268 0
M  V30 27268 C 2726.06 1.50822 -0.867676 0
M  V30 27269 O 2727.24 1.63791 -1.17194 0
M  V30 27270 C 2724.31 2.61323 -2.27841 0
M  V30 27271 C 2723.37 2.47246 -3.50953 0
M  V30 27272 C 2722.6 3.7372 -3.8101 0
M  V30 27273 O 2722.82 4.771 -3.1262 0
M  V30 27274 O 2721.76 3.70336 -4.74484 0
M  V30 27275 H 2725.58 0.974744 -2.87632 0
M  V30 27276 H 2723.17 0.416807 -1.43468 0
M  V30 27277 H 2725.05 3.39742 -2.49305 0
M  V30 27278 H 2723.72 2.92028 -1.39648 0
M  V30 27279 H 2722.63 1.66999 -3.34757 0
M  V30 27280 H 2723.96 2.21478 -4.39554 0
M  V30 27281 N 2725.62 1.50103 0.480296 0
M  V30 27282 C 2726.86 1.62263 1.24299 0
M  V30 27283 C 2727.22 0.311791 1.89451 0
M  V30 27284 O 2728.42 0.308742 2.67021 0
M  V30 27285 C 2726.69 2.76396 2.26583 0
M  V30 27286 S 2728.25 3.08634 3.11914 0
M  V30 27287 H 2725.07 0.572118 0.42214 0
M  V30 27288 H 2727.67 1.87849 0.541558 0
M  V30 27289 H 2726.38 3.70134 1.77283 0
M  V30 27290 H 2725.91 2.52867 3.01366 0
M  V30 27291 H 2727.92 2.5175 4.27594 0
M  V30 27292 N 2727.09 -0.732829 1.39526 0
M  V30 27293 C 2728.06 -1.82854 1.38192 0
M  V30 27294 C 2729.06 -1.58367 0.278651 0
M  V30 27295 O 2730.25 -1.65727 0.536668 0
M  V30 27296 C 2727.38 -3.20678 1.15666 0
M  V30 27297 H 2728.57 -1.8544 2.35695 0
M  V30 27298 H 2726.13 -0.936706 1.25122 0
M  V30 27299 H 2726.86 -3.23751 0.188539 0
M  V30 27300 H 2726.65 -3.39848 1.95565 0
M  V30 27301 H 2728.14 -4.00735 1.17479 0
M  V30 27302 N 2728.57 -1.24737 -0.963244 0
M  V30 27303 C 2729.98 -1.0821 -1.52143 0
M  V30 27304 C 2730.33 0.345027 -1.93142 0
M  V30 27305 O 2729.46 1.23396 -1.77771 0
M  V30 27306 C 2730.05 -1.95813 -2.76483 0
M  V30 27307 C 2728.61 -1.83496 -3.28643 0
M  V30 27308 C 2727.76 -1.9048 -2.01526 0
M  V30 27309 H 2730.71 -1.38149 -0.781059 0
M  V30 27310 H 2730.73 -1.49304 -3.49984 0
M  V30 27311 H 2730.24 -2.99674 -2.46612 0
M  V30 27312 H 2728.35 -0.824851 -3.63355 0
M  V30 27313 H 2728.46 -2.67836 -3.97242 0
M  V30 27314 H 2726.82 -1.34261 -2.16439 0
M  V30 27315 H 2727.61 -2.95929 -1.74014 0
M  V30 27316 N 2730.05 1.16459 -1.06184 0
M  V30 27317 C 2731.3 1.86593 -0.776359 0
M  V30 27318 C 2731.62 1.82034 0.699178 0
M  V30 27319 O 2730.89 1.25313 1.50577 0
M  V30 27320 H 2729.47 0.690827 -0.284196 0
M  V30 27321 H 2732.13 1.41233 -1.34311 0
M  V30 27322 H 2731.23 2.92062 -1.10027 0
M  V30 27323 N 2731.53 0.844266 1.33079 0
M  V30 27324 C 2732.78 0.442585 1.97604 0
M  V30 27325 C 2733.1 -0.999429 1.66858 0
M  V30 27326 O 2732.36 -1.71448 0.943616 0
M  V30 27327 C 2732.66 0.616416 3.52044 0
M  V30 27328 C 2732.32 2.02733 4.02753 0
M  V30 27329 C 2730.99 2.41325 4.16312 0
M  V30 27330 C 2733.34 2.94867 4.29771 0
M  V30 27331 C 2730.67 3.71343 4.54226 0
M  V30 27332 C 2733.02 4.24372 4.69138 0
M  V30 27333 C 2731.68 4.62913 4.80903 0
M  V30 27334 H 2730.95 0.161953 0.723085 0
M  V30 27335 H 2733.6 1.07233 1.58661 0
M  V30 27336 H 2731.9 -0.0966124 3.91681 0
M  V30 27337 H 2733.6 0.285826 3.9998 0
M  V30 27338 H 2730.19 1.71763 3.92677 0
M  V30 27339 H 2734.37 2.66288 4.18813 0
M  V30 27340 H 2729.63 4.01001 4.61528 0
M  V30 27341 H 2733.8 4.95835 4.89 0
M  V30 27342 H 2731.43 5.63706 5.10038 0
M  V30 27343 N 2733.01 -1.45682 0.60121 0
M  V30 27344 C 2734.24 -2.06358 0.0999455 0
M  V30 27345 C 2734.64 -1.44756 -1.21829 0
M  V30 27346 O 2733.99 -0.553726 -1.75156 0
M  V30 27347 C 2734.05 -3.59297 -0.120786 0
M  V30 27348 C 2733.71 -4.43198 1.11467 0
M  V30 27349 C 2734.71 -4.78577 2.03127 0
M  V30 27350 C 2732.4 -4.84049 1.34171 0
M  V30 27351 C 2734.39 -5.53655 3.15823 0
M  V30 27352 C 2732.08 -5.58883 2.47169 0
M  V30 27353 C 2733.07 -5.93602 3.37824 0
M  V30 27354 O 2732.76 -6.6692 4.48857 0
M  V30 27355 H 2732.49 -0.673054 0.0630434 0
M  V30 27356 H 2735.05 -1.88015 0.827015 0
M  V30 27357 H 2733.28 -3.76017 -0.902678 0
M  V30 27358 H 2734.97 -4.01837 -0.572855 0
M  V30 27359 H 2735.73 -4.4758 1.86809 0
M  V30 27360 H 2731.61 -4.56464 0.645098 0
M  V30 27361 H 2735.16 -5.80673 3.86606 0
M  V30 27362 H 2731.05 -5.89295 2.63442 0
M  V30 27363 H 2731.82 -6.85364 4.47458 0
M  V30 27364 N 2734.48 -0.340009 -1.53889 0
M  V30 27365 C 2735.9 0.0120472 -1.59595 0
M  V30 27366 C 2736.1 1.49039 -1.35608 0
M  V30 27367 O 2735.16 2.24863 -1.1486 0
M  V30 27368 C 2736.47 -0.420951 -2.97739 0
M  V30 27369 C 2738.02 -0.372995 -3.1077 0
M  V30 27370 C 2738.49 -0.781407 -4.51285 0
M  V30 27371 N 2739.98 -0.735454 -4.57324 0
M  V30 27372 C 2740.72 -1.02346 -5.64192 0
M  V30 27373 N 2740.21 -1.37945 -6.78928 0
M  V30 27374 N 2742.01 -0.947936 -5.54049 0
M  V30 27375 H 2734.16 -1.30302 -1.67736 0
M  V30 27376 H 2736.42 -0.530932 -0.785376 0
M  V30 27377 H 2736.13 -1.45158 -3.20347 0
M  V30 27378 H 2736 0.205655 -3.76639 0
M  V30 27379 H 2738.39 0.648454 -2.87887 0
M  V30 27380 H 2738.47 -1.03476 -2.33937 0
M  V30 27381 H 2738.11 -1.80085 -4.74902 0
M  V30 27382 H 2738.04 -0.0971604 -5.2651 0
M  V30 27383 H 2740.53 -0.472839 -3.7493 0
M  V30 27384 H 2740.85 -1.58415 -7.56389 0
M  V30 27385 H 2739.19 -1.41786 -6.80383 0
M  V30 27386 H 2742.38 -0.669196 -4.63292 0
M  V30 27387 H 2742.56 -1.17574 -6.37244 0
M  V30 27388 N 2735.96 1.57451 -0.0685468 0
M  V30 27389 C 2737.24 1.84759 0.642134 0
M  V30 27390 C 2737.62 0.960377 1.87989 0
M  V30 27391 O 2736.97 0.0258296 2.28485 0
M  V30 27392 C 2737.18 3.34874 0.982888 0
M  V30 27393 C 2738.53 4.02306 1.35777 0
M  V30 27394 O 2739.55 3.396 1.07471 0
M  V30 27395 O 2738.41 5.12899 1.88672 0
M  V30 27396 H 2735.5 0.763161 0.318612 0
M  V30 27397 H 2738.05 1.6941 -0.0992313 0
M  V30 27398 H 2736.82 3.91163 0.103652 0
M  V30 27399 H 2736.44 3.55474 1.78112 0
M  V30 27400 N 2737.44 -0.204984 1.56261 0
M  V30 27401 C 2738.69 -0.928268 1.80308 0
M  V30 27402 C 2739.02 -1.83317 0.640964 0
M  V30 27403 O 2738.3 -1.91158 -0.358998 0
M  V30 27404 C 2738.58 -1.75301 3.1455 0
M  V30 27405 C 2738.43 -0.873485 4.41237 0
M  V30 27406 C 2739.75 -2.72756 3.45387 0
M  V30 27407 H 2736.87 -0.336033 0.655935 0
M  V30 27408 H 2739.51 -0.196178 1.88985 0
M  V30 27409 H 2737.66 -2.37716 3.07284 0
M  V30 27410 H 2739.33 -0.264806 4.60539 0
M  V30 27411 H 2737.58 -0.179697 4.33428 0
M  V30 27412 H 2738.25 -1.48531 5.31641 0
M  V30 27413 H 2740.72 -2.20475 3.52888 0
M  V30 27414 H 2739.6 -3.27552 4.40455 0
M  V30 27415 H 2739.86 -3.51316 2.68383 0
M  V30 27416 N 2738.92 -1.50356 -0.472329 0
M  V30 27417 C 2739.87 -1.69129 -1.57048 0
M  V30 27418 C 2740.84 -0.532602 -1.57329 0
M  V30 27419 O 2742.02 -0.763025 -1.74879 0
M  V30 27420 C 2739.16 -1.79029 -2.9503 0
M  V30 27421 C 2738.27 -3.06391 -3.04547 0
M  V30 27422 C 2737.41 -3.07095 -4.33435 0
M  V30 27423 C 2736.45 -4.28915 -4.3669 0
M  V30 27424 N 2735.59 -4.27366 -5.57048 0
M  V30 27425 H 2740.43 -2.62882 -1.40346 0
M  V30 27426 H 2737.96 -1.30315 -0.68238 0
M  V30 27427 H 2739.92 -1.8275 -3.75044 0
M  V30 27428 H 2738.55 -0.887164 -3.1037 0
M  V30 27429 H 2737.6 -3.12147 -2.17413 0
M  V30 27430 H 2738.91 -3.96367 -3.02811 0
M  V30 27431 H 2738.07 -3.09538 -5.21796 0
M  V30 27432 H 2736.81 -2.14946 -4.37778 0
M  V30 27433 H 2735.81 -4.26686 -3.46727 0
M  V30 27434 H 2737.04 -5.22289 -4.3404 0
M  V30 27435 H 2734.98 -3.3807 -5.62178 0
M  V30 27436 H 2734.9 -5.11109 -5.57049 0
M  V30 27437 H 2736.17 -4.33953 -6.47537 0
M  V30 27438 N 2740.4 0.725419 -1.39912 0
M  V30 27439 C 2741.65 1.48222 -1.37385 0
M  V30 27440 C 2741.97 1.94982 0.0263765 0
M  V30 27441 O 2741.24 1.69661 0.979378 0
M  V30 27442 H 2739.82 0.549883 -0.505606 0
M  V30 27443 H 2742.48 0.860577 -1.74872 0
M  V30 27444 H 2741.57 2.35977 -2.04258 0
M  V30 27445 N 2741.88 1.25246 0.956615 0
M  V30 27446 C 2742.81 1.07935 2.07056 0
M  V30 27447 C 2743.79 -0.0110062 1.70096 0
M  V30 27448 O 2744.97 0.158155 1.93555 0
M  V30 27449 C 2742.1 0.695184 3.40271 0
M  V30 27450 C 2741.06 1.73555 3.91232 0
M  V30 27451 C 2740.38 1.20613 5.20919 0
M  V30 27452 C 2741.68 3.13392 4.17831 0
M  V30 27453 H 2743.38 2.01113 2.21797 0
M  V30 27454 H 2740.92 0.968345 1.06579 0
M  V30 27455 H 2742.87 0.561023 4.17649 0
M  V30 27456 H 2741.6 -0.272298 3.25463 0
M  V30 27457 H 2740.26 1.85812 3.16021 0
M  V30 27458 H 2739.91 0.228934 5.02479 0
M  V30 27459 H 2739.61 1.90146 5.55984 0
M  V30 27460 H 2741.13 1.08432 6.00895 0
M  V30 27461 H 2742.54 3.043 4.85875 0
M  V30 27462 H 2740.94 3.80377 4.64148 0
M  V30 27463 H 2742.01 3.60601 3.24183 0
M  V30 27464 N 2743.35 -1.15894 1.068 0
M  V30 27465 C 2744.6 -1.86547 0.7878 0
M  V30 27466 C 2744.93 -1.82004 -0.685927 0
M  V30 27467 O 2744.18 -1.23417 -1.51877 0
M  V30 27468 C 2744.48 -3.35414 1.23419 0
M  V30 27469 C 2744.15 -3.60155 2.71291 0
M  V30 27470 C 2742.81 -3.66617 3.11682 0
M  V30 27471 C 2745.16 -3.70313 3.66766 0
M  V30 27472 C 2742.49 -3.80742 4.46377 0
M  V30 27473 C 2744.84 -3.85961 5.01215 0
M  V30 27474 C 2743.51 -3.90666 5.41236 0
M  V30 27475 H 2742.78 -0.682626 0.288276 0
M  V30 27476 H 2745.42 -1.37001 1.33802 0
M  V30 27477 H 2743.73 -3.87128 0.603258 0
M  V30 27478 H 2745.43 -3.88476 0.994366 0
M  V30 27479 H 2742.02 -3.55763 2.39021 0
M  V30 27480 H 2746.2 -3.64627 3.36691 0
M  V30 27481 H 2741.46 -3.8264 4.76861 0
M  V30 27482 H 2745.63 -3.92763 5.75074 0
M  V30 27483 H 2743.26 -4.01364 6.45609 0
M  V30 27484 N 2744.83 -0.851312 -1.32629 0
M  V30 27485 C 2745.76 -0.308812 -2.31449 0
M  V30 27486 C 2746.74 0.590227 -1.59532 0
M  V30 27487 O 2747.93 0.511172 -1.87352 0
M  V30 27488 C 2745.06 0.506488 -3.43587 0
M  V30 27489 C 2744.01 -0.297828 -4.26963 0
M  V30 27490 C 2743.34 0.642001 -5.30832 0
M  V30 27491 C 2744.64 -1.52174 -4.9964 0
M  V30 27492 H 2746.33 -1.13452 -2.77072 0
M  V30 27493 H 2743.88 -0.546995 -1.33206 0
M  V30 27494 H 2745.83 0.896402 -4.11756 0
M  V30 27495 H 2744.55 1.36553 -2.96683 0
M  V30 27496 H 2743.21 -0.669455 -3.60436 0
M  V30 27497 H 2742.86 1.49779 -4.80182 0
M  V30 27498 H 2742.56 0.107865 -5.87501 0
M  V30 27499 H 2744.09 1.02916 -6.01864 0
M  V30 27500 H 2745.5 -1.20431 -5.60508 0
M  V30 27501 H 2743.9 -1.99357 -5.66018 0
M  V30 27502 H 2744.97 -2.28481 -4.27697 0
M  V30 27503 N 2746.31 1.45361 -0.608928 0
M  V30 27504 C 2747.56 2.0183 -0.104436 0
M  V30 27505 C 2747.88 1.47969 1.27004 0
M  V30 27506 O 2747.15 0.674487 1.83922 0
M  V30 27507 H 2745.73 0.74615 -0.0356173 0
M  V30 27508 H 2748.39 1.78143 -0.790627 0
M  V30 27509 H 2747.49 3.12051 -0.0552341 0
M  V30 27510 N 2747.79 0.348166 1.53706 0
M  V30 27511 C 2749.2 -0.00358329 1.596 0
M  V30 27512 C 2749.4 -1.48318 1.36397 0
M  V30 27513 O 2748.46 -2.24251 1.1605 0
M  V30 27514 C 2749.77 0.436735 2.97512 0
M  V30 27515 C 2751.32 0.389471 3.10567 0
M  V30 27516 C 2751.8 0.805328 4.50864 0
M  V30 27517 N 2753.29 0.759697 4.56928 0
M  V30 27518 C 2754.02 1.05337 5.63641 0
M  V30 27519 N 2753.52 1.41543 6.78187 0
M  V30 27520 N 2755.31 0.977305 5.53539 0
M  V30 27521 H 2747.46 1.31189 1.67042 0
M  V30 27522 H 2749.72 0.535089 0.782549 0
M  V30 27523 H 2749.43 1.46855 3.19572 0
M  V30 27524 H 2749.3 -0.185678 3.76743 0
M  V30 27525 H 2751.69 -0.633178 2.88227 0
M  V30 27526 H 2751.77 1.04715 2.33385 0
M  V30 27527 H 2751.42 1.82601 4.7394 0
M  V30 27528 H 2751.35 0.125081 5.26451 0
M  V30 27529 H 2753.84 0.492716 3.74674 0
M  V30 27530 H 2754.15 1.62424 7.55538 0
M  V30 27531 H 2752.5 1.45393 6.79622 0
M  V30 27532 H 2755.69 0.693756 4.6293 0
M  V30 27533 H 2755.86 1.20952 6.36612 0
M  V30 27534 N 2749.27 -1.57412 0.0768958 0
M  V30 27535 C 2750.51 -1.95559 -0.594642 0
M  V30 27536 C 2750.87 -0.956687 -1.66468 0
M  V30 27537 O 2752.07 -1.226 -2.39213 0
M  V30 27538 C 2750.34 -3.38325 -1.152 0
M  V30 27539 S 2751.9 -3.98453 -1.83795 0
M  V30 27540 H 2748.72 -0.68386 -0.194567 0
M  V30 27541 H 2751.32 -1.94908 0.151967 0
M  V30 27542 H 2750.02 -4.08805 -0.361458 0
M  V30 27543 H 2749.56 -3.4253 -1.93485 0
M  V30 27544 H 2751.57 -3.85773 -3.1208 0
M  V30 27545 N 2750.74 0.196695 -1.56368 0
M  V30 27546 C 2751.99 0.918693 -1.80798 0
M  V30 27547 C 2752.32 1.82975 -0.650677 0
M  V30 27548 O 2751.6 1.91346 0.348856 0
M  V30 27549 C 2751.88 1.7363 -3.15475 0
M  V30 27550 C 2751.73 0.850073 -4.41694 0
M  V30 27551 C 2753.05 2.7092 -3.46829 0
M  V30 27552 H 2750.17 0.33255 -0.657708 0
M  V30 27553 H 2752.81 0.186153 -1.89086 0
M  V30 27554 H 2750.96 2.36083 -3.08541 0
M  V30 27555 H 2752.64 0.240378 -4.60673 0
M  V30 27556 H 2750.88 0.156709 -4.33517 0
M  V30 27557 H 2751.55 1.4571 -5.32422 0
M  V30 27558 H 2754.03 2.186 -3.54052 0
M  V30 27559 H 2752.9 3.25212 -4.42186 0
M  V30 27560 H 2753.16 3.49888 -2.70242 0
M  V30 27561 N 2752.22 1.50604 0.464349 0
M  V30 27562 C 2753.63 1.54712 1.04504 0
M  V30 27563 C 2753.98 0.354576 1.92969 0
M  V30 27564 O 2753.11 -0.531775 2.09764 0
M  V30 27565 C 2753.7 2.80372 1.90202 0
M  V30 27566 C 2752.26 2.87139 2.43368 0
M  V30 27567 C 2751.41 2.49078 1.21882 0
M  V30 27568 H 2754.36 1.56771 0.246689 0
M  V30 27569 H 2754.38 2.62609 2.75349 0
M  V30 27570 H 2753.89 3.67149 1.25789 0
M  V30 27571 H 2752 2.0473 3.11314 0
M  V30 27572 H 2752.11 3.90186 2.78014 0
M  V30 27573 H 2750.47 2.01667 1.55572 0
M  V30 27574 H 2751.26 3.38171 0.591209 0
M  V30 27575 N 2753.7 -0.717989 1.40295 0
M  V30 27576 C 2754.94 -1.4903 1.39891 0
M  V30 27577 C 2755.3 -1.92 -0.000429187 0
M  V30 27578 O 2756.51 -2.68488 -0.129575 0
M  V30 27579 C 2754.78 -2.68512 2.35873 0
M  V30 27580 S 2756.34 -3.5795 2.53806 0
M  V30 27581 H 2753.15 -0.509554 0.495858 0
M  V30 27582 H 2755.76 -0.839815 1.76543 0
M  V30 27583 H 2754.46 -2.35111 3.36379 0
M  V30 27584 H 2753.99 -3.38475 2.00496 0
M  V30 27585 H 2756.01 -4.6284 1.78867 0
M  V30 27586 N 2755.18 -1.25752 -0.94996 0
M  V30 27587 C 2756.11 -1.02334 -2.05086 0
M  V30 27588 C 2757.12 0.0132961 -1.62795 0
M  V30 27589 O 2758.31 -0.22579 -1.77066 0
M  V30 27590 C 2755.41 -0.525982 -3.34793 0
M  V30 27591 C 2754.59 -1.62985 -4.059 0
M  V30 27592 C 2753.64 -1.13205 -5.13878 0
M  V30 27593 O 2752.67 -1.82739 -5.39069 0
M  V30 27594 N 2753.87 0.0241906 -5.80495 0
M  V30 27595 H 2756.64 -1.97129 -2.25744 0
M  V30 27596 H 2754.2 -1.1702 -1.11884 0
M  V30 27597 H 2756.19 -0.177335 -4.04311 0
M  V30 27598 H 2754.76 0.328147 -3.10873 0
M  V30 27599 H 2753.98 -2.14986 -3.30416 0
M  V30 27600 H 2755.27 -2.37132 -4.50162 0
M  V30 27601 H 2754.67 0.605085 -5.62455 0
M  V30 27602 H 2753.22 0.313832 -6.51044 0
M  V30 27603 N 2756.66 1.15326 -1.07413 0
M  V30 27604 C 2757.9 1.87793 -0.807044 0
M  V30 27605 C 2758.26 1.80484 0.654955 0
M  V30 27606 O 2759.46 2.47986 1.03712 0
M  V30 27607 C 2757.73 3.32839 -1.30204 0
M  V30 27608 S 2759.29 4.23032 -1.16572 0
M  V30 27609 H 2756.11 0.648074 -0.29244 0
M  V30 27610 H 2758.71 1.39136 -1.37337 0
M  V30 27611 H 2757.42 3.35703 -2.36076 0
M  V30 27612 H 2756.95 3.8655 -0.730949 0
M  V30 27613 H 2758.96 4.96092 -0.103644 0
M  V30 27614 N 2758.13 0.858334 1.32176 0
M  V30 27615 C 2759.08 0.277347 2.26307 0
M  V30 27616 C 2760.07 -0.57892 1.50124 0
M  V30 27617 O 2761.26 -0.427701 1.71755 0
M  V30 27618 C 2758.39 -0.530172 3.39181 0
M  V30 27619 C 2757.48 0.338688 4.22745 0
M  V30 27620 N 2757.87 1.42668 4.85262 0
M  V30 27621 C 2756.16 0.129079 4.45813 0
M  V30 27622 C 2756.87 1.96152 5.47631 0
M  V30 27623 N 2755.84 1.26016 5.28792 0
M  V30 27624 H 2759.64 1.10907 2.72171 0
M  V30 27625 H 2757.16 0.704842 1.46307 0
M  V30 27626 H 2759.15 -0.962833 4.05629 0
M  V30 27627 H 2757.81 -1.35964 2.94862 0
M  V30 27628 H 2758.83 1.80961 4.85256 0
M  V30 27629 H 2755.5 -0.665378 4.12164 0
M  V30 27630 H 2756.89 2.87371 6.07345 0
M  V30 27631 N 2759.61 -1.45036 0.616628 0
M  V30 27632 C 2760.86 -2.01772 0.115138 0
M  V30 27633 C 2761.18 -1.48641 -1.26218 0
M  V30 27634 O 2760.45 -0.684231 -1.83562 0
M  V30 27635 H 2759.03 -0.745951 0.0395738 0
M  V30 27636 H 2761.69 -1.77722 0.800064 0
M  V30 27637 H 2760.79 -3.12017 0.0717822 0
M  V30 27638 N 2761.09 -0.356312 -1.53519 0
M  V30 27639 C 2762.04 0.510776 -2.22205 0
M  V30 27640 C 2763.02 1.05603 -1.21395 0
M  V30 27641 O 2764.22 0.987613 -1.46885 0
M  V30 27642 C 2761.35 1.65472 -3.00789 0
M  V30 27643 C 2760.43 1.12279 -4.08967 0
M  V30 27644 N 2760.82 0.313102 -5.0483 0
M  V30 27645 C 2759.12 1.39849 -4.23507 0
M  V30 27646 C 2759.82 0.02293 -5.81695 0
M  V30 27647 N 2758.8 0.618049 -5.40075 0
M  V30 27648 H 2762.6 -0.114763 -2.93676 0
M  V30 27649 H 2760.11 -0.163839 -1.61571 0
M  V30 27650 H 2762.11 2.288 -3.48506 0
M  V30 27651 H 2760.77 2.28341 -2.30847 0
M  V30 27652 H 2761.78 -0.0469113 -5.17879 0
M  V30 27653 H 2758.46 2.03064 -3.6479 0
M  V30 27654 H 2759.85 -0.631045 -6.6893 0
M  V30 27655 N 2762.57 1.57369 -0.0852427 0
M  V30 27656 C 2763.79 1.98747 0.592838 0
M  V30 27657 C 2764.22 0.963717 1.61537 0
M  V30 27658 O 2763.58 -0.0690391 1.81169 0
M  V30 27659 C 2763.62 3.39121 1.22593 0
M  V30 27660 O 2762.73 3.39461 2.34179 0
M  V30 27661 H 2762.07 0.646532 0.151303 0
M  V30 27662 H 2764.6 2.03944 -0.163739 0
M  V30 27663 H 2764.61 3.76601 1.56959 0
M  V30 27664 H 2763.28 4.13158 0.476759 0
M  V30 27665 H 2761.86 3.13767 2.01507 0
M  V30 27666 N 2764.05 -0.188399 1.5647 0
M  V30 27667 C 2765.32 -0.934028 1.71858 0
M  V30 27668 C 2765.7 -2.01104 0.641902 0
M  V30 27669 O 2765.05 -2.25864 -0.346058 0
M  V30 27670 C 2765.26 -1.51435 3.14434 0
M  V30 27671 C 2766.61 -1.99389 3.74872 0
M  V30 27672 O 2767.63 -1.61264 3.17604 0
M  V30 27673 O 2766.49 -2.69565 4.75392 0
M  V30 27674 H 2763.59 -0.43847 0.701194 0
M  V30 27675 H 2766.13 -0.17757 1.68768 0
M  V30 27676 H 2764.9 -0.738349 3.84271 0
M  V30 27677 H 2764.53 -2.33546 3.21779 0
M  V30 27678 N 2765.53 -1.50848 -0.456355 0
M  V30 27679 C 2766.94 -1.38601 -0.791321 0
M  V30 27680 C 2767.14 -0.453533 -1.9633 0
M  V30 27681 O 2766.2 0.098391 -2.52308 0
M  V30 27682 C 2767.51 -2.80267 -1.08954 0
M  V30 27683 C 2769.06 -2.89285 -1.19512 0
M  V30 27684 C 2769.53 -4.31816 -1.52639 0
M  V30 27685 N 2771.02 -4.34835 -1.59601 0
M  V30 27686 C 2771.76 -5.4213 -1.86768 0
M  V30 27687 N 2771.26 -6.59613 -2.11855 0
M  V30 27688 N 2773.05 -5.29589 -1.88392 0
M  V30 27689 H 2765.2 -2.10039 0.315783 0
M  V30 27690 H 2767.46 -0.944719 0.0788082 0
M  V30 27691 H 2767.17 -3.50407 -0.301294 0
M  V30 27692 H 2767.04 -3.18423 -2.02205 0
M  V30 27693 H 2769.43 -2.19354 -1.97402 0
M  V30 27694 H 2769.51 -2.54652 -0.242066 0
M  V30 27695 H 2769.15 -5.0229 -0.752833 0
M  V30 27696 H 2769.08 -4.63947 -2.49119 0
M  V30 27697 H 2771.58 -3.50127 -1.42194 0
M  V30 27698 H 2771.89 -7.37186 -2.31899 0
M  V30 27699 H 2770.23 -6.62762 -2.09216 0
M  V30 27700 H 2773.42 -4.36798 -1.683 0
M  V30 27701 H 2773.6 -6.13293 -2.09227 0
M  V30 27702 N 2767 0.710538 -1.40674 0
M  V30 27703 C 2768.24 1.48286 -1.40679 0
M  V30 27704 C 2768.61 1.91998 -0.00975305 0
M  V30 27705 O 2769.81 2.68552 0.115334 0
M  V30 27706 C 2768.08 2.67258 -2.37293 0
M  V30 27707 S 2769.64 3.56599 -2.557 0
M  V30 27708 H 2766.46 0.506918 -0.498553 0
M  V30 27709 H 2769.06 0.830441 -1.76986 0
M  V30 27710 H 2767.76 2.33324 -3.37621 0
M  V30 27711 H 2767.29 3.37406 -2.02288 0
M  V30 27712 H 2769.31 4.61885 -1.81319 0
M  V30 27713 N 2768.48 1.26254 0.943277 0
M  V30 27714 C 2769.41 1.10125 2.059 0
M  V30 27715 C 2770.39 0.00703542 1.70099 0
M  V30 27716 O 2771.58 0.178675 1.93376 0
M  V30 27717 C 2768.71 0.731235 3.39515 0
M  V30 27718 C 2767.66 1.77695 3.89369 0
M  V30 27719 C 2766.99 1.26131 5.1961 0
M  V30 27720 C 2768.29 3.17806 4.14484 0
M  V30 27721 H 2769.98 2.03454 2.19651 0
M  V30 27722 H 2767.53 0.979594 1.05546 0
M  V30 27723 H 2769.48 0.605288 4.1703 0
M  V30 27724 H 2768.2 -0.237763 3.25733 0
M  V30 27725 H 2766.86 1.89153 3.14033 0
M  V30 27726 H 2766.51 0.282216 5.02208 0
M  V30 27727 H 2766.21 1.96032 5.53936 0
M  V30 27728 H 2767.74 1.14799 5.99711 0
M  V30 27729 H 2769.15 3.09437 4.8262 0
M  V30 27730 H 2767.55 3.85279 4.60087 0
M  V30 27731 H 2768.62 3.64019 3.2034 0
M  V30 27732 N 2769.96 -1.14755 1.08024 0
M  V30 27733 C 2771.37 -1.67277 0.829173 0
M  V30 27734 C 2771.72 -1.85306 -0.644689 0
M  V30 27735 O 2770.85 -1.56136 -1.49835 0
M  V30 27736 C 2771.44 -3.03854 1.49861 0
M  V30 27737 C 2770 -3.53426 1.29488 0
M  V30 27738 C 2769.15 -2.28992 1.5639 0
M  V30 27739 H 2772.1 -0.988741 1.24135 0
M  V30 27740 H 2772.12 -3.69119 0.923637 0
M  V30 27741 H 2771.63 -2.907 2.57128 0
M  V30 27742 H 2769.73 -3.71808 0.242735 0
M  V30 27743 H 2769.85 -4.34443 2.01981 0
M  V30 27744 H 2768.21 -2.34872 0.985258 0
M  V30 27745 H 2768.99 -2.18418 2.64855 0
M  V30 27746 N 2771.44 -0.865331 -1.31719 0
M  V30 27747 C 2772.69 -0.47303 -1.96486 0
M  V30 27748 C 2773.01 0.976946 -1.68762 0
M  V30 27749 O 2772.28 1.68422 -1.00054 0
M  V30 27750 H 2770.86 -0.171934 -0.726944 0
M  V30 27751 H 2773.52 -1.1041 -1.6061 0
M  V30 27752 H 2772.61 -0.626924 -3.05739 0
M  V30 27753 N 2772.92 1.44707 -0.624311 0
M  V30 27754 C 2774.14 2.06985 -0.131207 0
M  V30 27755 C 2774.57 1.46298 1.18231 0
M  V30 27756 O 2773.92 0.561872 1.72374 0
M  V30 27757 C 2773.97 3.60593 -0.0227358 0
M  V30 27758 O 2773.08 3.99508 1.02307 0
M  V30 27759 H 2772.42 0.658959 -0.0816672 0
M  V30 27760 H 2774.95 1.85691 -0.85906 0
M  V30 27761 H 2774.96 4.07645 0.170066 0
M  V30 27762 H 2773.63 4.04146 -0.981757 0
M  V30 27763 H 2772.21 3.64099 0.805388 0
M  V30 27764 N 2774.39 0.364449 1.53328 0
M  V30 27765 C 2775.64 -0.225153 2.00842 0
M  V30 27766 C 2775.96 -1.49375 1.25347 0
M  V30 27767 O 2775.23 -1.92442 0.36643 0
M  V30 27768 H 2773.81 -0.0861897 0.742011 0
M  V30 27769 H 2776.47 0.490422 1.88629 0
M  V30 27770 H 2775.57 -0.452933 3.08796 0
M  V30 27771 N 2775.87 -1.57322 0.0935872 0
M  V30 27772 C 2777.12 -1.94586 -0.57132 0
M  V30 27773 C 2777.45 -0.975395 -1.67928 0
M  V30 27774 O 2776.73 -0.00819625 -1.94498 0
M  V30 27775 C 2777.01 -3.4198 -1.12791 0
M  V30 27776 C 2776.86 -4.49793 -0.0251091 0
M  V30 27777 C 2778.18 -3.90654 -2.02675 0
M  V30 27778 H 2775.3 -0.707564 -0.20621 0
M  V30 27779 H 2777.94 -1.89291 0.163989 0
M  V30 27780 H 2776.09 -3.46623 -1.75455 0
M  V30 27781 H 2777.76 -4.57262 0.609059 0
M  V30 27782 H 2776.01 -4.29031 0.641475 0
M  V30 27783 H 2776.68 -5.50119 -0.455336 0
M  V30 27784 H 2779.15 -3.88154 -1.49918 0
M  V30 27785 H 2778.03 -4.94355 -2.38546 0
M  V30 27786 H 2778.29 -3.29859 -2.94356 0
M  V30 27787 N 2777.35 0.180099 -1.56568 0
M  V30 27788 C 2778.59 0.904729 -1.83287 0
M  V30 27789 C 2778.95 1.79809 -0.673257 0
M  V30 27790 O 2780.15 2.55965 -0.82069 0
M  V30 27791 C 2778.43 1.68683 -3.15089 0
M  V30 27792 S 2779.98 2.46142 -3.63262 0
M  V30 27793 H 2776.8 0.303181 -0.643119 0
M  V30 27794 H 2779.4 0.167 -1.94785 0
M  V30 27795 H 2778.11 1.02141 -3.97486 0
M  V30 27796 H 2777.64 2.4661 -3.06508 0
M  V30 27797 H 2779.65 3.70657 -3.2989 0
M  V30 27798 N 2778.83 1.51088 0.448349 0
M  V30 27799 C 2780.07 1.63452 1.20046 0
M  V30 27800 C 2780.41 0.344478 1.9112 0
M  V30 27801 O 2779.68 -0.655364 1.83126 0
M  V30 27802 C 2779.96 2.83042 2.22619 0
M  V30 27803 C 2779.82 4.21992 1.55701 0
M  V30 27804 C 2781.14 2.98157 3.23713 0
M  V30 27805 H 2778.26 0.594878 0.435074 0
M  V30 27806 H 2780.9 1.83542 0.491151 0
M  V30 27807 H 2779.05 2.66044 2.83113 0
M  V30 27808 H 2780.72 4.50633 0.986288 0
M  V30 27809 H 2778.96 4.25199 0.859573 0
M  V30 27810 H 2779.63 5.01641 2.30348 0
M  V30 27811 H 2782.11 3.13793 2.73264 0
M  V30 27812 H 2780.99 3.83417 3.92788 0
M  V30 27813 H 2781.25 2.09749 3.89175 0
M  V30 27814 N 2780.31 -0.703068 1.41049 0
M  V30 27815 C 2781.58 -1.45706 1.30496 0
M  V30 27816 C 2781.96 -2.10981 -0.0709521 0
M  V30 27817 O 2781.31 -2.01114 -1.08468 0
M  V30 27818 C 2781.52 -2.4826 2.45291 0
M  V30 27819 C 2782.87 -3.1373 2.86109 0
M  V30 27820 O 2783.89 -2.58583 2.44976 0
M  V30 27821 O 2782.75 -4.13595 3.57214 0
M  V30 27822 H 2779.85 -0.648537 0.513155 0
M  V30 27823 H 2782.39 -0.734181 1.52996 0
M  V30 27824 H 2781.16 -1.98629 3.37138 0
M  V30 27825 H 2780.79 -3.28067 2.24628 0
M  V30 27826 N 2781.78 -1.26752 -0.936569 0
M  V30 27827 C 2783.02 -1.13795 -1.69794 0
M  V30 27828 C 2783.39 0.312638 -1.89438 0
M  V30 27829 O 2784.59 0.564442 -2.62807 0
M  V30 27830 C 2782.86 -1.8907 -3.03294 0
M  V30 27831 S 2784.42 -1.92221 -3.94457 0
M  V30 27832 H 2781.24 -0.406399 -0.583405 0
M  V30 27833 H 2783.84 -1.60537 -1.11572 0
M  V30 27834 H 2782.54 -2.9367 -2.86681 0
M  V30 27835 H 2782.07 -1.42787 -3.66572 0
M  V30 27836 H 2784.09 -1.01223 -4.85766 0
M  V30 27837 N 2783.26 1.1418 -1.08631 0
M  V30 27838 C 2784.19 2.18997 -0.676228 0
M  V30 27839 C 2785.21 1.60412 0.277842 0
M  V30 27840 O 2786.4 1.78381 0.0651458 0
M  V30 27841 C 2783.5 3.3889 0.025432 0
M  V30 27842 C 2782.67 4.27001 -0.948114 0
M  V30 27843 C 2781.73 5.25447 -0.28136 0
M  V30 27844 O 2780.75 5.61609 -0.926477 0
M  V30 27845 N 2781.96 5.72375 0.967822 0
M  V30 27846 H 2784.72 2.54795 -1.57796 0
M  V30 27847 H 2782.28 1.29423 -0.972688 0
M  V30 27848 H 2784.27 4.01814 0.482484 0
M  V30 27849 H 2782.84 3.01399 0.829296 0
M  V30 27850 H 2782.06 3.60978 -1.58395 0
M  V30 27851 H 2783.35 4.82731 -1.60774 0
M  V30 27852 H 2782.75 5.45129 1.51165 0
M  V30 27853 H 2781.31 6.37275 1.36833 0
M  V30 27854 N 2784.74 0.872304 1.31258 0
M  V30 27855 C 2785.69 0.301334 2.26 0
M  V30 27856 C 2786.67 -0.562964 1.5073 0
M  V30 27857 O 2787.87 -0.40946 1.72199 0
M  V30 27858 C 2785 -0.494167 3.39725 0
M  V30 27859 C 2784.08 0.383506 4.22362 0
M  V30 27860 N 2784.47 1.47807 4.83722 0
M  V30 27861 C 2782.77 0.176356 4.45651 0
M  V30 27862 C 2783.47 2.01949 5.45519 0
M  V30 27863 N 2782.45 1.31617 5.27426 0
M  V30 27864 H 2786.25 1.13787 2.70979 0
M  V30 27865 H 2783.76 0.72032 1.45551 0
M  V30 27866 H 2785.76 -0.919756 4.06628 0
M  V30 27867 H 2784.42 -1.32829 2.96288 0
M  V30 27868 H 2785.43 1.86098 4.83309 0
M  V30 27869 H 2782.11 -0.621625 4.12846 0
M  V30 27870 H 2783.5 2.93796 6.04263 0
M  V30 27871 N 2786.22 -1.44374 0.631976 0
M  V30 27872 C 2787.17 -2.32446 -0.0846284 0
M  V30 27873 C 2788.16 -1.47395 -0.834931 0
M  V30 27874 O 2789.37 -1.63734 -0.747735 0
M  V30 27875 H 2785.74 -0.750583 -0.0461376 0
M  V30 27876 H 2787.71 -2.90636 0.676241 0
M  V30 27877 C 2786.46 -3.31402 -1.05205 0
M  V30 27878 H 2785.78 -3.96858 -0.484133 0
M  V30 27879 H 2787.22 -3.95705 -1.52293 0
M  V30 27880 C 2785.68 -2.60391 -2.13771 0
M  V30 27881 O 2786.21 -2.40346 -3.21865 0
M  V30 27882 N 2784.42 -2.20116 -1.89729 0
M  V30 27883 H 2783.97 -2.36619 -1.01829 0
M  V30 27884 H 2783.92 -1.72931 -2.62569 0
M  V30 27885 N 2787.7 -0.372575 -1.53133 0
M  V30 27886 C 2788.92 0.215478 -2.05775 0
M  V30 27887 C 2789.34 1.41884 -1.24557 0
M  V30 27888 O 2788.7 1.80214 -0.287983 0
M  V30 27889 C 2788.75 0.602098 -3.56451 0
M  V30 27890 O 2788.47 -0.553435 -4.3459 0
M  V30 27891 C 2789.97 1.2478 -4.25376 0
M  V30 27892 H 2787.19 0.0364411 -0.67001 0
M  V30 27893 H 2789.73 -0.532968 -1.97433 0
M  V30 27894 H 2787.89 1.30045 -3.6492 0
M  V30 27895 H 2788.3 -0.239428 -5.23953 0
M  V30 27896 H 2789.78 1.46882 -5.32099 0
M  V30 27897 H 2790.25 2.2102 -3.79535 0
M  V30 27898 H 2790.86 0.590678 -4.21178 0
M  V30 27899 N 2789.17 1.5727 -0.101929 0
M  V30 27900 C 2790.08 2.17927 0.868608 0
M  V30 27901 C 2791.1 1.15062 1.30525 0
M  V30 27902 O 2792.28 1.47461 1.37176 0
M  V30 27903 C 2789.34 2.75313 2.10722 0
M  V30 27904 C 2788.4 3.93157 1.72413 0
M  V30 27905 C 2787.64 4.47796 2.9037 0
M  V30 27906 O 2787.86 4.0136 4.05298 0
M  V30 27907 O 2786.79 5.38724 2.68441 0
M  V30 27908 H 2790.62 3.01282 0.382491 0
M  V30 27909 H 2788.2 1.48895 0.122786 0
M  V30 27910 H 2790.09 3.11963 2.83297 0
M  V30 27911 H 2788.76 1.95 2.58373 0
M  V30 27912 H 2787.67 3.61306 0.969975 0
M  V30 27913 H 2789 4.74853 1.29519 0
M  V30 27914 N 2790.65 -0.171793 1.56661 0
M  V30 27915 C 2791.9 -0.886742 1.81608 0
M  V30 27916 C 2792.22 -1.82802 0.67885 0
M  V30 27917 O 2791.49 -1.93569 -0.30132 0
M  V30 27918 H 2790.07 -0.330439 0.66994 0
M  V30 27919 H 2792.73 -0.171723 1.94142 0
M  V30 27920 H 2791.83 -1.46393 2.75637 0
M  V30 27921 N 2792.13 -1.51324 -0.44033 0
M  V30 27922 C 2793.09 -1.71834 -1.51676 0
M  V30 27923 C 2794.09 -0.588412 -1.49647 0
M  V30 27924 O 2795.28 -0.855918 -1.51722 0
M  V30 27925 C 2792.42 -1.77204 -2.91224 0
M  V30 27926 H 2793.61 -2.679 -1.34795 0
M  V30 27927 H 2791.16 -1.41268 -0.668805 0
M  V30 27928 H 2791.9 -0.829418 -3.13514 0
M  V30 27929 H 2791.68 -2.59319 -2.94102 0
M  V30 27930 H 2793.17 -1.94921 -3.69318 0
M  V30 27931 N 2793.61 0.695578 -1.41419 0
M  V30 27932 C 2794.56 1.80162 -1.39734 0
M  V30 27933 C 2795.54 1.58589 -0.271717 0
M  V30 27934 O 2796.73 1.69421 -0.512384 0
M  V30 27935 C 2793.86 3.18467 -1.28193 0
M  V30 27936 C 2792.95 3.45735 -2.45618 0
M  V30 27937 N 2793.34 3.43702 -3.71083 0
M  V30 27938 C 2791.64 3.76283 -2.3943 0
M  V30 27939 C 2792.34 3.69874 -4.48963 0
M  V30 27940 N 2791.32 3.89618 -3.79077 0
M  V30 27941 H 2795.12 1.76953 -2.34659 0
M  V30 27942 H 2792.63 0.895567 -1.35475 0
M  V30 27943 H 2794.63 3.97698 -1.25067 0
M  V30 27944 H 2793.29 3.22888 -0.342525 0
M  V30 27945 H 2794.3 3.24083 -4.03969 0
M  V30 27946 H 2790.98 3.88075 -1.53962 0
M  V30 27947 H 2792.37 3.74438 -5.57894 0
M  V30 27948 N 2795.09 1.27247 0.929833 0
M  V30 27949 C 2796.33 1.14694 1.69188 0
M  V30 27950 C 2796.69 -0.302587 1.89601 0
M  V30 27951 O 2797.89 -0.550497 2.63103 0
M  V30 27952 C 2796.16 1.90676 3.02287 0
M  V30 27953 S 2797.72 1.9431 3.93432 0
M  V30 27954 H 2794.54 0.409487 0.581241 0
M  V30 27955 H 2797.14 1.61126 1.10719 0
M  V30 27956 H 2795.85 2.95186 2.8512 0
M  V30 27957 H 2795.38 1.44729 3.6581 0
M  V30 27958 H 2797.39 1.03798 4.85222 0
M  V30 27959 N 2796.57 -1.13603 1.09235 0
M  V30 27960 C 2797.48 -2.22558 0.741978 0
M  V30 27961 C 2798.49 -1.72118 -0.255206 0
M  V30 27962 O 2799.67 -2.01166 -0.0970394 0
M  V30 27963 C 2796.73 -3.46304 0.165656 0
M  V30 27964 C 2795.79 -4.11643 1.21854 0
M  V30 27965 C 2795.03 -5.29483 0.669619 0
M  V30 27966 O 2795.25 -5.68132 -0.508128 0
M  V30 27967 O 2794.18 -5.8482 1.42371 0
M  V30 27968 H 2798.01 -2.54896 1.65111 0
M  V30 27969 H 2795.59 -1.21698 0.866605 0
M  V30 27970 H 2797.48 -4.21124 -0.152518 0
M  V30 27971 H 2796.15 -3.1567 -0.716518 0
M  V30 27972 H 2795.06 -3.38659 1.58937 0
M  V30 27973 H 2796.39 -4.46403 2.07328 0
M  V30 27974 N 2798.04 -0.879253 -1.30793 0
M  V30 27975 C 2799.46 -0.572456 -1.4898 0
M  V30 27976 C 2799.66 0.891204 -1.8072 0
M  V30 27977 O 2798.72 1.6728 -1.89139 0
M  V30 27978 C 2800.03 -1.48067 -2.61718 0
M  V30 27979 C 2801.58 -1.4837 -2.756 0
M  V30 27980 C 2802.05 -2.3777 -3.91445 0
M  V30 27981 N 2803.54 -2.35702 -3.98747 0
M  V30 27982 C 2804.28 -3.01591 -4.87678 0
M  V30 27983 N 2803.77 -3.76685 -5.81447 0
M  V30 27984 N 2805.57 -2.90852 -4.81 0
M  V30 27985 H 2797.72 -1.82619 -1.08462 0
M  V30 27986 H 2799.98 -0.781378 -0.536799 0
M  V30 27987 H 2799.69 -2.52259 -2.45068 0
M  V30 27988 H 2799.56 -1.18603 -3.58069 0
M  V30 27989 H 2801.95 -0.449321 -2.91659 0
M  V30 27990 H 2802.03 -1.81862 -1.79888 0
M  V30 27991 H 2801.67 -3.4129 -3.76143 0
M  V30 27992 H 2801.6 -2.01597 -4.86483 0
M  V30 27993 H 2804.09 -1.81127 -3.31665 0
M  V30 27994 H 2804.41 -4.24066 -6.46056 0
M  V30 27995 H 2802.75 -3.80792 -5.81397 0
M  V30 27996 H 2805.94 -2.31718 -4.06724 0
M  V30 27997 H 2806.12 -3.4248 -5.50101 0
M  V30 27998 N 2799.52 1.44037 -0.639624 0
M  V30 27999 C 2800.76 2.03842 -0.150938 0
M  V30 28000 C 2801.13 1.49283 1.20741 0
M  V30 28001 O 2802.33 2.00645 1.78871 0
M  V30 28002 C 2800.6 3.57101 -0.146177 0
M  V30 28003 S 2802.16 4.37927 0.276648 0
M  V30 28004 H 2798.97 0.707999 -0.0652572 0
M  V30 28005 H 2801.58 1.76299 -0.844917 0
M  V30 28006 H 2800.28 3.94314 -1.13776 0
M  V30 28007 H 2799.81 3.89267 0.568777 0
M  V30 28008 H 2801.83 4.72383 1.51884 0
M  V30 28009 N 2801 0.380691 1.52933 0
M  V30 28010 C 2801.93 -0.493542 2.23823 0
M  V30 28011 C 2802.94 -1.03381 1.25763 0
M  V30 28012 O 2804.13 -0.937607 1.51892 0
M  V30 28013 C 2801.23 -1.69577 2.93423 0
M  V30 28014 C 2800.41 -1.28438 4.18118 0
M  V30 28015 C 2799.47 -2.35034 4.70792 0
M  V30 28016 O 2798.49 -1.96798 5.34097 0
M  V30 28017 N 2799.69 -3.66831 4.49906 0
M  V30 28018 H 2802.46 0.113762 2.99484 0
M  V30 28019 H 2800.02 0.206615 1.60576 0
M  V30 28020 H 2802.01 -2.40395 3.25565 0
M  V30 28021 H 2800.58 -2.20961 2.21122 0
M  V30 28022 H 2799.8 -0.405434 3.9211 0
M  V30 28023 H 2801.09 -0.986044 4.99154 0
M  V30 28024 H 2800.49 -4.00663 3.99356 0
M  V30 28025 H 2799.04 -4.33709 4.86559 0
M  V30 28026 N 2802.48 -1.57214 0.110268 0
M  V30 28027 C 2803.44 -2.13691 -0.828771 0
M  V30 28028 C 2804.44 -1.06971 -1.20057 0
M  V30 28029 O 2805.63 -1.32788 -1.12752 0
M  V30 28030 C 2802.76 -2.66998 -2.11955 0
M  V30 28031 H 2803.96 -2.97988 -0.338094 0
M  V30 28032 H 2801.51 -1.55682 -0.138886 0
M  V30 28033 H 2802.24 -1.86265 -2.65473 0
M  V30 28034 H 2802.03 -3.4504 -1.86252 0
M  V30 28035 H 2803.52 -3.10634 -2.79099 0
M  V30 28036 N 2803.96 0.163482 -1.5675 0
M  V30 28037 C 2805.2 0.877098 -1.82075 0
M  V30 28038 C 2805.52 1.8244 -0.688535 0
M  V30 28039 O 2804.79 1.93726 0.291051 0
M  V30 28040 H 2803.37 0.326882 -0.671683 0
M  V30 28041 H 2806.04 0.161425 -1.9423 0
M  V30 28042 H 2805.13 1.44929 -2.76409 0
M  V30 28043 N 2805.43 1.51555 0.432299 0
M  V30 28044 C 2806.68 1.64473 1.18131 0
M  V30 28045 C 2807.01 0.363382 1.91075 0
M  V30 28046 O 2806.26 -0.652757 1.84493 0
M  V30 28047 C 2806.56 2.80168 2.21902 0
M  V30 28048 C 2806.23 4.19257 1.65934 0
M  V30 28049 C 2804.89 4.57094 1.50393 0
M  V30 28050 C 2807.24 5.0603 1.24834 0
M  V30 28051 C 2804.57 5.79405 0.922341 0
M  V30 28052 C 2806.92 6.28924 0.68102 0
M  V30 28053 C 2805.59 6.65529 0.512556 0
M  V30 28054 H 2804.86 0.601849 0.432272 0
M  V30 28055 H 2807.5 1.856 0.471669 0
M  V30 28056 H 2805.81 2.53282 2.98924 0
M  V30 28057 H 2807.51 2.87362 2.79686 0
M  V30 28058 H 2804.1 3.89428 1.79007 0
M  V30 28059 H 2808.28 4.774 1.35658 0
M  V30 28060 H 2803.54 6.06409 0.779627 0
M  V30 28061 H 2807.71 6.95499 0.354058 0
M  V30 28062 H 2805.34 7.60176 0.0597748 0
M  V30 28063 N 2806.91 -0.688069 1.41786 0
M  V30 28064 C 2808.16 -1.45028 1.41756 0
M  V30 28065 C 2808.49 -1.94178 0.0291086 0
M  V30 28066 O 2807.77 -1.70032 -0.944426 0
M  V30 28067 C 2808.05 -2.65682 2.43074 0
M  V30 28068 C 2807.9 -2.22249 3.91057 0
M  V30 28069 C 2809.22 -3.67888 2.41549 0
M  V30 28070 H 2806.34 -0.526018 0.516212 0
M  V30 28071 H 2808.98 -0.783075 1.73112 0
M  V30 28072 H 2807.13 -3.22606 2.16466 0
M  V30 28073 H 2808.8 -1.70594 4.28597 0
M  V30 28074 H 2807.05 -1.53955 4.05562 0
M  V30 28075 H 2807.72 -3.08855 4.57507 0
M  V30 28076 H 2810.19 -3.20653 2.65181 0
M  V30 28077 H 2809.07 -4.49908 3.14442 0
M  V30 28078 H 2809.33 -4.18103 1.43673 0
M  V30 28079 N 2808.39 -1.27739 -0.923072 0
M  V30 28080 C 2809.61 -1.17286 -1.71052 0
M  V30 28081 C 2810.04 0.26612 -1.86208 0
M  V30 28082 O 2809.4 1.19267 -1.36547 0
M  V30 28083 C 2809.45 -1.86647 -3.08537 0
M  V30 28084 O 2808.55 -1.16759 -3.95526 0
M  V30 28085 H 2807.89 -0.407658 -0.524129 0
M  V30 28086 H 2810.42 -1.68892 -1.15484 0
M  V30 28087 H 2810.43 -1.94188 -3.58824 0
M  V30 28088 H 2809.11 -2.91323 -2.96823 0
M  V30 28089 H 2807.68 -1.17318 -3.53965 0
M  V30 28090 N 2809.87 1.13022 -1.09836 0
M  V30 28091 C 2811.09 1.88769 -0.859123 0
M  V30 28092 C 2811.52 1.78792 0.58437 0
M  V30 28093 O 2810.88 1.13845 1.41099 0
M  V30 28094 C 2810.92 3.36184 -1.30433 0
M  V30 28095 O 2810.03 4.09765 -0.46544 0
M  V30 28096 H 2809.37 0.586772 -0.310797 0
M  V30 28097 H 2811.9 1.42971 -1.46357 0
M  V30 28098 H 2811.91 3.87017 -1.29157 0
M  V30 28099 H 2810.58 3.42763 -2.35556 0
M  V30 28100 H 2809.16 3.68927 -0.542879 0
M  V30 28101 N 2811.35 0.886177 1.30325 0
M  V30 28102 C 2812.76 0.580349 1.48675 0
M  V30 28103 C 2812.96 -0.881608 1.8119 0
M  V30 28104 O 2812.02 -1.66275 1.90024 0
M  V30 28105 C 2813.33 1.49453 2.6093 0
M  V30 28106 C 2814.88 1.49829 2.7481 0
M  V30 28107 C 2815.35 2.39843 3.90179 0
M  V30 28108 N 2816.85 2.37813 3.97491 0
M  V30 28109 C 2817.58 3.04173 4.86072 0
M  V30 28110 N 2817.08 3.79763 5.79441 0
M  V30 28111 N 2818.87 2.93399 4.79451 0
M  V30 28112 H 2811.02 1.83192 1.07492 0
M  V30 28113 H 2813.28 0.784213 0.532647 0
M  V30 28114 H 2812.99 2.53555 2.43727 0
M  V30 28115 H 2812.86 1.205 3.57435 0
M  V30 28116 H 2815.25 0.464782 2.91417 0
M  V30 28117 H 2815.33 1.82814 1.78921 0
M  V30 28118 H 2814.98 3.4328 3.74328 0
M  V30 28119 H 2814.91 2.04174 4.85408 0
M  V30 28120 H 2817.4 1.82883 3.30699 0
M  V30 28121 H 2817.71 4.27486 6.43798 0
M  V30 28122 H 2816.05 3.8387 5.79369 0
M  V30 28123 H 2819.25 2.33872 4.05489 0
M  V30 28124 H 2819.42 3.45393 5.48277 0
M  V30 28125 N 2812.82 -1.43695 0.647253 0
M  V30 28126 C 2814.1 -1.954 0.0884101 0
M  V30 28127 C 2814.48 -1.58875 -1.39003 0
M  V30 28128 O 2813.83 -0.870867 -2.11254 0
M  V30 28129 C 2814.04 -3.47452 0.328324 0
M  V30 28130 C 2815.39 -4.23976 0.230083 0
M  V30 28131 O 2816.41 -3.55246 0.260558 0
M  V30 28132 O 2815.27 -5.46298 0.148711 0
M  V30 28133 H 2812.36 -0.826897 -0.0130538 0
M  V30 28134 H 2814.91 -1.53665 0.720077 0
M  V30 28135 H 2813.68 -3.67143 1.35357 0
M  V30 28136 H 2813.31 -3.96172 -0.336702 0
M  V30 28137 N 2814.3 -0.388796 -1.52729 0
M  V30 28138 C 2815.58 0.251099 -1.93982 0
M  V30 28139 C 2815.96 1.64402 -1.32421 0
M  V30 28140 O 2815.31 2.23138 -0.492113 0
M  V30 28141 C 2815.52 0.277959 -3.47891 0
M  V30 28142 C 2816.87 0.507155 -4.2156 0
M  V30 28143 O 2817.89 0.35819 -3.54394 0
M  V30 28144 O 2816.75 0.798999 -5.40628 0
M  V30 28145 H 2813.84 0.155966 -0.81216 0
M  V30 28146 H 2816.39 -0.443266 -1.63809 0
M  V30 28147 H 2815.16 -0.697737 -3.85029 0
M  V30 28148 H 2814.78 1.01727 -3.84366 0
M  V30 28149 N 2815.78 1.57153 -0.118604 0
M  V30 28150 C 2817.19 1.82213 0.406838 0
M  V30 28151 C 2817.54 1.03574 1.66634 0
M  V30 28152 O 2816.67 0.272209 2.14681 0
M  V30 28153 C 2817.26 3.3051 0.744891 0
M  V30 28154 C 2815.82 3.56252 1.21497 0
M  V30 28155 C 2814.97 2.76398 0.223462 0
M  V30 28156 H 2817.92 1.54933 -0.34374 0
M  V30 28157 H 2817.94 3.45117 1.60234 0
M  V30 28158 H 2817.45 3.87719 -0.171979 0
M  V30 28159 H 2815.55 3.044 2.14875 0
M  V30 28160 H 2815.67 4.64831 1.16057 0
M  V30 28161 H 2814.03 2.44592 0.710417 0
M  V30 28162 H 2814.81 3.36366 -0.686498 0
M  V30 28163 N 2817.26 -0.155167 1.56834 0
M  V30 28164 C 2818.48 -0.888305 1.87414 0
M  V30 28165 C 2818.91 -1.74318 0.706741 0
M  V30 28166 O 2818.27 -1.78009 -0.343861 0
M  V30 28167 C 2818.31 -1.72759 3.16523 0
M  V30 28168 O 2817.42 -2.83098 2.99882 0
M  V30 28169 H 2816.76 -0.247904 0.615987 0
M  V30 28170 H 2819.29 -0.148442 2.04061 0
M  V30 28171 H 2819.3 -2.12427 3.48337 0
M  V30 28172 H 2817.97 -1.09978 4.01096 0
M  V30 28173 H 2816.55 -2.46897 2.79457 0
M  V30 28174 N 2818.74 -1.51782 -0.424256 0
M  V30 28175 C 2819.7 -1.73434 -1.49845 0
M  V30 28176 C 2820.7 -0.604251 -1.49015 0
M  V30 28177 O 2821.89 -0.871962 -1.50806 0
M  V30 28178 C 2819.02 -1.80282 -2.89329 0
M  V30 28179 H 2820.21 -2.69315 -1.31946 0
M  V30 28180 H 2817.77 -1.4197 -0.653784 0
M  V30 28181 H 2818.5 -0.862623 -3.12617 0
M  V30 28182 H 2818.29 -2.62424 -2.91335 0
M  V30 28183 H 2819.78 -1.98827 -3.67229 0
M  V30 28184 N 2820.21 0.68054 -1.42149 0
M  V30 28185 C 2821.63 1.26097 -1.37683 0
M  V30 28186 C 2821.98 1.96085 -0.0672693 0
M  V30 28187 O 2821.1 1.99678 0.834137 0
M  V30 28188 C 2821.7 2.29324 -2.49391 0
M  V30 28189 C 2820.26 2.82907 -2.48275 0
M  V30 28190 C 2819.4 1.57148 -2.28473 0
M  V30 28191 H 2822.35 0.474299 -1.51447 0
M  V30 28192 H 2822.37 3.10937 -2.19313 0
M  V30 28193 H 2821.89 1.78357 -3.44689 0
M  V30 28194 H 2819.99 3.38011 -1.56779 0
M  V30 28195 H 2820.1 3.32314 -3.45115 0
M  V30 28196 H 2818.46 1.83508 -1.76627 0
M  V30 28197 H 2819.25 1.08155 -3.25818 0
M  V30 28198 N 2821.69 1.28226 0.916285 0
M  V30 28199 C 2822.93 1.16482 1.67962 0
M  V30 28200 C 2823.3 -0.282461 1.89911 0
M  V30 28201 O 2824.5 -0.522561 2.63672 0
M  V30 28202 C 2822.77 1.93871 3.00248 0
M  V30 28203 S 2824.33 1.98472 3.91349 0
M  V30 28204 H 2821.15 0.415629 0.576865 0
M  V30 28205 H 2823.75 1.62291 1.09004 0
M  V30 28206 H 2822.45 2.98193 2.81973 0
M  V30 28207 H 2821.98 1.48601 3.64254 0
M  V30 28208 H 2824 1.08939 4.84094 0
M  V30 28209 N 2823.17 -1.12438 1.10433 0
M  V30 28210 C 2824.42 -1.84219 0.848004 0
M  V30 28211 C 2824.75 -1.83872 -0.62487 0
M  V30 28212 O 2824.02 -1.28426 -1.46072 0
M  V30 28213 C 2824.31 -3.31897 1.397 0
M  V30 28214 C 2824.16 -3.40699 2.93674 0
M  V30 28215 C 2825.48 -4.27652 1.03931 0
M  V30 28216 H 2822.6 -0.668858 0.309513 0
M  V30 28217 H 2825.24 -1.31909 1.36748 0
M  V30 28218 H 2823.39 -3.76575 0.955161 0
M  V30 28219 H 2825.06 -3.04656 3.46385 0
M  V30 28220 H 2823.31 -2.81246 3.30277 0
M  V30 28221 H 2823.98 -4.44594 3.2717 0
M  V30 28222 H 2826.45 -3.911 1.42056 0
M  V30 28223 H 2825.33 -5.29392 1.45036 0
M  V30 28224 H 2825.59 -4.4207 -0.0512583 0
M  V30 28225 N 2824.65 -0.893076 -1.29853 0
M  V30 28226 C 2825.87 -0.530101 -2.00511 0
M  V30 28227 C 2826.3 0.876169 -1.66448 0
M  V30 28228 O 2825.66 1.58206 -0.885474 0
M  V30 28229 C 2825.71 -0.721567 -3.53307 0
M  V30 28230 O 2824.81 0.228922 -4.11764 0
M  V30 28231 H 2824.15 -0.207902 -0.630613 0
M  V30 28232 H 2826.68 -1.20285 -1.65508 0
M  V30 28233 H 2826.69 -0.623669 -4.03205 0
M  V30 28234 H 2825.37 -1.74684 -3.77436 0
M  V30 28235 H 2823.94 0.0840379 -3.72805 0
M  V30 28236 N 2826.13 1.4335 -0.654865 0
M  V30 28237 C 2827.37 2.0367 -0.172549 0
M  V30 28238 C 2827.73 1.50556 1.19151 0
M  V30 28239 O 2828.93 2.02531 1.76733 0
M  V30 28240 C 2827.2 3.56926 -0.184044 0
M  V30 28241 S 2828.76 4.38196 0.230185 0
M  V30 28242 H 2825.58 0.707267 -0.0727628 0
M  V30 28243 H 2828.18 1.75393 -0.863568 0
M  V30 28244 H 2826.89 3.93085 -1.17952 0
M  V30 28245 H 2826.42 3.89848 0.527459 0
M  V30 28246 H 2828.43 4.73967 1.46866 0
M  V30 28247 N 2827.61 0.39689 1.52521 0
M  V30 28248 C 2829.02 -0.075454 1.86547 0
M  V30 28249 C 2829.37 -1.45498 1.31623 0
M  V30 28250 O 2828.49 -2.06388 0.6506 0
M  V30 28251 C 2829.09 -0.143695 3.38495 0
M  V30 28252 C 2827.65 -0.560347 3.72206 0
M  V30 28253 C 2826.79 0.272904 2.75954 0
M  V30 28254 H 2829.74 0.61446 1.46322 0
M  V30 28255 H 2829.77 -0.961361 3.68155 0
M  V30 28256 H 2829.28 0.860482 3.78441 0
M  V30 28257 H 2827.38 -1.57161 3.37833 0
M  V30 28258 H 2827.49 -0.31323 4.78075 0
M  V30 28259 H 2825.86 -0.262956 2.53339 0
M  V30 28260 H 2826.64 1.2752 3.18737 0
M  V30 28261 N 2829.08 -1.57088 0.126936 0
M  V30 28262 C 2830.32 -1.97352 -0.532125 0
M  V30 28263 C 2830.69 -1.00916 -1.6334 0
M  V30 28264 O 2831.89 -1.30148 -2.35191 0
M  V30 28265 C 2830.16 -3.41818 -1.04379 0
M  V30 28266 S 2831.72 -4.04098 -1.71026 0
M  V30 28267 H 2828.54 -0.689704 -0.172712 0
M  V30 28268 H 2831.14 -1.94326 0.213899 0
M  V30 28269 H 2829.84 -4.09748 -0.231217 0
M  V30 28270 H 2829.37 -3.48512 -1.8249 0
M  V30 28271 H 2831.39 -3.95506 -2.99649 0
M  V30 28272 N 2830.56 0.146848 -1.56914 0
M  V30 28273 C 2831.97 0.706897 -1.728 0
M  V30 28274 C 2832.32 1.81654 -0.741361 0
M  V30 28275 O 2831.45 2.16204 0.0919782 0
M  V30 28276 C 2832.04 1.28906 -3.13319 0
M  V30 28277 C 2830.6 1.79568 -3.30806 0
M  V30 28278 C 2829.75 0.684205 -2.68726 0
M  V30 28279 H 2832.7 -0.078821 -1.58504 0
M  V30 28280 H 2832.72 2.15886 -3.13327 0
M  V30 28281 H 2832.23 0.481217 -3.85105 0
M  V30 28282 H 2830.33 2.62918 -2.64017 0
M  V30 28283 H 2830.45 1.92428 -4.38757 0
M  V30 28284 H 2828.81 1.11087 -2.29198 0
M  V30 28285 H 2829.59 -0.112195 -3.43117 0
M  V30 28286 N 2832.04 1.52005 0.4162 0
M  V30 28287 C 2832.97 1.77797 1.51362 0
M  V30 28288 C 2833.95 0.628628 1.58058 0
M  V30 28289 O 2835.14 0.873509 1.73446 0
M  V30 28290 C 2832.27 1.92224 2.89253 0
M  V30 28291 C 2831.22 3.07785 2.9741 0
M  V30 28292 C 2830.55 3.07424 4.37486 0
M  V30 28293 C 2831.85 4.47374 2.69543 0
M  V30 28294 H 2833.54 2.69691 1.30028 0
M  V30 28295 H 2831.09 1.29773 0.624089 0
M  V30 28296 H 2833.04 2.08851 3.66004 0
M  V30 28297 H 2831.76 0.969972 3.11864 0
M  V30 28298 H 2830.42 2.90897 2.23102 0
M  V30 28299 H 2830.07 2.09933 4.57097 0
M  V30 28300 H 2829.77 3.85037 4.4387 0
M  V30 28301 H 2831.29 3.26171 5.16183 0
M  V30 28302 H 2832.71 4.64503 3.3602 0
M  V30 28303 H 2831.1 5.26851 2.87312 0
M  V30 28304 H 2832.17 4.55956 1.65021 0
M  V30 28305 N 2833.52 -0.672992 1.42508 0
M  V30 28306 C 2834.74 -1.46625 1.46683 0
M  V30 28307 C 2835.17 -1.87929 0.080099 0
M  V30 28308 O 2834.53 -1.56114 -0.921851 0
M  V30 28309 C 2834.57 -2.69047 2.40096 0
M  V30 28310 O 2833.68 -3.67384 1.87357 0
M  V30 28311 H 2833.02 -0.440421 0.496915 0
M  V30 28312 H 2835.55 -0.825302 1.87216 0
M  V30 28313 H 2835.56 -3.17097 2.56737 0
M  V30 28314 H 2834.23 -2.38324 3.40844 0
M  V30 28315 H 2832.81 -3.26425 1.8028 0
M  V30 28316 N 2835 -1.2871 -0.909472 0
M  V30 28317 C 2836.24 -1.16286 -1.66149 0
M  V30 28318 C 2836.57 0.287036 -1.92067 0
M  V30 28319 O 2835.85 1.20835 -1.52411 0
M  V30 28320 C 2836.13 -1.96636 -3.01673 0
M  V30 28321 C 2835.99 -3.49711 -2.82881 0
M  V30 28322 C 2837.3 -1.78511 -4.02271 0
M  V30 28323 H 2834.42 -0.423804 -0.602959 0
M  V30 28324 H 2837.07 -1.58075 -1.05415 0
M  V30 28325 H 2835.22 -1.61125 -3.53512 0
M  V30 28326 H 2836.89 -3.95152 -2.38019 0
M  V30 28327 H 2835.13 -3.75129 -2.17855 0
M  V30 28328 H 2835.8 -4.01194 -3.7914 0
M  V30 28329 H 2838.28 -2.09509 -3.59507 0
M  V30 28330 H 2837.15 -2.37097 -4.95052 0
M  V30 28331 H 2837.41 -0.737724 -4.35901 0
M  V30 28332 N 2836.47 1.1185 -1.11028 0
M  V30 28333 C 2837.88 1.6502 -0.873232 0
M  V30 28334 C 2838.24 1.8695 0.595331 0
M  V30 28335 O 2837.36 1.60054 1.45643 0
M  V30 28336 C 2837.96 2.99774 -1.57864 0
M  V30 28337 C 2836.51 3.49868 -1.38813 0
M  V30 28338 C 2835.66 2.24765 -1.62407 0
M  V30 28339 H 2838.61 0.955481 -1.26713 0
M  V30 28340 H 2838.63 3.66541 -1.02118 0
M  V30 28341 H 2838.15 2.83781 -2.64745 0
M  V30 28342 H 2836.25 3.71034 -0.341228 0
M  V30 28343 H 2836.36 4.28935 -2.13429 0
M  V30 28344 H 2834.72 2.32177 -1.04718 0
M  V30 28345 H 2835.51 2.11319 -2.70553 0
M  V30 28346 N 2837.95 0.89995 1.29378 0
M  V30 28347 C 2839.18 0.540728 2.00227 0
M  V30 28348 C 2839.6 -0.86733 1.6691 0
M  V30 28349 O 2838.96 -1.57734 0.893851 0
M  V30 28350 C 2839.01 0.740294 3.52919 0
M  V30 28351 O 2838.11 -0.207082 4.1188 0
M  V30 28352 H 2837.45 0.211244 0.629501 0
M  V30 28353 H 2839.98 1.21161 1.64867 0
M  V30 28354 H 2839.99 0.645044 4.02869 0
M  V30 28355 H 2838.67 1.76683 3.76505 0
M  V30 28356 H 2837.24 -0.0642659 3.72845 0
M  V30 28357 N 2839.43 -1.43001 0.662458 0
M  V30 28358 C 2840.38 -2.32573 -0.0353041 0
M  V30 28359 C 2841.37 -1.49133 -0.803479 0
M  V30 28360 O 2842.58 -1.65284 -0.712836 0
M  V30 28361 H 2838.95 -0.751393 -0.0302062 0
M  V30 28362 H 2840.92 -2.89137 0.737737 0
M  V30 28363 C 2839.67 -3.33559 -0.981517 0
M  V30 28364 H 2839 -3.97796 -0.399845 0
M  V30 28365 H 2840.44 -3.98847 -1.43866 0
M  V30 28366 C 2838.9 -2.64867 -2.082 0
M  V30 28367 O 2839.43 -2.47119 -3.16694 0
M  V30 28368 N 2837.63 -2.24091 -1.85018 0
M  V30 28369 H 2837.18 -2.38726 -0.967867 0
M  V30 28370 H 2837.14 -1.78461 -2.58842 0
M  V30 28371 N 2840.91 -0.404973 -1.52308 0
M  V30 28372 C 2841.86 0.437281 -2.28453 0
M  V30 28373 C 2842.85 1.04946 -1.32977 0
M  V30 28374 O 2844.06 0.988132 -1.50452 0
M  V30 28375 H 2840.43 0.159792 -0.734827 0
M  V30 28376 H 2842.4 -0.226202 -2.97541 0
M  V30 28377 C 2841.15 1.54399 -3.11539 0
M  V30 28378 H 2840.47 1.08227 -3.84873 0
M  V30 28379 H 2841.91 2.10722 -3.6793 0
M  V30 28380 C 2840.37 2.50898 -2.24838 0
M  V30 28381 O 2840.9 3.54683 -1.8858 0
M  V30 28382 N 2839.11 2.21009 -1.88689 0
M  V30 28383 H 2838.66 1.36642 -2.18373 0
M  V30 28384 H 2838.61 2.85822 -1.30971 0
M  V30 28385 N 2842.39 1.57018 -0.135265 0
M  V30 28386 C 2843.63 1.95743 0.51876 0
M  V30 28387 C 2843.96 1.01949 1.6564 0
M  V30 28388 O 2843.22 0.046436 1.95645 0
M  V30 28389 C 2843.52 3.4079 1.07688 0
M  V30 28390 C 2843.18 4.50862 0.0589128 0
M  V30 28391 C 2841.84 4.80692 -0.220957 0
M  V30 28392 C 2844.2 5.1733 -0.633947 0
M  V30 28393 C 2841.52 5.74303 -1.19969 0
M  V30 28394 C 2843.88 6.11994 -1.60142 0
M  V30 28395 C 2842.54 6.4021 -1.88911 0
M  V30 28396 H 2841.81 0.716273 0.189828 0
M  V30 28397 H 2844.46 1.90237 -0.219614 0
M  V30 28398 H 2842.76 3.4307 1.89235 0
M  V30 28399 H 2844.46 3.68074 1.59131 0
M  V30 28400 H 2841.05 4.27636 0.287229 0
M  V30 28401 H 2845.23 4.94426 -0.43091 0
M  V30 28402 H 2840.49 5.94462 -1.42916 0
M  V30 28403 H 2844.66 6.62579 -2.14388 0
M  V30 28404 H 2842.29 7.12552 -2.64904 0
M  V30 28405 N 2843.86 -0.138524 1.5699 0
M  V30 28406 C 2844.83 -1.15474 1.97986 0
M  V30 28407 C 2845.83 -1.35396 0.86744 0
M  V30 28408 O 2847.02 -1.32244 1.13389 0
M  V30 28409 C 2844.15 -2.51333 2.30314 0
M  V30 28410 H 2845.34 -0.802845 2.88954 0
M  V30 28411 H 2842.9 -0.382162 1.51556 0
M  V30 28412 H 2843.63 -2.91479 1.42164 0
M  V30 28413 H 2843.42 -2.38232 3.11429 0
M  V30 28414 H 2844.91 -3.24508 2.62839 0
M  V30 28415 N 2845.34 -1.52224 -0.408133 0
M  V30 28416 C 2846.25 -1.78529 -1.52199 0
M  V30 28417 C 2847.27 -0.67092 -1.60545 0
M  V30 28418 O 2848.44 -0.956436 -1.77241 0
M  V30 28419 C 2845.51 -1.93133 -2.87924 0
M  V30 28420 C 2844.57 -3.17038 -2.89457 0
M  V30 28421 C 2843.8 -3.30936 -4.18709 0
M  V30 28422 O 2844.03 -2.50076 -5.12658 0
M  V30 28423 O 2842.96 -4.24092 -4.27118 0
M  V30 28424 H 2846.79 -2.73074 -1.32906 0
M  V30 28425 H 2844.37 -1.3708 -0.594088 0
M  V30 28426 H 2846.25 -2.04556 -3.68422 0
M  V30 28427 H 2844.93 -1.01777 -3.07283 0
M  V30 28428 H 2843.84 -3.11073 -2.07809 0
M  V30 28429 H 2845.17 -4.08178 -2.75048 0
M  V30 28430 N 2846.82 0.665425 -1.42863 0
M  V30 28431 C 2848.07 1.42262 -1.43548 0
M  V30 28432 C 2848.39 1.94919 -0.0563459 0
M  V30 28433 O 2847.66 1.73663 0.906537 0
M  V30 28434 H 2846.24 0.527944 -0.528473 0
M  V30 28435 H 2848.9 0.785633 -1.78364 0
M  V30 28436 H 2848 2.27101 -2.14083 0
M  V30 28437 N 2848.3 1.29191 0.902633 0
M  V30 28438 C 2849.54 1.18257 1.66718 0
M  V30 28439 C 2849.9 -0.262302 1.902 0
M  V30 28440 O 2851.1 -0.494565 2.64211 0
M  V30 28441 C 2849.37 1.97045 2.98175 0
M  V30 28442 S 2850.93 2.02611 3.89222 0
M  V30 28443 H 2847.75 0.421724 0.572425 0
M  V30 28444 H 2850.35 1.63438 1.07276 0
M  V30 28445 H 2849.06 3.01167 2.78794 0
M  V30 28446 H 2848.59 1.52456 3.62658 0
M  V30 28447 H 2850.6 1.14067 4.82911 0
M  V30 28448 N 2849.78 -1.1126 1.1162 0
M  V30 28449 C 2851.02 -1.83309 0.867495 0
M  V30 28450 C 2851.36 -1.84525 -0.605333 0
M  V30 28451 O 2850.63 -1.29968 -1.44702 0
M  V30 28452 C 2850.91 -3.30397 1.43213 0
M  V30 28453 C 2850.77 -3.37565 2.97271 0
M  V30 28454 C 2852.09 -4.26526 1.08461 0
M  V30 28455 H 2849.2 -0.665537 0.31659 0
M  V30 28456 H 2851.85 -1.30452 1.38139 0
M  V30 28457 H 2850 -3.75541 0.995048 0
M  V30 28458 H 2851.67 -3.00965 3.49596 0
M  V30 28459 H 2849.91 -2.77727 3.33242 0
M  V30 28460 H 2850.58 -4.41099 3.31867 0
M  V30 28461 H 2853.06 -3.89571 1.46196 0
M  V30 28462 H 2851.93 -5.27824 1.50643 0
M  V30 28463 H 2852.2 -4.421 -0.00436797 0
M  V30 28464 N 2851.25 -0.906798 -1.28899 0
M  V30 28465 C 2852.18 -0.4067 -2.29931 0
M  V30 28466 C 2853.17 0.522033 -1.61891 0
M  V30 28467 O 2854.35 0.43125 -1.89351 0
M  V30 28468 C 2851.48 0.360305 -3.45426 0
M  V30 28469 C 2850.43 -0.478649 -4.25315 0
M  V30 28470 C 2849.76 0.416279 -5.33077 0
M  V30 28471 C 2851.06 -1.73229 -4.92736 0
M  V30 28472 H 2852.75 -1.25102 -2.72011 0
M  V30 28473 H 2850.3 -0.603 -1.30767 0
M  V30 28474 H 2852.25 0.720956 -4.15187 0
M  V30 28475 H 2850.98 1.23847 -3.02208 0
M  V30 28476 H 2849.64 -0.821725 -3.57272 0
M  V30 28477 H 2849.28 1.29278 -4.86103 0
M  V30 28478 H 2848.98 -0.141412 -5.8743 0
M  V30 28479 H 2850.51 0.772965 -6.05688 0
M  V30 28480 H 2851.92 -1.44095 -5.54896 0
M  V30 28481 H 2850.32 -2.23185 -5.57054 0
M  V30 28482 H 2851.39 -2.46416 -4.17621 0
M  V30 28483 N 2852.73 1.42648 -0.670032 0
M  V30 28484 C 2854.15 1.55955 -0.339137 0
M  V30 28485 C 2854.35 1.65058 1.15577 0
M  V30 28486 O 2853.4 1.61488 1.94108 0
M  V30 28487 C 2854.72 2.81198 -1.06527 0
M  V30 28488 C 2856.27 2.94965 -1.04713 0
M  V30 28489 C 2856.74 4.23062 -1.75449 0
M  V30 28490 N 2858.23 4.29964 -1.72294 0
M  V30 28491 C 2858.97 5.27885 -2.23886 0
M  V30 28492 N 2858.46 6.31986 -2.8384 0
M  V30 28493 N 2860.26 5.19651 -2.14288 0
M  V30 28494 H 2852.41 1.34983 -1.63992 0
M  V30 28495 H 2854.67 0.649427 -0.690615 0
M  V30 28496 H 2854.38 2.80594 -2.12038 0
M  V30 28497 H 2854.25 3.71945 -0.627464 0
M  V30 28498 H 2856.64 2.951 -0.000367837 0
M  V30 28499 H 2856.72 2.05462 -1.52378 0
M  V30 28500 H 2856.36 4.23688 -2.80091 0
M  V30 28501 H 2856.29 5.11491 -1.25238 0
M  V30 28502 H 2858.78 3.5536 -1.2856 0
M  V30 28503 H 2859.1 7.03052 -3.2084 0
M  V30 28504 H 2857.44 6.32562 -2.87908 0
M  V30 28505 H 2860.63 4.37243 -1.67142 0
M  V30 28506 H 2860.8 5.95802 -2.54803 0
M  V30 28507 N 2854.21 0.413044 1.52091 0
M  V30 28508 C 2855.46 -0.161143 2.01457 0
M  V30 28509 C 2855.78 -1.45312 1.30036 0
M  V30 28510 O 2855.05 -1.91179 0.427468 0
M  V30 28511 H 2853.63 -0.0625395 0.744377 0
M  V30 28512 H 2856.29 0.550184 1.86973 0
M  V30 28513 H 2855.39 -0.354463 3.10081 0
M  V30 28514 N 2855.69 -1.56945 0.143591 0
M  V30 28515 C 2856.94 -1.95628 -0.507368 0
M  V30 28516 C 2857.26 -1.02925 -1.65624 0
M  V30 28517 O 2856.53 -0.090148 -1.95692 0
M  V30 28518 H 2855.11 -0.722321 -0.190424 0
M  V30 28519 H 2857.77 -1.93674 0.218292 0
M  V30 28520 H 2856.87 -2.99267 -0.885764 0
M  V30 28521 N 2857.17 0.130197 -1.57061 0
M  V30 28522 C 2858.58 0.483386 -1.52104 0
M  V30 28523 C 2858.78 1.82471 -0.854784 0
M  V30 28524 O 2857.84 2.4877 -0.432386 0
M  V30 28525 C 2859.15 0.478198 -2.96873 0
M  V30 28526 C 2860.7 0.562538 -3.07903 0
M  V30 28527 C 2861.18 0.587849 -4.54212 0
M  V30 28528 N 2862.67 0.649603 -4.58622 0
M  V30 28529 C 2863.4 0.690451 -5.69228 0
M  V30 28530 N 2862.9 0.689622 -6.89359 0
M  V30 28531 N 2864.69 0.73261 -5.57305 0
M  V30 28532 H 2856.84 -0.748814 -1.98763 0
M  V30 28533 H 2859.1 -0.274981 -0.907243 0
M  V30 28534 H 2858.81 -0.439506 -3.48943 0
M  V30 28535 H 2858.68 1.31007 -3.53719 0
M  V30 28536 H 2861.07 1.47066 -2.55843 0
M  V30 28537 H 2861.15 -0.296809 -2.54072 0
M  V30 28538 H 2860.8 -0.316185 -5.06915 0
M  V30 28539 H 2860.73 1.46392 -5.05843 0
M  V30 28540 H 2863.22 0.656862 -3.72147 0
M  V30 28541 H 2863.53 0.723104 -7.6941 0
M  V30 28542 H 2861.88 0.657226 -6.91885 0
M  V30 28543 H 2865.07 0.730544 -4.62364 0
M  V30 28544 H 2865.24 0.760977 -6.43516 0
M  V30 28545 N 2858.65 1.52438 0.400055 0
M  V30 28546 C 2859.87 1.70803 1.16765 0
M  V30 28547 C 2860.29 0.421494 1.84035 0
M  V30 28548 O 2859.65 -0.603198 1.72243 0
M  V30 28549 C 2859.7 2.84994 2.22398 0
M  V30 28550 O 2859.42 4.08666 1.57872 0
M  V30 28551 C 2860.92 3.14945 3.11969 0
M  V30 28552 H 2858.14 0.572167 0.350523 0
M  V30 28553 H 2860.68 1.99038 0.469499 0
M  V30 28554 H 2858.84 2.59252 2.87866 0
M  V30 28555 H 2859.25 4.72364 2.27974 0
M  V30 28556 H 2860.73 3.98337 3.82141 0
M  V30 28557 H 2861.2 2.2887 3.74854 0
M  V30 28558 H 2861.81 3.42485 2.52159 0
M  V30 28559 N 2860.12 -0.657839 1.43214 0
M  V30 28560 C 2861.06 -1.78335 1.43977 0
M  V30 28561 C 2862.07 -1.59284 0.33651 0
M  V30 28562 O 2863.26 -1.6809 0.600661 0
M  V30 28563 C 2860.36 -3.15695 1.23247 0
M  V30 28564 C 2859.53 -3.61445 2.46325 0
M  V30 28565 C 2858.59 -4.77593 2.20888 0
M  V30 28566 O 2857.62 -4.87268 2.94208 0
M  V30 28567 N 2858.82 -5.67479 1.22261 0
M  V30 28568 H 2861.58 -1.7816 2.40996 0
M  V30 28569 H 2859.14 -0.841524 1.38311 0
M  V30 28570 H 2861.14 -3.91077 1.0412 0
M  V30 28571 H 2859.71 -3.10669 0.346903 0
M  V30 28572 H 2858.93 -2.76558 2.80908 0
M  V30 28573 H 2860.21 -3.88757 3.28246 0
M  V30 28574 H 2859.61 -5.6233 0.616532 0
M  V30 28575 H 2858.17 -6.42601 1.09118 0
M  V30 28576 N 2861.6 -1.29668 -0.895769 0
M  V30 28577 C 2862.84 -1.19139 -1.66088 0
M  V30 28578 C 2863.21 0.252212 -1.90336 0
M  V30 28579 O 2864.41 0.480547 -2.6447 0
M  V30 28580 C 2862.68 -1.98623 -2.97125 0
M  V30 28581 S 2864.24 -2.04673 -3.88142 0
M  V30 28582 H 2861.05 -0.424754 -0.57018 0
M  V30 28583 H 2863.66 -1.64005 -1.06408 0
M  V30 28584 H 2862.36 -3.02642 -2.77193 0
M  V30 28585 H 2861.89 -1.54377 -3.61844 0
M  V30 28586 H 2863.91 -1.16626 -4.82299 0
M  V30 28587 N 2863.08 1.10667 -1.12208 0
M  V30 28588 C 2864.01 2.18996 -0.810124 0
M  V30 28589 C 2864.99 1.68605 0.225035 0
M  V30 28590 O 2866.18 1.94006 0.0867489 0
M  V30 28591 C 2863.31 3.46315 -0.261323 0
M  V30 28592 C 2862.26 4.09967 -1.22927 0
M  V30 28593 C 2861.59 5.31958 -0.540806 0
M  V30 28594 C 2862.89 4.53957 -2.58303 0
M  V30 28595 H 2864.58 2.45349 -1.71594 0
M  V30 28596 H 2862.13 1.17921 -0.826481 0
M  V30 28597 H 2864.08 4.21389 -0.0308262 0
M  V30 28598 H 2862.8 3.19446 0.679823 0
M  V30 28599 H 2861.46 3.36897 -1.44553 0
M  V30 28600 H 2861.11 5.01364 0.405404 0
M  V30 28601 H 2860.81 5.75497 -1.18647 0
M  V30 28602 H 2862.33 6.09765 -0.319291 0
M  V30 28603 H 2863.75 5.20315 -2.40718 0
M  V30 28604 H 2862.14 5.08337 -3.18925 0
M  V30 28605 H 2863.21 3.66997 -3.16925 0
M  V30 28606 N 2864.56 0.913621 1.28416 0
M  V30 28607 C 2865.8 0.553806 1.96755 0
M  V30 28608 C 2866.16 -0.885983 1.70336 0
M  V30 28609 O 2867.36 -1.35337 2.32244 0
M  V30 28610 C 2865.63 0.85431 3.47039 0
M  V30 28611 S 2867.19 0.600892 4.34666 0
M  V30 28612 H 2864.01 0.204927 0.680827 0
M  V30 28613 H 2866.61 1.17904 1.55945 0
M  V30 28614 H 2865.32 1.90013 3.63762 0
M  V30 28615 H 2864.85 0.217721 3.92797 0
M  V30 28616 H 2866.86 -0.547819 4.93167 0
M  V30 28617 N 2866.04 -1.4229 0.677588 0
M  V30 28618 C 2866.98 -2.308 0.00098763 0
M  V30 28619 C 2867.95 -1.46118 -0.789864 0
M  V30 28620 O 2869.14 -1.74943 -0.761548 0
M  V30 28621 C 2866.28 -3.31985 -0.942329 0
M  V30 28622 C 2865.39 -4.31757 -0.145004 0
M  V30 28623 C 2864.53 -5.20015 -1.08432 0
M  V30 28624 C 2863.56 -6.11465 -0.27885 0
M  V30 28625 N 2862.7 -6.92265 -1.17103 0
M  V30 28626 H 2867.54 -2.88104 0.761572 0
M  V30 28627 H 2865.08 -1.4191 0.387295 0
M  V30 28628 H 2867.04 -3.89182 -1.5031 0
M  V30 28629 H 2865.67 -2.76274 -1.66951 0
M  V30 28630 H 2864.72 -3.76655 0.532434 0
M  V30 28631 H 2866.03 -4.96483 0.480237 0
M  V30 28632 H 2865.18 -5.81958 -1.71493 0
M  V30 28633 H 2863.92 -4.55472 -1.74345 0
M  V30 28634 H 2862.93 -5.48587 0.364952 0
M  V30 28635 H 2864.15 -6.78057 0.376218 0
M  V30 28636 H 2862.1 -6.30349 -1.8165 0
M  V30 28637 H 2862.02 -7.53608 -0.60093 0
M  V30 28638 H 2863.28 -7.58693 -1.78901 0
M  V30 28639 N 2867.51 -0.421104 -1.5187 0
M  V30 28640 C 2868.92 0.0457663 -1.86644 0
M  V30 28641 C 2869.28 1.43386 -1.33921 0
M  V30 28642 O 2868.4 2.05327 -0.683352 0
M  V30 28643 C 2869 0.0898249 -3.38681 0
M  V30 28644 C 2867.55 0.501062 -3.7305 0
M  V30 28645 C 2866.7 -0.316772 -2.75485 0
M  V30 28646 H 2869.65 -0.63766 -1.45326 0
M  V30 28647 H 2869.67 0.902669 -3.69638 0
M  V30 28648 H 2869.19 -0.920579 -3.77024 0
M  V30 28649 H 2867.29 1.51767 -3.4029 0
M  V30 28650 H 2867.4 0.237133 -4.78513 0
M  V30 28651 H 2865.76 0.222618 -2.53725 0
M  V30 28652 H 2866.55 -1.32575 -3.16668 0
M  V30 28653 N 2868.99 1.56866 -0.151912 0
M  V30 28654 C 2870.24 1.95894 0.496986 0
M  V30 28655 C 2870.56 1.03802 1.65076 0
M  V30 28656 O 2869.83 0.100525 1.95642 0
M  V30 28657 H 2868.41 0.723321 0.18659 0
M  V30 28658 H 2871.07 1.93555 -0.228559 0
M  V30 28659 H 2870.17 2.99732 0.86988 0
M  V30 28660 N 2870.47 -0.121866 1.57128 0
M  V30 28661 C 2871.7 -0.843193 1.8861 0
M  V30 28662 C 2872.11 -1.74088 0.740948 0
M  V30 28663 O 2871.45 -1.81277 -0.297394 0
M  V30 28664 C 2871.51 -1.73111 3.15076 0
M  V30 28665 C 2871.18 -1.00802 4.45744 0
M  V30 28666 C 2872.17 -0.350163 5.18719 0
M  V30 28667 C 2869.86 -0.990053 4.92446 0
M  V30 28668 C 2871.85 0.316001 6.36616 0
M  V30 28669 C 2869.54 -0.320089 6.10261 0
M  V30 28670 C 2870.54 0.331786 6.82194 0
M  V30 28671 O 2870.23 0.991068 7.97768 0
M  V30 28672 H 2869.96 -0.247854 0.628923 0
M  V30 28673 H 2872.51 -0.111689 2.05096 0
M  V30 28674 H 2870.74 -2.50419 2.94665 0
M  V30 28675 H 2872.43 -2.32661 3.32601 0
M  V30 28676 H 2873.2 -0.355685 4.83694 0
M  V30 28677 H 2869.08 -1.48687 4.36364 0
M  V30 28678 H 2872.62 0.825394 6.927 0
M  V30 28679 H 2868.52 -0.31232 6.44744 0
M  V30 28680 H 2869.29 0.895256 8.13589 0
M  V30 28681 N 2871.95 -1.52648 -0.391965 0
M  V30 28682 C 2872.91 -1.76573 -1.46132 0
M  V30 28683 C 2873.91 -0.635724 -1.477 0
M  V30 28684 O 2875.1 -0.903754 -1.48923 0
M  V30 28685 C 2872.23 -1.86379 -2.85439 0
M  V30 28686 H 2873.43 -2.72053 -1.26203 0
M  V30 28687 H 2870.98 -1.43324 -0.623523 0
M  V30 28688 H 2871.71 -0.92874 -3.10717 0
M  V30 28689 H 2871.5 -2.68544 -2.85703 0
M  V30 28690 H 2872.99 -2.06572 -3.62929 0
M  V30 28691 N 2873.43 0.650235 -1.43561 0
M  V30 28692 C 2874.67 1.40731 -1.45049 0
M  V30 28693 C 2875 1.94848 -0.0770164 0
M  V30 28694 O 2874.27 1.74614 0.888067 0
M  V30 28695 H 2872.85 0.522309 -0.534043 0
M  V30 28696 H 2875.51 0.766671 -1.79188 0
M  V30 28697 H 2874.6 2.24818 -2.1648 0
M  V30 28698 N 2874.9 1.30141 0.88888 0
M  V30 28699 C 2875.87 1.16177 1.97574 0
M  V30 28700 C 2876.87 0.0941142 1.60524 0
M  V30 28701 O 2878.06 0.341919 1.70811 0
M  V30 28702 C 2875.19 0.779041 3.31879 0
M  V30 28703 H 2876.38 2.12731 2.11389 0
M  V30 28704 H 2873.94 1.13482 1.07478 0
M  V30 28705 H 2874.67 -0.186168 3.23765 0
M  V30 28706 H 2874.46 1.55058 3.60138 0
M  V30 28707 H 2875.95 0.704704 4.11611 0
M  V30 28708 N 2876.38 -1.1007 1.12794 0
M  V30 28709 C 2877.61 -1.86425 0.90887 0
M  V30 28710 C 2878.03 -1.80279 -0.536761 0
M  V30 28711 O 2877.39 -1.17546 -1.38031 0
M  V30 28712 C 2877.44 -3.32608 1.393 0
M  V30 28713 O 2876.54 -4.08387 0.573918 0
M  V30 28714 H 2875.88 -0.578326 0.326245 0
M  V30 28715 H 2878.41 -1.3904 1.50097 0
M  V30 28716 H 2878.42 -3.83457 1.39373 0
M  V30 28717 H 2877.1 -3.36397 2.44561 0
M  V30 28718 H 2875.68 -3.67358 0.640503 0
M  V30 28719 N 2877.86 -0.920419 -1.2793 0
M  V30 28720 C 2879.1 -0.564232 -1.96458 0
M  V30 28721 C 2879.46 0.876937 -1.70803 0
M  V30 28722 O 2880.67 1.34103 -2.32959 0
M  V30 28723 C 2878.94 -0.872702 -3.46581 0
M  V30 28724 S 2880.5 -0.623935 -4.34341 0
M  V30 28725 H 2877.31 -0.208535 -0.679731 0
M  V30 28726 H 2879.92 -1.1873 -1.55317 0
M  V30 28727 H 2878.62 -1.9194 -3.6275 0
M  V30 28728 H 2878.15 -0.238548 -3.92676 0
M  V30 28729 H 2880.17 0.521658 -4.9345 0
M  V30 28730 N 2879.34 1.41929 -0.685124 0
M  V30 28731 C 2880.25 2.34596 -0.0134453 0
M  V30 28732 C 2881.26 1.5566 0.777562 0
M  V30 28733 O 2882.44 1.88185 0.71752 0
M  V30 28734 C 2879.51 3.34299 0.918972 0
M  V30 28735 C 2878.57 4.29128 0.121342 0
M  V30 28736 C 2877.8 5.24069 1.00935 0
M  V30 28737 O 2878.02 5.24196 2.24889 0
M  V30 28738 O 2876.96 6.00104 0.464618 0
M  V30 28739 H 2880.78 2.93591 -0.777029 0
M  V30 28740 H 2878.37 1.42606 -0.445404 0
M  V30 28741 H 2880.25 3.95523 1.45395 0
M  V30 28742 H 2878.92 2.77762 1.66223 0
M  V30 28743 H 2877.83 3.71286 -0.457986 0
M  V30 28744 H 2879.16 4.88735 -0.583023 0
M  V30 28745 N 2880.82 0.429152 1.51644 0
M  V30 28746 C 2882.23 0.081022 1.59394 0
M  V30 28747 C 2882.43 -1.40879 1.44067 0
M  V30 28748 O 2881.49 -2.17784 1.27774 0
M  V30 28749 C 2882.8 0.593825 2.94778 0
M  V30 28750 C 2884.35 0.553548 3.08066 0
M  V30 28751 C 2884.82 1.04319 4.45961 0
M  V30 28752 N 2886.32 1.00084 4.52258 0
M  V30 28753 C 2887.05 1.35066 5.57265 0
M  V30 28754 N 2886.55 1.77293 6.6973 0
M  V30 28755 N 2888.34 1.26935 5.4758 0
M  V30 28756 H 2880.49 1.3986 1.59853 0
M  V30 28757 H 2882.75 0.575818 0.753085 0
M  V30 28758 H 2882.46 1.63588 3.11339 0
M  V30 28759 H 2882.33 0.0142865 3.77197 0
M  V30 28760 H 2884.72 -0.479505 2.91178 0
M  V30 28761 H 2884.8 1.16939 2.27506 0
M  V30 28762 H 2884.45 2.07467 4.63595 0
M  V30 28763 H 2884.38 0.403966 5.25048 0
M  V30 28764 H 2886.87 0.69063 3.71536 0
M  V30 28765 H 2887.18 2.02245 7.45866 0
M  V30 28766 H 2885.52 1.81214 6.7096 0
M  V30 28767 H 2888.72 0.93817 4.58602 0
M  V30 28768 H 2888.89 1.54527 6.29306 0
M  V30 28769 N 2882.29 -1.56783 0.160229 0
M  V30 28770 C 2883.53 -1.98436 -0.490144 0
M  V30 28771 C 2883.9 -1.04358 -1.61162 0
M  V30 28772 O 2885.1 -1.35107 -2.32378 0
M  V30 28773 C 2883.37 -3.43956 -0.971046 0
M  V30 28774 S 2884.93 -4.07635 -1.62416 0
M  V30 28775 H 2881.75 -0.693212 -0.158044 0
M  V30 28776 H 2884.35 -1.93829 0.25507 0
M  V30 28777 H 2883.05 -4.10146 -0.144251 0
M  V30 28778 H 2882.58 -3.52305 -1.75057 0
M  V30 28779 H 2884.6 -4.01773 -2.91192 0
M  V30 28780 N 2883.77 0.113531 -1.57191 0
M  V30 28781 C 2884.74 1.1231 -1.99798 0
M  V30 28782 C 2885.74 1.33999 -0.88887 0
M  V30 28783 O 2886.93 1.30424 -1.15479 0
M  V30 28784 C 2884.06 2.47637 -2.34284 0
M  V30 28785 H 2885.25 0.756774 -2.90195 0
M  V30 28786 H 2882.8 0.358002 -1.52145 0
M  V30 28787 H 2883.54 2.8918 -1.46783 0
M  V30 28788 H 2883.32 2.33247 -3.1518 0
M  V30 28789 H 2884.81 3.20285 -2.67969 0
M  V30 28790 N 2885.25 1.52854 0.383864 0
M  V30 28791 C 2886.66 1.60034 0.961562 0
M  V30 28792 C 2887.01 0.456366 1.90819 0
M  V30 28793 O 2886.14 -0.419836 2.12288 0
M  V30 28794 C 2886.73 2.9006 1.75073 0
M  V30 28795 C 2885.29 2.99636 2.27805 0
M  V30 28796 C 2884.44 2.55189 1.08507 0
M  V30 28797 H 2887.39 1.57858 0.163241 0
M  V30 28798 H 2887.41 2.76835 2.61041 0
M  V30 28799 H 2886.92 3.73301 1.0615 0
M  V30 28800 H 2885.02 2.20944 3.00024 0
M  V30 28801 H 2885.14 4.04374 2.5694 0
M  V30 28802 H 2883.5 2.0963 1.44663 0
M  V30 28803 H 2884.28 3.40829 0.41112 0
M  V30 28804 N 2886.73 -0.642612 1.43904 0
M  V30 28805 C 2887.98 -1.3996 1.45793 0
M  V30 28806 C 2888.3 -1.94804 0.0873486 0
M  V30 28807 O 2887.57 -1.75083 -0.878794 0
M  V30 28808 H 2886.15 -0.51947 0.536806 0
M  V30 28809 H 2888.81 -0.757158 1.79592 0
M  V30 28810 H 2887.91 -2.23666 2.17669 0
M  V30 28811 N 2888.21 -1.30611 -0.881966 0
M  V30 28812 C 2889.45 -1.19607 -1.63403 0
M  V30 28813 C 2889.78 0.24854 -1.92905 0
M  V30 28814 O 2889.04 1.19388 -1.55064 0
M  V30 28815 C 2889.34 -1.97316 -2.97995 0
M  V30 28816 C 2889 -3.46912 -2.88033 0
M  V30 28817 C 2887.66 -3.87705 -2.85023 0
M  V30 28818 C 2890.02 -4.42161 -2.7594 0
M  V30 28819 C 2887.34 -5.22035 -2.67762 0
M  V30 28820 C 2889.7 -5.76602 -2.60218 0
M  V30 28821 C 2888.36 -6.1663 -2.55584 0
M  V30 28822 H 2887.63 -0.437672 -0.597933 0
M  V30 28823 H 2890.28 -1.61746 -1.02521 0
M  V30 28824 H 2888.58 -1.47821 -3.62845 0
M  V30 28825 H 2890.28 -1.86192 -3.55153 0
M  V30 28826 H 2886.87 -3.14497 -2.91187 0
M  V30 28827 H 2891.05 -4.11585 -2.77329 0
M  V30 28828 H 2886.31 -5.52137 -2.62592 0
M  V30 28829 H 2890.48 -6.50043 -2.49835 0
M  V30 28830 H 2888.11 -7.20663 -2.41968 0
M  V30 28831 N 2889.69 1.0947 -1.13376 0
M  V30 28832 C 2890.93 1.81637 -0.895222 0
M  V30 28833 C 2891.26 1.85693 0.578647 0
M  V30 28834 O 2890.52 1.32062 1.44423 0
M  V30 28835 C 2890.81 3.27648 -1.42765 0
M  V30 28836 C 2890.48 3.43725 -2.91828 0
M  V30 28837 C 2889.14 3.47821 -3.32527 0
M  V30 28838 C 2891.49 3.483 -3.87733 0
M  V30 28839 C 2888.82 3.54069 -4.67816 0
M  V30 28840 C 2891.17 3.56082 -5.22865 0
M  V30 28841 C 2889.84 3.58446 -5.63092 0
M  V30 28842 H 2889.11 0.664657 -0.327585 0
M  V30 28843 H 2891.76 1.28967 -1.41562 0
M  V30 28844 H 2890.06 3.82952 -0.827938 0
M  V30 28845 H 2891.76 3.82017 -1.21917 0
M  V30 28846 H 2888.35 3.41222 -2.59356 0
M  V30 28847 H 2892.53 3.44377 -3.57377 0
M  V30 28848 H 2887.79 3.54186 -4.98359 0
M  V30 28849 H 2891.96 3.58567 -5.96995 0
M  V30 28850 H 2889.59 3.6304 -6.67911 0
M  V30 28851 N 2891.16 0.92719 1.2744 0
M  V30 28852 C 2892.41 0.566237 1.94006 0
M  V30 28853 C 2892.73 -0.895314 1.73231 0
M  V30 28854 O 2892 -1.63457 1.07976 0
M  V30 28855 H 2890.58 0.206422 0.717913 0
M  V30 28856 H 2893.24 1.17947 1.55159 0
M  V30 28857 H 2892.34 0.772082 3.02399 0
M  V30 28858 N 2892.64 -1.41564 0.692641 0
M  V30 28859 C 2893.59 -2.32596 0.0140361 0
M  V30 28860 C 2894.58 -1.50803 -0.771665 0
M  V30 28861 O 2895.79 -1.66758 -0.677617 0
M  V30 28862 H 2892.16 -0.751865 -0.0142612 0
M  V30 28863 H 2894.14 -2.87507 0.798901 0
M  V30 28864 C 2892.88 -3.35566 -0.910543 0
M  V30 28865 H 2892.21 -3.98554 -0.315376 0
M  V30 28866 H 2893.65 -4.01809 -1.35373 0
M  V30 28867 C 2892.11 -2.69224 -2.02534 0
M  V30 28868 O 2892.64 -2.53781 -3.11381 0
M  V30 28869 N 2890.84 -2.27965 -1.80223 0
M  V30 28870 H 2890.39 -2.40725 -0.917012 0
M  V30 28871 H 2890.35 -1.83911 -2.54998 0
M  V30 28872 N 2894.12 -0.437188 -1.51415 0
M  V30 28873 C 2895.53 0.0259677 -1.86682 0
M  V30 28874 C 2895.88 1.41957 -1.35435 0
M  V30 28875 O 2895.01 2.04591 -0.705091 0
M  V30 28876 C 2895.6 0.0538982 -3.38757 0
M  V30 28877 C 2894.16 0.461466 -3.73561 0
M  V30 28878 C 2893.31 -0.345973 -2.75133 0
M  V30 28879 H 2896.26 -0.653038 -1.44641 0
M  V30 28880 H 2896.28 0.863413 -3.70574 0
M  V30 28881 H 2895.79 -0.960516 -3.76026 0
M  V30 28882 H 2893.89 1.48149 -3.41881 0
M  V30 28883 H 2894.01 0.186367 -4.78737 0
M  V30 28884 H 2892.37 0.195695 -2.53947 0
M  V30 28885 H 2893.15 -1.35926 -3.15244 0
M  V30 28886 N 2895.6 1.56696 -0.168541 0
M  V30 28887 C 2896.53 2.20836 0.758524 0
M  V30 28888 C 2897.51 1.16313 1.24118 0
M  V30 28889 O 2898.69 1.44732 1.29485 0
M  V30 28890 C 2895.82 2.84693 1.98915 0
M  V30 28891 C 2894.78 3.95231 1.64245 0
M  V30 28892 C 2894.1 4.46124 2.94749 0
M  V30 28893 C 2895.4 5.14959 0.872585 0
M  V30 28894 H 2897.1 2.98562 0.2239 0
M  V30 28895 H 2894.64 1.43607 0.106252 0
M  V30 28896 H 2896.6 3.28237 2.64269 0
M  V30 28897 H 2895.32 2.04332 2.54786 0
M  V30 28898 H 2893.98 3.52338 1.0126 0
M  V30 28899 H 2893.63 3.62558 3.48655 0
M  V30 28900 H 2893.33 5.20695 2.72307 0
M  V30 28901 H 2894.85 4.92353 3.61138 0
M  V30 28902 H 2896.27 5.55214 1.42866 0
M  V30 28903 H 2894.66 5.95429 0.747297 0
M  V30 28904 H 2895.73 4.84721 -0.13162 0
M  V30 28905 N 2897.08 -0.105193 1.57249 0
M  V30 28906 C 2898.32 -0.81172 1.85847 0
M  V30 28907 C 2898.65 -1.7887 0.75625 0
M  V30 28908 O 2897.93 -1.93054 -0.236702 0
M  V30 28909 C 2898.21 -1.54942 3.25062 0
M  V30 28910 C 2898.07 -0.591106 4.45899 0
M  V30 28911 C 2899.38 -2.50239 3.62034 0
M  V30 28912 H 2896.5 -0.293638 0.675978 0
M  V30 28913 H 2899.15 -0.0755935 1.8985 0
M  V30 28914 H 2897.3 -2.17692 3.2178 0
M  V30 28915 H 2898.97 0.0286162 4.61291 0
M  V30 28916 H 2897.21 0.0963106 4.33693 0
M  V30 28917 H 2897.88 -1.1442 5.40011 0
M  V30 28918 H 2900.36 -1.97586 3.66195 0
M  V30 28919 H 2899.23 -2.98878 4.60395 0
M  V30 28920 H 2899.49 -3.33537 2.90182 0
M  V30 28921 N 2898.55 -1.53055 -0.375752 0
M  V30 28922 C 2899.48 -1.81748 -1.46594 0
M  V30 28923 C 2900.47 -0.670314 -1.56336 0
M  V30 28924 O 2901.65 -0.919188 -1.71069 0
M  V30 28925 C 2898.78 -1.99826 -2.84054 0
M  V30 28926 C 2897.73 -3.15562 -2.89145 0
M  V30 28927 C 2897.06 -3.18915 -4.29182 0
M  V30 28928 C 2898.36 -4.54363 -2.57587 0
M  V30 28929 H 2900.05 -2.73043 -1.22832 0
M  V30 28930 H 2897.6 -1.31382 -0.589462 0
M  V30 28931 H 2899.55 -2.18482 -3.60338 0
M  V30 28932 H 2898.28 -1.05232 -3.09183 0
M  V30 28933 H 2896.94 -2.9671 -2.15311 0
M  V30 28934 H 2896.58 -2.21978 -4.5137 0
M  V30 28935 H 2896.28 -3.9667 -4.33505 0
M  V30 28936 H 2897.81 -3.39742 -5.07353 0
M  V30 28937 H 2899.22 -4.73249 -3.23587 0
M  V30 28938 H 2897.62 -5.34283 -2.73242 0
M  V30 28939 H 2898.69 -4.60171 -1.52874 0
M  V30 28940 N 2900.03 0.634971 -1.44242 0
M  V30 28941 C 2901.28 1.39185 -1.46533 0
M  V30 28942 C 2901.6 1.94755 -0.0976783 0
M  V30 28943 O 2900.87 1.75546 0.869497 0
M  V30 28944 H 2899.45 0.516615 -0.539553 0
M  V30 28945 H 2902.11 0.747623 -1.79991 0
M  V30 28946 H 2901.21 2.22509 -2.18852 0
M  V30 28947 N 2901.51 1.31076 0.875027 0
M  V30 28948 C 2902.74 1.23553 1.66581 0
M  V30 28949 C 2903.16 -0.196827 1.87067 0
M  V30 28950 O 2902.52 -1.14117 1.40879 0
M  V30 28951 C 2902.57 1.9797 3.01397 0
M  V30 28952 O 2901.67 1.31358 3.9092 0
M  V30 28953 H 2901.01 0.42683 0.508638 0
M  V30 28954 H 2903.54 1.73062 1.09136 0
M  V30 28955 H 2903.55 2.07372 3.5137 0
M  V30 28956 H 2902.23 3.02138 2.85806 0
M  V30 28957 H 2900.8 1.30374 3.49366 0
M  V30 28958 N 2902.99 -1.08867 1.13955 0
M  V30 28959 C 2904.21 -1.85451 0.928592 0
M  V30 28960 C 2904.64 -1.80838 -0.51761 0
M  V30 28961 O 2904 -1.19003 -1.36777 0
M  V30 28962 C 2904.04 -3.31111 1.4282 0
M  V30 28963 O 2903.15 -4.07755 0.617201 0
M  V30 28964 H 2902.49 -0.574833 0.33236 0
M  V30 28965 H 2905.02 -1.3744 1.51563 0
M  V30 28966 H 2905.03 -3.81957 1.43432 0
M  V30 28967 H 2903.7 -3.33784 2.48115 0
M  V30 28968 H 2902.28 -3.66658 0.67943 0
M  V30 28969 N 2904.47 -0.933936 -1.26946 0
M  V30 28970 C 2905.71 -0.585037 -1.95849 0
M  V30 28971 C 2906.07 0.858772 -1.71724 0
M  V30 28972 O 2907.27 1.31625 -2.34368 0
M  V30 28973 C 2905.54 -0.909413 -3.45636 0
M  V30 28974 S 2907.1 -0.669968 -4.33655 0
M  V30 28975 H 2903.92 -0.215733 -0.677481 0
M  V30 28976 H 2906.52 -1.2037 -1.54049 0
M  V30 28977 H 2905.23 -1.95776 -3.60693 0
M  V30 28978 H 2904.76 -0.280184 -3.92401 0
M  V30 28979 H 2906.77 0.469291 -4.93976 0
M  V30 28980 N 2905.94 1.41194 -0.700139 0
M  V30 28981 C 2906.88 2.292 0.00151795 0
M  V30 28982 C 2907.89 1.45025 0.739711 0
M  V30 28983 O 2909.08 1.68479 0.589654 0
M  V30 28984 C 2906.18 3.22987 1.0263 0
M  V30 28985 C 2905.35 4.35942 0.356794 0
M  V30 28986 C 2904.41 5.10273 1.28482 0
M  V30 28987 O 2903.44 5.63893 0.775463 0
M  V30 28988 N 2904.64 5.18169 2.6169 0
M  V30 28989 H 2907.4 2.90059 -0.754059 0
M  V30 28990 H 2904.96 1.52396 -0.546531 0
M  V30 28991 H 2906.96 3.69583 1.64896 0
M  V30 28992 H 2905.53 2.63404 1.68337 0
M  V30 28993 H 2904.75 3.91671 -0.445821 0
M  V30 28994 H 2906.03 5.08684 -0.108558 0
M  V30 28995 H 2905.43 4.76061 3.05585 0
M  V30 28996 H 2903.99 5.68325 3.19139 0
M  V30 28997 N 2907.42 0.445212 1.51181 0
M  V30 28998 C 2908.83 -0.0160671 1.86693 0
M  V30 28999 C 2909.18 -1.41237 1.36185 0
M  V30 29000 O 2908.31 -2.04214 0.715931 0
M  V30 29001 C 2908.9 -0.0359323 3.38781 0
M  V30 29002 C 2907.46 -0.441649 3.738 0
M  V30 29003 C 2906.61 0.360559 2.74946 0
M  V30 29004 H 2909.56 0.6607 1.44293 0
M  V30 29005 H 2909.58 -0.843748 3.71027 0
M  V30 29006 H 2909.09 0.980444 3.75512 0
M  V30 29007 H 2907.2 -1.46334 3.42662 0
M  V30 29008 H 2907.31 -0.160976 4.78829 0
M  V30 29009 H 2905.67 -0.182225 2.54047 0
M  V30 29010 H 2906.46 1.37596 3.14519 0
M  V30 29011 N 2908.9 -1.56605 0.176849 0
M  V30 29012 C 2910.14 -1.98945 -0.46907 0
M  V30 29013 C 2910.5 -1.06062 -1.60047 0
M  V30 29014 O 2911.71 -1.37564 -2.30932 0
M  V30 29015 C 2909.98 -3.44966 -0.93451 0
M  V30 29016 S 2911.54 -4.09335 -1.58083 0
M  V30 29017 H 2908.35 -0.694849 -0.150682 0
M  V30 29018 H 2910.96 -1.93547 0.275614 0
M  V30 29019 H 2909.66 -4.10276 -0.100742 0
M  V30 29020 H 2909.19 -3.54142 -1.7131 0
M  V30 29021 H 2911.21 -4.04839 -2.86915 0
M  V30 29022 N 2910.38 0.0968524 -1.57302 0
M  V30 29023 C 2911.66 0.832241 -1.77012 0
M  V30 29024 C 2912.04 1.97019 -0.758059 0
M  V30 29025 O 2911.38 2.27498 0.213784 0
M  V30 29026 C 2911.59 1.32845 -3.22728 0
M  V30 29027 C 2912.94 1.77194 -3.85859 0
M  V30 29028 O 2913.97 1.42472 -3.26466 0
M  V30 29029 O 2912.82 2.41389 -4.90299 0
M  V30 29030 H 2909.92 0.396843 -0.725565 0
M  V30 29031 H 2912.46 0.0788707 -1.69517 0
M  V30 29032 H 2911.24 0.513052 -3.87922 0
M  V30 29033 H 2910.86 2.14388 -3.34849 0
M  V30 29034 N 2911.86 1.53252 0.36763 0
M  V30 29035 C 2913.1 1.71036 1.1192 0
M  V30 29036 C 2913.46 0.451463 1.86617 0
M  V30 29037 O 2914.66 0.505962 2.63995 0
M  V30 29038 C 2912.93 2.92442 2.05456 0
M  V30 29039 S 2914.49 3.30921 2.88161 0
M  V30 29040 H 2911.31 0.601855 0.378539 0
M  V30 29041 H 2913.91 1.91349 0.400724 0
M  V30 29042 H 2912.62 3.82264 1.49339 0
M  V30 29043 H 2912.15 2.74525 2.81779 0
M  V30 29044 H 2914.16 2.82774 4.07742 0
M  V30 29045 N 2913.34 -0.627313 1.44577 0
M  V30 29046 C 2914.56 -1.41884 1.51273 0
M  V30 29047 C 2914.99 -1.87579 0.139847 0
M  V30 29048 O 2914.34 -1.58968 -0.871718 0
M  V30 29049 C 2914.39 -2.61273 2.48534 0
M  V30 29050 O 2913.5 -3.61238 1.9895 0
M  V30 29051 H 2912.84 -0.42439 0.510676 0
M  V30 29052 H 2915.37 -0.765322 1.89747 0
M  V30 29053 H 2915.38 -3.08768 2.66695 0
M  V30 29054 H 2914.05 -2.2736 3.48253 0
M  V30 29055 H 2912.63 -3.20525 1.90574 0
M  V30 29056 N 2914.81 -1.31539 -0.868063 0
M  V30 29057 C 2916.06 -1.21094 -1.61805 0
M  V30 29058 C 2916.38 0.230589 -1.93632 0
M  V30 29059 O 2915.65 1.1518 -1.58462 0
M  V30 29060 H 2914.23 -0.445189 -0.599846 0
M  V30 29061 H 2916.89 -1.64889 -1.03912 0
M  V30 29062 H 2915.99 -1.78401 -2.56085 0
M  V30 29063 N 2916.29 1.08262 -1.1453 0
M  V30 29064 C 2917.24 2.17316 -0.829239 0
M  V30 29065 C 2918.23 1.68291 0.193492 0
M  V30 29066 O 2919.44 1.79932 0.0494428 0
M  V30 29067 H 2915.81 0.70907 -0.250448 0
M  V30 29068 H 2917.79 2.41198 -1.75687 0
M  V30 29069 C 2916.53 3.4618 -0.324724 0
M  V30 29070 H 2915.86 3.84282 -1.10306 0
M  V30 29071 H 2917.3 4.23762 -0.142134 0
M  V30 29072 C 2915.76 3.2317 0.951976 0
M  V30 29073 O 2916.29 3.469 2.02543 0
M  V30 29074 N 2914.49 2.76706 0.887806 0
M  V30 29075 H 2914.04 2.57596 0.0140949 0
M  V30 29076 H 2914 2.61689 1.74259 0
M  V30 29077 N 2917.77 0.940655 1.26449 0
M  V30 29078 C 2919.02 0.586782 1.93394 0
M  V30 29079 C 2919.34 -0.87689 1.74171 0
M  V30 29080 O 2918.61 -1.62302 1.09703 0
M  V30 29081 H 2917.19 0.214025 0.715683 0
M  V30 29082 H 2919.85 1.19586 1.539 0
M  V30 29083 H 2918.95 0.804112 3.01563 0
M  V30 29084 N 2919.25 -1.40821 0.707617 0
M  V30 29085 C 2920.52 -1.94849 0.171206 0
M  V30 29086 C 2920.9 -1.64628 -1.3214 0
M  V30 29087 O 2920.25 -0.959683 -2.0737 0
M  V30 29088 C 2920.46 -3.45747 0.475394 0
M  V30 29089 C 2921.81 -4.22619 0.409699 0
M  V30 29090 O 2922.83 -3.53821 0.410996 0
M  V30 29091 O 2921.69 -5.45175 0.38028 0
M  V30 29092 H 2918.79 -0.826707 0.0220295 0
M  V30 29093 H 2921.33 -1.50473 0.784604 0
M  V30 29094 H 2920.11 -3.61072 1.50807 0
M  V30 29095 H 2919.73 -3.97243 -0.168369 0
M  V30 29096 N 2920.73 -0.453223 -1.50943 0
M  V30 29097 C 2922.14 0.0061661 -1.86699 0
M  V30 29098 C 2922.49 1.40513 -1.36933 0
M  V30 29099 O 2921.61 2.03832 -0.726751 0
M  V30 29100 C 2922.21 0.0179654 -3.38795 0
M  V30 29101 C 2920.77 0.421819 -3.74029 0
M  V30 29102 C 2919.91 -0.375135 -2.74751 0
M  V30 29103 H 2922.86 -0.668343 -1.43941 0
M  V30 29104 H 2922.89 0.82406 -3.71469 0
M  V30 29105 H 2922.4 -1.00034 -3.74986 0
M  V30 29106 H 2920.5 1.44515 -3.43433 0
M  V30 29107 H 2920.61 0.13558 -4.78908 0
M  V30 29108 H 2918.98 0.168749 -2.5414 0
M  V30 29109 H 2919.76 -1.39262 -3.13785 0
M  V30 29110 N 2922.2 1.56509 -0.185151 0
M  V30 29111 C 2923.15 2.19955 0.756466 0
M  V30 29112 C 2924.15 1.16771 1.22723 0
M  V30 29113 O 2925.35 1.34939 1.19128 0
M  V30 29114 H 2921.73 0.704784 0.262267 0
M  V30 29115 H 2923.7 2.97745 0.197535 0
M  V30 29116 C 2922.45 2.86527 1.9697 0
M  V30 29117 H 2921.77 3.65662 1.61651 0
M  V30 29118 H 2923.21 3.34372 2.60713 0
M  V30 29119 C 2921.67 1.87032 2.80215 0
M  V30 29120 O 2922.2 1.36439 3.77819 0
M  V30 29121 N 2920.4 1.55481 2.45507 0
M  V30 29122 H 2919.95 1.96816 1.66196 0
M  V30 29123 H 2919.91 0.89165 3.01491 0
M  V30 29124 N 2923.68 -0.0885089 1.57351 0
M  V30 29125 C 2924.61 -1.10753 2.05562 0
M  V30 29126 C 2925.59 -1.4138 0.945814 0
M  V30 29127 O 2926.78 -1.51296 1.2175 0
M  V30 29128 C 2923.91 -2.42562 2.48558 0
M  V30 29129 C 2922.86 -2.26328 3.63263 0
M  V30 29130 C 2922.19 -3.63371 3.92257 0
M  V30 29131 C 2923.49 -1.69836 4.93916 0
M  V30 29132 H 2925.18 -0.706417 2.90947 0
M  V30 29133 H 2922.73 -0.33836 1.39968 0
M  V30 29134 H 2924.68 -3.14127 2.80895 0
M  V30 29135 H 2923.4 -2.84622 1.60181 0
M  V30 29136 H 2922.06 -1.57207 3.31182 0
M  V30 29137 H 2921.71 -4.02971 3.01037 0
M  V30 29138 H 2921.41 -3.53353 4.69484 0
M  V30 29139 H 2922.94 -4.36394 4.27075 0
M  V30 29140 H 2924.35 -2.31248 5.24592 0
M  V30 29141 H 2922.75 -1.70559 5.75352 0
M  V30 29142 H 2923.82 -0.658346 4.8041 0
M  V30 29143 N 2925.16 -1.53445 -0.359498 0
M  V30 29144 C 2926.09 -1.83293 -1.44658 0
M  V30 29145 C 2927.07 -0.686857 -1.55616 0
M  V30 29146 O 2928.26 -0.93728 -1.70084 0
M  V30 29147 C 2925.39 -2.02827 -2.81919 0
M  V30 29148 C 2924.34 -3.18611 -2.85782 0
M  V30 29149 C 2923.67 -3.2345 -4.25775 0
M  V30 29150 C 2924.97 -4.5707 -2.52754 0
M  V30 29151 H 2926.66 -2.74331 -1.19929 0
M  V30 29152 H 2924.21 -1.32 -0.575494 0
M  V30 29153 H 2926.16 -2.22291 -3.58001 0
M  V30 29154 H 2924.88 -1.08505 -3.08049 0
M  V30 29155 H 2923.54 -2.98977 -2.12151 0
M  V30 29156 H 2923.19 -2.26753 -4.4899 0
M  V30 29157 H 2922.89 -4.01245 -4.29274 0
M  V30 29158 H 2924.41 -3.45105 -5.03721 0
M  V30 29159 H 2925.83 -4.76654 -3.18549 0
M  V30 29160 H 2924.22 -5.37151 -2.6756 0
M  V30 29161 H 2925.29 -4.61767 -1.47985 0
M  V30 29162 N 2926.64 0.619637 -1.44908 0
M  V30 29163 C 2927.88 1.37895 -1.48294 0
M  V30 29164 C 2928.21 1.9413 -0.119967 0
M  V30 29165 O 2927.47 1.74808 0.879804 0
M  V30 29166 C 2927.77 2.55404 -2.50007 0
M  V30 29167 C 2927.43 2.1739 -3.95035 0
M  V30 29168 C 2926.09 2.06736 -4.34527 0
M  V30 29169 C 2928.45 1.87539 -4.8629 0
M  V30 29170 C 2925.77 1.64436 -5.63185 0
M  V30 29171 C 2928.13 1.46729 -6.15348 0
M  V30 29172 C 2926.79 1.34624 -6.53783 0
M  V30 29173 H 2926.06 0.504594 -0.542647 0
M  V30 29174 H 2928.71 0.70155 -1.78187 0
M  V30 29175 H 2927.01 3.28429 -2.13639 0
M  V30 29176 H 2928.71 3.13634 -2.49869 0
M  V30 29177 H 2925.3 2.26604 -3.63797 0
M  V30 29178 H 2929.48 1.94674 -4.56526 0
M  V30 29179 H 2924.74 1.53677 -5.91771 0
M  V30 29180 H 2928.91 1.22673 -6.8551 0
M  V30 29181 H 2926.54 1.01621 -7.53377 0
M  V30 29182 N 2928.12 1.31997 0.861075 0
M  V30 29183 C 2929.34 1.25313 1.65261 0
M  V30 29184 C 2929.77 -0.176975 1.87266 0
M  V30 29185 O 2929.12 -1.12617 1.42082 0
M  V30 29186 C 2929.17 2.01155 2.99281 0
M  V30 29187 O 2928.28 1.35497 3.89505 0
M  V30 29188 H 2927.62 0.432201 0.504082 0
M  V30 29189 H 2930.15 1.7421 1.07294 0
M  V30 29190 H 2930.16 2.11087 3.49151 0
M  V30 29191 H 2928.83 3.05153 2.82586 0
M  V30 29192 H 2927.41 1.34073 3.47964 0
M  V30 29193 N 2929.59 -1.07653 1.15103 0
M  V30 29194 C 2930.87 -1.769 0.834609 0
M  V30 29195 C 2931.25 -2.00172 -0.670396 0
M  V30 29196 O 2930.6 -1.61772 -1.61375 0
M  V30 29197 C 2930.81 -3.07962 1.64197 0
M  V30 29198 C 2932.16 -3.82361 1.84622 0
M  V30 29199 O 2933.18 -3.17765 1.60947 0
M  V30 29200 O 2932.04 -4.9837 2.24253 0
M  V30 29201 H 2929.13 -0.768057 0.306622 0
M  V30 29202 H 2931.68 -1.14046 1.25665 0
M  V30 29203 H 2930.45 -2.86621 2.66391 0
M  V30 29204 H 2930.08 -3.78547 1.21606 0
M  V30 29205 N 2931.07 -0.947348 -1.25949 0
M  V30 29206 C 2932.31 -0.605777 -1.95217 0
M  V30 29207 C 2932.68 0.84051 -1.72625 0
M  V30 29208 O 2933.88 1.29132 -2.35751 0
M  V30 29209 C 2932.15 -0.946021 -3.44652 0
M  V30 29210 S 2933.71 -0.715925 -4.3292 0
M  V30 29211 H 2930.53 -0.222906 -0.675155 0
M  V30 29212 H 2933.13 -1.21998 -1.52764 0
M  V30 29213 H 2931.83 -1.99591 -3.58597 0
M  V30 29214 H 2931.36 -0.321787 -3.92082 0
M  V30 29215 H 2933.38 0.416872 -4.94446 0
M  V30 29216 N 2932.55 1.40444 -0.715075 0
M  V30 29217 C 2933.83 1.94756 -0.181537 0
M  V30 29218 C 2934.21 1.65326 1.31265 0
M  V30 29219 O 2933.56 0.970667 2.06858 0
M  V30 29220 C 2933.77 3.4549 -0.493724 0
M  V30 29221 C 2935.11 4.22396 -0.432106 0
M  V30 29222 O 2936.14 3.53598 -0.429754 0
M  V30 29223 O 2935 5.44966 -0.409187 0
M  V30 29224 H 2932.09 0.826578 -0.0264134 0
M  V30 29225 H 2934.64 1.50055 -0.792573 0
M  V30 29226 H 2933.41 3.60267 -1.5272 0
M  V30 29227 H 2933.03 3.97327 0.1473 0
M  V30 29228 N 2934.03 0.461222 1.507 0
M  V30 29229 C 2935.44 0.00373509 1.867 0
M  V30 29230 C 2935.79 -1.39785 1.37676 0
M  V30 29231 O 2934.92 -2.03443 0.737551 0
M  V30 29232 C 2935.51 1.97394e-06 3.388 0
M  V30 29233 C 2934.07 -0.401978 3.74247 0
M  V30 29234 C 2933.22 0.3897 2.74548 0
M  V30 29235 H 2936.17 0.675967 1.43584 0
M  V30 29236 H 2936.19 -0.804348 3.71901 0
M  V30 29237 H 2935.7 1.02022 3.74451 0
M  V30 29238 H 2933.8 -1.42691 3.44195 0
M  V30 29239 H 2933.91 -0.11018 4.78973 0
M  V30 29240 H 2932.28 -0.155269 2.54226 0
M  V30 29241 H 2933.06 1.40924 3.13042 0
M  V30 29242 N 2935.51 -1.56408 0.193449 0
M  V30 29243 C 2936.44 -2.22015 -0.723295 0
M  V30 29244 C 2937.42 -1.18272 -1.22252 0
M  V30 29245 O 2938.6 -1.46774 -1.27166 0
M  V30 29246 C 2935.73 -2.87822 -1.94361 0
M  V30 29247 C 2934.69 -3.97794 -1.57936 0
M  V30 29248 C 2934.01 -4.50757 -2.87615 0
M  V30 29249 C 2935.31 -5.16282 -0.790549 0
M  V30 29250 H 2937.01 -2.9888 -0.176373 0
M  V30 29251 H 2934.55 -1.43758 -0.0833914 0
M  V30 29252 H 2936.51 -3.324 -2.59014 0
M  V30 29253 H 2935.23 -2.08359 -2.51503 0
M  V30 29254 H 2933.89 -3.53904 -0.956419 0
M  V30 29255 H 2933.54 -3.68059 -3.42843 0
M  V30 29256 H 2933.24 -5.24961 -2.63988 0
M  V30 29257 H 2934.76 -4.98036 -3.53259 0
M  V30 29258 H 2936.17 -5.57416 -1.34015 0
M  V30 29259 H 2934.57 -5.96542 -0.652475 0
M  V30 29260 H 2935.64 -4.84451 0.208718 0
M  V30 29261 N 2936.98 0.0801629 -1.57396 0
M  V30 29262 C 2938.21 0.794042 -1.91057 0
M  V30 29263 C 2938.63 1.71541 -0.788613 0
M  V30 29264 O 2937.98 1.80934 0.238555 0
M  V30 29265 C 2938.04 1.59478 -3.24421 0
M  V30 29266 O 2937.76 0.710456 -4.32301 0
M  V30 29267 C 2939.26 2.4104 -3.72041 0
M  V30 29268 H 2936.48 0.226227 -0.631714 0
M  V30 29269 H 2939.02 0.0529325 -2.04431 0
M  V30 29270 H 2937.18 2.28825 -3.12599 0
M  V30 29271 H 2937.59 1.26654 -5.08978 0
M  V30 29272 H 2939.06 2.92694 -4.68011 0
M  V30 29273 H 2939.54 3.20185 -3.0063 0
M  V30 29274 H 2940.15 1.76865 -3.8678 0
M  V30 29275 N 2938.46 1.53634 0.351355 0
M  V30 29276 C 2939.71 1.70167 1.09031 0
M  V30 29277 C 2940.03 0.463456 1.89412 0
M  V30 29278 O 2939.3 -0.522591 1.88801 0
M  V30 29279 H 2937.88 0.627351 0.405511 0
M  V30 29280 H 2940.54 1.90865 0.39452 0
M  V30 29281 H 2939.64 2.5691 1.7721 0
M  V30 29282 N 2939.94 -0.611943 1.45234 0
M  V30 29283 C 2940.9 -1.70485 1.53192 0
M  V30 29284 C 2941.9 -1.55436 0.411866 0
M  V30 29285 O 2943.09 -1.60583 0.675192 0
M  V30 29286 C 2940.23 -3.09721 1.42428 0
M  V30 29287 H 2941.42 -1.64797 2.50563 0
M  V30 29288 H 2938.97 -0.827294 1.3261 0
M  V30 29289 H 2939.71 -3.20989 0.462241 0
M  V30 29290 H 2939.49 -3.22051 2.23663 0
M  V30 29291 H 2940.98 -3.89337 1.51019 0
M  V30 29292 N 2941.42 -1.32452 -0.854063 0
M  V30 29293 C 2942.66 -1.24363 -1.62214 0
M  V30 29294 C 2943.02 0.19153 -1.91042 0
M  V30 29295 O 2944.22 0.396164 -2.65865 0
M  V30 29296 C 2942.49 -2.07976 -2.90656 0
M  V30 29297 S 2944.05 -2.16918 -3.81434 0
M  V30 29298 H 2940.87 -0.442678 -0.556378 0
M  V30 29299 H 2943.47 -1.67307 -1.01136 0
M  V30 29300 H 2942.18 -3.11307 -2.67425 0
M  V30 29301 H 2941.71 -1.65811 -3.5675 0
M  V30 29302 H 2943.72 -1.31911 -4.78345 0
M  V30 29303 N 2942.9 1.07041 -1.15672 0
M  V30 29304 C 2944.31 1.31801 -0.900029 0
M  V30 29305 C 2944.51 1.96382 0.451258 0
M  V30 29306 O 2943.57 2.22567 1.19248 0
M  V30 29307 C 2944.88 2.20605 -2.04338 0
M  V30 29308 C 2946.43 2.34045 -2.07827 0
M  V30 29309 C 2946.91 3.26199 -3.21494 0
M  V30 29310 N 2948.4 3.3378 -3.21162 0
M  V30 29311 C 2949.13 4.05156 -4.05754 0
M  V30 29312 N 2948.63 4.7912 -5.00415 0
M  V30 29313 N 2950.42 4.01129 -3.93766 0
M  V30 29314 H 2942.57 0.63511 -2.02682 0
M  V30 29315 H 2944.83 0.342512 -0.883962 0
M  V30 29316 H 2944.54 1.80418 -3.01898 0
M  V30 29317 H 2944.41 3.21151 -1.97844 0
M  V30 29318 H 2946.8 2.73483 -1.10864 0
M  V30 29319 H 2946.88 1.33193 -2.18388 0
M  V30 29320 H 2946.53 2.87478 -4.18711 0
M  V30 29321 H 2946.46 4.27012 -3.0817 0
M  V30 29322 H 2948.95 2.81063 -2.52611 0
M  V30 29323 H 2949.26 5.31087 -5.61397 0
M  V30 29324 H 2947.61 4.78126 -5.04401 0
M  V30 29325 H 2950.8 3.42461 -3.19121 0
M  V30 29326 H 2950.97 4.5649 -4.59914 0
M  V30 29327 N 2944.38 0.954014 1.25445 0
M  V30 29328 C 2945.62 0.607261 1.92761 0
M  V30 29329 C 2945.94 -0.858368 1.75092 0
M  V30 29330 O 2945.21 -1.6113 1.11418 0
M  V30 29331 H 2943.79 0.221604 0.713373 0
M  V30 29332 H 2946.46 1.21212 1.52623 0
M  V30 29333 H 2945.55 0.836051 3.00694 0
M  V30 29334 N 2945.85 -1.40063 0.722513 0
M  V30 29335 C 2947.09 -2.02615 0.269527 0
M  V30 29336 C 2947.46 -1.56069 -1.11832 0
M  V30 29337 O 2948.66 -2.10733 -1.66869 0
M  V30 29338 C 2946.93 -3.55641 0.354129 0
M  V30 29339 S 2948.49 -4.38795 -0.0208538 0
M  V30 29340 H 2945.31 -0.70299 0.106425 0
M  V30 29341 H 2947.91 -1.71073 0.946267 0
M  V30 29342 H 2946.61 -3.87009 1.36572 0
M  V30 29343 H 2946.14 -3.91921 -0.340856 0
M  V30 29344 H 2948.16 -4.80435 -1.24085 0
M  V30 29345 N 2947.33 -0.469207 -1.50453 0
M  V30 29346 C 2948.26 0.315879 -2.31354 0
M  V30 29347 C 2949.24 0.99207 -1.38174 0
M  V30 29348 O 2950.43 0.989604 -1.67094 0
M  V30 29349 C 2947.56 1.39931 -3.17862 0
M  V30 29350 C 2946.51 0.844835 -4.19579 0
M  V30 29351 C 2945.84 2.02642 -4.94814 0
M  V30 29352 C 2947.14 -0.14259 -5.22105 0
M  V30 29353 H 2948.83 -0.359322 -2.97236 0
M  V30 29354 H 2946.38 -0.174249 -1.42942 0
M  V30 29355 H 2948.33 1.95601 -3.73254 0
M  V30 29356 H 2947.05 2.10326 -2.49861 0
M  V30 29357 H 2945.71 0.310125 -3.65286 0
M  V30 29358 H 2945.36 2.7173 -4.23287 0
M  V30 29359 H 2945.06 1.66164 -5.63616 0
M  V30 29360 H 2946.59 2.58805 -5.53039 0
M  V30 29361 H 2948 0.324865 -5.72379 0
M  V30 29362 H 2946.4 -0.421546 -5.98618 0
M  V30 29363 H 2947.47 -1.06909 -4.72968 0
M  V30 29364 N 2948.81 1.56303 -0.201741 0
M  V30 29365 C 2950.23 1.58855 0.153997 0
M  V30 29366 C 2950.43 1.2181 1.60514 0
M  V30 29367 O 2949.48 0.943971 2.34191 0
M  V30 29368 C 2950.79 3.00303 -0.154372 0
M  V30 29369 C 2952.34 3.12856 -0.0950128 0
M  V30 29370 C 2952.82 4.56448 -0.376783 0
M  V30 29371 N 2954.31 4.62054 -0.32564 0
M  V30 29372 C 2955.04 5.71061 -0.51742 0
M  V30 29373 N 2954.54 6.88509 -0.76991 0
M  V30 29374 N 2956.33 5.60286 -0.451219 0
M  V30 29375 H 2948.48 1.78664 -1.14861 0
M  V30 29376 H 2950.75 0.8295 -0.458948 0
M  V30 29377 H 2950.45 3.31992 -1.1608 0
M  V30 29378 H 2950.33 3.73315 0.539948 0
M  V30 29379 H 2952.71 2.80976 0.902026 0
M  V30 29380 H 2952.79 2.42216 -0.822511 0
M  V30 29381 H 2952.44 4.89041 -1.37117 0
M  V30 29382 H 2952.37 5.25287 0.37168 0
M  V30 29383 H 2954.86 3.7765 -0.137375 0
M  V30 29384 H 2955.17 7.67484 -0.904879 0
M  V30 29385 H 2953.52 6.903 -0.80688 0
M  V30 29386 H 2956.71 4.67409 -0.254335 0
M  V30 29387 H 2956.88 6.45178 -0.604095 0
M  V30 29388 N 2950.29 -0.0718147 1.57436 0
M  V30 29389 C 2951.24 -1.09226 2.00134 0
M  V30 29390 C 2952.22 -1.3448 0.883402 0
M  V30 29391 O 2953.41 -1.34781 1.14731 0
M  V30 29392 C 2950.54 -2.40601 2.4488 0
M  V30 29393 C 2949.63 -2.18621 3.63409 0
M  V30 29394 N 2950.02 -1.6657 4.77586 0
M  V30 29395 C 2948.32 -2.49094 3.69957 0
M  V30 29396 C 2949.02 -1.59405 5.59433 0
M  V30 29397 N 2947.99 -2.05455 5.03279 0
M  V30 29398 H 2951.8 -0.683135 2.8585 0
M  V30 29399 H 2949.31 -0.278886 1.59987 0
M  V30 29400 H 2951.31 -3.14467 2.73708 0
M  V30 29401 H 2949.97 -2.82229 1.60551 0
M  V30 29402 H 2950.98 -1.35435 4.99878 0
M  V30 29403 H 2947.66 -2.94089 2.96341 0
M  V30 29404 H 2949.05 -1.20015 6.61095 0
M  V30 29405 N 2951.77 -1.53818 -0.343203 0
M  V30 29406 C 2952.99 -1.75019 -1.10345 0
M  V30 29407 C 2953.41 -0.489507 -1.82344 0
M  V30 29408 O 2952.77 0.538855 -1.74363 0
M  V30 29409 C 2952.82 -2.93052 -2.11667 0
M  V30 29410 O 2952.54 -4.14244 -1.42596 0
M  V30 29411 C 2954.04 -3.26307 -3.00065 0
M  V30 29412 H 2951.26 -0.584782 -0.329046 0
M  V30 29413 H 2953.8 -2.00643 -0.395304 0
M  V30 29414 H 2951.96 -2.69758 -2.78046 0
M  V30 29415 H 2952.37 -4.805 -2.10286 0
M  V30 29416 H 2953.85 -4.12245 -3.67094 0
M  V30 29417 H 2954.32 -2.42625 -3.66101 0
M  V30 29418 H 2954.93 -3.51608 -2.39274 0
M  V30 29419 N 2953.24 0.604233 -1.45557 0
M  V30 29420 C 2954.47 1.3897 -1.53281 0
M  V30 29421 C 2954.89 1.88064 -0.166542 0
M  V30 29422 O 2954.24 1.62406 0.832491 0
M  V30 29423 C 2954.29 2.59191 -2.51997 0
M  V30 29424 O 2954.02 2.12137 -3.83314 0
M  V30 29425 C 2955.52 3.5201 -2.69451 0
M  V30 29426 H 2952.74 0.425287 -0.51901 0
M  V30 29427 H 2955.28 0.736587 -1.90774 0
M  V30 29428 H 2953.44 3.20537 -2.17566 0
M  V30 29429 H 2953.85 2.90271 -4.36856 0
M  V30 29430 H 2955.32 4.32901 -3.42492 0
M  V30 29431 H 2955.8 4.02567 -1.75603 0
M  V30 29432 H 2956.41 2.96515 -3.04892 0
M  V30 29433 N 2954.72 1.32903 0.847027 0
M  V30 29434 C 2955.97 1.23652 1.59858 0
M  V30 29435 C 2956.29 -0.199754 1.93974 0
M  V30 29436 O 2955.56 -1.12645 1.60275 0
M  V30 29437 H 2954.14 0.454676 0.592688 0
M  V30 29438 H 2956.8 1.66521 1.01275 0
M  V30 29439 H 2955.9 1.82452 2.53214 0
M  V30 29440 N 2956.2 -1.06426 1.16238 0
M  V30 29441 C 2957.61 -1.60666 0.950971 0
M  V30 29442 C 2957.96 -1.89577 -0.505457 0
M  V30 29443 O 2957.09 -1.6682 -1.3784 0
M  V30 29444 C 2957.68 -2.91901 1.71987 0
M  V30 29445 C 2956.24 -3.42847 1.55348 0
M  V30 29446 C 2955.39 -2.1676 1.72946 0
M  V30 29447 H 2958.34 -0.893936 1.31128 0
M  V30 29448 H 2958.36 -3.61251 1.1949 0
M  V30 29449 H 2957.87 -2.70826 2.77983 0
M  V30 29450 H 2955.97 -3.68984 0.517865 0
M  V30 29451 H 2956.09 -4.18263 2.33651 0
M  V30 29452 H 2954.45 -2.26916 1.15677 0
M  V30 29453 H 2955.23 -1.9817 2.80327 0
M  V30 29454 N 2957.68 -0.960653 -1.24937 0
M  V30 29455 C 2959.09 -0.666043 -1.45038 0
M  V30 29456 C 2959.29 0.774469 -1.86022 0
M  V30 29457 O 2958.35 1.54913 -1.99395 0
M  V30 29458 C 2959.66 -1.64412 -2.51772 0
M  V30 29459 C 2961.21 -1.65596 -2.65607 0
M  V30 29460 C 2961.69 -2.62183 -3.75531 0
M  V30 29461 N 2963.18 -2.60584 -3.8295 0
M  V30 29462 C 2963.91 -3.31995 -4.67511 0
M  V30 29463 N 2963.41 -4.129 -5.56314 0
M  V30 29464 N 2965.2 -3.20853 -4.6153 0
M  V30 29465 H 2957.35 -1.89147 -0.966287 0
M  V30 29466 H 2959.62 -0.813934 -0.486019 0
M  V30 29467 H 2959.32 -2.67333 -2.28529 0
M  V30 29468 H 2959.2 -1.41134 -3.49801 0
M  V30 29469 H 2961.58 -0.633896 -2.88211 0
M  V30 29470 H 2961.66 -1.92934 -1.67958 0
M  V30 29471 H 2961.31 -3.6452 -3.53677 0
M  V30 29472 H 2961.24 -2.32128 -4.72678 0
M  V30 29473 H 2963.73 -2.01853 -3.19474 0
M  V30 29474 H 2964.04 -4.64294 -6.17779 0
M  V30 29475 H 2962.39 -4.16996 -5.56003 0
M  V30 29476 H 2965.58 -2.57115 -3.91164 0
M  V30 29477 H 2965.75 -3.76772 -5.27207 0
M  V30 29478 N 2959.16 1.39677 -0.729931 0
M  V30 29479 C 2960.4 2.02469 -0.280268 0
M  V30 29480 C 2960.76 1.5666 1.11003 0
M  V30 29481 O 2961.96 2.11615 1.65749 0
M  V30 29482 C 2960.23 3.55448 -0.372984 0
M  V30 29483 S 2961.79 4.388 -0.00241687 0
M  V30 29484 H 2958.61 0.702416 -0.110151 0
M  V30 29485 H 2961.21 1.70569 -0.955326 0
M  V30 29486 H 2959.92 3.8628 -1.38622 0
M  V30 29487 H 2959.45 3.92096 0.320067 0
M  V30 29488 H 2961.46 4.81086 1.21535 0
M  V30 29489 N 2960.63 0.47718 1.50202 0
M  V30 29490 C 2961.54 -0.318987 2.32421 0
M  V30 29491 C 2962.56 -0.990208 1.43076 0
M  V30 29492 O 2963.74 -0.976842 1.76124 0
M  V30 29493 C 2960.8 -1.38323 3.17911 0
M  V30 29494 C 2959.86 -0.727962 4.23083 0
M  V30 29495 C 2959.1 -1.74149 5.04488 0
M  V30 29496 O 2959.32 -2.96872 4.87056 0
M  V30 29497 O 2958.25 -1.30996 5.87472 0
M  V30 29498 H 2962.08 0.353334 3.01638 0
M  V30 29499 H 2959.66 0.238917 1.47477 0
M  V30 29500 H 2961.55 -1.99953 3.7094 0
M  V30 29501 H 2960.22 -2.03891 2.51417 0
M  V30 29502 H 2959.13 -0.0725442 3.7403 0
M  V30 29503 H 2960.46 -0.115129 4.92065 0
M  V30 29504 N 2962.11 -1.56194 0.210027 0
M  V30 29505 C 2963.36 -1.9717 -0.425072 0
M  V30 29506 C 2963.67 -1.10034 -1.61716 0
M  V30 29507 O 2964.88 -1.40857 -2.32102 0
M  V30 29508 C 2963.34 -3.50721 -0.807648 0
M  V30 29509 C 2962.94 -4.46543 0.36098 0
M  V30 29510 C 2964.69 -4.00434 -1.40899 0
M  V30 29511 C 2962.6 -5.91384 -0.043388 0
M  V30 29512 H 2961.53 -0.736262 -0.162585 0
M  V30 29513 H 2964.18 -1.80957 0.304414 0
M  V30 29514 H 2962.56 -3.62492 -1.59423 0
M  V30 29515 H 2963.73 -4.46513 1.13853 0
M  V30 29516 H 2962.05 -4.07107 0.8748 0
M  V30 29517 H 2964.64 -5.06136 -1.72424 0
M  V30 29518 H 2964.99 -3.45611 -2.32075 0
M  V30 29519 H 2965.52 -3.91839 -0.686085 0
M  V30 29520 H 2962.26 -6.50166 0.834563 0
M  V30 29521 H 2961.78 -5.94634 -0.785494 0
M  V30 29522 H 2963.46 -6.45261 -0.474062 0
M  V30 29523 N 2963.59 0.0634645 -1.57472 0
M  V30 29524 C 2964.83 0.766279 -1.89493 0
M  V30 29525 C 2965.19 1.74319 -0.804781 0
M  V30 29526 O 2966.4 2.49172 -1.0083 0
M  V30 29527 C 2964.67 1.44845 -3.26733 0
M  V30 29528 S 2966.23 2.18518 -3.8052 0
M  V30 29529 H 2963.04 0.254641 -0.663837 0
M  V30 29530 H 2965.65 0.0220524 -1.95488 0
M  V30 29531 H 2964.35 0.723753 -4.03968 0
M  V30 29532 H 2963.88 2.23194 -3.23957 0
M  V30 29533 H 2965.9 3.45166 -3.56476 0
M  V30 29534 N 2965.07 1.53998 0.33504 0
M  V30 29535 C 2966.03 1.81875 1.39478 0
M  V30 29536 C 2967.03 0.690104 1.45238 0
M  V30 29537 O 2968.22 0.958403 1.45466 0
M  V30 29538 C 2965.35 1.96845 2.78325 0
M  V30 29539 H 2966.55 2.76549 1.16019 0
M  V30 29540 H 2964.1 1.4554 0.5699 0
M  V30 29541 H 2964.83 1.04342 3.07056 0
M  V30 29542 H 2964.62 2.78963 2.75539 0
M  V30 29543 H 2966.11 2.199 3.55012 0
M  V30 29544 N 2966.55 -0.596505 1.45875 0
M  V30 29545 C 2967.96 -1.17855 1.448 0
M  V30 29546 C 2968.31 -1.95359 0.181478 0
M  V30 29547 O 2967.43 -2.04201 -0.716301 0
M  V30 29548 C 2968.03 -2.14394 2.62337 0
M  V30 29549 C 2966.59 -2.67951 2.64347 0
M  V30 29550 C 2965.73 -1.4356 2.37246 0
M  V30 29551 H 2968.69 -0.385195 1.53954 0
M  V30 29552 H 2968.71 -2.97622 2.37068 0
M  V30 29553 H 2968.22 -1.57957 3.54501 0
M  V30 29554 H 2966.32 -3.28295 1.76219 0
M  V30 29555 H 2966.43 -3.11627 3.63903 0
M  V30 29556 H 2964.8 -1.72898 1.87025 0
M  V30 29557 H 2965.58 -0.889747 3.3157 0
M  V30 29558 N 2968.02 -1.3335 -0.839967 0
M  V30 29559 C 2969.27 -1.24498 -1.592 0
M  V30 29560 C 2969.59 0.189465 -1.94077 0
M  V30 29561 O 2968.86 1.11793 -1.6087 0
M  V30 29562 H 2967.44 -0.457812 -0.590268 0
M  V30 29563 H 2970.11 -1.67056 -1.00391 0
M  V30 29564 H 2969.2 -1.83793 -2.52243 0
M  V30 29565 N 2969.5 1.05808 -1.16801 0
M  V30 29566 C 2970.75 1.78697 -0.952555 0
M  V30 29567 C 2971.08 1.8744 0.519277 0
M  V30 29568 O 2970.33 1.3659 1.40149 0
M  V30 29569 C 2970.63 3.2294 -1.53117 0
M  V30 29570 C 2970.3 3.34267 -3.02616 0
M  V30 29571 C 2968.96 3.37066 -3.43424 0
M  V30 29572 C 2971.31 3.35788 -3.98617 0
M  V30 29573 C 2968.64 3.39007 -4.78844 0
M  V30 29574 C 2970.99 3.39267 -5.33929 0
M  V30 29575 C 2969.66 3.4035 -5.74211 0
M  V30 29576 H 2968.93 0.653899 -0.348565 0
M  V30 29577 H 2971.57 1.24398 -1.45593 0
M  V30 29578 H 2969.88 3.80124 -0.949353 0
M  V30 29579 H 2971.57 3.77945 -1.34009 0
M  V30 29580 H 2968.16 3.32798 -2.70081 0
M  V30 29581 H 2972.35 3.32833 -3.68152 0
M  V30 29582 H 2967.6 3.38152 -5.09375 0
M  V30 29583 H 2971.78 3.39392 -6.081 0
M  V30 29584 H 2969.41 3.41608 -6.79123 0
M  V30 29585 N 2970.98 0.967265 1.24426 0
M  V30 29586 C 2972.21 0.645574 1.96255 0
M  V30 29587 C 2972.62 -0.789067 1.7196 0
M  V30 29588 O 2971.96 -1.541 0.99994 0
M  V30 29589 C 2972.02 0.839859 3.49552 0
M  V30 29590 C 2971.69 2.25406 3.97544 0
M  V30 29591 C 2972.68 3.23176 4.07251 0
M  V30 29592 C 2970.37 2.58163 4.30879 0
M  V30 29593 C 2972.36 4.5179 4.49627 0
M  V30 29594 C 2970.05 3.87004 4.72939 0
M  V30 29595 C 2971.05 4.83629 4.82278 0
M  V30 29596 O 2970.74 6.10172 5.23398 0
M  V30 29597 H 2970.47 0.239906 0.631998 0
M  V30 29598 H 2973.02 1.2976 1.59222 0
M  V30 29599 H 2971.25 0.130671 3.86479 0
M  V30 29600 H 2972.94 0.51732 4.0259 0
M  V30 29601 H 2973.71 2.99196 3.81715 0
M  V30 29602 H 2969.59 1.83673 4.2283 0
M  V30 29603 H 2973.13 5.27211 4.56831 0
M  V30 29604 H 2969.03 4.10784 4.97922 0
M  V30 29605 H 2969.8 6.13732 5.41549 0
M  V30 29606 N 2972.46 -1.39288 0.737328 0
M  V30 29607 C 2973.71 -2.0007 0.285727 0
M  V30 29608 C 2974.03 -1.58803 -1.13166 0
M  V30 29609 O 2973.3 -0.837339 -1.77103 0
M  V30 29610 H 2971.88 -0.739913 0.102651 0
M  V30 29611 H 2974.54 -1.70302 0.947805 0
M  V30 29612 H 2973.64 -3.10287 0.33596 0
M  V30 29613 N 2973.94 -0.485139 -1.49947 0
M  V30 29614 C 2974.89 0.315568 -2.30449 0
M  V30 29615 C 2975.88 0.977492 -1.38353 0
M  V30 29616 O 2977.09 0.906991 -1.55479 0
M  V30 29617 H 2973.46 0.120616 -0.742264 0
M  V30 29618 H 2975.43 -0.383604 -2.95924 0
M  V30 29619 C 2974.18 1.37668 -3.19285 0
M  V30 29620 H 2973.5 0.876733 -3.90069 0
M  V30 29621 H 2974.94 1.90923 -3.78582 0
M  V30 29622 C 2973.4 2.38627 -2.37821 0
M  V30 29623 O 2973.93 3.44189 -2.07116 0
M  V30 29624 N 2972.14 2.10696 -2.00139 0
M  V30 29625 H 2971.69 1.24874 -2.25309 0
M  V30 29626 H 2971.64 2.78477 -1.45938 0
M  V30 29627 N 2975.42 1.56081 -0.218307 0
M  V30 29628 C 2976.38 2.18893 0.679594 0
M  V30 29629 C 2977.38 1.14988 1.12403 0
M  V30 29630 O 2978.57 1.4024 1.03336 0
M  V30 29631 C 2975.7 2.80965 1.93058 0
M  V30 29632 H 2976.89 2.99609 0.132013 0
M  V30 29633 H 2974.45 1.56269 0.0313099 0
M  V30 29634 H 2975.18 2.0411 2.52011 0
M  V30 29635 H 2974.97 3.57051 1.6204 0
M  V30 29636 H 2976.46 3.29123 2.57037 0
M  V30 29637 N 2976.89 -0.0551124 1.57504 0
M  V30 29638 C 2977.82 -1.06368 2.07865 0
M  V30 29639 C 2978.8 -1.39342 0.97559 0
M  V30 29640 O 2979.99 -1.4868 1.24932 0
M  V30 29641 C 2977.12 -2.37235 2.53647 0
M  V30 29642 C 2976.07 -2.18572 3.67982 0
M  V30 29643 C 2975.4 -3.54969 3.99876 0
M  V30 29644 C 2976.7 -1.59321 4.97407 0
M  V30 29645 H 2978.39 -0.644544 2.9238 0
M  V30 29646 H 2975.94 -0.308595 1.40655 0
M  V30 29647 H 2977.89 -3.08098 2.87495 0
M  V30 29648 H 2976.62 -2.8116 1.66182 0
M  V30 29649 H 2975.28 -1.50146 3.34442 0
M  V30 29650 H 2974.92 -3.96495 3.09517 0
M  V30 29651 H 2974.62 -3.43315 4.76873 0
M  V30 29652 H 2976.15 -4.27237 4.36235 0
M  V30 29653 H 2977.56 -2.20069 5.29379 0
M  V30 29654 H 2975.96 -1.58316 5.7884 0
M  V30 29655 H 2977.03 -0.556296 4.81698 0
M  V30 29656 N 2978.37 -1.54173 -0.326869 0
M  V30 29657 C 2979.3 -1.8632 -1.40738 0
M  V30 29658 C 2980.28 -0.719711 -1.54124 0
M  V30 29659 O 2981.47 -0.973147 -1.68058 0
M  V30 29660 C 2978.6 -2.08762 -2.77553 0
M  V30 29661 C 2977.55 -3.24601 -2.78959 0
M  V30 29662 C 2976.88 -3.32408 -4.18819 0
M  V30 29663 C 2978.18 -4.62328 -2.43002 0
M  V30 29664 H 2979.87 -2.76813 -1.14083 0
M  V30 29665 H 2977.42 -1.33191 -0.547366 0
M  V30 29666 H 2979.37 -2.29835 -3.53205 0
M  V30 29667 H 2978.09 -1.15015 -3.05678 0
M  V30 29668 H 2976.75 -3.0341 -2.05762 0
M  V30 29669 H 2976.4 -2.36226 -4.44079 0
M  V30 29670 H 2976.1 -4.1026 -4.20666 0
M  V30 29671 H 2977.63 -3.55712 -4.96288 0
M  V30 29672 H 2979.04 -4.83304 -3.08367 0
M  V30 29673 H 2977.44 -5.42706 -2.56106 0
M  V30 29674 H 2978.51 -4.64802 -1.38157 0
M  V30 29675 N 2979.85 0.58876 -1.4619 0
M  V30 29676 C 2981.26 1.17085 -1.45423 0
M  V30 29677 C 2981.61 1.9526 -0.191836 0
M  V30 29678 O 2980.74 2.04578 0.705461 0
M  V30 29679 C 2981.33 2.12999 -2.63471 0
M  V30 29680 C 2979.89 2.66545 -2.65764 0
M  V30 29681 C 2979.04 1.423 -2.38004 0
M  V30 29682 H 2981.99 0.377025 -1.54156 0
M  V30 29683 H 2982.01 2.96361 -2.38643 0
M  V30 29684 H 2981.52 1.56075 -3.55334 0
M  V30 29685 H 2979.62 3.27356 -1.77957 0
M  V30 29686 H 2979.74 3.09693 -3.6555 0
M  V30 29687 H 2978.1 1.71904 -1.87939 0
M  V30 29688 H 2978.88 0.87215 -3.32037 0
M  V30 29689 N 2981.33 1.33794 0.832883 0
M  V30 29690 C 2982.58 1.25341 1.58537 0
M  V30 29691 C 2982.9 -0.17917 1.94175 0
M  V30 29692 O 2982.17 -1.10938 1.6146 0
M  V30 29693 H 2980.75 0.460936 0.587832 0
M  V30 29694 H 2983.41 1.67586 0.995035 0
M  V30 29695 H 2982.5 1.85128 2.51265 0
M  V30 29696 N 2982.81 -1.05187 1.1736 0
M  V30 29697 C 2983.75 -2.15041 0.886565 0
M  V30 29698 C 2984.75 -1.68745 -0.148804 0
M  V30 29699 O 2985.95 -1.8 -0.00171959 0
M  V30 29700 H 2982.33 -0.70218 0.26916 0
M  V30 29701 H 2984.3 -2.36455 1.8202 0
M  V30 29702 C 2983.05 -3.45198 0.416394 0
M  V30 29703 H 2982.37 -3.81222 1.20456 0
M  V30 29704 H 2983.81 -4.23236 0.254436 0
M  V30 29705 C 2982.27 -3.25581 -0.865959 0
M  V30 29706 O 2982.8 -3.52148 -1.93274 0
M  V30 29707 N 2981.01 -2.78963 -0.81413 0
M  V30 29708 H 2980.55 -2.57543 0.0542071 0
M  V30 29709 H 2980.51 -2.66217 -1.67259 0
M  V30 29710 N 2984.28 -0.97385 -1.23911 0
M  V30 29711 C 2985.52 -0.647049 -1.93888 0
M  V30 29712 C 2985.89 0.803705 -1.74369 0
M  V30 29713 O 2987.09 1.24102 -2.38437 0
M  V30 29714 C 2985.36 -1.01891 -3.42568 0
M  V30 29715 S 2986.92 -0.807593 -4.31304 0
M  V30 29716 H 2983.74 -0.237177 -0.670275 0
M  V30 29717 H 2986.34 -1.25211 -1.50142 0
M  V30 29718 H 2985.04 -2.07152 -3.54282 0
M  V30 29719 H 2984.57 -0.404881 -3.91311 0
M  V30 29720 H 2986.59 0.311899 -4.95219 0
M  V30 29721 N 2985.76 1.38895 -0.744705 0
M  V30 29722 C 2986.99 2.04603 -0.307463 0
M  V30 29723 C 2987.4 1.56159 1.06112 0
M  V30 29724 O 2986.76 0.730731 1.67232 0
M  V30 29725 C 2986.81 3.60159 -0.311074 0
M  V30 29726 O 2986.53 4.06822 -1.62564 0
M  V30 29727 C 2988.03 4.43075 0.141135 0
M  V30 29728 H 2985.25 0.657737 -0.132753 0
M  V30 29729 H 2987.8 1.77757 -1.01107 0
M  V30 29730 H 2985.95 3.85872 0.343724 0
M  V30 29731 H 2986.37 5.01204 -1.54578 0
M  V30 29732 H 2987.84 5.51931 0.0874479 0
M  V30 29733 H 2988.32 4.22835 1.18774 0
M  V30 29734 H 2988.92 4.22532 -0.484457 0
M  V30 29735 N 2987.24 0.493084 1.49688 0
M  V30 29736 C 2988.66 0.148554 1.58907 0
M  V30 29737 C 2988.86 -1.34642 1.49912 0
M  V30 29738 O 2987.91 -2.12169 1.36896 0
M  V30 29739 C 2989.23 0.718316 2.91994 0
M  V30 29740 C 2990.77 0.683711 3.05441 0
M  V30 29741 C 2991.25 1.2314 4.41136 0
M  V30 29742 N 2992.74 1.19175 4.47606 0
M  V30 29743 C 2993.47 1.5858 5.51035 0
M  V30 29744 N 2992.97 2.0554 6.61608 0
M  V30 29745 N 2994.76 1.50045 5.41704 0
M  V30 29746 H 2986.91 1.46514 1.53777 0
M  V30 29747 H 2989.18 0.607241 0.727985 0
M  V30 29748 H 2988.88 1.76646 3.0412 0
M  V30 29749 H 2988.76 0.174256 3.76797 0
M  V30 29750 H 2991.14 -0.355574 2.9295 0
M  V30 29751 H 2991.23 1.26483 2.22341 0
M  V30 29752 H 2990.87 2.26943 4.54378 0
M  V30 29753 H 2990.8 0.626293 5.22862 0
M  V30 29754 H 2993.29 0.847589 3.68272 0
M  V30 29755 H 2993.6 2.33698 7.36617 0
M  V30 29756 H 2991.95 2.09508 6.6267 0
M  V30 29757 H 2995.14 1.13183 4.5421 0
M  V30 29758 H 2995.31 1.81079 6.22185 0
M  V30 29759 N 2988.72 -1.55963 0.226582 0
M  V30 29760 C 2989.96 -2.00337 -0.405539 0
M  V30 29761 C 2990.32 -1.111 -1.56591 0
M  V30 29762 O 2991.52 -1.44842 -2.26438 0
M  V30 29763 C 2989.79 -3.47765 -0.824289 0
M  V30 29764 S 2991.35 -4.14157 -1.44981 0
M  V30 29765 H 2988.17 -0.699292 -0.1285 0
M  V30 29766 H 2990.77 -1.92573 0.33705 0
M  V30 29767 H 2989.48 -4.10389 0.0298357 0
M  V30 29768 H 2989.01 -3.59413 -1.59957 0
M  V30 29769 H 2991.02 -4.13762 -2.7389 0
M  V30 29770 N 2990.2 0.0467589 -1.57531 0
M  V30 29771 C 2991.47 0.775505 -1.7957 0
M  V30 29772 C 2991.85 1.94508 -0.820356 0
M  V30 29773 O 2991.2 2.28063 0.1413 0
M  V30 29774 C 2991.41 1.2251 -3.26791 0
M  V30 29775 C 2992.76 1.64828 -3.91301 0
M  V30 29776 O 2993.78 1.32014 -3.30833 0
M  V30 29777 O 2992.64 2.25669 -4.97731 0
M  V30 29778 H 2989.74 0.373559 -0.737823 0
M  V30 29779 H 2992.28 0.0249004 -1.69682 0
M  V30 29780 H 2991.05 0.389378 -3.89358 0
M  V30 29781 H 2990.68 2.03627 -3.415 0
M  V30 29782 N 2991.67 1.54344 0.318688 0
M  V30 29783 C 2992.91 1.7451 1.06422 0
M  V30 29784 C 2993.28 0.510605 1.85086 0
M  V30 29785 O 2994.48 0.589693 2.62252 0
M  V30 29786 C 2992.75 2.98831 1.96048 0
M  V30 29787 S 2994.31 3.39921 2.77487 0
M  V30 29788 H 2991.13 0.613593 0.359199 0
M  V30 29789 H 2993.73 1.92527 0.339645 0
M  V30 29790 H 2992.43 3.86822 1.37102 0
M  V30 29791 H 2991.96 2.83351 2.72903 0
M  V30 29792 H 2993.98 2.95603 3.98539 0
M  V30 29793 N 2993.15 -0.580999 1.465 0
M  V30 29794 C 2994.38 -1.36514 1.55472 0
M  V30 29795 C 2994.8 -1.87775 0.19644 0
M  V30 29796 O 2994.15 -1.6371 -0.806548 0
M  V30 29797 C 2994.2 -2.55149 2.56088 0
M  V30 29798 O 2993.92 -2.06012 3.8664 0
M  V30 29799 C 2995.43 -3.47679 2.75017 0
M  V30 29800 H 2992.65 -0.416977 0.52571 0
M  V30 29801 H 2995.19 -0.706144 1.91922 0
M  V30 29802 H 2993.34 -3.17035 2.22638 0
M  V30 29803 H 2993.76 -2.83285 4.41418 0
M  V30 29804 H 2995.23 -4.27397 3.49336 0
M  V30 29805 H 2995.71 -3.99722 1.81985 0
M  V30 29806 H 2996.32 -2.91627 3.0957 0
M  V30 29807 N 2994.63 -1.34234 -0.825776 0
M  V30 29808 C 2996.04 -1.23708 -1.39833 0
M  V30 29809 C 2996.39 0.138614 -1.9571 0
M  V30 29810 O 2995.52 1.03882 -1.89835 0
M  V30 29811 C 2996.11 -2.23983 -2.54199 0
M  V30 29812 C 2994.67 -2.17257 -3.0737 0
M  V30 29813 C 2993.82 -2.10744 -1.80228 0
M  V30 29814 H 2996.77 -1.45642 -0.630416 0
M  V30 29815 H 2996.79 -1.85516 -3.32211 0
M  V30 29816 H 2996.3 -3.24097 -2.13501 0
M  V30 29817 H 2994.4 -1.20489 -3.52581 0
M  V30 29818 H 2994.52 -3.08385 -3.66654 0
M  V30 29819 H 2992.88 -1.56421 -2.01009 0
M  V30 29820 H 2993.66 -3.12688 -1.41708 0
M  V30 29821 N 2996.11 1.04563 -1.17917 0
M  V30 29822 C 2997.35 1.79246 -0.982363 0
M  V30 29823 C 2997.71 1.85905 0.479948 0
M  V30 29824 O 2998.91 2.56743 0.796033 0
M  V30 29825 C 2997.18 3.18913 -1.61335 0
M  V30 29826 S 2998.74 4.09996 -1.56362 0
M  V30 29827 H 2995.56 0.61725 -0.352879 0
M  V30 29828 H 2998.16 1.25413 -1.49973 0
M  V30 29829 H 2996.87 3.11673 -2.66998 0
M  V30 29830 H 2996.4 3.77823 -1.09606 0
M  V30 29831 H 2998.41 4.92845 -0.576017 0
M  V30 29832 N 2997.59 0.980408 1.23393 0
M  V30 29833 C 2998.83 0.648012 1.91429 0
M  V30 29834 C 2999.16 -0.821035 1.76873 0
M  V30 29835 O 2998.43 -1.5873 1.14811 0
M  V30 29836 H 2997.01 0.236685 0.708512 0
M  V30 29837 H 2999.67 1.24422 1.50017 0
M  V30 29838 H 2998.76 0.899645 2.98852 0
M  V30 29839 N 2999.06 -1.38498 0.75206 0
M  V30 29840 C 3000.29 -2.04437 0.31831 0
M  V30 29841 C 3000.71 -1.5672 -1.05282 0
M  V30 29842 O 3000.06 -0.739589 -1.66842 0
M  V30 29843 C 3000.12 -3.59989 0.330169 0
M  V30 29844 O 2999.84 -4.05955 1.64719 0
M  V30 29845 C 3001.34 -4.43144 -0.117635 0
M  V30 29846 H 2998.56 -0.657024 0.136239 0
M  V30 29847 H 3001.1 -1.77218 1.02048 0
M  V30 29848 H 2999.26 -3.86049 -0.323255 0
M  V30 29849 H 2999.67 -5.00378 1.57234 0
M  V30 29850 H 3001.14 -5.51969 -0.0581764 0
M  V30 29851 H 3001.62 -4.23459 -1.1653 0
M  V30 29852 H 3002.23 -4.22269 0.506858 0
M  V30 29853 N 3000.54 -0.501015 -1.49424 0
M  V30 29854 C 3001.45 0.28197 -2.32899 0
M  V30 29855 C 3002.47 0.967321 -1.44634 0
M  V30 29856 O 3003.64 0.948699 -1.77656 0
M  V30 29857 C 3000.71 1.33248 -3.20072 0
M  V30 29858 C 2999.77 0.660561 -4.24188 0
M  V30 29859 C 2999 1.66101 -5.07194 0
M  V30 29860 O 2999.23 2.89086 -4.91717 0
M  V30 29861 O 2998.16 1.21633 -5.89482 0
M  V30 29862 H 3001.99 -0.401277 -3.01037 0
M  V30 29863 H 2999.57 -0.262349 -1.47079 0
M  V30 29864 H 3001.45 1.94027 -3.74074 0
M  V30 29865 H 3000.13 1.99865 -2.54628 0
M  V30 29866 H 2999.04 0.0130302 -3.74098 0
M  V30 29867 H 3000.37 0.0368314 -4.92186 0
M  V30 29868 N 3002.02 1.5584 -0.234849 0
M  V30 29869 C 3002.98 2.19602 0.65634 0
M  V30 29870 C 3003.98 1.16173 1.11177 0
M  V30 29871 O 3005.17 1.41328 1.01843 0
M  V30 29872 C 3002.31 2.82997 1.90067 0
M  V30 29873 H 3003.5 2.99732 0.100228 0
M  V30 29874 H 3001.05 1.56293 0.0147338 0
M  V30 29875 H 3001.79 2.06771 2.49832 0
M  V30 29876 H 3001.57 3.5875 1.58244 0
M  V30 29877 H 3003.06 3.3183 2.53532 0
M  V30 29878 N 3003.5 -0.038404 1.57553 0
M  V30 29879 C 3004.74 -0.736036 1.90688 0
M  V30 29880 C 3005.1 -1.73017 0.832411 0
M  V30 29881 O 3006.3 -2.47537 1.04781 0
M  V30 29882 C 3004.58 -1.39629 3.28996 0
M  V30 29883 S 3006.13 -2.12437 3.83948 0
M  V30 29884 H 3002.95 -0.244048 0.667804 0
M  V30 29885 H 3005.55 0.00905079 1.95498 0
M  V30 29886 H 3004.26 -0.659394 4.05068 0
M  V30 29887 H 3003.79 -2.18012 3.27466 0
M  V30 29888 H 3005.8 -3.39451 3.61922 0
M  V30 29889 N 3004.98 -1.54511 -0.310498 0
M  V30 29890 C 3006.25 -1.64006 -1.0659 0
M  V30 29891 C 3006.63 -0.482252 -2.05518 0
M  V30 29892 O 3005.98 0.522081 -2.22456 0
M  V30 29893 C 3006.19 -3.01592 -1.75622 0
M  V30 29894 C 3007.54 -3.58085 -2.28167 0
M  V30 29895 O 3008.56 -3.03983 -1.85669 0
M  V30 29896 O 3007.42 -4.52793 -3.06008 0
M  V30 29897 H 3004.52 -0.664657 -0.492097 0
M  V30 29898 H 3007.06 -1.66857 -0.309345 0
M  V30 29899 H 3005.84 -3.77299 -1.03736 0
M  V30 29900 H 3005.46 -3.02478 -2.58056 0
M  V30 29901 N 3006.46 0.573222 -1.46806 0
M  V30 29902 C 3007.87 1.15536 -1.46657 0
M  V30 29903 C 3008.22 1.95045 -0.212535 0
M  V30 29904 O 3007.34 2.05315 0.683723 0
M  V30 29905 C 3007.94 2.10193 -2.65715 0
M  V30 29906 C 3006.5 2.63711 -2.68577 0
M  V30 29907 C 3005.64 1.39767 -2.395 0
M  V30 29908 H 3008.59 0.360653 -1.54548 0
M  V30 29909 H 3008.62 2.93813 -2.41773 0
M  V30 29910 H 3008.13 1.52297 -3.5697 0
M  V30 29911 H 3006.23 3.2545 -1.81419 0
M  V30 29912 H 3006.34 3.05798 -3.68814 0
M  V30 29913 H 3004.71 1.69901 -1.89752 0
M  V30 29914 H 3005.49 0.836884 -3.32943 0
M  V30 29915 N 3007.93 1.3467 0.818645 0
M  V30 29916 C 3008.88 1.2315 1.9188 0
M  V30 29917 C 3009.87 0.129537 1.60378 0
M  V30 29918 O 3011.06 0.359612 1.73308 0
M  V30 29919 C 3008.19 0.993494 3.2861 0
M  V30 29920 C 3007.27 2.13882 3.66217 0
M  V30 29921 N 3007.67 3.39031 3.75355 0
M  V30 29922 C 3005.96 2.05001 3.96094 0
M  V30 29923 C 3006.66 4.14274 4.08353 0
M  V30 29924 N 3005.64 3.42908 4.218 0
M  V30 29925 H 3009.44 2.17984 1.97129 0
M  V30 29926 H 3006.96 1.26969 1.01255 0
M  V30 29927 H 3008.95 0.891868 4.07248 0
M  V30 29928 H 3007.61 0.0538811 3.24655 0
M  V30 29929 H 3008.62 3.73532 3.5874 0
M  V30 29930 H 3005.3 1.18823 4.00234 0
M  V30 29931 H 3006.69 5.22366 4.22591 0
M  V30 29932 N 3009.41 -1.03936 1.1847 0
M  V30 29933 C 3010.64 -1.81345 1.00641 0
M  V30 29934 C 3011.06 -1.82871 -0.440445 0
M  V30 29935 O 3010.42 -1.24697 -1.31607 0
M  V30 29936 C 3010.47 -3.24756 1.56735 0
M  V30 29937 O 3009.57 -4.04771 0.789588 0
M  V30 29938 H 3008.91 -0.560219 0.356442 0
M  V30 29939 H 3011.44 -1.30888 1.57256 0
M  V30 29940 H 3011.45 -3.7553 1.59503 0
M  V30 29941 H 3010.13 -3.2296 2.62049 0
M  V30 29942 H 3008.7 -3.63446 0.834331 0
M  V30 29943 N 3010.89 -0.986938 -1.22871 0
M  V30 29944 C 3012.14 -0.658155 -1.91083 0
M  V30 29945 C 3012.46 0.811644 -1.77306 0
M  V30 29946 O 3011.73 1.58119 -1.15651 0
M  V30 29947 H 3010.31 -0.240439 -0.707247 0
M  V30 29948 H 3012.97 -1.25216 -1.49355 0
M  V30 29949 H 3012.07 -0.915481 -2.98371 0
M  V30 29950 N 3012.37 1.38098 -0.759394 0
M  V30 29951 C 3013.32 2.27729 -0.111138 0
M  V30 29952 C 3014.3 1.4549 0.687136 0
M  V30 29953 O 3015.49 1.68168 0.552137 0
M  V30 29954 C 3012.62 3.34397 0.77675 0
M  V30 29955 C 3011.71 4.2409 -0.0286853 0
M  V30 29956 N 3012.1 4.94395 -1.06806 0
M  V30 29957 C 3010.4 4.45564 0.197229 0
M  V30 29958 C 3011.1 5.60507 -1.55586 0
M  V30 29959 N 3010.07 5.3659 -0.870153 0
M  V30 29960 H 3013.88 2.79551 -0.907096 0
M  V30 29961 H 3011.39 1.51069 -0.595981 0
M  V30 29962 H 3013.39 3.97504 1.25684 0
M  V30 29963 H 3012.05 2.84132 1.57159 0
M  V30 29964 H 3013.06 4.97188 -1.44997 0
M  V30 29965 H 3009.74 4.06196 0.964956 0
M  V30 29966 H 3011.13 6.26731 -2.42195 0
M  V30 29967 N 3013.85 0.508932 1.49156 0
M  V30 29968 C 3015.09 -0.0310263 2.04376 0
M  V30 29969 C 3015.45 -1.33545 1.37948 0
M  V30 29970 O 3016.65 -1.96014 1.83935 0
M  V30 29971 C 3014.92 -0.172128 3.56985 0
M  V30 29972 S 3016.48 -0.665191 4.33729 0
M  V30 29973 H 3013.3 0.00200515 0.710997 0
M  V30 29974 H 3015.9 0.684706 1.83118 0
M  V30 29975 H 3014.6 0.782411 4.02873 0
M  V30 29976 H 3014.14 -0.912866 3.82662 0
M  V30 29977 H 3016.15 -1.93312 4.56996 0
M  V30 29978 N 3015.32 -1.55714 0.243111 0
M  V30 29979 C 3016.25 -2.24204 -0.652297 0
M  V30 29980 C 3017.23 -1.22102 -1.18428 0
M  V30 29981 O 3018.42 -1.50745 -1.22432 0
M  V30 29982 C 3015.55 -2.93859 -1.85105 0
M  V30 29983 C 3014.5 -4.02617 -1.45201 0
M  V30 29984 C 3013.83 -4.59679 -2.73129 0
M  V30 29985 C 3015.13 -5.18536 -0.625897 0
M  V30 29986 H 3016.82 -2.9929 -0.0811978 0
M  V30 29987 H 3014.37 -1.43951 -0.0376135 0
M  V30 29988 H 3016.32 -3.40472 -2.48308 0
M  V30 29989 H 3015.05 -2.16255 -2.44747 0
M  V30 29990 H 3013.71 -3.56768 -0.843343 0
M  V30 29991 H 3013.35 -3.7878 -3.3096 0
M  V30 29992 H 3013.05 -5.33094 -2.47154 0
M  V30 29993 H 3014.58 -5.09023 -3.37236 0
M  V30 29994 H 3015.99 -5.61398 -1.16213 0
M  V30 29995 H 3014.39 -5.98316 -0.462359 0
M  V30 29996 H 3015.46 -4.83541 0.362737 0
M  V30 29997 N 3016.8 0.030048 -1.57571 0
M  V30 29998 C 3018.04 0.725913 -1.91076 0
M  V30 29999 C 3018.41 1.72573 -0.841575 0
M  V30 30000 O 3019.61 2.46977 -1.06092 0
M  V30 30001 C 3017.88 1.37882 -3.29732 0
M  V30 30002 S 3019.44 2.10398 -3.85069 0
M  V30 30003 H 3016.26 0.240503 -0.669088 0
M  V30 30004 H 3018.86 -0.0194184 -1.9549 0
M  V30 30005 H 3017.56 0.637903 -4.05412 0
M  V30 30006 H 3017.09 2.16272 -3.28618 0
M  V30 30007 H 3019.11 3.37527 -3.63717 0
M  V30 30008 N 3018.28 1.54674 0.3023 0
M  V30 30009 C 3019.23 1.85535 1.37279 0
M  V30 30010 C 3020.2 0.704156 1.50436 0
M  V30 30011 O 3021.38 0.952656 1.65315 0
M  V30 30012 C 3018.52 2.10709 2.73305 0
M  V30 30013 C 3017.64 3.3834 2.68608 0
M  V30 30014 C 3016.77 3.53364 3.9662 0
M  V30 30015 C 3015.81 4.74791 3.86315 0
M  V30 30016 N 3014.95 4.86628 5.061 0
M  V30 30017 H 3019.79 2.76851 1.10261 0
M  V30 30018 H 3017.32 1.37092 0.533322 0
M  V30 30019 H 3019.28 2.233 3.5241 0
M  V30 30020 H 3017.91 1.22661 2.98587 0
M  V30 30021 H 3016.96 3.34376 1.81375 0
M  V30 30022 H 3018.28 4.27566 2.56883 0
M  V30 30023 H 3017.43 3.65612 4.84162 0
M  V30 30024 H 3016.17 2.62269 4.11177 0
M  V30 30025 H 3015.17 4.62577 2.97157 0
M  V30 30026 H 3016.4 5.67292 3.73305 0
M  V30 30027 H 3014.34 3.98455 5.21123 0
M  V30 30028 H 3014.26 5.69853 4.96794 0
M  V30 30029 H 3015.53 5.03231 5.95297 0
M  V30 30030 N 3019.76 -0.565428 1.47108 0
M  V30 30031 C 3020.72 -1.65525 1.58538 0
M  V30 30032 C 3021.72 -1.54047 0.461108 0
M  V30 30033 O 3022.91 -1.58353 0.725938 0
M  V30 30034 C 3020.04 -3.05033 1.52209 0
M  V30 30035 H 3021.24 -1.56742 2.55679 0
M  V30 30036 H 3018.79 -0.784687 1.35175 0
M  V30 30037 H 3019.52 -3.19356 0.564128 0
M  V30 30038 H 3019.31 -3.14773 2.33796 0
M  V30 30039 H 3020.8 -3.84335 1.63329 0
M  V30 30040 N 3021.24 -1.35102 -0.811492 0
M  V30 30041 C 3022.48 -1.27847 -1.56523 0
M  V30 30042 C 3022.81 0.148255 -1.94436 0
M  V30 30043 O 3022.08 1.08356 -1.63205 0
M  V30 30044 H 3020.66 -0.47023 -0.580425 0
M  V30 30045 H 3023.32 -1.69148 -0.968247 0
M  V30 30046 H 3022.41 -1.89102 -2.48288 0
M  V30 30047 N 3022.71 1.03306 -1.19019 0
M  V30 30048 C 3023.96 1.76898 -0.991712 0
M  V30 30049 C 3024.29 1.88256 0.47678 0
M  V30 30050 O 3023.57 1.39627 1.35405 0
M  V30 30051 C 3023.85 3.19746 -1.65633 0
M  V30 30052 C 3023.7 3.16285 -3.19819 0
M  V30 30053 C 3025.02 4.18041 -1.37586 0
M  V30 30054 H 3022.14 0.642147 -0.361685 0
M  V30 30055 H 3024.78 1.20626 -1.46797 0
M  V30 30056 H 3022.93 3.67794 -1.25139 0
M  V30 30057 H 3024.61 2.76167 -3.69499 0
M  V30 30058 H 3022.85 2.54111 -3.51582 0
M  V30 30059 H 3023.52 4.1719 -3.61465 0
M  V30 30060 H 3026 3.78575 -1.72686 0
M  V30 30061 H 3024.87 5.16193 -1.86645 0
M  V30 30062 H 3025.13 4.4108 -0.300196 0
M  V30 30063 N 3024.19 0.99344 1.22346 0
M  V30 30064 C 3025.42 0.688055 1.95124 0
M  V30 30065 C 3025.84 -0.747358 1.73378 0
M  V30 30066 O 3025.19 -1.50437 1.03319 0
M  V30 30067 C 3025.24 0.985158 3.47817 0
M  V30 30068 O 3024.96 2.36417 3.68834 0
M  V30 30069 C 3026.47 0.697551 4.37777 0
M  V30 30070 H 3023.69 0.254492 0.620866 0
M  V30 30071 H 3026.23 1.32836 1.55483 0
M  V30 30072 H 3024.38 0.390651 3.85425 0
M  V30 30073 H 3024.8 2.46385 4.63028 0
M  V30 30074 H 3026.27 0.955699 5.43664 0
M  V30 30075 H 3026.75 -0.368447 4.37652 0
M  V30 30076 H 3027.36 1.27313 4.05797 0
M  V30 30077 N 3025.67 -1.37693 0.766707 0
M  V30 30078 C 3026.92 -1.99419 0.3281 0
M  V30 30079 C 3027.24 -1.61168 -1.09772 0
M  V30 30080 O 3026.51 -0.874717 -1.75287 0
M  V30 30081 H 3025.09 -0.737569 0.118323 0
M  V30 30082 H 3027.75 -1.68253 0.983715 0
M  V30 30083 H 3026.85 -3.09504 0.401701 0
M  V30 30084 N 3027.15 -0.516835 -1.48884 0
M  V30 30085 C 3028.56 -0.173816 -1.58651 0
M  V30 30086 C 3028.76 1.3224 -1.52035 0
M  V30 30087 O 3027.82 2.09964 -1.40254 0
M  V30 30088 C 3029.13 -0.764679 -2.90815 0
M  V30 30089 C 3030.68 -0.732218 -3.04315 0
M  V30 30090 C 3031.16 -1.30142 -4.39121 0
M  V30 30091 N 3032.65 -1.26281 -4.45654 0
M  V30 30092 C 3033.38 -1.67326 -5.48443 0
M  V30 30093 N 3032.88 -2.16039 -6.58254 0
M  V30 30094 N 3034.67 -1.58645 -5.39248 0
M  V30 30095 H 3026.82 -1.48942 -1.51427 0
M  V30 30096 H 3029.09 -0.618746 -0.718232 0
M  V30 30097 H 3028.79 -1.81462 -3.01271 0
M  V30 30098 H 3028.67 -0.234179 -3.76472 0
M  V30 30099 H 3031.05 0.308924 -2.93479 0
M  V30 30100 H 3031.13 -1.30004 -2.20301 0
M  V30 30101 H 3030.78 -2.34143 -4.5071 0
M  V30 30102 H 3030.71 -0.709397 -5.218 0
M  V30 30103 H 3033.2 -0.906071 -3.66877 0
M  V30 30104 H 3033.51 -2.45387 -7.32806 0
M  V30 30105 H 3031.86 -2.20024 -6.59253 0
M  V30 30106 H 3035.05 -1.20395 -4.52352 0
M  V30 30107 H 3035.22 -1.90954 -6.19226 0
M  V30 30108 N 3028.63 1.55583 -0.251365 0
M  V30 30109 C 3030.04 1.59265 0.103381 0
M  V30 30110 C 3030.24 1.26855 1.56557 0
M  V30 30111 O 3029.3 1.018 2.31069 0
M  V30 30112 C 3030.61 2.9966 -0.249833 0
M  V30 30113 C 3032.16 3.12395 -0.194497 0
M  V30 30114 C 3032.63 4.55018 -0.521808 0
M  V30 30115 N 3034.13 4.60784 -0.472474 0
M  V30 30116 C 3034.86 5.69125 -0.698837 0
M  V30 30117 N 3034.36 6.85711 -0.988564 0
M  V30 30118 N 3036.15 5.58567 -0.629241 0
M  V30 30119 H 3028.3 1.74919 -1.20487 0
M  V30 30120 H 3030.56 0.814479 -0.485106 0
M  V30 30121 H 3030.27 3.2813 -1.26583 0
M  V30 30122 H 3030.14 3.74844 0.420907 0
M  V30 30123 H 3032.53 2.83703 0.812179 0
M  V30 30124 H 3032.61 2.39476 -0.899154 0
M  V30 30125 H 3032.26 4.84431 -1.52606 0
M  V30 30126 H 3032.19 5.26203 0.204376 0
M  V30 30127 H 3034.68 3.77022 -0.257452 0
M  V30 30128 H 3034.99 7.64217 -1.14859 0
M  V30 30129 H 3033.33 6.87384 -1.02608 0
M  V30 30130 H 3036.53 4.66363 -0.402908 0
M  V30 30131 H 3036.7 6.4293 -0.809048 0
M  V30 30132 N 3030.1 -0.0216912 1.57585 0
M  V30 30133 C 3031.34 -0.715769 1.91458 0
M  V30 30134 C 3031.71 -1.72124 0.850715 0
M  V30 30135 O 3032.91 -2.46411 1.07401 0
M  V30 30136 C 3031.18 -1.36132 3.30459 0
M  V30 30137 S 3032.74 -2.08353 3.86179 0
M  V30 30138 H 3029.56 -0.236951 0.670355 0
M  V30 30139 H 3032.16 0.0297854 1.95477 0
M  V30 30140 H 3030.86 -0.616394 4.05745 0
M  V30 30141 H 3030.39 -2.14527 3.2976 0
M  V30 30142 H 3032.41 -3.35593 3.65502 0
M  V30 30143 N 3031.58 -1.54832 -0.294093 0
M  V30 30144 C 3032.86 -1.65127 -1.04844 0
M  V30 30145 C 3033.24 -0.504022 -2.04995 0
M  V30 30146 O 3032.59 0.498457 -2.22997 0
M  V30 30147 C 3032.8 -3.03438 -1.72413 0
M  V30 30148 C 3034.15 -3.60485 -2.24356 0
M  V30 30149 O 3035.17 -3.05935 -1.82434 0
M  V30 30150 O 3034.03 -4.56013 -3.01188 0
M  V30 30151 H 3031.12 -0.669839 -0.48502 0
M  V30 30152 H 3033.67 -1.67175 -0.29163 0
M  V30 30153 H 3032.44 -3.78378 -0.997285 0
M  V30 30154 H 3032.06 -3.05198 -2.54833 0
M  V30 30155 N 3033.06 0.557619 -1.47405 0
M  V30 30156 C 3034.48 0.883506 -1.32915 0
M  V30 30157 C 3034.68 1.98954 -0.319325 0
M  V30 30158 O 3033.73 2.5106 0.269295 0
M  V30 30159 C 3035.05 1.27713 -2.72231 0
M  V30 30160 C 3036.59 1.38858 -2.80513 0
M  V30 30161 C 3037.07 1.81576 -4.20469 0
M  V30 30162 N 3038.56 1.88727 -4.23009 0
M  V30 30163 C 3039.3 2.23108 -5.28214 0
M  V30 30164 N 3038.79 2.56106 -6.43725 0
M  V30 30165 N 3040.58 2.23878 -5.15592 0
M  V30 30166 H 3032.74 -0.172594 -2.11698 0
M  V30 30167 H 3035 -0.0145501 -0.947888 0
M  V30 30168 H 3034.7 0.538268 -3.47557 0
M  V30 30169 H 3034.58 2.23337 -3.03975 0
M  V30 30170 H 3036.97 2.11826 -2.0546 0
M  V30 30171 H 3037.05 0.41423 -2.52424 0
M  V30 30172 H 3036.69 1.09178 -4.96027 0
M  V30 30173 H 3036.62 2.80013 -4.45982 0
M  V30 30174 H 3039.11 1.65615 -3.39677 0
M  V30 30175 H 3039.42 2.81366 -7.19759 0
M  V30 30176 H 3037.77 2.53687 -6.47046 0
M  V30 30177 H 3040.96 1.97539 -4.24377 0
M  V30 30178 H 3041.13 2.50343 -5.97689 0
M  V30 30179 N 3034.54 1.35531 0.804316 0
M  V30 30180 C 3035.78 1.30298 1.57486 0
M  V30 30181 C 3036.14 -0.120494 1.91622 0
M  V30 30182 O 3037.34 -0.297218 2.67152 0
M  V30 30183 C 3035.62 2.1862 2.82737 0
M  V30 30184 S 3037.17 2.30925 3.73121 0
M  V30 30185 H 3033.99 0.463023 0.539565 0
M  V30 30186 H 3036.59 1.70946 0.948571 0
M  V30 30187 H 3035.3 3.21018 2.55687 0
M  V30 30188 H 3034.83 1.78937 3.5035 0
M  V30 30189 H 3036.84 1.49574 4.73119 0
M  V30 30190 N 3036.02 -1.02674 1.19565 0
M  V30 30191 C 3036.95 -2.11084 0.893091 0
M  V30 30192 C 3037.96 -1.62393 -0.115072 0
M  V30 30193 O 3039.15 -1.78132 0.114621 0
M  V30 30194 C 3036.25 -3.37427 0.315593 0
M  V30 30195 C 3035.42 -4.15298 1.37283 0
M  V30 30196 C 3034.48 -5.19952 0.808489 0
M  V30 30197 O 3033.51 -5.49441 1.48671 0
M  V30 30198 N 3034.71 -5.79208 -0.387151 0
M  V30 30199 H 3037.48 -2.37629 1.82626 0
M  V30 30200 H 3035.04 -1.18982 1.09794 0
M  V30 30201 H 3037.03 -4.04629 -0.0758455 0
M  V30 30202 H 3035.6 -3.08212 -0.521907 0
M  V30 30203 H 3034.82 -3.43213 1.93903 0
M  V30 30204 H 3036.11 -4.6411 2.08517 0
M  V30 30205 H 3035.51 -5.5757 -0.955627 0
M  V30 30206 H 3034.06 -6.47807 -0.720344 0
M  V30 30207 N 3037.5 -0.999914 -1.21817 0
M  V30 30208 C 3038.41 -0.565199 -2.2769 0
M  V30 30209 C 3039.42 0.389368 -1.69588 0
M  V30 30210 O 3040.6 0.254464 -1.99786 0
M  V30 30211 C 3037.66 0.106371 -3.46537 0
M  V30 30212 C 3036.72 -0.892038 -4.1993 0
M  V30 30213 C 3035.96 -0.252421 -5.33103 0
M  V30 30214 O 3036.18 0.952004 -5.62399 0
M  V30 30215 O 3035.11 -0.960802 -5.94182 0
M  V30 30216 H 3038.94 -1.44618 -2.67057 0
M  V30 30217 H 3036.52 -0.768522 -1.28118 0
M  V30 30218 H 3038.41 0.482228 -4.18632 0
M  V30 30219 H 3037.08 0.961811 -3.09081 0
M  V30 30220 H 3035.99 -1.31896 -3.50078 0
M  V30 30221 H 3037.32 -1.7169 -4.61284 0
M  V30 30222 N 3038.97 1.37284 -0.773999 0
M  V30 30223 C 3040.22 1.99242 -0.338671 0
M  V30 30224 C 3040.54 1.61748 1.08916 0
M  V30 30225 O 3039.81 0.884001 1.74821 0
M  V30 30226 H 3038.39 0.736932 -0.122233 0
M  V30 30227 H 3041.05 1.67729 -0.992624 0
M  V30 30228 H 3040.15 3.09287 -0.418109 0
M  V30 30229 N 3040.45 0.524724 1.48608 0
M  V30 30230 C 3041.4 -0.260656 2.26505 0
M  V30 30231 C 3042.39 -0.914573 1.3238 0
M  V30 30232 O 3043.58 -0.818249 1.56951 0
M  V30 30233 C 3040.71 -1.31018 3.17316 0
M  V30 30234 C 3039.79 -0.661317 4.18912 0
M  V30 30235 N 3040.18 0.249899 5.05182 0
M  V30 30236 C 3038.48 -0.919143 4.36426 0
M  V30 30237 C 3039.18 0.6237 5.78347 0
M  V30 30238 N 3038.16 -0.0139883 5.43598 0
M  V30 30239 H 3041.96 0.440439 2.90581 0
M  V30 30240 H 3039.47 0.342392 1.5875 0
M  V30 30241 H 3041.47 -1.8865 3.71775 0
M  V30 30242 H 3040.13 -2.01271 2.54794 0
M  V30 30243 H 3041.14 0.622184 5.14149 0
M  V30 30244 H 3037.82 -1.61263 3.85098 0
M  V30 30245 H 3039.21 1.37057 6.57773 0
M  V30 30246 N 3041.93 -1.55447 0.259613 0
M  V30 30247 C 3043.18 -1.99246 -0.361572 0
M  V30 30248 C 3043.5 -1.1479 -1.57015 0
M  V30 30249 O 3042.76 -0.201759 -1.94657 0
M  V30 30250 C 3043.06 -3.4827 -0.802666 0
M  V30 30251 C 3042.72 -4.49904 0.299551 0
M  V30 30252 C 3041.39 -4.77416 0.602241 0
M  V30 30253 C 3043.74 -5.10657 1.04304 0
M  V30 30254 C 3041.07 -5.62954 1.65227 0
M  V30 30255 C 3043.42 -5.97333 2.08268 0
M  V30 30256 C 3042.08 -6.23174 2.39188 0
M  V30 30257 H 3041.35 -0.729092 -0.132309 0
M  V30 30258 H 3044 -1.8789 0.370092 0
M  V30 30259 H 3042.3 -3.57023 -1.61375 0
M  V30 30260 H 3044 -3.79555 -1.29378 0
M  V30 30261 H 3040.59 -4.28567 0.053501 0
M  V30 30262 H 3044.78 -4.89438 0.822444 0
M  V30 30263 H 3040.03 -5.81225 1.89703 0
M  V30 30264 H 3044.21 -6.43447 2.66362 0
M  V30 30265 H 3041.83 -6.89248 3.20689 0
M  V30 30266 N 3043.41 0.0133338 -1.57594 0
M  V30 30267 C 3044.66 0.699562 -1.89606 0
M  V30 30268 C 3044.98 1.75046 -0.85929 0
M  V30 30269 O 3044.25 1.95618 0.105078 0
M  V30 30270 H 3042.83 0.261373 -0.699781 0
M  V30 30271 H 3045.49 -0.0244386 -1.94885 0
M  V30 30272 H 3044.58 1.17923 -2.88965 0
M  V30 30273 N 3044.89 1.54985 0.285878 0
M  V30 30274 C 3046.13 1.74984 1.01917 0
M  V30 30275 C 3046.46 0.543849 1.86742 0
M  V30 30276 O 3045.72 -0.473938 1.89874 0
M  V30 30277 C 3046.01 3.00043 1.94188 0
M  V30 30278 C 3045.68 4.33164 1.25217 0
M  V30 30279 C 3044.34 4.69348 1.06141 0
M  V30 30280 C 3046.69 5.15624 0.760336 0
M  V30 30281 C 3044.02 5.85558 0.365888 0
M  V30 30282 C 3046.37 6.32551 0.0784675 0
M  V30 30283 C 3045.04 6.67385 -0.124119 0
M  V30 30284 H 3044.31 0.64031 0.372939 0
M  V30 30285 H 3046.96 1.89251 0.292618 0
M  V30 30286 H 3045.26 2.80621 2.73421 0
M  V30 30287 H 3046.96 3.12711 2.51023 0
M  V30 30288 H 3043.55 4.04717 1.41074 0
M  V30 30289 H 3047.73 4.88156 0.89538 0
M  V30 30290 H 3042.99 6.11079 0.198085 0
M  V30 30291 H 3047.16 6.95708 -0.310462 0
M  V30 30292 H 3044.79 7.57285 -0.665051 0
M  V30 30293 N 3046.36 -0.549794 1.47699 0
M  V30 30294 C 3047.64 -1.31072 1.45188 0
M  V30 30295 C 3048.02 -2.10546 0.152805 0
M  V30 30296 O 3047.37 -2.11467 -0.865669 0
M  V30 30297 C 3047.58 -2.20897 2.70195 0
M  V30 30298 C 3048.93 -2.81678 3.17715 0
M  V30 30299 O 3049.95 -2.31195 2.70975 0
M  V30 30300 O 3048.81 -3.73453 3.98992 0
M  V30 30301 H 3045.9 -0.590567 0.57893 0
M  V30 30302 H 3048.45 -0.568084 1.59909 0
M  V30 30303 H 3047.22 -1.61822 3.56272 0
M  V30 30304 H 3046.85 -3.02443 2.58097 0
M  V30 30305 N 3047.84 -1.35955 -0.797117 0
M  V30 30306 C 3049.09 -1.295 -1.55158 0
M  V30 30307 C 3049.41 0.127625 -1.94582 0
M  V30 30308 O 3048.68 1.06619 -1.64345 0
M  V30 30309 H 3047.26 -0.47636 -0.575405 0
M  V30 30310 H 3049.92 -1.70165 -0.950252 0
M  V30 30311 H 3049.02 -1.91725 -2.46268 0
M  V30 30312 N 3049.32 1.02038 -1.20108 0
M  V30 30313 C 3050.56 1.77122 -1.02016 0
M  V30 30314 C 3050.92 1.86881 0.440406 0
M  V30 30315 O 3052.13 2.58373 0.741395 0
M  V30 30316 C 3050.4 3.1542 -1.68063 0
M  V30 30317 S 3051.96 4.06587 -1.65023 0
M  V30 30318 H 3048.77 0.609626 -0.365893 0
M  V30 30319 H 3051.38 1.22203 -1.52599 0
M  V30 30320 H 3050.08 3.0594 -2.73549 0
M  V30 30321 H 3049.61 3.75413 -1.17595 0
M  V30 30322 H 3051.63 4.91513 -0.680427 0
M  V30 30323 N 3050.8 1.00636 1.21285 0
M  V30 30324 C 3052.05 0.688471 1.90012 0
M  V30 30325 C 3052.37 -0.783333 1.78575 0
M  V30 30326 O 3051.64 -1.56259 1.18152 0
M  V30 30327 H 3050.22 0.251661 0.703332 0
M  V30 30328 H 3052.88 1.27576 1.47344 0
M  V30 30329 H 3051.98 0.962833 2.96877 0
M  V30 30330 N 3052.28 -1.36872 0.781268 0
M  V30 30331 C 3053.52 -1.9906 0.349233 0
M  V30 30332 C 3053.85 -1.62323 -1.08057 0
M  V30 30333 O 3053.12 -0.89326 -1.74349 0
M  V30 30334 H 3051.7 -0.736273 0.126139 0
M  V30 30335 H 3054.36 -1.672 1.00151 0
M  V30 30336 H 3053.45 -3.09061 0.434506 0
M  V30 30337 N 3053.75 -0.532597 -1.48328 0
M  V30 30338 C 3054.99 -0.00149211 -2.044 0
M  V30 30339 C 3055.36 1.31333 -1.40056 0
M  V30 30340 O 3056.56 1.93063 -1.8703 0
M  V30 30341 C 3054.83 0.115313 -3.57214 0
M  V30 30342 S 3056.39 0.596104 -4.34732 0
M  V30 30343 H 3053.21 -0.0133162 -0.710875 0
M  V30 30344 H 3055.81 -0.713752 -1.82005 0
M  V30 30345 H 3054.51 -0.846406 -4.01577 0
M  V30 30346 H 3054.04 0.851872 -3.84066 0
M  V30 30347 H 3056.06 1.86017 -4.60013 0
M  V30 30348 N 3055.23 1.55307 -0.267853 0
M  V30 30349 C 3056.65 1.59366 0.0864827 0
M  V30 30350 C 3056.85 1.28508 1.55203 0
M  V30 30351 O 3055.9 1.04245 2.29977 0
M  V30 30352 C 3057.22 2.99379 -0.281602 0
M  V30 30353 C 3058.77 3.12171 -0.22762 0
M  V30 30354 C 3059.24 4.54439 -0.570039 0
M  V30 30355 N 3060.73 4.60257 -0.521319 0
M  V30 30356 C 3061.47 5.68352 -0.759161 0
M  V30 30357 N 3060.96 6.84624 -1.06124 0
M  V30 30358 N 3062.76 5.57868 -0.688449 0
M  V30 30359 H 3054.91 1.73631 -1.22335 0
M  V30 30360 H 3057.17 0.809288 -0.493717 0
M  V30 30361 H 3056.88 3.26769 -1.30056 0
M  V30 30362 H 3056.75 3.7527 0.381126 0
M  V30 30363 H 3059.14 2.84549 0.782043 0
M  V30 30364 H 3059.22 2.38509 -0.924503 0
M  V30 30365 H 3058.86 4.82786 -1.57735 0
M  V30 30366 H 3058.79 5.2639 0.148554 0
M  V30 30367 H 3061.28 3.76728 -0.297426 0
M  V30 30368 H 3061.6 7.62956 -1.22958 0
M  V30 30369 H 3059.94 6.86257 -1.09893 0
M  V30 30370 H 3063.13 4.65909 -0.45235 0
M  V30 30371 H 3063.3 6.42035 -0.877194 0
M  V30 30372 N 3056.71 -0.00497598 1.57599 0
M  V30 30373 C 3058.12 -0.548449 1.78463 0
M  V30 30374 C 3058.47 -1.74242 0.901899 0
M  V30 30375 O 3057.6 -2.16154 0.103052 0
M  V30 30376 C 3058.19 -1.00173 3.23652 0
M  V30 30377 C 3056.75 -1.49055 3.45629 0
M  V30 30378 C 3055.9 -0.439482 2.73795 0
M  V30 30379 H 3058.85 0.221208 1.57151 0
M  V30 30380 H 3058.87 -1.86799 3.31491 0
M  V30 30381 H 3058.38 -0.132539 3.87874 0
M  V30 30382 H 3056.48 -2.3808 2.86616 0
M  V30 30383 H 3056.6 -1.52144 4.54301 0
M  V30 30384 H 3054.96 -0.900001 2.38269 0
M  V30 30385 H 3055.74 0.420659 3.40713 0
M  V30 30386 N 3058.19 -1.55135 -0.277654 0
M  V30 30387 C 3059.43 -1.7727 -1.01758 0
M  V30 30388 C 3059.79 -0.559498 -1.83667 0
M  V30 30389 O 3060.99 -0.659018 -2.60596 0
M  V30 30390 C 3059.26 -3.03924 -1.88056 0
M  V30 30391 S 3060.82 -3.47159 -2.68377 0
M  V30 30392 H 3057.64 -0.622901 -0.342805 0
M  V30 30393 H 3060.24 -1.9336 -0.28848 0
M  V30 30394 H 3058.95 -3.90321 -1.26798 0
M  V30 30395 H 3058.48 -2.90487 -2.65294 0
M  V30 30396 H 3060.49 -3.06066 -3.90561 0
M  V30 30397 N 3059.67 0.541953 -1.47989 0
M  V30 30398 C 3060.63 1.62981 -1.61151 0
M  V30 30399 C 3061.63 1.53294 -0.485557 0
M  V30 30400 O 3062.82 1.57178 -0.751039 0
M  V30 30401 C 3059.95 3.02573 -1.57043 0
M  V30 30402 H 3061.14 1.52655 -2.58141 0
M  V30 30403 H 3058.7 0.763082 -1.36407 0
M  V30 30404 H 3059.43 3.18418 -0.614863 0
M  V30 30405 H 3059.22 3.11013 -2.38774 0
M  V30 30406 H 3060.71 3.81688 -1.69423 0
M  V30 30407 N 3061.15 1.36376 0.789896 0
M  V30 30408 C 3062.39 1.31961 1.56095 0
M  V30 30409 C 3062.75 -0.100163 1.91739 0
M  V30 30410 O 3063.95 -0.268866 2.67452 0
M  V30 30411 C 3062.22 2.21606 2.80402 0
M  V30 30412 S 3063.78 2.34869 3.70651 0
M  V30 30413 H 3060.6 0.46872 0.534624 0
M  V30 30414 H 3063.2 1.71942 0.930387 0
M  V30 30415 H 3061.9 3.23712 2.52267 0
M  V30 30416 H 3061.44 1.82643 3.48432 0
M  V30 30417 H 3063.45 1.54584 4.71506 0
M  V30 30418 N 3062.62 -1.014 1.20647 0
M  V30 30419 C 3063.87 -1.74693 1.01621 0
M  V30 30420 C 3064.19 -1.89679 -0.452405 0
M  V30 30421 O 3063.46 -1.44118 -1.3269 0
M  V30 30422 H 3062.04 -0.647195 0.373025 0
M  V30 30423 H 3064.7 -1.22238 1.51802 0
M  V30 30424 H 3063.8 -2.74954 1.4767 0
M  V30 30425 N 3064.1 -1.01278 -1.2075 0
M  V30 30426 C 3065.51 -0.732063 -1.71749 0
M  V30 30427 C 3065.86 0.749701 -1.81312 0
M  V30 30428 O 3064.99 1.58527 -1.47303 0
M  V30 30429 C 3065.58 -1.32222 -3.11934 0
M  V30 30430 C 3064.14 -1.09046 -3.60258 0
M  V30 30431 C 3063.29 -1.43026 -2.37568 0
M  V30 30432 H 3066.24 -1.18272 -1.05818 0
M  V30 30433 H 3066.26 -0.710837 -3.73801 0
M  V30 30434 H 3065.77 -2.40067 -3.04942 0
M  V30 30435 H 3063.87 -0.0295119 -3.72588 0
M  V30 30436 H 3063.99 -1.76782 -4.45292 0
M  V30 30437 H 3062.35 -0.849201 -2.40126 0
M  V30 30438 H 3063.13 -2.51919 -2.33221 0
M  V30 30439 N 3065.58 1.36456 -0.788516 0
M  V30 30440 C 3066.54 2.28392 -0.192249 0
M  V30 30441 C 3067.54 1.48785 0.60989 0
M  V30 30442 O 3068.73 1.68784 0.431017 0
M  V30 30443 C 3065.86 3.32903 0.734038 0
M  V30 30444 H 3067.06 2.82634 -1.00289 0
M  V30 30445 H 3064.61 1.46005 -0.557878 0
M  V30 30446 H 3065.35 2.83815 1.56905 0
M  V30 30447 H 3065.13 3.9177 0.160806 0
M  V30 30448 H 3066.62 4.01564 1.14612 0
M  V30 30449 N 3067.06 0.540456 1.48043 0
M  V30 30450 C 3068.02 -0.205926 2.28273 0
M  V30 30451 C 3069.02 -0.858185 1.35985 0
M  V30 30452 O 3070.21 -0.716623 1.58777 0
M  V30 30453 C 3067.34 -1.29911 3.15176 0
M  V30 30454 H 3068.54 0.498607 2.95726 0
M  V30 30455 H 3066.09 0.296772 1.53457 0
M  V30 30456 H 3066.82 -2.03657 2.52377 0
M  V30 30457 H 3066.61 -0.836408 3.83075 0
M  V30 30458 H 3068.1 -1.82381 3.75669 0
M  V30 30459 N 3068.54 -1.55163 0.276085 0
M  V30 30460 C 3069.45 -2.26231 -0.621026 0
M  V30 30461 C 3070.46 -1.28855 -1.16929 0
M  V30 30462 O 3071.64 -1.61793 -1.19937 0
M  V30 30463 C 3068.7 -2.97027 -1.78819 0
M  V30 30464 C 3067.76 -4.09883 -1.2765 0
M  V30 30465 C 3067 -4.77293 -2.38803 0
M  V30 30466 O 3067.22 -4.43918 -3.5818 0
M  V30 30467 O 3066.15 -5.6522 -2.06905 0
M  V30 30468 H 3069.98 -3.03666 -0.0452812 0
M  V30 30469 H 3067.56 -1.49337 0.0434537 0
M  V30 30470 H 3069.45 -3.41515 -2.46871 0
M  V30 30471 H 3068.12 -2.22507 -2.351 0
M  V30 30472 H 3067.03 -3.69848 -0.562415 0
M  V30 30473 H 3068.36 -4.86306 -0.759423 0
M  V30 30474 N 3070.01 -0.00338196 -1.576 0
M  V30 30475 C 3071.26 0.679413 -1.90338 0
M  V30 30476 C 3071.58 1.74125 -0.877808 0
M  V30 30477 O 3070.85 1.95718 0.0843241 0
M  V30 30478 H 3069.43 0.253936 -0.702514 0
M  V30 30479 H 3072.09 -0.0451074 -1.94848 0
M  V30 30480 H 3071.19 1.14852 -2.90199 0
M  V30 30481 N 3071.49 1.5528 0.269423 0
M  V30 30482 C 3072.72 1.80417 1.02296 0
M  V30 30483 C 3073.14 0.577394 1.79019 0
M  V30 30484 O 3072.5 -0.473094 1.75019 0
M  V30 30485 C 3072.55 3.03044 1.9544 0
M  V30 30486 O 3071.65 2.7838 3.04267 0
M  V30 30487 H 3070.99 0.596212 0.292279 0
M  V30 30488 H 3073.52 2.02429 0.297247 0
M  V30 30489 H 3073.53 3.31873 2.37327 0
M  V30 30490 H 3072.21 3.91981 1.3901 0
M  V30 30491 H 3070.78 2.60657 2.66669 0
M  V30 30492 N 3072.97 -0.534097 1.48274 0
M  V30 30493 C 3073.88 -1.66606 1.65165 0
M  V30 30494 C 3074.9 -1.65597 0.534206 0
M  V30 30495 O 3076.07 -1.84623 0.804747 0
M  V30 30496 C 3073.14 -3.03078 1.68359 0
M  V30 30497 C 3072.2 -3.14974 2.91701 0
M  V30 30498 C 3071.43 -4.44936 2.94733 0
M  V30 30499 O 3071.65 -5.31788 2.06295 0
M  V30 30500 O 3070.59 -4.61112 3.86858 0
M  V30 30501 H 3074.41 -1.55293 2.60994 0
M  V30 30502 H 3072 -0.706726 1.31627 0
M  V30 30503 H 3073.88 -3.84249 1.73005 0
M  V30 30504 H 3072.56 -3.14723 0.757033 0
M  V30 30505 H 3071.46 -2.33114 2.9259 0
M  V30 30506 H 3072.8 -3.08243 3.83728 0
M  V30 30507 N 3074.45 -1.36793 -0.782652 0
M  V30 30508 C 3075.69 -1.32786 -1.55393 0
M  V30 30509 C 3076.05 0.0899935 -1.91789 0
M  V30 30510 O 3077.25 0.254678 -2.67591 0
M  V30 30511 C 3075.52 -2.2309 -2.79223 0
M  V30 30512 S 3077.08 -2.36832 -3.694 0
M  V30 30513 H 3073.9 -0.471548 -0.532131 0
M  V30 30514 H 3076.5 -1.72433 -0.921255 0
M  V30 30515 H 3075.21 -3.25045 -2.50547 0
M  V30 30516 H 3074.74 -1.84488 -3.47459 0
M  V30 30517 H 3076.75 -1.57082 -4.7068 0
M  V30 30518 N 3075.93 1.00759 -1.21184 0
M  V30 30519 C 3076.88 2.07889 -0.936283 0
M  V30 30520 C 3077.86 1.60541 0.107453 0
M  V30 30521 O 3079.05 1.76711 -0.101131 0
M  V30 30522 C 3076.18 3.39639 -0.500008 0
M  V30 30523 C 3075.27 3.93663 -1.57767 0
M  V30 30524 N 3075.66 4.21085 -2.80216 0
M  V30 30525 C 3073.96 4.21911 -1.44594 0
M  V30 30526 C 3074.66 4.64778 -3.49795 0
M  V30 30527 N 3073.63 4.67596 -2.77228 0
M  V30 30528 H 3077.44 2.27012 -1.86663 0
M  V30 30529 H 3074.95 1.18808 -1.10718 0
M  V30 30530 H 3076.95 4.15932 -0.28397 0
M  V30 30531 H 3075.61 3.21925 0.423602 0
M  V30 30532 H 3076.62 4.09718 -3.16783 0
M  V30 30533 H 3073.29 4.13347 -0.587419 0
M  V30 30534 H 3074.68 4.94739 -4.54623 0
M  V30 30535 N 3077.4 1.01917 1.20211 0
M  V30 30536 C 3078.82 0.741161 1.71358 0
M  V30 30537 C 3079.17 -0.740076 1.81707 0
M  V30 30538 O 3078.29 -1.57743 1.48142 0
M  V30 30539 C 3078.89 1.33875 3.11228 0
M  V30 30540 C 3077.45 1.10955 3.59675 0
M  V30 30541 C 3076.59 1.44284 2.36807 0
M  V30 30542 H 3079.54 1.18832 1.05189 0
M  V30 30543 H 3079.56 0.73065 3.73419 0
M  V30 30544 H 3079.08 2.41681 3.03664 0
M  V30 30545 H 3077.18 0.0492707 3.72567 0
M  V30 30546 H 3077.29 1.79141 4.44348 0
M  V30 30547 H 3075.65 0.861924 2.39673 0
M  V30 30548 H 3076.44 2.53152 2.31881 0
M  V30 30549 N 3078.88 -1.36036 0.795742 0
M  V30 30550 C 3079.81 -2.28666 0.156377 0
M  V30 30551 C 3080.83 -1.49776 -0.638049 0
M  V30 30552 O 3082.02 -1.72141 -0.472192 0
M  V30 30553 C 3079.12 -3.29289 -0.801359 0
M  V30 30554 C 3078.29 -4.37365 -0.0556349 0
M  V30 30555 C 3077.35 -5.17912 -0.930247 0
M  V30 30556 O 3076.37 -5.67895 -0.385167 0
M  V30 30557 N 3077.58 -5.34965 -2.25373 0
M  V30 30558 H 3080.34 -2.84175 0.952083 0
M  V30 30559 H 3077.9 -1.48269 0.650216 0
M  V30 30560 H 3079.89 -3.80064 -1.39044 0
M  V30 30561 H 3078.46 -2.74374 -1.49792 0
M  V30 30562 H 3077.68 -3.87669 0.714576 0
M  V30 30563 H 3078.97 -5.06728 0.458722 0
M  V30 30564 H 3078.37 -4.95981 -2.72064 0
M  V30 30565 H 3076.93 -5.8896 -2.7923 0
M  V30 30566 N 3080.36 -0.5483 -1.47755 0
M  V30 30567 C 3081.59 -0.0235115 -2.07387 0
M  V30 30568 C 3082.01 1.25671 -1.39958 0
M  V30 30569 O 3081.37 1.7506 -0.471574 0
M  V30 30570 C 3081.42 0.164605 -3.60224 0
M  V30 30571 O 3080.52 1.22921 -3.93655 0
M  V30 30572 H 3079.86 -0.0473273 -0.662311 0
M  V30 30573 H 3082.39 -0.761442 -1.89903 0
M  V30 30574 H 3082.4 0.381588 -4.06212 0
M  V30 30575 H 3081.08 -0.770497 -4.08701 0
M  V30 30576 H 3079.65 0.993432 -3.59424 0
M  V30 30577 N 3081.84 1.55014 -0.28431 0
M  V30 30578 C 3083.09 1.99401 0.329177 0
M  V30 30579 C 3083.41 1.17419 1.55685 0
M  V30 30580 O 3082.68 0.265971 1.94086 0
M  V30 30581 H 3081.26 0.736532 0.124617 0
M  V30 30582 H 3083.92 1.90922 -0.391776 0
M  V30 30583 H 3083.02 3.06026 0.612726 0
M  V30 30584 N 3083.32 0.0117398 1.57596 0
M  V30 30585 C 3084.25 -1.00426 2.06027 0
M  V30 30586 C 3085.26 -1.29971 0.980371 0
M  V30 30587 O 3086.45 -1.26742 1.25693 0
M  V30 30588 C 3083.55 -2.33611 2.45518 0
M  V30 30589 C 3082.72 -2.22835 3.76382 0
M  V30 30590 C 3081.78 -3.38807 4.02612 0
M  V30 30591 O 3080.81 -3.16468 4.73114 0
M  V30 30592 N 3082.01 -4.6204 3.51424 0
M  V30 30593 H 3084.78 -0.591155 2.93812 0
M  V30 30594 H 3082.34 -0.175399 1.60947 0
M  V30 30595 H 3084.33 -3.09989 2.60171 0
M  V30 30596 H 3082.9 -2.66622 1.63191 0
M  V30 30597 H 3082.12 -1.31294 3.71693 0
M  V30 30598 H 3083.41 -2.12821 4.62152 0
M  V30 30599 H 3082.8 -4.83086 2.94355 0
M  V30 30600 H 3081.36 -5.35645 3.71387 0
M  V30 30601 N 3084.79 -1.55421 -0.261185 0
M  V30 30602 C 3086.03 -1.7834 -0.998716 0
M  V30 30603 C 3086.4 -0.578947 -1.83063 0
M  V30 30604 O 3087.6 -0.68662 -2.59883 0
M  V30 30605 C 3085.87 -3.05901 -1.84822 0
M  V30 30606 S 3087.43 -3.49986 -2.6468 0
M  V30 30607 H 3084.25 -0.626502 -0.336179 0
M  V30 30608 H 3086.85 -1.93655 -0.267956 0
M  V30 30609 H 3085.55 -3.91644 -1.22651 0
M  V30 30610 H 3085.08 -2.93284 -2.62198 0
M  V30 30611 H 3087.1 -3.10191 -3.87293 0
M  V30 30612 N 3086.27 0.526227 -1.48555 0
M  V30 30613 C 3087.22 1.62671 -1.59756 0
M  V30 30614 C 3088.21 1.54348 -0.454479 0
M  V30 30615 O 3089.4 1.62305 -0.70612 0
M  V30 30616 C 3086.53 3.0138 -1.64393 0
M  V30 30617 C 3085.61 3.14793 -2.84194 0
M  V30 30618 N 3086 2.98168 -4.0857 0
M  V30 30619 C 3084.3 3.45854 -2.81605 0
M  V30 30620 C 3085 3.15097 -4.88967 0
M  V30 30621 N 3083.98 3.42841 -4.21854 0
M  V30 30622 H 3087.78 1.48434 -2.53662 0
M  V30 30623 H 3085.3 0.731776 -1.44979 0
M  V30 30624 H 3087.29 3.80436 -1.70512 0
M  V30 30625 H 3085.95 3.16706 -0.716062 0
M  V30 30626 H 3086.96 2.74855 -4.38948 0
M  V30 30627 H 3083.64 3.67514 -1.9809 0
M  V30 30628 H 3085.03 3.0695 -5.97688 0
M  V30 30629 N 3087.75 1.37206 0.775387 0
M  V30 30630 C 3088.99 1.33609 1.54687 0
M  V30 30631 C 3089.35 -0.0798212 1.91834 0
M  V30 30632 O 3090.56 -0.240484 2.67722 0
M  V30 30633 C 3088.83 2.24568 2.78036 0
M  V30 30634 S 3090.39 2.38787 3.68139 0
M  V30 30635 H 3087.2 0.474364 0.529622 0
M  V30 30636 H 3089.81 1.72919 0.912098 0
M  V30 30637 H 3088.51 3.26369 2.4882 0
M  V30 30638 H 3088.04 1.86328 3.46476 0
M  V30 30639 H 3090.06 1.59576 4.6984 0
M  V30 30640 N 3089.23 -1.00115 1.21716 0
M  V30 30641 C 3090.64 -1.2633 0.975343 0
M  V30 30642 C 3090.84 -1.98679 -0.335994 0
M  V30 30643 O 3089.9 -2.29141 -1.06069 0
M  V30 30644 C 3091.21 -2.08316 2.16852 0
M  V30 30645 C 3092.76 -2.2153 2.21119 0
M  V30 30646 C 3093.24 -3.069 3.39966 0
M  V30 30647 N 3094.73 -3.14488 3.40076 0
M  V30 30648 C 3095.46 -3.8081 4.28685 0
M  V30 30649 N 3094.96 -4.4913 5.27498 0
M  V30 30650 N 3096.75 -3.77489 4.16483 0
M  V30 30651 H 3088.9 -0.51586 2.0604 0
M  V30 30652 H 3091.17 -0.290392 0.902428 0
M  V30 30653 H 3090.87 -1.62509 3.11903 0
M  V30 30654 H 3090.75 -3.09069 2.16231 0
M  V30 30655 H 3093.13 -2.66554 1.26621 0
M  V30 30656 H 3093.21 -1.20234 2.25782 0
M  V30 30657 H 3092.86 -2.62577 4.34759 0
M  V30 30658 H 3092.79 -4.08318 3.32542 0
M  V30 30659 H 3095.28 -2.65857 2.68568 0
M  V30 30660 H 3095.59 -4.97453 5.91406 0
M  V30 30661 H 3093.94 -4.47904 5.3142 0
M  V30 30662 H 3097.13 -3.23272 3.38545 0
M  V30 30663 H 3097.3 -4.28899 4.85746 0
M  V30 30664 N 3090.71 -1.02553 -1.19669 0
M  V30 30665 C 3092.12 -0.750238 -1.70963 0
M  V30 30666 C 3092.47 0.730429 -1.82097 0
M  V30 30667 O 3091.59 1.56955 -1.48976 0
M  V30 30668 C 3092.19 -1.35523 -3.10514 0
M  V30 30669 C 3090.75 -1.12861 -3.59081 0
M  V30 30670 C 3089.9 -1.45538 -2.36038 0
M  V30 30671 H 3092.85 -1.19388 -1.04557 0
M  V30 30672 H 3092.87 -0.750443 -3.73026 0
M  V30 30673 H 3092.38 -2.43288 -3.02379 0
M  V30 30674 H 3090.48 -0.0690282 -3.72536 0
M  V30 30675 H 3090.59 -1.81495 -4.43392 0
M  V30 30676 H 3088.96 -0.874622 -2.39212 0
M  V30 30677 H 3089.74 -2.54378 -2.30536 0
M  V30 30678 N 3092.19 1.35612 -0.802945 0
M  V30 30679 C 3093.43 1.98479 -0.380857 0
M  V30 30680 C 3093.75 1.64021 1.05461 0
M  V30 30681 O 3093.02 0.920884 1.72906 0
M  V30 30682 H 3091.6 0.734173 -0.137836 0
M  V30 30683 H 3094.27 1.65586 -1.02798 0
M  V30 30684 H 3093.36 3.0833 -0.483619 0
M  V30 30685 N 3093.66 0.556128 1.47462 0
M  V30 30686 C 3094.89 0.0364948 2.06868 0
M  V30 30687 C 3095.31 -1.25674 1.40895 0
M  V30 30688 O 3094.66 -1.75371 0.505114 0
M  V30 30689 C 3094.71 -0.163921 3.61128 0
M  V30 30690 O 3094.44 1.0781 4.24628 0
M  V30 30691 C 3095.94 -0.720959 4.37398 0
M  V30 30692 H 3093.16 0.0453517 0.669466 0
M  V30 30693 H 3095.7 0.769231 1.89481 0
M  V30 30694 H 3093.86 -0.846783 3.78032 0
M  V30 30695 H 3094.27 0.875158 5.17147 0
M  V30 30696 H 3095.74 -0.810488 5.46017 0
M  V30 30697 H 3096.22 -1.73198 4.03607 0
M  V30 30698 H 3096.83 -0.0738292 4.25236 0
M  V30 30699 N 3095.14 -1.54861 0.292527 0
M  V30 30700 C 3096.07 -2.19357 -0.629117 0
M  V30 30701 C 3097.05 -1.16016 -1.13925 0
M  V30 30702 O 3098.24 -1.44621 -1.20901 0
M  V30 30703 C 3095.36 -2.83068 -1.85985 0
M  V30 30704 C 3094.41 -3.99861 -1.48369 0
M  V30 30705 S 3095.24 -5.327 -0.546882 0
M  V30 30706 C 3096.4 -5.99889 -1.7856 0
M  V30 30707 H 3096.63 -2.97189 -0.0811643 0
M  V30 30708 H 3094.16 -1.54209 0.0766992 0
M  V30 30709 H 3096.12 -3.20402 -2.56618 0
M  V30 30710 H 3094.78 -2.05096 -2.37896 0
M  V30 30711 H 3093.98 -4.43192 -2.39994 0
M  V30 30712 H 3093.58 -3.6404 -0.857383 0
M  V30 30713 H 3095.87 -6.20181 -2.7273 0
M  V30 30714 H 3096.81 -6.94223 -1.395 0
M  V30 30715 H 3097.22 -5.29438 -1.95846 0
M  V30 30716 N 3096.62 -0.0200973 -1.57587 0
M  V30 30717 C 3097.87 0.659187 -1.91047 0
M  V30 30718 C 3098.19 1.73184 -0.896227 0
M  V30 30719 O 3097.46 1.95797 0.0635608 0
M  V30 30720 H 3096.04 0.24647 -0.705168 0
M  V30 30721 H 3098.7 -0.065771 -1.94789 0
M  V30 30722 H 3097.8 1.11767 -2.91401 0
M  V30 30723 N 3098.1 1.55557 0.252939 0
M  V30 30724 C 3099.51 1.67607 0.822473 0
M  V30 30725 C 3099.86 0.616444 1.86264 0
M  V30 30726 O 3098.98 -0.23841 2.15083 0
M  V30 30727 C 3099.58 3.03854 1.4986 0
M  V30 30728 C 3098.14 3.17865 2.01591 0
M  V30 30729 C 3097.29 2.63467 0.864896 0
M  V30 30730 H 3100.24 1.58674 0.0288679 0
M  V30 30731 H 3100.26 2.97962 2.3664 0
M  V30 30732 H 3099.77 3.80954 0.741311 0
M  V30 30733 H 3097.87 2.45576 2.8022 0
M  V30 30734 H 3097.98 4.24695 2.21744 0
M  V30 30735 H 3096.35 2.21136 1.26377 0
M  V30 30736 H 3097.13 3.43087 0.120787 0
M  V30 30737 N 3099.58 -0.518341 1.48832 0
M  V30 30738 C 3100.51 -1.638 1.60319 0
M  V30 30739 C 3101.52 -1.55352 0.486798 0
M  V30 30740 O 3102.71 -1.616 0.75814 0
M  V30 30741 C 3099.81 -3.02511 1.52776 0
M  V30 30742 C 3098.98 -3.36321 2.79655 0
M  V30 30743 C 3098.04 -4.54365 2.65404 0
M  V30 30744 O 3097.07 -4.57008 3.39312 0
M  V30 30745 N 3098.27 -5.53242 1.75793 0
M  V30 30746 H 3101.03 -1.54378 2.5688 0
M  V30 30747 H 3098.6 -0.705863 1.45702 0
M  V30 30748 H 3100.59 -3.79372 1.40921 0
M  V30 30749 H 3099.16 -3.05948 0.641435 0
M  V30 30750 H 3098.38 -2.48524 3.05989 0
M  V30 30751 H 3099.67 -3.55701 3.63805 0
M  V30 30752 H 3099.06 -5.53894 1.1497 0
M  V30 30753 H 3097.62 -6.29275 1.6987 0
M  V30 30754 N 3101.05 -1.37615 -0.7681 0
M  V30 30755 C 3102.29 -1.34427 -1.53976 0
M  V30 30756 C 3102.66 0.0696466 -1.91874 0
M  V30 30757 O 3103.86 0.226283 -2.67846 0
M  V30 30758 C 3102.13 -2.26039 -2.76841 0
M  V30 30759 S 3103.69 -2.40736 -3.66867 0
M  V30 30760 H 3100.51 -0.477166 -0.527099 0
M  V30 30761 H 3103.11 -1.734 -0.902915 0
M  V30 30762 H 3101.81 -3.27684 -2.47085 0
M  V30 30763 H 3101.34 -1.88163 -3.45483 0
M  V30 30764 H 3103.36 -1.62065 -4.68987 0
M  V30 30765 N 3102.53 0.994677 -1.22245 0
M  V30 30766 C 3103.95 1.25811 -0.982028 0
M  V30 30767 C 3104.15 1.98854 0.325453 0
M  V30 30768 O 3103.2 2.297 1.04853 0
M  V30 30769 C 3104.52 2.07164 -2.17954 0
M  V30 30770 C 3106.06 2.20354 -2.22291 0
M  V30 30771 C 3106.54 3.05092 -3.41588 0
M  V30 30772 N 3108.03 3.1268 -3.41739 0
M  V30 30773 C 3108.77 3.78532 -4.30699 0
M  V30 30774 N 3108.26 4.46326 -5.29873 0
M  V30 30775 N 3110.05 3.75275 -4.18479 0
M  V30 30776 H 3102.21 0.504926 -2.06311 0
M  V30 30777 H 3104.47 0.285602 -0.903955 0
M  V30 30778 H 3104.17 1.60853 -3.12761 0
M  V30 30779 H 3104.05 3.07918 -2.17867 0
M  V30 30780 H 3106.44 2.65879 -1.28032 0
M  V30 30781 H 3106.52 1.19035 -2.26416 0
M  V30 30782 H 3106.16 2.60268 -4.36146 0
M  V30 30783 H 3106.09 4.06549 -3.34702 0
M  V30 30784 H 3108.58 2.64429 -2.69974 0
M  V30 30785 H 3108.89 4.94309 -5.94035 0
M  V30 30786 H 3107.24 4.4508 -5.33787 0
M  V30 30787 H 3110.43 3.21472 -3.40255 0
M  V30 30788 H 3110.6 4.26317 -4.88014 0
M  V30 30789 N 3104.01 1.03186 1.19123 0
M  V30 30790 C 3104.92 0.625369 2.26111 0
M  V30 30791 C 3105.94 -0.344268 1.7056 0
M  V30 30792 O 3107.11 -0.201404 2.0039 0
M  V30 30793 C 3104.18 -0.0144559 3.46697 0
M  V30 30794 C 3103.24 1.00306 4.17417 0
M  V30 30795 C 3102.47 0.393675 5.32246 0
M  V30 30796 O 3102.69 -0.802559 5.64726 0
M  V30 30797 O 3101.63 1.118 5.91426 0
M  V30 30798 H 3105.45 1.51648 2.63129 0
M  V30 30799 H 3103.04 0.80222 1.26035 0
M  V30 30800 H 3104.92 -0.371065 4.19763 0
M  V30 30801 H 3103.6 -0.879526 3.11522 0
M  V30 30802 H 3102.5 1.41131 3.46458 0
M  V30 30803 H 3103.84 1.8386 4.5657 0
M  V30 30804 N 3105.49 -1.35184 0.810125 0
M  V30 30805 C 3106.73 -2.00491 0.397837 0
M  V30 30806 C 3107.09 -1.62865 -1.01681 0
M  V30 30807 O 3108.29 -2.20918 -1.53129 0
M  V30 30808 C 3106.56 -3.52669 0.579586 0
M  V30 30809 S 3108.12 -4.38039 0.258246 0
M  V30 30810 H 3104.94 -0.694799 0.150917 0
M  V30 30811 H 3107.54 -1.64709 1.05315 0
M  V30 30812 H 3106.25 -3.77541 1.60908 0
M  V30 30813 H 3105.78 -3.93295 -0.0909195 0
M  V30 30814 H 3107.79 -4.87353 -0.932797 0
M  V30 30815 N 3106.97 -0.56394 -1.47165 0
M  V30 30816 C 3107.93 0.169583 -2.28572 0
M  V30 30817 C 3108.93 0.836443 -1.37333 0
M  V30 30818 O 3110.12 0.691272 -1.59897 0
M  V30 30819 C 3107.25 1.2488 -3.17203 0
M  V30 30820 H 3108.44 -0.545591 -2.94895 0
M  V30 30821 H 3106 -0.321148 -1.52965 0
M  V30 30822 H 3106.73 1.99616 -2.55585 0
M  V30 30823 H 3106.52 0.775358 -3.84357 0
M  V30 30824 H 3108.01 1.76381 -3.78523 0
M  V30 30825 N 3108.44 1.54704 -0.300735 0
M  V30 30826 C 3109.86 1.85711 0.191962 0
M  V30 30827 C 3110.21 1.22267 1.53445 0
M  V30 30828 O 3109.33 0.520263 2.10053 0
M  V30 30829 C 3109.93 3.36934 0.355089 0
M  V30 30830 C 3108.49 3.67973 0.792006 0
M  V30 30831 C 3107.63 2.7712 -0.0998048 0
M  V30 30832 H 3110.58 1.49878 -0.521756 0
M  V30 30833 H 3110.6 3.61423 1.1897 0
M  V30 30834 H 3110.12 3.83081 -0.622143 0
M  V30 30835 H 3108.22 3.27344 1.7798 0
M  V30 30836 H 3108.33 4.75181 0.611578 0
M  V30 30837 H 3106.69 2.51199 0.420864 0
M  V30 30838 H 3107.48 3.26088 -1.07339 0
M  V30 30839 N 3109.92 0.0284543 1.57574 0
M  V30 30840 C 3111.17 -0.649046 1.91394 0
M  V30 30841 C 3111.49 -1.72706 0.905399 0
M  V30 30842 O 3110.76 -1.95828 -0.0531763 0
M  V30 30843 H 3109.34 -0.242727 0.706465 0
M  V30 30844 H 3112 0.0761002 1.94751 0
M  V30 30845 H 3111.1 -1.10221 2.91989 0
M  V30 30846 N 3111.4 -1.55689 -0.244686 0
M  V30 30847 C 3112.63 -1.81419 -0.988476 0
M  V30 30848 C 3113.04 -0.602175 -1.79361 0
M  V30 30849 O 3112.38 0.438607 -1.78387 0
M  V30 30850 C 3112.44 -3.00533 -1.97282 0
M  V30 30851 C 3112.11 -4.36469 -1.3544 0
M  V30 30852 C 3113.1 -5.14377 -0.755784 0
M  V30 30853 C 3110.79 -4.83168 -1.3731 0
M  V30 30854 C 3112.78 -6.37134 -0.184106 0
M  V30 30855 C 3110.47 -6.05873 -0.797574 0
M  V30 30856 C 3111.47 -6.82695 -0.204104 0
M  V30 30857 O 3111.16 -8.03082 0.362533 0
M  V30 30858 H 3110.89 -0.607554 -0.296401 0
M  V30 30859 H 3113.44 -2.03589 -0.272149 0
M  V30 30860 H 3111.67 -2.74124 -2.72751 0
M  V30 30861 H 3113.36 -3.13336 -2.58022 0
M  V30 30862 H 3114.13 -4.79416 -0.733827 0
M  V30 30863 H 3110.01 -4.23363 -1.82442 0
M  V30 30864 H 3113.55 -6.97039 0.279747 0
M  V30 30865 H 3109.45 -6.40311 -0.816866 0
M  V30 30866 H 3110.22 -8.18104 0.254611 0
M  V30 30867 N 3112.88 0.510441 -1.49105 0
M  V30 30868 C 3114.12 1.26441 -1.59324 0
M  V30 30869 C 3114.48 1.90464 -0.272224 0
M  V30 30870 O 3113.77 1.77283 0.726731 0
M  V30 30871 C 3113.97 2.36156 -2.68263 0
M  V30 30872 C 3113.8 1.8289 -4.1083 0
M  V30 30873 C 3112.57 1.64614 -4.77734 0
M  V30 30874 C 3114.76 1.34616 -4.9637 0
M  V30 30875 N 3112.75 1.06179 -6.04648 0
M  V30 30876 C 3114.12 0.882548 -6.13686 0
M  V30 30877 C 3116.17 1.23101 -4.82442 0
M  V30 30878 C 3114.87 0.31518 -7.18609 0
M  V30 30879 C 3116.9 0.677623 -5.87505 0
M  V30 30880 C 3116.26 0.224184 -7.04043 0
M  V30 30881 H 3112.36 0.452988 -0.637437 0
M  V30 30882 H 3114.95 0.573204 -1.86071 0
M  V30 30883 H 3113.12 3.02749 -2.43305 0
M  V30 30884 H 3114.85 3.03195 -2.68057 0
M  V30 30885 H 3111.6 1.88708 -4.3438 0
M  V30 30886 H 3112.03 0.789152 -6.72385 0
M  V30 30887 H 3116.67 1.56759 -3.92666 0
M  V30 30888 H 3114.39 -0.0336845 -8.08093 0
M  V30 30889 H 3117.97 0.591433 -5.78786 0
M  V30 30890 H 3116.85 -0.19735 -7.83952 0
M  V30 30891 N 3114.36 1.38021 0.760791 0
M  V30 30892 C 3115.6 1.33568 1.5167 0
M  V30 30893 C 3115.93 -0.0759898 1.94852 0
M  V30 30894 O 3115.2 -1.02224 1.67114 0
M  V30 30895 H 3113.78 0.491448 0.562573 0
M  V30 30896 H 3116.44 1.72625 0.904802 0
M  V30 30897 H 3115.53 1.98187 2.41099 0
M  V30 30898 N 3115.83 -0.98818 1.22771 0
M  V30 30899 C 3116.76 -2.09736 1.02631 0
M  V30 30900 C 3117.75 -1.70013 -0.0542912 0
M  V30 30901 O 3118.93 -1.93895 0.108845 0
M  V30 30902 C 3116.06 -3.4193 0.608362 0
M  V30 30903 C 3115.01 -3.95522 1.63543 0
M  V30 30904 C 3114.34 -5.2382 1.07317 0
M  V30 30905 C 3115.64 -4.25671 3.02657 0
M  V30 30906 H 3117.33 -2.26843 1.95404 0
M  V30 30907 H 3114.88 -1.09009 0.940907 0
M  V30 30908 H 3116.83 -4.18941 0.454552 0
M  V30 30909 H 3115.56 -3.24665 -0.355038 0
M  V30 30910 H 3114.22 -3.20648 1.77709 0
M  V30 30911 H 3113.86 -5.02899 0.100982 0
M  V30 30912 H 3113.56 -5.60643 1.75935 0
M  V30 30913 H 3115.09 -6.0346 0.931044 0
M  V30 30914 H 3116.5 -4.93461 2.91837 0
M  V30 30915 H 3114.9 -4.73678 3.68442 0
M  V30 30916 H 3115.97 -3.33255 3.52234 0
M  V30 30917 N 3117.31 -1.03816 -1.18575 0
M  V30 30918 C 3118.72 -0.768329 -1.70158 0
M  V30 30919 C 3119.07 0.711074 -1.82861 0
M  V30 30920 O 3118.2 1.55366 -1.50633 0
M  V30 30921 C 3118.79 -1.38809 -3.09059 0
M  V30 30922 C 3117.35 -1.16663 -3.57864 0
M  V30 30923 C 3116.5 -1.48033 -2.34481 0
M  V30 30924 H 3119.45 -1.2049 -1.03285 0
M  V30 30925 H 3119.47 -0.789966 -3.72209 0
M  V30 30926 H 3118.98 -2.46481 -2.99781 0
M  V30 30927 H 3117.09 -0.108537 -3.72442 0
M  V30 30928 H 3117.2 -1.86188 -4.41442 0
M  V30 30929 H 3115.56 -0.899944 -2.38271 0
M  V30 30930 H 3116.35 -2.56809 -2.27825 0
M  V30 30931 N 3118.79 1.34753 -0.817283 0
M  V30 30932 C 3119.7 2.334 -0.236987 0
M  V30 30933 C 3120.72 1.62362 0.625657 0
M  V30 30934 O 3121.89 1.94167 0.534887 0
M  V30 30935 C 3118.96 3.41536 0.596155 0
M  V30 30936 C 3118.02 4.28331 -0.28823 0
M  V30 30937 C 3117.25 5.31303 0.505243 0
M  V30 30938 O 3117.47 5.43244 1.73902 0
M  V30 30939 O 3116.41 6.018 -0.10948 0
M  V30 30940 H 3120.23 2.84849 -1.05333 0
M  V30 30941 H 3117.82 1.37712 -0.579299 0
M  V30 30942 H 3119.7 4.0758 1.07034 0
M  V30 30943 H 3118.38 2.92341 1.38991 0
M  V30 30944 H 3117.28 3.6523 -0.809788 0
M  V30 30945 H 3118.62 4.80953 -1.0462 0
M  V30 30946 N 3120.27 0.571737 1.46864 0
M  V30 30947 C 3121.2 -0.205439 2.28277 0
M  V30 30948 C 3122.21 -0.86581 1.37868 0
M  V30 30949 O 3123.4 -0.737218 1.62565 0
M  V30 30950 C 3120.5 -1.3096 3.12574 0
M  V30 30951 C 3119.68 -0.743252 4.31039 0
M  V30 30952 C 3118.74 -1.73373 4.96818 0
M  V30 30953 O 3117.76 -1.2741 5.54757 0
M  V30 30954 N 3118.96 -3.06755 4.9283 0
M  V30 30955 H 3121.73 0.492992 2.95617 0
M  V30 30956 H 3119.29 0.408771 1.56655 0
M  V30 30957 H 3121.28 -1.97125 3.53446 0
M  V30 30958 H 3119.85 -1.91105 2.47381 0
M  V30 30959 H 3119.07 0.0955697 3.94084 0
M  V30 30960 H 3120.36 -0.344467 5.07633 0
M  V30 30961 H 3119.76 -3.4673 4.46984 0
M  V30 30962 H 3118.31 -3.68439 5.37676 0
M  V30 30963 N 3121.75 -1.54542 0.308935 0
M  V30 30964 C 3123 -1.999 -0.297412 0
M  V30 30965 C 3123.32 -1.19881 -1.53797 0
M  V30 30966 O 3122.59 -0.296814 -1.93638 0
M  V30 30967 H 3121.17 -0.738421 -0.112884 0
M  V30 30968 H 3123.83 -1.90274 0.422101 0
M  V30 30969 H 3122.92 -3.06962 -0.563962 0
M  V30 30970 N 3123.23 -0.0368104 -1.57557 0
M  V30 30971 C 3124.47 0.644218 -1.93982 0
M  V30 30972 C 3124.83 1.68849 -0.914012 0
M  V30 30973 O 3126.03 2.42255 -1.16472 0
M  V30 30974 C 3124.3 1.23773 -3.35283 0
M  V30 30975 S 3125.86 1.93876 -3.93646 0
M  V30 30976 H 3122.68 0.211908 -0.678687 0
M  V30 30977 H 3125.28 -0.102315 -1.95232 0
M  V30 30978 H 3123.98 0.46538 -4.07753 0
M  V30 30979 H 3123.52 2.0214 -3.37495 0
M  V30 30980 H 3125.53 3.21797 -3.77705 0
M  V30 30981 N 3124.7 1.55817 0.236426 0
M  V30 30982 C 3126.12 1.48475 0.585439 0
M  V30 30983 C 3126.32 0.729053 1.87849 0
M  V30 30984 O 3125.38 0.262658 2.5113 0
M  V30 30985 C 3126.69 2.92946 0.678455 0
M  V30 30986 C 3128.24 3.03379 0.770081 0
M  V30 30987 C 3128.71 4.49179 0.89457 0
M  V30 30988 N 3130.2 4.5316 0.959174 0
M  V30 30989 C 3130.94 5.63234 1.07495 0
M  V30 30990 N 3130.43 6.83094 1.1556 0
M  V30 30991 N 3132.23 5.51053 1.10892 0
M  V30 30992 H 3124.38 2.03384 -0.612277 0
M  V30 30993 H 3126.64 0.923805 -0.212813 0
M  V30 30994 H 3126.35 3.5112 -0.201819 0
M  V30 30995 H 3126.22 3.44018 1.54697 0
M  V30 30996 H 3128.61 2.45279 1.6408 0
M  V30 30997 H 3128.69 2.555 -0.123798 0
M  V30 30998 H 3128.33 5.07892 0.0283645 0
M  V30 30999 H 3128.26 4.94749 1.80365 0
M  V30 31000 H 3130.75 3.66835 0.907763 0
M  V30 31001 H 3131.07 7.62733 1.2433 0
M  V30 31002 H 3129.41 6.85834 1.12499 0
M  V30 31003 H 3132.6 4.56344 1.04247 0
M  V30 31004 H 3132.78 6.36873 1.1957 0
M  V30 31005 N 3126.18 -0.502526 1.49373 0
M  V30 31006 C 3127.6 -0.833567 1.36102 0
M  V30 31007 C 3127.8 -1.97631 0.392946 0
M  V30 31008 O 3126.85 -2.51886 -0.175931 0
M  V30 31009 C 3128.17 -1.17521 2.76784 0
M  V30 31010 C 3129.71 -1.28351 2.85473 0
M  V30 31011 C 3130.19 -1.65845 4.26918 0
M  V30 31012 N 3131.68 -1.72897 4.29722 0
M  V30 31013 C 3132.42 -2.0335 5.36131 0
M  V30 31014 N 3131.91 -2.32038 6.52787 0
M  V30 31015 N 3133.7 -2.04588 5.23546 0
M  V30 31016 H 3125.86 0.251046 2.10911 0
M  V30 31017 H 3128.12 0.0497203 0.946695 0
M  V30 31018 H 3127.82 -0.408903 3.49315 0
M  V30 31019 H 3127.7 -2.11901 3.12054 0
M  V30 31020 H 3130.09 -2.04054 2.1318 0
M  V30 31021 H 3130.17 -0.320259 2.53787 0
M  V30 31022 H 3129.81 -0.906934 4.99737 0
M  V30 31023 H 3129.74 -2.63268 4.56068 0
M  V30 31024 H 3132.23 -1.52894 3.45589 0
M  V30 31025 H 3132.54 -2.54458 7.29706 0
M  V30 31026 H 3130.89 -2.29497 6.56015 0
M  V30 31027 H 3134.08 -1.81652 4.31416 0
M  V30 31028 H 3134.25 -2.27988 6.06569 0
M  V30 31029 N 3127.66 -1.38422 -0.75346 0
M  V30 31030 C 3128.9 -1.36053 -1.52542 0
M  V30 31031 C 3129.26 0.0492919 -1.91937 0
M  V30 31032 O 3130.46 0.197861 -2.68071 0
M  V30 31033 C 3128.74 -2.28963 -2.74428 0
M  V30 31034 S 3130.29 -2.44614 -3.64293 0
M  V30 31035 H 3127.11 -0.48273 -0.522009 0
M  V30 31036 H 3129.71 -1.74348 -0.884472 0
M  V30 31037 H 3128.42 -3.30286 -2.43596 0
M  V30 31038 H 3127.95 -1.91817 -3.43467 0
M  V30 31039 H 3129.96 -1.6703 -4.67242 0
M  V30 31040 N 3129.14 0.981655 -1.23294 0
M  V30 31041 C 3130.07 2.07624 -0.970818 0
M  V30 31042 C 3131.08 1.62708 0.054722 0
M  V30 31043 O 3132.27 1.77583 -0.180655 0
M  V30 31044 C 3129.37 3.36024 -0.440609 0
M  V30 31045 C 3128.54 4.09916 -1.52602 0
M  V30 31046 C 3127.6 5.16593 -1.00091 0
M  V30 31047 O 3126.63 5.43545 -1.68961 0
M  V30 31048 N 3127.83 5.80245 0.171915 0
M  V30 31049 H 3130.6 2.30688 -1.9132 0
M  V30 31050 H 3128.16 1.14826 -1.14135 0
M  V30 31051 H 3130.15 4.04632 -0.0743822 0
M  V30 31052 H 3128.72 3.09937 0.407156 0
M  V30 31053 H 3127.94 3.3578 -2.06507 0
M  V30 31054 H 3129.23 4.56051 -2.25598 0
M  V30 31055 H 3128.63 5.60733 0.748031 0
M  V30 31056 H 3127.18 6.50034 0.479418 0
M  V30 31057 N 3130.62 1.04444 1.18022 0
M  V30 31058 C 3131.86 0.758991 1.89786 0
M  V30 31059 C 3132.22 -0.700675 1.78758 0
M  V30 31060 O 3133.42 -1.0999 2.45267 0
M  V30 31061 C 3131.69 1.21691 3.36045 0
M  V30 31062 S 3133.25 1.05768 4.25862 0
M  V30 31063 H 3130.07 0.275853 0.655306 0
M  V30 31064 H 3132.67 1.33751 1.42586 0
M  V30 31065 H 3131.37 2.27456 3.41602 0
M  V30 31066 H 3130.91 0.632338 3.88285 0
M  V30 31067 H 3132.92 -0.0226418 4.96195 0
M  V30 31068 N 3132.09 -1.34317 0.824418 0
M  V30 31069 C 3133.5 -1.80639 0.471833 0
M  V30 31070 C 3133.86 -1.68332 -1.0079 0
M  V30 31071 O 3132.98 -1.22419 -1.78445 0
M  V30 31072 C 3133.58 -3.27973 0.849667 0
M  V30 31073 C 3132.13 -3.72368 0.549431 0
M  V30 31074 C 3131.28 -2.56001 1.06578 0
M  V30 31075 H 3134.23 -1.22043 1.01445 0
M  V30 31076 H 3134.25 -3.80188 0.154035 0
M  V30 31077 H 3133.77 -3.36898 1.92668 0
M  V30 31078 H 3131.87 -3.6898 -0.518118 0
M  V30 31079 H 3131.98 -4.6643 1.09454 0
M  V30 31080 H 3130.34 -2.49996 0.487258 0
M  V30 31081 H 3131.13 -2.67696 2.14927 0
M  V30 31082 N 3133.57 -0.579517 -1.46558 0
M  V30 31083 C 3134.82 -0.0637512 -2.01999 0
M  V30 31084 C 3135.14 1.2996 -1.4538 0
M  V30 31085 O 3134.41 1.85244 -0.637294 0
M  V30 31086 H 3132.99 -0.0205769 -0.746717 0
M  V30 31087 H 3135.65 -0.754575 -1.797 0
M  V30 31088 H 3134.75 0.00764768 -3.12099 0
M  V30 31089 N 3135.05 1.54376 -0.317127 0
M  V30 31090 C 3136.3 2.00055 0.286807 0
M  V30 31091 C 3136.62 1.20695 1.53159 0
M  V30 31092 O 3135.89 0.307079 1.93478 0
M  V30 31093 H 3134.47 0.73901 0.108966 0
M  V30 31094 H 3137.13 1.90048 -0.432185 0
M  V30 31095 H 3136.23 3.07257 0.547675 0
M  V30 31096 N 3136.53 0.0451655 1.57535 0
M  V30 31097 C 3137.94 -0.311346 1.56534 0
M  V30 31098 C 3138.14 -1.71841 1.05228 0
M  V30 31099 O 3137.2 -2.42424 0.706187 0
M  V30 31100 C 3138.51 -0.145295 3.00349 0
M  V30 31101 C 3140.06 -0.216853 3.12248 0
M  V30 31102 C 3140.54 -0.0794029 4.57931 0
M  V30 31103 N 3142.03 -0.135873 4.63001 0
M  V30 31104 C 3142.76 -0.0535418 5.73375 0
M  V30 31105 N 3142.26 0.0807943 6.92753 0
M  V30 31106 N 3144.05 -0.108691 5.61995 0
M  V30 31107 H 3136.2 0.965077 1.89209 0
M  V30 31108 H 3138.47 0.374107 0.871062 0
M  V30 31109 H 3138.17 0.824593 3.41897 0
M  V30 31110 H 3138.05 -0.908838 3.66087 0
M  V30 31111 H 3140.43 -1.17721 2.70603 0
M  V30 31112 H 3140.51 0.577342 2.492 0
M  V30 31113 H 3140.16 0.877604 5.0026 0
M  V30 31114 H 3140.09 -0.892667 5.18979 0
M  V30 31115 H 3142.58 -0.239193 3.77142 0
M  V30 31116 H 3142.89 0.136487 7.72679 0
M  V30 31117 H 3141.24 0.115797 6.94904 0
M  V30 31118 H 3144.43 -0.212153 4.67619 0
M  V30 31119 H 3144.6 -0.0410683 6.47987 0
M  V30 31120 N 3138.01 -1.5594 -0.228159 0
M  V30 31121 C 3139.25 -1.80418 -0.960663 0
M  V30 31122 C 3139.61 -0.617647 -1.81794 0
M  V30 31123 O 3140.81 -0.741591 -2.58368 0
M  V30 31124 C 3139.08 -3.09753 -1.78292 0
M  V30 31125 S 3140.64 -3.55521 -2.57196 0
M  V30 31126 H 3137.46 -0.633492 -0.322814 0
M  V30 31127 H 3140.06 -1.9418 -0.226818 0
M  V30 31128 H 3138.77 -3.94157 -1.14316 0
M  V30 31129 H 3138.3 -2.9878 -2.55918 0
M  V30 31130 H 3140.31 -3.18336 -3.80626 0
M  V30 31131 N 3139.48 0.494597 -1.49638 0
M  V30 31132 C 3140.76 1.25593 -1.49952 0
M  V30 31133 C 3141.14 2.09834 -0.230842 0
M  V30 31134 O 3140.49 2.14534 0.786587 0
M  V30 31135 C 3140.7 2.10717 -2.78208 0
M  V30 31136 C 3142.05 2.69692 -3.2795 0
M  V30 31137 O 3143.07 2.20979 -2.79369 0
M  V30 31138 O 3141.93 3.58388 -4.12578 0
M  V30 31139 H 3139.02 0.568673 -0.60045 0
M  V30 31140 H 3141.57 0.508343 -1.61907 0
M  V30 31141 H 3140.34 1.48487 -3.62032 0
M  V30 31142 H 3139.97 2.92656 -2.69144 0
M  V30 31143 N 3140.96 1.3882 0.746109 0
M  V30 31144 C 3142.37 1.31651 1.32382 0
M  V30 31145 C 3142.72 -0.0242741 1.96185 0
M  V30 31146 O 3141.85 -0.926375 1.95569 0
M  V30 31147 C 3142.44 2.38422 2.40708 0
M  V30 31148 C 3141 2.34808 2.94181 0
M  V30 31149 C 3140.15 2.20893 1.67635 0
M  V30 31150 H 3143.1 1.49069 0.54443 0
M  V30 31151 H 3143.12 2.04569 3.2083 0
M  V30 31152 H 3142.63 3.35994 1.94242 0
M  V30 31153 H 3140.74 1.4084 3.44956 0
M  V30 31154 H 3140.85 3.29237 3.48051 0
M  V30 31155 H 3139.21 1.67874 1.91547 0
M  V30 31156 H 3140 3.20418 1.23236 0
M  V30 31157 N 3142.44 -0.975103 1.23812 0
M  V30 31158 C 3143.39 -2.05333 0.991072 0
M  V30 31159 C 3144.37 -1.60769 -0.0648511 0
M  V30 31160 O 3145.57 -1.76381 0.147948 0
M  V30 31161 C 3142.7 -3.38194 0.589882 0
M  V30 31162 C 3141.78 -3.89341 1.68149 0
M  V30 31163 N 3142.17 -4.13508 2.91282 0
M  V30 31164 C 3140.47 -4.17929 1.55729 0
M  V30 31165 C 3141.17 -4.5534 3.61995 0
M  V30 31166 N 3140.15 -4.60081 2.89528 0
M  V30 31167 H 3143.95 -2.21983 1.92616 0
M  V30 31168 H 3141.46 -1.1583 1.13829 0
M  V30 31169 H 3143.46 -4.15033 0.394148 0
M  V30 31170 H 3142.12 -3.22935 -0.3381 0
M  V30 31171 H 3143.13 -4.01175 3.27535 0
M  V30 31172 H 3139.81 -4.11644 0.696804 0
M  V30 31173 H 3141.2 -4.82512 4.67581 0
M  V30 31174 N 3143.92 -1.05068 -1.17467 0
M  V30 31175 C 3145.15 -0.780368 -1.91619 0
M  V30 31176 C 3145.56 0.663786 -1.76747 0
M  V30 31177 O 3144.92 1.45336 -1.10379 0
M  V30 31178 C 3144.97 -1.14998 -3.42721 0
M  V30 31179 O 3144.69 -2.53745 -3.57134 0
M  V30 31180 C 3146.19 -0.905626 -4.33951 0
M  V30 31181 H 3143.41 -0.283825 -0.608017 0
M  V30 31182 H 3145.96 -1.40103 -1.48968 0
M  V30 31183 H 3144.11 -0.574097 -3.83123 0
M  V30 31184 H 3144.52 -2.68196 -4.50745 0
M  V30 31185 H 3146 -1.214 -5.38485 0
M  V30 31186 H 3146.48 0.159218 -4.38911 0
M  V30 31187 H 3147.08 -1.46529 -3.99261 0
M  V30 31188 N 3145.4 1.33878 -0.831529 0
M  V30 31189 C 3146.64 1.97626 -0.422872 0
M  V30 31190 C 3146.97 1.66222 1.01958 0
M  V30 31191 O 3146.24 0.957353 1.70914 0
M  V30 31192 H 3144.82 0.731084 -0.153378 0
M  V30 31193 H 3147.48 1.63368 -1.06287 0
M  V30 31194 H 3146.57 3.07235 -0.548912 0
M  V30 31195 N 3146.87 0.587281 1.46249 0
M  V30 31196 C 3148.29 0.249312 1.57641 0
M  V30 31197 C 3148.49 -1.24836 1.58172 0
M  V30 31198 O 3147.55 -2.03033 1.50112 0
M  V30 31199 C 3148.86 0.90256 2.86835 0
M  V30 31200 C 3150.41 0.876577 3.00475 0
M  V30 31201 C 3150.88 1.50945 4.32411 0
M  V30 31202 N 3152.37 1.474 4.39121 0
M  V30 31203 C 3153.11 1.93303 5.39835 0
M  V30 31204 N 3152.6 2.47199 6.47197 0
M  V30 31205 N 3154.4 1.84192 5.31065 0
M  V30 31206 H 3146.55 1.55997 1.44148 0
M  V30 31207 H 3148.81 0.652309 0.687893 0
M  V30 31208 H 3148.52 1.95629 2.92271 0
M  V30 31209 H 3148.39 0.413532 3.74926 0
M  V30 31210 H 3150.78 -0.168549 2.94618 0
M  V30 31211 H 3150.86 1.40367 2.13848 0
M  V30 31212 H 3150.5 2.5538 4.39026 0
M  V30 31213 H 3150.43 0.957546 5.17821 0
M  V30 31214 H 3152.92 1.08008 3.62136 0
M  V30 31215 H 3153.24 2.80071 7.20264 0
M  V30 31216 H 3151.58 2.51227 6.48004 0
M  V30 31217 H 3154.77 1.4184 4.46093 0
M  V30 31218 H 3154.95 2.20281 6.0941 0
M  V30 31219 N 3148.35 -1.54206 0.325309 0
M  V30 31220 C 3149.59 -2.0251 -0.277312 0
M  V30 31221 C 3149.96 -1.20834 -1.49209 0
M  V30 31222 O 3151.16 -1.58949 -2.16769 0
M  V30 31223 C 3149.43 -3.52303 -0.601455 0
M  V30 31224 S 3150.99 -4.22539 -1.18348 0
M  V30 31225 H 3147.81 -0.706048 -0.0837675 0
M  V30 31226 H 3150.41 -1.90039 0.458837 0
M  V30 31227 H 3149.11 -4.09369 0.290768 0
M  V30 31228 H 3148.64 -3.68858 -1.36776 0
M  V30 31229 H 3150.66 -4.30343 -2.47021 0
M  V30 31230 N 3149.83 -0.0535194 -1.57509 0
M  V30 31231 C 3150.78 0.937893 -2.12853 0
M  V30 31232 C 3151.77 1.32065 -1.0609 0
M  V30 31233 O 3152.98 1.30003 -1.24496 0
M  V30 31234 H 3149.35 0.32033 -0.680362 0
M  V30 31235 H 3151.33 0.446025 -2.95048 0
M  V30 31236 C 3150.07 2.20259 -2.69038 0
M  V30 31237 H 3149.4 1.91686 -3.50851 0
M  V30 31238 H 3150.84 2.87782 -3.1138 0
M  V30 31239 C 3149.3 2.94885 -1.62925 0
M  V30 31240 O 3149.83 3.87912 -1.04341 0
M  V30 31241 N 3148.03 2.57658 -1.34389 0
M  V30 31242 H 3147.58 1.82084 -1.82217 0
M  V30 31243 H 3147.54 3.07896 -0.636203 0
M  V30 31244 N 3151.31 1.56059 0.219886 0
M  V30 31245 C 3152.55 1.80925 0.951082 0
M  V30 31246 C 3152.91 0.627279 1.81464 0
M  V30 31247 O 3154.11 0.755282 2.57971 0
M  V30 31248 C 3152.39 3.10694 1.76647 0
M  V30 31249 S 3153.94 3.5688 2.55307 0
M  V30 31250 H 3150.76 0.635195 0.31945 0
M  V30 31251 H 3153.36 1.94297 0.216517 0
M  V30 31252 H 3152.07 3.94758 1.12224 0
M  V30 31253 H 3151.6 3.00133 2.5433 0
M  V30 31254 H 3153.61 3.2035 3.78933 0
M  V30 31255 N 3152.79 -0.486655 1.49898 0
M  V30 31256 C 3154.2 -1.06789 1.53144 0
M  V30 31257 C 3154.55 -1.93475 0.32589 0
M  V30 31258 O 3153.67 -2.08952 -0.562856 0
M  V30 31259 C 3154.27 -1.94343 2.77518 0
M  V30 31260 C 3152.83 -2.47604 2.83495 0
M  V30 31261 C 3151.98 -1.25566 2.47242 0
M  V30 31262 H 3154.93 -0.269934 1.56387 0
M  V30 31263 H 3154.95 -2.79217 2.58492 0
M  V30 31264 H 3154.46 -1.31226 3.65242 0
M  V30 31265 H 3152.56 -3.14319 2.00085 0
M  V30 31266 H 3152.67 -2.83775 3.86016 0
M  V30 31267 H 3151.04 -1.58549 1.99335 0
M  V30 31268 H 3151.82 -0.641345 3.37256 0
M  V30 31269 N 3154.27 -1.39214 -0.738737 0
M  V30 31270 C 3155.68 -1.32351 -1.31682 0
M  V30 31271 C 3156.03 0.0138696 -1.96195 0
M  V30 31272 O 3155.15 0.915991 -1.96058 0
M  V30 31273 C 3155.75 -2.39695 -2.3944 0
M  V30 31274 C 3154.31 -2.36365 -2.92931 0
M  V30 31275 C 3153.45 -2.21779 -1.66461 0
M  V30 31276 H 3156.4 -1.49356 -0.536517 0
M  V30 31277 H 3156.43 -2.06268 -3.1974 0
M  V30 31278 H 3155.94 -3.37019 -1.92457 0
M  V30 31279 H 3154.04 -1.42668 -3.44204 0
M  V30 31280 H 3154.15 -3.31079 -3.463 0
M  V30 31281 H 3152.52 -1.68887 -1.90654 0
M  V30 31282 H 3153.3 -3.21067 -1.21535 0
M  V30 31283 N 3155.74 0.968523 -1.24328 0
M  V30 31284 C 3156.99 1.70801 -1.08035 0
M  V30 31285 C 3157.31 1.91228 0.381695 0
M  V30 31286 O 3156.58 1.48944 1.2725 0
M  V30 31287 H 3155.16 0.632905 -0.396788 0
M  V30 31288 H 3157.82 1.1652 -1.56234 0
M  V30 31289 H 3156.92 2.69284 -1.57773 0
M  V30 31290 N 3157.22 1.0569 1.16908 0
M  V30 31291 C 3158.15 0.683442 2.23274 0
M  V30 31292 C 3159.13 -0.321176 1.6704 0
M  V30 31293 O 3160.32 -0.197657 1.93192 0
M  V30 31294 C 3157.45 0.0626616 3.47243 0
M  V30 31295 C 3156.4 0.992586 4.16331 0
M  V30 31296 C 3155.73 0.235424 5.34181 0
M  V30 31297 C 3157.03 2.31894 4.67998 0
M  V30 31298 H 3158.72 1.57269 2.54768 0
M  V30 31299 H 3156.27 0.757627 1.22458 0
M  V30 31300 H 3158.22 -0.210429 4.20874 0
M  V30 31301 H 3156.94 -0.861561 3.15031 0
M  V30 31302 H 3155.6 1.25032 3.44619 0
M  V30 31303 H 3155.25 -0.691722 4.98221 0
M  V30 31304 H 3154.95 0.855104 5.81345 0
M  V30 31305 H 3156.48 -0.0302644 6.10592 0
M  V30 31306 H 3157.89 2.10541 5.33241 0
M  V30 31307 H 3156.29 2.89305 5.25759 0
M  V30 31308 H 3157.36 2.95398 3.84536 0
M  V30 31309 N 3158.7 -1.33435 0.838617 0
M  V30 31310 C 3159.92 -2.02532 0.446736 0
M  V30 31311 C 3160.35 -1.62682 -0.944246 0
M  V30 31312 O 3159.71 -0.819298 -1.61732 0
M  V30 31313 C 3159.76 -3.55988 0.574857 0
M  V30 31314 O 3158.86 -4.10465 -0.398991 0
M  V30 31315 H 3158.2 -0.63867 0.181649 0
M  V30 31316 H 3160.73 -1.7034 1.13338 0
M  V30 31317 H 3160.74 -4.05439 0.45641 0
M  V30 31318 H 3159.42 -3.84337 1.58928 0
M  V30 31319 H 3157.99 -3.72139 -0.238122 0
M  V30 31320 N 3160.18 -0.595029 -1.45935 0
M  V30 31321 C 3161.43 -0.0851723 -2.0192 0
M  V30 31322 C 3161.75 1.2841 -1.46751 0
M  V30 31323 O 3161.02 1.84558 -0.656906 0
M  V30 31324 H 3159.6 -0.0284957 -0.746456 0
M  V30 31325 H 3162.26 -0.773592 -1.7889 0
M  V30 31326 H 3161.35 -0.025455 -3.1209 0
M  V30 31327 N 3161.66 1.54031 -0.333483 0
M  V30 31328 C 3162.57 2.2838 0.536634 0
M  V30 31329 C 3163.58 1.33106 1.12066 0
M  V30 31330 O 3164.76 1.66133 1.1385 0
M  V30 31331 C 3161.82 3.03459 1.67672 0
M  V30 31332 C 3160.88 4.14338 1.1235 0
M  V30 31333 C 3160.12 4.85827 2.20924 0
M  V30 31334 O 3160.34 4.56906 3.41458 0
M  V30 31335 O 3159.27 5.7251 1.85785 0
M  V30 31336 H 3163.1 3.03625 -0.0674537 0
M  V30 31337 H 3160.68 1.49073 -0.0988492 0
M  V30 31338 H 3162.57 3.50442 2.34026 0
M  V30 31339 H 3161.24 2.3108 2.2668 0
M  V30 31340 H 3160.15 3.71681 0.424761 0
M  V30 31341 H 3161.48 4.8879 0.578411 0
M  V30 31342 N 3163.13 0.0618717 1.57479 0
M  V30 31343 C 3164.55 -0.294726 1.56855 0
M  V30 31344 C 3164.75 -1.70715 1.07045 0
M  V30 31345 O 3163.81 -2.41661 0.731859 0
M  V30 31346 C 3165.12 -0.113431 3.00486 0
M  V30 31347 C 3166.67 -0.183723 3.1246 0
M  V30 31348 C 3167.14 -0.0308287 4.5799 0
M  V30 31349 N 3168.63 -0.0867579 4.63119 0
M  V30 31350 C 3169.37 0.00727525 5.734 0
M  V30 31351 N 3168.86 0.154265 6.92628 0
M  V30 31352 N 3170.66 -0.0490775 5.62079 0
M  V30 31353 H 3162.81 0.985091 1.88175 0
M  V30 31354 H 3165.07 0.383324 0.867045 0
M  V30 31355 H 3164.78 0.860809 3.41003 0
M  V30 31356 H 3164.65 -0.869959 3.67031 0
M  V30 31357 H 3167.04 -1.14844 2.71836 0
M  V30 31358 H 3167.12 0.603741 2.48573 0
M  V30 31359 H 3166.76 0.930614 4.99302 0
M  V30 31360 H 3166.69 -0.837572 5.19896 0
M  V30 31361 H 3169.18 -0.199179 3.77375 0
M  V30 31362 H 3169.5 0.218432 7.72491 0
M  V30 31363 H 3167.84 0.189495 6.94742 0
M  V30 31364 H 3171.03 -0.162544 4.67818 0
M  V30 31365 H 3171.21 0.0276617 6.47994 0
M  V30 31366 N 3164.61 -1.56173 -0.211607 0
M  V30 31367 C 3165.85 -1.81427 -0.941473 0
M  V30 31368 C 3166.22 -0.636894 -1.81129 0
M  V30 31369 O 3167.42 -0.768952 -2.57567 0
M  V30 31370 C 3165.69 -3.11626 -1.74997 0
M  V30 31371 S 3167.25 -3.58229 -2.53411 0
M  V30 31372 H 3164.07 -0.63688 -0.316077 0
M  V30 31373 H 3166.67 -1.94409 -0.20621 0
M  V30 31374 H 3165.37 -3.95348 -1.10129 0
M  V30 31375 H 3164.9 -3.01477 -2.52735 0
M  V30 31376 H 3166.92 -3.22355 -3.77229 0
M  V30 31377 N 3166.09 0.478699 -1.50154 0
M  V30 31378 C 3167.37 1.23996 -1.51276 0
M  V30 31379 C 3167.75 2.09577 -0.253085 0
M  V30 31380 O 3167.1 2.15357 0.763789 0
M  V30 31381 C 3167.31 2.07754 -2.80427 0
M  V30 31382 C 3168.65 2.66199 -3.30792 0
M  V30 31383 O 3169.68 2.18003 -2.81697 0
M  V30 31384 O 3168.54 3.53992 -4.16356 0
M  V30 31385 H 3165.63 0.562273 -0.606447 0
M  V30 31386 H 3168.18 0.491142 -1.62437 0
M  V30 31387 H 3166.95 1.44639 -3.63587 0
M  V30 31388 H 3166.57 2.89785 -2.72233 0
M  V30 31389 N 3167.57 1.39603 0.731343 0
M  V30 31390 C 3168.8 1.40308 1.52057 0
M  V30 31391 C 3169.21 -0.00144602 1.888 0
M  V30 31392 O 3168.57 -0.973688 1.54355 0
M  V30 31393 C 3168.62 2.27936 2.80584 0
M  V30 31394 O 3168.34 3.62919 2.454 0
M  V30 31395 C 3169.84 2.37063 3.74588 0
M  V30 31396 H 3167.06 0.479112 0.469779 0
M  V30 31397 H 3169.61 1.83464 0.903404 0
M  V30 31398 H 3167.76 1.88184 3.38623 0
M  V30 31399 H 3168.17 4.09296 3.27989 0
M  V30 31400 H 3169.65 3.02617 4.61657 0
M  V30 31401 H 3170.13 1.39089 4.16594 0
M  V30 31402 H 3170.73 2.773 3.22466 0
M  V30 31403 N 3169.05 -0.961916 1.2484 0
M  V30 31404 C 3170.29 -1.72053 1.10351 0
M  V30 31405 C 3170.65 -1.88769 -0.350742 0
M  V30 31406 O 3171.85 -2.61616 -0.617277 0
M  V30 31407 C 3170.12 -3.07042 1.82921 0
M  V30 31408 S 3171.68 -3.9825 1.84234 0
M  V30 31409 H 3168.5 -0.591474 0.394562 0
M  V30 31410 H 3171.1 -1.14783 1.58256 0
M  V30 31411 H 3169.81 -2.9254 2.87834 0
M  V30 31412 H 3169.34 -3.69375 1.35373 0
M  V30 31413 H 3171.35 -4.87706 0.914159 0
M  V30 31414 N 3170.52 -1.06308 -1.16346 0
M  V30 31415 C 3171.75 -0.80067 -1.91322 0
M  V30 31416 C 3172.17 0.639074 -1.76911 0
M  V30 31417 O 3171.53 1.44533 -1.09452 0
M  V30 31418 C 3171.58 -1.20033 -3.40036 0
M  V30 31419 O 3170.68 -0.339214 -4.11003 0
M  V30 31420 H 3170.03 -0.292606 -0.596052 0
M  V30 31421 H 3172.56 -1.41892 -1.47404 0
M  V30 31422 H 3172.57 -1.17195 -3.90806 0
M  V30 31423 H 3171.24 -2.24904 -3.49844 0
M  V30 31424 H 3169.82 -0.429175 -3.70422 0
M  V30 31425 N 3172 1.32989 -0.845682 0
M  V30 31426 C 3172.93 2.27928 -0.241137 0
M  V30 31427 C 3173.95 1.52041 0.582021 0
M  V30 31428 O 3175.14 1.73775 0.407977 0
M  V30 31429 C 3172.24 3.32037 0.678594 0
M  V30 31430 C 3171.41 4.3727 -0.106728 0
M  V30 31431 C 3170.47 5.21008 0.737386 0
M  V30 31432 O 3169.49 5.68934 0.174131 0
M  V30 31433 N 3170.7 5.42961 2.05363 0
M  V30 31434 H 3173.46 2.80446 -1.0569 0
M  V30 31435 H 3171.02 1.45754 -0.704797 0
M  V30 31436 H 3173.01 3.84963 1.24843 0
M  V30 31437 H 3171.58 2.79745 1.39505 0
M  V30 31438 H 3170.8 3.8475 -0.857965 0
M  V30 31439 H 3172.09 5.04676 -0.646475 0
M  V30 31440 H 3171.49 5.05737 2.53469 0
M  V30 31441 H 3170.05 5.98918 2.57179 0
M  V30 31442 N 3173.48 0.60276 1.45618 0
M  V30 31443 C 3174.41 -0.156972 2.28662 0
M  V30 31444 C 3175.43 -0.836372 1.39673 0
M  V30 31445 O 3176.61 -0.70257 1.64092 0
M  V30 31446 C 3173.71 -1.243 3.15282 0
M  V30 31447 C 3172.89 -0.651655 4.32518 0
M  V30 31448 C 3171.95 -1.62796 5.00384 0
M  V30 31449 O 3170.97 -1.15614 5.57335 0
M  V30 31450 N 3172.17 -2.96233 4.99226 0
M  V30 31451 H 3174.94 0.555586 2.94505 0
M  V30 31452 H 3172.5 0.441908 1.55752 0
M  V30 31453 H 3174.49 -1.89584 3.57547 0
M  V30 31454 H 3173.06 -1.85815 2.51379 0
M  V30 31455 H 3172.28 0.179139 3.93793 0
M  V30 31456 H 3173.57 -0.236713 5.08249 0
M  V30 31457 H 3172.97 -3.37171 4.54238 0
M  V30 31458 H 3171.53 -3.56951 5.4537 0
M  V30 31459 N 3174.96 -1.53852 0.341647 0
M  V30 31460 C 3175.91 -2.21708 -0.531956 0
M  V30 31461 C 3176.89 -1.20382 -1.06757 0
M  V30 31462 O 3178.08 -1.45936 -1.00158 0
M  V30 31463 C 3175.21 -2.99196 -1.68335 0
M  V30 31464 C 3174.3 -4.07877 -1.16177 0
M  V30 31465 N 3174.69 -5.04508 -0.36126 0
M  V30 31466 C 3172.99 -4.22153 -1.43883 0
M  V30 31467 C 3173.69 -5.81647 -0.0784356 0
M  V30 31468 N 3172.67 -5.39461 -0.669556 0
M  V30 31469 H 3176.47 -2.93772 0.0867341 0
M  V30 31470 H 3173.98 -1.6172 0.148414 0
M  V30 31471 H 3175.98 -3.46307 -2.32115 0
M  V30 31472 H 3174.64 -2.28657 -2.30534 0
M  V30 31473 H 3175.65 -5.179 -0.00250802 0
M  V30 31474 H 3172.33 -3.62835 -2.06535 0
M  V30 31475 H 3173.72 -6.69502 0.567185 0
M  V30 31476 N 3176.44 -0.0702223 -1.57443 0
M  V30 31477 C 3177.37 0.927105 -2.09612 0
M  V30 31478 C 3178.38 1.26243 -1.02793 0
M  V30 31479 O 3179.57 1.21989 -1.30311 0
M  V30 31480 C 3176.67 2.24338 -2.54019 0
M  V30 31481 C 3175.84 2.08713 -3.84393 0
M  V30 31482 C 3174.9 3.2363 -4.14909 0
M  V30 31483 O 3173.93 2.98691 -4.84533 0
M  V30 31484 N 3175.13 4.48679 -3.6833 0
M  V30 31485 H 3177.9 0.481701 -2.95804 0
M  V30 31486 H 3175.46 0.115544 -1.61487 0
M  V30 31487 H 3177.45 3.00119 -2.71497 0
M  V30 31488 H 3176.02 2.60382 -1.72974 0
M  V30 31489 H 3175.24 1.17408 -3.7631 0
M  V30 31490 H 3176.53 1.95522 -4.69733 0
M  V30 31491 H 3175.92 4.71828 -3.12081 0
M  V30 31492 H 3174.48 5.21492 -3.91011 0
M  V30 31493 N 3177.91 1.56283 0.203321 0
M  V30 31494 C 3179.16 1.80407 0.926349 0
M  V30 31495 C 3179.49 0.642915 1.83249 0
M  V30 31496 O 3178.77 -0.356964 1.91196 0
M  V30 31497 C 3179.05 3.14736 1.74966 0
M  V30 31498 C 3178.9 4.4133 0.868789 0
M  V30 31499 C 3180.22 3.45677 2.72388 0
M  V30 31500 H 3177.34 0.656292 0.335335 0
M  V30 31501 H 3179.98 1.89005 0.194167 0
M  V30 31502 H 3178.13 3.07537 2.37388 0
M  V30 31503 H 3179.81 4.60567 0.259905 0
M  V30 31504 H 3178.05 4.33447 0.175084 0
M  V30 31505 H 3178.72 5.31799 1.47965 0
M  V30 31506 H 3181.2 3.53123 2.20099 0
M  V30 31507 H 3180.07 4.40804 3.27083 0
M  V30 31508 H 3180.33 2.68757 3.5103 0
M  V30 31509 N 3179.39 -0.470729 1.50406 0
M  V30 31510 C 3180.8 -1.05159 1.54268 0
M  V30 31511 C 3181.16 -1.93118 0.346393 0
M  V30 31512 O 3180.28 -2.09537 -0.540662 0
M  V30 31513 C 3180.88 -1.91389 2.79563 0
M  V30 31514 C 3179.43 -2.44583 2.86105 0
M  V30 31515 C 3178.58 -1.22937 2.4856 0
M  V30 31516 H 3181.53 -0.253332 1.56665 0
M  V30 31517 H 3181.55 -2.7646 2.61439 0
M  V30 31518 H 3181.07 -1.27344 3.66613 0
M  V30 31519 H 3179.17 -3.12179 2.03408 0
M  V30 31520 H 3179.28 -2.79665 3.89004 0
M  V30 31521 H 3177.64 -1.56425 2.01005 0
M  V30 31522 H 3178.43 -0.605539 3.37917 0
M  V30 31523 N 3180.87 -1.39989 -0.72393 0
M  V30 31524 C 3182.12 -1.38019 -1.48589 0
M  V30 31525 C 3182.45 0.0203181 -1.94189 0
M  V30 31526 O 3181.73 0.987392 -1.67573 0
M  V30 31527 C 3182.01 -2.36234 -2.71782 0
M  V30 31528 C 3181.86 -3.85274 -2.32129 0
M  V30 31529 C 3183.18 -2.32109 -3.73917 0
M  V30 31530 H 3180.3 -0.502657 -0.538985 0
M  V30 31531 H 3182.94 -1.71064 -0.826878 0
M  V30 31532 H 3181.09 -2.08185 -3.28011 0
M  V30 31533 H 3182.76 -4.24117 -1.81447 0
M  V30 31534 H 3181.01 -4.01512 -1.64227 0
M  V30 31535 H 3181.68 -4.49498 -3.20398 0
M  V30 31536 H 3184.15 -2.56934 -3.27298 0
M  V30 31537 H 3183.03 -3.0289 -4.57765 0
M  V30 31538 H 3183.29 -1.32986 -4.21624 0
M  V30 31539 N 3182.35 0.955282 -1.25348 0
M  V30 31540 C 3183.76 1.51451 -1.09176 0
M  V30 31541 C 3184.11 1.93358 0.332721 0
M  V30 31542 O 3183.24 1.78553 1.22261 0
M  V30 31543 C 3183.83 2.75231 -1.97569 0
M  V30 31544 C 3182.39 3.27468 -1.85585 0
M  V30 31545 C 3181.54 2.00309 -1.91759 0
M  V30 31546 H 3184.49 0.772247 -1.38644 0
M  V30 31547 H 3184.51 3.49026 -1.51529 0
M  V30 31548 H 3184.02 2.44699 -3.01238 0
M  V30 31549 H 3182.12 3.62823 -0.84797 0
M  V30 31550 H 3182.24 3.95528 -2.7036 0
M  V30 31551 H 3180.6 2.1558 -1.35637 0
M  V30 31552 H 3181.38 1.72127 -2.97031 0
M  V30 31553 N 3183.83 1.06924 1.1578 0
M  V30 31554 C 3185.08 0.788224 1.86095 0
M  V30 31555 C 3185.4 -0.687573 1.82476 0
M  V30 31556 O 3184.67 -1.49776 1.26269 0
M  V30 31557 H 3183.25 0.288589 0.689003 0
M  V30 31558 H 3185.91 1.35207 1.40375 0
M  V30 31559 H 3185 1.11885 2.91356 0
M  V30 31560 N 3185.31 -1.32538 0.852723 0
M  V30 31561 C 3186.55 -1.96929 0.454259 0
M  V30 31562 C 3186.87 -1.67823 -0.993005 0
M  V30 31563 O 3186.14 -0.984422 -1.69369 0
M  V30 31564 H 3184.72 -0.728552 0.16499 0
M  V30 31565 H 3187.39 -1.61656 1.08873 0
M  V30 31566 H 3186.48 -3.06323 0.597721 0
M  V30 31567 N 3186.78 -0.610474 -1.45296 0
M  V30 31568 C 3188.19 -0.19152 -1.85715 0
M  V30 31569 C 3188.55 1.25227 -1.51039 0
M  V30 31570 O 3187.67 1.94992 -0.938457 0
M  V30 31571 C 3188.27 -0.340807 -3.37082 0
M  V30 31572 C 3186.82 0.0234771 -3.76393 0
M  V30 31573 C 3185.97 -0.663896 -2.69235 0
M  V30 31574 H 3188.92 -0.816972 -1.36056 0
M  V30 31575 H 3188.94 0.426167 -3.78106 0
M  V30 31576 H 3188.46 -1.39171 -3.62289 0
M  V30 31577 H 3186.56 1.07344 -3.56802 0
M  V30 31578 H 3186.67 -0.372186 -4.77652 0
M  V30 31579 H 3185.03 -0.101249 -2.54499 0
M  V30 31580 H 3185.82 -1.71699 -2.97278 0
M  V30 31581 N 3188.26 1.53669 -0.349801 0
M  V30 31582 C 3189.51 2.01313 0.245154 0
M  V30 31583 C 3189.84 1.23708 1.497 0
M  V30 31584 O 3189.12 0.326405 1.91742 0
M  V30 31585 C 3189.4 3.55828 0.553009 0
M  V30 31586 C 3189.25 4.44139 -0.711369 0
M  V30 31587 C 3190.57 4.18557 1.36007 0
M  V30 31588 H 3187.69 0.731772 0.0876286 0
M  V30 31589 H 3190.33 1.84055 -0.471575 0
M  V30 31590 H 3188.48 3.70665 1.1636 0
M  V30 31591 H 3190.15 4.41128 -1.34921 0
M  V30 31592 H 3188.4 4.12748 -1.33499 0
M  V30 31593 H 3189.07 5.50153 -0.451137 0
M  V30 31594 H 3191.54 4.07457 0.843706 0
M  V30 31595 H 3190.42 5.2673 1.54423 0
M  V30 31596 H 3190.68 3.73586 2.36401 0
M  V30 31597 N 3189.74 0.0785709 1.57404 0
M  V30 31598 C 3190.99 -0.587826 1.93362 0
M  V30 31599 C 3191.31 -1.69739 0.959886 0
M  V30 31600 O 3190.58 -1.95898 0.00915174 0
M  V30 31601 H 3189.16 -0.220129 0.713829 0
M  V30 31602 H 3191.82 0.13802 1.94411 0
M  V30 31603 H 3190.92 -1.00875 2.95348 0
M  V30 31604 N 3191.22 -1.56389 -0.19503 0
M  V30 31605 C 3192.17 -1.90954 -1.24581 0
M  V30 31606 C 3193.15 -0.775245 -1.40992 0
M  V30 31607 O 3194.34 -1.0381 -1.43361 0
M  V30 31608 C 3191.47 -2.25262 -2.5906 0
M  V30 31609 C 3190.56 -3.45149 -2.46441 0
M  V30 31610 N 3190.95 -4.63056 -2.03502 0
M  V30 31611 C 3189.25 -3.49288 -2.77333 0
M  V30 31612 C 3189.95 -5.45213 -2.02776 0
M  V30 31613 N 3188.92 -4.85621 -2.44282 0
M  V30 31614 H 3192.73 -2.79614 -0.905151 0
M  V30 31615 H 3190.24 -1.57308 -0.403465 0
M  V30 31616 H 3192.24 -2.4821 -3.34959 0
M  V30 31617 H 3190.9 -1.37929 -2.93949 0
M  V30 31618 H 3191.91 -4.8772 -1.7421 0
M  V30 31619 H 3188.59 -2.72371 -3.16418 0
M  V30 31620 H 3189.98 -6.4965 -1.71478 0
M  V30 31621 N 3192.7 0.462746 -1.50653 0
M  V30 31622 C 3193.92 1.24193 -1.66105 0
M  V30 31623 C 3194.35 1.84863 -0.347453 0
M  V30 31624 O 3193.7 1.67671 0.689643 0
M  V30 31625 C 3193.75 2.32032 -2.76031 0
M  V30 31626 O 3192.86 3.36889 -2.37865 0
M  V30 31627 H 3192.2 0.365005 -0.554678 0
M  V30 31628 H 3194.73 0.549699 -1.97077 0
M  V30 31629 H 3194.74 2.77215 -2.99359 0
M  V30 31630 H 3193.41 1.87247 -3.71364 0
M  V30 31631 H 3191.99 2.97359 -2.25016 0
M  V30 31632 N 3194.17 1.40371 0.716495 0
M  V30 31633 C 3195.42 1.37905 1.47191 0
M  V30 31634 C 3195.74 -0.0159595 1.95593 0
M  V30 31635 O 3196.94 -0.163234 2.71009 0
M  V30 31636 C 3195.4 2.42368 2.66056 0
M  V30 31637 C 3195.01 3.87675 2.24526 0
M  V30 31638 C 3196.75 2.49007 3.43796 0
M  V30 31639 C 3194.66 4.83736 3.40225 0
M  V30 31640 H 3193.59 0.512763 0.552802 0
M  V30 31641 H 3196.24 1.66103 0.779865 0
M  V30 31642 H 3194.62 2.07268 3.37426 0
M  V30 31643 H 3195.79 4.31914 1.60582 0
M  V30 31644 H 3194.11 3.84503 1.59833 0
M  V30 31645 H 3196.71 3.17964 4.29887 0
M  V30 31646 H 3197.05 1.5203 3.87547 0
M  V30 31647 H 3197.58 2.83093 2.79469 0
M  V30 31648 H 3194.32 5.82043 3.01507 0
M  V30 31649 H 3193.84 4.44163 4.03088 0
M  V30 31650 H 3195.52 5.03514 4.06303 0
M  V30 31651 N 3195.65 -0.948621 1.25853 0
M  V30 31652 C 3196.6 -2.03185 1.0344 0
M  V30 31653 C 3197.59 -1.60871 -0.0307349 0
M  V30 31654 O 3198.78 -1.76027 0.185327 0
M  V30 31655 C 3195.91 -3.36867 0.661485 0
M  V30 31656 C 3194.99 -3.85687 1.7637 0
M  V30 31657 N 3195.38 -4.07236 2.99987 0
M  V30 31658 C 3193.68 -4.14531 1.64559 0
M  V30 31659 C 3194.38 -4.47559 3.71572 0
M  V30 31660 N 3193.36 -4.53836 2.99222 0
M  V30 31661 H 3197.16 -2.17847 1.97281 0
M  V30 31662 H 3194.68 -1.1339 1.1626 0
M  V30 31663 H 3196.67 -4.14103 0.482093 0
M  V30 31664 H 3195.33 -3.23579 -0.269525 0
M  V30 31665 H 3196.34 -3.94137 3.3597 0
M  V30 31666 H 3193.02 -4.10073 0.783963 0
M  V30 31667 H 3194.41 -4.72485 4.7771 0
M  V30 31668 N 3197.13 -1.07536 -1.15212 0
M  V30 31669 C 3198.37 -0.809042 -1.87707 0
M  V30 31670 C 3198.73 0.653034 -1.80553 0
M  V30 31671 O 3199.94 1.03448 -2.48097 0
M  V30 31672 C 3198.21 -1.30558 -3.327 0
M  V30 31673 S 3199.77 -1.17022 -4.22908 0
M  V30 31674 H 3196.58 -0.29313 -0.647762 0
M  V30 31675 H 3199.19 -1.37485 -1.3899 0
M  V30 31676 H 3197.89 -2.36433 -3.35451 0
M  V30 31677 H 3197.42 -0.735062 -3.86472 0
M  V30 31678 H 3199.44 -0.108923 -4.9608 0
M  V30 31679 N 3198.61 1.32084 -0.85974 0
M  V30 31680 C 3199.52 2.32528 -0.311121 0
M  V30 31681 C 3200.53 1.64271 0.573686 0
M  V30 31682 O 3201.71 1.95771 0.472843 0
M  V30 31683 C 3198.78 3.4326 0.487196 0
M  V30 31684 C 3197.84 4.27198 -0.424354 0
M  V30 31685 C 3197.07 5.32642 0.335957 0
M  V30 31686 O 3197.29 5.48502 1.56531 0
M  V30 31687 O 3196.23 6.01147 -0.300882 0
M  V30 31688 H 3200.05 2.81353 -1.14341 0
M  V30 31689 H 3197.64 1.35799 -0.622818 0
M  V30 31690 H 3199.52 4.10779 0.940131 0
M  V30 31691 H 3198.19 2.96615 1.2962 0
M  V30 31692 H 3197.1 3.62469 -0.925573 0
M  V30 31693 H 3198.43 4.77381 -1.19868 0
M  V30 31694 N 3200.09 0.618171 1.4497 0
M  V30 31695 C 3201.33 0.117692 2.02458 0
M  V30 31696 C 3201.67 -1.25246 1.48415 0
M  V30 31697 O 3200.94 -1.8285 0.663029 0
M  V30 31698 C 3201.22 0.090253 3.59987 0
M  V30 31699 C 3201.08 1.49182 4.2434 0
M  V30 31700 C 3202.4 -0.592044 4.361 0
M  V30 31701 H 3199.51 0.044242 0.735671 0
M  V30 31702 H 3202.16 0.792168 1.72698 0
M  V30 31703 H 3200.31 -0.484107 3.85472 0
M  V30 31704 H 3201.98 2.11407 4.10006 0
M  V30 31705 H 3200.22 2.04948 3.82333 0
M  V30 31706 H 3200.89 1.42477 5.33296 0
M  V30 31707 H 3203.37 -0.10374 4.15971 0
M  V30 31708 H 3202.24 -0.580385 5.45823 0
M  V30 31709 H 3202.51 -1.66008 4.09749 0
M  V30 31710 N 3201.56 -1.53481 0.357946 0
M  V30 31711 C 3202.8 -2.03053 -0.234294 0
M  V30 31712 C 3203.17 -1.23971 -1.46612 0
M  V30 31713 O 3204.37 -1.63511 -2.13348 0
M  V30 31714 C 3202.64 -3.53499 -0.526591 0
M  V30 31715 S 3204.2 -4.24954 -1.09359 0
M  V30 31716 H 3201.02 -0.707666 -0.0687724 0
M  V30 31717 H 3203.62 -1.89023 0.499044 0
M  V30 31718 H 3202.32 -4.0866 0.377535 0
M  V30 31719 H 3201.85 -3.71676 -1.28921 0
M  V30 31720 H 3203.87 -4.35486 -2.37838 0
M  V30 31721 N 3203.04 -0.0869173 -1.5736 0
M  V30 31722 C 3204.32 0.620528 -1.85496 0
M  V30 31723 C 3204.7 1.86856 -0.982251 0
M  V30 31724 O 3204.05 2.2844 -0.0524931 0
M  V30 31725 C 3204.26 0.943739 -3.35998 0
M  V30 31726 C 3205.61 1.31072 -4.03863 0
M  V30 31727 O 3206.63 1.03501 -3.40831 0
M  V30 31728 O 3205.49 1.82674 -5.15066 0
M  V30 31729 H 3202.58 0.309684 -0.766828 0
M  V30 31730 H 3205.13 -0.118995 -1.69282 0
M  V30 31731 H 3203.9 0.057994 -3.91257 0
M  V30 31732 H 3203.52 1.73952 -3.57528 0
M  V30 31733 N 3204.52 1.5649 0.186734 0
M  V30 31734 C 3205.47 1.91612 1.23566 0
M  V30 31735 C 3206.45 0.782711 1.40579 0
M  V30 31736 O 3207.65 1.04569 1.42809 0
M  V30 31737 C 3204.78 2.26633 2.57861 0
M  V30 31738 C 3203.86 3.46451 2.44607 0
M  V30 31739 N 3204.25 4.64128 2.01044 0
M  V30 31740 C 3202.55 3.50754 2.75477 0
M  V30 31741 C 3203.25 5.4628 1.99882 0
M  V30 31742 N 3202.23 4.86909 2.41703 0
M  V30 31743 H 3206.03 2.80091 0.89031 0
M  V30 31744 H 3203.54 1.5752 0.395117 0
M  V30 31745 H 3205.54 2.49983 3.33637 0
M  V30 31746 H 3204.2 1.39486 2.93213 0
M  V30 31747 H 3205.21 4.88637 1.71621 0
M  V30 31748 H 3201.89 2.74045 3.14969 0
M  V30 31749 H 3203.28 6.5055 1.6803 0
M  V30 31750 N 3206 -0.45475 1.50897 0
M  V30 31751 C 3207.24 -1.21526 1.64349 0
M  V30 31752 C 3207.6 -1.88895 0.343902 0
M  V30 31753 O 3208.8 -2.66459 0.35402 0
M  V30 31754 C 3207.07 -2.21859 2.80202 0
M  V30 31755 S 3208.63 -3.0663 3.13884 0
M  V30 31756 H 3205.45 -0.412368 0.579201 0
M  V30 31757 H 3208.05 -0.509596 1.88742 0
M  V30 31758 H 3206.76 -1.70975 3.73089 0
M  V30 31759 H 3206.29 -2.97031 2.57946 0
M  V30 31760 H 3208.3 -4.23259 2.58971 0
M  V30 31761 N 3207.48 -1.40749 -0.709041 0
M  V30 31762 C 3208.72 -1.39587 -1.47116 0
M  V30 31763 C 3209.06 -0.000279458 -1.942 0
M  V30 31764 O 3208.33 0.969563 -1.68611 0
M  V30 31765 C 3208.61 -2.39103 -2.69261 0
M  V30 31766 C 3208.47 -3.87714 -2.2803 0
M  V30 31767 C 3209.79 -2.36062 -3.71434 0
M  V30 31768 H 3206.9 -0.508346 -0.533623 0
M  V30 31769 H 3209.55 -1.71931 -0.808687 0
M  V30 31770 H 3207.7 -2.11653 -3.25784 0
M  V30 31771 H 3209.37 -4.26017 -1.76938 0
M  V30 31772 H 3207.61 -4.03231 -1.59959 0
M  V30 31773 H 3208.28 -4.52871 -3.15613 0
M  V30 31774 H 3210.76 -2.60391 -3.24555 0
M  V30 31775 H 3209.63 -3.07729 -4.54526 0
M  V30 31776 H 3209.9 -1.37451 -4.2019 0
M  V30 31777 N 3208.96 0.941933 -1.26354 0
M  V30 31778 C 3210.2 1.69054 -1.1202 0
M  V30 31779 C 3210.53 1.91274 0.335823 0
M  V30 31780 O 3209.81 1.49287 1.24674 0
M  V30 31781 C 3210.09 3.06579 -1.88895 0
M  V30 31782 C 3209.95 2.9169 -3.42399 0
M  V30 31783 C 3211.26 4.06683 -1.68216 0
M  V30 31784 H 3208.38 0.613549 -0.408322 0
M  V30 31785 H 3211.03 1.09404 -1.55341 0
M  V30 31786 H 3209.18 3.57498 -1.52076 0
M  V30 31787 H 3210.85 2.47998 -3.88966 0
M  V30 31788 H 3209.09 2.27332 -3.69463 0
M  V30 31789 H 3209.76 3.89228 -3.91415 0
M  V30 31790 H 3212.24 3.64722 -2.00292 0
M  V30 31791 H 3211.11 5.00926 -2.24421 0
M  V30 31792 H 3211.37 4.37638 -0.626551 0
M  V30 31793 N 3210.43 1.08146 1.1464 0
M  V30 31794 C 3211.36 0.730648 2.21774 0
M  V30 31795 C 3212.34 -0.285672 1.67684 0
M  V30 31796 O 3213.53 -0.156633 1.93567 0
M  V30 31797 C 3210.66 0.136303 3.47032 0
M  V30 31798 C 3209.61 1.08067 4.14132 0
M  V30 31799 C 3208.94 0.348679 5.33562 0
M  V30 31800 C 3210.24 2.41769 4.62974 0
M  V30 31801 H 3211.93 1.62637 2.51375 0
M  V30 31802 H 3209.48 0.783432 1.20824 0
M  V30 31803 H 3211.43 -0.121108 4.21226 0
M  V30 31804 H 3210.16 -0.794544 3.16788 0
M  V30 31805 H 3208.82 1.32314 3.4189 0
M  V30 31806 H 3208.46 -0.585887 4.99576 0
M  V30 31807 H 3208.16 0.978224 5.794 0
M  V30 31808 H 3209.69 0.0992582 6.10519 0
M  V30 31809 H 3211.1 2.21804 5.28655 0
M  V30 31810 H 3209.5 3.00392 5.19504 0
M  V30 31811 H 3210.57 3.03488 3.78184 0
M  V30 31812 N 3211.91 -1.31626 0.866732 0
M  V30 31813 C 3212.84 -2.31073 0.335802 0
M  V30 31814 C 3213.82 -1.6021 -0.571569 0
M  V30 31815 O 3215.01 -1.87936 -0.489273 0
M  V30 31816 C 3212.14 -3.44155 -0.466355 0
M  V30 31817 C 3211.09 -4.26586 0.347636 0
M  V30 31818 C 3210.42 -5.31545 -0.580007 0
M  V30 31819 C 3211.72 -4.9783 1.57995 0
M  V30 31820 H 3213.41 -2.75729 1.16678 0
M  V30 31821 H 3210.96 -1.32559 0.562503 0
M  V30 31822 H 3212.91 -4.12774 -0.848287 0
M  V30 31823 H 3211.63 -2.98257 -1.33081 0
M  V30 31824 H 3210.29 -3.5963 0.711473 0
M  V30 31825 H 3209.94 -4.81898 -1.44165 0
M  V30 31826 H 3209.64 -5.87587 -0.0392932 0
M  V30 31827 H 3211.17 -6.03024 -0.958852 0
M  V30 31828 H 3212.58 -5.59064 1.26964 0
M  V30 31829 H 3210.98 -5.63653 2.05949 0
M  V30 31830 H 3212.05 -4.25001 2.33457 0
M  V30 31831 N 3213.39 -0.62585 -1.4464 0
M  V30 31832 C 3214.32 0.0691778 -2.33398 0
M  V30 31833 C 3215.3 0.840215 -1.479 0
M  V30 31834 O 3216.49 0.807145 -1.76632 0
M  V30 31835 C 3213.62 1.05494 -3.3089 0
M  V30 31836 C 3212.57 0.395893 -4.26165 0
M  V30 31837 C 3211.9 1.49119 -5.13486 0
M  V30 31838 C 3213.2 -0.694524 -5.17662 0
M  V30 31839 H 3214.89 -0.671976 -2.91762 0
M  V30 31840 H 3212.44 -0.324598 -1.40294 0
M  V30 31841 H 3214.39 1.54986 -3.91864 0
M  V30 31842 H 3213.11 1.82692 -2.70724 0
M  V30 31843 H 3211.77 -0.0783336 -3.66516 0
M  V30 31844 H 3211.42 2.25391 -4.49675 0
M  V30 31845 H 3211.12 1.05562 -5.7804 0
M  V30 31846 H 3212.64 1.98802 -5.7733 0
M  V30 31847 H 3214.06 -0.282919 -5.72601 0
M  V30 31848 H 3212.45 -1.05291 -5.90791 0
M  V30 31849 H 3213.52 -1.5638 -4.58992 0
M  V30 31850 N 3214.87 1.53289 -0.36608 0
M  V30 31851 C 3216.14 1.93587 0.279868 0
M  V30 31852 C 3216.52 1.29966 1.66349 0
M  V30 31853 O 3215.87 0.458934 2.23844 0
M  V30 31854 C 3216.08 3.4744 0.329573 0
M  V30 31855 C 3217.43 4.20761 0.56968 0
M  V30 31856 O 3218.45 3.53824 0.41076 0
M  V30 31857 O 3217.31 5.39382 0.879167 0
M  V30 31858 H 3214.41 0.809755 0.168005 0
M  V30 31859 H 3216.95 1.64449 -0.4189 0
M  V30 31860 H 3215.73 3.86022 -0.640502 0
M  V30 31861 H 3215.35 3.82814 1.07421 0
M  V30 31862 N 3216.35 0.0952613 1.57312 0
M  V30 31863 C 3217.62 -0.610682 1.85823 0
M  V30 31864 C 3218 -1.86332 0.992147 0
M  V30 31865 O 3217.35 -2.28409 0.0646071 0
M  V30 31866 C 3217.56 -0.925907 3.36494 0
M  V30 31867 C 3218.91 -1.28929 4.04552 0
M  V30 31868 O 3219.93 -1.01692 3.41376 0
M  V30 31869 O 3218.79 -1.7994 5.16027 0
M  V30 31870 H 3215.89 -0.305613 0.768459 0
M  V30 31871 H 3218.43 0.127971 1.69217 0
M  V30 31872 H 3217.2 -0.0372439 3.91282 0
M  V30 31873 H 3216.83 -1.72053 3.58446 0
M  V30 31874 N 3217.82 -1.56587 -0.178432 0
M  V30 31875 C 3218.75 -1.98886 -1.22338 0
M  V30 31876 C 3219.73 -0.863336 -1.46562 0
M  V30 31877 O 3220.92 -1.1289 -1.58017 0
M  V30 31878 C 3218.05 -2.34266 -2.56392 0
M  V30 31879 C 3217 -3.49712 -2.4675 0
M  V30 31880 C 3216.33 -3.70814 -3.85229 0
M  V30 31881 C 3217.63 -4.83385 -1.97829 0
M  V30 31882 H 3219.32 -2.86426 -0.871798 0
M  V30 31883 H 3216.87 -1.37802 -0.417924 0
M  V30 31884 H 3218.82 -2.62454 -3.29691 0
M  V30 31885 H 3217.55 -1.43627 -2.93324 0
M  V30 31886 H 3216.21 -3.21641 -1.75906 0
M  V30 31887 H 3215.85 -2.77477 -4.19542 0
M  V30 31888 H 3215.55 -4.48488 -3.79648 0
M  V30 31889 H 3217.08 -4.01395 -4.60124 0
M  V30 31890 H 3218.49 -5.10495 -2.60897 0
M  V30 31891 H 3216.89 -5.64646 -2.03213 0
M  V30 31892 H 3217.96 -4.75854 -0.932255 0
M  V30 31893 N 3219.3 0.446741 -1.51136 0
M  V30 31894 C 3220.21 1.56693 -1.74598 0
M  V30 31895 C 3221.23 1.622 -0.629845 0
M  V30 31896 O 3222.4 1.79617 -0.911019 0
M  V30 31897 C 3219.47 2.92746 -1.85743 0
M  V30 31898 C 3218.53 2.97432 -3.09569 0
M  V30 31899 C 3217.76 4.26995 -3.20173 0
M  V30 31900 O 3217.99 5.18856 -2.36948 0
M  V30 31901 O 3216.92 4.37773 -4.13085 0
M  V30 31902 H 3220.75 1.39813 -2.69604 0
M  V30 31903 H 3218.33 0.628782 -1.35524 0
M  V30 31904 H 3220.21 3.73509 -1.95113 0
M  V30 31905 H 3218.89 3.09774 -0.939238 0
M  V30 31906 H 3217.79 2.15658 -3.05683 0
M  V30 31907 H 3219.13 2.85346 -4.01046 0
M  V30 31908 N 3220.78 1.41123 0.701567 0
M  V30 31909 C 3222.2 1.23461 1.01141 0
M  V30 31910 C 3222.4 0.119716 2.01144 0
M  V30 31911 O 3221.45 -0.517845 2.47133 0
M  V30 31912 C 3222.76 2.58168 1.54175 0
M  V30 31913 C 3224.31 2.65299 1.66089 0
M  V30 31914 C 3224.79 4.00308 2.22525 0
M  V30 31915 N 3226.28 4.02124 2.29893 0
M  V30 31916 C 3227.01 5.03385 2.74575 0
M  V30 31917 N 3226.51 6.15037 3.18906 0
M  V30 31918 N 3228.3 4.90748 2.74085 0
M  V30 31919 H 3220.45 2.12364 0.0389714 0
M  V30 31920 H 3222.72 0.94463 0.0798682 0
M  V30 31921 H 3222.42 3.40473 0.881528 0
M  V30 31922 H 3222.3 2.80236 2.52483 0
M  V30 31923 H 3224.68 1.83356 2.31224 0
M  V30 31924 H 3224.76 2.47047 0.663417 0
M  V30 31925 H 3224.41 4.82697 1.58007 0
M  V30 31926 H 3224.34 4.15897 3.23013 0
M  V30 31927 H 3226.83 3.21506 1.98601 0
M  V30 31928 H 3227.14 6.8818 3.51608 0
M  V30 31929 H 3225.49 6.18582 3.16829 0
M  V30 31930 H 3228.68 4.02608 2.38797 0
M  V30 31931 H 3228.85 5.69804 3.0859 0
M  V30 31932 N 3222.26 -0.935219 1.26852 0
M  V30 31933 C 3223.22 -2.01634 1.08979 0
M  V30 31934 C 3224.22 -1.60759 0.0361826 0
M  V30 31935 O 3225.41 -1.71933 0.280118 0
M  V30 31936 C 3222.54 -3.34472 0.65889 0
M  V30 31937 H 3223.74 -2.18921 2.04972 0
M  V30 31938 H 3221.29 -1.11499 1.09533 0
M  V30 31939 H 3222.02 -3.22884 -0.302768 0
M  V30 31940 H 3221.81 -3.65494 1.41973 0
M  V30 31941 H 3223.3 -4.13884 0.555856 0
M  V30 31942 N 3223.74 -1.08752 -1.14065 0
M  V30 31943 C 3224.98 -0.817731 -1.84818 0
M  V30 31944 C 3225.31 0.658456 -1.83547 0
M  V30 31945 O 3224.58 1.47748 -1.28636 0
M  V30 31946 H 3223.16 -0.299514 -0.684325 0
M  V30 31947 H 3225.82 -1.37423 -1.38206 0
M  V30 31948 H 3224.91 -1.16506 -2.89539 0
M  V30 31949 N 3225.21 1.31165 -0.873701 0
M  V30 31950 C 3226.18 2.26707 -0.337109 0
M  V30 31951 C 3227.18 1.52363 0.514033 0
M  V30 31952 O 3228.37 1.71183 0.322804 0
M  V30 31953 C 3225.5 3.36898 0.520838 0
M  V30 31954 H 3226.69 2.75684 -1.1806 0
M  V30 31955 H 3224.25 1.42161 -0.649602 0
M  V30 31956 H 3224.98 2.9322 1.38538 0
M  V30 31957 H 3224.77 3.92 -0.0886704 0
M  V30 31958 H 3226.26 4.0804 0.888425 0
M  V30 31959 N 3226.69 0.633512 1.44307 0
M  V30 31960 C 3227.62 -0.0567992 2.33431 0
M  V30 31961 C 3228.6 -0.83236 1.48343 0
M  V30 31962 O 3229.79 -0.797767 1.77057 0
M  V30 31963 C 3226.92 -1.03738 3.31445 0
M  V30 31964 C 3225.87 -0.373287 4.26369 0
M  V30 31965 C 3225.2 -1.46394 5.14269 0
M  V30 31966 C 3226.5 0.721967 5.17286 0
M  V30 31967 H 3228.19 0.687439 2.91401 0
M  V30 31968 H 3225.74 0.332033 1.4012 0
M  V30 31969 H 3227.69 -1.52906 3.9268 0
M  V30 31970 H 3226.42 -1.81253 2.71689 0
M  V30 31971 H 3225.07 0.0977697 3.6647 0
M  V30 31972 H 3224.72 -2.23003 4.50864 0
M  V30 31973 H 3224.42 -1.02495 5.78592 0
M  V30 31974 H 3225.95 -1.95738 5.78376 0
M  V30 31975 H 3227.36 0.313281 5.72443 0
M  V30 31976 H 3225.76 1.08423 5.90224 0
M  V30 31977 H 3226.83 1.58812 4.58156 0
M  V30 31978 N 3228.17 -1.53093 0.374204 0
M  V30 31979 C 3229.1 -2.28925 -0.459936 0
M  V30 31980 C 3230.08 -1.31699 -1.07653 0
M  V30 31981 O 3231.27 -1.60579 -1.09216 0
M  V30 31982 C 3228.4 -3.0849 -1.59535 0
M  V30 31983 C 3227.35 -4.13475 -1.10556 0
M  V30 31984 C 3226.68 -4.81173 -2.33188 0
M  V30 31985 C 3227.98 -5.21975 -0.184183 0
M  V30 31986 H 3229.67 -2.98901 0.172744 0
M  V30 31987 H 3227.22 -1.43752 0.0845209 0
M  V30 31988 H 3229.17 -3.60291 -2.18559 0
M  V30 31989 H 3227.89 -2.3622 -2.25539 0
M  V30 31990 H 3226.55 -3.62632 -0.537947 0
M  V30 31991 H 3226.2 -4.05466 -2.97668 0
M  V30 31992 H 3225.9 -5.52122 -2.01084 0
M  V30 31993 H 3227.42 -5.35773 -2.92883 0
M  V30 31994 H 3228.84 -5.69227 -0.682162 0
M  V30 31995 H 3227.24 -6.00082 0.0463801 0
M  V30 31996 H 3228.31 -4.78727 0.771236 0
M  V30 31997 N 3229.65 -0.103603 -1.57259 0
M  V30 31998 C 3231.06 0.424207 -1.81817 0
M  V30 31999 C 3231.41 1.67615 -1.01979 0
M  V30 32000 O 3230.54 2.14931 -0.251711 0
M  V30 32001 C 3231.13 0.776395 -3.29784 0
M  V30 32002 C 3229.69 1.24891 -3.55076 0
M  V30 32003 C 3228.84 0.249827 -2.76172 0
M  V30 32004 H 3231.79 -0.32894 -1.55254 0
M  V30 32005 H 3231.81 1.6352 -3.43572 0
M  V30 32006 H 3231.32 -0.134974 -3.87865 0
M  V30 32007 H 3229.42 2.1777 -3.02336 0
M  V30 32008 H 3229.53 1.20487 -4.63702 0
M  V30 32009 H 3227.9 0.733724 -2.43903 0
M  V30 32010 H 3228.68 -0.65437 -3.37006 0
M  V30 32011 N 3231.13 1.56679 0.170126 0
M  V30 32012 C 3232.09 1.95619 1.1944 0
M  V30 32013 C 3233.09 0.839984 1.37116 0
M  V30 32014 O 3234.28 1.10702 1.34502 0
M  V30 32015 C 3231.41 2.25204 2.55922 0
M  V30 32016 H 3232.6 2.87278 0.8609 0
M  V30 32017 H 3230.16 1.50755 0.412619 0
M  V30 32018 H 3230.89 1.36263 2.94284 0
M  V30 32019 H 3230.68 3.06566 2.44458 0
M  V30 32020 H 3232.17 2.56248 3.29737 0
M  V30 32021 N 3232.6 -0.43872 1.5137 0
M  V30 32022 C 3233.85 -1.18521 1.63204 0
M  V30 32023 C 3234.17 -1.9238 0.353441 0
M  V30 32024 O 3235.37 -2.6922 0.351133 0
M  V30 32025 C 3233.83 -2.15537 2.88222 0
M  V30 32026 C 3233.44 -1.47332 4.23081 0
M  V30 32027 C 3235.18 -2.90627 3.09412 0
M  V30 32028 C 3233.09 -2.42824 5.3925 0
M  V30 32029 H 3232.02 -0.446103 0.607872 0
M  V30 32030 H 3234.67 -0.45239 1.77836 0
M  V30 32031 H 3233.05 -2.92248 2.67221 0
M  V30 32032 H 3234.22 -0.761884 4.54458 0
M  V30 32033 H 3232.54 -0.843993 4.07757 0
M  V30 32034 H 3235.14 -3.62159 3.93377 0
M  V30 32035 H 3235.48 -3.51893 2.22434 0
M  V30 32036 H 3236.01 -2.21024 3.30747 0
M  V30 32037 H 3232.75 -1.86249 6.28483 0
M  V30 32038 H 3232.27 -3.12025 5.12251 0
M  V30 32039 H 3233.95 -3.03982 5.71143 0
M  V30 32040 N 3234.08 -1.41493 -0.694073 0
M  V30 32041 C 3235.03 -1.39926 -1.80013 0
M  V30 32042 C 3236.02 -0.273404 -1.5856 0
M  V30 32043 O 3237.21 -0.514187 -1.69367 0
M  V30 32044 C 3234.34 -1.28532 -3.18331 0
M  V30 32045 C 3233.42 -2.45986 -3.45473 0
M  V30 32046 N 3233.81 -3.71449 -3.43307 0
M  V30 32047 C 3232.11 -2.39831 -3.76028 0
M  V30 32048 C 3232.81 -4.49357 -3.69396 0
M  V30 32049 N 3231.79 -3.79491 -3.89214 0
M  V30 32050 H 3235.59 -2.34847 -1.76703 0
M  V30 32051 H 3233.11 -1.3557 -0.894124 0
M  V30 32052 H 3235.1 -1.25491 -3.97565 0
M  V30 32053 H 3233.76 -0.345961 -3.22852 0
M  V30 32054 H 3234.77 -4.04313 -3.23653 0
M  V30 32055 H 3231.45 -1.54375 -3.87911 0
M  V30 32056 H 3232.84 -5.58292 -3.73845 0
M  V30 32057 N 3235.56 0.928479 -1.27346 0
M  V30 32058 C 3236.47 2.06239 -1.11815 0
M  V30 32059 C 3237.49 1.73933 -0.0483775 0
M  V30 32060 O 3238.66 1.99783 -0.254705 0
M  V30 32061 C 3235.73 3.3813 -0.766096 0
M  V30 32062 C 3234.79 3.84139 -1.91666 0
M  V30 32063 C 3234.02 5.09736 -1.5813 0
M  V30 32064 O 3234.24 5.68301 -0.488841 0
M  V30 32065 O 3233.18 5.51098 -2.42023 0
M  V30 32066 H 3237 2.22254 -2.06971 0
M  V30 32067 H 3234.59 1.0475 -1.06526 0
M  V30 32068 H 3236.47 4.17347 -0.583055 0
M  V30 32069 H 3235.15 3.23324 0.155941 0
M  V30 32070 H 3234.05 3.05812 -2.15475 0
M  V30 32071 H 3235.39 4.03485 -2.81887 0
M  V30 32072 N 3237.04 1.09355 1.13486 0
M  V30 32073 C 3237.97 0.690159 2.18562 0
M  V30 32074 C 3238.98 -0.267623 1.60585 0
M  V30 32075 O 3240.17 -0.0537862 1.78419 0
M  V30 32076 C 3237.27 -0.00385298 3.389 0
M  V30 32077 C 3236.45 0.975283 4.26388 0
M  V30 32078 C 3235.5 0.314811 5.25257 0
M  V30 32079 O 3234.53 0.962218 5.61008 0
M  V30 32080 N 3235.73 -0.931357 5.7298 0
M  V30 32081 H 3238.5 1.59416 2.53785 0
M  V30 32082 H 3236.06 0.980909 1.28801 0
M  V30 32083 H 3238.05 -0.456889 4.02113 0
M  V30 32084 H 3236.62 -0.810087 3.01921 0
M  V30 32085 H 3235.84 1.6069 3.59962 0
M  V30 32086 H 3237.13 1.63844 4.81698 0
M  V30 32087 H 3236.53 -1.47691 5.46081 0
M  V30 32088 H 3235.08 -1.32772 6.38134 0
M  V30 32089 N 3238.52 -1.307 0.880644 0
M  V30 32090 C 3239.45 -2.30704 0.360292 0
M  V30 32091 C 3240.43 -1.60807 -0.554544 0
M  V30 32092 O 3241.61 -1.88444 -0.469312 0
M  V30 32093 C 3238.74 -3.4463 -0.429827 0
M  V30 32094 C 3237.7 -4.26193 0.392861 0
M  V30 32095 C 3237.02 -5.3213 -0.523596 0
M  V30 32096 C 3238.32 -4.96126 1.63266 0
M  V30 32097 H 3240.02 -2.74476 1.19596 0
M  V30 32098 H 3237.56 -1.31955 0.576531 0
M  V30 32099 H 3239.52 -4.1365 -0.804459 0
M  V30 32100 H 3238.24 -2.99651 -1.2991 0
M  V30 32101 H 3236.9 -3.58855 0.749577 0
M  V30 32102 H 3236.55 -4.834 -1.39046 0
M  V30 32103 H 3236.25 -5.87595 0.0230304 0
M  V30 32104 H 3237.77 -6.04007 -0.89484 0
M  V30 32105 H 3239.19 -5.57686 1.32886 0
M  V30 32106 H 3237.58 -5.61437 2.11916 0
M  V30 32107 H 3238.65 -4.22501 2.37952 0
M  V30 32108 N 3240 -0.641156 -1.43969 0
M  V30 32109 C 3241.41 -0.307647 -1.56607 0
M  V30 32110 C 3241.61 1.18879 -1.62696 0
M  V30 32111 O 3240.67 1.97322 -1.57544 0
M  V30 32112 C 3241.98 -1.00839 -2.83288 0
M  V30 32113 C 3243.53 -0.987492 -2.97014 0
M  V30 32114 C 3244 -1.6689 -4.26511 0
M  V30 32115 N 3245.49 -1.63596 -4.33348 0
M  V30 32116 C 3246.23 -2.13205 -5.32289 0
M  V30 32117 N 3245.73 -2.71049 -6.37577 0
M  V30 32118 N 3247.52 -2.03775 -5.23863 0
M  V30 32119 H 3239.67 -1.61239 -1.38259 0
M  V30 32120 H 3241.93 -0.67739 -0.663209 0
M  V30 32121 H 3241.64 -2.06342 -2.84809 0
M  V30 32122 H 3241.51 -0.552399 -3.73133 0
M  V30 32123 H 3243.9 0.0590876 -2.95041 0
M  V30 32124 H 3243.98 -1.48207 -2.08491 0
M  V30 32125 H 3243.62 -2.71498 -4.29245 0
M  V30 32126 H 3243.55 -1.14907 -5.1391 0
M  V30 32127 H 3246.05 -1.21374 -3.57878 0
M  V30 32128 H 3246.36 -3.0661 -7.09373 0
M  V30 32129 H 3244.7 -2.75105 -6.38234 0
M  V30 32130 H 3247.89 -1.58299 -4.40521 0
M  V30 32131 H 3248.07 -2.42747 -6.00814 0
M  V30 32132 N 3241.47 1.52892 -0.382318 0
M  V30 32133 C 3242.72 2.01091 0.201699 0
M  V30 32134 C 3243.04 1.27082 1.47902 0
M  V30 32135 O 3242.31 0.388864 1.92002 0
M  V30 32136 H 3240.89 0.742966 0.0775242 0
M  V30 32137 H 3243.55 1.88044 -0.512402 0
M  V30 32138 H 3242.65 3.09303 0.416864 0
M  V30 32139 N 3242.95 0.111941 1.57202 0
M  V30 32140 C 3244.2 -0.547539 1.94126 0
M  V30 32141 C 3244.51 -1.6828 0.997055 0
M  V30 32142 O 3245.72 -2.40456 1.26067 0
M  V30 32143 C 3244.18 -1.02539 3.44984 0
M  V30 32144 C 3243.78 0.0810316 4.47927 0
M  V30 32145 C 3245.53 -1.65664 3.9084 0
M  V30 32146 C 3243.43 -0.41312 5.89955 0
M  V30 32147 H 3242.36 -0.208308 0.724654 0
M  V30 32148 H 3245.02 0.190658 1.82507 0
M  V30 32149 H 3243.4 -1.81779 3.51813 0
M  V30 32150 H 3244.57 0.857083 4.52759 0
M  V30 32151 H 3242.89 0.618507 4.11781 0
M  V30 32152 H 3245.48 -2.03737 4.94363 0
M  V30 32153 H 3245.83 -2.53234 3.30422 0
M  V30 32154 H 3246.36 -0.929776 3.86782 0
M  V30 32155 H 3243.1 0.426353 6.54112 0
M  V30 32156 H 3242.62 -1.15581 5.88559 0
M  V30 32157 H 3244.3 -0.876643 6.41034 0
M  V30 32158 N 3244.43 -1.56767 -0.161814 0
M  V30 32159 C 3245.38 -1.98071 -1.21945 0
M  V30 32160 C 3246.37 -0.870861 -1.45301 0
M  V30 32161 O 3247.58 -1.05601 -1.45769 0
M  V30 32162 H 3243.95 -0.630313 -0.410134 0
M  V30 32163 H 3245.92 -2.86207 -0.844285 0
M  V30 32164 C 3244.67 -2.36481 -2.54896 0
M  V30 32165 H 3244 -3.21427 -2.37749 0
M  V30 32166 H 3245.44 -2.69218 -3.27563 0
M  V30 32167 C 3243.89 -1.21181 -3.14351 0
M  V30 32168 O 3244.42 -0.504569 -3.98518 0
M  V30 32169 N 3242.63 -0.979903 -2.7358 0
M  V30 32170 H 3242.18 -1.55679 -2.05236 0
M  V30 32171 H 3242.14 -0.210306 -3.13696 0
M  V30 32172 N 3245.91 0.430686 -1.51601 0
M  V30 32173 C 3246.87 1.50579 -1.72797 0
M  V30 32174 C 3247.87 1.4927 -0.597929 0
M  V30 32175 O 3249.06 1.51174 -0.865561 0
M  V30 32176 C 3246.19 2.9009 -1.79054 0
M  V30 32177 H 3247.39 1.33086 -2.68753 0
M  V30 32178 H 3244.94 0.659797 -1.41691 0
M  V30 32179 H 3245.67 3.1298 -0.849364 0
M  V30 32180 H 3245.46 2.92445 -2.61187 0
M  V30 32181 H 3246.95 3.68069 -1.97269 0
M  V30 32182 N 3247.39 1.4186 0.686559 0
M  V30 32183 C 3248.61 1.45277 1.48018 0
M  V30 32184 C 3249.04 0.0621627 1.87997 0
M  V30 32185 O 3248.39 -0.936706 1.55227 0
M  V30 32186 C 3248.44 2.37517 2.71326 0
M  V30 32187 O 3247.55 1.83843 3.69155 0
M  V30 32188 H 3246.89 0.49269 0.445143 0
M  V30 32189 H 3249.42 1.8642 0.843129 0
M  V30 32190 H 3249.43 2.53699 3.19532 0
M  V30 32191 H 3248.1 3.38554 2.41565 0
M  V30 32192 H 3246.68 1.77157 3.28131 0
M  V30 32193 N 3248.86 -0.921712 1.27837 0
M  V30 32194 C 3250.09 -1.70927 1.17468 0
M  V30 32195 C 3250.51 -1.86236 -0.264138 0
M  V30 32196 O 3249.87 -1.36674 -1.19122 0
M  V30 32197 C 3249.92 -3.08338 1.86975 0
M  V30 32198 O 3249.02 -3.95402 1.1718 0
M  V30 32199 H 3248.36 -0.523695 0.408216 0
M  V30 32200 H 3250.89 -1.15304 1.69015 0
M  V30 32201 H 3250.9 -3.58617 1.9457 0
M  V30 32202 H 3249.58 -2.96513 2.91638 0
M  V30 32203 H 3248.16 -3.53839 1.17695 0
M  V30 32204 N 3250.34 -1.09956 -1.12905 0
M  V30 32205 C 3251.27 -0.687807 -2.17588 0
M  V30 32206 C 3252.25 0.308416 -1.59648 0
M  V30 32207 O 3253.44 0.208494 -1.87343 0
M  V30 32208 C 3250.56 -0.0141114 -3.38697 0
M  V30 32209 C 3249.61 -0.973015 -4.15253 0
M  V30 32210 S 3250.44 -2.48785 -4.742 0
M  V30 32211 C 3251.6 -1.82672 -5.9865 0
M  V30 32212 H 3251.83 -1.5746 -2.52178 0
M  V30 32213 H 3249.36 -0.916073 -1.24288 0
M  V30 32214 H 3251.32 0.368271 -4.08845 0
M  V30 32215 H 3249.98 0.849402 -3.02397 0
M  V30 32216 H 3249.18 -0.448803 -5.01998 0
M  V30 32217 H 3248.78 -1.29706 -3.50788 0
M  V30 32218 H 3251.07 -1.154 -6.676 0
M  V30 32219 H 3252.01 -2.67355 -6.55688 0
M  V30 32220 H 3252.42 -1.29334 -5.49484 0
M  V30 32221 N 3251.82 1.30231 -0.887563 0
M  V30 32222 C 3252.78 2.26337 -0.361135 0
M  V30 32223 C 3253.78 1.52899 0.497844 0
M  V30 32224 O 3254.97 1.71516 0.30463 0
M  V30 32225 C 3252.1 3.37431 0.485076 0
M  V30 32226 H 3253.3 2.74416 -1.20978 0
M  V30 32227 H 3250.85 1.41464 -0.664644 0
M  V30 32228 H 3251.59 2.94672 1.3542 0
M  V30 32229 H 3251.37 3.91884 -0.130242 0
M  V30 32230 H 3252.86 4.0896 0.845097 0
M  V30 32231 N 3253.3 0.648782 1.43627 0
M  V30 32232 C 3254.54 0.169194 2.02695 0
M  V30 32233 C 3254.9 -1.20188 1.50242 0
M  V30 32234 O 3254.19 -1.78973 0.68405 0
M  V30 32235 C 3254.39 0.115345 3.57214 0
M  V30 32236 C 3254.22 1.47966 4.2466 0
M  V30 32237 C 3252.99 2.07092 4.60913 0
M  V30 32238 C 3255.18 2.41716 4.53958 0
M  V30 32239 N 3253.17 3.36575 5.13411 0
M  V30 32240 C 3254.54 3.55828 5.07727 0
M  V30 32241 C 3256.59 2.40573 4.35923 0
M  V30 32242 C 3255.29 4.69016 5.45359 0
M  V30 32243 C 3257.32 3.52839 4.74614 0
M  V30 32244 C 3256.68 4.65676 5.28512 0
M  V30 32245 H 3252.78 0.106241 0.77475 0
M  V30 32246 H 3255.37 0.856121 1.74868 0
M  V30 32247 H 3253.54 -0.540912 3.84615 0
M  V30 32248 H 3255.27 -0.374704 4.02962 0
M  V30 32249 H 3252.02 1.59849 4.45809 0
M  V30 32250 H 3252.45 4.02822 5.44117 0
M  V30 32251 H 3257.09 1.54576 3.9353 0
M  V30 32252 H 3254.81 5.55709 5.86697 0
M  V30 32253 H 3258.39 3.53152 4.62358 0
M  V30 32254 H 3257.27 5.5111 5.57896 0
M  V30 32255 N 3254.78 -1.52688 0.390421 0
M  V30 32256 C 3255.74 -2.2509 -0.43211 0
M  V30 32257 C 3256.74 -1.26768 -0.989273 0
M  V30 32258 O 3257.93 -1.50856 -0.871099 0
M  V30 32259 C 3255.06 -3.00681 -1.60636 0
M  V30 32260 H 3256.25 -2.9922 0.201786 0
M  V30 32261 H 3253.81 -1.55649 0.142559 0
M  V30 32262 H 3254.54 -2.30854 -2.27765 0
M  V30 32263 H 3254.33 -3.72848 -1.21354 0
M  V30 32264 H 3255.82 -3.5565 -2.18867 0
M  V30 32265 N 3256.25 -0.120276 -1.5714 0
M  V30 32266 C 3257.67 0.236307 -1.57841 0
M  V30 32267 C 3257.87 1.66624 -1.13307 0
M  V30 32268 O 3256.93 2.38778 -0.821046 0
M  V30 32269 C 3258.24 0.00182926 -3.007 0
M  V30 32270 C 3259.79 0.0676288 -3.12927 0
M  V30 32271 C 3260.26 -0.139172 -4.57788 0
M  V30 32272 N 3261.75 -0.0851854 -4.63122 0
M  V30 32273 C 3262.49 -0.220084 -5.72977 0
M  V30 32274 N 3261.98 -0.411224 -6.91578 0
M  V30 32275 N 3263.78 -0.159568 -5.61873 0
M  V30 32276 H 3255.93 -1.05425 -1.84389 0
M  V30 32277 H 3258.19 -0.41524 -0.85222 0
M  V30 32278 H 3257.9 -0.986777 -3.37573 0
M  V30 32279 H 3257.77 0.733138 -3.70007 0
M  V30 32280 H 3260.16 1.04676 -2.75911 0
M  V30 32281 H 3260.24 -0.695581 -2.46161 0
M  V30 32282 H 3259.88 -1.11529 -4.95504 0
M  V30 32283 H 3259.81 0.644039 -5.22647 0
M  V30 32284 H 3262.3 0.0589815 -3.77854 0
M  V30 32285 H 3262.62 -0.504987 -7.71148 0
M  V30 32286 H 3260.96 -0.447213 -6.9356 0
M  V30 32287 H 3264.15 -0.0111954 -4.68099 0
M  V30 32288 H 3264.33 -0.268141 -6.47445 0
M  V30 32289 N 3257.73 1.56851 0.153498 0
M  V30 32290 C 3258.66 2.00807 1.19159 0
M  V30 32291 C 3259.64 0.886544 1.4517 0
M  V30 32292 O 3260.83 1.1539 1.56201 0
M  V30 32293 C 3257.96 2.38315 2.52632 0
M  V30 32294 C 3256.91 3.53593 2.41155 0
M  V30 32295 C 3256.24 3.76896 3.79281 0
M  V30 32296 C 3257.54 4.86471 1.90114 0
M  V30 32297 H 3259.23 2.87777 0.82612 0
M  V30 32298 H 3256.78 1.38449 0.395948 0
M  V30 32299 H 3258.73 2.67666 3.25474 0
M  V30 32300 H 3257.46 1.48275 2.91002 0
M  V30 32301 H 3256.11 3.24398 1.70767 0
M  V30 32302 H 3255.76 2.84117 4.15074 0
M  V30 32303 H 3255.46 4.54471 3.72464 0
M  V30 32304 H 3256.99 4.08665 4.5368 0
M  V30 32305 H 3258.4 5.14581 2.52743 0
M  V30 32306 H 3256.8 5.67807 1.94204 0
M  V30 32307 H 3257.87 4.77277 0.856433 0
M  V30 32308 N 3259.21 -0.42264 1.51827 0
M  V30 32309 C 3260.16 -1.51279 1.70583 0
M  V30 32310 C 3261.14 -1.5085 0.559726 0
M  V30 32311 O 3262.34 -1.57055 0.816251 0
M  V30 32312 C 3259.47 -2.89339 1.84764 0
M  V30 32313 C 3258.55 -2.94468 3.05204 0
M  V30 32314 N 3258.94 -2.69315 4.28139 0
M  V30 32315 C 3257.24 -3.25633 3.04761 0
M  V30 32316 C 3257.94 -2.80665 5.09512 0
M  V30 32317 N 3256.92 -3.12966 4.44469 0
M  V30 32318 H 3260.72 -1.30607 2.63285 0
M  V30 32319 H 3258.23 -0.630165 1.49675 0
M  V30 32320 H 3260.23 -3.67786 1.96315 0
M  V30 32321 H 3258.89 -3.11021 0.932533 0
M  V30 32322 H 3259.9 -2.43964 4.56839 0
M  V30 32323 H 3256.58 -3.52995 2.22937 0
M  V30 32324 H 3257.97 -2.65047 6.17414 0
M  V30 32325 N 3260.69 -1.42222 -0.679027 0
M  V30 32326 C 3262.1 -1.25054 -0.991643 0
M  V30 32327 C 3262.3 -0.151701 -2.00928 0
M  V30 32328 O 3261.36 0.478463 -2.47925 0
M  V30 32329 C 3262.67 -2.60588 -1.50048 0
M  V30 32330 C 3264.22 -2.67908 -1.61847 0
M  V30 32331 C 3264.7 -4.03798 -2.16128 0
M  V30 32332 N 3266.19 -4.0573 -2.23467 0
M  V30 32333 C 3266.92 -5.07689 -2.66532 0
M  V30 32334 N 3266.42 -6.20033 -3.09081 0
M  V30 32335 N 3268.21 -4.95047 -2.66243 0
M  V30 32336 H 3260.36 -2.12399 -0.00518118 0
M  V30 32337 H 3262.63 -0.945781 -0.0648299 0
M  V30 32338 H 3262.33 -3.41833 -0.82725 0
M  V30 32339 H 3262.21 -2.84217 -2.47993 0
M  V30 32340 H 3264.59 -1.87012 -2.28278 0
M  V30 32341 H 3264.67 -2.48072 -0.62403 0
M  V30 32342 H 3264.32 -4.85149 -1.50308 0
M  V30 32343 H 3264.25 -4.20983 -3.16355 0
M  V30 32344 H 3266.74 -3.24625 -1.93461 0
M  V30 32345 H 3267.05 -6.93687 -3.40615 0
M  V30 32346 H 3265.4 -6.23545 -3.06948 0
M  V30 32347 H 3268.59 -4.06356 -2.32362 0
M  V30 32348 H 3268.76 -5.74641 -2.99485 0
M  V30 32349 N 3262.17 0.91492 -1.28324 0
M  V30 32350 C 3263.1 2.03396 -1.14684 0
M  V30 32351 C 3264.08 1.70041 -0.0449238 0
M  V30 32352 O 3265.26 1.9293 -0.221706 0
M  V30 32353 C 3262.39 3.37802 -0.806682 0
M  V30 32354 C 3261.35 3.85314 -1.86325 0
M  V30 32355 C 3260.67 5.16672 -1.37675 0
M  V30 32356 C 3261.97 4.07302 -3.2696 0
M  V30 32357 H 3263.67 2.15065 -2.08297 0
M  V30 32358 H 3261.21 1.03338 -1.00286 0
M  V30 32359 H 3263.17 4.15578 -0.698033 0
M  V30 32360 H 3261.89 3.26182 0.165146 0
M  V30 32361 H 3260.55 3.09741 -1.96102 0
M  V30 32362 H 3260.2 5.01454 -0.394015 0
M  V30 32363 H 3259.9 5.49432 -2.08323 0
M  V30 32364 H 3261.42 5.97005 -1.28129 0
M  V30 32365 H 3262.83 4.75607 -3.2011 0
M  V30 32366 H 3261.23 4.51391 -3.95432 0
M  V30 32367 H 3262.3 3.12152 -3.71065 0
M  V30 32368 N 3263.64 1.10553 1.1232 0
M  V30 32369 C 3264.59 0.750356 2.20165 0
M  V30 32370 C 3265.59 -0.254037 1.67484 0
M  V30 32371 O 3266.79 -0.114278 1.79637 0
M  V30 32372 H 3263.17 0.224722 0.717638 0
M  V30 32373 H 3265.14 1.66877 2.47375 0
M  V30 32374 C 3263.89 0.199712 3.47126 0
M  V30 32375 H 3263.21 0.963803 3.88009 0
M  V30 32376 H 3264.65 -0.0107288 4.23999 0
M  V30 32377 C 3263.11 -1.06786 3.19528 0
M  V30 32378 O 3263.64 -2.14917 3.39372 0
M  V30 32379 N 3261.85 -0.986984 2.73326 0
M  V30 32380 H 3261.39 -0.106951 2.57378 0
M  V30 32381 H 3261.35 -1.8358 2.55237 0
M  V30 32382 N 3265.12 -1.29758 0.894457 0
M  V30 32383 C 3266.09 -2.26142 0.373133 0
M  V30 32384 C 3267.09 -1.53161 -0.489729 0
M  V30 32385 O 3268.28 -1.71675 -0.29553 0
M  V30 32386 C 3265.41 -3.37684 -0.467174 0
M  V30 32387 H 3266.6 -2.73771 1.22431 0
M  V30 32388 H 3264.15 -1.4111 0.672137 0
M  V30 32389 H 3264.89 -2.95386 -1.33856 0
M  V30 32390 H 3264.67 -3.91809 0.151023 0
M  V30 32391 H 3266.16 -4.09402 -0.823397 0
M  V30 32392 N 3266.6 -0.65639 -1.4328 0
M  V30 32393 C 3267.83 -0.177281 -2.06641 0
M  V30 32394 C 3268.25 1.14943 -1.48895 0
M  V30 32395 O 3267.61 1.71079 -0.60013 0
M  V30 32396 C 3267.66 -0.103054 -3.60453 0
M  V30 32397 O 3266.76 0.933825 -4.01688 0
M  V30 32398 H 3266.1 -0.0963255 -0.656976 0
M  V30 32399 H 3268.63 -0.90021 -1.83732 0
M  V30 32400 H 3268.64 0.0792193 -4.07923 0
M  V30 32401 H 3267.32 -1.07154 -4.01859 0
M  V30 32402 H 3265.89 0.724083 -3.65802 0
M  V30 32403 N 3268.08 1.52478 -0.398513 0
M  V30 32404 C 3269.33 2.00877 0.182011 0
M  V30 32405 C 3269.64 1.28893 1.47126 0
M  V30 32406 O 3270.85 1.68051 2.13239 0
M  V30 32407 C 3269.3 3.57942 0.374915 0
M  V30 32408 C 3268.91 4.38833 -0.901621 0
M  V30 32409 C 3270.66 4.14603 0.911305 0
M  V30 32410 C 3268.56 5.87518 -0.676489 0
M  V30 32411 H 3267.49 0.750574 0.0717936 0
M  V30 32412 H 3270.14 1.75909 -0.522328 0
M  V30 32413 H 3268.53 3.79196 1.14133 0
M  V30 32414 H 3269.7 4.29343 -1.67336 0
M  V30 32415 H 3268.01 3.93438 -1.36364 0
M  V30 32416 H 3270.61 5.23355 1.0956 0
M  V30 32417 H 3270.95 3.7128 1.88299 0
M  V30 32418 H 3271.49 3.97275 0.204226 0
M  V30 32419 H 3268.23 6.35181 -1.61944 0
M  V30 32420 H 3267.75 5.99774 0.0561488 0
M  V30 32421 H 3269.43 6.46235 -0.314568 0
M  V30 32422 N 3269.56 0.128608 1.57074 0
M  V30 32423 C 3270.52 -0.803776 2.14644 0
M  V30 32424 C 3271.52 -1.18801 1.08365 0
M  V30 32425 O 3272.71 -1.11194 1.34095 0
M  V30 32426 C 3269.84 -2.08824 2.69454 0
M  V30 32427 H 3271.04 -0.303294 2.98362 0
M  V30 32428 H 3268.59 -0.120708 1.55833 0
M  V30 32429 H 3269.32 -2.63281 1.8935 0
M  V30 32430 H 3269.11 -1.82212 3.4719 0
M  V30 32431 H 3270.6 -2.75455 3.1387 0
M  V30 32432 N 3271.04 -1.5693 -0.145178 0
M  V30 32433 C 3272.31 -1.74369 -0.886279 0
M  V30 32434 C 3272.69 -0.697116 -1.99257 0
M  V30 32435 O 3272.04 0.28364 -2.26733 0
M  V30 32436 C 3272.25 -3.1849 -1.42706 0
M  V30 32437 C 3273.6 -3.80228 -1.88975 0
M  V30 32438 O 3274.62 -3.21931 -1.52444 0
M  V30 32439 O 3273.48 -4.82645 -2.56352 0
M  V30 32440 H 3270.58 -0.713019 -0.418967 0
M  V30 32441 H 3273.12 -1.69194 -0.130961 0
M  V30 32442 H 3271.89 -3.86161 -0.632097 0
M  V30 32443 H 3271.52 -3.28098 -2.24583 0
M  V30 32444 N 3272.51 0.414582 -1.52049 0
M  V30 32445 C 3273.44 1.51172 -1.77958 0
M  V30 32446 C 3274.42 1.57991 -0.63031 0
M  V30 32447 O 3275.61 1.73353 -0.875354 0
M  V30 32448 C 3272.74 2.89048 -1.92532 0
M  V30 32449 C 3271.69 2.97082 -3.08101 0
M  V30 32450 C 3271.02 4.37159 -3.0789 0
M  V30 32451 C 3272.32 2.69067 -4.47661 0
M  V30 32452 H 3274.01 1.29741 -2.69829 0
M  V30 32453 H 3271.56 0.622707 -1.2984 0
M  V30 32454 H 3273.51 3.65782 -2.0924 0
M  V30 32455 H 3272.24 3.11761 -0.97329 0
M  V30 32456 H 3270.9 2.22792 -2.91135 0
M  V30 32457 H 3270.54 4.56873 -2.10419 0
M  V30 32458 H 3270.24 4.4346 -3.85509 0
M  V30 32459 H 3271.77 5.15835 -3.26721 0
M  V30 32460 H 3273.18 3.35526 -4.64861 0
M  V30 32461 H 3271.58 2.86751 -5.27156 0
M  V30 32462 H 3272.65 1.64536 -4.56132 0
M  V30 32463 N 3273.99 1.4258 0.671475 0
M  V30 32464 C 3274.92 1.42269 1.797 0
M  V30 32465 C 3275.94 0.321296 1.59598 0
M  V30 32466 O 3277.13 0.584594 1.68656 0
M  V30 32467 C 3274.23 1.20229 3.16857 0
M  V30 32468 C 3273.4 2.42865 3.63779 0
M  V30 32469 C 3272.46 2.16321 4.79679 0
M  V30 32470 O 3271.48 2.89545 4.90053 0
M  V30 32471 N 3272.69 1.16841 5.6862 0
M  V30 32472 H 3275.45 2.39285 1.80451 0
M  V30 32473 H 3273.01 1.37502 0.854684 0
M  V30 32474 H 3275 1.00383 3.92053 0
M  V30 32475 H 3273.57 0.317243 3.10986 0
M  V30 32476 H 3272.79 2.78257 2.79226 0
M  V30 32477 H 3274.08 3.24521 3.91872 0
M  V30 32478 H 3273.48 0.562845 5.62893 0
M  V30 32479 H 3272.04 1.02981 6.43613 0
M  V30 32480 N 3275.47 -0.908102 1.28807 0
M  V30 32481 C 3276.69 -1.69672 1.19274 0
M  V30 32482 C 3277.12 -1.86506 -0.24437 0
M  V30 32483 O 3276.48 -1.37929 -1.17666 0
M  V30 32484 C 3276.53 -3.06338 1.90235 0
M  V30 32485 O 3275.63 -3.94137 1.21367 0
M  V30 32486 H 3274.97 -0.519336 0.413747 0
M  V30 32487 H 3277.5 -1.13505 1.70229 0
M  V30 32488 H 3277.51 -3.56534 1.98363 0
M  V30 32489 H 3276.19 -2.93403 2.94767 0
M  V30 32490 H 3274.76 -3.52571 1.21441 0
M  V30 32491 N 3276.95 -1.11147 -1.11732 0
M  V30 32492 C 3277.88 -0.724843 -2.17437 0
M  V30 32493 C 3278.89 0.242041 -1.60991 0
M  V30 32494 O 3280.08 0.0253945 -1.78482 0
M  V30 32495 C 3277.18 -0.0500635 -3.38863 0
M  V30 32496 C 3276.35 -1.04299 -4.24783 0
M  V30 32497 C 3275.41 -0.398336 -5.2469 0
M  V30 32498 O 3274.44 -1.05135 -5.59406 0
M  V30 32499 N 3275.64 0.840083 -5.74389 0
M  V30 32500 H 3278.41 -1.63433 -2.51217 0
M  V30 32501 H 3275.97 -1.00128 -1.27225 0
M  V30 32502 H 3277.96 0.392858 -4.02789 0
M  V30 32503 H 3276.53 0.761952 -3.03172 0
M  V30 32504 H 3275.75 -1.66396 -3.5736 0
M  V30 32505 H 3277.04 -1.71487 -4.7903 0
M  V30 32506 H 3276.44 1.38984 -5.48361 0
M  V30 32507 H 3274.99 1.22603 -6.40165 0
M  V30 32508 N 3278.43 1.29282 -0.901326 0
M  V30 32509 C 3279.36 2.30101 -0.396949 0
M  V30 32510 C 3280.34 1.61669 0.528891 0
M  V30 32511 O 3281.52 1.89167 0.439273 0
M  V30 32512 C 3278.65 3.4527 0.374945 0
M  V30 32513 C 3277.61 4.25514 -0.460615 0
M  V30 32514 C 3276.93 5.32896 0.438873 0
M  V30 32515 C 3278.23 4.93466 -1.71139 0
M  V30 32516 H 3279.93 2.72539 -1.23948 0
M  V30 32517 H 3277.47 1.31021 -0.597451 0
M  V30 32518 H 3279.42 4.14878 0.738549 0
M  V30 32519 H 3278.15 3.0168 1.25127 0
M  V30 32520 H 3276.81 3.57617 -0.806573 0
M  V30 32521 H 3276.46 4.85551 1.31338 0
M  V30 32522 H 3276.16 5.87484 -0.116509 0
M  V30 32523 H 3277.68 6.05355 0.798634 0
M  V30 32524 H 3279.09 5.55502 -1.41742 0
M  V30 32525 H 3277.49 5.57995 -2.20821 0
M  V30 32526 H 3278.56 4.18662 -2.44643 0
M  V30 32527 N 3279.9 0.663979 1.4293 0
M  V30 32528 C 3281.32 0.332523 1.56098 0
M  V30 32529 C 3281.52 -1.16276 1.64567 0
M  V30 32530 O 3280.58 -1.94791 1.60664 0
M  V30 32531 C 3281.89 1.05334 2.81648 0
M  V30 32532 C 3283.44 1.03462 2.95406 0
M  V30 32533 C 3283.91 1.73654 4.23802 0
M  V30 32534 N 3285.4 1.7047 4.3069 0
M  V30 32535 C 3286.14 2.21647 5.28829 0
M  V30 32536 N 3285.63 2.81158 6.33184 0
M  V30 32537 N 3287.43 2.12084 5.20554 0
M  V30 32538 H 3279.58 1.63418 1.35677 0
M  V30 32539 H 3281.84 0.687855 0.652349 0
M  V30 32540 H 3281.55 2.10847 2.8149 0
M  V30 32541 H 3281.42 0.611691 3.72207 0
M  V30 32542 H 3283.81 -0.0121417 2.95098 0
M  V30 32543 H 3283.89 1.51505 2.06106 0
M  V30 32544 H 3283.53 2.78293 4.24871 0
M  V30 32545 H 3283.46 1.23069 5.12017 0
M  V30 32546 H 3285.95 1.27052 3.55902 0
M  V30 32547 H 3286.27 3.17857 7.04405 0
M  V30 32548 H 3284.61 2.85223 6.33776 0
M  V30 32549 H 3287.8 1.65287 4.37947 0
M  V30 32550 H 3287.98 2.52275 5.96876 0
M  V30 32551 N 3281.38 -1.52265 0.406593 0
M  V30 32552 C 3282.61 -2.06685 -0.172065 0
M  V30 32553 C 3283.03 -1.2749 -1.38303 0
M  V30 32554 O 3282.39 -0.304473 -1.78725 0
M  V30 32555 C 3282.44 -3.57069 -0.5034 0
M  V30 32556 O 3281.54 -3.80316 -1.59478 0
M  V30 32557 H 3280.88 -0.663823 -0.0153092 0
M  V30 32558 H 3283.41 -1.96235 0.57906 0
M  V30 32559 H 3283.42 -4.00807 -0.762763 0
M  V30 32560 H 3282.1 -4.14143 0.381848 0
M  V30 32561 H 3280.67 -3.4846 -1.32778 0
M  V30 32562 N 3282.86 -0.136936 -1.57004 0
M  V30 32563 C 3284.27 0.385545 -1.82676 0
M  V30 32564 C 3284.62 1.65414 -1.05511 0
M  V30 32565 O 3283.75 2.14349 -0.297245 0
M  V30 32566 C 3284.34 0.706268 -3.31357 0
M  V30 32567 C 3282.9 1.17331 -3.57646 0
M  V30 32568 C 3282.05 0.19119 -2.7664 0
M  V30 32569 H 3285 -0.361798 -1.54521 0
M  V30 32570 H 3285.02 1.56195 -3.46963 0
M  V30 32571 H 3284.53 -0.217215 -3.87492 0
M  V30 32572 H 3282.63 2.11308 -3.06887 0
M  V30 32573 H 3282.75 1.10624 -4.66154 0
M  V30 32574 H 3281.11 0.681824 -2.45404 0
M  V30 32575 H 3281.89 -0.725706 -3.35542 0
M  V30 32576 N 3284.34 1.57005 0.136853 0
M  V30 32577 C 3285.27 2.0206 1.17022 0
M  V30 32578 C 3286.25 0.901891 1.44222 0
M  V30 32579 O 3287.43 1.1704 1.54969 0
M  V30 32580 C 3284.56 2.40981 2.5009 0
M  V30 32581 C 3283.52 3.56131 2.37391 0
M  V30 32582 C 3282.84 3.80897 3.75262 0
M  V30 32583 C 3284.14 4.8846 1.84943 0
M  V30 32584 H 3285.84 2.88637 0.795551 0
M  V30 32585 H 3283.38 1.38862 0.381241 0
M  V30 32586 H 3285.34 2.71103 3.22616 0
M  V30 32587 H 3284.06 1.51353 2.89413 0
M  V30 32588 H 3282.72 3.26191 1.67316 0
M  V30 32589 H 3282.37 2.88503 4.12038 0
M  V30 32590 H 3282.07 4.58396 3.67623 0
M  V30 32591 H 3283.59 4.13454 4.4932 0
M  V30 32592 H 3285.01 5.17233 2.47271 0
M  V30 32593 H 3283.4 5.69835 1.88171 0
M  V30 32594 H 3284.47 4.78158 0.805764 0
M  V30 32595 N 3285.82 -0.406513 1.52267 0
M  V30 32596 C 3287.06 -1.15095 1.66125 0
M  V30 32597 C 3287.39 -1.9096 0.394869 0
M  V30 32598 O 3286.66 -1.86794 -0.590316 0
M  V30 32599 H 3285.24 -0.427864 0.612325 0
M  V30 32600 H 3287.9 -0.463073 1.89319 0
M  V30 32601 H 3286.99 -1.86357 2.50355 0
M  V30 32602 N 3287.29 -1.42934 -0.663904 0
M  V30 32603 C 3288.71 -1.39145 -1.24481 0
M  V30 32604 C 3289.06 -0.0901487 -1.95993 0
M  V30 32605 O 3288.18 0.810777 -2.00637 0
M  V30 32606 C 3288.78 -2.52051 -2.26398 0
M  V30 32607 C 3287.34 -2.5156 -2.7999 0
M  V30 32608 C 3286.48 -2.30291 -1.54471 0
M  V30 32609 H 3289.43 -1.5199 -0.456593 0
M  V30 32610 H 3289.45 -2.22927 -3.08357 0
M  V30 32611 H 3288.97 -3.46747 -1.74322 0
M  V30 32612 H 3287.07 -1.60713 -3.36158 0
M  V30 32613 H 3287.18 -3.4897 -3.28263 0
M  V30 32614 H 3285.54 -1.78756 -1.81434 0
M  V30 32615 H 3286.33 -3.27058 -1.04345 0
M  V30 32616 N 3288.77 0.901258 -1.29287 0
M  V30 32617 C 3290.19 1.1818 -1.07265 0
M  V30 32618 C 3290.39 2.00721 0.177051 0
M  V30 32619 O 3289.44 2.36845 0.875251 0
M  V30 32620 C 3290.76 1.90426 -2.3272 0
M  V30 32621 C 3292.31 2.03258 -2.38024 0
M  V30 32622 C 3292.78 2.78914 -3.63278 0
M  V30 32623 N 3294.27 2.86469 -3.63992 0
M  V30 32624 C 3295.01 3.45541 -4.57591 0
M  V30 32625 N 3294.5 4.05792 -5.6152 0
M  V30 32626 N 3296.3 3.432 -4.45163 0
M  V30 32627 H 3288.45 0.350499 -2.09488 0
M  V30 32628 H 3290.71 0.217762 -0.92265 0
M  V30 32629 H 3290.42 1.3721 -3.23831 0
M  V30 32630 H 3290.29 2.90909 -2.40108 0
M  V30 32631 H 3292.68 2.55649 -1.47402 0
M  V30 32632 H 3292.76 1.01912 -2.34622 0
M  V30 32633 H 3292.4 2.27198 -4.5425 0
M  V30 32634 H 3292.33 3.80601 -3.63937 0
M  V30 32635 H 3294.82 2.43674 -2.88845 0
M  V30 32636 H 3295.14 4.48883 -6.29066 0
M  V30 32637 H 3293.48 4.04259 -5.65332 0
M  V30 32638 H 3296.67 2.95347 -3.63163 0
M  V30 32639 H 3296.84 3.88943 -5.18293 0
M  V30 32640 N 3290.25 1.11738 1.11141 0
M  V30 32641 C 3291.2 0.747604 2.15395 0
M  V30 32642 C 3292.18 -0.249866 1.58948 0
M  V30 32643 O 3293.38 -0.0564956 1.7691 0
M  V30 32644 C 3290.51 0.195836 3.42741 0
M  V30 32645 C 3289.59 1.22116 4.06139 0
M  V30 32646 N 3289.98 2.41639 4.44347 0
M  V30 32647 C 3288.28 1.06482 4.33102 0
M  V30 32648 C 3288.98 3.07055 4.94057 0
M  V30 32649 N 3287.96 2.34525 4.90407 0
M  V30 32650 H 3291.76 1.65724 2.42719 0
M  V30 32651 H 3289.27 0.997082 1.28188 0
M  V30 32652 H 3291.27 -0.0872251 4.16809 0
M  V30 32653 H 3289.93 -0.70835 3.16879 0
M  V30 32654 H 3290.94 2.79073 4.36279 0
M  V30 32655 H 3287.62 0.21732 4.16934 0
M  V30 32656 H 3289.01 4.08802 5.33227 0
M  V30 32657 N 3291.73 -1.28802 0.90817 0
M  V30 32658 C 3292.64 -2.31213 0.397208 0
M  V30 32659 C 3293.65 -1.66287 -0.512322 0
M  V30 32660 O 3294.83 -1.97391 -0.399859 0
M  V30 32661 C 3291.9 -3.44832 -0.359462 0
M  V30 32662 C 3290.96 -4.25328 0.582613 0
M  V30 32663 C 3290.19 -5.33521 -0.13804 0
M  V30 32664 O 3290.41 -5.53933 -1.36066 0
M  V30 32665 O 3289.35 -5.99617 0.523787 0
M  V30 32666 H 3293.17 -2.76916 1.24705 0
M  V30 32667 H 3290.76 -1.33394 0.67279 0
M  V30 32668 H 3292.64 -4.13985 -0.787025 0
M  V30 32669 H 3291.31 -3.01221 -1.18523 0
M  V30 32670 H 3290.22 -3.58784 1.05946 0
M  V30 32671 H 3291.55 -4.72603 1.37503 0
M  V30 32672 N 3293.21 -0.67155 -1.42576 0
M  V30 32673 C 3294.43 -0.200767 -2.05924 0
M  V30 32674 C 3294.85 1.1408 -1.50436 0
M  V30 32675 O 3294.21 1.70802 -0.642875 0
M  V30 32676 C 3294.26 -0.123568 -3.61289 0
M  V30 32677 O 3293.98 -1.41212 -4.14718 0
M  V30 32678 C 3295.48 0.3711 -4.41744 0
M  V30 32679 H 3292.7 -0.0984075 -0.663745 0
M  V30 32680 H 3295.24 -0.91737 -1.82769 0
M  V30 32681 H 3293.4 0.543702 -3.83566 0
M  V30 32682 H 3293.81 -1.28334 -5.08557 0
M  V30 32683 H 3295.29 0.374031 -5.50731 0
M  V30 32684 H 3295.76 1.40578 -4.16094 0
M  V30 32685 H 3296.37 -0.264319 -4.24478 0
M  V30 32686 N 3294.68 1.52047 -0.414663 0
M  V30 32687 C 3295.65 2.25749 0.396245 0
M  V30 32688 C 3296.65 1.28325 0.968981 0
M  V30 32689 O 3297.84 1.52223 0.846989 0
M  V30 32690 C 3294.97 3.03198 1.55832 0
M  V30 32691 H 3296.16 2.98861 -0.249364 0
M  V30 32692 H 3293.72 1.55402 -0.167303 0
M  V30 32693 H 3294.45 2.34448 2.24064 0
M  V30 32694 H 3294.24 3.74731 1.15407 0
M  V30 32695 H 3295.73 3.59087 2.13181 0
M  V30 32696 N 3296.16 0.145261 1.56929 0
M  V30 32697 C 3297.09 -0.826041 2.13797 0
M  V30 32698 C 3298.11 -1.21195 1.08699 0
M  V30 32699 O 3299.3 -1.15633 1.35983 0
M  V30 32700 C 3296.4 -2.11962 2.64434 0
M  V30 32701 C 3295.57 -1.90135 3.93913 0
M  V30 32702 C 3294.63 -3.03466 4.29878 0
M  V30 32703 O 3293.65 -2.75233 4.98232 0
M  V30 32704 N 3294.86 -4.30595 3.89318 0
M  V30 32705 H 3297.62 -0.340021 2.97765 0
M  V30 32706 H 3295.18 -0.0383643 1.61855 0
M  V30 32707 H 3297.17 -2.86824 2.85507 0
M  V30 32708 H 3295.74 -2.51833 1.852 0
M  V30 32709 H 3294.96 -0.993201 3.81483 0
M  V30 32710 H 3296.25 -1.72888 4.78526 0
M  V30 32711 H 3295.65 -4.56401 3.34237 0
M  V30 32712 H 3294.21 -5.02242 4.15447 0
M  V30 32713 N 3297.64 -1.57075 -0.128525 0
M  V30 32714 C 3298.57 -1.96275 -1.18359 0
M  V30 32715 C 3299.59 -0.860842 -1.38179 0
M  V30 32716 O 3300.78 -1.13918 -1.37422 0
M  V30 32717 C 3297.88 -2.23759 -2.54529 0
M  V30 32718 C 3297.05 -3.55062 -2.5544 0
M  V30 32719 C 3296.11 -3.70871 -3.73285 0
M  V30 32720 O 3295.13 -4.4308 -3.57308 0
M  V30 32721 N 3296.34 -3.08921 -4.91475 0
M  V30 32722 H 3299.1 -2.87387 -0.850225 0
M  V30 32723 H 3296.66 -1.58748 -0.317904 0
M  V30 32724 H 3298.65 -2.31559 -3.31908 0
M  V30 32725 H 3297.22 -1.38821 -2.80085 0
M  V30 32726 H 3296.44 -3.58537 -1.63844 0
M  V30 32727 H 3297.73 -4.41384 -2.53096 0
M  V30 32728 H 3297.13 -2.50205 -5.0736 0
M  V30 32729 H 3295.69 -3.22255 -5.66564 0
M  V30 32730 N 3299.12 0.398432 -1.5248 0
M  V30 32731 C 3300.05 1.49276 -1.79552 0
M  V30 32732 C 3301.03 1.57313 -0.647032 0
M  V30 32733 O 3302.22 1.72415 -0.893691 0
M  V30 32734 C 3299.35 2.8699 -1.95587 0
M  V30 32735 C 3298.3 2.93797 -3.11235 0
M  V30 32736 C 3297.63 4.33869 -3.12509 0
M  V30 32737 C 3298.93 2.64304 -4.50489 0
M  V30 32738 H 3300.62 1.26872 -2.7119 0
M  V30 32739 H 3298.17 0.608901 -1.30493 0
M  V30 32740 H 3300.12 3.63542 -2.13108 0
M  V30 32741 H 3298.84 3.10711 -1.0063 0
M  V30 32742 H 3297.5 2.19691 -2.93481 0
M  V30 32743 H 3297.15 4.54615 -2.15253 0
M  V30 32744 H 3296.85 4.39346 -3.9019 0
M  V30 32745 H 3298.37 5.12341 -3.32173 0
M  V30 32746 H 3299.79 3.30576 -4.68393 0
M  V30 32747 H 3298.18 2.81144 -5.30168 0
M  V30 32748 H 3299.25 1.59688 -4.57851 0
M  V30 32749 N 3300.6 1.43284 0.656314 0
M  V30 32750 C 3301.51 1.50642 1.79844 0
M  V30 32751 C 3302.52 0.393744 1.69486 0
M  V30 32752 O 3303.7 0.647413 1.90711 0
M  V30 32753 C 3300.76 1.42404 3.16104 0
M  V30 32754 C 3299.83 2.64318 3.38282 0
M  V30 32755 C 3299.06 2.56463 4.68041 0
M  V30 32756 O 3299.28 1.61066 5.47187 0
M  V30 32757 O 3298.22 3.46911 4.9187 0
M  V30 32758 H 3302.04 2.47081 1.76591 0
M  V30 32759 H 3299.63 1.25251 0.814406 0
M  V30 32760 H 3301.51 1.4024 3.9738 0
M  V30 32761 H 3300.18 0.490985 3.19955 0
M  V30 32762 H 3299.09 2.72054 2.56783 0
M  V30 32763 H 3300.42 3.56585 3.39276 0
M  V30 32764 N 3302.08 -0.894389 1.29763 0
M  V30 32765 C 3303.32 -1.6478 1.18217 0
M  V30 32766 C 3303.65 -1.92389 -0.264601 0
M  V30 32767 O 3302.93 -1.53811 -1.19048 0
M  V30 32768 C 3303.21 -2.99357 2.00143 0
M  V30 32769 C 3303.07 -2.78781 3.52989 0
M  V30 32770 C 3304.38 -4.0016 1.83194 0
M  V30 32771 H 3301.5 -0.597972 0.430812 0
M  V30 32772 H 3304.15 -1.03563 1.59294 0
M  V30 32773 H 3302.3 -3.51608 1.6524 0
M  V30 32774 H 3303.97 -2.33391 3.97903 0
M  V30 32775 H 3302.21 -2.13463 3.77645 0
M  V30 32776 H 3302.88 -3.74432 4.05591 0
M  V30 32777 H 3305.36 -3.57037 2.1369 0
M  V30 32778 H 3304.23 -4.92251 2.42858 0
M  V30 32779 H 3304.49 -4.35011 0.788545 0
M  V30 32780 N 3303.55 -1.12326 -1.10547 0
M  V30 32781 C 3304.48 -0.812454 -2.1891 0
M  V30 32782 C 3305.46 0.223241 -1.68629 0
M  V30 32783 O 3306.65 0.0846843 -1.94015 0
M  V30 32784 C 3303.78 -0.265008 -3.46287 0
M  V30 32785 C 3302.73 -1.23363 -4.09836 0
M  V30 32786 C 3302.06 -0.546467 -5.319 0
M  V30 32787 C 3303.36 -2.58786 -4.53682 0
M  V30 32788 H 3305.05 -1.71855 -2.45166 0
M  V30 32789 H 3302.6 -0.827735 -1.17833 0
M  V30 32790 H 3304.55 -0.0353105 -4.21385 0
M  V30 32791 H 3303.28 0.676423 -3.19519 0
M  V30 32792 H 3301.94 -1.44912 -3.36743 0
M  V30 32793 H 3301.58 0.400068 -5.01406 0
M  V30 32794 H 3301.28 -1.19259 -5.7537 0
M  V30 32795 H 3302.81 -0.32578 -6.0973 0
M  V30 32796 H 3304.22 -2.41272 -5.20058 0
M  V30 32797 H 3302.62 -3.19466 -5.07998 0
M  V30 32798 H 3303.69 -3.17315 -3.66659 0
M  V30 32799 N 3305.03 1.28319 -0.914988 0
M  V30 32800 C 3305.94 2.30999 -0.409464 0
M  V30 32801 C 3306.96 1.66556 0.503497 0
M  V30 32802 O 3308.13 1.976 0.389385 0
M  V30 32803 C 3305.2 3.45017 0.341169 0
M  V30 32804 C 3304.26 4.25013 -0.605161 0
M  V30 32805 C 3303.49 5.33587 0.109744 0
M  V30 32806 O 3303.72 5.54647 1.33127 0
M  V30 32807 O 3302.65 5.9933 -0.555579 0
M  V30 32808 H 3306.48 2.76251 -1.26172 0
M  V30 32809 H 3304.06 1.33035 -0.679855 0
M  V30 32810 H 3305.94 4.14397 0.765059 0
M  V30 32811 H 3304.62 3.01845 1.16923 0
M  V30 32812 H 3303.52 3.58217 -1.07848 0
M  V30 32813 H 3304.86 4.71867 -1.40008 0
M  V30 32814 N 3306.51 0.679102 1.42218 0
M  V30 32815 C 3307.44 -0.0355427 2.29172 0
M  V30 32816 C 3308.45 -0.761158 1.4391 0
M  V30 32817 O 3309.64 -0.6146 1.67586 0
M  V30 32818 C 3306.74 -1.07413 3.21428 0
M  V30 32819 C 3305.92 -0.421471 4.35365 0
M  V30 32820 C 3304.98 -1.36042 5.0831 0
M  V30 32821 O 3304 -0.859088 5.6268 0
M  V30 32822 N 3305.2 -2.69353 5.14227 0
M  V30 32823 H 3307.97 0.710916 2.91146 0
M  V30 32824 H 3305.53 0.523848 1.53191 0
M  V30 32825 H 3307.52 -1.70364 3.67094 0
M  V30 32826 H 3306.09 -1.72228 2.60876 0
M  V30 32827 H 3305.31 0.387628 3.9229 0
M  V30 32828 H 3306.6 0.0330315 5.08789 0
M  V30 32829 H 3306 -3.12619 4.71472 0
M  V30 32830 H 3304.55 -3.27541 5.63525 0
M  V30 32831 N 3307.99 -1.51825 0.42272 0
M  V30 32832 C 3308.92 -2.25099 -0.43163 0
M  V30 32833 C 3309.93 -1.28566 -0.998735 0
M  V30 32834 O 3311.12 -1.5442 -0.895363 0
M  V30 32835 C 3308.22 -2.97987 -1.61421 0
M  V30 32836 C 3307.39 -4.21501 -1.16859 0
M  V30 32837 C 3306.45 -4.77095 -2.21962 0
M  V30 32838 O 3305.48 -5.39321 -1.81994 0
M  V30 32839 N 3306.68 -4.59851 -3.54285 0
M  V30 32840 H 3309.45 -2.99056 0.196308 0
M  V30 32841 H 3307.01 -1.59945 0.250819 0
M  V30 32842 H 3309 -3.3207 -2.31326 0
M  V30 32843 H 3307.57 -2.27132 -2.14779 0
M  V30 32844 H 3306.79 -3.93078 -0.297148 0
M  V30 32845 H 3308.08 -5.01683 -0.848018 0
M  V30 32846 H 3307.48 -4.10253 -3.89498 0
M  V30 32847 H 3306.03 -4.98334 -4.20126 0
M  V30 32848 N 3309.47 -0.153581 -1.5685 0
M  V30 32849 C 3310.69 0.505869 -2.01136 0
M  V30 32850 C 3311.12 1.57194 -1.03304 0
M  V30 32851 O 3310.47 1.81297 -0.00979208 0
M  V30 32852 C 3310.52 1.07734 -3.44131 0
M  V30 32853 O 3309.63 2.19199 -3.49321 0
M  V30 32854 H 3308.97 0.123051 -0.652499 0
M  V30 32855 H 3311.5 -0.252252 -2.03039 0
M  V30 32856 H 3311.51 1.40437 -3.83068 0
M  V30 32857 H 3310.18 0.296681 -4.1484 0
M  V30 32858 H 3308.76 1.87675 -3.22231 0
M  V30 32859 N 3310.94 1.57141 0.120193 0
M  V30 32860 C 3312.17 1.88974 0.842407 0
M  V30 32861 C 3312.59 0.744701 1.73492 0
M  V30 32862 O 3311.94 -0.284525 1.80268 0
M  V30 32863 C 3311.99 3.20257 1.67683 0
M  V30 32864 O 3311.72 4.30353 0.820244 0
M  V30 32865 C 3313.22 3.65786 2.5043 0
M  V30 32866 H 3310.44 0.625752 0.24223 0
M  V30 32867 H 3312.98 2.04231 0.104942 0
M  V30 32868 H 3311.14 3.06674 2.36706 0
M  V30 32869 H 3311.55 5.0559 1.39566 0
M  V30 32870 H 3313.02 4.6041 3.0451 0
M  V30 32871 H 3313.5 2.92384 3.27732 0
M  V30 32872 H 3314.11 3.82154 1.86651 0
M  V30 32873 N 3312.42 -0.39034 1.5269 0
M  V30 32874 C 3313.65 -1.16126 1.71841 0
M  V30 32875 C 3314.07 -1.82995 0.435258 0
M  V30 32876 O 3313.43 -1.70771 -0.60886 0
M  V30 32877 C 3313.48 -2.18598 2.86788 0
M  V30 32878 O 3312.58 -3.25156 2.53668 0
M  V30 32879 H 3311.92 -0.338125 0.571461 0
M  V30 32880 H 3314.45 -0.455045 1.99476 0
M  V30 32881 H 3314.46 -2.62617 3.12244 0
M  V30 32882 H 3313.14 -1.69315 3.79875 0
M  V30 32883 H 3311.72 -2.86285 2.38947 0
M  V30 32884 N 3313.9 -1.4363 -0.648706 0
M  V30 32885 C 3314.83 -1.5195 -1.77295 0
M  V30 32886 C 3315.81 -0.373814 -1.65942 0
M  V30 32887 O 3317 -0.591629 -1.84969 0
M  V30 32888 C 3314.13 -1.44643 -3.15746 0
M  V30 32889 C 3313.08 -2.57508 -3.41868 0
M  V30 32890 C 3312.41 -2.35254 -4.80166 0
M  V30 32891 C 3313.71 -3.99737 -3.36166 0
M  V30 32892 H 3315.4 -2.46048 -1.70589 0
M  V30 32893 H 3312.95 -1.18422 -0.819285 0
M  V30 32894 H 3314.9 -1.49067 -3.94153 0
M  V30 32895 H 3313.62 -0.470523 -3.23193 0
M  V30 32896 H 3312.28 -2.52444 -2.65833 0
M  V30 32897 H 3311.93 -1.35896 -4.84295 0
M  V30 32898 H 3311.63 -3.10914 -4.98604 0
M  V30 32899 H 3313.15 -2.41469 -5.60825 0
M  V30 32900 H 3314.57 -4.06264 -4.04503 0
M  V30 32901 H 3312.97 -4.75459 -3.6614 0
M  V30 32902 H 3314.04 -4.24553 -2.3427 0
M  V30 32903 N 3315.38 0.887495 -1.30236 0
M  V30 32904 C 3316.63 1.63585 -1.18678 0
M  V30 32905 C 3316.95 1.93268 0.259308 0
M  V30 32906 O 3316.22 1.56735 1.1752 0
M  V30 32907 H 3314.8 0.606389 -0.436235 0
M  V30 32908 H 3317.46 1.06348 -1.63328 0
M  V30 32909 H 3316.56 2.58705 -1.7458 0
M  V30 32910 N 3316.86 1.12911 1.0995 0
M  V30 32911 C 3317.79 0.759343 2.16256 0
M  V30 32912 C 3318.8 -0.216398 1.61355 0
M  V30 32913 O 3319.99 0.00300362 1.785 0
M  V30 32914 C 3317.09 0.103967 3.3874 0
M  V30 32915 C 3316.26 1.11044 4.2307 0
M  V30 32916 C 3315.32 0.481759 5.2399 0
M  V30 32917 O 3314.35 1.14021 5.57663 0
M  V30 32918 N 3315.55 -0.748596 5.75653 0
M  V30 32919 H 3318.32 1.67409 2.48585 0
M  V30 32920 H 3315.88 1.02139 1.25615 0
M  V30 32921 H 3317.87 -0.328729 4.03363 0
M  V30 32922 H 3316.44 -0.713623 3.04345 0
M  V30 32923 H 3315.66 1.7206 3.54667 0
M  V30 32924 H 3316.95 1.79086 4.76241 0
M  V30 32925 H 3316.34 -1.30243 5.50503 0
M  V30 32926 H 3314.9 -1.12403 6.42035 0
M  V30 32927 N 3318.33 -1.27832 0.92178 0
M  V30 32928 C 3319.61 -1.89676 0.477739 0
M  V30 32929 C 3319.99 -1.83483 -1.04389 0
M  V30 32930 O 3319.34 -1.27609 -1.89547 0
M  V30 32931 C 3319.55 -3.33849 1.01715 0
M  V30 32932 C 3320.9 -4.10791 1.07407 0
M  V30 32933 O 3321.92 -3.42841 0.966355 0
M  V30 32934 O 3320.78 -5.32265 1.23919 0
M  V30 32935 H 3317.87 -0.812776 0.152724 0
M  V30 32936 H 3320.42 -1.36142 1.01309 0
M  V30 32937 H 3319.19 -3.3262 2.06106 0
M  V30 32938 H 3318.82 -3.94894 0.463101 0
M  V30 32939 N 3319.81 -0.686634 -1.41856 0
M  V30 32940 C 3320.78 -0.0247425 -2.29187 0
M  V30 32941 C 3321.78 0.717043 -1.43928 0
M  V30 32942 O 3322.97 0.553271 -1.6518 0
M  V30 32943 C 3320.1 0.97548 -3.26645 0
M  V30 32944 H 3321.29 -0.793553 -2.89211 0
M  V30 32945 H 3318.84 -0.449632 -1.49693 0
M  V30 32946 H 3319.58 1.77237 -2.71583 0
M  V30 32947 H 3319.36 0.446824 -3.89546 0
M  V30 32948 H 3320.85 1.43667 -3.92109 0
M  V30 32949 N 3321.29 1.51599 -0.430766 0
M  V30 32950 C 3322.71 1.59385 -0.0827182 0
M  V30 32951 C 3322.91 1.44217 1.40726 0
M  V30 32952 O 3321.96 1.28006 2.17648 0
M  V30 32953 C 3323.28 2.94715 -0.596962 0
M  V30 32954 C 3324.82 3.08007 -0.556826 0
M  V30 32955 C 3325.3 4.4585 -1.04793 0
M  V30 32956 N 3326.79 4.52151 -1.00565 0
M  V30 32957 C 3327.52 5.57121 -1.35659 0
M  V30 32958 N 3327.02 6.69541 -1.78006 0
M  V30 32959 N 3328.81 5.47445 -1.27518 0
M  V30 32960 H 3320.96 1.59704 -1.4003 0
M  V30 32961 H 3323.23 0.752472 -0.576619 0
M  V30 32962 H 3322.93 3.11164 -1.63919 0
M  V30 32963 H 3322.81 3.77196 -0.0183005 0
M  V30 32964 H 3325.19 2.91229 0.476406 0
M  V30 32965 H 3325.28 2.27381 -1.17181 0
M  V30 32966 H 3324.92 4.63374 -2.0796 0
M  V30 32967 H 3324.85 5.25005 -0.409553 0
M  V30 32968 H 3327.34 3.71462 -0.694583 0
M  V30 32969 H 3327.65 7.45651 -2.03039 0
M  V30 32970 H 3326 6.70766 -1.81927 0
M  V30 32971 H 3329.19 4.58502 -0.94305 0
M  V30 32972 H 3329.36 6.29141 -1.55197 0
M  V30 32973 N 3322.77 0.161897 1.56766 0
M  V30 32974 C 3324.18 -0.194375 1.58412 0
M  V30 32975 C 3324.38 -1.63562 1.17685 0
M  V30 32976 O 3323.44 -2.36518 0.884065 0
M  V30 32977 C 3324.75 0.0778967 3.00599 0
M  V30 32978 C 3326.3 0.015362 3.12996 0
M  V30 32979 C 3326.78 0.260498 4.57259 0
M  V30 32980 N 3328.27 0.207944 4.62733 0
M  V30 32981 C 3329 0.371921 5.72193 0
M  V30 32982 N 3328.5 0.594439 6.90245 0
M  V30 32983 N 3330.29 0.308483 5.61253 0
M  V30 32984 H 3322.44 1.10277 1.81529 0
M  V30 32985 H 3324.71 0.437689 0.840911 0
M  V30 32986 H 3324.41 1.07593 3.34838 0
M  V30 32987 H 3324.29 -0.63478 3.7182 0
M  V30 32988 H 3326.67 -0.973241 2.78589 0
M  V30 32989 H 3326.75 0.760602 2.4423 0
M  V30 32990 H 3326.4 1.24627 4.92372 0
M  V30 32991 H 3326.33 -0.505242 5.24171 0
M  V30 32992 H 3328.82 0.0412205 3.77878 0
M  V30 32993 H 3329.13 0.709266 7.69538 0
M  V30 32994 H 3327.48 0.630941 6.9213 0
M  V30 32995 H 3330.67 0.1353 4.67904 0
M  V30 32996 H 3330.84 0.439706 6.46506 0
M  V30 32997 N 3324.25 -1.57203 -0.111858 0
M  V30 32998 C 3325.18 -2.03896 -1.13793 0
M  V30 32999 C 3326.16 -0.924721 -1.42769 0
M  V30 33000 O 3327.34 -1.1949 -1.53087 0
M  V30 33001 C 3324.47 -2.4493 -2.46225 0
M  V30 33002 C 3323.43 -3.59863 -2.31696 0
M  V30 33003 C 3322.75 -3.86819 -3.69154 0
M  V30 33004 C 3324.05 -4.91341 -1.77149 0
M  V30 33005 H 3325.75 -2.89866 -0.74953 0
M  V30 33006 H 3323.29 -1.39451 -0.359101 0
M  V30 33007 H 3325.25 -2.76201 -3.18262 0
M  V30 33008 H 3323.97 -1.55938 -2.86968 0
M  V30 33009 H 3322.63 -3.28812 -1.62106 0
M  V30 33010 H 3322.28 -2.95022 -4.07396 0
M  V30 33011 H 3321.98 -4.64187 -3.60284 0
M  V30 33012 H 3323.5 -4.20549 -4.42686 0
M  V30 33013 H 3324.91 -5.21102 -2.39011 0
M  V30 33014 H 3323.31 -5.72756 -1.79081 0
M  V30 33015 H 3324.38 -4.7938 -0.729591 0
M  V30 33016 N 3325.72 0.382237 -1.52894 0
M  V30 33017 C 3326.97 1.12437 -1.67935 0
M  V30 33018 C 3327.29 1.90308 -0.425199 0
M  V30 33019 O 3326.56 1.8771 0.560524 0
M  V30 33020 H 3325.14 0.418068 -0.619054 0
M  V30 33021 H 3327.81 0.432895 -1.90032 0
M  V30 33022 H 3326.9 1.8235 -2.53288 0
M  V30 33023 N 3327.2 1.43972 0.64108 0
M  V30 33024 C 3328.45 1.45942 1.39805 0
M  V30 33025 C 3328.77 0.0894216 1.94795 0
M  V30 33026 O 3328.04 -0.876931 1.75176 0
M  V30 33027 H 3326.62 0.537358 0.518898 0
M  V30 33028 H 3329.28 1.79672 0.755246 0
M  V30 33029 H 3328.38 2.17907 2.23435 0
M  V30 33030 N 3328.68 -0.880575 1.30704 0
M  V30 33031 C 3329.61 -1.99253 1.13274 0
M  V30 33032 C 3330.63 -1.62628 0.0747472 0
M  V30 33033 O 3331.82 -1.75586 0.3212 0
M  V30 33034 C 3328.92 -3.3146 0.706237 0
M  V30 33035 C 3328.09 -3.96493 1.84694 0
M  V30 33036 C 3327.15 -5.07006 1.40825 0
M  V30 33037 O 3326.17 -5.28399 2.11619 0
M  V30 33038 N 3327.38 -5.79777 0.289721 0
M  V30 33039 H 3330.14 -2.14755 2.09047 0
M  V30 33040 H 3327.7 -1.05393 1.22898 0
M  V30 33041 H 3329.69 -4.02761 0.395688 0
M  V30 33042 H 3328.26 -3.12192 -0.159577 0
M  V30 33043 H 3327.48 -3.18308 2.32537 0
M  V30 33044 H 3328.77 -4.36682 2.61125 0
M  V30 33045 H 3328.17 -5.64904 -0.300078 0
M  V30 33046 H 3326.73 -6.51789 0.0386492 0
M  V30 33047 N 3330.16 -1.13492 -1.09349 0
M  V30 33048 C 3331.12 -0.815956 -2.14184 0
M  V30 33049 C 3332.12 0.174948 -1.59845 0
M  V30 33050 O 3333.31 -0.0522277 -1.74122 0
M  V30 33051 C 3330.44 -0.214577 -3.40224 0
M  V30 33052 H 3331.64 -1.74493 -2.4391 0
M  V30 33053 H 3329.19 -0.939656 -1.24901 0
M  V30 33054 H 3329.93 0.723578 -3.16125 0
M  V30 33055 H 3329.71 -0.928169 -3.80956 0
M  V30 33056 H 3331.2 -0.00829339 -4.17599 0
M  V30 33057 N 3331.64 1.27341 -0.928546 0
M  V30 33058 C 3332.88 1.94617 -0.57027 0
M  V30 33059 C 3333.22 1.72793 0.886351 0
M  V30 33060 O 3332.49 1.0575 1.6324 0
M  V30 33061 C 3332.77 3.48723 -0.898025 0
M  V30 33062 C 3332.63 3.79886 -2.40846 0
M  V30 33063 C 3333.95 4.38237 -0.404506 0
M  V30 33064 H 3331.07 0.706846 -0.208657 0
M  V30 33065 H 3333.71 1.50442 -1.16048 0
M  V30 33066 H 3331.86 3.86479 -0.395747 0
M  V30 33067 H 3333.53 3.51916 -2.9825 0
M  V30 33068 H 3331.77 3.26407 -2.85729 0
M  V30 33069 H 3332.44 4.87555 -2.58831 0
M  V30 33070 H 3334.92 4.07636 -0.83499 0
M  V30 33071 H 3333.8 5.44884 -0.66278 0
M  V30 33072 H 3334.06 4.36596 0.695431 0
M  V30 33073 N 3333.12 0.694147 1.4149 0
M  V30 33074 C 3334.36 0.224069 2.00854 0
M  V30 33075 C 3334.68 -1.17996 1.55248 0
M  V30 33076 O 3333.95 -1.79594 0.782483 0
M  V30 33077 H 3332.53 0.0798498 0.74272 0
M  V30 33078 H 3335.2 0.894988 1.73136 0
M  V30 33079 H 3334.29 0.240386 3.11173 0
M  V30 33080 N 3334.59 -1.51368 0.438799 0
M  V30 33081 C 3335.82 -2.06517 -0.125811 0
M  V30 33082 C 3336.24 -1.30608 -1.36334 0
M  V30 33083 O 3335.59 -0.366061 -1.78791 0
M  V30 33084 C 3335.64 -3.58731 -0.446556 0
M  V30 33085 O 3335.37 -4.31773 0.741857 0
M  V30 33086 C 3336.87 -4.30399 -1.06168 0
M  V30 33087 H 3334.09 -0.670961 -0.00727689 0
M  V30 33088 H 3336.63 -1.94929 0.618302 0
M  V30 33089 H 3334.79 -3.70229 -1.14057 0
M  V30 33090 H 3335.2 -5.22417 0.466998 0
M  V30 33091 H 3336.67 -5.37982 -1.23609 0
M  V30 33092 H 3337.15 -3.88785 -2.0431 0
M  V30 33093 H 3337.76 -4.23348 -0.407005 0
M  V30 33094 N 3336.07 -0.170208 -1.56678 0
M  V30 33095 C 3337.49 0.185971 -1.58513 0
M  V30 33096 C 3337.69 1.62935 -1.18551 0
M  V30 33097 O 3336.74 2.36045 -0.896596 0
M  V30 33098 C 3338.06 -0.0938371 -3.00554 0
M  V30 33099 C 3339.6 -0.0319607 -3.12984 0
M  V30 33100 C 3340.08 -0.284744 -4.57114 0
M  V30 33101 N 3341.57 -0.232481 -4.62616 0
M  V30 33102 C 3342.31 -0.402261 -5.71987 0
M  V30 33103 N 3341.8 -0.631036 -6.8992 0
M  V30 33104 N 3343.59 -0.338243 -5.61081 0
M  V30 33105 H 3335.75 -1.11238 -1.80942 0
M  V30 33106 H 3338.01 -0.442143 -0.838578 0
M  V30 33107 H 3337.71 -1.09367 -3.34263 0
M  V30 33108 H 3337.59 0.615052 -3.72152 0
M  V30 33109 H 3339.98 0.958453 -2.79102 0
M  V30 33110 H 3340.06 -0.773543 -2.43824 0
M  V30 33111 H 3339.7 -1.27236 -4.91705 0
M  V30 33112 H 3339.63 0.477437 -5.24431 0
M  V30 33113 H 3342.12 -0.0612597 -3.7785 0
M  V30 33114 H 3342.43 -0.750066 -7.69151 0
M  V30 33115 H 3340.78 -0.667637 -6.91786 0
M  V30 33116 H 3343.97 -0.160112 -4.67826 0
M  V30 33117 H 3344.14 -0.473985 -6.46264 0
M  V30 33118 N 3337.55 1.5726 0.10352 0
M  V30 33119 C 3338.83 1.76657 0.839737 0
M  V30 33120 C 3339.21 0.749701 1.97339 0
M  V30 33121 O 3338.55 -0.223426 2.27405 0
M  V30 33122 C 3338.76 3.22162 1.34212 0
M  V30 33123 C 3340.11 3.85105 1.78828 0
M  V30 33124 O 3341.14 3.25859 1.43855 0
M  V30 33125 O 3340 4.89272 2.43466 0
M  V30 33126 H 3337.09 0.723876 0.399915 0
M  V30 33127 H 3339.64 1.69482 0.086056 0
M  V30 33128 H 3338.41 3.87701 0.529492 0
M  V30 33129 H 3338.03 3.33937 2.15806 0
M  V30 33130 N 3339.03 -0.374123 1.53095 0
M  V30 33131 C 3339.96 -1.47773 1.75202 0
M  V30 33132 C 3340.97 -1.50004 0.632654 0
M  V30 33133 O 3342.16 -1.53638 0.908715 0
M  V30 33134 C 3339.26 -2.86572 1.80914 0
M  V30 33135 C 3338.43 -3.08135 3.10438 0
M  V30 33136 C 3337.49 -4.26999 3.07503 0
M  V30 33137 O 3336.52 -4.22586 3.81327 0
M  V30 33138 N 3337.72 -5.33968 2.27725 0
M  V30 33139 H 3340.49 -1.29191 2.70425 0
M  V30 33140 H 3338.05 -0.563775 1.51767 0
M  V30 33141 H 3340.04 -3.64214 1.76439 0
M  V30 33142 H 3338.61 -2.98442 0.930126 0
M  V30 33143 H 3337.83 -2.18228 3.28284 0
M  V30 33144 H 3339.12 -3.19406 3.96052 0
M  V30 33145 H 3338.52 -5.40414 1.67241 0
M  V30 33146 H 3337.07 -6.10219 2.29076 0
M  V30 33147 N 3340.51 -1.4431 -0.633436 0
M  V30 33148 C 3341.47 -1.50644 -1.7274 0
M  V30 33149 C 3342.47 -0.388746 -1.5603 0
M  V30 33150 O 3343.66 -0.651279 -1.61567 0
M  V30 33151 C 3340.79 -1.37814 -3.11801 0
M  V30 33152 H 3341.98 -2.48089 -1.68499 0
M  V30 33153 H 3339.54 -1.31368 -0.846889 0
M  V30 33154 H 3340.27 -0.414539 -3.2164 0
M  V30 33155 H 3340.06 -2.18858 -3.25336 0
M  V30 33156 H 3341.55 -1.45223 -3.91536 0
M  V30 33157 N 3341.98 0.873632 -1.3117 0
M  V30 33158 C 3343.21 1.6645 -1.23731 0
M  V30 33159 C 3343.63 1.87088 0.194836 0
M  V30 33160 O 3342.99 1.41 1.13967 0
M  V30 33161 C 3343.04 3.01186 -1.9829 0
M  V30 33162 O 3342.14 3.9078 -1.31774 0
M  V30 33163 H 3341.49 0.508183 -0.427371 0
M  V30 33164 H 3344.02 1.08952 -1.73178 0
M  V30 33165 H 3344.03 3.51149 -2.07746 0
M  V30 33166 H 3342.7 2.85485 -3.02442 0
M  V30 33167 H 3341.28 3.49228 -1.30746 0
M  V30 33168 N 3343.46 1.1407 1.08746 0
M  V30 33169 C 3344.39 0.782237 2.15438 0
M  V30 33170 C 3345.41 -0.199272 1.61576 0
M  V30 33171 O 3346.6 0.0219357 1.78487 0
M  V30 33172 C 3343.7 0.139889 3.38611 0
M  V30 33173 C 3342.87 1.15525 4.21868 0
M  V30 33174 C 3341.93 0.537308 5.2345 0
M  V30 33175 O 3340.95 1.19929 5.56422 0
M  V30 33176 N 3342.16 -0.687499 5.76415 0
M  V30 33177 H 3344.92 1.70036 2.46795 0
M  V30 33178 H 3342.48 1.03466 1.24525 0
M  V30 33179 H 3344.47 -0.285928 4.03689 0
M  V30 33180 H 3343.04 -0.681303 3.05085 0
M  V30 33181 H 3342.26 1.75812 3.52822 0
M  V30 33182 H 3343.55 1.84127 4.74315 0
M  V30 33183 H 3342.95 -1.24397 5.51853 0
M  V30 33184 H 3341.51 -1.05588 6.43191 0
M  V30 33185 N 3344.94 -1.26847 0.935286 0
M  V30 33186 C 3345.87 -2.28968 0.457817 0
M  V30 33187 C 3346.85 -1.63014 -0.485841 0
M  V30 33188 O 3348.04 -1.90265 -0.388964 0
M  V30 33189 C 3345.17 -3.46143 -0.283271 0
M  V30 33190 C 3344.12 -4.24143 0.573271 0
M  V30 33191 C 3343.45 -5.33872 -0.297431 0
M  V30 33192 C 3344.75 -4.88755 1.84162 0
M  V30 33193 H 3346.44 -2.69157 1.3113 0
M  V30 33194 H 3343.99 -1.29391 0.631979 0
M  V30 33195 H 3345.94 -4.1669 -0.628292 0
M  V30 33196 H 3344.66 -3.04892 -1.17084 0
M  V30 33197 H 3343.32 -3.55353 0.901105 0
M  V30 33198 H 3342.97 -4.88862 -1.18418 0
M  V30 33199 H 3342.67 -5.86969 0.272229 0
M  V30 33200 H 3344.19 -6.07259 -0.637854 0
M  V30 33201 H 3345.61 -5.51548 1.5642 0
M  V30 33202 H 3344.01 -5.51944 2.35538 0
M  V30 33203 H 3345.08 -4.12028 2.55657 0
M  V30 33204 N 3346.42 -0.701641 -1.4112 0
M  V30 33205 C 3347.35 -0.0546384 -2.33436 0
M  V30 33206 C 3348.33 0.760635 -1.52146 0
M  V30 33207 O 3349.51 0.712382 -1.80662 0
M  V30 33208 C 3346.64 0.878058 -3.36017 0
M  V30 33209 C 3345.6 0.169436 -4.27664 0
M  V30 33210 C 3344.92 1.2169 -5.20668 0
M  V30 33211 C 3346.22 -0.967949 -5.13252 0
M  V30 33212 H 3347.92 -0.825688 -2.87789 0
M  V30 33213 H 3345.46 -0.398508 -1.38376 0
M  V30 33214 H 3347.42 1.33997 -3.99528 0
M  V30 33215 H 3346.14 1.68084 -2.80027 0
M  V30 33216 H 3344.8 -0.272506 -3.65586 0
M  V30 33217 H 3344.45 2.01237 -4.60991 0
M  V30 33218 H 3344.15 0.747734 -5.82823 0
M  V30 33219 H 3345.67 1.6792 -5.87056 0
M  V30 33220 H 3347.09 -0.586045 -5.70297 0
M  V30 33221 H 3345.48 -1.3646 -5.84379 0
M  V30 33222 H 3346.55 -1.8049 -4.50057 0
M  V30 33223 N 3347.9 1.51133 -0.446821 0
M  V30 33224 C 3348.86 2.26539 0.348271 0
M  V30 33225 C 3349.86 1.30352 0.941543 0
M  V30 33226 O 3351.05 1.53985 0.81451 0
M  V30 33227 C 3348.18 3.06435 1.49366 0
M  V30 33228 H 3349.37 2.98265 -0.312701 0
M  V30 33229 H 3346.93 1.55012 -0.200228 0
M  V30 33230 H 3347.66 2.39148 2.19041 0
M  V30 33231 H 3347.45 3.77095 1.07432 0
M  V30 33232 H 3348.94 3.63528 2.05516 0
M  V30 33233 N 3349.37 0.178515 1.56586 0
M  V30 33234 C 3350.62 -0.463665 1.96709 0
M  V30 33235 C 3350.94 -1.6329 1.06589 0
M  V30 33236 O 3350.21 -1.95443 0.133717 0
M  V30 33237 H 3348.79 -0.174286 0.726384 0
M  V30 33238 H 3351.46 0.261379 1.93139 0
M  V30 33239 H 3350.55 -0.818881 3.01166 0
M  V30 33240 N 3350.85 -1.57312 -0.0951784 0
M  V30 33241 C 3352.08 -1.9029 -0.812237 0
M  V30 33242 C 3352.5 -0.772208 -1.72286 0
M  V30 33243 O 3351.85 0.25581 -1.80698 0
M  V30 33244 C 3351.9 -3.22884 -1.62566 0
M  V30 33245 O 3351.62 -4.31603 -0.751674 0
M  V30 33246 C 3353.13 -3.69724 -2.44579 0
M  V30 33247 H 3350.35 -0.629526 -0.232245 0
M  V30 33248 H 3352.89 -2.04372 -0.0724374 0
M  V30 33249 H 3351.04 -3.10401 -2.31797 0
M  V30 33250 H 3351.46 -5.07747 -1.31505 0
M  V30 33251 H 3352.93 -4.65197 -2.97146 0
M  V30 33252 H 3353.41 -2.97561 -3.23039 0
M  V30 33253 H 3354.02 -3.85075 -1.80547 0
M  V30 33254 N 3352.33 0.365999 -1.53291 0
M  V30 33255 C 3353.24 1.47218 -1.82658 0
M  V30 33256 C 3354.26 1.58634 -0.714938 0
M  V30 33257 O 3355.43 1.74536 -1.00495 0
M  V30 33258 C 3352.5 2.82489 -2.01 0
M  V30 33259 C 3351.56 2.80604 -3.249 0
M  V30 33260 C 3350.79 4.09423 -3.42357 0
M  V30 33261 O 3351.01 5.05566 -2.64119 0
M  V30 33262 O 3349.95 4.1526 -4.35709 0
M  V30 33263 H 3353.77 1.25325 -2.76636 0
M  V30 33264 H 3351.36 0.556059 -1.38666 0
M  V30 33265 H 3353.24 3.62641 -2.14638 0
M  V30 33266 H 3351.92 3.0436 -1.10212 0
M  V30 33267 H 3350.82 1.99152 -3.16685 0
M  V30 33268 H 3352.16 2.63687 -4.15608 0
M  V30 33269 N 3353.81 1.44644 0.625774 0
M  V30 33270 C 3354.77 1.51558 1.71939 0
M  V30 33271 C 3355.77 0.397015 1.55822 0
M  V30 33272 O 3356.96 0.659838 1.6122 0
M  V30 33273 C 3354.09 1.39466 3.11066 0
M  V30 33274 H 3355.29 2.48979 1.67181 0
M  V30 33275 H 3352.84 1.31815 0.839911 0
M  V30 33276 H 3353.57 0.431591 3.21415 0
M  V30 33277 H 3353.36 2.2058 3.24171 0
M  V30 33278 H 3354.85 1.47297 3.9076 0
M  V30 33279 N 3355.29 -0.866663 1.31631 0
M  V30 33280 C 3356.51 -1.65267 1.24477 0
M  V30 33281 C 3356.93 -1.87848 -0.189357 0
M  V30 33282 O 3356.29 -1.43897 -1.12249 0
M  V30 33283 C 3356.34 -3.01878 1.98877 0
M  V30 33284 O 3356.06 -2.80304 3.36692 0
M  V30 33285 C 3357.56 -3.96323 1.98602 0
M  V30 33286 H 3354.78 -0.515134 0.429975 0
M  V30 33287 H 3357.32 -1.08152 1.73561 0
M  V30 33288 H 3355.48 -3.55672 1.53545 0
M  V30 33289 H 3355.89 -3.67099 3.74618 0
M  V30 33290 H 3357.37 -4.89484 2.55165 0
M  V30 33291 H 3357.84 -4.2837 0.969332 0
M  V30 33292 H 3358.45 -3.48466 2.43827 0
M  V30 33293 N 3356.77 -1.14645 -1.0814 0
M  V30 33294 C 3357.7 -0.858705 -2.17137 0
M  V30 33295 C 3358.68 0.187422 -1.69064 0
M  V30 33296 O 3359.86 0.0435117 -1.94151 0
M  V30 33297 C 3356.99 -0.338401 -3.45647 0
M  V30 33298 C 3355.95 -1.32029 -4.07127 0
M  V30 33299 C 3355.27 -0.659168 -5.30621 0
M  V30 33300 C 3356.57 -2.68351 -4.48091 0
M  V30 33301 H 3358.27 -1.77017 -2.41465 0
M  V30 33302 H 3355.81 -0.852543 -1.1605 0
M  V30 33303 H 3357.76 -0.124685 -4.21216 0
M  V30 33304 H 3356.49 0.608496 -3.20881 0
M  V30 33305 H 3355.15 -1.52022 -3.33594 0
M  V30 33306 H 3354.8 0.293623 -5.02142 0
M  V30 33307 H 3354.5 -1.31437 -5.72711 0
M  V30 33308 H 3356.02 -0.45504 -6.08902 0
M  V30 33309 H 3357.43 -2.52249 -5.14824 0
M  V30 33310 H 3355.83 -3.30169 -5.01107 0
M  V30 33311 H 3356.9 -3.25021 -3.59846 0
M  V30 33312 N 3358.24 1.26349 -0.942 0
M  V30 33313 C 3359.49 1.93332 -0.58884 0
M  V30 33314 C 3359.81 1.74264 0.875036 0
M  V30 33315 O 3359.08 1.09876 1.62185 0
M  V30 33316 H 3357.66 0.715455 -0.214786 0
M  V30 33317 H 3360.32 1.53772 -1.1975 0
M  V30 33318 H 3359.42 3.01478 -0.80732 0
M  V30 33319 N 3359.72 0.709115 1.40746 0
M  V30 33320 C 3360.67 0.028967 2.27982 0
M  V30 33321 C 3361.66 -0.739139 1.42918 0
M  V30 33322 O 3362.85 -0.612404 1.66068 0
M  V30 33323 C 3359.98 -0.896798 3.3138 0
M  V30 33324 C 3359.06 -0.124222 4.23918 0
M  V30 33325 N 3359.45 0.889131 4.97924 0
M  V30 33326 C 3357.75 -0.35773 4.44563 0
M  V30 33327 C 3358.45 1.35278 5.65752 0
M  V30 33328 N 3357.43 0.676142 5.39379 0
M  V30 33329 H 3361.23 0.805725 2.8264 0
M  V30 33330 H 3358.74 0.541132 1.53119 0
M  V30 33331 H 3360.74 -1.39932 3.92714 0
M  V30 33332 H 3359.4 -1.673 2.78282 0
M  V30 33333 H 3360.41 1.26979 5.02092 0
M  V30 33334 H 3357.09 -1.11077 4.02453 0
M  V30 33335 H 3358.48 2.19443 6.35055 0
M  V30 33336 N 3361.2 -1.50894 0.454829 0
M  V30 33337 C 3362.16 -2.2672 -0.336253 0
M  V30 33338 C 3363.16 -1.30849 -0.934617 0
M  V30 33339 O 3364.35 -1.54415 -0.806332 0
M  V30 33340 C 3361.48 -3.07223 -1.47739 0
M  V30 33341 H 3362.68 -2.98095 0.328514 0
M  V30 33342 H 3360.23 -1.54904 0.208446 0
M  V30 33343 H 3360.97 -2.40306 -2.17769 0
M  V30 33344 H 3360.75 -3.7766 -1.05431 0
M  V30 33345 H 3362.24 -3.64613 -2.03585 0
M  V30 33346 N 3362.68 -0.186817 -1.56489 0
M  V30 33347 C 3363.62 0.737363 -2.18704 0
M  V30 33348 C 3364.59 1.21577 -1.13173 0
M  V30 33349 O 3365.78 1.28115 -1.4139 0
M  V30 33350 C 3362.92 1.95479 -2.84397 0
M  V30 33351 C 3362.03 1.51852 -4.04432 0
M  V30 33352 C 3361.17 2.69081 -4.58005 0
M  V30 33353 C 3360.21 2.22019 -5.70415 0
M  V30 33354 N 3359.34 3.32396 -6.18431 0
M  V30 33355 H 3364.18 0.200052 -2.97328 0
M  V30 33356 H 3361.72 0.0870062 -1.46842 0
M  V30 33357 H 3363.68 2.66907 -3.2065 0
M  V30 33358 H 3362.31 2.46555 -2.08352 0
M  V30 33359 H 3361.36 0.700414 -3.73896 0
M  V30 33360 H 3362.67 1.13318 -4.85758 0
M  V30 33361 H 3361.83 3.48643 -4.96521 0
M  V30 33362 H 3360.57 3.10884 -3.75769 0
M  V30 33363 H 3359.57 1.40908 -5.31437 0
M  V30 33364 H 3360.8 1.81257 -6.54464 0
M  V30 33365 H 3358.74 3.73746 -5.3912 0
M  V30 33366 H 3358.66 2.98005 -6.94787 0
M  V30 33367 H 3359.93 4.12197 -6.61599 0
M  V30 33368 N 3364.16 1.57361 0.0868344 0
M  V30 33369 C 3365.38 1.90718 0.802134 0
M  V30 33370 C 3365.8 0.781334 1.71874 0
M  V30 33371 O 3365.16 -0.246223 1.80831 0
M  V30 33372 C 3365.21 3.23742 1.60852 0
M  V30 33373 O 3364.93 4.31996 0.728775 0
M  V30 33374 C 3366.43 3.71016 2.42615 0
M  V30 33375 H 3363.65 0.630749 0.228903 0
M  V30 33376 H 3366.19 2.04407 0.0615981 0
M  V30 33377 H 3364.35 3.11626 2.30148 0
M  V30 33378 H 3364.76 5.08437 1.28811 0
M  V30 33379 H 3366.24 4.66766 2.94675 0
M  V30 33380 H 3366.71 2.9927 3.21456 0
M  V30 33381 H 3367.32 3.86027 1.78503 0
M  V30 33382 N 3365.63 -0.357865 1.53483 0
M  V30 33383 C 3366.56 -1.44463 1.83446 0
M  V30 33384 C 3367.54 -1.55543 0.688513 0
M  V30 33385 O 3368.73 -1.69985 0.93909 0
M  V30 33386 C 3365.86 -2.81703 2.03127 0
M  V30 33387 C 3364.81 -2.85442 3.18915 0
M  V30 33388 C 3364.14 -4.25431 3.23902 0
M  V30 33389 C 3365.44 -2.52267 4.57339 0
M  V30 33390 H 3367.13 -1.19637 2.74458 0
M  V30 33391 H 3364.68 -0.574089 1.32061 0
M  V30 33392 H 3366.63 -3.57764 2.22672 0
M  V30 33393 H 3365.36 -3.07933 1.08833 0
M  V30 33394 H 3364.02 -2.11833 2.99203 0
M  V30 33395 H 3363.66 -4.48749 2.27231 0
M  V30 33396 H 3363.36 -4.28847 4.01702 0
M  V30 33397 H 3364.89 -5.03354 3.4564 0
M  V30 33398 H 3366.3 -3.18042 4.76993 0
M  V30 33399 H 3364.7 -2.66988 5.37436 0
M  V30 33400 H 3365.77 -1.47493 4.61924 0
M  V30 33401 N 3367.11 -1.44974 -0.618094 0
M  V30 33402 C 3368.04 -1.55676 -1.74032 0
M  V30 33403 C 3369.02 -0.408929 -1.65111 0
M  V30 33404 O 3370.21 -0.63073 -1.83672 0
M  V30 33405 C 3367.34 -1.51308 -3.12607 0
M  V30 33406 C 3366.29 -2.64701 -3.36329 0
M  V30 33407 C 3365.62 -2.45386 -4.75068 0
M  V30 33408 C 3366.92 -4.06778 -3.27611 0
M  V30 33409 H 3368.61 -2.49611 -1.65332 0
M  V30 33410 H 3366.16 -1.20133 -0.793982 0
M  V30 33411 H 3368.11 -1.57394 -3.90903 0
M  V30 33412 H 3366.83 -0.538971 -3.22122 0
M  V30 33413 H 3365.49 -2.58026 -2.60419 0
M  V30 33414 H 3365.14 -1.46138 -4.81303 0
M  V30 33415 H 3364.84 -3.21421 -4.91897 0
M  V30 33416 H 3366.37 -2.5331 -5.55577 0
M  V30 33417 H 3367.78 -4.14753 -3.95794 0
M  V30 33418 H 3366.18 -4.83119 -3.55972 0
M  V30 33419 H 3367.25 -4.29427 -2.25212 0
M  V30 33420 N 3368.59 0.85967 -1.32089 0
M  V30 33421 C 3369.55 1.94937 -1.20549 0
M  V30 33422 C 3370.55 1.60275 -0.129848 0
M  V30 33423 O 3371.74 1.70007 -0.379883 0
M  V30 33424 C 3368.87 3.30061 -0.852775 0
M  V30 33425 H 3370.07 2.06598 -2.17387 0
M  V30 33426 H 3367.62 1.04924 -1.15848 0
M  V30 33427 H 3368.36 3.241 0.114002 0
M  V30 33428 H 3368.14 3.56595 -1.63041 0
M  V30 33429 H 3369.63 4.09939 -0.796217 0
M  V30 33430 N 3370.07 1.15217 1.0753 0
M  V30 33431 C 3371.03 0.849928 2.12859 0
M  V30 33432 C 3372.03 -0.149495 1.60104 0
M  V30 33433 O 3373.22 0.0799224 1.74017 0
M  V30 33434 C 3370.35 0.268677 3.3984 0
M  V30 33435 H 3371.55 1.78351 2.41103 0
M  V30 33436 H 3369.1 0.959407 1.2339 0
M  V30 33437 H 3369.83 -0.673194 3.17236 0
M  V30 33438 H 3369.62 0.988659 3.79431 0
M  V30 33439 H 3371.11 0.0747288 4.17533 0
M  V30 33440 N 3371.55 -1.25848 0.948687 0
M  V30 33441 C 3372.8 -1.92694 0.595972 0
M  V30 33442 C 3373.11 -1.75177 -0.870199 0
M  V30 33443 O 3374.31 -2.36545 -1.33262 0
M  V30 33444 C 3372.77 -3.45286 1.01517 0
M  V30 33445 C 3372.38 -3.71524 2.50348 0
M  V30 33446 C 3374.12 -4.18094 0.734708 0
M  V30 33447 C 3372.03 -5.17592 2.86099 0
M  V30 33448 H 3370.96 -0.721439 0.219183 0
M  V30 33449 H 3373.61 -1.42805 1.15234 0
M  V30 33450 H 3371.99 -3.94102 0.38727 0
M  V30 33451 H 3373.17 -3.33384 3.18106 0
M  V30 33452 H 3371.48 -3.11964 2.75803 0
M  V30 33453 H 3374.08 -5.25679 0.978054 0
M  V30 33454 H 3374.42 -4.15 -0.328734 0
M  V30 33455 H 3374.95 -3.75167 1.32268 0
M  V30 33456 H 3371.69 -5.25793 3.91436 0
M  V30 33457 H 3371.21 -5.56801 2.23008 0
M  V30 33458 H 3372.89 -5.85663 2.74969 0
M  V30 33459 N 3373.02 -0.716569 -1.40368 0
M  V30 33460 C 3374.44 -0.390229 -1.54756 0
M  V30 33461 C 3374.64 1.10088 -1.68769 0
M  V30 33462 O 3373.7 1.88694 -1.67783 0
M  V30 33463 C 3375.01 -1.15714 -2.77544 0
M  V30 33464 C 3376.56 -1.14354 -2.91362 0
M  V30 33465 C 3377.03 -1.89264 -4.17065 0
M  V30 33466 N 3378.52 -1.86337 -4.24067 0
M  V30 33467 C 3379.26 -2.41121 -5.20239 0
M  V30 33468 N 3378.75 -3.04465 -6.22313 0
M  V30 33469 N 3380.55 -2.31258 -5.12324 0
M  V30 33470 H 3372.7 -1.68341 -1.29518 0
M  V30 33471 H 3374.96 -0.711593 -0.62637 0
M  V30 33472 H 3374.67 -2.21149 -2.7347 0
M  V30 33473 H 3374.54 -0.749412 -3.6968 0
M  V30 33474 H 3376.93 -0.0973902 -2.94939 0
M  V30 33475 H 3377.01 -1.5905 -2.00341 0
M  V30 33476 H 3376.65 -2.9387 -4.1425 0
M  V30 33477 H 3376.58 -1.41987 -5.07097 0
M  V30 33478 H 3379.07 -1.40174 -3.50941 0
M  V30 33479 H 3379.39 -3.43781 -6.92123 0
M  V30 33480 H 3377.73 -3.08549 -6.22754 0
M  V30 33481 H 3380.92 -1.81428 -4.31511 0
M  V30 33482 H 3381.1 -2.74254 -5.87102 0
M  V30 33483 N 3374.5 1.50651 -0.462825 0
M  V30 33484 C 3375.47 2.26895 0.324224 0
M  V30 33485 C 3376.47 1.31343 0.927664 0
M  V30 33486 O 3377.66 1.5484 0.798132 0
M  V30 33487 C 3374.79 3.08002 1.46107 0
M  V30 33488 H 3375.98 2.97917 -0.344318 0
M  V30 33489 H 3373.53 1.54791 -0.216658 0
M  V30 33490 H 3374.27 2.41458 2.16492 0
M  V30 33491 H 3374.05 3.78213 1.03427 0
M  V30 33492 H 3375.54 3.65688 2.01649 0
M  V30 33493 N 3375.98 0.195113 1.56388 0
M  V30 33494 C 3377.23 -0.444309 1.97873 0
M  V30 33495 C 3377.56 -1.61269 1.08193 0
M  V30 33496 O 3376.83 -1.94038 0.133938 0
M  V30 33497 C 3377.12 -0.904429 3.48557 0
M  V30 33498 C 3376.97 0.265772 4.49014 0
M  V30 33499 C 3378.29 -1.76992 4.02941 0
M  V30 33500 H 3375.41 -0.160029 0.719416 0
M  V30 33501 H 3378.05 0.286038 1.87835 0
M  V30 33502 H 3376.2 -1.52676 3.57243 0
M  V30 33503 H 3377.87 0.903442 4.52367 0
M  V30 33504 H 3376.12 0.917536 4.23986 0
M  V30 33505 H 3376.79 -0.0986864 5.51912 0
M  V30 33506 H 3379.26 -1.24507 3.97036 0
M  V30 33507 H 3378.14 -2.06083 5.08745 0
M  V30 33508 H 3378.4 -2.72412 3.48202 0
M  V30 33509 N 3377.46 -1.57404 -0.0784879 0
M  V30 33510 C 3378.74 -1.77971 -0.811526 0
M  V30 33511 C 3379.12 -0.781001 -1.96121 0
M  V30 33512 O 3378.46 0.18722 -2.27732 0
M  V30 33513 C 3378.67 -3.24256 -1.2907 0
M  V30 33514 C 3380.02 -3.87901 -1.72678 0
M  V30 33515 O 3381.05 -3.28107 -1.38653 0
M  V30 33516 O 3379.9 -4.93083 -2.35651 0
M  V30 33517 H 3377 -0.730147 -0.388348 0
M  V30 33518 H 3379.54 -1.69597 -0.059082 0
M  V30 33519 H 3378.32 -3.88494 -0.467745 0
M  V30 33520 H 3377.94 -3.37328 -2.10466 0
M  V30 33521 N 3378.94 0.34972 -1.53671 0
M  V30 33522 C 3380.35 0.692431 -1.43797 0
M  V30 33523 C 3380.55 1.92676 -0.589753 0
M  V30 33524 O 3379.61 2.52378 -0.0783383 0
M  V30 33525 C 3380.92 0.89083 -2.87202 0
M  V30 33526 C 3382.47 0.98984 -2.96936 0
M  V30 33527 C 3382.94 1.2206 -4.41436 0
M  V30 33528 N 3384.44 1.28794 -4.44934 0
M  V30 33529 C 3385.17 1.48388 -5.53867 0
M  V30 33530 N 3384.67 1.65196 -6.72817 0
M  V30 33531 N 3386.46 1.50886 -5.4147 0
M  V30 33532 H 3378.61 -0.461931 -2.07316 0
M  V30 33533 H 3380.87 -0.144698 -0.936892 0
M  V30 33534 H 3380.58 0.0554477 -3.51656 0
M  V30 33535 H 3380.45 1.79436 -3.31787 0
M  V30 33536 H 3382.84 1.81575 -2.32625 0
M  V30 33537 H 3382.92 0.0633456 -2.55722 0
M  V30 33538 H 3382.57 0.39964 -5.06325 0
M  V30 33539 H 3382.5 2.16056 -4.80237 0
M  V30 33540 H 3384.99 1.17355 -3.59216 0
M  V30 33541 H 3385.3 1.79765 -7.51601 0
M  V30 33542 H 3383.64 1.62344 -6.75773 0
M  V30 33543 H 3386.84 1.37334 -4.47501 0
M  V30 33544 H 3387.01 1.65815 -6.26426 0
M  V30 33545 N 3380.41 1.45299 0.610397 0
M  V30 33546 C 3381.64 1.5269 1.39619 0
M  V30 33547 C 3382.06 0.158568 1.88133 0
M  V30 33548 O 3381.41 -0.839368 1.62052 0
M  V30 33549 C 3381.47 2.50896 2.60257 0
M  V30 33550 O 3381.19 3.82411 2.1376 0
M  V30 33551 C 3382.69 2.67957 3.53149 0
M  V30 33552 H 3379.91 0.517203 0.427484 0
M  V30 33553 H 3382.45 1.9046 0.744668 0
M  V30 33554 H 3380.61 2.16205 3.21456 0
M  V30 33555 H 3381.02 4.35621 2.92121 0
M  V30 33556 H 3382.49 3.40654 4.34349 0
M  V30 33557 H 3382.97 1.73895 4.03308 0
M  V30 33558 H 3383.58 3.03632 2.97805 0
M  V30 33559 N 3381.89 -0.852653 1.32543 0
M  V30 33560 C 3382.82 -1.97692 1.24258 0
M  V30 33561 C 3383.8 -1.69633 0.126001 0
M  V30 33562 O 3384.99 -1.91653 0.313503 0
M  V30 33563 C 3382.12 -3.33568 0.966933 0
M  V30 33564 C 3381.07 -3.75986 2.04496 0
M  V30 33565 C 3380.4 -5.09515 1.62169 0
M  V30 33566 C 3381.7 -3.91238 3.4602 0
M  V30 33567 H 3383.39 -2.04882 2.18321 0
M  V30 33568 H 3380.94 -0.984352 1.05102 0
M  V30 33569 H 3382.89 -4.11775 0.895516 0
M  V30 33570 H 3381.62 -3.26599 -0.00933189 0
M  V30 33571 H 3380.27 -3.00032 2.10657 0
M  V30 33572 H 3379.92 -4.99003 0.632816 0
M  V30 33573 H 3379.62 -5.38867 2.343 0
M  V30 33574 H 3381.15 -5.90212 1.56467 0
M  V30 33575 H 3382.56 -4.59793 3.42438 0
M  V30 33576 H 3380.96 -4.3201 4.16518 0
M  V30 33577 H 3382.03 -2.94093 3.85535 0
M  V30 33578 N 3383.37 -1.15786 -1.06918 0
M  V30 33579 C 3384.6 -0.959935 -1.83848 0
M  V30 33580 C 3385.02 0.486841 -1.81691 0
M  V30 33581 O 3384.38 1.34737 -1.21308 0
M  V30 33582 C 3384.43 -1.4842 -3.2864 0
M  V30 33583 O 3383.53 -0.686321 -4.06649 0
M  V30 33584 H 3382.87 -0.342069 -0.569109 0
M  V30 33585 H 3385.4 -1.53874 -1.34848 0
M  V30 33586 H 3385.41 -1.49894 -3.79468 0
M  V30 33587 H 3384.09 -2.53745 -3.29525 0
M  V30 33588 H 3382.66 -0.741565 -3.65452 0
M  V30 33589 N 3384.85 1.25343 -0.955348 0
M  V30 33590 C 3385.76 2.29579 -0.482748 0
M  V30 33591 C 3386.77 1.68074 0.450253 0
M  V30 33592 O 3387.95 1.98739 0.326323 0
M  V30 33593 C 3385.02 3.45928 0.231232 0
M  V30 33594 C 3384.08 4.22873 -0.74007 0
M  V30 33595 C 3383.31 5.33666 -0.0600686 0
M  V30 33596 O 3383.53 5.58602 1.15414 0
M  V30 33597 O 3382.47 5.97259 -0.74597 0
M  V30 33598 H 3386.29 2.72097 -1.34897 0
M  V30 33599 H 3383.88 1.30805 -0.721834 0
M  V30 33600 H 3385.76 4.16621 0.632835 0
M  V30 33601 H 3384.43 3.05412 1.07261 0
M  V30 33602 H 3383.34 3.54605 -1.19189 0
M  V30 33603 H 3384.67 4.67174 -1.54949 0
M  V30 33604 N 3386.33 0.724003 1.39986 0
M  V30 33605 C 3387.26 0.0917692 2.3332 0
M  V30 33606 C 3388.24 -0.736334 1.53337 0
M  V30 33607 O 3389.42 -0.68355 1.81772 0
M  V30 33608 C 3386.55 -0.82449 3.37371 0
M  V30 33609 C 3385.51 -0.101376 4.2788 0
M  V30 33610 C 3384.83 -1.13392 5.22538 0
M  V30 33611 C 3386.13 1.04948 5.11648 0
M  V30 33612 H 3387.83 0.871368 2.86439 0
M  V30 33613 H 3385.37 0.420472 1.37724 0
M  V30 33614 H 3387.33 -1.27624 4.01609 0
M  V30 33615 H 3386.05 -1.63608 2.82666 0
M  V30 33616 H 3384.71 0.330633 3.65106 0
M  V30 33617 H 3384.36 -1.93878 4.64134 0
M  V30 33618 H 3384.06 -0.654917 5.83939 0
M  V30 33619 H 3385.58 -1.58559 5.89654 0
M  V30 33620 H 3387 0.6767 5.69292 0
M  V30 33621 H 3385.39 1.4574 5.82134 0
M  V30 33622 H 3386.46 1.87628 4.47128 0
M  V30 33623 N 3387.81 -1.50403 0.470808 0
M  V30 33624 C 3388.74 -2.25189 -0.369492 0
M  V30 33625 C 3389.72 -1.28489 -0.996455 0
M  V30 33626 O 3390.9 -1.57711 -1.03244 0
M  V30 33627 C 3388.03 -3.02793 -1.51769 0
M  V30 33628 C 3387.07 -4.14414 -1.00813 0
M  V30 33629 S 3387.91 -5.35445 0.0769381 0
M  V30 33630 C 3389.06 -6.16597 -1.07514 0
M  V30 33631 H 3389.3 -2.96114 0.265338 0
M  V30 33632 H 3386.83 -1.52268 0.255689 0
M  V30 33633 H 3388.79 -3.48096 -2.17576 0
M  V30 33634 H 3387.45 -2.31395 -2.12404 0
M  V30 33635 H 3386.64 -4.68116 -1.86772 0
M  V30 33636 H 3386.24 -3.71545 -0.427785 0
M  V30 33637 H 3388.53 -6.47713 -1.98682 0
M  V30 33638 H 3389.48 -7.05742 -0.577394 0
M  V30 33639 H 3389.89 -5.48636 -1.32884 0
M  V30 33640 N 3389.28 -0.203404 -1.56282 0
M  V30 33641 C 3390.51 0.441623 -2.02644 0
M  V30 33642 C 3390.93 1.53828 -1.08252 0
M  V30 33643 O 3390.29 1.81174 -0.0674655 0
M  V30 33644 C 3390.34 0.967308 -3.47384 0
M  V30 33645 O 3389.44 2.07975 -3.56118 0
M  V30 33646 H 3388.78 0.10223 -0.656083 0
M  V30 33647 H 3391.31 -0.316719 -2.02134 0
M  V30 33648 H 3391.32 1.28179 -3.87342 0
M  V30 33649 H 3390 0.164552 -4.15574 0
M  V30 33650 H 3388.58 1.77328 -3.28038 0
M  V30 33651 N 3390.76 1.57444 0.0701393 0
M  V30 33652 C 3391.69 2.00532 1.10993 0
M  V30 33653 C 3392.71 0.911533 1.34889 0
M  V30 33654 O 3393.9 1.1894 1.331 0
M  V30 33655 C 3391 2.33052 2.46049 0
M  V30 33656 C 3390.17 3.64298 2.42086 0
M  V30 33657 C 3389.23 3.84469 3.59263 0
M  V30 33658 O 3388.25 4.56036 3.40617 0
M  V30 33659 N 3389.46 3.26949 4.79671 0
M  V30 33660 H 3392.22 2.90345 0.742978 0
M  V30 33661 H 3389.78 1.59819 0.258766 0
M  V30 33662 H 3391.77 2.43718 3.23085 0
M  V30 33663 H 3390.34 1.49121 2.74739 0
M  V30 33664 H 3389.56 3.64371 1.50424 0
M  V30 33665 H 3390.85 4.50473 2.3654 0
M  V30 33666 H 3390.25 2.68863 4.97724 0
M  V30 33667 H 3388.81 3.43061 5.54213 0
M  V30 33668 N 3392.24 -0.341566 1.53854 0
M  V30 33669 C 3393.47 -1.10159 1.75136 0
M  V30 33670 C 3393.88 -1.82292 0.491447 0
M  V30 33671 O 3393.24 -1.74421 -0.536999 0
M  V30 33672 C 3393.29 -2.11355 2.93277 0
M  V30 33673 O 3393.01 -1.42155 4.14395 0
M  V30 33674 C 3394.51 -2.99717 3.26626 0
M  V30 33675 H 3391.73 -0.328423 0.585132 0
M  V30 33676 H 3394.28 -0.393169 2.00685 0
M  V30 33677 H 3392.43 -2.77759 2.70053 0
M  V30 33678 H 3392.85 -2.09774 4.80723 0
M  V30 33679 H 3394.32 -3.66655 4.12636 0
M  V30 33680 H 3394.8 -3.65843 2.43014 0
M  V30 33681 H 3395.4 -2.38899 3.51862 0
M  V30 33682 N 3393.72 -1.45621 -0.602683 0
M  V30 33683 C 3394.97 -1.49597 -1.35886 0
M  V30 33684 C 3395.29 -0.141037 -1.94489 0
M  V30 33685 O 3394.56 0.830178 -1.7744 0
M  V30 33686 H 3393.14 -0.550927 -0.504469 0
M  V30 33687 H 3395.8 -1.81611 -0.707344 0
M  V30 33688 H 3394.89 -2.23754 -2.17579 0
M  V30 33689 N 3395.2 0.845612 -1.32993 0
M  V30 33690 C 3396.15 1.94322 -1.19259 0
M  V30 33691 C 3397.13 1.60606 -0.0971984 0
M  V30 33692 O 3398.32 1.73998 -0.324621 0
M  V30 33693 C 3395.45 3.30545 -0.927085 0
M  V30 33694 C 3394.54 3.70452 -2.06461 0
M  V30 33695 N 3394.93 3.8211 -3.314 0
M  V30 33696 C 3393.23 4.00144 -1.9698 0
M  V30 33697 C 3393.93 4.16617 -4.05962 0
M  V30 33698 N 3392.9 4.28623 -3.3434 0
M  V30 33699 H 3396.7 2.01481 -2.13968 0
M  V30 33700 H 3394.22 1.03793 -1.24903 0
M  V30 33701 H 3396.22 4.08963 -0.809637 0
M  V30 33702 H 3394.88 3.24698 0.0115399 0
M  V30 33703 H 3395.89 3.66193 -3.66228 0
M  V30 33704 H 3392.56 4.02547 -1.10735 0
M  V30 33705 H 3393.95 4.3303 -5.13746 0
M  V30 33706 N 3396.67 1.16351 1.06302 0
M  V30 33707 C 3397.6 0.893141 2.15743 0
M  V30 33708 C 3398.58 -0.160501 1.69341 0
M  V30 33709 O 3399.77 -0.0126184 1.94196 0
M  V30 33710 C 3396.9 0.393348 3.45065 0
M  V30 33711 C 3395.85 1.38489 4.04975 0
M  V30 33712 C 3395.18 0.743502 5.29506 0
M  V30 33713 C 3396.48 2.75445 4.43765 0
M  V30 33714 H 3398.17 1.80836 2.38619 0
M  V30 33715 H 3395.72 0.870898 1.14679 0
M  V30 33716 H 3397.67 0.191681 4.20964 0
M  V30 33717 H 3396.4 -0.55737 3.21809 0
M  V30 33718 H 3395.06 1.5731 3.31133 0
M  V30 33719 H 3394.7 -0.213699 5.02546 0
M  V30 33720 H 3394.4 1.40531 5.70548 0
M  V30 33721 H 3395.93 0.551853 6.08101 0
M  V30 33722 H 3397.34 2.60407 5.10745 0
M  V30 33723 H 3395.74 3.381 4.95791 0
M  V30 33724 H 3396.81 3.30705 3.5463 0
M  V30 33725 N 3398.15 -1.24835 0.961982 0
M  V30 33726 C 3399.4 -1.9237 0.619523 0
M  V30 33727 C 3399.72 -1.75635 -0.847202 0
M  V30 33728 O 3398.99 -1.12442 -1.60417 0
M  V30 33729 H 3397.57 -0.711947 0.226141 0
M  V30 33730 H 3400.23 -1.51848 1.22181 0
M  V30 33731 H 3399.33 -3.00155 0.855181 0
M  V30 33732 N 3399.63 -0.731417 -1.396 0
M  V30 33733 C 3400.56 -0.104141 -2.33268 0
M  V30 33734 C 3401.54 0.728191 -1.53725 0
M  V30 33735 O 3402.73 0.673901 -1.82132 0
M  V30 33736 C 3399.86 0.806586 -3.37804 0
M  V30 33737 C 3398.81 0.0786835 -4.27928 0
M  V30 33738 C 3398.14 1.10619 -5.23132 0
M  V30 33739 C 3399.44 -1.0766 -5.11084 0
M  V30 33740 H 3401.13 -0.886546 -2.85973 0
M  V30 33741 H 3398.68 -0.42777 -1.375 0
M  V30 33742 H 3400.63 1.25492 -4.02281 0
M  V30 33743 H 3399.35 1.62107 -2.83529 0
M  V30 33744 H 3398.01 -0.349991 -3.64926 0
M  V30 33745 H 3397.66 1.91414 -4.65156 0
M  V30 33746 H 3397.36 0.62394 -5.84278 0
M  V30 33747 H 3398.88 1.5543 -5.90486 0
M  V30 33748 H 3400.3 -0.706881 -5.68925 0
M  V30 33749 H 3398.69 -1.48825 -5.81353 0
M  V30 33750 H 3399.76 -1.89996 -4.46127 0
M  V30 33751 N 3401.11 1.50152 -0.478778 0
M  V30 33752 C 3402.07 2.27226 0.300141 0
M  V30 33753 C 3403.07 1.3232 0.913681 0
M  V30 33754 O 3404.26 1.55678 0.781664 0
M  V30 33755 C 3401.39 3.09535 1.42832 0
M  V30 33756 H 3402.59 2.97535 -0.375897 0
M  V30 33757 H 3400.14 1.54553 -0.233064 0
M  V30 33758 H 3400.87 2.4374 2.13919 0
M  V30 33759 H 3400.66 3.79289 0.994095 0
M  V30 33760 H 3402.15 3.67806 1.97759 0
M  V30 33761 N 3402.59 0.211689 1.56172 0
M  V30 33762 C 3403.53 -0.719024 2.21208 0
M  V30 33763 C 3404.53 -1.20723 1.18837 0
M  V30 33764 O 3405.73 -1.1682 1.36942 0
M  V30 33765 H 3402.11 -0.250266 0.709134 0
M  V30 33766 H 3404.08 -0.146969 2.98038 0
M  V30 33767 C 3402.83 -1.92079 2.89829 0
M  V30 33768 H 3402.15 -1.55421 3.68353 0
M  V30 33769 H 3403.59 -2.55 3.38749 0
M  V30 33770 C 3402.05 -2.77001 1.91761 0
M  V30 33771 O 3402.58 -3.75449 1.42833 0
M  V30 33772 N 3400.79 -2.42833 1.59626 0
M  V30 33773 H 3400.33 -1.62831 1.99609 0
M  V30 33774 H 3400.29 -2.99934 0.942694 0
M  V30 33775 N 3404.06 -1.57479 -0.0617887 0
M  V30 33776 C 3405.03 -2.03382 -1.0568 0
M  V30 33777 C 3406.03 -0.932446 -1.31004 0
M  V30 33778 O 3407.22 -1.19704 -1.26556 0
M  V30 33779 C 3404.35 -2.42299 -2.398 0
M  V30 33780 H 3405.54 -2.92526 -0.660955 0
M  V30 33781 H 3403.1 -1.5324 -0.307787 0
M  V30 33782 H 3403.83 -1.56212 -2.84198 0
M  V30 33783 H 3403.62 -3.22678 -2.22759 0
M  V30 33784 H 3405.11 -2.78354 -3.11302 0
M  V30 33785 N 3405.54 0.333401 -1.54033 0
M  V30 33786 C 3406.77 1.09668 -1.76033 0
M  V30 33787 C 3407.19 1.81253 -0.502876 0
M  V30 33788 O 3406.55 1.72913 0.54506 0
M  V30 33789 C 3406.6 2.07804 -2.94703 0
M  V30 33790 O 3405.7 3.15517 -2.65561 0
M  V30 33791 H 3405.04 0.316682 -0.583617 0
M  V30 33792 H 3407.57 0.380697 -2.01027 0
M  V30 33793 H 3407.58 2.50847 -3.21776 0
M  V30 33794 H 3406.26 1.551 -3.85898 0
M  V30 33795 H 3404.84 2.77219 -2.49407 0
M  V30 33796 N 3407.02 1.45939 0.594952 0
M  V30 33797 C 3407.98 1.55171 1.68685 0
M  V30 33798 C 3408.98 0.429978 1.54945 0
M  V30 33799 O 3410.17 0.693887 1.59784 0
M  V30 33800 C 3407.31 1.46033 3.08038 0
M  V30 33801 H 3408.5 2.52469 1.61862 0
M  V30 33802 H 3406.05 1.33567 0.811762 0
M  V30 33803 H 3406.79 0.499671 3.20427 0
M  V30 33804 H 3406.57 2.27407 3.19419 0
M  V30 33805 H 3408.06 1.55553 3.87548 0
M  V30 33806 N 3408.5 -0.838547 1.3344 0
M  V30 33807 C 3409.91 -1.41007 1.22368 0
M  V30 33808 C 3410.26 -1.95569 -0.157283 0
M  V30 33809 O 3409.39 -1.88835 -1.05689 0
M  V30 33810 C 3409.98 -2.56325 2.21547 0
M  V30 33811 C 3408.54 -3.09429 2.14314 0
M  V30 33812 C 3407.69 -1.82231 2.09015 0
M  V30 33813 H 3410.64 -0.644285 1.45033 0
M  V30 33814 H 3410.66 -3.33966 1.82338 0
M  V30 33815 H 3410.17 -2.16583 3.22045 0
M  V30 33816 H 3408.27 -3.53714 1.17119 0
M  V30 33817 H 3408.38 -3.6958 3.04872 0
M  V30 33818 H 3406.75 -2.02493 1.54495 0
M  V30 33819 H 3407.53 -1.44685 3.11322 0
M  V30 33820 N 3409.98 -1.16914 -1.05683 0
M  V30 33821 C 3411.2 -0.979381 -1.82819 0
M  V30 33822 C 3411.63 0.467543 -1.82197 0
M  V30 33823 O 3410.98 1.33443 -1.2273 0
M  V30 33824 C 3411.03 -1.51897 -3.27047 0
M  V30 33825 O 3410.14 -0.729413 -4.05898 0
M  V30 33826 H 3409.48 -0.348086 -0.565449 0
M  V30 33827 H 3412.01 -1.55295 -1.33209 0
M  V30 33828 H 3412.02 -1.53911 -3.77856 0
M  V30 33829 H 3410.69 -2.57225 -3.26815 0
M  V30 33830 H 3409.27 -0.780285 -3.64645 0
M  V30 33831 N 3411.45 1.24323 -0.968589 0
M  V30 33832 C 3412.7 1.92039 -0.629716 0
M  V30 33833 C 3413.02 1.76081 0.837876 0
M  V30 33834 O 3412.29 1.13291 1.59818 0
M  V30 33835 H 3410.87 0.710738 -0.229914 0
M  V30 33836 H 3413.54 1.51198 -1.22985 0
M  V30 33837 H 3412.63 2.99697 -0.871087 0
M  V30 33838 N 3412.93 0.73881 1.3921 0
M  V30 33839 C 3413.84 0.102999 2.34374 0
M  V30 33840 C 3414.86 -0.717568 1.58515 0
M  V30 33841 O 3416.03 -0.645152 1.90787 0
M  V30 33842 C 3413.1 -0.790674 3.37564 0
M  V30 33843 C 3412.16 0.0425783 4.29279 0
M  V30 33844 C 3411.39 -0.808535 5.2754 0
M  V30 33845 O 3411.62 -2.04713 5.32399 0
M  V30 33846 O 3410.55 -0.235173 6.0144 0
M  V30 33847 H 3414.38 0.888549 2.90411 0
M  V30 33848 H 3411.96 0.499523 1.40802 0
M  V30 33849 H 3413.84 -1.30189 4.00785 0
M  V30 33850 H 3412.52 -1.55497 2.83905 0
M  V30 33851 H 3411.43 0.5994 3.69267 0
M  V30 33852 H 3412.76 0.769186 4.86153 0
M  V30 33853 N 3414.41 -1.49895 0.486734 0
M  V30 33854 C 3415.34 -2.26727 -0.33577 0
M  V30 33855 C 3416.36 -1.32686 -0.943307 0
M  V30 33856 O 3417.54 -1.58078 -0.829062 0
M  V30 33857 C 3414.64 -3.04566 -1.48637 0
M  V30 33858 C 3413.82 -4.26078 -0.988762 0
M  V30 33859 C 3412.88 -4.8608 -2.01527 0
M  V30 33860 O 3411.9 -5.46554 -1.58956 0
M  V30 33861 N 3413.1 -4.74463 -3.34462 0
M  V30 33862 H 3415.87 -2.97955 0.322971 0
M  V30 33863 H 3413.43 -1.58738 0.318431 0
M  V30 33864 H 3415.42 -3.41583 -2.17033 0
M  V30 33865 H 3413.99 -2.36037 -2.04952 0
M  V30 33866 H 3413.21 -3.93985 -0.130163 0
M  V30 33867 H 3414.5 -5.04829 -0.634473 0
M  V30 33868 H 3413.9 -4.26404 -3.71747 0
M  V30 33869 H 3412.46 -5.15705 -3.98612 0
M  V30 33870 N 3415.89 -0.219968 -1.56057 0
M  V30 33871 C 3416.82 0.685508 -2.23211 0
M  V30 33872 C 3417.8 1.20227 -1.2033 0
M  V30 33873 O 3418.99 1.24656 -1.48911 0
M  V30 33874 C 3416.12 1.89447 -2.91079 0
M  V30 33875 C 3415.07 1.51161 -4.00418 0
M  V30 33876 C 3414.4 2.79922 -4.55574 0
M  V30 33877 C 3415.7 0.702805 -5.1755 0
M  V30 33878 H 3417.39 0.125619 -2.99136 0
M  V30 33879 H 3414.94 0.058979 -1.43879 0
M  V30 33880 H 3416.89 2.53335 -3.36748 0
M  V30 33881 H 3415.61 2.4793 -2.12598 0
M  V30 33882 H 3414.27 0.896213 -3.55477 0
M  V30 33883 H 3413.92 3.36547 -3.73825 0
M  V30 33884 H 3413.62 2.5504 -5.29366 0
M  V30 33885 H 3415.14 3.44755 -5.03961 0
M  V30 33886 H 3416.56 1.24534 -5.59611 0
M  V30 33887 H 3414.95 0.551129 -5.97564 0
M  V30 33888 H 3416.02 -0.290915 -4.84027 0
M  V30 33889 N 3417.37 1.57509 0.0534363 0
M  V30 33890 C 3418.3 2.07979 1.06147 0
M  V30 33891 C 3419.28 0.977072 1.39238 0
M  V30 33892 O 3420.46 1.2509 1.48547 0
M  V30 33893 C 3417.59 2.53899 2.36965 0
M  V30 33894 C 3416.55 3.68214 2.1818 0
M  V30 33895 C 3415.87 4.00254 3.54544 0
M  V30 33896 C 3417.17 4.97577 1.58791 0
M  V30 33897 H 3418.87 2.92448 0.641432 0
M  V30 33898 H 3416.41 1.40687 0.307098 0
M  V30 33899 H 3418.37 2.87823 3.07792 0
M  V30 33900 H 3417.09 1.66481 2.80983 0
M  V30 33901 H 3415.75 3.34602 1.4979 0
M  V30 33902 H 3415.4 3.09939 3.96165 0
M  V30 33903 H 3415.1 4.77238 3.42808 0
M  V30 33904 H 3416.62 4.3669 4.26772 0
M  V30 33905 H 3418.04 5.29613 2.19506 0
M  V30 33906 H 3416.43 5.79008 1.577 0
M  V30 33907 H 3417.5 4.81757 0.551169 0
M  V30 33908 N 3418.85 -0.325228 1.54208 0
M  V30 33909 C 3420.26 -0.669467 1.4488 0
M  V30 33910 C 3420.46 -1.91714 0.620332 0
M  V30 33911 O 3419.52 -2.52222 0.11848 0
M  V30 33912 C 3420.83 -0.845026 2.88582 0
M  V30 33913 C 3422.38 -0.942474 2.98473 0
M  V30 33914 C 3422.85 -1.15022 4.43322 0
M  V30 33915 N 3424.34 -1.21699 4.46927 0
M  V30 33916 C 3425.08 -1.39558 5.56157 0
M  V30 33917 N 3424.58 -1.54471 6.7536 0
M  V30 33918 N 3426.37 -1.42253 5.43802 0
M  V30 33919 H 3418.52 0.494855 2.06555 0
M  V30 33920 H 3420.78 0.159585 0.934471 0
M  V30 33921 H 3420.49 0.000504816 3.517 0
M  V30 33922 H 3420.36 -1.74135 3.34599 0
M  V30 33923 H 3422.75 -1.77851 2.35485 0
M  V30 33924 H 3422.83 -0.0226545 2.5579 0
M  V30 33925 H 3422.47 -0.319038 5.06897 0
M  V30 33926 H 3422.4 -2.08388 4.83613 0
M  V30 33927 H 3424.9 -1.11625 3.61038 0
M  V30 33928 H 3425.21 -1.67785 7.54366 0
M  V30 33929 H 3423.55 -1.51572 6.7827 0
M  V30 33930 H 3426.74 -1.30197 4.49629 0
M  V30 33931 H 3426.92 -1.55829 6.28984 0
M  V30 33932 N 3420.32 -1.46252 -0.587204 0
M  V30 33933 C 3421.55 -1.54892 -1.37172 0
M  V30 33934 C 3421.97 -0.188478 -1.87857 0
M  V30 33935 O 3421.32 0.81348 -1.63367 0
M  V30 33936 C 3421.37 -2.55004 -2.56232 0
M  V30 33937 O 3421.1 -3.85764 -2.07649 0
M  V30 33938 C 3422.6 -2.73541 -3.48841 0
M  V30 33939 H 3419.82 -0.523938 -0.419201 0
M  V30 33940 H 3422.36 -1.9162 -0.714273 0
M  V30 33941 H 3420.52 -2.21292 -3.17976 0
M  V30 33942 H 3420.93 -4.40213 -2.85153 0
M  V30 33943 H 3422.4 -3.47521 -4.28874 0
M  V30 33944 H 3422.88 -1.80289 -4.0049 0
M  V30 33945 H 3423.49 -3.08331 -2.92937 0
M  V30 33946 N 3421.8 0.831459 -1.33883 0
M  V30 33947 C 3422.73 1.9569 -1.27387 0
M  V30 33948 C 3423.71 1.69411 -0.152972 0
M  V30 33949 O 3424.9 1.9113 -0.343954 0
M  V30 33950 C 3422.03 3.31988 -1.01988 0
M  V30 33951 C 3420.98 3.72685 -2.10452 0
M  V30 33952 C 3420.31 5.0687 -1.70254 0
M  V30 33953 C 3421.61 3.85684 -3.52201 0
M  V30 33954 H 3423.3 2.01382 -2.21552 0
M  V30 33955 H 3420.85 0.967507 -1.06655 0
M  V30 33956 H 3422.8 4.10298 -0.960913 0
M  V30 33957 H 3421.52 3.26572 -0.0426283 0
M  V30 33958 H 3420.18 2.96643 -2.15403 0
M  V30 33959 H 3419.83 4.97934 -0.712124 0
M  V30 33960 H 3419.53 5.35071 -2.42843 0
M  V30 33961 H 3421.06 5.87648 -1.65837 0
M  V30 33962 H 3422.47 4.54287 -3.49709 0
M  V30 33963 H 3420.87 4.25329 -4.23338 0
M  V30 33964 H 3421.94 2.87922 -3.90165 0
M  V30 33965 N 3423.28 1.17472 1.05062 0
M  V30 33966 C 3424.24 0.894887 2.11008 0
M  V30 33967 C 3425.24 -0.115501 1.60385 0
M  V30 33968 O 3426.43 0.116816 1.73808 0
M  V30 33969 C 3423.56 0.340701 3.39193 0
M  V30 33970 H 3424.76 1.83425 2.37266 0
M  V30 33971 H 3422.31 0.985364 1.21327 0
M  V30 33972 H 3423.05 -0.605752 3.18592 0
M  V30 33973 H 3422.83 1.06892 3.77249 0
M  V30 33974 H 3424.32 0.163277 4.17281 0
M  V30 33975 N 3424.76 -1.23807 0.975168 0
M  V30 33976 C 3425.67 -2.28782 0.519211 0
M  V30 33977 C 3426.68 -1.68769 -0.423457 0
M  V30 33978 O 3427.86 -1.99233 -0.294664 0
M  V30 33979 C 3424.92 -3.46252 -0.176168 0
M  V30 33980 C 3423.99 -4.21642 0.807252 0
M  V30 33981 C 3423.22 -5.33503 0.144963 0
M  V30 33982 O 3423.44 -5.60367 -1.06512 0
M  V30 33983 O 3422.38 -5.95997 0.840894 0
M  V30 33984 H 3426.2 -2.69916 1.39208 0
M  V30 33985 H 3423.79 -1.2964 0.742553 0
M  V30 33986 H 3425.67 -4.17575 -0.566474 0
M  V30 33987 H 3424.34 -3.0708 -1.02389 0
M  V30 33988 H 3423.25 -3.52664 1.24816 0
M  V30 33989 H 3424.58 -4.6465 1.62362 0
M  V30 33990 N 3426.24 -0.746182 -1.38816 0
M  V30 33991 C 3427.48 -0.299494 -2.00576 0
M  V30 33992 C 3427.81 1.11375 -1.59089 0
M  V30 33993 O 3427.09 1.76138 -0.824963 0
M  V30 33994 C 3427.37 -0.413995 -3.57712 0
M  V30 33995 C 3427.23 -1.86781 -4.09186 0
M  V30 33996 C 3428.54 0.197004 -4.39659 0
M  V30 33997 H 3425.66 -0.110297 -0.7287 0
M  V30 33998 H 3428.31 -0.944437 -1.64865 0
M  V30 33999 H 3426.46 0.135087 -3.88265 0
M  V30 34000 H 3428.13 -2.47463 -3.89307 0
M  V30 34001 H 3426.37 -2.38538 -3.62328 0
M  V30 34002 H 3427.04 -1.89913 -5.18302 0
M  V30 34003 H 3429.52 -0.271194 -4.15215 0
M  V30 34004 H 3428.39 0.0866046 -5.48832 0
M  V30 34005 H 3428.65 1.28442 -4.23031 0
M  V30 34006 N 3427.71 1.49635 -0.494676 0
M  V30 34007 C 3428.62 2.32778 0.29184 0
M  V30 34008 C 3429.64 1.44222 0.973443 0
M  V30 34009 O 3430.82 1.77252 0.956221 0
M  V30 34010 C 3427.88 3.19504 1.34603 0
M  V30 34011 C 3426.94 4.23904 0.678537 0
M  V30 34012 C 3426.17 5.06486 1.6825 0
M  V30 34013 O 3426.4 4.90487 2.91168 0
M  V30 34014 O 3425.33 5.88961 1.24131 0
M  V30 34015 H 3429.16 3.01205 -0.388512 0
M  V30 34016 H 3426.74 1.47188 -0.256112 0
M  V30 34017 H 3428.62 3.73249 1.95611 0
M  V30 34018 H 3427.3 2.53779 2.00943 0
M  V30 34019 H 3426.21 3.74089 0.0288884 0
M  V30 34020 H 3427.54 4.92166 0.0576952 0
M  V30 34021 N 3429.19 0.228241 1.55939 0
M  V30 34022 C 3430.61 -0.127012 1.59094 0
M  V30 34023 C 3430.81 -1.58423 1.24517 0
M  V30 34024 O 3429.86 -2.32555 0.983585 0
M  V30 34025 C 3431.18 0.205321 2.99998 0
M  V30 34026 C 3432.72 0.148101 3.12649 0
M  V30 34027 C 3433.2 0.454203 4.55742 0
M  V30 34028 N 3434.69 0.404018 4.61435 0
M  V30 34029 C 3435.43 0.614273 5.701 0
M  V30 34030 N 3434.92 0.88666 6.87103 0
M  V30 34031 N 3436.71 0.546252 5.59439 0
M  V30 34032 H 3428.87 1.17877 1.76688 0
M  V30 34033 H 3431.13 0.472961 0.821591 0
M  V30 34034 H 3430.83 1.21698 3.29973 0
M  V30 34035 H 3430.71 -0.476507 3.74178 0
M  V30 34036 H 3433.1 -0.854206 2.82467 0
M  V30 34037 H 3433.18 0.863504 2.40785 0
M  V30 34038 H 3432.82 1.45398 4.86644 0
M  V30 34039 H 3432.75 -0.282469 5.25842 0
M  V30 34040 H 3435.24 0.201454 3.77363 0
M  V30 34041 H 3435.55 1.03501 7.65838 0
M  V30 34042 H 3433.9 0.923929 6.88831 0
M  V30 34043 H 3437.09 0.333632 4.6691 0
M  V30 34044 H 3437.26 0.713516 6.4406 0
M  V30 34045 N 3430.67 -1.57536 -0.0450825 0
M  V30 34046 C 3431.6 -2.08539 -1.05043 0
M  V30 34047 C 3432.58 -0.984442 -1.38718 0
M  V30 34048 O 3433.77 -1.25876 -1.47881 0
M  V30 34049 C 3430.9 -2.55152 -2.35615 0
M  V30 34050 C 3429.85 -3.69366 -2.16224 0
M  V30 34051 C 3429.18 -4.02128 -3.52416 0
M  V30 34052 C 3430.48 -4.98412 -1.5615 0
M  V30 34053 H 3432.17 -2.92784 -0.625914 0
M  V30 34054 H 3429.72 -1.40848 -0.299632 0
M  V30 34055 H 3431.67 -2.89451 -3.06261 0
M  V30 34056 H 3430.39 -1.67969 -2.80096 0
M  V30 34057 H 3429.05 -3.35391 -1.48014 0
M  V30 34058 H 3428.7 -3.12035 -3.94516 0
M  V30 34059 H 3428.4 -4.7905 -3.40272 0
M  V30 34060 H 3429.92 -4.38947 -4.2445 0
M  V30 34061 H 3431.34 -5.3077 -2.16694 0
M  V30 34062 H 3429.74 -5.79836 -1.54627 0
M  V30 34063 H 3430.81 -4.82043 -0.525613 0
M  V30 34064 N 3432.15 0.317045 -1.54378 0
M  V30 34065 C 3433.08 1.39549 -1.87212 0
M  V30 34066 C 3434.06 1.53662 -0.72951 0
M  V30 34067 O 3435.24 1.67435 -0.983828 0
M  V30 34068 C 3432.37 2.76218 -2.10525 0
M  V30 34069 C 3431.33 2.76887 -3.26371 0
M  V30 34070 C 3430.65 4.16693 -3.35068 0
M  V30 34071 C 3431.95 2.40053 -4.63866 0
M  V30 34072 H 3433.65 1.12318 -2.77534 0
M  V30 34073 H 3431.19 0.538874 -1.33537 0
M  V30 34074 H 3433.15 3.51735 -2.32079 0
M  V30 34075 H 3431.87 3.0494 -1.16959 0
M  V30 34076 H 3430.53 2.03826 -3.04714 0
M  V30 34077 H 3430.18 4.42566 -2.39049 0
M  V30 34078 H 3429.88 4.18045 -4.12931 0
M  V30 34079 H 3431.4 4.94013 -3.58864 0
M  V30 34080 H 3432.82 3.05283 -4.85258 0
M  V30 34081 H 3431.21 2.52645 -5.44326 0
M  V30 34082 H 3432.28 1.35194 -4.65672 0
M  V30 34083 N 3433.63 1.46561 0.57944 0
M  V30 34084 C 3434.87 1.53253 1.33736 0
M  V30 34085 C 3435.23 0.183079 1.91527 0
M  V30 34086 O 3434.52 -0.808639 1.737 0
M  V30 34087 C 3434.71 2.56955 2.48413 0
M  V30 34088 C 3434.54 4.01851 2.01855 0
M  V30 34089 C 3433.31 4.69535 1.86721 0
M  V30 34090 C 3435.51 4.8955 1.57625 0
M  V30 34091 N 3433.49 5.99037 1.34269 0
M  V30 34092 C 3434.86 6.08901 1.16786 0
M  V30 34093 C 3436.92 4.76175 1.45472 0
M  V30 34094 C 3435.62 7.16357 0.650056 0
M  V30 34095 C 3437.65 5.83705 0.950946 0
M  V30 34096 C 3437.01 7.02231 0.552364 0
M  V30 34097 H 3433.11 0.615612 0.482231 0
M  V30 34098 H 3435.69 1.83195 0.659379 0
M  V30 34099 H 3433.86 2.28918 3.13769 0
M  V30 34100 H 3435.6 2.53622 3.1537 0
M  V30 34101 H 3432.35 4.25104 2.08766 0
M  V30 34102 H 3432.78 6.67972 1.10195 0
M  V30 34103 H 3437.42 3.84926 1.74906 0
M  V30 34104 H 3435.14 8.0737 0.343314 0
M  V30 34105 H 3438.72 5.75397 0.860783 0
M  V30 34106 H 3437.6 7.84019 0.168565 0
M  V30 34107 N 3435.1 -0.824347 1.34322 0
M  V30 34108 C 3436.01 -1.96701 1.2785 0
M  V30 34109 C 3437.03 -1.72998 0.18644 0
M  V30 34110 O 3438.21 -1.97127 0.412657 0
M  V30 34111 C 3435.27 -3.30973 1.03237 0
M  V30 34112 C 3434.33 -3.67693 2.21585 0
M  V30 34113 C 3433.57 -4.95558 1.98137 0
M  V30 34114 O 3433.79 -5.6262 0.938897 0
M  V30 34115 O 3432.72 -5.30123 2.8505 0
M  V30 34116 H 3436.55 -2.05104 2.23978 0
M  V30 34117 H 3434.13 -0.959533 1.14513 0
M  V30 34118 H 3436.02 -4.11394 0.912857 0
M  V30 34119 H 3434.69 -3.23541 0.101482 0
M  V30 34120 H 3433.6 -2.87722 2.39095 0
M  V30 34121 H 3434.93 -3.79809 3.13059 0
M  V30 34122 N 3436.58 -1.18028 -1.04437 0
M  V30 34123 C 3437.52 -0.847314 -2.11886 0
M  V30 34124 C 3438.49 0.189143 -1.61496 0
M  V30 34125 O 3439.68 0.0689528 -1.88374 0
M  V30 34126 C 3436.8 -0.26531 -3.37659 0
M  V30 34127 C 3435.85 -1.27836 -4.06891 0
M  V30 34128 S 3436.68 -2.83275 -4.5444 0
M  V30 34129 C 3437.84 -2.26576 -5.8345 0
M  V30 34130 H 3438.07 -1.75732 -2.39803 0
M  V30 34131 H 3435.61 -1.00574 -1.1715 0
M  V30 34132 H 3437.56 0.0639857 -4.1045 0
M  V30 34133 H 3436.22 0.622752 -3.07865 0
M  V30 34134 H 3435.42 -0.819936 -4.97286 0
M  V30 34135 H 3435.02 -1.5537 -3.402 0
M  V30 34136 H 3437.31 -1.64603 -6.572 0
M  V30 34137 H 3438.25 -3.15255 -6.3405 0
M  V30 34138 H 3438.66 -1.69737 -5.38377 0
M  V30 34139 N 3438.06 1.23288 -0.98172 0
M  V30 34140 C 3439.48 1.43887 -0.690565 0
M  V30 34141 C 3439.68 1.8731 0.742783 0
M  V30 34142 O 3438.73 2.01995 1.51506 0
M  V30 34143 C 3440.05 2.48945 -1.68662 0
M  V30 34144 C 3441.59 2.62758 -1.70081 0
M  V30 34145 C 3442.07 3.71027 -2.6852 0
M  V30 34146 N 3443.56 3.78471 -2.67046 0
M  V30 34147 C 3444.29 4.61809 -3.39883 0
M  V30 34148 N 3443.79 5.49226 -4.22283 0
M  V30 34149 N 3445.58 4.56017 -3.28641 0
M  V30 34150 H 3437.73 0.934043 -1.9076 0
M  V30 34151 H 3440 0.472134 -0.822066 0
M  V30 34152 H 3439.7 2.23959 -2.71174 0
M  V30 34153 H 3439.58 3.47355 -1.47051 0
M  V30 34154 H 3441.96 2.87094 -0.682723 0
M  V30 34155 H 3442.05 1.64659 -1.95757 0
M  V30 34156 H 3441.69 3.47439 -3.70471 0
M  V30 34157 H 3441.62 4.6867 -2.40117 0
M  V30 34158 H 3444.11 3.16002 -2.07246 0
M  V30 34159 H 3444.42 6.0981 -4.74713 0
M  V30 34160 H 3442.77 5.48845 -4.26373 0
M  V30 34161 H 3445.96 3.86744 -2.63717 0
M  V30 34162 H 3446.13 5.20736 -3.85666 0
M  V30 34163 N 3439.54 0.753533 1.38418 0
M  V30 34164 C 3440.5 0.134062 2.28808 0
M  V30 34165 C 3441.5 -0.647557 1.47185 0
M  V30 34166 O 3442.69 -0.473831 1.67632 0
M  V30 34167 C 3439.82 -0.818522 3.30928 0
M  V30 34168 H 3441.02 0.930636 2.85095 0
M  V30 34169 H 3438.57 0.52054 1.47377 0
M  V30 34170 H 3439.3 -1.64077 2.7973 0
M  V30 34171 H 3439.09 -0.260457 3.91234 0
M  V30 34172 H 3440.58 -1.24795 3.98517 0
M  V30 34173 N 3441.02 -1.49371 0.502605 0
M  V30 34174 C 3442.43 -1.58809 0.158669 0
M  V30 34175 C 3442.63 -1.50767 -1.33685 0
M  V30 34176 O 3441.69 -1.38245 -2.11293 0
M  V30 34177 C 3443 -2.91531 0.736894 0
M  V30 34178 C 3444.55 -3.05 0.703146 0
M  V30 34179 C 3445.02 -4.40343 1.25946 0
M  V30 34180 N 3446.52 -4.46838 1.22023 0
M  V30 34181 C 3447.25 -5.50014 1.62086 0
M  V30 34182 N 3446.75 -6.60286 2.09748 0
M  V30 34183 N 3448.54 -5.40737 1.53492 0
M  V30 34184 H 3440.69 -1.52841 1.4749 0
M  V30 34185 H 3442.95 -0.724104 0.611864 0
M  V30 34186 H 3442.66 -3.02989 1.78579 0
M  V30 34187 H 3442.53 -3.76679 0.198244 0
M  V30 34188 H 3444.92 -2.9317 -0.336914 0
M  V30 34189 H 3445 -2.21532 1.27896 0
M  V30 34190 H 3444.65 -4.52924 2.29831 0
M  V30 34191 H 3444.58 -5.22453 0.659573 0
M  V30 34192 H 3447.07 -3.67725 0.871021 0
M  V30 34193 H 3447.38 -7.35114 2.38383 0
M  V30 34194 H 3445.72 -6.61322 2.13723 0
M  V30 34195 H 3448.92 -4.53481 1.16073 0
M  V30 34196 H 3449.09 -6.2102 1.85037 0
M  V30 34197 N 3442.49 -0.236508 -1.55815 0
M  V30 34198 C 3443.77 0.4409 -1.90566 0
M  V30 34199 C 3444.15 1.76643 -1.15588 0
M  V30 34200 O 3443.5 2.26899 -0.269989 0
M  V30 34201 C 3443.71 0.61919 -3.43463 0
M  V30 34202 C 3445.06 0.919817 -4.14517 0
M  V30 34203 O 3446.08 0.705435 -3.49145 0
M  V30 34204 O 3444.94 1.32749 -5.30132 0
M  V30 34205 H 3442.03 0.235185 -0.792854 0
M  V30 34206 H 3444.58 -0.279803 -1.67377 0
M  V30 34207 H 3443.35 -0.315192 -3.90028 0
M  V30 34208 H 3442.98 1.39082 -3.72481 0
M  V30 34209 N 3443.97 1.57557 0.0367273 0
M  V30 34210 C 3444.9 2.09093 1.03935 0
M  V30 34211 C 3445.88 0.991785 1.38194 0
M  V30 34212 O 3447.07 1.26658 1.47212 0
M  V30 34213 C 3444.2 2.56398 2.34259 0
M  V30 34214 C 3443.15 3.70507 2.14262 0
M  V30 34215 C 3442.48 4.03991 3.50278 0
M  V30 34216 C 3443.78 4.99233 1.53505 0
M  V30 34217 H 3445.47 2.93112 0.610378 0
M  V30 34218 H 3443.02 1.41005 0.292159 0
M  V30 34219 H 3444.97 2.91071 3.04722 0
M  V30 34220 H 3443.7 1.69452 2.79202 0
M  V30 34221 H 3442.35 3.36172 1.46233 0
M  V30 34222 H 3442 3.14123 3.92856 0
M  V30 34223 H 3441.7 4.80848 3.37727 0
M  V30 34224 H 3443.23 4.41192 4.22116 0
M  V30 34225 H 3444.64 5.31912 2.13876 0
M  V30 34226 H 3443.04 5.80648 1.5155 0
M  V30 34227 H 3444.11 4.82315 0.500041 0
M  V30 34228 N 3445.45 -0.308854 1.54544 0
M  V30 34229 C 3446.7 -1.04297 1.73109 0
M  V30 34230 C 3447.02 -1.88062 0.515514 0
M  V30 34231 O 3446.29 -1.9017 -0.470327 0
M  V30 34232 H 3444.87 -0.388056 0.638296 0
M  V30 34233 H 3447.53 -0.341735 1.91881 0
M  V30 34234 H 3446.63 -1.70058 2.617 0
M  V30 34235 N 3446.93 -1.46867 -0.571659 0
M  V30 34236 C 3447.89 -1.57835 -1.66195 0
M  V30 34237 C 3448.89 -0.454574 -1.54241 0
M  V30 34238 O 3450.08 -0.719219 -1.5866 0
M  V30 34239 C 3447.21 -1.50915 -3.05675 0
M  V30 34240 H 3448.41 -2.55012 -1.57825 0
M  V30 34241 H 3445.96 -1.34841 -0.79041 0
M  V30 34242 H 3446.7 -0.550585 -3.19592 0
M  V30 34243 H 3446.48 -2.32459 -3.15761 0
M  V30 34244 H 3447.97 -1.61699 -3.85024 0
M  V30 34245 N 3448.41 0.817212 -1.34757 0
M  V30 34246 C 3449.82 1.39042 -1.24596 0
M  V30 34247 C 3450.17 1.95794 0.12615 0
M  V30 34248 O 3449.29 1.90493 1.02671 0
M  V30 34249 C 3449.89 2.52768 -2.25597 0
M  V30 34250 C 3448.45 3.05981 -2.1921 0
M  V30 34251 C 3447.6 1.78883 -2.11887 0
M  V30 34252 H 3450.55 0.62113 -1.4604 0
M  V30 34253 H 3450.57 3.31023 -1.87628 0
M  V30 34254 H 3450.08 2.11433 -3.2545 0
M  V30 34255 H 3448.18 3.51806 -1.22731 0
M  V30 34256 H 3448.29 3.64683 -3.10713 0
M  V30 34257 H 3446.66 2.00009 -1.57697 0
M  V30 34258 H 3447.44 1.39714 -3.13584 0
M  V30 34259 N 3449.89 1.1858 1.0381 0
M  V30 34260 C 3450.82 0.872908 2.11927 0
M  V30 34261 C 3451.83 -0.130563 1.62276 0
M  V30 34262 O 3453.02 0.0976182 1.78233 0
M  V30 34263 C 3450.12 0.28338 3.37713 0
M  V30 34264 C 3449.29 1.33314 4.16589 0
M  V30 34265 C 3448.35 0.758837 5.207 0
M  V30 34266 O 3447.38 1.43421 5.50835 0
M  V30 34267 N 3448.58 -0.442403 5.78812 0
M  V30 34268 H 3451.34 1.8035 2.39361 0
M  V30 34269 H 3448.91 1.08654 1.20025 0
M  V30 34270 H 3450.9 -0.114453 4.04538 0
M  V30 34271 H 3449.47 -0.551293 3.077 0
M  V30 34272 H 3448.69 1.90619 3.45048 0
M  V30 34273 H 3449.98 2.04079 4.66079 0
M  V30 34274 H 3449.37 -1.00879 5.56633 0
M  V30 34275 H 3447.93 -0.782126 6.4709 0
M  V30 34276 N 3451.36 -1.22766 0.988245 0
M  V30 34277 C 3452.33 -2.22752 0.539852 0
M  V30 34278 C 3453.33 -1.56372 -0.374769 0
M  V30 34279 O 3454.52 -1.73394 -0.167371 0
M  V30 34280 C 3451.65 -3.40219 -0.215402 0
M  V30 34281 H 3452.84 -2.63935 1.42402 0
M  V30 34282 H 3450.39 -1.35735 0.774957 0
M  V30 34283 H 3451.13 -3.04502 -1.11576 0
M  V30 34284 H 3450.91 -3.89609 0.441241 0
M  V30 34285 H 3452.4 -4.14382 -0.517444 0
M  V30 34286 N 3452.84 -0.760864 -1.38017 0
M  V30 34287 C 3453.8 -0.146195 -2.28733 0
M  V30 34288 C 3454.8 0.639742 -1.47526 0
M  V30 34289 O 3455.99 0.464935 -1.67881 0
M  V30 34290 C 3453.13 0.800961 -3.31357 0
M  V30 34291 H 3454.32 -0.945742 -2.84597 0
M  V30 34292 H 3451.87 -0.528348 -1.47099 0
M  V30 34293 H 3452.61 1.62592 -2.80597 0
M  V30 34294 H 3452.39 0.239706 -3.91367 0
M  V30 34295 H 3453.88 1.2268 -3.99173 0
M  V30 34296 N 3454.32 1.49102 -0.510519 0
M  V30 34297 C 3455.28 2.27812 0.251875 0
M  V30 34298 C 3456.28 1.34228 0.885409 0
M  V30 34299 O 3457.47 1.57301 0.748467 0
M  V30 34300 C 3454.6 3.12495 1.36235 0
M  V30 34301 H 3455.8 2.96671 -0.438924 0
M  V30 34302 H 3453.35 1.54023 -0.265794 0
M  V30 34303 H 3454.09 2.48223 2.087 0
M  V30 34304 H 3453.87 3.81312 0.913418 0
M  V30 34305 H 3455.36 3.71918 1.89913 0
M  V30 34306 N 3455.8 0.244768 1.55688 0
M  V30 34307 C 3456.71 -0.66648 2.24934 0
M  V30 34308 C 3457.72 -1.19501 1.26473 0
M  V30 34309 O 3458.9 -1.23173 1.59344 0
M  V30 34310 C 3455.96 -1.84767 2.93363 0
M  V30 34311 C 3455.03 -1.35882 4.07228 0
M  V30 34312 C 3454.26 -2.48371 4.72385 0
M  V30 34313 O 3454.48 -3.67051 4.36611 0
M  V30 34314 O 3453.42 -2.18251 5.60937 0
M  V30 34315 H 3457.24 -0.106453 3.03513 0
M  V30 34316 H 3454.83 0.0133572 1.49394 0
M  V30 34317 H 3456.71 -2.53702 3.36472 0
M  V30 34318 H 3455.38 -2.39536 2.17725 0
M  V30 34319 H 3454.29 -0.636817 3.6864 0
M  V30 34320 H 3455.62 -0.857248 4.84677 0
M  V30 34321 N 3457.28 -1.57574 -0.0283712 0
M  V30 34322 C 3458.24 -2.05578 -1.01343 0
M  V30 34323 C 3459.24 -0.960024 -1.28997 0
M  V30 34324 O 3460.43 -1.22362 -1.23989 0
M  V30 34325 C 3457.56 -2.47331 -2.34607 0
M  V30 34326 H 3458.75 -2.93862 -0.598757 0
M  V30 34327 H 3456.31 -1.53858 -0.275213 0
M  V30 34328 H 3457.04 -1.62205 -2.8082 0
M  V30 34329 H 3456.83 -3.2733 -2.15864 0
M  V30 34330 H 3458.32 -2.84895 -3.05327 0
M  V30 34331 N 3458.75 0.300654 -1.54706 0
M  V30 34332 C 3459.66 1.39338 -1.88738 0
M  V30 34333 C 3460.68 1.55459 -0.781577 0
M  V30 34334 O 3461.86 1.70116 -1.07807 0
M  V30 34335 C 3458.92 2.7371 -2.128 0
M  V30 34336 C 3457.98 2.66571 -3.36509 0
M  V30 34337 C 3457.21 3.94534 -3.59414 0
M  V30 34338 O 3457.44 4.93909 -2.85324 0
M  V30 34339 O 3456.37 3.96407 -4.5293 0
M  V30 34340 H 3460.2 1.13479 -2.81702 0
M  V30 34341 H 3457.78 0.496746 -1.409 0
M  V30 34342 H 3459.66 3.53211 -2.29826 0
M  V30 34343 H 3458.34 2.99412 -1.23022 0
M  V30 34344 H 3457.25 1.85541 -3.24847 0
M  V30 34345 H 3458.58 2.45822 -4.26418 0
M  V30 34346 N 3460.23 1.47168 0.563863 0
M  V30 34347 C 3461.16 1.62028 1.68134 0
M  V30 34348 C 3462.14 0.469927 1.6348 0
M  V30 34349 O 3463.33 0.698464 1.81205 0
M  V30 34350 C 3460.46 1.62806 3.06776 0
M  V30 34351 C 3459.41 2.77002 3.26273 0
M  V30 34352 C 3458.74 2.62849 4.65633 0
M  V30 34353 C 3460.04 4.18657 3.12288 0
M  V30 34354 H 3461.73 2.55575 1.55954 0
M  V30 34355 H 3459.28 1.22997 0.748848 0
M  V30 34356 H 3461.23 1.71794 3.84792 0
M  V30 34357 H 3459.96 0.658153 3.199 0
M  V30 34358 H 3458.61 2.67514 2.50663 0
M  V30 34359 H 3458.26 1.639 4.75548 0
M  V30 34360 H 3457.96 3.39456 4.79629 0
M  V30 34361 H 3459.49 2.73756 5.45793 0
M  V30 34362 H 3460.9 4.29156 3.80128 0
M  V30 34363 H 3459.3 4.95998 3.37796 0
M  V30 34364 H 3460.37 4.3749 2.09119 0
M  V30 34365 N 3461.71 -0.810054 1.35188 0
M  V30 34366 C 3462.67 -1.90329 1.27701 0
M  V30 34367 C 3463.67 -1.59683 0.189244 0
M  V30 34368 O 3464.86 -1.6848 0.442718 0
M  V30 34369 C 3462 -3.26669 0.974688 0
M  V30 34370 H 3463.19 -1.98388 2.24905 0
M  V30 34371 H 3460.74 -1.00552 1.19662 0
M  V30 34372 H 3461.48 -3.24299 0.0063638 0
M  V30 34373 H 3461.26 -3.50298 1.76164 0
M  V30 34374 H 3462.75 -4.06702 0.947814 0
M  V30 34375 N 3463.19 -1.19129 -1.0318 0
M  V30 34376 C 3464.15 -0.928343 -2.09558 0
M  V30 34377 C 3465.15 0.089971 -1.60548 0
M  V30 34378 O 3466.34 -0.144452 -1.736 0
M  V30 34379 C 3463.47 -0.394621 -3.38608 0
M  V30 34380 H 3464.67 -1.87177 -2.34318 0
M  V30 34381 H 3462.22 -1.00454 -1.19744 0
M  V30 34382 H 3462.95 0.55499 -3.19516 0
M  V30 34383 H 3462.74 -1.1288 -3.755 0
M  V30 34384 H 3464.23 -0.229642 -4.16968 0
M  V30 34385 N 3464.67 1.2224 -0.994741 0
M  V30 34386 C 3465.63 2.22462 -0.551658 0
M  V30 34387 C 3466.63 1.56568 0.36647 0
M  V30 34388 O 3467.82 1.7348 0.158173 0
M  V30 34389 C 3464.95 3.40328 0.197356 0
M  V30 34390 H 3466.14 2.63176 -1.43799 0
M  V30 34391 H 3463.7 1.35323 -0.782144 0
M  V30 34392 H 3464.43 3.05089 1.09959 0
M  V30 34393 H 3464.22 3.8937 -0.461897 0
M  V30 34394 H 3465.71 4.1465 0.495461 0
M  V30 34395 N 3466.14 0.768172 1.37611 0
M  V30 34396 C 3467.08 0.110274 2.28935 0
M  V30 34397 C 3468.09 -0.668096 1.4846 0
M  V30 34398 O 3469.28 -0.506778 1.71155 0
M  V30 34399 C 3466.38 -0.86754 3.27608 0
M  V30 34400 C 3465.55 -0.143742 4.37164 0
M  V30 34401 C 3464.61 -1.0344 5.15933 0
M  V30 34402 O 3463.64 -0.499505 5.67004 0
M  V30 34403 N 3464.84 -2.36105 5.30316 0
M  V30 34404 H 3467.6 0.894635 2.86036 0
M  V30 34405 H 3465.16 0.620211 1.49549 0
M  V30 34406 H 3467.16 -1.46673 3.77186 0
M  V30 34407 H 3465.73 -1.55289 2.71301 0
M  V30 34408 H 3464.95 0.636325 3.8903 0
M  V30 34409 H 3466.23 0.356536 5.07549 0
M  V30 34410 H 3465.63 -2.82002 4.90399 0
M  V30 34411 H 3464.19 -2.9104 5.83215 0
M  V30 34412 N 3467.62 -1.48829 0.518419 0
M  V30 34413 C 3469.04 -1.58632 0.175504 0
M  V30 34414 C 3469.24 -1.52176 -1.32078 0
M  V30 34415 O 3468.29 -1.40478 -2.09815 0
M  V30 34416 C 3469.61 -2.90733 0.767773 0
M  V30 34417 C 3471.16 -3.04237 0.735456 0
M  V30 34418 C 3471.63 -4.38982 1.3061 0
M  V30 34419 N 3473.12 -4.45519 1.26755 0
M  V30 34420 C 3473.86 -5.48264 1.6791 0
M  V30 34421 N 3473.35 -6.58024 2.16739 0
M  V30 34422 N 3475.15 -5.39079 1.59218 0
M  V30 34423 H 3467.3 -1.51269 1.49103 0
M  V30 34424 H 3469.56 -0.717574 0.61951 0
M  V30 34425 H 3469.27 -3.01078 1.81782 0
M  V30 34426 H 3469.14 -3.76447 0.238185 0
M  V30 34427 H 3471.53 -2.93511 -0.3058 0
M  V30 34428 H 3471.61 -2.20163 1.30239 0
M  V30 34429 H 3471.25 -4.50461 2.34622 0
M  V30 34430 H 3471.18 -5.21724 0.714949 0
M  V30 34431 H 3473.67 -3.6678 0.909974 0
M  V30 34432 H 3473.99 -7.32545 2.46167 0
M  V30 34433 H 3472.33 -6.59018 2.20726 0
M  V30 34434 H 3475.52 -4.52224 1.20877 0
M  V30 34435 H 3475.69 -6.19022 1.91613 0
M  V30 34436 N 3469.1 -0.253021 -1.55556 0
M  V30 34437 C 3470.03 0.638007 -2.24615 0
M  V30 34438 C 3471.01 1.17648 -1.22854 0
M  V30 34439 O 3472.2 1.2147 -1.51521 0
M  V30 34440 C 3469.33 1.83231 -2.95032 0
M  V30 34441 C 3468.28 1.42634 -4.03534 0
M  V30 34442 C 3467.61 2.70196 -4.61409 0
M  V30 34443 C 3468.91 0.592867 -5.18924 0
M  V30 34444 H 3470.6 0.0621391 -2.99336 0
M  V30 34445 H 3468.15 0.0284469 -1.43972 0
M  V30 34446 H 3470.1 2.46135 -3.42046 0
M  V30 34447 H 3468.82 2.43365 -2.17809 0
M  V30 34448 H 3467.48 0.820609 -3.57298 0
M  V30 34449 H 3467.13 3.28542 -3.8088 0
M  V30 34450 H 3466.83 2.43754 -5.34657 0
M  V30 34451 H 3468.35 3.33988 -5.1116 0
M  V30 34452 H 3469.77 1.12636 -5.62126 0
M  V30 34453 H 3468.17 0.424253 -5.98598 0
M  V30 34454 H 3469.24 -0.393519 -4.83301 0
M  V30 34455 N 3470.58 1.57587 0.0200142 0
M  V30 34456 C 3471.51 2.10183 1.01712 0
M  V30 34457 C 3472.49 1.00639 1.37134 0
M  V30 34458 O 3473.67 1.28213 1.4586 0
M  V30 34459 C 3470.8 2.58869 2.31526 0
M  V30 34460 C 3469.76 3.72759 2.1032 0
M  V30 34461 C 3469.08 4.07684 3.45974 0
M  V30 34462 C 3470.38 5.00833 1.48201 0
M  V30 34463 H 3472.08 2.93743 0.579255 0
M  V30 34464 H 3469.62 1.41307 0.277187 0
M  V30 34465 H 3471.58 2.94287 3.01618 0
M  V30 34466 H 3470.3 1.72404 2.77389 0
M  V30 34467 H 3468.96 3.37704 1.42659 0
M  V30 34468 H 3468.61 3.18272 3.89502 0
M  V30 34469 H 3468.31 4.84403 3.32608 0
M  V30 34470 H 3469.83 4.45644 4.17413 0
M  V30 34471 H 3471.25 5.3415 2.08222 0
M  V30 34472 H 3469.64 5.82223 1.45383 0
M  V30 34473 H 3470.71 4.82818 0.448857 0
M  V30 34474 N 3472.06 -0.292445 1.54863 0
M  V30 34475 C 3473.02 -1.3441 1.85652 0
M  V30 34476 C 3474.02 -1.4328 0.729894 0
M  V30 34477 O 3475.21 -1.42767 0.998153 0
M  V30 34478 C 3472.34 -2.72791 2.04445 0
M  V30 34479 H 3473.53 -1.08349 2.79644 0
M  V30 34480 H 3471.09 -0.529548 1.47056 0
M  V30 34481 H 3471.82 -3.04062 1.1277 0
M  V30 34482 H 3471.61 -2.67742 2.86456 0
M  V30 34483 H 3473.1 -3.48813 2.29606 0
M  V30 34484 N 3473.53 -1.47465 -0.55605 0
M  V30 34485 C 3474.95 -1.33009 -0.882091 0
M  V30 34486 C 3475.15 -0.321442 -1.9892 0
M  V30 34487 O 3474.21 0.266624 -2.51088 0
M  V30 34488 C 3475.52 -2.72367 -1.27423 0
M  V30 34489 C 3477.07 -2.8066 -1.38559 0
M  V30 34490 C 3477.54 -4.20662 -1.81128 0
M  V30 34491 N 3479.03 -4.23209 -1.88277 0
M  V30 34492 C 3479.77 -5.28451 -2.22546 0
M  V30 34493 N 3479.26 -6.43997 -2.55421 0
M  V30 34494 N 3481.06 -5.1583 -2.2333 0
M  V30 34495 H 3473.21 -2.11679 0.174847 0
M  V30 34496 H 3475.47 -0.947872 0.0155588 0
M  V30 34497 H 3475.18 -3.47614 -0.534569 0
M  V30 34498 H 3475.05 -3.04212 -2.23013 0
M  V30 34499 H 3477.44 -2.05686 -2.11607 0
M  V30 34500 H 3477.52 -2.52468 -0.411543 0
M  V30 34501 H 3477.16 -4.96143 -1.0865 0
M  V30 34502 H 3477.09 -4.4628 -2.79538 0
M  V30 34503 H 3479.58 -3.39853 -1.65253 0
M  V30 34504 H 3479.9 -7.20058 -2.806 0
M  V30 34505 H 3478.24 -6.47315 -2.52998 0
M  V30 34506 H 3481.43 -4.24587 -1.97087 0
M  V30 34507 H 3481.61 -5.97955 -2.49707 0
M  V30 34508 N 3475.01 0.802873 -1.35616 0
M  V30 34509 C 3476.26 1.56245 -1.29288 0
M  V30 34510 C 3476.59 1.93755 0.13144 0
M  V30 34511 O 3475.87 1.61647 1.08169 0
M  V30 34512 C 3476.15 2.84859 -2.2029 0
M  V30 34513 C 3476 2.53802 -3.71355 0
M  V30 34514 C 3477.32 3.86589 -2.10325 0
M  V30 34515 H 3474.44 0.566873 -0.470982 0
M  V30 34516 H 3477.08 0.923439 -1.6605 0
M  V30 34517 H 3475.23 3.3939 -1.89069 0
M  V30 34518 H 3476.91 2.05426 -4.13035 0
M  V30 34519 H 3475.15 1.8694 -3.91453 0
M  V30 34520 H 3475.82 3.45603 -4.30422 0
M  V30 34521 H 3478.3 3.41468 -2.37778 0
M  V30 34522 H 3477.17 4.74352 -2.76191 0
M  V30 34523 H 3477.43 4.28545 -1.08634 0
M  V30 34524 N 3476.49 1.19674 1.02547 0
M  V30 34525 C 3477.42 0.895337 2.10989 0
M  V30 34526 C 3478.44 -0.113344 1.62405 0
M  V30 34527 O 3479.63 0.116517 1.78119 0
M  V30 34528 C 3476.73 0.319183 3.37394 0
M  V30 34529 C 3475.9 1.37725 4.15151 0
M  V30 34530 C 3474.96 0.814022 5.19865 0
M  V30 34531 O 3473.98 1.49256 5.49283 0
M  V30 34532 N 3475.19 -0.380987 5.79248 0
M  V30 34533 H 3477.95 1.82879 2.37435 0
M  V30 34534 H 3475.51 1.09921 1.18866 0
M  V30 34535 H 3477.5 -0.0715395 4.04637 0
M  V30 34536 H 3476.07 -0.518627 3.08268 0
M  V30 34537 H 3475.29 1.94268 3.43007 0
M  V30 34538 H 3476.58 2.09011 4.63888 0
M  V30 34539 H 3475.98 -0.949693 5.57671 0
M  V30 34540 H 3474.54 -0.713449 6.47884 0
M  V30 34541 N 3477.97 -1.21711 1.00121 0
M  V30 34542 C 3478.88 -2.2763 0.567622 0
M  V30 34543 C 3479.9 -1.69629 -0.387563 0
M  V30 34544 O 3481.07 -1.99813 -0.252337 0
M  V30 34545 C 3478.14 -3.46548 -0.102684 0
M  V30 34546 C 3477.2 -4.19835 0.896506 0
M  V30 34547 C 3476.43 -5.33076 0.258094 0
M  V30 34548 O 3476.65 -5.625 -0.946019 0
M  V30 34549 O 3475.59 -5.94079 0.967125 0
M  V30 34550 H 3479.41 -2.66903 1.44902 0
M  V30 34551 H 3477 -1.28036 0.769885 0
M  V30 34552 H 3478.88 -4.18683 -0.477773 0
M  V30 34553 H 3477.56 -3.09183 -0.958521 0
M  V30 34554 H 3476.46 -3.49937 1.32268 0
M  V30 34555 H 3477.8 -4.61101 1.72181 0
M  V30 34556 N 3479.45 -0.775459 -1.37202 0
M  V30 34557 C 3480.38 -0.122414 -2.28873 0
M  V30 34558 C 3481.39 0.660213 -1.48812 0
M  V30 34559 O 3482.58 0.497694 -1.71421 0
M  V30 34560 C 3479.68 0.850154 -3.28063 0
M  V30 34561 C 3478.85 0.120556 -4.37234 0
M  V30 34562 C 3477.91 1.00703 -5.16474 0
M  V30 34563 O 3476.94 0.469429 -5.67261 0
M  V30 34564 N 3478.14 2.33289 -5.3156 0
M  V30 34565 H 3480.91 -0.909792 -2.85557 0
M  V30 34566 H 3478.47 -0.628133 -1.49218 0
M  V30 34567 H 3480.46 1.44671 -3.77958 0
M  V30 34568 H 3479.03 1.53848 -2.7212 0
M  V30 34569 H 3478.25 -0.656947 -3.88687 0
M  V30 34570 H 3479.54 -0.383447 -5.07353 0
M  V30 34571 H 3478.94 2.79397 -4.91888 0
M  V30 34572 H 3477.49 2.87943 -5.8475 0
M  V30 34573 N 3480.93 1.48552 -0.526305 0
M  V30 34574 C 3481.86 2.32391 0.227323 0
M  V30 34575 C 3482.84 1.41861 0.938595 0
M  V30 34576 O 3484.02 1.70751 0.925089 0
M  V30 34577 C 3481.15 3.22973 1.27694 0
M  V30 34578 C 3480.11 4.22499 0.684033 0
M  V30 34579 C 3479.43 5.02189 1.83603 0
M  V30 34580 C 3480.73 5.2118 -0.341814 0
M  V30 34581 H 3482.43 2.95647 -0.472538 0
M  V30 34582 H 3479.97 1.42172 -0.228694 0
M  V30 34583 H 3481.92 3.80449 1.81208 0
M  V30 34584 H 3480.65 2.57709 2.00633 0
M  V30 34585 H 3479.31 3.66204 0.170441 0
M  V30 34586 H 3478.96 4.33353 2.55371 0
M  V30 34587 H 3478.66 5.69549 1.44526 0
M  V30 34588 H 3480.18 5.62516 2.37503 0
M  V30 34589 H 3481.59 5.73202 0.106107 0
M  V30 34590 H 3479.99 5.96572 -0.649777 0
M  V30 34591 H 3481.06 4.68541 -1.24888 0
M  V30 34592 N 3482.4 0.261267 1.55419 0
M  V30 34593 C 3483.63 -0.366109 2.04143 0
M  V30 34594 C 3484.05 -1.49704 1.13887 0
M  V30 34595 O 3483.41 -1.80799 0.134661 0
M  V30 34596 C 3483.46 -0.837713 3.50735 0
M  V30 34597 O 3482.56 -1.94615 3.63592 0
M  V30 34598 H 3481.9 -0.0778095 0.659425 0
M  V30 34599 H 3484.43 0.391522 2.00819 0
M  V30 34600 H 3484.44 -1.13715 3.91833 0
M  V30 34601 H 3483.12 -0.0102011 4.15899 0
M  V30 34602 H 3481.7 -1.65031 3.34394 0
M  V30 34603 N 3483.88 -1.57596 -0.0116567 0
M  V30 34604 C 3485.11 -1.94726 -0.71389 0
M  V30 34605 C 3485.53 -0.862594 -1.67155 0
M  V30 34606 O 3484.89 0.180277 -1.80401 0
M  V30 34607 C 3484.94 -3.30944 -1.43208 0
M  V30 34608 O 3484.04 -3.24424 -2.54604 0
M  V30 34609 H 3483.38 -0.636008 -0.190761 0
M  V30 34610 H 3485.91 -2.04565 0.0380607 0
M  V30 34611 H 3485.92 -3.6624 -1.79812 0
M  V30 34612 H 3484.6 -4.09446 -0.729834 0
M  V30 34613 H 3483.17 -3.00786 -2.20414 0
M  V30 34614 N 3485.36 0.284228 -1.55016 0
M  V30 34615 C 3486.29 1.35546 -1.9013 0
M  V30 34616 C 3487.27 1.52081 -0.76194 0
M  V30 34617 O 3488.46 1.6531 -1.01912 0
M  V30 34618 C 3485.59 2.71691 -2.16336 0
M  V30 34619 C 3484.54 2.69901 -3.3217 0
M  V30 34620 C 3483.87 4.09492 -3.43831 0
M  V30 34621 C 3485.17 2.3016 -4.68854 0
M  V30 34622 H 3486.86 1.06406 -2.79854 0
M  V30 34623 H 3484.41 0.510427 -1.3465 0
M  V30 34624 H 3486.36 3.46733 -2.39488 0
M  V30 34625 H 3485.08 3.0239 -1.23401 0
M  V30 34626 H 3483.74 1.97317 -3.08969 0
M  V30 34627 H 3483.39 4.37396 -2.48382 0
M  V30 34628 H 3483.09 4.09193 -4.21705 0
M  V30 34629 H 3484.61 4.8629 -3.69262 0
M  V30 34630 H 3486.03 2.94921 -4.91624 0
M  V30 34631 H 3484.42 2.41042 -5.49562 0
M  V30 34632 H 3485.49 1.25286 -4.68435 0
M  V30 34633 N 3486.84 1.47758 0.548222 0
M  V30 34634 C 3488.08 1.56055 1.30455 0
M  V30 34635 C 3488.44 0.223663 1.91096 0
M  V30 34636 O 3487.73 -0.771613 1.75376 0
M  V30 34637 C 3487.93 2.62166 2.42906 0
M  V30 34638 C 3487.75 4.06043 1.93286 0
M  V30 34639 C 3486.52 4.7339 1.76719 0
M  V30 34640 C 3488.72 4.92783 1.47205 0
M  V30 34641 N 3486.7 6.0175 1.21532 0
M  V30 34642 C 3488.08 6.11242 1.03844 0
M  V30 34643 C 3490.13 4.79153 1.35339 0
M  V30 34644 C 3488.83 7.17574 0.49796 0
M  V30 34645 C 3490.86 5.8559 0.82692 0
M  V30 34646 C 3490.22 7.03245 0.403286 0
M  V30 34647 H 3486.32 0.625702 0.469064 0
M  V30 34648 H 3488.9 1.84552 0.620373 0
M  V30 34649 H 3487.08 2.35522 3.08843 0
M  V30 34650 H 3488.81 2.60254 3.09919 0
M  V30 34651 H 3485.56 4.29437 1.99702 0
M  V30 34652 H 3485.99 6.70159 0.960014 0
M  V30 34653 H 3490.63 3.88549 1.66701 0
M  V30 34654 H 3488.35 8.07917 0.171981 0
M  V30 34655 H 3491.93 5.77093 0.738539 0
M  V30 34656 H 3490.81 7.842 0.00222554 0
M  V30 34657 N 3488.32 -0.79567 1.3604 0
M  V30 34658 C 3489.23 -1.93945 1.31994 0
M  V30 34659 C 3490.24 -1.72564 0.223094 0
M  V30 34660 O 3491.42 -1.96207 0.454378 0
M  V30 34661 C 3488.48 -3.28709 1.10234 0
M  V30 34662 C 3487.54 -3.6291 2.29335 0
M  V30 34663 C 3486.78 -4.91244 2.08604 0
M  V30 34664 O 3487 -5.60502 1.05803 0
M  V30 34665 O 3485.93 -5.23957 2.96231 0
M  V30 34666 H 3489.76 -2.00307 2.28278 0
M  V30 34667 H 3487.34 -0.935028 1.16523 0
M  V30 34668 H 3489.23 -4.09365 0.999914 0
M  V30 34669 H 3487.9 -3.23253 0.170087 0
M  V30 34670 H 3486.81 -2.82586 2.45145 0
M  V30 34671 H 3488.14 -3.73083 3.21045 0
M  V30 34672 N 3489.79 -1.20217 -1.0191 0
M  V30 34673 C 3490.7 -0.964365 -2.13862 0
M  V30 34674 C 3491.72 0.0789251 -1.73821 0
M  V30 34675 O 3492.9 -0.107949 -2.0111 0
M  V30 34676 C 3489.96 -0.516817 -3.42826 0
M  V30 34677 C 3489.02 -1.63066 -3.97125 0
M  V30 34678 C 3488.26 -1.20437 -5.19933 0
M  V30 34679 O 3488.48 -0.0720121 -5.70355 0
M  V30 34680 O 3487.41 -2.01081 -5.67318 0
M  V30 34681 H 3491.24 -1.90166 -2.36792 0
M  V30 34682 H 3488.82 -0.985823 -1.12258 0
M  V30 34683 H 3490.71 -0.276346 -4.20493 0
M  V30 34684 H 3489.38 0.391926 -3.21319 0
M  V30 34685 H 3488.29 -1.92539 -3.20749 0
M  V30 34686 H 3489.62 -2.51632 -4.23016 0
M  V30 34687 N 3491.27 1.21178 -1.00765 0
M  V30 34688 C 3492.22 2.25672 -0.563467 0
M  V30 34689 C 3493.21 1.64771 0.393313 0
M  V30 34690 O 3494.42 1.7805 0.264215 0
M  V30 34691 H 3490.8 0.733927 -0.163875 0
M  V30 34692 H 3492.77 2.60473 -1.45589 0
M  V30 34693 C 3491.52 3.4758 0.0914988 0
M  V30 34694 H 3490.84 3.94714 -0.635697 0
M  V30 34695 H 3492.28 4.22421 0.365536 0
M  V30 34696 C 3490.74 3.0947 1.33153 0
M  V30 34697 O 3491.27 3.20195 2.42565 0
M  V30 34698 N 3489.47 2.64107 1.21227 0
M  V30 34699 H 3489.02 2.5558 0.321976 0
M  V30 34700 H 3488.98 2.38978 2.04296 0
M  V30 34701 N 3492.75 0.782725 1.36789 0
M  V30 34702 C 3493.68 0.13455 2.28805 0
M  V30 34703 C 3494.7 -0.652312 1.4916 0
M  V30 34704 O 3495.88 -0.488596 1.71683 0
M  V30 34705 C 3492.98 -0.832744 3.2851 0
M  V30 34706 C 3492.16 -0.0973667 4.37292 0
M  V30 34707 C 3491.22 -0.979625 5.17001 0
M  V30 34708 O 3490.24 -0.439339 5.67502 0
M  V30 34709 N 3491.44 -2.30467 5.3279 0
M  V30 34710 H 3494.21 0.924923 2.85071 0
M  V30 34711 H 3491.77 0.636038 1.48883 0
M  V30 34712 H 3493.76 -1.42665 3.7872 0
M  V30 34713 H 3492.33 -1.52403 2.72932 0
M  V30 34714 H 3491.55 0.677551 3.88333 0
M  V30 34715 H 3492.84 0.410348 5.07143 0
M  V30 34716 H 3492.24 -2.76785 4.93363 0
M  V30 34717 H 3490.8 -2.84837 5.86269 0
M  V30 34718 N 3494.23 -1.48271 0.534176 0
M  V30 34719 C 3495.19 -2.28184 -0.215601 0
M  V30 34720 C 3496.19 -1.3562 -0.863942 0
M  V30 34721 O 3497.38 -1.58472 -0.723347 0
M  V30 34722 C 3494.51 -3.14623 -1.31246 0
M  V30 34723 H 3495.71 -2.95935 0.486066 0
M  V30 34724 H 3493.26 -1.53581 0.290264 0
M  V30 34725 H 3493.99 -2.51512 -2.04725 0
M  V30 34726 H 3493.78 -3.82717 -0.852639 0
M  V30 34727 H 3495.27 -3.74892 -1.83972 0
M  V30 34728 N 3495.71 -0.269505 -1.55279 0
M  V30 34729 C 3496.64 0.614148 -2.25279 0
M  V30 34730 C 3497.62 1.16338 -1.24094 0
M  V30 34731 O 3498.8 1.19856 -1.52801 0
M  V30 34732 C 3495.93 1.80091 -2.96959 0
M  V30 34733 C 3494.89 1.38346 -4.05024 0
M  V30 34734 C 3494.21 2.65287 -4.64249 0
M  V30 34735 C 3495.51 0.537795 -5.19524 0
M  V30 34736 H 3497.21 0.0303871 -2.99385 0
M  V30 34737 H 3494.75 0.0131751 -1.43994 0
M  V30 34738 H 3496.71 2.42493 -3.44638 0
M  V30 34739 H 3495.43 2.41041 -2.20378 0
M  V30 34740 H 3494.09 0.782667 -3.58148 0
M  V30 34741 H 3493.74 3.24484 -3.84343 0
M  V30 34742 H 3493.44 2.3807 -5.37212 0
M  V30 34743 H 3494.96 3.28547 -5.14674 0
M  V30 34744 H 3496.37 1.06668 -5.63289 0
M  V30 34745 H 3494.77 0.36074 -5.99015 0
M  V30 34746 H 3495.84 -0.444757 -4.82856 0
M  V30 34747 N 3497.18 1.576 0.00329885 0
M  V30 34748 C 3498.15 2.07164 0.980592 0
M  V30 34749 C 3499.15 0.980424 1.27453 0
M  V30 34750 O 3500.34 1.24319 1.22027 0
M  V30 34751 C 3497.47 2.51032 2.30642 0
M  V30 34752 H 3498.66 2.94777 0.55193 0
M  V30 34753 H 3496.22 1.54276 0.250701 0
M  V30 34754 H 3496.95 1.66652 2.78204 0
M  V30 34755 H 3496.74 3.30723 2.10629 0
M  V30 34756 H 3498.23 2.89716 3.00756 0
M  V30 34757 N 3498.66 -0.276003 1.55164 0
M  V30 34758 C 3499.89 -1.02632 1.79651 0
M  V30 34759 C 3500.31 -1.80043 0.568321 0
M  V30 34760 O 3499.66 -1.76541 -0.462538 0
M  V30 34761 C 3499.71 -1.98726 3.01977 0
M  V30 34762 O 3499.43 -1.24451 4.20052 0
M  V30 34763 C 3500.94 -2.85594 3.39044 0
M  V30 34764 H 3498.16 -0.30331 0.598535 0
M  V30 34765 H 3500.7 -0.307697 2.02172 0
M  V30 34766 H 3498.85 -2.66055 2.81591 0
M  V30 34767 H 3499.27 -1.89196 4.89188 0
M  V30 34768 H 3500.74 -3.48824 4.27815 0
M  V30 34769 H 3501.22 -3.55206 2.58312 0
M  V30 34770 H 3501.83 -2.23761 3.61678 0
M  V30 34771 N 3500.14 -1.48046 -0.540378 0
M  V30 34772 C 3501.07 -1.5787 -1.66161 0
M  V30 34773 C 3502.09 -0.463683 -1.56057 0
M  V30 34774 O 3503.27 -0.734066 -1.62707 0
M  V30 34775 C 3500.37 -1.48269 -3.04745 0
M  V30 34776 C 3499.55 -2.74631 -3.40436 0
M  V30 34777 C 3498.61 -2.58629 -4.58255 0
M  V30 34778 O 3497.63 -3.32491 -4.61994 0
M  V30 34779 N 3498.83 -1.67561 -5.55791 0
M  V30 34780 H 3501.6 -2.5456 -1.58175 0
M  V30 34781 H 3499.16 -1.44638 -0.727415 0
M  V30 34782 H 3501.15 -1.35273 -3.81423 0
M  V30 34783 H 3499.72 -0.595946 -3.06867 0
M  V30 34784 H 3498.94 -3.02266 -2.53039 0
M  V30 34785 H 3500.23 -3.58485 -3.61062 0
M  V30 34786 H 3499.63 -1.06735 -5.55539 0
M  V30 34787 H 3498.19 -1.6051 -6.31728 0
M  V30 34788 N 3501.62 0.788444 -1.3646 0
M  V30 34789 C 3502.85 1.57729 -1.339 0
M  V30 34790 C 3503.26 1.88632 0.0795139 0
M  V30 34791 O 3502.62 1.50197 1.03668 0
M  V30 34792 C 3502.67 2.89769 -2.16139 0
M  V30 34793 O 3502.39 2.60197 -3.52462 0
M  V30 34794 C 3503.89 3.8407 -2.21371 0
M  V30 34795 H 3501.11 0.489189 -0.459277 0
M  V30 34796 H 3503.66 0.978494 -1.79571 0
M  V30 34797 H 3501.81 3.46115 -1.74021 0
M  V30 34798 H 3502.22 3.44633 -3.95384 0
M  V30 34799 H 3503.7 4.73775 -2.83269 0
M  V30 34800 H 3504.18 4.2199 -1.21743 0
M  V30 34801 H 3504.78 3.33657 -2.63729 0
M  V30 34802 N 3503.1 1.20755 1.01271 0
M  V30 34803 C 3504.51 0.963243 1.27255 0
M  V30 34804 C 3504.71 -0.354938 1.98349 0
M  V30 34805 O 3503.77 -1.08251 2.28118 0
M  V30 34806 C 3505.08 2.14854 2.10376 0
M  V30 34807 C 3506.63 2.18995 2.23629 0
M  V30 34808 C 3507.1 3.37022 3.1013 0
M  V30 34809 N 3508.6 3.3706 3.17718 0
M  V30 34810 C 3509.33 4.25032 3.84884 0
M  V30 34811 N 3508.83 5.23189 4.54143 0
M  V30 34812 N 3510.62 4.12862 3.81446 0
M  V30 34813 H 3502.77 2.05539 0.535498 0
M  V30 34814 H 3505.03 0.899616 0.29899 0
M  V30 34815 H 3504.74 3.10338 1.65478 0
M  V30 34816 H 3504.61 2.13272 3.11119 0
M  V30 34817 H 3507 1.24071 2.6775 0
M  V30 34818 H 3507.08 2.24624 1.22383 0
M  V30 34819 H 3506.73 4.32234 2.66714 0
M  V30 34820 H 3506.66 3.2863 4.11473 0
M  V30 34821 H 3509.15 2.66019 2.68407 0
M  V30 34822 H 3509.46 5.86632 5.03073 0
M  V30 34823 H 3507.8 5.27121 4.52955 0
M  V30 34824 H 3511 3.35445 3.26488 0
M  V30 34825 H 3511.17 4.81632 4.33515 0
M  V30 34826 N 3504.58 -1.20642 1.01406 0
M  V30 34827 C 3505.85 -1.8561 0.61712 0
M  V30 34828 C 3506.23 -1.90721 -0.904913 0
M  V30 34829 O 3505.58 -1.41318 -1.79559 0
M  V30 34830 C 3505.79 -3.25384 1.26199 0
M  V30 34831 C 3507.14 -4.01692 1.37583 0
M  V30 34832 O 3508.16 -3.34728 1.218 0
M  V30 34833 O 3507.02 -5.21607 1.63059 0
M  V30 34834 H 3504.12 -0.799208 0.212593 0
M  V30 34835 H 3506.66 -1.28252 1.11128 0
M  V30 34836 H 3505.43 -3.16415 2.30211 0
M  V30 34837 H 3505.06 -3.90371 0.754748 0
M  V30 34838 N 3506.05 -0.789968 -1.36372 0
M  V30 34839 C 3507.47 -0.471713 -1.5247 0
M  V30 34840 C 3507.67 1.00987 -1.74367 0
M  V30 34841 O 3506.73 1.79535 -1.77549 0
M  V30 34842 C 3508.04 -1.30263 -2.7102 0
M  V30 34843 C 3509.59 -1.29638 -2.84891 0
M  V30 34844 C 3510.06 -2.11105 -4.06446 0
M  V30 34845 N 3511.55 -2.08554 -4.13593 0
M  V30 34846 C 3512.29 -2.68359 -5.06726 0
M  V30 34847 N 3511.78 -3.37024 -6.05299 0
M  V30 34848 N 3513.58 -2.5809 -4.99346 0
M  V30 34849 H 3505.73 -1.7497 -1.20413 0
M  V30 34850 H 3507.99 -0.743795 -0.587769 0
M  V30 34851 H 3507.7 -2.35334 -2.61363 0
M  V30 34852 H 3507.57 -0.944318 -3.65188 0
M  V30 34853 H 3509.96 -0.253594 -2.94008 0
M  V30 34854 H 3510.04 -1.69446 -1.91629 0
M  V30 34855 H 3509.68 -3.15415 -3.9809 0
M  V30 34856 H 3509.61 -1.68667 -4.98858 0
M  V30 34857 H 3512.1 -1.58579 -3.43017 0
M  V30 34858 H 3512.42 -3.79986 -6.72927 0
M  V30 34859 H 3510.76 -3.41126 -6.05523 0
M  V30 34860 H 3513.95 -2.04046 -4.21287 0
M  V30 34861 H 3514.13 -3.04989 -5.71739 0
M  V30 34862 N 3507.53 1.47986 -0.542031 0
M  V30 34863 C 3508.46 2.32619 0.202662 0
M  V30 34864 C 3509.44 1.42848 0.923496 0
M  V30 34865 O 3510.63 1.71722 0.906927 0
M  V30 34866 C 3507.76 3.24309 1.24261 0
M  V30 34867 C 3506.71 4.232 0.639183 0
M  V30 34868 C 3506.04 5.04108 1.78266 0
M  V30 34869 C 3507.34 5.20788 -0.397073 0
M  V30 34870 H 3509.03 2.9513 -0.503868 0
M  V30 34871 H 3506.58 1.41922 -0.243761 0
M  V30 34872 H 3508.53 3.8235 1.77163 0
M  V30 34873 H 3507.25 2.59822 1.97888 0
M  V30 34874 H 3505.91 3.66364 0.131591 0
M  V30 34875 H 3505.56 4.36037 2.50761 0
M  V30 34876 H 3505.26 5.7105 1.38477 0
M  V30 34877 H 3506.79 5.65004 2.31523 0
M  V30 34878 H 3508.2 5.73282 0.045305 0
M  V30 34879 H 3506.6 5.95849 -0.713015 0
M  V30 34880 H 3507.67 4.6719 -1.29851 0
M  V30 34881 N 3509.01 0.277736 1.55133 0
M  V30 34882 C 3509.97 -0.595531 2.21328 0
M  V30 34883 C 3510.97 -1.07931 1.19195 0
M  V30 34884 O 3512.16 -0.979068 1.44083 0
M  V30 34885 C 3509.29 -1.82191 2.88131 0
M  V30 34886 H 3510.49 -0.0175328 2.99895 0
M  V30 34887 H 3508.04 0.0283728 1.56274 0
M  V30 34888 H 3508.78 -2.44035 2.13582 0
M  V30 34889 H 3508.56 -1.4829 3.62977 0
M  V30 34890 H 3510.05 -2.44285 3.38696 0
M  V30 34891 N 3510.49 -1.57599 0.00505908 0
M  V30 34892 C 3511.42 -2.056 -1.01299 0
M  V30 34893 C 3512.43 -0.974852 -1.30386 0
M  V30 34894 O 3513.62 -1.25155 -1.27273 0
M  V30 34895 C 3510.72 -2.44526 -2.34649 0
M  V30 34896 C 3509.89 -3.75434 -2.24429 0
M  V30 34897 C 3508.95 -4.01172 -3.4051 0
M  V30 34898 O 3507.98 -4.71768 -3.18471 0
M  V30 34899 N 3509.18 -3.49462 -4.63526 0
M  V30 34900 H 3511.95 -2.93559 -0.603604 0
M  V30 34901 H 3509.51 -1.60871 -0.18222 0
M  V30 34902 H 3511.5 -2.58855 -3.11089 0
M  V30 34903 H 3510.07 -1.62059 -2.67312 0
M  V30 34904 H 3509.29 -3.71133 -1.32868 0
M  V30 34905 H 3510.58 -4.61246 -2.14778 0
M  V30 34906 H 3509.98 -2.92304 -4.84329 0
M  V30 34907 H 3508.53 -3.69113 -5.37214 0
M  V30 34908 N 3511.97 0.267771 -1.55309 0
M  V30 34909 C 3512.92 1.33353 -1.84935 0
M  V30 34910 C 3513.9 1.44455 -0.70863 0
M  V30 34911 O 3515.09 1.48048 -0.970095 0
M  V30 34912 C 3512.22 2.69286 -2.12932 0
M  V30 34913 C 3511.31 2.62273 -3.33277 0
M  V30 34914 N 3511.7 2.24881 -4.53059 0
M  V30 34915 C 3510 2.93325 -3.35971 0
M  V30 34916 C 3510.7 2.27988 -5.3516 0
M  V30 34917 N 3509.67 2.66669 -4.73697 0
M  V30 34918 H 3513.47 1.0346 -2.75088 0
M  V30 34919 H 3510.99 0.476407 -1.55255 0
M  V30 34920 H 3512.99 3.46172 -2.32315 0
M  V30 34921 H 3511.65 3.00063 -1.24066 0
M  V30 34922 H 3512.66 1.96772 -4.79063 0
M  V30 34923 H 3509.33 3.28779 -2.57314 0
M  V30 34924 H 3510.72 2.01596 -6.40943 0
M  V30 34925 N 3513.44 1.48331 0.532519 0
M  V30 34926 C 3514.35 1.65342 1.6643 0
M  V30 34927 C 3515.37 0.535968 1.6554 0
M  V30 34928 O 3516.55 0.806711 1.84538 0
M  V30 34929 C 3513.61 1.68682 3.02898 0
M  V30 34930 C 3512.67 2.92036 3.14664 0
M  V30 34931 C 3511.9 2.95207 4.44622 0
M  V30 34932 O 3512.13 2.0686 5.31568 0
M  V30 34933 O 3511.06 3.87349 4.607 0
M  V30 34934 H 3514.89 2.61159 1.55016 0
M  V30 34935 H 3512.47 1.31702 0.705325 0
M  V30 34936 H 3514.35 1.73414 3.84065 0
M  V30 34937 H 3513.03 0.760382 3.14642 0
M  V30 34938 H 3511.94 2.92838 2.32802 0
M  V30 34939 H 3513.27 3.84056 3.07835 0
M  V30 34940 N 3514.92 -0.781196 1.36876 0
M  V30 34941 C 3515.88 -1.87577 1.3171 0
M  V30 34942 C 3516.88 -1.59245 0.223072 0
M  V30 34943 O 3518.07 -1.67503 0.478356 0
M  V30 34944 C 3515.21 -3.24528 1.04376 0
M  V30 34945 H 3516.4 -1.93572 2.29063 0
M  V30 34946 H 3513.95 -0.979909 1.21768 0
M  V30 34947 H 3514.69 -3.24213 0.0751511 0
M  V30 34948 H 3514.47 -3.46483 1.83554 0
M  V30 34949 H 3515.96 -4.046 1.03387 0
M  V30 34950 N 3516.4 -1.21291 -1.0063 0
M  V30 34951 C 3517.65 -1.02731 -1.74042 0
M  V30 34952 C 3517.97 0.440318 -1.89964 0
M  V30 34953 O 3517.24 1.3177 -1.4496 0
M  V30 34954 H 3515.82 -0.377138 -0.644807 0
M  V30 34955 H 3518.48 -1.52577 -1.21269 0
M  V30 34956 H 3517.58 -1.49418 -2.74008 0
M  V30 34957 N 3517.88 1.20103 -1.02045 0
M  V30 34958 C 3518.81 2.2527 -0.61446 0
M  V30 34959 C 3519.79 1.65974 0.37239 0
M  V30 34960 O 3520.97 1.92492 0.256971 0
M  V30 34961 C 3518.1 3.47272 0.0441474 0
M  V30 34962 C 3517.06 4.19187 -0.864092 0
M  V30 34963 C 3516.38 5.34653 -0.0710491 0
M  V30 34964 C 3517.68 4.74908 -2.17394 0
M  V30 34965 H 3519.38 2.59484 -1.4936 0
M  V30 34966 H 3516.92 1.2473 -0.719612 0
M  V30 34967 H 3518.88 4.20028 0.339751 0
M  V30 34968 H 3517.6 3.12233 0.958027 0
M  V30 34969 H 3516.26 3.48301 -1.14376 0
M  V30 34970 H 3515.91 4.95858 0.844601 0
M  V30 34971 H 3515.61 5.83699 -0.675933 0
M  V30 34972 H 3517.13 6.10211 0.218011 0
M  V30 34973 H 3518.55 5.39463 -1.94044 0
M  V30 34974 H 3516.94 5.34407 -2.73001 0
M  V30 34975 H 3518.01 3.93438 -2.83434 0
M  V30 34976 N 3519.36 0.797189 1.35951 0
M  V30 34977 C 3520.29 0.146733 2.27728 0
M  V30 34978 C 3521.27 -0.681754 1.47617 0
M  V30 34979 O 3522.45 -0.651062 1.76899 0
M  V30 34980 C 3519.58 -0.797384 3.2918 0
M  V30 34981 C 3518.62 -0.0497101 4.26471 0
M  V30 34982 S 3519.46 1.27989 5.1998 0
M  V30 34983 C 3520.61 0.339974 6.24976 0
M  V30 34984 H 3520.85 0.924884 2.82548 0
M  V30 34985 H 3518.38 0.591784 1.42609 0
M  V30 34986 H 3520.34 -1.33662 3.8813 0
M  V30 34987 H 3519 -1.54884 2.73257 0
M  V30 34988 H 3518.19 -0.7664 4.98139 0
M  V30 34989 H 3517.79 0.419285 3.71642 0
M  V30 34990 H 3520.09 -0.478294 6.7581 0
M  V30 34991 H 3521.03 1.02556 7.00634 0
M  V30 34992 H 3521.44 -0.0601499 5.64468 0
M  V30 34993 N 3520.83 -1.47696 0.549872 0
M  V30 34994 C 3522.11 -1.95554 -0.0422449 0
M  V30 34995 C 3522.49 -1.4924 -1.493 0
M  V30 34996 O 3521.84 -0.727882 -2.16597 0
M  V30 34997 C 3522.05 -3.48869 0.0956165 0
M  V30 34998 C 3523.4 -4.24566 -0.0534952 0
M  V30 34999 O 3524.42 -3.56193 0.0227991 0
M  V30 35000 O 3523.28 -5.46072 -0.216354 0
M  V30 35001 H 3520.37 -0.82418 -0.068232 0
M  V30 35002 H 3522.92 -1.5813 0.615877 0
M  V30 35003 H 3521.69 -3.75361 1.10543 0
M  V30 35004 H 3521.32 -3.9304 -0.600453 0
M  V30 35005 N 3522.31 -0.285959 -1.54984 0
M  V30 35006 C 3523.24 0.59022 -2.25917 0
M  V30 35007 C 3524.22 1.15015 -1.25321 0
M  V30 35008 O 3525.41 1.18228 -1.54064 0
M  V30 35009 C 3522.54 1.76931 -2.98852 0
M  V30 35010 C 3521.49 1.34042 -4.06468 0
M  V30 35011 C 3520.82 2.60348 -4.67036 0
M  V30 35012 C 3522.12 0.482662 -5.20065 0
M  V30 35013 H 3523.81 -0.00136834 -2.994 0
M  V30 35014 H 3521.36 -0.00209812 -1.44 0
M  V30 35015 H 3523.31 2.38824 -3.4719 0
M  V30 35016 H 3522.04 2.3869 -2.22923 0
M  V30 35017 H 3520.69 0.744637 -3.58958 0
M  V30 35018 H 3520.34 3.20389 -3.87763 0
M  V30 35019 H 3520.04 2.32358 -5.39707 0
M  V30 35020 H 3521.57 3.2307 -5.18129 0
M  V30 35021 H 3522.98 1.00687 -5.64389 0
M  V30 35022 H 3521.38 0.297186 -5.99364 0
M  V30 35023 H 3522.45 -0.495945 -4.82357 0
M  V30 35024 N 3523.79 1.57594 -0.0134169 0
M  V30 35025 C 3525.21 1.55875 0.34282 0
M  V30 35026 C 3525.41 1.01745 1.73926 0
M  V30 35027 O 3524.46 0.657201 2.43797 0
M  V30 35028 C 3525.78 2.99995 0.205778 0
M  V30 35029 C 3527.32 3.11748 0.27972 0
M  V30 35030 C 3527.8 4.57678 0.171649 0
M  V30 35031 N 3529.29 4.62633 0.229129 0
M  V30 35032 C 3530.02 5.73151 0.169052 0
M  V30 35033 N 3529.52 6.92775 0.0587948 0
M  V30 35034 N 3531.31 5.61662 0.221897 0
M  V30 35035 H 3523.46 1.91115 -0.92676 0
M  V30 35036 H 3525.73 0.878422 -0.356481 0
M  V30 35037 H 3525.43 3.43489 -0.755542 0
M  V30 35038 H 3525.31 3.64182 0.982412 0
M  V30 35039 H 3527.69 2.68176 1.23149 0
M  V30 35040 H 3527.78 2.50312 -0.527018 0
M  V30 35041 H 3527.42 5.01927 -0.776636 0
M  V30 35042 H 3527.35 5.17075 0.997047 0
M  V30 35043 H 3529.84 3.76584 0.31513 0
M  V30 35044 H 3530.15 7.72798 0.0192168 0
M  V30 35045 H 3528.5 6.94996 0.0242321 0
M  V30 35046 H 3531.69 4.67097 0.306324 0
M  V30 35047 H 3531.86 6.47773 0.171613 0
M  V30 35048 N 3525.27 -0.259531 1.55448 0
M  V30 35049 C 3526.18 -1.34285 1.92366 0
M  V30 35050 C 3527.19 -1.53332 0.822519 0
M  V30 35051 O 3528.37 -1.67198 1.1228 0
M  V30 35052 C 3525.44 -2.67971 2.19982 0
M  V30 35053 C 3524.5 -2.57556 3.43458 0
M  V30 35054 C 3523.73 -3.84866 3.69748 0
M  V30 35055 O 3523.95 -4.86171 2.98319 0
M  V30 35056 O 3522.89 -3.84259 4.6328 0
M  V30 35057 H 3526.71 -1.0597 2.84612 0
M  V30 35058 H 3524.3 -0.459214 1.42167 0
M  V30 35059 H 3526.18 -3.46994 2.3911 0
M  V30 35060 H 3524.85 -2.96045 1.30917 0
M  V30 35061 H 3523.76 -1.76863 3.29652 0
M  V30 35062 H 3525.09 -2.3443 4.32786 0
M  V30 35063 N 3526.75 -1.48611 -0.524645 0
M  V30 35064 C 3527.71 -1.63042 -1.6109 0
M  V30 35065 C 3528.71 -0.503414 -1.52717 0
M  V30 35066 O 3529.9 -0.769331 -1.56291 0
M  V30 35067 C 3527.03 -1.60563 -3.00719 0
M  V30 35068 H 3528.22 -2.59904 -1.49632 0
M  V30 35069 H 3525.78 -1.37288 -0.747111 0
M  V30 35070 H 3526.51 -0.651982 -3.17679 0
M  V30 35071 H 3526.3 -2.42388 -3.08206 0
M  V30 35072 H 3527.79 -1.73866 -3.79685 0
M  V30 35073 N 3528.22 0.773926 -1.37289 0
M  V30 35074 C 3529.15 1.90111 -1.35573 0
M  V30 35075 C 3530.14 1.6861 -0.224688 0
M  V30 35076 O 3531.32 1.89499 -0.424709 0
M  V30 35077 C 3528.45 3.27363 -1.15977 0
M  V30 35078 C 3527.4 3.63424 -2.26069 0
M  V30 35079 C 3526.73 4.99193 -1.91599 0
M  V30 35080 C 3528.03 3.70399 -3.68242 0
M  V30 35081 H 3529.72 1.91804 -2.29894 0
M  V30 35082 H 3527.27 0.9214 -1.10663 0
M  V30 35083 H 3529.22 4.05853 -1.13407 0
M  V30 35084 H 3527.95 3.26098 -0.1811 0
M  V30 35085 H 3526.61 2.8724 -2.27791 0
M  V30 35086 H 3526.25 4.94465 -0.922673 0
M  V30 35087 H 3525.95 5.2429 -2.65319 0
M  V30 35088 H 3527.48 5.80086 -1.90612 0
M  V30 35089 H 3528.89 4.39045 -3.68662 0
M  V30 35090 H 3527.29 4.06991 -4.40997 0
M  V30 35091 H 3528.36 2.71115 -4.02026 0
M  V30 35092 N 3529.7 1.21823 0.99985 0
M  V30 35093 C 3530.65 0.97922 2.10984 0
M  V30 35094 C 3531.64 -0.0752989 1.69233 0
M  V30 35095 O 3532.85 0.0765399 1.79837 0
M  V30 35096 H 3529.23 0.299433 0.689814 0
M  V30 35097 H 3531.2 1.92128 2.28318 0
M  V30 35098 C 3529.95 0.56608 3.43061 0
M  V30 35099 H 3529.27 1.36916 3.75625 0
M  V30 35100 H 3530.71 0.438204 4.21729 0
M  V30 35101 C 3529.17 -0.723589 3.29038 0
M  V30 35102 O 3529.7 -1.77781 3.60218 0
M  V30 35103 N 3527.9 -0.692076 2.82239 0
M  V30 35104 H 3527.45 0.166127 2.57064 0
M  V30 35105 H 3527.41 -1.55527 2.73237 0
M  V30 35106 N 3531.18 -1.1956 1.0268 0
M  V30 35107 C 3532.6 -1.41225 0.743491 0
M  V30 35108 C 3532.8 -1.89938 -0.672753 0
M  V30 35109 O 3531.85 -2.07479 -1.43905 0
M  V30 35110 C 3533.17 -2.42514 1.77785 0
M  V30 35111 C 3534.71 -2.56264 1.79716 0
M  V30 35112 C 3535.19 -3.60806 2.82105 0
M  V30 35113 N 3536.68 -3.68299 2.80909 0
M  V30 35114 C 3537.41 -4.48876 3.56788 0
M  V30 35115 N 3536.91 -5.33175 4.42376 0
M  V30 35116 N 3538.7 -4.43506 3.45339 0
M  V30 35117 H 3530.85 -0.862601 1.94095 0
M  V30 35118 H 3533.12 -0.441299 0.839023 0
M  V30 35119 H 3532.82 -2.1374 2.79299 0
M  V30 35120 H 3532.7 -3.41658 1.59842 0
M  V30 35121 H 3535.08 -2.84362 0.788806 0
M  V30 35122 H 3535.17 -1.5728 2.01734 0
M  V30 35123 H 3534.81 -3.3345 3.8311 0
M  V30 35124 H 3534.74 -4.59435 2.57346 0
M  V30 35125 H 3537.23 -3.08093 2.18832 0
M  V30 35126 H 3537.54 -5.91771 4.97018 0
M  V30 35127 H 3535.89 -5.32642 4.4645 0
M  V30 35128 H 3539.08 -3.7669 2.77889 0
M  V30 35129 H 3539.25 -5.06064 4.04727 0
M  V30 35130 N 3532.66 -0.804387 -1.35526 0
M  V30 35131 C 3533.62 -0.21889 -2.28152 0
M  V30 35132 C 3534.62 0.592484 -1.49487 0
M  V30 35133 O 3535.81 0.411289 -1.69275 0
M  V30 35134 C 3532.94 0.695136 -3.33737 0
M  V30 35135 H 3534.14 -1.03581 -2.81445 0
M  V30 35136 H 3531.69 -0.574879 -1.45344 0
M  V30 35137 H 3532.42 1.53582 -2.85627 0
M  V30 35138 H 3532.21 0.115074 -3.91931 0
M  V30 35139 H 3533.7 1.09918 -4.02874 0
M  V30 35140 N 3534.14 1.47403 -0.557697 0
M  V30 35141 C 3535.38 2.02772 -0.0338741 0
M  V30 35142 C 3535.72 1.4311 1.31276 0
M  V30 35143 O 3534.99 0.586853 1.85435 0
M  V30 35144 C 3535.27 3.60052 0.0586794 0
M  V30 35145 C 3535.13 4.30146 -1.31508 0
M  V30 35146 C 3536.45 4.33278 0.771866 0
M  V30 35147 H 3533.57 0.736871 -0.013784 0
M  V30 35148 H 3536.21 1.75826 -0.72008 0
M  V30 35149 H 3534.36 3.83141 0.643086 0
M  V30 35150 H 3536.03 4.18397 -1.94273 0
M  V30 35151 H 3534.27 3.90481 -1.88963 0
M  V30 35152 H 3534.94 5.38731 -1.20303 0
M  V30 35153 H 3537.42 4.15186 0.275656 0
M  V30 35154 H 3536.3 5.42956 0.805588 0
M  V30 35155 H 3536.56 4.02534 1.82809 0
M  V30 35156 N 3535.62 0.294175 1.5483 0
M  V30 35157 C 3536.89 -0.369868 1.92071 0
M  V30 35158 C 3537.27 -1.72231 1.22064 0
M  V30 35159 O 3536.62 -2.25741 0.354015 0
M  V30 35160 C 3536.83 -0.491289 3.45525 0
M  V30 35161 C 3538.18 -0.765338 4.17645 0
M  V30 35162 O 3539.2 -0.575366 3.51522 0
M  V30 35163 O 3538.06 -1.12982 5.34694 0
M  V30 35164 H 3535.16 -0.205596 0.801036 0
M  V30 35165 H 3537.7 0.341731 1.66224 0
M  V30 35166 H 3536.47 0.459732 3.8859 0
M  V30 35167 H 3536.1 -1.25162 3.77386 0
M  V30 35168 N 3537.09 -1.57585 0.0217743 0
M  V30 35169 C 3538.06 -2.08698 -0.94751 0
M  V30 35170 C 3539.06 -1.00058 -1.25877 0
M  V30 35171 O 3540.25 -1.26244 -1.20033 0
M  V30 35172 C 3537.38 -2.54669 -2.26619 0
M  V30 35173 H 3538.57 -2.95618 -0.504964 0
M  V30 35174 H 3536.12 -1.54656 -0.226125 0
M  V30 35175 H 3536.86 -1.71057 -2.75518 0
M  V30 35176 H 3536.64 -3.34032 -2.05341 0
M  V30 35177 H 3538.13 -2.94464 -2.96109 0
M  V30 35178 N 3538.57 0.251283 -1.55584 0
M  V30 35179 C 3539.8 0.997604 -1.81261 0
M  V30 35180 C 3540.21 1.79116 -0.596892 0
M  V30 35181 O 3539.57 1.77255 0.434394 0
M  V30 35182 C 3539.62 1.93897 -3.051 0
M  V30 35183 O 3539.34 1.17753 -4.21979 0
M  V30 35184 C 3540.84 2.80164 -3.43545 0
M  V30 35185 H 3538.06 0.29375 -0.603284 0
M  V30 35186 H 3540.61 0.275495 -2.02636 0
M  V30 35187 H 3538.76 2.61541 -2.85788 0
M  V30 35188 H 3539.18 1.8139 -4.92136 0
M  V30 35189 H 3540.65 3.41973 -4.33311 0
M  V30 35190 H 3541.13 3.51052 -2.6393 0
M  V30 35191 H 3541.73 2.17978 -3.65192 0
M  V30 35192 N 3540.05 1.48887 0.516757 0
M  V30 35193 C 3541.47 1.35301 0.846516 0
M  V30 35194 C 3541.67 0.374069 1.97997 0
M  V30 35195 O 3540.72 -0.199958 2.51707 0
M  V30 35196 C 3542.03 2.7565 1.20157 0
M  V30 35197 C 3543.58 2.84235 1.31069 0
M  V30 35198 C 3544.06 4.25316 1.69912 0
M  V30 35199 N 3545.55 4.28052 1.7699 0
M  V30 35200 C 3546.28 5.34166 2.08457 0
M  V30 35201 N 3545.78 6.50543 2.38256 0
M  V30 35202 N 3547.57 5.2157 2.09575 0
M  V30 35203 H 3539.72 2.11141 -0.230909 0
M  V30 35204 H 3541.99 0.947127 -0.0406845 0
M  V30 35205 H 3541.69 3.48909 0.442217 0
M  V30 35206 H 3541.57 3.10018 2.14869 0
M  V30 35207 H 3543.95 2.11224 2.06079 0
M  V30 35208 H 3544.03 2.5347 0.344461 0
M  V30 35209 H 3543.68 4.98849 0.954579 0
M  V30 35210 H 3543.61 4.53535 2.67608 0
M  V30 35211 H 3546.1 3.44115 1.56185 0
M  V30 35212 H 3546.41 7.27245 2.6141 0
M  V30 35213 H 3544.76 6.53795 2.35747 0
M  V30 35214 H 3547.95 4.29663 1.8576 0
M  V30 35215 H 3548.12 6.04366 2.33765 0
M  V30 35216 N 3541.53 -0.766635 1.37697 0
M  V30 35217 C 3542.44 -1.91102 1.36078 0
M  V30 35218 C 3543.45 -1.72052 0.259647 0
M  V30 35219 O 3544.63 -1.952 0.495894 0
M  V30 35220 C 3541.69 -3.26296 1.17182 0
M  V30 35221 C 3540.76 -3.57964 2.36981 0
M  V30 35222 C 3539.99 -4.86708 2.18977 0
M  V30 35223 O 3540.21 -5.58131 1.17668 0
M  V30 35224 O 3539.15 -5.17556 3.07278 0
M  V30 35225 H 3542.97 -1.9542 2.32475 0
M  V30 35226 H 3540.56 -0.910101 1.1848 0
M  V30 35227 H 3542.44 -4.07152 1.08652 0
M  V30 35228 H 3541.11 -3.22819 0.238615 0
M  V30 35229 H 3540.02 -2.77323 2.51084 0
M  V30 35230 H 3541.35 -3.66189 3.28886 0
M  V30 35231 N 3543.01 -1.22351 -0.993375 0
M  V30 35232 C 3543.97 -0.994543 -2.06498 0
M  V30 35233 C 3544.97 0.0388483 -1.60753 0
M  V30 35234 O 3546.16 -0.199609 -1.73053 0
M  V30 35235 C 3543.29 -0.502147 -3.37181 0
M  V30 35236 H 3544.48 -1.94537 -2.28244 0
M  V30 35237 H 3542.04 -1.04213 -1.16488 0
M  V30 35238 H 3542.77 0.453058 -3.2112 0
M  V30 35239 H 3542.56 -1.24769 -3.71719 0
M  V30 35240 H 3544.05 -0.362181 -4.16026 0
M  V30 35241 N 3544.48 1.19014 -1.03313 0
M  V30 35242 C 3545.42 2.21852 -0.575694 0
M  V30 35243 C 3546.43 1.58978 0.350678 0
M  V30 35244 O 3547.62 1.77899 0.146394 0
M  V30 35245 C 3544.72 3.38422 0.17989 0
M  V30 35246 C 3543.89 4.30879 -0.752479 0
M  V30 35247 C 3542.95 5.26184 -0.0415409 0
M  V30 35248 O 3541.98 5.65249 -0.669503 0
M  V30 35249 N 3543.18 5.67368 1.22773 0
M  V30 35250 H 3545.94 2.61723 -1.46017 0
M  V30 35251 H 3543.5 1.33723 -0.912679 0
M  V30 35252 H 3545.5 3.99196 0.66515 0
M  V30 35253 H 3544.07 2.97305 0.965827 0
M  V30 35254 H 3543.29 3.67823 -1.41775 0
M  V30 35255 H 3544.57 4.89558 -1.38601 0
M  V30 35256 H 3543.97 5.37671 1.75858 0
M  V30 35257 H 3542.53 6.30375 1.65741 0
M  V30 35258 N 3545.96 0.811563 1.35098 0
M  V30 35259 C 3546.87 0.227091 2.33498 0
M  V30 35260 C 3547.89 -0.632534 1.62096 0
M  V30 35261 O 3549.06 -0.543113 1.93939 0
M  V30 35262 C 3546.13 -0.610627 3.4128 0
M  V30 35263 C 3545.19 0.27007 4.2845 0
M  V30 35264 C 3544.42 -0.527761 5.31084 0
M  V30 35265 O 3544.65 -1.76204 5.42502 0
M  V30 35266 O 3543.58 0.0839678 6.01841 0
M  V30 35267 H 3547.41 1.04124 2.85293 0
M  V30 35268 H 3544.99 0.573456 1.37956 0
M  V30 35269 H 3546.87 -1.08761 4.07123 0
M  V30 35270 H 3545.55 -1.40229 2.91749 0
M  V30 35271 H 3544.45 0.794298 3.6557 0
M  V30 35272 H 3545.79 1.0258 4.81392 0
M  V30 35273 N 3547.44 -1.47105 0.565506 0
M  V30 35274 C 3548.37 -2.32912 -0.165629 0
M  V30 35275 C 3549.35 -1.44299 -0.900653 0
M  V30 35276 O 3550.54 -1.73143 -0.879493 0
M  V30 35277 C 3547.67 -3.26245 -1.19086 0
M  V30 35278 C 3546.62 -4.24164 -0.571774 0
M  V30 35279 C 3545.95 -5.06881 -1.70224 0
M  V30 35280 C 3547.25 -5.20091 0.479876 0
M  V30 35281 H 3548.94 -2.94291 0.550757 0
M  V30 35282 H 3546.49 -1.41516 0.266309 0
M  V30 35283 H 3548.44 -3.8512 -1.71058 0
M  V30 35284 H 3547.16 -2.62938 -1.9373 0
M  V30 35285 H 3545.82 -3.66527 -0.0732886 0
M  V30 35286 H 3545.47 -4.39971 -2.43792 0
M  V30 35287 H 3545.17 -5.73181 -1.29374 0
M  V30 35288 H 3546.69 -5.68616 -2.22505 0
M  V30 35289 H 3548.11 -5.73282 0.045905 0
M  V30 35290 H 3546.5 -5.94639 0.807719 0
M  V30 35291 H 3547.57 -4.65065 1.37267 0
M  V30 35292 N 3548.92 -0.302382 -1.54672 0
M  V30 35293 C 3549.87 0.58883 -2.25023 0
M  V30 35294 C 3550.86 1.13589 -1.25673 0
M  V30 35295 O 3552.07 1.08638 -1.4352 0
M  V30 35296 H 3548.44 0.208496 -0.722519 0
M  V30 35297 H 3550.41 -0.0270453 -2.98388 0
M  V30 35298 C 3549.16 1.74854 -3.00535 0
M  V30 35299 H 3548.48 1.33681 -3.76788 0
M  V30 35300 H 3549.92 2.34817 -3.5304 0
M  V30 35301 C 3548.38 2.65349 -2.07585 0
M  V30 35302 O 3548.91 3.66483 -1.64479 0
M  V30 35303 N 3547.12 2.33113 -1.73512 0
M  V30 35304 H 3546.67 1.50917 -2.08763 0
M  V30 35305 H 3546.62 2.93928 -1.11596 0
M  V30 35306 N 3550.4 1.57571 -0.0301311 0
M  V30 35307 C 3551.62 1.96551 0.662011 0
M  V30 35308 C 3552.05 0.906609 1.6481 0
M  V30 35309 O 3551.4 -0.132383 1.80816 0
M  V30 35310 C 3551.45 3.34624 1.34383 0
M  V30 35311 O 3550.56 3.3106 2.45913 0
M  V30 35312 H 3549.9 0.640842 0.173831 0
M  V30 35313 H 3552.43 2.04392 -0.092284 0
M  V30 35314 H 3552.44 3.70878 1.70039 0
M  V30 35315 H 3551.11 4.11237 0.62102 0
M  V30 35316 H 3549.69 3.06524 2.12361 0
M  V30 35317 N 3551.87 -0.243029 1.55715 0
M  V30 35318 C 3553.29 -0.591728 1.48225 0
M  V30 35319 C 3553.49 -1.88156 0.721083 0
M  V30 35320 O 3552.55 -2.51239 0.25201 0
M  V30 35321 C 3553.86 -0.690867 2.92656 0
M  V30 35322 C 3555.41 -0.782935 3.0305 0
M  V30 35323 C 3555.88 -0.913603 4.48795 0
M  V30 35324 N 3557.37 -0.978375 4.52749 0
M  V30 35325 C 3558.11 -1.09881 5.62773 0
M  V30 35326 N 3557.6 -1.18455 6.82598 0
M  V30 35327 N 3559.4 -1.13227 5.50578 0
M  V30 35328 H 3551.55 0.60365 2.03641 0
M  V30 35329 H 3553.81 0.208895 0.924698 0
M  V30 35330 H 3553.52 0.186933 3.51203 0
M  V30 35331 H 3553.39 -1.56154 3.4336 0
M  V30 35332 H 3555.78 -1.65119 2.44581 0
M  V30 35333 H 3555.86 0.112966 2.5555 0
M  V30 35334 H 3555.5 -0.0498942 5.07875 0
M  V30 35335 H 3555.43 -1.8246 4.9398 0
M  V30 35336 H 3557.92 -0.923305 3.66447 0
M  V30 35337 H 3558.24 -1.27562 7.62199 0
M  V30 35338 H 3556.58 -1.15405 6.85351 0
M  V30 35339 H 3559.77 -1.0618 4.55898 0
M  V30 35340 H 3559.95 -1.22268 6.3636 0
M  V30 35341 N 3553.35 -1.49159 -0.508854 0
M  V30 35342 C 3554.3 -1.65723 -1.63213 0
M  V30 35343 C 3555.29 -0.523265 -1.61116 0
M  V30 35344 O 3556.5 -0.702658 -1.65719 0
M  V30 35345 H 3552.88 -0.522429 -0.5409 0
M  V30 35346 H 3554.85 -2.60023 -1.46392 0
M  V30 35347 C 3553.6 -1.73377 -3.0139 0
M  V30 35348 H 3552.92 -2.60005 -3.03706 0
M  V30 35349 H 3554.36 -1.89004 -3.79544 0
M  V30 35350 C 3552.82 -0.476888 -3.33508 0
M  V30 35351 O 3553.35 0.400915 -3.99694 0
M  V30 35352 N 3551.55 -0.342196 -2.88578 0
M  V30 35353 H 3551.1 -1.05751 -2.34892 0
M  V30 35354 H 3551.06 0.497703 -3.10436 0
M  V30 35355 N 3554.83 0.759322 -1.38102 0
M  V30 35356 C 3555.76 1.88245 -1.30753 0
M  V30 35357 C 3556.78 1.61295 -0.220864 0
M  V30 35358 O 3557.96 1.71981 -0.477982 0
M  V30 35359 C 3555.06 3.23755 -1.00179 0
M  V30 35360 C 3554.24 3.78255 -2.19641 0
M  V30 35361 C 3553.3 4.92267 -1.85901 0
M  V30 35362 O 3552.32 5.07201 -2.58333 0
M  V30 35363 N 3553.52 5.74813 -0.810538 0
M  V30 35364 H 3556.29 1.95061 -2.27533 0
M  V30 35365 H 3553.85 0.938997 -1.31888 0
M  V30 35366 H 3555.84 3.97563 -0.756701 0
M  V30 35367 H 3554.41 3.12361 -0.122149 0
M  V30 35368 H 3553.63 2.9608 -2.60251 0
M  V30 35369 H 3554.92 4.11398 -2.99381 0
M  V30 35370 H 3554.32 5.65311 -0.209743 0
M  V30 35371 H 3552.88 6.48793 -0.62532 0
M  V30 35372 N 3556.31 1.22876 0.986873 0
M  V30 35373 C 3557.22 1.02073 2.1123 0
M  V30 35374 C 3558.23 -0.0328118 1.73969 0
M  V30 35375 O 3559.41 0.161232 2.00754 0
M  V30 35376 C 3556.48 0.60753 3.41336 0
M  V30 35377 C 3555.54 1.73538 3.92662 0
M  V30 35378 C 3554.77 1.3418 5.16557 0
M  V30 35379 O 3554.99 0.223206 5.69963 0
M  V30 35380 O 3553.93 2.16051 5.61788 0
M  V30 35381 H 3557.75 1.96378 2.31667 0
M  V30 35382 H 3555.34 1.01524 1.09605 0
M  V30 35383 H 3557.22 0.387735 4.19612 0
M  V30 35384 H 3555.89 -0.306597 3.22245 0
M  V30 35385 H 3554.8 2.00975 3.15531 0
M  V30 35386 H 3556.13 2.62759 4.16196 0
M  V30 35387 N 3557.79 -1.18464 1.03942 0
M  V30 35388 C 3559.2 -1.40428 0.758428 0
M  V30 35389 C 3559.4 -1.9064 -0.65257 0
M  V30 35390 O 3558.46 -2.08994 -1.41696 0
M  V30 35391 C 3559.77 -2.40615 1.80347 0
M  V30 35392 C 3561.32 -2.54344 1.82423 0
M  V30 35393 C 3561.79 -3.57793 2.85916 0
M  V30 35394 N 3563.29 -3.65299 2.84799 0
M  V30 35395 C 3564.02 -4.45067 3.61529 0
M  V30 35396 N 3563.52 -5.28453 4.48006 0
M  V30 35397 N 3565.31 -4.39818 3.50024 0
M  V30 35398 H 3557.46 -0.841966 1.94999 0
M  V30 35399 H 3559.72 -0.432375 0.843656 0
M  V30 35400 H 3559.43 -2.10766 2.8155 0
M  V30 35401 H 3559.3 -3.39944 1.63457 0
M  V30 35402 H 3561.69 -2.8351 0.818922 0
M  V30 35403 H 3561.77 -1.55132 2.03391 0
M  V30 35404 H 3561.42 -3.29368 3.86625 0
M  V30 35405 H 3561.35 -4.5668 2.62204 0
M  V30 35406 H 3563.84 -3.05754 2.22087 0
M  V30 35407 H 3564.15 -5.86466 5.03267 0
M  V30 35408 H 3562.49 -5.27877 4.52074 0
M  V30 35409 H 3565.69 -3.73721 2.81869 0
M  V30 35410 H 3565.86 -5.01742 4.10071 0
M  V30 35411 N 3559.26 -0.818716 -1.34665 0
M  V30 35412 C 3560.19 -0.25228 -2.32133 0
M  V30 35413 C 3561.18 0.628954 -1.58045 0
M  V30 35414 O 3562.36 0.556707 -1.86049 0
M  V30 35415 C 3559.49 0.590123 -3.4225 0
M  V30 35416 C 3558.44 -0.193622 -4.27562 0
M  V30 35417 C 3557.77 0.771256 -5.29108 0
M  V30 35418 C 3559.07 -1.39945 -5.03202 0
M  V30 35419 H 3560.76 -1.06662 -2.79756 0
M  V30 35420 H 3558.31 -0.514349 -1.34501 0
M  V30 35421 H 3560.26 0.996544 -4.09447 0
M  V30 35422 H 3558.99 1.43747 -2.93265 0
M  V30 35423 H 3557.65 -0.581361 -3.61961 0
M  V30 35424 H 3557.29 1.61444 -4.76387 0
M  V30 35425 H 3556.99 0.251098 -5.87063 0
M  V30 35426 H 3558.52 1.17562 -5.99176 0
M  V30 35427 H 3559.93 -1.06727 -5.63278 0
M  V30 35428 H 3558.33 -1.85495 -5.70711 0
M  V30 35429 H 3559.4 -2.17984 -4.33141 0
M  V30 35430 N 3560.74 1.46803 -0.573299 0
M  V30 35431 C 3561.65 2.33997 0.16804 0
M  V30 35432 C 3562.67 1.4918 0.895625 0
M  V30 35433 O 3563.84 1.82072 0.860919 0
M  V30 35434 C 3560.91 3.2619 1.17478 0
M  V30 35435 C 3559.97 4.26905 0.452881 0
M  V30 35436 C 3559.2 5.14692 1.41166 0
M  V30 35437 O 3559.43 5.05232 2.64759 0
M  V30 35438 O 3558.36 5.94713 0.927367 0
M  V30 35439 H 3562.19 2.98722 -0.547628 0
M  V30 35440 H 3559.77 1.45624 -0.333773 0
M  V30 35441 H 3561.65 3.83093 1.7555 0
M  V30 35442 H 3560.33 2.64074 1.87208 0
M  V30 35443 H 3559.24 3.73716 -0.169449 0
M  V30 35444 H 3560.57 4.9178 -0.203272 0
M  V30 35445 N 3562.22 0.31058 1.54509 0
M  V30 35446 C 3563.13 -0.570478 2.27558 0
M  V30 35447 C 3564.15 -1.14029 1.31428 0
M  V30 35448 O 3565.32 -1.16304 1.64425 0
M  V30 35449 C 3562.39 -1.72158 3.00936 0
M  V30 35450 C 3561.45 -1.18488 4.12625 0
M  V30 35451 C 3560.68 -2.28112 4.82494 0
M  V30 35452 O 3560.9 -3.48203 4.51786 0
M  V30 35453 O 3559.84 -1.94263 5.69689 0
M  V30 35454 H 3563.66 0.0223729 3.03692 0
M  V30 35455 H 3561.25 0.0767083 1.49203 0
M  V30 35456 H 3563.13 -2.39202 3.4693 0
M  V30 35457 H 3561.81 -2.30086 2.27689 0
M  V30 35458 H 3560.71 -0.479891 3.71009 0
M  V30 35459 H 3562.05 -0.650908 4.87877 0
M  V30 35460 N 3563.7 -1.57553 0.0384871 0
M  V30 35461 C 3564.66 -2.09691 -0.925321 0
M  V30 35462 C 3565.66 -1.01387 -1.24809 0
M  V30 35463 O 3566.85 -1.2751 -1.18688 0
M  V30 35464 C 3563.98 -2.57059 -2.23906 0
M  V30 35465 H 3565.18 -2.96137 -0.473581 0
M  V30 35466 H 3562.73 -1.54887 -0.209709 0
M  V30 35467 H 3563.47 -1.73969 -2.73688 0
M  V30 35468 H 3563.25 -3.36191 -2.01787 0
M  V30 35469 H 3564.74 -2.97588 -2.92969 0
M  V30 35470 N 3565.18 0.234767 -1.55842 0
M  V30 35471 C 3566.11 1.29429 -1.94346 0
M  V30 35472 C 3567.09 1.49579 -0.809938 0
M  V30 35473 O 3568.27 1.61985 -1.0712 0
M  V30 35474 C 3565.4 2.64671 -2.24871 0
M  V30 35475 C 3564.36 2.59197 -3.40589 0
M  V30 35476 C 3563.68 3.98346 -3.56685 0
M  V30 35477 C 3564.98 2.15127 -4.75939 0
M  V30 35478 H 3566.68 0.97449 -2.83097 0
M  V30 35479 H 3564.22 0.467331 -1.36206 0
M  V30 35480 H 3566.18 3.38938 -2.50398 0
M  V30 35481 H 3564.9 2.98311 -1.32959 0
M  V30 35482 H 3563.56 1.87387 -3.1509 0
M  V30 35483 H 3563.21 4.29273 -2.62172 0
M  V30 35484 H 3562.91 3.95569 -4.3451 0
M  V30 35485 H 3564.43 4.74296 -3.84546 0
M  V30 35486 H 3565.85 2.79131 -5.00758 0
M  V30 35487 H 3564.24 2.23436 -5.56953 0
M  V30 35488 H 3565.31 1.1032 -4.72184 0
M  V30 35489 N 3566.66 1.49427 0.500936 0
M  V30 35490 C 3567.59 1.6222 1.61917 0
M  V30 35491 C 3568.6 0.504895 1.54773 0
M  V30 35492 O 3569.79 0.776947 1.60704 0
M  V30 35493 C 3566.89 1.56296 3.00707 0
M  V30 35494 C 3566.06 2.83561 3.33035 0
M  V30 35495 C 3565.12 2.70688 4.51236 0
M  V30 35496 O 3564.15 3.44623 4.53016 0
M  V30 35497 N 3565.35 1.82238 5.51153 0
M  V30 35498 H 3568.11 2.58664 1.5137 0
M  V30 35499 H 3565.68 1.46516 0.688811 0
M  V30 35500 H 3567.67 1.45339 3.77702 0
M  V30 35501 H 3566.24 0.677097 3.05179 0
M  V30 35502 H 3565.46 3.08869 2.44936 0
M  V30 35503 H 3566.75 3.67932 3.51431 0
M  V30 35504 H 3566.14 1.21427 5.52514 0
M  V30 35505 H 3564.7 1.77203 6.2725 0
M  V30 35506 N 3568.13 -0.751987 1.38502 0
M  V30 35507 C 3569.55 -1.05526 1.19734 0
M  V30 35508 C 3569.75 -2.01445 0.0471235 0
M  V30 35509 O 3568.81 -2.45105 -0.606602 0
M  V30 35510 C 3570.12 -1.63382 2.52442 0
M  V30 35511 C 3571.67 -1.75545 2.59139 0
M  V30 35512 C 3572.14 -2.36812 3.92026 0
M  V30 35513 N 3573.63 -2.44241 3.93574 0
M  V30 35514 C 3574.37 -2.92544 4.93159 0
M  V30 35515 N 3573.86 -3.40871 6.03141 0
M  V30 35516 N 3575.66 -2.91599 4.80548 0
M  V30 35517 H 3567.81 -0.115505 2.12086 0
M  V30 35518 H 3570.07 -0.113871 0.941136 0
M  V30 35519 H 3569.78 -1.0037 3.37074 0
M  V30 35520 H 3569.65 -2.62422 2.70951 0
M  V30 35521 H 3572.04 -2.37684 1.74901 0
M  V30 35522 H 3572.12 -0.752049 2.44495 0
M  V30 35523 H 3571.76 -1.75306 4.76687 0
M  V30 35524 H 3571.69 -3.37796 4.03982 0
M  V30 35525 H 3574.18 -2.10063 3.14137 0
M  V30 35526 H 3574.5 -3.76189 6.75057 0
M  V30 35527 H 3572.84 -3.38924 6.06758 0
M  V30 35528 H 3576.03 -2.53156 3.93738 0
M  V30 35529 H 3576.21 -3.28931 5.58309 0
M  V30 35530 N 3569.61 -1.23398 -0.980343 0
M  V30 35531 C 3570.56 -1.0152 -2.07274 0
M  V30 35532 C 3571.53 0.0673437 -1.65963 0
M  V30 35533 O 3572.71 -0.0847727 -1.90612 0
M  V30 35534 C 3569.85 -0.61255 -3.3962 0
M  V30 35535 C 3568.97 -1.76722 -3.942 0
M  V30 35536 C 3568.1 -1.31135 -5.14759 0
M  V30 35537 C 3567.14 -2.43677 -5.61505 0
M  V30 35538 N 3566.28 -1.99047 -6.73294 0
M  V30 35539 H 3571.12 -1.95024 -2.25321 0
M  V30 35540 H 3568.65 -0.971552 -1.1045 0
M  V30 35541 H 3570.61 -0.360199 -4.15642 0
M  V30 35542 H 3569.24 0.285483 -3.21535 0
M  V30 35543 H 3568.29 -2.13358 -3.14933 0
M  V30 35544 H 3569.61 -2.6133 -4.24862 0
M  V30 35545 H 3568.76 -1.01713 -5.98113 0
M  V30 35546 H 3567.5 -0.435641 -4.8575 0
M  V30 35547 H 3566.5 -2.73874 -4.76732 0
M  V30 35548 H 3567.73 -3.31785 -5.92533 0
M  V30 35549 H 3565.68 -1.13856 -6.46044 0
M  V30 35550 H 3565.59 -2.77215 -7.03341 0
M  V30 35551 H 3566.86 -1.72729 -7.60122 0
M  V30 35552 N 3571.09 1.17911 -1.04569 0
M  V30 35553 C 3572.02 2.21229 -0.599192 0
M  V30 35554 C 3573.03 1.59341 0.333796 0
M  V30 35555 O 3574.22 1.78044 0.127517 0
M  V30 35556 C 3571.32 3.38594 0.143985 0
M  V30 35557 C 3570.5 4.30056 -0.798137 0
M  V30 35558 C 3569.56 5.2611 -0.0973473 0
M  V30 35559 O 3568.58 5.64507 -0.729417 0
M  V30 35560 N 3569.78 5.68639 1.16749 0
M  V30 35561 H 3572.55 2.6016 -1.48785 0
M  V30 35562 H 3570.11 1.32747 -0.92681 0
M  V30 35563 H 3572.1 3.9988 0.622772 0
M  V30 35564 H 3570.67 2.98313 0.934239 0
M  V30 35565 H 3569.89 3.66298 -1.45668 0
M  V30 35566 H 3571.18 4.88061 -1.43786 0
M  V30 35567 H 3570.58 5.39506 1.70145 0
M  V30 35568 H 3569.13 6.32098 1.59046 0
M  V30 35569 N 3572.57 0.825847 1.34229 0
M  V30 35570 C 3573.48 0.251844 2.33244 0
M  V30 35571 C 3574.49 -0.615306 1.62757 0
M  V30 35572 O 3575.67 -0.522513 1.94504 0
M  V30 35573 C 3572.73 -0.574396 3.41909 0
M  V30 35574 C 3571.8 0.315497 4.28139 0
M  V30 35575 C 3571.03 -0.471403 5.31614 0
M  V30 35576 O 3571.25 -1.7044 5.4434 0
M  V30 35577 O 3570.19 0.147796 6.01719 0
M  V30 35578 H 3574.01 1.07144 2.84172 0
M  V30 35579 H 3571.6 0.588056 1.3734 0
M  V30 35580 H 3573.48 -1.04437 4.08254 0
M  V30 35581 H 3572.15 -1.37127 2.9322 0
M  V30 35582 H 3571.06 0.833027 3.64707 0
M  V30 35583 H 3572.39 1.0768 4.80277 0
M  V30 35584 N 3574.05 -1.46497 0.581077 0
M  V30 35585 C 3574.98 -2.33074 -0.140916 0
M  V30 35586 C 3575.96 -1.45246 -0.885298 0
M  V30 35587 O 3577.14 -1.74066 -0.861079 0
M  V30 35588 C 3574.27 -3.2749 -1.15619 0
M  V30 35589 C 3573.23 -4.24746 -0.526754 0
M  V30 35590 C 3572.55 -5.08657 -1.64838 0
M  V30 35591 C 3573.85 -5.19553 0.535012 0
M  V30 35592 H 3575.55 -2.9369 0.58194 0
M  V30 35593 H 3573.09 -1.41226 0.281303 0
M  V30 35594 H 3575.04 -3.86912 -1.66963 0
M  V30 35595 H 3573.77 -2.64978 -1.9093 0
M  V30 35596 H 3572.43 -3.66584 -0.0344094 0
M  V30 35597 H 3572.08 -4.42532 -2.39112 0
M  V30 35598 H 3571.78 -5.74521 -1.23288 0
M  V30 35599 H 3573.3 -5.70944 -2.16462 0
M  V30 35600 H 3574.71 -5.73201 0.106707 0
M  V30 35601 H 3573.11 -5.93749 0.870743 0
M  V30 35602 H 3574.18 -4.63583 1.42192 0
M  V30 35603 N 3575.52 -0.31877 -1.54343 0
M  V30 35604 C 3576.75 0.29009 -2.05361 0
M  V30 35605 C 3577.17 1.45374 -1.19365 0
M  V30 35606 O 3576.53 1.80175 -0.20167 0
M  V30 35607 C 3576.58 0.706963 -3.53602 0
M  V30 35608 O 3575.68 1.80986 -3.70564 0
M  V30 35609 H 3575.02 0.0532817 -0.661859 0
M  V30 35610 H 3577.55 -0.465785 -1.99228 0
M  V30 35611 H 3577.56 0.990936 -3.95783 0
M  V30 35612 H 3576.24 -0.144164 -4.1565 0
M  V30 35613 H 3574.82 1.52507 -3.40288 0
M  V30 35614 N 3577 1.5753 -0.0468419 0
M  V30 35615 C 3578.42 1.56567 0.30968 0
M  V30 35616 C 3578.62 1.05411 1.71729 0
M  V30 35617 O 3577.67 0.708766 2.42348 0
M  V30 35618 C 3578.99 3.00364 0.142099 0
M  V30 35619 C 3580.53 3.12271 0.21353 0
M  V30 35620 C 3581.01 4.57939 0.0745297 0
M  V30 35621 N 3582.5 4.63015 0.130946 0
M  V30 35622 C 3583.24 5.7338 0.0474401 0
M  V30 35623 N 3582.73 6.92744 -0.0881663 0
M  V30 35624 N 3584.52 5.62006 0.10271 0
M  V30 35625 H 3576.68 1.89106 -0.96709 0
M  V30 35626 H 3578.94 0.870663 -0.375033 0
M  V30 35627 H 3578.64 3.41809 -0.828231 0
M  V30 35628 H 3578.52 3.66184 0.904942 0
M  V30 35629 H 3580.91 2.70728 1.17433 0
M  V30 35630 H 3580.99 2.49138 -0.579994 0
M  V30 35631 H 3580.63 5.00167 -0.882927 0
M  V30 35632 H 3580.56 5.19074 0.887144 0
M  V30 35633 H 3583.05 3.77167 0.23518 0
M  V30 35634 H 3583.36 7.72665 -0.144709 0
M  V30 35635 H 3581.71 6.94891 -0.123192 0
M  V30 35636 H 3584.9 4.67641 0.207177 0
M  V30 35637 H 3585.07 6.47991 0.0341726 0
M  V30 35638 N 3578.48 -0.226499 1.55964 0
M  V30 35639 C 3579.76 -0.975659 1.6953 0
M  V30 35640 C 3580.14 -2.0261 0.592671 0
M  V30 35641 O 3579.49 -2.24953 -0.401034 0
M  V30 35642 C 3579.7 -1.59058 3.10647 0
M  V30 35643 C 3581.04 -2.08471 3.69899 0
M  V30 35644 O 3582.07 -1.68961 3.13577 0
M  V30 35645 O 3580.93 -2.81077 4.68677 0
M  V30 35646 H 3578.02 -0.455439 0.690293 0
M  V30 35647 H 3580.57 -0.218672 1.68285 0
M  V30 35648 H 3579.34 -0.831836 3.82356 0
M  V30 35649 H 3578.96 -2.41323 3.15989 0
M  V30 35650 N 3579.96 -1.4969 -0.493005 0
M  V30 35651 C 3580.91 -1.67445 -1.61446 0
M  V30 35652 C 3581.9 -0.540324 -1.60552 0
M  V30 35653 O 3583.11 -0.720196 -1.64964 0
M  V30 35654 H 3579.48 -0.528136 -0.535328 0
M  V30 35655 H 3581.45 -2.61561 -1.43626 0
M  V30 35656 C 3580.2 -1.76564 -2.99534 0
M  V30 35657 H 3579.52 -2.63212 -3.00931 0
M  V30 35658 H 3580.96 -1.93019 -3.77518 0
M  V30 35659 C 3579.42 -0.512234 -3.32983 0
M  V30 35660 O 3579.95 0.3585 -4.00097 0
M  V30 35661 N 3578.16 -0.372784 -2.88199 0
M  V30 35662 H 3577.71 -1.08236 -2.33758 0
M  V30 35663 H 3577.66 0.464749 -3.10946 0
M  V30 35664 N 3581.44 0.744631 -1.38899 0
M  V30 35665 C 3582.4 1.84019 -1.36637 0
M  V30 35666 C 3583.4 1.58598 -0.265215 0
M  V30 35667 O 3584.59 1.66176 -0.522598 0
M  V30 35668 C 3581.72 3.21647 -1.12944 0
M  V30 35669 H 3582.91 1.87431 -2.34114 0
M  V30 35670 H 3580.47 0.94728 -1.24323 0
M  V30 35671 H 3581.2 3.239 -0.161084 0
M  V30 35672 H 3580.99 3.41494 -1.92676 0
M  V30 35673 H 3582.48 4.01716 -1.14078 0
M  V30 35674 N 3582.91 1.23916 0.973785 0
M  V30 35675 C 3584.14 1.10209 1.75105 0
M  V30 35676 C 3584.56 -0.345903 1.85604 0
M  V30 35677 O 3583.91 -1.23898 1.33999 0
M  V30 35678 C 3583.97 1.72915 3.17463 0
M  V30 35679 O 3583.69 3.12052 3.07498 0
M  V30 35680 C 3585.19 1.64737 4.11554 0
M  V30 35681 H 3582.41 0.385355 0.549311 0
M  V30 35682 H 3584.95 1.639 1.22298 0
M  V30 35683 H 3583.11 1.23241 3.67274 0
M  V30 35684 H 3583.52 3.42582 3.97163 0
M  V30 35685 H 3584.99 2.13304 5.09122 0
M  V30 35686 H 3585.47 0.607428 4.34979 0
M  V30 35687 H 3586.08 2.13809 3.67649 0
M  V30 35688 N 3584.39 -1.17355 1.05193 0
M  V30 35689 C 3585.32 -2.23562 0.673971 0
M  V30 35690 C 3586.3 -1.66903 -0.328254 0
M  V30 35691 O 3587.49 -1.93106 -0.205844 0
M  V30 35692 C 3584.62 -3.47267 0.0479411 0
M  V30 35693 C 3583.57 -4.16748 0.974929 0
M  V30 35694 C 3582.9 -5.34276 0.212778 0
M  V30 35695 C 3584.2 -4.68977 2.29908 0
M  V30 35696 H 3585.89 -2.55433 1.56187 0
M  V30 35697 H 3583.44 -1.22778 0.752429 0
M  V30 35698 H 3585.39 -4.20781 -0.228269 0
M  V30 35699 H 3584.12 -3.14663 -0.874908 0
M  V30 35700 H 3582.77 -3.45146 1.2357 0
M  V30 35701 H 3582.42 -4.97923 -0.712836 0
M  V30 35702 H 3582.12 -5.81702 0.830453 0
M  V30 35703 H 3583.65 -6.10574 -0.0561476 0
M  V30 35704 H 3585.06 -5.34128 2.08278 0
M  V30 35705 H 3583.46 -5.26981 2.87073 0
M  V30 35706 H 3584.53 -3.85785 2.93765 0
M  V30 35707 N 3585.87 -0.832954 -1.3379 0
M  V30 35708 C 3586.8 -0.219376 -2.28148 0
M  V30 35709 C 3587.82 0.596503 -1.51478 0
M  V30 35710 O 3589 0.424541 -1.73378 0
M  V30 35711 C 3586.1 0.710246 -3.31374 0
M  V30 35712 C 3585.28 -0.0649984 -4.37352 0
M  V30 35713 C 3584.34 0.787068 -5.2028 0
M  V30 35714 O 3583.36 0.228411 -5.68742 0
M  V30 35715 N 3584.56 2.10534 -5.40977 0
M  V30 35716 H 3587.33 -1.03009 -2.81441 0
M  V30 35717 H 3584.89 -0.690857 -1.4642 0
M  V30 35718 H 3586.88 1.2851 -3.83754 0
M  V30 35719 H 3585.45 1.42168 -2.78401 0
M  V30 35720 H 3584.67 -0.821212 -3.85551 0
M  V30 35721 H 3585.96 -0.598288 -5.0527 0
M  V30 35722 H 3585.36 2.58283 -5.03295 0
M  V30 35723 H 3583.92 2.62882 -5.96436 0
M  V30 35724 N 3587.35 1.46186 -0.588837 0
M  V30 35725 C 3588.31 2.28827 0.130763 0
M  V30 35726 C 3589.31 1.38733 0.813013 0
M  V30 35727 O 3590.5 1.61047 0.664033 0
M  V30 35728 C 3587.63 3.19277 1.19478 0
M  V30 35729 H 3588.83 2.93927 -0.595565 0
M  V30 35730 H 3586.38 1.52398 -0.347065 0
M  V30 35731 H 3587.11 2.58937 1.95249 0
M  V30 35732 H 3586.9 3.85618 0.710009 0
M  V30 35733 H 3588.39 3.81462 1.69931 0
M  V30 35734 N 3588.83 0.32695 1.54171 0
M  V30 35735 C 3590.05 -0.276472 2.05044 0
M  V30 35736 C 3590.47 -1.45519 1.2029 0
M  V30 35737 O 3589.83 -1.80989 0.234356 0
M  V30 35738 C 3589.88 -0.707652 3.54506 0
M  V30 35739 O 3589.6 0.424175 4.36042 0
M  V30 35740 C 3591.1 -1.37353 4.21484 0
M  V30 35741 H 3588.32 -0.0563155 0.668633 0
M  V30 35742 H 3590.86 0.474122 1.98928 0
M  V30 35743 H 3589.02 -1.40822 3.60899 0
M  V30 35744 H 3589.43 0.0837767 5.24433 0
M  V30 35745 H 3590.91 -1.62614 5.27504 0
M  V30 35746 H 3591.38 -2.3219 3.72806 0
M  V30 35747 H 3591.99 -0.715452 4.19239 0
M  V30 35748 N 3590.3 -1.57503 0.0551955 0
M  V30 35749 C 3591.23 -2.14797 -0.915676 0
M  V30 35750 C 3592.22 -1.07067 -1.32177 0
M  V30 35751 O 3593.4 -1.35026 -1.39577 0
M  V30 35752 C 3590.53 -2.6962 -2.18911 0
M  V30 35753 C 3589.48 -3.82369 -1.92296 0
M  V30 35754 C 3588.81 -4.23726 -3.26129 0
M  V30 35755 C 3590.11 -5.07334 -1.24137 0
M  V30 35756 H 3591.8 -2.96172 -0.438447 0
M  V30 35757 H 3589.35 -1.42469 -0.209452 0
M  V30 35758 H 3591.3 -3.08342 -2.87233 0
M  V30 35759 H 3590.03 -1.85442 -2.68847 0
M  V30 35760 H 3588.69 -3.44126 -1.26385 0
M  V30 35761 H 3588.33 -3.36493 -3.73873 0
M  V30 35762 H 3588.03 -4.9972 -3.09117 0
M  V30 35763 H 3589.56 -4.65052 -3.95676 0
M  V30 35764 H 3590.97 -5.43476 -1.825 0
M  V30 35765 H 3589.37 -5.88496 -1.17439 0
M  V30 35766 H 3590.44 -4.8441 -0.217988 0
M  V30 35767 N 3591.78 0.218225 -1.56082 0
M  V30 35768 C 3592.73 1.27402 -1.89084 0
M  V30 35769 C 3593.72 1.42127 -0.754229 0
M  V30 35770 O 3594.91 1.44887 -1.0167 0
M  V30 35771 C 3592.04 2.62375 -2.21392 0
M  V30 35772 C 3591.12 2.51537 -3.41453 0
M  V30 35773 N 3591.51 2.10354 -4.59984 0
M  V30 35774 C 3589.81 2.82488 -3.45133 0
M  V30 35775 C 3590.51 2.10847 -5.42142 0
M  V30 35776 N 3589.49 2.51464 -4.81941 0
M  V30 35777 H 3593.29 0.94656 -2.7824 0
M  V30 35778 H 3590.81 0.426773 -1.56692 0
M  V30 35779 H 3592.8 3.38606 -2.43211 0
M  V30 35780 H 3591.46 2.95964 -1.3355 0
M  V30 35781 H 3592.47 1.81431 -4.8508 0
M  V30 35782 H 3589.15 3.20426 -2.67644 0
M  V30 35783 H 3590.54 1.81103 -6.47033 0
M  V30 35784 N 3593.26 1.4995 0.485059 0
M  V30 35785 C 3594.22 1.67256 1.5671 0
M  V30 35786 C 3595.22 0.543727 1.51328 0
M  V30 35787 O 3596.41 0.810499 1.54196 0
M  V30 35788 C 3593.55 1.6848 2.96357 0
M  V30 35789 H 3594.74 2.6378 1.42688 0
M  V30 35790 H 3592.29 1.3922 0.710449 0
M  V30 35791 H 3593.03 0.735979 3.15838 0
M  V30 35792 H 3592.81 2.50474 3.01671 0
M  V30 35793 H 3594.3 1.83871 3.74941 0
M  V30 35794 N 3594.74 -0.737255 1.39292 0
M  V30 35795 C 3595.7 -1.83292 1.37611 0
M  V30 35796 C 3596.7 -1.58455 0.273622 0
M  V30 35797 O 3597.89 -1.65897 0.531404 0
M  V30 35798 C 3595.02 -3.21043 1.14648 0
M  V30 35799 H 3596.22 -1.86187 2.35105 0
M  V30 35800 H 3593.77 -0.940674 1.24824 0
M  V30 35801 H 3594.51 -3.2381 0.178259 0
M  V30 35802 H 3594.29 -3.40468 1.94485 0
M  V30 35803 H 3595.78 -4.01106 1.16207 0
M  V30 35804 N 3596.22 -1.24431 -0.967199 0
M  V30 35805 C 3597.63 -1.00981 -1.23592 0
M  V30 35806 C 3597.83 0.281077 -1.9953 0
M  V30 35807 O 3596.89 0.997099 -2.31979 0
M  V30 35808 C 3598.2 -2.22514 -2.02257 0
M  V30 35809 C 3599.75 -2.27144 -2.15348 0
M  V30 35810 C 3600.23 -3.483 -2.97408 0
M  V30 35811 N 3601.72 -3.48619 -3.0499 0
M  V30 35812 C 3602.45 -4.39024 -3.68844 0
M  V30 35813 N 3601.95 -5.39683 -4.34412 0
M  V30 35814 N 3603.74 -4.26735 -3.6586 0
M  V30 35815 H 3595.89 -2.07385 -0.458844 0
M  V30 35816 H 3598.15 -0.910093 -0.265395 0
M  V30 35817 H 3597.86 -3.16266 -1.53846 0
M  V30 35818 H 3597.73 -2.24672 -3.02989 0
M  V30 35819 H 3600.12 -1.33923 -2.62961 0
M  V30 35820 H 3600.2 -2.29012 -1.13962 0
M  V30 35821 H 3599.85 -4.41835 -2.50488 0
M  V30 35822 H 3599.78 -3.43675 -3.98992 0
M  V30 35823 H 3602.27 -2.75797 -2.58349 0
M  V30 35824 H 3602.58 -6.04899 -4.80954 0
M  V30 35825 H 3600.93 -5.43569 -4.33079 0
M  V30 35826 H 3604.12 -3.47331 -3.13813 0
M  V30 35827 H 3604.29 -4.9739 -4.1534 0
M  V30 35828 N 3597.7 1.16795 -1.05814 0
M  V30 35829 C 3598.97 1.83191 -0.685583 0
M  V30 35830 C 3599.35 1.93948 0.833505 0
M  V30 35831 O 3598.7 1.47885 1.7419 0
M  V30 35832 C 3598.91 3.20476 -1.38188 0
M  V30 35833 C 3600.26 3.96309 -1.52396 0
M  V30 35834 O 3601.28 3.29977 -1.3414 0
M  V30 35835 O 3600.14 5.15196 -1.82306 0
M  V30 35836 H 3597.24 0.790767 -0.242109 0
M  V30 35837 H 3599.78 1.24039 -1.15812 0
M  V30 35838 H 3598.55 3.07653 -2.41796 0
M  V30 35839 H 3598.18 3.87301 -0.899111 0
M  V30 35840 N 3599.17 0.840037 1.33346 0
M  V30 35841 C 3600.4 0.449829 2.01951 0
M  V30 35842 C 3600.82 -0.949288 1.63199 0
M  V30 35843 O 3600.17 -1.61711 0.845919 0
M  V30 35844 C 3600.22 0.562241 3.57101 0
M  V30 35845 O 3599.95 1.90623 3.94455 0
M  V30 35846 C 3601.45 0.16914 4.42977 0
M  V30 35847 H 3598.67 0.178436 0.64684 0
M  V30 35848 H 3601.21 1.13293 1.70249 0
M  V30 35849 H 3599.37 -0.0729664 3.87331 0
M  V30 35850 H 3599.78 1.89258 4.89164 0
M  V30 35851 H 3601.25 0.298839 5.5119 0
M  V30 35852 H 3601.73 -0.889061 4.30107 0
M  V30 35853 H 3602.34 0.778829 4.18108 0
M  V30 35854 N 3600.65 -1.45872 0.596582 0
M  V30 35855 C 3601.58 -2.33211 -0.116188 0
M  V30 35856 C 3602.56 -1.46177 -0.869842 0
M  V30 35857 O 3603.75 -1.7497 -0.842569 0
M  V30 35858 C 3600.88 -3.28698 -1.12139 0
M  V30 35859 C 3599.83 -4.25281 -0.481674 0
M  V30 35860 C 3599.16 -5.10377 -1.59434 0
M  V30 35861 C 3600.46 -5.18956 0.590087 0
M  V30 35862 H 3602.15 -2.93056 0.613057 0
M  V30 35863 H 3599.7 -1.40919 0.296266 0
M  V30 35864 H 3601.65 -3.88662 -1.6285 0
M  V30 35865 H 3600.37 -2.66988 -1.88109 0
M  V30 35866 H 3599.03 -3.666 0.00447364 0
M  V30 35867 H 3598.68 -4.45043 -2.34405 0
M  V30 35868 H 3598.38 -5.75796 -1.17187 0
M  V30 35869 H 3599.91 -5.73207 -2.10394 0
M  V30 35870 H 3601.32 -5.73055 0.167496 0
M  V30 35871 H 3599.72 -5.92792 0.93367 0
M  V30 35872 H 3600.79 -4.62049 1.47101 0
M  V30 35873 N 3602.13 -0.335122 -1.53996 0
M  V30 35874 C 3603.09 0.512976 -2.23386 0
M  V30 35875 C 3604.09 1.03433 -1.23119 0
M  V30 35876 O 3605.28 0.924918 -1.47617 0
M  V30 35877 C 3602.41 1.71372 -2.94694 0
M  V30 35878 H 3603.61 -0.0937833 -2.99753 0
M  V30 35879 H 3601.16 -0.0863534 -1.56061 0
M  V30 35880 H 3601.9 2.3594 -2.22492 0
M  V30 35881 H 3601.68 1.34717 -3.68231 0
M  V30 35882 H 3603.17 2.31546 -3.47529 0
M  V30 35883 N 3603.61 1.57472 -0.0635475 0
M  V30 35884 C 3604.83 1.97911 0.620171 0
M  V30 35885 C 3605.26 0.941364 1.62849 0
M  V30 35886 O 3604.62 -0.0939994 1.81056 0
M  V30 35887 C 3604.66 3.374 1.27255 0
M  V30 35888 O 3603.77 3.36202 2.38835 0
M  V30 35889 H 3603.11 0.644385 0.160199 0
M  V30 35890 H 3605.64 2.0415 -0.135618 0
M  V30 35891 H 3605.65 3.74402 1.62134 0
M  V30 35892 H 3604.32 4.12462 0.533651 0
M  V30 35893 H 3602.9 3.1096 2.05812 0
M  V30 35894 N 3605.09 -0.209945 1.56195 0
M  V30 35895 C 3606.33 -0.933988 1.80013 0
M  V30 35896 C 3606.66 -1.8352 0.635141 0
M  V30 35897 O 3605.94 -1.91043 -0.365066 0
M  V30 35898 C 3606.22 -1.76299 3.13992 0
M  V30 35899 C 3606.08 -0.887489 4.40958 0
M  V30 35900 C 3607.39 -2.73851 3.44519 0
M  V30 35901 H 3604.51 -0.338114 0.654865 0
M  V30 35902 H 3607.16 -0.202177 1.88921 0
M  V30 35903 H 3605.31 -2.3869 3.06528 0
M  V30 35904 H 3606.98 -0.279426 4.60453 0
M  V30 35905 H 3605.22 -0.193457 4.33368 0
M  V30 35906 H 3605.89 -1.50218 5.31167 0
M  V30 35907 H 3608.37 -2.21594 3.52186 0
M  V30 35908 H 3607.24 -3.28949 4.39413 0
M  V30 35909 H 3607.5 -3.52166 2.67266 0
M  V30 35910 N 3606.56 -1.50205 -0.4771 0
M  V30 35911 C 3607.81 -1.60893 -1.22962 0
M  V30 35912 C 3608.14 -0.306498 -1.9207 0
M  V30 35913 O 3607.39 0.70724 -1.82474 0
M  V30 35914 C 3607.69 -2.73457 -2.30122 0
M  V30 35915 C 3607.36 -4.14147 -1.78307 0
M  V30 35916 C 3606.02 -4.52428 -1.63896 0
M  V30 35917 C 3608.37 -5.02101 -1.39801 0
M  V30 35918 C 3605.7 -5.76411 -1.09394 0
M  V30 35919 C 3608.05 -6.26625 -0.867428 0
M  V30 35920 C 3606.72 -6.63714 -0.709905 0
M  V30 35921 H 3605.99 -0.588751 -0.449948 0
M  V30 35922 H 3608.63 -1.84118 -0.52656 0
M  V30 35923 H 3606.94 -2.44297 -3.06311 0
M  V30 35924 H 3608.64 -2.78932 -2.88094 0
M  V30 35925 H 3605.23 -3.83943 -1.90489 0
M  V30 35926 H 3609.41 -4.73162 -1.49771 0
M  V30 35927 H 3604.67 -6.03827 -0.959307 0
M  V30 35928 H 3608.84 -6.94142 -0.560374 0
M  V30 35929 H 3606.47 -7.59664 -0.285421 0
M  V30 35930 N 3608.04 0.729857 -1.39681 0
M  V30 35931 C 3609.46 1.03608 -1.21398 0
M  V30 35932 C 3609.66 2.01344 -0.0791656 0
M  V30 35933 O 3608.71 2.46039 0.567531 0
M  V30 35934 C 3610.03 1.59345 -2.55009 0
M  V30 35935 C 3611.58 1.714 -2.61899 0
M  V30 35936 C 3612.05 2.30545 -3.95744 0
M  V30 35937 N 3613.54 2.37948 -3.9741 0
M  V30 35938 C 3614.28 2.84661 -4.9775 0
M  V30 35939 N 3613.77 3.31232 -6.08487 0
M  V30 35940 N 3615.57 2.83917 -4.85126 0
M  V30 35941 H 3607.72 0.0817497 -2.12243 0
M  V30 35942 H 3609.98 0.098884 -0.942829 0
M  V30 35943 H 3609.69 0.949946 -3.38628 0
M  V30 35944 H 3609.56 2.58078 -2.75092 0
M  V30 35945 H 3611.95 2.34871 -1.78661 0
M  V30 35946 H 3612.03 0.713057 -2.45661 0
M  V30 35947 H 3611.67 1.677 -4.79415 0
M  V30 35948 H 3611.6 3.31326 -4.09305 0
M  V30 35949 H 3614.09 2.05039 -3.17439 0
M  V30 35950 H 3614.41 3.65402 -6.80956 0
M  V30 35951 H 3612.75 3.29228 -6.12073 0
M  V30 35952 H 3615.94 2.4686 -3.97715 0
M  V30 35953 H 3616.11 3.20007 -5.63471 0
M  V30 35954 N 3609.52 1.24942 0.960587 0
M  V30 35955 C 3610.45 1.07277 2.07398 0
M  V30 35956 C 3611.43 -0.0164066 1.70092 0
M  V30 35957 O 3612.62 0.152009 1.93604 0
M  V30 35958 C 3609.75 0.684377 3.4049 0
M  V30 35959 C 3608.7 1.72312 3.91781 0
M  V30 35960 C 3608.03 1.18959 5.21299 0
M  V30 35961 C 3609.33 3.12064 4.18824 0
M  V30 35962 H 3611.02 2.00408 2.22434 0
M  V30 35963 H 3608.57 0.964956 1.06886 0
M  V30 35964 H 3610.52 0.54776 4.17825 0
M  V30 35965 H 3609.24 -0.28263 3.25375 0
M  V30 35966 H 3607.9 1.84808 3.1661 0
M  V30 35967 H 3607.55 0.21298 5.02549 0
M  V30 35968 H 3607.25 1.8838 5.56585 0
M  V30 35969 H 3608.77 1.06524 6.01236 0
M  V30 35970 H 3610.19 3.02756 4.86838 0
M  V30 35971 H 3608.59 3.78902 4.65353 0
M  V30 35972 H 3609.66 3.5957 3.25327 0
M  V30 35973 N 3611 -1.16233 1.06432 0
M  V30 35974 C 3611.93 -2.22834 0.697644 0
M  V30 35975 C 3612.91 -1.67241 -0.310534 0
M  V30 35976 O 3614.09 -1.93313 -0.185351 0
M  V30 35977 C 3611.22 -3.47197 0.0847707 0
M  V30 35978 C 3610.18 -4.15691 1.01908 0
M  V30 35979 C 3609.5 -5.34021 0.269433 0
M  V30 35980 C 3610.8 -4.66512 2.3487 0
M  V30 35981 H 3612.5 -2.53762 1.58888 0
M  V30 35982 H 3610.04 -1.21973 0.765409 0
M  V30 35983 H 3612 -4.21 -0.183626 0
M  V30 35984 H 3610.72 -3.15573 -0.841484 0
M  V30 35985 H 3609.38 -3.43816 1.27224 0
M  V30 35986 H 3609.03 -4.98651 -0.659985 0
M  V30 35987 H 3608.73 -5.80788 0.892103 0
M  V30 35988 H 3610.25 -6.10599 0.00861508 0
M  V30 35989 H 3611.67 -5.31889 2.13932 0
M  V30 35990 H 3610.06 -5.23906 2.92647 0
M  V30 35991 H 3611.13 -3.82647 2.97841 0
M  V30 35992 N 3612.48 -0.847097 -1.32899 0
M  V30 35993 C 3613.43 -0.258151 -2.26534 0
M  V30 35994 C 3614.41 0.591627 -1.49628 0
M  V30 35995 O 3615.6 0.442247 -1.71386 0
M  V30 35996 C 3612.73 0.558909 -3.3872 0
M  V30 35997 C 3611.82 -0.302835 -4.23017 0
M  V30 35998 N 3612.21 -1.38549 -4.86454 0
M  V30 35999 C 3610.51 -0.0912776 -4.45907 0
M  V30 36000 C 3611.21 -1.91502 -5.49274 0
M  V30 36001 N 3610.18 -1.21528 -5.29841 0
M  V30 36002 H 3613.99 -1.08595 -2.73101 0
M  V30 36003 H 3611.5 -0.692412 -1.46899 0
M  V30 36004 H 3613.5 0.997188 -4.04798 0
M  V30 36005 H 3612.16 1.38459 -2.93699 0
M  V30 36006 H 3613.17 -1.76841 -4.86773 0
M  V30 36007 H 3609.84 0.700298 -4.11585 0
M  V30 36008 H 3611.23 -2.82211 -6.09759 0
M  V30 36009 N 3613.95 1.45554 -0.604309 0
M  V30 36010 C 3615.18 2.07146 -0.10267 0
M  V30 36011 C 3615.6 1.44654 1.20236 0
M  V30 36012 O 3614.96 0.538064 1.73132 0
M  V30 36013 C 3615.01 3.6059 0.0269597 0
M  V30 36014 O 3614.11 3.98061 1.07803 0
M  V30 36015 H 3613.46 0.660022 -0.0725783 0
M  V30 36016 H 3615.99 1.86858 -0.833388 0
M  V30 36017 H 3616 4.07372 0.226228 0
M  V30 36018 H 3614.67 4.05461 -0.925968 0
M  V30 36019 H 3613.25 3.62954 0.855488 0
M  V30 36020 N 3615.43 0.343284 1.53816 0
M  V30 36021 C 3616.36 -0.505965 2.27952 0
M  V30 36022 C 3617.34 -1.10285 1.29504 0
M  V30 36023 O 3618.53 -1.12429 1.58346 0
M  V30 36024 C 3615.66 -1.65718 3.05213 0
M  V30 36025 C 3614.61 -1.18864 4.11163 0
M  V30 36026 C 3613.94 -2.42835 4.76377 0
M  V30 36027 C 3615.24 -0.289311 5.21498 0
M  V30 36028 H 3616.93 0.112488 2.99189 0
M  V30 36029 H 3614.48 0.0555413 1.43893 0
M  V30 36030 H 3616.43 -2.25774 3.55815 0
M  V30 36031 H 3615.16 -2.30252 2.31628 0
M  V30 36032 H 3613.81 -0.610899 3.61474 0
M  V30 36033 H 3613.46 -3.05776 3.99387 0
M  V30 36034 H 3613.16 -2.12168 5.47959 0
M  V30 36035 H 3614.69 -3.03618 5.29763 0
M  V30 36036 H 3616.1 -0.796708 5.67737 0
M  V30 36037 H 3614.5 -0.0745311 6.00054 0
M  V30 36038 H 3615.57 0.674627 4.80184 0
M  V30 36039 N 3616.91 -1.57436 0.0718977 0
M  V30 36040 C 3618.19 -1.84896 -0.6382 0
M  V30 36041 C 3618.57 -0.964376 -1.87784 0
M  V30 36042 O 3617.92 -0.0306925 -2.28479 0
M  V30 36043 C 3618.13 -3.35082 -0.975758 0
M  V30 36044 C 3619.47 -4.02594 -1.3492 0
M  V30 36045 O 3620.5 -3.39828 -1.06748 0
M  V30 36046 O 3619.36 -5.13299 -1.8758 0
M  V30 36047 H 3616.45 -0.763838 -0.316987 0
M  V30 36048 H 3619 -1.69388 0.102837 0
M  V30 36049 H 3617.77 -3.91184 -0.095326 0
M  V30 36050 H 3617.39 -3.55852 -1.77355 0
M  V30 36051 N 3618.39 0.201658 -1.56305 0
M  V30 36052 C 3619.32 1.27386 -1.9054 0
M  V30 36053 C 3620.33 1.42044 -0.795447 0
M  V30 36054 O 3621.52 1.42587 -1.07384 0
M  V30 36055 C 3618.62 2.6469 -2.11642 0
M  V30 36056 C 3617.8 2.71725 -3.4276 0
M  V30 36057 C 3616.85 3.90179 -3.53054 0
M  V30 36058 O 3615.88 3.77588 -4.2593 0
M  V30 36059 N 3617.08 5.05351 -2.85658 0
M  V30 36060 H 3619.85 0.983361 -2.83108 0
M  V30 36061 H 3617.41 0.391611 -1.57092 0
M  V30 36062 H 3619.4 3.42348 -2.15824 0
M  V30 36063 H 3617.97 2.86255 -1.25605 0
M  V30 36064 H 3617.19 1.80391 -3.50504 0
M  V30 36065 H 3618.48 2.7341 -4.29097 0
M  V30 36066 H 3617.88 5.18479 -2.26266 0
M  V30 36067 H 3616.43 5.8098 -2.95475 0
M  V30 36068 N 3619.87 1.50456 0.469128 0
M  V30 36069 C 3620.83 1.68909 1.54927 0
M  V30 36070 C 3621.83 0.559747 1.50743 0
M  V30 36071 O 3623.02 0.826808 1.53328 0
M  V30 36072 C 3620.15 1.71614 2.94553 0
M  V30 36073 H 3621.34 2.65279 1.39883 0
M  V30 36074 H 3618.9 1.39966 0.695643 0
M  V30 36075 H 3619.63 0.769437 3.1504 0
M  V30 36076 H 3619.42 2.53659 2.98997 0
M  V30 36077 H 3620.91 1.87838 3.7297 0
M  V30 36078 N 3621.34 -0.722439 1.40066 0
M  V30 36079 C 3622.29 -1.83652 1.39788 0
M  V30 36080 C 3623.26 -1.64119 0.255771 0
M  V30 36081 O 3624.45 -1.85349 0.452798 0
M  V30 36082 C 3621.59 -3.21295 1.25951 0
M  V30 36083 C 3620.7 -3.52447 2.49811 0
M  V30 36084 C 3619.83 -4.79558 2.28468 0
M  V30 36085 C 3618.87 -5.03592 3.47939 0
M  V30 36086 N 3618.01 -6.21914 3.25834 0
M  V30 36087 H 3622.85 -1.83225 2.35016 0
M  V30 36088 H 3620.39 -0.895134 1.16729 0
M  V30 36089 H 3622.35 -4.00767 1.15938 0
M  V30 36090 H 3620.98 -3.20968 0.343458 0
M  V30 36091 H 3620.03 -2.6758 2.70379 0
M  V30 36092 H 3621.34 -3.6612 3.38759 0
M  V30 36093 H 3620.49 -5.67035 2.15768 0
M  V30 36094 H 3619.23 -4.68082 1.36934 0
M  V30 36095 H 3618.24 -4.14572 3.61123 0
M  V30 36096 H 3619.46 -5.16946 4.40391 0
M  V30 36097 H 3617.41 -6.11701 2.36976 0
M  V30 36098 H 3617.33 -6.36232 4.08345 0
M  V30 36099 H 3618.59 -7.12197 3.16854 0
M  V30 36100 N 3622.82 -1.2545 -0.953947 0
M  V30 36101 C 3623.73 -1.07637 -2.0845 0
M  V30 36102 C 3624.75 -0.0133246 -1.73995 0
M  V30 36103 O 3625.93 -0.214402 -2.00256 0
M  V30 36104 C 3622.99 -0.697815 -3.39605 0
M  V30 36105 C 3622.05 -1.83888 -3.87923 0
M  V30 36106 C 3621.28 -1.47828 -5.12818 0
M  V30 36107 O 3621.51 -0.374243 -5.69171 0
M  V30 36108 O 3620.44 -2.3087 -5.55862 0
M  V30 36109 H 3624.27 -2.02451 -2.26379 0
M  V30 36110 H 3621.85 -1.04394 -1.06875 0
M  V30 36111 H 3623.73 -0.498852 -4.18437 0
M  V30 36112 H 3622.41 0.221051 -3.22944 0
M  V30 36113 H 3621.32 -2.0927 -3.10092 0
M  V30 36114 H 3622.65 -2.73701 -4.09083 0
M  V30 36115 N 3624.3 1.15667 -1.07047 0
M  V30 36116 C 3625.21 2.23933 -0.699371 0
M  V30 36117 C 3626.23 1.716 0.288006 0
M  V30 36118 O 3627.4 2.00944 0.135411 0
M  V30 36119 C 3624.47 3.46557 -0.0995384 0
M  V30 36120 C 3623.53 4.13894 -1.13976 0
M  V30 36121 C 3622.76 5.30664 -0.568453 0
M  V30 36122 O 3622.99 5.67059 0.616456 0
M  V30 36123 O 3621.92 5.8743 -1.31185 0
M  V30 36124 H 3625.75 2.58 -1.60217 0
M  V30 36125 H 3623.33 1.23329 -0.843223 0
M  V30 36126 H 3625.21 4.20756 0.232856 0
M  V30 36127 H 3623.89 3.14245 0.776628 0
M  V30 36128 H 3622.79 3.4163 -1.52446 0
M  V30 36129 H 3624.13 4.50278 -1.98772 0
M  V30 36130 N 3625.78 0.854133 1.32447 0
M  V30 36131 C 3626.71 0.313737 2.31383 0
M  V30 36132 C 3627.69 -0.58683 1.59657 0
M  V30 36133 O 3628.88 -0.507184 1.8746 0
M  V30 36134 C 3626.01 -0.499174 3.43694 0
M  V30 36135 C 3624.96 0.306914 4.26898 0
M  V30 36136 C 3624.29 -0.630701 5.30967 0
M  V30 36137 C 3625.59 1.53237 4.99315 0
M  V30 36138 H 3627.28 1.14042 2.7683 0
M  V30 36139 H 3624.83 0.549829 1.3309 0
M  V30 36140 H 3626.78 -0.887636 4.11945 0
M  V30 36141 H 3625.5 -1.35921 2.96973 0
M  V30 36142 H 3624.16 0.677124 3.60292 0
M  V30 36143 H 3623.81 -1.48757 4.805 0
M  V30 36144 H 3623.51 -0.0953603 5.87523 0
M  V30 36145 H 3625.03 -1.01635 6.02082 0
M  V30 36146 H 3626.45 1.21623 5.60251 0
M  V30 36147 H 3624.84 2.00561 5.65593 0
M  V30 36148 H 3625.91 2.29391 4.27209 0
M  V30 36149 N 3627.26 -1.45231 0.61202 0
M  V30 36150 C 3628.17 -2.34361 -0.10594 0
M  V30 36151 C 3629.18 -1.51502 -0.855758 0
M  V30 36152 O 3630.36 -1.8429 -0.812344 0
M  V30 36153 C 3627.42 -3.2919 -1.08788 0
M  V30 36154 C 3626.49 -4.27955 -0.339535 0
M  V30 36155 C 3625.72 -5.18254 -1.2747 0
M  V30 36156 O 3625.94 -5.12074 -2.5127 0
M  V30 36157 O 3624.88 -5.96963 -0.769364 0
M  V30 36158 H 3628.7 -2.97165 0.626636 0
M  V30 36159 H 3626.29 -1.44688 0.372265 0
M  V30 36160 H 3628.17 -3.87612 -1.65332 0
M  V30 36161 H 3626.84 -2.68944 -1.80141 0
M  V30 36162 H 3625.75 -3.73135 0.268473 0
M  V30 36163 H 3627.08 -4.91068 0.333588 0
M  V30 36164 N 3628.74 -0.351436 -1.53632 0
M  V30 36165 C 3630.15 0.000186461 -1.596 0
M  V30 36166 C 3630.35 1.48027 -1.36712 0
M  V30 36167 O 3629.41 2.24004 -1.16527 0
M  V30 36168 C 3630.72 -0.443066 -2.97418 0
M  V30 36169 C 3632.27 -0.39608 -3.10484 0
M  V30 36170 C 3632.74 -0.814922 -4.50692 0
M  V30 36171 N 3634.23 -0.76942 -4.56765 0
M  V30 36172 C 3634.97 -1.06536 -5.63416 0
M  V30 36173 N 3634.47 -1.42986 -6.77884 0
M  V30 36174 N 3636.26 -0.989084 -5.5333 0
M  V30 36175 H 3628.41 -1.31545 -1.66763 0
M  V30 36176 H 3630.67 -0.536754 -0.781409 0
M  V30 36177 H 3630.38 -1.47535 -3.19259 0
M  V30 36178 H 3630.25 0.177659 -3.76781 0
M  V30 36179 H 3632.64 0.627042 -2.88361 0
M  V30 36180 H 3632.72 -1.05211 -2.33161 0
M  V30 36181 H 3632.36 -1.83609 -4.73551 0
M  V30 36182 H 3632.29 -0.136286 -5.26424 0
M  V30 36183 H 3634.79 -0.500689 -3.74568 0
M  V30 36184 H 3635.1 -1.64032 -7.55191 0
M  V30 36185 H 3633.44 -1.46839 -6.79311 0
M  V30 36186 H 3636.63 -0.703607 -4.62782 0
M  V30 36187 H 3636.81 -1.22306 -6.36353 0
M  V30 36188 N 3630.21 1.57396 -0.0802459 0
M  V30 36189 C 3631.14 2.16226 0.881388 0
M  V30 36190 C 3632.12 1.09156 1.30457 0
M  V30 36191 O 3633.31 1.37229 1.37411 0
M  V30 36192 C 3630.44 2.73069 2.14594 0
M  V30 36193 C 3629.39 3.8538 1.86189 0
M  V30 36194 C 3628.72 4.28861 3.19346 0
M  V30 36195 C 3630.02 5.09244 1.1605 0
M  V30 36196 H 3631.71 2.96832 0.391273 0
M  V30 36197 H 3629.26 1.42784 0.18676 0
M  V30 36198 H 3631.21 3.12873 2.82292 0
M  V30 36199 H 3629.94 1.89696 2.65863 0
M  V30 36200 H 3628.6 3.46093 1.20894 0
M  V30 36201 H 3628.24 3.42399 3.68473 0
M  V30 36202 H 3627.94 5.04575 3.01128 0
M  V30 36203 H 3629.47 4.71288 3.88227 0
M  V30 36204 H 3630.88 5.46311 1.73831 0
M  V30 36205 H 3629.28 5.9029 1.08062 0
M  V30 36206 H 3630.35 4.84695 0.140895 0
M  V30 36207 N 3631.69 -0.193366 1.56409 0
M  V30 36208 C 3632.65 -1.22331 1.93824 0
M  V30 36209 C 3633.65 -1.38348 0.819537 0
M  V30 36210 O 3634.84 -1.36131 1.08693 0
M  V30 36211 C 3631.98 -2.59237 2.2138 0
M  V30 36212 H 3633.17 -0.903451 2.85968 0
M  V30 36213 H 3630.72 -0.434954 1.50126 0
M  V30 36214 H 3631.46 -2.96274 1.31879 0
M  V30 36215 H 3631.24 -2.48982 3.02903 0
M  V30 36216 H 3632.73 -3.33505 2.51325 0
M  V30 36217 N 3633.17 -1.50702 -0.461142 0
M  V30 36218 C 3634.13 -1.69728 -1.54029 0
M  V30 36219 C 3635.13 -0.567734 -1.50444 0
M  V30 36220 O 3636.32 -0.834928 -1.52888 0
M  V30 36221 C 3633.45 -1.73173 -2.93639 0
M  V30 36222 H 3634.65 -2.66017 -1.38474 0
M  V30 36223 H 3632.2 -1.40333 -0.68821 0
M  V30 36224 H 3632.94 -0.786133 -3.14627 0
M  V30 36225 H 3632.72 -2.55241 -2.97648 0
M  V30 36226 H 3634.21 -1.89813 -3.71969 0
M  V30 36227 N 3634.65 0.715001 -1.40447 0
M  V30 36228 C 3635.87 1.50915 -1.42265 0
M  V30 36229 C 3636.3 1.88084 -0.0242733 0
M  V30 36230 O 3635.66 1.53309 0.96779 0
M  V30 36231 C 3635.7 2.76056 -2.32003 0
M  V30 36232 O 3634.81 3.72784 -1.76368 0
M  V30 36233 H 3634.15 0.454979 -0.483622 0
M  V30 36234 H 3636.68 0.880516 -1.84684 0
M  V30 36235 H 3636.69 3.24579 -2.4721 0
M  V30 36236 H 3635.36 2.48337 -3.33619 0
M  V30 36237 H 3633.94 3.31633 -1.7051 0
M  V30 36238 N 3636.13 1.25954 0.947281 0
M  V30 36239 C 3637.06 1.09471 2.06248 0
M  V30 36240 C 3638.04 0.00163488 1.701 0
M  V30 36241 O 3639.22 0.172535 1.93432 0
M  V30 36242 C 3636.35 0.720452 3.39745 0
M  V30 36243 C 3635.31 1.76458 3.89931 0
M  V30 36244 C 3634.63 1.24481 5.20008 0
M  V30 36245 C 3635.93 3.16488 4.15491 0
M  V30 36246 H 3637.63 2.02756 2.20296 0
M  V30 36247 H 3635.17 0.976238 1.05856 0
M  V30 36248 H 3637.12 0.592045 4.1722 0
M  V30 36249 H 3635.85 -0.248104 3.25656 0
M  V30 36250 H 3634.51 1.88155 3.14632 0
M  V30 36251 H 3634.16 0.26627 5.02295 0
M  V30 36252 H 3633.86 1.94273 5.54556 0
M  V30 36253 H 3635.38 1.12895 6.00073 0
M  V30 36254 H 3636.79 3.07903 4.836 0
M  V30 36255 H 3635.19 3.83816 4.61308 0
M  V30 36256 H 3636.26 3.63 3.21495 0
M  V30 36257 N 3637.6 -1.15097 1.07659 0
M  V30 36258 C 3638.88 -1.82078 0.71464 0
M  V30 36259 C 3639.26 -1.9525 -0.802544 0
M  V30 36260 O 3638.61 -1.50637 -1.71816 0
M  V30 36261 C 3638.82 -3.18237 1.43269 0
M  V30 36262 C 3640.17 -3.93834 1.58682 0
M  V30 36263 O 3641.19 -3.27801 1.39372 0
M  V30 36264 O 3640.05 -5.1223 1.90479 0
M  V30 36265 H 3637.14 -0.786815 0.254659 0
M  V30 36266 H 3639.69 -1.22181 1.1777 0
M  V30 36267 H 3638.46 -3.03767 2.4666 0
M  V30 36268 H 3638.09 -3.85821 0.960614 0
M  V30 36269 N 3639.08 -0.861145 -1.31993 0
M  V30 36270 C 3640.33 -0.466789 -1.96635 0
M  V30 36271 C 3640.65 0.982299 -1.68451 0
M  V30 36272 O 3639.92 1.68739 -0.995187 0
M  V30 36273 H 3638.5 -0.169625 -0.727486 0
M  V30 36274 H 3641.16 -1.099 -1.6096 0
M  V30 36275 H 3640.26 -0.617214 -3.05936 0
M  V30 36276 N 3640.56 1.44905 -0.619713 0
M  V30 36277 C 3641.52 2.29053 0.0821962 0
M  V30 36278 C 3642.52 1.40426 0.783403 0
M  V30 36279 O 3643.71 1.6242 0.629723 0
M  V30 36280 C 3640.85 3.21739 1.12679 0
M  V30 36281 H 3642.04 2.92597 -0.657778 0
M  V30 36282 H 3639.59 1.51628 -0.379313 0
M  V30 36283 H 3640.33 2.6302 1.89713 0
M  V30 36284 H 3640.11 3.87037 0.628054 0
M  V30 36285 H 3641.6 3.84981 1.61801 0
M  V30 36286 N 3642.04 0.359579 1.53443 0
M  V30 36287 C 3643.45 0.00827752 1.59598 0
M  V30 36288 C 3643.65 -1.473 1.37495 0
M  V30 36289 O 3642.71 -2.23382 1.17714 0
M  V30 36290 C 3644.02 0.458832 2.97179 0
M  V30 36291 C 3645.57 0.41254 3.10269 0
M  V30 36292 C 3646.05 0.838812 4.50253 0
M  V30 36293 N 3647.54 0.793632 4.5635 0
M  V30 36294 C 3648.27 1.09523 5.62843 0
M  V30 36295 N 3647.77 1.46579 6.77116 0
M  V30 36296 N 3649.56 1.01841 5.52797 0
M  V30 36297 H 3641.71 1.32427 1.66063 0
M  V30 36298 H 3643.98 0.54089 0.778551 0
M  V30 36299 H 3643.68 1.49226 3.18472 0
M  V30 36300 H 3643.56 -0.157675 3.7687 0
M  V30 36301 H 3645.94 -0.61174 2.8869 0
M  V30 36302 H 3646.02 1.06446 2.326 0
M  V30 36303 H 3645.67 1.86118 4.7257 0
M  V30 36304 H 3645.6 0.164201 5.26344 0
M  V30 36305 H 3648.09 0.520546 3.74298 0
M  V30 36306 H 3648.4 1.68034 7.54311 0
M  V30 36307 H 3646.75 1.50439 6.78523 0
M  V30 36308 H 3649.94 0.72814 4.62402 0
M  V30 36309 H 3650.11 1.25679 6.35695 0
M  V30 36310 N 3643.52 -1.57351 0.0885919 0
M  V30 36311 C 3644.74 -1.98451 -0.585203 0
M  V30 36312 C 3645.16 -0.967511 -1.62125 0
M  V30 36313 O 3644.52 0.0437245 -1.82448 0
M  V30 36314 C 3644.57 -3.39613 -1.23875 0
M  V30 36315 O 3644.29 -4.37419 -0.244146 0
M  V30 36316 C 3645.79 -3.95681 -1.99878 0
M  V30 36317 H 3643.01 -0.652282 -0.157384 0
M  V30 36318 H 3645.55 -2.03825 0.165959 0
M  V30 36319 H 3643.71 -3.35274 -1.94089 0
M  V30 36320 H 3644.12 -5.19603 -0.715058 0
M  V30 36321 H 3645.6 -4.96624 -2.40974 0
M  V30 36322 H 3646.07 -3.33142 -2.86205 0
M  V30 36323 H 3646.68 -4.03474 -1.34494 0
M  V30 36324 N 3644.99 0.185069 -1.5651 0
M  V30 36325 C 3646.41 0.748826 -1.71025 0
M  V30 36326 C 3646.76 1.83408 -0.696843 0
M  V30 36327 O 3645.88 2.15916 0.144674 0
M  V30 36328 C 3646.48 1.36508 -3.10082 0
M  V30 36329 C 3645.04 1.87581 -3.26329 0
M  V30 36330 C 3644.18 0.749532 -2.66978 0
M  V30 36331 H 3647.13 -0.0401454 -1.58649 0
M  V30 36332 H 3647.15 2.23462 -3.07969 0
M  V30 36333 H 3646.67 0.574984 -3.83817 0
M  V30 36334 H 3644.77 2.69278 -2.57527 0
M  V30 36335 H 3644.88 2.0307 -4.33935 0
M  V30 36336 H 3643.24 1.16643 -2.26421 0
M  V30 36337 H 3644.03 -0.0284905 -3.43288 0
M  V30 36338 N 3646.47 1.50945 0.453144 0
M  V30 36339 C 3647.4 1.74054 1.55652 0
M  V30 36340 C 3648.38 0.589898 1.59544 0
M  V30 36341 O 3649.57 0.830953 1.75524 0
M  V30 36342 C 3646.7 1.85114 2.93854 0
M  V30 36343 C 3645.65 3.00441 3.04827 0
M  V30 36344 C 3644.98 2.96665 4.44853 0
M  V30 36345 C 3646.28 4.40668 2.80373 0
M  V30 36346 H 3647.97 2.6644 1.36566 0
M  V30 36347 H 3645.52 1.28213 0.655549 0
M  V30 36348 H 3647.47 1.99864 3.70988 0
M  V30 36349 H 3646.2 0.893634 3.14137 0
M  V30 36350 H 3644.85 2.8537 2.30129 0
M  V30 36351 H 3644.5 1.98724 4.6208 0
M  V30 36352 H 3644.2 3.74098 4.53127 0
M  V30 36353 H 3645.73 3.13487 5.23983 0
M  V30 36354 H 3647.14 4.56171 3.47247 0
M  V30 36355 H 3645.54 5.19688 3.00074 0
M  V30 36356 H 3646.61 4.51797 1.76091 0
M  V30 36357 N 3647.95 -0.707543 1.40825 0
M  V30 36358 C 3648.88 -1.83426 1.44489 0
M  V30 36359 C 3649.86 -1.67345 0.304878 0
M  V30 36360 O 3651.05 -1.87257 0.514638 0
M  V30 36361 C 3648.18 -3.21457 1.31464 0
M  V30 36362 C 3647.13 -3.52224 2.43151 0
M  V30 36363 C 3646.46 -4.89483 2.15198 0
M  V30 36364 C 3647.76 -3.52407 3.85495 0
M  V30 36365 H 3649.45 -1.80617 2.38784 0
M  V30 36366 H 3647 -0.867552 1.14933 0
M  V30 36367 H 3648.95 -3.9998 1.32642 0
M  V30 36368 H 3647.67 -3.24862 0.336479 0
M  V30 36369 H 3646.33 -2.76045 2.41236 0
M  V30 36370 H 3645.98 -4.895 1.15754 0
M  V30 36371 H 3645.68 -5.11034 2.90031 0
M  V30 36372 H 3647.2 -5.70331 2.18072 0
M  V30 36373 H 3648.62 -4.20956 3.8919 0
M  V30 36374 H 3647.02 -3.85487 4.59913 0
M  V30 36375 H 3648.09 -2.51625 4.14503 0
M  V30 36376 N 3649.43 -1.26454 -0.940588 0
M  V30 36377 C 3650.36 -1.03856 -2.0432 0
M  V30 36378 C 3651.37 0.00119756 -1.628 0
M  V30 36379 O 3652.56 -0.238943 -1.76894 0
M  V30 36380 C 3649.66 -0.550848 -3.34393 0
M  V30 36381 C 3648.84 -1.65997 -4.04677 0
M  V30 36382 C 3647.89 -1.17021 -5.13023 0
M  V30 36383 O 3646.92 -1.8674 -5.37696 0
M  V30 36384 N 3648.12 -0.0189498 -5.80497 0
M  V30 36385 H 3650.89 -1.98801 -2.24273 0
M  V30 36386 H 3648.45 -1.17848 -1.11011 0
M  V30 36387 H 3650.44 -0.207376 -4.04168 0
M  V30 36388 H 3649.01 0.305035 -3.11108 0
M  V30 36389 H 3648.23 -2.17435 -3.28809 0
M  V30 36390 H 3649.52 -2.4047 -4.48388 0
M  V30 36391 H 3648.92 0.563269 -5.62889 0
M  V30 36392 H 3647.47 0.265441 -6.51259 0
M  V30 36393 N 3650.91 1.14525 -1.08268 0
M  V30 36394 C 3652.32 1.37516 -0.810025 0
M  V30 36395 C 3652.52 1.92931 0.581365 0
M  V30 36396 O 3651.58 2.14109 1.33842 0
M  V30 36397 C 3652.89 2.33755 -1.89153 0
M  V30 36398 C 3654.44 2.47398 -1.91738 0
M  V30 36399 C 3654.91 3.46935 -2.98998 0
M  V30 36400 N 3656.41 3.54478 -2.98161 0
M  V30 36401 C 3657.14 4.31342 -3.77798 0
M  V30 36402 N 3656.64 5.11461 -4.67311 0
M  V30 36403 N 3658.43 4.26524 -3.66106 0
M  V30 36404 H 3650.58 0.769013 -1.9799 0
M  V30 36405 H 3652.84 0.400765 -0.859122 0
M  V30 36406 H 3652.55 2.00171 -2.89179 0
M  V30 36407 H 3652.42 3.33643 -1.75961 0
M  V30 36408 H 3654.81 2.80275 -0.923581 0
M  V30 36409 H 3654.89 1.47476 -2.09008 0
M  V30 36410 H 3654.54 3.14792 -3.98583 0
M  V30 36411 H 3654.47 4.46634 -2.78973 0
M  V30 36412 H 3656.96 2.97301 -2.33282 0
M  V30 36413 H 3657.27 5.67383 -5.24686 0
M  V30 36414 H 3655.61 5.10735 -4.71354 0
M  V30 36415 H 3658.81 3.63002 -2.95545 0
M  V30 36416 H 3658.98 4.86177 -4.28411 0
M  V30 36417 N 3652.39 0.868133 1.31534 0
M  V30 36418 C 3653.32 0.26724 2.2663 0
M  V30 36419 C 3654.3 -0.602547 1.51024 0
M  V30 36420 O 3655.48 -0.556377 1.80102 0
M  V30 36421 C 3652.61 -0.621772 3.32944 0
M  V30 36422 C 3651.65 0.176423 4.26135 0
M  V30 36423 S 3652.49 1.55372 5.12464 0
M  V30 36424 C 3653.64 0.670782 6.22295 0
M  V30 36425 H 3653.88 1.07336 2.77248 0
M  V30 36426 H 3651.41 0.666545 1.39271 0
M  V30 36427 H 3653.37 -1.12901 3.94669 0
M  V30 36428 H 3652.03 -1.40182 2.81083 0
M  V30 36429 H 3651.22 -0.50127 5.01501 0
M  V30 36430 H 3650.82 0.615695 3.68897 0
M  V30 36431 H 3653.11 -0.119389 6.77395 0
M  V30 36432 H 3654.06 1.39551 6.94213 0
M  V30 36433 H 3654.47 0.239147 5.63993 0
M  V30 36434 N 3653.86 -1.44574 0.627389 0
M  V30 36435 C 3654.8 -2.28895 -0.118138 0
M  V30 36436 C 3655.81 -1.41073 -0.812544 0
M  V30 36437 O 3657 -1.65261 -0.674617 0
M  V30 36438 C 3654.1 -3.17346 -1.18931 0
M  V30 36439 C 3653.27 -4.33562 -0.57815 0
M  V30 36440 C 3652.33 -5.03075 -1.54279 0
M  V30 36441 O 3651.36 -5.59217 -1.06138 0
M  V30 36442 N 3652.56 -5.04182 -2.87717 0
M  V30 36443 H 3655.32 -2.9352 0.605493 0
M  V30 36444 H 3652.88 -1.5498 0.46828 0
M  V30 36445 H 3654.88 -3.60714 -1.83487 0
M  V30 36446 H 3653.45 -2.54497 -1.81521 0
M  V30 36447 H 3652.67 -3.93432 0.245953 0
M  V30 36448 H 3653.95 -5.08578 -0.150413 0
M  V30 36449 H 3653.35 -4.59896 -3.29412 0
M  V30 36450 H 3651.91 -5.5135 -3.47643 0
M  V30 36451 N 3655.34 -0.367711 -1.5325 0
M  V30 36452 C 3656.57 0.222011 -2.05705 0
M  V30 36453 C 3656.98 1.42278 -1.24106 0
M  V30 36454 O 3656.34 1.80304 -0.282259 0
M  V30 36455 C 3656.39 0.613412 -3.56258 0
M  V30 36456 O 3656.11 -0.539634 -4.34764 0
M  V30 36457 C 3657.61 1.2613 -4.24978 0
M  V30 36458 H 3654.83 0.0385681 -0.669891 0
M  V30 36459 H 3657.38 -0.526697 -1.97601 0
M  V30 36460 H 3655.53 1.31203 -3.64506 0
M  V30 36461 H 3655.95 -0.222791 -5.24027 0
M  V30 36462 H 3657.42 1.48571 -5.3163 0
M  V30 36463 H 3657.9 2.22224 -3.78832 0
M  V30 36464 H 3658.5 0.604047 -4.20989 0
M  V30 36465 N 3656.82 1.57302 -0.0969353 0
M  V30 36466 C 3658.07 1.94419 0.566339 0
M  V30 36467 C 3658.39 0.978799 1.68077 0
M  V30 36468 O 3657.65 -0.001287 1.957 0
M  V30 36469 C 3657.95 3.38063 1.15966 0
M  V30 36470 C 3657.61 4.50584 0.16884 0
M  V30 36471 C 3656.28 4.81088 -0.103671 0
M  V30 36472 C 3658.63 5.18722 -0.507604 0
M  V30 36473 C 3655.96 5.77058 -1.05929 0
M  V30 36474 C 3658.31 6.15718 -1.45171 0
M  V30 36475 C 3656.97 6.44626 -1.73243 0
M  V30 36476 H 3656.24 0.711431 0.207238 0
M  V30 36477 H 3658.89 1.90716 -0.173159 0
M  V30 36478 H 3657.19 3.38354 1.97545 0
M  V30 36479 H 3658.89 3.64084 1.68059 0
M  V30 36480 H 3655.48 4.26809 0.391426 0
M  V30 36481 H 3659.67 4.9533 -0.310214 0
M  V30 36482 H 3654.92 5.9777 -1.28377 0
M  V30 36483 H 3659.1 6.6761 -1.98167 0
M  V30 36484 H 3656.72 7.188 -2.47449 0
M  V30 36485 N 3658.3 -0.176766 1.56606 0
M  V30 36486 C 3659.52 -0.914048 1.86172 0
M  V30 36487 C 3659.95 -1.75275 0.682651 0
M  V30 36488 O 3659.31 -1.77518 -0.36836 0
M  V30 36489 C 3659.35 -1.77105 3.14112 0
M  V30 36490 O 3658.46 -2.87204 2.95952 0
M  V30 36491 H 3657.8 -0.256369 0.612512 0
M  V30 36492 H 3660.33 -0.17655 2.03837 0
M  V30 36493 H 3660.34 -2.17207 3.45377 0
M  V30 36494 H 3659.01 -1.15495 3.99542 0
M  V30 36495 H 3657.59 -2.50724 2.76028 0
M  V30 36496 N 3659.78 -1.51183 -0.445132 0
M  V30 36497 C 3661.19 -1.5603 -1.02525 0
M  V30 36498 C 3661.54 -0.379121 -1.92502 0
M  V30 36499 O 3660.66 0.505019 -2.10425 0
M  V30 36500 C 3661.26 -2.82772 -1.86616 0
M  V30 36501 C 3659.82 -2.90215 -2.39692 0
M  V30 36502 C 3658.96 -2.5061 -1.187 0
M  V30 36503 H 3661.91 -1.57072 -0.226704 0
M  V30 36504 H 3661.94 -2.66094 -2.71982 0
M  V30 36505 H 3661.45 -3.68722 -1.21103 0
M  V30 36506 H 3659.55 -2.08677 -3.08682 0
M  V30 36507 H 3659.66 -3.93695 -2.73022 0
M  V30 36508 H 3658.03 -2.03632 -1.52991 0
M  V30 36509 H 3658.81 -3.38896 -0.548096 0
M  V30 36510 N 3661.25 0.700065 -1.41198 0
M  V30 36511 C 3662.22 1.79579 -1.42422 0
M  V30 36512 C 3663.22 1.57674 -0.315537 0
M  V30 36513 O 3664.41 1.6443 -0.575202 0
M  V30 36514 C 3661.54 3.17891 -1.23119 0
M  V30 36515 H 3662.73 1.79888 -2.39959 0
M  V30 36516 H 3660.28 0.907248 -1.27274 0
M  V30 36517 H 3661.02 3.23223 -0.264049 0
M  V30 36518 H 3660.8 3.35191 -2.03443 0
M  V30 36519 H 3662.29 3.97884 -1.268 0
M  V30 36520 N 3662.73 1.26951 0.933869 0
M  V30 36521 C 3663.98 1.12704 1.67757 0
M  V30 36522 C 3664.3 -0.328815 1.92208 0
M  V30 36523 O 3663.57 -1.23094 1.52396 0
M  V30 36524 H 3662.15 0.414091 0.621722 0
M  V30 36525 H 3664.81 1.59388 1.12167 0
M  V30 36526 H 3663.91 1.6514 2.64831 0
M  V30 36527 N 3664.21 -1.13949 1.08873 0
M  V30 36528 C 3665.43 -1.89491 0.843089 0
M  V30 36529 C 3665.86 -1.78291 -0.599507 0
M  V30 36530 O 3665.22 -1.12644 -1.4206 0
M  V30 36531 C 3665.27 -3.37278 1.27578 0
M  V30 36532 O 3664.37 -4.10145 0.430683 0
M  V30 36533 H 3663.71 -0.589386 0.305811 0
M  V30 36534 H 3666.24 -1.44207 1.4514 0
M  V30 36535 H 3666.25 -3.88098 1.25871 0
M  V30 36536 H 3664.93 -3.44747 2.32641 0
M  V30 36537 H 3663.5 -3.69374 0.511581 0
M  V30 36538 N 3665.69 -0.875096 -1.31072 0
M  V30 36539 C 3666.63 -0.332758 -2.28389 0
M  V30 36540 C 3667.6 0.571612 -1.55955 0
M  V30 36541 O 3668.79 0.502153 -1.84074 0
M  V30 36542 C 3665.93 0.455304 -3.42083 0
M  V30 36543 C 3665.04 -0.477163 -4.29357 0
M  V30 36544 C 3664.18 0.325526 -5.30202 0
M  V30 36545 C 3663.22 -0.603042 -6.09122 0
M  V30 36546 N 3662.35 0.163713 -7.01909 0
M  V30 36547 H 3667.19 -1.16782 -2.74164 0
M  V30 36548 H 3664.73 -0.587272 -1.34869 0
M  V30 36549 H 3666.69 0.928033 -4.06747 0
M  V30 36550 H 3665.32 1.25502 -2.97404 0
M  V30 36551 H 3664.37 -1.06836 -3.65089 0
M  V30 36552 H 3665.68 -1.18896 -4.84423 0
M  V30 36553 H 3664.84 0.860542 -6.00566 0
M  V30 36554 H 3663.58 1.07059 -4.75804 0
M  V30 36555 H 3662.58 -1.14977 -5.37643 0
M  V30 36556 H 3663.81 -1.34704 -6.65606 0
M  V30 36557 H 3661.75 0.89149 -6.49914 0
M  V30 36558 H 3661.67 -0.488642 -7.54419 0
M  V30 36559 H 3662.94 0.679792 -7.7653 0
M  V30 36560 N 3667.17 1.44239 -0.635047 0
M  V30 36561 C 3668.1 2.33437 0.054315 0
M  V30 36562 C 3669.08 1.48432 0.83078 0
M  V30 36563 O 3670.26 1.77142 0.795882 0
M  V30 36564 C 3667.39 3.31555 1.03385 0
M  V30 36565 C 3666.35 4.26409 0.368749 0
M  V30 36566 C 3665.67 5.14425 1.45846 0
M  V30 36567 C 3666.97 5.17209 -0.727472 0
M  V30 36568 H 3668.67 2.91328 -0.69054 0
M  V30 36569 H 3666.21 1.40084 -0.333524 0
M  V30 36570 H 3668.17 3.92843 1.52488 0
M  V30 36571 H 3666.89 2.71881 1.80964 0
M  V30 36572 H 3665.55 3.66459 -0.10167 0
M  V30 36573 H 3665.2 4.51102 2.22523 0
M  V30 36574 H 3664.9 5.78701 1.0188 0
M  V30 36575 H 3666.42 5.78584 1.95122 0
M  V30 36576 H 3667.83 5.7241 -0.319373 0
M  V30 36577 H 3666.23 5.90108 -1.09051 0
M  V30 36578 H 3667.3 4.57987 -1.593 0
M  V30 36579 N 3668.64 0.375833 1.53053 0
M  V30 36580 C 3670.06 0.0252045 1.5958 0
M  V30 36581 C 3670.26 -1.45834 1.3905 0
M  V30 36582 O 3669.32 -2.22121 1.20076 0
M  V30 36583 C 3670.63 0.490326 2.96675 0
M  V30 36584 C 3672.18 0.445425 3.09814 0
M  V30 36585 C 3672.65 0.88652 4.49338 0
M  V30 36586 N 3674.14 0.84199 4.55483 0
M  V30 36587 C 3674.88 1.15486 5.6165 0
M  V30 36588 N 3674.37 1.53753 6.75523 0
M  V30 36589 N 3676.17 1.07699 5.51686 0
M  V30 36590 H 3668.32 1.34181 1.64649 0
M  V30 36591 H 3670.58 0.549117 0.772771 0
M  V30 36592 H 3670.29 1.52595 3.16872 0
M  V30 36593 H 3670.16 -0.117694 3.77016 0
M  V30 36594 H 3672.55 -0.581087 2.89322 0
M  V30 36595 H 3672.63 1.08907 2.31458 0
M  V30 36596 H 3672.27 1.9112 4.7057 0
M  V30 36597 H 3672.2 0.220018 5.2614 0
M  V30 36598 H 3674.69 0.560216 3.73724 0
M  V30 36599 H 3675.01 1.76025 7.52486 0
M  V30 36600 H 3673.35 1.57627 6.76889 0
M  V30 36601 H 3676.54 0.777143 4.61604 0
M  V30 36602 H 3676.72 1.32415 6.34327 0
M  V30 36603 N 3670.12 -1.57248 0.105276 0
M  V30 36604 C 3671.05 -2.17601 -0.846877 0
M  V30 36605 C 3672.03 -1.11218 -1.28704 0
M  V30 36606 O 3673.22 -1.39398 -1.3521 0
M  V30 36607 C 3670.35 -2.76448 -2.10223 0
M  V30 36608 C 3669.3 -3.88293 -1.80034 0
M  V30 36609 C 3668.63 -4.33888 -3.12483 0
M  V30 36610 C 3669.93 -5.11026 -1.07934 0
M  V30 36611 H 3671.62 -2.97417 -0.344 0
M  V30 36612 H 3669.17 -1.43063 -0.16402 0
M  V30 36613 H 3671.12 -3.17324 -2.77278 0
M  V30 36614 H 3669.85 -1.93901 -2.62811 0
M  V30 36615 H 3668.5 -3.47972 -1.15373 0
M  V30 36616 H 3668.15 -3.48218 -3.62979 0
M  V30 36617 H 3667.85 -5.09301 -2.93063 0
M  V30 36618 H 3669.38 -4.77404 -3.8068 0
M  V30 36619 H 3670.79 -5.49007 -1.65118 0
M  V30 36620 H 3669.19 -5.91935 -0.98657 0
M  V30 36621 H 3670.26 -4.84858 -0.0637659 0
M  V30 36622 N 3671.6 0.168458 -1.56697 0
M  V30 36623 C 3672.85 0.885933 -1.82426 0
M  V30 36624 C 3673.18 1.81772 -0.683575 0
M  V30 36625 O 3672.45 1.91944 0.314286 0
M  V30 36626 C 3672.74 1.67912 -3.18556 0
M  V30 36627 C 3672.59 0.770265 -4.43156 0
M  V30 36628 C 3673.91 2.64621 -3.51659 0
M  V30 36629 H 3671.03 0.320632 -0.663599 0
M  V30 36630 H 3673.67 0.152017 -1.89391 0
M  V30 36631 H 3671.82 2.30479 -3.12749 0
M  V30 36632 H 3673.49 0.157247 -4.61032 0
M  V30 36633 H 3671.74 0.0784891 -4.33729 0
M  V30 36634 H 3672.41 1.36083 -5.34963 0
M  V30 36635 H 3674.88 2.12179 -3.57938 0
M  V30 36636 H 3673.76 3.17183 -4.4798 0
M  V30 36637 H 3674.02 3.44957 -2.76509 0
M  V30 36638 N 3673.08 1.51417 0.437109 0
M  V30 36639 C 3673.99 1.75592 1.55578 0
M  V30 36640 C 3675 0.64016 1.61796 0
M  V30 36641 O 3676.18 0.922437 1.79034 0
M  V30 36642 C 3673.25 1.87603 2.91558 0
M  V30 36643 C 3672.31 3.11456 2.95455 0
M  V30 36644 C 3671.54 3.22885 4.24948 0
M  V30 36645 O 3671.76 2.40247 5.17337 0
M  V30 36646 O 3670.7 4.15864 4.35133 0
M  V30 36647 H 3674.52 2.70488 1.38093 0
M  V30 36648 H 3672.11 1.35921 0.620139 0
M  V30 36649 H 3673.99 1.97488 3.72259 0
M  V30 36650 H 3672.66 0.958944 3.0917 0
M  V30 36651 H 3671.57 3.0705 2.13708 0
M  V30 36652 H 3672.9 4.02855 2.82787 0
M  V30 36653 N 3674.56 -0.692567 1.41567 0
M  V30 36654 C 3675.52 -1.78821 1.43372 0
M  V30 36655 C 3676.52 -1.57504 0.323895 0
M  V30 36656 O 3677.71 -1.64122 0.583914 0
M  V30 36657 C 3674.84 -3.17233 1.24803 0
M  V30 36658 H 3676.03 -1.78613 2.40909 0
M  V30 36659 H 3673.59 -0.900486 1.27753 0
M  V30 36660 H 3674.32 -3.23079 0.281186 0
M  V30 36661 H 3674.11 -3.34108 2.05218 0
M  V30 36662 H 3675.6 -3.97206 1.28909 0
M  V30 36663 N 3676.03 -1.27445 -0.927123 0
M  V30 36664 C 3677 -1.1026 -2.00936 0
M  V30 36665 C 3678 -0.046418 -1.60733 0
M  V30 36666 O 3679.19 -0.29106 -1.71751 0
M  V30 36667 C 3676.32 -0.680173 -3.34046 0
M  V30 36668 H 3677.51 -2.06362 -2.17611 0
M  V30 36669 H 3675.07 -1.10241 -1.108 0
M  V30 36670 H 3675.8 0.282202 -3.2307 0
M  V30 36671 H 3675.59 -1.44298 -3.64583 0
M  V30 36672 H 3677.08 -0.582198 -4.13522 0
M  V30 36673 N 3677.51 1.1337 -1.09476 0
M  V30 36674 C 3678.42 2.22399 -0.746713 0
M  V30 36675 C 3679.44 1.72172 0.251542 0
M  V30 36676 O 3680.61 2.01186 0.0927577 0
M  V30 36677 C 3677.68 3.46268 -0.173026 0
M  V30 36678 C 3676.74 4.11383 -1.22729 0
M  V30 36679 C 3675.97 5.29339 -0.680887 0
M  V30 36680 O 3676.2 5.68239 0.496036 0
M  V30 36681 O 3675.13 5.84515 -1.43615 0
M  V30 36682 H 3678.96 2.54544 -1.65654 0
M  V30 36683 H 3676.54 1.21513 -0.869194 0
M  V30 36684 H 3678.42 4.21155 0.143555 0
M  V30 36685 H 3677.1 3.15822 0.709798 0
M  V30 36686 H 3676.01 3.3832 -1.59658 0
M  V30 36687 H 3677.34 4.45961 -2.08278 0
M  V30 36688 N 3678.99 0.882035 1.30606 0
M  V30 36689 C 3679.95 0.351537 2.26488 0
M  V30 36690 C 3680.95 -0.504321 1.52687 0
M  V30 36691 O 3682.14 -0.311898 1.71385 0
M  V30 36692 C 3679.28 -0.499376 3.37223 0
M  V30 36693 H 3680.47 1.19813 2.74927 0
M  V30 36694 H 3678.02 0.658641 1.41745 0
M  V30 36695 H 3678.76 -1.36668 2.94096 0
M  V30 36696 H 3678.54 0.113629 3.91935 0
M  V30 36697 H 3680.03 -0.862425 4.08598 0
M  V30 36698 N 3680.47 -1.439 0.642688 0
M  V30 36699 C 3681.42 -2.27869 -0.0774141 0
M  V30 36700 C 3682.4 -1.39314 -0.805003 0
M  V30 36701 O 3683.59 -1.63031 -0.689205 0
M  V30 36702 C 3680.72 -3.26835 -1.0504 0
M  V30 36703 C 3679.81 -4.22877 -0.321837 0
M  V30 36704 N 3680.2 -5.01529 0.65589 0
M  V30 36705 C 3678.5 -4.4241 -0.564722 0
M  V30 36706 C 3679.2 -5.71446 1.08739 0
M  V30 36707 N 3678.18 -5.41946 0.423795 0
M  V30 36708 H 3681.98 -2.86091 0.673001 0
M  V30 36709 H 3679.49 -1.55477 0.469115 0
M  V30 36710 H 3681.49 -3.85759 -1.58099 0
M  V30 36711 H 3680.15 -2.70174 -1.801 0
M  V30 36712 H 3681.16 -5.07469 1.03419 0
M  V30 36713 H 3677.84 -3.96833 -1.29729 0
M  V30 36714 H 3679.23 -6.446 1.8958 0
M  V30 36715 N 3681.95 -0.383945 -1.52852 0
M  V30 36716 C 3682.91 0.441648 -2.24905 0
M  V30 36717 C 3683.91 0.994638 -1.26347 0
M  V30 36718 O 3685.1 0.877486 -1.50485 0
M  V30 36719 C 3682.23 1.61909 -2.99997 0
M  V30 36720 H 3683.43 -0.1891 -2.99303 0
M  V30 36721 H 3680.98 -0.135959 -1.55708 0
M  V30 36722 H 3681.71 2.28742 -2.29886 0
M  V30 36723 H 3681.5 1.22933 -3.7233 0
M  V30 36724 H 3682.99 2.20372 -3.54719 0
M  V30 36725 N 3683.43 1.5719 -0.113614 0
M  V30 36726 C 3684.36 2.12089 0.868948 0
M  V30 36727 C 3685.37 1.06236 1.23361 0
M  V30 36728 O 3686.56 1.33625 1.18349 0
M  V30 36729 C 3683.66 2.60109 2.17247 0
M  V30 36730 C 3682.83 3.90002 1.98033 0
M  V30 36731 C 3681.89 4.23676 3.12065 0
M  V30 36732 O 3680.92 4.92586 2.85215 0
M  V30 36733 N 3682.12 3.80564 4.38351 0
M  V30 36734 H 3684.88 2.97019 0.399944 0
M  V30 36735 H 3682.45 1.61744 0.0709662 0
M  V30 36736 H 3684.44 2.7967 2.92518 0
M  V30 36737 H 3683.01 1.80089 2.55513 0
M  V30 36738 H 3682.23 3.79404 1.06986 0
M  V30 36739 H 3683.52 4.74946 1.82494 0
M  V30 36740 H 3682.91 3.24974 4.63042 0
M  V30 36741 H 3681.47 4.05243 5.10511 0
M  V30 36742 N 3684.9 -0.160146 1.56784 0
M  V30 36743 C 3685.84 -1.22289 1.9385 0
M  V30 36744 C 3686.85 -1.39885 0.832828 0
M  V30 36745 O 3688.04 -1.3969 1.11126 0
M  V30 36746 C 3685.14 -2.58985 2.18586 0
M  V30 36747 C 3684.31 -2.62541 3.49844 0
M  V30 36748 C 3683.37 -3.80681 3.63275 0
M  V30 36749 O 3682.4 -3.66162 4.35791 0
M  V30 36750 N 3683.6 -4.976 2.98956 0
M  V30 36751 H 3686.36 -0.907954 2.85616 0
M  V30 36752 H 3683.92 -0.349823 1.58075 0
M  V30 36753 H 3685.92 -3.36506 2.24825 0
M  V30 36754 H 3684.49 -2.82825 1.3315 0
M  V30 36755 H 3683.71 -1.71034 3.55163 0
M  V30 36756 H 3684.99 -2.61938 4.36195 0
M  V30 36757 H 3684.39 -5.12298 2.39933 0
M  V30 36758 H 3682.95 -5.72942 3.10775 0
M  V30 36759 N 3686.38 -1.51647 -0.429072 0
M  V30 36760 C 3687.31 -1.76508 -1.52863 0
M  V30 36761 C 3688.29 -0.615205 -1.58585 0
M  V30 36762 O 3689.48 -0.858772 -1.7418 0
M  V30 36763 C 3686.61 -1.89765 -2.90872 0
M  V30 36764 C 3685.56 -3.05252 -3.00008 0
M  V30 36765 C 3684.89 -3.03704 -4.40077 0
M  V30 36766 C 3686.19 -4.45073 -2.73327 0
M  V30 36767 H 3687.88 -2.68579 -1.3231 0
M  V30 36768 H 3685.43 -1.2924 -0.635069 0
M  V30 36769 H 3687.38 -2.05741 -3.67762 0
M  V30 36770 H 3686.1 -0.943497 -3.12675 0
M  V30 36771 H 3684.76 -2.88995 -2.2556 0
M  V30 36772 H 3684.41 -2.0605 -4.5886 0
M  V30 36773 H 3684.11 -3.8126 -4.47118 0
M  V30 36774 H 3685.64 -3.21784 -5.18929 0
M  V30 36775 H 3687.05 -4.61638 -3.39946 0
M  V30 36776 H 3685.45 -5.24396 -2.91768 0
M  V30 36777 H 3686.52 -4.54541 -1.68881 0
M  V30 36778 N 3687.86 0.685049 -1.41932 0
M  V30 36779 C 3689.11 1.44226 -1.41574 0
M  V30 36780 C 3689.43 1.94978 -0.0294787 0
M  V30 36781 O 3688.7 1.72397 0.930384 0
M  V30 36782 H 3687.28 0.535177 -0.521148 0
M  V30 36783 H 3689.94 0.810139 -1.77265 0
M  V30 36784 H 3689.04 2.3003 -2.10933 0
M  V30 36785 N 3689.34 1.27935 0.920351 0
M  V30 36786 C 3690.27 1.07093 2.02642 0
M  V30 36787 C 3691.28 0.0247027 1.62781 0
M  V30 36788 O 3692.47 0.267055 1.76491 0
M  V30 36789 C 3689.57 0.603978 3.33475 0
M  V30 36790 C 3688.74 1.72414 4.01985 0
M  V30 36791 C 3687.8 1.25168 5.11096 0
M  V30 36792 O 3686.83 1.95271 5.34657 0
M  V30 36793 N 3688.03 0.111299 5.80393 0
M  V30 36794 H 3690.8 2.02344 2.21082 0
M  V30 36795 H 3688.36 1.19599 1.09122 0
M  V30 36796 H 3690.35 0.27165 4.03787 0
M  V30 36797 H 3688.92 -0.255502 3.11554 0
M  V30 36798 H 3688.14 2.22639 3.25309 0
M  V30 36799 H 3689.43 2.47573 4.44505 0
M  V30 36800 H 3688.83 -0.473647 5.63714 0
M  V30 36801 H 3687.38 -0.161798 6.51599 0
M  V30 36802 N 3690.82 -1.12788 1.10076 0
M  V30 36803 C 3691.75 -2.20502 0.768184 0
M  V30 36804 C 3692.73 -1.68145 -0.25717 0
M  V30 36805 O 3693.91 -1.93805 -0.123756 0
M  V30 36806 C 3691.04 -3.46751 0.195186 0
M  V30 36807 C 3690 -4.12238 1.15081 0
M  V30 36808 C 3689.32 -5.32893 0.439191 0
M  V30 36809 C 3690.62 -4.58804 2.49593 0
M  V30 36810 H 3692.32 -2.48578 1.6688 0
M  V30 36811 H 3689.86 -1.19476 0.803827 0
M  V30 36812 H 3691.81 -4.21371 -0.0495954 0
M  V30 36813 H 3690.54 -3.18091 -0.740661 0
M  V30 36814 H 3689.2 -3.39595 1.38098 0
M  V30 36815 H 3688.85 -5.00499 -0.501008 0
M  V30 36816 H 3688.55 -5.77656 1.07643 0
M  V30 36817 H 3690.07 -6.10263 0.202868 0
M  V30 36818 H 3691.48 -5.24814 2.30745 0
M  V30 36819 H 3689.88 -5.14331 3.09166 0
M  V30 36820 H 3690.95 -3.72978 3.09863 0
M  V30 36821 N 3692.29 -0.888949 -1.30136 0
M  V30 36822 C 3693.26 -0.363544 -2.26298 0
M  V30 36823 C 3694.26 0.496217 -1.52952 0
M  V30 36824 O 3695.45 0.302804 -1.71548 0
M  V30 36825 C 3692.58 0.481485 -3.37483 0
M  V30 36826 H 3693.77 -1.2127 -2.74288 0
M  V30 36827 H 3691.32 -0.666149 -1.41394 0
M  V30 36828 H 3692.06 1.35107 -2.94816 0
M  V30 36829 H 3691.84 -0.134412 -3.9187 0
M  V30 36830 H 3693.33 0.840744 -4.09049 0
M  V30 36831 N 3693.77 1.43557 -0.65031 0
M  V30 36832 C 3694.7 2.33481 0.0295529 0
M  V30 36833 C 3695.68 1.49305 0.814991 0
M  V30 36834 O 3696.87 1.77976 0.777049 0
M  V30 36835 C 3694 3.32633 0.998625 0
M  V30 36836 C 3692.95 4.26776 0.323502 0
M  V30 36837 C 3692.28 5.15943 1.40382 0
M  V30 36838 C 3693.58 5.16408 -0.782288 0
M  V30 36839 H 3695.27 2.90579 -0.7214 0
M  V30 36840 H 3692.82 1.39723 -0.348363 0
M  V30 36841 H 3694.77 3.94438 1.48313 0
M  V30 36842 H 3693.49 2.73786 1.7807 0
M  V30 36843 H 3692.15 3.66331 -0.140532 0
M  V30 36844 H 3691.8 4.53436 2.17726 0
M  V30 36845 H 3691.5 5.79749 0.95736 0
M  V30 36846 H 3693.03 5.80621 1.88975 0
M  V30 36847 H 3694.44 5.72039 -0.380067 0
M  V30 36848 H 3692.84 5.88919 -1.15304 0
M  V30 36849 H 3693.91 4.56271 -1.64148 0
M  V30 36850 N 3695.25 0.392045 1.52646 0
M  V30 36851 C 3696.2 -0.456634 2.28074 0
M  V30 36852 C 3697.19 -1.06069 1.32082 0
M  V30 36853 O 3698.4 -1.00085 1.49609 0
M  V30 36854 H 3694.77 -0.166017 0.733446 0
M  V30 36855 H 3696.74 0.200968 2.97722 0
M  V30 36856 C 3695.49 -1.57035 3.10218 0
M  V30 36857 H 3694.82 -1.11486 3.83941 0
M  V30 36858 H 3696.26 -2.13834 3.6613 0
M  V30 36859 C 3694.71 -2.52795 2.22702 0
M  V30 36860 O 3695.24 -3.5627 1.85566 0
M  V30 36861 N 3693.45 -2.22601 1.86808 0
M  V30 36862 H 3693 -1.38488 2.17207 0
M  V30 36863 H 3692.96 -2.86922 1.28543 0
M  V30 36864 N 3696.73 -1.57127 0.121948 0
M  V30 36865 C 3697.66 -2.18487 -0.823749 0
M  V30 36866 C 3698.64 -1.12577 -1.27517 0
M  V30 36867 O 3699.82 -1.40824 -1.33724 0
M  V30 36868 C 3696.95 -2.78662 -2.07279 0
M  V30 36869 C 3695.91 -3.90181 -1.75905 0
M  V30 36870 C 3695.23 -4.37177 -3.07864 0
M  V30 36871 C 3696.53 -5.12142 -1.02508 0
M  V30 36872 H 3698.23 -2.97765 -0.312435 0
M  V30 36873 H 3695.77 -1.43229 -0.148837 0
M  V30 36874 H 3697.73 -3.20247 -2.73897 0
M  V30 36875 H 3696.45 -1.96678 -2.6074 0
M  V30 36876 H 3695.11 -3.49176 -1.11675 0
M  V30 36877 H 3694.76 -3.52048 -3.59265 0
M  V30 36878 H 3694.46 -5.12381 -2.87644 0
M  V30 36879 H 3695.98 -4.81415 -3.75595 0
M  V30 36880 H 3697.4 -5.50728 -1.59285 0
M  V30 36881 H 3695.79 -5.92948 -0.923732 0
M  V30 36882 H 3696.86 -4.84898 -0.0123366 0
M  V30 36883 N 3698.21 0.151829 -1.56867 0
M  V30 36884 C 3699.43 0.884314 -1.87602 0
M  V30 36885 C 3699.86 1.74167 -0.710449 0
M  V30 36886 O 3699.21 1.78082 0.340071 0
M  V30 36887 C 3699.26 1.72085 -3.1689 0
M  V30 36888 O 3698.37 2.82459 -3.00484 0
M  V30 36889 H 3697.71 0.246592 -0.616513 0
M  V30 36890 H 3700.24 0.144099 -2.04092 0
M  V30 36891 H 3700.25 2.11685 -3.48789 0
M  V30 36892 H 3698.92 1.09124 -4.01329 0
M  V30 36893 H 3697.5 2.46301 -2.79982 0
M  V30 36894 N 3699.68 1.51872 0.421024 0
M  V30 36895 C 3700.91 1.69467 1.19565 0
M  V30 36896 C 3701.33 0.398301 1.83835 0
M  V30 36897 O 3700.69 -0.643142 1.69509 0
M  V30 36898 C 3700.74 2.82325 2.24332 0
M  V30 36899 O 3699.84 2.47065 3.30201 0
M  V30 36900 H 3699.19 0.564533 0.349569 0
M  V30 36901 H 3701.72 1.98518 0.495142 0
M  V30 36902 H 3701.73 3.0689 2.68855 0
M  V30 36903 H 3700.4 3.76387 1.76934 0
M  V30 36904 H 3698.98 2.3313 2.91041 0
M  V30 36905 N 3701.16 -0.677513 1.42294 0
M  V30 36906 C 3702.41 -1.43332 1.41912 0
M  V30 36907 C 3702.72 -1.95563 0.0379854 0
M  V30 36908 O 3703.93 -2.71356 -0.088436 0
M  V30 36909 C 3702.39 -2.59271 2.49613 0
M  V30 36910 C 3701.99 -2.1375 3.93719 0
M  V30 36911 C 3703.74 -3.36798 2.58393 0
M  V30 36912 C 3701.65 -3.26756 4.92935 0
M  V30 36913 H 3700.58 -0.538451 0.527813 0
M  V30 36914 H 3703.23 -0.733762 1.68191 0
M  V30 36915 H 3701.61 -3.31581 2.16494 0
M  V30 36916 H 3702.78 -1.48611 4.36178 0
M  V30 36917 H 3701.1 -1.49168 3.88764 0
M  V30 36918 H 3703.69 -4.20955 3.29698 0
M  V30 36919 H 3704.04 -3.83207 1.6266 0
M  V30 36920 H 3704.57 -2.71556 2.90693 0
M  V30 36921 H 3701.31 -2.85341 5.90136 0
M  V30 36922 H 3700.83 -3.90686 4.5511 0
M  V30 36923 H 3702.51 -3.92264 5.14527 0
M  V30 36924 N 3702.64 -1.28421 -0.913554 0
M  V30 36925 C 3703.89 -1.14964 -1.65729 0
M  V30 36926 C 3704.2 0.301045 -1.93269 0
M  V30 36927 O 3705.41 0.556731 -2.65731 0
M  V30 36928 C 3703.86 -2.00975 -2.98559 0
M  V30 36929 C 3703.47 -3.50785 -2.78665 0
M  V30 36930 C 3705.22 -1.96205 -3.76436 0
M  V30 36931 C 3703.12 -4.28945 -4.07136 0
M  V30 36932 H 3702.05 -0.426659 -0.621673 0
M  V30 36933 H 3704.7 -1.52954 -1.01377 0
M  V30 36934 H 3703.09 -1.55841 -3.64046 0
M  V30 36935 H 3704.26 -4.03877 -2.21856 0
M  V30 36936 H 3702.58 -3.57082 -2.142 0
M  V30 36937 H 3705.17 -2.51869 -4.71663 0
M  V30 36938 H 3705.52 -0.938843 -4.05575 0
M  V30 36939 H 3706.05 -2.39308 -3.17768 0
M  V30 36940 H 3702.79 -5.31847 -3.83169 0
M  V30 36941 H 3702.31 -3.80627 -4.63555 0
M  V30 36942 H 3703.99 -4.38875 -4.75392 0
M  V30 36943 N 3704.12 1.12202 -1.10672 0
M  V30 36944 C 3705.05 2.20092 -0.779867 0
M  V30 36945 C 3706.03 1.68279 0.248249 0
M  V30 36946 O 3707.21 1.93868 0.113477 0
M  V30 36947 C 3704.34 3.46643 -0.213572 0
M  V30 36948 C 3703.3 4.11622 -1.17265 0
M  V30 36949 C 3702.62 5.32653 -0.467446 0
M  V30 36950 C 3703.92 4.57474 -2.52022 0
M  V30 36951 H 3705.62 2.4769 -1.68196 0
M  V30 36952 H 3703.16 1.19048 -0.810152 0
M  V30 36953 H 3705.12 4.21391 0.0272484 0
M  V30 36954 H 3703.84 3.18479 0.723781 0
M  V30 36955 H 3702.5 3.38857 -1.39897 0
M  V30 36956 H 3702.15 5.00757 0.474459 0
M  V30 36957 H 3701.85 5.77077 -1.10704 0
M  V30 36958 H 3703.37 6.10147 -0.235229 0
M  V30 36959 H 3704.79 5.23583 -2.33525 0
M  V30 36960 H 3703.18 5.12684 -3.11889 0
M  V30 36961 H 3704.25 3.7133 -3.11837 0
M  V30 36962 N 3705.6 0.895838 1.29663 0
M  V30 36963 C 3706.87 0.439427 1.906 0
M  V30 36964 C 3707.25 -1.08065 1.81343 0
M  V30 36965 O 3706.6 -1.9208 1.23765 0
M  V30 36966 C 3706.81 0.949681 3.3583 0
M  V30 36967 C 3708.16 0.991088 4.12871 0
M  V30 36968 O 3709.18 0.897085 3.44718 0
M  V30 36969 O 3708.04 1.1317 5.34654 0
M  V30 36970 H 3705.14 0.136318 0.815688 0
M  V30 36971 H 3707.68 0.98545 1.38156 0
M  V30 36972 H 3706.45 1.99363 3.36705 0
M  V30 36973 H 3706.08 0.383445 3.95747 0
M  V30 36974 N 3707.07 -1.43211 0.657914 0
M  V30 36975 C 3708.32 -2.02057 0.173479 0
M  V30 36976 C 3708.65 -1.51813 -1.21105 0
M  V30 36977 O 3707.93 -0.713201 -1.80952 0
M  V30 36978 C 3708.21 -3.59601 0.189492 0
M  V30 36979 C 3708.06 -4.20065 1.60827 0
M  V30 36980 C 3709.38 -4.37566 -0.471556 0
M  V30 36981 H 3706.5 -0.734171 0.0645128 0
M  V30 36982 H 3709.14 -1.70448 0.839492 0
M  V30 36983 H 3707.29 -3.8666 -0.377621 0
M  V30 36984 H 3708.97 -4.0402 2.22634 0
M  V30 36985 H 3707.21 -3.76536 2.15413 0
M  V30 36986 H 3707.88 -5.29164 1.5713 0
M  V30 36987 H 3710.36 -4.16099 0.0110119 0
M  V30 36988 H 3709.23 -5.47216 -0.429643 0
M  V30 36989 H 3709.49 -4.14171 -1.54645 0
M  V30 36990 N 3708.55 -0.400135 -1.52436 0
M  V30 36991 C 3709.5 0.444532 -2.28313 0
M  V30 36992 C 3710.49 1.05367 -1.32643 0
M  V30 36993 O 3711.7 0.992904 -1.50138 0
M  V30 36994 H 3708.08 0.162125 -0.734316 0
M  V30 36995 H 3710.05 -0.216754 -2.97612 0
M  V30 36996 C 3708.8 1.55387 -3.11047 0
M  V30 36997 H 3708.12 1.09448 -3.84527 0
M  V30 36998 H 3709.56 2.11889 -3.67259 0
M  V30 36999 C 3708.02 2.5161 -2.2404 0
M  V30 37000 O 3708.55 3.5528 -1.87453 0
M  V30 37001 N 3706.75 2.21607 -1.87986 0
M  V30 37002 H 3706.3 1.37335 -2.17938 0
M  V30 37003 H 3706.26 2.86236 -1.30063 0
M  V30 37004 N 3710.03 1.57061 -0.13028 0
M  V30 37005 C 3710.96 2.12999 0.846404 0
M  V30 37006 C 3711.98 1.07538 1.22227 0
M  V30 37007 O 3713.16 1.34873 1.16925 0
M  V30 37008 C 3710.26 2.62399 2.14476 0
M  V30 37009 C 3709.44 3.92081 1.93885 0
M  V30 37010 C 3708.5 4.26962 3.07554 0
M  V30 37011 O 3707.52 4.95583 2.79975 0
M  V30 37012 N 3708.72 3.85191 4.3429 0
M  V30 37013 H 3711.49 2.97427 0.368419 0
M  V30 37014 H 3709.05 1.61811 0.0538071 0
M  V30 37015 H 3711.04 2.82757 2.89535 0
M  V30 37016 H 3709.61 1.82789 2.53588 0
M  V30 37017 H 3708.83 3.80518 1.02956 0
M  V30 37018 H 3710.12 4.76855 1.77446 0
M  V30 37019 H 3709.52 3.29867 4.5957 0
M  V30 37020 H 3708.08 4.10635 5.06184 0
M  V30 37021 N 3711.51 -0.143508 1.56945 0
M  V30 37022 C 3712.79 -0.884423 1.74463 0
M  V30 37023 C 3713.17 -1.99183 0.699236 0
M  V30 37024 O 3712.51 -2.26763 -0.281227 0
M  V30 37025 C 3712.72 -1.42367 3.18642 0
M  V30 37026 C 3714.07 -1.88571 3.80429 0
M  V30 37027 O 3715.1 -1.52101 3.22093 0
M  V30 37028 O 3713.96 -2.55838 4.82917 0
M  V30 37029 H 3711.05 -0.418208 0.713464 0
M  V30 37030 H 3713.6 -0.12916 1.69208 0
M  V30 37031 H 3712.37 -0.627988 3.86228 0
M  V30 37032 H 3711.99 -2.24234 3.28336 0
M  V30 37033 N 3712.99 -1.52093 -0.412964 0
M  V30 37034 C 3714.4 -1.40811 -0.7513 0
M  V30 37035 C 3714.6 -0.509577 -1.9495 0
M  V30 37036 O 3713.66 0.0260876 -2.52487 0
M  V30 37037 C 3714.97 -2.83272 -1.00883 0
M  V30 37038 C 3716.52 -2.92589 -1.11178 0
M  V30 37039 C 3717 -4.36011 -1.40209 0
M  V30 37040 N 3718.49 -4.39228 -1.47082 0
M  V30 37041 C 3719.22 -5.47257 -1.71164 0
M  V30 37042 N 3718.72 -6.6541 -1.92876 0
M  V30 37043 N 3720.51 -5.34768 -1.73147 0
M  V30 37044 H 3712.66 -2.09049 0.375811 0
M  V30 37045 H 3714.92 -0.942074 0.105833 0
M  V30 37046 H 3714.63 -3.51126 -0.200811 0
M  V30 37047 H 3714.5 -3.24083 -1.93002 0
M  V30 37048 H 3716.89 -2.24918 -1.91039 0
M  V30 37049 H 3716.97 -2.55241 -0.169033 0
M  V30 37050 H 3716.62 -5.0424 -0.608665 0
M  V30 37051 H 3716.55 -4.70892 -2.35729 0
M  V30 37052 H 3719.04 -3.54056 -1.32108 0
M  V30 37053 H 3719.35 -7.43525 -2.1069 0
M  V30 37054 H 3717.7 -6.68482 -1.90148 0
M  V30 37055 H 3720.89 -4.41439 -1.55721 0
M  V30 37056 H 3721.06 -6.19033 -1.91576 0
M  V30 37057 N 3714.47 0.669957 -1.42651 0
M  V30 37058 C 3715.4 1.79531 -1.49301 0
M  V30 37059 C 3716.38 1.66478 -0.349139 0
M  V30 37060 O 3717.56 1.85827 -0.564105 0
M  V30 37061 C 3714.69 3.17858 -1.3994 0
M  V30 37062 C 3713.65 3.45653 -2.52404 0
M  V30 37063 C 3712.97 4.83606 -2.281 0
M  V30 37064 C 3714.27 3.42063 -3.94703 0
M  V30 37065 H 3715.97 1.74223 -2.43489 0
M  V30 37066 H 3713.51 0.836775 -1.17192 0
M  V30 37067 H 3715.46 3.96323 -1.432 0
M  V30 37068 H 3714.19 3.23856 -0.422493 0
M  V30 37069 H 3712.85 2.69552 -2.4847 0
M  V30 37070 H 3712.5 4.86259 -1.28691 0
M  V30 37071 H 3712.2 5.03165 -3.03478 0
M  V30 37072 H 3713.72 5.64348 -2.33117 0
M  V30 37073 H 3715.13 4.10489 -4.00214 0
M  V30 37074 H 3713.53 3.73158 -4.69972 0
M  V30 37075 H 3714.6 2.40547 -4.21029 0
M  V30 37076 N 3715.94 1.28904 0.90673 0
M  V30 37077 C 3717.17 1.19336 1.69017 0
M  V30 37078 C 3717.59 -0.247032 1.87177 0
M  V30 37079 O 3716.94 -1.16621 1.40378 0
M  V30 37080 C 3716.99 1.895 3.07851 0
M  V30 37081 O 3716.72 3.27913 2.90525 0
M  V30 37082 C 3718.22 1.86321 4.02243 0
M  V30 37083 H 3715.44 0.413931 0.528112 0
M  V30 37084 H 3717.98 1.70153 1.13438 0
M  V30 37085 H 3716.14 1.42536 3.60225 0
M  V30 37086 H 3716.55 3.63153 3.78445 0
M  V30 37087 H 3718.02 2.39992 4.97099 0
M  V30 37088 H 3718.5 0.837147 4.31148 0
M  V30 37089 H 3719.11 2.32997 3.55799 0
M  V30 37090 N 3717.42 -1.11614 1.11266 0
M  V30 37091 C 3718.35 -2.17359 0.727156 0
M  V30 37092 C 3719.37 -1.61016 -0.240328 0
M  V30 37093 O 3720.56 -1.78485 -0.0234952 0
M  V30 37094 C 3717.66 -3.38858 0.0536696 0
M  V30 37095 C 3716.83 -4.24672 1.04751 0
M  V30 37096 C 3715.89 -5.24647 0.403919 0
M  V30 37097 O 3714.91 -5.59294 1.0573 0
M  V30 37098 N 3716.12 -5.74478 -0.83397 0
M  V30 37099 H 3718.88 -2.51043 1.637 0
M  V30 37100 H 3716.44 -1.27118 1.00263 0
M  V30 37101 H 3718.43 -4.0283 -0.388572 0
M  V30 37102 H 3717 -3.03253 -0.758725 0
M  V30 37103 H 3716.22 -3.57182 1.66776 0
M  V30 37104 H 3717.51 -4.78847 1.71996 0
M  V30 37105 H 3716.91 -5.48509 -1.38401 0
M  V30 37106 H 3715.47 -6.40295 -1.21922 0
M  V30 37107 N 3718.9 -0.902701 -1.29186 0
M  V30 37108 C 3720.32 -0.599235 -1.47923 0
M  V30 37109 C 3720.52 0.858462 -1.82298 0
M  V30 37110 O 3719.57 1.63841 -1.92126 0
M  V30 37111 C 3720.88 -1.52764 -2.59005 0
M  V30 37112 C 3722.43 -1.53316 -2.72879 0
M  V30 37113 C 3722.91 -2.44792 -3.87093 0
M  V30 37114 N 3724.4 -2.42856 -3.9443 0
M  V30 37115 C 3725.13 -3.10338 -4.82159 0
M  V30 37116 N 3724.63 -3.87111 -5.74558 0
M  V30 37117 N 3726.42 -2.99481 -4.75676 0
M  V30 37118 H 3718.57 -1.84546 -1.05151 0
M  V30 37119 H 3720.84 -0.790933 -0.522618 0
M  V30 37120 H 3720.54 -2.56638 -2.40478 0
M  V30 37121 H 3720.42 -1.25042 -3.55871 0
M  V30 37122 H 3722.8 -0.501855 -2.90801 0
M  V30 37123 H 3722.88 -1.85077 -1.76579 0
M  V30 37124 H 3722.53 -3.48019 -3.69926 0
M  V30 37125 H 3722.46 -2.10339 -4.82768 0
M  V30 37126 H 3724.95 -1.8708 -3.28344 0
M  V30 37127 H 3725.26 -4.3565 -6.38302 0
M  V30 37128 H 3723.61 -3.91217 -5.74434 0
M  V30 37129 H 3726.8 -2.39016 -4.02478 0
M  V30 37130 H 3726.97 -3.52347 -5.43834 0
M  V30 37131 N 3720.38 1.4286 -0.6655 0
M  V30 37132 C 3721.34 2.29198 0.00928322 0
M  V30 37133 C 3722.34 1.42847 0.738331 0
M  V30 37134 O 3723.53 1.64341 0.577731 0
M  V30 37135 C 3720.66 3.25161 1.02386 0
M  V30 37136 H 3721.86 2.90357 -0.750532 0
M  V30 37137 H 3719.41 1.50344 -0.42736 0
M  V30 37138 H 3720.14 2.68922 1.81249 0
M  V30 37139 H 3719.93 3.8884 0.504603 0
M  V30 37140 H 3721.42 3.89933 1.49472 0
M  V30 37141 N 3721.86 0.408213 1.52221 0
M  V30 37142 C 3723.1 -0.169217 2.00989 0
M  V30 37143 C 3723.42 -1.46302 1.29827 0
M  V30 37144 O 3724.62 -2.12165 1.69406 0
M  V30 37145 C 3723.08 -0.352116 3.58173 0
M  V30 37146 C 3722.69 0.929545 4.3825 0
M  V30 37147 C 3724.43 -0.884887 4.15175 0
M  V30 37148 C 3722.34 0.713885 5.87076 0
M  V30 37149 H 3721.27 -0.0670129 0.751016 0
M  V30 37150 H 3723.92 0.533518 1.75573 0
M  V30 37151 H 3722.3 -1.11716 3.79915 0
M  V30 37152 H 3723.48 1.70067 4.28269 0
M  V30 37153 H 3721.79 1.38866 3.92562 0
M  V30 37154 H 3724.39 -1.06225 5.24042 0
M  V30 37155 H 3724.73 -1.85932 3.72472 0
M  V30 37156 H 3725.26 -0.178926 3.97397 0
M  V30 37157 H 3722 1.65985 6.34137 0
M  V30 37158 H 3721.52 -0.0179577 5.99797 0
M  V30 37159 H 3723.2 0.35571 6.46021 0
M  V30 37160 N 3723.33 -1.56989 0.138607 0
M  V30 37161 C 3724.24 -2.19895 -0.817509 0
M  V30 37162 C 3725.26 -1.18077 -1.27804 0
M  V30 37163 O 3726.44 -1.50622 -1.33697 0
M  V30 37164 C 3723.5 -2.80156 -2.04239 0
M  V30 37165 C 3722.56 -3.97074 -1.6319 0
M  V30 37166 C 3721.79 -4.54451 -2.79839 0
M  V30 37167 O 3722.02 -4.1071 -3.9582 0
M  V30 37168 O 3720.95 -5.44842 -2.55794 0
M  V30 37169 H 3724.78 -3.02092 -0.31207 0
M  V30 37170 H 3722.36 -1.49141 -0.0880018 0
M  V30 37171 H 3724.24 -3.1849 -2.75939 0
M  V30 37172 H 3722.92 -2.00977 -2.53751 0
M  V30 37173 H 3721.83 -3.63472 -0.885385 0
M  V30 37174 H 3723.16 -4.77747 -1.18401 0
M  V30 37175 N 3724.81 0.135183 -1.57019 0
M  V30 37176 C 3725.77 1.15053 -1.98231 0
M  V30 37177 C 3726.77 1.35211 -0.870319 0
M  V30 37178 O 3727.96 1.32003 -1.1367 0
M  V30 37179 C 3725.1 2.50842 -2.30849 0
M  V30 37180 H 3726.29 0.796694 -2.89124 0
M  V30 37181 H 3723.84 0.378936 -1.51637 0
M  V30 37182 H 3724.58 2.91176 -1.42784 0
M  V30 37183 H 3724.36 2.37569 -3.11935 0
M  V30 37184 H 3725.85 3.23948 -2.63529 0
M  V30 37185 N 3726.29 1.5231 0.404892 0
M  V30 37186 C 3727.52 1.70725 1.17761 0
M  V30 37187 C 3727.94 0.417777 1.83402 0
M  V30 37188 O 3727.3 -0.625127 1.70182 0
M  V30 37189 C 3727.35 2.84689 2.21325 0
M  V30 37190 O 3726.45 2.50553 3.27562 0
M  V30 37191 H 3725.79 0.568209 0.343562 0
M  V30 37192 H 3728.32 1.99032 0.474058 0
M  V30 37193 H 3728.33 3.09724 2.65584 0
M  V30 37194 H 3727.01 3.78242 1.72932 0
M  V30 37195 H 3725.58 2.36204 2.88552 0
M  V30 37196 N 3727.77 -0.662382 1.43004 0
M  V30 37197 C 3728.72 -1.79683 1.47704 0
M  V30 37198 C 3729.71 -1.65713 0.35152 0
M  V30 37199 O 3730.92 -1.72171 0.525101 0
M  V30 37200 H 3727.29 -0.592675 0.46286 0
M  V30 37201 H 3729.26 -1.72839 2.43248 0
M  V30 37202 C 3728.01 -3.17901 1.40834 0
M  V30 37203 H 3727.33 -3.29284 2.26742 0
M  V30 37204 H 3728.77 -3.97262 1.48184 0
M  V30 37205 C 3727.23 -3.36669 0.124718 0
M  V30 37206 O 3727.76 -3.93291 -0.81762 0
M  V30 37207 N 3725.97 -2.90575 0.0378574 0
M  V30 37208 H 3725.52 -2.44682 0.805499 0
M  V30 37209 H 3725.47 -3.0351 -0.820324 0
M  V30 37210 N 3729.25 -1.29383 -0.899882 0
M  V30 37211 C 3730.21 -1.14498 -1.98552 0
M  V30 37212 C 3731.21 -0.0805014 -1.60598 0
M  V30 37213 O 3732.4 -0.327425 -1.71095 0
M  V30 37214 C 3729.53 -0.750876 -3.32528 0
M  V30 37215 H 3730.72 -2.10931 -2.13185 0
M  V30 37216 H 3728.28 -1.12567 -1.08436 0
M  V30 37217 H 3729.01 0.213611 -3.23596 0
M  V30 37218 H 3728.8 -1.51999 -3.6144 0
M  V30 37219 H 3730.29 -0.669781 -4.12194 0
M  V30 37220 N 3730.72 1.11022 -1.11856 0
M  V30 37221 C 3731.95 1.86378 -0.891452 0
M  V30 37222 C 3732.36 1.80645 0.562485 0
M  V30 37223 O 3731.71 1.18895 1.40035 0
M  V30 37224 C 3731.77 3.35928 -1.28035 0
M  V30 37225 C 3731.43 3.65425 -2.74434 0
M  V30 37226 C 3732.43 3.62538 -3.72642 0
M  V30 37227 C 3730.11 3.94293 -3.11189 0
M  V30 37228 C 3732.11 3.88104 -5.05622 0
M  V30 37229 C 3729.79 4.19516 -4.44353 0
M  V30 37230 C 3730.79 4.16411 -5.41379 0
M  V30 37231 O 3730.48 4.40997 -6.72143 0
M  V30 37232 H 3730.21 0.596094 -0.318823 0
M  V30 37233 H 3732.77 1.41304 -1.49071 0
M  V30 37234 H 3731 3.81628 -0.624253 0
M  V30 37235 H 3732.69 3.92658 -1.02834 0
M  V30 37236 H 3733.45 3.40281 -3.45592 0
M  V30 37237 H 3729.33 3.95844 -2.36281 0
M  V30 37238 H 3732.87 3.85596 -5.81345 0
M  V30 37239 H 3728.77 4.41251 -4.71135 0
M  V30 37240 H 3729.54 4.58543 -6.77997 0
M  V30 37241 N 3732.2 0.90954 1.28706 0
M  V30 37242 C 3733.43 0.555593 1.9982 0
M  V30 37243 C 3733.85 -0.854902 1.6755 0
M  V30 37244 O 3733.21 -1.57065 0.905549 0
M  V30 37245 C 3733.26 0.7665 3.52359 0
M  V30 37246 O 3732.36 -0.176467 4.12022 0
M  V30 37247 H 3731.7 0.215916 0.627914 0
M  V30 37248 H 3734.23 1.22382 1.63962 0
M  V30 37249 H 3734.24 0.674965 4.02378 0
M  V30 37250 H 3732.92 1.79477 3.75181 0
M  V30 37251 H 3731.5 -0.0365561 3.72882 0
M  V30 37252 N 3733.68 -1.42505 0.673067 0
M  V30 37253 C 3735.1 -1.55883 0.342456 0
M  V30 37254 C 3735.3 -1.65304 -1.15226 0
M  V30 37255 O 3734.35 -1.61901 -1.93764 0
M  V30 37256 C 3735.67 -2.80971 1.07125 0
M  V30 37257 C 3737.21 -2.94741 1.05341 0
M  V30 37258 C 3737.69 -4.22688 1.76349 0
M  V30 37259 N 3739.18 -4.29596 1.73209 0
M  V30 37260 C 3739.91 -5.27407 2.25009 0
M  V30 37261 N 3739.41 -6.31381 2.85184 0
M  V30 37262 N 3741.2 -5.19193 2.15394 0
M  V30 37263 H 3733.35 -1.34633 1.64279 0
M  V30 37264 H 3735.62 -0.647956 0.691995 0
M  V30 37265 H 3735.32 -2.80142 2.12635 0
M  V30 37266 H 3735.2 -3.7181 0.635379 0
M  V30 37267 H 3737.58 -2.95099 0.00664856 0
M  V30 37268 H 3737.67 -2.05137 1.52814 0
M  V30 37269 H 3737.31 -4.23091 2.80992 0
M  V30 37270 H 3737.24 -5.11223 1.26326 0
M  V30 37271 H 3739.73 -3.55086 1.29316 0
M  V30 37272 H 3740.04 -7.02367 3.22335 0
M  V30 37273 H 3738.39 -6.31947 2.89253 0
M  V30 37274 H 3741.58 -4.36886 1.68073 0
M  V30 37275 H 3741.75 -5.95258 2.5607 0
M  V30 37276 N 3735.16 -0.41628 -1.52003 0
M  V30 37277 C 3736.41 0.158555 -2.01076 0
M  V30 37278 C 3736.72 1.45612 -1.30601 0
M  V30 37279 O 3737.93 2.11264 -1.70528 0
M  V30 37280 C 3736.38 0.333116 -3.58355 0
M  V30 37281 C 3735.99 -0.952773 -4.37751 0
M  V30 37282 C 3737.73 0.862857 -4.15638 0
M  V30 37283 C 3735.64 -0.745009 -5.86689 0
M  V30 37284 H 3734.57 0.0630291 -0.751361 0
M  V30 37285 H 3737.22 -0.542822 -1.75287 0
M  V30 37286 H 3735.6 1.097 -3.80502 0
M  V30 37287 H 3736.78 -1.72335 -4.27361 0
M  V30 37288 H 3735.09 -1.40946 -3.9182 0
M  V30 37289 H 3737.69 1.03445 -5.24598 0
M  V30 37290 H 3738.03 1.83954 -3.73452 0
M  V30 37291 H 3738.57 0.157848 -3.97487 0
M  V30 37292 H 3735.31 -1.69346 -6.33247 0
M  V30 37293 H 3734.83 -0.0138512 -5.99798 0
M  V30 37294 H 3736.5 -0.389965 -6.45824 0
M  V30 37295 N 3736.64 1.56914 -0.146931 0
M  V30 37296 C 3737.57 2.1977 0.788886 0
M  V30 37297 C 3738.55 1.14591 1.2571 0
M  V30 37298 O 3739.73 1.42934 1.31467 0
M  V30 37299 C 3736.86 2.81925 2.02819 0
M  V30 37300 C 3735.82 3.9293 1.69676 0
M  V30 37301 C 3735.14 4.4202 3.0087 0
M  V30 37302 C 3736.44 5.13708 0.943469 0
M  V30 37303 H 3738.14 2.98225 0.265024 0
M  V30 37304 H 3735.68 1.43447 0.126032 0
M  V30 37305 H 3737.64 3.24564 2.68768 0
M  V30 37306 H 3736.36 2.00801 2.57578 0
M  V30 37307 H 3735.02 3.50909 1.06106 0
M  V30 37308 H 3734.67 3.57719 3.53619 0
M  V30 37309 H 3734.37 5.16892 2.79457 0
M  V30 37310 H 3735.89 4.8733 3.67889 0
M  V30 37311 H 3737.3 5.53192 1.50504 0
M  V30 37312 H 3735.7 5.94342 0.829282 0
M  V30 37313 H 3736.77 4.84857 -0.0648081 0
M  V30 37314 N 3738.11 -0.126854 1.57089 0
M  V30 37315 C 3739.05 -1.1815 1.96401 0
M  V30 37316 C 3740.06 -1.38087 0.862312 0
M  V30 37317 O 3741.25 -1.37301 1.14064 0
M  V30 37318 C 3738.35 -2.54291 2.2403 0
M  V30 37319 C 3737.52 -2.55062 3.55334 0
M  V30 37320 C 3736.58 -3.7289 3.71268 0
M  V30 37321 O 3735.61 -3.56836 4.4346 0
M  V30 37322 N 3736.81 -4.91146 3.09444 0
M  V30 37323 H 3739.57 -0.847166 2.87477 0
M  V30 37324 H 3737.13 -0.316214 1.58782 0
M  V30 37325 H 3739.13 -3.31661 2.31912 0
M  V30 37326 H 3737.7 -2.79937 1.39119 0
M  V30 37327 H 3736.92 -1.63462 3.58711 0
M  V30 37328 H 3738.2 -2.52626 4.41653 0
M  V30 37329 H 3737.6 -5.07093 2.50745 0
M  V30 37330 H 3736.16 -5.66221 3.22858 0
M  V30 37331 N 3739.59 -1.52523 -0.396809 0
M  V30 37332 C 3740.56 -1.76108 -1.46692 0
M  V30 37333 C 3741.56 -0.631031 -1.47901 0
M  V30 37334 O 3742.75 -0.899021 -1.49209 0
M  V30 37335 C 3739.88 -1.85472 -2.8603 0
M  V30 37336 H 3741.07 -2.71651 -1.27066 0
M  V30 37337 H 3738.62 -1.43126 -0.628071 0
M  V30 37338 H 3739.36 -0.91887 -3.1101 0
M  V30 37339 H 3739.14 -2.67636 -2.86554 0
M  V30 37340 H 3740.63 -2.05419 -3.63583 0
M  V30 37341 N 3741.07 0.654789 -1.43354 0
M  V30 37342 C 3742.32 1.4168 -1.45102 0
M  V30 37343 C 3742.65 1.94057 -0.0744205 0
M  V30 37344 O 3741.93 1.7219 0.904484 0
M  V30 37345 C 3742.21 2.59937 -2.49209 0
M  V30 37346 C 3742.06 2.13062 -3.96137 0
M  V30 37347 C 3743.38 3.62151 -2.5007 0
M  V30 37348 H 3740.5 0.513826 -0.528348 0
M  V30 37349 H 3743.14 0.742458 -1.74893 0
M  V30 37350 H 3741.29 3.17466 -2.23936 0
M  V30 37351 H 3742.96 1.60545 -4.32462 0
M  V30 37352 H 3741.21 1.44448 -4.09044 0
M  V30 37353 H 3741.88 2.98093 -4.64591 0
M  V30 37354 H 3744.35 3.14377 -2.72592 0
M  V30 37355 H 3743.23 4.42447 -3.24857 0
M  V30 37356 H 3743.49 4.14636 -1.53392 0
M  V30 37357 N 3742.55 1.29858 0.893007 0
M  V30 37358 C 3743.48 1.11367 2.00325 0
M  V30 37359 C 3744.49 0.0592254 1.62692 0
M  V30 37360 O 3745.68 0.304431 1.75885 0
M  V30 37361 C 3742.78 0.674577 3.32118 0
M  V30 37362 C 3741.96 1.80902 3.98238 0
M  V30 37363 C 3741.02 1.35981 5.08326 0
M  V30 37364 O 3740.04 2.06568 5.30395 0
M  V30 37365 N 3741.24 0.234384 5.80027 0
M  V30 37366 H 3744.01 2.06988 2.1674 0
M  V30 37367 H 3741.57 1.21887 1.06561 0
M  V30 37368 H 3743.56 0.357238 4.0312 0
M  V30 37369 H 3742.13 -0.189359 3.12026 0
M  V30 37370 H 3741.35 2.29489 3.20513 0
M  V30 37371 H 3742.64 2.56946 4.39154 0
M  V30 37372 H 3742.04 -0.353969 5.64591 0
M  V30 37373 H 3740.59 -0.0235477 6.51796 0
M  V30 37374 N 3744.03 -1.10427 1.12443 0
M  V30 37375 C 3744.99 -2.14953 0.795481 0
M  V30 37376 C 3745.99 -1.59671 -0.190192 0
M  V30 37377 O 3747.18 -1.74164 0.0356103 0
M  V30 37378 C 3744.31 -3.40413 0.182103 0
M  V30 37379 H 3745.51 -2.45564 1.72158 0
M  V30 37380 H 3743.06 -1.25792 0.927695 0
M  V30 37381 H 3743.79 -3.1542 -0.753711 0
M  V30 37382 H 3743.58 -3.81824 0.891776 0
M  V30 37383 H 3745.07 -4.17588 -0.0315552 0
M  V30 37384 N 3745.51 -0.916353 -1.28221 0
M  V30 37385 C 3746.47 -0.411463 -2.25476 0
M  V30 37386 C 3747.47 0.463662 -1.5397 0
M  V30 37387 O 3748.66 0.266348 -1.72152 0
M  V30 37388 C 3745.79 0.409791 -3.38428 0
M  V30 37389 H 3746.98 -1.2706 -2.71654 0
M  V30 37390 H 3744.54 -0.695991 -1.39949 0
M  V30 37391 H 3745.27 1.28823 -2.97616 0
M  V30 37392 H 3745.06 -0.217504 -3.91496 0
M  V30 37393 H 3746.55 0.75379 -4.10741 0
M  V30 37394 N 3746.98 1.42146 -0.680615 0
M  V30 37395 C 3747.89 2.34599 -0.00599697 0
M  V30 37396 C 3748.91 1.55412 0.7825 0
M  V30 37397 O 3750.09 1.87956 0.723491 0
M  V30 37398 C 3747.15 3.34006 0.929581 0
M  V30 37399 C 3746.21 4.29088 0.134966 0
M  V30 37400 C 3745.44 5.23745 1.02598 0
M  V30 37401 O 3745.67 5.23479 2.26552 0
M  V30 37402 O 3744.6 5.99954 0.483669 0
M  V30 37403 H 3748.43 2.93837 -0.767704 0
M  V30 37404 H 3746.01 1.42747 -0.440874 0
M  V30 37405 H 3747.89 3.95059 1.4665 0
M  V30 37406 H 3746.57 2.77233 1.67104 0
M  V30 37407 H 3745.48 3.7143 -0.446195 0
M  V30 37408 H 3746.81 4.88917 -0.567503 0
M  V30 37409 N 3748.46 0.424336 1.5178 0
M  V30 37410 C 3749.74 -0.205756 1.94515 0
M  V30 37411 C 3750.12 -1.61266 1.36222 0
M  V30 37412 O 3749.47 -2.21928 0.544058 0
M  V30 37413 C 3749.68 -0.196688 3.48445 0
M  V30 37414 C 3751.02 -0.408628 4.22629 0
M  V30 37415 O 3752.05 -0.275379 3.55134 0
M  V30 37416 O 3750.91 -0.672603 5.42345 0
M  V30 37417 H 3748 -0.136968 0.815579 0
M  V30 37418 H 3750.55 0.481377 1.62729 0
M  V30 37419 H 3749.32 0.78741 3.83296 0
M  V30 37420 H 3748.94 -0.927282 3.86636 0
M  V30 37421 N 3749.94 -1.56833 0.15525 0
M  V30 37422 C 3750.9 -2.15977 -0.767228 0
M  V30 37423 C 3751.9 -1.10366 -1.16944 0
M  V30 37424 O 3753.09 -1.35963 -1.08902 0
M  V30 37425 C 3750.22 -2.72959 -2.04221 0
M  V30 37426 H 3751.42 -2.98834 -0.252609 0
M  V30 37427 H 3748.97 -1.56016 -0.0942403 0
M  V30 37428 H 3749.71 -1.93791 -2.6003 0
M  V30 37429 H 3749.49 -3.50233 -1.76293 0
M  V30 37430 H 3750.98 -3.185 -2.70088 0
M  V30 37431 N 3751.42 0.118521 -1.57154 0
M  V30 37432 C 3752.38 1.12944 -1.9944 0
M  V30 37433 C 3753.38 1.34281 -0.884611 0
M  V30 37434 O 3754.57 1.3079 -1.15064 0
M  V30 37435 C 3751.7 2.4838 -2.33496 0
M  V30 37436 H 3752.9 0.765983 -2.89953 0
M  V30 37437 H 3750.45 0.362831 -1.5203 0
M  V30 37438 H 3751.18 2.89645 -1.45864 0
M  V30 37439 H 3750.97 2.34247 -3.14437 0
M  V30 37440 H 3752.46 3.21134 -2.6695 0
M  V30 37441 N 3752.9 1.52731 0.388715 0
M  V30 37442 C 3754.14 1.67457 1.13148 0
M  V30 37443 C 3754.46 0.417128 1.90486 0
M  V30 37444 O 3753.73 -0.568476 1.8747 0
M  V30 37445 H 3752.31 0.617276 0.420689 0
M  V30 37446 H 3754.98 1.89846 0.440947 0
M  V30 37447 H 3754.07 2.52513 1.83423 0
M  V30 37448 N 3754.37 -0.647178 1.43699 0
M  V30 37449 C 3755.31 -1.7726 1.45299 0
M  V30 37450 C 3756.32 -1.5903 0.348338 0
M  V30 37451 O 3757.51 -1.67639 0.613136 0
M  V30 37452 C 3754.61 -3.1477 1.2559 0
M  V30 37453 C 3753.78 -3.59605 2.49005 0
M  V30 37454 C 3752.84 -4.75938 2.24431 0
M  V30 37455 O 3751.87 -4.85068 2.97821 0
M  V30 37456 N 3753.07 -5.66555 1.26475 0
M  V30 37457 H 3755.83 -1.76364 2.42314 0
M  V30 37458 H 3753.39 -0.831222 1.38933 0
M  V30 37459 H 3755.39 -3.90292 1.07023 0
M  V30 37460 H 3753.96 -3.10403 0.369981 0
M  V30 37461 H 3753.18 -2.74462 2.82956 0
M  V30 37462 H 3754.46 -3.86307 3.31126 0
M  V30 37463 H 3753.86 -5.61857 0.658305 0
M  V30 37464 H 3752.42 -6.41773 1.13891 0
M  V30 37465 N 3755.85 -1.3033 -0.886108 0
M  V30 37466 C 3756.82 -1.16597 -1.97326 0
M  V30 37467 C 3757.82 -0.0975305 -1.60504 0
M  V30 37468 O 3759.01 -0.345554 -1.70738 0
M  V30 37469 C 3756.14 -0.786103 -3.31713 0
M  V30 37470 H 3757.33 -2.13181 -2.10936 0
M  V30 37471 H 3754.88 -1.1371 -1.07236 0
M  V30 37472 H 3755.62 0.179277 -3.23804 0
M  V30 37473 H 3755.4 -1.55824 -3.59807 0
M  V30 37474 H 3756.89 -0.713462 -4.1146 0
M  V30 37475 N 3757.33 1.0983 -1.13028 0
M  V30 37476 C 3758.26 2.18388 -0.826377 0
M  V30 37477 C 3759.24 1.68767 0.212499 0
M  V30 37478 O 3760.43 1.94065 0.0723288 0
M  V30 37479 C 3757.56 3.46112 -0.287052 0
M  V30 37480 C 3756.51 4.09042 -1.2597 0
M  V30 37481 C 3755.84 5.31541 -0.580324 0
M  V30 37482 C 3757.14 4.52025 -2.61669 0
M  V30 37483 H 3758.83 2.44067 -1.73412 0
M  V30 37484 H 3756.38 1.17303 -0.835221 0
M  V30 37485 H 3758.33 4.21354 -0.0621411 0
M  V30 37486 H 3757.05 3.19943 0.656064 0
M  V30 37487 H 3755.71 3.35814 -1.47053 0
M  V30 37488 H 3755.36 5.01651 0.368134 0
M  V30 37489 H 3755.06 5.74599 -1.2292 0
M  V30 37490 H 3756.58 6.0951 -0.364597 0
M  V30 37491 H 3758 5.18512 -2.44578 0
M  V30 37492 H 3756.4 5.05953 -3.22694 0
M  V30 37493 H 3757.47 3.64632 -3.19643 0
M  V30 37494 N 3758.81 0.92314 1.27734 0
M  V30 37495 C 3759.74 0.376021 2.26094 0
M  V30 37496 C 3760.75 -0.490735 1.55228 0
M  V30 37497 O 3761.94 -0.304096 1.75891 0
M  V30 37498 C 3759.04 -0.480283 3.3548 0
M  V30 37499 C 3758.22 0.366126 4.35865 0
M  V30 37500 C 3757.27 -0.426788 5.24466 0
M  V30 37501 O 3756.3 0.163925 5.68964 0
M  V30 37502 N 3757.5 -1.72767 5.54195 0
M  V30 37503 H 3760.27 1.22152 2.73677 0
M  V30 37504 H 3757.83 0.790081 1.41313 0
M  V30 37505 H 3759.82 -1.01769 3.91695 0
M  V30 37506 H 3758.39 -1.22652 2.87533 0
M  V30 37507 H 3757.61 1.08486 3.78978 0
M  V30 37508 H 3758.9 0.944937 4.99948 0
M  V30 37509 H 3758.3 -2.22999 5.19892 0
M  V30 37510 H 3756.85 -2.21171 6.13129 0
M  V30 37511 N 3760.29 -1.41783 0.688143 0
M  V30 37512 C 3761.22 -2.2919 -0.0209497 0
M  V30 37513 C 3762.23 -1.44392 -0.751979 0
M  V30 37514 O 3763.42 -1.67973 -0.603917 0
M  V30 37515 C 3760.52 -3.22105 -1.05364 0
M  V30 37516 C 3759.69 -4.35624 -0.393741 0
M  V30 37517 C 3758.75 -5.09166 -1.32803 0
M  V30 37518 O 3757.78 -5.63215 -0.823242 0
M  V30 37519 N 3758.98 -5.15931 -2.66074 0
M  V30 37520 H 3761.75 -2.90688 0.72944 0
M  V30 37521 H 3759.31 -1.52854 0.533591 0
M  V30 37522 H 3761.3 -3.68172 -1.68023 0
M  V30 37523 H 3759.87 -2.61967 -1.70564 0
M  V30 37524 H 3759.09 -3.92035 0.412599 0
M  V30 37525 H 3760.38 -5.08758 0.0654274 0
M  V30 37526 H 3759.77 -4.73453 -3.0961 0
M  V30 37527 H 3758.33 -5.65599 -3.23946 0
M  V30 37528 N 3761.76 -0.432379 -1.51553 0
M  V30 37529 C 3762.73 0.369872 -2.26196 0
M  V30 37530 C 3763.73 0.953938 -1.29448 0
M  V30 37531 O 3764.92 0.829167 -1.53201 0
M  V30 37532 C 3762.05 1.52283 -3.04996 0
M  V30 37533 H 3763.24 -0.284225 -2.9855 0
M  V30 37534 H 3760.8 -0.185428 -1.55196 0
M  V30 37535 H 3761.53 2.21313 -2.37047 0
M  V30 37536 H 3761.32 1.11026 -3.76053 0
M  V30 37537 H 3762.81 2.08976 -3.61551 0
M  V30 37538 N 3763.24 1.56749 -0.163565 0
M  V30 37539 C 3764.52 1.88302 0.529315 0
M  V30 37540 C 3764.9 1.07222 1.81842 0
M  V30 37541 O 3764.25 0.16385 2.27912 0
M  V30 37542 C 3764.46 3.40201 0.778736 0
M  V30 37543 C 3765.81 4.09775 1.11218 0
M  V30 37544 O 3766.83 3.45474 0.867537 0
M  V30 37545 O 3765.69 5.23362 1.57335 0
M  V30 37546 H 3762.78 0.78102 0.271914 0
M  V30 37547 H 3765.33 1.685 -0.20142 0
M  V30 37548 H 3764.1 3.91074 -0.132908 0
M  V30 37549 H 3763.72 3.65587 1.56307 0
M  V30 37550 N 3764.72 -0.110185 1.57214 0
M  V30 37551 C 3765.67 -1.14074 1.97411 0
M  V30 37552 C 3766.65 -1.36594 0.850346 0
M  V30 37553 O 3767.85 -1.37539 1.1141 0
M  V30 37554 C 3764.98 -2.46501 2.3894 0
M  V30 37555 C 3764.06 -2.27418 3.57969 0
M  V30 37556 N 3764.45 -1.78167 4.73382 0
M  V30 37557 C 3762.75 -2.58041 3.63773 0
M  V30 37558 C 3763.45 -1.72999 5.55379 0
M  V30 37559 N 3762.43 -2.17666 4.98119 0
M  V30 37560 H 3766.23 -0.752638 2.841 0
M  V30 37561 H 3763.74 -0.317817 1.5926 0
M  V30 37562 H 3765.74 -3.21048 2.65959 0
M  V30 37563 H 3764.4 -2.86061 1.53621 0
M  V30 37564 H 3765.41 -1.47584 4.96427 0
M  V30 37565 H 3762.09 -3.01228 2.89081 0
M  V30 37566 H 3763.48 -1.361 6.57971 0
M  V30 37567 N 3766.2 -1.52935 -0.38061 0
M  V30 37568 C 3767.43 -1.72276 -1.1458 0
M  V30 37569 C 3767.84 -0.444896 -1.83483 0
M  V30 37570 O 3767.2 0.581214 -1.72998 0
M  V30 37571 C 3767.25 -2.87803 -2.1875 0
M  V30 37572 O 3766.97 -4.10643 -1.52655 0
M  V30 37573 C 3768.47 -3.18892 -3.07933 0
M  V30 37574 H 3765.69 -0.576584 -0.343208 0
M  V30 37575 H 3768.24 -1.99619 -0.444114 0
M  V30 37576 H 3766.39 -2.62897 -2.84542 0
M  V30 37577 H 3766.8 -4.75229 -2.2194 0
M  V30 37578 H 3768.28 -4.03171 -3.77037 0
M  V30 37579 H 3768.76 -2.33625 -3.71909 0
M  V30 37580 H 3769.36 -3.45669 -2.47777 0
M  V30 37581 N 3767.68 0.639548 -1.4404 0
M  V30 37582 C 3768.92 1.39958 -1.47591 0
M  V30 37583 C 3769.28 1.9212 -0.103725 0
M  V30 37584 O 3768.57 1.70207 0.879773 0
M  V30 37585 C 3768.76 2.58825 -2.46463 0
M  V30 37586 C 3768.59 2.18299 -3.93161 0
M  V30 37587 C 3767.36 2.05976 -4.61413 0
M  V30 37588 C 3769.56 1.77733 -4.82613 0
M  V30 37589 N 3767.54 1.58924 -5.92972 0
M  V30 37590 C 3768.91 1.41864 -6.03552 0
M  V30 37591 C 3770.97 1.65038 -4.69752 0
M  V30 37592 C 3769.67 0.945715 -7.13056 0
M  V30 37593 C 3771.7 1.1915 -5.79273 0
M  V30 37594 C 3771.06 0.842266 -6.99346 0
M  V30 37595 H 3767.16 0.507274 -0.595145 0
M  V30 37596 H 3769.74 0.734567 -1.80311 0
M  V30 37597 H 3767.91 3.22967 -2.15748 0
M  V30 37598 H 3769.65 3.25587 -2.40364 0
M  V30 37599 H 3766.4 2.26166 -4.16108 0
M  V30 37600 H 3766.83 1.37721 -6.62844 0
M  V30 37601 H 3771.47 1.90673 -3.77364 0
M  V30 37602 H 3769.19 0.676869 -8.0526 0
M  V30 37603 H 3772.77 1.09797 -5.71346 0
M  V30 37604 H 3771.65 0.492614 -7.82651 0
M  V30 37605 N 3769.15 1.30798 0.879184 0
M  V30 37606 C 3770.12 1.17642 1.96705 0
M  V30 37607 C 3771.12 0.106041 1.6045 0
M  V30 37608 O 3772.31 0.354603 1.70553 0
M  V30 37609 C 3769.44 0.803684 3.31291 0
M  V30 37610 H 3770.63 2.14296 2.09803 0
M  V30 37611 H 3768.19 1.14277 1.06632 0
M  V30 37612 H 3768.92 -0.162102 3.23895 0
M  V30 37613 H 3768.71 1.5773 3.58976 0
M  V30 37614 H 3770.2 0.735273 4.11076 0
M  V30 37615 N 3770.63 -1.09229 1.13608 0
M  V30 37616 C 3771.86 -1.85205 0.922328 0
M  V30 37617 C 3772.28 -1.8124 -0.528922 0
M  V30 37618 O 3771.63 -1.21001 -1.3662 0
M  V30 37619 C 3771.68 -3.33097 1.40458 0
M  V30 37620 O 3771.41 -3.37031 2.79896 0
M  V30 37621 C 3772.91 -4.25907 1.22956 0
M  V30 37622 H 3770.13 -0.584939 0.328767 0
M  V30 37623 H 3772.67 -1.38005 1.50914 0
M  V30 37624 H 3770.83 -3.77717 0.860727 0
M  V30 37625 H 3771.24 -4.29288 3.0135 0
M  V30 37626 H 3772.71 -5.27825 1.61571 0
M  V30 37627 H 3773.19 -4.38865 0.171465 0
M  V30 37628 H 3773.8 -3.87104 1.76154 0
M  V30 37629 N 3772.11 -0.929901 -1.27242 0
M  V30 37630 C 3773.36 -0.57234 -1.94556 0
M  V30 37631 C 3773.69 0.884511 -1.72887 0
M  V30 37632 O 3772.97 1.63127 -1.05923 0
M  V30 37633 C 3773.25 -0.901736 -3.48627 0
M  V30 37634 C 3773.1 -2.4125 -3.79629 0
M  V30 37635 C 3774.42 -0.40917 -4.38194 0
M  V30 37636 H 3771.54 -0.209409 -0.706624 0
M  V30 37637 H 3774.18 -1.16208 -1.50319 0
M  V30 37638 H 3772.33 -0.399859 -3.86437 0
M  V30 37639 H 3774 -2.98624 -3.51598 0
M  V30 37640 H 3772.25 -2.86076 -3.26103 0
M  V30 37641 H 3772.92 -2.5935 -4.8728 0
M  V30 37642 H 3775.39 -0.839327 -4.07547 0
M  V30 37643 H 3774.27 -0.668578 -5.44813 0
M  V30 37644 H 3774.53 0.690784 -4.3667 0
M  V30 37645 N 3773.59 1.41416 -0.695653 0
M  V30 37646 C 3774.84 2.01526 -0.226989 0
M  V30 37647 C 3775.17 1.5497 1.17038 0
M  V30 37648 O 3774.44 0.760927 1.78998 0
M  V30 37649 C 3774.73 3.58972 -0.284768 0
M  V30 37650 C 3774.58 4.15653 -1.71908 0
M  V30 37651 C 3775.9 4.38663 0.355377 0
M  V30 37652 H 3773.02 0.732203 -0.0839553 0
M  V30 37653 H 3775.66 1.68162 -0.884388 0
M  V30 37654 H 3773.81 3.87526 0.274972 0
M  V30 37655 H 3775.48 3.97975 -2.33267 0
M  V30 37656 H 3773.72 3.70692 -2.25321 0
M  V30 37657 H 3774.4 5.24812 -1.71104 0
M  V30 37658 H 3776.87 4.15923 -0.121329 0
M  V30 37659 H 3775.75 5.48163 0.284407 0
M  V30 37660 H 3776.01 4.18125 1.4361 0
M  V30 37661 N 3775.07 0.44041 1.51321 0
M  V30 37662 C 3776.48 0.0928652 1.5933 0
M  V30 37663 C 3776.68 -1.39805 1.4511 0
M  V30 37664 O 3775.74 -2.16829 1.29389 0
M  V30 37665 C 3777.05 0.615715 2.94329 0
M  V30 37666 C 3778.6 0.576427 3.07646 0
M  V30 37667 C 3779.08 1.0763 4.45174 0
M  V30 37668 N 3780.57 1.03442 4.51502 0
M  V30 37669 C 3781.3 1.39204 5.56246 0
M  V30 37670 N 3780.8 1.82266 6.68394 0
M  V30 37671 N 3782.59 1.31001 5.46622 0
M  V30 37672 H 3774.74 1.41044 1.58809 0
M  V30 37673 H 3777 0.581399 0.748785 0
M  V30 37674 H 3776.71 1.65897 3.10114 0
M  V30 37675 H 3776.58 0.0423176 3.77176 0
M  V30 37676 H 3778.97 -0.457852 2.91527 0
M  V30 37677 H 3779.05 1.18626 2.26631 0
M  V30 37678 H 3778.7 2.10906 4.6204 0
M  V30 37679 H 3778.63 0.442974 5.24734 0
M  V30 37680 H 3781.12 0.718221 3.71012 0
M  V30 37681 H 3781.43 2.07782 7.44343 0
M  V30 37682 H 3779.78 1.86195 6.69594 0
M  V30 37683 H 3782.97 0.972225 4.57892 0
M  V30 37684 H 3783.14 1.59199 6.2814 0
M  V30 37685 N 3776.55 -1.5666 0.171876 0
M  V30 37686 C 3777.48 -2.15168 -0.789634 0
M  V30 37687 C 3778.49 -1.10741 -1.19333 0
M  V30 37688 O 3779.68 -1.37926 -1.13308 0
M  V30 37689 C 3776.78 -2.67993 -2.07444 0
M  V30 37690 C 3775.95 -3.97083 -1.83422 0
M  V30 37691 C 3775.01 -4.34967 -2.96126 0
M  V30 37692 O 3774.04 -5.02832 -2.66737 0
M  V30 37693 N 3775.24 -3.9657 -4.23925 0
M  V30 37694 H 3778 -2.98299 -0.289432 0
M  V30 37695 H 3775.57 -1.61896 -0.010887 0
M  V30 37696 H 3777.56 -2.90334 -2.81936 0
M  V30 37697 H 3776.13 -1.89448 -2.48653 0
M  V30 37698 H 3775.35 -3.83114 -0.928309 0
M  V30 37699 H 3776.64 -4.81392 -1.64741 0
M  V30 37700 H 3776.03 -3.41936 -4.50662 0
M  V30 37701 H 3774.59 -4.23911 -4.95119 0
M  V30 37702 N 3778.02 0.101846 -1.57271 0
M  V30 37703 C 3779.27 0.804974 -1.85377 0
M  V30 37704 C 3779.59 1.79597 -0.759596 0
M  V30 37705 O 3778.86 1.94719 0.214806 0
M  V30 37706 H 3777.44 0.300272 -0.683992 0
M  V30 37707 H 3780.1 0.0850823 -1.94714 0
M  V30 37708 H 3779.2 1.33971 -2.81883 0
M  V30 37709 N 3779.5 1.53135 0.372494 0
M  V30 37710 C 3780.43 1.8206 1.46207 0
M  V30 37711 C 3781.41 0.673639 1.56193 0
M  V30 37712 O 3782.6 0.922827 1.70873 0
M  V30 37713 C 3779.73 2.0043 2.83628 0
M  V30 37714 C 3778.68 3.16177 2.88473 0
M  V30 37715 C 3778.01 3.19828 4.28502 0
M  V30 37716 C 3779.31 4.54911 2.5662 0
M  V30 37717 H 3781 2.73304 1.22251 0
M  V30 37718 H 3778.55 1.31508 0.586665 0
M  V30 37719 H 3780.5 2.19248 3.59873 0
M  V30 37720 H 3779.22 1.05889 3.08958 0
M  V30 37721 H 3777.88 2.97168 2.14679 0
M  V30 37722 H 3777.53 2.22938 4.50896 0
M  V30 37723 H 3777.23 3.97591 4.3266 0
M  V30 37724 H 3778.76 3.40822 5.06629 0
M  V30 37725 H 3780.17 4.73937 3.22579 0
M  V30 37726 H 3778.57 5.34864 2.72104 0
M  V30 37727 H 3779.64 4.60496 1.51894 0
M  V30 37728 N 3780.98 -0.6319 1.44377 0
M  V30 37729 C 3782.23 -1.39354 1.47338 0
M  V30 37730 C 3782.56 -1.93914 0.105284 0
M  V30 37731 O 3781.83 -1.73607 -0.876976 0
M  V30 37732 C 3782.12 -2.55939 2.53313 0
M  V30 37733 C 3781.97 -2.06732 3.99477 0
M  V30 37734 C 3783.29 -3.58126 2.558 0
M  V30 37735 H 3780.41 -0.505356 0.536455 0
M  V30 37736 H 3783.05 -0.714541 1.76052 0
M  V30 37737 H 3781.2 -3.13864 2.28958 0
M  V30 37738 H 3782.87 -1.53644 4.34961 0
M  V30 37739 H 3781.11 -1.37922 4.11291 0
M  V30 37740 H 3781.79 -2.90664 4.69274 0
M  V30 37741 H 3784.26 -3.1 2.77559 0
M  V30 37742 H 3783.14 -4.37222 3.31855 0
M  V30 37743 H 3783.4 -4.12143 1.59969 0
M  V30 37744 N 3782.46 -1.31262 -0.872235 0
M  V30 37745 C 3783.73 -1.11458 -1.60737 0
M  V30 37746 C 3784.11 0.331533 -2.0848 0
M  V30 37747 O 3783.46 1.32525 -1.86143 0
M  V30 37748 C 3783.67 -2.12679 -2.76711 0
M  V30 37749 C 3785.02 -2.4508 -3.46729 0
M  V30 37750 O 3786.04 -2.11088 -2.86915 0
M  V30 37751 O 3784.9 -3.03278 -4.54626 0
M  V30 37752 H 3782 -0.428942 -0.707063 0
M  V30 37753 H 3784.54 -1.42733 -0.917897 0
M  V30 37754 H 3783.32 -3.09962 -2.38829 0
M  V30 37755 H 3782.94 -1.82296 -3.53347 0
M  V30 37756 N 3783.94 1.08625 -1.14186 0
M  V30 37757 C 3785.35 1.33029 -0.88178 0
M  V30 37758 C 3785.55 1.95742 0.478279 0
M  V30 37759 O 3784.61 2.20903 1.22304 0
M  V30 37760 C 3785.92 2.234 -2.01278 0
M  V30 37761 C 3787.47 2.36886 -2.04582 0
M  V30 37762 C 3787.94 3.30598 -3.16968 0
M  V30 37763 N 3789.43 3.38174 -3.16532 0
M  V30 37764 C 3790.17 4.10709 -4.00132 0
M  V30 37765 N 3789.67 4.85971 -4.93765 0
M  V30 37766 N 3791.46 4.06518 -3.88201 0
M  V30 37767 H 3783.61 0.662982 -2.01788 0
M  V30 37768 H 3785.87 0.354662 -0.879158 0
M  V30 37769 H 3785.58 1.84561 -2.99383 0
M  V30 37770 H 3785.45 3.23847 -1.93399 0
M  V30 37771 H 3787.84 2.74985 -1.07085 0
M  V30 37772 H 3787.92 1.3619 -2.16532 0
M  V30 37773 H 3787.56 2.93221 -4.14709 0
M  V30 37774 H 3787.49 4.31218 -3.02256 0
M  V30 37775 H 3789.99 2.84517 -2.48713 0
M  V30 37776 H 3790.3 5.38773 -5.54025 0
M  V30 37777 H 3788.64 4.85031 -4.97765 0
M  V30 37778 H 3791.83 3.46826 -3.14372 0
M  V30 37779 H 3792.01 4.62785 -4.5358 0
M  V30 37780 N 3785.41 0.936635 1.26747 0
M  V30 37781 C 3786.38 0.447282 2.24793 0
M  V30 37782 C 3787.38 -0.439108 1.54688 0
M  V30 37783 O 3788.57 -0.238927 1.72554 0
M  V30 37784 C 3785.7 -0.355899 3.39037 0
M  V30 37785 H 3786.89 1.31366 2.69598 0
M  V30 37786 H 3784.45 0.718167 1.38824 0
M  V30 37787 H 3785.18 -1.24072 2.99628 0
M  V30 37788 H 3784.97 0.27976 3.91101 0
M  V30 37789 H 3786.46 -0.688349 4.11888 0
M  V30 37790 N 3786.89 -1.41045 0.703143 0
M  V30 37791 C 3787.82 -2.292 0.0033602 0
M  V30 37792 C 3788.84 -1.45182 -0.736622 0
M  V30 37793 O 3790.03 -1.68605 -0.586067 0
M  V30 37794 C 3787.13 -3.23204 -1.01942 0
M  V30 37795 C 3786.3 -4.36017 -0.347515 0
M  V30 37796 C 3785.36 -5.10546 -1.27395 0
M  V30 37797 O 3784.38 -5.64057 -0.763459 0
M  V30 37798 N 3785.59 -5.18724 -2.60586 0
M  V30 37799 H 3788.35 -2.89898 0.76023 0
M  V30 37800 H 3785.91 -1.5228 0.549774 0
M  V30 37801 H 3787.9 -3.69933 -1.64109 0
M  V30 37802 H 3786.47 -2.63761 -1.67776 0
M  V30 37803 H 3785.69 -3.91575 0.454156 0
M  V30 37804 H 3786.98 -5.0866 0.119384 0
M  V30 37805 H 3786.38 -4.7671 -3.04571 0
M  V30 37806 H 3784.94 -5.69003 -3.17929 0
M  V30 37807 N 3788.37 -0.448429 -1.51086 0
M  V30 37808 C 3789.3 0.393362 -2.25799 0
M  V30 37809 C 3790.32 0.976769 -1.30242 0
M  V30 37810 O 3791.5 0.869024 -1.55917 0
M  V30 37811 C 3788.6 1.5634 -3.00684 0
M  V30 37812 C 3787.78 1.09688 -4.23423 0
M  V30 37813 C 3786.84 2.13832 -4.80793 0
M  V30 37814 O 3785.86 1.72814 -5.42332 0
M  V30 37815 N 3787.06 3.46429 -4.65798 0
M  V30 37816 H 3789.83 -0.247039 -2.9868 0
M  V30 37817 H 3787.39 -0.27793 -1.59497 0
M  V30 37818 H 3789.38 2.25656 -3.35949 0
M  V30 37819 H 3787.95 2.10893 -2.30745 0
M  V30 37820 H 3787.17 0.230387 -3.93526 0
M  V30 37821 H 3788.46 0.762744 -5.0305 0
M  V30 37822 H 3787.86 3.82479 -4.16805 0
M  V30 37823 H 3786.42 4.11607 -5.05394 0
M  V30 37824 N 3789.85 1.56567 -0.180181 0
M  V30 37825 C 3790.78 2.21394 0.742092 0
M  V30 37826 C 3791.76 1.17232 1.23251 0
M  V30 37827 O 3792.94 1.4569 1.28406 0
M  V30 37828 C 3790.07 2.86163 1.96794 0
M  V30 37829 C 3789.03 3.96441 1.61303 0
M  V30 37830 C 3788.35 4.48302 2.91426 0
M  V30 37831 C 3789.65 5.15594 0.834291 0
M  V30 37832 H 3791.35 2.9872 0.201706 0
M  V30 37833 H 3788.89 1.43682 0.0955763 0
M  V30 37834 H 3790.85 3.30192 2.61823 0
M  V30 37835 H 3789.57 2.0622 2.53261 0
M  V30 37836 H 3788.23 3.53081 0.986389 0
M  V30 37837 H 3787.88 3.65139 3.45951 0
M  V30 37838 H 3787.58 5.22704 2.6843 0
M  V30 37839 H 3789.1 4.95024 3.57469 0
M  V30 37840 H 3790.52 5.5626 1.38736 0
M  V30 37841 H 3788.91 5.95968 0.703027 0
M  V30 37842 H 3789.98 4.8461 -0.167639 0
M  V30 37843 N 3791.33 -0.0935042 1.57322 0
M  V30 37844 C 3792.26 -1.11406 2.0521 0
M  V30 37845 C 3793.24 -1.4168 0.94132 0
M  V30 37846 O 3794.42 -1.51682 1.21269 0
M  V30 37847 C 3791.55 -2.4335 2.47786 0
M  V30 37848 C 3790.51 -2.2748 3.62542 0
M  V30 37849 C 3789.83 -3.64615 3.91101 0
M  V30 37850 C 3791.13 -1.71403 4.93374 0
M  V30 37851 H 3792.83 -0.715651 2.90721 0
M  V30 37852 H 3790.37 -0.342802 1.3986 0
M  V30 37853 H 3792.33 -3.15017 2.79896 0
M  V30 37854 H 3791.05 -2.85129 1.59277 0
M  V30 37855 H 3789.71 -1.58257 3.30681 0
M  V30 37856 H 3789.36 -4.03925 2.99756 0
M  V30 37857 H 3789.06 -3.54842 4.6836 0
M  V30 37858 H 3790.58 -4.37747 4.25687 0
M  V30 37859 H 3791.99 -2.32913 5.23855 0
M  V30 37860 H 3790.39 -1.72385 5.74807 0
M  V30 37861 H 3791.46 -0.673595 4.80199 0
M  V30 37862 N 3792.8 -1.5333 -0.364368 0
M  V30 37863 C 3793.77 -1.7918 -1.42924 0
M  V30 37864 C 3794.77 -0.662261 -1.46529 0
M  V30 37865 O 3795.96 -0.930468 -1.47268 0
M  V30 37866 C 3793.09 -1.91497 -2.82031 0
M  V30 37867 H 3794.28 -2.74285 -1.21276 0
M  V30 37868 H 3791.84 -1.44426 -0.59757 0
M  V30 37869 H 3792.57 -0.984633 -3.08991 0
M  V30 37870 H 3792.36 -2.73654 -2.80813 0
M  V30 37871 H 3793.85 -2.13085 -3.59144 0
M  V30 37872 N 3794.28 0.624234 -1.4471 0
M  V30 37873 C 3795.23 1.75704 -1.52417 0
M  V30 37874 C 3796.22 1.64722 -0.395332 0
M  V30 37875 O 3797.43 1.70718 -0.570565 0
M  V30 37876 H 3793.81 0.580195 -0.478411 0
M  V30 37877 H 3795.78 1.66329 -2.47745 0
M  V30 37878 C 3794.53 3.14055 -1.49213 0
M  V30 37879 H 3793.85 3.23157 -2.35393 0
M  V30 37880 H 3795.29 3.93194 -1.58665 0
M  V30 37881 C 3793.75 3.3622 -0.213936 0
M  V30 37882 O 3794.28 3.95321 0.713059 0
M  V30 37883 N 3792.48 2.90373 -0.114885 0
M  V30 37884 H 3792.03 2.42461 -0.870089 0
M  V30 37885 H 3791.99 3.05578 0.739566 0
M  V30 37886 N 3795.76 1.31723 0.865262 0
M  V30 37887 C 3796.99 1.24788 1.65658 0
M  V30 37888 C 3797.41 -0.182919 1.87208 0
M  V30 37889 O 3796.77 -1.13067 1.41723 0
M  V30 37890 C 3796.82 2.00204 2.99918 0
M  V30 37891 O 3795.92 1.3426 3.89934 0
M  V30 37892 H 3795.26 0.430598 0.505452 0
M  V30 37893 H 3797.79 1.73868 1.07847 0
M  V30 37894 H 3797.8 2.09978 3.49819 0
M  V30 37895 H 3796.48 3.04254 2.83553 0
M  V30 37896 H 3795.05 1.32967 3.48388 0
M  V30 37897 N 3797.24 -1.08018 1.14761 0
M  V30 37898 C 3798.47 -1.84216 0.941919 0
M  V30 37899 C 3798.88 -1.81791 -0.50967 0
M  V30 37900 O 3798.24 -1.22443 -1.35329 0
M  V30 37901 C 3798.29 -3.31589 1.43983 0
M  V30 37902 O 3798.01 -3.34043 2.83455 0
M  V30 37903 C 3799.51 -4.24579 1.27466 0
M  V30 37904 H 3796.73 -0.581419 0.334952 0
M  V30 37905 H 3799.28 -1.36396 1.52369 0
M  V30 37906 H 3797.43 -3.76783 0.90074 0
M  V30 37907 H 3797.84 -4.26068 3.05886 0
M  V30 37908 H 3799.32 -5.26081 1.6716 0
M  V30 37909 H 3799.8 -4.38659 0.218002 0
M  V30 37910 H 3800.4 -3.85214 1.8025 0
M  V30 37911 N 3798.72 -0.943344 -1.26249 0
M  V30 37912 C 3799.68 -0.459197 -2.24553 0
M  V30 37913 C 3800.68 0.430898 -1.54919 0
M  V30 37914 O 3801.87 0.229772 -1.72678 0
M  V30 37915 C 3799 0.337914 -3.39221 0
M  V30 37916 H 3800.19 -1.32794 -2.68897 0
M  V30 37917 H 3797.75 -0.725519 -1.38441 0
M  V30 37918 H 3798.48 1.22481 -3.00281 0
M  V30 37919 H 3798.27 -0.300497 -3.90947 0
M  V30 37920 H 3799.76 0.666496 -4.12247 0
M  V30 37921 N 3800.2 1.4067 -0.710613 0
M  V30 37922 C 3801.13 2.33397 -0.0695011 0
M  V30 37923 C 3802.11 1.52627 0.750932 0
M  V30 37924 O 3803.29 1.81112 0.700864 0
M  V30 37925 C 3800.42 3.36569 0.856645 0
M  V30 37926 C 3799.38 4.27764 0.142201 0
M  V30 37927 C 3798.7 5.21433 1.18373 0
M  V30 37928 C 3800 5.12626 -1.00061 0
M  V30 37929 H 3801.7 2.87258 -0.843996 0
M  V30 37930 H 3799.24 1.38119 -0.407311 0
M  V30 37931 H 3801.19 4.00373 1.3145 0
M  V30 37932 H 3799.92 2.81092 1.66298 0
M  V30 37933 H 3798.58 3.65405 -0.295779 0
M  V30 37934 H 3798.23 4.62263 1.98298 0
M  V30 37935 H 3797.93 5.83287 0.710608 0
M  V30 37936 H 3799.45 5.88114 1.64179 0
M  V30 37937 H 3800.86 5.69912 -0.622346 0
M  V30 37938 H 3799.26 5.83498 -1.40178 0
M  V30 37939 H 3800.33 4.48899 -1.83352 0
M  V30 37940 N 3801.67 0.456435 1.50846 0
M  V30 37941 C 3802.58 -0.350986 2.3196 0
M  V30 37942 C 3803.6 -1.00983 1.41698 0
M  V30 37943 O 3804.78 -1.00102 1.74761 0
M  V30 37944 C 3801.84 -1.42691 3.15975 0
M  V30 37945 C 3800.9 -0.786198 4.2204 0
M  V30 37946 C 3800.13 -1.81085 5.0204 0
M  V30 37947 O 3800.36 -3.03556 4.82918 0
M  V30 37948 O 3799.29 -1.39079 5.85611 0
M  V30 37949 H 3803.12 0.311732 3.02096 0
M  V30 37950 H 3800.7 0.21857 1.47793 0
M  V30 37951 H 3802.58 -2.05046 3.68149 0
M  V30 37952 H 3801.26 -2.07336 2.48583 0
M  V30 37953 H 3800.17 -0.124082 3.73894 0
M  V30 37954 H 3801.5 -0.18293 4.9186 0
M  V30 37955 N 3803.15 -1.56469 0.188482 0
M  V30 37956 C 3804.06 -2.22385 -0.747137 0
M  V30 37957 C 3805.08 -1.22083 -1.23983 0
M  V30 37958 O 3806.25 -1.548 -1.28837 0
M  V30 37959 C 3803.32 -2.86512 -1.95223 0
M  V30 37960 C 3802.38 -4.02064 -1.50475 0
M  V30 37961 C 3801.61 -4.63124 -2.6524 0
M  V30 37962 O 3801.84 -4.23095 -3.82553 0
M  V30 37963 O 3800.77 -5.52704 -2.38331 0
M  V30 37964 H 3804.6 -3.02932 -0.215803 0
M  V30 37965 H 3802.18 -1.49345 -0.0405094 0
M  V30 37966 H 3804.06 -3.27107 -2.65667 0
M  V30 37967 H 3802.74 -2.08948 -2.47229 0
M  V30 37968 H 3801.64 -3.66105 -0.769301 0
M  V30 37969 H 3802.98 -4.81272 -1.03142 0
M  V30 37970 N 3804.63 0.0851597 -1.5737 0
M  V30 37971 C 3805.59 1.08688 -2.01791 0
M  V30 37972 C 3806.59 1.32374 -0.912895 0
M  V30 37973 O 3807.78 1.2832 -1.17812 0
M  V30 37974 C 3804.91 2.43371 -2.38712 0
M  V30 37975 H 3806.11 0.704308 -2.91512 0
M  V30 37976 H 3803.66 0.330502 -1.52766 0
M  V30 37977 H 3804.4 2.86486 -1.51975 0
M  V30 37978 H 3804.18 2.27524 -3.19335 0
M  V30 37979 H 3805.67 3.154 -2.73702 0
M  V30 37980 N 3806.11 1.53521 0.356231 0
M  V30 37981 C 3807.04 1.75415 1.45962 0
M  V30 37982 C 3808.02 0.602801 1.51013 0
M  V30 37983 O 3809.2 0.836489 1.68923 0
M  V30 37984 C 3806.33 1.84137 2.84273 0
M  V30 37985 C 3805.38 3.06187 2.96903 0
M  V30 37986 S 3806.21 4.65512 2.64686 0
M  V30 37987 C 3807.36 4.77096 4.0513 0
M  V30 37988 H 3807.6 2.68728 1.27171 0
M  V30 37989 H 3805.13 1.44228 0.551137 0
M  V30 37990 H 3807.09 1.89848 3.63961 0
M  V30 37991 H 3805.75 0.918595 3.00368 0
M  V30 37992 H 3804.94 3.08928 3.98221 0
M  V30 37993 H 3804.54 2.98637 2.25149 0
M  V30 37994 H 3806.84 4.57725 4.99493 0
M  V30 37995 H 3807.78 5.79171 4.0739 0
M  V30 37996 H 3808.19 4.05651 3.92565 0
M  V30 37997 N 3807.59 -0.616551 1.45039 0
M  V30 37998 C 3808.52 -1.73866 1.55861 0
M  V30 37999 C 3809.5 -1.65068 0.410686 0
M  V30 38000 O 3810.68 -1.83605 0.632684 0
M  V30 38001 C 3807.81 -3.12446 1.51641 0
M  V30 38002 C 3806.77 -3.36047 2.65059 0
M  V30 38003 C 3806.09 -4.74807 2.45892 0
M  V30 38004 C 3807.39 -3.27178 4.07126 0
M  V30 38005 H 3809.09 -1.65066 2.49787 0
M  V30 38006 H 3806.63 -0.792703 1.20217 0
M  V30 38007 H 3808.58 -3.90735 1.5781 0
M  V30 38008 H 3807.31 -3.22065 0.542398 0
M  V30 38009 H 3805.97 -2.60144 2.58303 0
M  V30 38010 H 3805.62 -4.81147 1.4665 0
M  V30 38011 H 3805.32 -4.91555 3.21944 0
M  V30 38012 H 3806.84 -5.55308 2.53901 0
M  V30 38013 H 3808.25 -3.95353 4.15173 0
M  V30 38014 H 3806.65 -3.55458 4.83497 0
M  V30 38015 H 3807.72 -2.24755 4.29667 0
M  V30 38016 N 3809.06 -1.3218 -0.858264 0
M  V30 38017 C 3810 -1.16639 -1.97302 0
M  V30 38018 C 3811.01 -0.10234 -1.62478 0
M  V30 38019 O 3812.2 -0.350957 -1.75016 0
M  V30 38020 C 3809.3 -0.762395 -3.30213 0
M  V30 38021 C 3808.47 -1.91397 -3.93301 0
M  V30 38022 C 3807.53 -1.49411 -5.04542 0
M  V30 38023 O 3806.56 -2.20557 -5.24731 0
M  V30 38024 N 3807.76 -0.388086 -5.79201 0
M  V30 38025 H 3810.52 -2.12661 -2.11176 0
M  V30 38026 H 3808.08 -1.24669 -1.03292 0
M  V30 38027 H 3810.08 -0.463992 -4.02031 0
M  V30 38028 H 3808.65 0.106565 -3.12418 0
M  V30 38029 H 3807.87 -2.37906 -3.14316 0
M  V30 38030 H 3809.15 -2.68499 -4.32187 0
M  V30 38031 H 3808.55 0.204153 -5.65332 0
M  V30 38032 H 3807.11 -0.149273 -6.51629 0
M  V30 38033 N 3810.54 1.07407 -1.15332 0
M  V30 38034 C 3811.45 2.18128 -0.863552 0
M  V30 38035 C 3812.47 1.73264 0.159924 0
M  V30 38036 O 3813.64 2.01395 -0.0140172 0
M  V30 38037 C 3810.71 3.44864 -0.356332 0
M  V30 38038 C 3809.77 4.04299 -1.44363 0
M  V30 38039 C 3809 5.24985 -0.960521 0
M  V30 38040 O 3809.23 5.7007 0.194127 0
M  V30 38041 O 3808.16 5.76081 -1.74397 0
M  V30 38042 H 3811.99 2.45405 -1.78913 0
M  V30 38043 H 3809.57 1.16735 -0.932383 0
M  V30 38044 H 3811.45 4.21324 -0.0798924 0
M  V30 38045 H 3810.13 3.19141 0.541389 0
M  V30 38046 H 3809.03 3.29381 -1.77367 0
M  V30 38047 H 3810.37 4.34294 -2.31625 0
M  V30 38048 N 3812.02 0.950026 1.25747 0
M  V30 38049 C 3812.95 0.423895 2.25246 0
M  V30 38050 C 3813.96 -0.457699 1.56234 0
M  V30 38051 O 3815.15 -0.266718 1.76496 0
M  V30 38052 C 3812.25 -0.409014 3.36423 0
M  V30 38053 C 3811.43 0.458497 4.3499 0
M  V30 38054 C 3810.49 -0.315445 5.25254 0
M  V30 38055 O 3809.51 0.284574 5.68488 0
M  V30 38056 N 3810.71 -1.60973 5.57735 0
M  V30 38057 H 3813.48 1.2793 2.71024 0
M  V30 38058 H 3811.04 0.819878 1.39605 0
M  V30 38059 H 3813.03 -0.934378 3.93766 0
M  V30 38060 H 3811.6 -1.16525 2.9007 0
M  V30 38061 H 3810.82 1.165 3.76592 0
M  V30 38062 H 3812.11 1.05077 4.97832 0
M  V30 38063 H 3811.51 -2.11921 5.24506 0
M  V30 38064 H 3810.06 -2.08115 6.17682 0
M  V30 38065 N 3813.5 -1.40291 0.718063 0
M  V30 38066 C 3814.43 -2.29183 0.0276697 0
M  V30 38067 C 3815.44 -1.45955 -0.721182 0
M  V30 38068 O 3816.63 -1.69217 -0.568152 0
M  V30 38069 C 3813.73 -3.24267 -0.985082 0
M  V30 38070 C 3812.9 -4.36361 -0.30125 0
M  V30 38071 C 3811.96 -5.11868 -1.21973 0
M  V30 38072 O 3810.99 -5.64835 -0.703591 0
M  V30 38073 N 3812.19 -5.21459 -2.5507 0
M  V30 38074 H 3814.96 -2.89075 0.790935 0
M  V30 38075 H 3812.52 -1.51688 0.565894 0
M  V30 38076 H 3814.51 -3.71653 -1.60176 0
M  V30 38077 H 3813.08 -2.65526 -1.64969 0
M  V30 38078 H 3812.3 -3.91071 0.495663 0
M  V30 38079 H 3813.59 -5.08505 0.173328 0
M  V30 38080 H 3812.99 -4.79914 -2.99498 0
M  V30 38081 H 3811.54 -5.72343 -3.11876 0
M  V30 38082 N 3814.98 -0.464428 -1.50602 0
M  V30 38083 C 3816.39 -0.118201 -1.59162 0
M  V30 38084 C 3816.59 1.37479 -1.47316 0
M  V30 38085 O 3815.65 2.14743 -1.32822 0
M  V30 38086 C 3816.96 -0.662462 -2.93312 0
M  V30 38087 C 3818.51 -0.625298 -3.0669 0
M  V30 38088 C 3818.98 -1.14699 -4.43405 0
M  V30 38089 N 3820.48 -1.10612 -4.49799 0
M  V30 38090 C 3821.21 -1.48035 -5.53961 0
M  V30 38091 N 3820.71 -1.92876 -6.6541 0
M  V30 38092 N 3822.5 -1.39681 -5.44468 0
M  V30 38093 H 3814.65 -1.43552 -1.56545 0
M  V30 38094 H 3816.91 -0.593238 -0.739441 0
M  V30 38095 H 3816.62 -1.7081 -3.07436 0
M  V30 38096 H 3816.49 -0.102318 -3.77061 0
M  V30 38097 H 3818.88 0.411415 -2.92218 0
M  V30 38098 H 3818.96 -1.22217 -2.24715 0
M  V30 38099 H 3818.61 -2.1823 -4.58626 0
M  V30 38100 H 3818.54 -0.526398 -5.23962 0
M  V30 38101 H 3821.03 -0.777155 -3.69823 0
M  V30 38102 H 3821.34 -2.19598 -7.40943 0
M  V30 38103 H 3819.68 -1.96824 -6.66547 0
M  V30 38104 H 3822.88 -1.04495 -4.56288 0
M  V30 38105 H 3823.05 -1.69172 -6.25528 0
M  V30 38106 N 3816.45 1.56367 -0.196777 0
M  V30 38107 C 3817.38 2.22169 0.718568 0
M  V30 38108 C 3818.37 1.18532 1.22 0
M  V30 38109 O 3819.55 1.47044 1.26853 0
M  V30 38110 C 3816.68 2.88235 1.93748 0
M  V30 38111 C 3815.63 3.98129 1.57089 0
M  V30 38112 C 3814.96 4.51368 2.86655 0
M  V30 38113 C 3816.26 5.1645 0.779559 0
M  V30 38114 H 3817.95 2.98917 0.170012 0
M  V30 38115 H 3815.5 1.43776 0.0803315 0
M  V30 38116 H 3817.45 3.32951 2.58306 0
M  V30 38117 H 3816.18 2.08894 2.51059 0
M  V30 38118 H 3814.84 3.54107 0.948885 0
M  V30 38119 H 3814.48 3.68788 3.42059 0
M  V30 38120 H 3814.18 5.25521 2.62871 0
M  V30 38121 H 3815.71 4.98787 3.52198 0
M  V30 38122 H 3817.12 5.577 1.32828 0
M  V30 38123 H 3815.52 5.9668 0.639777 0
M  V30 38124 H 3816.59 4.84405 -0.219029 0
M  V30 38125 N 3817.93 -0.0768128 1.57413 0
M  V30 38126 C 3819.18 -0.775381 1.86634 0
M  V30 38127 C 3819.5 -1.78366 0.788072 0
M  V30 38128 O 3818.77 -1.95036 -0.183801 0
M  V30 38129 H 3817.35 -0.289352 0.688683 0
M  V30 38130 H 3820.01 -0.0540942 1.94825 0
M  V30 38131 H 3819.11 -1.29469 2.83979 0
M  V30 38132 N 3819.41 -1.53708 -0.348084 0
M  V30 38133 C 3820.34 -1.84363 -1.43292 0
M  V30 38134 C 3821.32 -0.698403 -1.55101 0
M  V30 38135 O 3822.51 -0.949894 -1.69383 0
M  V30 38136 C 3819.64 -2.04917 -2.80404 0
M  V30 38137 C 3818.59 -3.20726 -2.83406 0
M  V30 38138 C 3817.92 -3.26605 -4.2336 0
M  V30 38139 C 3819.22 -4.58936 -2.4935 0
M  V30 38140 H 3820.91 -2.75214 -1.17887 0
M  V30 38141 H 3818.46 -1.32424 -0.565669 0
M  V30 38142 H 3820.41 -2.24946 -3.56339 0
M  V30 38143 H 3819.13 -1.10791 -3.07234 0
M  V30 38144 H 3817.79 -3.00546 -2.09924 0
M  V30 38145 H 3817.44 -2.30083 -4.47293 0
M  V30 38146 H 3817.14 -4.04424 -4.2628 0
M  V30 38147 H 3818.66 -3.48838 -5.01143 0
M  V30 38148 H 3820.08 -4.79009 -3.14998 0
M  V30 38149 H 3818.48 -5.39125 -2.63561 0
M  V30 38150 H 3819.55 -4.62854 -1.44549 0
M  V30 38151 N 3820.89 0.608851 -1.45364 0
M  V30 38152 C 3822.13 1.36992 -1.49536 0
M  V30 38153 C 3822.47 1.93722 -0.136121 0
M  V30 38154 O 3821.74 1.7498 0.849246 0
M  V30 38155 C 3822.03 2.51877 -2.57352 0
M  V30 38156 C 3821.88 2.00351 -4.02715 0
M  V30 38157 C 3823.2 3.54011 -2.61465 0
M  V30 38158 H 3820.32 0.496757 -0.544427 0
M  V30 38159 H 3822.96 0.686442 -1.77167 0
M  V30 38160 H 3821.11 3.10181 -2.33923 0
M  V30 38161 H 3822.78 1.46705 -4.3735 0
M  V30 38162 H 3821.02 1.31361 -4.13433 0
M  V30 38163 H 3821.69 2.83162 -4.73839 0
M  V30 38164 H 3824.17 3.05545 -2.82456 0
M  V30 38165 H 3823.05 4.31888 -3.38769 0
M  V30 38166 H 3823.31 4.09546 -1.66506 0
M  V30 38167 N 3822.37 1.32633 0.851242 0
M  V30 38168 C 3823.61 1.2458 1.60783 0
M  V30 38169 C 3823.97 -0.189769 1.91462 0
M  V30 38170 O 3823.26 -1.12848 1.54841 0
M  V30 38171 C 3823.45 2.04217 2.93309 0
M  V30 38172 C 3823.28 3.55373 2.75573 0
M  V30 38173 C 3822.05 4.24705 2.73777 0
M  V30 38174 C 3824.25 4.49955 2.49087 0
M  V30 38175 N 3822.23 5.61891 2.47288 0
M  V30 38176 C 3823.6 5.74943 2.32036 0
M  V30 38177 C 3825.66 4.39175 2.34584 0
M  V30 38178 C 3824.36 6.90368 2.01953 0
M  V30 38179 C 3826.39 5.54403 2.05892 0
M  V30 38180 C 3825.75 6.78391 1.89643 0
M  V30 38181 H 3821.85 0.511042 0.591913 0
M  V30 38182 H 3824.43 1.67037 1.00034 0
M  V30 38183 H 3822.6 1.64101 3.52031 0
M  V30 38184 H 3824.34 1.88032 3.58366 0
M  V30 38185 H 3821.09 3.76856 2.86838 0
M  V30 38186 H 3821.52 6.34175 2.36962 0
M  V30 38187 H 3826.16 3.43963 2.45864 0
M  V30 38188 H 3823.88 7.85589 1.89409 0
M  V30 38189 H 3827.46 5.4799 1.95442 0
M  V30 38190 H 3826.34 7.66046 1.67759 0
M  V30 38191 N 3823.84 -1.06794 1.159 0
M  V30 38192 C 3824.81 -2.12313 0.863464 0
M  V30 38193 C 3825.81 -1.60196 -0.139298 0
M  V30 38194 O 3827 -1.73962 0.0910011 0
M  V30 38195 C 3824.13 -3.39662 0.29031 0
M  V30 38196 H 3825.32 -2.39963 1.79883 0
M  V30 38197 H 3822.88 -1.22777 0.967245 0
M  V30 38198 H 3823.61 -3.17658 -0.652981 0
M  V30 38199 H 3823.4 -3.78794 1.0128 0
M  V30 38200 H 3824.89 -4.17477 0.101313 0
M  V30 38201 N 3825.32 -0.956681 -1.25241 0
M  V30 38202 C 3826.29 -0.482988 -2.24053 0
M  V30 38203 C 3827.29 0.414443 -1.55367 0
M  V30 38204 O 3828.48 0.211445 -1.72912 0
M  V30 38205 C 3825.61 0.301916 -3.3956 0
M  V30 38206 H 3826.8 -1.35639 -2.67474 0
M  V30 38207 H 3824.35 -0.740162 -1.37664 0
M  V30 38208 H 3825.09 1.19289 -3.01564 0
M  V30 38209 H 3824.87 -0.341945 -3.90606 0
M  V30 38210 H 3826.36 0.622734 -4.12931 0
M  V30 38211 N 3826.8 1.39908 -0.725493 0
M  V30 38212 C 3827.73 2.3331 -0.094252 0
M  V30 38213 C 3828.71 1.53415 0.734701 0
M  V30 38214 O 3829.9 1.81845 0.681615 0
M  V30 38215 C 3827.03 3.37459 0.820899 0
M  V30 38216 C 3825.98 4.2789 0.0968231 0
M  V30 38217 C 3825.31 5.22659 1.12835 0
M  V30 38218 C 3826.61 5.11536 -1.05492 0
M  V30 38219 H 3828.3 2.86347 -0.874416 0
M  V30 38220 H 3825.85 1.3768 -0.421938 0
M  V30 38221 H 3827.8 4.01745 1.27196 0
M  V30 38222 H 3826.52 2.8284 1.63307 0
M  V30 38223 H 3825.18 3.65071 -0.334518 0
M  V30 38224 H 3824.83 4.6434 1.93384 0
M  V30 38225 H 3824.53 5.84008 0.648702 0
M  V30 38226 H 3826.05 5.89822 1.57932 0
M  V30 38227 H 3827.47 5.6922 -0.682757 0
M  V30 38228 H 3825.87 5.81979 -1.46359 0
M  V30 38229 H 3826.94 4.46929 -1.88103 0
M  V30 38230 N 3828.28 0.472408 1.50353 0
M  V30 38231 C 3829.21 -0.357389 2.26396 0
M  V30 38232 C 3830.22 -0.955925 1.3178 0
M  V30 38233 O 3831.41 -0.844109 1.5728 0
M  V30 38234 C 3828.51 -1.51536 3.03133 0
M  V30 38235 C 3827.69 -1.02937 4.25115 0
M  V30 38236 C 3826.74 -2.06156 4.84135 0
M  V30 38237 O 3825.77 -1.64164 5.45013 0
M  V30 38238 N 3826.97 -3.38974 4.7125 0
M  V30 38239 H 3829.74 0.294525 2.98249 0
M  V30 38240 H 3827.3 0.30327 1.59034 0
M  V30 38241 H 3829.29 -2.20283 3.39496 0
M  V30 38242 H 3827.86 -2.07195 2.3407 0
M  V30 38243 H 3827.08 -0.167752 3.93843 0
M  V30 38244 H 3828.37 -0.682616 5.042 0
M  V30 38245 H 3827.77 -3.75799 4.22837 0
M  V30 38246 H 3826.32 -4.03515 5.11878 0
M  V30 38247 N 3829.76 -1.5626 0.205067 0
M  V30 38248 C 3831.01 -1.97468 -0.430211 0
M  V30 38249 C 3831.33 -1.09345 -1.61458 0
M  V30 38250 O 3830.6 -0.166871 -1.95188 0
M  V30 38251 H 3829.18 -0.729237 -0.161932 0
M  V30 38252 H 3831.84 -1.92668 0.294123 0
M  V30 38253 H 3830.93 -3.02512 -0.767646 0
M  V30 38254 N 3831.24 0.0684638 -1.57451 0
M  V30 38255 C 3832.2 1.06542 -2.02932 0
M  V30 38256 C 3833.2 1.31398 -0.926884 0
M  V30 38257 O 3834.39 1.27063 -1.19167 0
M  V30 38258 C 3831.52 2.40825 -2.4128 0
M  V30 38259 H 3832.71 0.673349 -2.92243 0
M  V30 38260 H 3830.27 0.31428 -1.53108 0
M  V30 38261 H 3831 2.84858 -1.55005 0
M  V30 38262 H 3830.79 2.24125 -3.21731 0
M  V30 38263 H 3832.28 3.12479 -2.77032 0
M  V30 38264 N 3832.71 1.5389 0.339928 0
M  V30 38265 C 3834.13 1.44235 0.683261 0
M  V30 38266 C 3834.33 0.60201 1.92297 0
M  V30 38267 O 3833.39 0.0944067 2.52323 0
M  V30 38268 C 3834.7 2.87763 0.872525 0
M  V30 38269 C 3836.25 2.97561 0.970912 0
M  V30 38270 C 3836.72 4.42204 1.19247 0
M  V30 38271 N 3838.21 4.45745 1.25958 0
M  V30 38272 C 3838.95 5.548 1.44859 0
M  V30 38273 N 3838.44 6.73855 1.60909 0
M  V30 38274 N 3840.24 5.4242 1.47436 0
M  V30 38275 H 3832.39 2.07018 -0.475123 0
M  V30 38276 H 3834.65 0.935952 -0.15066 0
M  V30 38277 H 3834.36 3.51684 0.0330552 0
M  V30 38278 H 3834.23 3.32923 1.7732 0
M  V30 38279 H 3836.62 2.33777 1.8009 0
M  V30 38280 H 3836.7 2.55757 0.0470616 0
M  V30 38281 H 3836.34 5.06569 0.367393 0
M  V30 38282 H 3836.27 4.81603 2.12994 0
M  V30 38283 H 3838.76 3.59956 1.15065 0
M  V30 38284 H 3839.08 7.52731 1.74976 0
M  V30 38285 H 3837.42 6.76793 1.58038 0
M  V30 38286 H 3840.61 4.48366 1.34482 0
M  V30 38287 H 3840.79 6.27469 1.61823 0
M  V30 38288 N 3834.19 -0.601133 1.45685 0
M  V30 38289 C 3835.42 -1.38644 1.53576 0
M  V30 38290 C 3835.83 -1.88028 0.170544 0
M  V30 38291 O 3835.19 -1.62583 -0.829032 0
M  V30 38292 C 3835.24 -2.58654 2.52548 0
M  V30 38293 O 3834.96 -2.1132 3.83765 0
M  V30 38294 C 3836.46 -3.51436 2.702 0
M  V30 38295 H 3833.68 -0.424182 0.519914 0
M  V30 38296 H 3836.23 -0.732525 1.9093 0
M  V30 38297 H 3834.38 -3.20073 2.18248 0
M  V30 38298 H 3834.8 -2.89341 4.37472 0
M  V30 38299 H 3836.27 -4.32171 3.43413 0
M  V30 38300 H 3836.75 -4.02192 1.76459 0
M  V30 38301 H 3837.35 -2.95866 3.05522 0
M  V30 38302 N 3835.67 -1.33083 -0.844196 0
M  V30 38303 C 3836.6 -1.18725 -1.96053 0
M  V30 38304 C 3837.61 -0.119567 -1.6236 0
M  V30 38305 O 3838.8 -0.3695 -1.74634 0
M  V30 38306 C 3835.9 -0.797375 -3.29386 0
M  V30 38307 C 3835.08 -1.95557 -3.91249 0
M  V30 38308 C 3834.14 -1.54754 -5.02929 0
M  V30 38309 O 3833.16 -2.2611 -5.22363 0
M  V30 38310 N 3834.36 -0.449496 -5.78757 0
M  V30 38311 H 3837.13 -2.14889 -2.08908 0
M  V30 38312 H 3834.69 -1.25758 -1.01963 0
M  V30 38313 H 3836.68 -0.506607 -4.01517 0
M  V30 38314 H 3835.25 0.0734225 -3.12514 0
M  V30 38315 H 3834.47 -2.41226 -3.11775 0
M  V30 38316 H 3835.76 -2.73068 -4.29315 0
M  V30 38317 H 3835.16 0.14418 -5.65516 0
M  V30 38318 H 3833.71 -0.218378 -6.51434 0
M  V30 38319 N 3837.15 1.06178 -1.16464 0
M  V30 38320 C 3838.08 2.15648 -0.895437 0
M  V30 38321 C 3839.06 1.69358 0.158699 0
M  V30 38322 O 3840.24 1.94197 0.0105519 0
M  V30 38323 C 3837.37 3.45023 -0.39702 0
M  V30 38324 C 3836.33 4.04827 -1.3892 0
M  V30 38325 C 3835.65 5.29426 -0.749136 0
M  V30 38326 C 3836.95 4.43471 -2.75918 0
M  V30 38327 H 3838.65 2.38426 -1.81089 0
M  V30 38328 H 3836.19 1.14587 -0.872118 0
M  V30 38329 H 3838.15 4.20943 -0.19616 0
M  V30 38330 H 3836.87 3.21868 0.553945 0
M  V30 38331 H 3835.53 3.30965 -1.57662 0
M  V30 38332 H 3835.18 5.02568 0.208351 0
M  V30 38333 H 3834.88 5.70398 -1.41138 0
M  V30 38334 H 3836.4 6.08042 -0.558324 0
M  V30 38335 H 3837.82 5.10468 -2.60951 0
M  V30 38336 H 3836.21 4.95431 -3.38627 0
M  V30 38337 H 3837.28 3.54278 -3.31082 0
M  V30 38338 N 3838.63 0.96331 1.24732 0
M  V30 38339 C 3840.04 0.669128 1.44896 0
M  V30 38340 C 3840.24 -0.770508 1.86187 0
M  V30 38341 O 3839.3 -1.54488 1.99724 0
M  V30 38342 C 3840.61 1.64947 2.51422 0
M  V30 38343 C 3842.16 1.66161 2.65254 0
M  V30 38344 C 3842.63 2.62982 3.74973 0
M  V30 38345 N 3844.12 2.61398 3.82394 0
M  V30 38346 C 3844.86 3.3299 4.66804 0
M  V30 38347 N 3844.36 4.14083 5.55434 0
M  V30 38348 N 3846.15 3.21835 4.60846 0
M  V30 38349 H 3838.3 1.89352 0.962259 0
M  V30 38350 H 3840.56 0.814967 0.484286 0
M  V30 38351 H 3840.27 2.67819 2.2796 0
M  V30 38352 H 3840.14 1.41879 3.495 0
M  V30 38353 H 3842.53 0.640029 2.88076 0
M  V30 38354 H 3842.61 1.93291 1.67547 0
M  V30 38355 H 3842.25 3.65272 3.52901 0
M  V30 38356 H 3842.18 2.33133 4.72183 0
M  V30 38357 H 3844.68 2.02532 3.19044 0
M  V30 38358 H 3844.99 4.65608 6.1679 0
M  V30 38359 H 3843.33 4.18179 5.55114 0
M  V30 38360 H 3846.52 2.57947 3.90616 0
M  V30 38361 H 3846.7 3.77893 5.26404 0
M  V30 38362 N 3840.1 -1.39522 0.732902 0
M  V30 38363 C 3841.38 -1.94509 0.206324 0
M  V30 38364 C 3841.76 -1.66984 -1.29149 0
M  V30 38365 O 3841.11 -0.996931 -2.05605 0
M  V30 38366 C 3841.32 -3.44833 0.53768 0
M  V30 38367 C 3842.67 -4.21811 0.485861 0
M  V30 38368 O 3843.69 -3.53022 0.474748 0
M  V30 38369 O 3842.55 -5.44401 0.478553 0
M  V30 38370 H 3839.64 -0.826175 0.0369373 0
M  V30 38371 H 3842.19 -1.49033 0.811617 0
M  V30 38372 H 3840.96 -3.58293 1.57295 0
M  V30 38373 H 3840.58 -3.97482 -0.0966902 0
M  V30 38374 N 3841.58 -0.480375 -1.501 0
M  V30 38375 C 3842.83 0.0715017 -2.02674 0
M  V30 38376 C 3843.16 1.38532 -1.36097 0
M  V30 38377 O 3842.44 1.88233 -0.489736 0
M  V30 38378 C 3842.72 0.24563 -3.59261 0
M  V30 38379 C 3842.57 -1.08986 -4.36397 0
M  V30 38380 C 3843.89 0.995891 -4.28684 0
M  V30 38381 H 3841.01 0.0245114 -0.736592 0
M  V30 38382 H 3843.65 -0.627775 -1.79329 0
M  V30 38383 H 3841.8 0.841241 -3.79283 0
M  V30 38384 H 3843.47 -1.72277 -4.27923 0
M  V30 38385 H 3841.72 -1.68424 -3.9977 0
M  V30 38386 H 3842.39 -0.921564 -5.44253 0
M  V30 38387 H 3844.86 0.490952 -4.13193 0
M  V30 38388 H 3843.74 1.08654 -5.38039 0
M  V30 38389 H 3844 2.03472 -3.92494 0
M  V30 38390 N 3843.06 1.56149 -0.213351 0
M  V30 38391 C 3844.48 1.58965 0.142188 0
M  V30 38392 C 3844.68 1.22999 1.59604 0
M  V30 38393 O 3843.73 0.961349 2.33483 0
M  V30 38394 C 3845.04 3.0018 -0.176685 0
M  V30 38395 C 3846.59 3.12777 -0.11826 0
M  V30 38396 C 3847.07 4.56155 -0.410694 0
M  V30 38397 N 3848.56 4.61799 -0.359968 0
M  V30 38398 C 3849.29 5.7066 -0.559845 0
M  V30 38399 N 3848.79 6.87918 -0.821055 0
M  V30 38400 N 3850.58 5.59935 -0.492844 0
M  V30 38401 H 3842.73 1.77805 -1.16186 0
M  V30 38402 H 3845 0.826067 -0.4651 0
M  V30 38403 H 3844.7 3.3112 -1.18544 0
M  V30 38404 H 3844.58 3.73706 0.51219 0
M  V30 38405 H 3846.96 2.81639 0.88112 0
M  V30 38406 H 3847.04 2.41598 -0.840489 0
M  V30 38407 H 3846.69 4.88009 -1.40747 0
M  V30 38408 H 3846.62 5.25548 0.332633 0
M  V30 38409 H 3849.11 3.77538 -0.165436 0
M  V30 38410 H 3849.42 7.6679 -0.96189 0
M  V30 38411 H 3847.77 6.89682 -0.858157 0
M  V30 38412 H 3850.96 4.67207 -0.289063 0
M  V30 38413 H 3851.13 6.44711 -0.652025 0
M  V30 38414 N 3844.54 -0.0601128 1.57485 0
M  V30 38415 C 3845.5 -1.05464 2.03494 0
M  V30 38416 C 3846.5 -1.30905 0.933839 0
M  V30 38417 O 3847.69 -1.26429 1.19839 0
M  V30 38418 C 3844.82 -2.39542 2.42554 0
M  V30 38419 H 3846.02 -0.657841 2.92596 0
M  V30 38420 H 3843.57 -0.306156 1.53272 0
M  V30 38421 H 3844.3 -2.84032 1.56514 0
M  V30 38422 H 3844.09 -2.22415 3.22915 0
M  V30 38423 H 3845.58 -3.11005 2.78685 0
M  V30 38424 N 3846.02 -1.54068 -0.331762 0
M  V30 38425 C 3846.96 -1.82881 -1.40794 0
M  V30 38426 C 3847.93 -0.675319 -1.51752 0
M  V30 38427 O 3849.12 -0.920934 -1.67103 0
M  V30 38428 C 3846.26 -2.05455 -2.77276 0
M  V30 38429 C 3845.37 -3.33152 -2.75016 0
M  V30 38430 C 3844.51 -3.4573 -4.03291 0
M  V30 38431 C 3843.55 -4.67333 -3.95306 0
M  V30 38432 N 3842.68 -4.76881 -5.15295 0
M  V30 38433 H 3847.52 -2.74697 -1.15524 0
M  V30 38434 H 3845.06 -1.36049 -0.559387 0
M  V30 38435 H 3847.02 -2.16534 -3.56607 0
M  V30 38436 H 3845.65 -1.1694 -3.00873 0
M  V30 38437 H 3844.7 -3.30854 -1.87723 0
M  V30 38438 H 3846.01 -4.22586 -2.64996 0
M  V30 38439 H 3845.17 -3.56306 -4.91051 0
M  V30 38440 H 3843.9 -2.54374 -4.16107 0
M  V30 38441 H 3842.91 -4.56822 -3.05931 0
M  V30 38442 H 3844.13 -5.60065 -3.84063 0
M  V30 38443 H 3842.08 -3.88438 -5.28632 0
M  V30 38444 H 3842 -5.60268 -5.07578 0
M  V30 38445 H 3843.27 -4.91779 -6.04792 0
M  V30 38446 N 3847.49 0.593399 -1.46002 0
M  V30 38447 C 3848.44 1.70321 -1.55755 0
M  V30 38448 C 3849.41 1.6115 -0.402495 0
M  V30 38449 O 3850.6 1.8052 -0.617836 0
M  V30 38450 C 3847.74 3.0865 -1.54367 0
M  V30 38451 C 3846.85 3.28524 -2.80528 0
M  V30 38452 C 3845.98 4.5704 -2.70717 0
M  V30 38453 C 3845.02 4.70221 -3.91866 0
M  V30 38454 N 3844.16 5.90052 -3.80504 0
M  V30 38455 H 3849 1.61322 -2.50558 0
M  V30 38456 H 3846.54 0.786403 -1.24315 0
M  V30 38457 H 3848.5 3.88701 -1.51549 0
M  V30 38458 H 3847.13 3.16572 -0.631042 0
M  V30 38459 H 3846.18 2.4215 -2.93372 0
M  V30 38460 H 3847.49 3.34133 -3.70346 0
M  V30 38461 H 3846.64 5.45306 -2.65944 0
M  V30 38462 H 3845.38 4.53852 -1.78521 0
M  V30 38463 H 3844.39 3.80376 -3.96982 0
M  V30 38464 H 3845.61 4.75196 -4.85145 0
M  V30 38465 H 3843.56 5.87881 -2.91087 0
M  V30 38466 H 3843.48 5.96883 -4.63968 0
M  V30 38467 H 3844.74 6.80777 -3.79688 0
M  V30 38468 N 3848.97 1.33529 0.837127 0
M  V30 38469 C 3850.25 1.15681 1.57725 0
M  V30 38470 C 3850.63 -0.276141 2.09286 0
M  V30 38471 O 3849.98 -1.27543 1.89592 0
M  V30 38472 C 3850.19 2.19941 2.70974 0
M  V30 38473 C 3851.54 2.54186 3.40109 0
M  V30 38474 O 3852.56 2.18621 2.81217 0
M  V30 38475 O 3851.42 3.15225 4.46426 0
M  V30 38476 H 3848.51 0.447538 0.695442 0
M  V30 38477 H 3851.06 1.45117 0.879731 0
M  V30 38478 H 3849.83 3.16185 2.30527 0
M  V30 38479 H 3849.45 1.91601 3.48389 0
M  V30 38480 N 3850.45 -1.05559 1.17026 0
M  V30 38481 C 3851.38 -2.13199 0.841351 0
M  V30 38482 C 3852.4 -1.62064 -0.154639 0
M  V30 38483 O 3853.58 -1.78358 0.0711486 0
M  V30 38484 C 3850.68 -3.38097 0.233215 0
M  V30 38485 C 3849.86 -4.18522 1.27115 0
M  V30 38486 C 3848.92 -5.21769 0.681455 0
M  V30 38487 O 3847.94 -5.52903 1.35228 0
M  V30 38488 N 3849.14 -5.78091 -0.528279 0
M  V30 38489 H 3851.91 -2.42012 1.76777 0
M  V30 38490 H 3849.47 -1.21624 1.0686 0
M  V30 38491 H 3851.46 -4.04324 -0.174494 0
M  V30 38492 H 3850.03 -3.06848 -0.596911 0
M  V30 38493 H 3849.25 -3.4784 1.85475 0
M  V30 38494 H 3850.54 -4.69057 1.97137 0
M  V30 38495 H 3849.94 -5.55074 -1.09131 0
M  V30 38496 H 3848.5 -6.45858 -0.878101 0
M  V30 38497 N 3851.93 -0.969911 -1.2422 0
M  V30 38498 C 3852.86 -0.520785 -2.27618 0
M  V30 38499 C 3853.84 0.440702 -1.64292 0
M  V30 38500 O 3855.02 0.336347 -1.91265 0
M  V30 38501 C 3852.15 0.187707 -3.46792 0
M  V30 38502 C 3851.11 -0.690019 -4.22401 0
M  V30 38503 C 3850.43 0.150092 -5.34489 0
M  V30 38504 C 3851.73 -1.9757 -4.83491 0
M  V30 38505 H 3853.43 -1.38503 -2.65438 0
M  V30 38506 H 3850.97 -0.667421 -1.27599 0
M  V30 38507 H 3852.93 0.513143 -4.18264 0
M  V30 38508 H 3851.65 1.08632 -3.08004 0
M  V30 38509 H 3850.31 -0.998758 -3.52733 0
M  V30 38510 H 3849.96 1.04892 -4.91942 0
M  V30 38511 H 3849.66 -0.433994 -5.85995 0
M  V30 38512 H 3851.18 0.470148 -6.08787 0
M  V30 38513 H 3852.6 -1.71571 -5.47025 0
M  V30 38514 H 3850.99 -2.50669 -5.45238 0
M  V30 38515 H 3852.06 -2.66922 -4.04821 0
M  V30 38516 N 3853.41 1.39131 -0.740291 0
M  V30 38517 C 3854.32 2.34363 -0.105493 0
M  V30 38518 C 3855.33 1.58591 0.715881 0
M  V30 38519 O 3856.51 1.90856 0.643121 0
M  V30 38520 C 3853.57 3.37648 0.787081 0
M  V30 38521 C 3852.63 4.29274 -0.0471465 0
M  V30 38522 C 3851.87 5.27626 0.802921 0
M  V30 38523 O 3852.09 5.32617 2.04146 0
M  V30 38524 O 3851.02 6.01465 0.228773 0
M  V30 38525 H 3854.85 2.90316 -0.891639 0
M  V30 38526 H 3852.44 1.40749 -0.501021 0
M  V30 38527 H 3854.32 4.00924 1.29762 0
M  V30 38528 H 3852.99 2.84071 1.55195 0
M  V30 38529 H 3851.9 3.69203 -0.60333 0
M  V30 38530 H 3853.23 4.8607 -0.774359 0
M  V30 38531 N 3854.88 0.488329 1.49844 0
M  V30 38532 C 3855.85 -0.285666 2.27413 0
M  V30 38533 C 3856.85 -0.905238 1.32899 0
M  V30 38534 O 3858.04 -0.771736 1.56173 0
M  V30 38535 C 3855.17 -1.40859 3.10438 0
M  V30 38536 H 3856.36 0.394835 2.9729 0
M  V30 38537 H 3853.92 0.2429 1.54401 0
M  V30 38538 H 3854.65 -2.12362 2.45097 0
M  V30 38539 H 3854.44 -0.969924 3.79914 0
M  V30 38540 H 3855.93 -1.95413 3.69058 0
M  V30 38541 N 3856.36 -1.56034 0.221629 0
M  V30 38542 C 3857.31 -2.16929 -0.701838 0
M  V30 38543 C 3858.3 -1.11764 -1.15748 0
M  V30 38544 O 3859.49 -1.37752 -1.11146 0
M  V30 38545 C 3856.62 -2.8528 -1.90972 0
M  V30 38546 C 3855.7 -3.9767 -1.47375 0
M  V30 38547 N 3856.09 -5.00203 -0.750381 0
M  V30 38548 C 3854.39 -4.0976 -1.76103 0
M  V30 38549 C 3855.09 -5.79298 -0.528066 0
M  V30 38550 N 3854.07 -5.32666 -1.08479 0
M  V30 38551 H 3857.87 -2.93563 -0.140739 0
M  V30 38552 H 3855.39 -1.62384 0.0228896 0
M  V30 38553 H 3857.38 -3.27317 -2.58204 0
M  V30 38554 H 3856.04 -2.10142 -2.47528 0
M  V30 38555 H 3857.05 -5.16329 -0.403062 0
M  V30 38556 H 3853.73 -3.45774 -2.3398 0
M  V30 38557 H 3855.12 -6.71883 0.0476713 0
M  V30 38558 N 3857.84 0.0517601 -1.57515 0
M  V30 38559 C 3859.09 0.745989 -1.87398 0
M  V30 38560 C 3859.4 1.77716 -0.817084 0
M  V30 38561 O 3860.61 2.52238 -1.0044 0
M  V30 38562 C 3859.06 1.37777 -3.32484 0
M  V30 38563 C 3858.67 0.38413 -4.4635 0
M  V30 38564 C 3860.42 2.0532 -3.71543 0
M  V30 38565 C 3858.32 1.02297 -5.82485 0
M  V30 38566 H 3857.25 0.282367 -0.699132 0
M  V30 38567 H 3859.9 -0.000277779 -1.835 0
M  V30 38568 H 3858.29 2.17298 -3.31055 0
M  V30 38569 H 3859.46 -0.38272 -4.59208 0
M  V30 38570 H 3857.78 -0.187946 -4.15976 0
M  V30 38571 H 3860.37 2.53928 -4.70558 0
M  V30 38572 H 3860.72 2.86148 -3.02366 0
M  V30 38573 H 3861.25 1.32604 -3.75048 0
M  V30 38574 H 3857.99 0.254589 -6.55005 0
M  V30 38575 H 3857.51 1.7602 -5.73391 0
M  V30 38576 H 3859.19 1.53698 -6.28479 0
M  V30 38577 N 3859.32 1.54242 0.323587 0
M  V30 38578 C 3860.25 1.79966 1.41933 0
M  V30 38579 C 3861.26 0.68163 1.47843 0
M  V30 38580 O 3862.45 0.958737 1.50567 0
M  V30 38581 C 3859.55 1.90238 2.80469 0
M  V30 38582 C 3858.73 3.20401 2.97762 0
M  V30 38583 C 3857.79 3.21375 4.16659 0
M  V30 38584 O 3856.81 3.95014 4.0982 0
M  V30 38585 N 3858.01 2.45157 5.26192 0
M  V30 38586 H 3860.78 2.74526 1.2023 0
M  V30 38587 H 3858.34 1.53538 0.513573 0
M  V30 38588 H 3860.33 1.88318 3.58216 0
M  V30 38589 H 3858.9 1.02774 2.95222 0
M  V30 38590 H 3858.12 3.35281 2.07316 0
M  V30 38591 H 3859.41 4.06339 3.06212 0
M  V30 38592 H 3858.81 1.84918 5.34623 0
M  V30 38593 H 3857.36 2.49014 6.02358 0
M  V30 38594 N 3860.8 -0.585648 1.46314 0
M  V30 38595 C 3861.76 -1.67694 1.56242 0
M  V30 38596 C 3862.76 -1.54668 0.439835 0
M  V30 38597 O 3863.95 -1.59339 0.704047 0
M  V30 38598 C 3861.08 -3.07102 1.47991 0
M  V30 38599 H 3862.28 -1.60251 2.53495 0
M  V30 38600 H 3859.83 -0.803241 1.34081 0
M  V30 38601 H 3860.56 -3.20103 0.520063 0
M  V30 38602 H 3860.35 -3.17965 2.29436 0
M  V30 38603 H 3861.84 -3.86549 1.58017 0
M  V30 38604 N 3862.28 -1.33971 -0.830033 0
M  V30 38605 C 3863.24 -1.24862 -1.92204 0
M  V30 38606 C 3864.24 -0.165518 -1.59946 0
M  V30 38607 O 3865.43 -0.417659 -1.69119 0
M  V30 38608 C 3862.56 -0.926086 -3.2808 0
M  V30 38609 H 3863.75 -2.21935 -2.01705 0
M  V30 38610 H 3861.31 -1.18156 -1.02317 0
M  V30 38611 H 3862.04 0.0417794 -3.24273 0
M  V30 38612 H 3861.83 -1.70944 -3.52875 0
M  V30 38613 H 3863.32 -0.887335 -4.08064 0
M  V30 38614 N 3863.75 1.04937 -1.17584 0
M  V30 38615 C 3864.69 2.1275 -0.852646 0
M  V30 38616 C 3865.7 1.62144 0.146042 0
M  V30 38617 O 3866.89 1.78318 -0.0806064 0
M  V30 38618 C 3863.99 3.37968 -0.251142 0
M  V30 38619 C 3863.16 4.17842 -1.29333 0
M  V30 38620 C 3862.22 5.214 -0.709116 0
M  V30 38621 O 3861.25 5.52178 -1.38159 0
M  V30 38622 N 3862.45 5.78363 0.497614 0
M  V30 38623 H 3865.21 2.41071 -1.78058 0
M  V30 38624 H 3862.77 1.21056 -1.07504 0
M  V30 38625 H 3864.77 4.0441 0.153049 0
M  V30 38626 H 3863.34 3.0716 0.58063 0
M  V30 38627 H 3862.56 3.46851 -1.87317 0
M  V30 38628 H 3863.84 4.68005 -1.99622 0
M  V30 38629 H 3863.24 5.55645 1.06186 0
M  V30 38630 H 3861.8 6.46315 0.843837 0
M  V30 38631 N 3865.23 0.976485 1.23703 0
M  V30 38632 C 3866.19 0.518572 2.23257 0
M  V30 38633 C 3867.19 -0.389673 1.56007 0
M  V30 38634 O 3868.38 -0.183909 1.73226 0
M  V30 38635 C 3865.52 -0.247856 3.39998 0
M  V30 38636 H 3866.71 1.39877 2.65282 0
M  V30 38637 H 3864.26 0.76197 1.36469 0
M  V30 38638 H 3865 -1.14476 3.03423 0
M  V30 38639 H 3864.78 0.404044 3.90013 0
M  V30 38640 H 3866.27 -0.556962 4.13869 0
M  V30 38641 N 3866.71 -1.38737 0.747659 0
M  V30 38642 C 3867.64 -2.28109 0.0645393 0
M  V30 38643 C 3868.62 -1.45064 -0.734529 0
M  V30 38644 O 3869.8 -1.74437 -0.714413 0
M  V30 38645 C 3866.93 -3.26091 -0.915538 0
M  V30 38646 C 3865.98 -4.26015 -0.203424 0
M  V30 38647 S 3866.81 -5.24256 1.0916 0
M  V30 38648 C 3867.97 -6.25795 0.114444 0
M  V30 38649 H 3868.2 -2.85698 0.822422 0
M  V30 38650 H 3865.73 -1.4465 0.539987 0
M  V30 38651 H 3867.69 -3.83059 -1.47568 0
M  V30 38652 H 3866.35 -2.67496 -1.64635 0
M  V30 38653 H 3865.54 -4.95052 -0.945485 0
M  V30 38654 H 3865.15 -3.72912 0.285032 0
M  V30 38655 H 3867.44 -6.73646 -0.721618 0
M  V30 38656 H 3868.38 -7.03876 0.772312 0
M  V30 38657 H 3868.79 -5.63884 -0.263607 0
M  V30 38658 N 3868.19 -0.496268 -1.49583 0
M  V30 38659 C 3869.12 0.274098 -2.31886 0
M  V30 38660 C 3870.1 0.966986 -1.39941 0
M  V30 38661 O 3871.28 0.959304 -1.68852 0
M  V30 38662 C 3868.41 1.34175 -3.20335 0
M  V30 38663 C 3867.37 0.769017 -4.21035 0
M  V30 38664 C 3866.69 1.93684 -4.98388 0
M  V30 38665 C 3867.99 -0.23674 -5.21763 0
M  V30 38666 H 3869.69 -0.412876 -2.9654 0
M  V30 38667 H 3867.23 -0.200004 -1.42604 0
M  V30 38668 H 3869.19 1.88837 -3.76721 0
M  V30 38669 H 3867.91 2.05785 -2.53614 0
M  V30 38670 H 3866.57 0.244187 -3.65786 0
M  V30 38671 H 3866.22 2.64051 -4.28119 0
M  V30 38672 H 3865.92 1.55971 -5.66522 0
M  V30 38673 H 3867.44 2.48788 -5.57617 0
M  V30 38674 H 3868.86 0.221571 -5.72872 0
M  V30 38675 H 3867.25 -0.529451 -5.9776 0
M  V30 38676 H 3868.32 -1.15423 -4.70962 0
M  V30 38677 N 3869.67 1.55914 -0.2299 0
M  V30 38678 C 3870.63 2.19392 0.663309 0
M  V30 38679 C 3871.63 1.1582 1.11546 0
M  V30 38680 O 3872.82 1.41004 1.02291 0
M  V30 38681 C 3869.95 2.82392 1.90965 0
M  V30 38682 H 3871.14 2.99699 0.109744 0
M  V30 38683 H 3868.7 1.56288 0.0196959 0
M  V30 38684 H 3869.43 2.05977 2.50487 0
M  V30 38685 H 3869.22 3.58245 1.59382 0
M  V30 38686 H 3870.71 3.31024 2.54584 0
M  V30 38687 N 3871.14 -0.043406 1.5754 0
M  V30 38688 C 3872.08 -1.0811 2.00966 0
M  V30 38689 C 3873.05 -1.35986 0.891428 0
M  V30 38690 O 3874.24 -1.48885 1.1561 0
M  V30 38691 C 3871.37 -2.41915 2.37055 0
M  V30 38692 C 3870.41 -2.2999 3.59175 0
M  V30 38693 S 3871.24 -1.66693 5.08894 0
M  V30 38694 C 3872.4 -3.02018 5.48212 0
M  V30 38695 H 3872.63 -0.711152 2.88669 0
M  V30 38696 H 3870.17 -0.252913 1.52315 0
M  V30 38697 H 3872.12 -3.1887 2.58519 0
M  V30 38698 H 3870.79 -2.76062 1.49829 0
M  V30 38699 H 3869.98 -3.28733 3.82035 0
M  V30 38700 H 3869.58 -1.61175 3.37489 0
M  V30 38701 H 3871.87 -3.98349 5.48019 0
M  V30 38702 H 3872.82 -2.83907 6.48693 0
M  V30 38703 H 3873.22 -3.03931 4.75696 0
M  V30 38704 N 3872.62 -1.54412 -0.315402 0
M  V30 38705 C 3873.9 -1.63667 -1.0711 0
M  V30 38706 C 3874.28 -0.475724 -2.0567 0
M  V30 38707 O 3873.63 0.529141 -2.22289 0
M  V30 38708 C 3873.84 -3.01033 -1.76578 0
M  V30 38709 C 3875.18 -3.57359 -2.29303 0
M  V30 38710 O 3876.21 -3.03392 -1.86633 0
M  V30 38711 O 3875.07 -4.51819 -3.07444 0
M  V30 38712 H 3872.16 -0.663092 -0.494205 0
M  V30 38713 H 3874.71 -1.66758 -0.314641 0
M  V30 38714 H 3873.48 -3.76968 -1.04933 0
M  V30 38715 H 3873.1 -3.01657 -2.59015 0
M  V30 38716 N 3874.1 0.57788 -1.46623 0
M  V30 38717 C 3875.33 1.36183 -1.55762 0
M  V30 38718 C 3875.74 1.87733 -0.200436 0
M  V30 38719 O 3875.1 1.63882 0.803062 0
M  V30 38720 C 3875.15 2.54603 -2.56631 0
M  V30 38721 O 3874.87 2.05188 -3.87078 0
M  V30 38722 C 3876.37 3.47092 -2.75757 0
M  V30 38723 H 3873.59 0.415857 -0.526597 0
M  V30 38724 H 3876.14 0.702057 -1.92071 0
M  V30 38725 H 3874.29 3.1656 -2.23312 0
M  V30 38726 H 3874.71 2.82345 -4.4202 0
M  V30 38727 H 3876.18 4.26653 -3.50245 0
M  V30 38728 H 3876.66 3.99334 -1.82836 0
M  V30 38729 H 3877.26 2.90967 -3.1019 0
M  V30 38730 N 3875.58 1.34409 0.822917 0
M  V30 38731 C 3876.86 1.17347 1.5649 0
M  V30 38732 C 3877.24 -0.253928 2.09567 0
M  V30 38733 O 3876.58 -1.25525 1.90934 0
M  V30 38734 C 3876.79 2.22802 2.68626 0
M  V30 38735 C 3878.14 2.57779 3.37394 0
M  V30 38736 O 3879.17 2.21591 2.78883 0
M  V30 38737 O 3878.02 3.19942 4.43057 0
M  V30 38738 H 3875.12 0.454888 0.690656 0
M  V30 38739 H 3877.66 1.46042 0.86429 0
M  V30 38740 H 3876.44 3.18612 2.2716 0
M  V30 38741 H 3876.06 1.95285 3.46337 0
M  V30 38742 N 3877.06 -1.04312 1.18139 0
M  V30 38743 C 3877.97 -2.15762 0.921081 0
M  V30 38744 C 3878.98 -1.73627 -0.11393 0
M  V30 38745 O 3880.16 -2.01287 0.0674086 0
M  V30 38746 C 3877.22 -3.43798 0.447641 0
M  V30 38747 C 3876.28 -4.00329 1.55032 0
M  V30 38748 C 3875.52 -5.22254 1.09937 0
M  V30 38749 O 3875.74 -5.70384 -0.0429149 0
M  V30 38750 O 3874.67 -5.71255 1.8961 0
M  V30 38751 H 3878.5 -2.40575 1.85357 0
M  V30 38752 H 3876.09 -1.14222 0.963005 0
M  V30 38753 H 3877.97 -4.20964 0.191571 0
M  V30 38754 H 3876.64 -3.20464 -0.456585 0
M  V30 38755 H 3875.55 -3.24563 1.86037 0
M  V30 38756 H 3876.88 -4.28 2.43058 0
M  V30 38757 N 3878.53 -0.983032 -1.23184 0
M  V30 38758 C 3879.76 -0.671487 -1.957 0
M  V30 38759 C 3880.18 0.76203 -1.72738 0
M  V30 38760 O 3879.53 1.51308 -1.0204 0
M  V30 38761 C 3879.59 -0.955635 -3.4864 0
M  V30 38762 O 3879.31 -2.33281 -3.70825 0
M  V30 38763 C 3880.81 -0.66041 -4.38353 0
M  V30 38764 H 3878.03 -0.249219 -0.623001 0
M  V30 38765 H 3880.57 -1.31513 -1.56603 0
M  V30 38766 H 3878.73 -0.35796 -3.85743 0
M  V30 38767 H 3879.14 -2.42451 -4.651 0
M  V30 38768 H 3880.61 -0.909573 -5.44455 0
M  V30 38769 H 3881.09 0.405538 -4.37324 0
M  V30 38770 H 3881.7 -1.23868 -4.06862 0
M  V30 38771 N 3880.01 1.38338 -0.755006 0
M  V30 38772 C 3881.24 2.04895 -0.321391 0
M  V30 38773 C 3881.66 1.5657 1.04247 0
M  V30 38774 O 3881.02 0.718329 1.66462 0
M  V30 38775 C 3881.07 3.58849 -0.354936 0
M  V30 38776 O 3880.17 4.07236 0.650558 0
M  V30 38777 H 3879.51 0.648629 -0.142045 0
M  V30 38778 H 3882.04 1.76985 -1.02652 0
M  V30 38779 H 3882.05 4.07478 -0.206315 0
M  V30 38780 H 3880.73 3.9338 -1.35001 0
M  V30 38781 H 3879.31 3.69971 0.466433 0
M  V30 38782 N 3881.49 0.504194 1.49317 0
M  V30 38783 C 3882.44 -0.272525 2.29185 0
M  V30 38784 C 3883.41 -0.957453 1.35728 0
M  V30 38785 O 3884.59 -0.963495 1.64686 0
M  V30 38786 C 3881.73 -1.3291 3.18479 0
M  V30 38787 C 3880.85 -0.655629 4.26996 0
M  V30 38788 C 3879.98 -1.69292 5.03501 0
M  V30 38789 C 3879.02 -1.00149 6.03851 0
M  V30 38790 N 3878.16 -1.98313 6.7351 0
M  V30 38791 H 3883 0.414792 2.95099 0
M  V30 38792 H 3880.53 0.216398 1.455 0
M  V30 38793 H 3882.49 -1.95371 3.68627 0
M  V30 38794 H 3881.12 -1.98514 2.54543 0
M  V30 38795 H 3880.17 0.0823321 3.80311 0
M  V30 38796 H 3881.49 -0.111496 4.98675 0
M  V30 38797 H 3880.64 -2.39249 5.57535 0
M  V30 38798 H 3879.38 -2.27091 4.31603 0
M  V30 38799 H 3878.38 -0.287715 5.49047 0
M  V30 38800 H 3879.61 -0.429954 6.77738 0
M  V30 38801 H 3877.55 -2.55069 6.04381 0
M  V30 38802 H 3877.47 -1.48975 7.41176 0
M  V30 38803 H 3878.74 -2.67549 7.32146 0
M  V30 38804 N 3882.97 -1.5579 0.238166 0
M  V30 38805 C 3883.92 -2.2101 -0.665059 0
M  V30 38806 C 3884.89 -1.17109 -1.17791 0
M  V30 38807 O 3886.07 -1.45526 -1.23397 0
M  V30 38808 C 3883.21 -2.90671 -1.86023 0
M  V30 38809 C 3882.32 -4.09206 -1.38473 0
M  V30 38810 C 3881.46 -4.66605 -2.53877 0
M  V30 38811 C 3880.5 -5.77407 -2.03145 0
M  V30 38812 N 3879.63 -6.29025 -3.11884 0
M  V30 38813 H 3884.47 -2.97825 -0.102189 0
M  V30 38814 H 3882.01 -1.47049 -0.0386805 0
M  V30 38815 H 3883.97 -3.29252 -2.5622 0
M  V30 38816 H 3882.6 -2.16345 -2.39572 0
M  V30 38817 H 3881.65 -3.75997 -0.577106 0
M  V30 38818 H 3882.96 -4.89221 -0.97286 0
M  V30 38819 H 3882.12 -5.07715 -3.3213 0
M  V30 38820 H 3880.86 -3.85787 -2.98361 0
M  V30 38821 H 3879.86 -5.35782 -1.2336 0
M  V30 38822 H 3881.09 -6.60069 -1.59641 0
M  V30 38823 H 3879.03 -5.51116 -3.55818 0
M  V30 38824 H 3878.95 -7.04209 -2.75001 0
M  V30 38825 H 3880.22 -6.74794 -3.90222 0
M  V30 38826 N 3884.45 0.0350506 -1.57561 0
M  V30 38827 C 3885.7 0.726071 -1.88178 0
M  V30 38828 C 3886.01 1.7684 -0.835887 0
M  V30 38829 O 3887.21 2.51159 -1.03109 0
M  V30 38830 C 3885.67 1.34243 -3.33926 0
M  V30 38831 C 3885.28 0.336767 -4.46732 0
M  V30 38832 C 3887.02 2.01368 -3.73699 0
M  V30 38833 C 3884.93 0.961132 -5.83538 0
M  V30 38834 H 3883.86 0.274936 -0.702087 0
M  V30 38835 H 3886.51 -0.0197404 -1.83489 0
M  V30 38836 H 3884.89 2.13775 -3.33341 0
M  V30 38837 H 3886.07 -0.431404 -4.58776 0
M  V30 38838 H 3884.38 -0.232056 -4.15753 0
M  V30 38839 H 3886.98 2.48923 -4.73224 0
M  V30 38840 H 3887.32 2.82925 -3.05384 0
M  V30 38841 H 3887.85 1.28619 -3.76433 0
M  V30 38842 H 3884.59 0.185102 -6.55239 0
M  V30 38843 H 3884.11 1.69928 -5.75226 0
M  V30 38844 H 3885.79 1.47024 -6.30074 0
M  V30 38845 N 3885.92 1.54577 0.307209 0
M  V30 38846 C 3886.89 1.84361 1.36175 0
M  V30 38847 C 3887.89 0.716188 1.4397 0
M  V30 38848 O 3889.08 0.984485 1.43713 0
M  V30 38849 C 3886.21 2.01833 2.7473 0
M  V30 38850 H 3887.4 2.78597 1.11012 0
M  V30 38851 H 3884.96 1.46544 0.543556 0
M  V30 38852 H 3885.69 1.09864 3.05124 0
M  V30 38853 H 3885.48 2.83888 2.70463 0
M  V30 38854 H 3886.97 2.26267 3.50988 0
M  V30 38855 N 3887.4 -0.570096 1.46927 0
M  V30 38856 C 3888.35 -1.67342 1.54857 0
M  V30 38857 C 3889.34 -1.55629 0.408458 0
M  V30 38858 O 3890.53 -1.6433 0.657625 0
M  V30 38859 C 3887.66 -3.06127 1.55374 0
M  V30 38860 C 3886.74 -3.23091 2.74724 0
M  V30 38861 N 3887.13 -3.10166 3.99538 0
M  V30 38862 C 3885.43 -3.54061 2.71213 0
M  V30 38863 C 3886.13 -3.29474 4.79397 0
M  V30 38864 N 3885.11 -3.55214 4.1149 0
M  V30 38865 H 3888.91 -1.55899 2.49144 0
M  V30 38866 H 3886.43 -0.774493 1.42742 0
M  V30 38867 H 3888.42 -3.8533 1.59143 0
M  V30 38868 H 3887.08 -3.18692 0.621726 0
M  V30 38869 H 3888.09 -2.87765 4.30595 0
M  V30 38870 H 3884.77 -3.73233 1.87092 0
M  V30 38871 H 3886.16 -3.24558 5.88313 0
M  V30 38872 N 3888.88 -1.34844 -0.815777 0
M  V30 38873 C 3889.84 -1.26893 -1.90868 0
M  V30 38874 C 3890.84 -0.182473 -1.59761 0
M  V30 38875 O 3892.03 -0.435572 -1.68667 0
M  V30 38876 C 3889.17 -0.960832 -3.27079 0
M  V30 38877 H 3890.36 -2.24062 -1.99339 0
M  V30 38878 H 3887.91 -1.19235 -1.01058 0
M  V30 38879 H 3888.65 0.00738359 -3.24299 0
M  V30 38880 H 3888.43 -1.74677 -3.51042 0
M  V30 38881 H 3889.92 -0.930565 -4.071 0
M  V30 38882 N 3890.36 1.03684 -1.1869 0
M  V30 38883 C 3891.31 2.11784 -0.917406 0
M  V30 38884 C 3892.28 1.65469 0.14469 0
M  V30 38885 O 3893.46 1.908 0.00423662 0
M  V30 38886 C 3890.6 3.42108 -0.453456 0
M  V30 38887 C 3889.71 4.02014 -1.58141 0
M  V30 38888 C 3888.85 5.20316 -1.0698 0
M  V30 38889 C 3887.89 5.72261 -2.17219 0
M  V30 38890 N 3887.03 6.81846 -1.67423 0
M  V30 38891 H 3891.87 2.34174 -1.84301 0
M  V30 38892 H 3889.4 1.14862 -0.918971 0
M  V30 38893 H 3891.36 4.1687 -0.165917 0
M  V30 38894 H 3889.99 3.19853 0.435163 0
M  V30 38895 H 3889.04 3.24543 -1.98434 0
M  V30 38896 H 3890.35 4.3659 -2.41227 0
M  V30 38897 H 3889.51 6.02207 -0.737012 0
M  V30 38898 H 3888.25 4.87254 -0.208572 0
M  V30 38899 H 3887.25 4.88989 -2.51337 0
M  V30 38900 H 3888.48 6.07365 -3.03783 0
M  V30 38901 H 3886.42 6.50652 -0.835955 0
M  V30 38902 H 3886.34 7.15506 -2.44103 0
M  V30 38903 H 3887.61 7.67352 -1.37083 0
M  V30 38904 N 3891.84 0.989551 1.22661 0
M  V30 38905 C 3892.8 0.542222 2.22694 0
M  V30 38906 C 3893.8 -0.373104 1.56412 0
M  V30 38907 O 3894.99 -0.165526 1.73412 0
M  V30 38908 C 3892.12 -0.211781 3.40242 0
M  V30 38909 H 3893.32 1.42683 2.63783 0
M  V30 38910 H 3890.87 0.776401 1.35653 0
M  V30 38911 H 3891.6 -1.11252 3.0462 0
M  V30 38912 H 3891.39 0.445387 3.89562 0
M  V30 38913 H 3892.88 -0.513034 4.14437 0
M  V30 38914 N 3893.32 -1.37936 0.762332 0
M  V30 38915 C 3894.56 -2.00213 0.322881 0
M  V30 38916 C 3894.89 -1.60378 -1.09511 0
M  V30 38917 O 3894.17 -0.845462 -1.75163 0
M  V30 38918 C 3894.45 -3.57205 0.455714 0
M  V30 38919 C 3894.31 -4.06978 1.91544 0
M  V30 38920 C 3895.62 -4.39859 -0.145681 0
M  V30 38921 H 3892.74 -0.727363 0.118794 0
M  V30 38922 H 3895.39 -1.63751 0.963614 0
M  V30 38923 H 3893.54 -3.88396 -0.0897658 0
M  V30 38924 H 3895.21 -3.86392 2.5199 0
M  V30 38925 H 3893.45 -3.5952 2.42751 0
M  V30 38926 H 3894.12 -5.1605 1.95949 0
M  V30 38927 H 3896.6 -4.14871 0.319633 0
M  V30 38928 H 3895.47 -5.48895 -0.0225476 0
M  V30 38929 H 3895.73 -4.24501 -1.23497 0
M  V30 38930 N 3894.79 -0.512106 -1.49048 0
M  V30 38931 C 3895.76 0.249451 -2.27839 0
M  V30 38932 C 3896.76 0.88398 -1.34322 0
M  V30 38933 O 3897.95 0.746792 -1.57381 0
M  V30 38934 C 3895.08 1.35902 -3.12639 0
M  V30 38935 H 3896.27 -0.442081 -2.96624 0
M  V30 38936 H 3893.82 -0.267433 -1.53995 0
M  V30 38937 H 3894.56 2.08436 -2.48445 0
M  V30 38938 H 3894.34 0.90936 -3.81409 0
M  V30 38939 H 3895.83 1.89517 -3.7212 0
M  V30 38940 N 3896.27 1.55662 -0.246424 0
M  V30 38941 C 3897.23 2.20083 0.640002 0
M  V30 38942 C 3898.23 1.16996 1.10311 0
M  V30 38943 O 3899.42 1.42081 1.0079 0
M  V30 38944 C 3896.56 2.84401 1.87959 0
M  V30 38945 H 3897.75 2.99799 0.0779507 0
M  V30 38946 H 3895.3 1.563 0.00311841 0
M  V30 38947 H 3896.04 2.08622 2.48289 0
M  V30 38948 H 3895.82 3.59916 1.55573 0
M  V30 38949 H 3897.31 3.33705 2.51059 0
M  V30 38950 N 3897.75 -0.0266943 1.57577 0
M  V30 38951 C 3898.66 -1.04348 2.10116 0
M  V30 38952 C 3899.68 -1.39476 1.04032 0
M  V30 38953 O 3900.85 -1.48747 1.3578 0
M  V30 38954 C 3897.92 -2.32477 2.57207 0
M  V30 38955 C 3896.98 -2.03908 3.77783 0
M  V30 38956 C 3896.21 -3.25928 4.22619 0
M  V30 38957 O 3896.43 -4.36686 3.66963 0
M  V30 38958 O 3895.37 -3.11489 5.15032 0
M  V30 38959 H 3899.19 -0.626969 2.97158 0
M  V30 38960 H 3896.78 -0.243829 1.47397 0
M  V30 38961 H 3898.66 -3.078 2.87815 0
M  V30 38962 H 3897.34 -2.73418 1.73275 0
M  V30 38963 H 3896.24 -1.26146 3.5219 0
M  V30 38964 H 3897.58 -1.67821 4.62706 0
M  V30 38965 N 3899.23 -1.54738 -0.299007 0
M  V30 38966 C 3900.19 -1.85081 -1.35195 0
M  V30 38967 C 3901.19 -0.723813 -1.43588 0
M  V30 38968 O 3902.38 -0.992092 -1.43189 0
M  V30 38969 C 3899.51 -2.03287 -2.73655 0
M  V30 38970 H 3900.71 -2.79182 -1.09533 0
M  V30 38971 H 3898.26 -1.4683 -0.535777 0
M  V30 38972 H 3898.99 -1.1148 -3.04537 0
M  V30 38973 H 3898.78 -2.85318 -2.68954 0
M  V30 38974 H 3900.27 -2.28126 -3.49783 0
M  V30 38975 N 3900.71 0.562296 -1.47228 0
M  V30 38976 C 3901.64 1.68487 -1.55386 0
M  V30 38977 C 3902.65 1.56728 -0.440465 0
M  V30 38978 O 3903.84 1.63779 -0.709831 0
M  V30 38979 C 3900.94 3.06913 -1.43728 0
M  V30 38980 C 3900.11 3.44475 -2.69547 0
M  V30 38981 C 3899.17 4.62044 -2.51798 0
M  V30 38982 O 3898.2 4.66879 -3.25596 0
M  V30 38983 N 3899.4 5.58217 -1.59292 0
M  V30 38984 H 3902.16 1.61936 -2.52184 0
M  V30 38985 H 3899.73 0.748807 -1.43543 0
M  V30 38986 H 3901.72 3.83389 -1.29596 0
M  V30 38987 H 3900.29 3.07718 -0.550326 0
M  V30 38988 H 3899.51 2.57498 -2.98477 0
M  V30 38989 H 3900.8 3.66344 -3.53085 0
M  V30 38990 H 3900.19 5.57063 -0.984764 0
M  V30 38991 H 3898.75 6.34041 -1.51114 0
M  V30 38992 N 3902.18 1.35274 0.808615 0
M  V30 38993 C 3903.46 1.19 1.55236 0
M  V30 38994 C 3903.84 -0.231686 2.09825 0
M  V30 38995 O 3903.19 -1.23493 1.92254 0
M  V30 38996 C 3903.4 2.25639 2.66248 0
M  V30 38997 C 3904.75 2.61343 3.34641 0
M  V30 38998 O 3905.77 2.24537 2.76517 0
M  V30 38999 O 3904.63 3.24623 4.39639 0
M  V30 39000 H 3901.72 0.462188 0.685792 0
M  V30 39001 H 3904.27 1.4695 0.848751 0
M  V30 39002 H 3903.04 3.21004 2.23768 0
M  V30 39003 H 3902.66 1.98947 3.44247 0
M  V30 39004 N 3903.66 -1.03053 1.19239 0
M  V30 39005 C 3904.89 -1.80055 1.0192 0
M  V30 39006 C 3905.31 -1.83789 -0.432107 0
M  V30 39007 O 3904.66 -1.28073 -1.30014 0
M  V30 39008 C 3904.71 -3.25183 1.57918 0
M  V30 39009 O 3904.43 -3.2172 2.97368 0
M  V30 39010 C 3905.94 -4.18791 1.45359 0
M  V30 39011 H 3903.16 -0.566689 0.359311 0
M  V30 39012 H 3905.7 -1.29811 1.58017 0
M  V30 39013 H 3903.85 -3.72624 1.05974 0
M  V30 39014 H 3904.27 -4.12711 3.23682 0
M  V30 39015 H 3905.74 -5.18518 1.89323 0
M  V30 39016 H 3906.22 -4.37339 0.403856 0
M  V30 39017 H 3906.83 -3.77223 1.96426 0
M  V30 39018 N 3905.14 -0.996042 -1.22134 0
M  V30 39019 C 3906.1 -0.554025 -2.22403 0
M  V30 39020 C 3907.1 0.364804 -1.56607 0
M  V30 39021 O 3908.29 0.156327 -1.73497 0
M  V30 39022 C 3905.43 0.193734 -3.40349 0
M  V30 39023 H 3906.62 -1.44079 -2.63023 0
M  V30 39024 H 3904.17 -0.783584 -1.35239 0
M  V30 39025 H 3904.91 1.09635 -3.05206 0
M  V30 39026 H 3904.69 -0.46604 -3.89321 0
M  V30 39027 H 3906.18 0.491048 -4.14703 0
M  V30 39028 N 3906.62 1.37529 -0.769636 0
M  V30 39029 C 3907.85 2.04015 -0.344318 0
M  V30 39030 C 3908.26 1.58048 1.03278 0
M  V30 39031 O 3907.62 0.760776 1.65887 0
M  V30 39032 C 3907.67 3.59539 -0.375985 0
M  V30 39033 O 3907.39 4.03824 -1.69876 0
M  V30 39034 C 3908.89 4.43258 0.0611935 0
M  V30 39035 H 3906.11 0.655235 -0.144595 0
M  V30 39036 H 3908.66 1.75905 -1.04297 0
M  V30 39037 H 3906.81 3.86429 0.274068 0
M  V30 39038 H 3907.22 4.98335 -1.63593 0
M  V30 39039 H 3908.7 5.51999 -0.012119 0
M  V30 39040 H 3909.18 4.24908 1.11128 0
M  V30 39041 H 3909.78 4.21589 -0.560591 0
M  V30 39042 N 3908.1 0.520003 1.48774 0
M  V30 39043 C 3909.51 0.177192 1.58613 0
M  V30 39044 C 3909.71 -1.31916 1.52317 0
M  V30 39045 O 3908.77 -2.09665 1.40701 0
M  V30 39046 C 3910.08 0.770867 2.90651 0
M  V30 39047 C 3911.63 0.738693 3.04158 0
M  V30 39048 C 3912.1 1.31077 4.38843 0
M  V30 39049 N 3913.6 1.2723 4.45384 0
M  V30 39050 C 3914.33 1.68493 5.48085 0
M  V30 39051 N 3913.83 2.1744 6.57793 0
M  V30 39052 N 3915.62 1.59792 5.38909 0
M  V30 39053 H 3907.77 1.49264 1.5111 0
M  V30 39054 H 3910.03 0.620273 0.716914 0
M  V30 39055 H 3909.74 1.82103 3.00885 0
M  V30 39056 H 3909.61 0.242191 3.76422 0
M  V30 39057 H 3912 -0.302677 2.93544 0
M  V30 39058 H 3912.08 1.30473 2.20024 0
M  V30 39059 H 3911.73 2.35101 4.50211 0
M  V30 39060 H 3911.66 0.720501 5.21648 0
M  V30 39061 H 3914.15 0.913877 3.66683 0
M  V30 39062 H 3914.46 2.46946 7.32282 0
M  V30 39063 H 3912.8 2.21427 6.58783 0
M  V30 39064 H 3916 1.21358 4.52095 0
M  V30 39065 H 3916.17 1.92272 6.18818 0
M  V30 39066 N 3909.57 -1.55529 0.254676 0
M  V30 39067 C 3910.82 -1.99425 -0.368442 0
M  V30 39068 C 3911.15 -1.14271 -1.57021 0
M  V30 39069 O 3910.43 -0.20792 -1.93385 0
M  V30 39070 C 3910.71 -3.51756 -0.770698 0
M  V30 39071 C 3910.56 -4.47672 0.437002 0
M  V30 39072 C 3911.88 -4.09405 -1.6148 0
M  V30 39073 H 3909 -0.725001 -0.132446 0
M  V30 39074 H 3911.64 -1.86606 0.357541 0
M  V30 39075 H 3909.79 -3.62811 -1.38926 0
M  V30 39076 H 3911.47 -4.48588 1.07549 0
M  V30 39077 H 3909.71 -4.20173 1.07874 0
M  V30 39078 H 3910.38 -5.51886 0.112093 0
M  V30 39079 H 3912.86 -4.01499 -1.09258 0
M  V30 39080 H 3911.73 -5.16242 -1.8651 0
M  V30 39081 H 3911.99 -3.58348 -2.58919 0
M  V30 39082 N 3911.05 0.0183372 -1.57589 0
M  V30 39083 C 3911.98 1.0434 -2.04073 0
M  V30 39084 C 3913 1.31819 -0.955389 0
M  V30 39085 O 3914.19 1.29117 -1.23252 0
M  V30 39086 C 3911.29 2.38254 -2.41015 0
M  V30 39087 C 3910.46 2.29978 -3.72061 0
M  V30 39088 C 3909.52 3.46428 -3.96073 0
M  V30 39089 O 3908.54 3.25439 -4.66988 0
M  V30 39090 N 3909.75 4.68663 -3.42543 0
M  V30 39091 H 3912.51 0.647117 -2.9263 0
M  V30 39092 H 3910.07 0.206081 -1.60583 0
M  V30 39093 H 3912.06 3.14897 -2.54208 0
M  V30 39094 H 3910.63 2.69688 -1.58073 0
M  V30 39095 H 3909.85 1.38363 -3.6912 0
M  V30 39096 H 3911.14 2.21602 -4.58007 0
M  V30 39097 H 3910.54 4.88615 -2.85082 0
M  V30 39098 H 3909.1 5.42635 -3.61097 0
M  V30 39099 N 3912.53 1.54894 0.290797 0
M  V30 39100 C 3913.76 1.7899 1.04772 0
M  V30 39101 C 3914.18 0.552669 1.79798 0
M  V30 39102 O 3913.54 -0.497168 1.7435 0
M  V30 39103 C 3913.59 3.00322 1.99598 0
M  V30 39104 O 3912.69 2.74161 3.08074 0
M  V30 39105 H 3912.03 0.592128 0.300467 0
M  V30 39106 H 3914.56 2.02 0.325115 0
M  V30 39107 H 3914.57 3.28571 2.41878 0
M  V30 39108 H 3913.25 3.90028 1.44399 0
M  V30 39109 H 3911.82 2.56957 2.70236 0
M  V30 39110 N 3914.01 -0.55448 1.47524 0
M  V30 39111 C 3914.94 -1.6766 1.56277 0
M  V30 39112 C 3915.95 -1.56492 0.44877 0
M  V30 39113 O 3917.14 -1.63401 0.718507 0
M  V30 39114 C 3914.24 -3.06146 1.45354 0
M  V30 39115 C 3913.42 -3.43041 2.7137 0
M  V30 39116 C 3912.47 -4.60702 2.54245 0
M  V30 39117 O 3911.5 -4.65146 3.28067 0
M  V30 39118 N 3912.7 -5.57365 1.6225 0
M  V30 39119 H 3915.47 -1.60596 2.53039 0
M  V30 39120 H 3913.03 -0.741184 1.43938 0
M  V30 39121 H 3915.02 -3.82696 1.31628 0
M  V30 39122 H 3913.59 -3.07422 0.566637 0
M  V30 39123 H 3912.81 -2.55912 2.99838 0
M  V30 39124 H 3914.1 -3.64467 3.55023 0
M  V30 39125 H 3913.5 -5.56533 1.01429 0
M  V30 39126 H 3912.05 -6.3323 1.54475 0
M  V30 39127 N 3915.49 -1.35701 -0.80143 0
M  V30 39128 C 3916.42 -1.31715 -1.92804 0
M  V30 39129 C 3917.4 -0.190671 -1.69028 0
M  V30 39130 O 3918.58 -0.386443 -1.90316 0
M  V30 39131 C 3915.71 -1.09358 -3.29633 0
M  V30 39132 C 3914.67 -2.18701 -3.67904 0
M  V30 39133 C 3913.99 -1.81503 -5.02952 0
M  V30 39134 C 3915.29 -3.60705 -3.77743 0
M  V30 39135 H 3916.99 -2.25983 -1.96397 0
M  V30 39136 H 3914.53 -1.08784 -0.943509 0
M  V30 39137 H 3916.49 -1.05207 -4.08056 0
M  V30 39138 H 3915.21 -0.115363 -3.26396 0
M  V30 39139 H 3913.87 -2.21958 -2.91771 0
M  V30 39140 H 3913.52 -0.822864 -4.96224 0
M  V30 39141 H 3913.22 -2.54702 -5.29529 0
M  V30 39142 H 3914.74 -1.78886 -5.83808 0
M  V30 39143 H 3916.15 -3.59742 -4.46384 0
M  V30 39144 H 3914.55 -4.32708 -4.15793 0
M  V30 39145 H 3915.62 -3.96482 -2.7916 0
M  V30 39146 N 3916.96 1.02419 -1.19783 0
M  V30 39147 C 3917.9 2.10894 -0.897581 0
M  V30 39148 C 3918.91 1.62417 0.111616 0
M  V30 39149 O 3920.1 1.78107 -0.118412 0
M  V30 39150 C 3917.2 3.37359 -0.322773 0
M  V30 39151 C 3916.37 4.15004 -1.38167 0
M  V30 39152 C 3915.43 5.19779 -0.819553 0
M  V30 39153 O 3914.46 5.49123 -1.4984 0
M  V30 39154 N 3915.66 5.79289 0.374823 0
M  V30 39155 H 3918.42 2.3724 -1.83132 0
M  V30 39156 H 3915.98 1.18748 -1.10047 0
M  V30 39157 H 3917.98 4.04644 0.0672334 0
M  V30 39158 H 3916.55 3.08323 0.515346 0
M  V30 39159 H 3915.77 3.428 -1.94633 0
M  V30 39160 H 3917.05 4.63665 -2.09504 0
M  V30 39161 H 3916.45 5.57772 0.943758 0
M  V30 39162 H 3915.01 6.47959 0.706554 0
M  V30 39163 N 3918.44 1.0025 1.21604 0
M  V30 39164 C 3919.41 0.565812 2.22106 0
M  V30 39165 C 3920.41 -0.356494 1.56798 0
M  V30 39166 O 3921.6 -0.147124 1.73578 0
M  V30 39167 C 3918.73 -0.175682 3.40447 0
M  V30 39168 H 3919.92 1.45472 2.62255 0
M  V30 39169 H 3917.47 0.790745 1.34822 0
M  V30 39170 H 3918.21 -1.08015 3.05783 0
M  V30 39171 H 3917.99 0.48668 3.89068 0
M  V30 39172 H 3919.48 -0.469049 4.14957 0
M  V30 39173 N 3919.92 -1.37119 0.776919 0
M  V30 39174 C 3920.85 -2.2792 0.11291 0
M  V30 39175 C 3921.83 -1.46589 -0.703593 0
M  V30 39176 O 3923.02 -1.75913 -0.677252 0
M  V30 39177 C 3920.14 -3.2796 -0.846163 0
M  V30 39178 C 3919.19 -4.2635 -0.113015 0
M  V30 39179 S 3920.02 -5.21823 1.20256 0
M  V30 39180 C 3921.18 -6.25412 0.247158 0
M  V30 39181 H 3921.41 -2.8389 0.882837 0
M  V30 39182 H 3918.94 -1.43472 0.570548 0
M  V30 39183 H 3920.9 -3.86103 -1.3941 0
M  V30 39184 H 3919.56 -2.70928 -1.58924 0
M  V30 39185 H 3918.76 -4.96946 -0.840264 0
M  V30 39186 H 3918.36 -3.72224 0.364068 0
M  V30 39187 H 3920.65 -6.75025 -0.578566 0
M  V30 39188 H 3921.59 -7.02079 0.921441 0
M  V30 39189 H 3922 -5.64316 -0.143939 0
M  V30 39190 N 3921.4 -0.527886 -1.48496 0
M  V30 39191 C 3922.33 0.273117 -2.27567 0
M  V30 39192 C 3923.34 0.906358 -1.35237 0
M  V30 39193 O 3924.53 0.785154 -1.60305 0
M  V30 39194 C 3921.63 1.40181 -3.08549 0
M  V30 39195 C 3920.81 0.870887 -4.28642 0
M  V30 39196 C 3919.87 1.88045 -4.91452 0
M  V30 39197 O 3918.89 1.43823 -5.5073 0
M  V30 39198 N 3920.09 3.21251 -4.83506 0
M  V30 39199 H 3922.86 -0.405015 -2.96951 0
M  V30 39200 H 3920.42 -0.362085 -1.57799 0
M  V30 39201 H 3922.41 2.07531 -3.47438 0
M  V30 39202 H 3920.98 1.98365 -2.41599 0
M  V30 39203 H 3920.2 0.0214638 -3.94194 0
M  V30 39204 H 3921.49 0.495016 -5.06386 0
M  V30 39205 H 3920.89 3.59847 -4.36494 0
M  V30 39206 H 3919.44 3.84239 -5.26501 0
M  V30 39207 N 3922.88 1.55391 -0.26292 0
M  V30 39208 C 3923.79 2.25696 0.640184 0
M  V30 39209 C 3924.8 1.27859 1.18017 0
M  V30 39210 O 3925.98 1.6077 1.21305 0
M  V30 39211 C 3923.04 2.955 1.81331 0
M  V30 39212 C 3922.11 4.08786 1.31121 0
M  V30 39213 C 3921.34 4.75251 2.42841 0
M  V30 39214 O 3921.56 4.40865 3.61931 0
M  V30 39215 O 3920.5 5.63446 2.11689 0
M  V30 39216 H 3924.32 3.03617 0.0710247 0
M  V30 39217 H 3921.91 1.49368 -0.0307912 0
M  V30 39218 H 3923.79 3.3941 2.49758 0
M  V30 39219 H 3922.46 2.20506 2.36978 0
M  V30 39220 H 3921.37 3.69358 0.593751 0
M  V30 39221 H 3922.7 4.85645 0.800625 0
M  V30 39222 N 3924.36 -0.00997961 1.57597 0
M  V30 39223 C 3925.3 -1.02288 2.08902 0
M  V30 39224 C 3926.3 -1.36232 1.00684 0
M  V30 39225 O 3927.5 -1.34913 1.19157 0
M  V30 39226 H 3923.88 -0.34748 0.666905 0
M  V30 39227 H 3925.85 -0.564529 2.93011 0
M  V30 39228 C 3924.6 -2.30919 2.59946 0
M  V30 39229 H 3923.92 -2.05666 3.42844 0
M  V30 39230 H 3925.36 -3.00093 2.99533 0
M  V30 39231 C 3923.82 -3.01209 1.50912 0
M  V30 39232 O 3924.35 -3.91801 0.886285 0
M  V30 39233 N 3922.56 -2.62863 1.239 0
M  V30 39234 H 3922.1 -1.89278 1.74733 0
M  V30 39235 H 3922.06 -3.10209 0.511645 0
M  V30 39236 N 3925.83 -1.55046 -0.282578 0
M  V30 39237 C 3927.08 -1.7546 -1.01694 0
M  V30 39238 C 3927.41 -0.548841 -1.86283 0
M  V30 39239 O 3926.69 0.453787 -1.89132 0
M  V30 39240 C 3926.97 -3.05426 -1.90754 0
M  V30 39241 C 3926.82 -4.36338 -1.09222 0
M  V30 39242 C 3928.14 -3.3137 -2.89624 0
M  V30 39243 H 3925.26 -0.63838 -0.368294 0
M  V30 39244 H 3927.9 -1.87772 -0.290085 0
M  V30 39245 H 3926.05 -2.9506 -2.52729 0
M  V30 39246 H 3927.73 -4.58648 -0.493915 0
M  V30 39247 H 3925.97 -4.31994 -0.395406 0
M  V30 39248 H 3926.64 -5.23581 -1.74833 0
M  V30 39249 H 3929.12 -3.41466 -2.37782 0
M  V30 39250 H 3927.99 -4.2359 -3.49089 0
M  V30 39251 H 3928.25 -2.50547 -3.64251 0
M  V30 39252 N 3927.31 0.546649 -1.47816 0
M  V30 39253 C 3928.22 1.68 -1.63747 0
M  V30 39254 C 3929.24 1.66044 -0.520147 0
M  V30 39255 O 3930.41 1.85299 -0.789066 0
M  V30 39256 C 3927.48 3.04494 -1.65784 0
M  V30 39257 C 3926.54 3.17436 -2.8902 0
M  V30 39258 C 3925.77 4.47419 -2.9095 0
M  V30 39259 O 3926 5.33518 -2.01779 0
M  V30 39260 O 3924.93 4.64375 -3.82935 0
M  V30 39261 H 3928.76 1.57501 -2.59668 0
M  V30 39262 H 3926.34 0.71786 -1.31023 0
M  V30 39263 H 3928.22 3.85702 -1.69741 0
M  V30 39264 H 3926.9 3.15354 -0.730323 0
M  V30 39265 H 3925.8 2.35586 -2.90603 0
M  V30 39266 H 3927.14 3.11485 -3.81101 0
M  V30 39267 N 3928.79 1.36124 0.794222 0
M  V30 39268 C 3930.21 1.16433 1.09158 0
M  V30 39269 C 3930.41 -0.0148443 2.01495 0
M  V30 39270 O 3929.46 -0.681687 2.43124 0
M  V30 39271 C 3930.77 2.47298 1.71067 0
M  V30 39272 C 3932.32 2.53618 1.83431 0
M  V30 39273 C 3932.8 3.84558 2.48755 0
M  V30 39274 N 3934.29 3.85878 2.56228 0
M  V30 39275 C 3935.02 4.8393 3.07571 0
M  V30 39276 N 3934.52 5.92374 3.59257 0
M  V30 39277 N 3936.31 4.71354 3.06238 0
M  V30 39278 H 3928.46 2.1163 0.180668 0
M  V30 39279 H 3930.73 0.93719 0.142758 0
M  V30 39280 H 3930.43 3.33828 1.10688 0
M  V30 39281 H 3930.31 2.62754 2.7063 0
M  V30 39282 H 3932.69 1.6751 2.4295 0
M  V30 39283 H 3932.77 2.42067 0.826877 0
M  V30 39284 H 3932.42 4.7107 1.89882 0
M  V30 39285 H 3932.35 3.93403 3.50059 0
M  V30 39286 H 3934.84 3.07529 2.19623 0
M  V30 39287 H 3935.15 6.63169 3.9677 0
M  V30 39288 H 3933.5 5.96049 3.57422 0
M  V30 39289 H 3936.69 3.85767 2.65144 0
M  V30 39290 H 3936.86 5.4793 3.45944 0
M  V30 39291 N 3930.27 -1.01782 1.20325 0
M  V30 39292 C 3931.51 -1.75732 1.0242 0
M  V30 39293 C 3931.87 -1.8732 -0.439211 0
M  V30 39294 O 3931.16 -1.38705 -1.32179 0
M  V30 39295 C 3931.36 -3.17557 1.63989 0
M  V30 39296 C 3931.18 -3.19796 3.16165 0
M  V30 39297 C 3929.95 -3.27108 3.85135 0
M  V30 39298 C 3932.15 -3.05943 4.13405 0
M  V30 39299 N 3930.13 -3.18838 5.2461 0
M  V30 39300 C 3931.51 -3.05429 5.39549 0
M  V30 39301 C 3933.56 -2.90151 4.0462 0
M  V30 39302 C 3932.26 -2.90743 6.57922 0
M  V30 39303 C 3934.29 -2.76817 5.22615 0
M  V30 39304 C 3933.65 -2.76969 6.47663 0
M  V30 39305 H 3929.75 -0.653818 0.429006 0
M  V30 39306 H 3932.33 -1.21075 1.52476 0
M  V30 39307 H 3930.51 -3.7051 1.16519 0
M  V30 39308 H 3932.24 -3.79929 1.39413 0
M  V30 39309 H 3928.99 -3.33782 3.35986 0
M  V30 39310 H 3929.42 -3.1808 5.97624 0
M  V30 39311 H 3934.06 -2.88848 3.0875 0
M  V30 39312 H 3931.78 -2.90795 7.53966 0
M  V30 39313 H 3935.36 -2.65617 5.17628 0
M  V30 39314 H 3934.24 -2.66768 7.37431 0
M  V30 39315 N 3931.75 -1.00894 -1.21071 0
M  V30 39316 C 3932.68 -0.53088 -2.22967 0
M  V30 39317 C 3933.69 0.382637 -1.58239 0
M  V30 39318 O 3934.88 0.182206 -1.77568 0
M  V30 39319 C 3931.98 0.248037 -3.37991 0
M  V30 39320 C 3931.15 -0.665515 -4.32307 0
M  V30 39321 C 3930.21 0.0644806 -5.2616 0
M  V30 39322 O 3929.24 -0.555483 -5.66483 0
M  V30 39323 N 3930.44 1.3418 -5.6478 0
M  V30 39324 H 3933.2 -1.40715 -2.64612 0
M  V30 39325 H 3930.77 -0.885551 -1.35534 0
M  V30 39326 H 3932.76 0.745443 -3.97775 0
M  V30 39327 H 3931.33 1.02553 -2.95299 0
M  V30 39328 H 3930.55 -1.34335 -3.70604 0
M  V30 39329 H 3931.84 -1.2871 -4.92251 0
M  V30 39330 H 3931.23 1.86655 -5.34019 0
M  V30 39331 H 3929.79 1.78408 -6.26908 0
M  V30 39332 N 3933.22 1.36705 -0.78418 0
M  V30 39333 C 3934.47 1.98985 -0.353469 0
M  V30 39334 C 3934.79 1.62553 1.07711 0
M  V30 39335 O 3934.06 0.896968 1.74159 0
M  V30 39336 H 3932.64 0.736003 -0.127706 0
M  V30 39337 H 3935.31 1.66987 -1.00506 0
M  V30 39338 H 3934.4 3.08967 -0.441082 0
M  V30 39339 N 3934.7 0.535753 1.48214 0
M  V30 39340 C 3935.63 -0.261045 2.27709 0
M  V30 39341 C 3936.65 -0.899173 1.35716 0
M  V30 39342 O 3937.84 -0.776641 1.60719 0
M  V30 39343 C 3934.94 -1.38543 3.09288 0
M  V30 39344 C 3934.11 -0.848143 4.29098 0
M  V30 39345 C 3933.17 -1.85436 4.92443 0
M  V30 39346 O 3932.19 -1.409 5.51485 0
M  V30 39347 N 3933.4 -3.18682 4.85203 0
M  V30 39348 H 3936.16 0.420758 2.96732 0
M  V30 39349 H 3933.72 0.370449 1.57605 0
M  V30 39350 H 3935.71 -2.05685 3.48534 0
M  V30 39351 H 3934.28 -1.97081 2.42648 0
M  V30 39352 H 3933.5 -0.000558454 3.942 0
M  V30 39353 H 3934.79 -0.468154 5.06642 0
M  V30 39354 H 3934.19 -3.57527 4.38396 0
M  V30 39355 H 3932.75 -3.81441 5.28532 0
M  V30 39356 N 3936.18 -1.5525 0.271158 0
M  V30 39357 C 3937.41 -2.03619 -0.349705 0
M  V30 39358 C 3937.82 -1.14909 -1.50308 0
M  V30 39359 O 3937.16 -0.160919 -1.82994 0
M  V30 39360 C 3937.22 -3.48138 -0.896679 0
M  V30 39361 C 3936.89 -4.56822 0.127553 0
M  V30 39362 C 3937.88 -5.11227 0.945679 0
M  V30 39363 C 3935.57 -5.01623 0.26065 0
M  V30 39364 C 3937.56 -6.08948 1.88313 0
M  V30 39365 C 3935.25 -5.99171 1.20158 0
M  V30 39366 C 3936.25 -6.52714 2.01132 0
M  V30 39367 O 3935.94 -7.48354 2.93634 0
M  V30 39368 H 3935.67 -0.670718 -0.0843374 0
M  V30 39369 H 3938.22 -2.01471 0.399839 0
M  V30 39370 H 3936.45 -3.47513 -1.69622 0
M  V30 39371 H 3938.14 -3.79868 -1.43021 0
M  V30 39372 H 3938.91 -4.7743 0.853567 0
M  V30 39373 H 3934.79 -4.59595 -0.359608 0
M  V30 39374 H 3938.33 -6.50665 2.51557 0
M  V30 39375 H 3934.23 -6.32386 1.29452 0
M  V30 39376 H 3935 -7.66056 2.88271 0
M  V30 39377 N 3937.66 0.00162173 -1.576 0
M  V30 39378 C 3938.57 1.00992 -2.1175 0
M  V30 39379 C 3939.58 1.37803 -1.06237 0
M  V30 39380 O 3940.76 1.46568 -1.3813 0
M  V30 39381 C 3937.83 2.28355 -2.60873 0
M  V30 39382 C 3936.89 1.97872 -3.80979 0
M  V30 39383 C 3936.12 3.19164 -4.2775 0
M  V30 39384 O 3936.34 4.30792 -3.73864 0
M  V30 39385 O 3935.28 3.03256 -5.19922 0
M  V30 39386 H 3939.1 0.579615 -2.98118 0
M  V30 39387 H 3936.69 0.220349 -1.47766 0
M  V30 39388 H 3938.57 3.03182 -2.92675 0
M  V30 39389 H 3937.24 2.70627 -1.77603 0
M  V30 39390 H 3936.15 1.20527 -3.54153 0
M  V30 39391 H 3937.48 1.60438 -4.65317 0
M  V30 39392 N 3939.14 1.55194 0.274352 0
M  V30 39393 C 3940.38 1.75389 1.00415 0
M  V30 39394 C 3940.71 0.557277 1.86867 0
M  V30 39395 O 3939.98 -0.427849 1.91171 0
M  V30 39396 H 3938.56 0.646781 0.373742 0
M  V30 39397 H 3941.22 1.92594 0.298908 0
M  V30 39398 H 3940.31 2.65423 1.64186 0
M  V30 39399 N 3940.61 -0.538802 1.48104 0
M  V30 39400 C 3941.54 -1.6536 1.64859 0
M  V30 39401 C 3942.53 -1.62659 0.497607 0
M  V30 39402 O 3943.71 -1.79993 0.72912 0
M  V30 39403 C 3940.84 -3.03968 1.6799 0
M  V30 39404 C 3939.79 -3.21524 2.825 0
M  V30 39405 C 3939.12 -4.61105 2.70715 0
M  V30 39406 C 3940.42 -3.05137 4.23897 0
M  V30 39407 H 3942.11 -1.51593 2.58186 0
M  V30 39408 H 3939.66 -0.727864 1.2425 0
M  V30 39409 H 3941.61 -3.81821 1.783 0
M  V30 39410 H 3940.34 -3.18737 0.712355 0
M  V30 39411 H 3939 -2.46086 2.7173 0
M  V30 39412 H 3938.64 -4.72697 1.71948 0
M  V30 39413 H 3938.34 -4.73798 3.47547 0
M  V30 39414 H 3939.87 -5.41068 2.8298 0
M  V30 39415 H 3941.28 -3.7279 4.35547 0
M  V30 39416 H 3939.68 -3.29329 5.0166 0
M  V30 39417 H 3940.75 -2.01663 4.40976 0
M  V30 39418 N 3942.09 -1.36544 -0.786992 0
M  V30 39419 C 3943.51 -1.1701 -1.08539 0
M  V30 39420 C 3943.71 0.00415837 -2.015 0
M  V30 39421 O 3942.76 0.668784 -2.43482 0
M  V30 39422 C 3944.08 -2.48202 -1.69753 0
M  V30 39423 C 3945.63 -2.54587 -1.82083 0
M  V30 39424 C 3946.1 -3.85872 -2.46712 0
M  V30 39425 N 3947.59 -3.87231 -2.54178 0
M  V30 39426 C 3948.33 -4.85554 -3.05 0
M  V30 39427 N 3947.82 -5.9427 -3.5611 0
M  V30 39428 N 3949.62 -4.72971 -3.03734 0
M  V30 39429 H 3941.77 -2.11723 -0.169442 0
M  V30 39430 H 3944.03 -0.937933 -0.137786 0
M  V30 39431 H 3943.74 -3.3441 -1.08916 0
M  V30 39432 H 3943.61 -2.64185 -2.69232 0
M  V30 39433 H 3946 -1.68796 -2.42058 0
M  V30 39434 H 3946.08 -2.42502 -0.814028 0
M  V30 39435 H 3945.72 -4.72071 -1.87381 0
M  V30 39436 H 3945.65 -3.95254 -3.47968 0
M  V30 39437 H 3948.14 -3.08689 -2.17989 0
M  V30 39438 H 3948.46 -6.65264 -3.93247 0
M  V30 39439 H 3946.8 -5.97936 -3.54256 0
M  V30 39440 H 3949.99 -3.87168 -2.63095 0
M  V30 39441 H 3950.16 -5.49757 -3.43033 0
M  V30 39442 N 3943.57 1.01143 -1.20863 0
M  V30 39443 C 3944.82 1.74476 -1.01993 0
M  V30 39444 C 3945.14 1.89775 0.448367 0
M  V30 39445 O 3944.41 1.44401 1.32383 0
M  V30 39446 H 3942.99 0.6464 -0.374401 0
M  V30 39447 H 3945.65 1.21915 -1.52062 0
M  V30 39448 H 3944.75 2.74639 -1.48255 0
M  V30 39449 N 3945.05 1.01535 1.20534 0
M  V30 39450 C 3945.98 0.542697 2.22682 0
M  V30 39451 C 3946.99 -0.374239 1.5844 0
M  V30 39452 O 3948.18 -0.172787 1.77662 0
M  V30 39453 C 3945.28 -0.230109 3.38118 0
M  V30 39454 C 3944.46 0.688432 4.31948 0
M  V30 39455 C 3943.51 -0.0365761 5.26187 0
M  V30 39456 O 3942.54 0.585517 5.6618 0
M  V30 39457 N 3943.74 -1.31183 5.65483 0
M  V30 39458 H 3946.51 1.42116 2.63862 0
M  V30 39459 H 3944.07 0.892727 1.35063 0
M  V30 39460 H 3946.06 -0.724338 3.98165 0
M  V30 39461 H 3944.63 -1.00986 2.95839 0
M  V30 39462 H 3943.85 1.36299 3.69887 0
M  V30 39463 H 3945.14 1.31318 4.91562 0
M  V30 39464 H 3944.54 -1.8382 5.35002 0
M  V30 39465 H 3943.09 -1.75081 6.27845 0
M  V30 39466 N 3946.53 -1.36288 0.791419 0
M  V30 39467 C 3947.8 -1.93459 0.288636 0
M  V30 39468 C 3948.18 -1.72312 -1.2195 0
M  V30 39469 O 3947.53 -1.08324 -2.01192 0
M  V30 39470 C 3947.74 -3.42243 0.683452 0
M  V30 39471 C 3949.09 -4.19371 0.664328 0
M  V30 39472 O 3950.11 -3.50691 0.62405 0
M  V30 39473 O 3948.97 -5.41881 0.709021 0
M  V30 39474 H 3946.07 -0.823865 0.071945 0
M  V30 39475 H 3948.61 -1.45457 0.874097 0
M  V30 39476 H 3947.38 -3.51299 1.7235 0
M  V30 39477 H 3947.01 -3.97535 0.0719826 0
M  V30 39478 N 3948.01 -0.543606 -1.47928 0
M  V30 39479 C 3948.94 0.200187 -2.3264 0
M  V30 39480 C 3949.92 0.921975 -1.42946 0
M  V30 39481 O 3951.1 0.905099 -1.71819 0
M  V30 39482 C 3948.23 1.23916 -3.24441 0
M  V30 39483 C 3947.19 0.634679 -4.23268 0
M  V30 39484 C 3946.51 1.7773 -5.04298 0
M  V30 39485 C 3947.81 -0.402615 -5.20746 0
M  V30 39486 H 3949.51 -0.507009 -2.95076 0
M  V30 39487 H 3947.05 -0.245271 -1.41896 0
M  V30 39488 H 3949 1.76756 -3.82538 0
M  V30 39489 H 3947.73 1.97612 -2.60033 0
M  V30 39490 H 3946.39 0.127692 -3.66378 0
M  V30 39491 H 3946.04 2.50297 -4.36303 0
M  V30 39492 H 3945.74 1.37869 -5.71197 0
M  V30 39493 H 3947.26 2.30922 -5.6525 0
M  V30 39494 H 3948.67 0.0392042 -5.73287 0
M  V30 39495 H 3947.07 -0.719356 -5.95773 0
M  V30 39496 H 3948.14 -1.30348 -4.67052 0
M  V30 39497 N 3949.48 1.55104 -0.279387 0
M  V30 39498 C 3950.73 1.99296 0.335506 0
M  V30 39499 C 3951.05 1.16924 1.56057 0
M  V30 39500 O 3950.32 0.259807 1.9417 0
M  V30 39501 H 3948.9 0.736133 0.126955 0
M  V30 39502 H 3951.56 1.91045 -0.385713 0
M  V30 39503 H 3950.66 3.0583 0.622439 0
M  V30 39504 N 3950.96 0.0067362 1.57599 0
M  V30 39505 C 3951.89 -1.0108 2.05707 0
M  V30 39506 C 3952.91 -1.30282 0.976239 0
M  V30 39507 O 3954.1 -1.2714 1.2529 0
M  V30 39508 C 3951.2 -2.34389 2.44775 0
M  V30 39509 C 3950.37 -2.24029 3.75672 0
M  V30 39510 C 3949.43 -3.40083 4.01534 0
M  V30 39511 O 3948.45 -3.17969 4.72106 0
M  V30 39512 N 3949.66 -4.63154 3.49955 0
M  V30 39513 H 3952.42 -0.60048 2.93623 0
M  V30 39514 H 3949.98 -0.180508 1.60891 0
M  V30 39515 H 3951.97 -3.10813 2.59186 0
M  V30 39516 H 3950.54 -2.67139 1.62344 0
M  V30 39517 H 3949.76 -1.32473 3.71274 0
M  V30 39518 H 3951.05 -2.14287 4.61474 0
M  V30 39519 H 3950.45 -4.84018 2.92819 0
M  V30 39520 H 3949.01 -5.36821 3.69684 0
M  V30 39521 N 3952.44 -1.55337 -0.266118 0
M  V30 39522 C 3953.4 -1.87907 -1.31239 0
M  V30 39523 C 3954.4 -0.754108 -1.42021 0
M  V30 39524 O 3955.59 -1.02224 -1.41053 0
M  V30 39525 C 3952.72 -2.09046 -2.69282 0
M  V30 39526 H 3953.92 -2.81442 -1.03587 0
M  V30 39527 H 3951.47 -1.47934 -0.504511 0
M  V30 39528 H 3952.21 -1.17915 -3.02104 0
M  V30 39529 H 3951.99 -2.90959 -2.62841 0
M  V30 39530 H 3953.48 -2.35494 -3.44866 0
M  V30 39531 N 3953.92 0.53094 -1.48387 0
M  V30 39532 C 3955.16 1.28873 -1.56588 0
M  V30 39533 C 3955.5 1.92728 -0.238617 0
M  V30 39534 O 3954.77 1.79236 0.755298 0
M  V30 39535 C 3955.05 2.37881 -2.70342 0
M  V30 39536 C 3954.91 1.78722 -4.12769 0
M  V30 39537 C 3956.23 3.39654 -2.79863 0
M  V30 39538 H 3953.35 0.4672 -0.569994 0
M  V30 39539 H 3955.99 0.591565 -1.80556 0
M  V30 39540 H 3954.14 2.97346 -2.50036 0
M  V30 39541 H 3955.81 1.23316 -4.44512 0
M  V30 39542 H 3954.05 1.09262 -4.19815 0
M  V30 39543 H 3954.72 2.57646 -4.88183 0
M  V30 39544 H 3957.2 2.90143 -2.98255 0
M  V30 39545 H 3956.08 4.13323 -3.61186 0
M  V30 39546 H 3956.34 4.00144 -1.87981 0
M  V30 39547 N 3955.4 1.36959 0.779739 0
M  V30 39548 C 3956.33 1.34765 1.90684 0
M  V30 39549 C 3957.31 0.217538 1.68703 0
M  V30 39550 O 3958.49 0.416672 1.89677 0
M  V30 39551 C 3955.62 1.14588 3.27852 0
M  V30 39552 C 3954.58 2.24527 3.64379 0
M  V30 39553 C 3953.9 1.89481 5.00001 0
M  V30 39554 C 3955.2 3.66669 3.71956 0
M  V30 39555 H 3956.9 2.29079 1.92777 0
M  V30 39556 H 3954.44 1.10271 0.926083 0
M  V30 39557 H 3956.39 1.11685 4.0633 0
M  V30 39558 H 3955.12 0.167275 3.26171 0
M  V30 39559 H 3953.78 2.26571 2.88203 0
M  V30 39560 H 3953.43 0.901704 4.94852 0
M  V30 39561 H 3953.13 2.63094 5.2541 0
M  V30 39562 H 3954.65 1.88152 5.80888 0
M  V30 39563 H 3956.06 3.66798 4.40604 0
M  V30 39564 H 3954.46 4.39268 4.08857 0
M  V30 39565 H 3955.53 4.00873 2.72817 0
M  V30 39566 N 3956.87 -1.00501 1.21398 0
M  V30 39567 C 3958.15 -1.71533 0.93998 0
M  V30 39568 C 3958.53 -2.03857 -0.548212 0
M  V30 39569 O 3957.88 -1.71228 -1.51305 0
M  V30 39570 C 3958.09 -2.97477 1.82506 0
M  V30 39571 C 3959.44 -3.70506 2.0739 0
M  V30 39572 O 3960.46 -3.07459 1.79855 0
M  V30 39573 O 3959.32 -4.83908 2.53959 0
M  V30 39574 H 3956.41 -0.748125 0.352473 0
M  V30 39575 H 3958.96 -1.06244 1.32327 0
M  V30 39576 H 3957.73 -2.7 2.83224 0
M  V30 39577 H 3957.35 -3.70507 1.44259 0
M  V30 39578 N 3958.35 -1.02172 -1.19994 0
M  V30 39579 C 3959.31 -0.601075 -2.21178 0
M  V30 39580 C 3960.31 0.331503 -1.57346 0
M  V30 39581 O 3961.5 0.119491 -1.7379 0
M  V30 39582 C 3958.64 0.121498 -3.40683 0
M  V30 39583 H 3959.83 -1.49626 -2.59908 0
M  V30 39584 H 3957.38 -0.812094 -1.33547 0
M  V30 39585 H 3958.12 1.03136 -3.07463 0
M  V30 39586 H 3957.9 -0.548516 -3.88244 0
M  V30 39587 H 3959.39 0.402973 -4.15651 0
M  V30 39588 N 3959.83 1.35866 -0.798635 0
M  V30 39589 C 3961.08 1.98599 -0.374554 0
M  V30 39590 C 3961.4 1.63686 1.05981 0
M  V30 39591 O 3960.67 0.91539 1.73198 0
M  V30 39592 H 3959.25 0.734607 -0.135505 0
M  V30 39593 H 3961.91 1.65911 -1.02272 0
M  V30 39594 H 3961.01 3.08482 -0.473828 0
M  V30 39595 N 3961.31 0.551443 1.47638 0
M  V30 39596 C 3962.26 -0.219758 2.26938 0
M  V30 39597 C 3963.24 -0.890547 1.34008 0
M  V30 39598 O 3964.43 -0.789806 1.58402 0
M  V30 39599 C 3961.56 -1.25273 3.19627 0
M  V30 39600 C 3960.65 -0.58565 4.20037 0
M  V30 39601 N 3961.04 0.340979 5.04649 0
M  V30 39602 C 3959.34 -0.840275 4.38013 0
M  V30 39603 C 3960.04 0.727916 5.77128 0
M  V30 39604 N 3959.01 0.0840637 5.43535 0
M  V30 39605 H 3962.82 0.49278 2.89739 0
M  V30 39606 H 3960.33 0.370971 1.58106 0
M  V30 39607 H 3962.33 -1.81913 3.75118 0
M  V30 39608 H 3960.99 -1.96642 2.58383 0
M  V30 39609 H 3962 0.71482 5.12943 0
M  V30 39610 H 3958.68 -1.54291 3.87944 0
M  V30 39611 H 3960.07 1.489 6.55194 0
M  V30 39612 N 3962.79 -1.54953 0.287609 0
M  V30 39613 C 3964.01 -2.04735 -0.331406 0
M  V30 39614 C 3964.44 -1.16412 -1.4775 0
M  V30 39615 O 3963.79 -0.165329 -1.80545 0
M  V30 39616 C 3963.84 -3.52106 -0.778061 0
M  V30 39617 O 3962.95 -3.66843 -1.88415 0
M  V30 39618 H 3962.29 -0.660651 -0.0666057 0
M  V30 39619 H 3964.82 -2.00126 0.425551 0
M  V30 39620 H 3964.83 -3.93707 -1.07048 0
M  V30 39621 H 3963.5 -4.15856 0.0603915 0
M  V30 39622 H 3962.08 -3.37147 -1.59332 0
M  V30 39623 N 3964.26 -0.0150939 -1.57593 0
M  V30 39624 C 3965.51 0.667553 -1.91498 0
M  V30 39625 C 3965.84 1.72578 -0.890523 0
M  V30 39626 O 3965.12 1.94298 0.0887121 0
M  V30 39627 C 3965.4 1.29688 -3.35936 0
M  V30 39628 C 3965.25 0.249163 -4.49109 0
M  V30 39629 C 3966.57 2.21886 -3.80072 0
M  V30 39630 H 3963.69 0.241205 -0.696412 0
M  V30 39631 H 3966.33 -0.0694818 -1.89873 0
M  V30 39632 H 3964.48 1.92506 -3.37452 0
M  V30 39633 H 3966.16 -0.380497 -4.59728 0
M  V30 39634 H 3964.4 -0.426937 -4.31694 0
M  V30 39635 H 3965.07 0.728838 -5.47167 0
M  V30 39636 H 3967.55 1.6907 -3.80203 0
M  V30 39637 H 3966.42 2.62878 -4.81857 0
M  V30 39638 H 3966.68 3.10424 -3.14785 0
M  V30 39639 N 3965.74 1.55476 0.257876 0
M  V30 39640 C 3966.97 1.81172 1.00952 0
M  V30 39641 C 3967.39 0.590682 1.78585 0
M  V30 39642 O 3966.75 -0.460074 1.75365 0
M  V30 39643 C 3966.8 3.04488 1.93182 0
M  V30 39644 O 3965.9 2.80634 3.02189 0
M  V30 39645 H 3965.24 0.598368 0.28784 0
M  V30 39646 H 3967.77 2.02645 0.282195 0
M  V30 39647 H 3967.78 3.33628 2.34854 0
M  V30 39648 H 3966.46 3.93003 1.36093 0
M  V30 39649 H 3965.04 2.62632 2.64724 0
M  V30 39650 N 3967.22 -0.523064 1.48667 0
M  V30 39651 C 3968.45 -1.30308 1.60709 0
M  V30 39652 C 3968.86 -1.8686 0.269974 0
M  V30 39653 O 3968.22 -1.66749 -0.741685 0
M  V30 39654 C 3968.27 -2.44903 2.65903 0
M  V30 39655 O 3967.99 -1.90681 3.94427 0
M  V30 39656 C 3969.49 -3.36619 2.88449 0
M  V30 39657 H 3966.71 -0.396026 0.541668 0
M  V30 39658 H 3969.26 -0.630287 1.94545 0
M  V30 39659 H 3967.41 -3.08054 2.34907 0
M  V30 39660 H 3967.83 -2.65745 4.52195 0
M  V30 39661 H 3969.3 -4.1336 3.65839 0
M  V30 39662 H 3969.78 -3.92273 1.97531 0
M  V30 39663 H 3970.38 -2.79254 3.20776 0
M  V30 39664 N 3968.7 -1.37371 -0.772465 0
M  V30 39665 C 3969.63 -1.35775 -1.89967 0
M  V30 39666 C 3970.61 -0.226482 -1.68585 0
M  V30 39667 O 3971.79 -0.426725 -1.89454 0
M  V30 39668 C 3968.92 -1.16325 -3.2724 0
M  V30 39669 C 3967.88 -2.26456 -3.63183 0
M  V30 39670 C 3967.2 -1.9213 -4.98989 0
M  V30 39671 C 3968.5 -3.68636 -3.70006 0
M  V30 39672 H 3970.2 -2.30098 -1.9156 0
M  V30 39673 H 3967.74 -1.10761 -0.920222 0
M  V30 39674 H 3969.7 -1.13839 -4.05732 0
M  V30 39675 H 3968.42 -0.18457 -3.26078 0
M  V30 39676 H 3967.08 -2.28097 -2.86997 0
M  V30 39677 H 3966.73 -0.927935 -4.94367 0
M  V30 39678 H 3966.43 -2.65876 -5.24007 0
M  V30 39679 H 3967.95 -1.9123 -5.79882 0
M  V30 39680 H 3969.37 -3.69129 -4.38653 0
M  V30 39681 H 3967.76 -4.4143 -4.06521 0
M  V30 39682 H 3968.83 -4.02314 -2.70687 0
M  V30 39683 N 3970.18 0.998553 -1.21929 0
M  V30 39684 C 3971.09 2.12195 -1.00053 0
M  V30 39685 C 3972.1 1.7393 0.0494108 0
M  V30 39686 O 3973.28 2.00898 -0.142069 0
M  V30 39687 C 3970.34 3.419 -0.574931 0
M  V30 39688 C 3969.4 3.943 -1.69783 0
M  V30 39689 C 3968.64 5.17814 -1.29245 0
M  V30 39690 O 3968.86 5.7015 -0.168809 0
M  V30 39691 O 3967.79 5.63824 -2.10681 0
M  V30 39692 H 3971.62 2.3353 -1.94158 0
M  V30 39693 H 3969.21 1.10569 -1.00473 0
M  V30 39694 H 3971.09 4.19963 -0.347677 0
M  V30 39695 H 3969.76 3.21938 0.337332 0
M  V30 39696 H 3968.67 3.17434 -1.97955 0
M  V30 39697 H 3970 4.18684 -2.58775 0
M  V30 39698 N 3971.65 1.02807 1.1945 0
M  V30 39699 C 3972.6 0.608173 2.22643 0
M  V30 39700 C 3973.57 -0.37761 1.61751 0
M  V30 39701 O 3974.76 -0.274454 1.88816 0
M  V30 39702 C 3971.9 -0.0356983 3.45082 0
M  V30 39703 C 3971.01 0.996029 4.20361 0
M  V30 39704 C 3970.14 0.322004 5.30223 0
M  V30 39705 C 3969.18 1.3397 5.97259 0
M  V30 39706 N 3968.32 0.691537 6.98686 0
M  V30 39707 H 3973.16 1.49273 2.57918 0
M  V30 39708 H 3970.7 0.747007 1.26721 0
M  V30 39709 H 3972.66 -0.426236 4.15017 0
M  V30 39710 H 3971.29 -0.883835 3.10464 0
M  V30 39711 H 3970.34 1.50463 3.49378 0
M  V30 39712 H 3971.65 1.76953 4.66357 0
M  V30 39713 H 3970.8 -0.123422 6.06574 0
M  V30 39714 H 3969.54 -0.483707 4.85295 0
M  V30 39715 H 3968.55 1.79539 5.19659 0
M  V30 39716 H 3969.77 2.14689 6.44271 0
M  V30 39717 H 3967.72 -0.0940968 6.55933 0
M  V30 39718 H 3967.64 1.40294 7.42869 0
M  V30 39719 H 3968.9 0.270085 7.79032 0
M  V30 39720 N 3973.13 -1.35441 0.805829 0
M  V30 39721 C 3974.36 -2.0303 0.398288 0
M  V30 39722 C 3974.78 -1.6073 -0.990514 0
M  V30 39723 O 3974.13 -0.80449 -1.63811 0
M  V30 39724 C 3974.18 -3.58416 0.471179 0
M  V30 39725 O 3973.9 -3.99178 1.80523 0
M  V30 39726 C 3975.41 -4.43264 0.0563499 0
M  V30 39727 H 3972.63 -0.651171 0.161917 0
M  V30 39728 H 3975.17 -1.73077 1.08924 0
M  V30 39729 H 3973.32 -3.8702 -0.171516 0
M  V30 39730 H 3973.74 -4.93822 1.76748 0
M  V30 39731 H 3975.21 -5.51772 0.158467 0
M  V30 39732 H 3975.69 -4.27705 -0.998233 0
M  V30 39733 H 3976.3 -4.19955 0.672171 0
M  V30 39734 N 3974.61 -0.559265 -1.47343 0
M  V30 39735 C 3975.54 0.175501 -2.3284 0
M  V30 39736 C 3976.52 0.906762 -1.43916 0
M  V30 39737 O 3977.71 0.886824 -1.72769 0
M  V30 39738 C 3974.84 1.20468 -3.25737 0
M  V30 39739 C 3973.79 0.58975 -4.23917 0
M  V30 39740 C 3973.12 1.72371 -5.06154 0
M  V30 39741 C 3974.42 -0.457825 -5.2029 0
M  V30 39742 H 3976.11 -0.538277 -2.94522 0
M  V30 39743 H 3973.66 -0.260307 -1.41628 0
M  V30 39744 H 3975.61 1.72689 -3.84391 0
M  V30 39745 H 3974.33 1.94843 -2.62114 0
M  V30 39746 H 3972.99 0.0888253 -3.66492 0
M  V30 39747 H 3972.64 2.45655 -4.38934 0
M  V30 39748 H 3972.34 1.31803 -5.72627 0
M  V30 39749 H 3973.86 2.24914 -5.67667 0
M  V30 39750 H 3975.28 -0.0216027 -5.73296 0
M  V30 39751 H 3973.68 -0.782505 -5.94976 0
M  V30 39752 H 3974.75 -1.35294 -4.65643 0
M  V30 39753 N 3976.09 1.54799 -0.295822 0
M  V30 39754 C 3977.5 1.85649 0.197857 0
M  V30 39755 C 3977.85 1.21779 1.53832 0
M  V30 39756 O 3976.98 0.513591 2.10217 0
M  V30 39757 C 3977.57 3.3682 0.365784 0
M  V30 39758 C 3976.13 3.6772 0.803685 0
M  V30 39759 C 3975.28 2.77151 -0.0910059 0
M  V30 39760 H 3978.23 1.50043 -0.516995 0
M  V30 39761 H 3978.25 3.61043 1.20117 0
M  V30 39762 H 3977.76 3.83277 -0.609977 0
M  V30 39763 H 3975.86 3.26777 1.79018 0
M  V30 39764 H 3975.97 4.74984 0.626661 0
M  V30 39765 H 3974.34 2.51064 0.428838 0
M  V30 39766 H 3975.12 3.26427 -1.06303 0
M  V30 39767 N 3977.57 0.0234513 1.57583 0
M  V30 39768 C 3978.5 -0.988924 2.06768 0
M  V30 39769 C 3979.51 -1.29239 0.990002 0
M  V30 39770 O 3980.7 -1.25804 1.26632 0
M  V30 39771 C 3977.8 -2.3178 2.47248 0
M  V30 39772 C 3976.97 -2.20032 3.78027 0
M  V30 39773 C 3976.03 -3.35805 4.05119 0
M  V30 39774 O 3975.06 -3.12944 4.75452 0
M  V30 39775 N 3976.26 -4.59416 3.54848 0
M  V30 39776 H 3979.03 -0.569304 2.94243 0
M  V30 39777 H 3976.59 -0.163433 1.61073 0
M  V30 39778 H 3978.58 -3.08047 2.62468 0
M  V30 39779 H 3977.15 -2.65402 1.65168 0
M  V30 39780 H 3976.37 -1.28528 3.72658 0
M  V30 39781 H 3977.66 -2.0938 4.63721 0
M  V30 39782 H 3977.06 -4.80885 2.97937 0
M  V30 39783 H 3975.61 -5.3287 3.75357 0
M  V30 39784 N 3979.05 -1.5561 -0.249627 0
M  V30 39785 C 3979.98 -1.93102 -1.31277 0
M  V30 39786 C 3980.96 -0.795628 -1.50346 0
M  V30 39787 O 3982.14 -1.05569 -1.62999 0
M  V30 39788 C 3979.27 -2.22335 -2.66804 0
M  V30 39789 C 3978.23 -3.381 -2.62435 0
M  V30 39790 C 3977.55 -3.52868 -4.01732 0
M  V30 39791 C 3978.85 -4.73864 -2.19659 0
M  V30 39792 H 3980.55 -2.82154 -1.00146 0
M  V30 39793 H 3978.09 -1.35754 -0.480307 0
M  V30 39794 H 3980.04 -2.47152 -3.41312 0
M  V30 39795 H 3978.77 -1.30106 -2.99566 0
M  V30 39796 H 3977.43 -3.13287 -1.90385 0
M  V30 39797 H 3977.08 -2.58064 -4.31755 0
M  V30 39798 H 3976.78 -4.30715 -3.99697 0
M  V30 39799 H 3978.3 -3.80003 -4.77944 0
M  V30 39800 H 3979.71 -4.98072 -2.83897 0
M  V30 39801 H 3978.11 -5.54795 -2.28741 0
M  V30 39802 H 3979.18 -4.7111 -1.14821 0
M  V30 39803 N 3980.52 0.515172 -1.48942 0
M  V30 39804 C 3981.45 1.62716 -1.67468 0
M  V30 39805 C 3982.43 1.61847 -0.523422 0
M  V30 39806 O 3983.62 1.7881 -0.757663 0
M  V30 39807 C 3980.75 3.01257 -1.72804 0
M  V30 39808 C 3979.7 3.16989 -2.87579 0
M  V30 39809 C 3979.03 4.5674 -2.78016 0
M  V30 39810 C 3980.33 2.98355 -4.28698 0
M  V30 39811 H 3982.02 1.47467 -2.60565 0
M  V30 39812 H 3979.57 0.708005 -1.25393 0
M  V30 39813 H 3981.52 3.78936 -1.84352 0
M  V30 39814 H 3980.25 3.17563 -0.762973 0
M  V30 39815 H 3978.91 2.41732 -2.7561 0
M  V30 39816 H 3978.55 4.69902 -1.79447 0
M  V30 39817 H 3978.25 4.68209 -3.55041 0
M  V30 39818 H 3979.78 5.36498 -2.91552 0
M  V30 39819 H 3981.19 3.65813 -4.41422 0
M  V30 39820 H 3979.59 3.21306 -5.06836 0
M  V30 39821 H 3980.66 1.94622 -4.44129 0
M  V30 39822 N 3982 1.37779 0.765169 0
M  V30 39823 C 3982.96 1.3389 1.86027 0
M  V30 39824 C 3983.96 0.241642 1.58974 0
M  V30 39825 O 3985.15 0.497872 1.66934 0
M  V30 39826 C 3982.29 1.08156 3.23288 0
M  V30 39827 H 3983.48 2.31306 1.90886 0
M  V30 39828 H 3981.03 1.22903 0.965632 0
M  V30 39829 H 3981.77 0.112983 3.24103 0
M  V30 39830 H 3981.55 1.87586 3.44317 0
M  V30 39831 H 3983.04 1.08102 4.03366 0
M  V30 39832 N 3983.48 -0.992073 1.22457 0
M  V30 39833 C 3984.43 -2.08233 0.995376 0
M  V30 39834 C 3985.4 -1.65892 -0.0831773 0
M  V30 39835 O 3986.58 -1.90684 0.0665803 0
M  V30 39836 C 3983.72 -3.40189 0.580115 0
M  V30 39837 C 3982.83 -3.95868 1.72953 0
M  V30 39838 C 3981.97 -5.15987 1.26217 0
M  V30 39839 C 3981.01 -5.63805 2.38308 0
M  V30 39840 N 3980.15 -6.75163 1.92614 0
M  V30 39841 H 3984.99 -2.27172 1.92865 0
M  V30 39842 H 3982.52 -1.11372 0.960968 0
M  V30 39843 H 3984.48 -4.15967 0.320521 0
M  V30 39844 H 3983.11 -3.21248 -0.316151 0
M  V30 39845 H 3982.16 -3.16954 2.10343 0
M  V30 39846 H 3983.47 -4.27336 2.57264 0
M  V30 39847 H 3982.63 -5.99057 0.960009 0
M  V30 39848 H 3981.37 -4.86144 0.38927 0
M  V30 39849 H 3980.37 -4.79323 2.69312 0
M  V30 39850 H 3981.6 -5.95672 3.26116 0
M  V30 39851 H 3979.54 -6.47101 1.07686 0
M  V30 39852 H 3979.46 -7.05954 2.70491 0
M  V30 39853 H 3980.73 -7.61735 1.65468 0
M  V30 39854 N 3984.96 -1.03439 -1.18904 0
M  V30 39855 C 3985.89 -0.640708 -2.24538 0
M  V30 39856 C 3986.87 0.352995 -1.66397 0
M  V30 39857 O 3988.05 0.234489 -1.92779 0
M  V30 39858 C 3985.18 0.00361626 -3.473 0
M  V30 39859 C 3984.14 -0.912955 -4.1815 0
M  V30 39860 C 3983.46 -0.133441 -5.34533 0
M  V30 39861 C 3984.76 -2.22921 -4.72338 0
M  V30 39862 H 3986.46 -1.52378 -2.57723 0
M  V30 39863 H 3984 -0.73412 -1.23882 0
M  V30 39864 H 3985.96 0.290709 -4.20396 0
M  V30 39865 H 3984.68 0.921523 -3.1333 0
M  V30 39866 H 3983.34 -1.18433 -3.46943 0
M  V30 39867 H 3982.99 0.786675 -4.9681 0
M  V30 39868 H 3982.69 -0.744007 -5.82871 0
M  V30 39869 H 3984.21 0.146782 -6.10424 0
M  V30 39870 H 3985.63 -2.00326 -5.37161 0
M  V30 39871 H 3984.02 -2.79219 -5.31184 0
M  V30 39872 H 3985.09 -2.88006 -3.90103 0
M  V30 39873 N 3986.44 1.35011 -0.813001 0
M  V30 39874 C 3987.66 2.03347 -0.408005 0
M  V30 39875 C 3988.09 1.60851 0.97512 0
M  V30 39876 O 3987.44 0.788285 1.63266 0
M  V30 39877 C 3987.49 3.57021 -0.506817 0
M  V30 39878 O 3986.6 4.09629 0.47725 0
M  V30 39879 H 3985.94 0.642021 -0.169427 0
M  V30 39880 H 3988.47 1.72472 -1.10067 0
M  V30 39881 H 3988.48 4.06236 -0.378955 0
M  V30 39882 H 3987.15 3.873 -1.51564 0
M  V30 39883 H 3985.73 3.71617 0.309096 0
M  V30 39884 N 3987.91 0.567071 1.47044 0
M  V30 39885 C 3989.16 0.0445144 2.01651 0
M  V30 39886 C 3989.48 -1.31736 1.44586 0
M  V30 39887 O 3990.68 -1.93038 1.90915 0
M  V30 39888 C 3989.14 0.0290487 3.59888 0
M  V30 39889 C 3988.75 1.38828 4.25947 0
M  V30 39890 C 3990.49 -0.440383 4.2221 0
M  V30 39891 C 3988.4 1.33139 5.76219 0
M  V30 39892 H 3987.33 0.0128712 0.75389 0
M  V30 39893 H 3989.98 0.716393 1.68938 0
M  V30 39894 H 3988.36 -0.708679 3.89607 0
M  V30 39895 H 3989.53 2.1445 4.07858 0
M  V30 39896 H 3987.85 1.79645 3.75655 0
M  V30 39897 H 3990.45 -0.501498 5.32343 0
M  V30 39898 H 3990.79 -1.45454 3.90062 0
M  V30 39899 H 3991.32 0.242791 3.97058 0
M  V30 39900 H 3988.06 2.32186 6.13001 0
M  V30 39901 H 3987.58 0.617128 5.96617 0
M  V30 39902 H 3989.26 1.03763 6.38625 0
M  V30 39903 N 3989.39 -1.5464 0.304027 0
M  V30 39904 C 3990.32 -2.26591 -0.563814 0
M  V30 39905 C 3991.3 -1.26655 -1.13545 0
M  V30 39906 O 3992.49 -1.55433 -1.16422 0
M  V30 39907 C 3989.62 -3.00897 -1.73431 0
M  V30 39908 C 3988.57 -4.08005 -1.2929 0
M  V30 39909 C 3987.9 -4.70043 -2.5488 0
M  V30 39910 C 3989.2 -5.20593 -0.421936 0
M  V30 39911 H 3990.89 -2.99378 0.0363095 0
M  V30 39912 H 3988.44 -1.43988 0.0189034 0
M  V30 39913 H 3990.39 -3.49954 -2.34756 0
M  V30 39914 H 3989.11 -2.25693 -2.36073 0
M  V30 39915 H 3987.77 -3.59802 -0.702694 0
M  V30 39916 H 3987.42 -3.91476 -3.15842 0
M  V30 39917 H 3987.12 -5.42382 -2.26044 0
M  V30 39918 H 3988.65 -5.21864 -3.17001 0
M  V30 39919 H 3990.06 -5.65526 -0.940936 0
M  V30 39920 H 3988.46 -5.9967 -0.227217 0
M  V30 39921 H 3989.53 -4.81745 0.552205 0
M  V30 39922 N 3990.87 -0.0318079 -1.57568 0
M  V30 39923 C 3991.78 0.964773 -2.13844 0
M  V30 39924 C 3992.8 1.35518 -1.09137 0
M  V30 39925 O 3993.97 1.43605 -1.41207 0
M  V30 39926 C 3991.04 2.22771 -2.65658 0
M  V30 39927 C 3990.1 1.89746 -3.85091 0
M  V30 39928 C 3989.33 3.10019 -4.34424 0
M  V30 39929 O 3989.55 4.22765 -3.82918 0
M  V30 39930 O 3988.49 2.9216 -5.26238 0
M  V30 39931 H 3992.31 0.516249 -2.9928 0
M  V30 39932 H 3989.9 0.188956 -1.482 0
M  V30 39933 H 3991.78 2.96905 -2.9904 0
M  V30 39934 H 3990.46 2.66799 -1.83303 0
M  V30 39935 H 3989.36 1.12987 -3.5663 0
M  V30 39936 H 3990.7 1.50532 -4.68616 0
M  V30 39937 N 3992.35 1.55741 0.241371 0
M  V30 39938 C 3993.3 1.9161 1.31865 0
M  V30 39939 C 3994.29 0.7958 1.49544 0
M  V30 39940 O 3995.5 0.980468 1.50953 0
M  V30 39941 H 3991.87 0.608628 0.441674 0
M  V30 39942 H 3993.84 2.8154 0.98882 0
M  V30 39943 C 3992.59 2.23205 2.66598 0
M  V30 39944 H 3991.91 3.08914 2.53796 0
M  V30 39945 H 3993.35 2.52202 3.40837 0
M  V30 39946 C 3991.81 1.05029 3.2011 0
M  V30 39947 O 3992.34 0.30114 4.0057 0
M  V30 39948 N 3990.55 0.83943 2.78212 0
M  V30 39949 H 3990.1 1.45034 2.12892 0
M  V30 39950 H 3990.05 0.0504173 3.1436 0
M  V30 39951 N 3993.83 -0.507266 1.49213 0
M  V30 39952 C 3995.24 -0.837884 1.35837 0
M  V30 39953 C 3995.44 -1.97755 0.386669 0
M  V30 39954 O 3994.5 -2.51829 -0.183927 0
M  V30 39955 C 3995.81 -1.18399 2.76409 0
M  V30 39956 C 3997.36 -1.29257 2.85064 0
M  V30 39957 C 3997.83 -1.672 4.2639 0
M  V30 39958 N 3999.33 -1.74261 4.29171 0
M  V30 39959 C 4000.06 -2.05051 5.35482 0
M  V30 39960 N 3999.56 -2.34109 6.52047 0
M  V30 39961 N 4001.35 -2.0625 5.22893 0
M  V30 39962 H 3993.5 0.244348 2.1099 0
M  V30 39963 H 3995.76 0.0467144 0.946848 0
M  V30 39964 H 3995.47 -0.419992 3.49183 0
M  V30 39965 H 3995.34 -2.12891 3.1138 0
M  V30 39966 H 3997.73 -2.0473 2.12532 0
M  V30 39967 H 3997.81 -0.328315 2.53684 0
M  V30 39968 H 3997.46 -0.922796 4.99447 0
M  V30 39969 H 3997.39 -2.64715 4.55229 0
M  V30 39970 H 3999.88 -1.5399 3.45102 0
M  V30 39971 H 4000.19 -2.56774 7.28894 0
M  V30 39972 H 3998.53 -2.31579 6.55283 0
M  V30 39973 H 4001.73 -1.83021 4.30838 0
M  V30 39974 H 4001.9 -2.29912 6.05842 0
M  V30 39975 N 3995.3 -1.38182 -0.757851 0
M  V30 39976 C 3996.55 -1.33891 -1.51386 0
M  V30 39977 C 3996.87 0.0718425 -1.94868 0
M  V30 39978 O 3996.14 1.01868 -1.67331 0
M  V30 39979 H 3994.72 -0.492644 -0.561525 0
M  V30 39980 H 3997.39 -1.72817 -0.901126 0
M  V30 39981 H 3996.48 -1.98699 -2.40676 0
M  V30 39982 N 3996.78 0.985565 -1.22981 0
M  V30 39983 C 3998.03 1.7287 -1.06037 0
M  V30 39984 C 3998.36 1.89982 0.402539 0
M  V30 39985 O 3997.64 1.44833 1.29821 0
M  V30 39986 C 3997.92 3.13 -1.78053 0
M  V30 39987 C 3997.77 3.03491 -3.31984 0
M  V30 39988 C 3999.09 4.1232 -1.53884 0
M  V30 39989 H 3996.21 0.627459 -0.386605 0
M  V30 39990 H 3998.85 1.14772 -1.51418 0
M  V30 39991 H 3997 3.626 -1.39475 0
M  V30 39992 H 3998.67 2.61455 -3.80051 0
M  V30 39993 H 3996.92 2.40119 -3.61283 0
M  V30 39994 H 3997.59 4.02684 -3.77557 0
M  V30 39995 H 4000.06 3.71507 -1.87409 0
M  V30 39996 H 3998.94 5.08471 -2.06758 0
M  V30 39997 H 3999.2 4.39562 -0.473049 0
M  V30 39998 N 3998.26 1.04068 1.18353 0
M  V30 39999 C 3999.21 0.602129 2.19905 0
M  V30 40000 C 4000.19 -0.355429 1.56925 0
M  V30 40001 O 4001.39 -0.174482 1.76138 0
M  V30 40002 C 3998.52 -0.03343 3.43284 0
M  V30 40003 C 3997.6 0.947277 4.13385 0
M  V30 40004 N 3997.99 2.11433 4.59488 0
M  V30 40005 C 3996.29 0.773281 4.39245 0
M  V30 40006 C 3996.99 2.73384 5.13455 0
M  V30 40007 N 3995.97 2.0126 5.04971 0
M  V30 40008 H 3999.77 1.49149 2.53242 0
M  V30 40009 H 3997.28 0.909273 1.34558 0
M  V30 40010 H 3999.28 -0.365311 4.15296 0
M  V30 40011 H 3997.94 -0.918332 3.11443 0
M  V30 40012 H 3998.95 2.49322 4.53937 0
M  V30 40013 H 3995.63 -0.0615288 4.17455 0
M  V30 40014 H 3997.02 3.72289 5.5933 0
M  V30 40015 N 3999.74 -1.34578 0.820149 0
M  V30 40016 C 4000.69 -2.31477 0.22832 0
M  V30 40017 C 4001.68 -1.57273 -0.629411 0
M  V30 40018 O 4002.89 -1.72293 -0.521061 0
M  V30 40019 H 3999.26 -0.74998 0.055086 0
M  V30 40020 H 4001.23 -2.78921 1.06045 0
M  V30 40021 C 3999.98 -3.42529 -0.597435 0
M  V30 40022 H 3999.3 -3.99765 0.0532452 0
M  V30 40023 H 4000.74 -4.12574 -0.977692 0
M  V30 40024 C 3999.2 -2.86742 -1.76863 0
M  V30 40025 O 3999.73 -2.81396 -2.86669 0
M  V30 40026 N 3997.94 -2.43603 -1.58448 0
M  V30 40027 H 3997.49 -2.48151 -0.691274 0
M  V30 40028 H 3997.44 -2.06628 -2.36965 0
M  V30 40029 N 4001.22 -0.574861 -1.46742 0
M  V30 40030 C 4002.18 0.152592 -2.28691 0
M  V30 40031 C 4003.18 0.826214 -1.37951 0
M  V30 40032 O 4004.37 0.67937 -1.60406 0
M  V30 40033 C 4001.5 1.2252 -3.18122 0
M  V30 40034 H 4002.69 -0.567491 -2.94482 0
M  V30 40035 H 4000.25 -0.332507 -1.52722 0
M  V30 40036 H 4000.98 1.97711 -2.57062 0
M  V30 40037 H 4000.77 0.746773 -3.84923 0
M  V30 40038 H 4002.26 1.73563 -3.79823 0
M  V30 40039 N 4002.69 1.54476 -0.312224 0
M  V30 40040 C 4003.92 2.05236 0.298793 0
M  V30 40041 C 4004.34 1.18747 1.45879 0
M  V30 40042 O 4003.7 0.194031 1.80259 0
M  V30 40043 C 4003.75 3.53299 0.721946 0
M  V30 40044 O 4002.85 3.69794 1.82555 0
M  V30 40045 H 4002.2 0.661627 0.0560869 0
M  V30 40046 H 4004.73 1.99423 -0.457335 0
M  V30 40047 H 4004.74 3.9536 1.0077 0
M  V30 40048 H 4003.41 4.15707 -0.126543 0
M  V30 40049 H 4001.99 3.39639 1.53948 0
M  V30 40050 N 4004.17 0.0401637 1.57549 0
M  V30 40051 C 4005.1 -0.936131 2.13913 0
M  V30 40052 C 4006.08 -1.33192 1.05801 0
M  V30 40053 O 4007.27 -1.40859 1.33688 0
M  V30 40054 C 4004.4 -2.21474 2.67519 0
M  V30 40055 C 4003.35 -1.95936 3.80517 0
M  V30 40056 C 4002.68 -3.30157 4.20595 0
M  V30 40057 C 4003.98 -1.28972 5.06126 0
M  V30 40058 H 4005.67 -0.466688 2.9574 0
M  V30 40059 H 4003.22 -0.223037 1.42262 0
M  V30 40060 H 4005.17 -2.90163 3.05587 0
M  V30 40061 H 4003.9 -2.70604 1.82868 0
M  V30 40062 H 4002.55 -1.29663 3.42904 0
M  V30 40063 H 4002.2 -3.77067 3.3291 0
M  V30 40064 H 4001.9 -3.13872 4.96748 0
M  V30 40065 H 4003.43 -4.00095 4.61255 0
M  V30 40066 H 4004.84 -1.87678 5.4171 0
M  V30 40067 H 4003.24 -1.23049 5.87349 0
M  V30 40068 H 4004.31 -0.264201 4.8418 0
M  V30 40069 N 4005.65 -1.55866 -0.233109 0
M  V30 40070 C 4006.61 -1.90648 -1.27224 0
M  V30 40071 C 4007.61 -0.784063 -1.40389 0
M  V30 40072 O 4008.8 -1.05193 -1.38853 0
M  V30 40073 C 4005.94 -2.14711 -2.64787 0
M  V30 40074 H 4007.13 -2.83576 -0.975936 0
M  V30 40075 H 4004.68 -1.48971 -0.473019 0
M  V30 40076 H 4005.42 -1.24296 -2.99535 0
M  V30 40077 H 4005.2 -2.96469 -2.5661 0
M  V30 40078 H 4006.69 -2.42756 -3.39793 0
M  V30 40079 N 4007.13 0.499346 -1.4948 0
M  V30 40080 C 4008.06 1.60931 -1.69185 0
M  V30 40081 C 4009.04 1.61282 -0.540558 0
M  V30 40082 O 4010.23 1.77997 -0.776585 0
M  V30 40083 C 4007.36 2.99407 -1.7599 0
M  V30 40084 C 4006.31 3.13921 -2.90925 0
M  V30 40085 C 4005.64 4.53765 -2.82845 0
M  V30 40086 C 4006.94 2.93791 -4.31838 0
M  V30 40087 H 4008.63 1.44695 -2.62114 0
M  V30 40088 H 4006.18 0.694665 -1.26136 0
M  V30 40089 H 4008.13 3.76959 -1.88361 0
M  V30 40090 H 4006.85 3.16736 -0.796612 0
M  V30 40091 H 4005.51 2.38795 -2.78159 0
M  V30 40092 H 4005.16 4.67972 -1.84421 0
M  V30 40093 H 4004.86 4.64417 -3.59987 0
M  V30 40094 H 4006.38 5.33375 -2.97226 0
M  V30 40095 H 4007.8 3.61111 -4.45277 0
M  V30 40096 H 4006.19 3.15913 -5.10215 0
M  V30 40097 H 4007.26 1.899 -4.46168 0
M  V30 40098 N 4008.61 1.38582 0.750513 0
M  V30 40099 C 4009.83 1.38379 1.54487 0
M  V30 40100 C 4010.26 -0.023601 1.88085 0
M  V30 40101 O 4009.62 -1.00649 1.50796 0
M  V30 40102 C 4009.66 2.24902 2.81871 0
M  V30 40103 O 4008.77 1.66824 3.77152 0
M  V30 40104 H 4008.11 0.471886 0.46714 0
M  V30 40105 H 4010.64 1.82383 0.927232 0
M  V30 40106 H 4010.65 2.38869 3.30765 0
M  V30 40107 H 4009.32 3.2719 2.56747 0
M  V30 40108 H 4007.9 1.62015 3.35865 0
M  V30 40109 N 4010.09 -0.979029 1.23502 0
M  V30 40110 C 4011.05 -2.05323 1.01857 0
M  V30 40111 C 4012.05 -1.60787 -0.0200851 0
M  V30 40112 O 4013.24 -1.72808 0.219791 0
M  V30 40113 C 4010.37 -3.36572 0.541463 0
M  V30 40114 H 4011.56 -2.25958 1.97187 0
M  V30 40115 H 4009.12 -1.15263 1.05565 0
M  V30 40116 H 4009.85 -3.21627 -0.415551 0
M  V30 40117 H 4009.64 -3.70238 1.29099 0
M  V30 40118 H 4011.13 -4.15575 0.410708 0
M  V30 40119 N 4011.56 -1.04695 -1.178 0
M  V30 40120 C 4012.79 -0.774227 -1.92407 0
M  V30 40121 C 4013.21 0.663393 -1.76013 0
M  V30 40122 O 4012.57 1.46028 -1.0745 0
M  V30 40123 C 4012.62 -1.15336 -3.41658 0
M  V30 40124 O 4011.72 -0.282542 -4.11431 0
M  V30 40125 H 4011.06 -0.284364 -0.600028 0
M  V30 40126 H 4013.59 -1.39847 -1.49345 0
M  V30 40127 H 4013.6 -1.11798 -3.92384 0
M  V30 40128 H 4012.28 -2.20062 -3.5291 0
M  V30 40129 H 4010.86 -0.378086 -3.70978 0
M  V30 40130 N 4013.04 1.34141 -0.827275 0
M  V30 40131 C 4014.29 1.9741 -0.413797 0
M  V30 40132 C 4014.6 1.66305 1.02967 0
M  V30 40133 O 4015.81 2.23096 1.54727 0
M  V30 40134 C 4014.27 3.53244 -0.688966 0
M  V30 40135 C 4013.87 3.93238 -2.14634 0
M  V30 40136 C 4015.62 4.23121 -0.341868 0
M  V30 40137 C 4013.52 5.42002 -2.36617 0
M  V30 40138 H 4012.45 0.738726 -0.150995 0
M  V30 40139 H 4015.11 1.52923 -1.01424 0
M  V30 40140 H 4013.49 3.95996 -0.0183015 0
M  V30 40141 H 4014.66 3.61579 -2.85652 0
M  V30 40142 H 4012.98 3.3631 -2.45529 0
M  V30 40143 H 4015.57 5.32506 -0.483891 0
M  V30 40144 H 4015.92 4.1013 0.714063 0
M  V30 40145 H 4016.45 3.85861 -0.967288 0
M  V30 40146 H 4013.19 5.59984 -3.40732 0
M  V30 40147 H 4012.71 5.75161 -1.70147 0
M  V30 40148 H 4014.39 6.0874 -2.19192 0
M  V30 40149 N 4014.52 0.582635 1.46435 0
M  V30 40150 C 4015.77 0.0680503 2.01985 0
M  V30 40151 C 4016.09 -1.2965 1.45657 0
M  V30 40152 O 4015.36 -1.85108 0.641235 0
M  V30 40153 H 4013.94 0.0221662 0.746671 0
M  V30 40154 H 4016.6 0.758398 1.79539 0
M  V30 40155 H 4015.7 -0.00100515 3.121 0
M  V30 40156 N 4016 -1.54309 0.320412 0
M  V30 40157 C 4017.41 -1.59567 -0.0323419 0
M  V30 40158 C 4017.61 -1.33702 -1.50752 0
M  V30 40159 O 4016.67 -1.11991 -2.26306 0
M  V30 40160 C 4017.98 -2.9825 0.383053 0
M  V30 40161 C 4019.53 -3.11219 0.333444 0
M  V30 40162 C 4020.01 -4.52242 0.723954 0
M  V30 40163 N 4021.5 -4.58222 0.677237 0
M  V30 40164 C 4022.23 -5.65448 0.951631 0
M  V30 40165 N 4021.73 -6.80627 1.293 0
M  V30 40166 N 4023.52 -5.5521 0.877401 0
M  V30 40167 H 4015.67 -1.69379 1.28158 0
M  V30 40168 H 4017.93 -0.792064 0.520901 0
M  V30 40169 H 4017.64 -3.22167 1.41072 0
M  V30 40170 H 4017.51 -3.76347 -0.253535 0
M  V30 40171 H 4019.9 -2.87039 -0.685012 0
M  V30 40172 H 4019.98 -2.35234 1.00492 0
M  V30 40173 H 4019.63 -4.77154 1.74031 0
M  V30 40174 H 4019.56 -5.26591 0.0301965 0
M  V30 40175 H 4022.05 -3.75501 0.425121 0
M  V30 40176 H 4022.36 -7.58343 1.48783 0
M  V30 40177 H 4020.71 -6.82132 1.33123 0
M  V30 40178 H 4023.9 -4.64105 0.610225 0
M  V30 40179 H 4024.07 -6.38688 1.0946 0
M  V30 40180 N 4017.48 -0.0485183 -1.57525 0
M  V30 40181 C 4018.72 0.626783 -1.92871 0
M  V30 40182 C 4019.05 1.70651 -0.926929 0
M  V30 40183 O 4018.33 1.94442 0.0474787 0
M  V30 40184 C 4018.61 1.22533 -3.38611 0
M  V30 40185 C 4018.47 0.153844 -4.49537 0
M  V30 40186 C 4019.78 2.13774 -3.84693 0
M  V30 40187 H 4016.9 0.226378 -0.701371 0
M  V30 40188 H 4019.55 -0.109741 -1.89683 0
M  V30 40189 H 4017.7 1.85305 -3.41459 0
M  V30 40190 H 4019.37 -0.477927 -4.58818 0
M  V30 40191 H 4017.61 -0.51841 -4.30691 0
M  V30 40192 H 4018.28 0.612611 -5.4859 0
M  V30 40193 H 4020.76 1.60967 -3.83704 0
M  V30 40194 H 4019.63 2.52598 -4.87325 0
M  V30 40195 H 4019.89 3.03677 -3.21299 0
M  V30 40196 N 4018.95 1.55988 0.224839 0
M  V30 40197 C 4020.37 1.48906 0.574389 0
M  V30 40198 C 4020.57 0.742993 1.87302 0
M  V30 40199 O 4019.63 0.281314 2.50928 0
M  V30 40200 C 4020.94 2.93442 0.656666 0
M  V30 40201 C 4022.49 3.03943 0.747514 0
M  V30 40202 C 4022.96 4.49831 0.861164 0
M  V30 40203 N 4024.45 4.5386 0.92547 0
M  V30 40204 C 4025.19 5.64017 1.03306 0
M  V30 40205 N 4024.68 6.83934 1.1048 0
M  V30 40206 N 4026.48 5.51862 1.06794 0
M  V30 40207 H 4018.63 2.02923 -0.627374 0
M  V30 40208 H 4020.89 0.922198 -0.219672 0
M  V30 40209 H 4020.6 3.50961 -0.227907 0
M  V30 40210 H 4020.47 3.45159 1.52136 0
M  V30 40211 H 4022.86 2.46491 1.62253 0
M  V30 40212 H 4022.94 2.55401 -0.142782 0
M  V30 40213 H 4022.58 5.07899 -0.0093805 0
M  V30 40214 H 4022.51 4.96075 1.76683 0
M  V30 40215 H 4025 3.675 0.880476 0
M  V30 40216 H 4025.32 7.63636 1.18658 0
M  V30 40217 H 4023.66 6.86652 1.07399 0
M  V30 40218 H 4026.85 4.57107 1.00852 0
M  V30 40219 H 4027.03 6.37744 1.14833 0
M  V30 40220 N 4020.43 -0.491412 1.49743 0
M  V30 40221 C 4021.34 -1.61807 1.69869 0
M  V30 40222 C 4022.36 -1.63999 0.581415 0
M  V30 40223 O 4023.53 -1.82243 0.857295 0
M  V30 40224 C 4020.6 -2.98131 1.7697 0
M  V30 40225 C 4019.66 -3.06491 3.00603 0
M  V30 40226 C 4018.89 -4.36312 3.07356 0
M  V30 40227 O 4019.12 -5.25662 2.21441 0
M  V30 40228 O 4018.05 -4.49843 3.99906 0
M  V30 40229 H 4021.88 -1.47755 2.65334 0
M  V30 40230 H 4019.46 -0.668737 1.33597 0
M  V30 40231 H 4021.34 -3.79136 1.83939 0
M  V30 40232 H 4020.02 -3.12426 0.846862 0
M  V30 40233 H 4018.92 -2.24638 2.99146 0
M  V30 40234 H 4020.26 -2.97126 3.92399 0
M  V30 40235 N 4021.91 -1.38978 -0.743153 0
M  V30 40236 C 4022.84 -1.39774 -1.87044 0
M  V30 40237 C 4023.82 -0.26219 -1.68067 0
M  V30 40238 O 4025.01 -0.466815 -1.88506 0
M  V30 40239 C 4022.14 -1.2324 -3.24699 0
M  V30 40240 C 4021.09 -2.34109 -3.58298 0
M  V30 40241 C 4020.42 -2.02671 -4.94801 0
M  V30 40242 C 4021.72 -3.76401 -3.62104 0
M  V30 40243 H 4023.41 -2.3411 -1.86636 0
M  V30 40244 H 4020.96 -1.12688 -0.896521 0
M  V30 40245 H 4022.91 -1.22419 -4.03226 0
M  V30 40246 H 4021.63 -0.253695 -3.25613 0
M  V30 40247 H 4020.29 -2.34133 -2.82095 0
M  V30 40248 H 4019.94 -1.03259 -4.92287 0
M  V30 40249 H 4019.64 -2.76932 -5.1825 0
M  V30 40250 H 4021.16 -2.03487 -5.75696 0
M  V30 40251 H 4022.58 -3.78351 -4.30724 0
M  V30 40252 H 4020.98 -4.49953 -3.97067 0
M  V30 40253 H 4022.05 -4.07965 -2.62092 0
M  V30 40254 N 4023.39 0.972465 -1.2402 0
M  V30 40255 C 4024.64 1.70911 -1.07108 0
M  V30 40256 C 4024.95 1.91655 0.390874 0
M  V30 40257 O 4026.16 2.62844 0.680084 0
M  V30 40258 C 4024.61 3.07609 -1.86829 0
M  V30 40259 C 4024.22 2.94725 -3.37404 0
M  V30 40260 C 4025.96 3.85179 -1.78431 0
M  V30 40261 C 4023.87 4.26702 -4.09486 0
M  V30 40262 H 4022.8 0.6409 -0.397195 0
M  V30 40263 H 4025.45 1.08402 -1.48058 0
M  V30 40264 H 4023.83 3.70919 -1.38689 0
M  V30 40265 H 4025.01 2.40455 -3.93088 0
M  V30 40266 H 4023.32 2.30624 -3.46701 0
M  V30 40267 H 4025.92 4.82899 -2.29592 0
M  V30 40268 H 4026.26 4.09513 -0.748627 0
M  V30 40269 H 4026.8 3.28585 -2.24225 0
M  V30 40270 H 4023.54 4.07562 -5.13394 0
M  V30 40271 H 4023.06 4.80806 -3.58588 0
M  V30 40272 H 4024.73 4.95348 -4.16221 0
M  V30 40273 N 4024.87 1.05318 1.17243 0
M  V30 40274 C 4025.83 0.659505 2.19507 0
M  V30 40275 C 4026.83 -0.289669 1.58169 0
M  V30 40276 O 4028.02 -0.0733713 1.74045 0
M  V30 40277 C 4025.15 -0.0311287 3.40886 0
M  V30 40278 H 4026.34 1.56465 2.55849 0
M  V30 40279 H 4023.9 0.847216 1.31347 0
M  V30 40280 H 4024.63 -0.949481 3.10089 0
M  V30 40281 H 4024.42 0.651259 3.86654 0
M  V30 40282 H 4025.91 -0.292629 4.16573 0
M  V30 40283 N 4026.34 -1.33701 0.834377 0
M  V30 40284 C 4027.28 -2.28124 0.221804 0
M  V30 40285 C 4028.29 -1.51542 -0.59489 0
M  V30 40286 O 4029.48 -1.73423 -0.422695 0
M  V30 40287 C 4026.58 -3.31449 -0.70672 0
M  V30 40288 C 4025.75 -4.37345 0.0696525 0
M  V30 40289 C 4024.81 -5.20364 -0.781531 0
M  V30 40290 O 4023.84 -5.68766 -0.222359 0
M  V30 40291 N 4025.04 -5.412 -2.09958 0
M  V30 40292 H 4027.8 -2.81332 1.03308 0
M  V30 40293 H 4025.36 -1.46346 0.692414 0
M  V30 40294 H 4027.36 -3.83891 -1.28102 0
M  V30 40295 H 4025.93 -2.78552 -1.41872 0
M  V30 40296 H 4025.15 -3.85464 0.825314 0
M  V30 40297 H 4026.43 -5.05206 0.603664 0
M  V30 40298 H 4025.83 -5.0357 -2.57748 0
M  V30 40299 H 4024.39 -5.96716 -2.62247 0
M  V30 40300 N 4027.82 -0.590393 -1.46124 0
M  V30 40301 C 4028.79 0.128328 -2.2884 0
M  V30 40302 C 4029.79 0.811536 -1.38819 0
M  V30 40303 O 4030.98 0.662318 -1.61118 0
M  V30 40304 C 4028.11 1.19139 -3.19404 0
M  V30 40305 H 4029.3 -0.598693 -2.93863 0
M  V30 40306 H 4026.85 -0.348687 -1.52361 0
M  V30 40307 H 4027.59 1.94974 -2.59144 0
M  V30 40308 H 4027.37 0.705905 -3.85693 0
M  V30 40309 H 4028.86 1.69525 -3.81643 0
M  V30 40310 N 4029.3 1.54136 -0.328591 0
M  V30 40311 C 4030.72 1.59582 0.0238792 0
M  V30 40312 C 4030.92 1.34499 1.50041 0
M  V30 40313 O 4029.97 1.13189 2.25709 0
M  V30 40314 C 4031.29 2.98043 -0.398865 0
M  V30 40315 C 4032.83 3.11038 -0.349944 0
M  V30 40316 C 4033.31 4.51852 -0.747927 0
M  V30 40317 N 4034.8 4.57857 -0.701528 0
M  V30 40318 C 4035.53 5.64935 -0.981604 0
M  V30 40319 N 4035.03 6.79932 -1.32907 0
M  V30 40320 N 4036.82 5.54737 -0.906832 0
M  V30 40321 H 4028.97 1.68697 -1.29055 0
M  V30 40322 H 4031.24 0.789291 -0.525094 0
M  V30 40323 H 4030.94 3.21414 -1.42779 0
M  V30 40324 H 4030.82 3.76476 0.233573 0
M  V30 40325 H 4033.2 2.87399 0.66978 0
M  V30 40326 H 4033.29 2.34698 -1.01738 0
M  V30 40327 H 4032.93 4.76224 -1.76559 0
M  V30 40328 H 4032.86 5.26568 -0.0581225 0
M  V30 40329 H 4035.35 3.7527 -0.445029 0
M  V30 40330 H 4035.66 7.57543 -1.52803 0
M  V30 40331 H 4034.01 6.81416 -1.36738 0
M  V30 40332 H 4037.2 4.63775 -0.634829 0
M  V30 40333 H 4037.37 6.38099 -1.12846 0
M  V30 40334 N 4030.78 0.0568716 1.57497 0
M  V30 40335 C 4032.03 -0.614418 1.92534 0
M  V30 40336 C 4032.35 -1.71045 0.936403 0
M  V30 40337 O 4031.62 -1.95892 -0.0178459 0
M  V30 40338 H 4030.2 -0.229945 0.710728 0
M  V30 40339 H 4032.86 0.111215 1.94582 0
M  V30 40340 H 4031.96 -1.04936 2.9393 0
M  V30 40341 N 4032.26 -1.56105 -0.216564 0
M  V30 40342 C 4033.22 -1.91987 -1.25195 0
M  V30 40343 C 4034.22 -0.798909 -1.3955 0
M  V30 40344 O 4035.41 -1.0666 -1.37729 0
M  V30 40345 C 4032.54 -2.17507 -2.62495 0
M  V30 40346 H 4033.73 -2.84595 -0.945804 0
M  V30 40347 H 4031.29 -1.49464 -0.457192 0
M  V30 40348 H 4032.02 -1.27466 -2.98199 0
M  V30 40349 H 4031.81 -2.99174 -2.53451 0
M  V30 40350 H 4033.3 -2.46346 -3.37199 0
M  V30 40351 N 4033.73 0.483463 -1.50001 0
M  V30 40352 C 4034.7 1.56532 -1.67423 0
M  V30 40353 C 4035.7 1.5127 -0.545338 0
M  V30 40354 O 4036.89 1.5411 -0.812139 0
M  V30 40355 C 4034.02 2.96177 -1.68795 0
M  V30 40356 H 4035.21 1.42407 -2.63932 0
M  V30 40357 H 4032.77 0.708967 -1.39296 0
M  V30 40358 H 4033.5 3.1576 -0.73934 0
M  V30 40359 H 4033.29 3.01404 -2.50795 0
M  V30 40360 H 4034.78 3.74745 -1.8427 0
M  V30 40361 N 4035.21 1.39371 0.735772 0
M  V30 40362 C 4036.44 1.40009 1.5301 0
M  V30 40363 C 4036.86 -0.0036507 1.881 0
M  V30 40364 O 4036.22 -0.990443 1.51855 0
M  V30 40365 C 4036.27 2.27879 2.7947 0
M  V30 40366 O 4035.37 1.70814 3.75361 0
M  V30 40367 H 4034.71 0.476814 0.462108 0
M  V30 40368 H 4037.24 1.83356 0.907836 0
M  V30 40369 H 4037.25 2.42364 3.28213 0
M  V30 40370 H 4035.93 3.29895 2.53263 0
M  V30 40371 H 4034.51 1.65568 3.34128 0
M  V30 40372 N 4036.69 -0.965875 1.24534 0
M  V30 40373 C 4037.64 -2.06075 1.03932 0
M  V30 40374 C 4038.61 -1.66031 -0.0479705 0
M  V30 40375 O 4039.79 -1.905 0.107012 0
M  V30 40376 C 4036.93 -3.38882 0.652143 0
M  V30 40377 C 4036.05 -3.9211 1.81311 0
M  V30 40378 C 4035.18 -5.13194 1.37134 0
M  V30 40379 C 4034.22 -5.58623 2.50213 0
M  V30 40380 N 4033.36 -6.70925 2.06891 0
M  V30 40381 H 4038.2 -2.2303 1.9764 0
M  V30 40382 H 4035.73 -1.09309 0.984376 0
M  V30 40383 H 4037.69 -4.15193 0.408681 0
M  V30 40384 H 4036.32 -3.21846 -0.247939 0
M  V30 40385 H 4035.37 -3.12421 2.17019 0
M  V30 40386 H 4036.69 -4.21783 2.66271 0
M  V30 40387 H 4035.84 -5.96885 1.08686 0
M  V30 40388 H 4034.58 -4.85209 0.4923 0
M  V30 40389 H 4033.58 -4.73503 2.79419 0
M  V30 40390 H 4034.81 -5.88621 3.38677 0
M  V30 40391 H 4032.76 -6.44671 1.21388 0
M  V30 40392 H 4032.67 -7.00057 2.85404 0
M  V30 40393 H 4033.94 -7.58054 1.81589 0
M  V30 40394 N 4038.17 -1.05938 -1.16683 0
M  V30 40395 C 4039.42 -0.775094 -1.87404 0
M  V30 40396 C 4039.75 0.696511 -1.8128 0
M  V30 40397 O 4039.02 1.50997 -1.22598 0
M  V30 40398 C 4039.31 -1.26575 -3.37121 0
M  V30 40399 C 4039.16 -2.80085 -3.51956 0
M  V30 40400 C 4040.48 -0.870771 -4.314 0
M  V30 40401 H 4037.6 -0.28304 -0.680483 0
M  V30 40402 H 4040.24 -1.31468 -1.37172 0
M  V30 40403 H 4038.39 -0.80672 -3.80032 0
M  V30 40404 H 4040.06 -3.34168 -3.18008 0
M  V30 40405 H 4038.3 -3.18992 -2.93984 0
M  V30 40406 H 4038.98 -3.09479 -4.57085 0
M  V30 40407 H 4041.45 -1.26607 -3.96371 0
M  V30 40408 H 4040.33 -1.2416 -5.34673 0
M  V30 40409 H 4040.59 0.224615 -4.41529 0
M  V30 40410 N 4039.65 1.33256 -0.841456 0
M  V30 40411 C 4040.59 2.29161 -0.274527 0
M  V30 40412 C 4041.56 1.54449 0.611116 0
M  V30 40413 O 4042.75 1.82736 0.548836 0
M  V30 40414 C 4039.89 3.40814 0.542215 0
M  V30 40415 C 4039 4.30432 -0.36774 0
M  V30 40416 C 4038.14 5.29201 0.460354 0
M  V30 40417 C 4037.18 6.1046 -0.447829 0
M  V30 40418 N 4036.31 7.01265 0.342291 0
M  V30 40419 H 4041.15 2.77047 -1.09767 0
M  V30 40420 H 4038.69 1.36319 -0.552759 0
M  V30 40421 H 4040.65 4.04254 1.03125 0
M  V30 40422 H 4039.28 2.94114 1.3303 0
M  V30 40423 H 4038.33 3.6769 -0.975097 0
M  V30 40424 H 4039.64 4.87292 -1.06529 0
M  V30 40425 H 4038.8 5.98181 1.0131 0
M  V30 40426 H 4037.54 4.72926 1.19133 0
M  V30 40427 H 4036.54 5.40395 -1.01257 0
M  V30 40428 H 4037.77 6.68819 -1.17721 0
M  V30 40429 H 4035.71 6.47435 1.0566 0
M  V30 40430 H 4035.63 7.55418 -0.296489 0
M  V30 40431 H 4036.9 7.74549 0.877195 0
M  V30 40432 N 4041.13 0.598134 1.45809 0
M  V30 40433 C 4042.37 0.0897796 2.02601 0
M  V30 40434 C 4042.7 -1.27279 1.46675 0
M  V30 40435 O 4041.98 -1.83747 0.637767 0
M  V30 40436 C 4042.26 0.0406345 3.60077 0
M  V30 40437 C 4042.12 1.4332 4.26356 0
M  V30 40438 C 4043.43 -0.652087 4.35242 0
M  V30 40439 H 4040.55 0.0340995 0.736211 0
M  V30 40440 H 4043.2 0.768294 1.73774 0
M  V30 40441 H 4041.35 -0.537183 3.84768 0
M  V30 40442 H 4043.02 2.05737 4.1288 0
M  V30 40443 H 4041.26 1.99659 3.85121 0
M  V30 40444 H 4041.93 1.35114 5.35209 0
M  V30 40445 H 4044.41 -0.161055 4.15788 0
M  V30 40446 H 4043.28 -0.65555 5.44971 0
M  V30 40447 H 4043.54 -1.71639 4.07422 0
M  V30 40448 N 4042.6 -1.5396 0.33676 0
M  V30 40449 C 4044.01 -1.86108 -0.148566 0
M  V30 40450 C 4044.37 -1.25815 -1.50549 0
M  V30 40451 O 4043.49 -0.569146 -2.08781 0
M  V30 40452 C 4044.09 -3.37671 -0.276354 0
M  V30 40453 C 4042.64 -3.69721 -0.705908 0
M  V30 40454 C 4041.79 -2.76812 0.164455 0
M  V30 40455 H 4044.74 -1.48619 0.556594 0
M  V30 40456 H 4044.76 -3.64101 -1.10502 0
M  V30 40457 H 4044.28 -3.81525 0.711382 0
M  V30 40458 H 4042.38 -3.31409 -1.70291 0
M  V30 40459 H 4042.49 -4.76478 -0.500507 0
M  V30 40460 H 4040.85 -2.52113 -0.362122 0
M  V30 40461 H 4041.64 -3.23494 1.1492 0
M  V30 40462 N 4044.08 -0.0652232 -1.57465 0
M  V30 40463 C 4045.01 0.94009 -2.07936 0
M  V30 40464 C 4045.99 1.29523 -0.982989 0
M  V30 40465 O 4047.18 1.40567 -1.25592 0
M  V30 40466 C 4044.3 2.2501 -2.53156 0
M  V30 40467 C 4043.35 2.04701 -3.74166 0
M  V30 40468 S 4044.18 1.31241 -5.19169 0
M  V30 40469 C 4045.34 2.63535 -5.67715 0
M  V30 40470 H 4045.57 0.510604 -2.92882 0
M  V30 40471 H 4043.1 0.147386 -1.53695 0
M  V30 40472 H 4045.06 3.00304 -2.79871 0
M  V30 40473 H 4043.72 2.65084 -1.68491 0
M  V30 40474 H 4042.92 3.01634 -4.03773 0
M  V30 40475 H 4042.52 1.37544 -3.4779 0
M  V30 40476 H 4044.81 3.59651 -5.74158 0
M  V30 40477 H 4045.75 2.38546 -6.66709 0
M  V30 40478 H 4046.16 2.70439 -4.95503 0
M  V30 40479 N 4045.56 1.56218 0.208282 0
M  V30 40480 C 4046.51 1.93491 1.25816 0
M  V30 40481 C 4047.48 0.793773 1.45906 0
M  V30 40482 O 4048.66 1.05081 1.59256 0
M  V30 40483 C 4045.8 2.26839 2.60073 0
M  V30 40484 C 4044.91 3.53953 2.47672 0
M  V30 40485 C 4044.05 3.76685 3.74542 0
M  V30 40486 C 4043.09 4.97268 3.56919 0
M  V30 40487 N 4042.23 5.16321 4.7577 0
M  V30 40488 H 4047.07 2.83008 0.933296 0
M  V30 40489 H 4044.6 1.40064 0.449507 0
M  V30 40490 H 4046.56 2.44187 3.38273 0
M  V30 40491 H 4045.19 1.40479 2.90629 0
M  V30 40492 H 4044.24 3.44725 1.60838 0
M  V30 40493 H 4045.55 4.42307 2.30577 0
M  V30 40494 H 4044.71 3.94201 4.61184 0
M  V30 40495 H 4043.45 2.86636 3.94577 0
M  V30 40496 H 4042.45 4.79688 2.68662 0
M  V30 40497 H 4043.68 5.88813 3.38342 0
M  V30 40498 H 4041.62 4.29217 4.96093 0
M  V30 40499 H 4041.54 5.98831 4.61451 0
M  V30 40500 H 4042.81 5.38284 5.638 0
M  V30 40501 N 4047.04 -0.475502 1.50256 0
M  V30 40502 C 4048.28 -1.2279 1.61024 0
M  V30 40503 C 4048.61 -1.92037 0.308541 0
M  V30 40504 O 4047.87 -1.82549 -0.705298 0
M  V30 40505 C 4048.17 -2.2983 2.73702 0
M  V30 40506 C 4047.83 -1.77866 4.14336 0
M  V30 40507 C 4046.49 -1.63415 4.52602 0
M  V30 40508 C 4048.85 -1.39267 5.02249 0
M  V30 40509 C 4046.17 -1.08781 5.76527 0
M  V30 40510 C 4048.53 -0.860759 6.26717 0
M  V30 40511 C 4047.19 -0.702842 6.63789 0
M  V30 40512 H 4046.46 -0.449322 0.589229 0
M  V30 40513 H 4049.11 -0.5246 1.84174 0
M  V30 40514 H 4047.41 -3.06051 2.44622 0
M  V30 40515 H 4049.11 -2.87797 2.79238 0
M  V30 40516 H 4045.7 -1.9008 3.84145 0
M  V30 40517 H 4049.88 -1.49268 4.73321 0
M  V30 40518 H 4045.14 -0.952881 6.03929 0
M  V30 40519 H 4049.31 -0.552987 6.94201 0
M  V30 40520 H 4046.94 -0.277337 7.59694 0
M  V30 40521 N 4048.52 -1.39759 -0.72837 0
M  V30 40522 C 4049.46 -1.39162 -1.86378 0
M  V30 40523 C 4050.46 -0.273835 -1.67172 0
M  V30 40524 O 4051.66 -0.444215 -1.74433 0
M  V30 40525 H 4048.04 -0.434709 -0.613622 0
M  V30 40526 H 4050.01 -2.3492 -1.83997 0
M  V30 40527 C 4048.76 -1.25851 -3.24125 0
M  V30 40528 H 4048.08 -2.11135 -3.39503 0
M  V30 40529 H 4049.52 -1.29491 -4.03743 0
M  V30 40530 C 4047.98 0.0324684 -3.36884 0
M  V30 40531 O 4048.51 1.00019 -3.89049 0
M  V30 40532 N 4046.72 0.0977323 -2.90436 0
M  V30 40533 H 4046.26 -0.690482 -2.48174 0
M  V30 40534 H 4046.22 0.961013 -2.99352 0
M  V30 40535 N 4049.99 0.959257 -1.25044 0
M  V30 40536 C 4051.24 1.69993 -1.09301 0
M  V30 40537 C 4051.56 1.91506 0.367473 0
M  V30 40538 O 4050.83 1.49885 1.26139 0
M  V30 40539 H 4049.41 0.629938 -0.40148 0
M  V30 40540 H 4052.07 1.15356 -1.57096 0
M  V30 40541 H 4051.17 2.68104 -1.5977 0
M  V30 40542 N 4051.47 1.06556 1.16119 0
M  V30 40543 C 4052.89 0.789521 1.38704 0
M  V30 40544 C 4053.09 -0.609942 1.92047 0
M  V30 40545 O 4052.14 -1.37006 2.12098 0
M  V30 40546 C 4053.46 1.85662 2.36538 0
M  V30 40547 C 4055.01 1.88044 2.50217 0
M  V30 40548 C 4055.48 2.93815 3.51336 0
M  V30 40549 N 4056.97 2.92866 3.58865 0
M  V30 40550 C 4057.71 3.71353 4.36903 0
M  V30 40551 N 4057.2 4.59667 5.18342 0
M  V30 40552 N 4059 3.59734 4.31912 0
M  V30 40553 H 4051.15 1.96826 0.79832 0
M  V30 40554 H 4053.41 0.853078 0.413475 0
M  V30 40555 H 4053.12 2.86175 2.04442 0
M  V30 40556 H 4052.99 1.70988 3.36218 0
M  V30 40557 H 4055.38 0.881872 2.81615 0
M  V30 40558 H 4055.46 2.06796 1.50563 0
M  V30 40559 H 4055.1 3.93866 3.20674 0
M  V30 40560 H 4055.03 2.72312 4.50726 0
M  V30 40561 H 4057.52 2.28843 3.00731 0
M  V30 40562 H 4057.84 5.16206 5.7511 0
M  V30 40563 H 4056.18 4.6372 5.17676 0
M  V30 40564 H 4059.37 2.90124 3.6735 0
M  V30 40565 H 4059.54 4.21146 4.92483 0
M  V30 40566 N 4052.95 -1.32808 0.848511 0
M  V30 40567 C 4054.18 -2.02194 0.461775 0
M  V30 40568 C 4054.6 -1.6338 -0.932131 0
M  V30 40569 O 4053.96 -0.831295 -1.61119 0
M  V30 40570 C 4054.01 -3.55551 0.601296 0
M  V30 40571 O 4053.11 -4.10751 -0.368476 0
M  V30 40572 H 4052.45 -0.637303 0.18639 0
M  V30 40573 H 4054.98 -1.69493 1.14601 0
M  V30 40574 H 4054.99 -4.05089 0.486528 0
M  V30 40575 H 4053.67 -3.83145 1.6178 0
M  V30 40576 H 4052.24 -3.72306 -0.210459 0
M  V30 40577 N 4054.43 -0.605858 -1.45489 0
M  V30 40578 C 4055.68 -0.100176 -2.01852 0
M  V30 40579 C 4056 1.27316 -1.47701 0
M  V30 40580 O 4055.27 1.84064 -0.670603 0
M  V30 40581 H 4053.85 -0.0340423 -0.746224 0
M  V30 40582 H 4056.51 -0.786865 -1.7831 0
M  V30 40583 H 4055.61 -0.0486474 -3.12062 0
M  V30 40584 N 4055.91 1.53779 -0.34492 0
M  V30 40585 C 4057.15 2.01234 0.251544 0
M  V30 40586 C 4057.49 1.23232 1.50092 0
M  V30 40587 O 4056.76 0.320316 1.91844 0
M  V30 40588 C 4057.04 3.55651 0.564303 0
M  V30 40589 C 4056.9 4.44363 -0.697264 0
M  V30 40590 C 4058.22 4.18123 1.37336 0
M  V30 40591 H 4055.33 0.73149 0.0899515 0
M  V30 40592 H 4057.98 1.84204 -0.465729 0
M  V30 40593 H 4056.13 3.70294 1.17537 0
M  V30 40594 H 4057.8 4.41554 -1.3352 0
M  V30 40595 H 4056.04 4.13169 -1.32187 0
M  V30 40596 H 4056.71 5.50294 -0.433668 0
M  V30 40597 H 4059.19 4.07187 0.856638 0
M  V30 40598 H 4058.06 5.26237 1.56094 0
M  V30 40599 H 4058.33 3.72834 2.37586 0
M  V30 40600 N 4057.38 0.0735731 1.57428 0
M  V30 40601 C 4058.32 -0.922642 2.09809 0
M  V30 40602 C 4059.33 -1.26024 1.03062 0
M  V30 40603 O 4060.52 -1.21712 1.3057 0
M  V30 40604 C 4057.62 -2.23796 2.54496 0
M  V30 40605 C 4056.79 -2.07894 3.84836 0
M  V30 40606 C 4055.85 -3.22747 4.15597 0
M  V30 40607 O 4054.88 -2.97659 4.85168 0
M  V30 40608 N 4056.08 -4.47894 3.69284 0
M  V30 40609 H 4058.84 -0.475404 2.95905 0
M  V30 40610 H 4056.4 -0.112106 1.61511 0
M  V30 40611 H 4058.4 -2.9954 2.72135 0
M  V30 40612 H 4056.97 -2.60013 1.73528 0
M  V30 40613 H 4056.19 -1.16607 3.76559 0
M  V30 40614 H 4057.47 -1.94522 4.70148 0
M  V30 40615 H 4056.87 -4.71163 3.13085 0
M  V30 40616 H 4055.43 -5.20659 3.9212 0
M  V30 40617 N 4058.86 -1.56326 -0.199995 0
M  V30 40618 C 4059.79 -1.97181 -1.25068 0
M  V30 40619 C 4060.77 -0.843056 -1.47738 0
M  V30 40620 O 4061.96 -1.10702 -1.59558 0
M  V30 40621 C 4059.09 -2.3071 -2.59596 0
M  V30 40622 C 4058.04 -3.46278 -2.51546 0
M  V30 40623 C 4057.37 -3.6547 -3.90302 0
M  V30 40624 C 4058.67 -4.80613 -2.04472 0
M  V30 40625 H 4060.36 -2.85198 -0.911188 0
M  V30 40626 H 4057.91 -1.37213 -0.436875 0
M  V30 40627 H 4059.86 -2.57885 -3.33276 0
M  V30 40628 H 4058.59 -1.39571 -2.95275 0
M  V30 40629 H 4057.24 -3.19186 -1.80322 0
M  V30 40630 H 4056.89 -2.71669 -4.23326 0
M  V30 40631 H 4056.59 -4.43213 -3.85792 0
M  V30 40632 H 4058.12 -3.95016 -4.65612 0
M  V30 40633 H 4059.53 -5.06851 -2.67908 0
M  V30 40634 H 4057.93 -5.61791 -2.10975 0
M  V30 40635 H 4059 -4.74524 -0.997745 0
M  V30 40636 N 4060.34 0.467527 -1.50506 0
M  V30 40637 C 4061.76 0.801575 -1.38011 0
M  V30 40638 C 4061.96 1.9666 -0.438965 0
M  V30 40639 O 4061.01 2.52228 0.117094 0
M  V30 40640 C 4062.33 1.11029 -2.79451 0
M  V30 40641 C 4063.87 1.21654 -2.88391 0
M  V30 40642 C 4064.35 1.55836 -4.30673 0
M  V30 40643 N 4065.84 1.62821 -4.3364 0
M  V30 40644 C 4066.57 1.90782 -5.40731 0
M  V30 40645 N 4066.07 2.16739 -6.58024 0
M  V30 40646 N 4067.86 1.92313 -5.28178 0
M  V30 40647 H 4060.01 -0.300202 -2.10268 0
M  V30 40648 H 4062.28 -0.0718019 -0.945277 0
M  V30 40649 H 4061.98 0.327264 -3.50174 0
M  V30 40650 H 4061.86 2.0456 -3.16915 0
M  V30 40651 H 4064.24 1.99023 -2.17885 0
M  V30 40652 H 4064.33 0.26094 -2.54466 0
M  V30 40653 H 4063.97 0.790052 -5.01718 0
M  V30 40654 H 4063.9 2.52552 -4.62088 0
M  V30 40655 H 4066.39 1.44786 -3.49063 0
M  V30 40656 H 4066.7 2.37358 -7.35446 0
M  V30 40657 H 4065.05 2.14124 -6.61193 0
M  V30 40658 H 4068.24 1.71534 -4.35539 0
M  V30 40659 H 4068.41 2.13769 -6.11725 0
M  V30 40660 N 4061.82 1.40143 0.720948 0
M  V30 40661 C 4063.05 1.41434 1.5101 0
M  V30 40662 C 4063.46 0.0125848 1.88796 0
M  V30 40663 O 4062.82 -0.96219 1.55075 0
M  V30 40664 C 4062.87 2.30015 2.78882 0
M  V30 40665 O 4062.59 3.64733 2.42696 0
M  V30 40666 C 4064.09 2.3984 3.72816 0
M  V30 40667 H 4061.31 0.48259 0.466205 0
M  V30 40668 H 4063.86 1.8413 0.889745 0
M  V30 40669 H 4062.01 1.90695 3.37215 0
M  V30 40670 H 4062.42 4.11723 3.24938 0
M  V30 40671 H 4063.9 3.0604 4.59395 0
M  V30 40672 H 4064.38 1.42181 4.15549 0
M  V30 40673 H 4064.98 2.79689 3.20397 0
M  V30 40674 N 4063.3 -0.952612 1.25551 0
M  V30 40675 C 4064.71 -1.51218 1.09498 0
M  V30 40676 C 4065.06 -1.93429 -0.328605 0
M  V30 40677 O 4064.18 -1.78813 -1.21881 0
M  V30 40678 C 4064.78 -2.74809 1.98155 0
M  V30 40679 C 4063.34 -3.27072 1.86281 0
M  V30 40680 C 4062.48 -1.99901 1.92185 0
M  V30 40681 H 4065.44 -0.769294 1.38808 0
M  V30 40682 H 4065.46 -3.48703 1.52272 0
M  V30 40683 H 4064.97 -2.44057 3.01758 0
M  V30 40684 H 4063.07 -3.62641 0.85569 0
M  V30 40685 H 4063.18 -3.94952 2.71201 0
M  V30 40686 H 4061.55 -2.15291 1.36095 0
M  V30 40687 H 4062.33 -1.71494 2.97397 0
M  V30 40688 N 4064.77 -1.0717 -1.15553 0
M  V30 40689 C 4066.19 -0.796866 -1.38283 0
M  V30 40690 C 4066.39 0.599748 -1.92368 0
M  V30 40691 O 4065.45 1.35879 -2.12822 0
M  V30 40692 C 4066.76 -1.86914 -2.3555 0
M  V30 40693 C 4068.31 -1.89368 -2.49216 0
M  V30 40694 C 4068.78 -2.95674 -3.49772 0
M  V30 40695 N 4070.27 -2.94765 -3.57306 0
M  V30 40696 C 4071.01 -3.73665 -4.34928 0
M  V30 40697 N 4070.5 -4.62409 -5.15897 0
M  V30 40698 N 4072.3 -3.62019 -4.29998 0
M  V30 40699 H 4064.45 -1.97247 -0.787871 0
M  V30 40700 H 4066.71 -0.855259 -0.408945 0
M  V30 40701 H 4066.42 -2.87256 -2.02921 0
M  V30 40702 H 4066.29 -1.72769 -3.35307 0
M  V30 40703 H 4068.68 -0.896794 -2.81143 0
M  V30 40704 H 4068.76 -2.07591 -1.49464 0
M  V30 40705 H 4068.4 -3.95561 -3.18581 0
M  V30 40706 H 4068.33 -2.74698 -4.49275 0
M  V30 40707 H 4070.82 -2.30434 -2.99514 0
M  V30 40708 H 4071.14 -5.19248 -5.72364 0
M  V30 40709 H 4069.48 -4.66459 -5.15209 0
M  V30 40710 H 4072.67 -2.92068 -3.65806 0
M  V30 40711 H 4072.85 -4.23752 -4.90243 0
M  V30 40712 N 4066.25 1.32356 -0.855542 0
M  V30 40713 C 4067.53 1.91861 -0.380609 0
M  V30 40714 C 4067.91 1.77934 1.1359 0
M  V30 40715 O 4067.26 1.178 1.95795 0
M  V30 40716 C 4067.47 3.38592 -0.845962 0
M  V30 40717 C 4068.82 4.15724 -0.863659 0
M  V30 40718 O 4069.84 3.47314 -0.790658 0
M  V30 40719 O 4068.7 5.37881 -0.966752 0
M  V30 40720 H 4065.79 0.819494 -0.111171 0
M  V30 40721 H 4068.34 1.41121 -0.942501 0
M  V30 40722 H 4067.11 3.42676 -1.88915 0
M  V30 40723 H 4066.73 3.96739 -0.26157 0
M  V30 40724 N 4067.73 0.613565 1.45166 0
M  V30 40725 C 4068.66 -0.088963 2.3333 0
M  V30 40726 C 4069.64 -0.852724 1.47182 0
M  V30 40727 O 4070.83 -0.822091 1.75941 0
M  V30 40728 C 4067.96 -1.08295 3.29984 0
M  V30 40729 C 4066.91 -0.43201 4.25814 0
M  V30 40730 C 4066.24 -1.53467 5.12203 0
M  V30 40731 C 4067.54 0.650611 5.18232 0
M  V30 40732 H 4069.23 0.647216 2.92321 0
M  V30 40733 H 4066.78 0.312692 1.40564 0
M  V30 40734 H 4068.73 -1.58303 3.90536 0
M  V30 40735 H 4067.45 -1.8498 2.69165 0
M  V30 40736 H 4066.11 0.0472571 3.6657 0
M  V30 40737 H 4065.76 -2.29195 4.47748 0
M  V30 40738 H 4065.46 -1.10459 5.77124 0
M  V30 40739 H 4066.99 -2.0369 5.75624 0
M  V30 40740 H 4068.4 0.234363 5.72821 0
M  V30 40741 H 4066.8 1.00279 5.91662 0
M  V30 40742 H 4067.87 1.52483 4.60301 0
M  V30 40743 N 4069.21 -1.53594 0.353071 0
M  V30 40744 C 4070.17 -2.23969 -0.486871 0
M  V30 40745 C 4071.17 -1.24317 -1.01989 0
M  V30 40746 O 4072.36 -1.48687 -0.907627 0
M  V30 40747 C 4069.49 -2.96674 -1.67921 0
M  V30 40748 H 4070.69 -2.99623 0.128759 0
M  V30 40749 H 4068.24 -1.5595 0.104561 0
M  V30 40750 H 4068.98 -2.25231 -2.33327 0
M  V30 40751 H 4068.76 -3.69778 -1.3041 0
M  V30 40752 H 4070.25 -3.50207 -2.27474 0
M  V30 40753 N 4070.69 -0.0819208 -1.57387 0
M  V30 40754 C 4071.96 0.626414 -1.85298 0
M  V30 40755 C 4072.34 1.87167 -0.976313 0
M  V30 40756 O 4071.69 2.28455 -0.04524 0
M  V30 40757 C 4071.9 0.954402 -3.35697 0
M  V30 40758 C 4073.25 1.32354 -4.03445 0
M  V30 40759 O 4074.27 1.04582 -3.40501 0
M  V30 40760 O 4073.13 1.84308 -5.14483 0
M  V30 40761 H 4070.23 0.312117 -0.765841 0
M  V30 40762 H 4072.77 -0.11362 -1.69319 0
M  V30 40763 H 4071.55 0.0704159 -3.91237 0
M  V30 40764 H 4071.17 1.75086 -3.56974 0
M  V30 40765 N 4072.17 1.5643 0.191702 0
M  V30 40766 C 4073.1 1.97842 1.2402 0
M  V30 40767 C 4074.08 0.850879 1.47289 0
M  V30 40768 O 4075.26 1.11546 1.58969 0
M  V30 40769 C 4072.39 2.32084 2.58369 0
M  V30 40770 C 4071.35 3.47607 2.49706 0
M  V30 40771 C 4070.67 3.67535 3.88359 0
M  V30 40772 C 4071.97 4.8169 2.0192 0
M  V30 40773 H 4073.67 2.85677 0.89605 0
M  V30 40774 H 4071.21 1.37443 0.429592 0
M  V30 40775 H 4073.16 2.59649 3.31904 0
M  V30 40776 H 4071.89 1.41135 2.94531 0
M  V30 40777 H 4070.55 3.20138 1.78627 0
M  V30 40778 H 4070.2 2.7391 4.21879 0
M  V30 40779 H 4069.9 4.45253 3.83436 0
M  V30 40780 H 4071.42 3.9748 4.63511 0
M  V30 40781 H 4072.83 5.08265 2.65216 0
M  V30 40782 H 4071.23 5.62902 2.07992 0
M  V30 40783 H 4072.3 4.75046 0.972565 0
M  V30 40784 N 4073.64 -0.459538 1.50751 0
M  V30 40785 C 4074.61 -1.53849 1.69892 0
M  V30 40786 C 4075.61 -1.50384 0.569334 0
M  V30 40787 O 4076.8 -1.52799 0.836554 0
M  V30 40788 C 4073.93 -2.93454 1.73486 0
M  V30 40789 H 4075.12 -1.38191 2.66164 0
M  V30 40790 H 4072.67 -0.686716 1.40406 0
M  V30 40791 H 4073.41 -3.14544 0.789481 0
M  V30 40792 H 4073.19 -2.97376 2.55558 0
M  V30 40793 H 4074.68 -3.71766 1.90209 0
M  V30 40794 N 4075.12 -1.40523 -0.713506 0
M  V30 40795 C 4076.08 -1.40702 -1.8093 0
M  V30 40796 C 4077.08 -0.300477 -1.57968 0
M  V30 40797 O 4078.27 -0.559485 -1.64971 0
M  V30 40798 C 4075.41 -1.2008 -3.19051 0
M  V30 40799 H 4076.6 -2.38231 -1.8217 0
M  V30 40800 H 4074.15 -1.26403 -0.919352 0
M  V30 40801 H 4074.89 -0.233194 -3.23461 0
M  V30 40802 H 4074.67 -2.00235 -3.37117 0
M  V30 40803 H 4076.16 -1.22998 -3.99076 0
M  V30 40804 N 4076.6 0.94594 -1.26054 0
M  V30 40805 C 4077.83 1.72356 -1.13916 0
M  V30 40806 C 4078.24 1.86662 0.308852 0
M  V30 40807 O 4077.58 1.37014 1.22364 0
M  V30 40808 C 4077.64 3.15141 -1.72992 0
M  V30 40809 C 4077.31 3.24236 -3.22056 0
M  V30 40810 C 4078.3 3.07878 -4.18935 0
M  V30 40811 C 4075.99 3.47778 -3.6243 0
M  V30 40812 C 4077.98 3.14924 -5.54168 0
M  V30 40813 C 4075.67 3.54459 -4.97797 0
M  V30 40814 C 4076.67 3.38047 -5.93475 0
M  V30 40815 O 4076.36 3.44427 -7.26378 0
M  V30 40816 H 4076.09 0.546615 -0.397729 0
M  V30 40817 H 4078.64 1.19473 -1.67079 0
M  V30 40818 H 4076.87 3.69426 -1.14287 0
M  V30 40819 H 4078.56 3.74796 -1.55828 0
M  V30 40820 H 4079.33 2.89551 -3.89083 0
M  V30 40821 H 4075.21 3.5961 -2.88447 0
M  V30 40822 H 4078.75 3.02031 -6.28827 0
M  V30 40823 H 4074.65 3.72306 -5.27313 0
M  V30 40824 H 4075.41 3.61001 -7.34588 0
M  V30 40825 N 4078.08 1.07781 1.14983 0
M  V30 40826 C 4079.31 0.824878 1.89746 0
M  V30 40827 C 4079.72 -0.622353 1.78248 0
M  V30 40828 O 4079.08 -1.42721 1.13741 0
M  V30 40829 C 4079.13 1.22966 3.39944 0
M  V30 40830 O 4078.85 2.62011 3.51115 0
M  V30 40831 C 4080.35 1.00666 4.31719 0
M  V30 40832 H 4077.57 0.297938 0.601227 0
M  V30 40833 H 4080.11 1.43541 1.45657 0
M  V30 40834 H 4078.27 0.663359 3.81678 0
M  V30 40835 H 4078.68 2.78643 4.44363 0
M  V30 40836 H 4080.16 1.33935 5.35505 0
M  V30 40837 H 4080.63 -0.0567359 4.39163 0
M  V30 40838 H 4081.24 1.55808 3.95732 0
M  V30 40839 N 4079.56 -1.31901 0.862549 0
M  V30 40840 C 4080.52 -2.26985 0.317876 0
M  V30 40841 C 4081.52 -1.51921 -0.526932 0
M  V30 40842 O 4082.71 -1.70903 -0.337306 0
M  V30 40843 C 4079.84 -3.36444 -0.549381 0
M  V30 40844 H 4081.03 -2.76675 1.15719 0
M  V30 40845 H 4078.59 -1.42707 0.637526 0
M  V30 40846 H 4079.32 -2.92034 -1.41019 0
M  V30 40847 H 4079.11 -3.92061 0.0554331 0
M  V30 40848 H 4080.6 -4.07272 -0.922987 0
M  V30 40849 N 4081.03 -0.621255 -1.44838 0
M  V30 40850 C 4081.96 0.0765876 -2.33374 0
M  V30 40851 C 4082.95 0.844906 -1.47632 0
M  V30 40852 O 4084.13 0.812749 -1.76375 0
M  V30 40853 C 4081.26 1.06544 -3.30554 0
M  V30 40854 C 4080.21 0.409421 -4.26037 0
M  V30 40855 C 4079.54 1.50748 -5.1301 0
M  V30 40856 C 4080.84 -0.678085 -5.1788 0
M  V30 40857 H 4082.53 -0.662709 -2.91973 0
M  V30 40858 H 4080.08 -0.320142 -1.40396 0
M  V30 40859 H 4082.03 1.5623 -3.9137 0
M  V30 40860 H 4080.76 1.8355 -2.70142 0
M  V30 40861 H 4079.42 -0.0666965 -3.66539 0
M  V30 40862 H 4079.06 2.26817 -4.48958 0
M  V30 40863 H 4078.76 1.07397 -5.77702 0
M  V30 40864 H 4080.29 2.00634 -5.76696 0
M  V30 40865 H 4081.7 -0.264738 -5.72688 0
M  V30 40866 H 4080.1 -1.03415 -5.91122 0
M  V30 40867 H 4081.17 -1.54922 -4.59486 0
M  V30 40868 N 4082.51 1.53405 -0.361211 0
M  V30 40869 C 4083.46 2.25596 0.48733 0
M  V30 40870 C 4084.43 1.26099 1.08112 0
M  V30 40871 O 4085.61 1.54871 1.11443 0
M  V30 40872 C 4082.75 3.04534 1.62337 0
M  V30 40873 C 4081.87 4.18915 1.05517 0
M  V30 40874 C 4081 4.85303 2.15996 0
M  V30 40875 C 4080.04 5.91724 1.56619 0
M  V30 40876 N 4079.18 6.5182 2.60912 0
M  V30 40877 H 4084.02 2.97695 -0.134801 0
M  V30 40878 H 4081.56 1.46891 -0.0782946 0
M  V30 40879 H 4083.51 3.48572 2.29246 0
M  V30 40880 H 4082.14 2.34699 2.21622 0
M  V30 40881 H 4081.2 3.79394 0.276495 0
M  V30 40882 H 4082.51 4.95404 0.581024 0
M  V30 40883 H 4081.66 5.32502 2.90734 0
M  V30 40884 H 4080.4 4.08277 2.66761 0
M  V30 40885 H 4079.41 5.43891 0.803935 0
M  V30 40886 H 4080.63 6.70668 1.06684 0
M  V30 40887 H 4078.58 5.77649 3.10899 0
M  V30 40888 H 4078.49 7.23835 2.18171 0
M  V30 40889 H 4079.76 7.03669 3.35366 0
M  V30 40890 N 4083.99 0.0902663 1.57341 0
M  V30 40891 C 4085.24 -0.574575 1.94177 0
M  V30 40892 C 4085.57 -1.6849 0.971665 0
M  V30 40893 O 4084.82 -1.95698 -0.00958288 0
M  V30 40894 C 4085.12 -1.17398 3.37568 0
M  V30 40895 C 4084.79 -0.18794 4.50508 0
M  V30 40896 C 4083.45 0.0832768 4.81128 0
M  V30 40897 C 4085.8 0.48561 5.18933 0
M  V30 40898 C 4083.13 1.03482 5.77502 0
M  V30 40899 C 4085.48 1.42559 6.16328 0
M  V30 40900 C 4084.14 1.70509 6.45355 0
M  V30 40901 H 4083.41 -0.210252 0.710546 0
M  V30 40902 H 4086.06 0.165073 1.90787 0
M  V30 40903 H 4084.37 -1.98978 3.37513 0
M  V30 40904 H 4086.06 -1.69601 3.63368 0
M  V30 40905 H 4082.65 -0.409515 4.26639 0
M  V30 40906 H 4086.84 0.289213 4.95457 0
M  V30 40907 H 4082.09 1.25842 5.98309 0
M  V30 40908 H 4086.27 1.95335 6.68444 0
M  V30 40909 H 4083.89 2.444 7.19842 0
M  V30 40910 N 4085.47 -1.56529 -0.183403 0
M  V30 40911 C 4086.7 -1.85158 -0.916524 0
M  V30 40912 C 4087.11 -0.672094 -1.7686 0
M  V30 40913 O 4086.45 0.368268 -1.79971 0
M  V30 40914 C 4086.51 -3.08043 -1.85336 0
M  V30 40915 C 4086.18 -4.41447 -1.18209 0
M  V30 40916 C 4087.17 -5.16947 -0.553354 0
M  V30 40917 C 4084.86 -4.88184 -1.18245 0
M  V30 40918 C 4086.85 -6.37366 0.0660542 0
M  V30 40919 C 4084.54 -6.08536 -0.559209 0
M  V30 40920 C 4085.54 -6.8297 0.0639501 0
M  V30 40921 O 4085.22 -8.01041 0.677392 0
M  V30 40922 H 4084.96 -0.618718 -0.272332 0
M  V30 40923 H 4087.51 -2.045 -0.192049 0
M  V30 40924 H 4085.74 -2.84616 -2.61784 0
M  V30 40925 H 4087.43 -3.2322 -2.45528 0
M  V30 40926 H 4088.2 -4.81927 -0.545134 0
M  V30 40927 H 4084.07 -4.30196 -1.65689 0
M  V30 40928 H 4087.62 -6.95404 0.553057 0
M  V30 40929 H 4083.52 -6.43023 -0.564971 0
M  V30 40930 H 4084.28 -8.16475 0.575448 0
M  V30 40931 N 4086.95 0.451537 -1.50993 0
M  V30 40932 C 4087.88 1.55467 -1.74219 0
M  V30 40933 C 4088.86 1.59481 -0.591596 0
M  V30 40934 O 4090.04 1.75436 -0.832821 0
M  V30 40935 C 4087.17 2.93657 -1.85426 0
M  V30 40936 C 4086.13 3.04507 -3.00765 0
M  V30 40937 C 4085.45 4.44537 -2.97138 0
M  V30 40938 C 4086.75 2.79904 -4.40966 0
M  V30 40939 H 4088.45 1.36283 -2.66585 0
M  V30 40940 H 4085.99 0.654184 -1.28283 0
M  V30 40941 H 4087.95 3.70776 -2.00258 0
M  V30 40942 H 4086.67 3.14041 -0.896976 0
M  V30 40943 H 4085.33 2.29825 -2.85615 0
M  V30 40944 H 4084.98 4.61868 -1.99215 0
M  V30 40945 H 4084.68 4.52729 -3.7458 0
M  V30 40946 H 4086.2 5.23649 -3.14045 0
M  V30 40947 H 4087.61 3.46762 -4.5654 0
M  V30 40948 H 4086.01 2.99521 -5.20007 0
M  V30 40949 H 4087.08 1.7561 -4.51984 0
M  V30 40950 N 4088.42 1.409 0.706044 0
M  V30 40951 C 4089.36 1.37845 1.83116 0
M  V30 40952 C 4090.37 0.282281 1.60334 0
M  V30 40953 O 4091.56 0.543292 1.70031 0
M  V30 40954 C 4088.66 1.12467 3.19694 0
M  V30 40955 C 4087.83 2.33922 3.69593 0
M  V30 40956 C 4086.89 2.04559 4.84811 0
M  V30 40957 O 4085.92 2.77509 4.96968 0
M  V30 40958 N 4087.12 1.0294 5.713 0
M  V30 40959 H 4089.88 2.34814 1.86233 0
M  V30 40960 H 4087.44 1.35377 0.88796 0
M  V30 40961 H 4089.44 0.90793 3.94384 0
M  V30 40962 H 4088.01 0.241313 3.11667 0
M  V30 40963 H 4087.23 2.71365 2.85928 0
M  V30 40964 H 4088.51 3.14869 3.99669 0
M  V30 40965 H 4087.91 0.425413 5.64098 0
M  V30 40966 H 4086.47 0.872559 6.45933 0
M  V30 40967 N 4089.9 -0.939242 1.26554 0
M  V30 40968 C 4091.15 -1.68233 1.11992 0
M  V30 40969 C 4091.47 -1.92067 -0.336959 0
M  V30 40970 O 4090.74 -1.51873 -1.23739 0
M  V30 40971 H 4089.32 -0.623472 0.411451 0
M  V30 40972 H 4091.98 -1.12842 1.58911 0
M  V30 40973 H 4091.08 -2.65528 1.64015 0
M  V30 40974 N 4091.38 -1.08389 -1.14409 0
M  V30 40975 C 4092.79 -0.834509 -1.67011 0
M  V30 40976 C 4093.14 0.638769 -1.85511 0
M  V30 40977 O 4092.27 1.49336 -1.56614 0
M  V30 40978 C 4092.86 -1.5083 -3.03374 0
M  V30 40979 C 4091.42 -1.30616 -3.53011 0
M  V30 40980 C 4090.57 -1.57121 -2.28491 0
M  V30 40981 H 4093.52 -1.2445 -0.984772 0
M  V30 40982 H 4093.54 -0.935416 -3.68823 0
M  V30 40983 H 4093.05 -2.58055 -2.89878 0
M  V30 40984 H 4091.15 -0.254604 -3.71729 0
M  V30 40985 H 4091.27 -2.03367 -4.33796 0
M  V30 40986 H 4089.63 -0.992751 -2.34556 0
M  V30 40987 H 4090.41 -2.65551 -2.17572 0
M  V30 40988 N 4092.86 1.31442 -0.869532 0
M  V30 40989 C 4093.77 2.3229 -0.328393 0
M  V30 40990 C 4094.78 1.64692 0.561462 0
M  V30 40991 O 4095.96 1.96117 0.458281 0
M  V30 40992 C 4093.03 3.43612 0.461673 0
M  V30 40993 C 4092.09 4.2687 -0.45609 0
M  V30 40994 C 4091.32 5.32877 0.296365 0
M  V30 40995 O 4091.54 5.4965 1.52451 0
M  V30 40996 O 4090.48 6.00907 -0.345549 0
M  V30 40997 H 4094.3 2.80496 -1.16429 0
M  V30 40998 H 4091.89 1.35332 -0.632893 0
M  V30 40999 H 4093.77 4.11466 0.909578 0
M  V30 41000 H 4092.44 2.9757 1.27413 0
M  V30 41001 H 4091.35 3.61771 -0.952485 0
M  V30 41002 H 4092.68 4.76477 -1.23413 0
M  V30 41003 N 4094.34 0.628927 1.44507 0
M  V30 41004 C 4095.75 0.215155 1.85456 0
M  V30 41005 C 4096.1 -1.23293 1.52621 0
M  V30 41006 O 4095.22 -1.93781 0.963212 0
M  V30 41007 C 4095.82 0.383705 3.3662 0
M  V30 41008 C 4094.38 0.0244566 3.76392 0
M  V30 41009 C 4093.52 0.698128 2.68368 0
M  V30 41010 H 4096.48 0.834232 1.35005 0
M  V30 41011 H 4096.5 -0.377982 3.78618 0
M  V30 41012 H 4096.01 1.43773 3.60487 0
M  V30 41013 H 4094.11 -1.02792 3.5814 0
M  V30 41014 H 4094.22 0.432982 4.77139 0
M  V30 41015 H 4092.59 0.13365 2.54349 0
M  V30 41016 H 4093.37 1.75471 2.95068 0
M  V30 41017 N 4095.82 -1.53211 0.369342 0
M  V30 41018 C 4096.73 -2.2957 -0.483186 0
M  V30 41019 C 4097.74 -1.35686 -1.08928 0
M  V30 41020 O 4098.92 -1.68745 -1.09941 0
M  V30 41021 C 4095.98 -3.07289 -1.60543 0
M  V30 41022 C 4095.04 -4.16847 -1.02649 0
M  V30 41023 C 4094.28 -4.90851 -2.09525 0
M  V30 41024 O 4094.5 -4.64751 -3.30701 0
M  V30 41025 O 4093.43 -5.7669 -1.72372 0
M  V30 41026 H 4097.26 -3.03385 0.138299 0
M  V30 41027 H 4094.84 -1.48801 0.133615 0
M  V30 41028 H 4096.73 -3.55809 -2.25783 0
M  V30 41029 H 4095.4 -2.36307 -2.21225 0
M  V30 41030 H 4094.31 -3.72571 -0.337898 0
M  V30 41031 H 4095.64 -4.90006 -0.464173 0
M  V30 41032 N 4097.29 -0.0986092 -1.57291 0
M  V30 41033 C 4098.7 0.429977 -1.81681 0
M  V30 41034 C 4099.06 1.67938 -1.01446 0
M  V30 41035 O 4098.18 2.1501 -0.244886 0
M  V30 41036 C 4098.78 0.786861 -3.29536 0
M  V30 41037 C 4097.33 1.26018 -3.54678 0
M  V30 41038 C 4096.48 0.258594 -2.76092 0
M  V30 41039 H 4099.43 -0.324009 -1.55357 0
M  V30 41040 H 4099.45 1.6461 -3.43051 0
M  V30 41041 H 4098.97 -0.122659 -3.87906 0
M  V30 41042 H 4097.07 2.18729 -3.01643 0
M  V30 41043 H 4097.18 1.21958 -4.63317 0
M  V30 41044 H 4095.54 0.741464 -2.43669 0
M  V30 41045 H 4096.33 -0.643667 -3.37212 0
M  V30 41046 N 4098.77 1.56624 0.175099 0
M  V30 41047 C 4100.02 1.8142 0.890573 0
M  V30 41048 C 4100.34 0.67499 1.82945 0
M  V30 41049 O 4099.61 -0.305405 1.93505 0
M  V30 41050 H 4098.19 0.669241 0.331852 0
M  V30 41051 H 4100.85 1.94105 0.175821 0
M  V30 41052 H 4099.95 2.75327 1.46974 0
M  V30 41053 N 4100.25 -0.443523 1.5123 0
M  V30 41054 C 4101.18 -1.55606 1.68284 0
M  V30 41055 C 4102.19 -1.52732 0.563616 0
M  V30 41056 O 4103.38 -1.57621 0.837734 0
M  V30 41057 C 4100.48 -2.94521 1.67663 0
M  V30 41058 C 4099.66 -3.21966 2.96068 0
M  V30 41059 C 4098.72 -4.40573 2.87718 0
M  V30 41060 O 4097.74 -4.39529 3.61666 0
M  V30 41061 N 4098.94 -5.43794 2.03147 0
M  V30 41062 H 4101.71 -1.41384 2.64255 0
M  V30 41063 H 4099.27 -0.632372 1.49039 0
M  V30 41064 H 4101.26 -3.71878 1.59652 0
M  V30 41065 H 4099.83 -3.02371 0.793114 0
M  V30 41066 H 4099.05 -2.32966 3.17995 0
M  V30 41067 H 4100.34 -3.37128 3.8108 0
M  V30 41068 H 4099.74 -5.47476 1.42432 0
M  V30 41069 H 4098.29 -6.20027 2.0102 0
M  V30 41070 N 4101.73 -1.41272 -0.698562 0
M  V30 41071 C 4102.98 -1.40191 -1.45571 0
M  V30 41072 C 4103.3 -0.0108722 -1.94997 0
M  V30 41073 O 4102.57 0.946792 -1.71501 0
M  V30 41074 H 4101.15 -0.516017 -0.540125 0
M  V30 41075 H 4103.81 -1.76484 -0.827017 0
M  V30 41076 H 4102.9 -2.08728 -2.32032 0
M  V30 41077 N 4103.21 0.932517 -1.27051 0
M  V30 41078 C 4104.43 1.71387 -1.15906 0
M  V30 41079 C 4104.85 1.86641 0.284693 0
M  V30 41080 O 4104.21 1.38 1.19425 0
M  V30 41081 C 4104.26 3.11606 -1.83259 0
M  V30 41082 O 4103.98 2.97072 -3.21993 0
M  V30 41083 C 4105.48 4.05915 -1.78179 0
M  V30 41084 H 4102.7 0.536344 -0.403207 0
M  V30 41085 H 4105.24 1.16844 -1.67833 0
M  V30 41086 H 4103.4 3.63024 -1.35249 0
M  V30 41087 H 4103.81 3.85684 -3.55454 0
M  V30 41088 H 4105.29 5.01834 -2.29928 0
M  V30 41089 H 4105.76 4.32747 -0.750112 0
M  V30 41090 H 4106.37 3.60421 -2.25781 0
M  V30 41091 N 4104.68 1.08995 1.13833 0
M  V30 41092 C 4105.59 0.737279 2.22714 0
M  V30 41093 C 4106.61 -0.258838 1.72064 0
M  V30 41094 O 4107.79 -0.101285 2.01145 0
M  V30 41095 C 4104.85 0.158346 3.46338 0
M  V30 41096 C 4103.91 1.20984 4.119 0
M  V30 41097 C 4103.14 0.658442 5.29623 0
M  V30 41098 O 4103.37 -0.520119 5.68024 0
M  V30 41099 O 4102.3 1.41136 5.85119 0
M  V30 41100 H 4106.13 1.64573 2.55244 0
M  V30 41101 H 4103.71 0.864035 1.2188 0
M  V30 41102 H 4105.59 -0.161407 4.21091 0
M  V30 41103 H 4104.27 -0.723179 3.15518 0
M  V30 41104 H 4103.18 1.58222 3.38993 0
M  V30 41105 H 4104.51 2.06386 4.4684 0
M  V30 41106 N 4106.16 -1.30979 0.87649 0
M  V30 41107 C 4107.44 -1.91231 0.411084 0
M  V30 41108 C 4107.82 -1.79719 -1.10745 0
M  V30 41109 O 4107.17 -1.209 -1.93896 0
M  V30 41110 C 4107.38 -3.37203 0.899722 0
M  V30 41111 C 4108.72 -4.14297 0.929688 0
M  V30 41112 O 4109.75 -3.46012 0.845813 0
M  V30 41113 O 4108.61 -5.36275 1.0522 0
M  V30 41114 H 4105.7 -0.817621 0.124194 0
M  V30 41115 H 4108.25 -1.39603 0.964833 0
M  V30 41116 H 4107.02 -3.39627 1.94342 0
M  V30 41117 H 4106.64 -3.96272 0.324654 0
M  V30 41118 N 4107.64 -0.636582 -1.44171 0
M  V30 41119 C 4109.06 -0.302674 -1.56704 0
M  V30 41120 C 4109.26 1.19395 -1.62318 0
M  V30 41121 O 4108.31 1.97821 -1.56917 0
M  V30 41122 C 4109.62 -0.999395 -2.83606 0
M  V30 41123 C 4111.17 -0.978057 -2.97326 0
M  V30 41124 C 4111.65 -1.65535 -4.27039 0
M  V30 41125 N 4113.14 -1.6222 -4.33865 0
M  V30 41126 C 4113.87 -2.11514 -5.32963 0
M  V30 41127 N 4113.37 -2.69024 -6.38434 0
M  V30 41128 N 4115.16 -2.02111 -5.24507 0
M  V30 41129 H 4107.31 -1.60799 -1.38771 0
M  V30 41130 H 4109.58 -0.675281 -0.665357 0
M  V30 41131 H 4109.28 -2.05437 -2.85462 0
M  V30 41132 H 4109.16 -0.540549 -3.73307 0
M  V30 41133 H 4111.54 0.0684547 -2.95021 0
M  V30 41134 H 4111.62 -1.47544 -2.0896 0
M  V30 41135 H 4111.27 -2.70134 -4.30105 0
M  V30 41136 H 4111.2 -1.13275 -5.14273 0
M  V30 41137 H 4113.69 -1.20237 -3.58262 0
M  V30 41138 H 4114 -3.04356 -7.10343 0
M  V30 41139 H 4112.35 -2.73077 -6.39104 0
M  V30 41140 H 4115.54 -1.569 -4.41022 0
M  V30 41141 H 4115.71 -2.40838 -6.01582 0
M  V30 41142 N 4109.12 1.53013 -0.377462 0
M  V30 41143 C 4110.36 2.01424 0.208494 0
M  V30 41144 C 4110.69 1.26435 1.47798 0
M  V30 41145 O 4109.95 0.349694 1.9255 0
M  V30 41146 C 4110.25 3.53379 0.534597 0
M  V30 41147 C 4109.91 4.46307 -0.641954 0
M  V30 41148 C 4108.57 4.7143 -0.964754 0
M  V30 41149 C 4110.93 5.0121 -1.42963 0
M  V30 41150 C 4108.25 5.48706 -2.07699 0
M  V30 41151 C 4110.61 5.79701 -2.53237 0
M  V30 41152 C 4109.27 6.03107 -2.86039 0
M  V30 41153 H 4108.54 0.737062 0.0762934 0
M  V30 41154 H 4111.19 1.84518 -0.512372 0
M  V30 41155 H 4109.49 3.68295 1.33664 0
M  V30 41156 H 4111.19 3.8832 1.00041 0
M  V30 41157 H 4107.78 4.26909 -0.380341 0
M  V30 41158 H 4111.96 4.81736 -1.19349 0
M  V30 41159 H 4107.22 5.65057 -2.33497 0
M  V30 41160 H 4111.39 6.21248 -3.1468 0
M  V30 41161 H 4109.02 6.6277 -3.72344 0
M  V30 41162 N 4110.6 0.106949 1.57237 0
M  V30 41163 C 4111.84 -0.554768 1.95065 0
M  V30 41164 C 4112.18 -1.67093 0.989626 0
M  V30 41165 O 4111.45 -1.94484 0.0247199 0
M  V30 41166 C 4111.73 -1.09881 3.42926 0
M  V30 41167 C 4111.59 0.0131048 4.49798 0
M  V30 41168 C 4112.91 -1.99349 3.92362 0
M  V30 41169 H 4110.02 -0.200191 0.70929 0
M  V30 41170 H 4112.67 0.180065 1.89145 0
M  V30 41171 H 4110.82 -1.72504 3.48101 0
M  V30 41172 H 4112.49 0.647885 4.56728 0
M  V30 41173 H 4110.73 0.677901 4.2847 0
M  V30 41174 H 4111.4 -0.408584 5.50486 0
M  V30 41175 H 4113.88 -1.46615 3.89414 0
M  V30 41176 H 4112.75 -2.34338 4.96364 0
M  V30 41177 H 4113.02 -2.91543 3.32348 0
M  V30 41178 N 4112.07 -1.56715 -0.166791 0
M  V30 41179 C 4113.01 -1.91871 -1.23534 0
M  V30 41180 C 4113.99 -0.782065 -1.42557 0
M  V30 41181 O 4115.17 -1.03581 -1.57491 0
M  V30 41182 C 4112.3 -2.17358 -2.59756 0
M  V30 41183 C 4111.34 -3.40038 -2.57443 0
M  V30 41184 S 4112.18 -4.94258 -2.0608 0
M  V30 41185 C 4113.33 -5.22845 -3.4407 0
M  V30 41186 H 4113.56 -2.82205 -0.935292 0
M  V30 41187 H 4111.1 -1.49863 -0.371556 0
M  V30 41188 H 4113.06 -2.32722 -3.38158 0
M  V30 41189 H 4111.72 -1.27724 -2.86959 0
M  V30 41190 H 4110.91 -3.55085 -3.57674 0
M  V30 41191 H 4110.51 -3.23813 -1.8714 0
M  V30 41192 H 4112.8 -5.15099 -4.4009 0
M  V30 41193 H 4113.75 -6.24436 -3.33894 0
M  V30 41194 H 4114.15 -4.50402 -3.40292 0
M  V30 41195 N 4113.55 0.435497 -1.51463 0
M  V30 41196 C 4114.78 1.20541 -1.6779 0
M  V30 41197 C 4115.19 1.85435 -0.375553 0
M  V30 41198 O 4114.53 1.71587 0.656021 0
M  V30 41199 C 4114.6 2.32961 -2.73805 0
M  V30 41200 C 4114.26 1.8842 -4.1635 0
M  V30 41201 C 4115.26 1.38661 -5.01068 0
M  V30 41202 C 4112.94 1.96055 -4.62458 0
M  V30 41203 C 4114.94 0.971257 -6.29957 0
M  V30 41204 C 4112.62 1.54132 -5.91343 0
M  V30 41205 C 4113.62 1.04749 -6.7492 0
M  V30 41206 O 4113.31 0.634211 -8.01394 0
M  V30 41207 H 4113.04 0.369318 -0.566198 0
M  V30 41208 H 4115.59 0.522034 -1.98655 0
M  V30 41209 H 4113.82 3.04581 -2.38258 0
M  V30 41210 H 4115.51 2.94819 -2.78992 0
M  V30 41211 H 4116.28 1.32155 -4.66648 0
M  V30 41212 H 4112.16 2.33438 -3.97527 0
M  V30 41213 H 4115.7 0.585114 -6.95142 0
M  V30 41214 H 4111.6 1.60308 -6.25277 0
M  V30 41215 H 4112.37 0.759895 -8.14965 0
M  V30 41216 N 4115.03 1.41641 0.69106 0
M  V30 41217 C 4115.96 1.38263 1.81545 0
M  V30 41218 C 4116.94 0.249221 1.60679 0
M  V30 41219 O 4118.13 0.436853 1.83368 0
M  V30 41220 C 4115.25 1.15783 3.18296 0
M  V30 41221 C 4114.3 2.31902 3.57944 0
M  V30 41222 S 4115.13 3.94395 3.62233 0
M  V30 41223 C 4116.29 3.74226 5.01703 0
M  V30 41224 H 4116.52 2.33414 1.84133 0
M  V30 41225 H 4114.05 1.28218 0.860198 0
M  V30 41226 H 4116.01 1.03499 3.97238 0
M  V30 41227 H 4114.67 0.222444 3.13311 0
M  V30 41228 H 4113.87 2.11878 4.573 0
M  V30 41229 H 4113.47 2.40617 2.86321 0
M  V30 41230 H 4115.76 3.3421 5.8933 0
M  V30 41231 H 4116.7 4.73201 5.2677 0
M  V30 41232 H 4117.11 3.07411 4.73454 0
M  V30 41233 N 4116.51 -0.925766 1.27543 0
M  V30 41234 C 4117.76 -1.67036 1.1377 0
M  V30 41235 C 4118.08 -1.92413 -0.316569 0
M  V30 41236 O 4117.35 -1.53177 -1.22121 0
M  V30 41237 H 4115.93 -0.619072 0.418041 0
M  V30 41238 H 4118.59 -1.1115 1.60099 0
M  V30 41239 H 4117.69 -2.63774 1.66822 0
M  V30 41240 N 4117.99 -1.09597 -1.13253 0
M  V30 41241 C 4119.21 -0.855137 -1.8895 0
M  V30 41242 C 4119.64 0.588143 -1.78669 0
M  V30 41243 O 4118.99 1.41339 -1.13547 0
M  V30 41244 C 4119.04 -1.29723 -3.36458 0
M  V30 41245 O 4118.15 -0.456789 -4.09862 0
M  V30 41246 H 4117.49 -0.309557 -0.587427 0
M  V30 41247 H 4120.02 -1.46055 -1.4328 0
M  V30 41248 H 4120.03 -1.2834 -3.87289 0
M  V30 41249 H 4118.7 -2.34832 -3.43259 0
M  V30 41250 H 4117.28 -0.535091 -3.69041 0
M  V30 41251 N 4119.46 1.30512 -0.883424 0
M  V30 41252 C 4120.88 1.48797 -0.577209 0
M  V30 41253 C 4121.08 1.81004 0.88543 0
M  V30 41254 O 4120.14 1.89672 1.66675 0
M  V30 41255 C 4121.45 2.61244 -1.48902 0
M  V30 41256 C 4123 2.75125 -1.49249 0
M  V30 41257 C 4123.47 3.90684 -2.39019 0
M  V30 41258 N 4124.96 3.97992 -2.36974 0
M  V30 41259 C 4125.7 4.86713 -3.03147 0
M  V30 41260 N 4125.19 5.80241 -3.78539 0
M  V30 41261 N 4126.99 4.80069 -2.92386 0
M  V30 41262 H 4119.14 1.07879 -1.82964 0
M  V30 41263 H 4121.4 0.534302 -0.783087 0
M  V30 41264 H 4121.11 2.44262 -2.5304 0
M  V30 41265 H 4120.98 3.57688 -1.19745 0
M  V30 41266 H 4123.37 2.91514 -0.45863 0
M  V30 41267 H 4123.45 1.79307 -1.82436 0
M  V30 41268 H 4123.09 3.75052 -3.42489 0
M  V30 41269 H 4123.02 4.85837 -2.03149 0
M  V30 41270 H 4125.51 3.31085 -1.82185 0
M  V30 41271 H 4125.83 6.44699 -4.26126 0
M  V30 41272 H 4124.17 5.80178 -3.82647 0
M  V30 41273 H 4127.36 4.05982 -2.33015 0
M  V30 41274 H 4127.54 5.49005 -3.44235 0
M  V30 41275 N 4120.94 0.644219 1.43832 0
M  V30 41276 C 4121.87 -0.0914172 2.29018 0
M  V30 41277 C 4122.89 -0.796025 1.42012 0
M  V30 41278 O 4124.08 -0.655284 1.66037 0
M  V30 41279 C 4121.18 -1.15219 3.18713 0
M  V30 41280 C 4120.35 -0.527512 4.34207 0
M  V30 41281 C 4119.41 -1.48397 5.04841 0
M  V30 41282 O 4118.43 -0.996045 5.60417 0
M  V30 41283 N 4119.64 -2.81813 5.07505 0
M  V30 41284 H 4122.4 0.639707 2.92793 0
M  V30 41285 H 4119.96 0.486335 1.54423 0
M  V30 41286 H 4121.95 -1.79265 3.62831 0
M  V30 41287 H 4120.52 -1.78539 2.56598 0
M  V30 41288 H 4119.74 0.291851 3.93118 0
M  V30 41289 H 4121.03 -0.0910496 5.08719 0
M  V30 41290 H 4120.43 -3.24023 4.63709 0
M  V30 41291 H 4118.99 -3.41185 5.5537 0
M  V30 41292 N 4122.42 -1.52811 0.385571 0
M  V30 41293 C 4123.38 -2.24952 -0.439254 0
M  V30 41294 C 4124.38 -1.26453 -0.993293 0
M  V30 41295 O 4125.57 -1.50579 -0.875885 0
M  V30 41296 C 4122.71 -3.00169 -1.6159 0
M  V30 41297 H 4123.9 -2.99283 0.192285 0
M  V30 41298 H 4121.45 -1.55693 0.137616 0
M  V30 41299 H 4122.19 -2.30129 -2.28497 0
M  V30 41300 H 4121.97 -3.72461 -1.22537 0
M  V30 41301 H 4123.46 -3.54954 -2.19995 0
M  V30 41302 N 4123.9 -0.115287 -1.57178 0
M  V30 41303 C 4125.13 0.551435 -1.99416 0
M  V30 41304 C 4125.54 1.6046 -0.99489 0
M  V30 41305 O 4124.9 1.82496 0.0127511 0
M  V30 41306 C 4124.95 1.18093 -3.41667 0
M  V30 41307 O 4124.67 0.169867 -4.37771 0
M  V30 41308 C 4126.17 1.93133 -3.99017 0
M  V30 41309 H 4123.39 0.14629 -0.654859 0
M  V30 41310 H 4125.94 -0.20053 -2.03514 0
M  V30 41311 H 4124.09 1.8837 -3.3852 0
M  V30 41312 H 4124.5 0.626762 -5.20742 0
M  V30 41313 H 4125.98 2.3251 -5.00643 0
M  V30 41314 H 4126.46 2.80509 -3.37952 0
M  V30 41315 H 4127.06 1.27627 -4.05699 0
M  V30 41316 N 4125.38 1.56801 0.158477 0
M  V30 41317 C 4126.63 1.82354 0.871281 0
M  V30 41318 C 4126.95 0.694356 1.82219 0
M  V30 41319 O 4126.22 -0.284864 1.93818 0
M  V30 41320 H 4124.8 0.672723 0.324736 0
M  V30 41321 H 4127.46 1.94281 0.155223 0
M  V30 41322 H 4126.55 2.7687 1.44046 0
M  V30 41323 N 4126.86 -0.427458 1.51692 0
M  V30 41324 C 4128.13 -1.1879 1.55397 0
M  V30 41325 C 4128.51 -2.08598 0.324073 0
M  V30 41326 O 4127.86 -2.17825 -0.690254 0
M  V30 41327 C 4128.07 -1.98116 2.87317 0
M  V30 41328 C 4129.42 -2.54818 3.39637 0
M  V30 41329 O 4130.44 -2.08316 2.88934 0
M  V30 41330 O 4129.3 -3.39656 4.28131 0
M  V30 41331 H 4126.4 -0.541365 0.625182 0
M  V30 41332 H 4128.94 -0.435725 1.64011 0
M  V30 41333 H 4127.71 -1.32215 3.68286 0
M  V30 41334 H 4127.34 -2.80378 2.81911 0
M  V30 41335 N 4128.33 -1.42005 -0.683539 0
M  V30 41336 C 4129.56 -1.45177 -1.46994 0
M  V30 41337 C 4129.97 -0.0589869 -1.89108 0
M  V30 41338 O 4129.31 0.934709 -1.58142 0
M  V30 41339 C 4129.38 -2.30821 -2.75612 0
M  V30 41340 C 4129.04 -3.78818 -2.55628 0
M  V30 41341 C 4130.04 -4.70687 -2.20794 0
M  V30 41342 C 4127.72 -4.22991 -2.70894 0
M  V30 41343 C 4129.72 -6.04718 -2.01481 0
M  V30 41344 C 4127.4 -5.57084 -2.51198 0
M  V30 41345 C 4128.4 -6.47764 -2.16543 0
M  V30 41346 O 4128.09 -7.79381 -1.97029 0
M  V30 41347 H 4127.82 -0.496179 -0.459111 0
M  V30 41348 H 4130.38 -1.87075 -0.848056 0
M  V30 41349 H 4128.61 -1.83757 -3.4025 0
M  V30 41350 H 4130.29 -2.25551 -3.37463 0
M  V30 41351 H 4131.06 -4.37847 -2.08603 0
M  V30 41352 H 4126.94 -3.52707 -2.96848 0
M  V30 41353 H 4130.48 -6.7546 -1.74355 0
M  V30 41354 H 4126.38 -5.895 -2.62982 0
M  V30 41355 H 4127.15 -7.90649 -2.11697 0
M  V30 41356 N 4129.81 0.918989 -1.28033 0
M  V30 41357 C 4130.74 2.02176 -1.05831 0
M  V30 41358 C 4131.72 1.62582 0.0240015 0
M  V30 41359 O 4132.91 1.88099 -0.122887 0
M  V30 41360 C 4130.03 3.33213 -0.607167 0
M  V30 41361 C 4129.08 3.91789 -1.68534 0
M  V30 41362 S 4129.91 4.23291 -3.28002 0
M  V30 41363 C 4131.07 5.57397 -2.8471 0
M  V30 41364 H 4131.3 2.20698 -1.99198 0
M  V30 41365 H 4128.83 1.0632 -1.11962 0
M  V30 41366 H 4130.79 4.08974 -0.35357 0
M  V30 41367 H 4129.45 3.126 0.30658 0
M  V30 41368 H 4128.65 4.86375 -1.32118 0
M  V30 41369 H 4128.25 3.22645 -1.89146 0
M  V30 41370 H 4130.54 6.37064 -2.30555 0
M  V30 41371 H 4131.48 5.9872 -3.78074 0
M  V30 41372 H 4131.89 5.18334 -2.23584 0
M  V30 41373 N 4131.29 1.10196 1.12671 0
M  V30 41374 C 4132.54 0.8412 1.83761 0
M  V30 41375 C 4132.86 -0.635029 1.8437 0
M  V30 41376 O 4132.13 -1.46098 1.30507 0
M  V30 41377 H 4130.71 0.308204 0.680455 0
M  V30 41378 H 4133.37 1.39172 1.36444 0
M  V30 41379 H 4132.47 1.20184 2.88032 0
M  V30 41380 N 4132.77 -1.30042 0.890333 0
M  V30 41381 C 4134.01 -1.96224 0.512243 0
M  V30 41382 C 4134.35 -1.70086 -0.937257 0
M  V30 41383 O 4133.62 -1.00857 -1.66307 0
M  V30 41384 C 4133.9 -3.51235 0.794105 0
M  V30 41385 C 4133.76 -3.86868 2.29462 0
M  V30 41386 C 4135.08 -4.39245 0.274229 0
M  V30 41387 H 4132.2 -0.712729 0.187581 0
M  V30 41388 H 4134.84 -1.53821 1.1153 0
M  V30 41389 H 4132.99 -3.87484 0.280839 0
M  V30 41390 H 4134.66 -3.60615 2.87671 0
M  V30 41391 H 4132.9 -3.34746 2.75913 0
M  V30 41392 H 4133.57 -4.95024 2.44243 0
M  V30 41393 H 4136.05 -4.09935 0.713607 0
M  V30 41394 H 4134.93 -5.46611 0.500729 0
M  V30 41395 H 4135.19 -4.34339 -0.824736 0
M  V30 41396 N 4134.25 -0.651838 -1.43488 0
M  V30 41397 C 4135.47 -0.170719 -2.06696 0
M  V30 41398 C 4135.9 1.15415 -1.48529 0
M  V30 41399 O 4135.25 1.71269 -0.594695 0
M  V30 41400 C 4135.3 -0.0916091 -3.60484 0
M  V30 41401 O 4134.41 0.946573 -4.0139 0
M  V30 41402 H 4133.75 -0.0942392 -0.657278 0
M  V30 41403 H 4136.28 -0.894372 -1.84017 0
M  V30 41404 H 4136.29 0.0921702 -4.07896 0
M  V30 41405 H 4134.96 -1.05877 -4.02197 0
M  V30 41406 H 4133.54 0.735694 -3.65571 0
M  V30 41407 N 4135.72 1.52604 -0.39367 0
M  V30 41408 C 4136.65 2.29493 0.430746 0
M  V30 41409 C 4137.63 1.3306 1.05968 0
M  V30 41410 O 4138.82 1.61957 1.07162 0
M  V30 41411 C 4135.95 3.10496 1.55593 0
M  V30 41412 C 4134.9 4.14849 1.05282 0
M  V30 41413 C 4134.23 4.84104 2.27042 0
M  V30 41414 C 4135.53 5.22167 0.117697 0
M  V30 41415 H 4137.22 2.98657 -0.210794 0
M  V30 41416 H 4134.77 1.43632 -0.10282 0
M  V30 41417 H 4136.72 3.63045 2.13953 0
M  V30 41418 H 4135.45 2.39073 2.22512 0
M  V30 41419 H 4134.11 3.63287 0.491724 0
M  V30 41420 H 4133.75 4.09224 2.9248 0
M  V30 41421 H 4133.45 5.54638 1.94037 0
M  V30 41422 H 4134.98 5.39459 2.86036 0
M  V30 41423 H 4136.39 5.7005 0.609618 0
M  V30 41424 H 4134.79 5.99974 -0.122794 0
M  V30 41425 H 4135.86 4.77706 -0.832137 0
M  V30 41426 N 4137.2 0.12362 1.57114 0
M  V30 41427 C 4138.62 -0.232947 1.57891 0
M  V30 41428 C 4138.82 -1.66383 1.13662 0
M  V30 41429 O 4137.87 -2.38603 0.826126 0
M  V30 41430 C 4139.19 0.00457065 3.007 0
M  V30 41431 C 4140.73 -0.0609685 3.12941 0
M  V30 41432 C 4141.21 0.148915 4.57758 0
M  V30 41433 N 4142.7 0.095042 4.63102 0
M  V30 41434 C 4143.44 0.232278 5.72929 0
M  V30 41435 N 4142.93 0.425942 6.91489 0
M  V30 41436 N 4144.72 0.171526 5.61838 0
M  V30 41437 H 4136.88 1.05817 1.84164 0
M  V30 41438 H 4139.14 0.417053 0.851335 0
M  V30 41439 H 4138.84 0.99396 3.37362 0
M  V30 41440 H 4138.72 -0.725262 3.70162 0
M  V30 41441 H 4141.11 -1.04089 2.76133 0
M  V30 41442 H 4141.19 0.700819 2.46013 0
M  V30 41443 H 4140.83 1.12583 4.95265 0
M  V30 41444 H 4140.76 -0.632914 5.22783 0
M  V30 41445 H 4143.25 -0.0509394 3.77866 0
M  V30 41446 H 4143.56 0.521398 7.71039 0
M  V30 41447 H 4141.91 0.461973 6.93463 0
M  V30 41448 H 4145.1 0.0211581 4.68095 0
M  V30 41449 H 4145.27 0.281921 6.47386 0
M  V30 41450 N 4138.68 -1.56883 -0.15016 0
M  V30 41451 C 4139.96 -1.74086 -0.891811 0
M  V30 41452 C 4140.34 -0.690786 -1.99478 0
M  V30 41453 O 4139.68 0.290837 -2.26642 0
M  V30 41454 C 4139.89 -3.18035 -1.43717 0
M  V30 41455 C 4141.24 -3.79626 -1.90182 0
M  V30 41456 O 4142.27 -3.21445 -1.53465 0
M  V30 41457 O 4141.13 -4.81828 -2.57883 0
M  V30 41458 H 4138.22 -0.711685 -0.421228 0
M  V30 41459 H 4140.77 -1.69151 -0.136332 0
M  V30 41460 H 4139.54 -3.85958 -0.644355 0
M  V30 41461 H 4139.16 -3.27383 -2.25624 0
M  V30 41462 N 4140.16 0.419408 -1.51917 0
M  V30 41463 C 4141.11 1.51032 -1.74522 0
M  V30 41464 C 4142.08 1.55369 -0.587348 0
M  V30 41465 O 4143.26 1.72101 -0.823774 0
M  V30 41466 C 4140.4 2.88582 -1.89247 0
M  V30 41467 C 4139.51 2.93635 -3.16864 0
M  V30 41468 C 4138.65 4.2242 -3.22079 0
M  V30 41469 C 4137.69 4.21408 -4.43939 0
M  V30 41470 N 4136.82 5.41747 -4.46603 0
M  V30 41471 H 4141.66 1.31058 -2.67634 0
M  V30 41472 H 4139.2 0.636345 -1.32624 0
M  V30 41473 H 4141.16 3.68417 -1.95767 0
M  V30 41474 H 4139.79 3.07074 -0.995265 0
M  V30 41475 H 4138.84 2.06353 -3.19566 0
M  V30 41476 H 4140.15 2.88751 -4.06724 0
M  V30 41477 H 4139.31 5.10641 -3.27614 0
M  V30 41478 H 4138.05 4.29985 -2.30139 0
M  V30 41479 H 4137.05 3.31578 -4.38561 0
M  V30 41480 H 4138.28 4.15491 -5.37163 0
M  V30 41481 H 4136.22 5.5 -3.57542 0
M  V30 41482 H 4136.14 5.38816 -5.30296 0
M  V30 41483 H 4137.41 6.3195 -4.56354 0
M  V30 41484 N 4141.64 1.42366 0.675998 0
M  V30 41485 C 4142.58 1.4575 1.78957 0
M  V30 41486 C 4143.55 0.309592 1.63189 0
M  V30 41487 O 4144.74 0.513492 1.8376 0
M  V30 41488 C 4141.88 1.36447 3.1698 0
M  V30 41489 C 4140.99 2.61263 3.44043 0
M  V30 41490 C 4140.13 2.44111 4.71787 0
M  V30 41491 C 4139.17 3.64308 4.9188 0
M  V30 41492 N 4138.3 3.46105 6.10865 0
M  V30 41493 H 4143.14 2.40913 1.75399 0
M  V30 41494 H 4140.68 1.19609 0.856272 0
M  V30 41495 H 4142.64 1.29051 3.96739 0
M  V30 41496 H 4141.27 0.4488 3.19665 0
M  V30 41497 H 4140.32 2.79031 2.58546 0
M  V30 41498 H 4141.63 3.50613 3.54784 0
M  V30 41499 H 4140.79 2.34295 5.59635 0
M  V30 41500 H 4139.52 1.52249 4.63326 0
M  V30 41501 H 4138.53 3.74558 4.02475 0
M  V30 41502 H 4139.75 4.57149 5.02187 0
M  V30 41503 H 4137.7 2.56959 6.03579 0
M  V30 41504 H 4137.62 4.29042 6.22462 0
M  V30 41505 H 4138.89 3.40098 7.01394 0
M  V30 41506 N 4143.11 -0.912187 1.28518 0
M  V30 41507 C 4144.36 -1.66394 1.15935 0
M  V30 41508 C 4144.69 -1.92006 -0.291089 0
M  V30 41509 O 4143.97 -1.52156 -1.21156 0
M  V30 41510 C 4144.25 -3.02087 1.95999 0
M  V30 41511 C 4144.1 -2.83619 3.49114 0
M  V30 41512 C 4145.42 -4.02647 1.77662 0
M  V30 41513 H 4142.54 -0.603852 0.42253 0
M  V30 41514 H 4145.18 -1.05749 1.57852 0
M  V30 41515 H 4143.33 -3.53852 1.60378 0
M  V30 41516 H 4145.01 -2.38852 3.94648 0
M  V30 41517 H 4143.25 -2.18647 3.74668 0
M  V30 41518 H 4143.92 -3.79986 4.00393 0
M  V30 41519 H 4146.4 -3.59948 2.0875 0
M  V30 41520 H 4145.27 -4.95551 2.36051 0
M  V30 41521 H 4145.53 -4.36056 0.728522 0
M  V30 41522 N 4144.59 -1.10792 -1.12085 0
M  V30 41523 C 4145.54 -0.729316 -2.16021 0
M  V30 41524 C 4146.53 0.263333 -1.5873 0
M  V30 41525 O 4147.72 0.0714921 -1.76856 0
M  V30 41526 C 4144.85 -0.166771 -3.42895 0
M  V30 41527 C 4143.93 -1.18668 -4.07159 0
M  V30 41528 N 4144.32 -2.37863 -4.4638 0
M  V30 41529 C 4142.62 -1.02806 -4.3399 0
M  V30 41530 C 4143.32 -3.02855 -4.96642 0
M  V30 41531 N 4142.3 -2.30359 -4.92378 0
M  V30 41532 H 4146.1 -1.63661 -2.44116 0
M  V30 41533 H 4143.62 -0.986178 -1.29028 0
M  V30 41534 H 4145.61 0.122559 -4.1672 0
M  V30 41535 H 4144.27 0.73519 -3.16267 0
M  V30 41536 H 4145.28 -2.75364 -4.38629 0
M  V30 41537 H 4141.96 -0.181964 -4.17103 0
M  V30 41538 H 4143.35 -4.04266 -5.36673 0
M  V30 41539 N 4146.07 1.29568 -0.897217 0
M  V30 41540 C 4147.32 1.96318 -0.532045 0
M  V30 41541 C 4147.67 1.69457 0.911159 0
M  V30 41542 O 4146.96 0.995665 1.63698 0
M  V30 41543 C 4147.16 3.49274 -0.757804 0
M  V30 41544 C 4146.99 3.91004 -2.2214 0
M  V30 41545 C 4145.76 4.15997 -2.86836 0
M  V30 41546 C 4147.96 4.0291 -3.19637 0
M  V30 41547 N 4145.94 4.44277 -4.23664 0
M  V30 41548 C 4147.31 4.35214 -4.41576 0
M  V30 41549 C 4149.36 3.85377 -3.1526 0
M  V30 41550 C 4148.07 4.51811 -5.59696 0
M  V30 41551 C 4150.09 4.03183 -4.32664 0
M  V30 41552 C 4149.45 4.35843 -5.53372 0
M  V30 41553 H 4145.55 0.742877 -0.244249 0
M  V30 41554 H 4148.14 1.56556 -1.15751 0
M  V30 41555 H 4146.31 3.88063 -0.161738 0
M  V30 41556 H 4148.04 4.03111 -0.358314 0
M  V30 41557 H 4144.8 4.09662 -2.37643 0
M  V30 41558 H 4145.22 4.62529 -4.94364 0
M  V30 41559 H 4149.86 3.59192 -2.23027 0
M  V30 41560 H 4147.58 4.76833 -6.52423 0
M  V30 41561 H 4151.17 3.91071 -4.3076 0
M  V30 41562 H 4150.05 4.49334 -6.42704 0
M  V30 41563 N 4147.55 0.659438 1.4314 0
M  V30 41564 C 4148.79 0.175629 2.02038 0
M  V30 41565 C 4149.13 -1.20944 1.51942 0
M  V30 41566 O 4148.4 -1.80876 0.715127 0
M  V30 41567 C 4148.69 0.193319 3.59581 0
M  V30 41568 C 4148.54 1.61274 4.19894 0
M  V30 41569 C 4149.86 -0.466899 4.37616 0
M  V30 41570 H 4146.98 0.065294 0.734102 0
M  V30 41571 H 4149.62 0.841306 1.70359 0
M  V30 41572 H 4147.77 -0.373506 3.867 0
M  V30 41573 H 4149.44 2.23064 4.03783 0
M  V30 41574 H 4147.68 2.15814 3.76307 0
M  V30 41575 H 4148.35 1.57693 5.28996 0
M  V30 41576 H 4150.83 0.0154399 4.16097 0
M  V30 41577 H 4149.71 -0.423819 5.47261 0
M  V30 41578 H 4149.97 -1.54204 4.14335 0
M  V30 41579 N 4149.03 -1.52393 0.401757 0
M  V30 41580 C 4150.26 -2.0585 -0.175878 0
M  V30 41581 C 4150.66 -1.27234 -1.40029 0
M  V30 41582 O 4150.01 -0.315428 -1.80972 0
M  V30 41583 C 4150.07 -3.54485 -0.598404 0
M  V30 41584 C 4149.73 -4.54097 0.514253 0
M  V30 41585 C 4150.73 -5.01373 1.37554 0
M  V30 41586 C 4148.42 -4.9761 0.684841 0
M  V30 41587 C 4150.41 -5.90797 2.39244 0
M  V30 41588 C 4148.1 -5.86831 1.70505 0
M  V30 41589 C 4149.09 -6.33319 2.55726 0
M  V30 41590 O 4148.78 -7.20776 3.56001 0
M  V30 41591 H 4148.51 -0.675453 -0.0271902 0
M  V30 41592 H 4151.07 -1.97357 0.569148 0
M  V30 41593 H 4149.3 -3.60638 -1.3956 0
M  V30 41594 H 4150.99 -3.90623 -1.10312 0
M  V30 41595 H 4151.75 -4.68478 1.25512 0
M  V30 41596 H 4147.63 -4.60989 0.0311954 0
M  V30 41597 H 4151.18 -6.27004 3.05796 0
M  V30 41598 H 4147.07 -6.1914 1.82581 0
M  V30 41599 H 4147.84 -7.38869 3.52158 0
M  V30 41600 N 4150.5 -0.131951 -1.57047 0
M  V30 41601 C 4151.44 0.844137 -2.13089 0
M  V30 41602 C 4152.45 1.22112 -1.07668 0
M  V30 41603 O 4153.64 1.16782 -1.34997 0
M  V30 41604 C 4150.74 2.14197 -2.62627 0
M  V30 41605 C 4149.91 1.93468 -3.92287 0
M  V30 41606 C 4148.97 3.071 -4.27289 0
M  V30 41607 O 4148 2.79447 -4.95881 0
M  V30 41608 N 4149.2 4.3388 -3.85653 0
M  V30 41609 H 4151.96 0.365253 -2.97466 0
M  V30 41610 H 4149.52 0.0520851 -1.61816 0
M  V30 41611 H 4151.52 2.89234 -2.83065 0
M  V30 41612 H 4150.09 2.53394 -1.83058 0
M  V30 41613 H 4149.31 1.02551 -3.80627 0
M  V30 41614 H 4150.59 1.76938 -4.77043 0
M  V30 41615 H 4149.99 4.59218 -3.30356 0
M  V30 41616 H 4148.55 5.05747 -4.11174 0
M  V30 41617 N 4151.98 1.5696 0.141838 0
M  V30 41618 C 4152.91 2.01687 1.17663 0
M  V30 41619 C 4153.89 0.897308 1.44507 0
M  V30 41620 O 4155.08 1.16547 1.5534 0
M  V30 41621 C 4152.21 2.40186 2.50854 0
M  V30 41622 C 4151.16 3.55376 2.38521 0
M  V30 41623 C 4150.49 3.79704 3.76469 0
M  V30 41624 C 4151.79 4.8787 1.86493 0
M  V30 41625 H 4153.48 2.88383 0.804711 0
M  V30 41626 H 4151.03 1.3874 0.385648 0
M  V30 41627 H 4152.98 2.70077 3.23475 0
M  V30 41628 H 4151.71 1.50433 2.89892 0
M  V30 41629 H 4150.36 3.25658 1.68351 0
M  V30 41630 H 4150.01 2.87193 4.12952 0
M  V30 41631 H 4149.71 4.57227 3.69077 0
M  V30 41632 H 4151.24 4.12025 4.50631 0
M  V30 41633 H 4152.65 5.16445 2.48912 0
M  V30 41634 H 4151.05 5.69235 1.89979 0
M  V30 41635 H 4152.12 4.779 0.820941 0
M  V30 41636 N 4153.46 -0.411345 1.52137 0
M  V30 41637 C 4154.71 -1.15621 1.65759 0
M  V30 41638 C 4155.03 -1.91085 0.388805 0
M  V30 41639 O 4154.3 -1.86606 -0.596244 0
M  V30 41640 H 4152.88 -0.429806 0.610963 0
M  V30 41641 H 4155.54 -0.469081 1.89171 0
M  V30 41642 H 4154.64 -1.87151 2.49762 0
M  V30 41643 N 4154.94 -1.42722 -0.668439 0
M  V30 41644 C 4155.85 -1.49112 -1.81115 0
M  V30 41645 C 4156.87 -0.379361 -1.69814 0
M  V30 41646 O 4158.04 -0.631221 -1.91253 0
M  V30 41647 C 4155.11 -1.39719 -3.173 0
M  V30 41648 C 4154.17 -2.6144 -3.40511 0
M  V30 41649 C 4153.4 -2.52485 -4.70199 0
M  V30 41650 O 4153.62 -1.56421 -5.48533 0
M  V30 41651 O 4152.56 -3.42728 -4.94794 0
M  V30 41652 H 4156.38 -2.45575 -1.7868 0
M  V30 41653 H 4153.97 -1.24556 -0.824996 0
M  V30 41654 H 4155.85 -1.36866 -3.98554 0
M  V30 41655 H 4154.53 -0.463841 -3.20359 0
M  V30 41656 H 4153.43 -2.69867 -2.5908 0
M  V30 41657 H 4154.77 -3.53695 -3.42287 0
M  V30 41658 N 4156.42 0.905358 -1.29 0
M  V30 41659 C 4157.38 1.99036 -1.13655 0
M  V30 41660 C 4158.38 1.60631 -0.0736928 0
M  V30 41661 O 4159.57 1.71232 -0.320169 0
M  V30 41662 C 4156.7 3.32843 -0.736773 0
M  V30 41663 H 4157.9 2.14077 -2.10026 0
M  V30 41664 H 4155.45 1.08913 -1.12106 0
M  V30 41665 H 4156.18 3.23502 0.227326 0
M  V30 41666 H 4155.97 3.62081 -1.50465 0
M  V30 41667 H 4157.46 4.12474 -0.652302 0
M  V30 41668 N 4157.9 1.11385 1.11495 0
M  V30 41669 C 4159.14 0.860643 1.82859 0
M  V30 41670 C 4159.46 -0.615438 1.85033 0
M  V30 41671 O 4158.73 -1.44706 1.32049 0
M  V30 41672 H 4157.31 0.315404 0.677148 0
M  V30 41673 H 4159.98 1.40612 1.34961 0
M  V30 41674 H 4159.07 1.23232 2.86741 0
M  V30 41675 N 4159.37 -1.2909 0.904076 0
M  V30 41676 C 4160.78 -1.77458 0.580127 0
M  V30 41677 C 4161.14 -1.74115 -0.904344 0
M  V30 41678 O 4160.26 -1.32978 -1.70721 0
M  V30 41679 C 4160.86 -3.22239 1.0463 0
M  V30 41680 C 4159.41 -3.68368 0.773439 0
M  V30 41681 C 4158.56 -2.49093 1.21852 0
M  V30 41682 H 4161.51 -1.1569 1.08635 0
M  V30 41683 H 4161.53 -3.78563 0.383491 0
M  V30 41684 H 4161.05 -3.2464 2.12674 0
M  V30 41685 H 4159.15 -3.71437 -0.294206 0
M  V30 41686 H 4159.26 -4.58963 1.37439 0
M  V30 41687 H 4157.62 -2.46595 0.637434 0
M  V30 41688 H 4158.41 -2.54219 2.30711 0
M  V30 41689 N 4160.85 -0.66702 -1.42789 0
M  V30 41690 C 4161.81 0.00684416 -2.29199 0
M  V30 41691 C 4162.81 0.73681 -1.42926 0
M  V30 41692 O 4164 0.575982 -1.64402 0
M  V30 41693 C 4161.14 1.0204 -3.2527 0
M  V30 41694 H 4162.33 -0.753622 -2.90277 0
M  V30 41695 H 4159.88 -0.42896 -1.50298 0
M  V30 41696 H 4160.62 1.80963 -2.69115 0
M  V30 41697 H 4160.4 0.500465 -3.88893 0
M  V30 41698 H 4161.89 1.49057 -3.90092 0
M  V30 41699 N 4162.33 1.52178 -0.409833 0
M  V30 41700 C 4163.58 2.0212 0.165968 0
M  V30 41701 C 4163.91 1.29487 1.4473 0
M  V30 41702 O 4163.18 0.401395 1.90313 0
M  V30 41703 C 4163.47 3.57724 0.412952 0
M  V30 41704 C 4163.32 4.41006 -0.885106 0
M  V30 41705 C 4164.64 4.23572 1.19478 0
M  V30 41706 H 4161.76 0.734647 0.0588455 0
M  V30 41707 H 4164.4 1.82063 -0.543437 0
M  V30 41708 H 4162.55 3.74946 1.01725 0
M  V30 41709 H 4164.22 4.35494 -1.52127 0
M  V30 41710 H 4162.46 4.07191 -1.49592 0
M  V30 41711 H 4163.14 5.47959 -0.666676 0
M  V30 41712 H 4165.61 4.10453 0.683166 0
M  V30 41713 H 4164.49 5.32384 1.33634 0
M  V30 41714 H 4164.75 3.82575 2.21559 0
M  V30 41715 N 4163.81 0.140278 1.56974 0
M  V30 41716 C 4164.74 -0.798195 2.19434 0
M  V30 41717 C 4165.72 -1.26194 1.14057 0
M  V30 41718 O 4166.9 -1.32072 1.42375 0
M  V30 41719 C 4164.03 -2.04013 2.81062 0
M  V30 41720 C 4162.99 -1.7134 3.92207 0
M  V30 41721 C 4162.31 -3.02741 4.40741 0
M  V30 41722 C 4163.61 -0.965237 5.13303 0
M  V30 41723 H 4165.31 -0.277664 2.9811 0
M  V30 41724 H 4162.85 -0.132112 1.43393 0
M  V30 41725 H 4164.81 -2.70141 3.23422 0
M  V30 41726 H 4163.53 -2.58427 1.99708 0
M  V30 41727 H 4162.19 -1.07593 3.50456 0
M  V30 41728 H 4161.84 -3.55132 3.56217 0
M  V30 41729 H 4161.54 -2.81645 5.15703 0
M  V30 41730 H 4163.06 -3.69951 4.85766 0
M  V30 41731 H 4164.48 -1.52847 5.52549 0
M  V30 41732 H 4162.87 -0.85447 5.93986 0
M  V30 41733 H 4163.94 0.044254 4.8488 0
M  V30 41734 N 4165.29 -1.57033 -0.133512 0
M  V30 41735 C 4166.51 -1.88622 -0.86236 0
M  V30 41736 C 4166.94 -0.730727 -1.73326 0
M  V30 41737 O 4166.29 0.319265 -1.78467 0
M  V30 41738 C 4166.34 -3.18876 -1.68375 0
M  V30 41739 O 4165.45 -3.0376 -2.78933 0
M  V30 41740 H 4164.79 -0.619349 -0.23938 0
M  V30 41741 H 4167.32 -2.04246 -0.12027 0
M  V30 41742 H 4167.33 -3.51235 -2.076 0
M  V30 41743 H 4166 -4.02575 -1.04433 0
M  V30 41744 H 4164.58 -2.82838 -2.43017 0
M  V30 41745 N 4166.76 0.403271 -1.52353 0
M  V30 41746 C 4168.01 1.1468 -1.65926 0
M  V30 41747 C 4168.33 1.91503 -0.398245 0
M  V30 41748 O 4169.53 2.68327 -0.413872 0
M  V30 41749 C 4167.99 2.08751 -2.93174 0
M  V30 41750 C 4167.6 1.37417 -4.26404 0
M  V30 41751 C 4169.34 2.83327 -3.16111 0
M  V30 41752 C 4167.25 2.30172 -5.44771 0
M  V30 41753 H 4166.18 0.431794 -0.618118 0
M  V30 41754 H 4168.83 0.410761 -1.78844 0
M  V30 41755 H 4167.21 2.85932 -2.73969 0
M  V30 41756 H 4168.38 0.65561 -4.56112 0
M  V30 41757 H 4166.7 0.748596 -4.09616 0
M  V30 41758 H 4169.3 3.52879 -4.01722 0
M  V30 41759 H 4169.64 3.46606 -2.30587 0
M  V30 41760 H 4170.17 2.13244 -3.35815 0
M  V30 41761 H 4166.91 1.7153 -6.32659 0
M  V30 41762 H 4166.43 2.99984 -5.19393 0
M  V30 41763 H 4168.11 2.90569 -5.78082 0
M  V30 41764 N 4168.24 1.43075 0.66086 0
M  V30 41765 C 4169.52 1.34766 1.41766 0
M  V30 41766 C 4169.9 -0.00825009 2.11098 0
M  V30 41767 O 4169.25 -1.02446 2.04248 0
M  V30 41768 C 4169.46 2.52558 2.40864 0
M  V30 41769 C 4170.8 2.95302 3.05093 0
M  V30 41770 O 4171.83 2.52549 2.51192 0
M  V30 41771 O 4170.69 3.69342 4.02801 0
M  V30 41772 H 4167.78 0.532193 0.633008 0
M  V30 41773 H 4170.33 1.5511 0.688411 0
M  V30 41774 H 4169.1 3.42889 1.88527 0
M  V30 41775 H 4168.72 2.34273 3.2125 0
M  V30 41776 N 4169.72 -0.898504 1.29478 0
M  V30 41777 C 4170.63 -2.03573 1.16598 0
M  V30 41778 C 4171.65 -1.73772 0.088959 0
M  V30 41779 O 4172.82 -1.99134 0.301263 0
M  V30 41780 C 4169.89 -3.3625 0.844804 0
M  V30 41781 C 4168.95 -3.79561 2.00579 0
M  V30 41782 C 4168.18 -5.05906 1.69984 0
M  V30 41783 O 4168.4 -5.67006 0.621346 0
M  V30 41784 O 4167.34 -5.45299 2.54819 0
M  V30 41785 H 4171.16 -2.17363 2.12102 0
M  V30 41786 H 4168.75 -1.02235 1.08942 0
M  V30 41787 H 4170.63 -4.15872 0.680302 0
M  V30 41788 H 4169.31 -3.236 -0.0804371 0
M  V30 41789 H 4168.21 -3.007 2.22554 0
M  V30 41790 H 4169.55 -3.96796 2.91228 0
M  V30 41791 N 4171.2 -1.11974 -1.10903 0
M  V30 41792 C 4172.48 -0.783633 -1.79217 0
M  V30 41793 C 4172.86 0.727417 -1.98171 0
M  V30 41794 O 4172.2 1.65939 -1.57087 0
M  V30 41795 C 4172.41 -1.55314 -3.12535 0
M  V30 41796 C 4173.76 -1.73602 -3.87489 0
M  V30 41797 O 4174.79 -1.51786 -3.22242 0
M  V30 41798 O 4173.64 -2.09896 -5.04585 0
M  V30 41799 H 4170.74 -0.284512 -0.776519 0
M  V30 41800 H 4173.28 -1.22349 -1.17596 0
M  V30 41801 H 4172.06 -2.58077 -2.94129 0
M  V30 41802 H 4171.68 -1.10721 -3.81872 0
M  V30 41803 N 4172.68 1.28609 -0.910909 0
M  V30 41804 C 4173.93 1.94379 -0.538504 0
M  V30 41805 C 4174.24 1.72516 0.92182 0
M  V30 41806 O 4175.44 2.32485 1.40225 0
M  V30 41807 C 4173.9 3.48147 -0.912221 0
M  V30 41808 C 4173.51 3.78792 -2.39208 0
M  V30 41809 C 4175.25 4.2009 -0.610265 0
M  V30 41810 C 4173.16 5.25857 -2.70607 0
M  V30 41811 H 4172.09 0.727628 -0.197669 0
M  V30 41812 H 4174.74 1.46163 -1.10944 0
M  V30 41813 H 4173.12 3.95078 -0.270103 0
M  V30 41814 H 4174.3 3.42681 -3.08069 0
M  V30 41815 H 4172.61 3.20015 -2.6642 0
M  V30 41816 H 4175.21 5.28351 -0.821565 0
M  V30 41817 H 4175.55 4.13841 0.45179 0
M  V30 41818 H 4176.08 3.78928 -1.21072 0
M  V30 41819 H 4172.82 5.37181 -3.75655 0
M  V30 41820 H 4172.34 5.63176 -2.0638 0
M  V30 41821 H 4174.02 5.93568 -2.57462 0
M  V30 41822 N 4174.15 0.674583 1.42433 0
M  V30 41823 C 4175.4 0.196368 2.01144 0
M  V30 41824 C 4175.72 -1.20124 1.53607 0
M  V30 41825 O 4174.99 -1.80655 0.757659 0
M  V30 41826 H 4173.57 0.0696068 0.74375 0
M  V30 41827 H 4176.24 0.871043 1.74353 0
M  V30 41828 H 4175.33 0.197481 3.11475 0
M  V30 41829 N 4175.63 -1.51958 0.417898 0
M  V30 41830 C 4176.54 -2.30991 -0.409905 0
M  V30 41831 C 4177.56 -1.39082 -1.04557 0
M  V30 41832 O 4178.73 -1.72157 -1.04517 0
M  V30 41833 C 4175.8 -3.12241 -1.50686 0
M  V30 41834 C 4174.86 -4.19902 -0.89335 0
M  V30 41835 C 4174.09 -4.97269 -1.93803 0
M  V30 41836 O 4174.32 -4.75036 -3.15748 0
M  V30 41837 O 4173.25 -5.81882 -1.53938 0
M  V30 41838 H 4177.08 -3.02791 0.234749 0
M  V30 41839 H 4174.66 -1.48301 0.180887 0
M  V30 41840 H 4176.54 -3.62812 -2.14349 0
M  V30 41841 H 4175.22 -2.43226 -2.13595 0
M  V30 41842 H 4174.13 -3.73457 -0.219196 0
M  V30 41843 H 4175.46 -4.91235 -0.308046 0
M  V30 41844 N 4177.11 -0.1486 -1.56898 0
M  V30 41845 C 4178.04 0.821489 -2.13972 0
M  V30 41846 C 4179.06 1.20964 -1.08957 0
M  V30 41847 O 4180.24 1.15343 -1.36228 0
M  V30 41848 C 4177.34 2.11399 -2.64884 0
M  V30 41849 C 4176.52 1.89296 -3.94317 0
M  V30 41850 C 4175.58 3.0255 -4.30523 0
M  V30 41851 O 4174.6 2.74172 -4.98817 0
M  V30 41852 N 4175.8 4.29765 -3.90234 0
M  V30 41853 H 4178.57 0.333683 -2.97837 0
M  V30 41854 H 4176.13 0.0349194 -1.61862 0
M  V30 41855 H 4178.12 2.86215 -2.86117 0
M  V30 41856 H 4176.69 2.51438 -1.85736 0
M  V30 41857 H 4175.91 0.98508 -3.81693 0
M  V30 41858 H 4177.2 1.71869 -4.78893 0
M  V30 41859 H 4176.6 4.55689 -3.35208 0
M  V30 41860 H 4175.16 5.01357 -4.16515 0
M  V30 41861 N 4178.59 1.57102 0.125182 0
M  V30 41862 C 4179.84 1.84526 0.834053 0
M  V30 41863 C 4180.16 0.732774 1.80168 0
M  V30 41864 O 4179.42 -0.276414 1.93738 0
M  V30 41865 C 4179.72 3.18401 1.62344 0
M  V30 41866 C 4179.38 4.43735 0.800651 0
M  V30 41867 C 4178.05 4.77767 0.573733 0
M  V30 41868 C 4180.4 5.20707 0.226723 0
M  V30 41869 C 4177.73 5.86219 -0.237467 0
M  V30 41870 C 4180.08 6.30012 -0.571634 0
M  V30 41871 C 4178.74 6.6258 -0.808927 0
M  V30 41872 H 4178.01 0.675228 0.305201 0
M  V30 41873 H 4180.66 1.91256 0.0966929 0
M  V30 41874 H 4178.96 3.0722 2.43153 0
M  V30 41875 H 4180.66 3.3684 2.17577 0
M  V30 41876 H 4177.25 4.17066 0.987599 0
M  V30 41877 H 4181.43 4.94771 0.389264 0
M  V30 41878 H 4176.69 6.09882 -0.430595 0
M  V30 41879 H 4180.86 6.8884 -1.02337 0
M  V30 41880 H 4178.49 7.4645 -1.43933 0
M  V30 41881 N 4180.07 -0.395186 1.52565 0
M  V30 41882 C 4181.03 -1.46505 1.76264 0
M  V30 41883 C 4182.03 -1.47834 0.632605 0
M  V30 41884 O 4183.22 -1.49113 0.900608 0
M  V30 41885 C 4180.35 -2.85832 1.85776 0
M  V30 41886 H 4181.54 -1.26777 2.71786 0
M  V30 41887 H 4179.1 -0.626547 1.43192 0
M  V30 41888 H 4179.83 -3.10912 0.922179 0
M  V30 41889 H 4179.62 -2.86269 2.67941 0
M  V30 41890 H 4181.11 -3.63365 2.05806 0
M  V30 41891 N 4181.54 -1.43423 -0.653263 0
M  V30 41892 C 4182.51 -1.48249 -1.748 0
M  V30 41893 C 4183.51 -0.367206 -1.56551 0
M  V30 41894 O 4184.7 -0.628952 -1.62449 0
M  V30 41895 C 4181.83 -1.33504 -3.13671 0
M  V30 41896 H 4183.02 -2.45743 -1.71902 0
M  V30 41897 H 4180.58 -1.30188 -0.864913 0
M  V30 41898 H 4181.31 -0.370175 -3.2218 0
M  V30 41899 H 4181.1 -2.14354 -3.28321 0
M  V30 41900 H 4182.59 -1.39813 -3.935 0
M  V30 41901 N 4183.02 0.891625 -1.29953 0
M  V30 41902 C 4184.27 1.64528 -1.18567 0
M  V30 41903 C 4184.6 1.92445 0.260506 0
M  V30 41904 O 4183.88 1.54064 1.1872 0
M  V30 41905 C 4184.16 2.98931 -2.0078 0
M  V30 41906 C 4184.01 2.78029 -3.53582 0
M  V30 41907 C 4185.33 3.99769 -1.84045 0
M  V30 41908 H 4182.45 0.597053 -0.432084 0
M  V30 41909 H 4185.09 1.03224 -1.59514 0
M  V30 41910 H 4183.24 3.51255 -1.65987 0
M  V30 41911 H 4184.91 2.32543 -3.98398 0
M  V30 41912 H 4183.16 2.12658 -3.78099 0
M  V30 41913 H 4183.83 3.73568 -4.06387 0
M  V30 41914 H 4186.3 3.56582 -2.1445 0
M  V30 41915 H 4185.18 4.91733 -2.43905 0
M  V30 41916 H 4185.44 4.34842 -0.797802 0
M  V30 41917 N 4184.5 1.12561 1.10308 0
M  V30 41918 C 4185.73 0.904933 1.86616 0
M  V30 41919 C 4186.15 -0.540565 1.80165 0
M  V30 41920 O 4185.51 -1.38279 1.17254 0
M  V30 41921 C 4185.56 1.38598 3.32901 0
M  V30 41922 O 4184.66 0.565297 4.08507 0
M  V30 41923 H 4184 0.325023 0.579013 0
M  V30 41924 H 4186.53 1.49803 1.39357 0
M  V30 41925 H 4186.54 1.38563 3.8375 0
M  V30 41926 H 4185.22 2.4385 3.36912 0
M  V30 41927 H 4183.79 0.632747 3.67492 0
M  V30 41928 N 4185.98 -1.28124 0.917717 0
M  V30 41929 C 4186.91 -2.29577 0.426219 0
M  V30 41930 C 4187.89 -1.62329 -0.50826 0
M  V30 41931 O 4189.08 -1.89711 -0.415148 0
M  V30 41932 C 4186.21 -3.4572 -0.330946 0
M  V30 41933 C 4185.16 -4.24893 0.514765 0
M  V30 41934 C 4184.49 -5.33412 -0.370976 0
M  V30 41935 C 4185.79 -4.91247 1.77409 0
M  V30 41936 H 4187.48 -2.70938 1.27408 0
M  V30 41937 H 4185.03 -1.3025 0.614088 0
M  V30 41938 H 4186.98 -4.15784 -0.685657 0
M  V30 41939 H 4185.7 -3.03249 -1.21275 0
M  V30 41940 H 4184.36 -3.56561 0.852048 0
M  V30 41941 H 4184.01 -4.87184 -1.25144 0
M  V30 41942 H 4183.71 -5.87288 0.191313 0
M  V30 41943 H 4185.23 -6.06323 -0.72148 0
M  V30 41944 H 4186.65 -5.53652 1.48804 0
M  V30 41945 H 4185.04 -5.55137 2.27909 0
M  V30 41946 H 4186.11 -4.15512 2.49955 0
M  V30 41947 N 4187.46 -0.682127 -1.42073 0
M  V30 41948 C 4188.73 -0.136068 -1.95126 0
M  V30 41949 C 4189.11 1.35085 -1.6222 0
M  V30 41950 O 4188.46 2.09066 -0.92216 0
M  V30 41951 C 4188.67 -0.413015 -3.46548 0
M  V30 41952 C 4190.02 -0.333479 -4.23288 0
M  V30 41953 O 4191.04 -0.347172 -3.54504 0
M  V30 41954 O 4189.9 -0.28198 -5.45772 0
M  V30 41955 H 4187 -0.007129 -0.826969 0
M  V30 41956 H 4189.54 -0.757362 -1.51862 0
M  V30 41957 H 4188.32 -1.44276 -3.63731 0
M  V30 41958 H 4187.94 0.239923 -3.96875 0
M  V30 41959 N 4188.94 1.51735 -0.425951 0
M  V30 41960 C 4190.35 1.59411 -0.0776574 0
M  V30 41961 C 4190.55 1.43769 1.41183 0
M  V30 41962 O 4189.61 1.27314 2.18053 0
M  V30 41963 C 4190.92 2.94903 -0.587602 0
M  V30 41964 C 4192.47 3.08182 -0.547044 0
M  V30 41965 C 4192.94 4.46181 -1.03377 0
M  V30 41966 N 4194.43 4.52468 -0.991288 0
M  V30 41967 C 4195.17 5.57549 -1.3389 0
M  V30 41968 N 4194.67 6.70103 -1.75879 0
M  V30 41969 N 4196.46 5.47847 -1.25779 0
M  V30 41970 H 4188.61 1.60148 -1.39522 0
M  V30 41971 H 4190.87 0.754299 -0.574227 0
M  V30 41972 H 4190.58 3.11683 -1.62931 0
M  V30 41973 H 4190.45 3.77199 -0.0063247 0
M  V30 41974 H 4192.84 2.91076 0.48565 0
M  V30 41975 H 4192.92 2.27752 -1.16458 0
M  V30 41976 H 4192.56 4.64032 -2.06488 0
M  V30 41977 H 4192.49 5.25132 -0.392882 0
M  V30 41978 H 4194.99 3.71681 -0.682786 0
M  V30 41979 H 4195.3 7.46292 -2.0067 0
M  V30 41980 H 4193.64 6.71341 -1.79797 0
M  V30 41981 H 4196.83 4.58799 -0.928488 0
M  V30 41982 H 4197.01 6.2963 -1.53198 0
M  V30 41983 N 4190.41 0.156919 1.56817 0
M  V30 41984 C 4191.64 -0.49837 2.00808 0
M  V30 41985 C 4192.06 -1.57766 1.03708 0
M  V30 41986 O 4191.41 -1.82465 0.0356389 0
M  V30 41987 C 4191.46 -1.08993 3.44678 0
M  V30 41988 O 4191.19 -0.05374 4.38067 0
M  V30 41989 C 4192.69 -1.82486 4.03997 0
M  V30 41990 H 4189.91 -0.128876 0.658507 0
M  V30 41991 H 4192.45 0.254418 2.02911 0
M  V30 41992 H 4190.61 -1.79328 3.43395 0
M  V30 41993 H 4191.02 -0.488476 5.2222 0
M  V30 41994 H 4192.49 -2.19155 5.06631 0
M  V30 41995 H 4192.97 -2.7145 3.4527 0
M  V30 41996 H 4193.58 -1.16826 4.0894 0
M  V30 41997 N 4191.89 -1.57166 -0.116849 0
M  V30 41998 C 4192.82 -2.03533 -1.1444 0
M  V30 41999 C 4193.8 -0.920184 -1.43062 0
M  V30 42000 O 4194.99 -1.19004 -1.53466 0
M  V30 42001 C 4192.12 -2.44147 -2.47001 0
M  V30 42002 C 4191.07 -3.59125 -2.32837 0
M  V30 42003 C 4190.4 -3.85645 -3.70381 0
M  V30 42004 C 4191.7 -4.90776 -1.78708 0
M  V30 42005 H 4193.39 -2.89627 -0.75873 0
M  V30 42006 H 4190.94 -1.39336 -0.363527 0
M  V30 42007 H 4192.89 -2.75189 -3.19138 0
M  V30 42008 H 4191.61 -1.55026 -2.87462 0
M  V30 42009 H 4190.27 -3.28296 -1.63149 0
M  V30 42010 H 4189.92 -2.93727 -4.0833 0
M  V30 42011 H 4189.62 -4.6304 -3.61756 0
M  V30 42012 H 4191.15 -4.19142 -4.44019 0
M  V30 42013 H 4192.56 -5.2034 -2.40664 0
M  V30 42014 H 4190.96 -5.72185 -1.80899 0
M  V30 42015 H 4192.03 -4.79146 -0.744807 0
M  V30 42016 N 4193.37 0.38709 -1.52772 0
M  V30 42017 C 4194.3 1.49253 -1.73943 0
M  V30 42018 C 4195.31 1.50535 -0.619913 0
M  V30 42019 O 4196.5 1.54403 -0.895657 0
M  V30 42020 C 4193.6 2.88095 -1.78478 0
M  V30 42021 C 4192.78 3.10756 -3.07814 0
M  V30 42022 C 4191.84 4.29591 -3.03871 0
M  V30 42023 O 4190.86 4.25803 -3.7773 0
M  V30 42024 N 4192.06 5.35879 -2.23189 0
M  V30 42025 H 4194.83 1.31479 -2.6932 0
M  V30 42026 H 4192.39 0.576622 -1.51283 0
M  V30 42027 H 4194.38 3.65696 -1.73344 0
M  V30 42028 H 4192.95 2.99219 -0.90479 0
M  V30 42029 H 4192.17 2.21003 -3.26422 0
M  V30 42030 H 4193.46 3.22752 -3.9333 0
M  V30 42031 H 4192.86 5.41812 -1.62653 0
M  V30 42032 H 4191.41 6.1214 -2.23894 0
M  V30 42033 N 4194.85 1.43768 0.645648 0
M  V30 42034 C 4196.09 1.45785 1.40545 0
M  V30 42035 C 4196.42 0.0849663 1.94314 0
M  V30 42036 O 4195.68 -0.91116 1.73195 0
M  V30 42037 C 4195.98 2.45364 2.59868 0
M  V30 42038 C 4195.64 3.91053 2.24473 0
M  V30 42039 C 4194.3 4.30731 2.14532 0
M  V30 42040 C 4196.66 4.82832 1.96272 0
M  V30 42041 C 4193.98 5.60131 1.74557 0
M  V30 42042 C 4196.34 6.12604 1.57793 0
M  V30 42043 C 4195 6.51251 1.46383 0
M  V30 42044 H 4194.27 0.533467 0.51429 0
M  V30 42045 H 4196.92 1.76894 0.733544 0
M  V30 42046 H 4195.22 2.07686 3.32225 0
M  V30 42047 H 4196.92 2.44177 3.18086 0
M  V30 42048 H 4193.51 3.59655 2.33123 0
M  V30 42049 H 4197.69 4.52944 2.02869 0
M  V30 42050 H 4192.95 5.88906 1.64315 0
M  V30 42051 H 4197.12 6.83188 1.35006 0
M  V30 42052 H 4194.75 7.51424 1.1518 0
M  V30 42053 N 4196.33 -0.884721 1.30424 0
M  V30 42054 C 4197.57 -1.63332 1.19026 0
M  V30 42055 C 4197.89 -1.93323 -0.255194 0
M  V30 42056 O 4197.16 -1.56985 -1.17186 0
M  V30 42057 H 4195.74 -0.605459 0.437525 0
M  V30 42058 H 4198.41 -1.06 1.63554 0
M  V30 42059 H 4197.5 -2.58333 1.7513 0
M  V30 42060 N 4197.8 -1.13144 -1.09709 0
M  V30 42061 C 4198.75 -0.774973 -2.14425 0
M  V30 42062 C 4199.74 0.229605 -1.59253 0
M  V30 42063 O 4200.93 0.0339624 -1.76967 0
M  V30 42064 C 4198.06 -0.239467 -3.42464 0
M  V30 42065 C 4197.14 -1.27278 -4.04551 0
M  V30 42066 N 4197.54 -2.47278 -4.41234 0
M  V30 42067 C 4195.83 -1.11988 -4.31711 0
M  V30 42068 C 4196.53 -3.13321 -4.90107 0
M  V30 42069 N 4195.51 -2.40751 -4.87381 0
M  V30 42070 H 4199.31 -1.68802 -2.40589 0
M  V30 42071 H 4196.83 -1.01333 -1.26907 0
M  V30 42072 H 4198.82 0.0341394 -4.16886 0
M  V30 42073 H 4197.48 0.66794 -3.17756 0
M  V30 42074 H 4198.49 -2.84606 -4.32689 0
M  V30 42075 H 4195.17 -0.270397 -4.16623 0
M  V30 42076 H 4196.56 -4.15559 -5.27978 0
M  V30 42077 N 4199.28 1.27635 -0.924498 0
M  V30 42078 C 4200.22 2.25254 -0.365518 0
M  V30 42079 C 4201.19 1.535 0.536318 0
M  V30 42080 O 4202.38 1.82351 0.477548 0
M  V30 42081 C 4199.5 3.35332 0.476431 0
M  V30 42082 C 4198.55 4.24965 -0.361525 0
M  V30 42083 S 4199.38 5.05225 -1.77505 0
M  V30 42084 C 4200.54 6.1879 -0.940701 0
M  V30 42085 H 4200.77 2.72319 -1.19288 0
M  V30 42086 H 4198.31 1.36242 -0.726466 0
M  V30 42087 H 4200.26 3.99204 0.95635 0
M  V30 42088 H 4198.92 2.86912 1.27829 0
M  V30 42089 H 4198.12 5.03206 0.28276 0
M  V30 42090 H 4197.72 3.65872 -0.775497 0
M  V30 42091 H 4200.01 6.77273 -0.175232 0
M  V30 42092 H 4200.95 6.87489 -1.69601 0
M  V30 42093 H 4201.36 5.6242 -0.484126 0
M  V30 42094 N 4200.76 0.689652 1.41709 0
M  V30 42095 C 4201.99 0.225461 2.06171 0
M  V30 42096 C 4202.41 -1.11437 1.51537 0
M  V30 42097 O 4201.77 -1.69632 0.639895 0
M  V30 42098 C 4201.82 0.187153 3.60114 0
M  V30 42099 O 4200.92 -0.839819 4.03758 0
M  V30 42100 H 4200.26 0.111633 0.654549 0
M  V30 42101 H 4202.79 0.942846 1.81581 0
M  V30 42102 H 4202.8 0.0160086 4.07997 0
M  V30 42103 H 4201.48 1.16504 3.99249 0
M  V30 42104 H 4200.05 -0.638511 3.67393 0
M  V30 42105 N 4202.24 -1.51507 0.433991 0
M  V30 42106 C 4203.48 -2.02358 -0.133791 0
M  V30 42107 C 4203.82 -1.31773 -1.42652 0
M  V30 42108 O 4203.09 -0.431622 -1.8965 0
M  V30 42109 C 4203.38 -3.58336 -0.355989 0
M  V30 42110 C 4203.23 -4.39542 0.955154 0
M  V30 42111 C 4204.55 -4.25419 -1.12724 0
M  V30 42112 H 4201.67 -0.73549 -0.0471505 0
M  V30 42113 H 4204.31 -1.81175 0.572333 0
M  V30 42114 H 4202.46 -3.76516 -0.957475 0
M  V30 42115 H 4204.13 -4.33019 1.59036 0
M  V30 42116 H 4202.37 -4.0476 1.56051 0
M  V30 42117 H 4203.04 -5.46829 0.753767 0
M  V30 42118 H 4205.52 -4.11488 -0.61778 0
M  V30 42119 H 4204.4 -5.34443 -1.25148 0
M  V30 42120 H 4204.66 -3.86052 -2.15445 0
M  V30 42121 N 4203.72 -0.165233 -1.56731 0
M  V30 42122 C 4204.94 0.487713 -2.0107 0
M  V30 42123 C 4205.36 1.57214 -1.04544 0
M  V30 42124 O 4204.72 1.82444 -0.045315 0
M  V30 42125 C 4204.77 1.07163 -3.45251 0
M  V30 42126 O 4204.49 0.0305075 -4.38089 0
M  V30 42127 C 4205.99 1.80341 -4.04959 0
M  V30 42128 H 4203.21 0.125382 -0.659182 0
M  V30 42129 H 4205.75 -0.265176 -2.02773 0
M  V30 42130 H 4203.91 1.77505 -3.44341 0
M  V30 42131 H 4204.32 0.460775 -5.22472 0
M  V30 42132 H 4205.8 2.16465 -5.07786 0
M  V30 42133 H 4206.27 2.69615 -3.46705 0
M  V30 42134 H 4206.88 1.14655 -4.09554 0
M  V30 42135 N 4205.19 1.57226 0.108512 0
M  V30 42136 C 4206.44 1.85675 0.815641 0
M  V30 42137 C 4206.77 0.752473 1.79029 0
M  V30 42138 O 4206.05 -0.240777 1.93004 0
M  V30 42139 C 4206.33 3.24734 1.55628 0
M  V30 42140 C 4206.18 4.45773 0.600517 0
M  V30 42141 C 4207.5 3.61505 2.51002 0
M  V30 42142 H 4204.62 0.675356 0.295064 0
M  V30 42143 H 4207.26 1.89833 0.0796006 0
M  V30 42144 H 4205.41 3.2132 2.18371 0
M  V30 42145 H 4207.09 4.61296 -0.0188794 0
M  V30 42146 H 4205.33 4.33712 -0.0871561 0
M  V30 42147 H 4206 5.39768 1.1556 0
M  V30 42148 H 4208.48 3.65777 1.98359 0
M  V30 42149 H 4207.35 4.59763 2.99849 0
M  V30 42150 H 4207.61 2.89477 3.34149 0
M  V30 42151 N 4206.67 -0.378982 1.52975 0
M  V30 42152 C 4207.58 -1.48761 1.81404 0
M  V30 42153 C 4208.6 -1.59234 0.701463 0
M  V30 42154 O 4209.77 -1.75381 0.990116 0
M  V30 42155 C 4206.84 -2.84183 1.98598 0
M  V30 42156 C 4205.9 -2.83348 3.22509 0
M  V30 42157 C 4205.13 -4.12311 3.38873 0
M  V30 42158 O 4205.36 -5.07787 2.59823 0
M  V30 42159 O 4204.29 -4.18939 4.32173 0
M  V30 42160 H 4208.12 -1.27666 2.75563 0
M  V30 42161 H 4205.7 -0.567796 1.3819 0
M  V30 42162 H 4207.58 -3.64448 2.11556 0
M  V30 42163 H 4206.26 -3.05283 1.07628 0
M  V30 42164 H 4205.17 -2.01829 3.14985 0
M  V30 42165 H 4206.5 -2.67201 4.13358 0
M  V30 42166 N 4208.15 -1.44108 -0.638015 0
M  V30 42167 C 4209.57 -1.27843 -0.95542 0
M  V30 42168 C 4209.77 -0.209186 -2.00411 0
M  V30 42169 O 4208.82 0.407259 -2.49194 0
M  V30 42170 C 4210.14 -2.64779 -1.42523 0
M  V30 42171 C 4211.68 -2.72433 -1.54107 0
M  V30 42172 C 4212.16 -4.09822 -2.04474 0
M  V30 42173 N 4213.65 -4.11964 -2.11755 0
M  V30 42174 C 4214.38 -5.15115 -2.51882 0
M  V30 42175 N 4213.88 -6.28631 -2.91196 0
M  V30 42176 N 4215.67 -5.02469 -2.51955 0
M  V30 42177 H 4207.82 -2.12327 0.0556537 0
M  V30 42178 H 4210.09 -0.947249 -0.0377154 0
M  V30 42179 H 4209.79 -3.44062 -0.729007 0
M  V30 42180 H 4209.67 -2.91203 -2.39751 0
M  V30 42181 H 4212.05 -1.93473 -2.22828 0
M  V30 42182 H 4212.14 -2.49757 -0.552725 0
M  V30 42183 H 4211.78 -4.89255 -1.36351 0
M  V30 42184 H 4211.71 -4.29871 -3.04168 0
M  V30 42185 H 4214.2 -3.30032 -1.84085 0
M  V30 42186 H 4214.51 -7.03157 -3.20608 0
M  V30 42187 H 4212.86 -6.3208 -2.88964 0
M  V30 42188 H 4216.05 -4.12845 -2.20628 0
M  V30 42189 H 4216.22 -5.82983 -2.82904 0
M  V30 42190 N 4209.63 0.877792 -1.30891 0
M  V30 42191 C 4210.56 1.99011 -1.13698 0
M  V30 42192 C 4211.57 1.62612 -0.0782083 0
M  V30 42193 O 4212.76 1.75518 -0.324937 0
M  V30 42194 C 4209.86 3.31309 -0.71329 0
M  V30 42195 C 4209.04 3.96099 -1.85537 0
M  V30 42196 C 4208.09 5.06705 -1.41904 0
M  V30 42197 O 4207.12 5.27948 -2.12743 0
M  V30 42198 N 4208.32 5.79714 -0.30206 0
M  V30 42199 H 4211.09 2.14309 -2.09503 0
M  V30 42200 H 4208.65 1.05131 -1.23122 0
M  V30 42201 H 4210.64 4.02676 -0.404259 0
M  V30 42202 H 4209.21 3.12226 0.152932 0
M  V30 42203 H 4208.43 3.17813 -2.33214 0
M  V30 42204 H 4209.72 4.36125 -2.62054 0
M  V30 42205 H 4209.12 5.64966 0.288054 0
M  V30 42206 H 4207.67 6.51779 -0.0525213 0
M  V30 42207 N 4211.11 1.13725 1.09108 0
M  V30 42208 C 4212.04 0.761263 2.15128 0
M  V30 42209 C 4213.02 -0.254051 1.60603 0
M  V30 42210 O 4214.2 -0.144787 1.87943 0
M  V30 42211 C 4211.33 0.129062 3.38454 0
M  V30 42212 C 4210.37 1.1134 4.11711 0
M  V30 42213 S 4211.21 2.64737 4.65483 0
M  V30 42214 C 4212.36 2.02886 5.92105 0
M  V30 42215 H 4212.6 1.65928 2.46688 0
M  V30 42216 H 4210.13 0.95773 1.21107 0
M  V30 42217 H 4212.09 -0.229291 4.09859 0
M  V30 42218 H 4210.75 -0.746275 3.05106 0
M  V30 42219 H 4209.94 0.61893 5.00185 0
M  V30 42220 H 4209.54 1.41538 3.46184 0
M  V30 42221 H 4211.84 1.37993 6.63298 0
M  V30 42222 H 4212.78 2.89455 6.46236 0
M  V30 42223 H 4213.19 1.4791 5.44778 0
M  V30 42224 N 4212.58 -1.27143 0.931254 0
M  V30 42225 C 4213.83 -1.93497 0.56936 0
M  V30 42226 C 4214.15 -1.73961 -0.894257 0
M  V30 42227 O 4215.35 -2.34686 -1.36509 0
M  V30 42228 C 4213.81 -3.46652 0.967493 0
M  V30 42229 C 4213.42 -3.74939 2.45204 0
M  V30 42230 C 4215.16 -4.19066 0.677021 0
M  V30 42231 C 4213.07 -5.21485 2.78939 0
M  V30 42232 H 4212 -0.724391 0.20922 0
M  V30 42233 H 4214.65 -1.4438 1.13255 0
M  V30 42234 H 4213.03 -3.94598 0.332922 0
M  V30 42235 H 4214.2 -3.37736 3.13482 0
M  V30 42236 H 4212.52 -3.15736 2.71477 0
M  V30 42237 H 4215.12 -5.26977 0.905517 0
M  V30 42238 H 4215.46 -4.14508 -0.385894 0
M  V30 42239 H 4215.99 -3.76954 1.27085 0
M  V30 42240 H 4212.73 -5.31137 3.84153 0
M  V30 42241 H 4212.25 -5.59821 2.15314 0
M  V30 42242 H 4213.93 -5.89397 2.66872 0
M  V30 42243 N 4214.06 -0.697157 -1.41342 0
M  V30 42244 C 4215 0.0063558 -2.29199 0
M  V30 42245 C 4216.01 0.74277 -1.44868 0
M  V30 42246 O 4217.2 0.593209 -1.68355 0
M  V30 42247 C 4214.3 1.03311 -3.22769 0
M  V30 42248 C 4213.47 0.365995 -4.35866 0
M  V30 42249 C 4212.53 1.29558 -5.10001 0
M  V30 42250 O 4211.56 0.787363 -5.63728 0
M  V30 42251 N 4212.76 2.62783 -5.17615 0
M  V30 42252 H 4215.52 -0.747935 -2.90217 0
M  V30 42253 H 4213.08 -0.543313 -1.52511 0
M  V30 42254 H 4215.08 1.65676 -3.69234 0
M  V30 42255 H 4213.65 1.68892 -2.63048 0
M  V30 42256 H 4212.87 -0.437553 -3.91764 0
M  V30 42257 H 4214.15 -0.0978207 -5.08706 0
M  V30 42258 H 4213.55 3.06589 -4.75415 0
M  V30 42259 H 4212.11 3.20338 -5.6765 0
M  V30 42260 N 4215.54 1.51274 -0.44202 0
M  V30 42261 C 4216.45 2.31614 0.373104 0
M  V30 42262 C 4217.47 1.40728 1.02331 0
M  V30 42263 O 4218.64 1.73798 1.01765 0
M  V30 42264 C 4215.71 3.14599 1.45699 0
M  V30 42265 C 4214.77 4.2127 0.826434 0
M  V30 42266 C 4214 5.00289 1.85868 0
M  V30 42267 O 4214.23 4.8 3.0815 0
M  V30 42268 O 4213.16 5.84257 1.44661 0
M  V30 42269 H 4216.99 3.0238 -0.282891 0
M  V30 42270 H 4214.57 1.47994 -0.204458 0
M  V30 42271 H 4216.45 3.66176 2.0855 0
M  V30 42272 H 4215.13 2.46593 2.09699 0
M  V30 42273 H 4214.03 3.73759 0.159755 0
M  V30 42274 H 4215.37 4.91663 0.229856 0
M  V30 42275 N 4217.02 0.173543 1.56642 0
M  V30 42276 C 4218.25 -0.477043 2.01325 0
M  V30 42277 C 4218.66 -1.56657 1.05376 0
M  V30 42278 O 4218.02 -1.82417 0.0549898 0
M  V30 42279 C 4218.07 -1.05331 3.45814 0
M  V30 42280 O 4217.79 -0.00727415 4.38099 0
M  V30 42281 C 4219.29 -1.7819 4.0591 0
M  V30 42282 H 4216.51 -0.121885 0.659837 0
M  V30 42283 H 4219.06 0.275925 2.0263 0
M  V30 42284 H 4217.21 -1.75676 3.45278 0
M  V30 42285 H 4217.63 -0.43306 5.22709 0
M  V30 42286 H 4219.1 -2.13769 5.08927 0
M  V30 42287 H 4219.58 -2.67773 3.4813 0
M  V30 42288 H 4220.18 -1.12482 4.10156 0
M  V30 42289 N 4218.5 -1.57281 -0.100172 0
M  V30 42290 C 4219.44 -2.01699 -1.12188 0
M  V30 42291 C 4220.41 -0.892399 -1.40091 0
M  V30 42292 O 4221.6 -1.15802 -1.51639 0
M  V30 42293 C 4218.74 -2.44216 -2.43829 0
M  V30 42294 C 4217.85 -3.70173 -2.22701 0
M  V30 42295 C 4216.99 -4.01591 -3.47704 0
M  V30 42296 C 4216.03 -5.20674 -3.21815 0
M  V30 42297 N 4215.16 -5.47869 -4.39071 0
M  V30 42298 H 4220 -2.88765 -0.736121 0
M  V30 42299 H 4217.54 -1.42828 -0.351952 0
M  V30 42300 H 4219.5 -2.6691 -3.20648 0
M  V30 42301 H 4218.13 -1.60167 -2.80261 0
M  V30 42302 H 4217.18 -3.54986 -1.36708 0
M  V30 42303 H 4218.49 -4.5714 -1.9956 0
M  V30 42304 H 4217.65 -4.25034 -4.32933 0
M  V30 42305 H 4216.39 -3.13136 -3.73894 0
M  V30 42306 H 4215.39 -4.97056 -2.34979 0
M  V30 42307 H 4216.62 -6.10722 -2.96976 0
M  V30 42308 H 4214.56 -4.62373 -4.65347 0
M  V30 42309 H 4214.48 -6.29197 -4.19103 0
M  V30 42310 H 4215.75 -5.75844 -5.25379 0
M  V30 42311 N 4219.98 0.370864 -1.53174 0
M  V30 42312 C 4221.22 1.11186 -1.68766 0
M  V30 42313 C 4221.54 1.89987 -0.439331 0
M  V30 42314 O 4220.81 1.88121 0.546559 0
M  V30 42315 H 4219.39 0.413456 -0.622144 0
M  V30 42316 H 4222.06 0.418761 -1.90348 0
M  V30 42317 H 4221.15 1.80463 -2.54636 0
M  V30 42318 N 4221.45 1.44444 0.630363 0
M  V30 42319 C 4222.73 1.37743 1.38875 0
M  V30 42320 C 4223.11 0.0365289 2.11068 0
M  V30 42321 O 4222.46 -0.980904 2.06375 0
M  V30 42322 C 4222.67 2.5761 2.35453 0
M  V30 42323 C 4224.02 3.01707 2.98761 0
M  V30 42324 O 4225.04 2.5782 2.45779 0
M  V30 42325 O 4223.9 3.77803 3.94876 0
M  V30 42326 H 4220.99 0.545501 0.621577 0
M  V30 42327 H 4223.54 1.56535 0.655355 0
M  V30 42328 H 4222.31 3.46811 1.81212 0
M  V30 42329 H 4221.93 2.41035 3.16209 0
M  V30 42330 N 4222.93 -0.870838 1.31355 0
M  V30 42331 C 4224.16 -1.65661 1.23951 0
M  V30 42332 C 4224.57 -1.87787 -0.19532 0
M  V30 42333 O 4223.93 -1.4354 -1.12705 0
M  V30 42334 C 4223.98 -3.02508 1.97917 0
M  V30 42335 O 4223.7 -2.81371 3.358 0
M  V30 42336 C 4225.2 -3.96952 1.97343 0
M  V30 42337 H 4222.42 -0.516496 0.428337 0
M  V30 42338 H 4224.97 -1.08703 1.73216 0
M  V30 42339 H 4223.12 -3.56158 1.52415 0
M  V30 42340 H 4223.54 -3.68286 3.73451 0
M  V30 42341 H 4225.01 -4.90292 2.53609 0
M  V30 42342 H 4225.49 -4.28675 0.955727 0
M  V30 42343 H 4226.09 -3.49238 2.4272 0
M  V30 42344 N 4224.41 -1.14302 -1.08503 0
M  V30 42345 C 4225.66 -0.91197 -1.81138 0
M  V30 42346 C 4225.99 0.560123 -1.85947 0
M  V30 42347 O 4225.26 1.41487 -1.3346 0
M  V30 42348 C 4225.55 -1.51233 -3.26804 0
M  V30 42349 C 4225.4 -3.0542 -3.3021 0
M  V30 42350 C 4226.72 -1.18837 -4.23752 0
M  V30 42351 H 4223.84 -0.332737 -0.657613 0
M  V30 42352 H 4226.48 -1.41281 -1.27042 0
M  V30 42353 H 4224.63 -1.0864 -3.73001 0
M  V30 42354 H 4226.3 -3.56837 -2.92344 0
M  V30 42355 H 4224.54 -3.3992 -2.69512 0
M  V30 42356 H 4225.22 -3.42532 -4.32869 0
M  V30 42357 H 4227.69 -1.5566 -3.85888 0
M  V30 42358 H 4226.57 -1.63478 -5.23991 0
M  V30 42359 H 4226.83 -0.10352 -4.41979 0
M  V30 42360 N 4225.89 1.26648 -0.937984 0
M  V30 42361 C 4226.85 2.24746 -0.449674 0
M  V30 42362 C 4227.85 1.54735 0.437462 0
M  V30 42363 O 4229.04 1.72579 0.23709 0
M  V30 42364 C 4226.17 3.39075 0.35229 0
M  V30 42365 H 4227.37 2.69458 -1.31653 0
M  V30 42366 H 4224.92 1.38747 -0.719644 0
M  V30 42367 H 4225.65 2.99759 1.23753 0
M  V30 42368 H 4225.44 3.91071 -0.283921 0
M  V30 42369 H 4226.93 4.11961 0.683966 0
M  V30 42370 N 4227.37 0.704643 1.4097 0
M  V30 42371 C 4228.78 0.313159 1.84055 0
M  V30 42372 C 4229.13 -1.1503 1.58942 0
M  V30 42373 O 4228.25 -1.88403 1.06458 0
M  V30 42374 C 4228.85 0.5616 3.34113 0
M  V30 42375 C 4227.41 0.223939 3.75733 0
M  V30 42376 C 4226.55 0.839403 2.6429 0
M  V30 42377 H 4229.5 0.904622 1.30393 0
M  V30 42378 H 4229.53 -0.176754 3.80089 0
M  V30 42379 H 4229.04 1.6268 3.52359 0
M  V30 42380 H 4227.14 -0.836632 3.63086 0
M  V30 42381 H 4227.25 0.685295 4.74174 0
M  V30 42382 H 4225.62 0.268287 2.53283 0
M  V30 42383 H 4226.4 1.90865 2.85352 0
M  V30 42384 N 4228.84 -1.51038 0.450036 0
M  V30 42385 C 4230.09 -2.0179 -0.111933 0
M  V30 42386 C 4230.41 -1.33544 -1.42095 0
M  V30 42387 O 4229.68 -0.473995 -1.90079 0
M  V30 42388 H 4228.26 -0.745682 -0.0443557 0
M  V30 42389 H 4230.93 -1.85575 0.595648 0
M  V30 42390 H 4230.02 -3.10853 -0.278688 0
M  V30 42391 N 4230.32 -0.181847 -1.56547 0
M  V30 42392 C 4231.29 0.730459 -2.17249 0
M  V30 42393 C 4232.29 1.15054 -1.12335 0
M  V30 42394 O 4233.48 1.06579 -1.37792 0
M  V30 42395 C 4230.61 1.99558 -2.76386 0
M  V30 42396 H 4231.8 0.201851 -2.9922 0
M  V30 42397 H 4229.35 0.0677459 -1.56153 0
M  V30 42398 H 4230.09 2.56703 -1.98177 0
M  V30 42399 H 4229.87 1.70323 -3.53175 0
M  V30 42400 H 4231.36 2.64643 -3.23039 0
M  V30 42401 N 4231.8 1.57332 0.09183 0
M  V30 42402 C 4232.71 2.05622 1.12947 0
M  V30 42403 C 4233.73 0.981753 1.43658 0
M  V30 42404 O 4234.9 1.29514 1.54234 0
M  V30 42405 C 4231.97 2.47374 2.42914 0
M  V30 42406 C 4231.03 3.69028 2.19355 0
M  V30 42407 C 4230.26 4.0878 3.43125 0
M  V30 42408 O 4230.48 3.48592 4.51486 0
M  V30 42409 O 4229.42 5.01711 3.3252 0
M  V30 42410 H 4233.24 2.94311 0.749308 0
M  V30 42411 H 4230.83 1.46263 0.304569 0
M  V30 42412 H 4232.71 2.74841 3.19438 0
M  V30 42413 H 4231.39 1.61821 2.80349 0
M  V30 42414 H 4230.29 3.46673 1.40601 0
M  V30 42415 H 4231.63 4.55371 1.8681 0
M  V30 42416 N 4233.28 -0.362736 1.53369 0
M  V30 42417 C 4234.53 -1.10289 1.69354 0
M  V30 42418 C 4234.85 -1.89751 0.4494 0
M  V30 42419 O 4234.12 -1.88408 -0.536575 0
M  V30 42420 H 4232.7 -0.410151 0.624328 0
M  V30 42421 H 4235.36 -0.40866 1.90568 0
M  V30 42422 H 4234.46 -1.7911 2.55589 0
M  V30 42423 N 4234.76 -1.44777 -0.622694 0
M  V30 42424 C 4235.69 -1.55123 -1.74525 0
M  V30 42425 C 4236.67 -0.403685 -1.6524 0
M  V30 42426 O 4237.85 -0.624895 -1.83871 0
M  V30 42427 C 4234.98 -1.50315 -3.13086 0
M  V30 42428 C 4233.94 -2.63632 -3.37168 0
M  V30 42429 C 4233.26 -2.43877 -4.75845 0
M  V30 42430 C 4234.56 -4.05736 -3.28901 0
M  V30 42431 H 4236.26 -2.49085 -1.66123 0
M  V30 42432 H 4233.8 -1.1988 -0.797792 0
M  V30 42433 H 4235.76 -1.56153 -3.914 0
M  V30 42434 H 4234.48 -0.528741 -3.22292 0
M  V30 42435 H 4233.14 -2.57198 -2.61237 0
M  V30 42436 H 4232.79 -1.44609 -4.81765 0
M  V30 42437 H 4232.49 -3.19857 -4.92915 0
M  V30 42438 H 4234.01 -2.51545 -5.56379 0
M  V30 42439 H 4235.42 -4.13494 -3.97109 0
M  V30 42440 H 4233.82 -4.81986 -3.57504 0
M  V30 42441 H 4234.89 -4.2871 -2.26574 0
M  V30 42442 N 4236.23 0.863859 -1.31815 0
M  V30 42443 C 4237.16 1.98739 -1.22577 0
M  V30 42444 C 4238.15 1.69733 -0.111615 0
M  V30 42445 O 4239.33 1.91912 -0.297243 0
M  V30 42446 C 4236.46 3.34376 -0.938618 0
M  V30 42447 C 4235.41 3.77706 -2.01301 0
M  V30 42448 C 4234.74 5.10871 -1.57843 0
M  V30 42449 C 4236.04 3.94158 -3.42691 0
M  V30 42450 H 4237.73 2.06725 -2.16576 0
M  V30 42451 H 4235.28 0.993228 -1.04264 0
M  V30 42452 H 4237.23 4.12519 -0.860573 0
M  V30 42453 H 4235.96 3.26579 0.0370209 0
M  V30 42454 H 4234.62 3.01807 -2.08105 0
M  V30 42455 H 4234.26 4.99522 -0.590488 0
M  V30 42456 H 4233.96 5.40834 -2.29723 0
M  V30 42457 H 4235.49 5.91517 -1.51458 0
M  V30 42458 H 4236.9 4.62679 -3.38527 0
M  V30 42459 H 4235.3 4.35526 -4.1284 0
M  V30 42460 H 4236.37 2.97351 -3.83028 0
M  V30 42461 N 4237.71 1.14875 1.07895 0
M  V30 42462 C 4238.66 0.836173 2.1705 0
M  V30 42463 C 4239.65 -0.188118 1.68352 0
M  V30 42464 O 4240.86 -0.0436982 1.79947 0
M  V30 42465 H 4237.24 0.25271 0.708267 0
M  V30 42466 H 4239.21 1.76456 2.40636 0
M  V30 42467 C 4237.96 0.335774 3.46075 0
M  V30 42468 H 4237.28 1.11532 3.83928 0
M  V30 42469 H 4238.72 0.155661 4.23714 0
M  V30 42470 C 4237.18 -0.941654 3.23473 0
M  V30 42471 O 4237.71 -2.01434 3.47544 0
M  V30 42472 N 4235.91 -0.878967 2.76988 0
M  V30 42473 H 4235.46 -0.00587111 2.57599 0
M  V30 42474 H 4235.42 -1.73422 2.62244 0
M  V30 42475 N 4239.19 -1.26148 0.944687 0
M  V30 42476 C 4240.12 -2.28621 0.47482 0
M  V30 42477 C 4241.1 -1.63371 -0.473714 0
M  V30 42478 O 4242.29 -1.90549 -0.374814 0
M  V30 42479 C 4239.42 -3.46344 -0.257539 0
M  V30 42480 C 4238.37 -4.23706 0.604775 0
M  V30 42481 C 4237.7 -5.34078 -0.257748 0
M  V30 42482 C 4239 -4.87373 1.87789 0
M  V30 42483 H 4240.69 -2.68175 1.33127 0
M  V30 42484 H 4238.24 -1.28918 0.641577 0
M  V30 42485 H 4240.19 -4.17145 -0.597309 0
M  V30 42486 H 4238.91 -3.05753 -1.14815 0
M  V30 42487 H 4237.57 -3.54673 0.927488 0
M  V30 42488 H 4237.22 -4.89729 -1.14782 0
M  V30 42489 H 4236.92 -5.86751 0.315842 0
M  V30 42490 H 4238.44 -6.07716 -0.592708 0
M  V30 42491 H 4239.86 -5.50371 1.60515 0
M  V30 42492 H 4238.26 -5.50178 2.39633 0
M  V30 42493 H 4239.33 -4.10117 2.58712 0
M  V30 42494 N 4240.67 -0.712109 -1.40594 0
M  V30 42495 C 4242.08 -0.385313 -1.54879 0
M  V30 42496 C 4242.28 1.10623 -1.68418 0
M  V30 42497 O 4241.34 1.89225 -1.67183 0
M  V30 42498 C 4242.65 -1.14832 -2.7791 0
M  V30 42499 C 4244.2 -1.13429 -2.91724 0
M  V30 42500 C 4244.68 -1.87938 -4.17664 0
M  V30 42501 N 4246.17 -1.8499 -4.24656 0
M  V30 42502 C 4246.9 -2.39468 -5.21002 0
M  V30 42503 N 4246.4 -3.02487 -6.23276 0
M  V30 42504 N 4248.19 -2.2963 -5.13056 0
M  V30 42505 H 4240.34 -1.67929 -1.30052 0
M  V30 42506 H 4242.61 -0.709601 -0.628626 0
M  V30 42507 H 4242.31 -2.20279 -2.74171 0
M  V30 42508 H 4242.19 -0.737671 -3.69917 0
M  V30 42509 H 4244.57 -0.0880256 -2.94969 0
M  V30 42510 H 4244.65 -1.58413 -2.00845 0
M  V30 42511 H 4244.3 -2.92553 -4.15181 0
M  V30 42512 H 4244.23 -1.40376 -5.07545 0
M  V30 42513 H 4246.72 -1.39059 -3.51384 0
M  V30 42514 H 4247.03 -3.41582 -6.93211 0
M  V30 42515 H 4245.38 -3.0657 -6.2373 0
M  V30 42516 H 4248.57 -1.80057 -4.32085 0
M  V30 42517 H 4248.74 -2.72388 -5.8797 0
M  V30 42518 N 4242.15 1.50797 -0.45804 0
M  V30 42519 C 4243.56 1.867 0.000205702 0
M  V30 42520 C 4243.91 1.3738 1.40075 0
M  V30 42521 O 4243.03 0.733255 2.03598 0
M  V30 42522 C 4243.63 3.38799 0.00714928 0
M  V30 42523 C 4242.19 3.74162 0.409876 0
M  V30 42524 C 4241.33 2.7463 -0.383904 0
M  V30 42525 H 4244.29 1.43726 -0.672935 0
M  V30 42526 H 4244.31 3.71731 0.812197 0
M  V30 42527 H 4243.82 3.74665 -1.01231 0
M  V30 42528 H 4241.92 3.43893 1.43417 0
M  V30 42529 H 4242.03 4.78949 0.12029 0
M  V30 42530 H 4240.4 2.54193 0.160635 0
M  V30 42531 H 4241.18 3.13339 -1.40263 0
M  V30 42532 N 4243.63 0.190147 1.56449 0
M  V30 42533 C 4244.9 -0.497278 1.89173 0
M  V30 42534 C 4245.28 -1.79996 1.10293 0
M  V30 42535 O 4244.63 -2.27601 0.202511 0
M  V30 42536 C 4244.84 -0.720881 3.41474 0
M  V30 42537 C 4246.19 -1.04247 4.11604 0
M  V30 42538 O 4247.21 -0.808774 3.46897 0
M  V30 42539 O 4246.07 -1.48429 5.25957 0
M  V30 42540 H 4243.17 -0.258618 0.785522 0
M  V30 42541 H 4245.71 0.229991 1.68134 0
M  V30 42542 H 4244.48 0.199266 3.90792 0
M  V30 42543 H 4244.11 -1.50079 3.68188 0
M  V30 42544 N 4245.1 -1.57379 -0.083485 0
M  V30 42545 C 4246.38 -1.77712 -0.817172 0
M  V30 42546 C 4246.76 -0.77477 -1.96368 0
M  V30 42547 O 4246.11 0.194449 -2.27671 0
M  V30 42548 C 4246.32 -3.23845 -1.30098 0
M  V30 42549 C 4247.67 -3.87351 -1.73909 0
M  V30 42550 O 4248.69 -3.27665 -1.39694 0
M  V30 42551 O 4247.55 -4.92332 -2.37215 0
M  V30 42552 H 4244.64 -0.72891 -0.390664 0
M  V30 42553 H 4247.19 -1.69578 -0.0644663 0
M  V30 42554 H 4245.96 -3.88344 -0.480077 0
M  V30 42555 H 4245.58 -3.36658 -2.11536 0
M  V30 42556 N 4246.58 0.354597 -1.53559 0
M  V30 42557 C 4247.83 1.09606 -1.70273 0
M  V30 42558 C 4248.16 1.88978 -0.460168 0
M  V30 42559 O 4247.41 1.87576 0.558005 0
M  V30 42560 C 4247.71 2.07354 -2.911 0
M  V30 42561 C 4247.38 1.44378 -4.2716 0
M  V30 42562 C 4246.04 1.26932 -4.64157 0
M  V30 42563 C 4248.39 0.989149 -5.11728 0
M  V30 42564 C 4245.72 0.626229 -5.83348 0
M  V30 42565 C 4248.07 0.360015 -6.31575 0
M  V30 42566 C 4246.73 0.173138 -6.67275 0
M  V30 42567 H 4246 0.401078 -0.623071 0
M  V30 42568 H 4248.65 0.376587 -1.87761 0
M  V30 42569 H 4246.96 2.85644 -2.68169 0
M  V30 42570 H 4248.65 2.64697 -3.01225 0
M  V30 42571 H 4245.24 1.58953 -3.98035 0
M  V30 42572 H 4249.43 1.11183 -4.83686 0
M  V30 42573 H 4244.68 0.469954 -6.09591 0
M  V30 42574 H 4248.86 -0.000409499 -6.964 0
M  V30 42575 H 4246.48 -0.327232 -7.59495 0
M  V30 42576 N 4248.06 1.45105 0.615008 0
M  V30 42577 C 4249.31 1.48954 1.37625 0
M  V30 42578 C 4249.64 0.127907 1.93778 0
M  V30 42579 O 4248.91 -0.856656 1.74619 0
M  V30 42580 C 4249.2 2.56282 2.52965 0
M  V30 42581 C 4249.05 4.01862 2.02056 0
M  V30 42582 C 4250.37 2.59962 3.55117 0
M  V30 42583 H 4247.49 0.542317 0.499061 0
M  V30 42584 H 4250.13 1.76874 0.693946 0
M  V30 42585 H 4248.28 2.32606 3.1117 0
M  V30 42586 H 4249.95 4.36725 1.48558 0
M  V30 42587 H 4248.19 4.12872 1.33113 0
M  V30 42588 H 4248.87 4.72634 2.85168 0
M  V30 42589 H 4251.34 2.81158 3.0674 0
M  V30 42590 H 4250.22 3.36935 4.3332 0
M  V30 42591 H 4250.48 1.64768 4.10248 0
M  V30 42592 N 4249.54 -0.856857 1.32271 0
M  V30 42593 C 4250.78 -1.61088 1.22706 0
M  V30 42594 C 4251.11 -1.93345 -0.211648 0
M  V30 42595 O 4250.37 -1.57316 -1.16405 0
M  V30 42596 C 4250.67 -2.94172 2.02972 0
M  V30 42597 C 4250.33 -2.81354 3.52351 0
M  V30 42598 C 4248.99 -2.77565 3.93079 0
M  V30 42599 C 4251.35 -2.67444 4.47351 0
M  V30 42600 C 4248.67 -2.57742 5.27054 0
M  V30 42601 C 4251.03 -2.49157 5.81467 0
M  V30 42602 C 4249.69 -2.43759 6.214 0
M  V30 42603 H 4248.96 -0.589464 0.449014 0
M  V30 42604 H 4251.61 -0.994127 1.63675 0
M  V30 42605 H 4249.91 -3.59955 1.54725 0
M  V30 42606 H 4251.61 -3.51532 1.92942 0
M  V30 42607 H 4248.2 -2.85126 3.20002 0
M  V30 42608 H 4252.38 -2.69417 4.16807 0
M  V30 42609 H 4247.64 -2.51997 5.57052 0
M  V30 42610 H 4251.81 -2.37373 6.54696 0
M  V30 42611 H 4249.44 -2.28159 7.25154 0
M  V30 42612 N 4251.02 -1.15446 -1.07285 0
M  V30 42613 C 4252.25 -0.952247 -1.83346 0
M  V30 42614 C 4252.65 0.502788 -1.82397 0
M  V30 42615 O 4252 1.3605 -1.23435 0
M  V30 42616 C 4252.06 -1.3901 -3.31537 0
M  V30 42617 C 4251.72 -2.863 -3.56204 0
M  V30 42618 C 4252.72 -3.8436 -3.50091 0
M  V30 42619 C 4250.4 -3.23984 -3.83849 0
M  V30 42620 C 4252.4 -5.18109 -3.71271 0
M  V30 42621 C 4250.09 -4.57905 -4.0468 0
M  V30 42622 C 4251.08 -5.54777 -3.98387 0
M  V30 42623 O 4250.77 -6.86279 -4.1866 0
M  V30 42624 H 4250.5 -0.338249 -0.585289 0
M  V30 42625 H 4253.06 -1.53637 -1.36327 0
M  V30 42626 H 4251.29 -0.749387 -3.79369 0
M  V30 42627 H 4252.98 -1.15688 -3.89064 0
M  V30 42628 H 4253.74 -3.56593 -3.28735 0
M  V30 42629 H 4249.62 -2.49168 -3.87861 0
M  V30 42630 H 4253.17 -5.93708 -3.66274 0
M  V30 42631 H 4249.06 -4.85388 -4.25522 0
M  V30 42632 H 4249.83 -6.92707 -4.36004 0
M  V30 42633 N 4252.49 1.25646 -0.951364 0
M  V30 42634 C 4253.74 1.93557 -0.60528 0
M  V30 42635 C 4254.07 1.74364 0.85504 0
M  V30 42636 O 4253.35 1.08677 1.61306 0
M  V30 42637 C 4253.63 3.47046 -0.960779 0
M  V30 42638 C 4253.48 3.7548 -2.47659 0
M  V30 42639 C 4254.8 4.37436 -0.483486 0
M  V30 42640 H 4251.92 0.702967 -0.221373 0
M  V30 42641 H 4254.56 1.48325 -1.18742 0
M  V30 42642 H 4252.71 3.85702 -0.465392 0
M  V30 42643 H 4254.39 3.46479 -3.04549 0
M  V30 42644 H 4252.63 3.212 -2.9157 0
M  V30 42645 H 4253.3 4.82807 -2.67584 0
M  V30 42646 H 4255.78 4.06064 -0.90838 0
M  V30 42647 H 4254.65 5.436 -0.760954 0
M  V30 42648 H 4254.91 4.37779 0.616568 0
M  V30 42649 N 4253.97 0.719555 1.40215 0
M  V30 42650 C 4255.22 0.260261 2.00417 0
M  V30 42651 C 4255.54 -1.15177 1.57351 0
M  V30 42652 O 4254.81 -1.78153 0.81475 0
M  V30 42653 H 4253.39 0.0932334 0.741159 0
M  V30 42654 H 4256.05 0.926071 1.71493 0
M  V30 42655 H 4255.15 0.296474 3.10689 0
M  V30 42656 N 4255.45 -1.50552 0.466031 0
M  V30 42657 C 4256.7 -2.01897 -0.0905245 0
M  V30 42658 C 4257.02 -1.35043 -1.40671 0
M  V30 42659 O 4256.29 -0.494129 -1.89566 0
M  V30 42660 H 4254.87 -0.74611 -0.0364443 0
M  V30 42661 H 4257.53 -1.84933 0.615297 0
M  V30 42662 H 4256.63 -3.11131 -0.245702 0
M  V30 42663 N 4256.93 -0.198441 -1.56346 0
M  V30 42664 C 4258.16 0.444309 -2.01766 0
M  V30 42665 C 4258.57 1.55505 -1.07772 0
M  V30 42666 O 4257.91 1.83545 -0.0753799 0
M  V30 42667 C 4257.97 1.0581 -3.43576 0
M  V30 42668 C 4257.63 0.0856851 -4.5692 0
M  V30 42669 C 4258.63 -0.706171 -5.15082 0
M  V30 42670 C 4256.32 -0.0263677 -5.02293 0
M  V30 42671 C 4258.31 -1.59701 -6.17069 0
M  V30 42672 C 4256 -0.920765 -6.04123 0
M  V30 42673 C 4257 -1.70465 -6.61385 0
M  V30 42674 O 4256.68 -2.58405 -7.61237 0
M  V30 42675 H 4256.42 0.115533 -0.666054 0
M  V30 42676 H 4258.97 -0.305421 -2.03117 0
M  V30 42677 H 4257.2 1.85649 -3.39222 0
M  V30 42678 H 4258.89 1.60585 -3.72783 0
M  V30 42679 H 4259.65 -0.629925 -4.80892 0
M  V30 42680 H 4255.53 0.57361 -4.57417 0
M  V30 42681 H 4259.08 -2.20931 -6.61691 0
M  V30 42682 H 4254.97 -0.998114 -6.37737 0
M  V30 42683 H 4255.74 -2.52222 -7.7867 0
M  V30 42684 N 4258.41 1.57421 0.0751377 0
M  V30 42685 C 4259.82 1.75844 0.62736 0
M  V30 42686 C 4260.17 0.823429 1.78085 0
M  V30 42687 O 4259.29 0.00671287 2.16399 0
M  V30 42688 C 4259.89 3.18871 1.14484 0
M  V30 42689 C 4258.45 3.3865 1.64295 0
M  V30 42690 C 4257.59 2.71567 0.560946 0
M  V30 42691 H 4260.55 1.5798 -0.151021 0
M  V30 42692 H 4260.57 3.22846 2.01372 0
M  V30 42693 H 4260.08 3.86899 0.305097 0
M  V30 42694 H 4258.18 2.75732 2.50605 0
M  V30 42695 H 4258.29 4.47076 1.7222 0
M  V30 42696 H 4256.66 2.34026 1.00519 0
M  V30 42697 H 4257.44 3.42248 -0.268549 0
M  V30 42698 N 4259.88 -0.346449 1.53745 0
M  V30 42699 C 4261.11 -1.11157 1.75097 0
M  V30 42700 C 4261.53 -1.81673 0.487491 0
M  V30 42701 O 4260.89 -1.72444 -0.5597 0
M  V30 42702 C 4260.94 -2.10295 2.92931 0
M  V30 42703 O 4260.04 -3.17758 2.62876 0
M  V30 42704 H 4259.39 -0.321619 0.580911 0
M  V30 42705 H 4261.92 -0.397727 2.00697 0
M  V30 42706 H 4261.93 -2.53566 3.19638 0
M  V30 42707 H 4260.6 -1.58366 3.84569 0
M  V30 42708 H 4259.18 -2.79323 2.47048 0
M  V30 42709 N 4261.36 -1.45429 -0.607304 0
M  V30 42710 C 4262.59 -1.52987 -1.39293 0
M  V30 42711 C 4263.01 -0.162572 -1.88099 0
M  V30 42712 O 4262.36 0.835917 -1.6223 0
M  V30 42713 C 4262.41 -2.51449 -2.59722 0
M  V30 42714 O 4262.13 -3.82865 -2.12945 0
M  V30 42715 C 4263.64 -2.68708 -3.52578 0
M  V30 42716 H 4260.86 -0.518111 -0.426382 0
M  V30 42717 H 4263.4 -1.90618 -0.740612 0
M  V30 42718 H 4261.55 -2.16889 -3.20995 0
M  V30 42719 H 4261.97 -4.36242 -2.91193 0
M  V30 42720 H 4263.44 -3.41578 -4.33623 0
M  V30 42721 H 4263.92 -1.74753 -4.02937 0
M  V30 42722 H 4264.53 -3.04265 -2.97158 0
M  V30 42723 N 4262.84 0.84983 -1.32724 0
M  V30 42724 C 4264.09 1.60435 -1.23559 0
M  V30 42725 C 4264.42 1.93455 0.201391 0
M  V30 42726 O 4263.67 1.57931 1.15569 0
M  V30 42727 C 4263.97 2.93091 -2.04529 0
M  V30 42728 C 4263.64 2.79481 -3.53838 0
M  V30 42729 C 4262.3 2.75477 -3.94545 0
M  V30 42730 C 4264.65 2.65068 -4.48763 0
M  V30 42731 C 4261.98 2.54943 -5.28413 0
M  V30 42732 C 4264.33 2.46069 -5.8278 0
M  V30 42733 C 4262.99 2.4046 -6.22684 0
M  V30 42734 H 4262.26 0.587074 -0.452134 0
M  V30 42735 H 4264.91 0.985433 -1.64199 0
M  V30 42736 H 4263.22 3.59129 -1.56632 0
M  V30 42737 H 4264.91 3.50503 -1.94803 0
M  V30 42738 H 4261.5 2.83425 -3.21509 0
M  V30 42739 H 4265.69 2.67203 -4.1823 0
M  V30 42740 H 4260.94 2.4904 -5.58381 0
M  V30 42741 H 4265.12 2.33898 -6.55946 0
M  V30 42742 H 4262.74 2.2431 -7.26353 0
M  V30 42743 N 4264.32 1.16013 1.06671 0
M  V30 42744 C 4265.55 0.963354 1.83104 0
M  V30 42745 C 4265.96 -0.488419 1.82373 0
M  V30 42746 O 4265.32 -1.3389 1.24014 0
M  V30 42747 C 4265.37 1.47843 3.29886 0
M  V30 42748 O 4265.09 2.87334 3.30712 0
M  V30 42749 C 4266.59 1.32413 4.23062 0
M  V30 42750 H 4263.81 0.341715 0.57747 0
M  V30 42751 H 4266.36 1.53951 1.34609 0
M  V30 42752 H 4264.51 0.944651 3.75706 0
M  V30 42753 H 4264.92 3.10838 4.22469 0
M  V30 42754 H 4266.4 1.73288 5.24095 0
M  V30 42755 H 4266.88 0.269181 4.38374 0
M  V30 42756 H 4267.48 1.84733 3.83084 0
M  V30 42757 N 4265.8 -1.25139 0.958014 0
M  V30 42758 C 4267.21 -1.74838 0.654871 0
M  V30 42759 C 4267.56 -1.77794 -0.829682 0
M  V30 42760 O 4266.68 -1.40099 -1.64928 0
M  V30 42761 C 4267.28 -3.17511 1.18203 0
M  V30 42762 C 4265.84 -3.64756 0.928981 0
M  V30 42763 C 4264.98 -2.43701 1.32308 0
M  V30 42764 H 4267.94 -1.10978 1.13444 0
M  V30 42765 H 4267.96 -3.76595 0.543708 0
M  V30 42766 H 4267.47 -3.15328 2.26252 0
M  V30 42767 H 4265.57 -3.7235 -0.136402 0
M  V30 42768 H 4265.68 -4.52721 1.56782 0
M  V30 42769 H 4264.05 -2.43669 0.741449 0
M  V30 42770 H 4264.83 -2.44205 2.41285 0
M  V30 42771 N 4267.27 -0.726981 -1.39831 0
M  V30 42772 C 4268.69 -0.342401 -1.83533 0
M  V30 42773 C 4269.04 1.12487 -1.60752 0
M  V30 42774 O 4268.16 1.86686 -1.09442 0
M  V30 42775 C 4268.76 -0.614684 -3.33177 0
M  V30 42776 C 4267.32 -0.283687 -3.75329 0
M  V30 42777 C 4266.46 -0.881343 -2.62921 0
M  V30 42778 H 4269.41 -0.925252 -1.28937 0
M  V30 42779 H 4269.43 0.116263 -3.80322 0
M  V30 42780 H 4268.95 -1.68265 -3.49726 0
M  V30 42781 H 4267.05 0.778762 -3.64371 0
M  V30 42782 H 4267.16 -0.760645 -4.73023 0
M  V30 42783 H 4265.52 -0.308548 -2.52824 0
M  V30 42784 H 4266.31 -1.9538 -2.82279 0
M  V30 42785 N 4268.75 1.50303 -0.474008 0
M  V30 42786 C 4270.16 1.8669 -0.0195963 0
M  V30 42787 C 4270.51 1.38858 1.3861 0
M  V30 42788 O 4269.64 0.754808 2.02809 0
M  V30 42789 C 4270.23 3.38788 -0.0287853 0
M  V30 42790 C 4268.79 3.74575 0.370168 0
M  V30 42791 C 4267.94 2.74207 -0.413011 0
M  V30 42792 H 4270.89 1.43005 -0.688141 0
M  V30 42793 H 4270.91 3.72571 0.772724 0
M  V30 42794 H 4270.42 3.7357 -1.05199 0
M  V30 42795 H 4268.53 3.45395 1.39762 0
M  V30 42796 H 4268.64 4.7905 0.0694845 0
M  V30 42797 H 4267 2.54349 0.133665 0
M  V30 42798 H 4267.79 3.11833 -1.43579 0
M  V30 42799 N 4270.23 0.20673 1.56238 0
M  V30 42800 C 4271.16 -0.704407 2.22622 0
M  V30 42801 C 4272.14 -1.21243 1.19307 0
M  V30 42802 O 4273.33 -1.25914 1.47849 0
M  V30 42803 C 4270.46 -1.91908 2.89462 0
M  V30 42804 C 4269.41 -1.54551 3.99122 0
M  V30 42805 C 4268.74 -2.83775 4.53184 0
M  V30 42806 C 4270.04 -0.746658 5.16935 0
M  V30 42807 H 4271.73 -0.150975 2.99019 0
M  V30 42808 H 4269.28 -0.0711751 1.43824 0
M  V30 42809 H 4271.23 -2.56181 3.34589 0
M  V30 42810 H 4269.95 -2.49724 2.10489 0
M  V30 42811 H 4268.61 -0.926318 3.54704 0
M  V30 42812 H 4268.26 -3.39704 3.70958 0
M  V30 42813 H 4267.96 -2.59519 5.27185 0
M  V30 42814 H 4269.48 -3.49015 5.0102 0
M  V30 42815 H 4270.9 -1.29274 5.58535 0
M  V30 42816 H 4269.3 -0.601771 5.97075 0
M  V30 42817 H 4270.37 0.249868 4.84256 0
M  V30 42818 N 4271.71 -1.57458 -0.0667882 0
M  V30 42819 C 4272.64 -2.07071 -1.07906 0
M  V30 42820 C 4273.62 -0.965232 -1.40062 0
M  V30 42821 O 4274.8 -1.23826 -1.49602 0
M  V30 42822 C 4271.93 -2.51881 -2.39109 0
M  V30 42823 C 4270.89 -3.66351 -2.21294 0
M  V30 42824 C 4270.21 -3.97233 -3.57924 0
M  V30 42825 C 4271.51 -4.96213 -1.63004 0
M  V30 42826 H 4273.21 -2.91894 -0.666203 0
M  V30 42827 H 4270.75 -1.40422 -0.319014 0
M  V30 42828 H 4272.71 -2.85203 -3.10221 0
M  V30 42829 H 4271.43 -1.64093 -2.82384 0
M  V30 42830 H 4270.09 -3.3332 -1.52622 0
M  V30 42831 H 4269.74 -3.06569 -3.98779 0
M  V30 42832 H 4269.44 -4.74315 -3.46842 0
M  V30 42833 H 4270.96 -4.33056 -4.30459 0
M  V30 42834 H 4272.38 -5.27733 -2.23988 0
M  V30 42835 H 4270.77 -5.7765 -1.62604 0
M  V30 42836 H 4271.84 -4.81273 -0.591993 0
M  V30 42837 N 4273.19 0.33829 -1.53926 0
M  V30 42838 C 4274.6 0.681726 -1.44308 0
M  V30 42839 C 4274.8 1.92233 -0.604056 0
M  V30 42840 O 4273.86 2.52313 -0.0970918 0
M  V30 42841 C 4275.17 0.869462 -2.87856 0
M  V30 42842 C 4276.72 0.967745 -2.97664 0
M  V30 42843 C 4277.2 1.18776 -4.42331 0
M  V30 42844 N 4278.69 1.25484 -4.45879 0
M  V30 42845 C 4279.42 1.44268 -5.54954 0
M  V30 42846 N 4278.92 1.60191 -6.74026 0
M  V30 42847 N 4280.71 1.46858 -5.42576 0
M  V30 42848 H 4272.86 -0.477325 -2.06967 0
M  V30 42849 H 4275.12 -0.151656 -0.935791 0
M  V30 42850 H 4274.83 0.0293127 -3.51688 0
M  V30 42851 H 4274.7 1.76966 -3.33111 0
M  V30 42852 H 4277.09 1.79841 -2.33968 0
M  V30 42853 H 4277.17 0.0443398 -2.55762 0
M  V30 42854 H 4276.82 0.362002 -5.06608 0
M  V30 42855 H 4276.75 2.12481 -4.81829 0
M  V30 42856 H 4279.24 1.14682 -3.60078 0
M  V30 42857 H 4279.55 1.74175 -7.52916 0
M  V30 42858 H 4277.9 1.57317 -6.76961 0
M  V30 42859 H 4281.09 1.34004 -4.48509 0
M  V30 42860 H 4281.26 1.61156 -6.27641 0
M  V30 42861 N 4274.67 1.45749 0.599583 0
M  V30 42862 C 4275.91 1.50183 1.35836 0
M  V30 42863 C 4276.24 0.146743 1.93946 0
M  V30 42864 O 4275.5 -0.855599 1.76006 0
M  V30 42865 C 4275.79 2.53507 2.5193 0
M  V30 42866 C 4275.46 3.97997 2.11918 0
M  V30 42867 C 4274.12 4.37338 2.0072 0
M  V30 42868 C 4276.47 4.88832 1.80811 0
M  V30 42869 C 4273.8 5.65401 1.56649 0
M  V30 42870 C 4276.15 6.17314 1.38224 0
M  V30 42871 C 4274.82 6.55579 1.2559 0
M  V30 42872 H 4274.09 0.549558 0.497058 0
M  V30 42873 H 4276.74 1.79138 0.676896 0
M  V30 42874 H 4275.04 2.18151 3.2545 0
M  V30 42875 H 4276.74 2.54173 3.10157 0
M  V30 42876 H 4273.33 3.6689 2.21563 0
M  V30 42877 H 4277.51 4.59168 1.88356 0
M  V30 42878 H 4272.77 5.93836 1.45497 0
M  V30 42879 H 4276.94 6.87138 1.13202 0
M  V30 42880 H 4274.57 7.54708 0.912153 0
M  V30 42881 N 4276.14 -0.84278 1.33173 0
M  V30 42882 C 4277.55 -1.41394 1.2192 0
M  V30 42883 C 4277.91 -1.95518 -0.163491 0
M  V30 42884 O 4277.03 -1.88499 -1.06288 0
M  V30 42885 C 4277.63 -2.57027 2.20732 0
M  V30 42886 C 4276.18 -3.10108 2.1333 0
M  V30 42887 C 4275.33 -1.82894 2.08435 0
M  V30 42888 H 4278.28 -0.648886 1.44828 0
M  V30 42889 H 4278.3 -3.34543 1.81276 0
M  V30 42890 H 4277.82 -2.17605 3.21356 0
M  V30 42891 H 4275.92 -3.54085 1.15995 0
M  V30 42892 H 4276.03 -3.70547 3.03697 0
M  V30 42893 H 4274.39 -2.02982 1.53852 0
M  V30 42894 H 4275.18 -1.45673 3.10861 0
M  V30 42895 N 4277.62 -1.16577 -1.06054 0
M  V30 42896 C 4278.87 -0.946907 -1.78544 0
M  V30 42897 C 4279.19 0.526456 -1.87759 0
M  V30 42898 O 4278.46 1.38241 -1.38803 0
M  V30 42899 H 4277.04 -0.347352 -0.661328 0
M  V30 42900 H 4279.7 -1.46891 -1.28098 0
M  V30 42901 H 4278.8 -1.36772 -2.80535 0
M  V30 42902 N 4279.1 1.2463 -0.964637 0
M  V30 42903 C 4280.33 1.96391 -0.64143 0
M  V30 42904 C 4280.74 1.71793 0.792695 0
M  V30 42905 O 4280.08 0.996685 1.54311 0
M  V30 42906 C 4280.14 3.49729 -0.832479 0
M  V30 42907 C 4279.81 3.98019 -2.24566 0
M  V30 42908 C 4280.8 4.07932 -3.22315 0
M  V30 42909 C 4278.49 4.31423 -2.57253 0
M  V30 42910 C 4280.48 4.5058 -4.5084 0
M  V30 42911 C 4278.17 4.73755 -3.86005 0
M  V30 42912 C 4279.17 4.83297 -4.8261 0
M  V30 42913 O 4278.86 5.24685 -6.09065 0
M  V30 42914 H 4278.59 0.632503 -0.238572 0
M  V30 42915 H 4281.14 1.59495 -1.29423 0
M  V30 42916 H 4279.37 3.86506 -0.122513 0
M  V30 42917 H 4281.06 4.02698 -0.508821 0
M  V30 42918 H 4281.83 3.82346 -2.9839 0
M  V30 42919 H 4277.71 4.23217 -1.8278 0
M  V30 42920 H 4281.25 4.57943 -5.26245 0
M  V30 42921 H 4277.15 4.98788 -4.09732 0
M  V30 42922 H 4277.91 5.42843 -6.12587 0
M  V30 42923 N 4280.58 0.734386 1.39444 0
M  V30 42924 C 4281.99 0.409905 1.54246 0
M  V30 42925 C 4282.19 -1.0793 1.70157 0
M  V30 42926 O 4281.25 -1.86542 1.70172 0
M  V30 42927 C 4282.56 1.19239 2.76048 0
M  V30 42928 C 4284.11 1.18056 2.89883 0
M  V30 42929 C 4284.59 1.94559 4.14621 0
M  V30 42930 N 4286.08 1.91722 4.2166 0
M  V30 42931 C 4286.81 2.47726 5.17126 0
M  V30 42932 N 4286.31 3.12365 6.18385 0
M  V30 42933 N 4288.1 2.37763 5.09338 0
M  V30 42934 H 4280.25 1.69977 1.27364 0
M  V30 42935 H 4282.51 0.719512 0.617257 0
M  V30 42936 H 4282.22 2.24613 2.70632 0
M  V30 42937 H 4282.09 0.796428 3.68696 0
M  V30 42938 H 4284.48 0.134941 2.94791 0
M  V30 42939 H 4284.56 1.61589 1.983 0
M  V30 42940 H 4284.21 2.99121 4.10474 0
M  V30 42941 H 4284.14 1.48433 5.05248 0
M  V30 42942 H 4286.63 1.44632 3.49128 0
M  V30 42943 H 4286.94 3.52567 6.87689 0
M  V30 42944 H 4285.29 3.16455 6.18774 0
M  V30 42945 H 4288.48 1.86908 4.29165 0
M  V30 42946 H 4288.65 2.81708 5.83562 0
M  V30 42947 N 4282.06 -1.50049 0.481972 0
M  V30 42948 C 4283.3 -2.01982 -0.0691055 0
M  V30 42949 C 4283.62 -1.36528 -1.39231 0
M  V30 42950 O 4282.89 -0.514207 -1.89031 0
M  V30 42951 H 4281.47 -0.746455 -0.0285287 0
M  V30 42952 H 4284.14 -1.8427 0.634877 0
M  V30 42953 H 4283.23 -3.11374 -0.212688 0
M  V30 42954 N 4283.53 -0.215012 -1.56126 0
M  V30 42955 C 4284.77 0.420381 -2.0003 0
M  V30 42956 C 4285.14 1.57411 -1.09936 0
M  V30 42957 O 4286.34 2.27506 -1.43159 0
M  V30 42958 C 4284.61 0.850049 -3.47144 0
M  V30 42959 S 4286.17 1.48047 -4.13071 0
M  V30 42960 H 4282.99 0.133681 -0.69832 0
M  V30 42961 H 4285.59 -0.322764 -1.92817 0
M  V30 42962 H 4284.29 0.000591171 -4.104 0
M  V30 42963 H 4283.82 1.62617 -3.58217 0
M  V30 42964 H 4285.84 2.7695 -4.1172 0
M  V30 42965 N 4285.01 1.57492 0.0584368 0
M  V30 42966 C 4286.26 1.8708 0.753927 0
M  V30 42967 C 4286.57 0.809543 1.78061 0
M  V30 42968 O 4287.78 0.993694 2.52662 0
M  V30 42969 C 4286.24 3.31897 1.39186 0
M  V30 42970 C 4285.84 4.46183 0.403047 0
M  V30 42971 C 4287.59 3.70669 2.06893 0
M  V30 42972 C 4285.49 5.82047 1.04765 0
M  V30 42973 H 4284.42 0.697928 0.285328 0
M  V30 42974 H 4287.08 1.83498 0.00750095 0
M  V30 42975 H 4285.46 3.30131 2.187 0
M  V30 42976 H 4286.63 4.59366 -0.363251 0
M  V30 42977 H 4284.95 4.16052 -0.170311 0
M  V30 42978 H 4287.54 4.69477 2.55921 0
M  V30 42979 H 4287.89 3.0115 2.87427 0
M  V30 42980 H 4288.42 3.74482 1.34193 0
M  V30 42981 H 4285.16 6.54892 0.282353 0
M  V30 42982 H 4284.68 5.7264 1.78449 0
M  V30 42983 H 4286.36 6.27822 1.56361 0
M  V30 42984 N 4286.49 -0.330122 1.54104 0
M  V30 42985 C 4287.4 -1.42915 1.86045 0
M  V30 42986 C 4288.42 -1.56922 0.751767 0
M  V30 42987 O 4289.59 -1.72143 1.04541 0
M  V30 42988 C 4286.66 -2.77721 2.07538 0
M  V30 42989 C 4285.72 -2.72945 3.3136 0
M  V30 42990 C 4284.95 -4.01321 3.51819 0
M  V30 42991 O 4285.17 -4.99264 2.75846 0
M  V30 42992 O 4284.11 -4.04978 4.45282 0
M  V30 42993 H 4287.93 -1.18834 2.79485 0
M  V30 42994 H 4285.52 -0.523544 1.39926 0
M  V30 42995 H 4287.4 -3.57533 2.23043 0
M  V30 42996 H 4286.08 -3.01705 1.17286 0
M  V30 42997 H 4284.98 -1.91706 3.21247 0
M  V30 42998 H 4286.32 -2.53915 4.21649 0
M  V30 42999 N 4287.97 -1.46065 -0.591845 0
M  V30 43000 C 4288.9 -1.50441 -1.71589 0
M  V30 43001 C 4289.88 -0.359317 -1.5858 0
M  V30 43002 O 4291.06 -0.562134 -1.79923 0
M  V30 43003 C 4288.19 -1.37434 -3.09563 0
M  V30 43004 C 4287.24 -2.56009 -3.41118 0
M  V30 43005 S 4288.07 -4.18411 -3.34204 0
M  V30 43006 C 4289.23 -4.07898 -4.74732 0
M  V30 43007 H 4289.46 -2.45544 -1.67617 0
M  V30 43008 H 4286.99 -1.33839 -0.769828 0
M  V30 43009 H 4288.95 -1.30618 -3.89165 0
M  V30 43010 H 4287.61 -0.437749 -3.11035 0
M  V30 43011 H 4286.8 -2.42877 -4.41618 0
M  V30 43012 H 4286.41 -2.59769 -2.69065 0
M  V30 43013 H 4288.7 -3.74014 -5.64907 0
M  V30 43014 H 4289.64 -5.08365 -4.92921 0
M  V30 43015 H 4290.05 -3.39296 -4.51152 0
M  V30 43016 N 4289.45 0.835705 -1.33618 0
M  V30 43017 C 4290.72 1.57602 -1.15849 0
M  V30 43018 C 4291.1 2.09315 0.273914 0
M  V30 43019 O 4290.45 1.89727 1.27342 0
M  V30 43020 C 4290.66 2.7074 -2.20229 0
M  V30 43021 C 4292.01 3.39839 -2.54548 0
M  V30 43022 O 4293.03 2.80985 -2.1892 0
M  V30 43023 O 4291.89 4.4609 -3.15699 0
M  V30 43024 H 4288.99 0.694965 -0.448277 0
M  V30 43025 H 4291.53 0.878186 -1.4521 0
M  V30 43026 H 4290.3 2.3019 -3.1643 0
M  V30 43027 H 4289.93 3.48185 -1.91971 0
M  V30 43028 N 4290.92 1.17138 1.05434 0
M  V30 43029 C 4292.15 0.98272 1.82072 0
M  V30 43030 C 4292.57 -0.469049 1.82881 0
M  V30 43031 O 4291.92 -1.32568 1.25428 0
M  V30 43032 C 4291.98 1.51334 3.28299 0
M  V30 43033 O 4291.7 2.90826 3.27646 0
M  V30 43034 C 4293.2 1.36892 4.21634 0
M  V30 43035 H 4290.42 0.347821 0.573813 0
M  V30 43036 H 4292.96 1.5537 1.32968 0
M  V30 43037 H 4291.12 0.984447 3.74683 0
M  V30 43038 H 4291.53 3.15301 4.19149 0
M  V30 43039 H 4293 1.78837 5.22227 0
M  V30 43040 H 4293.48 0.315661 4.38064 0
M  V30 43041 H 4294.09 1.88786 3.81104 0
M  V30 43042 N 4292.4 -1.24116 0.971232 0
M  V30 43043 C 4293.33 -2.27563 0.523207 0
M  V30 43044 C 4294.31 -1.64339 -0.438954 0
M  V30 43045 O 4295.5 -1.91301 -0.334311 0
M  V30 43046 C 4292.63 -3.46812 -0.184017 0
M  V30 43047 C 4291.58 -4.22327 0.694514 0
M  V30 43048 C 4290.91 -5.34505 -0.144404 0
M  V30 43049 C 4292.21 -4.8328 1.98085 0
M  V30 43050 H 4293.9 -2.65291 1.38785 0
M  V30 43051 H 4291.45 -1.27528 0.668778 0
M  V30 43052 H 4293.4 -4.18318 -0.508692 0
M  V30 43053 H 4292.13 -3.0812 -1.08304 0
M  V30 43054 H 4290.78 -3.52626 1.00251 0
M  V30 43055 H 4290.43 -4.92053 -1.04368 0
M  V30 43056 H 4290.13 -5.85949 0.44023 0
M  V30 43057 H 4291.66 -6.08837 -0.463669 0
M  V30 43058 H 4293.07 -5.46842 1.72153 0
M  V30 43059 H 4291.47 -5.44971 2.51249 0
M  V30 43060 H 4292.54 -4.04537 2.67353 0
M  V30 43061 N 4293.88 -0.741771 -1.39052 0
M  V30 43062 C 4294.83 -0.0954475 -2.32404 0
M  V30 43063 C 4295.82 0.718403 -1.53412 0
M  V30 43064 O 4297.03 0.618828 -1.69028 0
M  V30 43065 H 4293.4 -0.0120665 -0.751903 0
M  V30 43066 H 4295.37 -0.899053 -2.84534 0
M  V30 43067 C 4294.12 0.79252 -3.38547 0
M  V30 43068 H 4293.45 0.175669 -3.99414 0
M  V30 43069 H 4294.89 1.21225 -4.06301 0
M  V30 43070 C 4293.35 1.92986 -2.76148 0
M  V30 43071 O 4293.88 3.02307 -2.64525 0
M  V30 43072 N 4292.08 1.72132 -2.34134 0
M  V30 43073 H 4291.63 0.832184 -2.43788 0
M  V30 43074 H 4291.59 2.48404 -1.92725 0
M  V30 43075 N 4295.36 1.49792 -0.489923 0
M  V30 43076 C 4296.27 2.32684 0.299229 0
M  V30 43077 C 4297.28 1.43913 0.978017 0
M  V30 43078 O 4298.46 1.76948 0.961844 0
M  V30 43079 C 4295.53 3.19075 1.35617 0
M  V30 43080 C 4294.59 4.23686 0.691992 0
M  V30 43081 C 4293.82 5.05949 1.69857 0
M  V30 43082 O 4294.04 4.8956 2.92723 0
M  V30 43083 O 4292.98 5.88564 1.26 0
M  V30 43084 H 4296.8 3.01327 -0.378947 0
M  V30 43085 H 4294.39 1.47269 -0.251437 0
M  V30 43086 H 4296.27 3.72626 1.96795 0
M  V30 43087 H 4294.94 2.5314 2.01747 0
M  V30 43088 H 4293.85 3.74078 0.0407653 0
M  V30 43089 H 4295.18 4.92145 0.0733208 0
M  V30 43090 N 4296.84 0.223289 1.5601 0
M  V30 43091 C 4297.75 -0.697415 2.23994 0
M  V30 43092 C 4298.76 -1.21233 1.24815 0
M  V30 43093 O 4299.94 -1.25357 1.57631 0
M  V30 43094 C 4297 -1.88792 2.90789 0
M  V30 43095 C 4296.06 -1.41481 4.05317 0
M  V30 43096 C 4295.3 -2.54858 4.68917 0
M  V30 43097 O 4295.52 -3.73033 4.31512 0
M  V30 43098 O 4294.45 -2.2596 5.57876 0
M  V30 43099 H 4298.28 -0.14827 3.03338 0
M  V30 43100 H 4295.87 -0.0072321 1.49398 0
M  V30 43101 H 4297.75 -2.58314 3.32944 0
M  V30 43102 H 4296.42 -2.42513 2.14404 0
M  V30 43103 H 4295.33 -0.687558 3.67727 0
M  V30 43104 H 4296.66 -0.92396 4.8345 0
M  V30 43105 N 4298.31 -1.5752 -0.0500839 0
M  V30 43106 C 4299.56 -1.88574 -0.746167 0
M  V30 43107 C 4299.89 -0.8184 -1.76113 0
M  V30 43108 O 4299.17 0.168979 -1.93765 0
M  V30 43109 C 4299.45 -3.30286 -1.43468 0
M  V30 43110 C 4299.3 -4.47695 -0.434657 0
M  V30 43111 C 4300.62 -3.70572 -2.37412 0
M  V30 43112 H 4297.74 -0.685842 -0.269795 0
M  V30 43113 H 4300.38 -1.89998 -0.00909043 0
M  V30 43114 H 4298.53 -3.29203 -2.06295 0
M  V30 43115 H 4300.21 -4.60908 0.190073 0
M  V30 43116 H 4298.45 -4.3309 0.248066 0
M  V30 43117 H 4299.12 -5.43685 -0.954469 0
M  V30 43118 H 4301.6 -3.72887 -1.84646 0
M  V30 43119 H 4300.47 -4.70575 -2.82578 0
M  V30 43120 H 4300.73 -3.0168 -3.23175 0
M  V30 43121 N 4299.79 0.321945 -1.54277 0
M  V30 43122 C 4301.04 1.06127 -1.72815 0
M  V30 43123 C 4301.37 1.87619 -0.501255 0
M  V30 43124 O 4300.65 1.87916 0.501773 0
M  V30 43125 C 4300.93 1.98465 -3.00472 0
M  V30 43126 C 4300.78 1.20291 -4.33417 0
M  V30 43127 C 4302.1 2.97964 -3.23891 0
M  V30 43128 H 4299.22 0.384421 -0.6288 0
M  V30 43129 H 4301.86 0.337778 -1.86973 0
M  V30 43130 H 4300.01 2.60156 -2.88532 0
M  V30 43131 H 4301.68 0.610479 -4.57243 0
M  V30 43132 H 4299.93 0.505217 -4.30848 0
M  V30 43133 H 4300.6 1.88101 -5.18962 0
M  V30 43134 H 4303.07 2.46395 -3.35304 0
M  V30 43135 H 4301.95 3.59756 -4.14569 0
M  V30 43136 H 4302.21 3.70509 -2.41196 0
M  V30 43137 N 4301.27 1.46377 0.58409 0
M  V30 43138 C 4302.5 1.55421 1.37328 0
M  V30 43139 C 4302.92 0.195505 1.87081 0
M  V30 43140 O 4302.28 -0.824113 1.61487 0
M  V30 43141 C 4302.33 2.56185 2.53775 0
M  V30 43142 O 4301.43 2.09593 3.55168 0
M  V30 43143 H 4300.77 0.523056 0.409033 0
M  V30 43144 H 4303.3 1.91937 0.708621 0
M  V30 43145 H 4303.31 2.75749 3.0071 0
M  V30 43146 H 4301.99 3.54853 2.16914 0
M  V30 43147 H 4300.56 2.00011 3.14722 0
M  V30 43148 N 4302.75 -0.828607 1.34059 0
M  V30 43149 C 4303.68 -1.95419 1.27804 0
M  V30 43150 C 4304.66 -1.69378 0.156578 0
M  V30 43151 O 4305.85 -1.91056 0.348021 0
M  V30 43152 C 4302.98 -3.3177 1.02694 0
M  V30 43153 C 4301.93 -3.72236 2.11245 0
M  V30 43154 C 4301.26 -5.06507 1.71333 0
M  V30 43155 C 4302.56 -3.84933 3.53021 0
M  V30 43156 H 4304.25 -2.0091 2.21981 0
M  V30 43157 H 4301.8 -0.965235 1.06861 0
M  V30 43158 H 4303.75 -4.10093 0.969643 0
M  V30 43159 H 4302.47 -3.26562 0.0495788 0
M  V30 43160 H 4301.13 -2.96184 2.16034 0
M  V30 43161 H 4300.78 -4.97781 0.72272 0
M  V30 43162 H 4300.48 -5.34553 2.43981 0
M  V30 43163 H 4302 -5.87294 1.67088 0
M  V30 43164 H 4303.42 -4.53541 3.50675 0
M  V30 43165 H 4301.81 -4.24427 4.24243 0
M  V30 43166 H 4302.88 -2.87091 3.90777 0
M  V30 43167 N 4304.23 -1.17696 -1.04812 0
M  V30 43168 C 4305.46 -0.990923 -1.81285 0
M  V30 43169 C 4305.87 0.463986 -1.83422 0
M  V30 43170 O 4305.21 1.33401 -1.26293 0
M  V30 43171 C 4305.27 -1.46011 -3.28513 0
M  V30 43172 C 4304.93 -2.93791 -3.50051 0
M  V30 43173 C 4305.93 -3.91699 -3.41859 0
M  V30 43174 C 4303.62 -3.32053 -3.7689 0
M  V30 43175 C 4305.61 -5.25868 -3.60197 0
M  V30 43176 C 4303.3 -4.66386 -3.94876 0
M  V30 43177 C 4304.3 -5.63102 -3.86529 0
M  V30 43178 O 4303.98 -6.95005 -4.04009 0
M  V30 43179 H 4303.72 -0.350588 -0.577983 0
M  V30 43180 H 4306.27 -1.56494 -1.33037 0
M  V30 43181 H 4304.5 -0.829688 -3.77694 0
M  V30 43182 H 4306.19 -1.23915 -3.86523 0
M  V30 43183 H 4306.95 -3.63485 -3.21097 0
M  V30 43184 H 4302.83 -2.57339 -3.82489 0
M  V30 43185 H 4306.38 -6.01344 -3.53598 0
M  V30 43186 H 4302.27 -4.94304 -4.15131 0
M  V30 43187 H 4303.04 -7.01799 -4.21213 0
M  V30 43188 N 4305.71 1.23599 -0.977801 0
M  V30 43189 C 4306.65 2.26979 -0.508268 0
M  V30 43190 C 4307.65 1.63763 0.433377 0
M  V30 43191 O 4308.85 1.77353 0.307555 0
M  V30 43192 H 4305.23 0.737705 -0.145929 0
M  V30 43193 H 4307.2 2.63946 -1.39194 0
M  V30 43194 C 4305.95 3.47253 0.176231 0
M  V30 43195 H 4305.27 3.96147 -0.539255 0
M  V30 43196 H 4306.71 4.21404 0.468437 0
M  V30 43197 C 4305.17 3.06131 1.4066 0
M  V30 43198 O 4305.7 3.14185 2.50301 0
M  V30 43199 N 4303.91 2.61072 1.27631 0
M  V30 43200 H 4303.45 2.54719 0.384205 0
M  V30 43201 H 4303.41 2.33925 2.10063 0
M  V30 43202 N 4307.18 0.749135 1.38657 0
M  V30 43203 C 4308.43 0.303313 2.00216 0
M  V30 43204 C 4308.76 -1.11367 1.59461 0
M  V30 43205 O 4308.01 -1.77627 0.821409 0
M  V30 43206 C 4308.31 0.368715 3.55493 0
M  V30 43207 C 4307.98 1.74072 4.15945 0
M  V30 43208 C 4306.64 2.1162 4.32169 0
M  V30 43209 C 4308.99 2.64091 4.49339 0
M  V30 43210 C 4306.32 3.38669 4.79083 0
M  V30 43211 C 4308.67 3.90526 4.97667 0
M  V30 43212 C 4307.34 4.28149 5.12098 0
M  V30 43213 H 4306.61 0.11099 0.732641 0
M  V30 43214 H 4309.25 0.958745 1.65772 0
M  V30 43215 H 4307.56 -0.370286 3.90046 0
M  V30 43216 H 4309.26 0.00541284 4.01 0
M  V30 43217 H 4305.85 1.43882 4.03728 0
M  V30 43218 H 4310.03 2.36348 4.3641 0
M  V30 43219 H 4305.29 3.67744 4.88441 0
M  V30 43220 H 4309.46 4.60424 5.22477 0
M  V30 43221 H 4307.09 5.26658 5.48211 0
M  V30 43222 N 4308.66 -1.4953 0.49786 0
M  V30 43223 C 4309.57 -2.32839 -0.286885 0
M  V30 43224 C 4310.59 -1.44429 -0.970371 0
M  V30 43225 O 4311.76 -1.77455 -0.952447 0
M  V30 43226 C 4308.83 -3.1979 -1.33923 0
M  V30 43227 C 4307.89 -4.24047 -0.669513 0
M  V30 43228 C 4307.12 -5.06843 -1.67172 0
M  V30 43229 O 4307.35 -4.91106 -2.90123 0
M  V30 43230 O 4306.28 -5.89224 -1.22877 0
M  V30 43231 H 4310.11 -3.01121 0.394922 0
M  V30 43232 H 4307.69 -1.47134 0.259244 0
M  V30 43233 H 4309.57 -3.73664 -1.94816 0
M  V30 43234 H 4308.25 -2.54206 -2.00402 0
M  V30 43235 H 4307.15 -3.74094 -0.0209264 0
M  V30 43236 H 4308.49 -4.92177 -0.0472201 0
M  V30 43237 N 4310.14 -0.23156 -1.5589 0
M  V30 43238 C 4311.56 0.123626 -1.5912 0
M  V30 43239 C 4311.76 1.58158 -1.24853 0
M  V30 43240 O 4310.81 2.32345 -0.988532 0
M  V30 43241 C 4312.12 -0.211705 -2.99954 0
M  V30 43242 C 4313.67 -0.154754 -3.12617 0
M  V30 43243 C 4314.15 -0.463901 -4.55645 0
M  V30 43244 N 4315.64 -0.413838 -4.61348 0
M  V30 43245 C 4316.37 -0.626405 -5.69968 0
M  V30 43246 N 4315.87 -0.901282 -6.86912 0
M  V30 43247 N 4317.66 -0.558157 -5.59322 0
M  V30 43248 H 4309.81 -1.18253 -1.76437 0
M  V30 43249 H 4312.08 -0.474709 -0.820582 0
M  V30 43250 H 4311.78 -1.224 -3.29714 0
M  V30 43251 H 4311.66 0.468542 -3.74279 0
M  V30 43252 H 4314.04 0.848192 -2.82648 0
M  V30 43253 H 4314.12 -0.868627 -2.406 0
M  V30 43254 H 4313.77 -1.46433 -4.86333 0
M  V30 43255 H 4313.7 0.271276 -5.25901 0
M  V30 43256 H 4316.19 -0.209485 -3.77319 0
M  V30 43257 H 4316.5 -1.05131 -7.65616 0
M  V30 43258 H 4314.85 -0.938588 -6.88633 0
M  V30 43259 H 4318.04 -0.343569 -4.66837 0
M  V30 43260 H 4318.21 -0.727222 -6.43906 0
M  V30 43261 N 4311.62 1.57545 0.0417295 0
M  V30 43262 C 4312.85 1.92937 0.747181 0
M  V30 43263 C 4313.26 0.830239 1.69566 0
M  V30 43264 O 4312.62 -0.194331 1.81462 0
M  V30 43265 C 4312.67 3.28216 1.51514 0
M  V30 43266 O 4312.39 4.33906 0.604749 0
M  V30 43267 C 4313.89 3.77813 2.31889 0
M  V30 43268 H 4311.11 0.637046 0.210744 0
M  V30 43269 H 4313.65 2.045 0.00302902 0
M  V30 43270 H 4311.81 3.1809 2.21128 0
M  V30 43271 H 4312.22 5.11918 1.14196 0
M  V30 43272 H 4313.7 4.75014 2.81186 0
M  V30 43273 H 4314.17 3.08354 3.12753 0
M  V30 43274 H 4314.78 3.90981 1.67373 0
M  V30 43275 N 4313.1 -0.313759 1.54445 0
M  V30 43276 C 4314.34 -1.05053 1.73119 0
M  V30 43277 C 4314.67 -1.87692 0.510111 0
M  V30 43278 O 4313.93 -1.8899 -0.508076 0
M  V30 43279 C 4314.22 -1.99563 2.96495 0
M  V30 43280 C 4313.89 -1.33002 4.30838 0
M  V30 43281 C 4312.55 -1.14581 4.67359 0
M  V30 43282 C 4314.9 -0.853126 5.1417 0
M  V30 43283 C 4312.23 -0.471344 5.84804 0
M  V30 43284 C 4314.58 -0.192438 6.32307 0
M  V30 43285 C 4313.25 0.00383907 6.675 0
M  V30 43286 H 4312.52 -0.384417 0.633486 0
M  V30 43287 H 4315.17 -0.326673 1.88693 0
M  V30 43288 H 4313.47 -2.78434 2.75648 0
M  V30 43289 H 4315.17 -2.56617 3.08137 0
M  V30 43290 H 4311.76 -1.48344 4.02109 0
M  V30 43291 H 4315.94 -0.983198 4.86464 0
M  V30 43292 H 4311.2 -0.308167 6.10623 0
M  V30 43293 H 4315.37 0.185048 6.96154 0
M  V30 43294 H 4313 0.528484 7.58361 0
M  V30 43295 N 4314.57 -1.46684 -0.576319 0
M  V30 43296 C 4315.51 -1.53771 -1.69962 0
M  V30 43297 C 4316.52 -0.425489 -1.57141 0
M  V30 43298 O 4317.71 -0.694171 -1.64449 0
M  V30 43299 C 4314.81 -1.40793 -3.0827 0
M  V30 43300 C 4313.98 -2.66248 -3.47032 0
M  V30 43301 C 4313.04 -2.47378 -4.64425 0
M  V30 43302 O 4312.07 -3.21126 -4.69965 0
M  V30 43303 N 4313.27 -1.53958 -5.59712 0
M  V30 43304 H 4316.03 -2.50627 -1.64335 0
M  V30 43305 H 4313.59 -1.42822 -0.76247 0
M  V30 43306 H 4315.59 -1.25932 -3.84608 0
M  V30 43307 H 4314.16 -0.520937 -3.08229 0
M  V30 43308 H 4313.38 -2.96006 -2.60335 0
M  V30 43309 H 4314.66 -3.49573 -3.69697 0
M  V30 43310 H 4314.06 -0.931563 -5.57977 0
M  V30 43311 H 4312.62 -1.45057 -6.35454 0
M  V30 43312 N 4316.05 0.821486 -1.34497 0
M  V30 43313 C 4316.98 1.94738 -1.28838 0
M  V30 43314 C 4317.96 1.69292 -0.165558 0
M  V30 43315 O 4319.15 1.90869 -0.358148 0
M  V30 43316 C 4316.28 3.31221 -1.04452 0
M  V30 43317 C 4315.23 3.71111 -2.13216 0
M  V30 43318 C 4314.56 5.05591 -1.74016 0
M  V30 43319 C 4315.86 3.83056 -3.55057 0
M  V30 43320 H 4317.55 1.9973 -2.23043 0
M  V30 43321 H 4315.1 0.959554 -1.07371 0
M  V30 43322 H 4317.05 4.09573 -0.991378 0
M  V30 43323 H 4315.77 3.26531 -0.0668965 0
M  V30 43324 H 4314.43 2.95034 -2.17602 0
M  V30 43325 H 4314.08 4.97391 -0.749108 0
M  V30 43326 H 4313.78 5.33252 -2.46813 0
M  V30 43327 H 4315.31 5.86399 -1.702 0
M  V30 43328 H 4316.72 4.51675 -3.53076 0
M  V30 43329 H 4315.12 4.22171 -4.26487 0
M  V30 43330 H 4316.19 2.85015 -3.92294 0
M  V30 43331 N 4317.53 1.1825 1.04186 0
M  V30 43332 C 4318.81 0.886788 1.74343 0
M  V30 43333 C 4319.19 -0.61064 2.02075 0
M  V30 43334 O 4318.54 -1.56499 1.66495 0
M  V30 43335 C 4318.75 1.73272 3.02949 0
M  V30 43336 C 4320.09 1.95898 3.76708 0
M  V30 43337 O 4321.12 1.70315 3.12844 0
M  V30 43338 O 4319.98 2.38958 4.91489 0
M  V30 43339 H 4317.07 0.329301 0.75861 0
M  V30 43340 H 4319.62 1.28997 1.10263 0
M  V30 43341 H 4318.39 2.74787 2.78582 0
M  V30 43342 H 4318.01 1.32797 3.74768 0
M  V30 43343 N 4319.01 -1.23079 0.984342 0
M  V30 43344 C 4320.24 -1.95629 0.67357 0
M  V30 43345 C 4320.65 -1.72819 -0.760191 0
M  V30 43346 O 4320.01 -1.02201 -1.51199 0
M  V30 43347 C 4320.06 -3.48538 0.959344 0
M  V30 43348 O 4319.78 -3.70577 2.33676 0
M  V30 43349 C 4321.28 -4.38283 0.665075 0
M  V30 43350 H 4318.5 -0.622736 0.249882 0
M  V30 43351 H 4321.05 -1.56463 1.31679 0
M  V30 43352 H 4319.2 -3.85704 0.362065 0
M  V30 43353 H 4319.61 -4.64841 2.42946 0
M  V30 43354 H 4321.09 -5.44357 0.915366 0
M  V30 43355 H 4321.57 -4.37367 -0.400884 0
M  V30 43356 H 4322.17 -4.0673 1.24301 0
M  V30 43357 N 4320.49 -0.756478 -1.38258 0
M  V30 43358 C 4321.45 -0.138932 -2.28779 0
M  V30 43359 C 4322.45 0.644423 -1.47322 0
M  V30 43360 O 4323.64 0.470263 -1.67732 0
M  V30 43361 C 4320.77 0.811477 -3.31101 0
M  V30 43362 H 4321.96 -0.936701 -2.84896 0
M  V30 43363 H 4319.52 -0.523676 -1.47266 0
M  V30 43364 H 4320.25 1.63482 -2.80079 0
M  V30 43365 H 4320.04 0.25213 -3.91289 0
M  V30 43366 H 4321.53 1.23946 -3.98782 0
M  V30 43367 N 4321.96 1.49264 -0.505783 0
M  V30 43368 C 4323.21 2.02766 0.0370912 0
M  V30 43369 C 4323.54 1.38429 1.36202 0
M  V30 43370 O 4322.82 0.521615 1.87375 0
M  V30 43371 C 4323.1 3.59626 0.184616 0
M  V30 43372 C 4322.95 4.34484 -1.16378 0
M  V30 43373 C 4324.27 4.30313 0.922986 0
M  V30 43374 H 4321.39 0.736902 0.0120056 0
M  V30 43375 H 4324.03 1.78238 -0.658122 0
M  V30 43376 H 4322.18 3.80656 0.776744 0
M  V30 43377 H 4323.86 4.24938 -1.79515 0
M  V30 43378 H 4322.1 3.96853 -1.75185 0
M  V30 43379 H 4322.77 5.4261 -1.01381 0
M  V30 43380 H 4325.25 4.13967 0.42075 0
M  V30 43381 H 4324.12 5.39805 0.995061 0
M  V30 43382 H 4324.38 3.95891 1.96781 0
M  V30 43383 N 4323.44 0.239823 1.55765 0
M  V30 43384 C 4324.72 -0.436843 1.90659 0
M  V30 43385 C 4325.1 -1.76396 1.15964 0
M  V30 43386 O 4324.45 -2.26841 0.274817 0
M  V30 43387 C 4324.66 -0.611879 3.43594 0
M  V30 43388 C 4326.01 -0.910992 4.14712 0
M  V30 43389 O 4327.03 -0.698002 3.49294 0
M  V30 43390 O 4325.89 -1.31621 5.30413 0
M  V30 43391 H 4322.98 -0.233497 0.793353 0
M  V30 43392 H 4325.53 0.283365 1.67317 0
M  V30 43393 H 4324.3 0.323493 3.89961 0
M  V30 43394 H 4323.92 -1.38289 3.72776 0
M  V30 43395 N 4324.92 -1.57565 -0.0333739 0
M  V30 43396 C 4326.34 -1.54788 -0.388943 0
M  V30 43397 C 4326.54 -0.965368 -1.7687 0
M  V30 43398 O 4325.59 -0.584535 -2.45641 0
M  V30 43399 C 4326.91 -2.99252 -0.294747 0
M  V30 43400 C 4328.45 -3.1078 -0.372144 0
M  V30 43401 C 4328.93 -4.56967 -0.307443 0
M  V30 43402 N 4330.42 -4.61749 -0.366369 0
M  V30 43403 C 4331.15 -5.72396 -0.339128 0
M  V30 43404 N 4330.65 -6.92295 -0.264432 0
M  V30 43405 N 4332.44 -5.60756 -0.388539 0
M  V30 43406 H 4324.59 -1.93782 0.869616 0
M  V30 43407 H 4326.86 -0.888618 0.330246 0
M  V30 43408 H 4326.56 -3.4558 0.653238 0
M  V30 43409 H 4326.44 -3.61105 -1.09009 0
M  V30 43410 H 4328.82 -2.64402 -1.31056 0
M  V30 43411 H 4328.91 -2.51766 0.452475 0
M  V30 43412 H 4328.55 -5.04011 0.627287 0
M  V30 43413 H 4328.48 -5.13887 -1.15011 0
M  V30 43414 H 4330.97 -3.75482 -0.426787 0
M  V30 43415 H 4331.28 -7.724 -0.248628 0
M  V30 43416 H 4329.63 -6.94618 -0.230544 0
M  V30 43417 H 4332.82 -4.65981 -0.444855 0
M  V30 43418 H 4332.99 -6.46978 -0.363841 0
M  V30 43419 N 4326.4 0.305564 -1.54609 0
M  V30 43420 C 4327.81 0.878859 -1.64721 0
M  V30 43421 C 4328.16 1.88248 -0.552901 0
M  V30 43422 O 4327.29 2.1415 0.311237 0
M  V30 43423 C 4327.88 1.60082 -2.98595 0
M  V30 43424 C 4326.44 2.12258 -3.10843 0
M  V30 43425 C 4325.59 0.953777 -2.60381 0
M  V30 43426 H 4328.54 0.0826795 -1.58484 0
M  V30 43427 H 4328.56 2.46612 -2.89763 0
M  V30 43428 H 4328.07 0.870118 -3.7822 0
M  V30 43429 H 4326.17 2.88389 -2.35929 0
M  V30 43430 H 4326.28 2.36024 -4.16929 0
M  V30 43431 H 4324.65 1.33806 -2.16721 0
M  V30 43432 H 4325.43 0.237106 -3.4248 0
M  V30 43433 N 4327.88 1.46988 0.568532 0
M  V30 43434 C 4329.12 1.546 1.33709 0
M  V30 43435 C 4329.48 0.198807 1.90968 0
M  V30 43436 O 4330.68 0.149728 2.68383 0
M  V30 43437 C 4328.95 2.62462 2.42587 0
M  V30 43438 S 4330.51 2.89579 3.29681 0
M  V30 43439 H 4327.33 0.546056 0.45535 0
M  V30 43440 H 4329.93 1.84304 0.652088 0
M  V30 43441 H 4328.64 3.5896 1.98937 0
M  V30 43442 H 4328.17 2.34536 3.15842 0
M  V30 43443 H 4330.18 2.2593 4.41781 0
M  V30 43444 N 4329.35 -0.814342 1.3493 0
M  V30 43445 C 4330.32 -1.90733 1.27096 0
M  V30 43446 C 4331.32 -1.59742 0.184173 0
M  V30 43447 O 4332.51 -1.6862 0.437367 0
M  V30 43448 C 4329.64 -3.26977 0.964312 0
M  V30 43449 H 4330.83 -1.99101 2.24274 0
M  V30 43450 H 4328.39 -1.00931 1.19342 0
M  V30 43451 H 4329.12 -3.243 -0.00393249 0
M  V30 43452 H 4328.91 -3.50856 1.75051 0
M  V30 43453 H 4330.4 -4.07001 0.934897 0
M  V30 43454 N 4330.83 -1.18801 -1.03557 0
M  V30 43455 C 4332.25 -0.938783 -1.2907 0
M  V30 43456 C 4332.45 0.392725 -1.97636 0
M  V30 43457 O 4331.5 1.12585 -2.26011 0
M  V30 43458 C 4332.82 -2.108 -2.14438 0
M  V30 43459 C 4334.37 -2.14688 -2.27768 0
M  V30 43460 C 4334.84 -3.31042 -3.16505 0
M  V30 43461 N 4336.33 -3.30935 -3.24093 0
M  V30 43462 C 4337.07 -4.1761 -3.92925 0
M  V30 43463 N 4336.56 -5.14427 -4.64044 0
M  V30 43464 N 4338.36 -4.05507 -3.89256 0
M  V30 43465 H 4330.51 -2.04479 -0.574624 0
M  V30 43466 H 4332.77 -0.893746 -0.316103 0
M  V30 43467 H 4332.48 -3.07124 -1.7137 0
M  V30 43468 H 4332.35 -2.07296 -3.15132 0
M  V30 43469 H 4334.74 -1.18939 -2.70069 0
M  V30 43470 H 4334.82 -2.22248 -1.26647 0
M  V30 43471 H 4334.46 -4.27066 -2.74914 0
M  V30 43472 H 4334.39 -3.20718 -4.17669 0
M  V30 43473 H 4336.88 -2.60848 -2.73435 0
M  V30 43474 H 4337.2 -5.76925 -5.14177 0
M  V30 43475 H 4335.54 -5.18381 -4.62932 0
M  V30 43476 H 4338.73 -3.29153 -3.3283 0
M  V30 43477 H 4338.9 -4.73271 -4.42627 0
M  V30 43478 N 4332.31 1.22555 -0.990855 0
M  V30 43479 C 4333.54 1.95809 -0.68363 0
M  V30 43480 C 4333.96 1.72727 0.744778 0
M  V30 43481 O 4333.32 1.00521 1.50882 0
M  V30 43482 C 4333.37 3.46666 -0.992726 0
M  V30 43483 O 4332.47 4.12301 -0.0903086 0
M  V30 43484 H 4331.81 0.612639 -0.256064 0
M  V30 43485 H 4334.34 1.55706 -1.32728 0
M  V30 43486 H 4334.35 3.97172 -0.933723 0
M  V30 43487 H 4333.03 3.62792 -2.0336 0
M  V30 43488 H 4331.6 3.72338 -0.204619 0
M  V30 43489 N 4333.79 0.763799 1.37855 0
M  V30 43490 C 4334.74 0.142904 2.30357 0
M  V30 43491 C 4335.71 -0.698522 1.50698 0
M  V30 43492 O 4336.89 -0.652535 1.79295 0
M  V30 43493 C 4334.03 -0.736409 3.37151 0
M  V30 43494 C 4333.14 0.120756 4.31831 0
M  V30 43495 C 4332.28 -0.762517 5.25699 0
M  V30 43496 C 4331.32 0.0976648 6.12022 0
M  V30 43497 N 4330.46 -0.743138 6.98156 0
M  V30 43498 H 4335.3 0.937285 2.82876 0
M  V30 43499 H 4332.83 0.473822 1.3926 0
M  V30 43500 H 4334.79 -1.26095 3.97688 0
M  V30 43501 H 4333.42 -1.49647 2.86017 0
M  V30 43502 H 4332.47 0.76303 3.72669 0
M  V30 43503 H 4333.78 0.784614 4.9259 0
M  V30 43504 H 4332.94 -1.35384 5.91402 0
M  V30 43505 H 4331.68 -1.46008 4.65331 0
M  V30 43506 H 4330.68 0.701586 5.45305 0
M  V30 43507 H 4331.91 0.792441 6.74461 0
M  V30 43508 H 4329.85 -1.42546 6.40325 0
M  V30 43509 H 4329.77 -0.136402 7.55877 0
M  V30 43510 H 4331.04 -1.31911 7.68258 0
M  V30 43511 N 4335.27 -1.48993 0.513692 0
M  V30 43512 C 4336.49 -2.07385 -0.0248611 0
M  V30 43513 C 4336.92 -1.3699 -1.28901 0
M  V30 43514 O 4336.28 -0.430619 -1.76112 0
M  V30 43515 C 4336.32 -3.59742 -0.248571 0
M  V30 43516 O 4335.43 -3.90681 -1.32069 0
M  V30 43517 H 4334.77 -0.663235 0.0318682 0
M  V30 43518 H 4337.3 -1.91627 0.716946 0
M  V30 43519 H 4337.31 -4.05211 -0.47622 0
M  V30 43520 H 4335.98 -4.10386 0.674971 0
M  V30 43521 H 4334.56 -3.57009 -1.07699 0
M  V30 43522 N 4336.75 -0.248081 -1.55635 0
M  V30 43523 C 4337.97 0.380445 -2.03372 0
M  V30 43524 C 4338.39 1.51451 -1.1273 0
M  V30 43525 O 4337.75 1.81947 -0.141961 0
M  V30 43526 C 4337.8 0.887116 -3.50446 0
M  V30 43527 O 4337.52 -0.201757 -4.37635 0
M  V30 43528 C 4339.02 1.58621 -4.1395 0
M  V30 43529 H 4336.24 0.0902642 -0.664901 0
M  V30 43530 H 4338.78 -0.372288 -2.01083 0
M  V30 43531 H 4336.94 1.59002 -3.53266 0
M  V30 43532 H 4337.35 0.183176 -5.2418 0
M  V30 43533 H 4338.83 1.89244 -5.18547 0
M  V30 43534 H 4339.3 2.50858 -3.60509 0
M  V30 43535 H 4339.91 0.927844 -4.15056 0
M  V30 43536 N 4338.22 1.5758 0.0250174 0
M  V30 43537 C 4339.47 1.89082 0.7136 0
M  V30 43538 C 4339.79 0.846289 1.75679 0
M  V30 43539 O 4339.06 -0.119578 1.95535 0
M  V30 43540 H 4337.64 0.697824 0.266554 0
M  V30 43541 H 4340.3 1.94897 -0.00998927 0
M  V30 43542 H 4339.4 2.88082 1.20063 0
M  V30 43543 N 4339.7 -0.29736 1.54769 0
M  V30 43544 C 4340.98 -1.05193 1.64906 0
M  V30 43545 C 4341.36 -2.05101 0.499694 0
M  V30 43546 O 4340.71 -2.22891 -0.503163 0
M  V30 43547 C 4340.92 -1.73053 3.03074 0
M  V30 43548 C 4342.26 -2.25116 3.60011 0
M  V30 43549 O 4343.29 -1.8308 3.05549 0
M  V30 43550 O 4342.15 -3.0215 4.55377 0
M  V30 43551 H 4339.24 -0.486433 0.668814 0
M  V30 43552 H 4341.79 -0.295158 1.67113 0
M  V30 43553 H 4340.56 -1.00527 3.78167 0
M  V30 43554 H 4340.18 -2.55477 3.04659 0
M  V30 43555 N 4341.18 -1.47287 -0.560729 0
M  V30 43556 C 4342.59 -1.47633 -1.14286 0
M  V30 43557 C 4342.94 -0.229098 -1.94858 0
M  V30 43558 O 4342.07 0.666256 -2.05888 0
M  V30 43559 C 4342.66 -2.67491 -2.07928 0
M  V30 43560 C 4341.22 -2.70807 -2.6142 0
M  V30 43561 C 4340.37 -2.40679 -1.37728 0
M  V30 43562 H 4343.32 -1.54848 -0.34751 0
M  V30 43563 H 4343.34 -2.44261 -2.91748 0
M  V30 43564 H 4342.85 -3.58251 -1.49259 0
M  V30 43565 H 4340.95 -1.84178 -3.23897 0
M  V30 43566 H 4341.07 -3.71399 -3.02654 0
M  V30 43567 H 4339.43 -1.91189 -1.68282 0
M  V30 43568 H 4340.21 -3.33642 -0.808568 0
M  V30 43569 N 4342.66 0.807175 -1.3536 0
M  V30 43570 C 4343.9 1.566 -1.29799 0
M  V30 43571 C 4344.26 1.91982 0.126718 0
M  V30 43572 O 4343.55 1.58468 1.07696 0
M  V30 43573 C 4343.75 2.86436 -2.1375 0
M  V30 43574 C 4343.57 2.6374 -3.64241 0
M  V30 43575 C 4342.34 2.59665 -4.33477 0
M  V30 43576 C 4344.54 2.34159 -4.57902 0
M  V30 43577 N 4342.52 2.2868 -5.69718 0
M  V30 43578 C 4343.9 2.13008 -5.82261 0
M  V30 43579 C 4345.95 2.20018 -4.46651 0
M  V30 43580 C 4344.65 1.79146 -6.96634 0
M  V30 43581 C 4346.68 1.87553 -5.60872 0
M  V30 43582 C 4346.04 1.67236 -6.8426 0
M  V30 43583 H 4342.14 0.574791 -0.530226 0
M  V30 43584 H 4344.72 0.944878 -1.70236 0
M  V30 43585 H 4342.9 3.46445 -1.75586 0
M  V30 43586 H 4344.63 3.5199 -1.99713 0
M  V30 43587 H 4341.38 2.74293 -3.86083 0
M  V30 43588 H 4341.81 2.15983 -6.41623 0
M  V30 43589 H 4346.45 2.34423 -3.5186 0
M  V30 43590 H 4344.17 1.63478 -7.91391 0
M  V30 43591 H 4347.75 1.7732 -5.5412 0
M  V30 43592 H 4346.63 1.42482 -7.71148 0
M  V30 43593 N 4344.14 1.19348 1.02926 0
M  V30 43594 C 4345.07 0.954565 2.13097 0
M  V30 43595 C 4346.05 -0.111935 1.69731 0
M  V30 43596 O 4347.23 0.0430059 1.94152 0
M  V30 43597 C 4344.36 0.492016 3.43797 0
M  V30 43598 C 4343.32 1.50031 4.00843 0
M  V30 43599 C 4342.64 0.894851 5.27159 0
M  V30 43600 C 4343.94 2.88042 4.35694 0
M  V30 43601 H 4345.64 1.87596 2.33341 0
M  V30 43602 H 4343.18 0.903386 1.12138 0
M  V30 43603 H 4345.13 0.312169 4.20242 0
M  V30 43604 H 4343.86 -0.464973 3.23273 0
M  V30 43605 H 4342.52 1.66729 3.26492 0
M  V30 43606 H 4342.17 -0.0696784 5.02952 0
M  V30 43607 H 4341.87 1.56815 5.66289 0
M  V30 43608 H 4343.39 0.725791 6.06271 0
M  V30 43609 H 4344.8 2.74929 5.03078 0
M  V30 43610 H 4343.2 3.52161 4.85904 0
M  V30 43611 H 4344.27 3.40726 3.45013 0
M  V30 43612 N 4345.61 -1.22028 0.997341 0
M  V30 43613 C 4346.84 -1.94903 0.694281 0
M  V30 43614 C 4347.26 -1.73616 -0.741819 0
M  V30 43615 O 4346.61 -1.03799 -1.50107 0
M  V30 43616 C 4346.66 -3.47501 0.996257 0
M  V30 43617 O 4346.39 -3.68078 2.37593 0
M  V30 43618 C 4347.89 -4.37553 0.711523 0
M  V30 43619 H 4345.11 -0.62005 0.256473 0
M  V30 43620 H 4347.65 -1.55058 1.33332 0
M  V30 43621 H 4345.81 -3.85299 0.402953 0
M  V30 43622 H 4346.22 -4.62239 2.47862 0
M  V30 43623 H 4347.69 -5.43356 0.973051 0
M  V30 43624 H 4348.17 -4.37767 -0.354473 0
M  V30 43625 H 4348.78 -4.05389 1.28608 0
M  V30 43626 N 4347.09 -0.771099 -1.37448 0
M  V30 43627 C 4348.37 -0.259885 -1.93866 0
M  V30 43628 C 4348.75 1.24495 -1.70482 0
M  V30 43629 O 4348.1 2.02778 -1.05325 0
M  V30 43630 C 4348.31 -0.63257 -3.43219 0
M  V30 43631 C 4349.66 -0.601999 -4.20311 0
M  V30 43632 O 4350.68 -0.571921 -3.51579 0
M  V30 43633 O 4349.54 -0.6285 -5.42874 0
M  V30 43634 H 4346.63 -0.0597067 -0.824842 0
M  V30 43635 H 4349.18 -0.852408 -1.46738 0
M  V30 43636 H 4347.95 -1.67116 -3.53819 0
M  V30 43637 H 4347.57 -0.0129603 -3.97598 0
M  V30 43638 N 4348.57 1.48719 -0.521586 0
M  V30 43639 C 4349.82 2.02094 0.0155293 0
M  V30 43640 C 4350.14 1.40171 1.35562 0
M  V30 43641 O 4349.41 0.564144 1.87601 0
M  V30 43642 H 4347.99 0.746949 0.00872778 0
M  V30 43643 H 4350.65 1.82522 -0.68351 0
M  V30 43644 H 4349.75 3.11829 0.130058 0
M  V30 43645 N 4350.05 0.256331 1.55501 0
M  V30 43646 C 4351.27 -0.372588 2.04026 0
M  V30 43647 C 4351.7 -1.50065 1.13411 0
M  V30 43648 O 4351.06 -1.80841 0.12892 0
M  V30 43649 C 4351.1 -0.848844 3.50467 0
M  V30 43650 O 4350.21 -1.95768 3.62972 0
M  V30 43651 H 4349.55 -0.0799027 0.659175 0
M  V30 43652 H 4352.08 0.385144 2.00942 0
M  V30 43653 H 4352.09 -1.14958 3.9147 0
M  V30 43654 H 4350.76 -0.0234055 4.15893 0
M  V30 43655 H 4349.34 -1.66092 3.33868 0
M  V30 43656 N 4351.53 -1.57591 -0.0166602 0
M  V30 43657 C 4352.76 -1.9382 -0.715353 0
M  V30 43658 C 4353.16 -0.855553 -1.68751 0
M  V30 43659 O 4352.51 0.17567 -1.82858 0
M  V30 43660 C 4352.57 -3.25933 -1.51683 0
M  V30 43661 C 4352.23 -4.51481 -0.708097 0
M  V30 43662 C 4353.23 -5.199 -0.00297061 0
M  V30 43663 C 4350.92 -4.97959 -0.658978 0
M  V30 43664 C 4352.91 -6.33085 0.740441 0
M  V30 43665 C 4350.6 -6.11036 0.0881702 0
M  V30 43666 C 4351.59 -6.78455 0.786628 0
M  V30 43667 O 4351.28 -7.89368 1.52162 0
M  V30 43668 H 4351.01 -0.644071 -0.2053 0
M  V30 43669 H 4353.57 -2.05384 0.0255277 0
M  V30 43670 H 4351.8 -3.1073 -2.30182 0
M  V30 43671 H 4353.49 -3.47396 -2.0993 0
M  V30 43672 H 4354.25 -4.8499 -0.031871 0
M  V30 43673 H 4350.13 -4.45319 -1.19214 0
M  V30 43674 H 4353.68 -6.85641 1.28615 0
M  V30 43675 H 4349.57 -6.4539 0.11895 0
M  V30 43676 H 4350.34 -8.05794 1.43659 0
M  V30 43677 N 4353 0.289148 -1.54925 0
M  V30 43678 C 4353.93 1.36149 -1.89699 0
M  V30 43679 C 4354.92 1.52322 -0.757108 0
M  V30 43680 O 4356.1 1.65633 -1.01387 0
M  V30 43681 C 4353.23 2.72376 -2.15473 0
M  V30 43682 C 4352.18 2.70955 -3.31312 0
M  V30 43683 C 4351.51 4.10582 -3.4253 0
M  V30 43684 C 4352.81 2.31647 -4.68121 0
M  V30 43685 H 4354.5 1.07294 -2.79514 0
M  V30 43686 H 4352.05 0.5147 -1.34487 0
M  V30 43687 H 4354 3.47491 -2.38386 0
M  V30 43688 H 4352.73 3.0278 -1.2244 0
M  V30 43689 H 4351.39 1.98296 -3.08341 0
M  V30 43690 H 4351.03 4.38182 -2.46992 0
M  V30 43691 H 4350.73 4.10529 -4.20404 0
M  V30 43692 H 4352.26 4.8746 -3.67717 0
M  V30 43693 H 4353.67 2.96481 -4.90685 0
M  V30 43694 H 4352.07 2.42786 -5.48794 0
M  V30 43695 H 4353.14 1.26773 -4.68035 0
M  V30 43696 N 4354.48 1.47583 0.55291 0
M  V30 43697 C 4355.76 1.44911 1.31378 0
M  V30 43698 C 4356.14 0.14836 2.10578 0
M  V30 43699 O 4355.49 -0.87013 2.11284 0
M  V30 43700 C 4355.7 2.69729 2.21467 0
M  V30 43701 C 4357.05 3.1712 2.82348 0
M  V30 43702 O 4358.07 2.70486 2.31767 0
M  V30 43703 O 4356.93 3.98203 3.74295 0
M  V30 43704 H 4354.02 0.577682 0.591787 0
M  V30 43705 H 4356.57 1.59789 0.571458 0
M  V30 43706 H 4355.34 3.55929 1.62573 0
M  V30 43707 H 4354.96 2.57458 3.02987 0
M  V30 43708 N 4355.96 -0.799985 1.35787 0
M  V30 43709 C 4357.21 -1.55431 1.29172 0
M  V30 43710 C 4357.53 -1.94555 -0.131731 0
M  V30 43711 O 4356.8 -1.6412 -1.06965 0
M  V30 43712 H 4355.38 -0.576409 0.475144 0
M  V30 43713 H 4358.04 -0.953842 1.69964 0
M  V30 43714 H 4357.14 -2.46673 1.91204 0
M  V30 43715 N 4357.44 -1.19892 -1.02292 0
M  V30 43716 C 4358.67 -1.03065 -1.79403 0
M  V30 43717 C 4359.08 0.420396 -1.8406 0
M  V30 43718 O 4358.44 1.29196 -1.28898 0
M  V30 43719 C 4358.49 -1.59985 -3.24171 0
M  V30 43720 O 4358.21 -2.9941 -3.1982 0
M  V30 43721 C 4359.71 -1.48023 -4.17857 0
M  V30 43722 H 4356.93 -0.362912 -0.56439 0
M  V30 43723 H 4359.48 -1.5884 -1.28802 0
M  V30 43724 H 4357.63 -1.08344 -3.71941 0
M  V30 43725 H 4358.04 -3.26303 -4.10642 0
M  V30 43726 H 4359.52 -1.9262 -5.17302 0
M  V30 43727 H 4360 -0.431695 -4.37073 0
M  V30 43728 H 4360.6 -1.98824 -3.75964 0
M  V30 43729 N 4358.92 1.21498 -1.0038 0
M  V30 43730 C 4360.16 1.90157 -0.684459 0
M  V30 43731 C 4360.49 1.78409 0.787101 0
M  V30 43732 O 4359.76 1.17822 1.56508 0
M  V30 43733 H 4358.34 0.703862 -0.250176 0
M  V30 43734 H 4361 1.47613 -1.27265 0
M  V30 43735 H 4360.09 2.9708 -0.956565 0
M  V30 43736 N 4360.39 0.778378 1.37037 0
M  V30 43737 C 4361.64 0.345713 1.99527 0
M  V30 43738 C 4361.97 -1.07959 1.61787 0
M  V30 43739 O 4361.22 -1.75845 0.858901 0
M  V30 43740 C 4361.52 0.444037 3.54631 0
M  V30 43741 C 4361.19 1.82855 4.12159 0
M  V30 43742 C 4359.85 2.2074 4.27583 0
M  V30 43743 C 4362.2 2.73562 4.43636 0
M  V30 43744 C 4359.53 3.48755 4.71791 0
M  V30 43745 C 4361.88 4.00994 4.89271 0
M  V30 43746 C 4360.55 4.38915 5.02901 0
M  V30 43747 H 4359.82 0.126505 0.730121 0
M  V30 43748 H 4362.46 0.993692 1.63701 0
M  V30 43749 H 4360.77 -0.287468 3.90744 0
M  V30 43750 H 4362.47 0.0904696 4.00898 0
M  V30 43751 H 4359.06 1.52413 4.00585 0
M  V30 43752 H 4363.24 2.45551 4.31298 0
M  V30 43753 H 4358.5 3.78021 4.80531 0
M  V30 43754 H 4362.67 4.71403 5.12593 0
M  V30 43755 H 4360.3 5.38168 5.36916 0
M  V30 43756 N 4361.87 -1.4844 0.529465 0
M  V30 43757 C 4362.84 -2.28114 -0.222844 0
M  V30 43758 C 4363.84 -1.35345 -0.868244 0
M  V30 43759 O 4365.03 -1.58241 -0.728375 0
M  V30 43760 C 4362.16 -3.14204 -1.32244 0
M  V30 43761 H 4363.35 -2.96088 0.476668 0
M  V30 43762 H 4360.9 -1.53672 0.285387 0
M  V30 43763 H 4361.64 -2.50861 -2.05522 0
M  V30 43764 H 4361.42 -3.82445 -0.864786 0
M  V30 43765 H 4362.91 -3.74306 -1.85161 0
M  V30 43766 N 4363.35 -0.264574 -1.55363 0
M  V30 43767 C 4364.77 0.0898463 -1.59347 0
M  V30 43768 C 4364.97 1.55474 -1.2818 0
M  V30 43769 O 4364.02 2.30196 -1.03759 0
M  V30 43770 C 4365.34 -0.275282 -2.99437 0
M  V30 43771 C 4366.88 -0.22103 -3.12219 0
M  V30 43772 C 4367.36 -0.560446 -4.54558 0
M  V30 43773 N 4368.85 -0.511603 -4.60366 0
M  V30 43774 C 4369.59 -0.747163 -5.68511 0
M  V30 43775 N 4369.08 -1.04678 -6.84846 0
M  V30 43776 N 4370.87 -0.676672 -5.58012 0
M  V30 43777 H 4363.03 -1.21969 -1.73889 0
M  V30 43778 H 4365.29 -0.492008 -0.810328 0
M  V30 43779 H 4364.99 -1.29366 -3.27043 0
M  V30 43780 H 4364.87 0.389047 -3.75188 0
M  V30 43781 H 4367.26 0.788047 -2.84383 0
M  V30 43782 H 4367.34 -0.919466 -2.38704 0
M  V30 43783 H 4366.98 -1.56716 -4.83117 0
M  V30 43784 H 4366.91 0.159664 -5.26358 0
M  V30 43785 H 4369.4 -0.289473 -3.7679 0
M  V30 43786 H 4369.71 -1.21347 -7.63213 0
M  V30 43787 H 4368.06 -1.08445 -6.86487 0
M  V30 43788 H 4371.25 -0.442515 -4.66004 0
M  V30 43789 H 4371.42 -0.86364 -6.42219 0
M  V30 43790 N 4364.83 1.57598 0.00830251 0
M  V30 43791 C 4366.08 1.89384 0.694027 0
M  V30 43792 C 4366.39 0.865782 1.75395 0
M  V30 43793 O 4367.6 1.07357 2.49373 0
M  V30 43794 C 4366.05 3.36157 1.28556 0
M  V30 43795 C 4365.66 4.4724 0.260893 0
M  V30 43796 C 4367.41 3.77063 1.94996 0
M  V30 43797 C 4365.31 5.85085 0.861948 0
M  V30 43798 H 4364.24 0.706653 0.262979 0
M  V30 43799 H 4366.89 1.83429 -0.0508815 0
M  V30 43800 H 4365.28 3.36921 2.08086 0
M  V30 43801 H 4366.45 4.57978 -0.50921 0
M  V30 43802 H 4364.76 4.15299 -0.302589 0
M  V30 43803 H 4367.36 4.77381 2.40855 0
M  V30 43804 H 4367.7 3.10142 2.77701 0
M  V30 43805 H 4368.24 3.78562 1.22211 0
M  V30 43806 H 4364.98 6.55458 0.0738609 0
M  V30 43807 H 4364.5 5.78027 1.6014 0
M  V30 43808 H 4366.18 6.32478 1.36308 0
M  V30 43809 N 4366.31 -0.280928 1.55076 0
M  V30 43810 C 4367.53 -1.0363 1.79654 0
M  V30 43811 C 4367.96 -1.79442 0.564106 0
M  V30 43812 O 4367.32 -1.74663 -0.486057 0
M  V30 43813 C 4367.36 -1.97681 3.01587 0
M  V30 43814 O 4366.47 -3.06322 2.76117 0
M  V30 43815 H 4365.81 -0.296691 0.594029 0
M  V30 43816 H 4368.34 -0.312246 2.02203 0
M  V30 43817 H 4368.35 -2.39781 3.30105 0
M  V30 43818 H 4367.02 -1.41912 3.9094 0
M  V30 43819 H 4365.6 -2.68594 2.58673 0
M  V30 43820 N 4367.79 -1.47874 -0.545076 0
M  V30 43821 C 4369.03 -1.55121 -1.30168 0
M  V30 43822 C 4369.36 -0.218623 -1.93267 0
M  V30 43823 O 4368.62 0.789686 -1.7906 0
M  V30 43824 C 4368.91 -2.62683 -2.42348 0
M  V30 43825 C 4368.58 -4.05588 -1.97001 0
M  V30 43826 C 4367.24 -4.44487 -1.8435 0
M  V30 43827 C 4369.59 -4.95206 -1.62544 0
M  V30 43828 C 4366.92 -5.70825 -1.35556 0
M  V30 43829 C 4369.27 -6.22019 -1.15217 0
M  V30 43830 C 4367.94 -6.59788 -1.01172 0
M  V30 43831 H 4367.21 -0.567628 -0.476319 0
M  V30 43832 H 4369.86 -1.81527 -0.609943 0
M  V30 43833 H 4368.16 -2.30079 -3.17129 0
M  V30 43834 H 4369.86 -2.65509 -3.00509 0
M  V30 43835 H 4366.45 -3.7486 -2.07793 0
M  V30 43836 H 4370.63 -4.65843 -1.71185 0
M  V30 43837 H 4365.89 -5.98826 -1.23357 0
M  V30 43838 H 4370.06 -6.90866 -0.876218 0
M  V30 43839 H 4367.69 -7.57573 -0.63142 0
M  V30 43840 N 4369.26 0.792773 -1.36209 0
M  V30 43841 C 4370.54 1.53837 -1.20804 0
M  V30 43842 C 4370.92 2.10081 0.207183 0
M  V30 43843 O 4370.27 1.93682 1.21241 0
M  V30 43844 C 4370.48 2.63597 -2.28731 0
M  V30 43845 C 4371.83 3.31569 -2.65231 0
M  V30 43846 O 4372.85 2.73878 -2.27749 0
M  V30 43847 O 4371.71 4.3582 -3.29732 0
M  V30 43848 H 4368.8 0.680352 -0.47016 0
M  V30 43849 H 4371.35 0.831544 -1.47931 0
M  V30 43850 H 4370.12 2.20007 -3.23593 0
M  V30 43851 H 4369.74 3.41901 -2.02951 0
M  V30 43852 N 4370.74 1.20433 1.01654 0
M  V30 43853 C 4371.97 1.04087 1.7939 0
M  V30 43854 C 4372.39 -0.405434 1.83679 0
M  V30 43855 O 4371.75 -1.29201 1.27188 0
M  V30 43856 C 4371.8 1.6291 3.21703 0
M  V30 43857 O 4370.9 0.86676 4.03189 0
M  V30 43858 H 4370.24 0.367077 0.553308 0
M  V30 43859 H 4372.77 1.59727 1.27861 0
M  V30 43860 H 4372.78 1.66647 3.72415 0
M  V30 43861 H 4371.46 2.6817 3.17896 0
M  V30 43862 H 4370.03 0.903601 3.61786 0
M  V30 43863 N 4372.22 -1.20963 1.01023 0
M  V30 43864 C 4373.15 -2.2291 0.533252 0
M  V30 43865 C 4374.16 -1.5828 -0.380952 0
M  V30 43866 O 4375.35 -1.77587 -0.180316 0
M  V30 43867 C 4372.45 -3.38017 -0.24444 0
M  V30 43868 C 4371.63 -4.32236 0.670115 0
M  V30 43869 C 4370.69 -5.26167 -0.0588814 0
M  V30 43870 O 4369.71 -5.66424 0.561511 0
M  V30 43871 N 4370.91 -5.64922 -1.33579 0
M  V30 43872 H 4373.68 -2.64462 1.40996 0
M  V30 43873 H 4371.24 -1.3544 0.886993 0
M  V30 43874 H 4373.23 -3.97854 -0.74121 0
M  V30 43875 H 4371.8 -2.95408 -1.02239 0
M  V30 43876 H 4371.02 -3.70461 1.3473 0
M  V30 43877 H 4372.31 -4.92114 1.29233 0
M  V30 43878 H 4371.71 -5.34218 -1.86086 0
M  V30 43879 H 4370.26 -6.27098 -1.77741 0
M  V30 43880 N 4373.7 -0.785634 -1.36622 0
M  V30 43881 C 4374.95 -0.352896 -1.98589 0
M  V30 43882 C 4375.26 1.08032 -1.6306 0
M  V30 43883 O 4376.47 1.61514 -2.18233 0
M  V30 43884 C 4374.92 -0.580016 -3.55195 0
M  V30 43885 C 4374.53 -2.0244 -3.99652 0
M  V30 43886 C 4376.27 -0.211594 -4.23972 0
M  V30 43887 C 4374.18 -2.19838 -5.49022 0
M  V30 43888 H 4373.11 -0.128207 -0.74302 0
M  V30 43889 H 4375.76 -0.966732 -1.5597 0
M  V30 43890 H 4374.14 0.103478 -3.95865 0
M  V30 43891 H 4375.32 -2.74398 -3.70192 0
M  V30 43892 H 4373.63 -2.35071 -3.43701 0
M  V30 43893 H 4376.23 -0.319913 -5.33742 0
M  V30 43894 H 4376.57 0.839842 -4.07741 0
M  V30 43895 H 4377.11 -0.848176 -3.88653 0
M  V30 43896 H 4373.84 -3.23351 -5.70197 0
M  V30 43897 H 4373.36 -1.5238 -5.80121 0
M  V30 43898 H 4375.04 -2.00369 -6.15192 0
M  V30 43899 N 4375.18 1.48157 -0.53733 0
M  V30 43900 C 4376.4 2.07398 -0.00813525 0
M  V30 43901 C 4376.83 1.39023 1.26705 0
M  V30 43902 O 4376.18 0.458582 1.75404 0
M  V30 43903 C 4376.23 3.60092 0.191308 0
M  V30 43904 O 4375.34 3.92733 1.25837 0
M  V30 43905 H 4374.68 0.662644 -0.0424156 0
M  V30 43906 H 4377.21 1.90462 -0.747342 0
M  V30 43907 H 4377.22 4.05918 0.411694 0
M  V30 43908 H 4375.89 4.09261 -0.740175 0
M  V30 43909 H 4374.47 3.58677 1.02005 0
M  V30 43910 N 4376.65 0.272809 1.55221 0
M  V30 43911 C 4377.88 -0.348042 2.03952 0
M  V30 43912 C 4378.3 -1.49638 1.15125 0
M  V30 43913 O 4377.65 -1.81698 0.170889 0
M  V30 43914 C 4377.71 -0.831251 3.51813 0
M  V30 43915 O 4377.43 0.271355 4.37259 0
M  V30 43916 C 4378.93 -1.52015 4.16421 0
M  V30 43917 H 4376.15 -0.0796748 0.666253 0
M  V30 43918 H 4378.69 0.404232 2.00465 0
M  V30 43919 H 4376.85 -1.53362 3.55751 0
M  V30 43920 H 4377.26 -0.09976 5.24405 0
M  V30 43921 H 4378.73 -1.8097 5.21492 0
M  V30 43922 H 4379.21 -2.45091 3.64455 0
M  V30 43923 H 4379.82 -0.861695 4.16479 0
M  V30 43924 N 4378.13 -1.576 5.54043e-05 0
M  V30 43925 C 4379.36 -1.94851 -0.695765 0
M  V30 43926 C 4379.78 -0.874905 -1.67305 0
M  V30 43927 O 4379.13 0.146151 -1.81914 0
M  V30 43928 C 4379.18 -3.32118 -1.42758 0
M  V30 43929 O 4378.9 -4.35357 -0.489494 0
M  V30 43930 C 4380.41 -3.83828 -2.21791 0
M  V30 43931 H 4377.63 -0.64241 -0.193779 0
M  V30 43932 H 4380.17 -2.04436 0.0511915 0
M  V30 43933 H 4378.32 -3.23841 -2.12617 0
M  V30 43934 H 4378.74 -5.14765 -1.00583 0
M  V30 43935 H 4380.21 -4.82302 -2.68493 0
M  V30 43936 H 4380.69 -3.16538 -3.04468 0
M  V30 43937 H 4381.3 -3.95281 -1.56948 0
M  V30 43938 N 4379.61 0.2727 -1.55223 0
M  V30 43939 C 4380.56 1.3371 -1.88123 0
M  V30 43940 C 4381.53 1.49063 -0.732762 0
M  V30 43941 O 4382.71 1.63465 -0.984059 0
M  V30 43942 C 4379.85 2.6923 -2.15891 0
M  V30 43943 C 4378.97 2.62096 -3.43409 0
M  V30 43944 C 4378.1 3.89798 -3.60875 0
M  V30 43945 C 4377.14 3.77176 -4.82084 0
M  V30 43946 N 4376.28 4.96713 -4.96206 0
M  V30 43947 H 4381.12 1.04952 -2.78907 0
M  V30 43948 H 4378.65 0.507039 -1.38085 0
M  V30 43949 H 4380.61 3.48081 -2.29991 0
M  V30 43950 H 4379.24 2.9619 -1.28342 0
M  V30 43951 H 4378.29 1.74955 -3.3778 0
M  V30 43952 H 4379.61 2.48669 -4.32394 0
M  V30 43953 H 4378.76 4.7709 -3.74793 0
M  V30 43954 H 4377.5 4.06092 -2.70075 0
M  V30 43955 H 4376.5 2.88267 -4.68169 0
M  V30 43956 H 4377.73 3.624 -5.74319 0
M  V30 43957 H 4375.67 5.13417 -4.08337 0
M  V30 43958 H 4375.59 4.85818 -5.79238 0
M  V30 43959 H 4376.86 5.85576 -5.1451 0
M  V30 43960 N 4381.09 1.48161 0.537226 0
M  V30 43961 C 4382.5 1.34121 0.865082 0
M  V30 43962 C 4382.7 0.346748 1.98494 0
M  V30 43963 O 4381.76 -0.234627 2.51408 0
M  V30 43964 C 4383.07 2.73968 1.23944 0
M  V30 43965 C 4384.62 2.82402 1.34974 0
M  V30 43966 C 4385.1 4.22934 1.75757 0
M  V30 43967 N 4386.59 4.25573 1.82872 0
M  V30 43968 C 4387.32 5.31243 2.15798 0
M  V30 43969 N 4386.82 6.47197 2.47199 0
M  V30 43970 N 4388.61 5.18632 2.16743 0
M  V30 43971 H 4380.76 2.11439 -0.201789 0
M  V30 43972 H 4383.03 0.947597 -0.0276282 0
M  V30 43973 H 4382.73 3.48266 0.490258 0
M  V30 43974 H 4382.61 3.07027 2.19121 0
M  V30 43975 H 4384.99 2.08364 2.0897 0
M  V30 43976 H 4385.07 2.52971 0.379359 0
M  V30 43977 H 4384.72 4.97486 1.02323 0
M  V30 43978 H 4384.65 4.49804 2.73833 0
M  V30 43979 H 4387.14 3.41929 1.60912 0
M  V30 43980 H 4387.45 7.23573 2.71407 0
M  V30 43981 H 4385.8 6.50484 2.44734 0
M  V30 43982 H 4388.99 4.27063 1.91664 0
M  V30 43983 H 4389.16 6.01087 2.42072 0
M  V30 43984 N 4382.57 -0.785538 1.36627 0
M  V30 43985 C 4383.81 -1.54357 1.31073 0
M  V30 43986 C 4384.14 -1.94195 -0.108862 0
M  V30 43987 O 4383.4 -1.63265 -1.07902 0
M  V30 43988 C 4383.7 -2.82999 2.1828 0
M  V30 43989 C 4383.36 -2.62281 3.66769 0
M  V30 43990 C 4382.02 -2.56339 4.07239 0
M  V30 43991 C 4384.38 -2.43355 4.60899 0
M  V30 43992 C 4381.7 -2.29442 5.39975 0
M  V30 43993 C 4384.06 -2.17984 5.93857 0
M  V30 43994 C 4382.72 -2.10477 6.33447 0
M  V30 43995 H 4381.99 -0.564834 0.479629 0
M  V30 43996 H 4384.64 -0.905969 1.68714 0
M  V30 43997 H 4382.94 -3.51247 1.73588 0
M  V30 43998 H 4384.64 -3.4081 2.11304 0
M  V30 43999 H 4381.23 -2.67763 3.34666 0
M  V30 44000 H 4385.41 -2.46944 4.30502 0
M  V30 44001 H 4380.67 -2.22115 5.69627 0
M  V30 44002 H 4384.84 -2.02335 6.66358 0
M  V30 44003 H 4382.47 -1.89399 7.36228 0
M  V30 44004 N 4384.04 -1.20971 -1.01014 0
M  V30 44005 C 4384.95 -0.980232 -2.1314 0
M  V30 44006 C 4385.97 0.0660053 -1.73875 0
M  V30 44007 O 4387.15 -0.122892 -2.01025 0
M  V30 44008 C 4384.21 -0.54228 -3.42433 0
M  V30 44009 C 4383.27 -1.66013 -3.95902 0
M  V30 44010 C 4382.51 -1.24298 -5.19024 0
M  V30 44011 O 4382.73 -0.114396 -5.70285 0
M  V30 44012 O 4381.66 -2.05291 -5.65808 0
M  V30 44013 H 4385.49 -1.91921 -2.35372 0
M  V30 44014 H 4383.07 -0.994138 -1.11522 0
M  V30 44015 H 4384.96 -0.307588 -4.20276 0
M  V30 44016 H 4383.63 0.368037 -3.21601 0
M  V30 44017 H 4382.54 -1.94917 -3.19309 0
M  V30 44018 H 4383.87 -2.54768 -4.21134 0
M  V30 44019 N 4385.52 1.20426 -1.01663 0
M  V30 44020 C 4386.45 2.22624 -0.545066 0
M  V30 44021 C 4387.47 1.5848 0.372553 0
M  V30 44022 O 4388.66 1.7768 0.170896 0
M  V30 44023 C 4385.76 3.38142 0.226511 0
M  V30 44024 C 4384.93 4.31875 -0.693028 0
M  V30 44025 C 4383.99 5.26191 0.0309766 0
M  V30 44026 O 4383.01 5.66118 -0.591542 0
M  V30 44027 N 4384.22 5.65623 1.30581 0
M  V30 44028 H 4386.98 2.63711 -1.42397 0
M  V30 44029 H 4384.54 1.34968 -0.894163 0
M  V30 44030 H 4386.53 3.98242 0.7201 0
M  V30 44031 H 4385.1 2.95946 1.00671 0
M  V30 44032 H 4384.32 3.69742 -1.36692 0
M  V30 44033 H 4385.61 4.91422 -1.31841 0
M  V30 44034 H 4385.01 5.35197 1.83251 0
M  V30 44035 H 4383.57 6.28031 1.74413 0
M  V30 44036 N 4387 0.792868 1.36203 0
M  V30 44037 C 4387.91 0.194891 2.33789 0
M  V30 44038 C 4388.93 -0.654812 1.61209 0
M  V30 44039 O 4390.1 -0.569788 1.93172 0
M  V30 44040 C 4387.17 -0.657601 3.40406 0
M  V30 44041 C 4386.23 0.210999 4.28781 0
M  V30 44042 C 4385.46 -0.6009 5.30306 0
M  V30 44043 O 4385.68 -1.83663 5.40022 0
M  V30 44044 O 4384.62 0.00101987 6.019 0
M  V30 44045 H 4388.44 1.00183 2.867 0
M  V30 44046 H 4386.03 0.55439 1.38733 0
M  V30 44047 H 4387.91 -1.14361 4.05585 0
M  V30 44048 H 4386.59 -1.44237 2.89789 0
M  V30 44049 H 4385.49 0.743843 3.6663 0
M  V30 44050 H 4386.83 0.959365 4.8276 0
M  V30 44051 N 4388.48 -1.4787 0.54518 0
M  V30 44052 C 4389.41 -2.32661 -0.197711 0
M  V30 44053 C 4390.39 -1.43044 -0.920453 0
M  V30 44054 O 4391.57 -1.71915 -0.90327 0
M  V30 44055 C 4388.7 -3.24573 -1.23571 0
M  V30 44056 C 4387.66 -4.23335 -0.630174 0
M  V30 44057 C 4386.98 -5.04487 -1.77193 0
M  V30 44058 C 4388.28 -5.20703 0.408157 0
M  V30 44059 H 4389.98 -2.95022 0.510149 0
M  V30 44060 H 4387.52 -1.4187 0.246781 0
M  V30 44061 H 4389.48 -3.82726 -1.76349 0
M  V30 44062 H 4388.2 -2.60243 -1.97335 0
M  V30 44063 H 4386.86 -3.66391 -0.123793 0
M  V30 44064 H 4386.51 -4.36569 -2.49832 0
M  V30 44065 H 4386.21 -5.71343 -1.37261 0
M  V30 44066 H 4387.73 -5.65495 -2.3032 0
M  V30 44067 H 4389.15 -5.7329 -0.0331035 0
M  V30 44068 H 4387.54 -5.95696 0.725695 0
M  V30 44069 H 4388.61 -4.66913 1.30845 0
M  V30 44070 N 4389.96 -0.281037 -1.55074 0
M  V30 44071 C 4391.37 0.0729404 -1.59433 0
M  V30 44072 C 4391.57 1.54106 -1.29822 0
M  V30 44073 O 4390.63 2.29083 -1.06195 0
M  V30 44074 C 4391.94 -0.307026 -2.99128 0
M  V30 44075 C 4393.49 -0.254133 -3.11967 0
M  V30 44076 C 4393.96 -0.608626 -4.53938 0
M  V30 44077 N 4395.46 -0.560402 -4.59797 0
M  V30 44078 C 4396.19 -0.807419 -5.67687 0
M  V30 44079 N 4395.69 -1.11936 -6.83697 0
M  V30 44080 N 4397.48 -0.735819 -5.57263 0
M  V30 44081 H 4389.63 -1.23806 -1.72586 0
M  V30 44082 H 4391.89 -0.500575 -0.805064 0
M  V30 44083 H 4391.6 -1.32828 -3.25653 0
M  V30 44084 H 4391.47 0.349231 -3.7558 0
M  V30 44085 H 4393.86 0.75784 -2.85203 0
M  V30 44086 H 4393.94 -0.944732 -2.37715 0
M  V30 44087 H 4393.59 -1.61831 -4.81428 0
M  V30 44088 H 4393.52 0.103828 -5.26498 0
M  V30 44089 H 4396.01 -0.32942 -3.76461 0
M  V30 44090 H 4396.32 -1.29435 -7.61883 0
M  V30 44091 H 4394.66 -1.1572 -6.85298 0
M  V30 44092 H 4397.86 -0.491916 -4.65508 0
M  V30 44093 H 4398.03 -0.931708 -6.41267 0
M  V30 44094 N 4391.44 1.57598 -0.00841331 0
M  V30 44095 C 4392.37 2.11984 0.979039 0
M  V30 44096 C 4393.35 1.03096 1.35297 0
M  V30 44097 O 4394.53 1.30823 1.43524 0
M  V30 44098 C 4391.66 2.63003 2.26819 0
M  V30 44099 C 4390.62 3.76492 2.03563 0
M  V30 44100 C 4389.94 4.13858 3.38564 0
M  V30 44101 C 4391.24 5.03425 1.39143 0
M  V30 44102 H 4392.94 2.9474 0.526178 0
M  V30 44103 H 4390.48 1.41784 0.251654 0
M  V30 44104 H 4392.43 2.99679 2.96261 0
M  V30 44105 H 4391.16 1.77379 2.74234 0
M  V30 44106 H 4389.82 3.40222 1.36545 0
M  V30 44107 H 4389.47 3.25246 3.83698 0
M  V30 44108 H 4389.17 4.90323 3.23816 0
M  V30 44109 H 4390.69 4.531 4.09307 0
M  V30 44110 H 4392.1 5.37819 1.98554 0
M  V30 44111 H 4390.5 5.84751 1.34858 0
M  V30 44112 H 4391.57 4.83549 0.361698 0
M  V30 44113 N 4392.91 -0.264465 1.55365 0
M  V30 44114 C 4394.16 -0.996398 1.76635 0
M  V30 44115 C 4394.49 -1.8563 0.570543 0
M  V30 44116 O 4393.77 -1.89649 -0.431683 0
M  V30 44117 C 4394.05 -1.87176 3.07631 0
M  V30 44118 C 4393.9 -1.04123 4.37583 0
M  V30 44119 C 4395.22 -2.85737 3.34727 0
M  V30 44120 H 4392.34 -0.360819 0.642634 0
M  V30 44121 H 4394.98 -0.268152 1.88098 0
M  V30 44122 H 4393.13 -2.49268 2.97989 0
M  V30 44123 H 4394.81 -0.440355 4.59193 0
M  V30 44124 H 4393.05 -0.344963 4.32426 0
M  V30 44125 H 4393.72 -1.68711 5.25586 0
M  V30 44126 H 4396.2 -2.33781 3.44218 0
M  V30 44127 H 4395.07 -3.44121 4.27635 0
M  V30 44128 H 4395.33 -3.61302 2.54781 0
M  V30 44129 N 4394.39 -1.48444 -0.529361 0
M  V30 44130 C 4395.62 -1.60411 -1.31465 0
M  V30 44131 C 4396.04 -0.264804 -1.86227 0
M  V30 44132 O 4395.4 0.76361 -1.64434 0
M  V30 44133 C 4395.45 -2.65427 -2.44092 0
M  V30 44134 O 4394.55 -2.2263 -3.47145 0
M  V30 44135 H 4393.89 -0.537877 -0.389338 0
M  V30 44136 H 4396.42 -1.94435 -0.636897 0
M  V30 44137 H 4396.43 -2.8672 -2.90269 0
M  V30 44138 H 4395.11 -3.6266 -2.03595 0
M  V30 44139 H 4393.68 -2.11554 -3.07082 0
M  V30 44140 N 4395.87 0.778281 -1.37042 0
M  V30 44141 C 4397.1 1.56502 -1.34873 0
M  V30 44142 C 4397.51 1.89073 0.0694138 0
M  V30 44143 O 4396.85 1.51438 1.03982 0
M  V30 44144 C 4396.91 2.90633 -2.11595 0
M  V30 44145 C 4396.58 2.80733 -3.60608 0
M  V30 44146 C 4397.57 2.5221 -4.54627 0
M  V30 44147 C 4395.26 2.9896 -4.03644 0
M  V30 44148 C 4397.25 2.42033 -5.8966 0
M  V30 44149 C 4394.94 2.88404 -5.38764 0
M  V30 44150 C 4395.94 2.5998 -6.31585 0
M  V30 44151 O 4395.63 2.49438 -7.64222 0
M  V30 44152 H 4395.36 0.491707 -0.463897 0
M  V30 44153 H 4397.91 0.972989 -1.80892 0
M  V30 44154 H 4396.14 3.5193 -1.60256 0
M  V30 44155 H 4397.83 3.51985 -2.02143 0
M  V30 44156 H 4398.6 2.3782 -4.2269 0
M  V30 44157 H 4394.48 3.20087 -3.3176 0
M  V30 44158 H 4398.02 2.19768 -6.62078 0
M  V30 44159 H 4393.92 3.0236 -5.70306 0
M  V30 44160 H 4394.68 2.64836 -7.7447 0
M  V30 44161 N 4397.35 1.21505 1.00371 0
M  V30 44162 C 4398.57 1.05984 1.78276 0
M  V30 44163 C 4399 -0.385929 1.84098 0
M  V30 44164 O 4398.36 -1.27844 1.28552 0
M  V30 44165 C 4398.4 1.66313 3.19957 0
M  V30 44166 O 4397.51 0.909475 4.02247 0
M  V30 44167 H 4396.85 0.372925 0.549384 0
M  V30 44168 H 4399.38 1.61074 1.2616 0
M  V30 44169 H 4399.39 1.70588 3.70626 0
M  V30 44170 H 4398.06 2.71526 3.15034 0
M  V30 44171 H 4396.64 0.941922 3.60808 0
M  V30 44172 N 4398.83 -1.19885 1.023 0
M  V30 44173 C 4400.07 -1.89044 0.714625 0
M  V30 44174 C 4400.39 -1.79638 -0.758618 0
M  V30 44175 O 4399.66 -1.20297 -1.54614 0
M  V30 44176 H 4398.24 -0.699792 0.261342 0
M  V30 44177 H 4400.91 -1.4557 1.29597 0
M  V30 44178 H 4400 -2.9552 1.00371 0
M  V30 44179 N 4400.3 -0.80008 -1.35781 0
M  V30 44180 C 4401.55 -0.377972 -1.99247 0
M  V30 44181 C 4401.88 1.05046 -1.63337 0
M  V30 44182 O 4401.16 1.72765 -0.893446 0
M  V30 44183 C 4401.44 -0.554047 -3.55812 0
M  V30 44184 C 4401.29 -2.02694 -4.01541 0
M  V30 44185 C 4402.61 0.0243255 -4.40093 0
M  V30 44186 H 4399.73 -0.138807 -0.72381 0
M  V30 44187 H 4402.37 -1.0084 -1.61032 0
M  V30 44188 H 4400.52 -0.0173764 -3.88496 0
M  V30 44189 H 4402.2 -2.62549 -3.79296 0
M  V30 44190 H 4400.44 -2.52573 -3.52689 0
M  V30 44191 H 4401.11 -2.10105 -5.10451 0
M  V30 44192 H 4403.59 -0.433921 -4.13831 0
M  V30 44193 H 4402.46 -0.12883 -5.48749 0
M  V30 44194 H 4402.72 1.11743 -4.27745 0
M  V30 44195 N 4401.78 1.47579 -0.553014 0
M  V30 44196 C 4402.71 2.32763 0.185369 0
M  V30 44197 C 4403.69 1.4353 0.912855 0
M  V30 44198 O 4404.88 1.72391 0.89414 0
M  V30 44199 C 4402.01 3.25224 1.21848 0
M  V30 44200 C 4400.96 4.23664 0.607715 0
M  V30 44201 C 4400.29 5.05419 1.74515 0
M  V30 44202 C 4401.59 5.20479 -0.435765 0
M  V30 44203 H 4403.28 2.94747 -0.525787 0
M  V30 44204 H 4400.83 1.41737 -0.254301 0
M  V30 44205 H 4402.78 3.83656 1.74317 0
M  V30 44206 H 4401.5 2.61286 1.95952 0
M  V30 44207 H 4400.16 3.66451 0.10436 0
M  V30 44208 H 4399.81 4.37888 2.47513 0
M  V30 44209 H 4399.51 5.72063 1.34229 0
M  V30 44210 H 4401.04 5.66709 2.27318 0
M  V30 44211 H 4402.45 5.733 0.00270003 0
M  V30 44212 H 4400.85 5.95303 -0.757276 0
M  V30 44213 H 4401.92 4.66212 -1.33319 0
M  V30 44214 N 4403.26 0.289257 1.54923 0
M  V30 44215 C 4404.51 -0.323448 1.999 0
M  V30 44216 C 4404.83 -1.54793 1.17768 0
M  V30 44217 O 4404.09 -1.94236 0.238904 0
M  V30 44218 C 4404.39 -0.735996 3.4974 0
M  V30 44219 C 4404.05 0.385433 4.4925 0
M  V30 44220 C 4402.72 0.693323 4.76179 0
M  V30 44221 C 4405.07 1.14039 5.08571 0
M  V30 44222 C 4402.4 1.7595 5.59695 0
M  V30 44223 C 4404.75 2.1964 5.93246 0
M  V30 44224 C 4403.41 2.51048 6.18491 0
M  V30 44225 H 4402.68 -0.118358 0.731486 0
M  V30 44226 H 4405.33 0.405913 1.87149 0
M  V30 44227 H 4403.63 -1.54526 3.6004 0
M  V30 44228 H 4405.33 -1.22105 3.81957 0
M  V30 44229 H 4401.92 0.135352 4.28386 0
M  V30 44230 H 4406.11 0.915782 4.87778 0
M  V30 44231 H 4401.36 2.0077 5.77496 0
M  V30 44232 H 4405.54 2.78604 6.38242 0
M  V30 44233 H 4403.16 3.33796 6.82996 0
M  V30 44234 N 4404.74 -1.57591 0.016771 0
M  V30 44235 C 4405.98 -1.91286 -0.66453 0
M  V30 44236 C 4406.31 -0.89201 -1.72839 0
M  V30 44237 O 4405.57 0.100862 -1.9544 0
M  V30 44238 C 4405.87 -3.31724 -1.33018 0
M  V30 44239 C 4405.53 -4.49141 -0.397889 0
M  V30 44240 C 4404.19 -4.80993 -0.141252 0
M  V30 44241 C 4406.55 -5.20633 0.243008 0
M  V30 44242 C 4403.87 -5.817 0.764296 0
M  V30 44243 C 4406.23 -6.22307 1.13653 0
M  V30 44244 C 4404.89 -6.52606 1.40219 0
M  V30 44245 H 4404.16 -0.699964 -0.243169 0
M  V30 44246 H 4406.81 -1.9135 0.075894 0
M  V30 44247 H 4405.11 -3.27864 -2.14505 0
M  V30 44248 H 4406.81 -3.55061 -1.86367 0
M  V30 44249 H 4403.4 -4.24264 -0.608089 0
M  V30 44250 H 4407.58 -4.96266 0.0577764 0
M  V30 44251 H 4402.84 -6.03528 0.977945 0
M  V30 44252 H 4407.01 -6.76828 1.6394 0
M  V30 44253 H 4404.64 -7.30459 2.10554 0
M  V30 44254 N 4406.22 0.256222 -1.55503 0
M  V30 44255 C 4407.15 1.32095 -1.92544 0
M  V30 44256 C 4408.13 1.50681 -0.789247 0
M  V30 44257 O 4409.31 1.63445 -1.04877 0
M  V30 44258 C 4406.44 2.67744 -2.21202 0
M  V30 44259 C 4405.4 2.63866 -3.36985 0
M  V30 44260 C 4404.72 4.03224 -3.51162 0
M  V30 44261 C 4406.02 2.21665 -4.72929 0
M  V30 44262 H 4407.72 1.01341 -2.81727 0
M  V30 44263 H 4405.26 0.486057 -1.35549 0
M  V30 44264 H 4407.22 3.42357 -2.45703 0
M  V30 44265 H 4405.94 3.00115 -1.28835 0
M  V30 44266 H 4404.6 1.91712 -3.12478 0
M  V30 44267 H 4404.25 4.32845 -2.56231 0
M  V30 44268 H 4403.95 4.0152 -4.29017 0
M  V30 44269 H 4405.47 4.7955 -3.77974 0
M  V30 44270 H 4406.88 2.86006 -4.96864 0
M  V30 44271 H 4405.28 2.31091 -5.5382 0
M  V30 44272 H 4406.35 1.16817 -4.70619 0
M  V30 44273 N 4407.69 1.48722 0.521481 0
M  V30 44274 C 4408.64 1.63877 1.62521 0
M  V30 44275 C 4409.61 0.480615 1.58995 0
M  V30 44276 O 4410.8 0.705147 1.77292 0
M  V30 44277 C 4407.94 1.69238 3.00753 0
M  V30 44278 C 4407.05 2.96218 3.1445 0
M  V30 44279 C 4406.18 2.92686 4.43293 0
M  V30 44280 C 4405.22 4.14334 4.50548 0
M  V30 44281 N 4404.36 4.0883 5.70791 0
M  V30 44282 H 4409.2 2.58128 1.48909 0
M  V30 44283 H 4406.74 1.28002 0.724833 0
M  V30 44284 H 4408.7 1.70327 3.80847 0
M  V30 44285 H 4407.33 0.784696 3.13117 0
M  V30 44286 H 4406.38 3.04834 2.27553 0
M  V30 44287 H 4407.69 3.86203 3.15672 0
M  V30 44288 H 4406.84 2.92225 5.31686 0
M  V30 44289 H 4405.58 2.00445 4.44605 0
M  V30 44290 H 4404.59 4.15062 3.6056 0
M  V30 44291 H 4405.81 5.07745 4.50968 0
M  V30 44292 H 4403.76 3.19414 5.72984 0
M  V30 44293 H 4403.68 4.92529 5.73543 0
M  V30 44294 H 4404.94 4.12441 6.61448 0
M  V30 44295 N 4409.17 -0.771003 1.37453 0
M  V30 44296 C 4410.1 -1.89347 1.29152 0
M  V30 44297 C 4411.12 -1.61476 0.207181 0
M  V30 44298 O 4412.31 -1.7238 0.463384 0
M  V30 44299 C 4409.41 -3.24593 0.97431 0
M  V30 44300 C 4408.58 -3.80103 2.16426 0
M  V30 44301 C 4407.64 -4.93826 1.81721 0
M  V30 44302 O 4406.66 -5.09373 2.54024 0
M  V30 44303 N 4407.87 -5.7548 0.761775 0
M  V30 44304 H 4410.63 -1.96984 2.25871 0
M  V30 44305 H 4408.19 -0.950145 1.31087 0
M  V30 44306 H 4410.18 -3.9819 0.722968 0
M  V30 44307 H 4408.75 -3.12454 0.0956625 0
M  V30 44308 H 4407.97 -2.98275 2.57731 0
M  V30 44309 H 4409.26 -4.13922 2.95882 0
M  V30 44310 H 4408.66 -5.65469 0.161808 0
M  V30 44311 H 4407.22 -6.493 0.570292 0
M  V30 44312 N 4410.65 -1.22035 -0.997255 0
M  V30 44313 C 4411.58 -0.944336 -2.08842 0
M  V30 44314 C 4412.6 0.0754091 -1.62625 0
M  V30 44315 O 4413.78 -0.158057 -1.77799 0
M  V30 44316 C 4410.88 -0.397842 -3.36557 0
M  V30 44317 C 4410.06 -1.47377 -4.11824 0
M  V30 44318 C 4409.12 -0.935133 -5.17824 0
M  V30 44319 O 4408.14 -1.62035 -5.45649 0
M  V30 44320 N 4409.34 0.245691 -5.7998 0
M  V30 44321 H 4412.11 -1.88371 -2.33102 0
M  V30 44322 H 4409.67 -1.12665 -1.16268 0
M  V30 44323 H 4411.66 -0.0229194 -4.04694 0
M  V30 44324 H 4410.23 0.446538 -3.09394 0
M  V30 44325 H 4409.45 -2.0222 -3.38379 0
M  V30 44326 H 4410.74 -2.19781 -4.58883 0
M  V30 44327 H 4410.14 0.819278 -5.59736 0
M  V30 44328 H 4408.7 0.562044 -6.49372 0
M  V30 44329 N 4412.13 1.19341 -1.02934 0
M  V30 44330 C 4413.35 1.93535 -0.745579 0
M  V30 44331 C 4413.78 1.75009 0.689449 0
M  V30 44332 O 4413.14 1.0527 1.47607 0
M  V30 44333 C 4413.18 3.43332 -1.10251 0
M  V30 44334 O 4412.29 4.11805 -0.221433 0
M  V30 44335 H 4411.63 0.604183 -0.275425 0
M  V30 44336 H 4414.16 1.51405 -1.37614 0
M  V30 44337 H 4414.17 3.94 -1.05961 0
M  V30 44338 H 4412.84 3.56138 -2.14799 0
M  V30 44339 H 4411.42 3.71499 -0.322972 0
M  V30 44340 N 4413.61 0.80727 1.35355 0
M  V30 44341 C 4414.54 0.175798 2.28525 0
M  V30 44342 C 4415.55 -0.625302 1.50312 0
M  V30 44343 O 4416.74 -0.45755 1.72536 0
M  V30 44344 C 4413.84 -0.773355 3.29958 0
M  V30 44345 C 4413.01 -0.0184758 4.37396 0
M  V30 44346 C 4412.07 -0.886213 5.18684 0
M  V30 44347 O 4411.1 -0.336906 5.68202 0
M  V30 44348 N 4412.3 -2.2082 5.3686 0
M  V30 44349 H 4415.07 0.976191 2.83356 0
M  V30 44350 H 4412.63 0.662789 1.47712 0
M  V30 44351 H 4414.62 -1.3581 3.81232 0
M  V30 44352 H 4413.19 -1.47455 2.75637 0
M  V30 44353 H 4412.41 0.747485 3.87048 0
M  V30 44354 H 4413.7 0.501755 5.0632 0
M  V30 44355 H 4413.09 -2.67841 4.98275 0
M  V30 44356 H 4411.65 -2.74217 5.91311 0
M  V30 44357 N 4415.08 -1.47283 0.560833 0
M  V30 44358 C 4416.33 -2.02464 0.0381332 0
M  V30 44359 C 4416.66 -1.43479 -1.31317 0
M  V30 44360 O 4415.91 -0.581377 -1.86865 0
M  V30 44361 C 4416.21 -3.57258 -0.100658 0
M  V30 44362 C 4415.88 -4.3518 1.18022 0
M  V30 44363 C 4414.54 -4.56189 1.53119 0
M  V30 44364 C 4416.89 -4.80091 2.02884 0
M  V30 44365 C 4414.22 -5.19358 2.72918 0
M  V30 44366 C 4416.57 -5.44582 3.2189 0
M  V30 44367 C 4415.24 -5.63823 3.57296 0
M  V30 44368 H 4414.51 -0.740869 0.0139539 0
M  V30 44369 H 4417.15 -1.76913 0.733074 0
M  V30 44370 H 4415.46 -3.81822 -0.87859 0
M  V30 44371 H 4417.16 -3.97608 -0.5205 0
M  V30 44372 H 4413.75 -4.1911 0.896948 0
M  V30 44373 H 4417.93 -4.63635 1.77076 0
M  V30 44374 H 4413.19 -5.32448 3.00514 0
M  V30 44375 H 4417.36 -5.78344 3.87931 0
M  V30 44376 H 4414.99 -6.12542 4.50219 0
M  V30 44377 N 4416.56 -0.297469 -1.54767 0
M  V30 44378 C 4417.49 0.573414 -2.2635 0
M  V30 44379 C 4418.47 1.14081 -1.26173 0
M  V30 44380 O 4419.66 1.1708 -1.54938 0
M  V30 44381 C 4416.79 1.74705 -3.00159 0
M  V30 44382 C 4415.74 1.31018 -4.07453 0
M  V30 44383 C 4415.07 2.5687 -4.68958 0
M  V30 44384 C 4416.37 0.444 -5.20409 0
M  V30 44385 H 4418.06 -0.0236183 -2.99391 0
M  V30 44386 H 4415.61 -0.0127995 -1.43994 0
M  V30 44387 H 4417.56 2.36237 -3.48955 0
M  V30 44388 H 4416.29 2.37027 -2.2469 0
M  V30 44389 H 4414.94 0.71794 -3.59501 0
M  V30 44390 H 4414.59 3.17498 -3.90133 0
M  V30 44391 H 4414.29 2.28341 -5.41419 0
M  V30 44392 H 4415.82 3.19211 -5.20516 0
M  V30 44393 H 4417.23 0.964901 -5.65122 0
M  V30 44394 H 4415.63 0.252636 -5.99568 0
M  V30 44395 H 4416.7 -0.531778 -4.81975 0
M  V30 44396 N 4418.04 1.5758 -0.0251282 0
M  V30 44397 C 4419.28 1.935 0.658582 0
M  V30 44398 C 4419.64 0.901469 1.69522 0
M  V30 44399 O 4420.85 1.14673 2.43112 0
M  V30 44400 C 4419.12 3.34357 1.26256 0
M  V30 44401 S 4420.68 3.92198 1.9679 0
M  V30 44402 H 4417.49 0.677097 0.216934 0
M  V30 44403 H 4420.1 1.95303 -0.0878378 0
M  V30 44404 H 4418.8 4.07397 0.495597 0
M  V30 44405 H 4418.33 3.35987 2.04637 0
M  V30 44406 H 4420.35 3.75309 3.24588 0
M  V30 44407 N 4419.52 -0.247971 1.55637 0
M  V30 44408 C 4420.45 -1.31072 1.93242 0
M  V30 44409 C 4421.43 -1.50261 0.797227 0
M  V30 44410 O 4422.61 -1.62887 1.05743 0
M  V30 44411 C 4419.74 -2.66568 2.22619 0
M  V30 44412 C 4418.7 -2.62075 3.38379 0
M  V30 44413 C 4418.02 -4.01356 3.53295 0
M  V30 44414 C 4419.32 -2.19154 4.74098 0
M  V30 44415 H 4421.02 -0.998457 2.82261 0
M  V30 44416 H 4418.56 -0.478862 1.35805 0
M  V30 44417 H 4420.52 -3.41049 2.47515 0
M  V30 44418 H 4419.24 -2.99428 1.30425 0
M  V30 44419 H 4417.9 -1.90052 3.1349 0
M  V30 44420 H 4417.55 -4.3148 2.58523 0
M  V30 44421 H 4417.25 -3.99239 4.31141 0
M  V30 44422 H 4418.77 -4.77539 3.80511 0
M  V30 44423 H 4420.19 -2.83367 4.98373 0
M  V30 44424 H 4418.58 -2.2815 5.55038 0
M  V30 44425 H 4419.65 -1.14319 4.71232 0
M  V30 44426 N 4421 -1.48997 -0.513587 0
M  V30 44427 C 4421.96 -1.64235 -1.59874 0
M  V30 44428 C 4422.96 -0.51475 -1.52338 0
M  V30 44429 O 4424.15 -0.780925 -1.55715 0
M  V30 44430 C 4421.28 -1.62794 -2.99518 0
M  V30 44431 H 4422.48 -2.61009 -1.47696 0
M  V30 44432 H 4420.03 -1.37839 -0.736888 0
M  V30 44433 H 4420.76 -0.675572 -3.17185 0
M  V30 44434 H 4420.55 -2.44671 -3.06396 0
M  V30 44435 H 4422.04 -1.76683 -3.78382 0
M  V30 44436 N 4422.48 0.763702 -1.3786 0
M  V30 44437 C 4423.72 1.52478 -1.3371 0
M  V30 44438 C 4424.05 1.94052 0.0758929 0
M  V30 44439 O 4423.33 1.64678 1.03495 0
M  V30 44440 C 4423.61 2.78433 -2.28358 0
M  V30 44441 C 4423.47 2.43062 -3.78472 0
M  V30 44442 C 4424.78 3.80407 -2.21311 0
M  V30 44443 H 4421.9 0.553151 -0.487024 0
M  V30 44444 H 4424.55 0.875503 -1.68627 0
M  V30 44445 H 4422.7 3.33835 -1.98711 0
M  V30 44446 H 4424.37 1.93512 -4.18749 0
M  V30 44447 H 4422.61 1.75652 -3.96647 0
M  V30 44448 H 4423.28 3.33133 -4.40143 0
M  V30 44449 H 4425.76 3.34518 -2.47461 0
M  V30 44450 H 4424.63 4.66247 -2.89664 0
M  V30 44451 H 4424.89 4.25258 -1.20863 0
M  V30 44452 N 4423.95 1.22562 0.990769 0
M  V30 44453 C 4424.89 0.955398 2.08338 0
M  V30 44454 C 4425.9 -0.0667836 1.62663 0
M  V30 44455 O 4427.09 0.167484 1.77713 0
M  V30 44456 C 4424.19 0.415684 3.36341 0
M  V30 44457 C 4423.36 1.49559 4.11036 0
M  V30 44458 C 4422.42 0.962581 5.17321 0
M  V30 44459 O 4421.45 1.64926 5.44783 0
M  V30 44460 N 4422.65 -0.21493 5.80102 0
M  V30 44461 H 4425.41 1.89604 2.321 0
M  V30 44462 H 4422.97 1.1328 1.15669 0
M  V30 44463 H 4424.97 0.0443809 4.04676 0
M  V30 44464 H 4423.54 -0.430124 3.09627 0
M  V30 44465 H 4422.76 2.04012 3.37302 0
M  V30 44466 H 4424.04 2.22211 4.57711 0
M  V30 44467 H 4423.44 -0.789583 5.60163 0
M  V30 44468 H 4422 -0.527598 6.49661 0
M  V30 44469 N 4425.43 -1.18793 1.03566 0
M  V30 44470 C 4426.34 -2.2591 0.632584 0
M  V30 44471 C 4427.36 -1.70669 -0.338822 0
M  V30 44472 O 4428.53 -2.00454 -0.195006 0
M  V30 44473 C 4425.6 -3.467 -0.00338754 0
M  V30 44474 C 4424.66 -4.17095 1.01638 0
M  V30 44475 C 4423.89 -5.32118 0.410665 0
M  V30 44476 O 4424.12 -5.64979 -0.784526 0
M  V30 44477 O 4423.05 -5.91066 1.13688 0
M  V30 44478 H 4426.88 -2.62643 1.52487 0
M  V30 44479 H 4424.46 -1.25778 0.806239 0
M  V30 44480 H 4426.34 -4.19879 -0.357663 0
M  V30 44481 H 4425.02 -3.11801 -0.869576 0
M  V30 44482 H 4423.92 -3.46005 1.42236 0
M  V30 44483 H 4425.26 -4.55981 1.85317 0
M  V30 44484 N 4426.91 -0.814437 -1.34925 0
M  V30 44485 C 4428.16 -0.397706 -1.98148 0
M  V30 44486 C 4428.48 1.04063 -1.64912 0
M  V30 44487 O 4427.75 1.72118 -0.93554 0
M  V30 44488 H 4426.33 -0.144069 -0.732976 0
M  V30 44489 H 4428.99 -1.04201 -1.64706 0
M  V30 44490 H 4428.09 -0.509797 -3.07908 0
M  V30 44491 N 4428.39 1.46984 -0.568636 0
M  V30 44492 C 4429.61 2.07334 -0.0521257 0
M  V30 44493 C 4430.04 1.41679 1.23728 0
M  V30 44494 O 4429.4 0.495685 1.74392 0
M  V30 44495 C 4429.44 3.60417 0.114884 0
M  V30 44496 O 4428.55 3.95313 1.17478 0
M  V30 44497 H 4427.89 0.661595 -0.0564618 0
M  V30 44498 H 4430.42 1.88834 -0.787574 0
M  V30 44499 H 4430.43 4.067 0.325501 0
M  V30 44500 H 4429.1 4.07598 -0.826818 0
M  V30 44501 H 4427.68 3.6076 0.943742 0
M  V30 44502 N 4429.87 0.305673 1.54607 0
M  V30 44503 C 4430.8 -0.561402 2.26651 0
M  V30 44504 C 4431.78 -1.1341 1.26776 0
M  V30 44505 O 4432.96 -1.16257 1.55557 0
M  V30 44506 C 4430.09 -1.73111 3.01081 0
M  V30 44507 C 4429.05 -1.28855 4.08143 0
M  V30 44508 C 4428.37 -2.5438 4.70314 0
M  V30 44509 C 4429.67 -0.416395 5.20638 0
M  V30 44510 H 4431.37 0.0394954 2.99374 0
M  V30 44511 H 4428.91 0.0204356 1.43985 0
M  V30 44512 H 4430.86 -2.34383 3.50203 0
M  V30 44513 H 4429.59 -2.35832 2.25944 0
M  V30 44514 H 4428.25 -0.698865 3.59877 0
M  V30 44515 H 4427.9 -3.15425 3.91811 0
M  V30 44516 H 4427.6 -2.25467 5.42622 0
M  V30 44517 H 4429.12 -3.16446 5.22201 0
M  V30 44518 H 4430.53 -0.934918 5.65625 0
M  V30 44519 H 4428.93 -0.220836 5.99694 0
M  V30 44520 H 4430 0.557331 4.81686 0
M  V30 44521 N 4431.34 -1.57564 0.0334847 0
M  V30 44522 C 4432.59 -1.92264 -0.645159 0
M  V30 44523 C 4432.92 -0.910603 -1.71527 0
M  V30 44524 O 4432.2 0.0660307 -1.94388 0
M  V30 44525 C 4432.48 -3.37427 -1.25759 0
M  V30 44526 C 4432.33 -4.4937 -0.196733 0
M  V30 44527 C 4433.65 -3.82636 -2.17435 0
M  V30 44528 H 4430.77 -0.699179 -0.233061 0
M  V30 44529 H 4433.41 -1.89779 0.0916361 0
M  V30 44530 H 4431.56 -3.39675 -1.88555 0
M  V30 44531 H 4433.24 -4.59253 0.434124 0
M  V30 44532 H 4431.48 -4.31166 0.477289 0
M  V30 44533 H 4432.15 -5.47981 -0.664931 0
M  V30 44534 H 4434.63 -3.82151 -1.64621 0
M  V30 44535 H 4433.5 -4.84892 -2.57237 0
M  V30 44536 H 4433.76 -3.18386 -3.06729 0
M  V30 44537 N 4432.82 0.239714 -1.55766 0
M  V30 44538 C 4433.75 1.30045 -1.93934 0
M  V30 44539 C 4434.73 1.49836 -0.805185 0
M  V30 44540 O 4435.92 1.62324 -1.06605 0
M  V30 44541 C 4433.05 2.65383 -2.24029 0
M  V30 44542 C 4432 2.60277 -3.39764 0
M  V30 44543 C 4431.33 3.99477 -3.55419 0
M  V30 44544 C 4432.63 2.16637 -4.75253 0
M  V30 44545 H 4434.32 0.983474 -2.82786 0
M  V30 44546 H 4431.87 0.471653 -1.36057 0
M  V30 44547 H 4433.82 3.39731 -2.4932 0
M  V30 44548 H 4432.54 2.98732 -1.32011 0
M  V30 44549 H 4431.2 1.88386 -3.14493 0
M  V30 44550 H 4430.85 4.30103 -2.60808 0
M  V30 44551 H 4430.55 3.96947 -4.33252 0
M  V30 44552 H 4432.08 4.75514 -3.83039 0
M  V30 44553 H 4433.49 2.8072 -4.99869 0
M  V30 44554 H 4431.89 2.25204 -5.5624 0
M  V30 44555 H 4432.96 1.11819 -4.71831 0
M  V30 44556 N 4434.3 1.49267 0.505678 0
M  V30 44557 C 4435.23 1.68501 1.61647 0
M  V30 44558 C 4436.21 0.533717 1.6151 0
M  V30 44559 O 4437.4 0.769033 1.78324 0
M  V30 44560 C 4434.53 1.74719 3.00151 0
M  V30 44561 C 4433.48 2.89592 3.15152 0
M  V30 44562 C 4432.81 2.80919 4.5496 0
M  V30 44563 C 4434.11 4.30589 2.95619 0
M  V30 44564 H 4435.8 2.61498 1.45805 0
M  V30 44565 H 4433.35 1.25841 0.700006 0
M  V30 44566 H 4435.3 1.86761 3.77754 0
M  V30 44567 H 4434.02 0.783178 3.17071 0
M  V30 44568 H 4432.68 2.77144 2.39972 0
M  V30 44569 H 4432.33 1.82435 4.6875 0
M  V30 44570 H 4432.03 3.58015 4.65939 0
M  V30 44571 H 4433.55 2.94962 5.3463 0
M  V30 44572 H 4434.97 4.43743 3.62995 0
M  V30 44573 H 4433.36 5.08871 3.18073 0
M  V30 44574 H 4434.43 4.45359 1.9179 0
M  V30 44575 N 4435.78 -0.756381 1.38263 0
M  V30 44576 C 4437.01 -1.54336 1.37346 0
M  V30 44577 C 4437.42 -1.89159 -0.0393252 0
M  V30 44578 O 4436.76 -1.53073 -1.01559 0
M  V30 44579 C 4436.82 -2.8723 2.16192 0
M  V30 44580 C 4436.49 -2.7496 3.65028 0
M  V30 44581 C 4437.48 -2.44946 4.58582 0
M  V30 44582 C 4435.17 -2.92501 4.08349 0
M  V30 44583 C 4437.16 -2.32621 5.93436 0
M  V30 44584 C 4434.85 -2.79796 5.43284 0
M  V30 44585 C 4435.85 -2.49899 6.35641 0
M  V30 44586 O 4435.53 -2.37248 7.68094 0
M  V30 44587 H 4435.27 -0.484265 0.471661 0
M  V30 44588 H 4437.82 -0.944088 1.82417 0
M  V30 44589 H 4436.05 -3.49336 1.65834 0
M  V30 44590 H 4437.74 -3.48724 2.07717 0
M  V30 44591 H 4438.51 -2.31066 4.2642 0
M  V30 44592 H 4434.38 -3.14769 3.36811 0
M  V30 44593 H 4437.93 -2.09207 6.65491 0
M  V30 44594 H 4433.83 -2.93249 5.75044 0
M  V30 44595 H 4434.59 -2.52482 7.78585 0
M  V30 44596 N 4437.26 -1.23086 -0.984255 0
M  V30 44597 C 4438.53 -0.968959 -1.69913 0
M  V30 44598 C 4438.91 0.513532 -2.04759 0
M  V30 44599 O 4438.26 1.48377 -1.73772 0
M  V30 44600 C 4438.47 -1.87529 -2.94337 0
M  V30 44601 C 4439.82 -2.13648 -3.66933 0
M  V30 44602 O 4440.84 -1.85047 -3.04362 0
M  V30 44603 O 4439.7 -2.62135 -4.79528 0
M  V30 44604 H 4436.8 -0.365121 -0.742035 0
M  V30 44605 H 4439.34 -1.34111 -1.03982 0
M  V30 44606 H 4438.11 -2.87765 -2.65154 0
M  V30 44607 H 4437.74 -1.50526 -3.68005 0
M  V30 44608 N 4438.73 1.18243 -1.04194 0
M  V30 44609 C 4439.98 1.88255 -0.746083 0
M  V30 44610 C 4440.31 1.80432 0.726267 0
M  V30 44611 O 4439.56 1.20006 1.54587 0
M  V30 44612 C 4439.86 3.38078 -1.15923 0
M  V30 44613 C 4439.53 3.66104 -2.63208 0
M  V30 44614 C 4438.19 3.73463 -3.03445 0
M  V30 44615 C 4440.54 3.78385 -3.58433 0
M  V30 44616 C 4437.87 3.90583 -4.37792 0
M  V30 44617 C 4440.22 3.97021 -4.925 0
M  V30 44618 C 4438.89 4.02616 -5.32406 0
M  V30 44619 H 4438.16 0.688873 -0.273011 0
M  V30 44620 H 4440.8 1.39945 -1.3072 0
M  V30 44621 H 4439.11 3.88375 -0.516942 0
M  V30 44622 H 4440.81 3.90593 -0.907653 0
M  V30 44623 H 4437.4 3.60995 -2.31043 0
M  V30 44624 H 4441.58 3.72031 -3.28492 0
M  V30 44625 H 4436.84 3.93159 -4.68227 0
M  V30 44626 H 4441.01 4.05466 -5.66189 0
M  V30 44627 H 4438.64 4.15635 -6.36516 0
M  V30 44628 N 4440.21 0.821581 1.34491 0
M  V30 44629 C 4441.46 0.408208 1.97935 0
M  V30 44630 C 4441.78 -1.03187 1.65461 0
M  V30 44631 O 4441.05 -1.71619 0.944655 0
M  V30 44632 H 4439.63 0.147954 0.732201 0
M  V30 44633 H 4442.29 1.05073 1.64151 0
M  V30 44634 H 4441.39 0.526119 3.07634 0
M  V30 44635 N 4441.69 -1.4668 0.576422 0
M  V30 44636 C 4442.65 -2.28708 -0.150159 0
M  V30 44637 C 4443.65 -1.38038 -0.824745 0
M  V30 44638 O 4444.84 -1.60479 -0.677663 0
M  V30 44639 C 4441.98 -3.18252 -1.22181 0
M  V30 44640 H 4443.17 -2.94421 0.570625 0
M  V30 44641 H 4440.72 -1.52687 0.334132 0
M  V30 44642 H 4441.46 -2.57272 -1.97437 0
M  V30 44643 H 4441.24 -3.85002 -0.742676 0
M  V30 44644 H 4442.73 -3.80008 -1.73159 0
M  V30 44645 N 4443.17 -0.313868 -1.54443 0
M  V30 44646 C 4444.42 0.291029 -1.99994 0
M  V30 44647 C 4444.74 1.53414 -1.20371 0
M  V30 44648 O 4444.01 1.93543 -0.302995 0
M  V30 44649 H 4442.59 0.110526 -0.738778 0
M  V30 44650 H 4445.25 -0.428173 -1.90139 0
M  V30 44651 H 4444.35 0.55416 -3.07141 0
M  V30 44652 N 4444.65 1.57544 -0.0418402 0
M  V30 44653 C 4445.58 2.14013 0.933854 0
M  V30 44654 C 4446.56 1.05942 1.3308 0
M  V30 44655 O 4447.74 1.33837 1.40717 0
M  V30 44656 C 4444.87 2.67755 2.21189 0
M  V30 44657 C 4443.83 3.80725 1.95531 0
M  V30 44658 C 4443.15 4.20946 3.29709 0
M  V30 44659 C 4444.45 5.06263 1.28434 0
M  V30 44660 H 4446.15 2.9579 0.463541 0
M  V30 44661 H 4443.69 1.42286 0.221523 0
M  V30 44662 H 4445.65 3.05896 2.89837 0
M  V30 44663 H 4444.37 1.83156 2.7041 0
M  V30 44664 H 4443.03 3.43042 1.29298 0
M  V30 44665 H 4442.68 3.33312 3.76713 0
M  V30 44666 H 4442.38 4.97081 3.13343 0
M  V30 44667 H 4443.9 4.6168 3.99604 0
M  V30 44668 H 4445.31 5.4191 1.87101 0
M  V30 44669 H 4443.71 5.8748 1.22424 0
M  V30 44670 H 4444.78 4.84208 0.259048 0
M  V30 44671 N 4446.12 -0.23145 1.55891 0
M  V30 44672 C 4447.07 -1.28675 1.91602 0
M  V30 44673 C 4448.04 -1.47068 0.772026 0
M  V30 44674 O 4449.23 -1.60799 1.02705 0
M  V30 44675 C 4446.37 -2.63412 2.22953 0
M  V30 44676 C 4445.48 -2.52899 3.50237 0
M  V30 44677 C 4444.61 -3.80093 3.71083 0
M  V30 44678 C 4443.65 -3.64262 4.91914 0
M  V30 44679 N 4442.79 -4.83382 5.09201 0
M  V30 44680 H 4447.63 -0.975206 2.81591 0
M  V30 44681 H 4445.17 -0.47025 1.39381 0
M  V30 44682 H 4447.13 -3.41861 2.39138 0
M  V30 44683 H 4445.76 -2.92683 1.3615 0
M  V30 44684 H 4444.81 -1.65938 3.42299 0
M  V30 44685 H 4446.12 -2.37118 4.38835 0
M  V30 44686 H 4445.27 -4.66985 3.87311 0
M  V30 44687 H 4444.01 -3.98789 2.80747 0
M  V30 44688 H 4443.02 -2.75753 4.75647 0
M  V30 44689 H 4444.24 -3.47046 5.83726 0
M  V30 44690 H 4442.19 -5.0241 4.21806 0
M  V30 44691 H 4442.11 -4.7029 5.91915 0
M  V30 44692 H 4443.37 -5.71729 5.29855 0
M  V30 44693 N 4447.6 -1.49533 -0.497755 0
M  V30 44694 C 4448.55 -1.66441 -1.59893 0
M  V30 44695 C 4449.52 -0.505849 -1.5821 0
M  V30 44696 O 4450.7 -0.733264 -1.76147 0
M  V30 44697 C 4447.84 -1.74001 -2.98023 0
M  V30 44698 C 4446.96 -3.01183 -3.09698 0
M  V30 44699 C 4446.09 -2.99702 -4.3858 0
M  V30 44700 C 4445.13 -4.21449 -4.439 0
M  V30 44701 N 4444.27 -4.17859 -5.64214 0
M  V30 44702 H 4449.11 -2.60465 -1.44783 0
M  V30 44703 H 4446.65 -1.29139 -0.704377 0
M  V30 44704 H 4448.6 -1.76365 -3.78089 0
M  V30 44705 H 4447.23 -0.834411 -3.11829 0
M  V30 44706 H 4446.29 -3.08416 -2.22675 0
M  V30 44707 H 4447.6 -3.91176 -3.09488 0
M  V30 44708 H 4446.75 -3.00646 -5.26969 0
M  V30 44709 H 4445.49 -2.07493 -4.41359 0
M  V30 44710 H 4444.5 -4.20745 -3.53912 0
M  V30 44711 H 4445.72 -5.14855 -4.42833 0
M  V30 44712 H 4443.67 -3.28489 -5.6783 0
M  V30 44713 H 4443.58 -5.01591 -5.65635 0
M  V30 44714 H 4444.85 -4.22912 -6.54802 0
M  V30 44715 N 4449.08 0.749038 -1.38662 0
M  V30 44716 C 4450.04 1.84452 -1.36052 0
M  V30 44717 C 4451.04 1.58681 -0.260178 0
M  V30 44718 O 4452.23 1.66341 -0.51732 0
M  V30 44719 C 4449.37 3.22004 -1.11922 0
M  V30 44720 H 4450.56 1.88174 -2.33518 0
M  V30 44721 H 4448.11 0.951223 -1.24022 0
M  V30 44722 H 4448.85 3.23949 -0.1508 0
M  V30 44723 H 4448.63 3.42104 -1.91591 0
M  V30 44724 H 4450.12 4.02077 -1.12802 0
M  V30 44725 N 4450.56 1.23606 0.977714 0
M  V30 44726 C 4451.81 1.07135 1.72191 0
M  V30 44727 C 4452.14 -0.390434 1.90235 0
M  V30 44728 O 4451.41 -1.28896 1.45657 0
M  V30 44729 C 4451.7 1.80042 3.1186 0
M  V30 44730 C 4451.55 3.3391 3.01371 0
M  V30 44731 C 4452.87 1.56507 4.11332 0
M  V30 44732 H 4449.99 0.390593 0.624985 0
M  V30 44733 H 4452.63 1.52146 1.13806 0
M  V30 44734 H 4450.78 1.41781 3.61705 0
M  V30 44735 H 4452.45 3.81708 2.5903 0
M  V30 44736 H 4450.69 3.62804 2.37814 0
M  V30 44737 H 4451.37 3.80114 4.00272 0
M  V30 44738 H 4453.84 1.8977 3.70306 0
M  V30 44739 H 4452.72 2.09991 5.07144 0
M  V30 44740 H 4452.98 0.501028 4.39252 0
M  V30 44741 N 4452.04 -1.17688 1.0482 0
M  V30 44742 C 4453.45 -1.69499 0.782757 0
M  V30 44743 C 4453.8 -1.83459 -0.695513 0
M  V30 44744 O 4452.92 -1.51947 -1.54081 0
M  V30 44745 C 4453.52 -3.07869 1.4143 0
M  V30 44746 C 4452.08 -3.5686 1.19699 0
M  V30 44747 C 4451.23 -2.33215 1.5002 0
M  V30 44748 H 4454.18 -1.02258 1.21363 0
M  V30 44749 H 4454.2 -3.71525 0.821559 0
M  V30 44750 H 4453.71 -2.97676 2.49019 0
M  V30 44751 H 4451.81 -3.72336 0.140174 0
M  V30 44752 H 4451.92 -4.39844 1.89932 0
M  V30 44753 H 4450.29 -2.37498 0.920155 0
M  V30 44754 H 4451.07 -2.25635 2.58735 0
M  V30 44755 N 4453.52 -0.828702 -1.34053 0
M  V30 44756 C 4454.45 -0.269524 -2.31939 0
M  V30 44757 C 4455.43 0.617192 -1.58508 0
M  V30 44758 O 4456.61 0.542865 -1.86458 0
M  V30 44759 C 4453.74 0.564672 -3.42679 0
M  V30 44760 C 4452.7 -0.225391 -4.27406 0
M  V30 44761 C 4452.02 0.731914 -5.29667 0
M  V30 44762 C 4453.32 -1.43681 -5.02149 0
M  V30 44763 H 4455.02 -1.08738 -2.78956 0
M  V30 44764 H 4452.56 -0.52433 -1.34115 0
M  V30 44765 H 4454.51 0.966089 -4.10176 0
M  V30 44766 H 4453.24 1.41564 -2.94325 0
M  V30 44767 H 4451.9 -0.608244 -3.61519 0
M  V30 44768 H 4451.55 1.579 -4.77574 0
M  V30 44769 H 4451.25 0.207463 -5.87234 0
M  V30 44770 H 4452.77 1.13106 -6.00033 0
M  V30 44771 H 4454.18 -1.1091 -5.6247 0
M  V30 44772 H 4452.58 -1.89731 -5.69317 0
M  V30 44773 H 4453.65 -2.21197 -4.31509 0
M  V30 44774 N 4454.99 1.46373 -0.584193 0
M  V30 44775 C 4455.93 2.28444 0.186038 0
M  V30 44776 C 4456.94 1.38599 0.854066 0
M  V30 44777 O 4458.13 1.63185 0.72338 0
M  V30 44778 C 4455.23 3.13676 1.283 0
M  V30 44779 C 4454.4 4.31655 0.706606 0
M  V30 44780 C 4453.46 4.98273 1.69146 0
M  V30 44781 O 4452.49 5.55819 1.22693 0
M  V30 44782 N 4453.69 4.95418 3.02557 0
M  V30 44783 H 4456.45 2.95188 -0.518089 0
M  V30 44784 H 4454.01 1.56302 -0.422065 0
M  V30 44785 H 4456.01 3.55108 1.94115 0
M  V30 44786 H 4454.58 2.48996 1.88997 0
M  V30 44787 H 4453.8 3.93989 -0.129046 0
M  V30 44788 H 4455.08 5.07907 0.301328 0
M  V30 44789 H 4454.48 4.49914 3.4292 0
M  V30 44790 H 4453.04 5.40787 3.63858 0
M  V30 44791 N 4456.47 0.322054 1.54274 0
M  V30 44792 C 4457.88 -0.166319 1.85958 0
M  V30 44793 C 4458.23 -1.51743 1.24373 0
M  V30 44794 O 4457.36 -2.09315 0.549198 0
M  V30 44795 C 4457.95 -0.308563 3.37392 0
M  V30 44796 C 4456.51 -0.741156 3.69031 0
M  V30 44797 C 4455.66 0.138034 2.76956 0
M  V30 44798 H 4458.61 0.542387 1.49144 0
M  V30 44799 H 4458.63 -1.13972 3.6303 0
M  V30 44800 H 4458.14 0.674943 3.82186 0
M  V30 44801 H 4456.24 -1.73446 3.29768 0
M  V30 44802 H 4456.36 -0.545951 4.75979 0
M  V30 44803 H 4454.72 -0.386162 2.51756 0
M  V30 44804 H 4455.5 1.11828 3.24576 0
M  V30 44805 N 4457.95 -1.5752 0.0501946 0
M  V30 44806 C 4459.36 -1.80273 -0.485642 0
M  V30 44807 C 4459.71 -0.96234 -1.70978 0
M  V30 44808 O 4458.84 -0.178653 -2.15661 0
M  V30 44809 C 4459.43 -3.2696 -0.887823 0
M  V30 44810 C 4457.99 -3.50635 -1.36865 0
M  V30 44811 C 4457.14 -2.75166 -0.343371 0
M  V30 44812 H 4460.09 -1.5628 0.276083 0
M  V30 44813 H 4460.11 -3.37827 -1.75081 0
M  V30 44814 H 4459.62 -3.881 0.00331733 0
M  V30 44815 H 4457.72 -2.94774 -2.27901 0
M  V30 44816 H 4457.84 -4.59348 -1.36148 0
M  V30 44817 H 4456.2 -2.41273 -0.816043 0
M  V30 44818 H 4456.98 -3.39032 0.539668 0
M  V30 44819 N 4459.43 0.223179 -1.56012 0
M  V30 44820 C 4460.84 0.790308 -1.69148 0
M  V30 44821 C 4461.19 1.85053 -0.65191 0
M  V30 44822 O 4460.31 2.15499 0.197283 0
M  V30 44823 C 4460.91 1.44029 -3.06661 0
M  V30 44824 C 4459.47 1.95483 -3.21657 0
M  V30 44825 C 4458.62 0.814413 -2.65071 0
M  V30 44826 H 4461.57 -0.0014459 -1.587 0
M  V30 44827 H 4461.59 2.30906 -3.02428 0
M  V30 44828 H 4461.1 0.668409 -3.82301 0
M  V30 44829 H 4459.2 2.75478 -2.50884 0
M  V30 44830 H 4459.31 2.13592 -4.28854 0
M  V30 44831 H 4457.68 1.2213 -2.23509 0
M  V30 44832 H 4458.46 0.0552308 -3.43256 0
M  V30 44833 N 4460.91 1.49795 0.489818 0
M  V30 44834 C 4462.32 1.52918 1.07112 0
M  V30 44835 C 4462.67 0.321806 1.93543 0
M  V30 44836 O 4461.79 -0.567265 2.08833 0
M  V30 44837 C 4462.39 2.77107 1.94929 0
M  V30 44838 C 4460.95 2.82972 2.48202 0
M  V30 44839 C 4460.09 2.46976 1.26088 0
M  V30 44840 H 4463.04 1.5633 0.273234 0
M  V30 44841 H 4463.07 2.57902 2.79762 0
M  V30 44842 H 4462.58 3.64964 1.31996 0
M  V30 44843 H 4460.68 1.99422 3.14741 0
M  V30 44844 H 4460.79 3.85416 2.84589 0
M  V30 44845 H 4459.16 1.99 1.58969 0
M  V30 44846 H 4459.94 3.3712 0.648462 0
M  V30 44847 N 4462.38 -0.741673 1.39057 0
M  V30 44848 C 4463.31 -1.86895 1.39973 0
M  V30 44849 C 4464.29 -1.68039 0.263979 0
M  V30 44850 O 4465.48 -1.88456 0.468821 0
M  V30 44851 C 4462.61 -3.24567 1.23586 0
M  V30 44852 C 4461.56 -3.58048 2.3449 0
M  V30 44853 C 4460.89 -4.94585 2.03198 0
M  V30 44854 C 4462.19 -3.61703 3.76787 0
M  V30 44855 H 4463.88 -1.86387 2.34308 0
M  V30 44856 H 4461.43 -0.895321 1.12783 0
M  V30 44857 H 4463.38 -4.03096 1.22848 0
M  V30 44858 H 4462.11 -3.25586 0.25716 0
M  V30 44859 H 4460.77 -2.81845 2.34433 0
M  V30 44860 H 4460.41 -4.92177 1.03783 0
M  V30 44861 H 4460.11 -5.17955 2.77483 0
M  V30 44862 H 4461.64 -5.75479 2.04099 0
M  V30 44863 H 4463.05 -4.30321 3.78809 0
M  V30 44864 H 4461.45 -3.96588 4.50376 0
M  V30 44865 H 4462.52 -2.61658 4.08244 0
M  V30 44866 N 4463.86 -1.24123 -0.971145 0
M  V30 44867 C 4465.09 -1.10581 -1.7487 0
M  V30 44868 C 4465.5 0.341952 -1.85677 0
M  V30 44869 O 4464.86 1.23612 -1.34262 0
M  V30 44870 C 4464.91 -1.7359 -3.17094 0
M  V30 44871 O 4464.63 -3.12706 -3.06833 0
M  V30 44872 C 4466.13 -1.65613 -4.11202 0
M  V30 44873 H 4463.35 -0.386523 -0.54849 0
M  V30 44874 H 4465.9 -1.6416 -1.21949 0
M  V30 44875 H 4464.05 -1.24022 -3.67011 0
M  V30 44876 H 4464.47 -3.43426 -3.96433 0
M  V30 44877 H 4465.94 -2.14388 -5.08667 0
M  V30 44878 H 4466.42 -0.616685 -4.34849 0
M  V30 44879 H 4467.02 -2.14591 -3.67193 0
M  V30 44880 N 4465.34 1.17131 -1.05443 0
M  V30 44881 C 4466.57 1.9191 -0.786463 0
M  V30 44882 C 4466.99 1.76432 0.652172 0
M  V30 44883 O 4466.35 1.08378 1.45341 0
M  V30 44884 C 4466.4 3.40916 -1.17509 0
M  V30 44885 O 4465.5 4.11243 -0.308733 0
M  V30 44886 H 4464.84 0.598205 -0.288179 0
M  V30 44887 H 4467.37 1.48452 -1.40795 0
M  V30 44888 H 4467.38 3.91664 -1.14294 0
M  V30 44889 H 4466.06 3.51502 -2.22304 0
M  V30 44890 H 4464.63 3.7073 -0.4017 0
M  V30 44891 N 4466.82 0.835799 1.33612 0
M  V30 44892 C 4467.78 0.27208 2.27579 0
M  V30 44893 C 4468.78 -0.557434 1.50829 0
M  V30 44894 O 4469.97 -0.37167 1.70189 0
M  V30 44895 C 4467.1 -0.617055 3.35269 0
M  V30 44896 H 4468.3 1.10121 2.7895 0
M  V30 44897 H 4465.85 0.608645 1.43962 0
M  V30 44898 H 4466.58 -1.46874 2.89134 0
M  V30 44899 H 4466.37 -0.0235688 3.92093 0
M  V30 44900 H 4467.86 -1.00485 4.0533 0
M  V30 44901 N 4468.3 -1.46061 0.591947 0
M  V30 44902 C 4469.52 -2.07225 0.0851042 0
M  V30 44903 C 4469.95 -1.4363 -1.21458 0
M  V30 44904 O 4469.3 -0.523366 -1.73582 0
M  V30 44905 C 4469.35 -3.60554 -0.0575299 0
M  V30 44906 O 4468.46 -3.97132 -1.11174 0
M  V30 44907 H 4467.8 -0.660613 0.06698 0
M  V30 44908 H 4470.33 -1.87558 0.817516 0
M  V30 44909 H 4470.34 -4.07166 -0.260757 0
M  V30 44910 H 4469.01 -4.06232 0.891559 0
M  V30 44911 H 4467.59 -3.62216 -0.886229 0
M  V30 44912 N 4469.77 -0.330231 -1.54101 0
M  V30 44913 C 4470.72 0.532683 -2.24569 0
M  V30 44914 C 4471.69 1.10631 -1.23895 0
M  V30 44915 O 4472.88 1.14541 -1.52595 0
M  V30 44916 C 4470.02 1.68439 -3.01201 0
M  V30 44917 C 4469.13 1.13936 -4.16704 0
M  V30 44918 C 4468.26 2.25729 -4.80853 0
M  V30 44919 C 4467.3 1.68509 -5.88448 0
M  V30 44920 N 4466.44 2.73991 -6.46431 0
M  V30 44921 H 4471.28 -0.0747952 -2.97906 0
M  V30 44922 H 4468.82 -0.0486837 -1.47019 0
M  V30 44923 H 4470.78 2.36222 -3.43882 0
M  V30 44924 H 4469.41 2.26306 -2.30186 0
M  V30 44925 H 4468.46 0.352877 -3.7876 0
M  V30 44926 H 4469.77 0.680718 -4.94133 0
M  V30 44927 H 4468.92 3.01404 -5.26537 0
M  V30 44928 H 4467.66 2.74933 -4.02819 0
M  V30 44929 H 4466.67 0.913353 -5.4216 0
M  V30 44930 H 4467.89 1.20175 -6.68382 0
M  V30 44931 H 4465.84 3.22474 -5.71268 0
M  V30 44932 H 4465.76 2.3271 -7.19293 0
M  V30 44933 H 4467.02 3.49475 -6.96769 0
M  V30 44934 N 4471.25 1.57491 -0.0585476 0
M  V30 44935 C 4472.22 2.10853 0.898543 0
M  V30 44936 C 4473.22 1.02968 1.23508 0
M  V30 44937 O 4474.41 1.29012 1.17054 0
M  V30 44938 C 4471.54 2.59889 2.20614 0
M  V30 44939 H 4472.73 2.96716 0.435831 0
M  V30 44940 H 4470.28 1.55141 0.189968 0
M  V30 44941 H 4471.02 1.7744 2.71451 0
M  V30 44942 H 4470.8 3.38734 1.97489 0
M  V30 44943 H 4472.29 3.01295 2.89156 0
M  V30 44944 N 4472.73 -0.214903 1.56128 0
M  V30 44945 C 4473.98 -0.936389 1.78647 0
M  V30 44946 C 4474.29 -1.85235 0.628294 0
M  V30 44947 O 4475.5 -2.61298 0.737278 0
M  V30 44948 C 4473.95 -1.71529 3.16395 0
M  V30 44949 C 4473.56 -0.845145 4.39956 0
M  V30 44950 C 4475.31 -2.4276 3.48236 0
M  V30 44951 C 4473.21 -1.62178 5.68729 0
M  V30 44952 H 4472.14 -0.353378 0.666063 0
M  V30 44953 H 4474.79 -0.190105 1.82513 0
M  V30 44954 H 4473.18 -2.50473 3.06724 0
M  V30 44955 H 4474.35 -0.0957733 4.607 0
M  V30 44956 H 4472.67 -0.244642 4.15681 0
M  V30 44957 H 4475.26 -3.01378 4.41673 0
M  V30 44958 H 4475.61 -3.15974 2.71046 0
M  V30 44959 H 4476.14 -1.708 3.59266 0
M  V30 44960 H 4472.88 -0.932783 6.48829 0
M  V30 44961 H 4472.4 -2.34559 5.52034 0
M  V30 44962 H 4474.08 -2.18074 6.09141 0
M  V30 44963 N 4474.21 -1.50053 -0.481867 0
M  V30 44964 C 4475.14 -1.64269 -1.59839 0
M  V30 44965 C 4476.15 -0.524564 -1.54117 0
M  V30 44966 O 4477.34 -0.797349 -1.59702 0
M  V30 44967 C 4474.44 -1.60113 -2.98692 0
M  V30 44968 C 4473.62 -2.87779 -3.29397 0
M  V30 44969 C 4472.67 -2.76413 -4.47753 0
M  V30 44970 O 4471.7 -3.50364 -4.48591 0
M  V30 44971 N 4472.9 -1.89242 -5.48788 0
M  V30 44972 H 4475.67 -2.60571 -1.48064 0
M  V30 44973 H 4473.23 -1.47382 -0.670097 0
M  V30 44974 H 4475.22 -1.50137 -3.75821 0
M  V30 44975 H 4473.79 -0.715905 -3.04292 0
M  V30 44976 H 4473.01 -3.11963 -2.40983 0
M  V30 44977 H 4474.3 -3.72377 -3.46717 0
M  V30 44978 H 4473.7 -1.28453 -5.50923 0
M  V30 44979 H 4472.25 -1.85176 -6.24942 0
M  V30 44980 N 4475.69 0.734288 -1.39449 0
M  V30 44981 C 4476.93 1.49608 -1.36914 0
M  V30 44982 C 4477.27 1.94169 0.0347146 0
M  V30 44983 O 4476.54 1.66837 0.999789 0
M  V30 44984 C 4476.82 2.73526 -2.34212 0
M  V30 44985 C 4476.68 2.34979 -3.83542 0
M  V30 44986 C 4478 3.75627 -2.2933 0
M  V30 44987 H 4475.11 0.542697 -0.498648 0
M  V30 44988 H 4477.76 0.839537 -1.70446 0
M  V30 44989 H 4475.91 3.29545 -2.05748 0
M  V30 44990 H 4477.58 1.84586 -4.2276 0
M  V30 44991 H 4475.82 1.67199 -4.00283 0
M  V30 44992 H 4476.49 3.23722 -4.47111 0
M  V30 44993 H 4478.97 3.29194 -2.54501 0
M  V30 44994 H 4477.84 4.59998 -2.99488 0
M  V30 44995 H 4478.11 4.22599 -1.29857 0
M  V30 44996 N 4477.16 1.24636 0.964549 0
M  V30 44997 C 4478.41 1.08794 1.70792 0
M  V30 44998 C 4478.74 -0.372716 1.90895 0
M  V30 44999 O 4477.99 -1.29162 1.47022 0
M  V30 45000 C 4478.29 1.77641 3.10127 0
M  V30 45001 C 4477.96 3.27568 3.09855 0
M  V30 45002 C 4476.62 3.68471 3.09488 0
M  V30 45003 C 4478.97 4.234 3.03944 0
M  V30 45004 C 4476.3 5.03634 3.00947 0
M  V30 45005 C 4478.65 5.58575 2.96946 0
M  V30 45006 C 4477.32 5.9882 2.94909 0
M  V30 45007 H 4476.59 0.398106 0.624974 0
M  V30 45008 H 4479.23 1.54781 1.12762 0
M  V30 45009 H 4477.54 1.24058 3.71641 0
M  V30 45010 H 4479.24 1.62845 3.66446 0
M  V30 45011 H 4475.83 2.95017 3.10907 0
M  V30 45012 H 4480.01 3.92797 3.03355 0
M  V30 45013 H 4475.27 5.34008 2.97733 0
M  V30 45014 H 4479.44 6.32534 2.91332 0
M  V30 45015 H 4477.07 7.03515 2.88046 0
M  V30 45016 N 4478.64 -1.1657 1.06062 0
M  V30 45017 C 4479.57 -2.23055 0.690566 0
M  V30 45018 C 4480.55 -1.67142 -0.315842 0
M  V30 45019 O 4481.74 -1.93254 -0.191488 0
M  V30 45020 C 4478.87 -3.47222 0.0737471 0
M  V30 45021 C 4477.82 -4.16012 1.00587 0
M  V30 45022 C 4477.15 -5.34104 0.252477 0
M  V30 45023 C 4478.45 -4.67255 2.33387 0
M  V30 45024 H 4480.14 -2.54265 1.58081 0
M  V30 45025 H 4477.69 -1.22216 0.761533 0
M  V30 45026 H 4479.64 -4.20939 -0.196992 0
M  V30 45027 H 4478.37 -3.15305 -0.851499 0
M  V30 45028 H 4477.02 -3.44218 1.26132 0
M  V30 45029 H 4476.67 -4.98439 -0.675813 0
M  V30 45030 H 4476.37 -5.81069 0.873659 0
M  V30 45031 H 4477.9 -6.10599 -0.010771 0
M  V30 45032 H 4479.31 -5.32566 2.12242 0
M  V30 45033 H 4477.71 -5.24833 2.90982 0
M  V30 45034 H 4478.78 -3.83591 2.96624 0
M  V30 45035 N 4480.12 -0.842873 -1.33167 0
M  V30 45036 C 4481.05 -0.294109 -2.3164 0
M  V30 45037 C 4482.03 0.600345 -1.59154 0
M  V30 45038 O 4483.22 0.523058 -1.87023 0
M  V30 45039 C 4480.35 0.528295 -3.43258 0
M  V30 45040 C 4479.3 -0.27071 -4.27143 0
M  V30 45041 C 4478.63 0.675695 -5.30413 0
M  V30 45042 C 4479.93 -1.48999 -5.00596 0
M  V30 45043 H 4481.62 -1.11691 -2.77787 0
M  V30 45044 H 4479.17 -0.538525 -1.33551 0
M  V30 45045 H 4481.12 0.92253 -4.11178 0
M  V30 45046 H 4479.84 1.38434 -2.9581 0
M  V30 45047 H 4478.5 -0.646554 -3.60853 0
M  V30 45048 H 4478.15 1.52825 -4.79222 0
M  V30 45049 H 4477.85 0.145168 -5.87421 0
M  V30 45050 H 4479.38 1.06736 -6.01199 0
M  V30 45051 H 4480.79 -1.16869 -5.61262 0
M  V30 45052 H 4479.19 -1.95759 -5.67273 0
M  V30 45053 H 4480.26 -2.25761 -4.29139 0
M  V30 45054 N 4481.6 1.45745 -0.599685 0
M  V30 45055 C 4482.85 2.01892 -0.0916182 0
M  V30 45056 C 4483.17 1.4716 1.27941 0
M  V30 45057 O 4482.44 0.662795 1.84347 0
M  V30 45058 H 4481.02 0.746362 -0.0308786 0
M  V30 45059 H 4483.68 1.78642 -0.7793 0
M  V30 45060 H 4482.78 3.1208 -0.0354184 0
M  V30 45061 N 4483.08 0.338398 1.53924 0
M  V30 45062 C 4484.33 -0.259175 2.00431 0
M  V30 45063 C 4484.65 -1.51479 1.22797 0
M  V30 45064 O 4483.92 -1.93036 0.333747 0
M  V30 45065 H 4482.5 -0.0987585 0.740443 0
M  V30 45066 H 4485.16 0.458368 1.89433 0
M  V30 45067 H 4484.25 -0.505226 3.07984 0
M  V30 45068 N 4484.56 -1.57458 0.0668989 0
M  V30 45069 C 4485.78 -1.98042 -0.615957 0
M  V30 45070 C 4486.21 -0.944828 -1.62649 0
M  V30 45071 O 4485.56 0.0901457 -1.81076 0
M  V30 45072 C 4485.61 -3.3767 -1.26537 0
M  V30 45073 O 4484.72 -3.36709 -2.38119 0
M  V30 45074 H 4484.06 -0.644725 -0.158827 0
M  V30 45075 H 4486.59 -2.04121 0.139962 0
M  V30 45076 H 4486.6 -3.74746 -1.61336 0
M  V30 45077 H 4485.27 -4.12575 -0.524871 0
M  V30 45078 H 4483.85 -3.11397 -2.05149 0
M  V30 45079 N 4486.03 0.20662 -1.5624 0
M  V30 45080 C 4487.45 0.556972 -1.49566 0
M  V30 45081 C 4487.65 1.86422 -0.764801 0
M  V30 45082 O 4486.71 2.50583 -0.310579 0
M  V30 45083 C 4488.02 0.622375 -2.94189 0
M  V30 45084 C 4489.57 0.711992 -3.04794 0
M  V30 45085 C 4490.04 0.808608 -4.50805 0
M  V30 45086 N 4491.53 0.87244 -4.5491 0
M  V30 45087 C 4492.27 0.967166 -5.65184 0
M  V30 45088 N 4491.76 1.02491 -6.85177 0
M  V30 45089 N 4493.56 1.00346 -5.53071 0
M  V30 45090 H 4485.71 -0.651014 -2.02177 0
M  V30 45091 H 4487.97 -0.230419 -0.919571 0
M  V30 45092 H 4487.68 -0.26885 -3.50671 0
M  V30 45093 H 4487.55 1.48098 -3.46911 0
M  V30 45094 H 4489.94 1.59365 -2.48368 0
M  V30 45095 H 4490.02 -0.172579 -2.55217 0
M  V30 45096 H 4489.66 -0.0686539 -5.07854 0
M  V30 45097 H 4489.59 1.70881 -4.98104 0
M  V30 45098 H 4492.08 0.837527 -3.68502 0
M  V30 45099 H 4492.4 1.09738 -7.64969 0
M  V30 45100 H 4490.74 0.993784 -6.87858 0
M  V30 45101 H 4493.93 0.955108 -4.58252 0
M  V30 45102 H 4494.11 1.07383 -6.39041 0
M  V30 45103 N 4487.51 1.50306 0.473902 0
M  V30 45104 C 4488.46 1.68964 1.57225 0
M  V30 45105 C 4489.43 0.530955 1.57385 0
M  V30 45106 O 4490.61 0.761194 1.74958 0
M  V30 45107 C 4487.75 1.7872 2.95217 0
M  V30 45108 C 4486.87 3.06072 3.04867 0
M  V30 45109 C 4486 3.06641 4.33757 0
M  V30 45110 C 4485.04 4.28458 4.37138 0
M  V30 45111 N 4484.18 4.26783 5.57495 0
M  V30 45112 H 4489.02 2.62735 1.40621 0
M  V30 45113 H 4486.55 1.30243 0.683743 0
M  V30 45114 H 4488.51 1.82358 3.75235 0
M  V30 45115 H 4487.14 0.883915 3.10462 0
M  V30 45116 H 4486.19 3.11919 2.1774 0
M  V30 45117 H 4487.51 3.9605 3.03226 0
M  V30 45118 H 4486.66 3.08992 5.2212 0
M  V30 45119 H 4485.4 2.14488 4.38003 0
M  V30 45120 H 4484.4 4.26323 3.47173 0
M  V30 45121 H 4485.63 5.21835 4.34586 0
M  V30 45122 H 4483.58 3.37482 5.62532 0
M  V30 45123 H 4483.49 5.10526 5.57583 0
M  V30 45124 H 4484.76 4.33275 6.47991 0
M  V30 45125 N 4488.99 -0.726883 1.39836 0
M  V30 45126 C 4490.41 -1.0335 1.21618 0
M  V30 45127 C 4490.61 -2.01327 0.0834507 0
M  V30 45128 O 4489.66 -2.4616 -0.562293 0
M  V30 45129 C 4490.97 -1.58802 2.55348 0
M  V30 45130 C 4492.52 -1.70842 2.62263 0
M  V30 45131 C 4493 -2.29702 3.96233 0
M  V30 45132 N 4494.49 -2.37102 3.97916 0
M  V30 45133 C 4495.22 -2.83601 4.98355 0
M  V30 45134 N 4494.72 -3.29937 6.09191 0
M  V30 45135 N 4496.51 -2.82884 4.8573 0
M  V30 45136 H 4488.66 -0.0772323 2.1226 0
M  V30 45137 H 4490.93 -0.0968771 0.943037 0
M  V30 45138 H 4490.63 -0.942736 3.38829 0
M  V30 45139 H 4490.51 -2.57492 2.75641 0
M  V30 45140 H 4492.89 -2.3449 1.7916 0
M  V30 45141 H 4492.97 -0.707827 2.45812 0
M  V30 45142 H 4492.62 -1.6668 4.79771 0
M  V30 45143 H 4492.55 -3.30454 4.10009 0
M  V30 45144 H 4495.04 -2.04363 3.17875 0
M  V30 45145 H 4495.35 -3.63952 6.81732 0
M  V30 45146 H 4493.7 -3.27925 6.12773 0
M  V30 45147 H 4496.89 -2.46013 3.9824 0
M  V30 45148 H 4497.06 -3.18807 5.64151 0
M  V30 45149 N 4490.47 -1.25146 -0.957926 0
M  V30 45150 C 4491.71 -1.09861 -1.70465 0
M  V30 45151 C 4492.05 0.36012 -1.90832 0
M  V30 45152 O 4491.32 1.26563 -1.47689 0
M  V30 45153 C 4491.6 -1.84981 -3.08957 0
M  V30 45154 C 4491.46 -3.38662 -2.9602 0
M  V30 45155 C 4492.78 -1.63031 -4.0879 0
M  V30 45156 H 4489.9 -0.400486 -0.618692 0
M  V30 45157 H 4492.54 -1.53937 -1.11371 0
M  V30 45158 H 4490.69 -1.47517 -3.59403 0
M  V30 45159 H 4492.36 -3.85781 -2.52924 0
M  V30 45160 H 4490.6 -3.66542 -2.32012 0
M  V30 45161 H 4491.27 -3.86434 -3.94174 0
M  V30 45162 H 4493.75 -1.95638 -3.6724 0
M  V30 45163 H 4492.63 -2.18033 -5.03739 0
M  V30 45164 H 4492.89 -0.570846 -4.38399 0
M  V30 45165 N 4491.95 1.16006 -1.06679 0
M  V30 45166 C 4492.88 2.22685 -0.702386 0
M  V30 45167 C 4493.86 1.67307 0.306974 0
M  V30 45168 O 4495.04 1.93352 0.181237 0
M  V30 45169 C 4492.17 3.47178 -0.09216 0
M  V30 45170 C 4491.13 4.15473 -1.02792 0
M  V30 45171 C 4490.45 5.33962 -0.280798 0
M  V30 45172 C 4491.75 4.66011 -2.35862 0
M  V30 45173 H 4493.45 2.53423 -1.59427 0
M  V30 45174 H 4490.99 1.2181 -0.768004 0
M  V30 45175 H 4492.94 4.21038 0.174666 0
M  V30 45176 H 4491.67 3.15752 0.834766 0
M  V30 45177 H 4490.33 3.43545 -1.27956 0
M  V30 45178 H 4489.98 4.98791 0.64937 0
M  V30 45179 H 4489.68 5.80597 -0.904463 0
M  V30 45180 H 4491.2 6.10596 -0.0216107 0
M  V30 45181 H 4492.61 5.31433 -2.15063 0
M  V30 45182 H 4491.01 5.23282 -2.93761 0
M  V30 45183 H 4492.08 3.82013 -2.98654 0
M  V30 45184 N 4493.42 0.849923 1.32718 0
M  V30 45185 C 4494.67 0.45166 1.97707 0
M  V30 45186 C 4495 -0.989116 1.67123 0
M  V30 45187 O 4494.28 -1.6933 0.956951 0
M  V30 45188 C 4494.56 0.685722 3.53511 0
M  V30 45189 C 4494.41 2.17457 3.93741 0
M  V30 45190 C 4495.73 0.139029 4.3988 0
M  V30 45191 H 4492.85 0.165575 0.71816 0
M  V30 45192 H 4495.49 1.06748 1.57178 0
M  V30 45193 H 4493.64 0.161552 3.88164 0
M  V30 45194 H 4495.32 2.76446 3.6929 0
M  V30 45195 H 4493.56 2.65489 3.43072 0
M  V30 45196 H 4494.23 2.28906 5.02301 0
M  V30 45197 H 4496.71 0.587212 4.11936 0
M  V30 45198 H 4495.58 0.332406 5.47893 0
M  V30 45199 H 4495.84 -0.957908 4.31598 0
M  V30 45200 N 4494.9 -1.45425 0.607406 0
M  V30 45201 C 4496.32 -1.57282 0.27104 0
M  V30 45202 C 4496.52 -1.59879 -1.22641 0
M  V30 45203 O 4495.57 -1.529 -2.00943 0
M  V30 45204 C 4496.89 -2.85562 0.942053 0
M  V30 45205 C 4498.44 -2.99237 0.917954 0
M  V30 45206 C 4498.91 -4.30287 1.56897 0
M  V30 45207 N 4500.4 -4.37045 1.53445 0
M  V30 45208 C 4501.14 -5.37116 2.00733 0
M  V30 45209 N 4500.63 -6.43725 2.56106 0
M  V30 45210 N 4502.43 -5.28473 1.91502 0
M  V30 45211 H 4494.58 -1.41982 1.57971 0
M  V30 45212 H 4496.84 -0.678827 0.661739 0
M  V30 45213 H 4496.55 -2.89543 1.99643 0
M  V30 45214 H 4496.42 -3.7432 0.465227 0
M  V30 45215 H 4498.81 -2.94823 -0.12788 0
M  V30 45216 H 4498.89 -2.1189 1.43304 0
M  V30 45217 H 4498.53 -4.3546 2.61414 0
M  V30 45218 H 4498.46 -5.1645 1.02891 0
M  V30 45219 H 4500.95 -3.60611 1.12995 0
M  V30 45220 H 4501.27 -7.16331 2.89983 0
M  V30 45221 H 4499.61 -6.44476 2.60145 0
M  V30 45222 H 4502.8 -4.44093 1.47982 0
M  V30 45223 H 4502.97 -6.06312 2.28669 0
M  V30 45224 N 4496.38 -0.346557 -1.53742 0
M  V30 45225 C 4497.63 0.249403 -2.01261 0
M  V30 45226 C 4497.96 1.49961 -1.23391 0
M  V30 45227 O 4497.23 1.9181 -0.322357 0
M  V30 45228 C 4497.52 0.560518 -3.55711 0
M  V30 45229 C 4497.37 -0.701992 -4.44288 0
M  V30 45230 C 4498.69 1.36891 -4.18269 0
M  V30 45231 H 4495.81 0.089173 -0.731585 0
M  V30 45232 H 4498.45 -0.467689 -1.84154 0
M  V30 45233 H 4496.6 1.17142 -3.70419 0
M  V30 45234 H 4498.27 -1.3399 -4.41412 0
M  V30 45235 H 4496.52 -1.32627 -4.13028 0
M  V30 45236 H 4497.19 -0.439524 -5.50247 0
M  V30 45237 H 4499.66 0.852305 -4.07278 0
M  V30 45238 H 4498.54 1.55534 -5.26403 0
M  V30 45239 H 4498.8 2.37189 -3.73087 0
M  V30 45240 N 4497.86 1.5742 -0.0752483 0
M  V30 45241 C 4498.77 2.16423 0.905434 0
M  V30 45242 C 4499.78 1.12832 1.32457 0
M  V30 45243 O 4500.96 1.45114 1.39656 0
M  V30 45244 C 4498.03 2.717 2.1536 0
M  V30 45245 C 4497.09 3.90177 1.79055 0
M  V30 45246 C 4496.32 4.42808 2.9792 0
M  V30 45247 O 4496.54 3.94431 4.12045 0
M  V30 45248 O 4495.48 5.34095 2.77537 0
M  V30 45249 H 4499.3 3.0059 0.43352 0
M  V30 45250 H 4496.89 1.48665 0.148015 0
M  V30 45251 H 4498.77 3.07114 2.88546 0
M  V30 45252 H 4497.44 1.90591 2.61642 0
M  V30 45253 H 4496.35 3.5961 1.0311 0
M  V30 45254 H 4497.68 4.72589 1.37552 0
M  V30 45255 N 4499.34 -0.198331 1.56347 0
M  V30 45256 C 4500.75 -0.549032 1.49859 0
M  V30 45257 C 4500.95 -1.86013 0.774677 0
M  V30 45258 O 4500.01 -2.50414 0.323864 0
M  V30 45259 C 4501.32 -0.606765 2.94515 0
M  V30 45260 C 4502.87 -0.695818 3.05168 0
M  V30 45261 C 4503.34 -0.78469 4.51228 0
M  V30 45262 N 4504.84 -0.848303 4.55366 0
M  V30 45263 C 4505.57 -0.937179 5.65689 0
M  V30 45264 N 4505.07 -0.988559 6.85711 0
M  V30 45265 N 4506.86 -0.974118 5.53595 0
M  V30 45266 H 4499.01 0.661726 2.01829 0
M  V30 45267 H 4501.27 0.235293 0.918336 0
M  V30 45268 H 4500.98 0.287443 3.50523 0
M  V30 45269 H 4500.85 -1.46256 3.47691 0
M  V30 45270 H 4503.24 -1.58046 2.4921 0
M  V30 45271 H 4503.32 0.186111 2.55122 0
M  V30 45272 H 4502.97 0.0955857 5.0781 0
M  V30 45273 H 4502.9 -1.68237 4.99003 0
M  V30 45274 H 4505.39 -0.817973 3.68941 0
M  V30 45275 H 4505.7 -1.0568 7.6554 0
M  V30 45276 H 4504.04 -0.957292 6.88376 0
M  V30 45277 H 4507.24 -0.930793 4.58753 0
M  V30 45278 H 4507.41 -1.03992 6.39601 0
M  V30 45279 N 4500.81 -1.50555 -0.465925 0
M  V30 45280 C 4501.78 -1.69238 -1.54568 0
M  V30 45281 C 4502.78 -0.562954 -1.50624 0
M  V30 45282 O 4503.97 -0.830069 -1.53152 0
M  V30 45283 C 4501.1 -1.7224 -2.94187 0
M  V30 45284 H 4502.29 -2.65576 -1.39318 0
M  V30 45285 H 4499.85 -1.40114 -0.692662 0
M  V30 45286 H 4500.58 -0.77614 -3.14875 0
M  V30 45287 H 4500.37 -2.54295 -2.98457 0
M  V30 45288 H 4501.86 -1.88631 -3.72569 0
M  V30 45289 N 4502.29 0.719457 -1.4022 0
M  V30 45290 C 4503.52 1.50859 -1.41595 0
M  V30 45291 C 4503.94 1.88794 -0.0145939 0
M  V30 45292 O 4503.29 1.55177 0.960539 0
M  V30 45293 C 4503.34 2.78637 -2.30312 0
M  V30 45294 O 4503.06 2.42308 -3.64991 0
M  V30 45295 C 4504.57 3.7256 -2.40237 0
M  V30 45296 H 4501.79 0.465692 -0.483086 0
M  V30 45297 H 4504.33 0.887785 -1.84224 0
M  V30 45298 H 4502.48 3.37012 -1.91054 0
M  V30 45299 H 4502.9 3.245 -4.12068 0
M  V30 45300 H 4504.37 4.59069 -3.06528 0
M  V30 45301 H 4504.85 4.15398 -1.42623 0
M  V30 45302 H 4505.46 3.20099 -2.8003 0
M  V30 45303 N 4503.77 1.25652 0.951275 0
M  V30 45304 C 4505.02 1.10763 1.6988 0
M  V30 45305 C 4505.35 -0.349994 1.9102 0
M  V30 45306 O 4504.62 -1.25778 1.48358 0
M  V30 45307 C 4504.91 1.86617 3.07971 0
M  V30 45308 C 4504.76 3.40227 2.9422 0
M  V30 45309 C 4506.08 1.65196 4.07919 0
M  V30 45310 H 4503.2 0.403762 0.616559 0
M  V30 45311 H 4505.84 1.54525 1.10553 0
M  V30 45312 H 4503.99 1.49421 3.58616 0
M  V30 45313 H 4505.66 3.87117 2.50875 0
M  V30 45314 H 4503.91 3.67767 2.30065 0
M  V30 45315 H 4504.58 3.88519 3.92119 0
M  V30 45316 H 4507.05 1.97582 3.66197 0
M  V30 45317 H 4505.93 2.20701 5.02576 0
M  V30 45318 H 4506.19 0.594087 4.3809 0
M  V30 45319 N 4505.25 -1.15438 1.07293 0
M  V30 45320 C 4506.48 -1.89818 0.815642 0
M  V30 45321 C 4506.89 -1.78233 -0.634804 0
M  V30 45322 O 4506.23 -1.13157 -1.44711 0
M  V30 45323 C 4506.29 -3.40813 1.14397 0
M  V30 45324 C 4505.96 -3.76184 2.59489 0
M  V30 45325 C 4506.95 -3.77257 3.57734 0
M  V30 45326 C 4504.64 -4.0651 2.95051 0
M  V30 45327 C 4506.63 -4.08159 4.89576 0
M  V30 45328 C 4504.32 -4.37077 4.27091 0
M  V30 45329 C 4505.32 -4.37883 5.24163 0
M  V30 45330 O 4505 -4.67718 6.53831 0
M  V30 45331 H 4504.74 -0.608454 0.294549 0
M  V30 45332 H 4507.29 -1.47195 1.43258 0
M  V30 45333 H 4505.52 -3.83833 0.47 0
M  V30 45334 H 4507.21 -3.96482 0.869318 0
M  V30 45335 H 4507.98 -3.53928 3.31602 0
M  V30 45336 H 4503.85 -4.05041 2.20142 0
M  V30 45337 H 4507.4 -4.08703 5.65338 0
M  V30 45338 H 4503.3 -4.59873 4.52976 0
M  V30 45339 H 4504.06 -4.85485 6.58974 0
M  V30 45340 N 4506.73 -0.85695 -1.32265 0
M  V30 45341 C 4507.95 -0.47464 -2.01896 0
M  V30 45342 C 4508.38 0.921709 -1.6397 0
M  V30 45343 O 4507.73 1.60586 -0.841537 0
M  V30 45344 C 4507.78 -0.623923 -3.55161 0
M  V30 45345 O 4506.89 0.342315 -4.10977 0
M  V30 45346 H 4506.23 -0.190444 -0.636103 0
M  V30 45347 H 4508.76 -1.15678 -1.6876 0
M  V30 45348 H 4508.77 -0.512311 -4.04771 0
M  V30 45349 H 4507.44 -1.64216 -3.82107 0
M  V30 45350 H 4506.02 0.186749 -3.72432 0
M  V30 45351 N 4508.2 1.45101 -0.61511 0
M  V30 45352 C 4509.45 2.02483 -0.113418 0
M  V30 45353 C 4509.78 1.48151 1.25559 0
M  V30 45354 O 4509.06 0.659168 1.8299 0
M  V30 45355 C 4509.34 3.60005 -0.0826543 0
M  V30 45356 C 4509.19 4.24654 -1.48286 0
M  V30 45357 C 4510.51 4.35974 0.601248 0
M  V30 45358 H 4507.63 0.735763 -0.0426891 0
M  V30 45359 H 4510.27 1.72865 -0.788521 0
M  V30 45360 H 4508.42 3.85369 0.492242 0
M  V30 45361 H 4510.1 4.10451 -2.10541 0
M  V30 45362 H 4508.34 3.82765 -2.0414 0
M  V30 45363 H 4509.01 5.33595 -1.41351 0
M  V30 45364 H 4511.49 4.15948 0.11252 0
M  V30 45365 H 4510.36 5.45699 0.591905 0
M  V30 45366 H 4510.62 4.09397 1.66872 0
M  V30 45367 N 4509.68 0.354705 1.53557 0
M  V30 45368 C 4510.59 -0.50507 2.29099 0
M  V30 45369 C 4511.61 -1.10218 1.3464 0
M  V30 45370 O 4512.79 -1.11547 1.67688 0
M  V30 45371 C 4509.85 -1.63468 3.05743 0
M  V30 45372 C 4508.91 -1.06622 4.15849 0
M  V30 45373 C 4508.14 -2.142 4.88829 0
M  V30 45374 O 4508.37 -3.3512 4.61574 0
M  V30 45375 O 4507.3 -1.77867 5.75019 0
M  V30 45376 H 4511.13 0.109343 3.03503 0
M  V30 45377 H 4508.71 0.11941 1.48922 0
M  V30 45378 H 4510.59 -2.29168 3.53638 0
M  V30 45379 H 4509.27 -2.2347 2.34186 0
M  V30 45380 H 4508.18 -0.373434 3.72231 0
M  V30 45381 H 4509.51 -0.510909 4.89541 0
M  V30 45382 N 4511.16 -1.57378 0.0835957 0
M  V30 45383 C 4512.09 -2.10393 -0.909264 0
M  V30 45384 C 4513.11 -1.03862 -1.25365 0
M  V30 45385 O 4514.3 -1.31342 -1.20878 0
M  V30 45386 C 4511.4 -2.55916 -2.22171 0
M  V30 45387 C 4510.57 -3.86152 -2.0544 0
M  V30 45388 C 4509.63 -4.17644 -3.20094 0
M  V30 45389 O 4508.65 -4.87053 -2.94564 0
M  V30 45390 N 4509.86 -3.72129 -4.45534 0
M  V30 45391 H 4512.62 -2.96202 -0.456553 0
M  V30 45392 H 4510.18 -1.6158 -0.10182 0
M  V30 45393 H 4512.17 -2.74037 -2.97802 0
M  V30 45394 H 4510.74 -1.7518 -2.58903 0
M  V30 45395 H 4509.96 -3.77294 -1.14207 0
M  V30 45396 H 4511.25 -4.71377 -1.91524 0
M  V30 45397 H 4510.65 -3.16078 -4.6916 0
M  V30 45398 H 4509.21 -3.95427 -5.18151 0
M  V30 45399 N 4512.64 0.190037 -1.5645 0
M  V30 45400 C 4513.92 0.935826 -1.7176 0
M  V30 45401 C 4514.3 2.01171 -0.639797 0
M  V30 45402 O 4513.64 2.25828 0.348422 0
M  V30 45403 C 4513.85 1.51764 -3.14275 0
M  V30 45404 C 4515.2 1.99781 -3.74663 0
M  V30 45405 O 4516.23 1.61596 -3.17435 0
M  V30 45406 O 4515.09 2.70062 -4.75109 0
M  V30 45407 H 4512.18 0.439204 -0.700735 0
M  V30 45408 H 4514.73 0.179336 -1.6875 0
M  V30 45409 H 4513.5 0.74237 -3.84193 0
M  V30 45410 H 4513.12 2.33883 -3.21535 0
M  V30 45411 N 4514.12 1.508 0.457934 0
M  V30 45412 C 4515.07 1.71167 1.57494 0
M  V30 45413 C 4516.06 0.577648 1.59247 0
M  V30 45414 O 4517.27 0.758501 1.63238 0
M  V30 45415 H 4513.64 0.540486 0.522856 0
M  V30 45416 H 4515.61 2.64842 1.37482 0
M  V30 45417 C 4514.36 1.83507 2.95331 0
M  V30 45418 H 4513.68 2.70163 2.94706 0
M  V30 45419 H 4515.12 2.01778 3.7291 0
M  V30 45420 C 4513.58 0.589811 3.31697 0
M  V30 45421 O 4514.11 -0.265022 4.00825 0
M  V30 45422 N 4512.32 0.439946 2.8725 0
M  V30 45423 H 4511.87 1.13663 2.31168 0
M  V30 45424 H 4511.82 -0.39205 3.11946 0
M  V30 45425 N 4515.6 -0.71201 1.40599 0
M  V30 45426 C 4516.87 -1.46532 1.29568 0
M  V30 45427 C 4517.25 -2.10931 -0.0843476 0
M  V30 45428 O 4516.6 -2.00422 -1.09743 0
M  V30 45429 C 4516.81 -2.49813 2.4371 0
M  V30 45430 C 4518.16 -3.15541 2.84111 0
M  V30 45431 O 4519.18 -2.60133 2.43329 0
M  V30 45432 O 4518.04 -4.15855 3.5458 0
M  V30 45433 H 4515.14 -0.651783 0.509027 0
M  V30 45434 H 4517.68 -0.743882 1.52527 0
M  V30 45435 H 4516.45 -2.00766 3.3587 0
M  V30 45436 H 4516.08 -3.29487 2.2254 0
M  V30 45437 N 4517.07 -1.26155 -0.944598 0
M  V30 45438 C 4518 -1.0991 -2.06015 0
M  V30 45439 C 4518.98 -0.00525518 -1.70099 0
M  V30 45440 O 4520.17 -0.176651 -1.93395 0
M  V30 45441 C 4517.3 -0.727681 -3.39591 0
M  V30 45442 C 4516.25 -1.77288 -3.89555 0
M  V30 45443 C 4515.58 -1.25587 -5.19742 0
M  V30 45444 C 4516.88 -3.17372 -4.14816 0
M  V30 45445 H 4518.57 -2.03224 -2.19864 0
M  V30 45446 H 4516.12 -0.978489 -1.05648 0
M  V30 45447 H 4518.07 -0.600924 -4.17093 0
M  V30 45448 H 4516.8 0.241172 -3.25708 0
M  V30 45449 H 4515.46 -1.88825 -3.1423 0
M  V30 45450 H 4515.1 -0.27696 -5.02237 0
M  V30 45451 H 4514.8 -1.95453 -5.54141 0
M  V30 45452 H 4516.33 -1.14171 -5.99831 0
M  V30 45453 H 4517.74 -3.08931 -4.82943 0
M  V30 45454 H 4516.14 -3.84797 -4.6049 0
M  V30 45455 H 4517.21 -3.63684 -3.20721 0
M  V30 45456 N 4518.55 1.14868 -1.07903 0
M  V30 45457 C 4519.46 2.23407 -0.715993 0
M  V30 45458 C 4520.48 1.71809 0.275245 0
M  V30 45459 O 4521.65 2.01039 0.120474 0
M  V30 45460 C 4518.72 3.46474 -0.12529 0
M  V30 45461 C 4517.78 4.13035 -1.17048 0
M  V30 45462 C 4517.01 5.30227 -0.607874 0
M  V30 45463 O 4517.24 5.67502 0.574298 0
M  V30 45464 O 4516.17 5.86439 -1.35546 0
M  V30 45465 H 4520 2.56803 -1.6213 0
M  V30 45466 H 4517.58 1.22699 -0.852365 0
M  V30 45467 H 4519.46 4.20918 0.201581 0
M  V30 45468 H 4518.14 3.14814 0.753254 0
M  V30 45469 H 4517.04 3.40488 -1.5498 0
M  V30 45470 H 4518.38 4.48789 -2.02112 0
M  V30 45471 N 4520.03 0.863952 1.31809 0
M  V30 45472 C 4520.96 0.330924 2.31143 0
M  V30 45473 C 4521.94 -0.574949 1.60089 0
M  V30 45474 O 4523.13 -0.493238 1.87832 0
M  V30 45475 C 4520.26 -0.473619 3.44055 0
M  V30 45476 C 4519.21 0.338631 4.26658 0
M  V30 45477 C 4518.54 -0.591225 5.31421 0
M  V30 45478 C 4519.84 1.56944 4.98163 0
M  V30 45479 H 4521.53 1.16096 2.75975 0
M  V30 45480 H 4519.08 0.559704 1.32677 0
M  V30 45481 H 4521.03 -0.856998 4.12594 0
M  V30 45482 H 4519.75 -1.33711 2.97975 0
M  V30 45483 H 4518.41 0.703881 3.59779 0
M  V30 45484 H 4518.06 -1.45182 4.81592 0
M  V30 45485 H 4517.76 -0.0516957 5.87577 0
M  V30 45486 H 4519.28 -0.971579 6.02821 0
M  V30 45487 H 4520.7 1.25784 5.59331 0
M  V30 45488 H 4519.09 2.04759 5.64087 0
M  V30 45489 H 4520.16 2.32559 4.25493 0
M  V30 45490 N 4521.51 -1.44772 0.622796 0
M  V30 45491 C 4522.47 -2.2907 -0.077321 0
M  V30 45492 C 4523.47 -1.40592 -0.780412 0
M  V30 45493 O 4524.66 -1.62553 -0.626265 0
M  V30 45494 C 4521.79 -3.21978 -1.11994 0
M  V30 45495 H 4522.99 -2.92457 0.664004 0
M  V30 45496 H 4520.54 -1.51546 0.382539 0
M  V30 45497 H 4521.27 -2.63423 -1.89153 0
M  V30 45498 H 4521.06 -3.8717 -0.619815 0
M  V30 45499 H 4522.55 -3.85324 -1.60982 0
M  V30 45500 N 4522.99 -0.362844 -1.53366 0
M  V30 45501 C 4524.26 0.283953 -1.93528 0
M  V30 45502 C 4524.64 1.66623 -1.29614 0
M  V30 45503 O 4523.99 2.2394 -0.454208 0
M  V30 45504 C 4524.2 0.336906 -3.4737 0
M  V30 45505 C 4525.55 0.57856 -4.2064 0
M  V30 45506 O 4526.57 0.418228 -3.53736 0
M  V30 45507 O 4525.43 0.890551 -5.39195 0
M  V30 45508 H 4522.53 0.169714 -0.809399 0
M  V30 45509 H 4525.07 -0.415428 -1.64537 0
M  V30 45510 H 4523.84 -0.632352 -3.86157 0
M  V30 45511 H 4523.47 1.08229 -3.82586 0
M  V30 45512 N 4524.46 1.57332 -0.0919406 0
M  V30 45513 C 4525.43 2.12711 0.853616 0
M  V30 45514 C 4526.43 1.05565 1.21296 0
M  V30 45515 O 4527.62 1.31465 1.14291 0
M  V30 45516 C 4524.75 2.6451 2.15052 0
M  V30 45517 H 4525.94 2.97574 0.372795 0
M  V30 45518 H 4523.5 1.55509 0.157018 0
M  V30 45519 H 4524.23 1.83158 2.67626 0
M  V30 45520 H 4524.02 3.42846 1.9026 0
M  V30 45521 H 4525.51 3.07361 2.827 0
M  V30 45522 N 4525.94 -0.181737 1.56549 0
M  V30 45523 C 4527.17 -0.914553 1.85255 0
M  V30 45524 C 4527.58 -1.76789 0.673976 0
M  V30 45525 O 4526.92 -1.8001 -0.366353 0
M  V30 45526 C 4526.99 -1.85008 3.0824 0
M  V30 45527 C 4526.65 -1.17739 4.41573 0
M  V30 45528 C 4527.65 -0.547853 5.17005 0
M  V30 45529 C 4525.33 -1.17725 4.88309 0
M  V30 45530 C 4527.33 0.0728368 6.37358 0
M  V30 45531 C 4525.01 -0.552733 6.08595 0
M  V30 45532 C 4526.01 0.0712181 6.82963 0
M  V30 45533 O 4525.7 0.685916 8.00968 0
M  V30 45534 H 4525.43 -0.271673 0.619007 0
M  V30 45535 H 4527.98 -0.189873 2.04521 0
M  V30 45536 H 4526.21 -2.61481 2.84894 0
M  V30 45537 H 4527.9 -2.45184 3.23481 0
M  V30 45538 H 4528.67 -0.540005 4.81984 0
M  V30 45539 H 4524.55 -1.65231 4.30372 0
M  V30 45540 H 4528.09 0.560457 6.95345 0
M  V30 45541 H 4523.99 -0.558128 6.43083 0
M  V30 45542 H 4524.76 0.584137 8.16413 0
M  V30 45543 N 4527.42 -1.51041 -0.44993 0
M  V30 45544 C 4528.65 -1.66632 -1.22137 0
M  V30 45545 C 4529.06 -0.357841 -1.85785 0
M  V30 45546 O 4528.4 0.672364 -1.70953 0
M  V30 45547 C 4528.46 -2.7157 -2.35563 0
M  V30 45548 C 4528.13 -4.14533 -1.92384 0
M  V30 45549 C 4529.12 -4.99722 -1.43436 0
M  V30 45550 C 4526.81 -4.60566 -2.00459 0
M  V30 45551 C 4528.8 -6.29001 -1.03132 0
M  V30 45552 C 4526.49 -5.89845 -1.59767 0
M  V30 45553 C 4527.49 -6.73889 -1.11185 0
M  V30 45554 O 4527.18 -8.00753 -0.710653 0
M  V30 45555 H 4526.91 -0.562648 -0.374704 0
M  V30 45556 H 4529.46 -1.98148 -0.540967 0
M  V30 45557 H 4527.69 -2.35341 -3.06841 0
M  V30 45558 H 4529.38 -2.76166 -2.97468 0
M  V30 45559 H 4530.15 -4.65365 -1.36602 0
M  V30 45560 H 4526.03 -3.95281 -2.37221 0
M  V30 45561 H 4529.57 -6.94552 -0.651419 0
M  V30 45562 H 4525.47 -6.23719 -1.66268 0
M  V30 45563 H 4526.24 -8.14203 -0.837626 0
M  V30 45564 N 4528.9 0.704544 -1.40975 0
M  V30 45565 C 4529.83 1.83119 -1.44879 0
M  V30 45566 C 4530.81 1.6728 -0.308438 0
M  V30 45567 O 4531.99 1.87147 -0.518622 0
M  V30 45568 C 4529.12 3.21176 -1.32147 0
M  V30 45569 C 4528.08 3.51705 -2.439 0
M  V30 45570 C 4527.4 4.89024 -2.16239 0
M  V30 45571 C 4528.7 3.51586 -3.86244 0
M  V30 45572 H 4530.4 1.80109 -2.39168 0
M  V30 45573 H 4527.94 0.865104 -1.15117 0
M  V30 45574 H 4529.9 3.99697 -1.33493 0
M  V30 45575 H 4528.62 3.2479 -0.343393 0
M  V30 45576 H 4527.28 2.75531 -2.41823 0
M  V30 45577 H 4526.93 4.89252 -1.16795 0
M  V30 45578 H 4526.63 5.10416 -2.91118 0
M  V30 45579 H 4528.15 5.69865 -2.19285 0
M  V30 45580 H 4529.57 4.20127 -3.90085 0
M  V30 45581 H 4527.96 3.84507 -4.60732 0
M  V30 45582 H 4529.03 2.50742 -4.15038 0
M  V30 45583 N 4530.38 1.26654 0.937895 0
M  V30 45584 C 4531.62 1.12171 1.68114 0
M  V30 45585 C 4531.95 -0.334915 1.92102 0
M  V30 45586 O 4531.22 -1.23577 1.52005 0
M  V30 45587 H 4529.8 0.412115 0.623033 0
M  V30 45588 H 4532.46 1.59031 1.12673 0
M  V30 45589 H 4531.55 1.64298 2.65354 0
M  V30 45590 N 4531.85 -1.14294 1.08511 0
M  V30 45591 C 4533.1 -1.8499 0.813828 0
M  V30 45592 C 4533.42 -1.83407 -0.662329 0
M  V30 45593 O 4532.69 -1.28324 -1.4802 0
M  V30 45594 H 4531.27 -0.684955 0.298069 0
M  V30 45595 H 4533.94 -1.38495 1.37131 0
M  V30 45596 H 4533.03 -2.89784 1.15894 0
M  V30 45597 N 4533.33 -0.87093 -1.31349 0
M  V30 45598 C 4534.58 -0.483056 -1.96963 0
M  V30 45599 C 4534.91 0.962403 -1.68676 0
M  V30 45600 O 4534.19 1.67786 -0.983769 0
M  V30 45601 C 4534.47 -0.741876 -3.52375 0
M  V30 45602 C 4534.32 -2.23694 -3.90232 0
M  V30 45603 C 4535.64 -0.208993 -4.39603 0
M  V30 45604 H 4532.76 -0.17698 -0.715435 0
M  V30 45605 H 4535.4 -1.09235 -1.5546 0
M  V30 45606 H 4533.55 -0.223285 -3.87858 0
M  V30 45607 H 4535.22 -2.82286 -3.64846 0
M  V30 45608 H 4533.47 -2.70913 -3.38805 0
M  V30 45609 H 4534.14 -2.36868 -4.98596 0
M  V30 45610 H 4536.61 -0.652674 -4.10949 0
M  V30 45611 H 4535.49 -0.419529 -5.47294 0
M  V30 45612 H 4535.75 0.889123 -4.33067 0
M  V30 45613 N 4534.81 1.4444 -0.630465 0
M  V30 45614 C 4536.22 1.85433 -0.217128 0
M  V30 45615 C 4536.57 1.52752 1.23131 0
M  V30 45616 O 4535.7 0.965273 1.93679 0
M  V30 45617 C 4536.29 3.36579 -0.387287 0
M  V30 45618 C 4534.85 3.76389 -0.028462 0
M  V30 45619 C 4534 2.68294 -0.700984 0
M  V30 45620 H 4536.95 1.34916 -0.835668 0
M  V30 45621 H 4536.97 3.78658 0.373953 0
M  V30 45622 H 4536.48 3.60334 -1.44157 0
M  V30 45623 H 4534.58 3.5825 1.02411 0
M  V30 45624 H 4534.7 4.77093 -0.43806 0
M  V30 45625 H 4533.06 2.54335 -0.136356 0
M  V30 45626 H 4533.84 2.94881 -1.75784 0
M  V30 45627 N 4536.29 0.370972 1.53172 0
M  V30 45628 C 4537.7 -0.107073 1.86393 0
M  V30 45629 C 4538.05 -1.47709 1.29137 0
M  V30 45630 O 4537.18 -2.07462 0.615512 0
M  V30 45631 C 4537.77 -0.201068 3.38203 0
M  V30 45632 C 4536.33 -0.623376 3.71202 0
M  V30 45633 C 4535.48 0.226076 2.76377 0
M  V30 45634 H 4538.43 0.589562 1.47343 0
M  V30 45635 H 4538.45 -1.02365 3.66472 0
M  V30 45636 H 4537.96 0.796191 3.79845 0
M  V30 45637 H 4536.06 -1.62867 3.3512 0
M  V30 45638 H 4536.17 -0.394246 4.77475 0
M  V30 45639 H 4534.54 -0.305873 2.52857 0
M  V30 45640 H 4535.32 1.22097 3.20854 0
M  V30 45641 N 4537.77 -1.57281 0.100283 0
M  V30 45642 C 4539.04 -1.86017 -0.604747 0
M  V30 45643 C 4539.42 -0.99809 -1.86014 0
M  V30 45644 O 4538.77 -0.0718987 -2.28387 0
M  V30 45645 C 4538.98 -3.36788 -0.91516 0
M  V30 45646 C 4540.33 -4.04962 -1.27636 0
M  V30 45647 O 4541.35 -3.41698 -1.00601 0
M  V30 45648 O 4540.21 -5.16599 -1.78291 0
M  V30 45649 H 4537.31 -0.769431 -0.303158 0
M  V30 45650 H 4539.85 -1.69175 0.133373 0
M  V30 45651 H 4538.62 -3.91292 -0.024752 0
M  V30 45652 H 4538.25 -3.58993 -1.70908 0
M  V30 45653 N 4539.25 0.173432 -1.56643 0
M  V30 45654 C 4540.18 1.23928 -1.92807 0
M  V30 45655 C 4541.19 1.40586 -0.820938 0
M  V30 45656 O 4542.38 1.40627 -1.09938 0
M  V30 45657 C 4539.48 2.60829 -2.16382 0
M  V30 45658 C 4538.65 2.65498 -3.47605 0
M  V30 45659 C 4537.71 3.83747 -3.60034 0
M  V30 45660 O 4536.74 3.69844 -4.32671 0
M  V30 45661 N 4537.94 5.00116 -2.94727 0
M  V30 45662 H 4540.7 0.932136 -2.84836 0
M  V30 45663 H 4538.27 0.363212 -1.57773 0
M  V30 45664 H 4540.26 3.384 -2.21964 0
M  V30 45665 H 4538.83 2.83943 -1.30748 0
M  V30 45666 H 4538.05 1.74039 -3.537 0
M  V30 45667 H 4539.34 2.65626 -4.33959 0
M  V30 45668 H 4538.73 5.14313 -2.35581 0
M  V30 45669 H 4537.29 5.75556 -3.05907 0
M  V30 45670 N 4540.72 1.51278 0.441914 0
M  V30 45671 C 4541.65 1.75205 1.54354 0
M  V30 45672 C 4542.63 0.601738 1.59101 0
M  V30 45673 O 4543.82 0.843974 1.74902 0
M  V30 45674 C 4540.95 1.87292 2.9247 0
M  V30 45675 C 4539.9 3.02698 3.02586 0
M  V30 45676 C 4539.23 2.99962 4.42636 0
M  V30 45677 C 4540.53 4.4274 2.7709 0
M  V30 45678 H 4542.22 2.67447 1.34582 0
M  V30 45679 H 4539.77 1.28697 0.646003 0
M  V30 45680 H 4541.72 2.02615 3.69493 0
M  V30 45681 H 4540.45 0.916954 3.13464 0
M  V30 45682 H 4539.11 2.87073 2.28002 0
M  V30 45683 H 4538.75 2.02152 4.6059 0
M  V30 45684 H 4538.45 3.77455 4.50335 0
M  V30 45685 H 4539.98 3.17372 5.21639 0
M  V30 45686 H 4541.39 4.58739 3.43848 0
M  V30 45687 H 4539.79 5.21904 2.96203 0
M  V30 45688 H 4540.86 4.53093 1.72728 0
M  V30 45689 N 4542.2 -0.697058 1.41347 0
M  V30 45690 C 4543.61 -1.27693 1.36204 0
M  V30 45691 C 4543.96 -1.9615 0.0444153 0
M  V30 45692 O 4543.09 -1.98692 -0.857349 0
M  V30 45693 C 4543.68 -2.32214 2.46702 0
M  V30 45694 C 4542.24 -2.85781 2.44962 0
M  V30 45695 C 4541.39 -1.598 2.26626 0
M  V30 45696 H 4544.34 -0.491915 1.50884 0
M  V30 45697 H 4544.36 -3.13472 2.15675 0
M  V30 45698 H 4543.87 -1.82361 3.42587 0
M  V30 45699 H 4541.97 -3.39815 1.52829 0
M  V30 45700 H 4542.09 -3.36313 3.41219 0
M  V30 45701 H 4540.45 -1.85554 1.74476 0
M  V30 45702 H 4541.23 -1.11944 3.24536 0
M  V30 45703 N 4543.68 -1.2715 -0.931165 0
M  V30 45704 C 4545.09 -1.12049 -1.49338 0
M  V30 45705 C 4545.44 0.295727 -1.93958 0
M  V30 45706 O 4544.57 1.18828 -1.80856 0
M  V30 45707 C 4545.16 -2.0279 -2.71406 0
M  V30 45708 C 4543.72 -1.91806 -3.23863 0
M  V30 45709 C 4542.87 -1.9555 -1.9661 0
M  V30 45710 H 4545.82 -1.40093 -0.745623 0
M  V30 45711 H 4545.84 -1.58168 -3.46068 0
M  V30 45712 H 4545.35 -3.05857 -2.389 0
M  V30 45713 H 4543.45 -0.917119 -3.61137 0
M  V30 45714 H 4543.57 -2.77865 -3.90292 0
M  V30 45715 H 4541.93 -1.3973 -2.1295 0
M  V30 45716 H 4542.71 -3.00264 -1.66422 0
M  V30 45717 N 4545.16 1.13717 -1.09116 0
M  V30 45718 C 4546.38 1.89311 -0.84712 0
M  V30 45719 C 4546.81 1.78418 0.595711 0
M  V30 45720 O 4546.17 1.12947 1.41819 0
M  V30 45721 C 4546.21 3.37005 -1.28296 0
M  V30 45722 O 4545.32 4.10052 -0.439411 0
M  V30 45723 H 4544.66 0.588734 -0.307064 0
M  V30 45724 H 4547.19 1.43897 -1.45447 0
M  V30 45725 H 4547.2 3.8783 -1.26697 0
M  V30 45726 H 4545.87 3.44251 -2.33375 0
M  V30 45727 H 4544.45 3.69264 -0.519442 0
M  V30 45728 N 4546.64 0.877884 1.30885 0
M  V30 45729 C 4547.57 0.355421 2.30779 0
M  V30 45730 C 4548.55 -0.557937 1.60689 0
M  V30 45731 O 4549.73 -0.473289 1.88344 0
M  V30 45732 C 4546.86 -0.4371 3.44538 0
M  V30 45733 C 4545.82 0.383865 4.26275 0
M  V30 45734 C 4545.14 -0.534827 5.32019 0
M  V30 45735 C 4546.44 1.62219 4.9647 0
M  V30 45736 H 4548.14 1.19016 2.74728 0
M  V30 45737 H 4545.68 0.573745 1.32076 0
M  V30 45738 H 4547.63 -0.813189 4.13479 0
M  V30 45739 H 4546.36 -1.30543 2.99376 0
M  V30 45740 H 4545.02 0.742001 3.59012 0
M  V30 45741 H 4544.67 -1.40066 4.83105 0
M  V30 45742 H 4544.37 0.0106277 5.87599 0
M  V30 45743 H 4545.89 -0.907587 6.03817 0
M  V30 45744 H 4547.3 1.31709 5.57966 0
M  V30 45745 H 4545.7 2.10731 5.61883 0
M  V30 45746 H 4546.77 2.37059 4.23002 0
M  V30 45747 N 4548.11 -1.44104 0.638116 0
M  V30 45748 C 4549.53 -1.56671 0.304341 0
M  V30 45749 C 4549.73 -1.62445 -1.19223 0
M  V30 45750 O 4548.79 -1.57128 -1.97654 0
M  V30 45751 C 4550.1 -2.835 1.00241 0
M  V30 45752 C 4551.65 -2.97222 0.98122 0
M  V30 45753 C 4552.12 -4.26863 1.65989 0
M  V30 45754 N 4553.61 -4.33692 1.62681 0
M  V30 45755 C 4554.35 -5.32737 2.12081 0
M  V30 45756 N 4553.84 -6.38147 2.69703 0
M  V30 45757 N 4555.64 -5.24292 2.02669 0
M  V30 45758 H 4547.79 -1.38599 1.60947 0
M  V30 45759 H 4550.05 -0.664638 0.675989 0
M  V30 45760 H 4549.76 -2.85244 2.0574 0
M  V30 45761 H 4549.63 -3.73249 0.544522 0
M  V30 45762 H 4552.02 -2.95028 -0.0653151 0
M  V30 45763 H 4552.1 -2.08803 1.47767 0
M  V30 45764 H 4551.74 -4.29817 2.70592 0
M  V30 45765 H 4551.67 -5.14152 1.13822 0
M  V30 45766 H 4554.16 -3.58133 1.20618 0
M  V30 45767 H 4554.48 -7.10019 3.05112 0
M  V30 45768 H 4552.82 -6.38813 2.73757 0
M  V30 45769 H 4556.01 -4.40854 1.57369 0
M  V30 45770 H 4556.19 -6.01325 2.41478 0
M  V30 45771 N 4549.59 -0.37909 -1.52973 0
M  V30 45772 C 4551.01 -0.0286009 -1.59574 0
M  V30 45773 C 4551.21 1.45537 -1.3936 0
M  V30 45774 O 4550.26 2.21865 -1.20549 0
M  V30 45775 C 4551.58 -0.496639 -2.9657 0
M  V30 45776 C 4553.12 -0.452018 -3.09719 0
M  V30 45777 C 4553.6 -0.896082 -4.49148 0
M  V30 45778 N 4555.09 -0.851682 -4.55303 0
M  V30 45779 C 4555.83 -1.16681 -5.61403 0
M  V30 45780 N 4555.32 -1.5519 -6.75195 0
M  V30 45781 N 4557.11 -1.08873 -5.51455 0
M  V30 45782 H 4549.27 -1.34531 -1.64363 0
M  V30 45783 H 4551.53 -0.550761 -0.7716 0
M  V30 45784 H 4551.23 -1.53269 -3.16546 0
M  V30 45785 H 4551.11 0.109669 -3.77041 0
M  V30 45786 H 4553.5 0.574928 -2.89445 0
M  V30 45787 H 4553.58 -1.094 -2.31226 0
M  V30 45788 H 4553.22 -1.92121 -4.70162 0
M  V30 45789 H 4553.15 -0.231215 -5.26092 0
M  V30 45790 H 4555.64 -0.568169 -3.73604 0
M  V30 45791 H 4555.95 -1.77626 -7.5211 0
M  V30 45792 H 4554.3 -1.59068 -6.76552 0
M  V30 45793 H 4557.49 -0.786966 -4.61437 0
M  V30 45794 H 4557.66 -1.33764 -6.34043 0
M  V30 45795 N 4551.07 1.57225 -0.108623 0
M  V30 45796 C 4552 2.17781 0.842243 0
M  V30 45797 C 4552.98 1.11491 1.28467 0
M  V30 45798 O 4554.17 1.39685 1.34913 0
M  V30 45799 C 4551.3 2.76895 2.09634 0
M  V30 45800 C 4550.25 3.88676 1.79207 0
M  V30 45801 C 4549.58 4.34552 3.11559 0
M  V30 45802 C 4550.88 5.11255 1.06846 0
M  V30 45803 H 4552.57 2.9749 0.337669 0
M  V30 45804 H 4550.12 1.43097 0.160975 0
M  V30 45805 H 4552.07 3.17914 2.76602 0
M  V30 45806 H 4550.79 1.9446 2.62398 0
M  V30 45807 H 4549.45 3.48217 1.14632 0
M  V30 45808 H 4549.1 3.48989 3.62237 0
M  V30 45809 H 4548.8 5.09924 2.91978 0
M  V30 45810 H 4550.32 4.78214 3.79663 0
M  V30 45811 H 4551.74 5.49358 1.63949 0
M  V30 45812 H 4550.13 5.92143 0.97397 0
M  V30 45813 H 4551.2 4.84871 0.0534463 0
M  V30 45814 N 4552.55 -0.165123 1.56733 0
M  V30 45815 C 4553.79 -0.880743 1.82344 0
M  V30 45816 C 4554.12 -1.81975 0.686685 0
M  V30 45817 O 4553.38 -1.92972 -0.32563 0
M  V30 45818 C 4553.68 -1.70394 3.14166 0
M  V30 45819 C 4553.34 -0.913319 4.41553 0
M  V30 45820 C 4552 -0.695136 4.76153 0
M  V30 45821 C 4554.36 -0.359166 5.19961 0
M  V30 45822 C 4551.68 0.088201 5.86634 0
M  V30 45823 C 4554.04 0.411115 6.31263 0
M  V30 45824 C 4552.7 0.640042 6.64424 0
M  V30 45825 H 4551.97 -0.322287 0.667242 0
M  V30 45826 H 4554.62 -0.145335 1.90948 0
M  V30 45827 H 4552.92 -2.50893 3.00932 0
M  V30 45828 H 4554.62 -2.26079 3.31194 0
M  V30 45829 H 4551.21 -1.09342 4.14418 0
M  V30 45830 H 4555.39 -0.515054 4.9362 0
M  V30 45831 H 4550.65 0.275245 6.1078 0
M  V30 45832 H 4554.82 0.847737 6.91221 0
M  V30 45833 H 4552.45 1.2489 7.49871 0
M  V30 45834 N 4554.03 -1.5151 -0.433885 0
M  V30 45835 C 4555.44 -1.56788 -1.01363 0
M  V30 45836 C 4555.79 -0.393416 -1.92215 0
M  V30 45837 O 4554.91 0.489367 -2.10794 0
M  V30 45838 C 4555.51 -2.84151 -1.8451 0
M  V30 45839 C 4554.07 -2.91988 -2.37528 0
M  V30 45840 C 4553.21 -2.51486 -1.16834 0
M  V30 45841 H 4556.17 -1.57237 -0.215025 0
M  V30 45842 H 4556.19 -2.68108 -2.69997 0
M  V30 45843 H 4555.7 -3.69611 -1.1836 0
M  V30 45844 H 4553.8 -2.10966 -3.07123 0
M  V30 45845 H 4553.91 -3.95713 -2.70089 0
M  V30 45846 H 4552.28 -2.04763 -1.51474 0
M  V30 45847 H 4553.06 -3.39294 -0.522896 0
M  V30 45848 N 4555.5 0.689552 -1.41714 0
M  V30 45849 C 4556.73 1.47822 -1.44763 0
M  V30 45850 C 4557.15 1.88721 -0.0546367 0
M  V30 45851 O 4556.5 1.5718 0.927408 0
M  V30 45852 C 4556.56 2.73689 -2.3617 0
M  V30 45853 O 4556.28 2.34511 -3.70049 0
M  V30 45854 C 4557.78 3.67381 -2.48085 0
M  V30 45855 H 4555 0.45534 -0.492856 0
M  V30 45856 H 4557.54 0.848509 -1.86066 0
M  V30 45857 H 4555.7 3.32884 -1.9816 0
M  V30 45858 H 4556.11 3.15686 -4.18859 0
M  V30 45859 H 4557.58 4.52464 -3.16197 0
M  V30 45860 H 4558.06 4.12279 -1.51402 0
M  V30 45861 H 4558.67 3.14087 -2.86757 0
M  V30 45862 N 4556.98 1.27642 0.924409 0
M  V30 45863 C 4558.23 1.13947 1.66914 0
M  V30 45864 C 4558.55 -0.314521 1.92447 0
M  V30 45865 O 4557.82 -1.21958 1.53307 0
M  V30 45866 H 4556.4 0.4187 0.618627 0
M  V30 45867 H 4559.06 1.60217 1.10979 0
M  V30 45868 H 4558.16 1.67103 2.63596 0
M  V30 45869 N 4558.46 -1.13137 1.09717 0
M  V30 45870 C 4559.71 -1.84116 0.833403 0
M  V30 45871 C 4560.03 -1.84099 -0.642839 0
M  V30 45872 O 4559.3 -1.29887 -1.4665 0
M  V30 45873 H 4557.88 -0.681756 0.305317 0
M  V30 45874 H 4560.54 -1.37033 1.38593 0
M  V30 45875 H 4559.64 -2.88539 1.18961 0
M  V30 45876 N 4559.94 -0.884812 -1.30418 0
M  V30 45877 C 4561.16 -0.517359 -2.00844 0
M  V30 45878 C 4561.59 0.886721 -1.65888 0
M  V30 45879 O 4560.95 1.58765 -0.87541 0
M  V30 45880 C 4560.99 -0.699118 -3.53758 0
M  V30 45881 O 4560.1 0.255064 -4.1161 0
M  V30 45882 H 4559.44 -0.203894 -0.63192 0
M  V30 45883 H 4561.97 -1.19231 -1.66268 0
M  V30 45884 H 4561.98 -0.598054 -4.03593 0
M  V30 45885 H 4560.65 -1.72284 -3.78538 0
M  V30 45886 H 4559.23 0.107709 -3.72744 0
M  V30 45887 N 4561.42 1.43763 -0.645749 0
M  V30 45888 C 4562.66 2.02196 -0.156342 0
M  V30 45889 C 4563 1.50781 1.22388 0
M  V30 45890 O 4562.27 0.697834 1.8155 0
M  V30 45891 C 4562.55 3.59749 -0.158998 0
M  V30 45892 C 4562.41 4.21413 -1.5726 0
M  V30 45893 C 4563.73 4.37151 0.508636 0
M  V30 45894 H 4560.84 0.734692 -0.0582861 0
M  V30 45895 H 4563.49 1.71154 -0.825011 0
M  V30 45896 H 4561.64 3.86326 0.410389 0
M  V30 45897 H 4563.31 4.05893 -2.192 0
M  V30 45898 H 4561.55 3.78349 -2.12213 0
M  V30 45899 H 4562.22 5.30477 -1.52638 0
M  V30 45900 H 4564.7 4.16093 0.0242658 0
M  V30 45901 H 4563.57 5.46832 0.476021 0
M  V30 45902 H 4563.84 4.12845 1.58151 0
M  V30 45903 N 4562.89 0.387197 1.5277 0
M  V30 45904 C 4564.31 0.0370631 1.59557 0
M  V30 45905 C 4564.51 -1.44796 1.4013 0
M  V30 45906 O 4563.57 -2.21223 1.21724 0
M  V30 45907 C 4564.88 0.51236 2.96303 0
M  V30 45908 C 4566.43 0.468436 3.09475 0
M  V30 45909 C 4566.9 0.919889 4.48667 0
M  V30 45910 N 4568.39 0.875816 4.54845 0
M  V30 45911 C 4569.13 1.19657 5.60776 0
M  V30 45912 N 4568.62 1.58769 6.74362 0
M  V30 45913 N 4570.42 1.11796 5.5087 0
M  V30 45914 H 4562.57 1.35401 1.63647 0
M  V30 45915 H 4564.83 0.554845 0.768668 0
M  V30 45916 H 4564.54 1.54946 3.15729 0
M  V30 45917 H 4564.41 -0.0896724 3.77093 0
M  V30 45918 H 4566.8 -0.55957 2.89746 0
M  V30 45919 H 4566.88 1.10624 2.30642 0
M  V30 45920 H 4566.52 1.94611 4.69136 0
M  V30 45921 H 4566.45 0.259112 5.25962 0
M  V30 45922 H 4568.94 0.587974 3.73298 0
M  V30 45923 H 4569.26 1.81613 7.51157 0
M  V30 45924 H 4567.6 1.62653 6.75699 0
M  V30 45925 H 4570.79 0.811426 4.61014 0
M  V30 45926 H 4570.97 1.37125 6.33325 0
M  V30 45927 N 4564.37 -1.57165 0.116959 0
M  V30 45928 C 4565.62 -1.94739 -0.540465 0
M  V30 45929 C 4565.94 -1.00102 -1.67346 0
M  V30 45930 O 4565.21 -0.0569543 -1.95817 0
M  V30 45931 H 4563.79 -0.718989 -0.202644 0
M  V30 45932 H 4566.45 -1.94016 0.185422 0
M  V30 45933 H 4565.55 -2.97722 -0.936379 0
M  V30 45934 N 4565.85 0.156809 -1.56818 0
M  V30 45935 C 4567.09 0.877388 -1.84611 0
M  V30 45936 C 4567.45 1.78788 -0.699907 0
M  V30 45937 O 4568.66 2.54717 -0.858642 0
M  V30 45938 C 4566.93 1.63981 -3.17561 0
M  V30 45939 S 4568.49 2.40716 -3.6688 0
M  V30 45940 H 4565.3 0.293589 -0.647554 0
M  V30 45941 H 4567.91 0.138031 -1.95012 0
M  V30 45942 H 4566.61 0.962223 -3.9896 0
M  V30 45943 H 4566.14 2.42027 -3.1014 0
M  V30 45944 H 4568.16 3.65713 -3.35363 0
M  V30 45945 N 4567.33 1.51738 0.425844 0
M  V30 45946 C 4568.57 1.65219 1.17604 0
M  V30 45947 C 4568.91 0.372845 1.90587 0
M  V30 45948 O 4568.18 -0.628074 1.8408 0
M  V30 45949 C 4568.47 2.86319 2.18388 0
M  V30 45950 C 4568.32 4.2426 1.49411 0
M  V30 45951 C 4569.64 3.02936 3.19246 0
M  V30 45952 H 4566.76 0.601278 0.426185 0
M  V30 45953 H 4569.4 1.84252 0.463818 0
M  V30 45954 H 4567.55 2.70223 2.79127 0
M  V30 45955 H 4569.22 4.52049 0.919203 0
M  V30 45956 H 4567.46 4.26429 0.796282 0
M  V30 45957 H 4568.13 5.05009 2.22867 0
M  V30 45958 H 4570.61 3.1782 2.6857 0
M  V30 45959 H 4569.49 3.89213 3.87046 0
M  V30 45960 H 4569.75 2.15511 3.86015 0
M  V30 45961 N 4568.81 -0.682027 1.42078 0
M  V30 45962 C 4569.75 -1.79573 1.4499 0
M  V30 45963 C 4570.72 -1.63319 0.302671 0
M  V30 45964 O 4571.91 -1.83976 0.505698 0
M  V30 45965 C 4569.05 -3.17555 1.35102 0
M  V30 45966 C 4568.16 -3.45147 2.59803 0
M  V30 45967 C 4567.3 -4.72818 2.42109 0
M  V30 45968 C 4566.34 -4.9342 3.62219 0
M  V30 45969 N 4565.47 -6.12326 3.43513 0
M  V30 45970 H 4570.31 -1.76419 2.40167 0
M  V30 45971 H 4567.85 -0.861334 1.19245 0
M  V30 45972 H 4569.81 -3.97282 1.27368 0
M  V30 45973 H 4568.44 -3.19852 0.435245 0
M  V30 45974 H 4567.49 -2.59727 2.77932 0
M  V30 45975 H 4568.8 -3.56267 3.49106 0
M  V30 45976 H 4567.96 -5.60623 2.3192 0
M  V30 45977 H 4566.7 -4.63968 1.50284 0
M  V30 45978 H 4565.7 -4.0406 3.72848 0
M  V30 45979 H 4566.93 -5.0412 4.55016 0
M  V30 45980 H 4564.87 -6.04663 2.54398 0
M  V30 45981 H 4564.79 -6.24275 4.26399 0
M  V30 45982 H 4566.06 -7.0283 3.37121 0
M  V30 45983 N 4570.29 -1.2813 -0.917626 0
M  V30 45984 C 4571.53 -1.14831 -1.66308 0
M  V30 45985 C 4571.85 0.304311 -1.92611 0
M  V30 45986 O 4571.12 1.21143 -1.53952 0
M  V30 45987 H 4569.7 -0.421974 -0.616398 0
M  V30 45988 H 4572.37 -1.60804 -1.10128 0
M  V30 45989 H 4571.46 -1.68499 -2.62706 0
M  V30 45990 N 4571.76 1.12553 -1.10316 0
M  V30 45991 C 4573.01 1.83392 -0.839653 0
M  V30 45992 C 4573.33 1.84942 0.636864 0
M  V30 45993 O 4574.53 2.51764 1.01622 0
M  V30 45994 C 4572.99 3.29298 -1.45226 0
M  V30 45995 C 4572.6 3.36111 -2.96198 0
M  V30 45996 C 4574.34 4.05117 -1.2681 0
M  V30 45997 C 4572.25 4.76344 -3.505 0
M  V30 45998 H 4571.18 0.687122 -0.310449 0
M  V30 45999 H 4573.83 1.26741 -1.32699 0
M  V30 46000 H 4572.21 3.85809 -0.892604 0
M  V30 46001 H 4573.38 2.89546 -3.58468 0
M  V30 46002 H 4571.7 2.73765 -3.13754 0
M  V30 46003 H 4574.3 5.08662 -1.64824 0
M  V30 46004 H 4574.64 4.15772 -0.209555 0
M  V30 46005 H 4575.17 3.54961 -1.79576 0
M  V30 46006 H 4571.91 4.70883 -4.56015 0
M  V30 46007 H 4571.43 5.23367 -2.92997 0
M  V30 46008 H 4573.11 5.45282 -3.48248 0
M  V30 46009 N 4573.24 0.891716 1.29947 0
M  V30 46010 C 4574.19 0.361816 2.27946 0
M  V30 46011 C 4575.16 -0.551705 1.5667 0
M  V30 46012 O 4576.34 -0.478671 1.84698 0
M  V30 46013 C 4573.48 -0.411704 3.42635 0
M  V30 46014 C 4572.6 0.531801 4.28714 0
M  V30 46015 C 4571.73 -0.257981 5.30573 0
M  V30 46016 C 4570.77 0.680562 6.08305 0
M  V30 46017 N 4569.91 -0.0743145 7.02061 0
M  V30 46018 H 4574.75 1.20264 2.72655 0
M  V30 46019 H 4572.28 0.604399 1.3411 0
M  V30 46020 H 4574.24 -0.87616 4.07896 0
M  V30 46021 H 4572.87 -1.21704 2.98978 0
M  V30 46022 H 4571.92 1.11476 3.63699 0
M  V30 46023 H 4573.24 1.25055 4.82869 0
M  V30 46024 H 4572.39 -0.783993 6.01613 0
M  V30 46025 H 4571.13 -1.00991 4.77129 0
M  V30 46026 H 4570.13 1.21814 5.36136 0
M  V30 46027 H 4571.36 1.43169 6.63837 0
M  V30 46028 H 4569.31 -0.808654 6.50997 0
M  V30 46029 H 4569.22 0.584674 7.53736 0
M  V30 46030 H 4570.49 -0.58085 7.77333 0
M  V30 46031 N 4574.72 -1.43419 0.653364 0
M  V30 46032 C 4575.68 -2.29182 -0.0287145 0
M  V30 46033 C 4576.68 -1.42216 -0.750415 0
M  V30 46034 O 4577.87 -1.63845 -0.591644 0
M  V30 46035 C 4575 -3.24282 -1.05139 0
M  V30 46036 H 4576.2 -2.90983 0.725889 0
M  V30 46037 H 4573.75 -1.50701 0.414598 0
M  V30 46038 H 4574.49 -2.67376 -1.83522 0
M  V30 46039 H 4574.27 -3.88398 -0.537551 0
M  V30 46040 H 4575.76 -3.88652 -1.52772 0
M  V30 46041 N 4576.2 -0.395293 -1.52562 0
M  V30 46042 C 4577.13 0.428304 -2.29538 0
M  V30 46043 C 4578.11 1.05826 -1.33172 0
M  V30 46044 O 4579.29 1.0699 -1.62071 0
M  V30 46045 C 4576.42 1.55263 -3.10662 0
M  V30 46046 C 4575.38 1.0484 -4.14961 0
M  V30 46047 C 4574.7 2.26526 -4.84345 0
M  V30 46048 C 4576 0.11214 -5.2218 0
M  V30 46049 H 4577.7 -0.213972 -2.98634 0
M  V30 46050 H 4575.24 -0.104349 -1.43621 0
M  V30 46051 H 4577.2 2.13567 -3.63273 0
M  V30 46052 H 4575.92 2.22258 -2.39309 0
M  V30 46053 H 4574.58 0.487857 -3.63339 0
M  V30 46054 H 4574.23 2.92045 -4.09535 0
M  V30 46055 H 4573.93 1.93447 -5.54844 0
M  V30 46056 H 4575.45 2.85462 -5.39763 0
M  V30 46057 H 4576.87 0.603551 -5.70114 0
M  V30 46058 H 4575.26 -0.129179 -5.99961 0
M  V30 46059 H 4576.33 -0.83722 -4.77618 0
M  V30 46060 N 4577.68 1.57101 -0.125292 0
M  V30 46061 C 4578.92 1.95023 0.53013 0
M  V30 46062 C 4579.24 1.00988 1.66812 0
M  V30 46063 O 4578.51 0.0673381 1.95784 0
M  V30 46064 H 4577.09 0.720053 0.198828 0
M  V30 46065 H 4579.76 1.93915 -0.195708 0
M  V30 46066 H 4578.85 2.98214 0.920577 0
M  V30 46067 N 4579.15 -0.14849 1.56899 0
M  V30 46068 C 4580.1 -1.18338 1.98154 0
M  V30 46069 C 4581.07 -1.42769 0.848898 0
M  V30 46070 O 4582.26 -1.55129 1.11085 0
M  V30 46071 C 4579.4 -2.51223 2.36603 0
M  V30 46072 C 4578.51 -2.33979 3.6315 0
M  V30 46073 C 4577.64 -3.59888 3.90709 0
M  V30 46074 C 4576.68 -3.37674 5.10532 0
M  V30 46075 N 4575.82 -4.55711 5.34108 0
M  V30 46076 H 4580.66 -0.824569 2.86365 0
M  V30 46077 H 4578.2 -0.395706 1.41678 0
M  V30 46078 H 4580.15 -3.28704 2.56924 0
M  V30 46079 H 4578.78 -2.85054 1.51473 0
M  V30 46080 H 4577.84 -1.4756 3.50614 0
M  V30 46081 H 4579.15 -2.13523 4.50788 0
M  V30 46082 H 4578.3 -4.45798 4.1152 0
M  V30 46083 H 4577.04 -3.83347 3.01491 0
M  V30 46084 H 4576.05 -2.50153 4.89595 0
M  V30 46085 H 4577.27 -3.15616 6.01301 0
M  V30 46086 H 4575.22 -4.79345 4.47844 0
M  V30 46087 H 4575.13 -4.38253 6.16012 0
M  V30 46088 H 4576.4 -5.42839 5.59416 0
M  V30 46089 N 4580.63 -1.51961 -0.417791 0
M  V30 46090 C 4581.86 -1.69185 -1.18575 0
M  V30 46091 C 4582.27 -0.397169 -1.84984 0
M  V30 46092 O 4581.61 0.635951 -1.72341 0
M  V30 46093 C 4581.67 -2.76506 -2.2975 0
M  V30 46094 C 4581.34 -4.1852 -1.83548 0
M  V30 46095 C 4582.34 -5.02652 -1.32803 0
M  V30 46096 C 4580.02 -4.64715 -1.90645 0
M  V30 46097 C 4582.01 -6.31047 -0.897672 0
M  V30 46098 C 4579.7 -5.93102 -1.4722 0
M  V30 46099 C 4580.7 -6.76096 -0.968654 0
M  V30 46100 O 4580.39 -8.0208 -0.540642 0
M  V30 46101 H 4580.12 -0.57047 -0.362685 0
M  V30 46102 H 4582.67 -1.99251 -0.498815 0
M  V30 46103 H 4580.9 -2.41797 -3.0178 0
M  V30 46104 H 4582.59 -2.82414 -2.91543 0
M  V30 46105 H 4583.36 -4.68158 -1.267 0
M  V30 46106 H 4579.24 -4.00224 -2.28783 0
M  V30 46107 H 4582.78 -6.95777 -0.503948 0
M  V30 46108 H 4578.68 -6.27105 -1.53 0
M  V30 46109 H 4579.45 -8.15796 -0.664734 0
M  V30 46110 N 4582.11 0.674483 -1.42438 0
M  V30 46111 C 4583.36 1.43666 -1.43136 0
M  V30 46112 C 4583.69 1.94141 -0.0476703 0
M  V30 46113 O 4582.96 1.70927 0.928128 0
M  V30 46114 C 4583.25 2.63346 -2.45603 0
M  V30 46115 C 4583.1 2.18501 -3.93164 0
M  V30 46116 C 4584.42 3.65562 -2.45055 0
M  V30 46117 H 4581.54 0.521059 -0.521217 0
M  V30 46118 H 4584.18 0.76649 -1.73853 0
M  V30 46119 H 4582.33 3.20522 -2.1954 0
M  V30 46120 H 4584 1.66489 -4.30208 0
M  V30 46121 H 4582.24 1.50071 -4.07015 0
M  V30 46122 H 4582.92 3.04467 -4.60439 0
M  V30 46123 H 4585.39 3.18103 -2.68234 0
M  V30 46124 H 4584.27 4.46882 -3.18729 0
M  V30 46125 H 4584.53 4.16711 -1.47664 0
M  V30 46126 N 4583.59 1.28615 0.910818 0
M  V30 46127 C 4584.87 1.06638 1.63975 0
M  V30 46128 C 4585.25 -0.393278 2.07404 0
M  V30 46129 O 4584.59 -1.37993 1.82127 0
M  V30 46130 C 4584.8 2.0437 2.82902 0
M  V30 46131 C 4586.15 2.34678 3.53852 0
M  V30 46132 O 4587.18 2.02478 2.93055 0
M  V30 46133 O 4586.03 2.89647 4.63429 0
M  V30 46134 H 4583.13 0.407762 0.719485 0
M  V30 46135 H 4585.67 1.39945 0.959865 0
M  V30 46136 H 4584.45 3.02735 2.47926 0
M  V30 46137 H 4584.07 1.71726 3.58603 0
M  V30 46138 N 4585.07 -1.11967 1.10911 0
M  V30 46139 C 4586 -2.19925 0.78455 0
M  V30 46140 C 4586.98 -1.68331 -0.244667 0
M  V30 46141 O 4588.16 -1.93892 -0.10935 0
M  V30 46142 C 4585.29 -3.46596 0.220949 0
M  V30 46143 C 4584.25 -4.11372 1.18141 0
M  V30 46144 C 4583.57 -5.32552 0.478781 0
M  V30 46145 C 4584.87 -4.56936 2.52995 0
M  V30 46146 H 4586.57 -2.47331 1.68723 0
M  V30 46147 H 4584.11 -1.18876 0.812684 0
M  V30 46148 H 4586.07 -4.21396 -0.0182797 0
M  V30 46149 H 4584.79 -3.18632 -0.717001 0
M  V30 46150 H 4583.45 -3.38559 1.40618 0
M  V30 46151 H 4583.1 -5.00857 -0.4638 0
M  V30 46152 H 4582.8 -5.7684 1.11932 0
M  V30 46153 H 4584.32 -6.10095 0.248215 0
M  V30 46154 H 4585.73 -5.23085 2.34639 0
M  V30 46155 H 4584.13 -5.12019 3.1298 0
M  V30 46156 H 4585.2 -3.70665 3.12627 0
M  V30 46157 N 4586.54 -0.898595 -1.29472 0
M  V30 46158 C 4587.49 -0.373899 -2.27751 0
M  V30 46159 C 4588.46 0.543389 -1.5696 0
M  V30 46160 O 4589.65 0.468869 -1.84949 0
M  V30 46161 C 4586.79 0.393528 -3.42849 0
M  V30 46162 C 4585.9 -0.55453 -4.28426 0
M  V30 46163 C 4585.03 0.22984 -5.30703 0
M  V30 46164 C 4584.07 -0.712813 -6.07935 0
M  V30 46165 N 4583.21 0.0370815 -7.0209 0
M  V30 46166 H 4588.05 -1.21708 -2.72013 0
M  V30 46167 H 4585.59 -0.611503 -1.33787 0
M  V30 46168 H 4587.55 0.854516 -4.08355 0
M  V30 46169 H 4586.18 1.20117 -2.99619 0
M  V30 46170 H 4585.23 -1.13403 -3.63103 0
M  V30 46171 H 4586.54 -1.27614 -4.82199 0
M  V30 46172 H 4585.69 0.752077 -6.02021 0
M  V30 46173 H 4584.43 0.98459 -4.77658 0
M  V30 46174 H 4583.44 -1.24656 -5.35482 0
M  V30 46175 H 4584.66 -1.46687 -6.63068 0
M  V30 46176 H 4582.61 0.774119 -6.51416 0
M  V30 46177 H 4582.53 -0.624639 -7.53415 0
M  V30 46178 H 4583.79 0.539618 -7.7763 0
M  V30 46179 N 4588.02 1.4307 -0.660961 0
M  V30 46180 C 4589.44 1.56167 -0.329228 0
M  V30 46181 C 4589.64 1.64321 1.16623 0
M  V30 46182 O 4588.69 1.60252 1.95129 0
M  V30 46183 C 4590.01 2.81869 -1.04739 0
M  V30 46184 C 4591.56 2.95624 -1.02838 0
M  V30 46185 C 4592.03 4.24168 -1.72759 0
M  V30 46186 N 4593.52 4.31049 -1.6956 0
M  V30 46187 C 4594.26 5.29296 -2.2053 0
M  V30 46188 N 4593.75 6.33776 -2.79821 0
M  V30 46189 N 4595.55 5.21001 -2.10984 0
M  V30 46190 H 4587.7 1.36021 -1.63132 0
M  V30 46191 H 4589.96 0.653799 -0.686477 0
M  V30 46192 H 4589.67 2.81934 -2.10252 0
M  V30 46193 H 4589.54 3.72335 -0.603833 0
M  V30 46194 H 4591.93 2.95094 0.0183705 0
M  V30 46195 H 4592.01 2.06426 -1.5107 0
M  V30 46196 H 4591.65 4.25458 -2.77395 0
M  V30 46197 H 4591.58 5.12276 -1.21988 0
M  V30 46198 H 4594.07 3.56169 -1.26301 0
M  V30 46199 H 4594.39 7.05075 -3.16369 0
M  V30 46200 H 4592.73 6.34377 -2.83885 0
M  V30 46201 H 4595.92 4.38295 -1.64363 0
M  V30 46202 H 4596.09 5.97408 -2.51014 0
M  V30 46203 N 4589.5 0.403378 1.5235 0
M  V30 46204 C 4590.43 -0.416125 2.29762 0
M  V30 46205 C 4591.41 -1.05118 1.33732 0
M  V30 46206 O 4592.6 -1.06129 1.62636 0
M  V30 46207 C 4589.73 -1.53613 3.11481 0
M  V30 46208 C 4588.68 -1.02638 4.15511 0
M  V30 46209 C 4588.01 -2.23954 4.85539 0
M  V30 46210 C 4589.31 -0.0844464 5.22232 0
M  V30 46211 H 4591 0.229806 2.98517 0
M  V30 46212 H 4588.55 0.111964 1.43564 0
M  V30 46213 H 4590.5 -2.11637 3.644 0
M  V30 46214 H 4589.22 -2.20986 2.40485 0
M  V30 46215 H 4587.88 -0.468582 3.63593 0
M  V30 46216 H 4587.53 -2.89869 4.11078 0
M  V30 46217 H 4587.23 -1.90502 5.55862 0
M  V30 46218 H 4588.75 -2.82595 5.41269 0
M  V30 46219 H 4590.17 -0.573308 5.70426 0
M  V30 46220 H 4588.57 0.160994 5.99884 0
M  V30 46221 H 4589.64 0.862537 4.77167 0
M  V30 46222 N 4590.98 -1.57033 0.133622 0
M  V30 46223 C 4591.93 -2.17351 -0.828336 0
M  V30 46224 C 4592.92 -1.12675 -1.26494 0
M  V30 46225 O 4594.13 -1.30952 -1.23498 0
M  V30 46226 H 4590.5 -0.695785 -0.285284 0
M  V30 46227 H 4592.47 -2.96936 -0.295268 0
M  V30 46228 C 4591.22 -2.799 -2.06279 0
M  V30 46229 H 4590.54 -3.60153 -1.7358 0
M  V30 46230 H 4591.98 -3.25624 -2.7156 0
M  V30 46231 C 4590.44 -1.77723 -2.8621 0
M  V30 46232 O 4590.97 -1.2395 -3.82098 0
M  V30 46233 N 4589.18 -1.4733 -2.50484 0
M  V30 46234 H 4588.73 -1.91249 -1.72574 0
M  V30 46235 H 4588.68 -0.792097 -3.04258 0
M  V30 46236 N 4592.46 0.140167 -1.56975 0
M  V30 46237 C 4593.68 0.866371 -1.87887 0
M  V30 46238 C 4594.1 1.74425 -0.722578 0
M  V30 46239 O 4593.46 1.79892 0.307426 0
M  V30 46240 C 4593.51 1.71742 -3.18099 0
M  V30 46241 O 4593.23 0.874905 -4.29275 0
M  V30 46242 C 4594.73 2.55061 -3.62572 0
M  V30 46243 H 4591.95 0.250168 -0.622621 0
M  V30 46244 H 4594.49 0.130905 -2.04081 0
M  V30 46245 H 4592.65 2.40587 -3.03639 0
M  V30 46246 H 4593.06 1.45985 -5.03774 0
M  V30 46247 H 4594.54 3.1034 -4.56501 0
M  V30 46248 H 4595.01 3.31424 -2.88193 0
M  V30 46249 H 4595.62 1.91495 -3.79749 0
M  V30 46250 N 4593.93 1.52181 0.409726 0
M  V30 46251 C 4595.16 1.70058 1.17847 0
M  V30 46252 C 4595.58 0.4098 1.84299 0
M  V30 46253 O 4594.93 -0.614123 1.71857 0
M  V30 46254 C 4594.99 2.83576 2.24203 0
M  V30 46255 O 4594.71 4.07655 1.60464 0
M  V30 46256 C 4596.21 3.12958 3.13962 0
M  V30 46257 H 4593.43 0.569929 0.354149 0
M  V30 46258 H 4595.97 1.98735 0.482128 0
M  V30 46259 H 4594.13 2.57419 2.89507 0
M  V30 46260 H 4594.54 4.70907 2.30969 0
M  V30 46261 H 4596.01 3.95902 3.84663 0
M  V30 46262 H 4596.49 2.26485 3.76299 0
M  V30 46263 H 4597.1 3.40877 2.54328 0
M  V30 46264 N 4595.41 -0.666919 1.42793 0
M  V30 46265 C 4596.66 -1.42412 1.43399 0
M  V30 46266 C 4596.98 -1.94924 0.0543058 0
M  V30 46267 O 4596.25 -1.73568 -0.908354 0
M  V30 46268 H 4594.83 -0.528497 0.527921 0
M  V30 46269 H 4597.49 -0.7875 1.78282 0
M  V30 46270 H 4596.59 -2.27325 2.13845 0
M  V30 46271 N 4596.89 -1.29096 -0.903985 0
M  V30 46272 C 4598.14 -1.16992 -1.65652 0
M  V30 46273 C 4598.47 0.278857 -1.92187 0
M  V30 46274 O 4597.74 1.20185 -1.52924 0
M  V30 46275 C 4598.03 -1.97918 -3.00833 0
M  V30 46276 C 4597.88 -3.50912 -2.8139 0
M  V30 46277 C 4599.2 -1.80222 -4.01507 0
M  V30 46278 H 4596.32 -0.426367 -0.601149 0
M  V30 46279 H 4598.96 -1.58522 -1.04742 0
M  V30 46280 H 4597.11 -1.62628 -3.52823 0
M  V30 46281 H 4598.78 -3.96161 -2.36334 0
M  V30 46282 H 4597.03 -3.76052 -2.16257 0
M  V30 46283 H 4597.7 -4.02804 -3.77429 0
M  V30 46284 H 4600.17 -2.11037 -3.58612 0
M  V30 46285 H 4599.05 -2.39202 -4.94038 0
M  V30 46286 H 4599.31 -0.756272 -4.35583 0
M  V30 46287 N 4598.37 1.11377 -1.11503 0
M  V30 46288 C 4599.59 1.87472 -0.887085 0
M  V30 46289 C 4600.02 1.79641 0.557732 0
M  V30 46290 O 4599.38 1.15929 1.39392 0
M  V30 46291 C 4599.43 3.34208 -1.35415 0
M  V30 46292 O 4598.53 4.09028 -0.52629 0
M  V30 46293 H 4597.87 0.582088 -0.319483 0
M  V30 46294 H 4600.4 1.4078 -1.48466 0
M  V30 46295 H 4600.41 3.85055 -1.34895 0
M  V30 46296 H 4599.09 3.39224 -2.40624 0
M  V30 46297 H 4597.66 3.6808 -0.597651 0
M  V30 46298 N 4599.85 0.905449 1.28994 0
M  V30 46299 C 4600.81 0.392332 2.25817 0
M  V30 46300 C 4601.81 -0.476699 1.53572 0
M  V30 46301 O 4603 -0.280934 1.7192 0
M  V30 46302 C 4600.13 -0.438469 3.38068 0
M  V30 46303 H 4601.33 1.24753 2.72721 0
M  V30 46304 H 4598.88 0.684101 1.40534 0
M  V30 46305 H 4599.61 -1.31341 2.96513 0
M  V30 46306 H 4599.4 0.184304 3.91667 0
M  V30 46307 H 4600.89 -0.788586 4.10087 0
M  V30 46308 N 4601.33 -1.42718 0.668539 0
M  V30 46309 C 4602.57 -2.01225 0.187839 0
M  V30 46310 C 4602.89 -1.53097 -1.20774 0
M  V30 46311 O 4602.16 -0.749994 -1.80975 0
M  V30 46312 H 4600.74 -0.744038 0.0664533 0
M  V30 46313 H 4603.41 -1.7472 0.863644 0
M  V30 46314 H 4602.5 -3.11556 0.184275 0
M  V30 46315 N 4602.8 -0.411452 -1.52134 0
M  V30 46316 C 4604.04 0.163072 -2.03748 0
M  V30 46317 C 4604.41 1.42183 -1.29027 0
M  V30 46318 O 4605.61 2.07494 -1.70879 0
M  V30 46319 C 4603.88 0.402526 -3.55126 0
M  V30 46320 S 4605.44 0.944165 -4.28522 0
M  V30 46321 H 4602.26 0.0439584 -0.70964 0
M  V30 46322 H 4604.86 -0.564906 -1.87161 0
M  V30 46323 H 4603.56 -0.520355 -4.07088 0
M  V30 46324 H 4603.09 1.15831 -3.75961 0
M  V30 46325 H 4605.11 2.22448 -4.43544 0
M  V30 46326 N 4604.28 1.56959 -0.141948 0
M  V30 46327 C 4605.51 2.00323 0.517508 0
M  V30 46328 C 4605.92 1.02198 1.58748 0
M  V30 46329 O 4605.28 0.018226 1.82491 0
M  V30 46330 C 4605.33 3.43622 1.12277 0
M  V30 46331 O 4605.05 4.37996 0.0955389 0
M  V30 46332 C 4606.55 4.02238 1.86332 0
M  V30 46333 H 4603.77 0.657248 0.135154 0
M  V30 46334 H 4606.32 2.03145 -0.235044 0
M  V30 46335 H 4604.47 3.41668 1.82597 0
M  V30 46336 H 4604.89 5.21731 0.538285 0
M  V30 46337 H 4606.36 5.04517 2.23979 0
M  V30 46338 H 4606.84 3.42664 2.74732 0
M  V30 46339 H 4607.44 4.07807 1.20722 0
M  V30 46340 N 4605.76 -0.13184 1.57048 0
M  V30 46341 C 4606.72 -1.14631 1.98475 0
M  V30 46342 C 4607.72 -1.35026 0.873195 0
M  V30 46343 O 4608.91 -1.3176 1.13951 0
M  V30 46344 C 4606.04 -2.5035 2.31382 0
M  V30 46345 H 4607.24 -0.790538 2.89293 0
M  V30 46346 H 4604.79 -0.375707 1.51717 0
M  V30 46347 H 4605.53 -2.90871 1.43404 0
M  V30 46348 H 4605.31 -2.36904 3.1244 0
M  V30 46349 H 4606.8 -3.23386 2.64218 0
M  V30 46350 N 4607.24 -1.52396 -0.40165 0
M  V30 46351 C 4608.51 -1.57391 -1.16135 0
M  V30 46352 C 4608.89 -0.359432 -2.08018 0
M  V30 46353 O 4608.24 0.653183 -2.18965 0
M  V30 46354 C 4608.45 -2.90638 -1.93211 0
M  V30 46355 C 4609.8 -3.43913 -2.49016 0
M  V30 46356 O 4610.82 -2.92428 -2.03382 0
M  V30 46357 O 4609.68 -4.33834 -3.3234 0
M  V30 46358 H 4606.78 -0.634281 -0.530676 0
M  V30 46359 H 4609.32 -1.64727 -0.407825 0
M  V30 46360 H 4608.1 -3.70477 -1.25945 0
M  V30 46361 H 4607.72 -2.8663 -2.75552 0
M  V30 46362 N 4608.72 0.659337 -1.43145 0
M  V30 46363 C 4609.65 1.78417 -1.50631 0
M  V30 46364 C 4610.63 1.66214 -0.361501 0
M  V30 46365 O 4611.81 1.85402 -0.577899 0
M  V30 46366 C 4608.94 3.1681 -1.42299 0
M  V30 46367 C 4607.9 3.43768 -2.54966 0
M  V30 46368 C 4607.22 4.81897 -2.31688 0
M  V30 46369 C 4608.52 3.3912 -3.97234 0
M  V30 46370 H 4610.22 1.72409 -2.44777 0
M  V30 46371 H 4607.76 0.828043 -1.17811 0
M  V30 46372 H 4609.71 3.95248 -1.46141 0
M  V30 46373 H 4608.44 3.23533 -0.446548 0
M  V30 46374 H 4607.1 2.67698 -2.50467 0
M  V30 46375 H 4606.75 4.85289 -1.32301 0
M  V30 46376 H 4606.45 5.00895 -3.07209 0
M  V30 46377 H 4607.97 5.626 -2.37304 0
M  V30 46378 H 4609.38 4.07504 -4.03254 0
M  V30 46379 H 4607.78 3.69655 -4.72732 0
M  V30 46380 H 4608.85 2.37411 -4.22805 0
M  V30 46381 N 4610.19 1.29574 0.897126 0
M  V30 46382 C 4611.12 1.1748 2.01794 0
M  V30 46383 C 4612.1 0.0683828 1.69962 0
M  V30 46384 O 4613.29 0.248307 1.92606 0
M  V30 46385 C 4610.42 0.853217 3.36656 0
M  V30 46386 C 4609.37 1.91624 3.82707 0
M  V30 46387 C 4608.7 1.44791 5.14723 0
M  V30 46388 C 4610 3.32549 4.02751 0
M  V30 46389 H 4611.69 2.11245 2.1217 0
M  V30 46390 H 4609.24 1.01703 1.01944 0
M  V30 46391 H 4611.19 0.755311 4.14576 0
M  V30 46392 H 4609.92 -0.120121 3.26379 0
M  V30 46393 H 4608.58 2.00357 3.07006 0
M  V30 46394 H 4608.22 0.463171 5.00863 0
M  V30 46395 H 4607.92 2.15884 5.46505 0
M  V30 46396 H 4609.45 1.36355 5.9518 0
M  V30 46397 H 4610.86 3.26643 4.71145 0
M  V30 46398 H 4609.26 4.01623 4.45891 0
M  V30 46399 H 4610.33 3.75337 3.07002 0
M  V30 46400 N 4611.67 -1.10784 1.12092 0
M  V30 46401 C 4612.92 -1.82939 0.87529 0
M  V30 46402 C 4613.25 -1.84781 -0.597473 0
M  V30 46403 O 4612.53 -1.30583 -1.44147 0
M  V30 46404 C 4612.81 -3.29784 1.44618 0
M  V30 46405 C 4612.66 -3.36296 2.98705 0
M  V30 46406 C 4613.98 -4.2606 1.10276 0
M  V30 46407 H 4611.1 -0.664184 0.31942 0
M  V30 46408 H 4613.74 -1.29862 1.38693 0
M  V30 46409 H 4611.89 -3.75114 1.01102 0
M  V30 46410 H 4613.56 -2.99474 3.50874 0
M  V30 46411 H 4611.81 -2.76306 3.34421 0
M  V30 46412 H 4612.48 -4.39682 3.33741 0
M  V30 46413 H 4614.95 -3.88945 1.47853 0
M  V30 46414 H 4613.83 -5.27178 1.52888 0
M  V30 46415 H 4614.09 -4.42098 0.0144508 0
M  V30 46416 N 4613.15 -0.912277 -1.28512 0
M  V30 46417 C 4614.4 -0.543591 -1.94652 0
M  V30 46418 C 4614.72 0.91544 -1.72176 0
M  V30 46419 O 4613.99 1.64704 -1.06064 0
M  V30 46420 H 4612.57 -0.198042 -0.72027 0
M  V30 46421 H 4615.23 -1.16131 -1.56523 0
M  V30 46422 H 4614.33 -0.736791 -3.03278 0
M  V30 46423 N 4614.63 1.42361 -0.676098 0
M  V30 46424 C 4616.04 1.55809 -0.345773 0
M  V30 46425 C 4616.24 1.65548 1.14874 0
M  V30 46426 O 4615.3 1.62313 1.93419 0
M  V30 46427 C 4616.61 2.80742 -1.07723 0
M  V30 46428 C 4618.16 2.94516 -1.05968 0
M  V30 46429 C 4618.64 4.22312 -1.77248 0
M  V30 46430 N 4620.13 4.29227 -1.74123 0
M  V30 46431 C 4620.86 5.26927 -2.26131 0
M  V30 46432 N 4620.36 6.30772 -2.86527 0
M  V30 46433 N 4622.15 5.18734 -2.16499 0
M  V30 46434 H 4614.3 1.34284 -1.64565 0
M  V30 46435 H 4616.57 0.646481 -0.693373 0
M  V30 46436 H 4616.27 2.79688 -2.13231 0
M  V30 46437 H 4616.15 3.71674 -0.64329 0
M  V30 46438 H 4618.53 2.95097 -0.0129292 0
M  V30 46439 H 4618.61 2.04812 -1.53251 0
M  V30 46440 H 4618.26 4.22492 -2.81892 0
M  V30 46441 H 4618.19 5.10953 -1.27414 0
M  V30 46442 H 4620.68 3.5481 -1.30071 0
M  V30 46443 H 4620.99 7.0168 -3.2383 0
M  V30 46444 H 4619.34 6.3133 -2.90598 0
M  V30 46445 H 4622.53 4.36527 -1.69002 0
M  V30 46446 H 4622.7 5.94712 -2.57337 0
M  V30 46447 N 4616.11 0.419515 1.51914 0
M  V30 46448 C 4617.07 -0.389036 2.25874 0
M  V30 46449 C 4618.07 -0.964879 1.28634 0
M  V30 46450 O 4619.26 -0.842125 1.52492 0
M  V30 46451 C 4616.39 -1.54864 3.03694 0
M  V30 46452 H 4617.58 0.258904 2.9878 0
M  V30 46453 H 4615.14 0.172263 1.55348 0
M  V30 46454 H 4615.87 -2.23314 2.35162 0
M  V30 46455 H 4615.66 -1.1421 3.75098 0
M  V30 46456 H 4617.15 -2.12033 3.59766 0
M  V30 46457 N 4617.58 -1.56882 0.15027 0
M  V30 46458 C 4618.52 -2.12715 -0.826283 0
M  V30 46459 C 4619.5 -1.05158 -1.24018 0
M  V30 46460 O 4620.68 -1.33008 -1.3357 0
M  V30 46461 C 4617.81 -2.64952 -2.10993 0
M  V30 46462 C 4616.85 -3.84687 -1.8417 0
M  V30 46463 S 4617.69 -5.25505 -1.02977 0
M  V30 46464 C 4618.84 -5.81134 -2.32453 0
M  V30 46465 H 4619.07 -2.95215 -0.351494 0
M  V30 46466 H 4616.61 -1.54267 -0.0640669 0
M  V30 46467 H 4618.57 -2.95699 -2.84732 0
M  V30 46468 H 4617.23 -1.82577 -2.55586 0
M  V30 46469 H 4616.42 -4.19492 -2.79361 0
M  V30 46470 H 4616.02 -3.54718 -1.18537 0
M  V30 46471 H 4618.31 -5.92765 -3.2808 0
M  V30 46472 H 4619.26 -6.78632 -2.02148 0
M  V30 46473 H 4619.66 -5.09401 -2.43251 0
M  V30 46474 N 4619.06 0.12351 -1.57115 0
M  V30 46475 C 4620.29 0.846394 -1.88796 0
M  V30 46476 C 4620.71 1.73649 -0.741037 0
M  V30 46477 O 4620.06 1.80208 0.288329 0
M  V30 46478 C 4620.11 1.68358 -3.19903 0
M  V30 46479 O 4619.83 0.829325 -4.30179 0
M  V30 46480 C 4621.34 2.51202 -3.65257 0
M  V30 46481 H 4618.56 0.243551 -0.625239 0
M  V30 46482 H 4621.1 0.109253 -2.04208 0
M  V30 46483 H 4619.25 2.37353 -3.06174 0
M  V30 46484 H 4619.67 1.40633 -5.05294 0
M  V30 46485 H 4621.14 3.05481 -4.59767 0
M  V30 46486 H 4621.62 3.28348 -2.91692 0
M  V30 46487 H 4622.23 1.87457 -3.81759 0
M  V30 46488 N 4620.54 1.52607 0.393562 0
M  V30 46489 C 4621.79 1.67428 1.13904 0
M  V30 46490 C 4622.12 0.411925 1.90088 0
M  V30 46491 O 4621.37 -0.605561 1.86095 0
M  V30 46492 C 4621.67 2.85729 2.14695 0
M  V30 46493 C 4621.34 4.23347 1.55203 0
M  V30 46494 C 4620 4.60776 1.38703 0
M  V30 46495 C 4622.35 5.09045 1.11906 0
M  V30 46496 C 4619.68 5.81566 0.774485 0
M  V30 46497 C 4622.03 6.30454 0.520631 0
M  V30 46498 C 4620.69 6.66619 0.3429 0
M  V30 46499 H 4619.96 0.612662 0.416805 0
M  V30 46500 H 4622.61 1.86741 0.424249 0
M  V30 46501 H 4620.92 2.60813 2.92376 0
M  V30 46502 H 4622.61 2.94391 2.72277 0
M  V30 46503 H 4619.2 3.93861 1.69031 0
M  V30 46504 H 4623.39 4.807 1.23456 0
M  V30 46505 H 4618.64 6.08198 0.62494 0
M  V30 46506 H 4622.82 6.96175 0.17682 0
M  V30 46507 H 4620.44 7.60082 -0.133839 0
M  V30 46508 N 4622.02 -0.651737 1.43493 0
M  V30 46509 C 4622.97 -1.75777 1.45211 0
M  V30 46510 C 4623.95 -1.57678 0.320383 0
M  V30 46511 O 4625.14 -1.67765 0.56427 0
M  V30 46512 C 4622.27 -3.14372 1.37931 0
M  V30 46513 C 4621.36 -3.38014 2.56139 0
M  V30 46514 N 4621.75 -3.32122 3.81482 0
M  V30 46515 C 4620.05 -3.68738 2.50894 0
M  V30 46516 C 4620.75 -3.55885 4.60131 0
M  V30 46517 N 4619.73 -3.7777 3.90885 0
M  V30 46518 H 4623.53 -1.69649 2.39993 0
M  V30 46519 H 4621.04 -0.853459 1.38166 0
M  V30 46520 H 4623.04 -3.93662 1.37245 0
M  V30 46521 H 4621.7 -3.21682 0.441709 0
M  V30 46522 H 4622.71 -3.115 4.13749 0
M  V30 46523 H 4619.39 -3.83154 1.65829 0
M  V30 46524 H 4620.78 -3.57096 5.6915 0
M  V30 46525 N 4623.5 -1.30048 -0.890242 0
M  V30 46526 C 4624.74 -1.18333 -1.63835 0
M  V30 46527 C 4625.07 0.263387 -1.93213 0
M  V30 46528 O 4624.34 1.17851 -1.56487 0
M  V30 46529 H 4622.92 -0.434954 -0.607309 0
M  V30 46530 H 4625.58 -1.63103 -1.06693 0
M  V30 46531 H 4624.67 -1.74033 -2.59073 0
M  V30 46532 N 4624.97 1.10188 -1.12678 0
M  V30 46533 C 4625.92 2.14752 -0.765876 0
M  V30 46534 C 4626.91 1.59155 0.236353 0
M  V30 46535 O 4628.1 1.76951 0.0414639 0
M  V30 46536 C 4625.23 3.42562 -0.224947 0
M  V30 46537 C 4624.32 4.05086 -1.25562 0
M  V30 46538 N 4624.71 4.42278 -2.45405 0
M  V30 46539 C 4623 4.32182 -1.10157 0
M  V30 46540 C 4623.71 4.9143 -3.11241 0
M  V30 46541 N 4622.68 4.88397 -2.38683 0
M  V30 46542 H 4626.48 2.41303 -1.6778 0
M  V30 46543 H 4624 1.27336 -1.00794 0
M  V30 46544 H 4625.99 4.16868 0.0518113 0
M  V30 46545 H 4624.65 3.1747 0.681404 0
M  V30 46546 H 4625.67 4.33892 -2.82769 0
M  V30 46547 H 4622.34 4.16734 -0.252733 0
M  V30 46548 H 4623.73 5.29735 -4.13317 0
M  V30 46549 N 4626.45 0.919079 1.28026 0
M  V30 46550 C 4627.7 0.553907 1.94361 0
M  V30 46551 C 4628.02 -0.906296 1.72659 0
M  V30 46552 O 4627.29 -1.64139 1.06936 0
M  V30 46553 H 4625.87 0.201859 0.719209 0
M  V30 46554 H 4628.53 1.1696 1.55905 0
M  V30 46555 H 4627.63 0.752864 3.02883 0
M  V30 46556 N 4627.93 -1.42001 0.683638 0
M  V30 46557 C 4629.18 -2.01412 0.209585 0
M  V30 46558 C 4629.51 -1.54092 -1.18684 0
M  V30 46559 O 4628.76 -0.737654 -1.81265 0
M  V30 46560 C 4629.06 -3.56826 0.202482 0
M  V30 46561 C 4628.73 -4.23612 1.54479 0
M  V30 46562 C 4627.39 -4.4157 1.9123 0
M  V30 46563 C 4629.74 -4.61169 2.42842 0
M  V30 46564 C 4627.07 -4.94359 3.15952 0
M  V30 46565 C 4629.42 -5.15343 3.66885 0
M  V30 46566 C 4628.08 -5.31513 4.03794 0
M  V30 46567 H 4627.35 -0.737021 0.0766927 0
M  V30 46568 H 4630 -1.70064 0.880372 0
M  V30 46569 H 4628.31 -3.87894 -0.551833 0
M  V30 46570 H 4630 -4.00588 -0.181653 0
M  V30 46571 H 4626.59 -4.1 1.24892 0
M  V30 46572 H 4630.78 -4.4696 2.15732 0
M  V30 46573 H 4626.03 -5.05064 3.44558 0
M  V30 46574 H 4630.21 -5.43386 4.35551 0
M  V30 46575 H 4627.83 -5.72182 5.00512 0
M  V30 46576 N 4629.41 -0.427565 -1.51689 0
M  V30 46577 C 4630.34 0.379519 -2.30395 0
M  V30 46578 C 4631.32 1.02977 -1.35387 0
M  V30 46579 O 4632.51 1.03528 -1.64303 0
M  V30 46580 C 4629.64 1.48638 -3.13885 0
M  V30 46581 C 4628.59 0.960148 -4.17091 0
M  V30 46582 C 4627.92 2.16202 -4.89041 0
M  V30 46583 C 4629.22 0.00135318 -5.223 0
M  V30 46584 H 4630.91 -0.277268 -2.98113 0
M  V30 46585 H 4628.46 -0.134789 -1.43368 0
M  V30 46586 H 4630.41 2.05813 -3.67721 0
M  V30 46587 H 4629.13 2.17132 -2.4397 0
M  V30 46588 H 4627.79 0.410678 -3.64292 0
M  V30 46589 H 4627.44 2.83292 -4.15638 0
M  V30 46590 H 4627.14 1.81634 -5.58823 0
M  V30 46591 H 4628.66 2.73948 -5.45696 0
M  V30 46592 H 4630.08 0.482486 -5.71266 0
M  V30 46593 H 4628.47 -0.25641 -5.99552 0
M  V30 46594 H 4629.54 -0.938341 -4.75734 0
M  V30 46595 N 4630.89 1.568 -0.158588 0
M  V30 46596 C 4632.3 1.58371 0.197718 0
M  V30 46597 C 4632.5 1.1734 1.6381 0
M  V30 46598 O 4631.56 0.879071 2.36704 0
M  V30 46599 C 4632.87 3.00615 -0.0715516 0
M  V30 46600 C 4634.42 3.12999 -0.00875537 0
M  V30 46601 C 4634.9 4.57313 -0.250846 0
M  V30 46602 N 4636.39 4.62776 -0.198176 0
M  V30 46603 C 4637.12 5.7227 -0.359843 0
M  V30 46604 N 4636.62 6.90369 -0.579868 0
M  V30 46605 N 4638.41 5.61317 -0.296635 0
M  V30 46606 H 4630.56 1.81761 -1.09893 0
M  V30 46607 H 4632.82 0.841833 -0.435913 0
M  V30 46608 H 4632.53 3.35065 -1.06886 0
M  V30 46609 H 4632.4 3.71686 0.642627 0
M  V30 46610 H 4634.79 2.78383 0.979119 0
M  V30 46611 H 4634.87 2.4439 -0.755445 0
M  V30 46612 H 4634.52 4.92634 -1.23587 0
M  V30 46613 H 4634.45 5.24063 0.516305 0
M  V30 46614 H 4636.94 3.77885 -0.0332444 0
M  V30 46615 H 4637.25 7.69686 -0.693021 0
M  V30 46616 H 4635.6 6.92262 -0.61633 0
M  V30 46617 H 4638.79 4.67932 -0.125423 0
M  V30 46618 H 4638.96 6.46598 -0.426059 0
M  V30 46619 N 4632.37 -0.115176 1.57179 0
M  V30 46620 C 4633.3 -1.14223 2.03655 0
M  V30 46621 C 4634.28 -1.42964 0.921706 0
M  V30 46622 O 4635.46 -1.53339 1.19167 0
M  V30 46623 C 4632.59 -2.46741 2.44409 0
M  V30 46624 C 4631.55 -2.32455 3.59373 0
M  V30 46625 C 4630.87 -3.6997 3.86039 0
M  V30 46626 C 4632.17 -1.78186 4.90965 0
M  V30 46627 H 4633.87 -0.755647 2.89707 0
M  V30 46628 H 4631.41 -0.362044 1.39374 0
M  V30 46629 H 4633.36 -3.18845 2.75529 0
M  V30 46630 H 4632.09 -2.87297 1.55332 0
M  V30 46631 H 4630.75 -1.62799 3.28469 0
M  V30 46632 H 4630.4 -4.08017 2.94161 0
M  V30 46633 H 4630.1 -3.61263 4.63425 0
M  V30 46634 H 4631.62 -4.43572 4.19614 0
M  V30 46635 H 4633.03 -2.4011 5.20596 0
M  V30 46636 H 4631.43 -1.8029 5.72377 0
M  V30 46637 H 4632.5 -0.739708 4.79225 0
M  V30 46638 N 4633.84 -1.52813 -0.385464 0
M  V30 46639 C 4634.81 -1.77193 -1.45379 0
M  V30 46640 C 4635.81 -0.642005 -1.47428 0
M  V30 46641 O 4637 -0.910085 -1.48537 0
M  V30 46642 C 4634.13 -1.87592 -2.84643 0
M  V30 46643 H 4635.32 -2.72588 -1.25044 0
M  V30 46644 H 4632.87 -1.43588 -0.617417 0
M  V30 46645 H 4633.61 -0.941958 -3.10319 0
M  V30 46646 H 4633.39 -2.69758 -2.84557 0
M  V30 46647 H 4634.88 -2.08115 -3.62047 0
M  V30 46648 N 4635.32 0.644118 -1.43836 0
M  V30 46649 C 4636.25 1.76809 -1.52515 0
M  V30 46650 C 4637.23 1.65821 -0.37911 0
M  V30 46651 O 4638.42 1.84779 -0.597531 0
M  V30 46652 C 4635.55 3.15283 -1.45651 0
M  V30 46653 C 4634.5 3.41044 -2.58598 0
M  V30 46654 C 4633.83 4.79413 -2.36786 0
M  V30 46655 C 4635.13 3.34888 -4.00808 0
M  V30 46656 H 4636.82 1.69803 -2.46591 0
M  V30 46657 H 4634.37 0.815501 -1.18683 0
M  V30 46658 H 4636.32 3.93675 -1.50325 0
M  V30 46659 H 4635.04 3.23041 -0.480838 0
M  V30 46660 H 4633.7 2.65026 -2.53292 0
M  V30 46661 H 4633.35 4.83858 -1.37441 0
M  V30 46662 H 4633.05 4.97609 -3.12505 0
M  V30 46663 H 4634.58 5.60052 -2.43258 0
M  V30 46664 H 4635.99 4.03204 -4.07553 0
M  V30 46665 H 4634.39 3.6462 -4.76626 0
M  V30 46666 H 4635.46 2.32913 -4.25299 0
M  V30 46667 N 4636.8 1.30518 0.883332 0
M  V30 46668 C 4638.02 1.22493 1.67362 0
M  V30 46669 C 4638.45 -0.208701 1.86939 0
M  V30 46670 O 4637.81 -1.1501 1.40152 0
M  V30 46671 C 4637.86 1.96052 3.02648 0
M  V30 46672 O 4636.96 1.28873 3.91747 0
M  V30 46673 H 4636.3 0.423591 0.511338 0
M  V30 46674 H 4638.83 1.72366 1.10233 0
M  V30 46675 H 4638.84 2.05137 3.5268 0
M  V30 46676 H 4637.52 3.00317 2.87719 0
M  V30 46677 H 4636.09 1.28153 3.50187 0
M  V30 46678 N 4638.28 -1.09589 1.13261 0
M  V30 46679 C 4639.23 -2.18268 0.803859 0
M  V30 46680 C 4640.22 -1.68054 -0.213089 0
M  V30 46681 O 4641.43 -1.79862 -0.0704067 0
M  V30 46682 H 4637.8 -0.71194 0.242168 0
M  V30 46683 H 4639.77 -2.43229 1.72864 0
M  V30 46684 C 4638.52 -3.46535 0.284362 0
M  V30 46685 H 4637.84 -3.85541 1.0582 0
M  V30 46686 H 4639.28 -4.23899 0.0927435 0
M  V30 46687 C 4637.74 -3.22039 -0.98957 0
M  V30 46688 O 4638.27 -3.44516 -2.06571 0
M  V30 46689 N 4636.48 -2.75653 -0.91999 0
M  V30 46690 H 4636.03 -2.57562 -0.0441113 0
M  V30 46691 H 4635.98 -2.59641 -1.77296 0
M  V30 46692 N 4639.76 -0.925856 -1.27537 0
M  V30 46693 C 4641 -0.56616 -1.94737 0
M  V30 46694 C 4641.33 0.889996 -1.72606 0
M  V30 46695 O 4640.61 1.63463 -1.05405 0
M  V30 46696 C 4640.89 -0.890663 -3.48911 0
M  V30 46697 C 4640.75 -2.40044 -3.80393 0
M  V30 46698 C 4642.06 -0.395255 -4.38322 0
M  V30 46699 H 4639.18 -0.207165 -0.707285 0
M  V30 46700 H 4641.83 -1.1573 -1.50687 0
M  V30 46701 H 4639.98 -0.387588 -3.86562 0
M  V30 46702 H 4641.65 -2.97506 -3.52545 0
M  V30 46703 H 4639.89 -2.85039 -3.27009 0
M  V30 46704 H 4640.56 -2.57802 -4.88101 0
M  V30 46705 H 4643.04 -0.826384 -4.07811 0
M  V30 46706 H 4641.91 -0.651277 -5.45023 0
M  V30 46707 H 4642.17 0.704645 -4.36448 0
M  V30 46708 N 4641.23 1.41636 -0.691159 0
M  V30 46709 C 4642.2 2.29178 -0.0320591 0
M  V30 46710 C 4643.2 1.44156 0.712445 0
M  V30 46711 O 4644.39 1.65356 0.547995 0
M  V30 46712 C 4641.52 3.26955 0.965046 0
M  V30 46713 H 4642.71 2.88956 -0.802782 0
M  V30 46714 H 4640.26 1.49549 -0.454408 0
M  V30 46715 H 4641 2.72148 1.76369 0
M  V30 46716 H 4640.78 3.89686 0.434385 0
M  V30 46717 H 4642.27 3.92566 1.42414 0
M  V30 46718 N 4642.71 0.435603 1.5146 0
M  V30 46719 C 4644.12 -0.0279215 1.86679 0
M  V30 46720 C 4644.47 -1.42099 1.35286 0
M  V30 46721 O 4643.6 -2.04665 0.70295 0
M  V30 46722 C 4644.19 -0.0574435 3.38751 0
M  V30 46723 C 4642.75 -0.465376 3.73512 0
M  V30 46724 C 4641.9 0.343093 2.75169 0
M  V30 46725 H 4644.85 0.651524 1.4471 0
M  V30 46726 H 4644.87 -0.867291 3.70484 0
M  V30 46727 H 4644.38 0.95658 3.76127 0
M  V30 46728 H 4642.49 -1.48507 3.41726 0
M  V30 46729 H 4642.6 -0.191377 4.78718 0
M  V30 46730 H 4640.96 -0.198352 2.53926 0
M  V30 46731 H 4641.75 1.35596 3.15386 0
M  V30 46732 N 4644.19 -1.56714 0.166901 0
M  V30 46733 C 4645.12 -2.20757 -0.760835 0
M  V30 46734 C 4646.1 -1.16183 -1.2424 0
M  V30 46735 O 4647.29 -1.44596 -1.29636 0
M  V30 46736 C 4644.42 -2.84485 -1.99213 0
M  V30 46737 C 4643.37 -3.95059 -1.64658 0
M  V30 46738 C 4642.7 -4.45816 -2.95216 0
M  V30 46739 C 4644 -5.14868 -0.877974 0
M  V30 46740 H 4645.69 -2.98538 -0.227025 0
M  V30 46741 H 4643.24 -1.43596 -0.107754 0
M  V30 46742 H 4645.19 -3.27961 -2.64613 0
M  V30 46743 H 4643.91 -2.04065 -2.55 0
M  V30 46744 H 4642.57 -3.52232 -1.01629 0
M  V30 46745 H 4642.22 -3.62193 -3.49035 0
M  V30 46746 H 4641.92 -5.20409 -2.72852 0
M  V30 46747 H 4643.44 -4.91975 -3.61653 0
M  V30 46748 H 4644.86 -5.55064 -1.43447 0
M  V30 46749 H 4643.26 -5.9535 -0.753528 0
M  V30 46750 H 4644.33 -4.84735 0.126547 0
M  V30 46751 N 4645.67 0.106839 -1.57237 0
M  V30 46752 C 4646.9 0.826322 -1.89683 0
M  V30 46753 C 4647.31 1.72854 -0.759414 0
M  V30 46754 O 4646.67 1.80504 0.2692 0
M  V30 46755 C 4646.72 1.64956 -3.2167 0
M  V30 46756 O 4646.44 0.783653 -4.31034 0
M  V30 46757 C 4647.94 2.47313 -3.67901 0
M  V30 46758 H 4645.16 0.236905 -0.627787 0
M  V30 46759 H 4647.71 0.0875875 -2.04312 0
M  V30 46760 H 4645.86 2.34092 -3.08674 0
M  V30 46761 H 4646.27 1.35266 -5.06758 0
M  V30 46762 H 4647.75 3.00587 -4.62981 0
M  V30 46763 H 4648.23 3.25236 -2.95158 0
M  V30 46764 H 4648.83 1.83397 -3.83726 0
M  V30 46765 N 4647.15 1.53016 0.377354 0
M  V30 46766 C 4648.39 1.68294 1.119 0
M  V30 46767 C 4648.72 0.431273 1.90171 0
M  V30 46768 O 4647.99 -0.554528 1.87888 0
M  V30 46769 H 4646.57 0.620385 0.41609 0
M  V30 46770 H 4649.23 1.90169 0.426826 0
M  V30 46771 H 4648.32 2.53869 1.81541 0
M  V30 46772 N 4648.62 -0.636481 1.44176 0
M  V30 46773 C 4649.57 -1.7699 1.50921 0
M  V30 46774 C 4650.57 -1.65052 0.381353 0
M  V30 46775 O 4651.77 -1.71195 0.556071 0
M  V30 46776 H 4648.15 -0.58423 0.473475 0
M  V30 46777 H 4650.12 -1.68423 2.46326 0
M  V30 46778 C 4648.87 -3.15309 1.46545 0
M  V30 46779 H 4648.19 -3.25141 2.32645 0
M  V30 46780 H 4649.63 -3.94525 1.55326 0
M  V30 46781 C 4648.09 -3.36389 0.185423 0
M  V30 46782 O 4648.62 -3.94702 -0.746549 0
M  V30 46783 N 4646.83 -2.9046 0.0902628 0
M  V30 46784 H 4646.37 -2.4319 0.849502 0
M  V30 46785 H 4646.33 -3.0494 -0.765446 0
M  V30 46786 N 4650.1 -1.30985 -0.876398 0
M  V30 46787 C 4651.35 -1.2048 -1.63133 0
M  V30 46788 C 4651.68 0.238029 -1.92736 0
M  V30 46789 O 4650.96 1.16914 -1.55439 0
M  V30 46790 C 4651.24 -2.04255 -2.96567 0
M  V30 46791 C 4651.09 -3.56802 -2.73884 0
M  V30 46792 C 4652.41 -1.88698 -3.97594 0
M  V30 46793 H 4649.53 -0.439022 -0.59197 0
M  V30 46794 H 4652.17 -1.60708 -1.01356 0
M  V30 46795 H 4650.32 -1.70075 -3.49294 0
M  V30 46796 H 4651.99 -4.01085 -2.27878 0
M  V30 46797 H 4650.24 -3.80555 -2.08231 0
M  V30 46798 H 4650.91 -4.10719 -3.688 0
M  V30 46799 H 4653.38 -2.18597 -3.54055 0
M  V30 46800 H 4652.26 -2.49627 -4.88853 0
M  V30 46801 H 4652.52 -0.848496 -4.33881 0
M  V30 46802 N 4651.58 1.08987 -1.13841 0
M  V30 46803 C 4652.81 1.8474 -0.924924 0
M  V30 46804 C 4653.22 1.81631 0.52981 0
M  V30 46805 O 4652.56 1.21401 1.37867 0
M  V30 46806 C 4652.62 3.33564 -1.34073 0
M  V30 46807 C 4652.29 3.60415 -2.8098 0
M  V30 46808 C 4653.28 3.55758 -3.7912 0
M  V30 46809 C 4650.97 3.88616 -3.1825 0
M  V30 46810 C 4652.96 3.78921 -5.1254 0
M  V30 46811 C 4650.65 4.11433 -4.51847 0
M  V30 46812 C 4651.65 4.06578 -5.48801 0
M  V30 46813 O 4651.34 4.28802 -6.79988 0
M  V30 46814 H 4651.07 0.590246 -0.329523 0
M  V30 46815 H 4653.62 1.38592 -1.51596 0
M  V30 46816 H 4651.85 3.8044 -0.692986 0
M  V30 46817 H 4653.54 3.90739 -1.099 0
M  V30 46818 H 4654.31 3.33993 -3.51673 0
M  V30 46819 H 4650.19 3.91518 -2.43382 0
M  V30 46820 H 4653.73 3.75047 -5.88205 0
M  V30 46821 H 4649.63 4.32681 -4.79017 0
M  V30 46822 H 4650.4 4.46239 -6.86158 0
M  V30 46823 N 4653.06 0.932607 1.27044 0
M  V30 46824 C 4654.28 0.591544 1.98785 0
M  V30 46825 C 4654.71 -0.824542 1.69065 0
M  V30 46826 O 4654.07 -1.55406 0.933731 0
M  V30 46827 C 4654.11 0.829931 3.5092 0
M  V30 46828 O 4653.22 -0.102121 4.12274 0
M  V30 46829 H 4652.56 0.227207 0.623918 0
M  V30 46830 H 4655.09 1.2532 1.61728 0
M  V30 46831 H 4655.1 0.747433 4.01095 0
M  V30 46832 H 4653.77 1.86215 3.71883 0
M  V30 46833 H 4652.35 0.0307072 3.72887 0
M  V30 46834 N 4654.54 -1.41267 0.698661 0
M  V30 46835 C 4655.78 -2.00781 0.23048 0
M  V30 46836 C 4656.11 -1.55624 -1.175 0
M  V30 46837 O 4655.38 -0.788213 -1.79343 0
M  V30 46838 H 4653.96 -0.742461 0.0822205 0
M  V30 46839 H 4656.62 -1.72849 0.900511 0
M  V30 46840 H 4655.71 -3.11095 0.250319 0
M  V30 46841 N 4656.01 -0.44363 -1.51227 0
M  V30 46842 C 4657.26 0.120725 -2.0214 0
M  V30 46843 C 4657.59 1.42162 -1.32741 0
M  V30 46844 O 4656.84 1.90848 -0.433077 0
M  V30 46845 C 4657.14 0.380454 -3.55369 0
M  V30 46846 C 4656.81 -0.835386 -4.43094 0
M  V30 46847 C 4655.47 -1.1688 -4.66789 0
M  V30 46848 C 4657.82 -1.64619 -4.9452 0
M  V30 46849 C 4655.15 -2.31358 -5.39157 0
M  V30 46850 C 4657.5 -2.78201 -5.68143 0
M  V30 46851 C 4656.17 -3.11989 -5.90101 0
M  V30 46852 H 4655.44 0.0441763 -0.739682 0
M  V30 46853 H 4658.08 -0.59211 -1.82116 0
M  V30 46854 H 4656.39 1.17525 -3.73758 0
M  V30 46855 H 4658.09 0.830639 -3.92303 0
M  V30 46856 H 4654.68 -0.565587 -4.24852 0
M  V30 46857 H 4658.86 -1.4018 -4.76092 0
M  V30 46858 H 4654.12 -2.57843 -5.54371 0
M  V30 46859 H 4658.29 -3.41392 -6.0698 0
M  V30 46860 H 4655.92 -4.00807 -6.45955 0
M  V30 46861 N 4657.49 1.56623 -0.175209 0
M  V30 46862 C 4658.74 1.96611 0.467816 0
M  V30 46863 C 4659.06 1.06244 1.63515 0
M  V30 46864 O 4658.33 0.129591 1.95471 0
M  V30 46865 H 4656.91 0.726014 0.175819 0
M  V30 46866 H 4659.57 1.93194 -0.257302 0
M  V30 46867 H 4658.67 3.00992 0.825236 0
M  V30 46868 N 4658.97 -0.0984986 1.57292 0
M  V30 46869 C 4660.22 -0.802613 1.85915 0
M  V30 46870 C 4660.55 -1.78899 0.763248 0
M  V30 46871 O 4659.8 -1.94179 -0.243491 0
M  V30 46872 C 4660.1 -1.56916 3.21111 0
M  V30 46873 C 4659.77 -0.72522 4.4503 0
M  V30 46874 C 4658.43 -0.492558 4.78672 0
M  V30 46875 C 4660.78 -0.13831 5.21016 0
M  V30 46876 C 4658.11 0.336933 5.85732 0
M  V30 46877 C 4660.46 0.678485 6.28951 0
M  V30 46878 C 4659.12 0.921271 6.61112 0
M  V30 46879 H 4658.39 -0.293697 0.680311 0
M  V30 46880 H 4661.04 -0.0642169 1.91392 0
M  V30 46881 H 4659.35 -2.37903 3.11302 0
M  V30 46882 H 4661.04 -2.11829 3.40484 0
M  V30 46883 H 4657.63 -0.916668 4.18683 0
M  V30 46884 H 4661.82 -0.30523 4.95361 0
M  V30 46885 H 4657.07 0.53405 6.09063 0
M  V30 46886 H 4661.25 1.14014 6.87003 0
M  V30 46887 H 4658.87 1.56582 7.43899 0
M  V30 46888 N 4660.45 -1.53214 -0.369234 0
M  V30 46889 C 4661.4 -1.75774 -1.45215 0
M  V30 46890 C 4662.38 -0.612189 -1.48799 0
M  V30 46891 O 4663.58 -0.870728 -1.54102 0
M  V30 46892 C 4660.7 -1.94779 -2.82694 0
M  V30 46893 C 4659.79 -3.15325 -2.83603 0
M  V30 46894 N 4660.18 -4.37304 -2.54163 0
M  V30 46895 C 4658.48 -3.15973 -3.14765 0
M  V30 46896 C 4659.18 -5.19024 -2.62657 0
M  V30 46897 N 4658.16 -4.55152 -2.97216 0
M  V30 46898 H 4661.96 -2.67696 -1.21311 0
M  V30 46899 H 4659.47 -1.51789 -0.577385 0
M  V30 46900 H 4661.47 -2.09069 -3.60688 0
M  V30 46901 H 4660.13 -1.04083 -3.07566 0
M  V30 46902 H 4661.14 -4.65099 -2.27822 0
M  V30 46903 H 4657.82 -2.35157 -3.44975 0
M  V30 46904 H 4659.21 -6.26313 -2.43272 0
M  V30 46905 N 4661.93 0.628826 -1.44511 0
M  V30 46906 C 4663.15 1.42042 -1.51125 0
M  V30 46907 C 4663.58 1.87594 -0.137883 0
M  V30 46908 O 4662.94 1.58876 0.873381 0
M  V30 46909 C 4662.98 2.61533 -2.4826 0
M  V30 46910 O 4662.09 3.61446 -1.98572 0
M  V30 46911 H 4661.43 0.424924 -0.510231 0
M  V30 46912 H 4663.96 0.767308 -1.89667 0
M  V30 46913 H 4663.97 3.09047 -2.66372 0
M  V30 46914 H 4662.64 2.27724 -3.48015 0
M  V30 46915 H 4661.22 3.20724 -1.90238 0
M  V30 46916 N 4663.41 1.31448 0.869439 0
M  V30 46917 C 4664.37 1.19101 1.95826 0
M  V30 46918 C 4665.37 0.117962 1.60367 0
M  V30 46919 O 4666.56 0.367268 1.70284 0
M  V30 46920 C 4663.69 0.828281 3.30685 0
M  V30 46921 H 4664.88 2.1585 2.08204 0
M  V30 46922 H 4662.44 1.15067 1.0578 0
M  V30 46923 H 4663.17 -0.138028 3.24006 0
M  V30 46924 H 4662.96 1.60393 3.57794 0
M  V30 46925 H 4664.45 0.765802 4.10518 0
M  V30 46926 N 4664.88 -1.08381 1.14417 0
M  V30 46927 C 4665.82 -2.15188 0.789111 0
M  V30 46928 C 4666.83 -1.61639 -0.194113 0
M  V30 46929 O 4668.02 -1.78479 0.0276338 0
M  V30 46930 C 4665.12 -3.38565 0.150699 0
M  V30 46931 C 4664.29 -4.21497 1.16871 0
M  V30 46932 C 4663.35 -5.23275 0.554016 0
M  V30 46933 O 4662.38 -5.56036 1.21705 0
M  V30 46934 N 4663.58 -5.76631 -0.669093 0
M  V30 46935 H 4666.34 -2.46251 1.70823 0
M  V30 46936 H 4663.9 -1.24194 1.03863 0
M  V30 46937 H 4665.9 -4.03778 -0.273039 0
M  V30 46938 H 4664.47 -3.05301 -0.67156 0
M  V30 46939 H 4663.69 -3.52259 1.76938 0
M  V30 46940 H 4664.97 -4.73725 1.8564 0
M  V30 46941 H 4664.37 -5.52248 -1.22634 0
M  V30 46942 H 4662.93 -6.43525 -1.03534 0
M  V30 46943 N 4666.36 -0.939331 -1.26548 0
M  V30 46944 C 4667.64 -0.503867 -1.88999 0
M  V30 46945 C 4668.02 1.01847 -1.84906 0
M  V30 46946 O 4667.37 1.87768 -1.30213 0
M  V30 46947 C 4667.58 -1.06312 -3.32414 0
M  V30 46948 C 4668.92 -1.13065 -4.09269 0
M  V30 46949 O 4669.95 -1.01357 -3.41475 0
M  V30 46950 O 4668.81 -1.31251 -5.30505 0
M  V30 46951 H 4665.9 -0.163925 -0.810591 0
M  V30 46952 H 4668.45 -1.03177 -1.34731 0
M  V30 46953 H 4667.22 -2.10676 -3.29744 0
M  V30 46954 H 4666.84 -0.517547 -3.94217 0
M  V30 46955 N 4667.84 1.40895 -0.706143 0
M  V30 46956 C 4669.06 2.05894 -0.249507 0
M  V30 46957 C 4669.49 1.52827 1.09661 0
M  V30 46958 O 4668.85 0.659648 1.68874 0
M  V30 46959 C 4668.9 3.59871 -0.229167 0
M  V30 46960 O 4668 4.04711 0.792642 0
M  V30 46961 H 4667.34 0.653201 -0.119264 0
M  V30 46962 H 4669.87 1.80468 -0.963973 0
M  V30 46963 H 4669.88 4.0795 -0.0636226 0
M  V30 46964 H 4668.56 3.97862 -1.21155 0
M  V30 46965 H 4667.13 3.68113 0.595591 0
M  V30 46966 N 4669.32 0.451643 1.5099 0
M  V30 46967 C 4670.28 -0.341037 2.26649 0
M  V30 46968 C 4671.28 -0.937376 1.30652 0
M  V30 46969 O 4672.47 -0.80959 1.54244 0
M  V30 46970 C 4669.6 -1.48387 3.06911 0
M  V30 46971 H 4670.8 0.322221 2.98164 0
M  V30 46972 H 4668.35 0.205176 1.54947 0
M  V30 46973 H 4669.08 -2.18276 2.39846 0
M  V30 46974 H 4668.87 -1.06228 3.77436 0
M  V30 46975 H 4670.36 -2.04354 3.64183 0
M  V30 46976 N 4670.8 -1.56528 0.183513 0
M  V30 46977 C 4671.73 -2.21551 -0.737378 0
M  V30 46978 C 4672.71 -1.17494 -1.23001 0
M  V30 46979 O 4673.89 -1.45963 -1.28095 0
M  V30 46980 C 4671.02 -2.86582 -1.96184 0
M  V30 46981 C 4669.98 -3.96783 -1.60459 0
M  V30 46982 C 4669.3 -4.48922 -2.90471 0
M  V30 46983 C 4670.6 -5.1577 -0.823316 0
M  V30 46984 H 4672.3 -2.98762 -0.195348 0
M  V30 46985 H 4669.84 -1.43702 -0.0925181 0
M  V30 46986 H 4671.79 -3.30749 -2.61119 0
M  V30 46987 H 4670.52 -2.06758 -2.52821 0
M  V30 46988 H 4669.18 -3.5329 -0.978872 0
M  V30 46989 H 4668.83 -3.65875 -3.45174 0
M  V30 46990 H 4668.53 -5.23274 -2.67317 0
M  V30 46991 H 4670.05 -4.95783 -3.56415 0
M  V30 46992 H 4671.46 -5.56554 -1.37551 0
M  V30 46993 H 4669.86 -5.96116 -0.690341 0
M  V30 46994 H 4670.93 -4.84573 0.177953 0
M  V30 46995 N 4672.27 0.0901557 -1.57342 0
M  V30 46996 C 4673.2 1.10969 -2.05446 0
M  V30 46997 C 4674.19 1.41479 -0.944333 0
M  V30 46998 O 4675.37 1.51424 -1.21591 0
M  V30 46999 C 4672.5 2.42822 -2.48304 0
M  V30 47000 C 4671.45 2.26708 -3.63026 0
M  V30 47001 C 4670.78 3.63782 -3.91876 0
M  V30 47002 C 4672.08 1.70352 -4.93738 0
M  V30 47003 H 4673.77 0.709461 -2.90873 0
M  V30 47004 H 4671.32 0.339825 -1.39933 0
M  V30 47005 H 4673.27 3.14421 -2.80566 0
M  V30 47006 H 4672 2.84789 -1.59883 0
M  V30 47007 H 4670.66 1.57553 -3.31017 0
M  V30 47008 H 4670.3 4.03286 -3.00615 0
M  V30 47009 H 4670 3.53845 -4.69114 0
M  V30 47010 H 4671.53 4.3684 -4.26618 0
M  V30 47011 H 4672.94 2.31797 -5.2435 0
M  V30 47012 H 4671.34 1.71161 -5.75173 0
M  V30 47013 H 4672.41 0.663373 -4.80341 0
M  V30 47014 N 4673.75 1.53407 0.361103 0
M  V30 47015 C 4674.98 1.73469 1.12214 0
M  V30 47016 C 4675.39 0.465551 1.83383 0
M  V30 47017 O 4674.73 -0.57155 1.74582 0
M  V30 47018 C 4674.8 2.84842 2.19329 0
M  V30 47019 C 4674.46 4.25044 1.67888 0
M  V30 47020 C 4675.46 5.07235 1.14056 0
M  V30 47021 C 4673.14 4.7147 1.73266 0
M  V30 47022 C 4675.14 6.33944 0.662845 0
M  V30 47023 C 4672.82 5.98157 1.25106 0
M  V30 47024 C 4673.82 6.79226 0.717058 0
M  V30 47025 O 4673.51 8.03534 0.242583 0
M  V30 47026 H 4673.24 0.583538 0.341262 0
M  V30 47027 H 4675.79 2.00965 0.42452 0
M  V30 47028 H 4674.02 2.5283 2.92598 0
M  V30 47029 H 4675.71 2.93039 2.80861 0
M  V30 47030 H 4676.48 4.72538 1.09237 0
M  V30 47031 H 4672.36 4.0844 2.13771 0
M  V30 47032 H 4675.9 6.97168 0.245367 0
M  V30 47033 H 4671.8 6.32352 1.2962 0
M  V30 47034 H 4672.57 8.17701 0.361498 0
M  V30 47035 N 4675.23 -0.621153 1.44843 0
M  V30 47036 C 4676.46 -1.40543 1.51431 0
M  V30 47037 C 4676.87 -1.88673 0.141149 0
M  V30 47038 O 4676.21 -1.62056 -0.865071 0
M  V30 47039 C 4676.27 -2.65316 2.42585 0
M  V30 47040 C 4675.94 -2.38916 3.89574 0
M  V30 47041 C 4676.93 -2.00121 4.79841 0
M  V30 47042 C 4674.62 -2.52248 4.34369 0
M  V30 47043 C 4676.61 -1.75 6.12906 0
M  V30 47044 C 4674.3 -2.2674 5.67479 0
M  V30 47045 C 4675.3 -1.88176 6.56566 0
M  V30 47046 O 4674.99 -1.62958 7.8721 0
M  V30 47047 H 4674.72 -0.437104 0.51567 0
M  V30 47048 H 4677.27 -0.76592 1.90585 0
M  V30 47049 H 4675.5 -3.3194 1.98376 0
M  V30 47050 H 4677.19 -3.27338 2.40009 0
M  V30 47051 H 4677.96 -1.8937 4.46502 0
M  V30 47052 H 4673.84 -2.81233 3.65279 0
M  V30 47053 H 4677.38 -1.44824 6.82401 0
M  V30 47054 H 4673.28 -2.37104 6.00377 0
M  V30 47055 H 4674.05 -1.77122 7.99106 0
M  V30 47056 N 4676.71 -1.31907 -0.862456 0
M  V30 47057 C 4678.12 -1.10728 -1.14941 0
M  V30 47058 C 4678.32 0.11735 -2.01158 0
M  V30 47059 O 4677.38 0.804511 -2.3934 0
M  V30 47060 C 4678.69 -2.38274 -1.83429 0
M  V30 47061 C 4680.24 -2.43956 -1.96098 0
M  V30 47062 C 4680.72 -3.71403 -2.68 0
M  V30 47063 N 4682.21 -3.7234 -2.7553 0
M  V30 47064 C 4682.94 -4.67653 -3.31796 0
M  V30 47065 N 4682.44 -5.73326 -3.88933 0
M  V30 47066 N 4684.23 -4.55161 -3.29825 0
M  V30 47067 H 4676.38 -2.10437 -0.288117 0
M  V30 47068 H 4678.65 -0.928712 -0.190259 0
M  V30 47069 H 4678.35 -3.27764 -1.2753 0
M  V30 47070 H 4678.23 -2.48643 -2.83649 0
M  V30 47071 H 4680.61 -1.54931 -2.51158 0
M  V30 47072 H 4680.69 -2.37546 -0.948975 0
M  V30 47073 H 4680.34 -4.60799 -2.13605 0
M  V30 47074 H 4680.27 -3.75082 -3.69623 0
M  V30 47075 H 4682.76 -2.95955 -2.34987 0
M  V30 47076 H 4683.07 -6.42122 -4.29999 0
M  V30 47077 H 4681.42 -5.77091 -3.87287 0
M  V30 47078 H 4684.61 -3.71776 -2.8443 0
M  V30 47079 H 4684.78 -5.29618 -3.73375 0
M  V30 47080 N 4678.19 1.07773 -1.1499 0
M  V30 47081 C 4679.15 2.13038 -0.845433 0
M  V30 47082 C 4680.15 1.60072 0.152874 0
M  V30 47083 O 4681.34 1.74033 -0.0762491 0
M  V30 47084 C 4678.47 3.39896 -0.261503 0
M  V30 47085 H 4679.66 2.41479 -1.77842 0
M  V30 47086 H 4677.22 1.23592 -0.956801 0
M  V30 47087 H 4677.95 3.17093 0.679889 0
M  V30 47088 H 4677.74 3.79639 -0.980648 0
M  V30 47089 H 4679.23 4.17548 -0.0659155 0
M  V30 47090 N 4679.66 0.946029 1.26048 0
M  V30 47091 C 4680.89 0.612595 1.98147 0
M  V30 47092 C 4681.31 -0.806564 1.6993 0
M  V30 47093 O 4680.67 -1.54407 0.950162 0
M  V30 47094 C 4680.72 0.867104 3.5002 0
M  V30 47095 O 4679.82 -0.0583884 4.12359 0
M  V30 47096 H 4679.17 0.233811 0.621473 0
M  V30 47097 H 4681.7 1.27028 1.6039 0
M  V30 47098 H 4681.71 0.789932 4.0028 0
M  V30 47099 H 4680.38 1.90148 3.69887 0
M  V30 47100 H 4678.96 0.0702552 3.72834 0
M  V30 47101 N 4681.14 -1.40518 0.713605 0
M  V30 47102 C 4682.55 -1.83852 0.324872 0
M  V30 47103 C 4682.9 -1.59671 -1.14015 0
M  V30 47104 O 4682.03 -1.07655 -1.87721 0
M  V30 47105 C 4682.62 -3.33749 0.582863 0
M  V30 47106 C 4681.18 -3.75583 0.247859 0
M  V30 47107 C 4680.33 -2.6375 0.856214 0
M  V30 47108 H 4683.28 -1.29814 0.912906 0
M  V30 47109 H 4683.3 -3.80194 -0.152548 0
M  V30 47110 H 4682.81 -3.51316 1.6492 0
M  V30 47111 H 4680.92 -3.63611 -0.813496 0
M  V30 47112 H 4681.03 -4.73728 0.715473 0
M  V30 47113 H 4679.39 -2.53107 0.284409 0
M  V30 47114 H 4680.18 -2.84131 1.92678 0
M  V30 47115 N 4682.62 -0.459644 -1.50748 0
M  V30 47116 C 4683.9 0.160302 -1.94942 0
M  V30 47117 C 4684.28 1.58043 -1.39948 0
M  V30 47118 O 4683.63 2.20598 -0.595706 0
M  V30 47119 C 4683.84 0.11531 -3.48809 0
M  V30 47120 C 4685.18 0.309878 -4.23468 0
M  V30 47121 O 4686.21 0.192418 -3.5568 0
M  V30 47122 O 4685.07 0.54584 -5.43767 0
M  V30 47123 H 4682.16 0.117896 -0.818553 0
M  V30 47124 H 4684.71 -0.519226 -1.61562 0
M  V30 47125 H 4683.48 -0.876654 -3.81353 0
M  V30 47126 H 4683.1 0.836791 -3.88695 0
M  V30 47127 N 4684.1 1.56428 -0.191812 0
M  V30 47128 C 4685.35 1.97096 0.446937 0
M  V30 47129 C 4685.67 1.07972 1.62379 0
M  V30 47130 O 4684.94 0.150316 1.95322 0
M  V30 47131 H 4683.52 0.727838 0.168109 0
M  V30 47132 H 4686.18 1.9291 -0.277778 0
M  V30 47133 H 4685.28 3.0185 0.793265 0
M  V30 47134 N 4685.58 -0.0818102 1.57388 0
M  V30 47135 C 4686.51 -1.09877 2.06032 0
M  V30 47136 C 4687.49 -1.40976 0.951823 0
M  V30 47137 O 4688.67 -1.50777 1.22393 0
M  V30 47138 C 4685.8 -2.41502 2.49588 0
M  V30 47139 C 4684.76 -2.24779 3.64223 0
M  V30 47140 C 4684.08 -3.61698 3.938 0
M  V30 47141 C 4685.38 -1.67732 4.94635 0
M  V30 47142 H 4687.08 -0.694026 2.91245 0
M  V30 47143 H 4684.62 -0.332399 1.40111 0
M  V30 47144 H 4686.58 -3.12929 2.8223 0
M  V30 47145 H 4685.3 -2.83937 1.61391 0
M  V30 47146 H 4683.96 -1.55796 3.31848 0
M  V30 47147 H 4683.61 -4.01686 3.0275 0
M  V30 47148 H 4683.31 -3.51352 4.70984 0
M  V30 47149 H 4684.83 -4.34572 4.28929 0
M  V30 47150 H 4686.24 -2.29013 5.25572 0
M  V30 47151 H 4684.64 -1.68108 5.76073 0
M  V30 47152 H 4685.71 -0.637891 4.80686 0
M  V30 47153 N 4687.06 -1.53597 -0.352963 0
M  V30 47154 C 4688.3 -1.72098 -1.1028 0
M  V30 47155 C 4688.66 -0.469282 -1.86177 0
M  V30 47156 O 4689.86 -0.531176 -2.63499 0
M  V30 47157 C 4688.13 -2.94393 -2.02651 0
M  V30 47158 S 4689.69 -3.33661 -2.84984 0
M  V30 47159 H 4686.51 -0.605446 -0.372768 0
M  V30 47160 H 4689.11 -1.91723 -0.382413 0
M  V30 47161 H 4687.81 -3.83675 -1.45678 0
M  V30 47162 H 4687.35 -2.77206 -2.79142 0
M  V30 47163 H 4689.36 -2.86659 -4.0502 0
M  V30 47164 N 4688.53 0.613463 -1.4517 0
M  V30 47165 C 4689.47 1.7382 -1.49396 0
M  V30 47166 C 4690.48 1.58173 -0.38536 0
M  V30 47167 O 4691.67 1.66162 -0.652095 0
M  V30 47168 C 4688.77 3.11753 -1.32902 0
M  V30 47169 C 4687.94 3.53695 -2.5733 0
M  V30 47170 C 4687 4.7057 -2.35478 0
M  V30 47171 O 4686.03 4.77985 -3.09061 0
M  V30 47172 N 4687.23 5.63449 -1.39664 0
M  V30 47173 H 4689.99 1.7066 -2.46364 0
M  V30 47174 H 4687.55 0.79857 -1.40835 0
M  V30 47175 H 4689.55 3.87688 -1.16103 0
M  V30 47176 H 4688.12 3.09455 -0.442326 0
M  V30 47177 H 4687.34 2.67784 -2.89285 0
M  V30 47178 H 4688.62 3.78474 -3.40052 0
M  V30 47179 H 4688.02 5.60167 -0.789259 0
M  V30 47180 H 4686.58 6.3894 -1.28838 0
M  V30 47181 N 4690.01 1.32363 0.855449 0
M  V30 47182 C 4691.26 1.2306 1.61196 0
M  V30 47183 C 4691.59 -0.207336 1.9309 0
M  V30 47184 O 4690.87 -1.14426 1.5728 0
M  V30 47185 C 4691.15 2.08947 2.9328 0
M  V30 47186 C 4691 3.61114 2.68173 0
M  V30 47187 C 4692.32 1.95 3.94542 0
M  V30 47188 H 4689.44 0.448384 0.584911 0
M  V30 47189 H 4692.08 1.623 0.987859 0
M  V30 47190 H 4690.23 1.75611 3.46544 0
M  V30 47191 H 4691.9 4.0466 2.21468 0
M  V30 47192 H 4690.15 3.8382 2.02151 0
M  V30 47193 H 4690.82 4.16535 3.62219 0
M  V30 47194 H 4693.29 2.24202 3.50532 0
M  V30 47195 H 4692.17 2.57373 4.8482 0
M  V30 47196 H 4692.43 0.917415 4.32476 0
M  V30 47197 N 4691.49 -1.07162 1.1556 0
M  V30 47198 C 4692.71 -1.8405 0.956052 0
M  V30 47199 C 4693.14 -1.81587 -0.490675 0
M  V30 47200 O 4692.5 -1.21023 -1.34993 0
M  V30 47201 C 4692.55 -3.28952 1.47726 0
M  V30 47202 O 4691.65 -4.06793 0.677736 0
M  V30 47203 H 4690.99 -0.56983 0.340867 0
M  V30 47204 H 4693.52 -1.35173 1.53589 0
M  V30 47205 H 4693.53 -3.79783 1.49093 0
M  V30 47206 H 4692.21 -3.30059 2.53049 0
M  V30 47207 H 4690.78 -3.65608 0.73385 0
M  V30 47208 N 4692.97 -0.9527 -1.25544 0
M  V30 47209 C 4693.9 -0.489367 -2.28314 0
M  V30 47210 C 4694.88 0.463302 -1.63669 0
M  V30 47211 O 4696.06 0.362673 -1.90783 0
M  V30 47212 C 4693.19 0.235481 -3.46501 0
M  V30 47213 C 4692.15 -0.631742 -4.23312 0
M  V30 47214 C 4691.47 0.223735 -5.34232 0
M  V30 47215 C 4692.77 -1.90888 -4.86168 0
M  V30 47216 H 4694.47 -1.34831 -2.67322 0
M  V30 47217 H 4692.01 -0.649773 -1.28507 0
M  V30 47218 H 4693.97 0.570735 -4.17517 0
M  V30 47219 H 4692.69 1.12866 -3.06478 0
M  V30 47220 H 4691.35 -0.950053 -3.54076 0
M  V30 47221 H 4691 1.11661 -4.9045 0
M  V30 47222 H 4690.7 -0.353197 -5.86538 0
M  V30 47223 H 4692.22 0.554 -6.08082 0
M  V30 47224 H 4693.64 -1.64016 -5.49338 0
M  V30 47225 H 4692.03 -2.43131 -5.48641 0
M  V30 47226 H 4693.1 -2.61318 -4.08461 0
M  V30 47227 N 4694.45 1.40138 -0.721047 0
M  V30 47228 C 4695.38 2.29177 -0.0325474 0
M  V30 47229 C 4696.39 1.46108 0.718074 0
M  V30 47230 O 4697.58 1.69337 0.564549 0
M  V30 47231 C 4694.68 3.24476 0.978178 0
M  V30 47232 C 4693.85 4.36424 0.291962 0
M  V30 47233 C 4692.91 5.12127 1.20883 0
M  V30 47234 O 4691.94 5.64983 0.691567 0
M  V30 47235 N 4693.14 5.22001 2.5396 0
M  V30 47236 H 4695.9 2.88906 -0.797086 0
M  V30 47237 H 4693.47 1.51567 -0.569121 0
M  V30 47238 H 4695.46 3.71993 1.59385 0
M  V30 47239 H 4694.03 2.65877 1.64403 0
M  V30 47240 H 4693.25 3.90965 -0.503985 0
M  V30 47241 H 4694.54 5.08467 -0.18415 0
M  V30 47242 H 4693.93 4.8055 2.98476 0
M  V30 47243 H 4692.49 5.73006 3.10657 0
M  V30 47244 N 4695.92 0.467632 1.50502 0
M  V30 47245 C 4696.86 -0.364575 2.26282 0
M  V30 47246 C 4697.87 -0.960104 1.31476 0
M  V30 47247 O 4699.06 -0.849098 1.57011 0
M  V30 47248 C 4696.16 -1.52498 3.02651 0
M  V30 47249 C 4695.33 -1.04287 4.24786 0
M  V30 47250 C 4694.39 -2.07692 4.83478 0
M  V30 47251 O 4693.42 -1.65894 5.44489 0
M  V30 47252 N 4694.62 -3.40469 4.70171 0
M  V30 47253 H 4697.38 0.285054 2.98341 0
M  V30 47254 H 4694.94 0.298219 1.5913 0
M  V30 47255 H 4696.94 -2.2136 3.38795 0
M  V30 47256 H 4695.51 -2.07937 2.33411 0
M  V30 47257 H 4694.73 -0.180255 3.93788 0
M  V30 47258 H 4696.01 -0.698621 5.03981 0
M  V30 47259 H 4695.41 -3.7714 4.21642 0
M  V30 47260 H 4693.97 -4.05138 5.10594 0
M  V30 47261 N 4697.4 -1.56324 0.200105 0
M  V30 47262 C 4698.65 -1.9733 -0.436478 0
M  V30 47263 C 4698.97 -1.08832 -1.61804 0
M  V30 47264 O 4698.24 -0.160673 -1.9524 0
M  V30 47265 H 4696.82 -0.728719 -0.164247 0
M  V30 47266 H 4699.48 -1.9276 0.288005 0
M  V30 47267 H 4698.58 -3.02267 -0.777246 0
M  V30 47268 N 4698.88 0.0734624 -1.57429 0
M  V30 47269 C 4700.3 0.42821 -1.53748 0
M  V30 47270 C 4700.5 1.79269 -0.920043 0
M  V30 47271 O 4699.55 2.47049 -0.521832 0
M  V30 47272 C 4700.86 0.370809 -2.98405 0
M  V30 47273 C 4702.41 0.451116 -3.09732 0
M  V30 47274 C 4702.89 0.423639 -4.56037 0
M  V30 47275 N 4704.38 0.483763 -4.60667 0
M  V30 47276 C 4705.11 0.48469 -5.71348 0
M  V30 47277 N 4704.61 0.440532 -6.91398 0
M  V30 47278 N 4706.4 0.531122 -5.59585 0
M  V30 47279 H 4698.55 -0.820017 -1.95932 0
M  V30 47280 H 4700.82 -0.307525 -0.896734 0
M  V30 47281 H 4700.52 -0.565078 -3.47131 0
M  V30 47282 H 4700.4 1.18164 -3.58214 0
M  V30 47283 H 4702.78 1.37743 -2.60981 0
M  V30 47284 H 4702.86 -0.388256 -2.52836 0
M  V30 47285 H 4702.51 -0.498815 -5.05445 0
M  V30 47286 H 4702.44 1.28052 -5.10794 0
M  V30 47287 H 4704.93 0.522207 -3.74275 0
M  V30 47288 H 4705.24 0.445119 -7.71517 0
M  V30 47289 H 4703.59 0.407246 -6.93806 0
M  V30 47290 H 4706.78 0.563301 -4.64698 0
M  V30 47291 H 4706.95 0.528376 -6.45842 0
M  V30 47292 N 4700.36 1.53782 0.344812 0
M  V30 47293 C 4701.6 1.7122 1.08681 0
M  V30 47294 C 4701.94 0.473347 1.88343 0
M  V30 47295 O 4701.21 -0.529614 1.87151 0
M  V30 47296 C 4701.49 2.97493 2.02904 0
M  V30 47297 C 4701.35 4.31583 1.26712 0
M  V30 47298 C 4702.67 3.19432 3.02739 0
M  V30 47299 H 4699.79 0.623024 0.393713 0
M  V30 47300 H 4702.43 1.86451 0.365498 0
M  V30 47301 H 4700.58 2.84639 2.64411 0
M  V30 47302 H 4702.25 4.56286 0.67829 0
M  V30 47303 H 4700.49 4.30051 0.569122 0
M  V30 47304 H 4701.16 5.16113 1.95784 0
M  V30 47305 H 4703.64 3.31609 2.51345 0
M  V30 47306 H 4702.52 4.09182 3.6587 0
M  V30 47307 H 4702.78 2.35669 3.74049 0
M  V30 47308 N 4701.84 -0.605756 1.45494 0
M  V30 47309 C 4703.06 -1.3962 1.53366 0
M  V30 47310 C 4703.49 -1.87351 0.167711 0
M  V30 47311 O 4702.84 -1.60246 -0.847995 0
M  V30 47312 C 4702.89 -2.5755 2.52389 0
M  V30 47313 O 4702 -3.58241 2.04297 0
M  V30 47314 H 4701.34 -0.416753 0.516927 0
M  V30 47315 H 4703.87 -0.737036 1.90864 0
M  V30 47316 H 4703.88 -3.0477 2.71255 0
M  V30 47317 H 4702.55 -2.22158 3.51594 0
M  V30 47318 H 4701.13 -3.17657 1.95316 0
M  V30 47319 N 4703.31 -1.32814 -0.848417 0
M  V30 47320 C 4704.24 -1.24888 -1.97295 0
M  V30 47321 C 4705.23 -0.131416 -1.69592 0
M  V30 47322 O 4706.41 -0.31962 -1.91552 0
M  V30 47323 C 4703.54 -0.977577 -3.33258 0
M  V30 47324 C 4702.49 -2.05695 -3.75331 0
M  V30 47325 C 4701.82 -1.63795 -5.08995 0
M  V30 47326 C 4703.12 -3.47268 -3.90131 0
M  V30 47327 H 4704.81 -2.18974 -2.04184 0
M  V30 47328 H 4702.36 -1.05416 -0.980992 0
M  V30 47329 H 4704.31 -0.908658 -4.11487 0
M  V30 47330 H 4703.04 -0.00109483 -3.266 0
M  V30 47331 H 4701.7 -2.11613 -2.99358 0
M  V30 47332 H 4701.34 -0.648744 -4.98799 0
M  V30 47333 H 4701.04 -2.36019 -5.38116 0
M  V30 47334 H 4702.57 -1.58351 -5.8971 0
M  V30 47335 H 4703.98 -3.43904 -4.58697 0
M  V30 47336 H 4702.38 -4.17895 -4.30678 0
M  V30 47337 H 4703.45 -3.86472 -2.9286 0
M  V30 47338 N 4704.79 1.06547 -1.16127 0
M  V30 47339 C 4705.72 2.13905 -0.823246 0
M  V30 47340 C 4706.74 1.61927 0.168373 0
M  V30 47341 O 4707.93 1.78412 -0.0560247 0
M  V30 47342 C 4705.03 3.38282 -0.204543 0
M  V30 47343 C 4704.2 4.19584 -1.23562 0
M  V30 47344 C 4703.26 5.22328 -0.637195 0
M  V30 47345 O 4702.28 5.5403 -1.30536 0
M  V30 47346 N 4703.49 5.77623 0.577271 0
M  V30 47347 H 4706.25 2.43502 -1.74719 0
M  V30 47348 H 4703.81 1.22526 -1.05825 0
M  V30 47349 H 4705.8 4.04161 0.208767 0
M  V30 47350 H 4704.37 3.06331 0.622904 0
M  V30 47351 H 4703.59 3.494 -1.8252 0
M  V30 47352 H 4704.88 4.70711 -1.93153 0
M  V30 47353 H 4704.28 5.54129 1.13833 0
M  V30 47354 H 4702.84 6.4509 0.932826 0
M  V30 47355 N 4706.27 0.959345 1.25037 0
M  V30 47356 C 4707.2 0.501469 2.28052 0
M  V30 47357 C 4708.18 -0.454615 1.63912 0
M  V30 47358 O 4709.37 -0.35255 1.90973 0
M  V30 47359 C 4706.5 -0.217102 3.46621 0
M  V30 47360 C 4705.45 0.654183 4.22971 0
M  V30 47361 C 4704.78 -0.195401 5.34343 0
M  V30 47362 C 4706.08 1.93464 4.85148 0
M  V30 47363 H 4707.77 1.36247 2.66603 0
M  V30 47364 H 4705.32 0.656579 1.2816 0
M  V30 47365 H 4707.27 -0.548585 4.17814 0
M  V30 47366 H 4705.99 -1.11239 3.07072 0
M  V30 47367 H 4704.65 0.968817 3.53567 0
M  V30 47368 H 4704.3 -1.09059 4.91035 0
M  V30 47369 H 4704 0.384297 5.86342 0
M  V30 47370 H 4705.52 -0.521744 6.08367 0
M  V30 47371 H 4706.94 1.66927 5.4846 0
M  V30 47372 H 4705.34 2.46038 5.47344 0
M  V30 47373 H 4706.41 2.63481 4.0707 0
M  V30 47374 N 4707.75 -1.39754 0.728469 0
M  V30 47375 C 4708.68 -2.33289 0.0992174 0
M  V30 47376 C 4709.66 -1.53571 -0.731435 0
M  V30 47377 O 4710.84 -1.8199 -0.677743 0
M  V30 47378 C 4707.97 -3.37633 -0.813715 0
M  V30 47379 C 4706.93 -4.2791 -0.0877159 0
M  V30 47380 C 4706.25 -5.22898 -1.11723 0
M  V30 47381 C 4707.55 -5.1131 1.06581 0
M  V30 47382 H 4709.25 -2.8616 0.880508 0
M  V30 47383 H 4706.79 -1.3759 0.424867 0
M  V30 47384 H 4708.75 -4.02015 -1.26341 0
M  V30 47385 H 4707.47 -2.83187 -1.62705 0
M  V30 47386 H 4706.13 -3.64999 0.342287 0
M  V30 47387 H 4705.78 -4.64751 -1.92395 0
M  V30 47388 H 4705.48 -5.84145 -0.636271 0
M  V30 47389 H 4707 -5.90157 -1.56676 0
M  V30 47390 H 4708.42 -5.69073 0.694871 0
M  V30 47391 H 4706.81 -5.81666 1.47597 0
M  V30 47392 H 4707.88 -4.46527 1.89054 0
M  V30 47393 N 4709.23 -0.475607 -1.50252 0
M  V30 47394 C 4710.64 -0.130026 -1.59069 0
M  V30 47395 C 4710.84 1.3638 -1.48333 0
M  V30 47396 O 4709.9 2.1375 -1.34415 0
M  V30 47397 C 4711.21 -0.684242 -2.92812 0
M  V30 47398 C 4712.76 -0.648072 -3.06217 0
M  V30 47399 C 4713.23 -1.17991 -4.42541 0
M  V30 47400 N 4714.73 -1.13951 -4.48965 0
M  V30 47401 C 4715.46 -1.52148 -5.52846 0
M  V30 47402 N 4714.96 -1.97816 -6.63958 0
M  V30 47403 N 4716.75 -1.43723 -5.43415 0
M  V30 47404 H 4708.9 -1.44712 -1.55474 0
M  V30 47405 H 4711.16 -0.598717 -0.735012 0
M  V30 47406 H 4710.87 -1.7309 -3.06158 0
M  V30 47407 H 4710.74 -0.130336 -3.76975 0
M  V30 47408 H 4713.13 0.389687 -2.92516 0
M  V30 47409 H 4713.21 -1.23883 -2.238 0
M  V30 47410 H 4712.86 -2.21632 -4.56992 0
M  V30 47411 H 4712.79 -0.565322 -5.23557 0
M  V30 47412 H 4715.28 -0.804617 -3.69235 0
M  V30 47413 H 4715.59 -2.25098 -7.39291 0
M  V30 47414 H 4713.93 -2.01772 -6.65066 0
M  V30 47415 H 4717.13 -1.07883 -4.55498 0
M  V30 47416 H 4717.3 -1.73816 -6.24253 0
M  V30 47417 N 4710.7 1.56216 -0.208392 0
M  V30 47418 C 4711.93 2.02338 0.432079 0
M  V30 47419 C 4712.35 1.08839 1.54271 0
M  V30 47420 O 4711.7 0.0956103 1.82249 0
M  V30 47421 C 4711.76 3.48075 0.976016 0
M  V30 47422 O 4711.48 4.38007 -0.090316 0
M  V30 47423 C 4712.98 4.09779 1.69104 0
M  V30 47424 H 4710.2 0.662388 0.107156 0
M  V30 47425 H 4712.74 2.01965 -0.320994 0
M  V30 47426 H 4710.9 3.49105 1.67941 0
M  V30 47427 H 4711.31 5.23544 0.316517 0
M  V30 47428 H 4712.78 5.13563 2.02379 0
M  V30 47429 H 4713.26 3.54008 2.59952 0
M  V30 47430 H 4713.87 4.1256 1.03317 0
M  V30 47431 N 4712.18 -0.0651125 1.57465 0
M  V30 47432 C 4713.09 -1.0944 2.07509 0
M  V30 47433 C 4714.11 -1.41971 1.006 0
M  V30 47434 O 4715.28 -1.52014 1.32113 0
M  V30 47435 C 4712.35 -2.3868 2.51461 0
M  V30 47436 C 4711.41 -2.1306 3.72698 0
M  V30 47437 C 4710.64 -3.36137 4.14545 0
M  V30 47438 O 4710.87 -4.45504 3.56205 0
M  V30 47439 O 4709.8 -3.23956 5.07283 0
M  V30 47440 H 4713.63 -0.699246 2.95541 0
M  V30 47441 H 4711.21 -0.2797 1.46758 0
M  V30 47442 H 4713.09 -3.14727 2.80223 0
M  V30 47443 H 4711.77 -2.77562 1.66556 0
M  V30 47444 H 4710.68 -1.34697 3.4901 0
M  V30 47445 H 4712.01 -1.79054 4.58476 0
M  V30 47446 N 4713.66 -1.53962 -0.336652 0
M  V30 47447 C 4714.91 -1.71794 -1.07771 0
M  V30 47448 C 4715.24 -0.483329 -1.88089 0
M  V30 47449 O 4714.51 0.519681 -1.87429 0
M  V30 47450 C 4714.8 -2.98565 -2.01323 0
M  V30 47451 C 4714.65 -4.32249 -1.24422 0
M  V30 47452 C 4715.97 -3.21033 -3.01041 0
M  V30 47453 H 4713.09 -0.625103 -0.390404 0
M  V30 47454 H 4715.73 -1.86643 -0.355604 0
M  V30 47455 H 4713.88 -2.86037 -2.62898 0
M  V30 47456 H 4715.55 -4.56639 -0.654082 0
M  V30 47457 H 4713.8 -4.30346 -0.546307 0
M  V30 47458 H 4714.47 -5.17144 -1.93045 0
M  V30 47459 H 4716.94 -3.32938 -2.49583 0
M  V30 47460 H 4715.82 -4.11117 -3.63695 0
M  V30 47461 H 4716.08 -2.3765 -3.72794 0
M  V30 47462 N 4715.14 0.598031 -1.45813 0
M  V30 47463 C 4716.09 1.70814 -1.55213 0
M  V30 47464 C 4717.06 1.61277 -0.397376 0
M  V30 47465 O 4718.24 1.80715 -0.612101 0
M  V30 47466 C 4715.38 3.09138 -1.53386 0
M  V30 47467 C 4714.49 3.29413 -2.79484 0
M  V30 47468 C 4713.63 4.57898 -2.69264 0
M  V30 47469 C 4712.67 4.71463 -3.90371 0
M  V30 47470 N 4711.8 5.91257 -3.78629 0
M  V30 47471 H 4716.64 1.62116 -2.50045 0
M  V30 47472 H 4714.18 0.790346 -1.24064 0
M  V30 47473 H 4716.14 3.8918 -1.50314 0
M  V30 47474 H 4714.77 3.16771 -0.620988 0
M  V30 47475 H 4713.82 2.4308 -2.92602 0
M  V30 47476 H 4715.13 3.35307 -3.69284 0
M  V30 47477 H 4714.29 5.46148 -2.64212 0
M  V30 47478 H 4713.03 4.54416 -1.77079 0
M  V30 47479 H 4712.03 3.81634 -3.95772 0
M  V30 47480 H 4713.26 4.76734 -4.83634 0
M  V30 47481 H 4711.2 5.88802 -2.89219 0
M  V30 47482 H 4711.12 5.98353 -4.62071 0
M  V30 47483 H 4712.39 6.81979 -3.77525 0
M  V30 47484 N 4716.62 1.33262 0.841362 0
M  V30 47485 C 4717.85 1.27611 1.62859 0
M  V30 47486 C 4718.26 -0.153441 1.88175 0
M  V30 47487 O 4717.62 -1.0948 1.46015 0
M  V30 47488 C 4717.67 2.04607 2.98024 0
M  V30 47489 O 4717.39 3.41984 2.73821 0
M  V30 47490 C 4718.89 2.06136 3.92457 0
M  V30 47491 H 4716.11 0.439736 0.506827 0
M  V30 47492 H 4718.65 1.75595 1.04818 0
M  V30 47493 H 4716.81 1.60311 3.52674 0
M  V30 47494 H 4717.22 3.81562 3.59876 0
M  V30 47495 H 4718.7 2.64468 4.84521 0
M  V30 47496 H 4719.17 1.05098 4.2644 0
M  V30 47497 H 4719.78 2.50439 3.43745 0
M  V30 47498 N 4718.1 -1.0593 1.1669 0
M  V30 47499 C 4719.03 -2.13465 0.834578 0
M  V30 47500 C 4720.04 -1.62014 -0.159783 0
M  V30 47501 O 4721.23 -1.7838 0.0654855 0
M  V30 47502 C 4718.33 -3.38169 0.22248 0
M  V30 47503 C 4717.5 -4.18923 1.25786 0
M  V30 47504 C 4716.56 -5.21982 0.664886 0
M  V30 47505 O 4715.59 -5.5333 1.33472 0
M  V30 47506 N 4716.79 -5.77921 -0.546631 0
M  V30 47507 H 4719.55 -2.42572 1.76008 0
M  V30 47508 H 4717.12 -1.21963 1.06474 0
M  V30 47509 H 4719.11 -4.04266 -0.18733 0
M  V30 47510 H 4717.68 -3.06657 -0.60665 0
M  V30 47511 H 4716.9 -3.48427 1.8437 0
M  V30 47512 H 4718.19 -4.6968 1.95647 0
M  V30 47513 H 4717.58 -5.54725 -1.10893 0
M  V30 47514 H 4716.14 -6.45576 -0.898602 0
M  V30 47515 N 4719.57 -0.965962 -1.24527 0
M  V30 47516 C 4720.54 -0.499626 -2.23688 0
M  V30 47517 C 4721.54 0.402885 -1.55671 0
M  V30 47518 O 4722.73 0.198589 -1.73064 0
M  V30 47519 C 4719.86 0.276673 -3.39775 0
M  V30 47520 H 4721.05 -1.37623 -2.66458 0
M  V30 47521 H 4718.6 -0.750372 -1.3711 0
M  V30 47522 H 4719.34 1.17045 -3.02442 0
M  V30 47523 H 4719.12 -0.370964 -3.90341 0
M  V30 47524 H 4720.61 0.59203 -4.13382 0
M  V30 47525 N 4721.05 1.39365 -0.73587 0
M  V30 47526 C 4722.3 2.001 -0.283632 0
M  V30 47527 C 4722.62 1.58684 1.13332 0
M  V30 47528 O 4721.89 0.835485 1.7719 0
M  V30 47529 H 4720.47 0.74002 -0.101877 0
M  V30 47530 H 4723.13 1.70401 -0.946022 0
M  V30 47531 H 4722.23 3.10321 -0.332713 0
M  V30 47532 N 4722.53 0.483569 1.49998 0
M  V30 47533 C 4723.78 -0.0670885 2.02389 0
M  V30 47534 C 4724.1 -1.38592 1.36464 0
M  V30 47535 O 4723.36 -1.89633 0.483525 0
M  V30 47536 C 4723.66 -0.2861 3.56253 0
M  V30 47537 C 4723.32 0.952571 4.40723 0
M  V30 47538 C 4721.99 1.29215 4.63527 0
M  V30 47539 C 4724.34 1.77672 4.89982 0
M  V30 47540 C 4721.67 2.45572 5.32833 0
M  V30 47541 C 4724.02 2.93167 5.60568 0
M  V30 47542 C 4722.68 3.27525 5.81621 0
M  V30 47543 H 4721.95 -0.0245494 0.740593 0
M  V30 47544 H 4724.6 0.640187 1.80482 0
M  V30 47545 H 4722.9 -1.07574 3.76743 0
M  V30 47546 H 4724.6 -0.726335 3.94367 0
M  V30 47547 H 4721.19 0.67803 4.23203 0
M  V30 47548 H 4725.38 1.52754 4.72208 0
M  V30 47549 H 4720.63 2.7245 5.4734 0
M  V30 47550 H 4724.81 3.57365 5.97715 0
M  V30 47551 H 4722.43 4.17792 6.35101 0
M  V30 47552 N 4724.01 -1.56103 0.216674 0
M  V30 47553 C 4724.97 -2.18822 -0.681885 0
M  V30 47554 C 4725.97 -1.1487 -1.12524 0
M  V30 47555 O 4727.16 -1.40132 -1.03483 0
M  V30 47556 C 4724.29 -2.80763 -1.93352 0
M  V30 47557 H 4725.49 -2.99595 -0.135149 0
M  V30 47558 H 4723.04 -1.56265 -0.0329454 0
M  V30 47559 H 4723.77 -2.03846 -2.52225 0
M  V30 47560 H 4723.56 -3.56881 -1.62414 0
M  V30 47561 H 4725.05 -3.28853 -2.57381 0
M  V30 47562 N 4725.49 0.0567608 -1.57498 0
M  V30 47563 C 4726.76 0.786891 -1.79074 0
M  V30 47564 C 4727.14 1.95025 -0.807988 0
M  V30 47565 O 4726.49 2.27968 0.155778 0
M  V30 47566 C 4726.7 1.24583 -3.26006 0
M  V30 47567 C 4728.05 1.6731 -3.90247 0
M  V30 47568 O 4729.07 1.34112 -3.29989 0
M  V30 47569 O 4727.93 2.28825 -4.96288 0
M  V30 47570 H 4725.03 0.378236 -0.735436 0
M  V30 47571 H 4727.57 0.0356743 -1.69662 0
M  V30 47572 H 4726.34 0.414093 -3.89103 0
M  V30 47573 H 4725.97 2.05791 -3.402 0
M  V30 47574 N 4726.96 1.54139 0.328482 0
M  V30 47575 C 4728.21 1.71768 1.0649 0
M  V30 47576 C 4728.53 0.491556 1.88703 0
M  V30 47577 O 4727.8 -0.494473 1.89557 0
M  V30 47578 H 4726.38 0.633309 0.396142 0
M  V30 47579 H 4729.04 1.91431 0.366109 0
M  V30 47580 H 4728.14 2.59516 1.73372 0
M  V30 47581 N 4728.44 -0.59029 1.46128 0
M  V30 47582 C 4729.4 -1.68189 1.55709 0
M  V30 47583 C 4730.4 -1.54807 0.434922 0
M  V30 47584 O 4731.59 -1.59561 0.698984 0
M  V30 47585 C 4728.73 -3.0757 1.47015 0
M  V30 47586 H 4729.92 -1.61055 2.52985 0
M  V30 47587 H 4727.47 -0.807493 1.33825 0
M  V30 47588 H 4728.21 -3.20266 0.509898 0
M  V30 47589 H 4727.99 -3.18692 2.28425 0
M  V30 47590 H 4729.48 -3.87049 1.56789 0
M  V30 47591 N 4729.92 -1.33707 -0.834283 0
M  V30 47592 C 4731.33 -1.22818 -1.40615 0
M  V30 47593 C 4731.68 0.151039 -1.95618 0
M  V30 47594 O 4730.81 1.05086 -1.89172 0
M  V30 47595 C 4731.4 -2.22364 -2.55616 0
M  V30 47596 C 4729.96 -2.15301 -3.08744 0
M  V30 47597 C 4729.11 -2.09595 -1.81563 0
M  V30 47598 H 4732.06 -1.45238 -0.639651 0
M  V30 47599 H 4732.08 -1.83403 -3.33382 0
M  V30 47600 H 4731.59 -3.22735 -2.15554 0
M  V30 47601 H 4729.69 -1.18247 -3.53339 0
M  V30 47602 H 4729.81 -3.06051 -3.68605 0
M  V30 47603 H 4728.17 -1.55141 -2.01998 0
M  V30 47604 H 4728.95 -3.11782 -1.4369 0
M  V30 47605 N 4731.4 1.0531 -1.1725 0
M  V30 47606 C 4732.35 2.1131 -0.856271 0
M  V30 47607 C 4733.33 1.60014 0.168638 0
M  V30 47608 O 4734.52 1.76968 -0.0336246 0
M  V30 47609 C 4731.65 3.413 -0.370037 0
M  V30 47610 C 4730.74 3.99396 -1.4263 0
M  V30 47611 N 4731.13 4.31472 -2.63943 0
M  V30 47612 C 4729.43 4.27121 -1.28388 0
M  V30 47613 C 4730.13 4.77787 -3.31804 0
M  V30 47614 N 4729.11 4.77834 -2.59182 0
M  V30 47615 H 4732.91 2.33969 -1.77864 0
M  V30 47616 H 4730.42 1.22946 -1.06104 0
M  V30 47617 H 4732.42 4.16712 -0.125043 0
M  V30 47618 H 4731.08 3.20074 0.546141 0
M  V30 47619 H 4732.09 4.21508 -3.00917 0
M  V30 47620 H 4728.77 4.15287 -0.429257 0
M  V30 47621 H 4730.16 5.11728 -4.35413 0
M  V30 47622 N 4732.88 0.972553 1.24013 0
M  V30 47623 C 4734.11 0.653922 1.95978 0
M  V30 47624 C 4734.51 -0.78174 1.72295 0
M  V30 47625 O 4733.86 -1.53673 1.00649 0
M  V30 47626 C 4733.92 0.854731 3.49191 0
M  V30 47627 C 4733.58 2.27096 3.96581 0
M  V30 47628 C 4734.58 3.24906 4.05872 0
M  V30 47629 C 4732.27 2.59995 4.29776 0
M  V30 47630 C 4734.26 4.537 4.477 0
M  V30 47631 C 4731.95 3.89014 4.71287 0
M  V30 47632 C 4732.94 4.85678 4.80215 0
M  V30 47633 O 4732.63 6.12394 5.20796 0
M  V30 47634 H 4732.36 0.242595 0.630971 0
M  V30 47635 H 4734.92 1.30436 1.58668 0
M  V30 47636 H 4733.15 0.147121 3.8642 0
M  V30 47637 H 4734.84 0.534452 4.02366 0
M  V30 47638 H 4735.6 3.00819 3.80438 0
M  V30 47639 H 4731.48 1.85472 4.22044 0
M  V30 47640 H 4735.03 5.29151 4.54583 0
M  V30 47641 H 4730.92 4.129 4.96169 0
M  V30 47642 H 4731.69 6.16031 5.38932 0
M  V30 47643 N 4734.35 -1.38973 0.74325 0
M  V30 47644 C 4735.6 -2.00639 0.295259 0
M  V30 47645 C 4735.93 -1.58854 -1.1171 0
M  V30 47646 O 4735.21 -0.821243 -1.76312 0
M  V30 47647 C 4735.49 -3.57799 0.406444 0
M  V30 47648 C 4735.34 -4.09579 1.85917 0
M  V30 47649 C 4736.66 -4.39616 -0.206284 0
M  V30 47650 H 4733.78 -0.728931 0.108759 0
M  V30 47651 H 4736.42 -1.65064 0.940955 0
M  V30 47652 H 4734.57 -3.88236 -0.143282 0
M  V30 47653 H 4736.25 -3.89828 2.46641 0
M  V30 47654 H 4734.49 -3.62831 2.37773 0
M  V30 47655 H 4735.16 -5.18702 1.88818 0
M  V30 47656 H 4737.64 -4.15272 0.262429 0
M  V30 47657 H 4736.51 -5.48812 -0.0981889 0
M  V30 47658 H 4736.77 -4.22759 -1.29335 0
M  V30 47659 N 4735.83 -0.491517 -1.49739 0
M  V30 47660 C 4736.8 0.280826 -2.27473 0
M  V30 47661 C 4737.8 0.902407 -1.33091 0
M  V30 47662 O 4738.99 0.76841 -1.56336 0
M  V30 47663 C 4736.12 1.40198 -3.10737 0
M  V30 47664 H 4737.31 -0.401161 -2.97205 0
M  V30 47665 H 4734.86 -0.246186 -1.54349 0
M  V30 47666 H 4735.6 2.1184 -2.45549 0
M  V30 47667 H 4735.38 0.961836 -3.8012 0
M  V30 47668 H 4736.87 1.94627 -3.69473 0
M  V30 47669 N 4737.31 1.55986 -0.224949 0
M  V30 47670 C 4738.56 1.98392 0.405831 0
M  V30 47671 C 4738.89 1.11266 1.59531 0
M  V30 47672 O 4738.14 0.158382 1.95058 0
M  V30 47673 C 4738.44 3.46397 0.879985 0
M  V30 47674 C 4738.11 4.50459 -0.199338 0
M  V30 47675 C 4736.77 4.78639 -0.495829 0
M  V30 47676 C 4739.12 5.12852 -0.92912 0
M  V30 47677 C 4736.45 5.66492 -1.52656 0
M  V30 47678 C 4738.8 6.01821 -1.94921 0
M  V30 47679 C 4737.46 6.28343 -2.25258 0
M  V30 47680 H 4736.73 0.725967 0.148504 0
M  V30 47681 H 4739.38 1.88667 -0.32818 0
M  V30 47682 H 4737.69 3.53343 1.69281 0
M  V30 47683 H 4739.38 3.76582 1.37795 0
M  V30 47684 H 4735.97 4.2858 0.0419019 0
M  V30 47685 H 4740.16 4.91147 -0.713302 0
M  V30 47686 H 4735.41 5.85304 -1.76719 0
M  V30 47687 H 4739.59 6.49216 -2.51974 0
M  V30 47688 H 4737.21 6.96215 -3.05269 0
M  V30 47689 N 4738.79 -0.0484076 1.57526 0
M  V30 47690 C 4740.02 -0.754258 1.9234 0
M  V30 47691 C 4740.43 -1.70441 0.82138 0
M  V30 47692 O 4739.77 -1.82467 -0.212476 0
M  V30 47693 C 4739.83 -1.58219 3.22811 0
M  V30 47694 C 4739.5 -0.798915 4.49963 0
M  V30 47695 C 4740.49 -0.107717 5.19788 0
M  V30 47696 C 4738.18 -0.759171 4.9653 0
M  V30 47697 C 4740.17 0.612739 6.34448 0
M  V30 47698 C 4737.86 -0.0349565 6.1109 0
M  V30 47699 C 4738.86 0.649776 6.79902 0
M  V30 47700 O 4738.54 1.36227 7.92274 0
M  V30 47701 H 4738.28 -0.218234 0.639804 0
M  V30 47702 H 4740.83 -0.0158573 2.05394 0
M  V30 47703 H 4739.06 -2.36395 3.0603 0
M  V30 47704 H 4740.75 -2.16886 3.43096 0
M  V30 47705 H 4741.52 -0.129578 4.84827 0
M  V30 47706 H 4737.39 -1.28162 4.42827 0
M  V30 47707 H 4740.94 1.14775 6.88093 0
M  V30 47708 H 4736.84 -0.0111044 6.45499 0
M  V30 47709 H 4737.6 1.27395 8.08525 0
M  V30 47710 N 4740.27 -1.54311 -0.320303 0
M  V30 47711 C 4741.49 -1.76958 -1.08169 0
M  V30 47712 C 4741.92 -0.518256 -1.8082 0
M  V30 47713 O 4741.27 0.53035 -1.73369 0
M  V30 47714 C 4741.32 -2.96458 -2.05292 0
M  V30 47715 O 4740.43 -2.68232 -3.1325 0
M  V30 47716 H 4739.77 -0.586286 -0.311713 0
M  V30 47717 H 4742.3 -2.01343 -0.363605 0
M  V30 47718 H 4742.31 -3.23895 -2.48104 0
M  V30 47719 H 4740.98 -3.87201 -1.51816 0
M  V30 47720 H 4739.56 -2.51754 -2.7509 0
M  V30 47721 N 4741.74 0.582532 -1.46439 0
M  V30 47722 C 4742.69 1.71267 -1.57386 0
M  V30 47723 C 4743.69 1.63523 -0.442348 0
M  V30 47724 O 4744.89 1.69014 -0.619226 0
M  V30 47725 H 4741.27 0.566255 -0.494832 0
M  V30 47726 H 4743.24 1.59165 -2.52407 0
M  V30 47727 C 4741.99 3.09653 -1.58147 0
M  V30 47728 H 4741.31 3.16282 -2.44552 0
M  V30 47729 H 4742.75 3.88488 -1.69861 0
M  V30 47730 C 4741.21 3.35469 -0.310144 0
M  V30 47731 O 4741.74 3.97201 0.599543 0
M  V30 47732 N 4739.95 2.89925 -0.198003 0
M  V30 47733 H 4739.49 2.39869 -0.939175 0
M  V30 47734 H 4739.45 3.07571 0.651742 0
M  V30 47735 N 4743.22 1.34147 0.82718 0
M  V30 47736 C 4744.19 1.2527 1.91937 0
M  V30 47737 C 4745.19 0.168922 1.5991 0
M  V30 47738 O 4746.38 0.421257 1.6903 0
M  V30 47739 C 4743.51 0.933067 3.27882 0
M  V30 47740 H 4744.7 2.22364 2.01232 0
M  V30 47741 H 4742.25 1.18374 1.02065 0
M  V30 47742 H 4742.99 -0.0348777 3.24281 0
M  V30 47743 H 4742.77 1.71695 3.5251 0
M  V30 47744 H 4744.26 0.896018 4.07874 0
M  V30 47745 N 4744.7 -1.04686 1.17807 0
M  V30 47746 C 4745.93 -1.81443 0.994293 0
M  V30 47747 C 4746.34 -1.83176 -0.457394 0
M  V30 47748 O 4745.7 -1.26269 -1.31766 0
M  V30 47749 C 4745.75 -3.27329 1.53421 0
M  V30 47750 O 4745.47 -3.25788 2.92906 0
M  V30 47751 C 4746.97 -4.20754 1.39574 0
M  V30 47752 H 4744.19 -0.571587 0.351467 0
M  V30 47753 H 4746.74 -1.31976 1.56213 0
M  V30 47754 H 4744.89 -3.74049 1.00828 0
M  V30 47755 H 4745.31 -4.17133 3.17963 0
M  V30 47756 H 4746.78 -5.21078 1.82159 0
M  V30 47757 H 4747.26 -4.37854 0.343548 0
M  V30 47758 H 4747.86 -3.79894 1.91209 0
M  V30 47759 N 4746.18 -0.979116 -1.23495 0
M  V30 47760 C 4747.43 -0.646008 -1.91497 0
M  V30 47761 C 4747.75 0.822886 -1.76787 0
M  V30 47762 O 4747.02 1.5885 -1.14645 0
M  V30 47763 H 4745.6 -0.235944 -0.708759 0
M  V30 47764 H 4748.26 -1.24265 -1.50147 0
M  V30 47765 H 4747.36 -0.896516 -2.98946 0
M  V30 47766 N 4747.66 1.38577 -0.75061 0
M  V30 47767 C 4748.9 2.0048 -0.305896 0
M  V30 47768 C 4749.24 1.59444 1.10866 0
M  V30 47769 O 4748.51 0.830582 1.75874 0
M  V30 47770 C 4748.79 3.57578 -0.425413 0
M  V30 47771 C 4748.65 4.08587 -1.88086 0
M  V30 47772 C 4749.97 4.3972 0.182967 0
M  V30 47773 H 4747.09 0.728344 -0.112623 0
M  V30 47774 H 4749.73 1.64562 -0.949696 0
M  V30 47775 H 4747.88 3.88306 0.122691 0
M  V30 47776 H 4749.55 3.88515 -2.48705 0
M  V30 47777 H 4747.79 3.61565 -2.39694 0
M  V30 47778 H 4748.46 5.17693 -1.91567 0
M  V30 47779 H 4750.94 4.15127 -0.284449 0
M  V30 47780 H 4749.82 5.48857 0.0690827 0
M  V30 47781 H 4750.08 4.23439 1.27091 0
M  V30 47782 N 4749.14 0.499451 1.49477 0
M  V30 47783 C 4750.38 -0.0376872 2.03365 0
M  V30 47784 C 4750.74 -1.34835 1.37249 0
M  V30 47785 O 4750.03 -1.84998 0.498612 0
M  V30 47786 C 4750.22 -0.248299 3.56536 0
M  V30 47787 C 4750.05 1.0404 4.37499 0
M  V30 47788 C 4748.82 1.59176 4.79574 0
M  V30 47789 C 4751.02 1.94327 4.76174 0
M  V30 47790 N 4749 2.82653 5.44959 0
M  V30 47791 C 4750.37 3.02383 5.41262 0
M  V30 47792 C 4752.43 1.95024 4.58116 0
M  V30 47793 C 4751.13 4.11161 5.90202 0
M  V30 47794 C 4753.16 3.02776 5.08016 0
M  V30 47795 C 4752.52 4.09551 5.73103 0
M  V30 47796 H 4748.62 0.0269505 0.781535 0
M  V30 47797 H 4751.2 0.673965 1.82663 0
M  V30 47798 H 4749.37 -0.929007 3.77126 0
M  V30 47799 H 4751.11 -0.782306 3.97067 0
M  V30 47800 H 4747.86 1.13712 4.59746 0
M  V30 47801 H 4748.28 3.45436 5.82239 0
M  V30 47802 H 4752.93 1.1378 4.07203 0
M  V30 47803 H 4750.64 4.93203 6.40138 0
M  V30 47804 H 4754.23 3.04333 4.95856 0
M  V30 47805 H 4753.11 4.91555 6.11018 0
M  V30 47806 N 4750.61 -1.55865 0.233218 0
M  V30 47807 C 4751.54 -2.23785 -0.66652 0
M  V30 47808 C 4752.52 -1.21348 -1.19201 0
M  V30 47809 O 4753.71 -1.49965 -1.23387 0
M  V30 47810 C 4750.84 -2.92678 -1.86968 0
M  V30 47811 C 4749.79 -4.01687 -1.47754 0
M  V30 47812 C 4749.12 -4.57935 -2.76042 0
M  V30 47813 C 4750.42 -5.18128 -0.658811 0
M  V30 47814 H 4752.11 -2.99232 -0.1002 0
M  V30 47815 H 4749.66 -1.43924 -0.0467534 0
M  V30 47816 H 4751.61 -3.38889 -2.50465 0
M  V30 47817 H 4750.34 -2.14697 -2.46115 0
M  V30 47818 H 4749 -3.56225 -0.865981 0
M  V30 47819 H 4748.64 -3.76671 -3.33359 0
M  V30 47820 H 4748.34 -5.31514 -2.50534 0
M  V30 47821 H 4749.87 -5.06871 -3.40461 0
M  V30 47822 H 4751.28 -5.60648 -1.19775 0
M  V30 47823 H 4749.68 -5.98011 -0.500342 0
M  V30 47824 H 4750.75 -4.83762 0.332026 0
M  V30 47825 N 4752.09 0.0400529 -1.57549 0
M  V30 47826 C 4753.32 0.744047 -1.92737 0
M  V30 47827 C 4753.73 1.70003 -0.830408 0
M  V30 47828 O 4753.07 1.82577 0.202796 0
M  V30 47829 C 4753.13 1.56505 -3.23645 0
M  V30 47830 C 4752.8 0.775042 -4.5038 0
M  V30 47831 C 4753.8 0.0801499 -5.19838 0
M  V30 47832 C 4751.48 0.732828 -4.96925 0
M  V30 47833 C 4753.47 -0.646377 -6.34114 0
M  V30 47834 C 4751.16 0.00254838 -6.111 0
M  V30 47835 C 4752.16 -0.685824 -6.79548 0
M  V30 47836 O 4751.85 -1.40427 -7.9154 0
M  V30 47837 H 4751.58 0.214838 -0.640953 0
M  V30 47838 H 4754.13 0.00496455 -2.05399 0
M  V30 47839 H 4752.36 2.34769 -3.07279 0
M  V30 47840 H 4754.05 2.15064 -3.44242 0
M  V30 47841 H 4754.82 0.103865 -4.84889 0
M  V30 47842 H 4750.7 1.25812 -4.435 0
M  V30 47843 H 4754.24 -1.18422 -6.87475 0
M  V30 47844 H 4750.14 -0.0231281 -6.45496 0
M  V30 47845 H 4750.91 -1.31681 -8.07838 0
M  V30 47846 N 4753.57 1.54478 0.312115 0
M  V30 47847 C 4754.82 1.73487 1.05024 0
M  V30 47848 C 4755.15 0.513191 1.87297 0
M  V30 47849 O 4754.42 -0.489797 1.88232 0
M  V30 47850 C 4754.71 3.0173 1.96548 0
M  V30 47851 C 4754.56 4.34174 1.17529 0
M  V30 47852 C 4755.88 3.25782 2.95895 0
M  V30 47853 H 4753 0.631235 0.380409 0
M  V30 47854 H 4755.64 1.87185 0.325866 0
M  V30 47855 H 4753.79 2.90183 2.58314 0
M  V30 47856 H 4755.46 4.57622 0.581352 0
M  V30 47857 H 4753.7 4.31161 0.477773 0
M  V30 47858 H 4754.38 5.2015 1.84793 0
M  V30 47859 H 4756.85 3.36866 2.44255 0
M  V30 47860 H 4755.73 4.16851 3.57109 0
M  V30 47861 H 4755.99 2.4355 3.68966 0
M  V30 47862 N 4755.05 -0.574758 1.46746 0
M  V30 47863 C 4756.32 -1.33515 1.42944 0
M  V30 47864 C 4756.7 -2.10775 0.117083 0
M  V30 47865 O 4756.05 -2.09969 -0.9014 0
M  V30 47866 C 4756.26 -2.25446 2.66411 0
M  V30 47867 C 4757.61 -2.87024 3.12893 0
M  V30 47868 O 4758.63 -2.35756 2.67016 0
M  V30 47869 O 4757.49 -3.80165 3.92603 0
M  V30 47870 H 4754.59 -0.600298 0.568833 0
M  V30 47871 H 4757.13 -0.595115 1.58923 0
M  V30 47872 H 4755.91 -1.67839 3.53477 0
M  V30 47873 H 4755.53 -3.06776 2.52931 0
M  V30 47874 N 4756.53 -1.34584 -0.820054 0
M  V30 47875 C 4757.8 -1.1768 -1.56239 0
M  V30 47876 C 4758.18 0.249467 -2.09621 0
M  V30 47877 O 4757.53 1.25119 -1.912 0
M  V30 47878 C 4757.74 -2.23373 -2.68152 0
M  V30 47879 C 4759.09 -2.58497 -3.36845 0
M  V30 47880 O 4760.11 -2.22184 -2.78411 0
M  V30 47881 O 4758.97 -3.20884 -4.42375 0
M  V30 47882 H 4756.07 -0.456357 -0.689686 0
M  V30 47883 H 4758.61 -1.46225 -0.861179 0
M  V30 47884 H 4757.38 -3.19095 -2.26482 0
M  V30 47885 H 4757.01 -1.96022 -3.45921 0
M  V30 47886 N 4758 1.0406 -1.18361 0
M  V30 47887 C 4758.94 2.12111 -0.868433 0
M  V30 47888 C 4759.95 1.62248 0.133988 0
M  V30 47889 O 4761.14 1.78253 -0.0938559 0
M  V30 47890 C 4758.24 3.37772 -0.276251 0
M  V30 47891 C 4757.41 4.16869 -1.32434 0
M  V30 47892 C 4756.47 5.20859 -0.747845 0
M  V30 47893 O 4755.5 5.51136 -1.42258 0
M  V30 47894 N 4756.7 5.78717 0.454619 0
M  V30 47895 H 4759.46 2.39741 -1.79845 0
M  V30 47896 H 4757.02 1.20254 -1.084 0
M  V30 47897 H 4759.02 4.04513 0.122991 0
M  V30 47898 H 4757.59 3.07583 0.557787 0
M  V30 47899 H 4756.81 3.4545 -1.8989 0
M  V30 47900 H 4758.09 4.66508 -2.03095 0
M  V30 47901 H 4757.49 5.56419 1.02054 0
M  V30 47902 H 4756.05 6.46924 0.795783 0
M  V30 47903 N 4759.48 0.985651 1.22974 0
M  V30 47904 C 4760.41 0.549729 2.26937 0
M  V30 47905 C 4761.39 -0.419745 1.6484 0
M  V30 47906 O 4762.58 -0.311963 1.91678 0
M  V30 47907 C 4759.71 -0.14353 3.47003 0
M  V30 47908 C 4758.66 0.743754 4.21488 0
M  V30 47909 C 4757.99 -0.0820147 5.34637 0
M  V30 47910 C 4759.29 2.03711 4.80936 0
M  V30 47911 H 4760.98 1.41872 2.63653 0
M  V30 47912 H 4758.53 0.683616 1.26739 0
M  V30 47913 H 4760.48 -0.459837 4.18884 0
M  V30 47914 H 4759.2 -1.04701 3.09363 0
M  V30 47915 H 4757.86 1.0436 3.51432 0
M  V30 47916 H 4757.51 -0.986185 4.93238 0
M  V30 47917 H 4757.21 0.508583 5.85395 0
M  V30 47918 H 4758.74 -0.392583 6.09337 0
M  V30 47919 H 4760.15 1.78523 5.44796 0
M  V30 47920 H 4758.55 2.57592 5.42002 0
M  V30 47921 H 4759.62 2.72056 4.01389 0
M  V30 47922 N 4760.96 -1.38177 0.757949 0
M  V30 47923 C 4761.89 -2.2901 0.0932982 0
M  V30 47924 C 4762.91 -1.4796 -0.679084 0
M  V30 47925 O 4764.09 -1.70775 -0.519453 0
M  V30 47926 C 4761.19 -3.26956 -0.891805 0
M  V30 47927 C 4760.37 -4.37045 -0.176149 0
M  V30 47928 C 4759.43 -5.15152 -1.07263 0
M  V30 47929 O 4758.45 -5.66618 -0.541529 0
M  V30 47930 N 4759.65 -5.28551 -2.4003 0
M  V30 47931 H 4762.42 -2.86691 0.873404 0
M  V30 47932 H 4759.98 -1.50005 0.609106 0
M  V30 47933 H 4761.97 -3.76088 -1.49466 0
M  V30 47934 H 4760.54 -2.70142 -1.57296 0
M  V30 47935 H 4759.76 -3.89491 0.607465 0
M  V30 47936 H 4761.05 -5.078 0.318896 0
M  V30 47937 H 4760.45 -4.88295 -2.8563 0
M  V30 47938 H 4759.01 -5.81041 -2.95356 0
M  V30 47939 N 4762.44 -0.507371 -1.4921 0
M  V30 47940 C 4763.37 0.304452 -2.27169 0
M  V30 47941 C 4764.38 0.924909 -1.33975 0
M  V30 47942 O 4765.57 0.807171 -1.59207 0
M  V30 47943 C 4762.67 1.4442 -3.06588 0
M  V30 47944 C 4761.85 0.929876 -4.27402 0
M  V30 47945 C 4760.9 1.948 -4.88814 0
M  V30 47946 O 4759.93 1.51399 -5.48696 0
M  V30 47947 N 4761.13 3.27883 -4.79033 0
M  V30 47948 H 4763.9 -0.364054 -2.97481 0
M  V30 47949 H 4761.46 -0.340304 -1.58283 0
M  V30 47950 H 4763.45 2.12299 -3.44545 0
M  V30 47951 H 4762.02 2.01676 -2.38843 0
M  V30 47952 H 4761.24 0.0757858 -3.94127 0
M  V30 47953 H 4762.53 0.564754 -5.05656 0
M  V30 47954 H 4761.93 3.65828 -4.31493 0
M  V30 47955 H 4760.48 3.91458 -5.21156 0
M  V30 47956 N 4763.92 1.55739 -0.241481 0
M  V30 47957 C 4764.85 2.17171 0.700858 0
M  V30 47958 C 4765.83 1.1221 1.17676 0
M  V30 47959 O 4767.01 1.4057 1.25588 0
M  V30 47960 C 4764.14 2.76803 1.95186 0
M  V30 47961 C 4763.18 3.9477 1.61428 0
M  V30 47962 S 4764.02 5.30615 0.721634 0
M  V30 47963 C 4765.17 5.93698 1.98176 0
M  V30 47964 H 4765.41 2.96762 0.178778 0
M  V30 47965 H 4762.94 1.54378 -0.0259842 0
M  V30 47966 H 4764.9 3.11797 2.67008 0
M  V30 47967 H 4763.56 1.97168 2.44507 0
M  V30 47968 H 4762.75 4.35066 2.54428 0
M  V30 47969 H 4762.35 3.61026 0.976545 0
M  V30 47970 H 4764.65 6.10884 2.92962 0
M  V30 47971 H 4765.59 6.89264 1.62237 0
M  V30 47972 H 4766 5.22716 2.13138 0
M  V30 47973 N 4765.39 -0.0316971 1.57568 0
M  V30 47974 C 4766.34 -1.03313 2.06386 0
M  V30 47975 C 4767.31 -1.36079 0.952462 0
M  V30 47976 O 4768.5 -1.46461 1.22286 0
M  V30 47977 C 4765.64 -2.3298 2.54586 0
M  V30 47978 C 4764.75 -2.06396 3.79506 0
M  V30 47979 C 4763.88 -3.29915 4.16329 0
M  V30 47980 C 4762.92 -2.98874 5.34173 0
M  V30 47981 N 4762.06 -4.14837 5.66441 0
M  V30 47982 H 4766.9 -0.609879 2.91692 0
M  V30 47983 H 4764.44 -0.289523 1.44223 0
M  V30 47984 H 4766.4 -3.0874 2.80598 0
M  V30 47985 H 4765.03 -2.73033 1.722 0
M  V30 47986 H 4764.08 -1.21146 3.60594 0
M  V30 47987 H 4765.39 -1.79496 4.65384 0
M  V30 47988 H 4764.54 -4.14044 4.43455 0
M  V30 47989 H 4763.28 -3.59927 3.29096 0
M  V30 47990 H 4762.29 -2.13147 5.06802 0
M  V30 47991 H 4763.51 -2.70144 6.23056 0
M  V30 47992 H 4761.46 -4.44804 4.82167 0
M  V30 47993 H 4761.38 -3.91351 6.46823 0
M  V30 47994 H 4762.64 -4.99847 5.98142 0
M  V30 47995 N 4766.87 -1.54642 -0.303919 0
M  V30 47996 C 4768.28 -1.64814 -0.877105 0
M  V30 47997 C 4768.63 -0.554904 -1.88189 0
M  V30 47998 O 4767.76 0.308958 -2.14183 0
M  V30 47999 C 4768.35 -2.98766 -1.59764 0
M  V30 48000 C 4766.91 -3.11069 -2.11928 0
M  V30 48001 C 4766.06 -2.60483 -0.951005 0
M  V30 48002 H 4769.01 -1.58493 -0.0809929 0
M  V30 48003 H 4769.03 -2.90025 -2.46304 0
M  V30 48004 H 4768.54 -3.78313 -0.866093 0
M  V30 48005 H 4766.65 -2.36235 -2.88138 0
M  V30 48006 H 4766.76 -4.17179 -2.3558 0
M  V30 48007 H 4765.12 -2.16864 -1.33575 0
M  V30 48008 H 4765.91 -3.42505 -0.233461 0
M  V30 48009 N 4768.35 0.566968 -1.47048 0
M  V30 48010 C 4769.3 1.67012 -1.55213 0
M  V30 48011 C 4770.28 1.55542 -0.411769 0
M  V30 48012 O 4771.48 1.64189 -0.661121 0
M  V30 48013 C 4768.61 3.05796 -1.56025 0
M  V30 48014 C 4767.69 3.22506 -2.75411 0
M  V30 48015 N 4768.08 3.09315 -4.00197 0
M  V30 48016 C 4766.38 3.53483 -2.71966 0
M  V30 48017 C 4767.08 3.28453 -4.80097 0
M  V30 48018 N 4766.06 3.54337 -4.12245 0
M  V30 48019 H 4769.86 1.55368 -2.49475 0
M  V30 48020 H 4767.37 0.771453 -1.42907 0
M  V30 48021 H 4769.37 3.8499 -1.59963 0
M  V30 48022 H 4768.03 3.18559 -0.628508 0
M  V30 48023 H 4769.04 2.86848 -4.31206 0
M  V30 48024 H 4765.72 3.72834 -1.87886 0
M  V30 48025 H 4767.11 3.23305 -5.89002 0
M  V30 48026 N 4769.83 1.35017 0.812906 0
M  V30 48027 C 4771.24 1.14917 1.10753 0
M  V30 48028 C 4771.44 -0.0426109 2.01455 0
M  V30 48029 O 4770.5 -0.715127 2.42161 0
M  V30 48030 C 4771.81 2.44917 1.74459 0
M  V30 48031 C 4773.36 2.51066 1.86908 0
M  V30 48032 C 4773.84 3.81094 2.54031 0
M  V30 48033 N 4775.33 3.8231 2.61521 0
M  V30 48034 C 4776.06 4.79645 3.1421 0
M  V30 48035 N 4775.56 5.87366 3.67386 0
M  V30 48036 N 4777.35 4.67089 3.12705 0
M  V30 48037 H 4769.5 2.11361 0.209816 0
M  V30 48038 H 4771.77 0.935133 0.15566 0
M  V30 48039 H 4771.47 3.32271 1.15278 0
M  V30 48040 H 4771.35 2.58999 2.74225 0
M  V30 48041 H 4773.73 1.64146 2.45235 0
M  V30 48042 H 4773.81 2.40904 0.860158 0
M  V30 48043 H 4773.46 4.68409 1.96355 0
M  V30 48044 H 4773.39 3.88542 3.55447 0
M  V30 48045 H 4775.88 3.04473 2.23841 0
M  V30 48046 H 4776.19 6.57639 4.05871 0
M  V30 48047 H 4774.54 5.91067 3.65602 0
M  V30 48048 H 4777.73 3.82076 2.70435 0
M  V30 48049 H 4777.9 5.4311 3.53462 0
M  V30 48050 N 4771.31 -1.03431 1.18911 0
M  V30 48051 C 4772.55 -1.76391 0.986444 0
M  V30 48052 C 4772.88 -1.88885 -0.484501 0
M  V30 48053 O 4772.15 -1.41848 -1.35115 0
M  V30 48054 H 4770.73 -0.653427 0.361998 0
M  V30 48055 H 4773.39 -1.24794 1.49708 0
M  V30 48056 H 4772.48 -2.77419 1.42987 0
M  V30 48057 N 4772.78 -0.992159 -1.2245 0
M  V30 48058 C 4774.2 -0.702837 -1.72966 0
M  V30 48059 C 4774.55 0.780336 -1.80014 0
M  V30 48060 O 4773.67 1.61001 -1.44594 0
M  V30 48061 C 4774.27 -1.26914 -3.14131 0
M  V30 48062 C 4772.83 -1.02922 -3.62055 0
M  V30 48063 C 4771.97 -1.38978 -2.39959 0
M  V30 48064 H 4774.92 -1.16461 -1.07808 0
M  V30 48065 H 4774.94 -0.647354 -3.74953 0
M  V30 48066 H 4774.46 -2.34862 -3.08969 0
M  V30 48067 H 4772.56 0.0336669 -3.72585 0
M  V30 48068 H 4772.67 -1.69207 -4.48225 0
M  V30 48069 H 4771.03 -0.808364 -2.41532 0
M  V30 48070 H 4771.82 -2.47928 -2.37459 0
M  V30 48071 N 4774.26 1.37773 -0.765266 0
M  V30 48072 C 4775.67 1.82519 -0.392883 0
M  V30 48073 C 4776.02 1.63793 1.08011 0
M  V30 48074 O 4775.15 1.14548 1.83597 0
M  V30 48075 C 4775.74 3.31355 -0.70633 0
M  V30 48076 C 4774.3 3.74404 -0.387084 0
M  V30 48077 C 4773.45 2.60391 -0.953514 0
M  V30 48078 H 4776.4 1.26337 -0.960457 0
M  V30 48079 H 4776.42 3.80498 0.0113368 0
M  V30 48080 H 4775.93 3.44953 -1.77845 0
M  V30 48081 H 4774.04 3.6638 0.677983 0
M  V30 48082 H 4774.15 4.70746 -0.890801 0
M  V30 48083 H 4772.51 2.51877 -0.378152 0
M  V30 48084 H 4773.3 2.76784 -2.0309 0
M  V30 48085 N 4775.74 0.515277 1.48938 0
M  V30 48086 C 4777.15 0.0710723 1.86565 0
M  V30 48087 C 4777.5 -1.34728 1.42628 0
M  V30 48088 O 4776.63 -2.00651 0.81045 0
M  V30 48089 C 4777.22 0.122202 3.3858 0
M  V30 48090 C 4775.78 -0.266731 3.75454 0
M  V30 48091 C 4774.93 0.488472 2.72964 0
M  V30 48092 H 4777.88 0.727315 1.41053 0
M  V30 48093 H 4777.9 -0.669686 3.7456 0
M  V30 48094 H 4777.41 1.15461 3.70527 0
M  V30 48095 H 4775.51 -1.30184 3.49117 0
M  V30 48096 H 4775.63 0.0626495 4.79059 0
M  V30 48097 H 4773.99 -0.0634726 2.54621 0
M  V30 48098 H 4774.77 1.52123 3.07755 0
M  V30 48099 N 4777.22 -1.55609 0.249737 0
M  V30 48100 C 4778.13 -2.25145 -0.659296 0
M  V30 48101 C 4779.15 -1.26854 -1.19097 0
M  V30 48102 O 4780.32 -1.59736 -1.22663 0
M  V30 48103 C 4777.39 -2.93952 -1.83829 0
M  V30 48104 C 4776.45 -4.0766 -1.34582 0
M  V30 48105 C 4775.68 -4.73175 -2.46862 0
M  V30 48106 O 4775.9 -4.37781 -3.65655 0
M  V30 48107 O 4774.84 -5.61631 -2.16459 0
M  V30 48108 H 4778.66 -3.03546 -0.0967631 0
M  V30 48109 H 4776.25 -1.49389 0.0181265 0
M  V30 48110 H 4778.13 -3.3728 -2.52626 0
M  V30 48111 H 4776.81 -2.18489 -2.38839 0
M  V30 48112 H 4775.71 -3.68841 -0.625044 0
M  V30 48113 H 4777.05 -4.84949 -0.84177 0
M  V30 48114 N 4778.7 0.0233405 -1.57583 0
M  V30 48115 C 4779.63 1.02155 -2.09968 0
M  V30 48116 C 4780.61 1.37347 -1.00349 0
M  V30 48117 O 4781.79 1.4613 -1.27904 0
M  V30 48118 C 4778.92 2.32072 -2.58379 0
M  V30 48119 C 4777.88 2.11107 -3.72314 0
M  V30 48120 C 4777.2 3.46834 -4.06953 0
M  V30 48121 C 4778.5 1.49258 -5.00519 0
M  V30 48122 H 4780.2 0.585454 -2.9362 0
M  V30 48123 H 4777.74 0.280169 -1.41248 0
M  V30 48124 H 4779.7 3.02238 -2.93649 0
M  V30 48125 H 4778.42 2.77752 -1.71818 0
M  V30 48126 H 4777.08 1.43372 -3.37402 0
M  V30 48127 H 4776.73 3.90173 -3.17449 0
M  V30 48128 H 4776.43 3.33629 -4.83699 0
M  V30 48129 H 4777.95 4.18353 -4.44762 0
M  V30 48130 H 4779.37 2.09349 -5.33709 0
M  V30 48131 H 4777.76 1.46612 -5.81915 0
M  V30 48132 H 4778.83 0.459048 -4.82722 0
M  V30 48133 N 4780.18 1.54801 0.295713 0
M  V30 48134 C 4781.11 1.82497 1.38664 0
M  V30 48135 C 4782.12 0.708186 1.4659 0
M  V30 48136 O 4783.31 0.985739 1.48813 0
M  V30 48137 C 4780.41 1.95266 2.76992 0
M  V30 48138 C 4779.58 3.25719 2.91935 0
M  V30 48139 C 4778.64 3.28838 4.10794 0
M  V30 48140 O 4777.67 4.02342 4.02628 0
M  V30 48141 N 4778.87 2.54608 5.21685 0
M  V30 48142 H 4781.63 2.7665 1.15259 0
M  V30 48143 H 4779.2 1.5444 0.485795 0
M  V30 48144 H 4781.19 1.94748 3.54761 0
M  V30 48145 H 4779.76 1.08083 2.9332 0
M  V30 48146 H 4778.98 3.38966 2.01235 0
M  V30 48147 H 4780.27 4.11797 2.98833 0
M  V30 48148 H 4779.66 1.94531 5.31201 0
M  V30 48149 H 4778.22 2.59839 5.97768 0
M  V30 48150 N 4781.65 -0.559161 1.47347 0
M  V30 48151 C 4783.06 -1.14129 1.47755 0
M  V30 48152 C 4783.42 -1.94833 0.231171 0
M  V30 48153 O 4782.54 -2.05959 -0.664064 0
M  V30 48154 C 4783.14 -2.07643 2.67712 0
M  V30 48155 C 4781.69 -2.61132 2.71085 0
M  V30 48156 C 4780.84 -1.37471 2.40825 0
M  V30 48157 H 4783.79 -0.345862 1.54885 0
M  V30 48158 H 4783.81 -2.91488 2.44571 0
M  V30 48159 H 4783.33 -1.48877 3.58409 0
M  V30 48160 H 4781.43 -3.23701 1.84522 0
M  V30 48161 H 4781.54 -3.02259 3.71721 0
M  V30 48162 H 4779.9 -1.68079 1.91368 0
M  V30 48163 H 4780.69 -0.805017 3.33728 0
M  V30 48164 N 4783.13 -1.35446 -0.805734 0
M  V30 48165 C 4784.06 -1.24292 -1.92573 0
M  V30 48166 C 4785.08 -0.166019 -1.61951 0
M  V30 48167 O 4786.27 -0.419364 -1.73504 0
M  V30 48168 C 4783.37 -0.891387 -3.26967 0
M  V30 48169 C 4782.54 -2.06683 -3.85488 0
M  V30 48170 C 4781.6 -1.69094 -4.98291 0
M  V30 48171 O 4780.62 -2.40979 -5.15672 0
M  V30 48172 N 4781.83 -0.615072 -5.77232 0
M  V30 48173 H 4784.59 -2.20784 -2.02668 0
M  V30 48174 H 4782.15 -1.28627 -0.983198 0
M  V30 48175 H 4784.14 -0.621397 -3.99901 0
M  V30 48176 H 4782.71 -0.0161139 -3.12596 0
M  V30 48177 H 4781.93 -2.50057 -3.04738 0
M  V30 48178 H 4783.22 -2.85252 -4.21318 0
M  V30 48179 H 4782.62 -0.0178468 -5.65697 0
M  V30 48180 H 4781.18 -0.404864 -6.50541 0
M  V30 48181 N 4784.61 1.02799 -1.19458 0
M  V30 48182 C 4786.02 1.57664 -0.999954 0
M  V30 48183 C 4786.37 1.91043 0.446889 0
M  V30 48184 O 4785.5 1.70982 1.32642 0
M  V30 48185 C 4786.09 2.86471 -1.80887 0
M  V30 48186 C 4784.65 3.37905 -1.65823 0
M  V30 48187 C 4783.8 2.11337 -1.79533 0
M  V30 48188 H 4786.75 0.853167 -1.33816 0
M  V30 48189 H 4786.77 3.57404 -1.30548 0
M  V30 48190 H 4786.28 2.62145 -2.86184 0
M  V30 48191 H 4784.38 3.67216 -0.631149 0
M  V30 48192 H 4784.5 4.10876 -2.46409 0
M  V30 48193 H 4782.86 2.2325 -1.22604 0
M  V30 48194 H 4783.64 1.89451 -2.86292 0
M  V30 48195 N 4786.09 0.998639 1.21922 0
M  V30 48196 C 4787 0.562816 2.27749 0
M  V30 48197 C 4788.01 -0.391143 1.69547 0
M  V30 48198 O 4789.19 -0.256554 1.99759 0
M  V30 48199 C 4786.25 -0.109998 3.46525 0
M  V30 48200 C 4785.32 0.887643 4.20023 0
M  V30 48201 C 4784.55 0.246841 5.33129 0
M  V30 48202 O 4784.77 -0.95789 5.62299 0
M  V30 48203 O 4783.71 0.954583 5.94282 0
M  V30 48204 H 4787.53 1.44339 2.67208 0
M  V30 48205 H 4785.12 0.76718 1.28198 0
M  V30 48206 H 4787 -0.486609 4.18581 0
M  V30 48207 H 4785.67 -0.965045 3.0898 0
M  V30 48208 H 4784.58 1.31529 3.50215 0
M  V30 48209 H 4785.91 1.71207 4.61464 0
M  V30 48210 N 4787.57 -1.37365 0.772562 0
M  V30 48211 C 4788.81 -1.99277 0.336586 0
M  V30 48212 C 4789.13 -1.61634 -1.09085 0
M  V30 48213 O 4788.4 -0.882171 -1.74913 0
M  V30 48214 H 4786.98 -0.737059 0.121461 0
M  V30 48215 H 4789.65 -1.67833 0.990868 0
M  V30 48216 H 4788.74 -3.0933 0.414872 0
M  V30 48217 N 4789.04 -0.523168 -1.48663 0
M  V30 48218 C 4790.45 -0.0809653 -1.86524 0
M  V30 48219 C 4790.81 1.3397 -1.43341 0
M  V30 48220 O 4789.93 2.00218 -0.821079 0
M  V30 48221 C 4790.53 -0.140156 -3.3851 0
M  V30 48222 C 4789.08 0.246816 -3.7559 0
M  V30 48223 C 4788.23 -0.502941 -2.72701 0
M  V30 48224 H 4791.18 -0.734786 -1.40665 0
M  V30 48225 H 4791.2 0.649813 -3.7491 0
M  V30 48226 H 4790.72 -1.17425 -3.6991 0
M  V30 48227 H 4788.82 1.28331 -3.49803 0
M  V30 48228 H 4788.93 -0.0880543 -4.79019 0
M  V30 48229 H 4787.29 0.0499686 -2.54651 0
M  V30 48230 H 4788.08 -1.53753 -3.06944 0
M  V30 48231 N 4790.52 1.55474 -0.257986 0
M  V30 48232 C 4791.93 1.85111 0.24307 0
M  V30 48233 C 4792.28 1.17992 1.56756 0
M  V30 48234 O 4791.41 0.462176 2.11407 0
M  V30 48235 C 4792 3.35827 0.447811 0
M  V30 48236 C 4790.56 3.65651 0.893117 0
M  V30 48237 C 4789.71 2.7729 -0.023394 0
M  V30 48238 H 4792.66 1.51259 -0.480252 0
M  V30 48239 H 4792.68 3.58007 1.28886 0
M  V30 48240 H 4792.19 3.8465 -0.516331 0
M  V30 48241 H 4790.3 3.22314 1.86934 0
M  V30 48242 H 4790.41 4.73315 0.742302 0
M  V30 48243 H 4788.77 2.49943 0.489934 0
M  V30 48244 H 4789.56 3.28922 -0.98311 0
M  V30 48245 N 4792 -0.0149831 1.57593 0
M  V30 48246 C 4793.42 -0.370852 1.55232 0
M  V30 48247 C 4793.62 -1.75731 0.985943 0
M  V30 48248 O 4792.67 -2.44942 0.613163 0
M  V30 48249 C 4793.99 -0.259803 2.99576 0
M  V30 48250 C 4795.53 -0.33585 3.11193 0
M  V30 48251 C 4796.01 -0.254093 4.57295 0
M  V30 48252 N 4797.5 -0.312456 4.62145 0
M  V30 48253 C 4798.23 -0.272304 5.72753 0
M  V30 48254 N 4797.73 -0.18362 6.92557 0
M  V30 48255 N 4799.52 -0.32307 5.61171 0
M  V30 48256 H 4791.67 0.892171 1.92754 0
M  V30 48257 H 4793.94 0.340594 0.884703 0
M  V30 48258 H 4793.64 0.693524 3.44794 0
M  V30 48259 H 4793.52 -1.04788 3.62353 0
M  V30 48260 H 4795.9 -1.27962 2.65913 0
M  V30 48261 H 4795.99 0.481827 2.51221 0
M  V30 48262 H 4795.63 0.686064 5.03245 0
M  V30 48263 H 4795.56 -1.09006 5.15194 0
M  V30 48264 H 4798.05 -0.382937 3.75955 0
M  V30 48265 H 4798.36 -0.158469 7.72638 0
M  V30 48266 H 4796.71 -0.149464 6.94839 0
M  V30 48267 H 4799.9 -0.390443 4.66469 0
M  V30 48268 H 4800.07 -0.288312 6.47358 0
M  V30 48269 N 4793.48 -1.54955 -0.2875 0
M  V30 48270 C 4794.41 -1.89844 -1.35947 0
M  V30 48271 C 4795.39 -0.758729 -1.52241 0
M  V30 48272 O 4796.57 -1.01563 -1.65525 0
M  V30 48273 C 4793.7 -2.15762 -2.72147 0
M  V30 48274 C 4792.66 -3.316 -2.70602 0
M  V30 48275 C 4791.98 -3.42966 -4.10217 0
M  V30 48276 C 4793.28 -4.68367 -2.31149 0
M  V30 48277 H 4794.98 -2.79628 -1.06997 0
M  V30 48278 H 4792.52 -1.34542 -0.513268 0
M  V30 48279 H 4794.48 -2.38755 -3.47237 0
M  V30 48280 H 4793.2 -1.22762 -3.0265 0
M  V30 48281 H 4791.86 -3.08552 -1.97968 0
M  V30 48282 H 4791.51 -2.47458 -4.37919 0
M  V30 48283 H 4791.21 -4.20841 -4.10082 0
M  V30 48284 H 4792.73 -3.68235 -4.87068 0
M  V30 48285 H 4794.15 -4.91001 -2.95958 0
M  V30 48286 H 4792.54 -5.49052 -2.42202 0
M  V30 48287 H 4793.61 -4.6817 -1.26275 0
M  V30 48288 N 4794.96 0.551339 -1.47641 0
M  V30 48289 C 4795.89 1.66752 -1.63451 0
M  V30 48290 C 4796.87 1.63075 -0.483799 0
M  V30 48291 O 4798.05 1.80605 -0.713834 0
M  V30 48292 C 4795.18 3.05382 -1.65407 0
M  V30 48293 C 4794.14 3.23908 -2.79764 0
M  V30 48294 C 4793.46 4.63383 -2.66796 0
M  V30 48295 C 4794.76 3.0872 -4.21295 0
M  V30 48296 H 4796.46 1.53777 -2.56891 0
M  V30 48297 H 4794 0.738372 -1.23629 0
M  V30 48298 H 4795.96 3.83318 -1.75057 0
M  V30 48299 H 4794.68 3.19329 -0.685307 0
M  V30 48300 H 4793.34 2.48381 -2.69634 0
M  V30 48301 H 4792.99 4.74138 -1.67935 0
M  V30 48302 H 4792.69 4.76728 -3.43518 0
M  V30 48303 H 4794.21 5.43448 -2.78383 0
M  V30 48304 H 4795.62 3.76469 -4.3237 0
M  V30 48305 H 4794.02 3.3357 -4.9885 0
M  V30 48306 H 4795.09 2.05394 -4.39251 0
M  V30 48307 N 4796.43 1.35872 0.79854 0
M  V30 48308 C 4797.36 1.32125 1.92523 0
M  V30 48309 C 4798.35 0.194268 1.68987 0
M  V30 48310 O 4799.53 0.390493 1.90234 0
M  V30 48311 C 4796.66 1.10059 3.294 0
M  V30 48312 C 4795.61 2.19484 3.67438 0
M  V30 48313 C 4794.94 1.82573 5.02565 0
M  V30 48314 C 4796.24 3.61508 3.76974 0
M  V30 48315 H 4797.93 2.26401 1.95916 0
M  V30 48316 H 4795.48 1.08984 0.941192 0
M  V30 48317 H 4797.43 1.06075 4.07831 0
M  V30 48318 H 4796.16 0.12231 3.26371 0
M  V30 48319 H 4794.82 2.22578 2.91298 0
M  V30 48320 H 4794.46 0.833423 4.96047 0
M  V30 48321 H 4794.16 2.55828 5.28986 0
M  V30 48322 H 4795.69 1.80129 5.83426 0
M  V30 48323 H 4797.1 3.60691 4.45617 0
M  V30 48324 H 4795.5 4.33592 4.14871 0
M  V30 48325 H 4796.57 3.97075 2.78315 0
M  V30 48326 N 4797.91 -1.02164 1.20001 0
M  V30 48327 C 4799.16 -1.75335 1.0051 0
M  V30 48328 C 4799.48 -1.89388 -0.46444 0
M  V30 48329 O 4798.75 -1.43273 -1.33603 0
M  V30 48330 H 4797.33 -0.649551 0.368908 0
M  V30 48331 H 4799.99 -1.232 1.51023 0
M  V30 48332 H 4799.09 -2.75886 1.45922 0
M  V30 48333 N 4799.39 -1.00509 -1.21391 0
M  V30 48334 C 4800.64 -0.686482 -1.90084 0
M  V30 48335 C 4800.96 0.785202 -1.78493 0
M  V30 48336 O 4800.23 1.56382 -1.17989 0
M  V30 48337 H 4798.81 -0.250924 -0.703595 0
M  V30 48338 H 4801.47 -1.27422 -1.47478 0
M  V30 48339 H 4800.57 -0.959726 -2.96978 0
M  V30 48340 N 4800.87 1.36954 -0.779835 0
M  V30 48341 C 4801.8 2.3276 -0.185733 0
M  V30 48342 C 4802.78 1.5618 0.673934 0
M  V30 48343 O 4803.96 1.8438 0.609732 0
M  V30 48344 C 4801.09 3.4042 0.687844 0
M  V30 48345 C 4800.05 4.27941 -0.0711606 0
M  V30 48346 C 4799.37 5.26684 0.922388 0
M  V30 48347 C 4800.67 5.07002 -1.25484 0
M  V30 48348 H 4802.37 2.82695 -0.986108 0
M  V30 48349 H 4799.91 1.35918 -0.47564 0
M  V30 48350 H 4801.87 4.06427 1.11333 0
M  V30 48351 H 4800.59 2.8903 1.52082 0
M  V30 48352 H 4799.25 3.63477 -0.477518 0
M  V30 48353 H 4798.9 4.71571 1.75014 0
M  V30 48354 H 4798.6 5.86104 0.419031 0
M  V30 48355 H 4800.12 5.95565 1.34665 0
M  V30 48356 H 4801.54 5.66102 -0.9056 0
M  V30 48357 H 4799.93 5.75787 -1.69084 0
M  V30 48358 H 4801 4.39203 -2.05496 0
M  V30 48359 N 4802.35 0.531045 1.48384 0
M  V30 48360 C 4803.76 0.090856 1.86479 0
M  V30 48361 C 4804.11 -1.33208 1.44049 0
M  V30 48362 O 4803.23 -1.9978 0.831686 0
M  V30 48363 C 4803.83 0.158106 3.38431 0
M  V30 48364 C 4802.39 -0.226894 3.75716 0
M  V30 48365 C 4801.53 0.517396 2.7243 0
M  V30 48366 H 4804.49 0.742235 1.40273 0
M  V30 48367 H 4804.51 -0.629921 3.7525 0
M  V30 48368 H 4804.02 1.19385 3.69282 0
M  V30 48369 H 4802.12 -1.26474 3.50479 0
M  V30 48370 H 4802.23 0.113457 4.78966 0
M  V30 48371 H 4800.6 -0.0364631 2.54674 0
M  V30 48372 H 4801.38 1.55379 3.06125 0
M  V30 48373 N 4803.82 -1.55335 0.266227 0
M  V30 48374 C 4804.73 -2.25832 -0.635379 0
M  V30 48375 C 4805.75 -1.2811 -1.17744 0
M  V30 48376 O 4806.93 -1.61028 -1.20962 0
M  V30 48377 C 4803.99 -2.95885 -1.80701 0
M  V30 48378 C 4803.05 -4.09064 -1.3025 0
M  V30 48379 C 4802.29 -4.75767 -2.41829 0
M  V30 48380 O 4802.51 -4.41635 -3.60992 0
M  V30 48381 O 4801.44 -5.63895 -2.1049 0
M  V30 48382 H 4805.27 -3.03631 -0.0645626 0
M  V30 48383 H 4802.85 -1.49361 0.0339702 0
M  V30 48384 H 4804.74 -3.39941 -2.49035 0
M  V30 48385 H 4803.41 -2.2101 -2.36508 0
M  V30 48386 H 4802.32 -3.69484 -0.585889 0
M  V30 48387 H 4803.65 -4.85814 -0.790287 0
M  V30 48388 N 4805.3 0.0066254 -1.57599 0
M  V30 48389 C 4806.53 0.70767 -1.94953 0
M  V30 48390 C 4806.95 1.66879 -0.867926 0
M  V30 48391 O 4806.31 1.80458 0.174516 0
M  V30 48392 C 4806.36 1.42151 -3.31399 0
M  V30 48393 O 4805.46 2.53567 -3.25235 0
M  V30 48394 H 4804.8 0.188729 -0.636614 0
M  V30 48395 H 4807.33 -0.0445912 -2.04551 0
M  V30 48396 H 4807.34 1.78642 -3.66812 0
M  V30 48397 H 4806.02 0.716759 -4.09677 0
M  V30 48398 H 4804.6 2.19452 -3.01488 0
M  V30 48399 N 4806.78 1.55106 0.279278 0
M  V30 48400 C 4808.03 1.75069 1.00971 0
M  V30 48401 C 4808.35 0.551342 1.87043 0
M  V30 48402 O 4807.62 -0.433916 1.91034 0
M  V30 48403 H 4806.2 0.645591 0.375793 0
M  V30 48404 H 4808.86 1.92498 0.305022 0
M  V30 48405 H 4807.96 2.649 1.65028 0
M  V30 48406 N 4808.26 -0.543502 1.47932 0
M  V30 48407 C 4809.49 -1.3251 1.58898 0
M  V30 48408 C 4809.9 -1.87214 0.244197 0
M  V30 48409 O 4809.26 -1.65711 -0.764594 0
M  V30 48410 C 4809.31 -2.48545 2.62503 0
M  V30 48411 O 4809.03 -1.96098 3.91762 0
M  V30 48412 C 4810.53 -3.40562 2.83782 0
M  V30 48413 H 4807.75 -0.403453 0.536159 0
M  V30 48414 H 4810.3 -0.657038 1.93658 0
M  V30 48415 H 4808.45 -3.11262 2.3064 0
M  V30 48416 H 4808.87 -2.71951 4.48489 0
M  V30 48417 H 4810.34 -4.18362 3.60107 0
M  V30 48418 H 4810.82 -3.94958 1.92106 0
M  V30 48419 H 4811.42 -2.83649 3.16897 0
M  V30 48420 N 4809.74 -1.36293 -0.791323 0
M  V30 48421 C 4810.99 -1.29748 -1.54429 0
M  V30 48422 C 4811.3 0.12166 -1.95221 0
M  V30 48423 O 4812.51 0.309484 -2.6973 0
M  V30 48424 C 4810.96 -2.27632 -2.78768 0
M  V30 48425 C 4810.57 -3.74972 -2.45153 0
M  V30 48426 C 4812.31 -2.3006 -3.56753 0
M  V30 48427 C 4810.22 -4.64639 -3.65875 0
M  V30 48428 H 4809.15 -0.482133 -0.57971 0
M  V30 48429 H 4811.8 -1.61645 -0.868508 0
M  V30 48430 H 4810.18 -1.88726 -3.48136 0
M  V30 48431 H 4811.36 -4.22603 -1.83694 0
M  V30 48432 H 4809.67 -3.75301 -1.80383 0
M  V30 48433 H 4812.27 -2.94262 -4.46446 0
M  V30 48434 H 4812.61 -1.3086 -3.95198 0
M  V30 48435 H 4813.15 -2.67573 -2.94363 0
M  V30 48436 H 4809.88 -5.64895 -3.32527 0
M  V30 48437 H 4809.4 -4.21725 -4.26507 0
M  V30 48438 H 4811.08 -4.80816 -4.32926 0
M  V30 48439 N 4811.22 1.01526 -1.20541 0
M  V30 48440 C 4812.45 1.78483 -1.04054 0
M  V30 48441 C 4812.85 1.84632 0.413227 0
M  V30 48442 O 4812.2 1.29924 1.29867 0
M  V30 48443 C 4812.26 3.24362 -1.55015 0
M  V30 48444 C 4811.92 3.41816 -3.03332 0
M  V30 48445 C 4812.92 3.30927 -4.00978 0
M  V30 48446 C 4810.6 3.6759 -3.4232 0
M  V30 48447 C 4812.6 3.45558 -5.35601 0
M  V30 48448 C 4810.29 3.81865 -4.77098 0
M  V30 48449 C 4811.28 3.70854 -5.73547 0
M  V30 48450 O 4810.97 3.84689 -7.05882 0
M  V30 48451 H 4810.7 0.568095 -0.366393 0
M  V30 48452 H 4813.26 1.28671 -1.60103 0
M  V30 48453 H 4811.49 3.75263 -0.933529 0
M  V30 48454 H 4813.18 3.82959 -1.34527 0
M  V30 48455 H 4813.94 3.10951 -3.72202 0
M  V30 48456 H 4809.82 3.75247 -2.67789 0
M  V30 48457 H 4813.37 3.3688 -6.10866 0
M  V30 48458 H 4809.26 4.01341 -5.05564 0
M  V30 48459 H 4810.03 4.01699 -7.13148 0
M  V30 48460 N 4812.69 1.01151 1.20856 0
M  V30 48461 C 4813.64 0.570669 2.25491 0
M  V30 48462 C 4814.64 -0.388051 1.64895 0
M  V30 48463 O 4815.84 -0.25853 1.78134 0
M  V30 48464 H 4812.22 0.166217 0.7334 0
M  V30 48465 H 4814.19 1.4642 2.60007 0
M  V30 48466 C 4812.94 -0.0804019 3.47607 0
M  V30 48467 H 4812.26 0.648295 3.94509 0
M  V30 48468 H 4813.7 -0.352048 4.22536 0
M  V30 48469 C 4812.16 -1.32164 3.09894 0
M  V30 48470 O 4812.69 -2.41542 3.20968 0
M  V30 48471 N 4810.89 -1.20383 2.64493 0
M  V30 48472 H 4810.44 -0.313815 2.55681 0
M  V30 48473 H 4810.4 -2.03532 2.39629 0
M  V30 48474 N 4814.17 -1.36538 0.787088 0
M  V30 48475 C 4815.42 -1.99303 0.358411 0
M  V30 48476 C 4815.75 -1.62471 -1.06927 0
M  V30 48477 O 4815 -0.87008 -1.75294 0
M  V30 48478 C 4815.3 -3.54341 0.466609 0
M  V30 48479 C 4814.97 -4.10986 1.85476 0
M  V30 48480 C 4813.63 -4.26169 2.23458 0
M  V30 48481 C 4815.98 -4.41885 2.76382 0
M  V30 48482 C 4813.31 -4.69561 3.51752 0
M  V30 48483 C 4815.66 -4.86708 4.04101 0
M  V30 48484 C 4814.32 -5.00097 4.42108 0
M  V30 48485 H 4813.59 -0.729301 0.131152 0
M  V30 48486 H 4816.24 -1.63065 1.0041 0
M  V30 48487 H 4814.55 -3.90919 -0.262582 0
M  V30 48488 H 4816.24 -4.00832 0.115994 0
M  V30 48489 H 4812.83 -3.99606 1.54961 0
M  V30 48490 H 4817.02 -4.29726 2.48292 0
M  V30 48491 H 4812.27 -4.78114 3.81074 0
M  V30 48492 H 4816.45 -5.09581 4.74658 0
M  V30 48493 H 4814.07 -5.33478 5.41576 0
M  V30 48494 N 4815.65 -0.538906 -1.481 0
M  V30 48495 C 4816.87 -0.0103423 -2.07397 0
M  V30 48496 C 4817.3 1.26557 -1.39158 0
M  V30 48497 O 4816.66 1.75356 -0.460448 0
M  V30 48498 C 4816.71 0.187476 -3.60112 0
M  V30 48499 O 4815.81 1.25419 -3.92866 0
M  V30 48500 H 4815.15 -0.0431208 -0.662598 0
M  V30 48501 H 4817.68 -0.749368 -1.90383 0
M  V30 48502 H 4817.69 0.407374 -4.05961 0
M  V30 48503 H 4816.37 -0.744529 -4.09182 0
M  V30 48504 H 4814.94 1.01623 -3.58786 0
M  V30 48505 N 4817.13 1.55192 -0.274461 0
M  V30 48506 C 4818.38 1.99188 0.341832 0
M  V30 48507 C 4818.7 1.16428 1.56427 0
M  V30 48508 O 4817.97 0.253641 1.94251 0
M  V30 48509 H 4816.55 0.735726 0.129291 0
M  V30 48510 H 4819.21 1.91167 -0.379645 0
M  V30 48511 H 4818.3 3.05631 0.632146 0
M  V30 48512 N 4818.61 0.00173253 1.576 0
M  V30 48513 C 4819.85 -0.687234 1.92501 0
M  V30 48514 C 4820.21 -1.70841 0.876204 0
M  V30 48515 O 4821.41 -2.44788 1.11051 0
M  V30 48516 C 4819.68 -1.31205 3.32445 0
M  V30 48517 S 4821.24 -2.0259 3.89233 0
M  V30 48518 H 4818.06 -0.226962 0.673802 0
M  V30 48519 H 4820.66 0.0588353 1.95411 0
M  V30 48520 H 4819.36 -0.556021 4.06616 0
M  V30 48521 H 4818.9 -2.09602 3.32912 0
M  V30 48522 H 4820.91 -3.30124 3.70449 0
M  V30 48523 N 4820.08 -1.55252 -0.271048 0
M  V30 48524 C 4821.33 -1.75155 -1.00018 0
M  V30 48525 C 4821.65 -0.561107 -1.87379 0
M  V30 48526 O 4822.85 -0.642598 -2.63786 0
M  V30 48527 C 4821.31 -3.10006 -1.82824 0
M  V30 48528 C 4820.92 -4.36623 -1.0032 0
M  V30 48529 C 4822.66 -3.39258 -2.55156 0
M  V30 48530 C 4820.57 -5.62512 -1.82576 0
M  V30 48531 H 4819.5 -0.652891 -0.37716 0
M  V30 48532 H 4822.15 -1.81709 -0.255779 0
M  V30 48533 H 4820.53 -2.97494 -2.61368 0
M  V30 48534 H 4821.7 -4.60056 -0.261798 0
M  V30 48535 H 4820.02 -4.14529 -0.39434 0
M  V30 48536 H 4822.62 -4.30521 -3.17105 0
M  V30 48537 H 4822.96 -2.59479 -3.2554 0
M  V30 48538 H 4823.49 -3.52875 -1.83641 0
M  V30 48539 H 4820.23 -6.45045 -1.16609 0
M  V30 48540 H 4819.75 -5.4322 -2.54308 0
M  V30 48541 H 4821.43 -6.00883 -2.39892 0
M  V30 48542 N 4821.56 0.535649 -1.48218 0
M  V30 48543 C 4822.79 1.32144 -1.59852 0
M  V30 48544 C 4823.21 1.86337 -0.256907 0
M  V30 48545 O 4822.57 1.64109 0.770574 0
M  V30 48546 C 4822.62 2.45215 -2.6439 0
M  V30 48547 O 4821.72 3.48086 -2.21157 0
M  V30 48548 H 4821.06 0.391615 -0.536222 0
M  V30 48549 H 4823.59 0.645133 -1.94163 0
M  V30 48550 H 4823.6 2.91481 -2.85487 0
M  V30 48551 H 4822.28 2.0513 -3.61793 0
M  V30 48552 H 4820.86 3.07976 -2.1025 0
M  V30 48553 N 4823.04 1.36711 0.784084 0
M  V30 48554 C 4823.99 1.3154 1.91833 0
M  V30 48555 C 4824.98 0.206264 1.6814 0
M  V30 48556 O 4826.19 0.373581 1.76081 0
M  V30 48557 H 4822.56 0.409635 0.630637 0
M  V30 48558 H 4824.53 2.27317 1.93312 0
M  V30 48559 C 4823.28 1.12691 3.28932 0
M  V30 48560 H 4822.61 1.97286 3.47733 0
M  V30 48561 H 4824.05 1.13121 4.08632 0
M  V30 48562 C 4822.51 -0.168162 3.3648 0
M  V30 48563 O 4823.04 -1.15612 3.84704 0
M  V30 48564 N 4821.24 -0.21466 2.89806 0
M  V30 48565 H 4820.79 0.58994 2.50754 0
M  V30 48566 H 4820.75 -1.08083 2.95238 0
M  V30 48567 N 4824.52 -1.00885 1.21078 0
M  V30 48568 C 4825.76 -1.74862 1.02718 0
M  V30 48569 C 4826.1 -1.89179 -0.438721 0
M  V30 48570 O 4825.37 -1.4233 -1.32562 0
M  V30 48571 C 4825.66 -3.16341 1.72047 0
M  V30 48572 C 4825.51 -3.09771 3.26132 0
M  V30 48573 C 4826.83 -4.15181 1.45988 0
M  V30 48574 H 4823.95 -0.634723 0.374561 0
M  V30 48575 H 4826.59 -1.17641 1.492 0
M  V30 48576 H 4824.74 -3.65196 1.3253 0
M  V30 48577 H 4826.41 -2.6866 3.74993 0
M  V30 48578 H 4824.65 -2.4697 3.56635 0
M  V30 48579 H 4825.32 -4.09816 3.69804 0
M  V30 48580 H 4827.8 -3.75015 1.80285 0
M  V30 48581 H 4826.68 -5.12324 1.97017 0
M  V30 48582 H 4826.94 -4.40385 0.389079 0
M  V30 48583 N 4826 -1.01791 -1.20318 0
M  V30 48584 C 4827.24 -0.708003 -1.8972 0
M  V30 48585 C 4827.57 0.762472 -1.78932 0
M  V30 48586 O 4826.83 1.56973 -1.16867 0
M  V30 48587 C 4827.13 -1.09088 -3.40345 0
M  V30 48588 C 4826.79 -2.55778 -3.71333 0
M  V30 48589 C 4825.45 -2.95859 -3.79501 0
M  V30 48590 C 4827.81 -3.50737 -3.8553 0
M  V30 48591 C 4825.13 -4.29834 -3.99324 0
M  V30 48592 C 4827.49 -4.84401 -4.06864 0
M  V30 48593 C 4826.15 -5.24186 -4.13261 0
M  V30 48594 H 4825.42 -0.259077 -0.694234 0
M  V30 48595 H 4828.07 -1.27873 -1.4255 0
M  V30 48596 H 4826.37 -0.438589 -3.89337 0
M  V30 48597 H 4828.07 -0.828774 -3.92342 0
M  V30 48598 H 4824.66 -2.23723 -3.65576 0
M  V30 48599 H 4828.84 -3.2093 -3.78573 0
M  V30 48600 H 4824.1 -4.6021 -4.02513 0
M  V30 48601 H 4828.27 -5.57905 -4.16791 0
M  V30 48602 H 4825.9 -6.28012 -4.28374 0
M  V30 48603 N 4827.47 1.36119 -0.794317 0
M  V30 48604 C 4828.72 1.99405 -0.369522 0
M  V30 48605 C 4829.05 1.6289 1.05738 0
M  V30 48606 O 4828.33 0.886114 1.73142 0
M  V30 48607 C 4828.61 3.56044 -0.538958 0
M  V30 48608 C 4828.46 4.02397 -2.0099 0
M  V30 48609 C 4829.78 4.40079 0.0429812 0
M  V30 48610 H 4826.9 0.724392 -0.135738 0
M  V30 48611 H 4829.54 1.61458 -1.00157 0
M  V30 48612 H 4827.69 3.885 -0.000907581 0
M  V30 48613 H 4829.37 3.80406 -2.60939 0
M  V30 48614 H 4827.61 3.53756 -2.51075 0
M  V30 48615 H 4828.28 5.11337 -2.0794 0
M  V30 48616 H 4830.76 4.14012 -0.416374 0
M  V30 48617 H 4829.63 5.48798 -0.105567 0
M  V30 48618 H 4829.89 4.27268 1.13556 0
M  V30 48619 N 4828.95 0.546753 1.47812 0
M  V30 48620 C 4829.88 -0.244116 2.27896 0
M  V30 48621 C 4830.9 -0.889062 1.3638 0
M  V30 48622 O 4832.09 -0.764676 1.61292 0
M  V30 48623 C 4829.19 -1.36241 3.10309 0
M  V30 48624 C 4828.36 -0.816231 4.29717 0
M  V30 48625 C 4827.42 -1.81772 4.93807 0
M  V30 48626 O 4826.44 -1.36798 5.52517 0
M  V30 48627 N 4827.65 -3.15067 4.87558 0
M  V30 48628 H 4830.41 0.442798 2.96411 0
M  V30 48629 H 4827.97 0.382151 1.57325 0
M  V30 48630 H 4829.96 -2.0309 3.50052 0
M  V30 48631 H 4828.53 -1.95272 2.44106 0
M  V30 48632 H 4827.75 0.0287367 3.9419 0
M  V30 48633 H 4829.04 -0.43049 5.06976 0
M  V30 48634 H 4828.44 -3.54259 4.41041 0
M  V30 48635 H 4827 -3.77503 5.31352 0
M  V30 48636 N 4830.43 -1.55044 0.282687 0
M  V30 48637 C 4831.85 -1.59441 -0.0712437 0
M  V30 48638 C 4832.05 -1.29986 -1.53967 0
M  V30 48639 O 4831.1 -1.06439 -2.2897 0
M  V30 48640 C 4832.42 -2.99096 0.310209 0
M  V30 48641 C 4833.96 -3.11939 0.257453 0
M  V30 48642 C 4834.44 -4.53873 0.613457 0
M  V30 48643 N 4835.93 -4.59738 0.565295 0
M  V30 48644 C 4836.66 -5.67601 0.81346 0
M  V30 48645 N 4836.16 -6.83578 1.12664 0
M  V30 48646 N 4837.95 -5.57184 0.741749 0
M  V30 48647 H 4830.1 -1.72454 1.2399 0
M  V30 48648 H 4832.37 -0.804531 0.501431 0
M  V30 48649 H 4832.07 -3.25511 1.33174 0
M  V30 48650 H 4831.95 -3.75617 -0.345234 0
M  V30 48651 H 4834.33 -2.85284 -0.754805 0
M  V30 48652 H 4834.42 -2.37614 0.947261 0
M  V30 48653 H 4834.06 -4.81256 1.62344 0
M  V30 48654 H 4833.99 -5.26508 -0.0982249 0
M  V30 48655 H 4836.48 -3.76426 0.333426 0
M  V30 48656 H 4836.79 -7.61745 1.30246 0
M  V30 48657 H 4835.14 -6.85175 1.16449 0
M  V30 48658 H 4838.33 -4.65455 0.496869 0
M  V30 48659 H 4838.5 -6.41167 0.938531 0
M  V30 48660 N 4831.91 -0.0100904 -1.57597 0
M  V30 48661 C 4832.84 0.976782 -2.12088 0
M  V30 48662 C 4833.82 1.35187 -1.0324 0
M  V30 48663 O 4835 1.43385 -1.30975 0
M  V30 48664 C 4832.13 2.26539 -2.63244 0
M  V30 48665 C 4831.09 2.03162 -3.76708 0
M  V30 48666 C 4830.41 3.38124 -4.14218 0
M  V30 48667 C 4831.71 1.38608 -5.03572 0
M  V30 48668 H 4833.41 0.523041 -2.94796 0
M  V30 48669 H 4830.95 0.250145 -1.41811 0
M  V30 48670 H 4832.91 2.95941 -2.99994 0
M  V30 48671 H 4831.63 2.74045 -1.77671 0
M  V30 48672 H 4830.29 1.36183 -3.40367 0
M  V30 48673 H 4829.94 3.83352 -3.25654 0
M  V30 48674 H 4829.64 3.23294 -4.90667 0
M  V30 48675 H 4831.16 4.08825 -4.53536 0
M  V30 48676 H 4832.58 1.97981 -5.3803 0
M  V30 48677 H 4830.97 1.34236 -5.84894 0
M  V30 48678 H 4832.04 0.356552 -4.83587 0
M  V30 48679 N 4833.39 1.55393 0.262811 0
M  V30 48680 C 4834.32 1.91982 1.3291 0
M  V30 48681 C 4835.3 0.782853 1.51015 0
M  V30 48682 O 4836.48 1.04184 1.63888 0
M  V30 48683 C 4833.61 2.20065 2.6868 0
M  V30 48684 C 4832.57 3.35863 2.65292 0
M  V30 48685 C 4831.89 3.49449 4.04709 0
M  V30 48686 C 4833.19 4.71985 2.23668 0
M  V30 48687 H 4834.89 2.81295 1.02535 0
M  V30 48688 H 4832.43 1.35342 0.491799 0
M  V30 48689 H 4834.39 2.44249 3.43395 0
M  V30 48690 H 4833.11 1.27562 3.00659 0
M  V30 48691 H 4831.77 3.11662 1.93034 0
M  V30 48692 H 4831.42 2.54394 4.33927 0
M  V30 48693 H 4831.12 4.27311 4.03335 0
M  V30 48694 H 4832.64 3.75937 4.81148 0
M  V30 48695 H 4834.05 4.95647 2.8811 0
M  V30 48696 H 4832.45 5.52836 2.33436 0
M  V30 48697 H 4833.52 4.70119 1.18811 0
M  V30 48698 N 4834.87 -0.527781 1.485 0
M  V30 48699 C 4836.11 -1.28095 1.5632 0
M  V30 48700 C 4836.43 -1.93519 0.239849 0
M  V30 48701 O 4835.7 -1.81435 -0.738785 0
M  V30 48702 H 4834.28 -0.475772 0.57589 0
M  V30 48703 H 4836.95 -0.613987 1.84976 0
M  V30 48704 H 4836.04 -2.05908 2.34539 0
M  V30 48705 N 4836.34 -1.37125 -0.776822 0
M  V30 48706 C 4837.75 -1.28671 -1.3528 0
M  V30 48707 C 4838.11 0.0679346 -1.96082 0
M  V30 48708 O 4837.23 0.969675 -1.93459 0
M  V30 48709 C 4837.83 -2.33005 -2.45955 0
M  V30 48710 C 4836.38 -2.28202 -2.99334 0
M  V30 48711 C 4835.53 -2.17108 -1.7251 0
M  V30 48712 H 4838.48 -1.47821 -0.577475 0
M  V30 48713 H 4838.5 -1.97378 -3.25303 0
M  V30 48714 H 4838.02 -3.31587 -2.01672 0
M  V30 48715 H 4836.12 -1.33127 -3.48006 0
M  V30 48716 H 4836.23 -3.21409 -3.55293 0
M  V30 48717 H 4834.59 -1.63569 -1.95237 0
M  V30 48718 H 4835.38 -3.17596 -1.30337 0
M  V30 48719 N 4837.82 1.00242 -1.21611 0
M  V30 48720 C 4838.75 2.0924 -0.935475 0
M  V30 48721 C 4839.77 1.62592 0.0823023 0
M  V30 48722 O 4840.96 1.77864 -0.150518 0
M  V30 48723 C 4838.06 3.36722 -0.383571 0
M  V30 48724 C 4837.23 4.12445 -1.4563 0
M  V30 48725 C 4836.29 5.18216 -0.913173 0
M  V30 48726 O 4835.31 5.46331 -1.5972 0
M  V30 48727 N 4836.52 5.7987 0.270275 0
M  V30 48728 H 4839.28 2.33898 -1.87381 0
M  V30 48729 H 4836.84 1.16744 -1.12171 0
M  V30 48730 H 4838.83 4.047 -0.00576384 0
M  V30 48731 H 4837.4 3.09202 0.459649 0
M  V30 48732 H 4836.62 3.39234 -2.00784 0
M  V30 48733 H 4837.91 4.59811 -2.17833 0
M  V30 48734 H 4837.31 5.59384 0.842999 0
M  V30 48735 H 4835.87 6.49128 0.589566 0
M  V30 48736 N 4839.3 1.02428 1.19776 0
M  V30 48737 C 4840.72 0.740509 1.41381 0
M  V30 48738 C 4840.92 -0.67676 1.89795 0
M  V30 48739 O 4839.97 -1.44342 2.07175 0
M  V30 48740 C 4841.28 1.77273 2.42889 0
M  V30 48741 C 4842.83 1.79174 2.56643 0
M  V30 48742 C 4843.31 2.81343 3.614 0
M  V30 48743 N 4844.8 2.80131 3.68892 0
M  V30 48744 C 4845.53 3.5584 4.49628 0
M  V30 48745 N 4845.03 4.4125 5.34107 0
M  V30 48746 N 4846.82 3.44402 4.44234 0
M  V30 48747 H 4838.97 1.93913 0.866696 0
M  V30 48748 H 4841.24 0.83809 0.443069 0
M  V30 48749 H 4840.94 2.78847 2.14329 0
M  V30 48750 H 4840.82 1.5912 3.41995 0
M  V30 48751 H 4843.2 0.782802 2.84528 0
M  V30 48752 H 4843.28 2.01401 1.57706 0
M  V30 48753 H 4842.93 3.82406 3.34258 0
M  V30 48754 H 4842.86 2.56376 4.59977 0
M  V30 48755 H 4845.35 2.18181 3.08554 0
M  V30 48756 H 4845.66 4.95768 5.92819 0
M  V30 48757 H 4844.01 4.45324 5.33583 0
M  V30 48758 H 4847.2 2.77093 3.77276 0
M  V30 48759 H 4847.37 4.03658 5.06917 0
M  V30 48760 N 4840.78 -1.35696 0.801525 0
M  V30 48761 C 4842.02 -1.99206 0.380092 0
M  V30 48762 C 4842.36 -1.63449 -1.04872 0
M  V30 48763 O 4841.63 -0.895284 -1.7267 0
M  V30 48764 C 4841.91 -3.55753 0.557833 0
M  V30 48765 C 4841.77 -4.01325 2.03121 0
M  V30 48766 C 4843.09 -4.40096 -0.0196421 0
M  V30 48767 H 4840.21 -0.723662 0.139578 0
M  V30 48768 H 4842.85 -1.60924 1.01012 0
M  V30 48769 H 4841 -3.88494 0.0215107 0
M  V30 48770 H 4842.67 -3.79017 2.62953 0
M  V30 48771 H 4840.91 -3.5242 2.52948 0
M  V30 48772 H 4841.58 -5.10227 2.10648 0
M  V30 48773 H 4844.06 -4.13785 0.438324 0
M  V30 48774 H 4842.94 -5.48735 0.134669 0
M  V30 48775 H 4843.2 -4.27864 -1.11288 0
M  V30 48776 N 4842.26 -0.554584 -1.4752 0
M  V30 48777 C 4843.5 -0.0295502 -2.02478 0
M  V30 48778 C 4843.83 1.31924 -1.42921 0
M  V30 48779 O 4843.09 1.8711 -0.573451 0
M  V30 48780 C 4843.38 0.115802 -3.57212 0
M  V30 48781 C 4843.05 -1.16176 -4.35676 0
M  V30 48782 C 4841.71 -1.51184 -4.56834 0
M  V30 48783 C 4844.06 -2.00847 -4.80947 0
M  V30 48784 C 4841.39 -2.70714 -5.2051 0
M  V30 48785 C 4843.74 -3.19578 -5.45942 0
M  V30 48786 C 4842.41 -3.54902 -5.65332 0
M  V30 48787 H 4841.68 -0.0108132 -0.740921 0
M  V30 48788 H 4844.33 -0.725568 -1.77222 0
M  V30 48789 H 4842.63 0.894768 -3.81446 0
M  V30 48790 H 4844.33 0.53735 -3.97383 0
M  V30 48791 H 4840.92 -0.879173 -4.19486 0
M  V30 48792 H 4845.1 -1.75109 -4.64382 0
M  V30 48793 H 4840.36 -2.98254 -5.33717 0
M  V30 48794 H 4844.53 -3.85476 -5.79984 0
M  V30 48795 H 4842.16 -4.47618 -6.14445 0
M  V30 48796 N 4843.73 1.54892 -0.290906 0
M  V30 48797 C 4845.01 1.91993 0.373922 0
M  V30 48798 C 4845.39 1.217 1.72488 0
M  V30 48799 O 4844.74 0.349249 2.25815 0
M  V30 48800 C 4844.95 3.4542 0.498581 0
M  V30 48801 C 4846.3 4.17483 0.774152 0
M  V30 48802 O 4847.32 3.514 0.582784 0
M  V30 48803 O 4846.18 5.34454 1.14111 0
M  V30 48804 H 4843.27 0.800601 0.207287 0
M  V30 48805 H 4845.82 1.66295 -0.338222 0
M  V30 48806 H 4844.59 3.88686 -0.451529 0
M  V30 48807 H 4844.21 3.77121 1.25958 0
M  V30 48808 N 4845.21 0.018448 1.57589 0
M  V30 48809 C 4846.14 -0.965521 2.12603 0
M  V30 48810 C 4847.12 -1.34638 1.03955 0
M  V30 48811 O 4848.31 -1.42688 1.31734 0
M  V30 48812 C 4845.44 -2.2514 2.64441 0
M  V30 48813 C 4844.39 -2.01161 3.77781 0
M  V30 48814 C 4843.72 -3.35922 4.16005 0
M  V30 48815 C 4845.02 -1.35935 5.043 0
M  V30 48816 H 4846.71 -0.5074 2.95069 0
M  V30 48817 H 4844.26 -0.242621 1.41941 0
M  V30 48818 H 4846.21 -2.94346 3.0156 0
M  V30 48819 H 4844.93 -2.73099 1.79122 0
M  V30 48820 H 4843.59 -1.34376 3.41085 0
M  V30 48821 H 4843.24 -3.81619 3.27682 0
M  V30 48822 H 4842.94 -3.20688 4.92375 0
M  V30 48823 H 4844.47 -4.06414 4.55697 0
M  V30 48824 H 4845.88 -1.95125 5.39072 0
M  V30 48825 H 4844.28 -1.31132 5.85598 0
M  V30 48826 H 4845.35 -0.330901 4.8377 0
M  V30 48827 N 4846.69 -1.5553 -0.254567 0
M  V30 48828 C 4847.62 -1.86109 -1.33777 0
M  V30 48829 C 4848.63 -0.746802 -1.44661 0
M  V30 48830 O 4849.82 -1.02485 -1.46148 0
M  V30 48831 C 4846.92 -2.02541 -2.71717 0
M  V30 48832 C 4846.1 -3.33345 -2.83196 0
M  V30 48833 C 4845.16 -3.39614 -4.01931 0
M  V30 48834 O 4844.18 -4.12875 -3.9182 0
M  V30 48835 N 4845.38 -2.6835 -5.14751 0
M  V30 48836 H 4848.15 -2.79609 -1.07884 0
M  V30 48837 H 4845.71 -1.55673 -0.444677 0
M  V30 48838 H 4847.7 -2.04086 -3.49473 0
M  V30 48839 H 4846.27 -1.15822 -2.90352 0
M  V30 48840 H 4845.49 -3.44182 -1.92177 0
M  V30 48841 H 4846.78 -4.19575 -2.8781 0
M  V30 48842 H 4846.18 -2.08546 -5.25856 0
M  V30 48843 H 4844.73 -2.75596 -5.90669 0
M  V30 48844 N 4848.17 0.519898 -1.48778 0
M  V30 48845 C 4849.1 1.63967 -1.60148 0
M  V30 48846 C 4850.11 1.55402 -0.485172 0
M  V30 48847 O 4851.3 1.61679 -0.756448 0
M  V30 48848 C 4848.4 3.0267 -1.52459 0
M  V30 48849 C 4847.57 3.36614 -2.79303 0
M  V30 48850 C 4846.63 4.54642 -2.64928 0
M  V30 48851 O 4845.66 4.57362 -3.38834 0
M  V30 48852 N 4846.86 5.53426 -1.75214 0
M  V30 48853 H 4849.63 1.54647 -2.56719 0
M  V30 48854 H 4847.19 0.707388 -1.45628 0
M  V30 48855 H 4849.18 3.7952 -1.40524 0
M  V30 48856 H 4847.75 3.06015 -0.638233 0
M  V30 48857 H 4846.97 2.48844 -3.05729 0
M  V30 48858 H 4848.26 3.56082 -3.63433 0
M  V30 48859 H 4847.66 5.54014 -1.14391 0
M  V30 48860 H 4846.21 6.29453 -1.69212 0
M  V30 48861 N 4849.65 1.37535 0.769539 0
M  V30 48862 C 4850.59 1.33567 1.90427 0
M  V30 48863 C 4851.59 0.224086 1.67911 0
M  V30 48864 O 4852.79 0.392236 1.75674 0
M  V30 48865 H 4849.17 0.416301 0.626257 0
M  V30 48866 H 4851.14 2.29354 1.9089 0
M  V30 48867 C 4849.89 1.16173 3.27718 0
M  V30 48868 H 4849.21 2.00963 3.45621 0
M  V30 48869 H 4850.65 1.17448 4.07409 0
M  V30 48870 C 4849.11 -0.132465 3.36639 0
M  V30 48871 O 4849.64 -1.11525 3.85908 0
M  V30 48872 N 4847.85 -0.183911 2.90017 0
M  V30 48873 H 4847.39 0.616503 2.50114 0
M  V30 48874 H 4847.35 -1.04946 2.96368 0
M  V30 48875 N 4851.12 -0.995956 1.22141 0
M  V30 48876 C 4852.05 -2.10383 1.01297 0
M  V30 48877 C 4853.04 -1.69975 -0.0650856 0
M  V30 48878 O 4854.22 -1.9396 0.096531 0
M  V30 48879 C 4851.35 -3.4231 0.586638 0
M  V30 48880 C 4850.3 -3.96553 1.61028 0
M  V30 48881 C 4849.63 -5.24491 1.03989 0
M  V30 48882 C 4850.93 -4.27585 2.99948 0
M  V30 48883 H 4852.62 -2.28079 1.93959 0
M  V30 48884 H 4850.17 -1.09604 0.933966 0
M  V30 48885 H 4852.12 -4.19221 0.427941 0
M  V30 48886 H 4850.85 -3.24433 -0.375647 0
M  V30 48887 H 4849.51 -3.2177 1.7567 0
M  V30 48888 H 4849.15 -5.02953 0.0690471 0
M  V30 48889 H 4848.85 -5.61749 1.72372 0
M  V30 48890 H 4850.38 -6.04039 0.892707 0
M  V30 48891 H 4851.79 -4.95305 2.88697 0
M  V30 48892 H 4850.19 -4.76008 3.65427 0
M  V30 48893 H 4851.26 -3.35485 3.50111 0
M  V30 48894 N 4852.6 -1.03061 -1.19231 0
M  V30 48895 C 4853.85 -0.726647 -1.88585 0
M  V30 48896 C 4854.17 0.747164 -1.80118 0
M  V30 48897 O 4853.44 1.53845 -1.21279 0
M  V30 48898 H 4852.02 -0.265792 -0.698114 0
M  V30 48899 H 4854.68 -1.30522 -1.44742 0
M  V30 48900 H 4853.78 -1.0225 -2.94875 0
M  V30 48901 N 4854.08 1.35269 -0.80871 0
M  V30 48902 C 4855.31 2.03476 -0.401547 0
M  V30 48903 C 4855.73 1.60541 0.980222 0
M  V30 48904 O 4855.09 0.783097 1.63515 0
M  V30 48905 C 4855.14 3.5718 -0.495479 0
M  V30 48906 O 4854.24 4.09476 0.490253 0
M  V30 48907 H 4853.58 0.642555 -0.167388 0
M  V30 48908 H 4856.11 1.7282 -1.09518 0
M  V30 48909 H 4856.12 4.06355 -0.366055 0
M  V30 48910 H 4854.8 3.87779 -1.50334 0
M  V30 48911 H 4853.37 3.71517 0.320893 0
M  V30 48912 N 4855.56 0.5624 1.47224 0
M  V30 48913 C 4856.8 0.0403474 2.0276 0
M  V30 48914 C 4857.14 -1.30818 1.43528 0
M  V30 48915 O 4856.41 -1.85247 0.59277 0
M  V30 48916 C 4856.7 -0.0471844 3.60069 0
M  V30 48917 C 4856.55 1.32881 4.29724 0
M  V30 48918 C 4857.87 -0.75803 4.33523 0
M  V30 48919 H 4854.99 0.0161364 0.736823 0
M  V30 48920 H 4857.63 0.725689 1.75595 0
M  V30 48921 H 4855.78 -0.630851 3.83344 0
M  V30 48922 H 4857.45 1.95608 4.17774 0
M  V30 48923 H 4855.69 1.90209 3.89876 0
M  V30 48924 H 4856.36 1.22023 5.38344 0
M  V30 48925 H 4858.84 -0.2624 4.15272 0
M  V30 48926 H 4857.72 -0.78825 5.43211 0
M  V30 48927 H 4857.98 -1.81523 4.03115 0
M  V30 48928 N 4857.04 -1.54735 0.299116 0
M  V30 48929 C 4857.98 -2.24899 -0.593579 0
M  V30 48930 C 4858.98 -1.25433 -1.13854 0
M  V30 48931 O 4860.18 -1.4329 -1.0894 0
M  V30 48932 H 4856.56 -0.722077 -0.210021 0
M  V30 48933 H 4858.53 -2.98393 0.020747 0
M  V30 48934 C 4857.28 -3.00165 -1.75488 0
M  V30 48935 H 4856.6 -3.76505 -1.34476 0
M  V30 48936 H 4858.04 -3.52543 -2.35561 0
M  V30 48937 C 4856.5 -2.07024 -2.65787 0
M  V30 48938 O 4857.03 -1.63705 -3.66829 0
M  V30 48939 N 4855.24 -1.7302 -2.33479 0
M  V30 48940 H 4854.78 -2.08444 -1.51357 0
M  V30 48941 H 4854.74 -1.10975 -2.94163 0
M  V30 48942 N 4858.51 -0.0268051 -1.57577 0
M  V30 48943 C 4859.76 0.653303 -1.91989 0
M  V30 48944 C 4860.09 1.71912 -0.903324 0
M  V30 48945 O 4859.37 1.94358 0.0742703 0
M  V30 48946 C 4859.65 1.27188 -3.36891 0
M  V30 48947 C 4859.5 0.21578 -4.49282 0
M  V30 48948 C 4860.82 2.19055 -3.8171 0
M  V30 48949 H 4857.94 0.236023 -0.698185 0
M  V30 48950 H 4860.58 -0.0835904 -1.89816 0
M  V30 48951 H 4858.73 1.89993 -3.38873 0
M  V30 48952 H 4860.41 -0.414652 -4.59433 0
M  V30 48953 H 4858.65 -0.459007 -4.31365 0
M  V30 48954 H 4859.32 0.688155 -5.47694 0
M  V30 48955 H 4861.8 1.66239 -3.81449 0
M  V30 48956 H 4860.67 2.5929 -4.83797 0
M  V30 48957 H 4860.93 3.08076 -3.17083 0
M  V30 48958 N 4859.99 1.55663 0.246315 0
M  V30 48959 C 4861.22 1.81918 0.996029 0
M  V30 48960 C 4861.64 0.603937 1.78141 0
M  V30 48961 O 4861 -0.447029 1.75702 0
M  V30 48962 C 4861.05 3.05915 1.90914 0
M  V30 48963 O 4860.15 2.82872 3.00096 0
M  V30 48964 H 4859.49 0.600491 0.283385 0
M  V30 48965 H 4862.02 2.02849 0.267127 0
M  V30 48966 H 4862.03 3.35364 2.32368 0
M  V30 48967 H 4860.71 3.94004 1.33169 0
M  V30 48968 H 4859.29 2.64592 2.62765 0
M  V30 48969 N 4861.47 -0.512001 1.49051 0
M  V30 48970 C 4862.7 -1.2911 1.61673 0
M  V30 48971 C 4863.11 -1.86654 0.283853 0
M  V30 48972 O 4862.47 -1.67296 -0.729272 0
M  V30 48973 C 4862.52 -2.42921 2.67716 0
M  V30 48974 O 4862.24 -1.87744 3.95833 0
M  V30 48975 C 4863.74 -3.34466 2.90942 0
M  V30 48976 H 4860.96 -0.39199 0.544596 0
M  V30 48977 H 4863.51 -0.615812 1.95008 0
M  V30 48978 H 4861.66 -3.063 2.3719 0
M  V30 48979 H 4862.08 -2.62377 4.54157 0
M  V30 48980 H 4863.55 -4.10629 3.689 0
M  V30 48981 H 4864.03 -3.90794 2.0044 0
M  V30 48982 H 4864.63 -2.76863 3.22842 0
M  V30 48983 N 4862.95 -1.37941 -0.762235 0
M  V30 48984 C 4864.2 -1.3341 -1.5181 0
M  V30 48985 C 4864.52 0.078029 -1.94844 0
M  V30 48986 O 4863.79 1.02399 -1.67007 0
M  V30 48987 H 4862.37 -0.490859 -0.563087 0
M  V30 48988 H 4865.03 -1.7253 -0.906608 0
M  V30 48989 H 4864.13 -1.97934 -2.41306 0
M  V30 48990 N 4864.43 0.989464 -1.22668 0
M  V30 48991 C 4865.67 1.74466 -1.06494 0
M  V30 48992 C 4866.03 1.87942 0.392671 0
M  V30 48993 O 4867.23 2.60178 0.675354 0
M  V30 48994 C 4865.5 3.11037 -1.76042 0
M  V30 48995 S 4867.06 4.02252 -1.75324 0
M  V30 48996 H 4863.88 0.60011 -0.381299 0
M  V30 48997 H 4866.48 1.18277 -1.55662 0
M  V30 48998 H 4865.19 2.98874 -2.81252 0
M  V30 48999 H 4864.72 3.72296 -1.27118 0
M  V30 49000 H 4866.73 4.8962 -0.80538 0
M  V30 49001 N 4865.91 1.03692 1.18683 0
M  V30 49002 C 4866.87 0.629192 2.20395 0
M  V30 49003 C 4867.87 -0.311439 1.57755 0
M  V30 49004 O 4869.06 -0.0973495 1.73928 0
M  V30 49005 C 4866.19 -0.0781033 3.40811 0
M  V30 49006 H 4867.38 1.52924 2.57981 0
M  V30 49007 H 4864.94 0.829035 1.32502 0
M  V30 49008 H 4865.67 -0.992124 3.08751 0
M  V30 49009 H 4865.46 0.597913 3.87514 0
M  V30 49010 H 4866.95 -0.350009 4.16131 0
M  V30 49011 N 4867.38 -1.34838 0.815872 0
M  V30 49012 C 4868.79 -1.80935 0.460353 0
M  V30 49013 C 4869.15 -1.67689 -1.01857 0
M  V30 49014 O 4868.27 -1.21283 -1.79219 0
M  V30 49015 C 4868.87 -3.28506 0.828824 0
M  V30 49016 C 4867.42 -3.7271 0.525775 0
M  V30 49017 C 4866.57 -2.56673 1.0495 0
M  V30 49018 H 4869.52 -1.22685 1.00668 0
M  V30 49019 H 4869.54 -3.80278 0.12989 0
M  V30 49020 H 4869.06 -3.38115 1.90525 0
M  V30 49021 H 4867.16 -3.68644 -0.541537 0
M  V30 49022 H 4867.27 -4.67115 1.0649 0
M  V30 49023 H 4865.63 -2.503 0.471374 0
M  V30 49024 H 4866.42 -2.69055 2.13223 0
M  V30 49025 N 4868.86 -0.570199 -1.46923 0
M  V30 49026 C 4869.82 0.159852 -2.28642 0
M  V30 49027 C 4870.82 0.83059 -1.37688 0
M  V30 49028 O 4872.01 0.684459 -1.6019 0
M  V30 49029 C 4869.15 1.23529 -3.17732 0
M  V30 49030 H 4870.34 -0.558139 -2.94661 0
M  V30 49031 H 4867.89 -0.327657 -1.52827 0
M  V30 49032 H 4868.63 1.98526 -2.56433 0
M  V30 49033 H 4868.41 0.75899 -3.84684 0
M  V30 49034 H 4869.9 1.74768 -3.7927 0
M  V30 49035 N 4870.34 1.54575 -0.307318 0
M  V30 49036 C 4871.27 2.2671 0.55899 0
M  V30 49037 C 4872.25 1.26897 1.13275 0
M  V30 49038 O 4873.44 1.55681 1.16091 0
M  V30 49039 C 4870.57 3.01265 1.72791 0
M  V30 49040 C 4869.52 4.08279 1.28421 0
M  V30 49041 C 4868.85 4.70584 2.53879 0
M  V30 49042 C 4870.15 5.20682 0.410855 0
M  V30 49043 H 4871.84 2.9937 -0.0426812 0
M  V30 49044 H 4869.39 1.43983 -0.0219679 0
M  V30 49045 H 4871.34 3.50453 2.34011 0
M  V30 49046 H 4870.06 2.26195 2.35592 0
M  V30 49047 H 4868.72 3.59951 0.695035 0
M  V30 49048 H 4868.37 3.92147 3.15008 0
M  V30 49049 H 4868.07 5.42862 2.24889 0
M  V30 49050 H 4869.59 5.22538 3.1589 0
M  V30 49051 H 4871.01 5.65725 0.928898 0
M  V30 49052 H 4869.4 5.99717 0.214454 0
M  V30 49053 H 4870.47 4.81627 -0.562457 0
M  V30 49054 N 4871.82 0.0351614 1.57561 0
M  V30 49055 C 4872.75 -0.973531 2.07497 0
M  V30 49056 C 4873.76 -1.285 0.99958 0
M  V30 49057 O 4874.95 -1.24859 1.27563 0
M  V30 49058 C 4872.05 -2.29936 2.48963 0
M  V30 49059 C 4871.22 -2.17217 3.79652 0
M  V30 49060 C 4870.28 -3.32785 4.07603 0
M  V30 49061 O 4869.31 -3.09402 4.77765 0
M  V30 49062 N 4870.51 -4.56766 3.58252 0
M  V30 49063 H 4873.28 -0.547421 2.94658 0
M  V30 49064 H 4870.84 -0.151458 1.6119 0
M  V30 49065 H 4872.83 -3.06087 2.6475 0
M  V30 49066 H 4871.4 -2.64167 1.67136 0
M  V30 49067 H 4870.62 -1.25755 3.73603 0
M  V30 49068 H 4871.91 -2.05929 4.65264 0
M  V30 49069 H 4871.31 -4.78657 3.01502 0
M  V30 49070 H 4869.86 -5.30066 3.79307 0
M  V30 49071 N 4873.3 -1.55792 -0.238056 0
M  V30 49072 C 4874.26 -1.90243 -1.27828 0
M  V30 49073 C 4875.26 -0.779601 -1.40637 0
M  V30 49074 O 4876.45 -1.04752 -1.39186 0
M  V30 49075 C 4873.58 -2.13869 -2.65467 0
M  V30 49076 H 4874.77 -2.83265 -0.984934 0
M  V30 49077 H 4872.33 -1.4882 -0.477746 0
M  V30 49078 H 4873.06 -1.23345 -2.99928 0
M  V30 49079 H 4872.85 -2.95652 -2.5755 0
M  V30 49080 H 4874.34 -2.41676 -3.40562 0
M  V30 49081 N 4874.77 0.504089 -1.49321 0
M  V30 49082 C 4875.71 1.62259 -1.61878 0
M  V30 49083 C 4876.72 1.54879 -0.501627 0
M  V30 49084 O 4877.91 1.60868 -0.773553 0
M  V30 49085 C 4875.01 3.01036 -1.55661 0
M  V30 49086 C 4874.18 3.33633 -2.82857 0
M  V30 49087 C 4873.24 4.51807 -2.69735 0
M  V30 49088 O 4872.27 4.53743 -3.43666 0
M  V30 49089 N 4873.47 5.51536 -1.81074 0
M  V30 49090 H 4876.23 1.51915 -2.58344 0
M  V30 49091 H 4873.79 0.691902 -1.46371 0
M  V30 49092 H 4875.79 3.78008 -1.44541 0
M  V30 49093 H 4874.36 3.05321 -0.670654 0
M  V30 49094 H 4873.58 2.45587 -3.08351 0
M  V30 49095 H 4874.86 3.52207 -3.67189 0
M  V30 49096 H 4874.26 5.52769 -1.2026 0
M  V30 49097 H 4872.82 6.27623 -1.75878 0
M  V30 49098 N 4876.25 1.38343 0.754909 0
M  V30 49099 C 4877.48 1.3771 1.54414 0
M  V30 49100 C 4877.89 -0.0334579 1.8877 0
M  V30 49101 O 4877.25 -0.99972 1.52682 0
M  V30 49102 C 4877.3 2.23146 2.84408 0
M  V30 49103 O 4877.02 3.58706 2.51518 0
M  V30 49104 C 4878.52 2.30678 3.78553 0
M  V30 49105 H 4875.74 0.471078 0.477835 0
M  V30 49106 H 4878.29 1.81905 0.934382 0
M  V30 49107 H 4876.44 1.82415 3.41765 0
M  V30 49108 H 4876.86 4.03676 3.34882 0
M  V30 49109 H 4878.33 2.94746 4.66721 0
M  V30 49110 H 4878.81 1.32005 4.18893 0
M  V30 49111 H 4879.41 2.71793 3.27122 0
M  V30 49112 N 4877.73 -0.982945 1.23191 0
M  V30 49113 C 4879.14 -1.53844 1.05778 0
M  V30 49114 C 4879.49 -1.9257 -0.375676 0
M  V30 49115 O 4878.62 -1.75787 -1.26205 0
M  V30 49116 C 4879.21 -2.7956 1.91394 0
M  V30 49117 C 4877.77 -3.31518 1.7825 0
M  V30 49118 C 4876.92 -2.04528 1.87253 0
M  V30 49119 H 4879.87 -0.802914 1.3689 0
M  V30 49120 H 4879.89 -3.52312 1.43723 0
M  V30 49121 H 4879.4 -2.51343 2.95717 0
M  V30 49122 H 4877.5 -3.6462 0.767004 0
M  V30 49123 H 4877.62 -4.01448 2.61489 0
M  V30 49124 H 4875.98 -2.18546 1.30805 0
M  V30 49125 H 4876.76 -1.78695 2.93126 0
M  V30 49126 N 4879.21 -1.0432 -1.18132 0
M  V30 49127 C 4880.46 -0.746608 -1.87804 0
M  V30 49128 C 4880.78 0.728018 -1.809 0
M  V30 49129 O 4880.05 1.5255 -1.22904 0
M  V30 49130 H 4878.63 -0.273182 -0.695256 0
M  V30 49131 H 4881.29 -1.32049 -1.43349 0
M  V30 49132 H 4880.39 -1.05372 -2.93774 0
M  V30 49133 N 4880.69 1.34403 -0.823012 0
M  V30 49134 C 4881.62 2.32051 -0.25969 0
M  V30 49135 C 4882.6 1.58245 0.623905 0
M  V30 49136 O 4883.78 1.86226 0.550765 0
M  V30 49137 C 4880.91 3.42436 0.579194 0
M  V30 49138 C 4879.87 4.27498 -0.207271 0
M  V30 49139 C 4879.19 5.29352 0.75436 0
M  V30 49140 C 4880.49 5.02753 -1.41551 0
M  V30 49141 H 4882.19 2.79414 -1.07555 0
M  V30 49142 H 4879.73 1.34336 -0.51864 0
M  V30 49143 H 4881.69 4.09763 0.983468 0
M  V30 49144 H 4880.41 2.93722 1.4281 0
M  V30 49145 H 4879.07 3.61774 -0.592914 0
M  V30 49146 H 4878.72 4.769 1.59923 0
M  V30 49147 H 4878.42 5.8714 0.232355 0
M  V30 49148 H 4879.94 5.99548 1.15649 0
M  V30 49149 H 4881.35 5.62935 -1.08524 0
M  V30 49150 H 4879.75 5.70116 -1.87316 0
M  V30 49151 H 4880.82 4.32443 -2.19365 0
M  V30 49152 N 4882.16 0.577983 1.46619 0
M  V30 49153 C 4883.41 0.061637 2.02006 0
M  V30 49154 C 4883.73 -1.30112 1.45244 0
M  V30 49155 O 4883 -1.85311 0.635355 0
M  V30 49156 H 4881.58 0.0197954 0.746738 0
M  V30 49157 H 4884.25 0.752694 1.79779 0
M  V30 49158 H 4883.34 -0.0109141 3.12098 0
M  V30 49159 N 4883.64 -1.54409 0.315511 0
M  V30 49160 C 4885.05 -1.85886 -0.1742 0
M  V30 49161 C 4885.4 -1.23728 -1.52269 0
M  V30 49162 O 4884.53 -0.54032 -2.09546 0
M  V30 49163 C 4885.12 -3.37258 -0.322862 0
M  V30 49164 C 4883.68 -3.68713 -0.756793 0
M  V30 49165 C 4882.83 -2.77012 0.126292 0
M  V30 49166 H 4885.78 -1.49372 0.53606 0
M  V30 49167 H 4885.8 -3.62543 -1.1551 0
M  V30 49168 H 4885.31 -3.82469 0.658736 0
M  V30 49169 H 4883.42 -3.2903 -1.74842 0
M  V30 49170 H 4883.53 -4.75743 -0.566123 0
M  V30 49171 H 4881.89 -2.5159 -0.396831 0
M  V30 49172 H 4882.68 -3.25047 1.10451 0
M  V30 49173 N 4885.12 -0.0435168 -1.5754 0
M  V30 49174 C 4886.54 0.312984 -1.56501 0
M  V30 49175 C 4886.74 1.71951 -1.05049 0
M  V30 49176 O 4885.79 2.42497 -0.703649 0
M  V30 49177 C 4887.11 0.148438 -3.00333 0
M  V30 49178 C 4888.65 0.220121 -3.12225 0
M  V30 49179 C 4889.13 0.0841955 -4.57923 0
M  V30 49180 N 4890.62 0.140719 -4.62986 0
M  V30 49181 C 4891.35 0.0595427 -5.73369 0
M  V30 49182 N 4890.85 -0.0735439 -6.92761 0
M  V30 49183 N 4892.64 0.114572 -5.61983 0
M  V30 49184 H 4884.79 -0.963096 -1.8931 0
M  V30 49185 H 4887.06 -0.373195 -0.871453 0
M  V30 49186 H 4886.76 -0.821014 -3.41983 0
M  V30 49187 H 4886.64 0.912669 -3.65992 0
M  V30 49188 H 4889.02 1.18004 -2.70479 0
M  V30 49189 H 4889.11 -0.574734 -2.4926 0
M  V30 49190 H 4888.75 -0.872368 -5.00352 0
M  V30 49191 H 4888.68 0.898098 -5.18885 0
M  V30 49192 H 4891.17 0.24314 -3.77117 0
M  V30 49193 H 4891.48 -0.1284 -7.72693 0
M  V30 49194 H 4889.83 -0.108524 -6.94915 0
M  V30 49195 H 4893.02 0.217047 -4.67597 0
M  V30 49196 H 4893.19 0.0478501 -6.47982 0
M  V30 49197 N 4886.6 1.55916 0.229791 0
M  V30 49198 C 4887.85 1.78193 0.953502 0
M  V30 49199 C 4888.17 0.610569 1.85195 0
M  V30 49200 O 4887.44 -0.372921 1.92318 0
M  V30 49201 H 4886.02 0.65722 0.355064 0
M  V30 49202 H 4888.68 1.93371 0.243625 0
M  V30 49203 H 4887.78 2.70016 1.56517 0
M  V30 49204 N 4888.08 -0.496163 1.49586 0
M  V30 49205 C 4889.01 -1.6057 1.69527 0
M  V30 49206 C 4889.99 -1.61167 0.54399 0
M  V30 49207 O 4891.17 -1.77831 0.780372 0
M  V30 49208 C 4888.3 -2.99032 1.76627 0
M  V30 49209 C 4887.26 -3.13301 2.91592 0
M  V30 49210 C 4886.58 -4.53162 2.8381 0
M  V30 49211 C 4887.88 -2.92871 4.32462 0
M  V30 49212 H 4889.58 -1.44137 2.62421 0
M  V30 49213 H 4887.12 -0.691979 1.26284 0
M  V30 49214 H 4889.08 -3.76557 1.89163 0
M  V30 49215 H 4887.8 -3.16566 0.803352 0
M  V30 49216 H 4886.46 -2.38203 2.78666 0
M  V30 49217 H 4886.11 -4.67579 1.85416 0
M  V30 49218 H 4885.81 -4.6365 3.60975 0
M  V30 49219 H 4887.33 -5.32741 2.98361 0
M  V30 49220 H 4888.74 -3.60162 4.46045 0
M  V30 49221 H 4887.14 -3.14826 5.10886 0
M  V30 49222 H 4888.21 -1.8895 4.46571 0
M  V30 49223 N 4889.55 -1.38742 -0.747561 0
M  V30 49224 C 4890.49 -1.32348 -1.87128 0
M  V30 49225 C 4891.5 -0.234559 -1.61101 0
M  V30 49226 O 4892.69 -0.492576 -1.71569 0
M  V30 49227 C 4889.79 -1.02926 -3.22892 0
M  V30 49228 C 4888.96 -2.22847 -3.76375 0
M  V30 49229 C 4888.02 -1.90076 -4.9067 0
M  V30 49230 O 4887.05 -2.62633 -5.04988 0
M  V30 49231 N 4888.25 -0.859343 -5.74104 0
M  V30 49232 H 4891.01 -2.29182 -1.93121 0
M  V30 49233 H 4888.57 -1.32681 -0.927758 0
M  V30 49234 H 4890.57 -0.790449 -3.96906 0
M  V30 49235 H 4889.14 -0.148682 -3.12246 0
M  V30 49236 H 4888.36 -2.62757 -2.93858 0
M  V30 49237 H 4889.64 -3.02865 -4.0884 0
M  V30 49238 H 4889.04 -0.257762 -5.65112 0
M  V30 49239 H 4887.6 -0.680417 -6.48239 0
M  V30 49240 N 4891.03 0.976398 -1.2371 0
M  V30 49241 C 4892 2.05106 -1.02294 0
M  V30 49242 C 4893 1.60791 0.0166629 0
M  V30 49243 O 4894.19 1.72761 -0.223469 0
M  V30 49244 C 4891.32 3.36456 -0.548625 0
M  V30 49245 H 4892.51 2.25538 -1.97668 0
M  V30 49246 H 4890.06 1.15039 -1.0581 0
M  V30 49247 H 4890.8 3.21714 0.408705 0
M  V30 49248 H 4890.58 3.69962 -1.29887 0
M  V30 49249 H 4892.07 4.15487 -0.419552 0
M  V30 49250 N 4892.51 1.04945 1.17577 0
M  V30 49251 C 4893.74 0.778362 1.91701 0
M  V30 49252 C 4894.15 -0.665635 1.76677 0
M  V30 49253 O 4893.51 -1.45452 1.10227 0
M  V30 49254 C 4893.56 1.1464 3.42841 0
M  V30 49255 O 4893.28 2.53371 3.574 0
M  V30 49256 C 4894.78 0.901083 4.34045 0
M  V30 49257 H 4892 0.283188 0.608314 0
M  V30 49258 H 4894.55 1.39947 1.49114 0
M  V30 49259 H 4892.7 0.570087 3.83182 0
M  V30 49260 H 4893.12 2.67725 4.51025 0
M  V30 49261 H 4894.59 1.20836 5.38612 0
M  V30 49262 H 4895.07 -0.163812 4.38894 0
M  V30 49263 H 4895.67 1.46112 3.99414 0
M  V30 49264 N 4893.99 -1.33965 0.830128 0
M  V30 49265 C 4894.95 -2.27693 0.26243 0
M  V30 49266 C 4895.95 -1.50591 -0.563823 0
M  V30 49267 O 4897.14 -1.7003 -0.378881 0
M  V30 49268 C 4894.27 -3.35004 -0.631262 0
M  V30 49269 H 4895.47 -2.79415 1.08938 0
M  V30 49270 H 4893.02 -1.44219 0.602537 0
M  V30 49271 H 4893.76 -2.88509 -1.48099 0
M  V30 49272 H 4893.54 -3.92079 -0.0401897 0
M  V30 49273 H 4895.03 -4.049 -1.02203 0
M  V30 49274 N 4895.47 -0.585751 -1.4631 0
M  V30 49275 C 4896.88 -0.247662 -1.57667 0
M  V30 49276 C 4897.08 1.25001 -1.58041 0
M  V30 49277 O 4896.14 2.0319 -1.499 0
M  V30 49278 C 4897.45 -0.899557 -2.86929 0
M  V30 49279 C 4899 -0.873431 -3.00566 0
M  V30 49280 C 4899.48 -1.50492 -4.32569 0
M  V30 49281 N 4900.97 -1.46941 -4.39275 0
M  V30 49282 C 4901.7 -1.92738 -5.40037 0
M  V30 49283 N 4901.2 -2.46522 -6.47456 0
M  V30 49284 N 4902.99 -1.83636 -5.31257 0
M  V30 49285 H 4895.14 -1.55846 -1.44312 0
M  V30 49286 H 4897.4 -0.651589 -0.688576 0
M  V30 49287 H 4897.11 -1.95323 -2.92475 0
M  V30 49288 H 4896.98 -0.409608 -3.74969 0
M  V30 49289 H 4899.37 0.171633 -2.946 0
M  V30 49290 H 4899.45 -1.40143 -2.13994 0
M  V30 49291 H 4899.1 -2.5492 -4.39293 0
M  V30 49292 H 4899.03 -0.952126 -5.17921 0
M  V30 49293 H 4901.52 -1.07629 -3.62249 0
M  V30 49294 H 4901.83 -2.79317 -7.20557 0
M  V30 49295 H 4900.18 -2.50549 -6.48267 0
M  V30 49296 H 4903.37 -1.41374 -4.46241 0
M  V30 49297 H 4903.54 -2.19643 -6.0964 0
M  V30 49298 N 4896.95 1.5424 -0.323695 0
M  V30 49299 C 4897.89 2.24341 0.542198 0
M  V30 49300 C 4898.86 1.23425 1.11155 0
M  V30 49301 O 4900.05 1.52108 1.15186 0
M  V30 49302 C 4897.19 3.00485 1.69715 0
M  V30 49303 C 4896.3 4.16218 1.15701 0
M  V30 49304 C 4895.44 4.79892 2.27766 0
M  V30 49305 C 4894.47 5.87728 1.71002 0
M  V30 49306 N 4893.61 6.45264 2.76729 0
M  V30 49307 H 4898.45 2.97935 -0.0621661 0
M  V30 49308 H 4895.99 1.47039 -0.042451 0
M  V30 49309 H 4897.95 3.42878 2.37678 0
M  V30 49310 H 4896.58 2.29225 2.27279 0
M  V30 49311 H 4895.63 3.78607 0.36893 0
M  V30 49312 H 4896.94 4.9384 0.701658 0
M  V30 49313 H 4896.09 5.25254 3.03633 0
M  V30 49314 H 4894.83 4.0165 2.76638 0
M  V30 49315 H 4893.84 5.41768 0.936327 0
M  V30 49316 H 4895.06 6.67867 1.23007 0
M  V30 49317 H 4893.01 5.69896 3.24892 0
M  V30 49318 H 4892.93 7.183 2.35757 0
M  V30 49319 H 4894.19 6.95282 3.52425 0
M  V30 49320 N 4898.42 0.0518709 1.57515 0
M  V30 49321 C 4899.39 -0.907473 2.1047 0
M  V30 49322 C 4900.39 -1.23943 1.02444 0
M  V30 49323 O 4901.58 -1.176 1.28514 0
M  V30 49324 C 4898.71 -2.21714 2.58951 0
M  V30 49325 H 4899.9 -0.448405 2.96529 0
M  V30 49326 H 4897.45 -0.196543 1.55059 0
M  V30 49327 H 4898.19 -2.722 1.76288 0
M  V30 49328 H 4897.97 -1.98923 3.37893 0
M  V30 49329 H 4899.46 -2.9043 3.00067 0
M  V30 49330 N 4899.9 -1.56035 -0.221519 0
M  V30 49331 C 4901.13 -1.83479 -0.966962 0
M  V30 49332 C 4901.55 -0.632202 -1.77158 0
M  V30 49333 O 4900.91 0.41902 -1.76391 0
M  V30 49334 C 4900.96 -3.08914 -1.86023 0
M  V30 49335 O 4900.06 -2.8761 -2.95557 0
M  V30 49336 H 4899.4 -0.604923 -0.273796 0
M  V30 49337 H 4901.93 -2.03248 -0.234822 0
M  V30 49338 H 4901.94 -3.39018 -2.27004 0
M  V30 49339 H 4900.62 -3.96072 -1.26884 0
M  V30 49340 H 4899.19 -2.68739 -2.58523 0
M  V30 49341 N 4901.38 0.488223 -1.49847 0
M  V30 49342 C 4902.8 0.820518 -1.36893 0
M  V30 49343 C 4903 1.97247 -0.411821 0
M  V30 49344 O 4902.05 2.52043 0.151843 0
M  V30 49345 C 4903.36 1.1487 -2.77895 0
M  V30 49346 C 4904.91 1.25616 -2.86687 0
M  V30 49347 C 4905.39 1.61757 -4.28484 0
M  V30 49348 N 4906.88 1.68781 -4.31355 0
M  V30 49349 C 4907.61 1.98216 -5.3805 0
M  V30 49350 N 4907.11 2.25787 -6.54975 0
M  V30 49351 N 4908.9 1.99574 -5.25478 0
M  V30 49352 H 4901.05 -0.271197 -2.10662 0
M  V30 49353 H 4903.32 -0.0587682 -0.946177 0
M  V30 49354 H 4903.02 0.375491 -3.4969 0
M  V30 49355 H 4902.9 2.08908 -3.14066 0
M  V30 49356 H 4905.28 2.02007 -2.15121 0
M  V30 49357 H 4905.36 0.295983 -2.54082 0
M  V30 49358 H 4905.01 0.859119 -5.00581 0
M  V30 49359 H 4904.94 2.58896 -4.58563 0
M  V30 49360 H 4907.43 1.49583 -3.47035 0
M  V30 49361 H 4907.74 2.47471 -7.32105 0
M  V30 49362 H 4906.09 2.23216 -6.58179 0
M  V30 49363 H 4909.28 1.77519 -4.33133 0
M  V30 49364 H 4909.45 2.22179 -6.08721 0
M  V30 49365 N 4902.86 1.39136 0.740193 0
M  V30 49366 C 4904.27 1.20627 1.04505 0
M  V30 49367 C 4904.47 0.0642359 2.01398 0
M  V30 49368 O 4903.53 -0.585757 2.45612 0
M  V30 49369 C 4904.84 2.53821 1.61231 0
M  V30 49370 C 4906.39 2.60621 1.73337 0
M  V30 49371 C 4906.87 3.94024 2.33473 0
M  V30 49372 N 4908.36 3.95635 2.40888 0
M  V30 49373 C 4909.09 4.95626 2.88344 0
M  V30 49374 N 4908.59 6.06015 3.35735 0
M  V30 49375 N 4910.38 4.83008 2.87506 0
M  V30 49376 H 4902.53 2.12176 0.097483 0
M  V30 49377 H 4904.79 0.94207 0.105871 0
M  V30 49378 H 4904.5 3.37914 0.975025 0
M  V30 49379 H 4904.37 2.73171 2.6011 0
M  V30 49380 H 4906.76 1.76914 2.36189 0
M  V30 49381 H 4906.84 2.45125 0.73125 0
M  V30 49382 H 4906.49 4.78159 1.7125 0
M  V30 49383 H 4906.42 4.06837 3.34352 0
M  V30 49384 H 4908.91 3.1591 2.07386 0
M  V30 49385 H 4909.22 6.78228 3.7044 0
M  V30 49386 H 4907.57 6.09616 3.33757 0
M  V30 49387 H 4910.76 3.95874 2.49802 0
M  V30 49388 H 4910.93 5.61083 3.24176 0
M  V30 49389 N 4904.34 -0.969824 1.24226 0
M  V30 49390 C 4905.56 -1.75285 1.1086 0
M  V30 49391 C 4905.99 -1.85093 -0.335014 0
M  V30 49392 O 4905.34 -1.32028 -1.24251 0
M  V30 49393 C 4905.39 -3.15249 1.75073 0
M  V30 49394 O 4904.5 -3.99586 1.02006 0
M  V30 49395 H 4903.84 -0.538891 0.387934 0
M  V30 49396 H 4906.37 -1.2167 1.64492 0
M  V30 49397 H 4906.38 -3.65781 1.80743 0
M  V30 49398 H 4905.05 -3.07426 2.80111 0
M  V30 49399 H 4903.63 -3.58073 1.04106 0
M  V30 49400 N 4905.81 -1.05567 -1.17018 0
M  V30 49401 C 4907.23 -0.777733 -1.39368 0
M  V30 49402 C 4907.43 0.626202 -1.91523 0
M  V30 49403 O 4906.49 1.38799 -2.10929 0
M  V30 49404 C 4907.8 -1.8365 -2.38103 0
M  V30 49405 C 4909.35 -1.85916 -2.51802 0
M  V30 49406 C 4909.82 -2.90826 -3.53814 0
M  V30 49407 N 4911.31 -2.89813 -3.61335 0
M  V30 49408 C 4912.05 -3.67636 -4.40036 0
M  V30 49409 N 4911.54 -4.55255 -5.22221 0
M  V30 49410 N 4913.34 -3.56059 -4.34946 0
M  V30 49411 H 4905.49 -1.96142 -0.814978 0
M  V30 49412 H 4907.75 -0.849542 -0.420692 0
M  V30 49413 H 4907.46 -2.84432 -2.06861 0
M  V30 49414 H 4907.33 -1.68132 -3.37656 0
M  V30 49415 H 4909.72 -0.857965 -2.82353 0
M  V30 49416 H 4909.8 -2.05512 -1.52311 0
M  V30 49417 H 4909.44 -3.91133 -3.24002 0
M  V30 49418 H 4909.37 -2.68481 -4.53018 0
M  V30 49419 H 4911.86 -2.26285 -3.02661 0
M  V30 49420 H 4912.18 -5.11311 -5.79466 0
M  V30 49421 H 4910.52 -4.59315 -5.21589 0
M  V30 49422 H 4913.71 -2.86999 -3.69796 0
M  V30 49423 H 4913.89 -4.16956 -4.96036 0
M  V30 49424 N 4907.29 1.33523 -0.837221 0
M  V30 49425 C 4908.22 2.28077 -0.226659 0
M  V30 49426 C 4909.24 1.51668 0.591664 0
M  V30 49427 O 4910.43 1.73513 0.419003 0
M  V30 49428 C 4907.53 3.31599 0.699664 0
M  V30 49429 C 4906.7 4.37329 -0.0789605 0
M  V30 49430 C 4905.76 5.20529 0.770454 0
M  V30 49431 O 4904.78 5.68812 0.210253 0
M  V30 49432 N 4905.99 5.41646 2.08806 0
M  V30 49433 H 4908.75 2.81111 -1.03907 0
M  V30 49434 H 4906.31 1.46199 -0.695527 0
M  V30 49435 H 4908.3 3.84162 1.27285 0
M  V30 49436 H 4906.87 2.78853 1.41279 0
M  V30 49437 H 4906.09 3.85287 -0.833516 0
M  V30 49438 H 4907.38 5.05077 -0.614416 0
M  V30 49439 H 4906.78 5.04117 2.56675 0
M  V30 49440 H 4905.34 5.97272 2.60977 0
M  V30 49441 N 4908.77 0.593501 1.45998 0
M  V30 49442 C 4910.18 0.169866 1.85926 0
M  V30 49443 C 4910.53 -1.26978 1.49569 0
M  V30 49444 O 4909.66 -1.96073 0.915671 0
M  V30 49445 C 4910.25 0.301504 3.37456 0
M  V30 49446 C 4908.81 -0.0673361 3.7634 0
M  V30 49447 C 4907.96 0.632477 2.69991 0
M  V30 49448 H 4910.91 0.801062 1.36999 0
M  V30 49449 H 4910.93 -0.470198 3.77584 0
M  V30 49450 H 4910.44 1.3494 3.63886 0
M  V30 49451 H 4908.54 -1.11495 3.55527 0
M  V30 49452 H 4908.66 0.3165 4.78053 0
M  V30 49453 H 4907.02 0.0715856 2.54599 0
M  V30 49454 H 4907.8 1.68223 2.99259 0
M  V30 49455 N 4910.25 -1.54066 0.33187 0
M  V30 49456 C 4911.21 -2.23277 -0.51769 0
M  V30 49457 C 4912.21 -1.229 -1.03693 0
M  V30 49458 O 4913.4 -1.47422 -0.928032 0
M  V30 49459 C 4910.53 -2.94332 -1.71993 0
M  V30 49460 H 4911.73 -2.99772 0.0874561 0
M  V30 49461 H 4909.28 -1.56079 0.0830591 0
M  V30 49462 H 4910.01 -2.21994 -2.36409 0
M  V30 49463 H 4909.8 -3.67946 -1.35494 0
M  V30 49464 H 4911.29 -3.47039 -2.32279 0
M  V30 49465 N 4911.73 -0.0602235 -1.57485 0
M  V30 49466 C 4913.14 0.296367 -1.56824 0
M  V30 49467 C 4913.34 1.70827 -1.06866 0
M  V30 49468 O 4912.4 2.41738 -0.72933 0
M  V30 49469 C 4913.71 0.116576 -3.00474 0
M  V30 49470 C 4915.26 0.186993 -3.12441 0
M  V30 49471 C 4915.73 0.035622 -4.57986 0
M  V30 49472 N 4917.23 0.0916048 -4.63109 0
M  V30 49473 C 4917.96 -0.00127409 -5.734 0
M  V30 49474 N 4917.46 -0.147016 -6.92644 0
M  V30 49475 N 4919.25 0.0549601 -5.62073 0
M  V30 49476 H 4911.4 -0.983121 -1.88278 0
M  V30 49477 H 4913.66 -0.382417 -0.867445 0
M  V30 49478 H 4913.37 -0.85724 -3.41093 0
M  V30 49479 H 4913.24 0.8738 -3.66939 0
M  V30 49480 H 4915.63 1.15129 -2.71716 0
M  V30 49481 H 4915.71 -0.601139 -2.48636 0
M  V30 49482 H 4915.36 -0.925388 -4.99399 0
M  V30 49483 H 4915.29 0.843013 -5.19808 0
M  V30 49484 H 4917.78 0.203128 -3.77354 0
M  V30 49485 H 4918.09 -0.210347 -7.72514 0
M  V30 49486 H 4916.43 -0.182223 -6.94761 0
M  V30 49487 H 4919.63 0.16744 -4.678 0
M  V30 49488 H 4919.8 -0.0208798 -6.47997 0
M  V30 49489 N 4913.2 1.56151 0.213241 0
M  V30 49490 C 4914.15 1.8949 1.26798 0
M  V30 49491 C 4915.14 0.758763 1.41886 0
M  V30 49492 O 4916.33 1.02132 1.44561 0
M  V30 49493 C 4913.46 2.22228 2.61667 0
M  V30 49494 C 4912.55 3.42254 2.50446 0
M  V30 49495 N 4912.94 4.60653 2.08884 0
M  V30 49496 C 4911.23 3.46033 2.81384 0
M  V30 49497 C 4911.94 5.42813 2.09115 0
M  V30 49498 N 4910.91 4.82741 2.49924 0
M  V30 49499 H 4914.71 2.78541 0.937673 0
M  V30 49500 H 4912.23 1.56828 0.421768 0
M  V30 49501 H 4914.22 2.4429 3.37828 0
M  V30 49502 H 4912.88 1.34494 2.95536 0
M  V30 49503 H 4913.9 4.85657 1.79882 0
M  V30 49504 H 4910.57 2.68665 3.1957 0
M  V30 49505 H 4911.96 6.47608 1.79036 0
M  V30 49506 N 4914.68 -0.48027 1.50104 0
M  V30 49507 C 4916.09 -1.06136 1.53597 0
M  V30 49508 C 4916.44 -1.93334 0.334123 0
M  V30 49509 O 4915.57 -2.0919 -0.553956 0
M  V30 49510 C 4916.16 -1.9316 2.78342 0
M  V30 49511 C 4914.72 -2.46395 2.84546 0
M  V30 49512 C 4913.87 -1.24512 2.47774 0
M  V30 49513 H 4916.82 -0.263275 1.56501 0
M  V30 49514 H 4916.84 -2.78114 2.59678 0
M  V30 49515 H 4916.35 -1.2967 3.65797 0
M  V30 49516 H 4914.46 -3.13465 2.01422 0
M  V30 49517 H 4914.57 -2.8213 3.8722 0
M  V30 49518 H 4912.93 -1.57699 2.00008 0
M  V30 49519 H 4913.72 -0.626984 3.37526 0
M  V30 49520 N 4916.16 -1.39527 -0.732804 0
M  V30 49521 C 4917.12 -1.38195 -1.82852 0
M  V30 49522 C 4918.12 -0.278679 -1.58367 0
M  V30 49523 O 4919.31 -0.536697 -1.65726 0
M  V30 49524 C 4916.45 -1.15672 -3.20675 0
M  V30 49525 H 4917.64 -2.35698 -1.85435 0
M  V30 49526 H 4915.19 -1.25124 -0.936684 0
M  V30 49527 H 4915.93 -0.188596 -3.23751 0
M  V30 49528 H 4915.71 -1.95571 -3.39845 0
M  V30 49529 H 4917.2 -1.17486 -4.00733 0
M  V30 49530 N 4917.64 0.963222 -1.24739 0
M  V30 49531 C 4918.88 1.72168 -1.10171 0
M  V30 49532 C 4919.24 1.88732 0.352717 0
M  V30 49533 O 4920.44 2.61552 0.620015 0
M  V30 49534 C 4918.71 3.07233 -1.82599 0
M  V30 49535 S 4920.27 3.98443 -1.83817 0
M  V30 49536 H 4917.09 0.591887 -0.393943 0
M  V30 49537 H 4919.69 1.14949 -1.58136 0
M  V30 49538 H 4918.4 2.92841 -2.87528 0
M  V30 49539 H 4917.93 3.69516 -1.34986 0
M  V30 49540 H 4919.94 4.87802 -0.909054 0
M  V30 49541 N 4919.12 1.06186 1.16457 0
M  V30 49542 C 4920.05 0.615936 2.1973 0
M  V30 49543 C 4921.03 -0.36071 1.58549 0
M  V30 49544 O 4922.21 -0.269943 1.86557 0
M  V30 49545 C 4919.34 -0.097193 3.38561 0
M  V30 49546 C 4918.38 0.836036 4.18226 0
M  V30 49547 S 4919.22 2.33069 4.82119 0
M  V30 49548 C 4920.37 1.62902 6.04329 0
M  V30 49549 H 4920.61 1.49088 2.57216 0
M  V30 49550 H 4918.14 0.874737 1.27231 0
M  V30 49551 H 4920.1 -0.50242 4.07414 0
M  V30 49552 H 4918.76 -0.948312 2.99443 0
M  V30 49553 H 4917.95 0.283603 5.03201 0
M  V30 49554 H 4917.55 1.18109 3.54861 0
M  V30 49555 H 4919.85 0.934 6.71031 0
M  V30 49556 H 4920.79 2.45664 6.6412 0
M  V30 49557 H 4921.2 1.11208 5.53437 0
M  V30 49558 N 4920.59 -1.33077 0.84429 0
M  V30 49559 C 4921.52 -2.31609 0.296574 0
M  V30 49560 C 4922.51 -1.59217 -0.598651 0
M  V30 49561 O 4923.69 -1.87079 -0.521068 0
M  V30 49562 C 4920.82 -3.43314 -0.524642 0
M  V30 49563 C 4919.77 -4.27114 0.275256 0
M  V30 49564 C 4919.1 -5.30485 -0.67005 0
M  V30 49565 C 4920.4 -5.00438 1.49531 0
M  V30 49566 H 4922.09 -2.77668 1.11986 0
M  V30 49567 H 4919.64 -1.33494 0.539946 0
M  V30 49568 H 4921.59 -4.11276 -0.918154 0
M  V30 49569 H 4920.32 -2.95957 -1.38119 0
M  V30 49570 H 4918.98 -3.60784 0.650394 0
M  V30 49571 H 4918.62 -4.79384 -1.52315 0
M  V30 49572 H 4918.32 -5.87436 -0.138916 0
M  V30 49573 H 4919.85 -6.01312 -1.06096 0
M  V30 49574 H 4921.26 -5.61137 1.17466 0
M  V30 49575 H 4919.66 -5.67064 1.96363 0
M  V30 49576 H 4920.73 -4.28898 2.26217 0
M  V30 49577 N 4922.07 -0.601236 -1.45681 0
M  V30 49578 C 4923.48 -0.179724 -1.85833 0
M  V30 49579 C 4923.83 1.26183 -1.5024 0
M  V30 49580 O 4922.96 1.95584 -0.926056 0
M  V30 49581 C 4923.55 -0.319396 -3.37291 0
M  V30 49582 C 4922.11 0.0473769 -3.7637 0
M  V30 49583 C 4921.26 -0.646787 -2.69652 0
M  V30 49584 H 4924.21 -0.808316 -1.36572 0
M  V30 49585 H 4924.23 0.450167 -3.77828 0
M  V30 49586 H 4923.74 -1.36868 -3.63165 0
M  V30 49587 H 4921.85 1.09608 -3.56114 0
M  V30 49588 H 4921.96 -0.341848 -4.77879 0
M  V30 49589 H 4920.32 -0.0850866 -2.54558 0
M  V30 49590 H 4921.11 -1.69808 -2.98363 0
M  V30 49591 N 4923.55 1.53888 -0.340036 0
M  V30 49592 C 4924.96 1.86139 0.144605 0
M  V30 49593 C 4925.31 1.26135 1.50281 0
M  V30 49594 O 4924.44 0.573588 2.0866 0
M  V30 49595 C 4925.03 3.37729 0.269167 0
M  V30 49596 C 4923.59 3.69871 0.698038 0
M  V30 49597 C 4922.74 2.76776 -0.170347 0
M  V30 49598 H 4925.69 1.48501 -0.559756 0
M  V30 49599 H 4925.71 3.64335 1.09727 0
M  V30 49600 H 4925.22 3.81372 -0.7195 0
M  V30 49601 H 4923.32 3.3177 1.69586 0
M  V30 49602 H 4923.44 4.76584 0.490365 0
M  V30 49603 H 4921.8 2.52189 0.356755 0
M  V30 49604 H 4922.58 3.23249 -1.15608 0
M  V30 49605 N 4925.03 0.0685745 1.57451 0
M  V30 49606 C 4925.98 -0.909821 2.0906 0
M  V30 49607 C 4926.96 -1.26085 0.999572 0
M  V30 49608 O 4928.16 -1.24036 1.2627 0
M  V30 49609 C 4925.28 -2.17854 2.6532 0
M  V30 49610 C 4924.37 -1.85413 3.81422 0
M  V30 49611 N 4924.76 -1.23408 4.90514 0
M  V30 49612 C 4923.06 -2.15182 3.90657 0
M  V30 49613 C 4923.76 -1.08988 5.71399 0
M  V30 49614 N 4922.74 -1.59852 5.19565 0
M  V30 49615 H 4926.54 -0.426043 2.90796 0
M  V30 49616 H 4924.05 -0.135405 1.61835 0
M  V30 49617 H 4926.05 -2.88861 3.00607 0
M  V30 49618 H 4924.71 -2.66822 1.8503 0
M  V30 49619 H 4925.72 -0.904126 5.09947 0
M  V30 49620 H 4922.4 -2.6655 3.21337 0
M  V30 49621 H 4923.79 -0.607069 6.69152 0
M  V30 49622 N 4926.51 -1.56262 -0.204957 0
M  V30 49623 C 4927.44 -1.96783 -1.25693 0
M  V30 49624 C 4928.42 -0.838361 -1.48005 0
M  V30 49625 O 4929.6 -1.10194 -1.59909 0
M  V30 49626 C 4926.73 -2.29885 -2.60327 0
M  V30 49627 C 4925.69 -3.45478 -2.52644 0
M  V30 49628 C 4925.01 -3.64229 -3.91461 0
M  V30 49629 C 4926.31 -4.79961 -2.05997 0
M  V30 49630 H 4928.01 -2.84907 -0.920238 0
M  V30 49631 H 4925.55 -1.37074 -0.441229 0
M  V30 49632 H 4927.51 -2.56826 -3.34093 0
M  V30 49633 H 4926.23 -1.38632 -2.95717 0
M  V30 49634 H 4924.89 -3.18612 -1.81334 0
M  V30 49635 H 4924.54 -2.70324 -4.24186 0
M  V30 49636 H 4924.24 -4.41986 -3.87197 0
M  V30 49637 H 4925.76 -3.93536 -4.66864 0
M  V30 49638 H 4927.18 -5.05998 -2.69515 0
M  V30 49639 H 4925.57 -5.61119 -2.12757 0
M  V30 49640 H 4926.64 -4.74205 -1.01281 0
M  V30 49641 N 4927.99 0.472303 -1.50356 0
M  V30 49642 C 4929.4 0.805952 -1.37755 0
M  V30 49643 C 4929.6 1.96799 -0.432718 0
M  V30 49644 O 4928.66 2.5219 0.125102 0
M  V30 49645 C 4929.97 1.11916 -2.79097 0
M  V30 49646 C 4931.52 1.22569 -2.88003 0
M  V30 49647 C 4931.99 1.57203 -4.30176 0
M  V30 49648 N 4933.48 1.64197 -4.33121 0
M  V30 49649 C 4934.22 1.92498 -5.40122 0
M  V30 49650 N 4933.72 2.18827 -6.57333 0
M  V30 49651 N 4935.51 1.93989 -5.27565 0
M  V30 49652 H 4927.66 -0.293525 -2.10362 0
M  V30 49653 H 4929.92 -0.0688004 -0.9455 0
M  V30 49654 H 4929.63 0.33838 -3.50068 0
M  V30 49655 H 4929.5 2.05565 -3.16264 0
M  V30 49656 H 4931.89 1.99714 -2.17252 0
M  V30 49657 H 4931.97 0.269017 -2.54381 0
M  V30 49658 H 4931.61 0.805977 -5.01464 0
M  V30 49659 H 4931.54 2.54018 -4.61284 0
M  V30 49660 H 4934.04 1.45894 -3.48602 0
M  V30 49661 H 4934.35 2.39692 -7.34689 0
M  V30 49662 H 4932.69 2.16222 -6.6051 0
M  V30 49663 H 4935.88 1.72916 -4.34992 0
M  V30 49664 H 4936.06 2.1571 -6.11043 0
M  V30 49665 N 4929.46 1.39914 0.725394 0
M  V30 49666 C 4930.69 1.40954 1.51458 0
M  V30 49667 C 4931.11 0.00659057 1.88799 0
M  V30 49668 O 4930.46 -0.967109 1.54768 0
M  V30 49669 C 4930.51 2.29128 2.79611 0
M  V30 49670 O 4930.24 3.63961 2.43853 0
M  V30 49671 C 4931.74 2.38655 3.73575 0
M  V30 49672 H 4928.96 0.481108 0.467735 0
M  V30 49673 H 4931.5 1.83846 0.895587 0
M  V30 49674 H 4929.66 1.89624 3.37819 0
M  V30 49675 H 4930.07 4.10689 3.26244 0
M  V30 49676 H 4931.54 3.0458 4.60364 0
M  V30 49677 H 4932.02 1.40861 4.15999 0
M  V30 49678 H 4932.63 2.78671 3.21283 0
M  V30 49679 N 4930.94 -0.956593 1.25248 0
M  V30 49680 C 4932.17 -1.73567 1.12614 0
M  V30 49681 C 4932.58 -1.86064 -0.320259 0
M  V30 49682 O 4931.94 -1.35695 -1.22037 0
M  V30 49683 C 4931.99 -3.15047 1.77279 0
M  V30 49684 O 4931.71 -3.03163 3.16265 0
M  V30 49685 C 4933.21 -4.09242 1.704 0
M  V30 49686 H 4930.43 -0.543941 0.392898 0
M  V30 49687 H 4932.98 -1.20025 1.65572 0
M  V30 49688 H 4931.13 -3.65539 1.28297 0
M  V30 49689 H 4931.55 -3.92398 3.48029 0
M  V30 49690 H 4933.02 -5.0613 2.20309 0
M  V30 49691 H 4933.5 -4.341 0.667391 0
M  V30 49692 H 4934.1 -3.64664 2.18862 0
M  V30 49693 N 4932.42 -1.06802 -1.15892 0
M  V30 49694 C 4933.84 -0.792471 -1.38535 0
M  V30 49695 C 4934.04 0.605853 -1.92176 0
M  V30 49696 O 4933.09 1.36554 -2.12389 0
M  V30 49697 C 4934.4 -1.86165 -2.36142 0
M  V30 49698 C 4935.95 -1.88576 -2.49816 0
M  V30 49699 C 4936.43 -2.94562 -3.50709 0
M  V30 49700 N 4937.92 -2.93629 -3.58241 0
M  V30 49701 C 4938.65 -3.72282 -4.36112 0
M  V30 49702 N 4938.15 -4.60769 -5.17363 0
M  V30 49703 N 4939.94 -3.60652 -4.31145 0
M  V30 49704 H 4932.09 -1.96996 -0.794129 0
M  V30 49705 H 4934.36 -0.853956 -0.411658 0
M  V30 49706 H 4934.06 -2.8661 -2.03832 0
M  V30 49707 H 4933.94 -1.71704 -3.35854 0
M  V30 49708 H 4936.32 -0.887864 -2.81427 0
M  V30 49709 H 4936.4 -2.07116 -1.50122 0
M  V30 49710 H 4936.05 -3.94548 -3.19835 0
M  V30 49711 H 4935.98 -2.73271 -4.50145 0
M  V30 49712 H 4938.47 -2.29482 -3.00244 0
M  V30 49713 H 4938.78 -5.17429 -5.7401 0
M  V30 49714 H 4937.13 -4.64821 -5.16688 0
M  V30 49715 H 4940.32 -2.90905 -3.66731 0
M  V30 49716 H 4940.49 -4.22193 -4.91586 0
M  V30 49717 N 4933.9 1.32627 -0.851335 0
M  V30 49718 C 4935.17 1.91981 -0.374516 0
M  V30 49719 C 4935.55 1.77572 1.14154 0
M  V30 49720 O 4934.9 1.17177 1.96168 0
M  V30 49721 C 4935.11 3.38859 -0.835208 0
M  V30 49722 C 4936.46 4.15996 -0.850456 0
M  V30 49723 O 4937.48 3.47563 -0.779627 0
M  V30 49724 O 4936.34 5.38185 -0.94967 0
M  V30 49725 H 4933.44 0.819843 -0.108568 0
M  V30 49726 H 4935.98 1.41419 -0.938016 0
M  V30 49727 H 4934.76 3.43274 -1.87826 0
M  V30 49728 H 4934.38 3.9682 -0.248972 0
M  V30 49729 N 4935.38 0.608953 1.4536 0
M  V30 49730 C 4936.6 0.109283 2.07112 0
M  V30 49731 C 4937.03 -1.19774 1.45037 0
M  V30 49732 O 4936.38 -1.72959 0.543588 0
M  V30 49733 C 4936.43 -0.0154478 3.60597 0
M  V30 49734 O 4935.54 -1.06532 3.98403 0
M  V30 49735 H 4934.88 0.0746851 0.659786 0
M  V30 49736 H 4937.41 0.839349 1.86591 0
M  V30 49737 H 4937.42 -0.213221 4.07442 0
M  V30 49738 H 4936.09 0.938907 4.05163 0
M  V30 49739 H 4934.67 -0.843896 3.63226 0
M  V30 49740 N 4936.85 -1.53705 0.348193 0
M  V30 49741 C 4938.08 -2.05109 -0.247792 0
M  V30 49742 C 4938.49 -1.22257 -1.44395 0
M  V30 49743 O 4937.83 -0.251917 -1.81964 0
M  V30 49744 C 4937.9 -3.52174 -0.722063 0
M  V30 49745 C 4937.56 -4.55619 0.355062 0
M  V30 49746 C 4938.56 -5.05879 1.19928 0
M  V30 49747 C 4936.24 -4.99701 0.510321 0
M  V30 49748 C 4938.24 -5.98806 2.18427 0
M  V30 49749 C 4935.92 -5.92438 1.49869 0
M  V30 49750 C 4936.92 -6.41879 2.33411 0
M  V30 49751 O 4936.61 -7.3279 3.30565 0
M  V30 49752 H 4936.34 -0.674088 -0.0508059 0
M  V30 49753 H 4938.9 -1.99228 0.49975 0
M  V30 49754 H 4937.13 -3.55534 -1.52092 0
M  V30 49755 H 4938.81 -3.86524 -1.23911 0
M  V30 49756 H 4939.58 -4.72583 1.09044 0
M  V30 49757 H 4935.46 -4.60816 -0.130112 0
M  V30 49758 H 4939 -6.3732 2.83672 0
M  V30 49759 H 4934.9 -6.25149 1.60808 0
M  V30 49760 H 4935.67 -7.50738 3.26091 0
M  V30 49761 N 4938.33 -0.0769235 -1.57412 0
M  V30 49762 C 4939.26 0.918175 -2.10005 0
M  V30 49763 C 4940.28 1.25805 -1.0333 0
M  V30 49764 O 4941.47 1.21433 -1.30829 0
M  V30 49765 C 4938.57 2.23254 -2.54972 0
M  V30 49766 C 4937.74 2.07075 -3.85278 0
M  V30 49767 C 4936.8 3.21861 -4.16283 0
M  V30 49768 O 4935.82 2.96626 -4.858 0
M  V30 49769 N 4937.03 4.47107 -3.70237 0
M  V30 49770 H 4939.79 0.469105 -2.96006 0
M  V30 49771 H 4937.35 0.108669 -1.61535 0
M  V30 49772 H 4939.34 2.98961 -2.72772 0
M  V30 49773 H 4937.91 2.59643 -1.74081 0
M  V30 49774 H 4937.13 1.15805 -3.76806 0
M  V30 49775 H 4938.42 1.9352 -4.70561 0
M  V30 49776 H 4937.82 4.70495 -3.14087 0
M  V30 49777 H 4936.38 5.19823 -3.93227 0
M  V30 49778 N 4939.81 1.56368 0.196667 0
M  V30 49779 C 4941.06 1.80532 0.917302 0
M  V30 49780 C 4941.39 0.649882 1.83322 0
M  V30 49781 O 4940.64 -0.364442 1.92277 0
M  V30 49782 C 4940.94 3.1067 1.76689 0
M  V30 49783 C 4940.61 4.39624 1.0021 0
M  V30 49784 C 4939.27 4.74655 0.790928 0
M  V30 49785 C 4941.62 5.19132 0.463853 0
M  V30 49786 C 4938.95 5.86692 0.0300092 0
M  V30 49787 C 4941.3 6.31963 -0.283848 0
M  V30 49788 C 4939.96 6.65579 -0.506047 0
M  V30 49789 H 4939.23 0.660614 0.335665 0
M  V30 49790 H 4941.88 1.90616 0.183777 0
M  V30 49791 H 4940.19 2.95816 2.56905 0
M  V30 49792 H 4941.88 3.26571 2.32706 0
M  V30 49793 H 4938.47 4.12131 1.17669 0
M  V30 49794 H 4942.66 4.92482 0.614402 0
M  V30 49795 H 4937.91 6.11211 -0.152132 0
M  V30 49796 H 4942.09 6.92789 -0.708301 0
M  V30 49797 H 4939.71 7.52235 -1.09757 0
M  V30 49798 N 4941.29 -0.464322 1.50605 0
M  V30 49799 C 4942.54 -1.2135 1.61612 0
M  V30 49800 C 4942.86 -1.92328 0.321711 0
M  V30 49801 O 4942.13 -1.84406 -0.661167 0
M  V30 49802 H 4940.71 -0.450919 0.595551 0
M  V30 49803 H 4943.37 -0.53498 1.87414 0
M  V30 49804 H 4942.47 -1.95775 2.43061 0
M  V30 49805 N 4942.77 -1.40296 -0.717964 0
M  V30 49806 C 4944.01 -1.38172 -1.47489 0
M  V30 49807 C 4944.34 0.0160014 -1.94993 0
M  V30 49808 O 4943.61 0.970337 -1.7018 0
M  V30 49809 H 4942.19 -0.508525 -0.547185 0
M  V30 49810 H 4944.85 -1.75327 -0.85126 0
M  V30 49811 H 4943.94 -2.05511 -2.34887 0
M  V30 49812 N 4944.24 0.949938 -1.25754 0
M  V30 49813 C 4945.47 1.73499 -1.13634 0
M  V30 49814 C 4945.89 1.85602 0.305525 0
M  V30 49815 O 4945.25 1.33988 1.22135 0
M  V30 49816 C 4945.3 3.12424 -1.80066 0
M  V30 49817 O 4944.4 3.97912 -1.0835 0
M  V30 49818 H 4943.75 0.532651 -0.396458 0
M  V30 49819 H 4946.28 1.19037 -1.66407 0
M  V30 49820 H 4946.29 3.62859 -1.8654 0
M  V30 49821 H 4944.96 3.02931 -2.84966 0
M  V30 49822 H 4943.54 3.56371 -1.0979 0
M  V30 49823 N 4945.72 1.07416 1.15324 0
M  V30 49824 C 4946.65 0.716551 2.22234 0
M  V30 49825 C 4947.63 -0.296314 1.67499 0
M  V30 49826 O 4948.82 -0.168921 1.93464 0
M  V30 49827 C 4945.95 0.114264 3.47112 0
M  V30 49828 C 4944.9 1.05435 4.1481 0
M  V30 49829 C 4944.23 0.314792 5.33773 0
M  V30 49830 C 4945.53 2.38825 4.645 0
M  V30 49831 H 4947.22 1.61038 2.52403 0
M  V30 49832 H 4944.77 0.775744 1.21319 0
M  V30 49833 H 4946.72 -0.147853 4.21141 0
M  V30 49834 H 4945.45 -0.814644 3.16277 0
M  V30 49835 H 4944.1 1.3014 3.42723 0
M  V30 49836 H 4943.75 -0.617597 4.99194 0
M  V30 49837 H 4943.45 0.941413 5.8001 0
M  V30 49838 H 4944.98 0.0604893 6.1057 0
M  V30 49839 H 4946.39 2.18443 5.30053 0
M  V30 49840 H 4944.79 2.97087 5.21401 0
M  V30 49841 H 4945.86 3.01081 3.80103 0
M  V30 49842 N 4947.2 -1.32174 0.858357 0
M  V30 49843 C 4948.43 -2.01845 0.476789 0
M  V30 49844 C 4948.85 -1.64068 -0.919963 0
M  V30 49845 O 4948.21 -0.843245 -1.60496 0
M  V30 49846 C 4948.26 -3.55095 0.627703 0
M  V30 49847 O 4947.36 -4.11013 -0.337941 0
M  V30 49848 H 4946.7 -0.6359 0.191121 0
M  V30 49849 H 4949.23 -1.68637 1.15857 0
M  V30 49850 H 4949.24 -4.04716 0.516619 0
M  V30 49851 H 4947.92 -3.81932 1.64622 0
M  V30 49852 H 4946.49 -3.72452 -0.182786 0
M  V30 49853 N 4948.68 -0.616653 -1.45035 0
M  V30 49854 C 4949.9 -0.120265 -2.07051 0
M  V30 49855 C 4950.33 1.19003 -1.45671 0
M  V30 49856 O 4949.69 1.72668 -0.552753 0
M  V30 49857 C 4949.73 -0.00367578 -3.606 0
M  V30 49858 O 4948.84 1.04417 -3.98962 0
M  V30 49859 H 4948.18 -0.0781831 -0.659381 0
M  V30 49860 H 4950.71 -0.849232 -1.86143 0
M  V30 49861 H 4950.72 0.191611 -4.0755 0
M  V30 49862 H 4949.39 -0.960381 -4.0466 0
M  V30 49863 H 4947.97 0.824622 -3.63668 0
M  V30 49864 N 4950.16 1.53519 -0.356339 0
M  V30 49865 C 4951.11 2.22206 0.510737 0
M  V30 49866 C 4952.09 1.21397 1.05601 0
M  V30 49867 O 4953.28 1.46887 0.987587 0
M  V30 49868 C 4950.41 3.00792 1.65467 0
M  V30 49869 C 4949.5 4.08969 1.12272 0
M  V30 49870 N 4949.89 5.04831 0.313013 0
M  V30 49871 C 4948.19 4.2351 1.39841 0
M  V30 49872 C 4948.89 5.81696 0.0228277 0
M  V30 49873 N 4947.86 5.40076 0.617954 0
M  V30 49874 H 4951.67 2.93676 -0.114814 0
M  V30 49875 H 4949.18 1.61571 -0.163868 0
M  V30 49876 H 4951.18 3.4851 2.28793 0
M  V30 49877 H 4949.84 2.30851 2.28337 0
M  V30 49878 H 4950.85 5.17879 -0.0470023 0
M  V30 49879 H 4947.52 3.64793 2.03057 0
M  V30 49880 H 4948.91 6.68929 -0.631163 0
M  V30 49881 N 4951.63 0.0852704 1.57369 0
M  V30 49882 C 4952.56 -0.87448 2.16507 0
M  V30 49883 C 4953.55 -1.30108 1.09572 0
M  V30 49884 O 4954.73 -1.36972 1.37667 0
M  V30 49885 C 4951.86 -2.13721 2.73752 0
M  V30 49886 C 4950.81 -1.84957 3.85973 0
M  V30 49887 C 4950.14 -3.17976 4.29879 0
M  V30 49888 C 4951.44 -1.14424 5.09612 0
M  V30 49889 H 4953.13 -0.381794 2.96956 0
M  V30 49890 H 4950.68 -0.1822 1.42843 0
M  V30 49891 H 4952.63 -2.81291 3.13772 0
M  V30 49892 H 4951.36 -2.65256 1.90544 0
M  V30 49893 H 4950.02 -1.19788 3.46477 0
M  V30 49894 H 4949.66 -3.67378 3.43573 0
M  V30 49895 H 4949.36 -2.99516 5.05533 0
M  V30 49896 H 4950.89 -3.8672 4.72525 0
M  V30 49897 H 4952.3 -1.72086 5.46863 0
M  V30 49898 H 4950.7 -1.06177 5.90632 0
M  V30 49899 H 4951.77 -0.12542 4.84738 0
M  V30 49900 N 4953.11 -1.5647 -0.188372 0
M  V30 49901 C 4954.02 -1.9829 -1.25373 0
M  V30 49902 C 4955.04 -0.891587 -1.49421 0
M  V30 49903 O 4956.22 -1.19788 -1.61904 0
M  V30 49904 C 4953.28 -2.31974 -2.57661 0
M  V30 49905 C 4952.34 -3.54846 -2.41625 0
M  V30 49906 C 4951.57 -3.86914 -3.67605 0
M  V30 49907 O 4951.8 -3.20179 -4.72061 0
M  V30 49908 O 4950.73 -4.80322 -3.62732 0
M  V30 49909 H 4954.56 -2.89148 -0.92881 0
M  V30 49910 H 4952.14 -1.44114 -0.393904 0
M  V30 49911 H 4954.02 -2.54685 -3.35728 0
M  V30 49912 H 4952.7 -1.44281 -2.89766 0
M  V30 49913 H 4951.61 -3.37374 -1.61646 0
M  V30 49914 H 4952.94 -4.43026 -2.1445 0
M  V30 49915 N 4954.59 0.456329 -1.50849 0
M  V30 49916 C 4955.84 1.2073 -1.62575 0
M  V30 49917 C 4956.17 1.91629 -0.332971 0
M  V30 49918 O 4955.42 1.83432 0.681994 0
M  V30 49919 C 4955.72 2.26326 -2.76606 0
M  V30 49920 C 4955.39 1.72575 -4.16568 0
M  V30 49921 C 4954.05 1.57638 -4.54647 0
M  V30 49922 C 4956.4 1.32859 -5.03982 0
M  V30 49923 C 4953.73 1.0143 -5.77866 0
M  V30 49924 C 4956.08 0.780879 -6.27762 0
M  V30 49925 C 4954.74 0.618254 -6.64631 0
M  V30 49926 H 4954.01 0.441782 -0.594903 0
M  V30 49927 H 4956.66 0.501104 -1.84827 0
M  V30 49928 H 4954.97 3.02911 -2.485 0
M  V30 49929 H 4956.66 2.84217 -2.82881 0
M  V30 49930 H 4953.25 1.85173 -3.86534 0
M  V30 49931 H 4957.44 1.43228 -4.75184 0
M  V30 49932 H 4952.69 0.875896 -6.05093 0
M  V30 49933 H 4956.87 0.464539 -6.94849 0
M  V30 49934 H 4954.49 0.180571 -7.59986 0
M  V30 49935 N 4956.07 1.40675 0.710514 0
M  V30 49936 C 4957.32 1.39433 1.47262 0
M  V30 49937 C 4957.65 -0.00175302 1.942 0
M  V30 49938 O 4956.92 -0.971327 1.6851 0
M  V30 49939 C 4957.21 2.38821 2.69511 0
M  V30 49940 C 4957.06 3.87475 2.28436 0
M  V30 49941 C 4958.38 2.35673 3.71681 0
M  V30 49942 H 4955.5 0.507787 0.534155 0
M  V30 49943 H 4958.14 1.71846 0.810486 0
M  V30 49944 H 4956.29 2.11312 3.26006 0
M  V30 49945 H 4957.96 4.25832 1.77384 0
M  V30 49946 H 4956.2 4.03064 1.60381 0
M  V30 49947 H 4956.88 4.52541 3.16087 0
M  V30 49948 H 4959.35 2.60051 3.24827 0
M  V30 49949 H 4958.23 3.07253 4.54848 0
M  V30 49950 H 4958.49 1.37011 4.20334 0
M  V30 49951 N 4957.55 -0.943255 1.26256 0
M  V30 49952 C 4958.8 -1.68588 1.11457 0
M  V30 49953 C 4959.12 -1.91959 -0.343056 0
M  V30 49954 O 4958.39 -1.5148 -1.24221 0
M  V30 49955 H 4956.97 -0.624775 0.40947 0
M  V30 49956 H 4959.63 -1.13346 1.58552 0
M  V30 49957 H 4958.72 -2.66048 1.63172 0
M  V30 49958 N 4959.03 -1.08026 -1.14753 0
M  V30 49959 C 4960.27 -0.802533 -1.85047 0
M  V30 49960 C 4960.59 0.673996 -1.83621 0
M  V30 49961 O 4961.79 1.06674 -2.49666 0
M  V30 49962 C 4960.25 -1.38562 -3.32157 0
M  V30 49963 C 4959.86 -2.89366 -3.42011 0
M  V30 49964 C 4961.6 -1.18622 -4.07589 0
M  V30 49965 C 4959.51 -3.40832 -4.83309 0
M  V30 49966 H 4958.44 -0.296543 -0.693238 0
M  V30 49967 H 4961.09 -1.30118 -1.29389 0
M  V30 49968 H 4959.47 -0.814692 -3.87529 0
M  V30 49969 H 4960.65 -3.52562 -2.9671 0
M  V30 49970 H 4958.96 -3.08175 -2.8003 0
M  V30 49971 H 4961.56 -1.54543 -5.1188 0
M  V30 49972 H 4961.9 -0.125745 -4.1611 0
M  V30 49973 H 4962.43 -1.72388 -3.58507 0
M  V30 49974 H 4959.17 -4.46435 -4.79975 0
M  V30 49975 H 4958.69 -2.82393 -5.29164 0
M  V30 49976 H 4960.37 -3.37191 -5.52188 0
M  V30 49977 N 4960.5 1.31717 -0.865354 0
M  V30 49978 C 4961.43 2.31108 -0.333384 0
M  V30 49979 C 4962.41 1.6015 0.573245 0
M  V30 49980 O 4963.6 1.87884 0.491239 0
M  V30 49981 C 4960.73 3.44106 0.469957 0
M  V30 49982 C 4959.68 4.26622 -0.343171 0
M  V30 49983 C 4959.01 5.31484 0.585569 0
M  V30 49984 C 4960.31 4.97995 -1.57474 0
M  V30 49985 H 4962 2.75851 -1.16389 0
M  V30 49986 H 4959.55 1.32618 -0.561116 0
M  V30 49987 H 4961.5 4.12685 0.852607 0
M  V30 49988 H 4960.23 2.98117 1.33393 0
M  V30 49989 H 4958.89 3.59704 -0.707709 0
M  V30 49990 H 4958.53 4.81747 1.44669 0
M  V30 49991 H 4958.23 5.87582 0.0454428 0
M  V30 49992 H 4959.76 6.02924 0.965163 0
M  V30 49993 H 4961.17 5.59197 -1.26379 0
M  V30 49994 H 4959.57 5.63868 -2.05359 0
M  V30 49995 H 4960.64 4.25245 -2.33012 0
M  V30 49996 N 4961.98 0.624336 1.44706 0
M  V30 49997 C 4962.94 -0.0748832 2.29078 0
M  V30 49998 C 4963.94 -0.778915 1.40675 0
M  V30 49999 O 4965.13 -0.624534 1.6262 0
M  V30 50000 C 4962.27 -1.11651 3.22097 0
M  V30 50001 H 4963.46 0.667116 2.92386 0
M  V30 50002 H 4961.01 0.384152 1.51506 0
M  V30 50003 H 4961.75 -1.88872 2.63624 0
M  V30 50004 H 4961.53 -0.615694 3.87236 0
M  V30 50005 H 4963.02 -1.60572 3.85495 0
M  V30 50006 N 4963.46 -1.53328 0.364476 0
M  V30 50007 C 4964.88 -1.59594 0.0133726 0
M  V30 50008 C 4965.08 -1.37965 -1.46861 0
M  V30 50009 O 4964.13 -1.18426 -2.23006 0
M  V30 50010 C 4965.44 -2.97031 0.468317 0
M  V30 50011 C 4966.99 -3.10136 0.422443 0
M  V30 50012 C 4967.47 -4.49983 0.853182 0
M  V30 50013 N 4968.96 -4.56095 0.808197 0
M  V30 50014 C 4969.69 -5.62491 1.11319 0
M  V30 50015 N 4969.19 -6.76645 1.4874 0
M  V30 50016 N 4970.98 -5.52469 1.03606 0
M  V30 50017 H 4963.13 -1.65639 1.32957 0
M  V30 50018 H 4965.4 -0.77682 0.543373 0
M  V30 50019 H 4965.1 -3.17994 1.50242 0
M  V30 50020 H 4964.98 -3.76919 -0.145642 0
M  V30 50021 H 4967.36 -2.88884 -0.602521 0
M  V30 50022 H 4967.44 -2.32259 1.07188 0
M  V30 50023 H 4967.09 -4.71974 1.87626 0
M  V30 50024 H 4967.02 -5.26289 0.181004 0
M  V30 50025 H 4969.51 -3.7413 0.532493 0
M  V30 50026 H 4969.82 -7.5377 1.70442 0
M  V30 50027 H 4968.17 -6.78039 1.52605 0
M  V30 50028 H 4971.36 -4.62167 0.742898 0
M  V30 50029 H 4971.53 -6.35291 1.27708 0
M  V30 50030 N 4964.94 -0.0936148 -1.57322 0
M  V30 50031 C 4965.89 0.876447 -2.10481 0
M  V30 50032 C 4966.87 1.24479 -1.0195 0
M  V30 50033 O 4968.06 1.22012 -1.28227 0
M  V30 50034 C 4965.19 2.13605 -2.68752 0
M  V30 50035 C 4964.28 1.79322 -3.84323 0
M  V30 50036 N 4964.67 1.15589 -4.92415 0
M  V30 50037 C 4962.97 2.0894 -3.9403 0
M  V30 50038 C 4963.67 0.998834 -5.7306 0
M  V30 50039 N 4962.64 1.51566 -5.22043 0
M  V30 50040 H 4966.45 0.379726 -2.91437 0
M  V30 50041 H 4963.96 0.109642 -1.62029 0
M  V30 50042 H 4965.96 2.84042 -3.05165 0
M  V30 50043 H 4964.62 2.63845 -1.89251 0
M  V30 50044 H 4965.63 0.822883 -5.11321 0
M  V30 50045 H 4962.31 2.61404 -3.25537 0
M  V30 50046 H 4963.7 0.500536 -6.70033 0
M  V30 50047 N 4966.42 1.56568 0.180071 0
M  V30 50048 C 4967.83 1.5049 0.531506 0
M  V30 50049 C 4968.03 0.796332 1.85097 0
M  V30 50050 O 4967.09 0.353066 2.50019 0
M  V30 50051 C 4968.4 2.95203 0.572352 0
M  V30 50052 C 4969.95 3.05959 0.660156 0
M  V30 50053 C 4970.42 4.52113 0.731976 0
M  V30 50054 N 4971.91 4.56325 0.795102 0
M  V30 50055 C 4972.65 5.66745 0.871097 0
M  V30 50056 N 4972.15 6.86818 0.908466 0
M  V30 50057 N 4973.94 5.54694 0.909444 0
M  V30 50058 H 4966.09 2.01043 -0.685236 0
M  V30 50059 H 4968.35 0.915528 -0.245994 0
M  V30 50060 H 4968.06 3.50164 -0.328331 0
M  V30 50061 H 4967.93 3.49374 1.42188 0
M  V30 50062 H 4970.32 2.51037 1.55127 0
M  V30 50063 H 4970.4 2.54887 -0.215872 0
M  V30 50064 H 4970.04 5.07664 -0.154843 0
M  V30 50065 H 4969.97 5.00932 1.62402 0
M  V30 50066 H 4972.47 3.69871 0.77486 0
M  V30 50067 H 4972.78 7.66721 0.967384 0
M  V30 50068 H 4971.12 6.89446 0.87689 0
M  V30 50069 H 4974.31 4.59808 0.877191 0
M  V30 50070 H 4974.49 6.40771 0.965209 0
M  V30 50071 N 4967.89 -0.448323 1.51089 0
M  V30 50072 C 4968.84 -1.56401 1.72167 0
M  V30 50073 C 4969.84 -1.58876 0.587776 0
M  V30 50074 O 4971.04 -1.62752 0.76888 0
M  V30 50075 H 4967.42 -0.519404 0.543805 0
M  V30 50076 H 4969.39 -1.35793 2.65712 0
M  V30 50077 C 4968.14 -2.94157 1.85384 0
M  V30 50078 H 4967.46 -2.9298 2.72034 0
M  V30 50079 H 4968.9 -3.71617 2.04148 0
M  V30 50080 C 4967.36 -3.31315 0.610919 0
M  V30 50081 O 4967.89 -4.00985 -0.239495 0
M  V30 50082 N 4966.1 -2.86965 0.458228 0
M  V30 50083 H 4965.64 -2.30439 1.15132 0
M  V30 50084 H 4965.6 -3.12189 -0.372179 0
M  V30 50085 N 4969.37 -1.4105 -0.703043 0
M  V30 50086 C 4970.62 -1.41214 -1.46391 0
M  V30 50087 C 4970.97 -0.0180864 -1.92391 0
M  V30 50088 O 4970.27 0.954681 -1.66122 0
M  V30 50089 C 4970.46 -2.34695 -2.69542 0
M  V30 50090 C 4970.29 -3.83052 -2.35587 0
M  V30 50091 C 4969.06 -4.51785 -2.26315 0
M  V30 50092 C 4971.26 -4.74222 -1.99044 0
M  V30 50093 N 4969.24 -5.85309 -1.85167 0
M  V30 50094 C 4970.61 -5.96637 -1.68595 0
M  V30 50095 C 4972.67 -4.61938 -1.85789 0
M  V30 50096 C 4971.37 -7.08138 -1.26224 0
M  V30 50097 C 4973.39 -5.73394 -1.44822 0
M  V30 50098 C 4972.76 -6.94903 -1.15279 0
M  V30 50099 H 4968.86 -0.57197 -0.533268 0
M  V30 50100 H 4971.44 -1.76862 -0.814117 0
M  V30 50101 H 4969.61 -2.01154 -3.32252 0
M  V30 50102 H 4971.34 -2.2563 -3.35966 0
M  V30 50103 H 4968.1 -4.05626 -2.44467 0
M  V30 50104 H 4968.52 -6.56055 -1.67096 0
M  V30 50105 H 4973.16 -3.68501 -2.07285 0
M  V30 50106 H 4970.88 -8.01448 -1.03472 0
M  V30 50107 H 4974.47 -5.65891 -1.35126 0
M  V30 50108 H 4973.35 -7.79682 -0.840579 0
M  V30 50109 N 4970.85 0.936546 -1.26754 0
M  V30 50110 C 4972.26 1.49812 -1.11415 0
M  V30 50111 C 4972.61 1.93831 0.303946 0
M  V30 50112 O 4971.74 1.8035 1.19594 0
M  V30 50113 C 4972.33 2.72264 -2.01638 0
M  V30 50114 C 4970.89 3.24674 -1.90431 0
M  V30 50115 C 4970.04 1.97437 -1.94715 0
M  V30 50116 H 4972.99 0.751555 -1.39776 0
M  V30 50117 H 4973.01 3.46735 -1.567 0
M  V30 50118 H 4972.52 2.40194 -3.04841 0
M  V30 50119 H 4970.62 3.61522 -0.901802 0
M  V30 50120 H 4970.74 3.91466 -2.76208 0
M  V30 50121 H 4969.1 2.1354 -1.38826 0
M  V30 50122 H 4969.88 1.67693 -2.99556 0
M  V30 50123 N 4972.33 1.08633 1.14178 0
M  V30 50124 C 4973.55 0.839087 1.89668 0
M  V30 50125 C 4973.98 -0.603269 1.78164 0
M  V30 50126 O 4973.34 -1.42297 1.12344 0
M  V30 50127 C 4973.38 1.26866 3.37546 0
M  V30 50128 O 4972.49 0.422024 4.10235 0
M  V30 50129 H 4971.83 0.304566 0.59003 0
M  V30 50130 H 4974.36 1.44835 1.44513 0
M  V30 50131 H 4974.37 1.25052 3.88363 0
M  V30 50132 H 4973.04 2.31913 3.45238 0
M  V30 50133 H 4971.62 0.503784 3.69481 0
M  V30 50134 N 4973.81 -1.31256 0.872327 0
M  V30 50135 C 4974.74 -2.30928 0.345635 0
M  V30 50136 C 4975.72 -1.60451 -0.564744 0
M  V30 50137 O 4976.9 -1.88142 -0.481268 0
M  V30 50138 C 4974.03 -3.4435 -0.451702 0
M  V30 50139 C 4972.99 -4.26434 0.365791 0
M  V30 50140 C 4972.31 -5.31787 -0.557375 0
M  V30 50141 C 4973.61 -4.97153 1.60113 0
M  V30 50142 H 4975.31 -2.7523 1.17851 0
M  V30 50143 H 4972.85 -1.32318 0.568141 0
M  V30 50144 H 4974.81 -4.13131 -0.830709 0
M  V30 50145 H 4973.53 -2.9882 -1.3181 0
M  V30 50146 H 4972.19 -3.59324 0.726775 0
M  V30 50147 H 4971.84 -4.82507 -1.42113 0
M  V30 50148 H 4971.54 -5.87598 -0.0142813 0
M  V30 50149 H 4973.06 -6.03427 -0.933175 0
M  V30 50150 H 4974.47 -5.58519 1.29342 0
M  V30 50151 H 4972.87 -5.62771 2.08347 0
M  V30 50152 H 4973.94 -4.24003 2.35264 0
M  V30 50153 N 4975.28 -0.632002 -1.44373 0
M  V30 50154 C 4976.51 -0.142218 -2.06912 0
M  V30 50155 C 4976.93 1.17451 -1.46925 0
M  V30 50156 O 4976.29 1.72072 -0.571036 0
M  V30 50157 C 4976.34 -0.041922 -3.60576 0
M  V30 50158 O 4975.44 1.0018 -4.00047 0
M  V30 50159 H 4974.79 -0.0851723 -0.658515 0
M  V30 50160 H 4977.32 -0.868928 -1.85232 0
M  V30 50161 H 4977.33 0.148374 -4.0773 0
M  V30 50162 H 4976 -1.00325 -4.03618 0
M  V30 50163 H 4974.58 0.786003 -3.64522 0
M  V30 50164 N 4976.76 1.53132 -0.372602 0
M  V30 50165 C 4977.7 2.22329 0.514283 0
M  V30 50166 C 4978.67 1.2178 1.07743 0
M  V30 50167 O 4979.86 1.50708 1.13223 0
M  V30 50168 C 4976.98 2.92349 1.71025 0
M  V30 50169 C 4976.03 4.07031 1.27391 0
M  V30 50170 S 4976.86 5.34822 0.269338 0
M  V30 50171 C 4978.02 6.08357 1.47147 0
M  V30 50172 H 4978.25 2.97209 -0.0733728 0
M  V30 50173 H 4975.79 1.53602 -0.156727 0
M  V30 50174 H 4977.74 3.33304 2.39622 0
M  V30 50175 H 4976.4 2.17181 2.26917 0
M  V30 50176 H 4975.6 4.55064 2.1664 0
M  V30 50177 H 4975.2 3.68003 0.66706 0
M  V30 50178 H 4977.49 6.33515 2.40135 0
M  V30 50179 H 4978.43 7.00534 1.03238 0
M  V30 50180 H 4978.84 5.38899 1.68071 0
M  V30 50181 N 4978.24 0.101957 1.5727 0
M  V30 50182 C 4979.19 -0.865272 2.10943 0
M  V30 50183 C 4980.17 -1.23936 1.02609 0
M  V30 50184 O 4981.37 -1.2133 1.28872 0
M  V30 50185 C 4978.5 -2.12177 2.69881 0
M  V30 50186 C 4977.58 -1.77281 3.85269 0
M  V30 50187 N 4977.97 -1.12976 4.93021 0
M  V30 50188 C 4976.27 -2.06848 3.95133 0
M  V30 50189 C 4976.97 -0.96843 5.73582 0
M  V30 50190 N 4975.95 -1.48796 5.22839 0
M  V30 50191 H 4979.75 -0.364265 2.91634 0
M  V30 50192 H 4977.26 -0.101047 1.62085 0
M  V30 50193 H 4979.26 -2.8242 3.06667 0
M  V30 50194 H 4977.92 -2.62837 1.90648 0
M  V30 50195 H 4978.93 -0.795755 5.1175 0
M  V30 50196 H 4975.61 -2.59674 3.26918 0
M  V30 50197 H 4977 -0.464996 6.70289 0
M  V30 50198 N 4979.72 -1.56661 -0.171765 0
M  V30 50199 C 4980.96 -1.82238 -0.889781 0
M  V30 50200 C 4981.3 -0.679737 -1.81915 0
M  V30 50201 O 4980.57 0.318336 -1.91877 0
M  V30 50202 C 4980.86 -3.182 -1.68584 0
M  V30 50203 C 4980.71 -4.42992 -0.779617 0
M  V30 50204 C 4982.03 -3.511 -2.65362 0
M  V30 50205 H 4979.15 -0.662921 -0.322032 0
M  V30 50206 H 4981.79 -1.89358 -0.156014 0
M  V30 50207 H 4979.94 -3.12261 -2.31139 0
M  V30 50208 H 4981.61 -4.60998 -0.166978 0
M  V30 50209 H 4979.85 -4.33711 -0.0876439 0
M  V30 50210 H 4980.52 -5.34675 -1.37211 0
M  V30 50211 H 4983 -3.57489 -2.12934 0
M  V30 50212 H 4981.88 -4.4731 -3.18128 0
M  V30 50213 H 4982.14 -2.75781 -3.45539 0
M  V30 50214 N 4981.2 0.440304 -1.51324 0
M  V30 50215 C 4982.13 1.54168 -1.7537 0
M  V30 50216 C 4983.11 1.59037 -0.603431 0
M  V30 50217 O 4984.29 1.74812 -0.845835 0
M  V30 50218 C 4981.42 2.92271 -1.87604 0
M  V30 50219 C 4980.38 3.02263 -3.0302 0
M  V30 50220 C 4979.7 4.42317 -3.00433 0
M  V30 50221 C 4981 2.76619 -4.43034 0
M  V30 50222 H 4982.7 1.34298 -2.6759 0
M  V30 50223 H 4980.24 0.644633 -1.28765 0
M  V30 50224 H 4982.2 3.69277 -2.03008 0
M  V30 50225 H 4980.92 3.13366 -0.92029 0
M  V30 50226 H 4979.58 2.27696 -2.87315 0
M  V30 50227 H 4979.23 4.60375 -2.02642 0
M  V30 50228 H 4978.93 4.49933 -3.77934 0
M  V30 50229 H 4980.45 5.21301 -3.17927 0
M  V30 50230 H 4981.86 3.43359 -4.59105 0
M  V30 50231 H 4980.26 2.95648 -5.22219 0
M  V30 50232 H 4981.33 1.72246 -4.53276 0
M  V30 50233 N 4982.68 1.41421 0.695553 0
M  V30 50234 C 4984.09 1.3634 1.27548 0
M  V30 50235 C 4984.44 0.0465026 1.96145 0
M  V30 50236 O 4983.56 -0.855234 1.98783 0
M  V30 50237 C 4984.16 2.46949 2.31952 0
M  V30 50238 C 4982.72 2.45266 2.8552 0
M  V30 50239 C 4981.86 2.26796 1.59558 0
M  V30 50240 H 4984.81 1.50936 0.490309 0
M  V30 50241 H 4984.84 2.16008 3.13242 0
M  V30 50242 H 4984.35 3.42781 1.81996 0
M  V30 50243 H 4982.45 1.53191 3.39652 0
M  V30 50244 H 4982.56 3.41577 3.35949 0
M  V30 50245 H 4980.93 1.74674 1.85368 0
M  V30 50246 H 4981.71 3.24655 1.11599 0
M  V30 50247 N 4984.15 -0.929811 1.27249 0
M  V30 50248 C 4985.57 -1.20538 1.04608 0
M  V30 50249 C 4985.77 -2.00277 -0.221684 0
M  V30 50250 O 4984.83 -2.34838 -0.92775 0
M  V30 50251 C 4986.14 -1.95558 2.28424 0
M  V30 50252 C 4987.69 -2.08505 2.33441 0
M  V30 50253 C 4988.16 -2.8693 3.5698 0
M  V30 50254 N 4989.65 -2.945 3.57525 0
M  V30 50255 C 4990.39 -3.5564 4.49786 0
M  V30 50256 N 4989.88 -4.18189 5.52349 0
M  V30 50257 N 4991.68 -3.53023 4.37414 0
M  V30 50258 H 4983.83 -0.397039 2.08656 0
M  V30 50259 H 4986.09 -0.238244 0.917575 0
M  V30 50260 H 4985.8 -1.44384 3.20696 0
M  V30 50261 H 4985.67 -2.96181 2.33573 0
M  V30 50262 H 4988.06 -2.58867 1.41675 0
M  V30 50263 H 4988.14 -1.07109 2.32296 0
M  V30 50264 H 4987.78 -2.37253 4.49081 0
M  V30 50265 H 4987.71 -3.88608 3.55376 0
M  V30 50266 H 4990.2 -2.50043 2.8335 0
M  V30 50267 H 4990.52 -4.62774 6.18919 0
M  V30 50268 H 4988.86 -4.16741 5.56194 0
M  V30 50269 H 4992.05 -3.03358 3.56499 0
M  V30 50270 H 4992.23 -4.00382 5.09507 0
M  V30 50271 N 4985.63 -1.09237 -1.13601 0
M  V30 50272 C 4986.86 -0.849134 -1.89221 0
M  V30 50273 C 4987.28 0.593812 -1.78481 0
M  V30 50274 O 4986.64 1.41699 -1.13097 0
M  V30 50275 C 4986.69 -1.28654 -3.36869 0
M  V30 50276 O 4985.79 -0.443774 -4.10005 0
M  V30 50277 H 4985.13 -0.307691 -0.588407 0
M  V30 50278 H 4987.66 -1.456 -1.43743 0
M  V30 50279 H 4987.67 -1.2711 -3.87695 0
M  V30 50280 H 4986.35 -2.33741 -3.44003 0
M  V30 50281 H 4984.92 -0.523371 -3.69209 0
M  V30 50282 N 4987.11 1.30792 -0.879276 0
M  V30 50283 C 4988.33 2.01061 -0.50884 0
M  V30 50284 C 4988.76 1.65511 0.893745 0
M  V30 50285 O 4988.12 0.868672 1.59134 0
M  V30 50286 C 4988.17 3.54051 -0.684116 0
M  V30 50287 O 4987.27 4.11499 0.27251 0
M  V30 50288 H 4986.61 0.632779 -0.201213 0
M  V30 50289 H 4989.14 1.66772 -1.18525 0
M  V30 50290 H 4989.15 4.03843 -0.58094 0
M  V30 50291 H 4987.83 3.79265 -1.70678 0
M  V30 50292 H 4986.4 3.72695 0.123509 0
M  V30 50293 N 4988.59 0.639649 1.44036 0
M  V30 50294 C 4990 0.306008 1.56639 0
M  V30 50295 C 4990.2 -1.1905 1.62571 0
M  V30 50296 O 4989.26 -1.97487 1.57338 0
M  V30 50297 C 4990.57 1.00543 2.83393 0
M  V30 50298 C 4992.12 0.984383 2.97118 0
M  V30 50299 C 4992.6 1.66443 4.26686 0
M  V30 50300 N 4994.09 1.63143 4.33519 0
M  V30 50301 C 4994.82 2.12648 5.32511 0
M  V30 50302 N 4994.32 2.70382 6.3786 0
M  V30 50303 N 4996.11 2.03227 5.24076 0
M  V30 50304 H 4988.26 1.61094 1.38428 0
M  V30 50305 H 4990.52 0.676696 0.663918 0
M  V30 50306 H 4990.23 2.06044 2.85024 0
M  V30 50307 H 4990.1 0.548493 3.73191 0
M  V30 50308 H 4992.49 -0.0621755 2.95034 0
M  V30 50309 H 4992.57 1.47989 2.08646 0
M  V30 50310 H 4992.22 2.71049 4.29529 0
M  V30 50311 H 4992.15 1.14369 5.1403 0
M  V30 50312 H 4994.64 1.20999 3.58005 0
M  V30 50313 H 4994.95 3.05867 7.09694 0
M  V30 50314 H 4993.3 2.74436 6.38521 0
M  V30 50315 H 4996.49 1.57838 4.40687 0
M  V30 50316 H 4996.66 2.42118 6.01068 0
M  V30 50317 N 4990.07 -1.52932 0.380717 0
M  V30 50318 C 4991.31 -2.0107 -0.203803 0
M  V30 50319 C 4991.63 -1.26927 -1.48035 0
M  V30 50320 O 4990.9 -0.386854 -1.92042 0
M  V30 50321 H 4989.48 -0.742885 -0.0783017 0
M  V30 50322 H 4992.15 -1.88097 0.510434 0
M  V30 50323 H 4991.24 -3.0926 -0.420101 0
M  V30 50324 N 4991.54 -0.110296 -1.57214 0
M  V30 50325 C 4992.47 0.839925 -2.1787 0
M  V30 50326 C 4993.45 1.28348 -1.11628 0
M  V30 50327 O 4994.64 1.34765 -1.39829 0
M  V30 50328 C 4991.77 2.09339 -2.77118 0
M  V30 50329 C 4990.72 1.78793 -3.88866 0
M  V30 50330 C 4990.05 3.11096 -4.34883 0
M  V30 50331 C 4991.35 1.06302 -5.11368 0
M  V30 50332 H 4993.04 0.334503 -2.97526 0
M  V30 50333 H 4990.59 0.159452 -1.43114 0
M  V30 50334 H 4992.54 2.76264 -3.18208 0
M  V30 50335 H 4991.27 2.62191 -1.9474 0
M  V30 50336 H 4989.93 1.14261 -3.48339 0
M  V30 50337 H 4989.57 3.61865 -3.49375 0
M  V30 50338 H 4989.27 2.91435 -5.10234 0
M  V30 50339 H 4990.8 3.79154 -4.78617 0
M  V30 50340 H 4992.21 1.63364 -5.49532 0
M  V30 50341 H 4990.61 0.967668 -5.92247 0
M  V30 50342 H 4991.68 0.0482865 -4.84876 0
M  V30 50343 N 4993.02 1.5675 0.163455 0
M  V30 50344 C 4993.95 2.00046 1.20431 0
M  V30 50345 C 4994.93 0.877308 1.4573 0
M  V30 50346 O 4996.12 1.14395 1.56931 0
M  V30 50347 C 4993.25 2.36706 2.54141 0
M  V30 50348 C 4992.2 3.52055 2.43396 0
M  V30 50349 C 4991.53 3.7448 3.81666 0
M  V30 50350 C 4992.83 4.85254 1.93199 0
M  V30 50351 H 4994.52 2.87247 0.844376 0
M  V30 50352 H 4992.07 1.38195 0.404731 0
M  V30 50353 H 4994.02 2.65594 3.27167 0
M  V30 50354 H 4992.74 1.46424 2.91938 0
M  V30 50355 H 4991.4 3.23307 1.72823 0
M  V30 50356 H 4991.05 2.81475 4.1687 0
M  V30 50357 H 4990.75 4.52097 3.75343 0
M  V30 50358 H 4992.28 4.05776 4.56266 0
M  V30 50359 H 4993.69 5.12966 2.56005 0
M  V30 50360 H 4992.09 5.66562 1.97805 0
M  V30 50361 H 4993.16 4.76723 0.886722 0
M  V30 50362 N 4994.5 -0.432272 1.51556 0
M  V30 50363 C 4995.43 -1.53236 1.76185 0
M  V30 50364 C 4996.41 -1.58715 0.611857 0
M  V30 50365 O 4997.6 -1.74361 0.855094 0
M  V30 50366 C 4994.73 -2.91272 1.89151 0
M  V30 50367 C 4993.68 -3.00652 3.04618 0
M  V30 50368 C 4993.01 -4.40717 3.02775 0
M  V30 50369 C 4994.31 -2.74265 4.44495 0
M  V30 50370 H 4996 -1.32877 2.68299 0
M  V30 50371 H 4993.55 -0.637795 1.29105 0
M  V30 50372 H 4995.5 -3.68195 2.04964 0
M  V30 50373 H 4994.22 -3.12874 0.936895 0
M  V30 50374 H 4992.88 -2.26169 2.88519 0
M  V30 50375 H 4992.53 -4.59294 2.05081 0
M  V30 50376 H 4992.23 -4.47922 3.80315 0
M  V30 50377 H 4993.75 -5.19607 3.20687 0
M  V30 50378 H 4995.17 -3.4092 4.60919 0
M  V30 50379 H 4993.56 -2.92874 5.23779 0
M  V30 50380 H 4994.63 -1.6984 4.54183 0
M  V30 50381 N 4995.98 -1.41788 -0.688044 0
M  V30 50382 C 4997.22 -1.41549 -1.44811 0
M  V30 50383 C 4997.55 -0.0272429 -1.94481 0
M  V30 50384 O 4996.81 0.962175 -1.70413 0
M  V30 50385 C 4997.11 -2.37541 -2.67037 0
M  V30 50386 C 4996.77 -3.84217 -2.35983 0
M  V30 50387 C 4995.43 -4.24173 -2.27224 0
M  V30 50388 C 4997.79 -4.76793 -2.10519 0
M  V30 50389 C 4995.11 -5.54702 -1.91109 0
M  V30 50390 C 4997.47 -6.0765 -1.7591 0
M  V30 50391 C 4996.13 -6.46619 -1.65653 0
M  V30 50392 H 4995.4 -0.517964 -0.529901 0
M  V30 50393 H 4998.05 -1.74638 -0.785735 0
M  V30 50394 H 4996.35 -1.97732 -3.38244 0
M  V30 50395 H 4998.05 -2.34626 -3.25195 0
M  V30 50396 H 4994.64 -3.52576 -2.43697 0
M  V30 50397 H 4998.82 -4.46721 -2.16226 0
M  V30 50398 H 4994.08 -5.83769 -1.81726 0
M  V30 50399 H 4998.25 -6.78879 -1.55228 0
M  V30 50400 H 4995.88 -7.47673 -1.37436 0
M  V30 50401 N 4997.46 0.92305 -1.2774 0
M  V30 50402 C 4998.68 1.70521 -1.17177 0
M  V30 50403 C 4999.1 1.86848 0.270815 0
M  V30 50404 O 4998.46 1.38883 1.18396 0
M  V30 50405 C 4998.51 3.10236 -1.8557 0
M  V30 50406 O 4998.23 2.94671 -3.24192 0
M  V30 50407 C 4999.73 4.0458 -1.81191 0
M  V30 50408 H 4996.95 0.533333 -0.407181 0
M  V30 50409 H 4999.49 1.15593 -1.68696 0
M  V30 50410 H 4997.65 3.62009 -1.37943 0
M  V30 50411 H 4998.06 3.83032 -3.58311 0
M  V30 50412 H 4999.54 5.00111 -2.33651 0
M  V30 50413 H 5000.01 4.32178 -0.782251 0
M  V30 50414 H 5000.62 3.58733 -2.28453 0
M  V30 50415 N 4998.93 1.09838 1.1302 0
M  V30 50416 C 4999.9 0.745134 2.1675 0
M  V30 50417 C 5000.9 -0.227379 1.59184 0
M  V30 50418 O 5002.09 -0.00501736 1.74199 0
M  V30 50419 C 4999.22 0.102663 3.40745 0
M  V30 50420 H 5000.41 1.66384 2.49512 0
M  V30 50421 H 4997.97 0.898105 1.27921 0
M  V30 50422 H 4998.7 -0.827067 3.13576 0
M  V30 50423 H 4998.49 0.802485 3.838 0
M  V30 50424 H 4999.98 -0.128935 4.17401 0
M  V30 50425 N 5000.41 -1.30324 0.8862 0
M  V30 50426 C 5001.83 -1.48674 0.580375 0
M  V30 50427 C 5002.03 -1.81192 -0.881576 0
M  V30 50428 O 5001.08 -1.90027 -1.66271 0
M  V30 50429 C 5002.4 -2.60927 1.49458 0
M  V30 50430 C 5003.95 -2.74807 1.49834 0
M  V30 50431 C 5004.42 -3.90174 2.3985 0
M  V30 50432 N 5005.91 -3.97487 2.3782 0
M  V30 50433 C 5006.65 -4.86067 3.04182 0
M  V30 50434 N 5006.14 -5.79434 3.79773 0
M  V30 50435 N 5007.94 -4.79446 2.93408 0
M  V30 50436 H 5000.09 -1.07489 1.83194 0
M  V30 50437 H 5002.35 -0.532634 0.784223 0
M  V30 50438 H 5002.06 -2.43723 2.53559 0
M  V30 50439 H 5001.93 -3.57433 1.20506 0
M  V30 50440 H 5004.32 -2.91416 0.464834 0
M  V30 50441 H 5004.4 -1.78918 1.82817 0
M  V30 50442 H 5004.04 -3.74322 3.43286 0
M  V30 50443 H 5003.97 -4.85404 2.04183 0
M  V30 50444 H 5006.46 -3.30696 1.82889 0
M  V30 50445 H 5006.78 -6.4379 4.27497 0
M  V30 50446 H 5005.12 -5.79362 3.83881 0
M  V30 50447 H 5008.31 -4.05485 2.33879 0
M  V30 50448 H 5008.48 -5.48271 3.45403 0
M  V30 50449 N 5001.89 -0.647279 -1.43694 0
M  V30 50450 C 5002.82 0.034481 -2.33475 0
M  V30 50451 C 5003.8 0.81814 -1.49132 0
M  V30 50452 O 5004.99 0.780804 -1.77812 0
M  V30 50453 C 5002.12 1.00564 -3.32422 0
M  V30 50454 C 5001.07 0.33251 -4.26706 0
M  V30 50455 C 5000.4 1.41471 -5.15645 0
M  V30 50456 C 5001.7 -0.771386 -5.16572 0
M  V30 50457 H 5003.39 -0.715265 -2.90731 0
M  V30 50458 H 5000.94 -0.345413 -1.39796 0
M  V30 50459 H 5002.89 1.49145 -3.94124 0
M  V30 50460 H 5001.61 1.78648 -2.73409 0
M  V30 50461 H 5000.27 -0.132799 -3.66359 0
M  V30 50462 H 4999.92 2.18682 -4.52976 0
M  V30 50463 H 4999.62 0.969595 -5.79545 0
M  V30 50464 H 5001.14 1.902 -5.80221 0
M  V30 50465 H 5002.56 -0.367991 -5.72118 0
M  V30 50466 H 5000.96 -1.1406 -5.89161 0
M  V30 50467 H 5002.03 -1.63185 -4.56617 0
M  V30 50468 N 5003.37 1.52728 -0.388822 0
M  V30 50469 C 5004.78 1.59553 -0.038761 0
M  V30 50470 C 5004.98 1.40284 1.44647 0
M  V30 50471 O 5004.04 1.21959 2.21093 0
M  V30 50472 C 5005.35 2.96248 -0.515513 0
M  V30 50473 C 5006.9 3.09425 -0.471729 0
M  V30 50474 C 5007.38 4.48569 -0.924663 0
M  V30 50475 N 5008.87 4.54751 -0.880656 0
M  V30 50476 C 5009.6 5.60648 -1.20254 0
M  V30 50477 N 5009.1 6.74193 -1.59486 0
M  V30 50478 N 5010.89 5.50751 -1.12382 0
M  V30 50479 H 5003.04 1.63503 -1.35575 0
M  V30 50480 H 5005.31 0.768078 -0.555663 0
M  V30 50481 H 5005.01 3.15564 -1.55282 0
M  V30 50482 H 5004.89 3.77103 0.0856595 0
M  V30 50483 H 5007.27 2.89806 0.556486 0
M  V30 50484 H 5007.35 2.30524 -1.1087 0
M  V30 50485 H 5007 4.68929 -1.95111 0
M  V30 50486 H 5006.93 5.25934 -0.264709 0
M  V30 50487 H 5009.42 3.73235 -0.591946 0
M  V30 50488 H 5009.73 7.50963 -1.82412 0
M  V30 50489 H 5008.08 6.75525 -1.63372 0
M  V30 50490 H 5011.27 4.60927 -0.816331 0
M  V30 50491 H 5011.44 6.33179 -1.37799 0
M  V30 50492 N 5004.85 0.118632 1.57153 0
M  V30 50493 C 5006.26 -0.406806 1.82214 0
M  V30 50494 C 5006.61 -1.66632 1.03577 0
M  V30 50495 O 5005.73 -2.14681 0.272247 0
M  V30 50496 C 5006.33 -0.744833 3.30511 0
M  V30 50497 C 5004.89 -1.21491 3.56254 0
M  V30 50498 C 5004.03 -0.223414 2.76399 0
M  V30 50499 H 5006.99 0.343767 1.54932 0
M  V30 50500 H 5007.01 -1.60228 3.45119 0
M  V30 50501 H 5006.52 0.172047 3.87718 0
M  V30 50502 H 5004.62 -2.1487 3.04404 0
M  V30 50503 H 5004.73 -1.16048 4.64833 0
M  V30 50504 H 5003.1 -0.710374 2.44593 0
M  V30 50505 H 5003.88 0.686557 3.36365 0
M  V30 50506 N 5006.32 -1.56835 -0.15514 0
M  V30 50507 C 5007.57 -1.82539 -0.867398 0
M  V30 50508 C 5007.89 -0.698232 -1.82071 0
M  V30 50509 O 5007.16 0.280739 -1.93878 0
M  V30 50510 H 5005.74 -0.673412 -0.323303 0
M  V30 50511 H 5008.41 -1.94313 -0.151088 0
M  V30 50512 H 5007.5 -2.77176 -1.43456 0
M  V30 50513 N 5007.8 0.424229 -1.51783 0
M  V30 50514 C 5009.03 1.19922 -1.69214 0
M  V30 50515 C 5009.45 1.83918 -0.39442 0
M  V30 50516 O 5008.81 1.69373 0.646719 0
M  V30 50517 C 5008.86 2.24927 -2.81851 0
M  V30 50518 O 5007.96 3.30722 -2.46367 0
M  V30 50519 H 5007.3 0.35076 -0.563794 0
M  V30 50520 H 5009.83 0.499331 -1.98413 0
M  V30 50521 H 5009.84 2.69502 -3.06321 0
M  V30 50522 H 5008.52 1.77728 -3.76013 0
M  V30 50523 H 5007.1 2.91532 -2.32516 0
M  V30 50524 N 5009.28 1.4215 0.680515 0
M  V30 50525 C 5010.69 1.37685 1.26094 0
M  V30 50526 C 5011.04 0.0673038 1.96085 0
M  V30 50527 O 5010.17 -0.834102 1.99679 0
M  V30 50528 C 5010.76 2.49395 2.2932 0
M  V30 50529 C 5009.32 2.4828 2.82903 0
M  V30 50530 C 5008.47 2.28476 1.57144 0
M  V30 50531 H 5011.42 1.51447 0.474273 0
M  V30 50532 H 5011.44 2.19318 3.10934 0
M  V30 50533 H 5010.95 3.44692 1.7835 0
M  V30 50534 H 5009.05 1.56784 3.38008 0
M  V30 50535 H 5009.17 3.45121 3.32308 0
M  V30 50536 H 5007.53 1.7663 1.83505 0
M  V30 50537 H 5008.31 3.2582 1.08149 0
M  V30 50538 N 5010.76 -0.916262 1.28228 0
M  V30 50539 C 5011.98 -1.70426 1.18194 0
M  V30 50540 C 5012.41 -1.86347 -0.256208 0
M  V30 50541 O 5011.77 -1.37179 -1.18539 0
M  V30 50542 C 5011.81 -3.0754 1.88286 0
M  V30 50543 O 5010.92 -3.949 1.18862 0
M  V30 50544 H 5010.26 -0.521952 0.410441 0
M  V30 50545 H 5012.79 -1.14583 1.69505 0
M  V30 50546 H 5012.8 -3.57786 1.96095 0
M  V30 50547 H 5011.47 -2.95269 2.92898 0
M  V30 50548 H 5010.05 -3.53335 1.192 0
M  V30 50549 N 5012.24 -1.10435 -1.12436 0
M  V30 50550 C 5013.17 -0.77522 -2.20256 0
M  V30 50551 C 5014.15 0.251801 -1.68226 0
M  V30 50552 O 5015.33 0.117569 -1.93844 0
M  V30 50553 C 5012.46 -0.206255 -3.46687 0
M  V30 50554 C 5011.42 -1.16396 -4.11869 0
M  V30 50555 C 5010.74 -0.456202 -5.3275 0
M  V30 50556 C 5012.04 -2.51056 -4.58005 0
M  V30 50557 H 5013.74 -1.67673 -2.48044 0
M  V30 50558 H 5011.28 -0.807637 -1.19219 0
M  V30 50559 H 5013.24 0.0361429 -4.21385 0
M  V30 50560 H 5011.96 0.730502 -3.18326 0
M  V30 50561 H 5010.62 -1.39181 -3.39152 0
M  V30 50562 H 5010.27 0.485027 -5.00656 0
M  V30 50563 H 5009.97 -1.09486 -5.7731 0
M  V30 50564 H 5011.49 -0.22235 -6.10195 0
M  V30 50565 H 5012.91 -2.32419 -5.24075 0
M  V30 50566 H 5011.3 -3.10807 -5.13341 0
M  V30 50567 H 5012.37 -3.11053 -3.71987 0
M  V30 50568 N 5013.72 1.29852 -0.893099 0
M  V30 50569 C 5014.68 2.26181 -0.370766 0
M  V30 50570 C 5015.68 1.5311 0.491331 0
M  V30 50571 O 5016.87 1.71644 0.297326 0
M  V30 50572 C 5014 3.37635 0.470708 0
M  V30 50573 H 5015.19 2.73899 -1.22145 0
M  V30 50574 H 5012.75 1.4118 -0.67066 0
M  V30 50575 H 5013.48 2.95246 1.34165 0
M  V30 50576 H 5013.27 3.91825 -0.146922 0
M  V30 50577 H 5014.76 4.09316 0.827681 0
M  V30 50578 N 5015.19 0.65489 1.43349 0
M  V30 50579 C 5016.12 -0.0220988 2.3349 0
M  V30 50580 C 5017.1 -0.81022 1.49564 0
M  V30 50581 O 5018.29 -0.771363 1.78224 0
M  V30 50582 C 5015.42 -0.988 3.3295 0
M  V30 50583 C 5014.37 -0.309876 4.26877 0
M  V30 50584 C 5013.7 -1.38734 5.16388 0
M  V30 50585 C 5015 0.79877 5.16156 0
M  V30 50586 H 5016.69 0.730673 2.90347 0
M  V30 50587 H 5014.24 0.352822 1.39611 0
M  V30 50588 H 5016.19 -1.47053 3.94909 0
M  V30 50589 H 5014.92 -1.77195 2.74353 0
M  V30 50590 H 5013.58 0.152226 3.66284 0
M  V30 50591 H 5013.22 -2.16277 4.54129 0
M  V30 50592 H 5012.92 -0.938847 5.80051 0
M  V30 50593 H 5014.45 -1.8712 5.81221 0
M  V30 50594 H 5015.86 0.398327 5.71915 0
M  V30 50595 H 5014.26 1.17183 5.88547 0
M  V30 50596 H 5015.33 1.65604 4.55745 0
M  V30 50597 N 5016.67 -1.5252 0.396917 0
M  V30 50598 C 5017.92 -2.01673 -0.182827 0
M  V30 50599 C 5018.25 -1.28307 -1.46176 0
M  V30 50600 O 5017.5 -0.374186 -1.92089 0
M  V30 50601 C 5017.8 -3.54031 -0.489552 0
M  V30 50602 C 5017.47 -4.45453 0.698737 0
M  V30 50603 C 5016.13 -4.70163 1.02471 0
M  V30 50604 C 5018.48 -4.99348 1.49334 0
M  V30 50605 C 5015.81 -5.46016 2.14669 0
M  V30 50606 C 5018.16 -5.76429 2.60599 0
M  V30 50607 C 5016.82 -5.99415 2.93696 0
M  V30 50608 H 5016.09 -0.737974 -0.0669011 0
M  V30 50609 H 5018.74 -1.83851 0.535828 0
M  V30 50610 H 5017.05 -3.69967 -1.28963 0
M  V30 50611 H 5018.74 -3.89563 -0.950881 0
M  V30 50612 H 5015.33 -4.2639 0.434675 0
M  V30 50613 H 5019.52 -4.80177 1.25474 0
M  V30 50614 H 5014.77 -5.62037 2.40674 0
M  V30 50615 H 5018.95 -6.17191 3.22566 0
M  V30 50616 H 5016.57 -6.57975 3.80754 0
M  V30 50617 N 5018.15 -0.126964 -1.57088 0
M  V30 50618 C 5019.08 0.81677 -2.18749 0
M  V30 50619 C 5020.06 1.27157 -1.12983 0
M  V30 50620 O 5021.25 1.33274 -1.4125 0
M  V30 50621 C 5018.38 2.06388 -2.79323 0
M  V30 50622 C 5017.33 1.74659 -3.90741 0
M  V30 50623 C 5016.66 3.06466 -4.38158 0
M  V30 50624 C 5017.96 1.00872 -5.12467 0
M  V30 50625 H 5019.65 0.302928 -2.97864 0
M  V30 50626 H 5017.2 0.144264 -1.43276 0
M  V30 50627 H 5019.15 2.72873 -3.2112 0
M  V30 50628 H 5017.87 2.60111 -1.97509 0
M  V30 50629 H 5016.53 1.1056 -3.49531 0
M  V30 50630 H 5016.18 3.58139 -3.53193 0
M  V30 50631 H 5015.88 2.86007 -5.13297 0
M  V30 50632 H 5017.4 3.74056 -4.82612 0
M  V30 50633 H 5018.82 1.57526 -5.51233 0
M  V30 50634 H 5017.21 0.904798 -5.9324 0
M  V30 50635 H 5018.28 -0.00314382 -4.849 0
M  V30 50636 N 5019.63 1.56915 0.14682 0
M  V30 50637 C 5020.85 1.87884 0.87832 0
M  V30 50638 C 5021.28 0.716006 1.7394 0
M  V30 50639 O 5020.64 -0.334384 1.7819 0
M  V30 50640 C 5020.68 3.17437 1.71073 0
M  V30 50641 O 5019.79 3.01384 2.81498 0
M  V30 50642 H 5019.13 0.617297 0.244623 0
M  V30 50643 H 5021.66 2.04137 0.137582 0
M  V30 50644 H 5021.67 3.49463 2.1057 0
M  V30 50645 H 5020.34 4.01675 1.07842 0
M  V30 50646 H 5018.92 2.80767 2.45406 0
M  V30 50647 N 5021.11 -0.416173 1.52006 0
M  V30 50648 C 5022.05 -1.52714 1.75446 0
M  V30 50649 C 5023.05 -1.57593 0.621344 0
M  V30 50650 O 5024.25 -1.61085 0.803229 0
M  V30 50651 H 5020.63 -0.507752 0.5547 0
M  V30 50652 H 5022.6 -1.30127 2.68532 0
M  V30 50653 C 5021.35 -2.90158 1.91581 0
M  V30 50654 H 5020.67 -2.87144 2.78188 0
M  V30 50655 H 5022.11 -3.67204 2.11985 0
M  V30 50656 C 5020.57 -3.29944 0.681058 0
M  V30 50657 O 5021.1 -4.01403 -0.154386 0
M  V30 50658 N 5019.31 -2.85928 0.518994 0
M  V30 50659 H 5018.85 -2.27945 1.19994 0
M  V30 50660 H 5018.81 -3.12909 -0.305875 0
M  V30 50661 N 5022.58 -1.42509 -0.672966 0
M  V30 50662 C 5023.83 -1.42794 -1.43018 0
M  V30 50663 C 5024.15 -0.0460423 -1.94946 0
M  V30 50664 O 5023.42 0.915704 -1.73181 0
M  V30 50665 H 5022 -0.525676 -0.53073 0
M  V30 50666 H 5024.66 -1.77947 -0.79505 0
M  V30 50667 H 5023.76 -2.1288 -2.2823 0
M  V30 50668 N 5024.06 0.909449 -1.28712 0
M  V30 50669 C 5025.01 1.99906 -1.09643 0
M  V30 50670 C 5026 1.60889 -0.0187766 0
M  V30 50671 O 5027.19 1.75374 -0.2394 0
M  V30 50672 C 5024.32 3.34672 -0.76482 0
M  V30 50673 C 5023.4 3.80078 -1.88153 0
M  V30 50674 N 5023.79 3.97813 -3.12375 0
M  V30 50675 C 5022.09 4.09272 -1.77236 0
M  V30 50676 C 5022.79 4.35915 -3.85166 0
M  V30 50677 N 5021.77 4.44415 -3.13044 0
M  V30 50678 H 5025.57 2.11674 -2.0389 0
M  V30 50679 H 5023.08 1.09759 -1.19694 0
M  V30 50680 H 5025.08 4.12424 -0.609277 0
M  V30 50681 H 5023.74 3.24256 0.169838 0
M  V30 50682 H 5024.75 3.83614 -3.47938 0
M  V30 50683 H 5021.43 4.07467 -0.909764 0
M  V30 50684 H 5022.82 4.57563 -4.92022 0
M  V30 50685 N 5025.54 1.1103 1.11848 0
M  V30 50686 C 5026.79 0.856525 1.83494 0
M  V30 50687 C 5027.11 -0.617873 1.84425 0
M  V30 50688 O 5026.37 -1.4719 1.28971 0
M  V30 50689 C 5026.67 1.35789 3.306 0
M  V30 50690 C 5026.33 2.84478 3.49833 0
M  V30 50691 C 5025 3.2508 3.5479 0
M  V30 50692 C 5027.35 3.80264 3.56439 0
M  V30 50693 C 5024.68 4.60207 3.63905 0
M  V30 50694 C 5027.03 5.15201 3.67084 0
M  V30 50695 C 5025.69 5.55369 3.703 0
M  V30 50696 H 5024.96 0.313425 0.671451 0
M  V30 50697 H 5027.61 1.38797 1.31938 0
M  V30 50698 H 5025.91 0.74659 3.84621 0
M  V30 50699 H 5027.61 1.13793 3.84516 0
M  V30 50700 H 5024.2 2.52066 3.46642 0
M  V30 50701 H 5028.39 3.49998 3.51873 0
M  V30 50702 H 5023.64 4.90741 3.64669 0
M  V30 50703 H 5027.82 5.89261 3.71139 0
M  V30 50704 H 5025.44 6.60067 3.77115 0
M  V30 50705 N 5027.02 -1.29376 0.899973 0
M  V30 50706 C 5028.26 -1.95838 0.526811 0
M  V30 50707 C 5028.6 -1.70777 -0.924591 0
M  V30 50708 O 5027.87 -1.0209 -1.65553 0
M  V30 50709 C 5028.16 -3.50635 0.820185 0
M  V30 50710 C 5028.01 -3.85152 2.32331 0
M  V30 50711 C 5029.33 -4.39029 0.306864 0
M  V30 50712 H 5026.45 -0.711315 0.192873 0
M  V30 50713 H 5029.09 -1.52988 1.1267 0
M  V30 50714 H 5027.24 -3.87264 0.309627 0
M  V30 50715 H 5028.91 -3.58467 2.90343 0
M  V30 50716 H 5027.15 -3.32686 2.78393 0
M  V30 50717 H 5027.82 -4.93196 2.47915 0
M  V30 50718 H 5030.3 -4.09394 0.744052 0
M  V30 50719 H 5029.18 -5.46224 0.541336 0
M  V30 50720 H 5029.44 -4.3494 -0.792435 0
M  V30 50721 N 5028.5 -0.662483 -1.43 0
M  V30 50722 C 5029.46 0.014121 -2.29196 0
M  V30 50723 C 5030.46 0.741344 -1.42691 0
M  V30 50724 O 5031.65 0.581199 -1.64219 0
M  V30 50725 C 5028.78 1.03072 -3.24944 0
M  V30 50726 H 5029.97 -0.744402 -2.90514 0
M  V30 50727 H 5027.53 -0.424186 -1.50434 0
M  V30 50728 H 5028.26 1.81816 -2.68539 0
M  V30 50729 H 5028.05 0.512809 -3.88732 0
M  V30 50730 H 5029.54 1.50294 -3.89617 0
M  V30 50731 N 5029.97 1.52307 -0.404999 0
M  V30 50732 C 5030.91 2.24581 0.457831 0
M  V30 50733 C 5031.92 1.27393 1.01365 0
M  V30 50734 O 5033.11 1.53366 0.913296 0
M  V30 50735 C 5030.21 2.96086 1.64882 0
M  V30 50736 C 5029.38 4.2011 1.21762 0
M  V30 50737 C 5028.44 4.74476 2.27506 0
M  V30 50738 O 5027.47 5.37163 1.88266 0
M  V30 50739 N 5028.67 4.55691 3.59619 0
M  V30 50740 H 5031.43 2.99265 -0.161446 0
M  V30 50741 H 5028.99 1.60227 -0.232163 0
M  V30 50742 H 5030.99 3.29352 2.35179 0
M  V30 50743 H 5029.56 2.24614 2.17411 0
M  V30 50744 H 5028.78 3.92706 0.342933 0
M  V30 50745 H 5030.06 5.00661 0.90642 0
M  V30 50746 H 5029.46 4.05687 3.94252 0
M  V30 50747 H 5028.02 4.93405 4.25905 0
M  V30 50748 N 5031.45 0.135293 1.57018 0
M  V30 50749 C 5032.39 -0.846543 2.11917 0
M  V30 50750 C 5033.36 -1.25016 1.0397 0
M  V30 50751 O 5034.55 -1.34833 1.31728 0
M  V30 50752 C 5031.67 -2.13511 2.62927 0
M  V30 50753 C 5030.72 -1.87832 3.82912 0
M  V30 50754 S 5031.55 -1.07987 5.24499 0
M  V30 50755 C 5032.71 -2.37988 5.78889 0
M  V30 50756 H 5032.94 -0.379648 2.94866 0
M  V30 50757 H 5030.48 -0.0787845 1.54199 0
M  V30 50758 H 5032.43 -2.87541 2.92969 0
M  V30 50759 H 5031.09 -2.57317 1.8013 0
M  V30 50760 H 5030.29 -2.83351 4.16807 0
M  V30 50761 H 5029.89 -1.21917 3.53571 0
M  V30 50762 H 5032.18 -3.33721 5.89607 0
M  V30 50763 H 5033.12 -2.08614 6.76673 0
M  V30 50764 H 5033.53 -2.48101 5.07056 0
M  V30 50765 N 5032.93 -1.5699 -0.138497 0
M  V30 50766 C 5033.84 -2.02178 -1.19001 0
M  V30 50767 C 5034.86 -0.938673 -1.46509 0
M  V30 50768 O 5036.03 -1.24878 -1.58011 0
M  V30 50769 C 5033.1 -2.40054 -2.5015 0
M  V30 50770 C 5032.16 -3.62354 -2.30214 0
M  V30 50771 C 5031.39 -3.98413 -3.55109 0
M  V30 50772 O 5031.61 -3.35035 -4.61636 0
M  V30 50773 O 5030.55 -4.91619 -3.47267 0
M  V30 50774 H 5034.37 -2.91957 -0.83635 0
M  V30 50775 H 5031.96 -1.45294 -0.347856 0
M  V30 50776 H 5033.84 -2.65237 -3.27456 0
M  V30 50777 H 5032.52 -1.53427 -2.8503 0
M  V30 50778 H 5031.42 -3.42346 -1.50831 0
M  V30 50779 H 5032.76 -4.49624 -2.00247 0
M  V30 50780 N 5034.41 0.408106 -1.52224 0
M  V30 50781 C 5035.66 1.15268 -1.66005 0
M  V30 50782 C 5035.98 1.91001 -0.392871 0
M  V30 50783 O 5035.25 1.86732 0.592271 0
M  V30 50784 H 5033.83 0.428505 -0.611876 0
M  V30 50785 H 5036.49 0.465054 -1.8927 0
M  V30 50786 H 5035.59 1.86619 -2.5016 0
M  V30 50787 N 5035.89 1.42864 0.665399 0
M  V30 50788 C 5036.82 1.49874 1.79054 0
M  V30 50789 C 5037.8 0.354452 1.66366 0
M  V30 50790 O 5038.98 0.570034 1.85645 0
M  V30 50791 C 5036.11 1.40954 3.1741 0
M  V30 50792 C 5035.07 2.53507 3.44845 0
M  V30 50793 C 5034.39 2.29643 4.82875 0
M  V30 50794 C 5035.69 3.95793 3.40801 0
M  V30 50795 H 5037.39 2.44044 1.73445 0
M  V30 50796 H 5034.93 1.17459 0.833029 0
M  V30 50797 H 5036.89 1.44464 3.95864 0
M  V30 50798 H 5035.61 0.43283 3.23719 0
M  V30 50799 H 5034.27 2.49329 2.68757 0
M  V30 50800 H 5033.92 1.30243 4.85845 0
M  V30 50801 H 5033.62 3.05083 5.02193 0
M  V30 50802 H 5035.14 2.34917 5.63601 0
M  V30 50803 H 5036.55 4.01523 4.0921 0
M  V30 50804 H 5034.95 4.71161 3.71655 0
M  V30 50805 H 5036.02 4.21795 2.39201 0
M  V30 50806 N 5037.36 -0.902611 1.29192 0
M  V30 50807 C 5038.61 -1.64956 1.16764 0
M  V30 50808 C 5038.93 -1.92953 -0.281812 0
M  V30 50809 O 5038.2 -1.55355 -1.19338 0
M  V30 50810 H 5036.78 -0.611431 0.429139 0
M  V30 50811 H 5039.45 -1.08244 1.62078 0
M  V30 50812 H 5038.54 -2.60722 1.71553 0
M  V30 50813 N 5038.84 -1.11622 -1.11258 0
M  V30 50814 C 5040.07 -0.888805 -1.86836 0
M  V30 50815 C 5040.49 0.561495 -1.80257 0
M  V30 50816 O 5039.84 1.38778 -1.1852 0
M  V30 50817 C 5039.89 -1.34433 -3.35574 0
M  V30 50818 O 5039.61 -2.73778 -3.4202 0
M  V30 50819 C 5041.12 -1.15261 -4.28053 0
M  V30 50820 H 5038.34 -0.318173 -0.590768 0
M  V30 50821 H 5040.88 -1.48403 -1.40702 0
M  V30 50822 H 5039.03 -0.792524 -3.79207 0
M  V30 50823 H 5039.45 -2.93565 -4.34649 0
M  V30 50824 H 5040.92 -1.52033 -5.3065 0
M  V30 50825 H 5041.4 -0.0923551 -4.39103 0
M  V30 50826 H 5042.01 -1.6915 -3.90216 0
M  V30 50827 N 5040.32 1.28897 -0.906821 0
M  V30 50828 C 5041.74 1.47731 -0.603954 0
M  V30 50829 C 5041.94 1.82571 0.852638 0
M  V30 50830 O 5040.99 1.92648 1.63227 0
M  V30 50831 C 5042.31 2.58516 -1.5359 0
M  V30 50832 C 5043.85 2.72388 -1.54187 0
M  V30 50833 C 5044.33 3.86309 -2.46027 0
M  V30 50834 N 5045.82 3.93653 -2.44114 0
M  V30 50835 C 5046.55 4.81166 -3.11876 0
M  V30 50836 N 5046.05 5.73319 -3.88943 0
M  V30 50837 N 5047.84 4.74717 -3.00998 0
M  V30 50838 H 5039.99 1.04561 -1.8488 0
M  V30 50839 H 5042.26 0.52009 -0.792597 0
M  V30 50840 H 5041.96 2.39658 -2.57404 0
M  V30 50841 H 5041.84 3.5547 -1.26177 0
M  V30 50842 H 5044.22 2.9064 -0.511137 0
M  V30 50843 H 5044.31 1.75987 -1.8564 0
M  V30 50844 H 5043.95 3.68813 -3.49198 0
M  V30 50845 H 5043.88 4.82094 -2.11879 0
M  V30 50846 H 5046.37 3.27745 -1.88127 0
M  V30 50847 H 5046.68 6.36908 -4.37685 0
M  V30 50848 H 5045.03 5.73182 -3.93049 0
M  V30 50849 H 5048.22 4.01713 -2.403 0
M  V30 50850 H 5048.39 5.42707 -3.54081 0
M  V30 50851 N 5041.8 0.670057 1.42646 0
M  V30 50852 C 5042.73 0.0026671 2.335 0
M  V30 50853 C 5043.71 -0.794311 1.50415 0
M  V30 50854 O 5044.9 -0.752417 1.79032 0
M  V30 50855 C 5042.03 -0.952631 3.33979 0
M  V30 50856 C 5040.98 -0.264582 4.27181 0
M  V30 50857 C 5040.31 -1.33249 5.17831 0
M  V30 50858 C 5041.61 0.85347 5.1528 0
M  V30 50859 H 5043.3 0.761427 2.89556 0
M  V30 50860 H 5040.85 0.36761 1.39229 0
M  V30 50861 H 5042.8 -1.42856 3.96447 0
M  V30 50862 H 5041.52 -1.74275 2.76217 0
M  V30 50863 H 5040.18 0.191067 3.66102 0
M  V30 50864 H 5039.83 -2.11448 4.56397 0
M  V30 50865 H 5039.53 -0.877272 5.81014 0
M  V30 50866 H 5041.05 -1.80945 5.83173 0
M  V30 50867 H 5042.47 0.458964 5.7146 0
M  V30 50868 H 5040.86 1.23419 5.87271 0
M  V30 50869 H 5041.93 1.70428 4.53963 0
M  V30 50870 N 5043.28 -1.5209 0.413071 0
M  V30 50871 C 5044.69 -1.59471 0.0641396 0
M  V30 50872 C 5044.89 -1.42567 -1.42397 0
M  V30 50873 O 5043.95 -1.25461 -2.19125 0
M  V30 50874 C 5045.26 -2.9539 0.562578 0
M  V30 50875 C 5046.81 -3.08635 0.520897 0
M  V30 50876 C 5047.29 -4.47041 0.995909 0
M  V30 50877 N 5048.78 -4.53293 0.952891 0
M  V30 50878 C 5049.51 -5.58664 1.29158 0
M  V30 50879 N 5049.01 -6.7157 1.70192 0
M  V30 50880 N 5050.8 -5.48893 1.2113 0
M  V30 50881 H 5042.95 -1.61325 1.38159 0
M  V30 50882 H 5045.21 -0.75914 0.567812 0
M  V30 50883 H 5044.92 -3.13053 1.60282 0
M  V30 50884 H 5044.79 -3.77191 -0.0256549 0
M  V30 50885 H 5047.18 -2.90654 -0.51031 0
M  V30 50886 H 5047.26 -2.28731 1.14523 0
M  V30 50887 H 5046.91 -4.65765 2.02546 0
M  V30 50888 H 5046.84 -5.25447 0.348347 0
M  V30 50889 H 5049.33 -3.72246 0.65125 0
M  V30 50890 H 5049.64 -7.47966 1.94336 0
M  V30 50891 H 5047.99 -6.72841 1.74099 0
M  V30 50892 H 5051.18 -4.5957 0.889557 0
M  V30 50893 H 5051.35 -6.30906 1.47855 0
M  V30 50894 N 5044.76 -0.143618 -1.56944 0
M  V30 50895 C 5045.72 0.783219 -2.15403 0
M  V30 50896 C 5046.72 1.1776 -1.09496 0
M  V30 50897 O 5047.91 1.09907 -1.35152 0
M  V30 50898 C 5045.04 2.06239 -2.71438 0
M  V30 50899 H 5046.23 0.274758 -2.98639 0
M  V30 50900 H 5043.79 0.105805 -1.55941 0
M  V30 50901 H 5044.52 2.61459 -1.91858 0
M  V30 50902 H 5044.31 1.78885 -3.48916 0
M  V30 50903 H 5045.8 2.72442 -3.16489 0
M  V30 50904 N 5046.23 1.57062 0.130169 0
M  V30 50905 C 5047.17 1.96151 1.18564 0
M  V30 50906 C 5048.18 0.859396 1.38269 0
M  V30 50907 O 5049.37 1.13774 1.37541 0
M  V30 50908 C 5046.47 2.23493 2.54763 0
M  V30 50909 C 5045.64 3.54795 2.55811 0
M  V30 50910 C 5044.7 3.7048 3.73673 0
M  V30 50911 O 5043.73 4.42706 3.57771 0
M  V30 50912 N 5044.93 3.08406 4.91798 0
M  V30 50913 H 5047.69 2.87298 0.853232 0
M  V30 50914 H 5045.25 1.58715 0.319565 0
M  V30 50915 H 5047.25 2.31211 3.3215 0
M  V30 50916 H 5045.82 1.38528 2.8023 0
M  V30 50917 H 5045.04 3.58365 1.64219 0
M  V30 50918 H 5046.32 4.41119 2.53558 0
M  V30 50919 H 5045.72 2.49674 5.07621 0
M  V30 50920 H 5044.28 3.21662 5.66901 0
M  V30 50921 N 5047.71 -0.400028 1.52439 0
M  V30 50922 C 5048.94 -1.17215 1.71101 0
M  V30 50923 C 5049.36 -1.83268 0.42363 0
M  V30 50924 O 5048.72 -1.70381 -0.619691 0
M  V30 50925 C 5048.77 -2.20415 2.85394 0
M  V30 50926 O 5047.87 -3.2676 2.51598 0
M  V30 50927 H 5047.21 -0.341746 0.569303 0
M  V30 50928 H 5049.74 -0.467702 1.99183 0
M  V30 50929 H 5049.75 -2.64594 3.1057 0
M  V30 50930 H 5048.43 -1.71724 3.78792 0
M  V30 50931 H 5047 -2.87796 2.37124 0
M  V30 50932 N 5049.19 -1.43215 -0.657814 0
M  V30 50933 C 5050.61 -1.26514 -0.972947 0
M  V30 50934 C 5050.81 -0.181547 -2.0068 0
M  V30 50935 O 5049.86 0.441562 -2.48609 0
M  V30 50936 C 5051.17 -2.62789 -1.46158 0
M  V30 50937 C 5052.72 -2.70284 -1.57847 0
M  V30 50938 C 5053.2 -4.06965 -2.10103 0
M  V30 50939 N 5054.69 -4.09007 -2.17412 0
M  V30 50940 C 5055.42 -5.11594 -2.58957 0
M  V30 50941 N 5054.92 -6.24558 -2.99831 0
M  V30 50942 N 5056.71 -4.98949 -2.58856 0
M  V30 50943 H 5048.86 -2.12384 0.0263876 0
M  V30 50944 H 5051.13 -0.94664 -0.0507659 0
M  V30 50945 H 5050.83 -3.43024 -0.776353 0
M  V30 50946 H 5050.71 -2.87872 -2.43741 0
M  V30 50947 H 5053.09 -1.90384 -2.25473 0
M  V30 50948 H 5053.17 -2.48972 -0.587091 0
M  V30 50949 H 5052.82 -4.8733 -1.43081 0
M  V30 50950 H 5052.75 -4.25639 -3.10063 0
M  V30 50951 H 5055.24 -3.27464 -1.88615 0
M  V30 50952 H 5055.55 -6.98672 -3.30268 0
M  V30 50953 H 5053.9 -6.28038 -2.97647 0
M  V30 50954 H 5057.09 -4.09765 -2.26297 0
M  V30 50955 H 5057.26 -5.79029 -2.90912 0
M  V30 50956 N 5050.67 0.895746 -1.29669 0
M  V30 50957 C 5051.6 2.00559 -1.10944 0
M  V30 50958 C 5052.61 1.62704 -0.0557912 0
M  V30 50959 O 5053.8 1.75949 -0.300718 0
M  V30 50960 C 5050.9 3.3226 -0.667565 0
M  V30 50961 C 5050.07 3.98619 -1.80061 0
M  V30 50962 C 5049.13 5.08612 -1.34908 0
M  V30 50963 O 5048.16 5.3083 -2.05448 0
M  V30 50964 N 5049.36 5.80075 -0.222141 0
M  V30 50965 H 5052.13 2.17176 -2.0653 0
M  V30 50966 H 5049.69 1.06818 -1.21662 0
M  V30 50967 H 5051.68 4.03195 -0.348728 0
M  V30 50968 H 5050.25 3.11985 0.195945 0
M  V30 50969 H 5049.47 3.20997 -2.28812 0
M  V30 50970 H 5050.76 4.39695 -2.56019 0
M  V30 50971 H 5050.16 5.64516 0.365885 0
M  V30 50972 H 5048.71 6.51789 0.0373055 0
M  V30 50973 N 5052.15 1.1221 1.10665 0
M  V30 50974 C 5053.56 0.857666 1.34597 0
M  V30 50975 C 5053.76 -0.513473 1.94848 0
M  V30 50976 O 5052.82 -1.26265 2.18663 0
M  V30 50977 C 5054.13 1.9722 2.26991 0
M  V30 50978 C 5055.68 2.0028 2.40534 0
M  V30 50979 C 5056.15 3.1096 3.36256 0
M  V30 50980 N 5057.64 3.10387 3.43823 0
M  V30 50981 C 5058.38 3.92666 4.17853 0
M  V30 50982 N 5057.88 4.84928 4.9479 0
M  V30 50983 N 5059.67 3.80812 4.13447 0
M  V30 50984 H 5051.82 2.0056 0.699235 0
M  V30 50985 H 5054.08 0.872625 0.370446 0
M  V30 50986 H 5053.79 2.96009 1.89926 0
M  V30 50987 H 5053.66 1.87532 3.27279 0
M  V30 50988 H 5056.05 1.02112 2.7687 0
M  V30 50989 H 5056.13 2.14042 1.4007 0
M  V30 50990 H 5055.77 4.09358 3.00646 0
M  V30 50991 H 5055.7 2.94436 4.36594 0
M  V30 50992 H 5058.2 2.43546 2.88953 0
M  V30 50993 H 5058.51 5.44226 5.48669 0
M  V30 50994 H 5056.85 4.88944 4.93922 0
M  V30 50995 H 5060.04 3.08071 3.52434 0
M  V30 50996 H 5060.22 4.45167 4.70883 0
M  V30 50997 N 5053.62 -1.28415 0.913644 0
M  V30 50998 C 5054.85 -1.99641 0.561969 0
M  V30 50999 C 5055.27 -1.67822 -0.849549 0
M  V30 51000 O 5054.63 -0.910558 -1.56775 0
M  V30 51001 C 5054.68 -3.52113 0.777746 0
M  V30 51002 O 5053.78 -4.12077 -0.163312 0
M  V30 51003 H 5053.12 -0.627222 0.21792 0
M  V30 51004 H 5055.65 -1.63571 1.22905 0
M  V30 51005 H 5055.66 -4.02161 0.687808 0
M  V30 51006 H 5054.34 -3.74606 1.80673 0
M  V30 51007 H 5052.92 -3.72892 -0.0246516 0
M  V30 51008 N 5055.1 -0.677613 -1.42289 0
M  V30 51009 C 5056.52 -0.347431 -1.55773 0
M  V30 51010 C 5056.72 1.14697 -1.65671 0
M  V30 51011 O 5055.77 1.93246 -1.62518 0
M  V30 51012 C 5057.09 -1.08021 -2.80628 0
M  V30 51013 C 5058.63 -1.06281 -2.94403 0
M  V30 51014 C 5059.11 -1.77698 -4.22123 0
M  V30 51015 N 5060.6 -1.74579 -4.29041 0
M  V30 51016 C 5061.34 -2.26692 -5.26686 0
M  V30 51017 N 5060.83 -2.87198 -6.30467 0
M  V30 51018 N 5062.62 -2.1705 -5.18503 0
M  V30 51019 H 5054.78 -1.64708 -1.34108 0
M  V30 51020 H 5057.04 -0.69406 -0.645743 0
M  V30 51021 H 5056.74 -2.13528 -2.79461 0
M  V30 51022 H 5056.62 -0.647245 -3.71605 0
M  V30 51023 H 5059.01 -0.0160696 -2.95096 0
M  V30 51024 H 5059.09 -1.53469 -2.04649 0
M  V30 51025 H 5058.73 -2.82342 -4.22191 0
M  V30 51026 H 5058.66 -1.27958 -5.10817 0
M  V30 51027 H 5061.15 -1.30449 -3.54671 0
M  V30 51028 H 5061.46 -3.24576 -7.01335 0
M  V30 51029 H 5059.81 -2.91269 -6.31021 0
M  V30 51030 H 5063 -1.69467 -4.36347 0
M  V30 51031 H 5063.17 -2.57969 -5.94437 0
M  V30 51032 N 5056.58 1.51869 -0.421131 0
M  V30 51033 C 5057.99 1.86644 0.0457335 0
M  V30 51034 C 5058.34 1.33924 1.43384 0
M  V30 51035 O 5057.47 0.683388 2.05326 0
M  V30 51036 C 5058.06 3.38681 0.0897653 0
M  V30 51037 C 5056.62 3.73051 0.500996 0
M  V30 51038 C 5055.77 2.75484 -0.31682 0
M  V30 51039 H 5058.72 1.45325 -0.637686 0
M  V30 51040 H 5058.74 3.69639 0.902604 0
M  V30 51041 H 5058.25 3.77022 -0.920646 0
M  V30 51042 H 5056.35 3.40293 1.51761 0
M  V30 51043 H 5056.47 4.78513 0.237049 0
M  V30 51044 H 5054.83 2.53726 0.222574 0
M  V30 51045 H 5055.61 3.16666 -1.3258 0
M  V30 51046 N 5058.06 0.151939 1.56866 0
M  V30 51047 C 5059.31 -0.496952 1.95895 0
M  V30 51048 C 5059.63 -1.65074 1.03805 0
M  V30 51049 O 5058.9 -1.95642 0.100559 0
M  V30 51050 H 5057.48 -0.186578 0.723324 0
M  V30 51051 H 5060.14 0.228593 1.93555 0
M  V30 51052 H 5059.24 -0.869828 2.99734 0
M  V30 51053 N 5059.54 -1.57128 -0.121838 0
M  V30 51054 C 5060.95 -1.52359 -0.475286 0
M  V30 51055 C 5061.15 -0.864481 -1.82014 0
M  V30 51056 O 5060.21 -0.445616 -2.48537 0
M  V30 51057 C 5061.52 -2.97124 -0.462395 0
M  V30 51058 C 5063.07 -3.08198 -0.546147 0
M  V30 51059 C 5063.54 -4.54518 -0.563673 0
M  V30 51060 N 5065.04 -4.58961 -0.625192 0
M  V30 51061 C 5065.77 -5.69587 -0.660153 0
M  V30 51062 N 5065.27 -6.89716 -0.652932 0
M  V30 51063 N 5067.06 -5.57687 -0.702947 0
M  V30 51064 H 5059.21 -1.98361 0.759379 0
M  V30 51065 H 5061.47 -0.905767 0.279804 0
M  V30 51066 H 5061.18 -3.48704 0.458066 0
M  V30 51067 H 5061.05 -3.54411 -1.29123 0
M  V30 51068 H 5063.44 -2.56622 -1.45703 0
M  V30 51069 H 5063.52 -2.53911 0.310324 0
M  V30 51070 H 5063.17 -5.06739 0.343152 0
M  V30 51071 H 5063.1 -5.06614 -1.43699 0
M  V30 51072 H 5065.59 -3.72492 -0.637051 0
M  V30 51073 H 5065.9 -7.69783 -0.682154 0
M  V30 51074 H 5064.24 -6.92225 -0.620402 0
M  V30 51075 H 5067.44 -4.62746 -0.705932 0
M  V30 51076 H 5067.61 -6.43912 -0.726726 0
M  V30 51077 N 5061.01 0.391938 -1.52649 0
M  V30 51078 C 5062.26 1.13557 -1.68749 0
M  V30 51079 C 5062.62 1.87743 -0.420751 0
M  V30 51080 O 5061.91 1.82436 0.585465 0
M  V30 51081 C 5062.1 2.14391 -2.85957 0
M  V30 51082 C 5061.93 1.50109 -4.23907 0
M  V30 51083 C 5060.7 1.26642 -4.89173 0
M  V30 51084 C 5062.9 0.952756 -5.05398 0
M  V30 51085 N 5060.88 0.58434 -6.11113 0
M  V30 51086 C 5062.25 0.398566 -6.18718 0
M  V30 51087 C 5064.31 0.848881 -4.9061 0
M  V30 51088 C 5063.01 -0.249337 -7.18868 0
M  V30 51089 C 5065.04 0.214804 -5.9101 0
M  V30 51090 C 5064.4 -0.32863 -7.03633 0
M  V30 51091 H 5060.5 0.401604 -0.670998 0
M  V30 51092 H 5063.08 0.425519 -1.89993 0
M  V30 51093 H 5061.25 2.82736 -2.66298 0
M  V30 51094 H 5062.98 2.8124 -2.91009 0
M  V30 51095 H 5059.74 1.54062 -4.47841 0
M  V30 51096 H 5060.16 0.259425 -6.76503 0
M  V30 51097 H 5064.81 1.25483 -4.0375 0
M  V30 51098 H 5062.52 -0.667302 -8.0534 0
M  V30 51099 H 5066.11 0.135717 -5.81642 0
M  V30 51100 H 5064.99 -0.811531 -7.7999 0
M  V30 51101 N 5062.49 1.43562 0.650209 0
M  V30 51102 C 5063.44 1.45398 1.75623 0
M  V30 51103 C 5064.43 0.322061 1.57644 0
M  V30 51104 O 5065.62 0.566054 1.67705 0
M  V30 51105 C 5062.75 1.38265 3.14225 0
M  V30 51106 C 5061.83 2.56499 3.37741 0
M  V30 51107 N 5062.22 3.81836 3.31715 0
M  V30 51108 C 5060.52 2.51287 3.68471 0
M  V30 51109 C 5061.22 4.60509 3.55396 0
M  V30 51110 N 5060.2 3.91287 3.77353 0
M  V30 51111 H 5064 2.40173 1.69394 0
M  V30 51112 H 5061.52 1.38257 0.851989 0
M  V30 51113 H 5063.51 1.37664 3.93515 0
M  V30 51114 H 5062.17 0.445132 3.21634 0
M  V30 51115 H 5063.18 4.1408 3.1106 0
M  V30 51116 H 5059.86 1.66237 3.82977 0
M  V30 51117 H 5061.25 5.6953 3.5649 0
M  V30 51118 N 5063.97 -0.888857 1.30143 0
M  V30 51119 C 5064.92 -1.99418 1.16195 0
M  V30 51120 C 5065.89 -1.66017 0.0524453 0
M  V30 51121 O 5067.07 -1.89505 0.221931 0
M  V30 51122 C 5064.21 -3.34322 0.85573 0
M  V30 51123 C 5063.33 -3.80438 2.04674 0
M  V30 51124 C 5062.46 -5.03969 1.67894 0
M  V30 51125 C 5061.5 -5.42482 2.83512 0
M  V30 51126 N 5060.64 -6.57197 2.47056 0
M  V30 51127 H 5065.48 -2.1068 2.10756 0
M  V30 51128 H 5063.01 -1.03161 1.04863 0
M  V30 51129 H 5064.97 -4.11965 0.658825 0
M  V30 51130 H 5063.6 -3.22756 -0.0530021 0
M  V30 51131 H 5062.65 -2.98737 2.35501 0
M  V30 51132 H 5063.97 -4.04922 2.91272 0
M  V30 51133 H 5063.12 -5.89227 1.44556 0
M  V30 51134 H 5061.86 -4.81347 0.7846 0
M  V30 51135 H 5060.86 -4.55753 3.07521 0
M  V30 51136 H 5062.09 -5.6708 3.73627 0
M  V30 51137 H 5060.03 -6.36158 1.60122 0
M  V30 51138 H 5059.95 -6.81532 3.27185 0
M  V30 51139 H 5061.22 -7.45696 2.27064 0
M  V30 51140 N 5065.45 -1.12795 -1.10068 0
M  V30 51141 C 5066.69 -0.886921 -1.82378 0
M  V30 51142 C 5067.03 0.585695 -1.85157 0
M  V30 51143 O 5066.3 1.43313 -1.31498 0
M  V30 51144 C 5066.59 -1.46715 -3.28857 0
M  V30 51145 C 5066.44 -3.0084 -3.34388 0
M  V30 51146 C 5067.76 -1.12986 -4.25349 0
M  V30 51147 H 5064.88 -0.323643 -0.662136 0
M  V30 51148 H 5067.52 -1.39517 -1.28977 0
M  V30 51149 H 5065.67 -1.03489 -3.74463 0
M  V30 51150 H 5067.34 -3.52774 -2.97234 0
M  V30 51151 H 5065.58 -3.36173 -2.74171 0
M  V30 51152 H 5066.25 -3.36534 -4.37548 0
M  V30 51153 H 5068.73 -1.50327 -3.87996 0
M  V30 51154 H 5067.61 -1.56242 -5.26194 0
M  V30 51155 H 5067.87 -0.0426006 -4.42079 0
M  V30 51156 N 5066.93 1.27928 -0.920441 0
M  V30 51157 C 5068.15 1.99341 -0.572549 0
M  V30 51158 C 5068.58 1.6827 0.840637 0
M  V30 51159 O 5067.93 0.91886 1.5629 0
M  V30 51160 C 5067.98 3.51695 -0.796408 0
M  V30 51161 O 5067.09 4.12157 0.141457 0
M  V30 51162 H 5066.43 0.626057 -0.221243 0
M  V30 51163 H 5068.96 1.62917 -1.23771 0
M  V30 51164 H 5068.97 4.0179 -0.709125 0
M  V30 51165 H 5067.64 3.73643 -1.82657 0
M  V30 51166 H 5066.22 3.729 0.00487591 0
M  V30 51167 N 5068.4 0.685149 1.41928 0
M  V30 51168 C 5069.65 0.212042 2.01688 0
M  V30 51169 C 5069.98 -1.18183 1.54098 0
M  V30 51170 O 5069.26 -1.79557 0.747635 0
M  V30 51171 C 5069.54 0.258146 3.59174 0
M  V30 51172 C 5069.39 1.68822 4.16916 0
M  V30 51173 C 5070.71 -0.38789 4.38387 0
M  V30 51174 H 5067.83 0.0785245 0.732805 0
M  V30 51175 H 5070.47 0.871897 1.68813 0
M  V30 51176 H 5068.62 -0.303696 3.87311 0
M  V30 51177 H 5070.3 2.3031 3.99693 0
M  V30 51178 H 5068.54 2.22566 3.72353 0
M  V30 51179 H 5069.21 1.67208 5.26066 0
M  V30 51180 H 5071.69 0.0904895 4.16002 0
M  V30 51181 H 5070.56 -0.32504 5.47937 0
M  V30 51182 H 5070.82 -1.46706 4.17049 0
M  V30 51183 N 5069.88 -1.51644 0.429179 0
M  V30 51184 C 5071.3 -1.59394 0.08105 0
M  V30 51185 C 5071.5 -1.44069 -1.40877 0
M  V30 51186 O 5070.55 -1.27778 -2.17782 0
M  V30 51187 C 5071.87 -2.94777 0.593877 0
M  V30 51188 C 5073.42 -3.08065 0.553602 0
M  V30 51189 C 5073.89 -4.4596 1.04327 0
M  V30 51190 N 5075.38 -4.52256 1.00092 0
M  V30 51191 C 5076.12 -5.57263 1.35076 0
M  V30 51192 N 5075.61 -6.69727 1.77305 0
M  V30 51193 N 5077.41 -5.47578 1.26945 0
M  V30 51194 H 5069.56 -1.59851 1.39862 0
M  V30 51195 H 5071.82 -0.753075 0.575831 0
M  V30 51196 H 5071.53 -3.11336 1.63594 0
M  V30 51197 H 5071.4 -3.77197 0.0143528 0
M  V30 51198 H 5073.79 -2.91179 -0.479453 0
M  V30 51199 H 5073.87 -2.27504 1.16943 0
M  V30 51200 H 5073.51 -4.63591 2.07475 0
M  V30 51201 H 5073.44 -5.25048 0.404058 0
M  V30 51202 H 5075.93 -3.71534 0.690695 0
M  V30 51203 H 5076.25 -7.45863 2.02258 0
M  V30 51204 H 5074.59 -6.70956 1.81225 0
M  V30 51205 H 5077.78 -4.58601 0.938251 0
M  V30 51206 H 5077.95 -6.29303 1.54538 0
M  V30 51207 N 5071.36 -0.160256 -1.56783 0
M  V30 51208 C 5072.61 0.481785 -1.97612 0
M  V30 51209 C 5072.96 1.61601 -1.04417 0
M  V30 51210 O 5072.26 1.91426 -0.0817074 0
M  V30 51211 C 5072.45 1.02247 -3.42462 0
M  V30 51212 C 5072.28 -0.0578362 -4.49663 0
M  V30 51213 C 5071.05 -0.503761 -5.02783 0
M  V30 51214 C 5073.25 -0.854192 -5.07157 0
M  V30 51215 N 5071.23 -1.56553 -5.93603 0
M  V30 51216 C 5072.6 -1.76614 -5.94313 0
M  V30 51217 C 5074.65 -0.900505 -4.89689 0
M  V30 51218 C 5073.36 -2.72046 -6.6587 0
M  V30 51219 C 5075.38 -1.84272 -5.61959 0
M  V30 51220 C 5074.75 -2.74216 -6.48833 0
M  V30 51221 H 5070.84 0.144721 -0.768492 0
M  V30 51222 H 5073.43 -0.257921 -1.92984 0
M  V30 51223 H 5071.6 1.73173 -3.47657 0
M  V30 51224 H 5073.33 1.63222 -3.70325 0
M  V30 51225 H 5070.09 -0.103527 -4.73487 0
M  V30 51226 H 5070.51 -2.09657 -6.43718 0
M  V30 51227 H 5075.15 -0.219172 -4.22232 0
M  V30 51228 H 5072.87 -3.41173 -7.32548 0
M  V30 51229 H 5076.46 -1.88452 -5.50434 0
M  V30 51230 H 5075.34 -3.45937 -7.03774 0
M  V30 51231 N 5072.84 1.57191 0.113503 0
M  V30 51232 C 5073.75 2.04045 1.1577 0
M  V30 51233 C 5074.77 0.961863 1.44997 0
M  V30 51234 O 5075.94 1.27376 1.56004 0
M  V30 51235 C 5073.01 2.44003 2.463 0
M  V30 51236 C 5072.07 3.6597 2.2442 0
M  V30 51237 C 5071.3 4.04012 3.48726 0
M  V30 51238 O 5071.52 3.42337 4.56247 0
M  V30 51239 O 5070.46 4.97081 3.39402 0
M  V30 51240 H 5074.28 2.93251 0.789796 0
M  V30 51241 H 5071.87 1.45829 0.324697 0
M  V30 51242 H 5073.75 2.70413 3.23195 0
M  V30 51243 H 5072.43 1.57942 2.82553 0
M  V30 51244 H 5071.33 3.44702 1.45365 0
M  V30 51245 H 5072.67 4.52753 1.93068 0
M  V30 51246 N 5074.32 -0.383837 1.52854 0
M  V30 51247 C 5075.26 -1.46917 1.78 0
M  V30 51248 C 5076.23 -1.53956 0.62345 0
M  V30 51249 O 5077.42 -1.70131 0.863716 0
M  V30 51250 C 5074.56 -2.84087 1.95931 0
M  V30 51251 C 5073.67 -2.86159 3.23631 0
M  V30 51252 C 5072.81 -4.14788 3.3185 0
M  V30 51253 C 5071.85 -4.10932 4.53653 0
M  V30 51254 N 5070.98 -5.31176 4.59126 0
M  V30 51255 H 5075.82 -1.24776 2.7062 0
M  V30 51256 H 5073.36 -0.605218 1.34073 0
M  V30 51257 H 5075.32 -3.63748 2.04312 0
M  V30 51258 H 5073.95 -3.04667 1.06666 0
M  V30 51259 H 5073 -1.98839 3.24295 0
M  V30 51260 H 5074.31 -2.79179 4.13353 0
M  V30 51261 H 5073.47 -5.02855 3.39443 0
M  V30 51262 H 5072.21 -4.24497 2.40112 0
M  V30 51263 H 5071.21 -3.21252 4.46181 0
M  V30 51264 H 5072.44 -4.02841 5.46714 0
M  V30 51265 H 5070.38 -5.41505 3.70281 0
M  V30 51266 H 5070.3 -5.26292 5.42727 0
M  V30 51267 H 5071.57 -6.21127 4.70979 0
M  V30 51268 N 5075.8 -1.43905 -0.642587 0
M  V30 51269 C 5076.74 -1.5017 -1.77628 0
M  V30 51270 C 5077.74 -0.374353 -1.65212 0
M  V30 51271 O 5078.94 -0.548809 -1.7143 0
M  V30 51272 H 5075.32 -0.470994 -0.586232 0
M  V30 51273 H 5077.29 -2.45609 -1.69466 0
M  V30 51274 C 5076.04 -1.45207 -3.15927 0
M  V30 51275 H 5075.36 -2.31264 -3.26124 0
M  V30 51276 H 5076.8 -1.53652 -3.9518 0
M  V30 51277 C 5075.26 -0.171162 -3.36465 0
M  V30 51278 O 5075.79 0.763274 -3.94382 0
M  V30 51279 N 5074 -0.0779491 -2.90495 0
M  V30 51280 H 5073.54 -0.839185 -2.43548 0
M  V30 51281 H 5073.5 0.778366 -3.04613 0
M  V30 51282 N 5077.27 0.881943 -1.30612 0
M  V30 51283 C 5078.69 1.16572 -1.09009 0
M  V30 51284 C 5078.89 2.00962 0.147199 0
M  V30 51285 O 5077.95 2.3812 0.839953 0
M  V30 51286 C 5079.26 1.86946 -2.35525 0
M  V30 51287 C 5080.81 1.99698 -2.41018 0
M  V30 51288 C 5081.28 2.73484 -3.67384 0
M  V30 51289 N 5082.77 2.81027 -3.68209 0
M  V30 51290 C 5083.51 3.38701 -4.62676 0
M  V30 51291 N 5083 3.97401 -5.67489 0
M  V30 51292 N 5084.8 3.36546 -4.50215 0
M  V30 51293 H 5076.95 0.319324 -2.09986 0
M  V30 51294 H 5079.21 0.204025 -0.925785 0
M  V30 51295 H 5078.92 1.32382 -3.25834 0
M  V30 51296 H 5078.79 2.87308 -2.44405 0
M  V30 51297 H 5081.18 2.5343 -1.51185 0
M  V30 51298 H 5081.26 0.984135 -2.36111 0
M  V30 51299 H 5080.9 2.20422 -4.57577 0
M  V30 51300 H 5080.83 3.7515 -3.69554 0
M  V30 51301 H 5083.32 2.39354 -2.92434 0
M  V30 51302 H 5083.64 4.39484 -6.35668 0
M  V30 51303 H 5081.98 3.95812 -5.71278 0
M  V30 51304 H 5085.17 2.89917 -3.67513 0
M  V30 51305 H 5085.35 3.81197 -5.24016 0
M  V30 51306 N 5078.75 1.13378 1.09468 0
M  V30 51307 C 5080 0.889908 1.81007 0
M  V30 51308 C 5080.31 -0.585621 1.86628 0
M  V30 51309 O 5081.52 -0.946407 2.54471 0
M  V30 51310 C 5079.98 1.54252 3.25168 0
M  V30 51311 C 5079.58 3.05354 3.27815 0
M  V30 51312 C 5081.33 1.37933 4.01466 0
M  V30 51313 C 5079.23 3.63503 4.66497 0
M  V30 51314 H 5078.16 0.32928 0.6783 0
M  V30 51315 H 5080.82 1.36144 1.23033 0
M  V30 51316 H 5079.2 0.99866 3.83201 0
M  V30 51317 H 5080.37 3.66317 2.79551 0
M  V30 51318 H 5078.69 3.21185 2.65008 0
M  V30 51319 H 5081.28 1.78789 5.03923 0
M  V30 51320 H 5081.63 0.324133 4.15036 0
M  V30 51321 H 5082.16 1.89296 3.49874 0
M  V30 51322 H 5078.9 4.68827 4.58128 0
M  V30 51323 H 5078.42 3.07318 5.15088 0
M  V30 51324 H 5080.1 3.63152 5.35471 0
M  V30 51325 N 5080.23 -1.27438 0.927213 0
M  V30 51326 C 5081.16 -2.29254 0.443268 0
M  V30 51327 C 5082.14 -1.62702 -0.496183 0
M  V30 51328 O 5083.33 -1.90014 -0.401038 0
M  V30 51329 C 5080.46 -3.45956 -0.305245 0
M  V30 51330 C 5079.41 -4.24499 0.546327 0
M  V30 51331 C 5078.74 -5.33672 -0.331325 0
M  V30 51332 C 5080.04 -4.89915 1.81055 0
M  V30 51333 H 5081.73 -2.69984 1.29418 0
M  V30 51334 H 5079.28 -1.2979 0.62375 0
M  V30 51335 H 5081.23 -4.16283 -0.654739 0
M  V30 51336 H 5079.95 -3.04142 -1.19018 0
M  V30 51337 H 5078.61 -3.55918 0.878523 0
M  V30 51338 H 5078.26 -4.881 -1.2152 0
M  V30 51339 H 5077.96 -5.8713 0.234952 0
M  V30 51340 H 5079.48 -6.06842 -0.676401 0
M  V30 51341 H 5080.9 -5.52531 1.52915 0
M  V30 51342 H 5079.29 -5.53428 2.32028 0
M  V30 51343 H 5080.36 -4.13643 2.53036 0
M  V30 51344 N 5081.71 -0.692666 -1.41562 0
M  V30 51345 C 5082.64 -0.0398146 -2.33466 0
M  V30 51346 C 5083.62 0.770281 -1.5166 0
M  V30 51347 O 5084.8 0.723839 -1.80206 0
M  V30 51348 C 5081.93 0.899377 -3.35453 0
M  V30 51349 C 5080.89 0.196588 -4.27548 0
M  V30 51350 C 5080.21 1.24994 -5.19885 0
M  V30 51351 C 5081.51 -0.935339 -5.13857 0
M  V30 51352 H 5083.21 -0.807397 -2.88308 0
M  V30 51353 H 5080.75 -0.389714 -1.38626 0
M  V30 51354 H 5082.71 1.36531 -3.98669 0
M  V30 51355 H 5081.43 1.69859 -2.78954 0
M  V30 51356 H 5080.09 -0.249286 -3.65751 0
M  V30 51357 H 5079.74 2.04161 -4.59704 0
M  V30 51358 H 5079.44 0.784727 -5.82337 0
M  V30 51359 H 5080.96 1.71644 -5.85978 0
M  V30 51360 H 5082.38 -0.54982 -5.70657 0
M  V30 51361 H 5080.77 -1.32746 -5.85234 0
M  V30 51362 H 5081.84 -1.77629 -4.51194 0
M  V30 51363 N 5083.19 1.51414 -0.437215 0
M  V30 51364 C 5084.43 2.02386 0.129484 0
M  V30 51365 C 5084.76 1.32076 1.42371 0
M  V30 51366 O 5084.04 0.435657 1.89558 0
M  V30 51367 C 5084.32 3.58411 0.348361 0
M  V30 51368 C 5084.18 4.39337 -0.964507 0
M  V30 51369 C 5085.49 4.25658 1.11819 0
M  V30 51370 H 5082.61 0.735589 0.045585 0
M  V30 51371 H 5085.26 1.81053 -0.576188 0
M  V30 51372 H 5083.41 3.76719 0.949459 0
M  V30 51373 H 5085.08 4.32679 -1.59958 0
M  V30 51374 H 5083.32 4.04427 -1.56913 0
M  V30 51375 H 5083.99 5.46668 -0.765404 0
M  V30 51376 H 5086.47 4.11619 0.60902 0
M  V30 51377 H 5085.34 5.34708 1.2401 0
M  V30 51378 H 5085.6 3.86509 2.14623 0
M  V30 51379 N 5084.66 0.168568 1.56696 0
M  V30 51380 C 5085.89 -0.483433 2.01173 0
M  V30 51381 C 5086.31 -1.56991 1.04878 0
M  V30 51382 O 5085.66 -1.82434 0.0491979 0
M  V30 51383 C 5085.71 -1.06428 3.45478 0
M  V30 51384 O 5085.44 -0.0211834 4.38095 0
M  V30 51385 C 5086.94 -1.79478 4.05342 0
M  V30 51386 H 5084.16 -0.123979 0.659447 0
M  V30 51387 H 5086.7 0.269491 2.02717 0
M  V30 51388 H 5084.86 -1.76772 3.44718 0
M  V30 51389 H 5085.27 -0.449654 5.22569 0
M  V30 51390 H 5086.74 -2.15384 5.08246 0
M  V30 51391 H 5087.22 -2.68877 3.47278 0
M  V30 51392 H 5087.83 -1.13783 4.09797 0
M  V30 51393 N 5086.14 -1.57249 -0.105165 0
M  V30 51394 C 5087.42 -1.76569 -0.841585 0
M  V30 51395 C 5087.8 -0.747635 -1.97417 0
M  V30 51396 O 5087.15 0.225806 -2.27382 0
M  V30 51397 C 5087.36 -3.22021 -1.34549 0
M  V30 51398 C 5088.71 -3.84918 -1.79231 0
M  V30 51399 O 5089.73 -3.25708 -1.44196 0
M  V30 51400 O 5088.59 -4.89017 -2.43978 0
M  V30 51401 H 5085.68 -0.723457 -0.400672 0
M  V30 51402 H 5088.23 -1.69473 -0.0878297 0
M  V30 51403 H 5087 -3.87645 -0.533549 0
M  V30 51404 H 5086.62 -3.33711 -2.16155 0
M  V30 51405 N 5087.62 0.375726 -1.53056 0
M  V30 51406 C 5088.87 1.11721 -1.68413 0
M  V30 51407 C 5089.19 1.90125 -0.433296 0
M  V30 51408 O 5088.46 1.87947 0.552529 0
M  V30 51409 H 5087.04 0.41543 -0.620828 0
M  V30 51410 H 5089.7 0.424802 -1.90214 0
M  V30 51411 H 5088.8 1.81271 -2.54062 0
M  V30 51412 N 5089.1 1.44244 0.634946 0
M  V30 51413 C 5090.06 1.50463 1.72897 0
M  V30 51414 C 5091.06 0.387113 1.56071 0
M  V30 51415 O 5092.25 0.649588 1.61635 0
M  V30 51416 C 5089.38 1.37488 3.11945 0
M  V30 51417 H 5090.58 2.47913 1.68758 0
M  V30 51418 H 5088.13 1.31279 0.848264 0
M  V30 51419 H 5088.86 0.411173 3.21683 0
M  V30 51420 H 5088.65 2.18517 3.25565 0
M  V30 51421 H 5090.14 1.44813 3.91687 0
M  V30 51422 N 5090.58 -0.875004 1.31078 0
M  V30 51423 C 5091.99 -1.15993 1.09626 0
M  V30 51424 C 5092.19 -2.01037 -0.13654 0
M  V30 51425 O 5091.25 -2.38562 -0.827313 0
M  V30 51426 C 5092.56 -1.85694 2.36513 0
M  V30 51427 C 5094.11 -1.98417 2.42074 0
M  V30 51428 C 5094.58 -2.71531 3.68829 0
M  V30 51429 N 5096.08 -2.79071 3.69694 0
M  V30 51430 C 5096.81 -3.36243 4.64466 0
M  V30 51431 N 5096.31 -3.94386 5.69589 0
M  V30 51432 N 5098.1 -3.34153 4.51993 0
M  V30 51433 H 5090.25 -0.308184 2.10152 0
M  V30 51434 H 5092.51 -0.199112 0.926854 0
M  V30 51435 H 5092.22 -1.30652 3.26532 0
M  V30 51436 H 5092.09 -2.86008 2.45925 0
M  V30 51437 H 5094.48 -2.52625 1.52527 0
M  V30 51438 H 5094.56 -0.971599 2.3663 0
M  V30 51439 H 5094.21 -2.17992 4.58739 0
M  V30 51440 H 5094.14 -3.73185 3.71538 0
M  V30 51441 H 5096.63 -2.378 2.937 0
M  V30 51442 H 5096.94 -4.36107 6.37989 0
M  V30 51443 H 5095.28 -3.92776 5.73369 0
M  V30 51444 H 5098.48 -2.87964 3.69045 0
M  V30 51445 H 5098.65 -3.78412 5.26031 0
M  V30 51446 N 5092.05 -1.13957 -1.08865 0
M  V30 51447 C 5093.02 -0.825066 -2.13835 0
M  V30 51448 C 5094.02 0.168142 -1.59918 0
M  V30 51449 O 5095.21 -0.059639 -1.74098 0
M  V30 51450 C 5092.34 -0.229057 -3.4013 0
M  V30 51451 H 5093.53 -1.7553 -2.43165 0
M  V30 51452 H 5091.09 -0.944964 -1.245 0
M  V30 51453 H 5091.82 0.710115 -3.1643 0
M  V30 51454 H 5091.61 -0.944377 -3.80557 0
M  V30 51455 H 5093.1 -0.0260691 -4.17592 0
M  V30 51456 N 5093.53 1.26945 -0.933958 0
M  V30 51457 C 5094.78 1.94714 -0.588054 0
M  V30 51458 C 5095.13 1.71997 0.862251 0
M  V30 51459 O 5094.43 1.04214 1.60779 0
M  V30 51460 C 5094.62 3.4696 -0.857528 0
M  V30 51461 C 5094.45 3.84481 -2.33248 0
M  V30 51462 C 5093.22 4.07611 -2.98633 0
M  V30 51463 C 5095.42 3.93591 -3.31045 0
M  V30 51464 N 5093.4 4.3196 -4.36215 0
M  V30 51465 C 5094.77 4.22388 -4.53859 0
M  V30 51466 C 5096.83 3.7619 -3.26168 0
M  V30 51467 C 5095.53 4.35595 -5.72407 0
M  V30 51468 C 5097.55 3.90625 -4.44034 0
M  V30 51469 C 5096.92 4.19815 -5.65628 0
M  V30 51470 H 5093.02 0.735577 -0.265426 0
M  V30 51471 H 5095.6 1.53177 -1.20187 0
M  V30 51472 H 5093.77 3.87441 -0.272816 0
M  V30 51473 H 5095.5 4.01919 -0.473621 0
M  V30 51474 H 5092.26 4.02688 -2.49278 0
M  V30 51475 H 5092.68 4.48181 -5.07408 0
M  V30 51476 H 5097.32 3.52657 -2.33223 0
M  V30 51477 H 5095.04 4.57952 -6.65812 0
M  V30 51478 H 5098.63 3.78573 -4.41784 0
M  V30 51479 H 5097.51 4.30742 -6.5531 0
M  V30 51480 N 5095.01 0.700164 1.41193 0
M  V30 51481 C 5096.24 0.240777 2.05998 0
M  V30 51482 C 5096.66 -1.10308 1.52361 0
M  V30 51483 O 5096.02 -1.69152 0.652483 0
M  V30 51484 C 5096.07 0.21391 3.59965 0
M  V30 51485 O 5095.17 -0.80979 4.04371 0
M  V30 51486 H 5094.51 0.116494 0.653701 0
M  V30 51487 H 5097.04 0.956315 1.80875 0
M  V30 51488 H 5097.05 0.0463286 4.07974 0
M  V30 51489 H 5095.73 1.19468 3.98372 0
M  V30 51490 H 5094.3 -0.61119 3.67857 0
M  V30 51491 N 5096.49 -1.5118 0.445239 0
M  V30 51492 C 5097.42 -2.25716 -0.398127 0
M  V30 51493 C 5098.43 -1.30036 -0.979516 0
M  V30 51494 O 5099.62 -1.55734 -0.872313 0
M  V30 51495 C 5096.72 -3.00354 -1.56974 0
M  V30 51496 C 5095.9 -4.23191 -1.10581 0
M  V30 51497 C 5094.95 -4.80341 -2.14846 0
M  V30 51498 O 5093.98 -5.41966 -1.73958 0
M  V30 51499 N 5095.18 -4.65065 -3.47411 0
M  V30 51500 H 5097.95 -2.98732 0.240734 0
M  V30 51501 H 5095.51 -1.59555 0.274563 0
M  V30 51502 H 5097.5 -3.35472 -2.26365 0
M  V30 51503 H 5096.07 -2.30299 -2.11379 0
M  V30 51504 H 5095.29 -3.93477 -0.238693 0
M  V30 51505 H 5096.58 -5.02888 -0.77336 0
M  V30 51506 H 5095.98 -4.15997 -3.83357 0
M  V30 51507 H 5094.53 -5.04524 -4.12673 0
M  V30 51508 N 5097.97 -0.176876 -1.56604 0
M  V30 51509 C 5098.88 0.763604 -2.21825 0
M  V30 51510 C 5099.89 1.24884 -1.21161 0
M  V30 51511 O 5101.07 1.29981 -1.5384 0
M  V30 51512 C 5098.13 1.97342 -2.85057 0
M  V30 51513 C 5097.19 1.53452 -4.00938 0
M  V30 51514 C 5096.43 2.68666 -4.61145 0
M  V30 51515 O 5096.65 3.85679 -4.20247 0
M  V30 51516 O 5095.58 2.42422 -5.50922 0
M  V30 51517 H 5099.41 0.238257 -3.02764 0
M  V30 51518 H 5097 0.0515806 -1.49311 0
M  V30 51519 H 5098.88 2.68085 -3.25129 0
M  V30 51520 H 5097.55 2.48771 -2.0711 0
M  V30 51521 H 5096.46 0.796422 -3.65524 0
M  V30 51522 H 5097.79 1.06707 -4.80494 0
M  V30 51523 N 5099.44 1.57302 0.0968247 0
M  V30 51524 C 5100.69 1.85633 0.799052 0
M  V30 51525 C 5101.01 0.765326 1.79354 0
M  V30 51526 O 5100.28 -0.208589 1.94786 0
M  V30 51527 H 5098.86 0.684948 0.298087 0
M  V30 51528 H 5101.53 1.9474 0.0788656 0
M  V30 51529 H 5100.62 2.8231 1.3307 0
M  V30 51530 N 5100.92 -0.367603 1.53253 0
M  V30 51531 C 5102.33 -0.944506 1.61046 0
M  V30 51532 C 5102.69 -1.90323 0.476613 0
M  V30 51533 O 5101.81 -2.12722 -0.397259 0
M  V30 51534 C 5102.41 -1.71981 2.91904 0
M  V30 51535 C 5100.96 -2.24609 3.02039 0
M  V30 51536 C 5100.11 -1.0579 2.56327 0
M  V30 51537 H 5103.06 -0.146461 1.58023 0
M  V30 51538 H 5103.08 -2.58086 2.79593 0
M  V30 51539 H 5102.6 -1.02179 3.74408 0
M  V30 51540 H 5100.7 -2.9766 2.24119 0
M  V30 51541 H 5100.81 -2.52629 4.07081 0
M  V30 51542 H 5099.17 -1.42428 2.11155 0
M  V30 51543 H 5099.96 -0.374888 3.41247 0
M  V30 51544 N 5102.4 -1.44578 -0.627288 0
M  V30 51545 C 5103.35 -1.48174 -1.73287 0
M  V30 51546 C 5104.34 -0.3471 -1.57112 0
M  V30 51547 O 5105.53 -0.592663 -1.66783 0
M  V30 51548 C 5102.66 -1.43247 -3.11986 0
M  V30 51549 C 5101.74 -2.61839 -3.33618 0
M  V30 51550 N 5102.13 -3.87065 -3.25599 0
M  V30 51551 C 5100.43 -2.57117 -3.64427 0
M  V30 51552 C 5101.13 -4.66105 -3.48024 0
M  V30 51553 N 5100.11 -3.97241 -3.71081 0
M  V30 51554 H 5103.91 -2.42837 -1.65551 0
M  V30 51555 H 5101.42 -1.39595 -0.829885 0
M  V30 51556 H 5103.42 -1.43907 -3.91275 0
M  V30 51557 H 5102.08 -0.496245 -3.20885 0
M  V30 51558 H 5103.09 -4.18976 -3.04433 0
M  V30 51559 H 5099.77 -1.72309 -3.80284 0
M  V30 51560 H 5101.16 -5.75129 -3.47384 0
M  V30 51561 N 5103.88 0.86804 -1.3154 0
M  V30 51562 C 5105.3 1.1541 -1.1024 0
M  V30 51563 C 5105.5 2.01106 0.125876 0
M  V30 51564 O 5104.55 2.38997 0.814649 0
M  V30 51565 C 5105.86 1.84437 -2.37494 0
M  V30 51566 C 5107.41 1.9713 -2.43123 0
M  V30 51567 C 5107.89 2.69572 -3.70264 0
M  V30 51568 N 5109.38 2.77106 -3.71169 0
M  V30 51569 C 5110.11 3.33775 -4.66242 0
M  V30 51570 N 5109.61 3.9136 -5.71672 0
M  V30 51571 N 5111.4 3.31751 -4.53759 0
M  V30 51572 H 5103.55 0.297035 -2.10313 0
M  V30 51573 H 5105.82 0.194194 -0.927897 0
M  V30 51574 H 5105.52 1.28918 -3.2722 0
M  V30 51575 H 5105.4 2.847 -2.47438 0
M  V30 51576 H 5107.78 2.51813 -1.53865 0
M  V30 51577 H 5107.86 0.959036 -2.37142 0
M  V30 51578 H 5107.51 2.15556 -4.59889 0
M  V30 51579 H 5107.44 3.7121 -3.73512 0
M  V30 51580 H 5109.93 2.36239 -2.94957 0
M  V30 51581 H 5110.24 4.32717 -6.40293 0
M  V30 51582 H 5108.59 3.8973 -5.75444 0
M  V30 51583 H 5111.78 2.86003 -3.70567 0
M  V30 51584 H 5111.95 3.75617 -5.2803 0
M  V30 51585 N 5105.36 1.14532 1.0826 0
M  V30 51586 C 5106.29 0.791401 2.15103 0
M  V30 51587 C 5107.3 -0.192393 1.61659 0
M  V30 51588 O 5108.49 0.0295331 1.78476 0
M  V30 51589 C 5105.59 0.154302 3.38549 0
M  V30 51590 C 5104.76 1.1732 4.21373 0
M  V30 51591 C 5103.82 0.559584 5.23216 0
M  V30 51592 O 5102.85 1.22297 5.55907 0
M  V30 51593 N 5104.05 -0.662956 5.76702 0
M  V30 51594 H 5106.82 1.71085 2.46069 0
M  V30 51595 H 5104.38 1.03995 1.24084 0
M  V30 51596 H 5106.37 -0.268742 4.03807 0
M  V30 51597 H 5104.94 -0.668311 3.05373 0
M  V30 51598 H 5104.16 1.77313 3.52071 0
M  V30 51599 H 5105.45 1.86144 4.73527 0
M  V30 51600 H 5104.85 -1.22047 5.52378 0
M  V30 51601 H 5103.4 -1.02849 6.43635 0
M  V30 51602 N 5106.84 -1.26448 0.940677 0
M  V30 51603 C 5107.79 -2.24084 0.420748 0
M  V30 51604 C 5108.77 -1.53503 -0.482247 0
M  V30 51605 O 5109.96 -1.74128 -0.317575 0
M  V30 51606 C 5107.09 -3.41867 -0.313332 0
M  V30 51607 C 5106.18 -4.19735 0.606926 0
M  V30 51608 N 5106.57 -4.75204 1.73249 0
M  V30 51609 C 5104.87 -4.44089 0.412416 0
M  V30 51610 C 5105.57 -5.34044 2.30591 0
M  V30 51611 N 5104.54 -5.19705 1.59399 0
M  V30 51612 H 5108.34 -2.64564 1.27996 0
M  V30 51613 H 5105.86 -1.41527 0.796485 0
M  V30 51614 H 5107.86 -4.10933 -0.702847 0
M  V30 51615 H 5106.52 -3.02914 -1.16931 0
M  V30 51616 H 5107.53 -4.72761 2.11464 0
M  V30 51617 H 5104.2 -4.15562 -0.401838 0
M  V30 51618 H 5105.59 -5.87834 3.25424 0
M  V30 51619 N 5108.31 -0.707642 -1.4082 0
M  V30 51620 C 5109.25 -0.0106774 -2.29198 0
M  V30 51621 C 5110.26 0.731984 -1.45416 0
M  V30 51622 O 5111.45 0.580682 -1.68791 0
M  V30 51623 C 5108.55 1.0091 -3.23528 0
M  V30 51624 C 5107.72 0.333593 -4.36126 0
M  V30 51625 C 5106.78 1.25765 -5.1095 0
M  V30 51626 O 5105.81 0.745448 -5.64298 0
M  V30 51627 N 5107.01 2.58929 -5.19554 0
M  V30 51628 H 5109.77 -0.769481 -2.89653 0
M  V30 51629 H 5107.33 -0.554632 -1.52103 0
M  V30 51630 H 5109.33 1.62927 -3.70455 0
M  V30 51631 H 5107.9 1.66933 -2.64296 0
M  V30 51632 H 5107.12 -0.466655 -3.91428 0
M  V30 51633 H 5108.4 -0.135623 -5.08619 0
M  V30 51634 H 5107.8 3.03048 -4.7768 0
M  V30 51635 H 5106.36 3.16111 -5.70015 0
M  V30 51636 N 5109.79 1.50942 -0.45325 0
M  V30 51637 C 5111.04 2.01813 0.107638 0
M  V30 51638 C 5111.36 1.33846 1.41811 0
M  V30 51639 O 5110.63 0.478039 1.89978 0
M  V30 51640 H 5109.21 0.745775 0.0427686 0
M  V30 51641 H 5111.87 1.85448 -0.599596 0
M  V30 51642 H 5110.97 3.10912 0.272071 0
M  V30 51643 N 5111.27 0.185179 1.56508 0
M  V30 51644 C 5112.23 -0.725834 2.17404 0
M  V30 51645 C 5113.23 -1.14815 1.1258 0
M  V30 51646 O 5114.42 -1.06285 1.38018 0
M  V30 51647 C 5111.55 -1.9897 2.7681 0
M  V30 51648 H 5112.75 -0.195482 2.99262 0
M  V30 51649 H 5110.3 -0.0644223 1.56167 0
M  V30 51650 H 5111.04 -2.5628 1.98723 0
M  V30 51651 H 5110.82 -1.69571 3.53537 0
M  V30 51652 H 5112.31 -2.63955 3.23601 0
M  V30 51653 N 5112.75 -1.57351 -0.0884812 0
M  V30 51654 C 5113.66 -2.05861 -1.12509 0
M  V30 51655 C 5114.67 -0.984809 -1.43449 0
M  V30 51656 O 5115.85 -1.29842 -1.53958 0
M  V30 51657 C 5112.91 -2.4789 -2.42387 0
M  V30 51658 C 5111.98 -3.69494 -2.18569 0
M  V30 51659 C 5111.21 -4.09509 -3.42254 0
M  V30 51660 O 5111.43 -3.49552 -4.50743 0
M  V30 51661 O 5110.37 -5.02418 -3.31451 0
M  V30 51662 H 5114.19 -2.9447 -0.743043 0
M  V30 51663 H 5111.78 -1.46327 -0.301456 0
M  V30 51664 H 5113.66 -2.7552 -3.18852 0
M  V30 51665 H 5112.33 -1.62417 -2.80004 0
M  V30 51666 H 5111.24 -3.46971 -1.39863 0
M  V30 51667 H 5112.57 -4.55768 -1.85841 0
M  V30 51668 N 5114.23 0.359471 -1.53446 0
M  V30 51669 C 5115.18 1.44093 -1.76695 0
M  V30 51670 C 5116.16 1.48406 -0.621651 0
M  V30 51671 O 5117.35 1.53544 -0.880522 0
M  V30 51672 C 5114.48 2.81448 -1.96575 0
M  V30 51673 C 5113.57 2.8159 -3.17125 0
M  V30 51674 N 5113.96 2.51373 -4.38914 0
M  V30 51675 C 5112.26 3.12747 -3.17971 0
M  V30 51676 C 5112.96 2.59347 -5.20686 0
M  V30 51677 N 5111.93 2.94312 -4.57036 0
M  V30 51678 H 5115.73 1.19604 -2.68463 0
M  V30 51679 H 5113.25 0.567708 -1.52154 0
M  V30 51680 H 5115.25 3.5935 -2.11361 0
M  V30 51681 H 5113.91 3.06897 -1.0604 0
M  V30 51682 H 5114.92 2.24856 -4.6654 0
M  V30 51683 H 5111.59 3.43471 -2.37348 0
M  V30 51684 H 5112.98 2.39279 -6.27849 0
M  V30 51685 N 5115.7 1.44909 0.619611 0
M  V30 51686 C 5117.12 1.42909 1.20141 0
M  V30 51687 C 5117.47 0.150409 1.95623 0
M  V30 51688 O 5116.59 -0.748661 2.03037 0
M  V30 51689 C 5117.19 2.58897 2.18535 0
M  V30 51690 C 5115.75 2.60056 2.72118 0
M  V30 51691 C 5114.89 2.34935 1.47312 0
M  V30 51692 H 5117.84 1.53323 0.409612 0
M  V30 51693 H 5117.86 2.32309 3.01352 0
M  V30 51694 H 5117.38 3.51946 1.6357 0
M  V30 51695 H 5115.48 1.70979 3.31054 0
M  V30 51696 H 5115.59 3.58905 3.17371 0
M  V30 51697 H 5113.95 1.84254 1.75848 0
M  V30 51698 H 5114.74 3.30114 0.942326 0
M  V30 51699 N 5117.18 -0.861052 1.31999 0
M  V30 51700 C 5118.11 -1.97547 1.16223 0
M  V30 51701 C 5119.13 -1.62499 0.0989098 0
M  V30 51702 O 5120.32 -1.7509 0.347262 0
M  V30 51703 C 5117.42 -3.30373 0.755423 0
M  V30 51704 C 5116.59 -3.93705 1.90566 0
M  V30 51705 C 5115.65 -5.04857 1.48345 0
M  V30 51706 O 5114.67 -5.25196 2.19449 0
M  V30 51707 N 5115.88 -5.79282 0.375859 0
M  V30 51708 H 5118.64 -2.11624 2.12215 0
M  V30 51709 H 5116.2 -1.03554 1.24451 0
M  V30 51710 H 5118.19 -4.02128 0.455505 0
M  V30 51711 H 5116.76 -3.12395 -0.113159 0
M  V30 51712 H 5115.98 -3.14817 2.37242 0
M  V30 51713 H 5117.27 -4.32753 2.67587 0
M  V30 51714 H 5116.67 -5.65287 -0.216085 0
M  V30 51715 H 5115.23 -6.51659 0.135518 0
M  V30 51716 N 5118.66 -1.15105 -1.07651 0
M  V30 51717 C 5120.07 -0.933905 -1.61664 0
M  V30 51718 C 5120.42 0.525503 -1.89031 0
M  V30 51719 O 5119.55 1.39599 -1.65351 0
M  V30 51720 C 5120.14 -1.68886 -2.93705 0
M  V30 51721 C 5118.7 -1.51709 -3.44473 0
M  V30 51722 C 5117.85 -1.70641 -2.1858 0
M  V30 51723 H 5120.8 -1.30174 -0.907771 0
M  V30 51724 H 5120.82 -1.15658 -3.62496 0
M  V30 51725 H 5120.33 -2.751 -2.73755 0
M  V30 51726 H 5118.43 -0.478765 -3.69511 0
M  V30 51727 H 5118.55 -2.29209 -4.20714 0
M  V30 51728 H 5116.91 -1.13267 -2.28128 0
M  V30 51729 H 5117.69 -2.78213 -2.01127 0
M  V30 51730 N 5120.14 1.25947 -0.94737 0
M  V30 51731 C 5121.09 2.23858 -0.432626 0
M  V30 51732 C 5122.07 1.53757 0.4741 0
M  V30 51733 O 5123.26 1.74294 0.308336 0
M  V30 51734 C 5120.39 3.42028 0.295197 0
M  V30 51735 C 5119.48 4.19407 -0.629177 0
M  V30 51736 N 5119.87 4.74278 -1.75766 0
M  V30 51737 C 5118.17 4.43864 -0.435961 0
M  V30 51738 C 5118.87 5.32813 -2.3342 0
M  V30 51739 N 5117.85 5.18852 -1.62153 0
M  V30 51740 H 5121.65 2.63882 -1.29397 0
M  V30 51741 H 5119.16 1.41103 -0.80398 0
M  V30 51742 H 5121.16 4.113 0.681044 0
M  V30 51743 H 5119.82 3.0353 1.15323 0
M  V30 51744 H 5120.83 4.71633 -2.13968 0
M  V30 51745 H 5117.51 4.15769 0.379794 0
M  V30 51746 H 5118.9 5.861 -3.28537 0
M  V30 51747 N 5121.62 0.7151 1.40442 0
M  V30 51748 C 5122.84 0.264031 2.05208 0
M  V30 51749 C 5123.26 -1.09398 1.53875 0
M  V30 51750 O 5122.62 -1.68743 0.695123 0
M  V30 51751 C 5122.67 0.234672 3.60737 0
M  V30 51752 O 5122.39 1.53906 4.10176 0
M  V30 51753 C 5123.89 -0.235008 4.42677 0
M  V30 51754 H 5121.11 0.118783 0.660403 0
M  V30 51755 H 5123.65 0.97317 1.7986 0
M  V30 51756 H 5121.81 -0.425428 3.85057 0
M  V30 51757 H 5122.22 1.43921 5.04368 0
M  V30 51758 H 5123.7 -0.204404 5.51621 0
M  V30 51759 H 5124.17 -1.27709 4.20223 0
M  V30 51760 H 5124.78 0.394797 4.23464 0
M  V30 51761 N 5123.09 -1.50699 0.461248 0
M  V30 51762 C 5124.02 -2.31183 -0.328103 0
M  V30 51763 C 5125.01 -1.37647 -0.999359 0
M  V30 51764 O 5126.19 -1.66569 -0.998422 0
M  V30 51765 C 5123.32 -3.17118 -1.41609 0
M  V30 51766 C 5122.27 -4.19127 -0.867001 0
M  V30 51767 C 5121.6 -4.93736 -2.05254 0
M  V30 51768 C 5122.9 -5.22173 0.114992 0
M  V30 51769 H 5124.59 -2.97422 0.343606 0
M  V30 51770 H 5122.14 -1.43032 0.166692 0
M  V30 51771 H 5124.09 -3.72215 -1.97571 0
M  V30 51772 H 5122.82 -2.48746 -2.11643 0
M  V30 51773 H 5121.48 -3.65117 -0.329428 0
M  V30 51774 H 5121.12 -4.21845 -2.73963 0
M  V30 51775 H 5120.82 -5.6273 -1.69141 0
M  V30 51776 H 5122.35 -5.51663 -2.61725 0
M  V30 51777 H 5123.76 -5.72199 -0.355114 0
M  V30 51778 H 5122.16 -5.98832 0.389899 0
M  V30 51779 H 5123.23 -4.73526 1.04408 0
M  V30 51780 N 5124.57 -0.193476 -1.56408 0
M  V30 51781 C 5125.82 0.445719 -1.97534 0
M  V30 51782 C 5126.15 1.6174 -1.0803 0
M  V30 51783 O 5125.4 1.95338 -0.119051 0
M  V30 51784 C 5125.7 0.949597 -3.44554 0
M  V30 51785 C 5125.37 -0.108541 -4.50769 0
M  V30 51786 C 5124.03 -0.399295 -4.7954 0
M  V30 51787 C 5126.38 -0.825604 -5.14619 0
M  V30 51788 C 5123.71 -1.41212 -5.69453 0
M  V30 51789 C 5126.06 -1.82756 -6.05626 0
M  V30 51790 C 5124.73 -2.12553 -6.32754 0
M  V30 51791 H 5124 0.1631 -0.722827 0
M  V30 51792 H 5126.64 -0.290101 -1.8929 0
M  V30 51793 H 5124.95 1.76366 -3.4986 0
M  V30 51794 H 5126.64 1.45354 -3.73729 0
M  V30 51795 H 5123.23 0.128242 -4.28408 0
M  V30 51796 H 5127.42 -0.614203 -4.92485 0
M  V30 51797 H 5122.67 -1.6489 -5.88745 0
M  V30 51798 H 5126.85 -2.38843 -6.54161 0
M  V30 51799 H 5124.48 -2.9118 -7.02224 0
M  V30 51800 N 5126.05 1.57396 0.0801353 0
M  V30 51801 C 5127.3 1.87116 0.782018 0
M  V30 51802 C 5127.63 0.784642 1.77643 0
M  V30 51803 O 5126.9 -0.205925 1.93407 0
M  V30 51804 C 5127.19 3.27488 1.49745 0
M  V30 51805 C 5127.04 4.46784 0.520014 0
M  V30 51806 C 5128.36 3.65974 2.44441 0
M  V30 51807 H 5125.48 0.680569 0.282834 0
M  V30 51808 H 5128.12 1.89946 0.0453471 0
M  V30 51809 H 5126.27 3.25206 2.1254 0
M  V30 51810 H 5127.94 4.61187 -0.102081 0
M  V30 51811 H 5126.19 4.33485 -0.165371 0
M  V30 51812 H 5126.86 5.41765 1.05805 0
M  V30 51813 H 5129.33 3.69296 1.91729 0
M  V30 51814 H 5128.21 4.65096 2.91507 0
M  V30 51815 H 5128.47 2.95457 3.28873 0
M  V30 51816 N 5127.53 -0.351328 1.53634 0
M  V30 51817 C 5128.78 -1.09028 1.70169 0
M  V30 51818 C 5129.1 -1.89412 0.463489 0
M  V30 51819 O 5128.37 -1.88802 -0.522558 0
M  V30 51820 H 5126.95 -0.4055 0.627358 0
M  V30 51821 H 5129.61 -0.394487 1.90866 0
M  V30 51822 H 5128.71 -1.77206 2.56913 0
M  V30 51823 N 5129.01 -1.45235 -0.611918 0
M  V30 51824 C 5130.25 -1.48732 -1.36833 0
M  V30 51825 C 5130.58 -0.128684 -1.94575 0
M  V30 51826 O 5129.85 0.841428 -1.76909 0
M  V30 51827 H 5128.43 -0.547713 -0.507957 0
M  V30 51828 H 5131.09 -1.81158 -0.718862 0
M  V30 51829 H 5130.18 -2.22368 -2.18995 0
M  V30 51830 N 5130.49 0.85404 -1.32453 0
M  V30 51831 C 5131.42 1.97822 -1.24051 0
M  V30 51832 C 5132.4 1.69646 -0.124226 0
M  V30 51833 O 5133.58 1.91686 -0.311497 0
M  V30 51834 C 5130.71 3.33669 -0.963441 0
M  V30 51835 C 5129.67 3.762 -2.04103 0
M  V30 51836 C 5128.99 5.09684 -1.61635 0
M  V30 51837 C 5130.29 3.916 -3.45611 0
M  V30 51838 H 5131.99 2.0511 -2.18106 0
M  V30 51839 H 5129.53 0.985452 -1.04999 0
M  V30 51840 H 5131.48 4.11868 -0.891206 0
M  V30 51841 H 5130.21 3.26598 0.01275 0
M  V30 51842 H 5128.87 3.00253 -2.10342 0
M  V30 51843 H 5128.52 4.99069 -0.627594 0
M  V30 51844 H 5128.22 5.39112 -2.33736 0
M  V30 51845 H 5129.74 5.90376 -1.5585 0
M  V30 51846 H 5131.15 4.60151 -3.41956 0
M  V30 51847 H 5129.55 4.32446 -4.16066 0
M  V30 51848 H 5130.62 2.94496 -3.85227 0
M  V30 51849 N 5131.96 1.15674 1.07039 0
M  V30 51850 C 5133.37 0.942465 1.61166 0
M  V30 51851 C 5133.73 -0.515471 1.89308 0
M  V30 51852 O 5132.85 -1.3872 1.66089 0
M  V30 51853 C 5133.45 1.70442 2.92806 0
M  V30 51854 C 5132 1.53533 3.43663 0
M  V30 51855 C 5131.15 1.71798 2.17672 0
M  V30 51856 H 5134.1 1.30653 0.900854 0
M  V30 51857 H 5134.12 1.17578 3.61878 0
M  V30 51858 H 5133.64 2.76548 2.72292 0
M  V30 51859 H 5131.74 0.498354 3.69252 0
M  V30 51860 H 5131.85 2.31437 4.19492 0
M  V30 51861 H 5130.21 1.14476 2.27525 0
M  V30 51862 H 5131 2.79276 1.99649 0
M  V30 51863 N 5133.44 -1.25443 0.954036 0
M  V30 51864 C 5134.4 -2.24155 0.478258 0
M  V30 51865 C 5135.4 -1.5528 -0.417721 0
M  V30 51866 O 5136.59 -1.72867 -0.215094 0
M  V30 51867 C 5133.73 -3.39496 -0.309082 0
M  V30 51868 H 5134.92 -2.67759 1.35074 0
M  V30 51869 H 5132.47 -1.3782 0.737255 0
M  V30 51870 H 5133.21 -3.01311 -1.19925 0
M  V30 51871 H 5132.99 -3.90677 0.333699 0
M  V30 51872 H 5134.48 -4.12798 -0.631449 0
M  V30 51873 N 5134.92 -0.722538 -1.40061 0
M  V30 51874 C 5136.14 -0.273519 -2.05589 0
M  V30 51875 C 5136.57 1.0787 -1.54097 0
M  V30 51876 O 5135.93 1.68092 -0.679311 0
M  V30 51877 C 5135.98 -0.27115 -3.59579 0
M  V30 51878 O 5135.08 0.745356 -4.05608 0
M  V30 51879 H 5134.42 -0.126879 -0.651765 0
M  V30 51880 H 5136.95 -0.984969 -1.79331 0
M  V30 51881 H 5136.96 -0.111228 -4.07848 0
M  V30 51882 H 5135.64 -1.2579 -3.96421 0
M  V30 51883 H 5134.21 0.55259 -3.68783 0
M  V30 51884 N 5136.4 1.50453 -0.469234 0
M  V30 51885 C 5137.62 2.0722 0.0864163 0
M  V30 51886 C 5138.05 1.33102 1.32911 0
M  V30 51887 O 5137.41 0.378147 1.77313 0
M  V30 51888 C 5137.45 3.58846 0.355258 0
M  V30 51889 O 5136.56 3.86588 1.43609 0
M  V30 51890 H 5135.9 0.663889 -0.0121647 0
M  V30 51891 H 5138.43 1.93671 -0.659742 0
M  V30 51892 H 5138.44 4.03619 0.596305 0
M  V30 51893 H 5137.11 4.12209 -0.552843 0
M  V30 51894 H 5135.69 3.53654 1.1825 0
M  V30 51895 N 5137.88 0.201768 1.56303 0
M  V30 51896 C 5138.83 -0.729368 2.16019 0
M  V30 51897 C 5139.81 -1.1716 1.10283 0
M  V30 51898 O 5141 -1.12888 1.36328 0
M  V30 51899 C 5138.13 -1.94584 2.82828 0
M  V30 51900 C 5137.22 -1.52421 3.95764 0
M  V30 51901 N 5137.61 -0.813931 4.99208 0
M  V30 51902 C 5135.91 -1.813 4.07488 0
M  V30 51903 C 5136.61 -0.601692 5.7858 0
M  V30 51904 N 5135.58 -1.15244 5.31244 0
M  V30 51905 H 5139.38 -0.17806 2.9336 0
M  V30 51906 H 5136.9 0.00223747 1.624 0
M  V30 51907 H 5138.9 -2.62345 3.24007 0
M  V30 51908 H 5137.56 -2.50181 2.06977 0
M  V30 51909 H 5138.57 -0.46869 5.15775 0
M  V30 51910 H 5135.24 -2.38358 3.42771 0
M  V30 51911 H 5136.63 -0.0377757 6.71889 0
M  V30 51912 N 5139.35 -1.57436 -0.071787 0
M  V30 51913 C 5140.58 -1.9186 -0.787678 0
M  V30 51914 C 5141 -0.798179 -1.70325 0
M  V30 51915 O 5140.36 0.248987 -1.79582 0
M  V30 51916 C 5140.41 -3.25238 -1.55733 0
M  V30 51917 O 5139.51 -3.14472 -2.66798 0
M  V30 51918 H 5138.85 -0.628265 -0.214892 0
M  V30 51919 H 5141.38 -2.04561 -0.0400293 0
M  V30 51920 H 5141.39 -3.59111 -1.93657 0
M  V30 51921 H 5140.07 -4.06363 -0.885548 0
M  V30 51922 H 5138.65 -2.92156 -2.31731 0
M  V30 51923 N 5140.83 0.343176 -1.53818 0
M  V30 51924 C 5142.06 1.10784 -1.75333 0
M  V30 51925 C 5142.48 1.81569 -0.491356 0
M  V30 51926 O 5141.84 1.72563 0.556029 0
M  V30 51927 C 5141.89 2.09671 -2.93378 0
M  V30 51928 O 5140.99 3.17197 -2.63552 0
M  V30 51929 H 5140.33 0.320382 -0.581594 0
M  V30 51930 H 5142.86 0.393454 -2.00781 0
M  V30 51931 H 5142.87 2.52885 -3.20176 0
M  V30 51932 H 5141.55 1.57547 -3.84905 0
M  V30 51933 H 5140.12 2.78797 -2.47642 0
M  V30 51934 N 5142.31 1.45558 0.604207 0
M  V30 51935 C 5143.26 1.54488 1.71471 0
M  V30 51936 C 5144.23 0.390536 1.61444 0
M  V30 51937 O 5145.41 0.604435 1.80973 0
M  V30 51938 C 5142.55 1.52075 3.09786 0
M  V30 51939 C 5141.66 2.78085 3.30595 0
M  V30 51940 C 5140.8 2.67321 4.59035 0
M  V30 51941 C 5139.84 3.88369 4.73113 0
M  V30 51942 N 5138.98 3.76119 5.92857 0
M  V30 51943 H 5143.82 2.49355 1.63175 0
M  V30 51944 H 5141.35 1.23728 0.795598 0
M  V30 51945 H 5143.31 1.48663 3.89814 0
M  V30 51946 H 5141.94 0.607554 3.17031 0
M  V30 51947 H 5140.99 2.91569 2.44319 0
M  V30 51948 H 5142.3 3.67859 3.3687 0
M  V30 51949 H 5141.46 2.61894 5.47263 0
M  V30 51950 H 5140.2 1.75151 4.55163 0
M  V30 51951 H 5139.2 3.94151 3.83308 0
M  V30 51952 H 5140.43 4.81608 4.7878 0
M  V30 51953 H 5138.37 2.86721 5.90023 0
M  V30 51954 H 5138.29 4.5953 6.00306 0
M  V30 51955 H 5139.56 3.74631 6.83573 0
M  V30 51956 N 5143.79 -0.847003 1.32905 0
M  V30 51957 C 5144.72 -1.97161 1.25098 0
M  V30 51958 C 5145.7 -1.69578 0.133221 0
M  V30 51959 O 5146.88 -1.91518 0.321658 0
M  V30 51960 C 5144.01 -3.33154 0.981123 0
M  V30 51961 C 5142.97 -3.75112 2.06095 0
M  V30 51962 C 5142.29 -5.0882 1.64336 0
M  V30 51963 C 5143.59 -3.89762 3.47683 0
M  V30 51964 H 5145.29 -2.0395 2.19191 0
M  V30 51965 H 5142.83 -0.97987 1.0552 0
M  V30 51966 H 5144.79 -4.1139 0.913036 0
M  V30 51967 H 5143.51 -3.266 0.0045704 0
M  V30 51968 H 5142.17 -2.99133 2.11932 0
M  V30 51969 H 5141.82 -4.9873 0.654052 0
M  V30 51970 H 5141.52 -5.37865 2.36591 0
M  V30 51971 H 5143.04 -5.89541 1.58978 0
M  V30 51972 H 5144.46 -4.58331 3.44392 0
M  V30 51973 H 5142.85 -4.30233 4.18353 0
M  V30 51974 H 5143.92 -2.92449 3.86784 0
M  V30 51975 N 5145.27 -1.1624 -1.06424 0
M  V30 51976 C 5146.68 -0.950999 -1.60664 0
M  V30 51977 C 5147.03 0.505424 -1.89578 0
M  V30 51978 O 5146.15 1.37837 -1.66823 0
M  V30 51979 C 5146.75 -1.71992 -2.91898 0
M  V30 51980 C 5145.31 -1.55354 -3.42844 0
M  V30 51981 C 5144.45 -1.72949 -2.16757 0
M  V30 51982 H 5147.41 -1.31129 -0.893913 0
M  V30 51983 H 5147.43 -1.19496 -3.61249 0
M  V30 51984 H 5146.94 -2.77988 -2.70821 0
M  V30 51985 H 5145.04 -0.517929 -3.68983 0
M  V30 51986 H 5145.15 -2.33658 -4.18259 0
M  V30 51987 H 5143.52 -1.15681 -2.26914 0
M  V30 51988 H 5144.3 -2.80331 -1.98165 0
M  V30 51989 N 5146.74 1.24935 -0.960675 0
M  V30 51990 C 5147.99 1.93102 -0.619648 0
M  V30 51991 C 5148.32 1.74994 0.842058 0
M  V30 51992 O 5147.6 1.09872 1.60494 0
M  V30 51993 C 5147.88 3.46323 -0.986543 0
M  V30 51994 C 5147.73 3.73629 -2.50443 0
M  V30 51995 C 5149.05 4.37065 -0.515981 0
M  V30 51996 H 5146.17 0.701303 -0.226591 0
M  V30 51997 H 5148.81 1.47438 -1.19841 0
M  V30 51998 H 5146.96 3.85346 -0.494043 0
M  V30 51999 H 5148.64 3.44206 -3.07115 0
M  V30 52000 H 5146.88 3.19025 -2.93949 0
M  V30 52001 H 5147.55 4.80806 -2.71164 0
M  V30 52002 H 5150.03 4.05377 -0.938532 0
M  V30 52003 H 5148.9 5.43019 -0.801331 0
M  V30 52004 H 5149.16 4.38226 0.584017 0
M  V30 52005 N 5148.22 0.729956 1.39676 0
M  V30 52006 C 5149.45 0.285781 2.04917 0
M  V30 52007 C 5149.87 -1.0776 1.55027 0
M  V30 52008 O 5149.22 -1.67996 0.712982 0
M  V30 52009 C 5149.27 0.27292 3.60468 0
M  V30 52010 O 5148.99 1.58247 4.08521 0
M  V30 52011 C 5150.5 -0.188043 4.42901 0
M  V30 52012 H 5147.72 0.125781 0.659106 0
M  V30 52013 H 5150.26 0.992192 1.78818 0
M  V30 52014 H 5148.41 -0.384564 3.85487 0
M  V30 52015 H 5148.83 1.49262 5.02813 0
M  V30 52016 H 5150.3 -0.145886 5.51807 0
M  V30 52017 H 5150.78 -1.23245 4.21554 0
M  V30 52018 H 5151.39 0.439689 4.23021 0
M  V30 52019 N 5149.7 -1.50202 0.477206 0
M  V30 52020 C 5150.95 -2.02658 -0.0757795 0
M  V30 52021 C 5151.28 -1.35805 -1.38819 0
M  V30 52022 O 5150.55 -0.485762 -1.88336 0
M  V30 52023 C 5150.84 -3.59209 -0.253212 0
M  V30 52024 C 5150.69 -4.36626 1.08065 0
M  V30 52025 C 5152.01 -4.28473 -1.00494 0
M  V30 52026 H 5149.13 -0.736539 -0.0260662 0
M  V30 52027 H 5151.77 -1.79461 0.623988 0
M  V30 52028 H 5149.92 -3.79104 -0.849245 0
M  V30 52029 H 5151.59 -4.28286 1.71373 0
M  V30 52030 H 5149.84 -4.00124 1.6758 0
M  V30 52031 H 5150.51 -5.44446 0.910074 0
M  V30 52032 H 5152.98 -4.13089 -0.499673 0
M  V30 52033 H 5151.86 -5.37808 -1.09789 0
M  V30 52034 H 5152.12 -3.92064 -2.043 0
M  V30 52035 N 5151.18 -0.210054 -1.56194 0
M  V30 52036 C 5152.43 0.423904 -1.97604 0
M  V30 52037 C 5152.75 1.61108 -1.0986 0
M  V30 52038 O 5152.02 1.95134 -0.173101 0
M  V30 52039 H 5150.6 0.159603 -0.72975 0
M  V30 52040 H 5153.26 -0.300273 -1.92573 0
M  V30 52041 H 5152.36 0.757984 -3.02756 0
M  V30 52042 N 5152.66 1.57472 0.0634368 0
M  V30 52043 C 5153.9 1.87657 0.761 0
M  V30 52044 C 5154.23 0.802909 1.77154 0
M  V30 52045 O 5153.49 -0.200176 1.94674 0
M  V30 52046 C 5153.79 3.24526 1.49724 0
M  V30 52047 C 5153.45 4.46535 0.625908 0
M  V30 52048 C 5152.11 4.79651 0.385809 0
M  V30 52049 C 5154.47 5.21195 0.0222169 0
M  V30 52050 C 5151.79 5.84836 -0.467323 0
M  V30 52051 C 5154.15 6.27284 -0.818418 0
M  V30 52052 C 5152.81 6.58896 -1.06831 0
M  V30 52053 H 5152.08 0.686685 0.27847 0
M  V30 52054 H 5154.73 1.91488 0.0215675 0
M  V30 52055 H 5153.03 3.16525 2.3091 0
M  V30 52056 H 5154.73 3.45118 2.04192 0
M  V30 52057 H 5151.32 4.20621 0.823177 0
M  V30 52058 H 5155.5 4.95918 0.19481 0
M  V30 52059 H 5150.76 6.07722 -0.669588 0
M  V30 52060 H 5154.93 6.84293 -1.29289 0
M  V30 52061 H 5152.56 7.40227 -1.73114 0
M  V30 52062 N 5154.13 -0.335013 1.53998 0
M  V30 52063 C 5155.36 -1.09853 1.75918 0
M  V30 52064 C 5155.78 -1.81306 0.500979 0
M  V30 52065 O 5155.14 -1.72856 -0.546869 0
M  V30 52066 C 5155.19 -2.08112 2.94486 0
M  V30 52067 O 5154.29 -3.15795 2.6523 0
M  V30 52068 H 5153.64 -0.317293 0.583285 0
M  V30 52069 H 5156.17 -0.382801 2.00987 0
M  V30 52070 H 5156.18 -2.51184 3.21513 0
M  V30 52071 H 5154.85 -1.55503 3.85735 0
M  V30 52072 H 5153.43 -2.7748 2.49117 0
M  V30 52073 N 5155.61 -1.45876 -0.596479 0
M  V30 52074 C 5156.86 -1.50174 -1.35248 0
M  V30 52075 C 5157.18 -0.149314 -1.94428 0
M  V30 52076 O 5156.45 0.822617 -1.77792 0
M  V30 52077 H 5155.03 -0.553069 -0.502119 0
M  V30 52078 H 5157.69 -1.81911 -0.699607 0
M  V30 52079 H 5156.79 -2.24678 -2.16624 0
M  V30 52080 N 5157.09 0.839943 -1.33352 0
M  V30 52081 C 5158.33 1.60883 -1.26079 0
M  V30 52082 C 5158.69 1.91235 0.171223 0
M  V30 52083 O 5159.9 2.6627 0.367897 0
M  V30 52084 C 5158.17 2.8843 -2.11052 0
M  V30 52085 S 5159.73 3.79108 -2.20958 0
M  V30 52086 H 5156.54 0.551644 -0.448564 0
M  V30 52087 H 5159.15 0.993531 -1.68372 0
M  V30 52088 H 5157.85 2.64102 -3.14131 0
M  V30 52089 H 5157.38 3.54968 -1.69592 0
M  V30 52090 H 5159.4 4.76916 -1.36986 0
M  V30 52091 N 5158.57 1.16803 1.05806 0
M  V30 52092 C 5159.81 0.953998 1.7896 0
M  V30 52093 C 5160.15 -0.516572 1.87204 0
M  V30 52094 O 5159.42 -1.38333 1.36726 0
M  V30 52095 C 5159.71 1.58819 3.23185 0
M  V30 52096 C 5159.56 3.13044 3.22992 0
M  V30 52097 C 5160.88 1.28695 4.20863 0
M  V30 52098 H 5158 0.347995 0.649668 0
M  V30 52099 H 5160.64 1.44208 1.2371 0
M  V30 52100 H 5158.79 1.17316 3.70364 0
M  V30 52101 H 5160.46 3.63563 2.83936 0
M  V30 52102 H 5158.7 3.46117 2.61506 0
M  V30 52103 H 5159.37 3.52542 4.24757 0
M  V30 52104 H 5161.85 1.64624 3.8215 0
M  V30 52105 H 5160.73 1.75663 5.20032 0
M  V30 52106 H 5160.99 0.206646 4.41617 0
M  V30 52107 N 5160.05 -1.24424 0.967287 0
M  V30 52108 C 5160.99 -2.25396 0.496498 0
M  V30 52109 C 5161.96 -1.59669 -0.457725 0
M  V30 52110 O 5163.15 -1.87214 -0.36818 0
M  V30 52111 C 5160.29 -3.44475 -0.207572 0
M  V30 52112 C 5159.4 -4.24801 0.78537 0
M  V30 52113 C 5158.54 -5.31169 0.0574498 0
M  V30 52114 C 5157.58 -6.03192 1.04048 0
M  V30 52115 N 5156.71 -7.01264 0.342596 0
M  V30 52116 H 5161.55 -2.65034 1.36238 0
M  V30 52117 H 5159.09 -1.30285 0.682948 0
M  V30 52118 H 5161.05 -4.12378 -0.632467 0
M  V30 52119 H 5159.68 -3.05676 -1.03741 0
M  V30 52120 H 5158.73 -3.5644 1.32871 0
M  V30 52121 H 5160.04 -4.74594 1.535 0
M  V30 52122 H 5159.2 -6.05206 -0.425461 0
M  V30 52123 H 5157.94 -4.82283 -0.724878 0
M  V30 52124 H 5156.94 -5.27958 1.53427 0
M  V30 52125 H 5158.17 -6.54167 1.82325 0
M  V30 52126 H 5156.11 -6.54649 -0.420763 0
M  V30 52127 H 5156.03 -7.48935 1.0311 0
M  V30 52128 H 5157.3 -7.7941 -0.11836 0
M  V30 52129 N 5161.53 -0.737353 -1.39287 0
M  V30 52130 C 5162.94 -0.413187 -1.54159 0
M  V30 52131 C 5163.14 1.07568 -1.70386 0
M  V30 52132 O 5162.2 1.86179 -1.70568 0
M  V30 52133 C 5163.51 -1.19826 -2.75794 0
M  V30 52134 C 5165.06 -1.18672 -2.89631 0
M  V30 52135 C 5165.53 -1.95441 -4.14206 0
M  V30 52136 N 5167.02 -1.92619 -4.21251 0
M  V30 52137 C 5167.76 -2.48826 -5.16597 0
M  V30 52138 N 5167.26 -3.1368 -6.17719 0
M  V30 52139 N 5169.05 -2.38847 -5.08831 0
M  V30 52140 H 5161.2 -1.70248 -1.27002 0
M  V30 52141 H 5163.46 -0.720824 -0.615725 0
M  V30 52142 H 5163.17 -2.25189 -2.70153 0
M  V30 52143 H 5163.04 -0.804273 -3.68526 0
M  V30 52144 H 5165.43 -0.141215 -2.94762 0
M  V30 52145 H 5165.51 -1.6201 -1.97955 0
M  V30 52146 H 5165.15 -2.99994 -4.09836 0
M  V30 52147 H 5165.08 -1.49508 -5.04931 0
M  V30 52148 H 5167.58 -1.45374 -3.48819 0
M  V30 52149 H 5167.89 -3.5403 -6.86937 0
M  V30 52150 H 5166.23 -3.17771 -6.18099 0
M  V30 52151 H 5169.42 -1.87821 -4.28767 0
M  V30 52152 H 5169.6 -2.82949 -5.82961 0
M  V30 52153 N 5163 1.49946 -0.485165 0
M  V30 52154 C 5163.93 2.31676 0.291282 0
M  V30 52155 C 5164.91 1.3922 0.977334 0
M  V30 52156 O 5166.1 1.68136 0.971796 0
M  V30 52157 C 5163.23 3.19331 1.36546 0
M  V30 52158 C 5162.18 4.20453 0.800211 0
M  V30 52159 C 5161.51 4.96938 1.97373 0
M  V30 52160 C 5162.81 5.21924 -0.19805 0
M  V30 52161 H 5164.5 2.96837 -0.390879 0
M  V30 52162 H 5162.05 1.42749 -0.189426 0
M  V30 52163 H 5164 3.75311 1.91624 0
M  V30 52164 H 5162.73 2.52082 2.07659 0
M  V30 52165 H 5161.39 3.65595 0.2713 0
M  V30 52166 H 5161.03 4.2615 2.67217 0
M  V30 52167 H 5160.73 5.6535 1.60167 0
M  V30 52168 H 5162.26 5.55757 2.52915 0
M  V30 52169 H 5163.67 5.72692 0.264038 0
M  V30 52170 H 5162.07 5.98136 -0.485119 0
M  V30 52171 H 5163.14 4.71805 -1.11928 0
M  V30 52172 N 5164.48 0.218335 1.5608 0
M  V30 52173 C 5165.9 -0.137112 1.5901 0
M  V30 52174 C 5166.1 -1.59211 1.23508 0
M  V30 52175 O 5165.15 -2.33175 0.968798 0
M  V30 52176 C 5166.47 0.186267 3.00123 0
M  V30 52177 C 5168.01 0.128245 3.12737 0
M  V30 52178 C 5168.49 0.425255 4.56021 0
M  V30 52179 N 5169.98 0.374709 4.61682 0
M  V30 52180 C 5170.72 0.57806 5.70479 0
M  V30 52181 N 5170.21 0.843013 6.87652 0
M  V30 52182 N 5172 0.510717 5.59775 0
M  V30 52183 H 5164.16 1.16753 1.77433 0
M  V30 52184 H 5166.42 0.467735 0.824578 0
M  V30 52185 H 5166.12 1.196 3.3074 0
M  V30 52186 H 5166 -0.500257 3.73868 0
M  V30 52187 H 5168.39 -0.872124 2.81918 0
M  V30 52188 H 5168.47 0.848197 2.41328 0
M  V30 52189 H 5168.11 1.42305 4.87557 0
M  V30 52190 H 5168.04 -0.315853 5.25652 0
M  V30 52191 H 5170.53 0.177488 3.77483 0
M  V30 52192 H 5170.84 0.986365 7.66479 0
M  V30 52193 H 5169.19 0.880171 6.89404 0
M  V30 52194 H 5172.38 0.303977 4.67112 0
M  V30 52195 H 5172.55 0.672605 6.445 0
M  V30 52196 N 5165.96 -1.57504 -0.0550848 0
M  V30 52197 C 5166.89 -2.07867 -1.06365 0
M  V30 52198 C 5167.87 -0.975614 -1.39341 0
M  V30 52199 O 5169.06 -1.24934 -1.48678 0
M  V30 52200 C 5166.19 -2.53651 -2.37231 0
M  V30 52201 C 5165.14 -3.67985 -2.18565 0
M  V30 52202 C 5164.47 -3.99882 -3.54962 0
M  V30 52203 C 5165.77 -4.9741 -1.59312 0
M  V30 52204 H 5167.46 -2.92381 -0.644492 0
M  V30 52205 H 5165.01 -1.40655 -0.30857 0
M  V30 52206 H 5166.96 -2.87501 -3.08093 0
M  V30 52207 H 5165.68 -1.66187 -2.81157 0
M  V30 52208 H 5164.34 -3.34445 -1.50141 0
M  V30 52209 H 5163.99 -3.09524 -3.9649 0
M  V30 52210 H 5163.69 -4.76879 -3.43307 0
M  V30 52211 H 5165.21 -4.36243 -4.27229 0
M  V30 52212 H 5166.63 -5.29383 -2.2006 0
M  V30 52213 H 5165.02 -5.78843 -1.58306 0
M  V30 52214 H 5166.09 -4.81699 -0.556211 0
M  V30 52215 N 5167.44 0.326842 -1.54174 0
M  V30 52216 C 5168.39 1.40313 -1.79712 0
M  V30 52217 C 5169.37 1.47054 -0.65299 0
M  V30 52218 O 5170.56 1.51642 -0.912893 0
M  V30 52219 C 5167.69 2.77215 -2.02501 0
M  V30 52220 C 5166.78 2.748 -3.23026 0
M  V30 52221 N 5167.17 2.42006 -4.44147 0
M  V30 52222 C 5165.47 3.05932 -3.24533 0
M  V30 52223 C 5166.17 2.48244 -5.2607 0
M  V30 52224 N 5165.14 2.84551 -4.63176 0
M  V30 52225 H 5168.95 1.13882 -2.70939 0
M  V30 52226 H 5166.46 0.535306 -1.53324 0
M  V30 52227 H 5168.46 3.54786 -2.18936 0
M  V30 52228 H 5167.12 3.04579 -1.12526 0
M  V30 52229 H 5168.13 2.1491 -4.71205 0
M  V30 52230 H 5164.81 3.38359 -2.4458 0
M  V30 52231 H 5166.2 2.25908 -6.32784 0
M  V30 52232 N 5168.92 1.46191 0.588735 0
M  V30 52233 C 5170.16 1.5089 1.3445 0
M  V30 52234 C 5170.48 0.159623 1.94346 0
M  V30 52235 O 5169.75 -0.813177 1.78225 0
M  V30 52236 H 5168.33 0.555724 0.499179 0
M  V30 52237 H 5171 1.82279 0.68995 0
M  V30 52238 H 5170.09 2.25824 2.1543 0
M  V30 52239 N 5170.39 -0.832859 1.33795 0
M  V30 52240 C 5171.81 -1.12446 1.13261 0
M  V30 52241 C 5172.01 -2.01369 -0.0725124 0
M  V30 52242 O 5171.07 -2.41073 -0.750997 0
M  V30 52243 C 5172.38 -1.78076 2.42301 0
M  V30 52244 C 5173.93 -1.90615 2.48264 0
M  V30 52245 C 5174.4 -2.5966 3.77281 0
M  V30 52246 N 5175.89 -2.67168 3.78385 0
M  V30 52247 C 5176.63 -3.21296 4.74928 0
M  V30 52248 N 5176.12 -3.76065 5.81848 0
M  V30 52249 N 5177.92 -3.19604 4.62395 0
M  V30 52250 H 5170.07 -0.24117 2.11026 0
M  V30 52251 H 5172.33 -0.169525 0.932719 0
M  V30 52252 H 5172.04 -1.20197 3.30523 0
M  V30 52253 H 5171.91 -2.7804 2.549 0
M  V30 52254 H 5174.3 -2.47645 1.60487 0
M  V30 52255 H 5174.38 -0.895825 2.39601 0
M  V30 52256 H 5174.02 -2.03287 4.65442 0
M  V30 52257 H 5173.95 -3.61176 3.83222 0
M  V30 52258 H 5176.44 -2.28336 3.01116 0
M  V30 52259 H 5176.76 -4.15589 6.51541 0
M  V30 52260 H 5175.1 -3.74336 5.85574 0
M  V30 52261 H 5178.29 -2.76078 3.7802 0
M  V30 52262 H 5178.47 -3.61485 5.37803 0
M  V30 52263 N 5171.87 -1.17362 -1.05185 0
M  V30 52264 C 5173.28 -0.967986 -1.59646 0
M  V30 52265 C 5173.63 0.485288 -1.90104 0
M  V30 52266 O 5172.76 1.3606 -1.68275 0
M  V30 52267 C 5173.35 -1.75078 -2.90057 0
M  V30 52268 C 5171.91 -1.58981 -3.41177 0
M  V30 52269 C 5171.06 -1.75239 -2.14911 0
M  V30 52270 H 5174.01 -1.3207 -0.879955 0
M  V30 52271 H 5174.03 -1.23321 -3.59961 0
M  V30 52272 H 5173.54 -2.80845 -2.67858 0
M  V30 52273 H 5171.64 -0.557036 -3.68413 0
M  V30 52274 H 5171.76 -2.38081 -4.15757 0
M  V30 52275 H 5170.12 -1.18081 -2.25675 0
M  V30 52276 H 5170.9 -2.82417 -1.95181 0
M  V30 52277 N 5173.35 1.23909 -0.973872 0
M  V30 52278 C 5174.28 2.27451 -0.528049 0
M  V30 52279 C 5175.26 1.64432 0.435455 0
M  V30 52280 O 5176.45 1.91372 0.330239 0
M  V30 52281 C 5173.58 3.46851 0.176635 0
M  V30 52282 C 5172.53 4.22179 -0.703501 0
M  V30 52283 C 5171.86 5.34534 0.133027 0
M  V30 52284 C 5173.16 4.82858 -1.99113 0
M  V30 52285 H 5174.85 2.64995 -1.39349 0
M  V30 52286 H 5172.4 1.27385 -0.671491 0
M  V30 52287 H 5174.35 4.18426 0.499787 0
M  V30 52288 H 5173.07 3.0835 1.07648 0
M  V30 52289 H 5171.73 3.52412 -1.01001 0
M  V30 52290 H 5171.38 4.92274 1.03321 0
M  V30 52291 H 5171.08 5.85854 -0.4527 0
M  V30 52292 H 5172.6 6.08934 0.45071 0
M  V30 52293 H 5174.02 5.46475 -1.73316 0
M  V30 52294 H 5172.41 5.44435 -2.52409 0
M  V30 52295 H 5173.48 4.03967 -2.68214 0
M  V30 52296 N 5174.83 0.744729 1.38894 0
M  V30 52297 C 5176.08 0.296368 1.99915 0
M  V30 52298 C 5176.4 -1.1232 1.59403 0
M  V30 52299 O 5175.67 -1.76655 0.846751 0
M  V30 52300 H 5174.25 0.106587 0.739357 0
M  V30 52301 H 5176.91 0.956853 1.69795 0
M  V30 52302 H 5176.01 0.352465 3.10103 0
M  V30 52303 N 5176.31 -1.49687 0.49311 0
M  V30 52304 C 5177.27 -2.27503 -0.278405 0
M  V30 52305 C 5178.27 -1.33187 -0.90099 0
M  V30 52306 O 5179.46 -1.56418 -0.766746 0
M  V30 52307 C 5176.59 -3.10886 -1.39867 0
M  V30 52308 H 5177.78 -2.97162 0.404323 0
M  V30 52309 H 5175.34 -1.54323 0.247828 0
M  V30 52310 H 5176.07 -2.45774 -2.11579 0
M  V30 52311 H 5175.86 -3.80222 -0.95779 0
M  V30 52312 H 5177.35 -3.6968 -1.94234 0
M  V30 52313 N 5177.78 -0.226609 -1.55962 0
M  V30 52314 C 5179.2 0.280316 -1.84584 0
M  V30 52315 C 5179.55 1.59101 -1.14809 0
M  V30 52316 O 5178.67 2.12295 -0.419489 0
M  V30 52317 C 5179.27 0.515381 -3.34857 0
M  V30 52318 C 5177.83 0.966605 -3.63777 0
M  V30 52319 C 5176.97 0.0324779 -2.77281 0
M  V30 52320 H 5179.92 -0.44968 -1.52196 0
M  V30 52321 H 5179.94 1.36072 -3.55337 0
M  V30 52322 H 5179.46 -0.438729 -3.85612 0
M  V30 52323 H 5177.56 1.9339 -3.18483 0
M  V30 52324 H 5177.67 0.837513 -4.71723 0
M  V30 52325 H 5176.03 0.540192 -2.48906 0
M  V30 52326 H 5176.82 -0.91664 -3.30836 0
M  V30 52327 N 5179.26 1.57531 0.0467312 0
M  V30 52328 C 5180.49 1.92699 0.753303 0
M  V30 52329 C 5180.91 0.824852 1.69828 0
M  V30 52330 O 5180.26 -0.200091 1.814 0
M  V30 52331 C 5180.31 3.27733 1.52555 0
M  V30 52332 O 5180.03 4.33712 0.618522 0
M  V30 52333 C 5181.54 3.77074 2.33087 0
M  V30 52334 H 5178.76 0.636374 0.212765 0
M  V30 52335 H 5181.3 2.04498 0.00952172 0
M  V30 52336 H 5179.45 3.17386 2.22137 0
M  V30 52337 H 5179.87 5.11552 1.15821 0
M  V30 52338 H 5181.34 4.74119 2.82693 0
M  V30 52339 H 5181.82 3.07359 3.13731 0
M  V30 52340 H 5182.43 3.90448 1.68614 0
M  V30 52341 N 5180.74 -0.318661 1.54345 0
M  V30 52342 C 5182.16 -0.663294 1.45164 0
M  V30 52343 C 5182.36 -1.91448 0.628487 0
M  V30 52344 O 5181.41 -2.52169 0.129215 0
M  V30 52345 C 5182.73 -0.832735 2.88939 0
M  V30 52346 C 5184.27 -0.929761 2.98872 0
M  V30 52347 C 5184.75 -1.13133 4.43807 0
M  V30 52348 N 5186.24 -1.19796 4.47441 0
M  V30 52349 C 5186.97 -1.3719 5.56746 0
M  V30 52350 N 5186.47 -1.51595 6.76011 0
M  V30 52351 N 5188.26 -1.39937 5.44402 0
M  V30 52352 H 5180.41 0.503643 2.06342 0
M  V30 52353 H 5182.68 0.163561 0.933784 0
M  V30 52354 H 5182.38 0.0154755 3.51697 0
M  V30 52355 H 5182.26 -1.72709 3.35338 0
M  V30 52356 H 5184.64 -1.76847 2.36239 0
M  V30 52357 H 5184.73 -0.0117662 2.55797 0
M  V30 52358 H 5184.37 -0.297458 5.07028 0
M  V30 52359 H 5184.3 -2.06328 4.84496 0
M  V30 52360 H 5186.79 -1.10087 3.6151 0
M  V30 52361 H 5187.1 -1.64573 7.55073 0
M  V30 52362 H 5185.45 -1.48684 6.7891 0
M  V30 52363 H 5188.64 -1.28282 4.50179 0
M  V30 52364 H 5188.81 -1.5315 6.29642 0
M  V30 52365 N 5182.22 -1.46501 -0.580974 0
M  V30 52366 C 5183.15 -1.51712 -1.70466 0
M  V30 52367 C 5184.13 -0.371092 -1.58309 0
M  V30 52368 O 5185.31 -0.575489 -1.795 0
M  V30 52369 C 5182.44 -1.39731 -3.08533 0
M  V30 52370 C 5181.49 -2.58537 -3.39206 0
M  V30 52371 S 5182.32 -4.20883 -3.31085 0
M  V30 52372 C 5183.48 -4.11415 -4.71687 0
M  V30 52373 H 5183.71 -2.46783 -1.65787 0
M  V30 52374 H 5181.24 -1.34408 -0.75986 0
M  V30 52375 H 5183.2 -1.33506 -3.88183 0
M  V30 52376 H 5181.86 -0.460852 -3.10701 0
M  V30 52377 H 5181.05 -2.46153 -4.39801 0
M  V30 52378 H 5180.66 -2.61761 -2.67127 0
M  V30 52379 H 5182.95 -3.78202 -5.62112 0
M  V30 52380 H 5183.89 -5.12014 -4.89129 0
M  V30 52381 H 5184.3 -3.42639 -4.48619 0
M  V30 52382 N 5183.7 0.825752 -1.34235 0
M  V30 52383 C 5184.66 1.91804 -1.25475 0
M  V30 52384 C 5185.66 1.59892 -0.170623 0
M  V30 52385 O 5186.85 1.68985 -0.423056 0
M  V30 52386 C 5183.98 3.27783 -0.936556 0
M  V30 52387 H 5185.17 2.00995 -2.22578 0
M  V30 52388 H 5182.73 1.01939 -1.18482 0
M  V30 52389 H 5183.46 3.24285 0.0314268 0
M  V30 52390 H 5183.25 3.52327 -1.7207 0
M  V30 52391 H 5184.74 4.07779 -0.900358 0
M  V30 52392 N 5185.17 1.17918 1.04561 0
M  V30 52393 C 5186.42 0.969567 1.77324 0
M  V30 52394 C 5186.74 -0.502503 1.88414 0
M  V30 52395 O 5186.01 -1.36462 1.40552 0
M  V30 52396 H 5184.59 0.355746 0.656851 0
M  V30 52397 H 5187.26 1.4851 1.26217 0
M  V30 52398 H 5186.35 1.40334 2.7877 0
M  V30 52399 N 5186.65 -1.23391 0.980429 0
M  V30 52400 C 5187.9 -1.92091 0.65029 0
M  V30 52401 C 5188.23 -1.76312 -0.814111 0
M  V30 52402 O 5187.51 -1.12412 -1.58726 0
M  V30 52403 C 5187.79 -3.44709 1.04152 0
M  V30 52404 C 5187.64 -3.69597 2.56355 0
M  V30 52405 C 5188.96 -4.36189 0.585449 0
M  V30 52406 H 5186.08 -0.697609 0.237719 0
M  V30 52407 H 5188.72 -1.45513 1.22172 0
M  V30 52408 H 5186.87 -3.84511 0.555286 0
M  V30 52409 H 5188.54 -3.39277 3.12552 0
M  V30 52410 H 5186.79 -3.14308 2.98987 0
M  V30 52411 H 5187.46 -4.76431 2.78779 0
M  V30 52412 H 5189.93 -4.03833 1.00291 0
M  V30 52413 H 5188.81 -5.41676 0.887619 0
M  V30 52414 H 5189.07 -4.39099 -0.514225 0
M  V30 52415 N 5188.13 -0.752084 -1.38497 0
M  V30 52416 C 5189.36 -0.318346 -2.04436 0
M  V30 52417 C 5189.77 1.0528 -1.56722 0
M  V30 52418 O 5189.13 1.66841 -0.739618 0
M  V30 52419 C 5189.18 -0.330233 -3.59988 0
M  V30 52420 O 5188.9 -1.64727 -4.05952 0
M  V30 52421 C 5190.4 0.117557 -4.43144 0
M  V30 52422 H 5187.62 -0.136251 -0.657021 0
M  V30 52423 H 5190.17 -1.02051 -1.77217 0
M  V30 52424 H 5188.32 0.323187 -3.8605 0
M  V30 52425 H 5188.74 -1.57243 -5.00375 0
M  V30 52426 H 5190.21 0.0580794 -5.51969 0
M  V30 52427 H 5190.69 1.16523 -4.23461 0
M  V30 52428 H 5191.29 -0.506933 -4.22268 0
M  V30 52429 N 5189.61 1.49423 -0.501041 0
M  V30 52430 C 5191.02 1.86624 -0.0532667 0
M  V30 52431 C 5191.37 1.41336 1.36083 0
M  V30 52432 O 5190.5 0.791266 2.01415 0
M  V30 52433 C 5191.09 3.38681 -0.0898883 0
M  V30 52434 C 5189.65 3.75182 0.302545 0
M  V30 52435 C 5188.8 2.73417 -0.462403 0
M  V30 52436 H 5191.75 1.4174 -0.713823 0
M  V30 52437 H 5191.77 3.73904 0.705397 0
M  V30 52438 H 5191.28 3.71612 -1.1192 0
M  V30 52439 H 5189.38 3.47859 1.33509 0
M  V30 52440 H 5189.5 4.79097 -0.0169338 0
M  V30 52441 H 5187.86 2.54549 0.0877663 0
M  V30 52442 H 5188.64 3.09193 -1.4918 0
M  V30 52443 N 5191.09 0.234877 1.5584 0
M  V30 52444 C 5192.33 -0.394874 2.0055 0
M  V30 52445 C 5192.69 -1.55998 1.11931 0
M  V30 52446 O 5193.89 -2.25664 1.46045 0
M  V30 52447 C 5192.16 -0.805773 3.48198 0
M  V30 52448 S 5193.72 -1.42775 4.14923 0
M  V30 52449 H 5190.54 -0.124777 0.699965 0
M  V30 52450 H 5193.14 0.347292 1.92391 0
M  V30 52451 H 5191.85 0.0516714 4.10367 0
M  V30 52452 H 5191.38 -1.58042 3.60259 0
M  V30 52453 H 5193.39 -2.71684 4.15213 0
M  V30 52454 N 5192.57 -1.57553 -0.0383763 0
M  V30 52455 C 5193.81 -1.88025 -0.730042 0
M  V30 52456 C 5194.13 -0.832153 -1.77016 0
M  V30 52457 O 5195.33 -1.02579 -2.51376 0
M  V30 52458 C 5193.79 -3.33642 -1.34948 0
M  V30 52459 C 5193.4 -4.4666 -0.346195 0
M  V30 52460 C 5195.14 -3.73274 -2.02156 0
M  V30 52461 C 5193.05 -5.83334 -0.973447 0
M  V30 52462 H 5191.98 -0.701505 -0.276417 0
M  V30 52463 H 5194.63 -1.83493 0.0158673 0
M  V30 52464 H 5193.01 -3.32889 -2.14478 0
M  V30 52465 H 5194.19 -4.58866 0.421719 0
M  V30 52466 H 5192.5 -4.15801 0.22328 0
M  V30 52467 H 5195.1 -4.72698 -2.49921 0
M  V30 52468 H 5195.44 -3.04786 -2.83569 0
M  V30 52469 H 5195.97 -3.76161 -1.29413 0
M  V30 52470 H 5192.71 -6.55198 -0.198932 0
M  V30 52471 H 5192.23 -5.74866 -1.71142 0
M  V30 52472 H 5193.91 -6.29762 -1.48354 0
M  V30 52473 N 5194.04 0.310471 -1.54512 0
M  V30 52474 C 5194.97 1.38751 -1.87805 0
M  V30 52475 C 5195.95 1.53351 -0.736045 0
M  V30 52476 O 5197.14 1.67015 -0.990946 0
M  V30 52477 C 5194.27 2.7532 -2.11699 0
M  V30 52478 C 5193.22 2.75495 -3.27546 0
M  V30 52479 C 5192.55 4.15263 -3.36839 0
M  V30 52480 C 5193.85 2.38076 -4.64884 0
M  V30 52481 H 5195.54 1.11136 -2.78009 0
M  V30 52482 H 5193.09 0.533185 -1.33765 0
M  V30 52483 H 5195.04 3.50743 -2.33574 0
M  V30 52484 H 5193.77 3.04439 -1.18256 0
M  V30 52485 H 5192.43 2.02527 -3.05579 0
M  V30 52486 H 5192.07 4.41545 -2.4093 0
M  V30 52487 H 5191.77 4.16284 -4.14706 0
M  V30 52488 H 5193.3 4.92481 -3.60964 0
M  V30 52489 H 5194.71 3.03215 -4.86553 0
M  V30 52490 H 5193.11 2.50326 -5.45396 0
M  V30 52491 H 5194.18 1.33211 -4.66243 0
M  V30 52492 N 5195.52 1.46807 0.573196 0
M  V30 52493 C 5196.77 1.52307 1.32842 0
M  V30 52494 C 5197.09 0.180227 1.94165 0
M  V30 52495 O 5196.36 -0.794228 1.79078 0
M  V30 52496 H 5194.94 0.560988 0.493256 0
M  V30 52497 H 5197.6 1.83001 0.670578 0
M  V30 52498 H 5196.7 2.28096 2.13023 0
M  V30 52499 N 5197 -0.818622 1.34671 0
M  V30 52500 C 5198.41 -1.39172 1.24451 0
M  V30 52501 C 5198.76 -1.95781 -0.128199 0
M  V30 52502 O 5197.89 -1.90385 -1.02871 0
M  V30 52503 C 5198.48 -2.53004 2.25332 0
M  V30 52504 C 5197.04 -3.0621 2.18889 0
M  V30 52505 C 5196.19 -1.79104 2.117 0
M  V30 52506 H 5199.14 -0.622658 1.45975 0
M  V30 52507 H 5199.16 -3.31219 1.87281 0
M  V30 52508 H 5198.67 -2.11773 3.25229 0
M  V30 52509 H 5196.77 -3.51935 1.22363 0
M  V30 52510 H 5196.89 -3.65008 3.10332 0
M  V30 52511 H 5195.25 -2.00174 1.57488 0
M  V30 52512 H 5196.03 -1.40042 3.13438 0
M  V30 52513 N 5198.48 -1.18471 -1.03934 0
M  V30 52514 C 5199.41 -0.936465 -2.13899 0
M  V30 52515 C 5200.39 0.126321 -1.6963 0
M  V30 52516 O 5201.57 -0.026544 -1.94182 0
M  V30 52517 C 5198.7 -0.462851 -3.44202 0
M  V30 52518 C 5197.66 -1.46627 -4.021 0
M  V30 52519 C 5196.98 -0.850126 -5.27899 0
M  V30 52520 C 5198.28 -2.84338 -4.3812 0
M  V30 52521 H 5199.98 -1.85611 -2.34924 0
M  V30 52522 H 5197.52 -0.893846 -1.129 0
M  V30 52523 H 5199.48 -0.276529 -4.20492 0
M  V30 52524 H 5198.2 0.492363 -3.22867 0
M  V30 52525 H 5196.86 -1.63955 -3.27894 0
M  V30 52526 H 5196.51 0.112317 -5.02875 0
M  V30 52527 H 5196.21 -1.52008 -5.67598 0
M  V30 52528 H 5197.73 -0.674365 -6.06865 0
M  V30 52529 H 5199.15 -2.70654 -5.0539 0
M  V30 52530 H 5197.54 -3.48029 -4.88872 0
M  V30 52531 H 5198.61 -3.37789 -3.47889 0
M  V30 52532 N 5199.96 1.22869 -0.986959 0
M  V30 52533 C 5200.87 2.28276 -0.541058 0
M  V30 52534 C 5201.88 1.69166 0.407304 0
M  V30 52535 O 5203.06 1.99505 0.275604 0
M  V30 52536 C 5200.12 3.46405 0.143059 0
M  V30 52537 C 5199.18 4.20851 -0.847523 0
M  V30 52538 C 5198.42 5.3334 -0.195958 0
M  V30 52539 O 5198.64 5.6136 1.0115 0
M  V30 52540 O 5197.57 5.95166 -0.897832 0
M  V30 52541 H 5201.4 2.68573 -1.41782 0
M  V30 52542 H 5198.98 1.28924 -0.754912 0
M  V30 52543 H 5200.87 4.18098 0.526529 0
M  V30 52544 H 5199.54 3.08045 0.994485 0
M  V30 52545 H 5198.45 3.51455 -1.28181 0
M  V30 52546 H 5199.78 4.63077 -1.66796 0
M  V30 52547 N 5201.43 0.759419 1.38096 0
M  V30 52548 C 5202.4 0.143801 2.28748 0
M  V30 52549 C 5203.4 -0.641286 1.47459 0
M  V30 52550 O 5204.59 -0.466692 1.67832 0
M  V30 52551 C 5201.72 -0.804428 3.31273 0
M  V30 52552 H 5202.91 0.942763 2.84696 0
M  V30 52553 H 5200.46 0.526809 1.47154 0
M  V30 52554 H 5201.2 -1.62885 2.80426 0
M  V30 52555 H 5200.98 -0.243802 3.91341 0
M  V30 52556 H 5202.47 -1.23097 3.99045 0
M  V30 52557 N 5202.91 -1.49156 0.508959 0
M  V30 52558 C 5204.16 -2.02074 -0.0326624 0
M  V30 52559 C 5204.48 -1.39017 -1.36746 0
M  V30 52560 O 5203.75 -0.548219 -1.88073 0
M  V30 52561 H 5202.33 -0.746848 -0.0150602 0
M  V30 52562 H 5204.99 -1.83095 0.668011 0
M  V30 52563 H 5204.09 -3.11707 -0.156491 0
M  V30 52564 N 5204.39 -0.243138 -1.55713 0
M  V30 52565 C 5205.32 0.652257 -2.24205 0
M  V30 52566 C 5206.3 1.18426 -1.22104 0
M  V30 52567 O 5207.49 1.22429 -1.50747 0
M  V30 52568 C 5204.62 1.851 -2.93863 0
M  V30 52569 C 5203.57 1.45194 -4.0262 0
M  V30 52570 C 5202.9 2.73121 -4.59684 0
M  V30 52571 C 5204.2 0.625806 -5.18537 0
M  V30 52572 H 5205.89 0.0811451 -2.9929 0
M  V30 52573 H 5203.44 0.0375882 -1.43951 0
M  V30 52574 H 5205.39 2.48302 -3.40476 0
M  V30 52575 H 5204.11 2.44743 -2.1626 0
M  V30 52576 H 5202.77 0.843281 -3.56769 0
M  V30 52577 H 5202.42 3.30954 -3.78786 0
M  V30 52578 H 5202.12 2.47144 -5.33098 0
M  V30 52579 H 5203.64 3.37227 -5.09029 0
M  V30 52580 H 5205.06 1.16203 -5.614 0
M  V30 52581 H 5203.46 0.462254 -5.98317 0
M  V30 52582 H 5204.53 -0.362822 -4.83541 0
M  V30 52583 N 5205.87 1.57571 0.0300203 0
M  V30 52584 C 5207.12 1.89229 0.721024 0
M  V30 52585 C 5207.44 0.840306 1.75411 0
M  V30 52586 O 5206.7 -0.158838 1.95054 0
M  V30 52587 C 5207 3.27629 1.42807 0
M  V30 52588 C 5206.66 4.47762 0.53105 0
M  V30 52589 C 5205.33 4.80361 0.283981 0
M  V30 52590 C 5207.68 5.21125 -0.0883414 0
M  V30 52591 C 5205.01 5.83713 -0.591271 0
M  V30 52592 C 5207.36 6.25406 -0.95129 0
M  V30 52593 C 5206.02 6.56481 -1.20783 0
M  V30 52594 H 5205.29 0.692437 0.263841 0
M  V30 52595 H 5207.94 1.91491 -0.0190547 0
M  V30 52596 H 5206.24 3.21351 2.24144 0
M  V30 52597 H 5207.94 3.49372 1.96825 0
M  V30 52598 H 5204.53 4.22272 0.733772 0
M  V30 52599 H 5208.71 4.96219 0.0895752 0
M  V30 52600 H 5203.97 6.06165 -0.798345 0
M  V30 52601 H 5208.14 6.81397 -1.43775 0
M  V30 52602 H 5205.77 7.36388 -1.88776 0
M  V30 52603 N 5207.35 -0.302273 1.54674 0
M  V30 52604 C 5208.59 -1.03764 1.73895 0
M  V30 52605 C 5208.92 -1.87307 0.524045 0
M  V30 52606 O 5208.18 -1.89362 -0.494017 0
M  V30 52607 C 5208.48 -1.97354 2.9797 0
M  V30 52608 C 5208.14 -1.29797 4.31814 0
M  V30 52609 C 5206.8 -1.11105 4.68198 0
M  V30 52610 C 5209.16 -0.814892 5.1479 0
M  V30 52611 C 5206.48 -0.427871 5.85138 0
M  V30 52612 C 5208.84 -0.145442 6.32433 0
M  V30 52613 C 5207.5 0.0534445 6.67479 0
M  V30 52614 H 5206.77 -0.379699 0.636325 0
M  V30 52615 H 5209.42 -0.312641 1.88931 0
M  V30 52616 H 5207.72 -2.76377 2.7771 0
M  V30 52617 H 5209.42 -2.5432 3.10036 0
M  V30 52618 H 5206.01 -1.45352 4.03201 0
M  V30 52619 H 5210.19 -0.947019 4.87181 0
M  V30 52620 H 5205.45 -0.26278 6.10835 0
M  V30 52621 H 5209.62 0.236777 6.95997 0
M  V30 52622 H 5207.25 0.584827 7.57947 0
M  V30 52623 N 5208.82 -1.47109 -0.565403 0
M  V30 52624 C 5210.24 -1.4727 -1.14754 0
M  V30 52625 C 5210.59 -0.22291 -1.9493 0
M  V30 52626 O 5209.71 0.672789 -2.05676 0
M  V30 52627 C 5210.31 -2.6683 -2.08776 0
M  V30 52628 C 5208.87 -2.69976 -2.62278 0
M  V30 52629 C 5208.01 -2.40241 -1.38491 0
M  V30 52630 H 5210.96 -1.54737 -0.352425 0
M  V30 52631 H 5210.98 -2.43333 -2.92522 0
M  V30 52632 H 5210.5 -3.57775 -1.50395 0
M  V30 52633 H 5208.6 -1.83149 -3.2448 0
M  V30 52634 H 5208.71 -3.70436 -3.03832 0
M  V30 52635 H 5207.07 -1.90653 -1.68889 0
M  V30 52636 H 5207.86 -3.33384 -0.819157 0
M  V30 52637 N 5210.3 0.811468 -1.35103 0
M  V30 52638 C 5211.55 1.56521 -1.2785 0
M  V30 52639 C 5211.87 1.94436 0.148221 0
M  V30 52640 O 5211.14 1.63207 1.08353 0
M  V30 52641 H 5209.72 0.580416 -0.47024 0
M  V30 52642 H 5212.38 0.968217 -1.6915 0
M  V30 52643 H 5211.48 2.48285 -1.89106 0
M  V30 52644 N 5211.78 1.19021 1.03304 0
M  V30 52645 C 5213.01 1.01605 1.80807 0
M  V30 52646 C 5213.43 -0.430708 1.83102 0
M  V30 52647 O 5212.79 -1.30941 1.25396 0
M  V30 52648 C 5212.84 1.58461 3.23917 0
M  V30 52649 O 5211.94 0.811114 4.04345 0
M  V30 52650 H 5211.28 0.359417 0.558315 0
M  V30 52651 H 5213.81 1.5795 1.3005 0
M  V30 52652 H 5213.82 1.61499 3.74676 0
M  V30 52653 H 5212.5 2.63763 3.21561 0
M  V30 52654 H 5211.07 0.853657 3.62997 0
M  V30 52655 N 5213.26 -1.22344 0.993461 0
M  V30 52656 C 5214.51 -1.9073 0.668313 0
M  V30 52657 C 5214.83 -1.77735 -0.802198 0
M  V30 52658 O 5214.1 -1.16491 -1.57501 0
M  V30 52659 H 5212.68 -0.705957 0.244199 0
M  V30 52660 H 5215.34 -1.48687 1.26009 0
M  V30 52661 H 5214.44 -2.9788 0.931344 0
M  V30 52662 N 5214.74 -0.766732 -1.37692 0
M  V30 52663 C 5215.98 -0.328135 -1.99418 0
M  V30 52664 C 5216.31 1.0977 -1.6117 0
M  V30 52665 O 5215.58 1.75285 -0.874748 0
M  V30 52666 H 5214.16 -0.118336 -0.737567 0
M  V30 52667 H 5216.82 -0.983745 -1.68251 0
M  V30 52668 H 5215.91 -0.401755 -3.09503 0
M  V30 52669 N 5216.21 1.48884 -0.516862 0
M  V30 52670 C 5217.46 2.02788 0.0220215 0
M  V30 52671 C 5217.79 1.39437 1.3517 0
M  V30 52672 O 5217.07 0.535525 1.86982 0
M  V30 52673 C 5217.35 3.59754 0.157886 0
M  V30 52674 C 5217.2 4.33607 -1.19603 0
M  V30 52675 C 5218.52 4.30987 0.890982 0
M  V30 52676 H 5215.64 0.736971 0.00652897 0
M  V30 52677 H 5218.28 1.77744 -0.67135 0
M  V30 52678 H 5216.43 3.81223 0.748434 0
M  V30 52679 H 5218.11 4.23592 -1.82668 0
M  V30 52680 H 5216.35 3.9554 -1.7813 0
M  V30 52681 H 5217.02 5.41842 -1.0541 0
M  V30 52682 H 5219.5 4.14269 0.389974 0
M  V30 52683 H 5218.37 5.4053 0.954917 0
M  V30 52684 H 5218.63 3.97343 1.93833 0
M  V30 52685 N 5217.69 0.251393 1.55582 0
M  V30 52686 C 5218.94 -0.372611 1.98228 0
M  V30 52687 C 5219.25 -1.58739 1.14285 0
M  V30 52688 O 5220.46 -2.28284 1.46966 0
M  V30 52689 C 5218.92 -0.714315 3.5274 0
M  V30 52690 C 5218.52 0.479325 4.45428 0
M  V30 52691 C 5220.27 -1.30226 4.04032 0
M  V30 52692 C 5218.18 0.113526 5.91291 0
M  V30 52693 H 5217.11 -0.142994 0.740317 0
M  V30 52694 H 5219.76 0.352316 1.80086 0
M  V30 52695 H 5218.14 -1.49749 3.66594 0
M  V30 52696 H 5219.31 1.2566 4.43335 0
M  V30 52697 H 5217.63 0.982501 4.04643 0
M  V30 52698 H 5220.22 -1.58935 5.10533 0
M  V30 52699 H 5220.57 -2.22824 3.51646 0
M  V30 52700 H 5221.1 -0.581886 3.93521 0
M  V30 52701 H 5217.84 1.00676 6.47723 0
M  V30 52702 H 5217.36 -0.627456 5.96509 0
M  V30 52703 H 5219.04 -0.302703 6.46292 0
M  V30 52704 N 5219.17 -1.57585 -0.0216635 0
M  V30 52705 C 5220.4 -1.93873 -0.722551 0
M  V30 52706 C 5220.81 -0.851765 -1.68495 0
M  V30 52707 O 5220.17 0.171207 -1.81695 0
M  V30 52708 C 5220.22 -3.30119 -1.47322 0
M  V30 52709 O 5219.94 -4.34641 -0.549444 0
M  V30 52710 C 5221.44 -3.80735 -2.27059 0
M  V30 52711 H 5218.66 -0.639678 -0.202614 0
M  V30 52712 H 5221.21 -2.04487 0.0230133 0
M  V30 52713 H 5219.36 -3.2088 -2.1706 0
M  V30 52714 H 5219.78 -5.1333 -1.07668 0
M  V30 52715 H 5221.25 -4.78556 -2.75114 0
M  V30 52716 H 5221.73 -3.12312 -3.08801 0
M  V30 52717 H 5222.33 -3.93081 -1.62381 0
M  V30 52718 N 5220.65 0.294066 -1.54832 0
M  V30 52719 C 5221.58 1.36751 -1.89266 0
M  V30 52720 C 5222.56 1.52561 -0.752268 0
M  V30 52721 O 5223.75 1.65954 -1.0086 0
M  V30 52722 C 5220.88 2.73059 -2.14607 0
M  V30 52723 C 5219.83 2.72005 -3.3045 0
M  V30 52724 C 5219.16 4.11667 -3.41224 0
M  V30 52725 C 5220.46 2.33132 -4.67383 0
M  V30 52726 H 5222.15 1.08181 -2.79172 0
M  V30 52727 H 5219.7 0.518967 -1.34323 0
M  V30 52728 H 5221.65 3.48246 -2.37281 0
M  V30 52729 H 5220.37 3.03168 -1.21478 0
M  V30 52730 H 5219.03 1.99274 -3.0771 0
M  V30 52731 H 5218.68 4.38964 -2.456 0
M  V30 52732 H 5218.38 4.11862 -4.19098 0
M  V30 52733 H 5219.9 4.88625 -3.66167 0
M  V30 52734 H 5221.32 2.98037 -4.89741 0
M  V30 52735 H 5219.71 2.44527 -5.48021 0
M  V30 52736 H 5220.78 1.28258 -4.6763 0
M  V30 52737 N 5222.13 1.47406 0.557593 0
M  V30 52738 C 5223.4 1.44493 1.31838 0
M  V30 52739 C 5223.78 0.141674 2.10624 0
M  V30 52740 O 5223.13 -0.876834 2.11007 0
M  V30 52741 C 5223.34 2.69024 2.22322 0
M  V30 52742 C 5224.69 3.16222 2.83353 0
M  V30 52743 O 5225.71 2.69749 2.32624 0
M  V30 52744 O 5224.57 3.97013 3.75557 0
M  V30 52745 H 5221.67 0.5758 0.593618 0
M  V30 52746 H 5224.21 1.59607 0.576528 0
M  V30 52747 H 5222.99 3.55411 1.63702 0
M  V30 52748 H 5222.61 2.56494 3.03803 0
M  V30 52749 N 5223.61 -0.804292 1.35532 0
M  V30 52750 C 5224.54 -1.93082 1.31308 0
M  V30 52751 C 5225.52 -1.69068 0.187103 0
M  V30 52752 O 5226.7 -1.90397 0.382425 0
M  V30 52753 C 5223.83 -3.29864 1.08662 0
M  V30 52754 C 5222.79 -3.68365 2.17924 0
M  V30 52755 C 5222.11 -5.03334 1.80441 0
M  V30 52756 C 5223.41 -3.78503 3.59907 0
M  V30 52757 H 5225.11 -1.96874 2.25568 0
M  V30 52758 H 5222.65 -0.945803 1.08584 0
M  V30 52759 H 5224.6 -4.08277 1.04345 0
M  V30 52760 H 5223.33 -3.2642 0.108473 0
M  V30 52761 H 5221.99 -2.92239 2.21341 0
M  V30 52762 H 5221.64 -4.96396 0.812388 0
M  V30 52763 H 5221.34 -5.30065 2.53583 0
M  V30 52764 H 5222.86 -5.84184 1.77654 0
M  V30 52765 H 5224.27 -4.47142 3.58799 0
M  V30 52766 H 5222.67 -4.16706 4.31829 0
M  V30 52767 H 5223.74 -2.79996 3.95892 0
M  V30 52768 N 5225.08 -1.19567 -1.02672 0
M  V30 52769 C 5226.49 -1.00163 -1.57557 0
M  V30 52770 C 5226.85 0.444855 -1.9109 0
M  V30 52771 O 5225.97 1.3246 -1.71123 0
M  V30 52772 C 5226.57 -1.81191 -2.86278 0
M  V30 52773 C 5225.12 -1.66182 -3.37728 0
M  V30 52774 C 5224.27 -1.79758 -2.11145 0
M  V30 52775 H 5227.22 -1.33907 -0.851743 0
M  V30 52776 H 5227.24 -1.30928 -3.57265 0
M  V30 52777 H 5226.76 -2.86463 -2.6184 0
M  V30 52778 H 5224.86 -0.635056 -3.67148 0
M  V30 52779 H 5224.97 -2.46846 -4.10614 0
M  V30 52780 H 5223.33 -1.22841 -2.23119 0
M  V30 52781 H 5224.12 -2.86493 -1.89147 0
M  V30 52782 N 5226.56 1.21816 -0.999936 0
M  V30 52783 C 5227.81 1.90373 -0.678418 0
M  V30 52784 C 5228.13 1.78158 0.792761 0
M  V30 52785 O 5227.4 1.17325 1.56881 0
M  V30 52786 H 5225.98 0.704652 -0.24794 0
M  V30 52787 H 5228.64 1.48016 -1.26796 0
M  V30 52788 H 5227.74 2.97382 -0.947128 0
M  V30 52789 N 5228.04 0.774023 1.37283 0
M  V30 52790 C 5229 0.168054 2.28583 0
M  V30 52791 C 5230 -0.62561 1.48131 0
M  V30 52792 O 5231.19 -0.448865 1.68318 0
M  V30 52793 C 5228.32 -0.769247 3.32108 0
M  V30 52794 H 5229.52 0.972906 2.8368 0
M  V30 52795 H 5227.07 0.542387 1.46587 0
M  V30 52796 H 5227.81 -1.59902 2.82138 0
M  V30 52797 H 5227.59 -0.202281 3.91578 0
M  V30 52798 H 5229.08 -1.18858 4.00328 0
M  V30 52799 N 5229.52 -1.48607 0.52475 0
M  V30 52800 C 5230.75 -2.06899 -0.00735672 0
M  V30 52801 C 5231.16 -1.382 -1.28632 0
M  V30 52802 O 5230.52 -0.467833 -1.76402 0
M  V30 52803 C 5230.57 -3.607 -0.240421 0
M  V30 52804 O 5230.29 -4.26817 0.987865 0
M  V30 52805 C 5231.79 -4.35772 -0.813499 0
M  V30 52806 H 5229.01 -0.670276 0.0311529 0
M  V30 52807 H 5231.55 -1.91069 0.7289 0
M  V30 52808 H 5229.71 -3.76153 -0.926713 0
M  V30 52809 H 5230.12 -5.18886 0.765358 0
M  V30 52810 H 5231.6 -5.44177 -0.926028 0
M  V30 52811 H 5232.07 -3.99846 -1.81714 0
M  V30 52812 H 5232.68 -4.24984 -0.163937 0
M  V30 52813 N 5231 -0.25964 -1.55447 0
M  V30 52814 C 5231.93 0.628441 -2.24884 0
M  V30 52815 C 5232.91 1.17124 -1.23353 0
M  V30 52816 O 5234.09 1.20824 -1.52037 0
M  V30 52817 C 5231.22 1.81973 -2.95809 0
M  V30 52818 C 5230.18 1.40915 -4.04137 0
M  V30 52819 C 5229.5 2.6823 -4.62555 0
M  V30 52820 C 5230.8 0.570773 -5.19172 0
M  V30 52821 H 5232.5 0.0493969 -2.99359 0
M  V30 52822 H 5230.04 0.0223182 -1.43983 0
M  V30 52823 H 5231.99 2.44676 -3.43091 0
M  V30 52824 H 5230.72 2.42436 -2.18843 0
M  V30 52825 H 5229.38 0.805393 -3.57644 0
M  V30 52826 H 5229.03 3.26917 -3.82275 0
M  V30 52827 H 5228.73 2.41476 -5.35689 0
M  V30 52828 H 5230.25 3.31809 -5.12577 0
M  V30 52829 H 5231.66 1.10242 -5.62601 0
M  V30 52830 H 5230.06 0.398769 -5.98774 0
M  V30 52831 H 5231.13 -0.414088 -4.83129 0
M  V30 52832 N 5232.47 1.57594 0.0133061 0
M  V30 52833 C 5233.88 1.7817 0.557874 0
M  V30 52834 C 5234.24 0.892677 1.74716 0
M  V30 52835 O 5233.36 0.0916251 2.16206 0
M  V30 52836 C 5233.96 3.23118 1.01882 0
M  V30 52837 C 5232.51 3.44837 1.50879 0
M  V30 52838 C 5231.66 2.73559 0.453948 0
M  V30 52839 H 5234.61 1.57265 -0.212898 0
M  V30 52840 H 5234.63 3.30499 1.88549 0
M  V30 52841 H 5234.15 3.87798 0.153039 0
M  V30 52842 H 5232.25 2.85354 2.39592 0
M  V30 52843 H 5232.36 4.5349 1.54543 0
M  V30 52844 H 5230.72 2.3779 0.912582 0
M  V30 52845 H 5231.51 3.40931 -0.402644 0
M  V30 52846 N 5233.95 -0.28585 1.54986 0
M  V30 52847 C 5235.23 -1.03964 1.65683 0
M  V30 52848 C 5235.61 -2.04724 0.514923 0
M  V30 52849 O 5234.96 -2.23259 -0.486584 0
M  V30 52850 C 5235.17 -1.70796 3.04351 0
M  V30 52851 C 5236.52 -2.22435 3.61674 0
M  V30 52852 O 5237.54 -1.80804 3.06901 0
M  V30 52853 O 5236.4 -2.98757 4.57609 0
M  V30 52854 H 5233.49 -0.481449 0.67241 0
M  V30 52855 H 5236.04 -0.282731 1.67328 0
M  V30 52856 H 5234.81 -0.977138 3.78903 0
M  V30 52857 H 5234.43 -2.53206 3.0655 0
M  V30 52858 N 5235.43 -1.477 -0.549768 0
M  V30 52859 C 5236.68 -1.54936 -1.30854 0
M  V30 52860 C 5237.01 -0.214089 -1.93016 0
M  V30 52861 O 5236.28 0.778031 -1.78261 0
M  V30 52862 C 5236.57 -2.67295 -2.413 0
M  V30 52863 C 5236.42 -4.10463 -1.83957 0
M  V30 52864 C 5237.74 -2.75521 -3.43186 0
M  V30 52865 H 5234.86 -0.564006 -0.474411 0
M  V30 52866 H 5237.5 -1.79789 -0.614478 0
M  V30 52867 H 5235.65 -2.46234 -3.00501 0
M  V30 52868 H 5237.32 -4.42908 -1.28959 0
M  V30 52869 H 5235.57 -4.18391 -1.14592 0
M  V30 52870 H 5236.24 -4.84867 -2.63834 0
M  V30 52871 H 5238.71 -2.94541 -2.93913 0
M  V30 52872 H 5237.59 -3.55901 -4.17883 0
M  V30 52873 H 5237.85 -1.82877 -4.02503 0
M  V30 52874 N 5236.91 0.797093 -1.35957 0
M  V30 52875 C 5238.16 1.55156 -1.29503 0
M  V30 52876 C 5238.48 1.94582 0.12759 0
M  V30 52877 O 5237.75 1.64347 1.06616 0
M  V30 52878 H 5236.33 0.575396 -0.47637 0
M  V30 52879 H 5238.99 0.950222 -1.70167 0
M  V30 52880 H 5238.09 2.46265 -1.91729 0
M  V30 52881 N 5238.39 1.2011 1.02036 0
M  V30 52882 C 5239.32 0.970375 2.12382 0
M  V30 52883 C 5240.3 -0.0993183 1.6981 0
M  V30 52884 O 5241.48 0.0574332 1.94115 0
M  V30 52885 C 5238.61 0.517551 3.43422 0
M  V30 52886 C 5237.57 1.53006 3.99717 0
M  V30 52887 C 5236.89 0.934003 5.26479 0
M  V30 52888 C 5238.19 2.91272 4.33541 0
M  V30 52889 H 5239.89 1.89325 2.31941 0
M  V30 52890 H 5237.43 0.911694 1.11464 0
M  V30 52891 H 5239.39 0.343391 4.19999 0
M  V30 52892 H 5238.11 -0.440936 3.2361 0
M  V30 52893 H 5236.77 1.69151 3.25244 0
M  V30 52894 H 5236.42 -0.0322995 5.0299 0
M  V30 52895 H 5236.12 1.61019 5.65108 0
M  V30 52896 H 5237.64 0.770827 6.05715 0
M  V30 52897 H 5239.05 2.7866 5.01021 0
M  V30 52898 H 5237.45 3.55762 4.83273 0
M  V30 52899 H 5238.52 3.43281 3.42471 0
M  V30 52900 N 5239.86 -1.21284 1.00638 0
M  V30 52901 C 5240.77 -2.27386 0.577306 0
M  V30 52902 C 5241.79 -1.69792 -0.380339 0
M  V30 52903 O 5242.97 -1.99919 -0.24383 0
M  V30 52904 C 5240.03 -3.46588 -0.0879313 0
M  V30 52905 C 5239.09 -4.19449 0.914369 0
M  V30 52906 C 5238.33 -5.32961 0.280783 0
M  V30 52907 O 5238.55 -5.62898 -0.922067 0
M  V30 52908 O 5237.48 -5.93662 0.992404 0
M  V30 52909 H 5241.31 -2.66283 1.46037 0
M  V30 52910 H 5238.89 -1.27707 0.775328 0
M  V30 52911 H 5240.78 -4.18882 -0.459946 0
M  V30 52912 H 5239.45 -3.09588 -0.945352 0
M  V30 52913 H 5238.36 -3.49371 1.33757 0
M  V30 52914 H 5239.69 -4.60364 1.74142 0
M  V30 52915 N 5241.34 -0.781292 -1.36871 0
M  V30 52916 C 5242.27 -0.18821 -2.3274 0
M  V30 52917 C 5243.25 0.672271 -1.56251 0
M  V30 52918 O 5244.44 0.60777 -1.84445 0
M  V30 52919 C 5241.57 0.684221 -3.40493 0
M  V30 52920 C 5240.52 -0.0757146 -4.27933 0
M  V30 52921 C 5239.85 0.916783 -5.26782 0
M  V30 52922 C 5241.15 -1.26024 -5.06868 0
M  V30 52923 H 5242.84 -0.989116 -2.8259 0
M  V30 52924 H 5240.39 -0.477086 -1.35867 0
M  V30 52925 H 5242.34 1.10901 -4.06545 0
M  V30 52926 H 5241.07 1.51775 -2.89192 0
M  V30 52927 H 5239.72 -0.481386 -3.63426 0
M  V30 52928 H 5239.37 1.74512 -4.71757 0
M  V30 52929 H 5239.07 0.412794 -5.86148 0
M  V30 52930 H 5240.6 1.34031 -5.95708 0
M  V30 52931 H 5242.01 -0.911624 -5.66006 0
M  V30 52932 H 5240.41 -1.69696 -5.75607 0
M  V30 52933 H 5241.48 -2.05964 -4.38984 0
M  V30 52934 N 5242.82 1.48327 -0.532624 0
M  V30 52935 C 5243.73 2.33445 0.232464 0
M  V30 52936 C 5244.75 1.46655 0.936398 0
M  V30 52937 O 5245.92 1.7963 0.91077 0
M  V30 52938 C 5242.99 3.22828 1.26423 0
M  V30 52939 C 5242.05 4.25494 0.570361 0
M  V30 52940 C 5241.28 5.10606 1.55297 0
M  V30 52941 O 5241.5 4.97743 2.78582 0
M  V30 52942 O 5240.44 5.91931 1.09091 0
M  V30 52943 H 5244.26 3.00118 -0.465094 0
M  V30 52944 H 5241.85 1.46488 -0.293513 0
M  V30 52945 H 5243.73 3.78109 1.86042 0
M  V30 52946 H 5242.41 2.58814 1.94415 0
M  V30 52947 H 5241.31 3.74041 -0.0663902 0
M  V30 52948 H 5242.65 4.92153 -0.0676634 0
M  V30 52949 N 5244.3 0.26788 1.55307 0
M  V30 52950 C 5245.54 -0.351486 1.99731 0
M  V30 52951 C 5245.88 -1.56045 1.15601 0
M  V30 52952 O 5245.15 -1.93202 0.224342 0
M  V30 52953 C 5245.44 -0.740786 3.52398 0
M  V30 52954 C 5245.29 0.475019 4.47285 0
M  V30 52955 C 5246.61 -1.57996 4.10762 0
M  V30 52956 H 5243.73 -0.126282 0.7261 0
M  V30 52957 H 5246.37 0.373381 1.86295 0
M  V30 52958 H 5244.52 -1.35839 3.63978 0
M  V30 52959 H 5246.19 1.11356 4.47658 0
M  V30 52960 H 5244.43 1.11439 4.19242 0
M  V30 52961 H 5245.1 0.158976 5.51771 0
M  V30 52962 H 5247.58 -1.05843 4.02413 0
M  V30 52963 H 5246.46 -1.82117 5.17807 0
M  V30 52964 H 5246.72 -2.55866 3.60535 0
M  V30 52965 N 5245.78 -1.57599 -0.00494828 0
M  V30 52966 C 5247.19 -1.55465 -0.360961 0
M  V30 52967 C 5247.39 -0.997113 -1.751 0
M  V30 52968 O 5246.45 -0.628747 -2.44547 0
M  V30 52969 C 5247.76 -2.99735 -0.240722 0
M  V30 52970 C 5249.31 -3.114 -0.316028 0
M  V30 52971 C 5249.78 -4.57447 -0.22497 0
M  V30 52972 N 5251.28 -4.62335 -0.283023 0
M  V30 52973 C 5252.01 -5.72915 -0.235829 0
M  V30 52974 N 5251.51 -6.9266 -0.139519 0
M  V30 52975 N 5253.3 -5.61365 -0.287331 0
M  V30 52976 H 5245.45 -1.92182 0.904427 0
M  V30 52977 H 5247.71 -0.882516 0.346221 0
M  V30 52978 H 5247.42 -3.44346 0.715464 0
M  V30 52979 H 5247.29 -3.63012 -1.02478 0
M  V30 52980 H 5249.68 -2.66723 -1.26266 0
M  V30 52981 H 5249.76 -2.50909 0.497813 0
M  V30 52982 H 5249.41 -5.02798 0.718094 0
M  V30 52983 H 5249.34 -5.15878 -1.05723 0
M  V30 52984 H 5251.83 -3.76191 -0.358991 0
M  V30 52985 H 5252.14 -7.72723 -0.109269 0
M  V30 52986 H 5250.48 -6.9492 -0.105217 0
M  V30 52987 H 5253.68 -4.66708 -0.360733 0
M  V30 52988 H 5253.85 -6.47529 -0.247086 0
M  V30 52989 N 5247.25 0.277627 -1.55135 0
M  V30 52990 C 5248.67 0.849005 -1.66279 0
M  V30 52991 C 5249.02 1.8722 -0.586766 0
M  V30 52992 O 5248.14 2.14677 0.272559 0
M  V30 52993 C 5248.74 1.5467 -3.01434 0
M  V30 52994 C 5247.3 2.06617 -3.14621 0
M  V30 52995 C 5246.44 0.906656 -2.62059 0
M  V30 52996 H 5249.39 0.05408 -1.58608 0
M  V30 52997 H 5249.41 2.41345 -2.94164 0
M  V30 52998 H 5248.93 0.801757 -3.79728 0
M  V30 52999 H 5247.03 2.84087 -2.41092 0
M  V30 53000 H 5247.14 2.28466 -4.21118 0
M  V30 53001 H 5245.5 1.29875 -2.191 0
M  V30 53002 H 5246.29 0.175293 -3.42852 0
M  V30 53003 N 5248.73 1.4799 0.541927 0
M  V30 53004 C 5249.66 1.64509 1.65708 0
M  V30 53005 C 5250.64 0.494173 1.62763 0
M  V30 53006 O 5251.83 0.725319 1.80147 0
M  V30 53007 C 5248.96 1.67348 3.04322 0
M  V30 53008 C 5247.91 2.8182 3.2212 0
M  V30 53009 C 5247.24 2.69741 4.61675 0
M  V30 53010 C 5248.54 4.23252 3.06031 0
M  V30 53011 H 5250.23 2.57865 1.52138 0
M  V30 53012 H 5247.78 1.24096 0.730485 0
M  V30 53013 H 5249.73 1.77494 3.82196 0
M  V30 53014 H 5248.46 0.705626 3.18886 0
M  V30 53015 H 5247.12 2.7121 2.46659 0
M  V30 53016 H 5246.76 1.7095 4.73059 0
M  V30 53017 H 5246.46 3.46547 4.74531 0
M  V30 53018 H 5247.99 2.81837 5.41664 0
M  V30 53019 H 5249.4 4.34759 3.73708 0
M  V30 53020 H 5247.8 5.00963 3.30387 0
M  V30 53021 H 5248.87 4.4055 2.02593 0
M  V30 53022 N 5250.21 -0.789872 1.36377 0
M  V30 53023 C 5251.17 -1.8841 1.30516 0
M  V30 53024 C 5252.17 -1.59384 0.212956 0
M  V30 53025 O 5253.36 -1.67804 0.46771 0
M  V30 53026 C 5250.5 -3.25184 1.02313 0
M  V30 53027 H 5251.69 -1.95023 2.27829 0
M  V30 53028 H 5249.24 -0.987622 1.21143 0
M  V30 53029 H 5249.98 -3.24254 0.0545626 0
M  V30 53030 H 5249.76 -3.47641 1.81351 0
M  V30 53031 H 5251.25 -4.05248 1.00816 0
M  V30 53032 N 5251.69 -1.20649 -1.01398 0
M  V30 53033 C 5252.94 -1.01976 -1.75296 0
M  V30 53034 C 5253.27 0.446736 -1.88992 0
M  V30 53035 O 5252.54 1.33164 -1.41766 0
M  V30 53036 C 5252.83 -1.70704 -3.17068 0
M  V30 53037 C 5252.68 -3.24816 -3.11151 0
M  V30 53038 C 5254 -1.44226 -4.15797 0
M  V30 53039 H 5251.12 -0.371867 -0.636305 0
M  V30 53040 H 5253.76 -1.487 -1.18272 0
M  V30 53041 H 5251.91 -1.30981 -3.65754 0
M  V30 53042 H 5253.58 -3.7385 -2.70247 0
M  V30 53043 H 5251.82 -3.55585 -2.48479 0
M  V30 53044 H 5252.5 -3.68063 -4.1138 0
M  V30 53045 H 5254.97 -1.78693 -3.75776 0
M  V30 53046 H 5253.85 -1.94843 -5.13154 0
M  V30 53047 H 5254.11 -0.370407 -4.40546 0
M  V30 53048 N 5253.17 1.20748 -1.0128 0
M  V30 53049 C 5254.4 1.94004 -0.719045 0
M  V30 53050 C 5254.81 1.74547 0.719649 0
M  V30 53051 O 5254.17 1.05702 1.48773 0
M  V30 53052 C 5254.22 3.46204 -1.04043 0
M  V30 53053 O 5253.94 3.65022 -2.42261 0
M  V30 53054 C 5255.44 4.36611 -0.767186 0
M  V30 53055 H 5252.66 0.616734 -0.264348 0
M  V30 53056 H 5255.2 1.53347 -1.35295 0
M  V30 53057 H 5253.36 3.84754 -0.451987 0
M  V30 53058 H 5253.77 4.59045 -2.53729 0
M  V30 53059 H 5255.25 5.42073 -1.04217 0
M  V30 53060 H 5255.72 4.38183 0.298697 0
M  V30 53061 H 5256.33 4.03718 -1.3376 0
M  V30 53062 N 5254.65 0.78854 1.36454 0
M  V30 53063 C 5255.89 0.359819 1.98871 0
M  V30 53064 C 5256.21 -1.07192 1.62896 0
M  V30 53065 O 5255.48 -1.73872 0.902524 0
M  V30 53066 H 5254.06 0.130055 0.735591 0
M  V30 53067 H 5256.73 1.01039 1.66665 0
M  V30 53068 H 5255.82 0.450944 3.08825 0
M  V30 53069 N 5256.12 -1.48042 0.540482 0
M  V30 53070 C 5257.05 -2.32598 -0.205097 0
M  V30 53071 C 5258.03 -1.42751 -0.92499 0
M  V30 53072 O 5259.22 -1.71627 -0.908724 0
M  V30 53073 C 5256.35 -3.24179 -1.24601 0
M  V30 53074 C 5255.3 -4.23133 -0.643612 0
M  V30 53075 C 5254.63 -5.03921 -1.78794 0
M  V30 53076 C 5255.93 -5.2083 0.391623 0
M  V30 53077 H 5257.62 -2.95182 0.500779 0
M  V30 53078 H 5255.17 -1.41947 0.242275 0
M  V30 53079 H 5257.12 -3.82164 -1.77563 0
M  V30 53080 H 5255.85 -2.59615 -1.9816 0
M  V30 53081 H 5254.51 -3.6635 -0.135425 0
M  V30 53082 H 5254.15 -4.35774 -2.51217 0
M  V30 53083 H 5253.85 -5.70905 -1.39074 0
M  V30 53084 H 5255.38 -5.64761 -2.32114 0
M  V30 53085 H 5256.79 -5.73277 -0.0513049 0
M  V30 53086 H 5255.19 -5.95923 0.706779 0
M  V30 53087 H 5256.26 -4.67326 1.29362 0
M  V30 53088 N 5257.6 -0.276112 -1.55162 0
M  V30 53089 C 5258.85 0.341028 -1.98796 0
M  V30 53090 C 5259.16 1.56901 -1.16796 0
M  V30 53091 O 5260.37 2.25917 -1.50579 0
M  V30 53092 C 5258.83 0.658106 -3.53832 0
M  V30 53093 C 5258.43 -0.550128 -4.44609 0
M  V30 53094 C 5260.18 1.23782 -4.06052 0
M  V30 53095 C 5258.08 -0.207581 -5.91036 0
M  V30 53096 H 5257.01 0.131198 -0.742498 0
M  V30 53097 H 5259.67 -0.380921 -1.79503 0
M  V30 53098 H 5258.05 1.43898 -3.6893 0
M  V30 53099 H 5259.22 -1.32697 -4.4128 0
M  V30 53100 H 5257.54 -1.04675 -4.03029 0
M  V30 53101 H 5260.13 1.50793 -5.12997 0
M  V30 53102 H 5260.48 2.17202 -3.55147 0
M  V30 53103 H 5261.01 0.519206 -3.94397 0
M  V30 53104 H 5257.75 -1.10968 -6.46039 0
M  V30 53105 H 5257.27 0.532477 -5.97432 0
M  V30 53106 H 5258.95 0.199845 -6.46691 0
M  V30 53107 N 5259.08 1.576 -0.00340966 0
M  V30 53108 C 5260.33 1.90715 0.680724 0
M  V30 53109 C 5260.65 0.877324 1.73589 0
M  V30 53110 O 5259.91 -0.117428 1.95347 0
M  V30 53111 C 5260.21 3.30585 1.35825 0
M  V30 53112 C 5259.87 4.48788 0.435954 0
M  V30 53113 C 5258.54 4.80856 0.182026 0
M  V30 53114 C 5260.89 5.2082 -0.19886 0
M  V30 53115 C 5258.22 5.82328 -0.714952 0
M  V30 53116 C 5260.57 6.23248 -1.08373 0
M  V30 53117 C 5259.23 6.53772 -1.34681 0
M  V30 53118 H 5258.5 0.697877 0.249094 0
M  V30 53119 H 5261.15 1.91407 -0.0596684 0
M  V30 53120 H 5259.45 3.26033 2.17277 0
M  V30 53121 H 5261.15 3.53468 1.8937 0
M  V30 53122 H 5257.74 4.23734 0.644037 0
M  V30 53123 H 5261.93 4.96298 -0.0157004 0
M  V30 53124 H 5257.18 6.04336 -0.926742 0
M  V30 53125 H 5261.36 6.78194 -1.58196 0
M  V30 53126 H 5258.98 7.32218 -2.04354 0
M  V30 53127 N 5260.56 -0.269396 1.5528 0
M  V30 53128 C 5261.51 -1.33546 1.84795 0
M  V30 53129 C 5262.49 -1.44529 0.707118 0
M  V30 53130 O 5263.68 -1.48149 0.968545 0
M  V30 53131 C 5260.81 -2.69508 2.1265 0
M  V30 53132 C 5259.9 -2.62622 3.33003 0
M  V30 53133 N 5260.29 -2.25355 4.52823 0
M  V30 53134 C 5258.59 -2.93676 3.35664 0
M  V30 53135 C 5259.29 -2.28548 5.34921 0
M  V30 53136 N 5258.26 -2.67165 4.73417 0
M  V30 53137 H 5262.07 -1.03748 2.74979 0
M  V30 53138 H 5259.58 -0.478032 1.55205 0
M  V30 53139 H 5261.58 -3.46415 2.31953 0
M  V30 53140 H 5260.24 -3.00192 1.23752 0
M  V30 53141 H 5261.25 -1.97273 4.78857 0
M  V30 53142 H 5257.93 -3.29048 2.5697 0
M  V30 53143 H 5259.32 -2.02267 6.40732 0
M  V30 53144 N 5262.04 -1.48275 -0.534071 0
M  V30 53145 C 5262.97 -1.65386 -1.64833 0
M  V30 53146 C 5263.95 -0.502798 -1.62499 0
M  V30 53147 O 5265.13 -0.734862 -1.79759 0
M  V30 53148 C 5262.26 -1.68959 -3.0343 0
M  V30 53149 C 5261.22 -2.83525 -3.20621 0
M  V30 53150 C 5260.54 -2.72185 -4.60238 0
M  V30 53151 C 5261.84 -4.24869 -3.03782 0
M  V30 53152 H 5263.54 -2.58668 -1.50768 0
M  V30 53153 H 5261.08 -1.24482 -0.723894 0
M  V30 53154 H 5263.03 -1.79519 -3.81249 0
M  V30 53155 H 5261.76 -0.722527 -3.18508 0
M  V30 53156 H 5260.42 -2.72514 -2.45218 0
M  V30 53157 H 5260.07 -1.73456 -4.72146 0
M  V30 53158 H 5259.77 -3.49058 -4.72686 0
M  V30 53159 H 5261.29 -2.84706 -5.40162 0
M  V30 53160 H 5262.7 -4.36734 -3.71397 0
M  V30 53161 H 5261.1 -5.02708 -3.27726 0
M  V30 53162 H 5262.17 -4.41618 -2.00254 0
M  V30 53163 N 5263.51 0.782628 -1.36794 0
M  V30 53164 C 5264.76 1.53774 -1.31141 0
M  V30 53165 C 5265.08 1.94707 0.106945 0
M  V30 53166 O 5264.35 1.65468 1.04867 0
M  V30 53167 H 5262.93 0.570311 -0.482446 0
M  V30 53168 H 5265.6 0.93212 -1.71165 0
M  V30 53169 H 5264.69 2.44218 -1.9433 0
M  V30 53170 N 5264.99 1.21185 1.00757 0
M  V30 53171 C 5265.92 0.926596 2.09635 0
M  V30 53172 C 5266.94 -0.0891939 1.62555 0
M  V30 53173 O 5268.13 0.142977 1.77926 0
M  V30 53174 C 5265.23 0.369294 3.36882 0
M  V30 53175 C 5264.4 1.4388 4.13058 0
M  V30 53176 C 5263.46 0.891198 5.18598 0
M  V30 53177 O 5262.48 1.57403 5.47004 0
M  V30 53178 N 5263.69 -0.294853 5.79751 0
M  V30 53179 H 5266.45 1.86388 2.34691 0
M  V30 53180 H 5264.01 1.11675 1.17219 0
M  V30 53181 H 5266 -0.0113918 4.04698 0
M  V30 53182 H 5264.57 -0.472752 3.09005 0
M  V30 53183 H 5263.79 1.99344 3.40082 0
M  V30 53184 H 5265.08 2.15882 4.6073 0
M  V30 53185 H 5264.48 -0.866704 5.59021 0
M  V30 53186 H 5263.04 -0.617078 6.48872 0
M  V30 53187 N 5266.47 -1.20209 1.01919 0
M  V30 53188 C 5267.43 -2.21304 0.596405 0
M  V30 53189 C 5268.43 -1.57275 -0.334824 0
M  V30 53190 O 5269.62 -1.73764 -0.123159 0
M  V30 53191 C 5266.76 -3.40657 -0.128688 0
M  V30 53192 H 5267.95 -2.60223 1.49077 0
M  V30 53193 H 5265.5 -1.33718 0.809273 0
M  V30 53194 H 5266.24 -3.07244 -1.03785 0
M  V30 53195 H 5266.02 -3.88359 0.54032 0
M  V30 53196 H 5267.51 -4.15565 -0.411746 0
M  V30 53197 N 5267.95 -0.795765 -1.36034 0
M  V30 53198 C 5269.36 -0.478199 -1.52268 0
M  V30 53199 C 5269.56 1.00244 -1.74795 0
M  V30 53200 O 5268.62 1.78777 -1.78311 0
M  V30 53201 C 5269.93 -1.31416 -2.70463 0
M  V30 53202 C 5271.48 -1.3085 -2.84337 0
M  V30 53203 C 5271.96 -2.12833 -4.05544 0
M  V30 53204 N 5273.45 -2.10313 -4.12702 0
M  V30 53205 C 5274.18 -2.70513 -5.05579 0
M  V30 53206 N 5273.68 -3.39598 -6.03859 0
M  V30 53207 N 5275.47 -2.60213 -4.98243 0
M  V30 53208 H 5267.62 -1.75481 -1.19667 0
M  V30 53209 H 5269.89 -0.74629 -0.584598 0
M  V30 53210 H 5269.59 -2.36444 -2.60359 0
M  V30 53211 H 5269.47 -0.959854 -3.64783 0
M  V30 53212 H 5271.85 -0.266107 -2.93898 0
M  V30 53213 H 5271.93 -1.70261 -1.90906 0
M  V30 53214 H 5271.58 -3.17107 -3.96744 0
M  V30 53215 H 5271.51 -1.70789 -4.98135 0
M  V30 53216 H 5274 -1.60038 -3.42339 0
M  V30 53217 H 5274.31 -3.82847 -6.71303 0
M  V30 53218 H 5272.66 -3.43701 -6.04065 0
M  V30 53219 H 5275.85 -2.05838 -4.20415 0
M  V30 53220 H 5276.02 -3.0742 -5.70436 0
M  V30 53221 N 5269.43 1.47754 -0.548326 0
M  V30 53222 C 5270.65 2.06884 -0.02556 0
M  V30 53223 C 5271.07 1.40229 1.26417 0
M  V30 53224 O 5270.43 0.495837 1.75635 0
M  V30 53225 C 5270.48 3.61036 0.183007 0
M  V30 53226 O 5270.2 4.25191 -1.05564 0
M  V30 53227 C 5271.7 4.37011 0.744068 0
M  V30 53228 H 5268.92 0.669696 -0.0418125 0
M  V30 53229 H 5271.46 1.89885 -0.759205 0
M  V30 53230 H 5269.62 3.77579 0.866753 0
M  V30 53231 H 5270.03 5.17603 -0.847811 0
M  V30 53232 H 5271.51 5.45581 0.839337 0
M  V30 53233 H 5271.98 4.02686 1.75329 0
M  V30 53234 H 5272.59 4.25191 0.0963047 0
M  V30 53235 N 5270.9 0.284337 1.55014 0
M  V30 53236 C 5272.32 -0.211616 1.85497 0
M  V30 53237 C 5272.67 -1.54731 1.20635 0
M  V30 53238 O 5271.79 -2.10592 0.497992 0
M  V30 53239 C 5272.39 -0.390746 3.36539 0
M  V30 53240 C 5270.95 -0.830926 3.67114 0
M  V30 53241 C 5270.09 0.0704556 2.7721 0
M  V30 53242 H 5273.04 0.505856 1.50422 0
M  V30 53243 H 5273.06 -1.22791 3.60143 0
M  V30 53244 H 5272.58 0.581544 3.83718 0
M  V30 53245 H 5270.68 -1.81436 3.25441 0
M  V30 53246 H 5270.79 -0.661859 4.74506 0
M  V30 53247 H 5269.15 -0.44744 2.50739 0
M  V30 53248 H 5269.94 1.0388 3.27206 0
M  V30 53249 N 5272.38 -1.57596 0.0117675 0
M  V30 53250 C 5273.79 -1.79035 -0.529458 0
M  V30 53251 C 5274.14 -0.92036 -1.73274 0
M  V30 53252 O 5273.27 -0.12601 -2.16033 0
M  V30 53253 C 5273.86 -3.24698 -0.967291 0
M  V30 53254 C 5272.42 -3.47193 -1.45374 0
M  V30 53255 C 5271.57 -2.74247 -0.41037 0
M  V30 53256 H 5274.52 -1.56907 0.237891 0
M  V30 53257 H 5274.54 -3.33457 -1.83267 0
M  V30 53258 H 5274.05 -3.87993 -0.0913241 0
M  V30 53259 H 5272.16 -2.89129 -2.35021 0
M  V30 53260 H 5272.27 -4.55891 -1.47309 0
M  V30 53261 H 5270.63 -2.39212 -0.874636 0
M  V30 53262 H 5271.42 -3.40247 0.456832 0
M  V30 53263 N 5273.86 0.261157 -1.55421 0
M  V30 53264 C 5275.09 1.00763 -1.80362 0
M  V30 53265 C 5275.5 1.79989 -0.583149 0
M  V30 53266 O 5274.84 1.77913 0.457472 0
M  V30 53267 C 5274.9 2.00453 -2.98427 0
M  V30 53268 C 5274.57 1.40054 -4.3501 0
M  V30 53269 C 5275.56 0.810208 -5.13548 0
M  V30 53270 C 5273.25 1.42419 -4.81687 0
M  V30 53271 C 5275.24 0.25156 -6.36903 0
M  V30 53272 C 5272.93 0.861684 -6.04994 0
M  V30 53273 C 5273.93 0.276382 -6.82441 0
M  V30 53274 O 5273.62 -0.277476 -8.03421 0
M  V30 53275 H 5273.35 0.302818 -0.604382 0
M  V30 53276 H 5275.9 0.293692 -2.03289 0
M  V30 53277 H 5274.13 2.75638 -2.7122 0
M  V30 53278 H 5275.82 2.61326 -3.10586 0
M  V30 53279 H 5276.59 0.784551 -4.78612 0
M  V30 53280 H 5272.47 1.86915 -4.21407 0
M  V30 53281 H 5276.01 -0.205923 -6.97296 0
M  V30 53282 H 5271.91 0.884621 -6.3941 0
M  V30 53283 H 5272.68 -0.16797 -8.18328 0
M  V30 53284 N 5275.34 1.48556 0.526201 0
M  V30 53285 C 5276.27 1.66257 1.63953 0
M  V30 53286 C 5277.25 0.511408 1.6223 0
M  V30 53287 O 5278.43 0.744385 1.79367 0
M  V30 53288 C 5275.56 1.70566 3.0253 0
M  V30 53289 C 5274.52 2.85221 3.19113 0
M  V30 53290 C 5273.84 2.74622 4.58788 0
M  V30 53291 C 5275.14 4.26474 3.01525 0
M  V30 53292 H 5276.84 2.59464 1.49394 0
M  V30 53293 H 5274.38 1.24864 0.717282 0
M  V30 53294 H 5276.34 1.81538 3.80292 0
M  V30 53295 H 5275.06 0.739408 3.1812 0
M  V30 53296 H 5273.72 2.73811 2.43769 0
M  V30 53297 H 5273.37 1.75958 4.71219 0
M  V30 53298 H 5273.07 3.5156 4.70828 0
M  V30 53299 H 5274.59 2.87567 5.38644 0
M  V30 53300 H 5276.01 4.38698 3.69076 0
M  V30 53301 H 5274.4 5.04439 3.25055 0
M  V30 53302 H 5275.47 4.42674 1.97909 0
M  V30 53303 N 5276.82 -0.775363 1.37207 0
M  V30 53304 C 5277.75 -1.89756 1.28551 0
M  V30 53305 C 5278.76 -1.61541 0.202053 0
M  V30 53306 O 5279.95 -1.72527 0.457909 0
M  V30 53307 C 5277.05 -3.249 0.963999 0
M  V30 53308 C 5276.22 -3.80788 2.15219 0
M  V30 53309 C 5275.28 -4.944 1.80152 0
M  V30 53310 O 5274.31 -5.10177 2.52406 0
M  V30 53311 N 5275.51 -5.75719 0.7435 0
M  V30 53312 H 5278.28 -1.977 2.25244 0
M  V30 53313 H 5275.84 -0.954302 1.30785 0
M  V30 53314 H 5277.83 -3.98418 0.710322 0
M  V30 53315 H 5276.4 -3.12482 0.0857419 0
M  V30 53316 H 5275.62 -2.99092 2.56783 0
M  V30 53317 H 5276.91 -4.14859 2.94566 0
M  V30 53318 H 5276.3 -5.65517 0.143854 0
M  V30 53319 H 5274.86 -6.49478 0.549675 0
M  V30 53320 N 5278.3 -1.21718 -1.00112 0
M  V30 53321 C 5279.23 -1.00404 -2.10811 0
M  V30 53322 C 5280.21 0.0722905 -1.69946 0
M  V30 53323 O 5281.39 -0.088308 -1.93999 0
M  V30 53324 C 5278.52 -0.572121 -3.42555 0
M  V30 53325 C 5277.48 -1.59345 -3.97232 0
M  V30 53326 C 5276.8 -1.01764 -5.24927 0
M  V30 53327 C 5278.1 -2.98133 -4.28852 0
M  V30 53328 H 5279.8 -1.92991 -2.289 0
M  V30 53329 H 5277.34 -0.929312 -1.09999 0
M  V30 53330 H 5279.29 -0.410166 -4.19399 0
M  V30 53331 H 5278.02 0.389396 -3.2427 0
M  V30 53332 H 5276.68 -1.74304 -3.22511 0
M  V30 53333 H 5276.33 -0.0477259 -5.02977 0
M  V30 53334 H 5276.03 -1.69989 -5.62475 0
M  V30 53335 H 5277.55 -0.867093 -6.04412 0
M  V30 53336 H 5278.96 -2.86595 -4.96524 0
M  V30 53337 H 5277.36 -3.63406 -4.77552 0
M  V30 53338 H 5278.43 -3.48686 -3.36966 0
M  V30 53339 N 5279.77 1.19667 -1.02555 0
M  V30 53340 C 5280.71 2.22213 -0.561596 0
M  V30 53341 C 5281.72 1.58752 0.360765 0
M  V30 53342 O 5282.91 1.77802 0.157687 0
M  V30 53343 C 5280.01 3.38301 0.201375 0
M  V30 53344 C 5279.18 4.31348 -0.725104 0
M  V30 53345 C 5278.24 5.26199 -0.00812832 0
M  V30 53346 O 5277.27 5.65663 -0.633597 0
M  V30 53347 N 5278.47 5.66577 1.26374 0
M  V30 53348 H 5281.23 2.62645 -1.44353 0
M  V30 53349 H 5278.79 1.343 -0.904169 0
M  V30 53350 H 5280.79 3.98766 0.690485 0
M  V30 53351 H 5279.36 2.96686 0.984686 0
M  V30 53352 H 5278.58 3.68716 -1.39436 0
M  V30 53353 H 5279.86 4.90428 -1.3549 0
M  V30 53354 H 5279.26 5.36544 1.79268 0
M  V30 53355 H 5277.82 6.2931 1.69741 0
M  V30 53356 N 5281.25 0.802969 1.3561 0
M  V30 53357 C 5282.5 0.382211 1.99166 0
M  V30 53358 C 5282.83 -1.04698 1.6356 0
M  V30 53359 O 5282.11 -1.72575 0.897121 0
M  V30 53360 C 5282.39 0.561618 3.55693 0
M  V30 53361 C 5282.24 2.03548 4.01109 0
M  V30 53362 C 5283.56 -0.0149588 4.40097 0
M  V30 53363 H 5280.68 0.140348 0.723513 0
M  V30 53364 H 5283.32 1.01183 1.60817 0
M  V30 53365 H 5281.47 0.0256449 3.88492 0
M  V30 53366 H 5283.14 2.63356 3.78736 0
M  V30 53367 H 5281.39 2.53323 3.52151 0
M  V30 53368 H 5282.06 2.11191 5.10002 0
M  V30 53369 H 5284.53 0.442727 4.13738 0
M  V30 53370 H 5283.41 0.140509 5.4872 0
M  V30 53371 H 5283.67 -1.10833 4.27982 0
M  V30 53372 N 5282.73 -1.47461 0.556154 0
M  V30 53373 C 5283.96 -2.06868 0.0365312 0
M  V30 53374 C 5284.37 -1.40897 -1.25672 0
M  V30 53375 O 5283.73 -0.505145 -1.7537 0
M  V30 53376 C 5283.78 -3.61128 -0.163857 0
M  V30 53377 O 5283.5 -4.24626 1.07818 0
M  V30 53378 C 5285 -4.37399 -0.720882 0
M  V30 53379 H 5282.22 -0.669465 0.0453635 0
M  V30 53380 H 5284.77 -1.8948 0.769264 0
M  V30 53381 H 5282.92 -3.78034 -0.846717 0
M  V30 53382 H 5283.34 -5.17146 0.875249 0
M  V30 53383 H 5284.81 -5.46019 -0.810392 0
M  V30 53384 H 5285.29 -4.0361 -1.73191 0
M  V30 53385 H 5285.89 -4.25236 -0.0737545 0
M  V30 53386 N 5284.21 -0.292554 -1.54861 0
M  V30 53387 C 5285.12 0.596956 -2.26878 0
M  V30 53388 C 5286.13 1.15553 -1.3009 0
M  V30 53389 O 5287.31 1.18212 -1.63058 0
M  V30 53390 C 5284.37 1.75653 -2.9891 0
M  V30 53391 C 5283.44 1.23288 -4.11216 0
M  V30 53392 C 5282.67 2.33719 -4.79803 0
M  V30 53393 O 5282.89 3.53444 -4.47698 0
M  V30 53394 O 5281.83 2.00888 -5.67387 0
M  V30 53395 H 5285.65 0.0130174 -3.03697 0
M  V30 53396 H 5283.24 -0.0593167 -1.49282 0
M  V30 53397 H 5285.12 2.43229 -3.44119 0
M  V30 53398 H 5283.79 2.32723 -2.24992 0
M  V30 53399 H 5282.7 0.523091 -3.70425 0
M  V30 53400 H 5284.03 0.707716 -4.87085 0
M  V30 53401 N 5285.69 1.57587 -0.020125 0
M  V30 53402 C 5286.63 2.09671 0.964717 0
M  V30 53403 C 5287.6 0.996687 1.32873 0
M  V30 53404 O 5288.79 1.27035 1.42362 0
M  V30 53405 C 5285.93 2.62108 2.24484 0
M  V30 53406 C 5285.04 3.86086 1.93807 0
M  V30 53407 C 5284.18 4.2695 3.16049 0
M  V30 53408 C 5283.21 5.4371 2.8115 0
M  V30 53409 N 5282.35 5.79773 3.95989 0
M  V30 53410 H 5287.19 2.9354 0.513647 0
M  V30 53411 H 5284.73 1.45097 0.241949 0
M  V30 53412 H 5286.69 2.90597 2.99348 0
M  V30 53413 H 5285.32 1.81084 2.67224 0
M  V30 53414 H 5284.37 3.64382 1.09224 0
M  V30 53415 H 5285.68 4.71034 1.64098 0
M  V30 53416 H 5284.83 4.56828 3.99241 0
M  V30 53417 H 5283.57 3.40752 3.48912 0
M  V30 53418 H 5282.58 5.13536 1.96369 0
M  V30 53419 H 5283.8 6.31601 2.49513 0
M  V30 53420 H 5281.75 4.96531 4.28711 0
M  V30 53421 H 5281.67 6.5934 3.69873 0
M  V30 53422 H 5282.93 6.14252 4.79911 0
M  V30 53423 N 5287.16 -0.252911 1.55557 0
M  V30 53424 C 5288.1 -1.33578 1.86251 0
M  V30 53425 C 5289.11 -1.44581 0.748341 0
M  V30 53426 O 5290.3 -1.46038 1.0264 0
M  V30 53427 C 5287.4 -2.71501 2.0283 0
M  V30 53428 C 5286.57 -2.82841 3.33646 0
M  V30 53429 C 5285.63 -4.0157 3.40042 0
M  V30 53430 O 5284.66 -3.9138 4.13292 0
M  V30 53431 N 5285.86 -5.14465 2.68898 0
M  V30 53432 H 5288.62 -1.07586 2.79724 0
M  V30 53433 H 5286.18 -0.44302 1.55721 0
M  V30 53434 H 5288.18 -3.49255 2.04458 0
M  V30 53435 H 5286.75 -2.90228 1.1613 0
M  V30 53436 H 5285.97 -1.91811 3.44387 0
M  V30 53437 H 5287.25 -2.87363 4.19881 0
M  V30 53438 H 5286.65 -5.25634 2.09106 0
M  V30 53439 H 5285.21 -5.90375 2.76225 0
M  V30 53440 N 5288.64 -1.48833 -0.518315 0
M  V30 53441 C 5289.89 -1.57677 -1.27538 0
M  V30 53442 C 5290.22 -0.254982 -1.92519 0
M  V30 53443 O 5289.5 0.740044 -1.79871 0
M  V30 53444 C 5289.78 -2.72353 -2.35575 0
M  V30 53445 C 5289.63 -4.14273 -1.75209 0
M  V30 53446 C 5290.95 -2.82738 -3.37264 0
M  V30 53447 H 5288.07 -0.573943 -0.462341 0
M  V30 53448 H 5290.71 -1.81052 -0.576204 0
M  V30 53449 H 5288.86 -2.52553 -2.95211 0
M  V30 53450 H 5290.53 -4.45544 -1.19535 0
M  V30 53451 H 5288.78 -4.20728 -1.05691 0
M  V30 53452 H 5289.45 -4.90354 -2.5349 0
M  V30 53453 H 5291.92 -3.00709 -2.87599 0
M  V30 53454 H 5290.8 -3.64684 -4.1024 0
M  V30 53455 H 5291.06 -1.91374 -3.98533 0
M  V30 53456 N 5290.12 0.768075 -1.37617 0
M  V30 53457 C 5291.05 1.89533 -1.36381 0
M  V30 53458 C 5292.03 1.68512 -0.231863 0
M  V30 53459 O 5293.22 1.89316 -0.432772 0
M  V30 53460 C 5290.35 3.26867 -1.17369 0
M  V30 53461 C 5289.3 3.62458 -2.27614 0
M  V30 53462 C 5288.63 4.98373 -1.93722 0
M  V30 53463 C 5289.93 3.68828 -3.69815 0
M  V30 53464 H 5291.62 1.90824 -2.30709 0
M  V30 53465 H 5289.17 0.916681 -1.11054 0
M  V30 53466 H 5291.12 4.05367 -1.15133 0
M  V30 53467 H 5289.84 3.26017 -0.19498 0
M  V30 53468 H 5288.5 2.86268 -2.29012 0
M  V30 53469 H 5288.15 4.94068 -0.943713 0
M  V30 53470 H 5287.85 5.23156 -2.67548 0
M  V30 53471 H 5289.37 5.79269 -1.9308 0
M  V30 53472 H 5290.79 4.37472 -3.70528 0
M  V30 53473 H 5289.18 4.0511 -4.42725 0
M  V30 53474 H 5290.25 2.69401 -4.03176 0
M  V30 53475 N 5291.6 1.22247 0.994655 0
M  V30 53476 C 5292.53 1.01521 2.10276 0
M  V30 53477 C 5293.51 -0.0632768 1.69982 0
M  V30 53478 O 5294.69 0.098595 1.9395 0
M  V30 53479 C 5291.82 0.59028 3.42247 0
M  V30 53480 C 5290.78 1.6145 3.96381 0
M  V30 53481 C 5290.1 1.04547 5.2438 0
M  V30 53482 C 5291.4 3.00403 4.27265 0
M  V30 53483 H 5293.1 1.94202 2.27873 0
M  V30 53484 H 5290.64 0.935132 1.09505 0
M  V30 53485 H 5292.6 0.432402 4.19176 0
M  V30 53486 H 5291.32 -0.372194 3.24472 0
M  V30 53487 H 5289.98 1.76012 3.21583 0
M  V30 53488 H 5289.63 0.0743994 5.02945 0
M  V30 53489 H 5289.33 1.72969 5.61565 0
M  V30 53490 H 5290.85 0.899134 6.03944 0
M  V30 53491 H 5292.27 2.89224 4.94997 0
M  V30 53492 H 5290.66 3.65933 4.75619 0
M  V30 53493 H 5291.73 3.50468 3.35113 0
M  V30 53494 N 5293.08 -1.19122 1.03188 0
M  V30 53495 C 5294.49 -1.40907 0.749496 0
M  V30 53496 C 5294.69 -1.90222 -0.664662 0
M  V30 53497 O 5293.75 -2.0809 -1.4302 0
M  V30 53498 C 5295.06 -2.41755 1.78816 0
M  V30 53499 C 5296.61 -2.55497 1.80805 0
M  V30 53500 C 5297.08 -3.59602 2.83638 0
M  V30 53501 N 5298.58 -3.671 2.82474 0
M  V30 53502 C 5299.31 -4.47353 3.58696 0
M  V30 53503 N 5298.81 -5.31287 4.44642 0
M  V30 53504 N 5300.6 -4.42032 3.47224 0
M  V30 53505 H 5292.75 -0.854331 1.94461 0
M  V30 53506 H 5295.01 -0.437723 0.840894 0
M  V30 53507 H 5294.72 -2.12549 2.80206 0
M  V30 53508 H 5294.59 -3.40975 1.61295 0
M  V30 53509 H 5296.98 -2.84024 0.800903 0
M  V30 53510 H 5297.06 -1.5642 2.02401 0
M  V30 53511 H 5296.71 -3.31816 3.84526 0
M  V30 53512 H 5296.64 -4.58336 2.59299 0
M  V30 53513 H 5299.13 -3.07158 2.20141 0
M  V30 53514 H 5299.44 -5.8965 4.99533 0
M  V30 53515 H 5297.78 -5.30737 4.48713 0
M  V30 53516 H 5300.98 -3.75504 2.7949 0
M  V30 53517 H 5301.15 -5.04336 4.06877 0
M  V30 53518 N 5294.55 -0.810149 -1.35183 0
M  V30 53519 C 5295.52 -0.2286 -2.28057 0
M  V30 53520 C 5296.52 0.586116 -1.49738 0
M  V30 53521 O 5297.71 0.40408 -1.69449 0
M  V30 53522 C 5294.84 0.680924 -3.3403 0
M  V30 53523 H 5296.03 -1.04778 -2.81001 0
M  V30 53524 H 5293.59 -0.581061 -1.45098 0
M  V30 53525 H 5294.32 1.52365 -2.86278 0
M  V30 53526 H 5294.11 0.0983898 -3.91977 0
M  V30 53527 H 5295.6 1.08202 -4.03339 0
M  V30 53528 N 5296.03 1.47164 -0.563966 0
M  V30 53529 C 5297.31 1.95586 0.0235484 0
M  V30 53530 C 5297.69 1.50661 1.47867 0
M  V30 53531 O 5297.04 0.748555 2.15891 0
M  V30 53532 C 5297.25 3.48762 -0.128963 0
M  V30 53533 C 5298.6 4.24598 0.0129051 0
M  V30 53534 O 5299.62 3.56155 -0.0568494 0
M  V30 53535 O 5298.48 5.46253 0.16414 0
M  V30 53536 H 5295.57 0.824795 0.0603499 0
M  V30 53537 H 5298.12 1.57534 -0.630966 0
M  V30 53538 H 5296.89 3.74287 -1.14126 0
M  V30 53539 H 5296.51 3.93596 0.562851 0
M  V30 53540 N 5297.51 0.300763 1.54704 0
M  V30 53541 C 5298.79 -0.361689 1.92227 0
M  V30 53542 C 5299.17 -1.7171 1.22796 0
M  V30 53543 O 5298.52 -2.25588 0.363621 0
M  V30 53544 C 5298.73 -0.476577 3.45731 0
M  V30 53545 C 5300.07 -0.747553 4.17967 0
M  V30 53546 O 5301.1 -0.560398 3.51764 0
M  V30 53547 O 5299.96 -1.10705 5.3517 0
M  V30 53548 H 5297.05 -0.202185 0.801904 0
M  V30 53549 H 5299.6 0.348804 1.66077 0
M  V30 53550 H 5298.37 0.476269 3.88391 0
M  V30 53551 H 5297.99 -1.23555 3.77915 0
M  V30 53552 N 5298.99 -1.57574 0.028482 0
M  V30 53553 C 5300.24 -1.91396 -0.649012 0
M  V30 53554 C 5300.56 -0.905429 -1.72705 0
M  V30 53555 O 5299.83 0.0531419 -1.95828 0
M  V30 53556 H 5298.41 -0.706469 -0.242715 0
M  V30 53557 H 5301.07 -1.94751 0.0761345 0
M  V30 53558 H 5300.17 -2.91991 -1.10215 0
M  V30 53559 N 5300.47 0.244658 -1.55689 0
M  V30 53560 C 5301.43 1.28634 -1.897 0
M  V30 53561 C 5302.43 1.40967 -0.773633 0
M  V30 53562 O 5303.62 1.39629 -1.04161 0
M  V30 53563 C 5300.75 2.66372 -2.12742 0
M  V30 53564 H 5301.94 0.996933 -2.82845 0
M  V30 53565 H 5299.5 0.484051 -1.48616 0
M  V30 53566 H 5300.23 3.00448 -1.22072 0
M  V30 53567 H 5300.02 2.58801 -2.94558 0
M  V30 53568 H 5301.51 3.41584 -2.4023 0
M  V30 53569 N 5301.94 1.49106 0.510415 0
M  V30 53570 C 5303.19 1.57804 1.26262 0
M  V30 53571 C 5303.51 0.262417 1.93226 0
M  V30 53572 O 5302.78 -0.71756 1.82285 0
M  V30 53573 H 5301.36 0.581403 0.469019 0
M  V30 53574 H 5304.03 1.8568 0.592358 0
M  V30 53575 H 5303.12 2.36926 2.03156 0
M  V30 53576 N 5303.42 -0.760766 1.38022 0
M  V30 53577 C 5304.33 -1.90521 1.3689 0
M  V30 53578 C 5305.35 -1.7194 0.266968 0
M  V30 53579 O 5306.52 -1.94987 0.504199 0
M  V30 53580 C 5303.59 -3.25795 1.1857 0
M  V30 53581 C 5302.65 -3.56952 2.38503 0
M  V30 53582 C 5301.88 -4.85772 2.21046 0
M  V30 53583 O 5302.11 -5.57625 1.20043 0
M  V30 53584 O 5301.04 -5.16243 3.09478 0
M  V30 53585 H 5304.87 -1.94429 2.33305 0
M  V30 53586 H 5302.45 -0.905049 1.18866 0
M  V30 53587 H 5304.33 -4.06686 1.10384 0
M  V30 53588 H 5303.01 -3.22715 0.252355 0
M  V30 53589 H 5301.92 -2.76251 2.52262 0
M  V30 53590 H 5303.25 -3.64786 3.30442 0
M  V30 53591 N 5304.9 -1.22773 -0.988158 0
M  V30 53592 C 5306.15 -1.05515 -1.72838 0
M  V30 53593 C 5306.48 0.409078 -1.90149 0
M  V30 53594 O 5305.73 1.31944 -1.44531 0
M  V30 53595 C 5306.03 -1.7169 -3.1346 0
M  V30 53596 C 5305.7 -3.21595 -3.1605 0
M  V30 53597 C 5304.36 -3.62497 -3.16464 0
M  V30 53598 C 5306.71 -4.17522 -3.11969 0
M  V30 53599 C 5304.04 -4.978 -3.10504 0
M  V30 53600 C 5306.39 -5.52807 -3.07551 0
M  V30 53601 C 5305.05 -5.93083 -3.06283 0
M  V30 53602 H 5304.32 -0.386107 -0.632457 0
M  V30 53603 H 5306.97 -1.526 -1.15695 0
M  V30 53604 H 5305.28 -1.16943 -3.73941 0
M  V30 53605 H 5306.97 -1.55822 -3.69487 0
M  V30 53606 H 5303.56 -2.8903 -3.1648 0
M  V30 53607 H 5307.75 -3.86937 -3.10795 0
M  V30 53608 H 5303 -5.28229 -3.0787 0
M  V30 53609 H 5307.18 -6.26859 -3.0335 0
M  V30 53610 H 5304.8 -6.9789 -3.01419 0
M  V30 53611 N 5306.38 1.18573 -1.03818 0
M  V30 53612 C 5307.6 1.92976 -0.759941 0
M  V30 53613 C 5308.03 1.75517 0.676424 0
M  V30 53614 O 5307.39 1.06364 1.46821 0
M  V30 53615 C 5307.43 3.42503 -1.128 0
M  V30 53616 O 5306.54 4.11629 -0.252031 0
M  V30 53617 H 5305.88 0.602119 -0.279908 0
M  V30 53618 H 5308.41 1.50378 -1.38736 0
M  V30 53619 H 5308.42 3.93202 -1.08886 0
M  V30 53620 H 5307.1 3.54532 -2.17439 0
M  V30 53621 H 5305.67 3.71248 -0.350572 0
M  V30 53622 N 5307.86 0.817307 1.34751 0
M  V30 53623 C 5309.09 0.415522 2.02685 0
M  V30 53624 C 5309.5 -0.976823 1.61566 0
M  V30 53625 O 5308.86 -1.63122 0.818378 0
M  V30 53626 C 5308.91 0.501612 3.58003 0
M  V30 53627 O 5308.63 1.83907 3.9763 0
M  V30 53628 C 5310.13 0.0940062 4.432 0
M  V30 53629 H 5307.35 0.167443 0.649772 0
M  V30 53630 H 5309.89 1.1039 1.72146 0
M  V30 53631 H 5308.05 -0.13863 3.87152 0
M  V30 53632 H 5308.46 1.80937 4.92303 0
M  V30 53633 H 5309.94 0.205338 5.51618 0
M  V30 53634 H 5310.41 -0.961861 4.28538 0
M  V30 53635 H 5311.02 0.707825 4.19368 0
M  V30 53636 N 5309.34 -1.46863 0.571763 0
M  V30 53637 C 5310.56 -2.07323 0.0565383 0
M  V30 53638 C 5310.99 -1.41942 -1.23426 0
M  V30 53639 O 5310.34 -0.499395 -1.74286 0
M  V30 53640 C 5310.39 -3.60441 -0.107213 0
M  V30 53641 O 5309.5 -3.95563 -1.16636 0
M  V30 53642 H 5308.84 -0.661473 0.0578697 0
M  V30 53643 H 5311.37 -1.88666 0.791591 0
M  V30 53644 H 5311.38 -4.06768 -0.316844 0
M  V30 53645 H 5310.05 -4.07422 0.835492 0
M  V30 53646 H 5308.63 -3.6096 -0.936062 0
M  V30 53647 N 5310.81 -0.308963 -1.54542 0
M  V30 53648 C 5312.06 0.298407 -2.00593 0
M  V30 53649 C 5312.39 1.52925 -1.19698 0
M  V30 53650 O 5311.67 1.92539 -0.275487 0
M  V30 53651 C 5311.95 0.647094 -3.54238 0
M  V30 53652 C 5311.8 -0.593441 -4.45868 0
M  V30 53653 C 5313.12 1.4705 -4.14806 0
M  V30 53654 H 5310.24 0.106987 -0.729193 0
M  V30 53655 H 5312.88 -0.422643 -1.8524 0
M  V30 53656 H 5311.03 1.26141 -3.67452 0
M  V30 53657 H 5312.71 -1.23186 -4.44548 0
M  V30 53658 H 5310.95 -1.22516 -4.1614 0
M  V30 53659 H 5311.62 -0.305212 -5.51156 0
M  V30 53660 H 5314.1 0.951368 -4.05078 0
M  V30 53661 H 5312.97 1.68325 -5.22454 0
M  V30 53662 H 5313.23 2.46217 -3.67192 0
M  V30 53663 N 5312.29 1.57557 -0.0368381 0
M  V30 53664 C 5313.52 1.96421 0.650099 0
M  V30 53665 C 5313.93 0.913714 1.65217 0
M  V30 53666 O 5313.29 -0.103654 1.82205 0
M  V30 53667 C 5313.34 3.35359 1.34968 0
M  V30 53668 O 5313.06 4.36381 0.387751 0
M  V30 53669 C 5314.56 3.889 2.12772 0
M  V30 53670 H 5311.78 0.646758 0.178733 0
M  V30 53671 H 5314.33 2.04261 -0.0988915 0
M  V30 53672 H 5312.48 3.28715 2.05001 0
M  V30 53673 H 5312.9 5.16973 0.885415 0
M  V30 53674 H 5314.37 4.88437 2.57163 0
M  V30 53675 H 5314.85 3.23557 2.96997 0
M  V30 53676 H 5315.45 3.98837 1.4768 0
M  V30 53677 N 5313.77 -0.236398 1.55817 0
M  V30 53678 C 5315.19 -0.585413 1.48476 0
M  V30 53679 C 5315.39 -1.87847 0.729086 0
M  V30 53680 O 5314.44 -2.5113 0.262703 0
M  V30 53681 C 5315.75 -0.678403 2.92947 0
M  V30 53682 C 5317.3 -0.770028 3.0338 0
M  V30 53683 C 5317.78 -0.894491 4.4918 0
M  V30 53684 N 5319.27 -0.959094 4.53162 0
M  V30 53685 C 5320 -1.07485 5.63236 0
M  V30 53686 N 5319.5 -1.15548 6.83096 0
M  V30 53687 N 5321.29 -1.10883 5.51055 0
M  V30 53688 H 5313.44 0.612312 2.03383 0
M  V30 53689 H 5315.71 0.212829 0.923801 0
M  V30 53690 H 5315.41 0.20188 3.5112 0
M  V30 53691 H 5315.29 -1.54691 3.44021 0
M  V30 53692 H 5317.67 -1.64076 2.45282 0
M  V30 53693 H 5317.75 0.123843 2.555 0
M  V30 53694 H 5317.4 -0.0282752 5.07892 0
M  V30 53695 H 5317.33 -1.80356 4.94752 0
M  V30 53696 H 5319.82 -0.907698 3.66837 0
M  V30 53697 H 5320.13 -1.24317 7.62735 0
M  V30 53698 H 5318.48 -1.12487 6.85836 0
M  V30 53699 H 5321.67 -1.04239 4.56346 0
M  V30 53700 H 5321.84 -1.19559 6.36875 0
M  V30 53701 N 5315.25 -1.49374 -0.5025 0
M  V30 53702 C 5316.66 -1.52004 -1.08405 0
M  V30 53703 C 5317.01 -0.305386 -1.93809 0
M  V30 53704 O 5316.13 0.58495 -2.08344 0
M  V30 53705 C 5316.73 -2.75444 -1.97271 0
M  V30 53706 C 5315.29 -2.80857 -2.50592 0
M  V30 53707 C 5314.44 -2.45898 -1.28177 0
M  V30 53708 H 5317.39 -1.56093 -0.286478 0
M  V30 53709 H 5317.41 -2.55521 -2.81938 0
M  V30 53710 H 5316.92 -3.63832 -1.35086 0
M  V30 53711 H 5315.02 -1.96746 -3.1642 0
M  V30 53712 H 5315.13 -3.8299 -2.87847 0
M  V30 53713 H 5313.5 -1.97645 -1.6065 0
M  V30 53714 H 5314.28 -3.36558 -0.67702 0
M  V30 53715 N 5316.73 0.753436 -1.38424 0
M  V30 53716 C 5317.95 1.54778 -1.38052 0
M  V30 53717 C 5318.38 1.8808 0.027571 0
M  V30 53718 O 5317.73 1.50583 1.00967 0
M  V30 53719 C 5317.78 2.82345 -2.24307 0
M  V30 53720 O 5316.89 3.77503 -1.66027 0
M  V30 53721 H 5316.23 0.468135 -0.470899 0
M  V30 53722 H 5318.76 0.93108 -1.82187 0
M  V30 53723 H 5318.77 3.31268 -2.38171 0
M  V30 53724 H 5317.44 2.57437 -3.26648 0
M  V30 53725 H 5316.02 3.36207 -1.61306 0
M  V30 53726 N 5318.2 1.23295 0.981634 0
M  V30 53727 C 5319.45 1.06588 1.72531 0
M  V30 53728 C 5319.78 -0.396472 1.9011 0
M  V30 53729 O 5319.06 -1.29358 1.45247 0
M  V30 53730 C 5319.34 1.79051 3.1243 0
M  V30 53731 C 5319.19 3.32951 3.02429 0
M  V30 53732 C 5320.51 1.552 4.11826 0
M  V30 53733 H 5317.63 0.388607 0.626222 0
M  V30 53734 H 5320.27 1.51783 1.14288 0
M  V30 53735 H 5318.42 1.40632 3.62153 0
M  V30 53736 H 5320.1 3.80884 2.6024 0
M  V30 53737 H 5318.34 3.62048 2.38964 0
M  V30 53738 H 5319.01 3.78841 4.01477 0
M  V30 53739 H 5321.49 1.88594 3.70906 0
M  V30 53740 H 5320.36 2.0838 5.07808 0
M  V30 53741 H 5320.62 0.48708 4.39409 0
M  V30 53742 N 5319.68 -1.1802 1.04446 0
M  V30 53743 C 5320.61 -2.23985 0.659761 0
M  V30 53744 C 5321.59 -1.66691 -0.338846 0
M  V30 53745 O 5322.78 -1.92971 -0.218102 0
M  V30 53746 C 5319.91 -3.4729 0.0258893 0
M  V30 53747 C 5318.86 -4.17359 0.948446 0
M  V30 53748 C 5318.19 -5.34401 0.178848 0
M  V30 53749 C 5319.49 -4.70427 2.26926 0
M  V30 53750 H 5321.18 -2.56419 1.54562 0
M  V30 53751 H 5318.73 -1.23254 0.744618 0
M  V30 53752 H 5320.68 -4.20628 -0.254983 0
M  V30 53753 H 5319.4 -3.14101 -0.894871 0
M  V30 53754 H 5318.06 -3.45924 1.21376 0
M  V30 53755 H 5317.71 -4.97461 -0.744439 0
M  V30 53756 H 5317.41 -5.82218 0.793499 0
M  V30 53757 H 5318.94 -6.10526 -0.0949168 0
M  V30 53758 H 5320.35 -5.3544 2.04882 0
M  V30 53759 H 5318.75 -5.28793 2.83721 0
M  V30 53760 H 5319.82 -3.87642 2.9131 0
M  V30 53761 N 5321.16 -0.824441 -1.34316 0
M  V30 53762 C 5322.4 -0.419114 -2.00057 0
M  V30 53763 C 5322.76 0.999446 -1.63936 0
M  V30 53764 O 5323.97 1.50774 -2.22533 0
M  V30 53765 C 5322.24 -0.617021 -3.52034 0
M  V30 53766 S 5323.8 -0.304768 -4.3774 0
M  V30 53767 H 5320.61 -0.15829 -0.693156 0
M  V30 53768 H 5323.22 -1.07059 -1.63581 0
M  V30 53769 H 5321.92 -1.6491 -3.7581 0
M  V30 53770 H 5321.45 0.049131 -3.93369 0
M  V30 53771 H 5323.47 0.880968 -4.88317 0
M  V30 53772 N 5322.64 1.46557 -0.579543 0
M  V30 53773 C 5323.92 1.956 0.0028026 0
M  V30 53774 C 5324.3 1.52221 1.4626 0
M  V30 53775 O 5323.64 0.771411 2.15085 0
M  V30 53776 C 5323.85 3.48605 -0.165947 0
M  V30 53777 C 5325.2 4.24588 -0.0321299 0
M  V30 53778 O 5326.23 3.56074 -0.0946212 0
M  V30 53779 O 5325.08 5.46397 0.106194 0
M  V30 53780 H 5322.18 0.825389 0.0515984 0
M  V30 53781 H 5324.72 1.56856 -0.647639 0
M  V30 53782 H 5323.5 3.73056 -1.1809 0
M  V30 53783 H 5323.12 3.94171 0.521074 0
M  V30 53784 N 5324.12 0.317154 1.54376 0
M  V30 53785 C 5325.36 -0.286772 2.00055 0
M  V30 53786 C 5325.69 -1.53157 1.20697 0
M  V30 53787 O 5324.96 -1.93478 0.307113 0
M  V30 53788 H 5323.54 -0.108953 0.739012 0
M  V30 53789 H 5326.2 0.432219 1.90047 0
M  V30 53790 H 5325.29 -0.547621 3.07258 0
M  V30 53791 N 5325.59 -1.57535 0.0451932 0
M  V30 53792 C 5326.53 -2.08113 -0.960299 0
M  V30 53793 C 5327.54 -1.00774 -1.27861 0
M  V30 53794 O 5328.73 -1.28356 -1.24045 0
M  V30 53795 C 5325.83 -2.50422 -2.28346 0
M  V30 53796 C 5325 -3.81027 -2.14795 0
M  V30 53797 C 5324.06 -4.09714 -3.30183 0
M  V30 53798 O 5323.09 -4.79725 -3.06353 0
M  V30 53799 N 5324.29 -3.61154 -4.54476 0
M  V30 53800 H 5327.05 -2.95001 -0.528648 0
M  V30 53801 H 5324.61 -1.61283 -0.141192 0
M  V30 53802 H 5326.61 -2.66694 -3.04396 0
M  V30 53803 H 5325.18 -1.68814 -2.63098 0
M  V30 53804 H 5324.4 -3.74396 -1.23373 0
M  V30 53805 H 5325.68 -4.66566 -2.02962 0
M  V30 53806 H 5325.08 -3.04544 -4.76728 0
M  V30 53807 H 5323.64 -3.82674 -5.2764 0
M  V30 53808 N 5327.07 0.228132 -1.5594 0
M  V30 53809 C 5328.32 0.950541 -1.79823 0
M  V30 53810 C 5328.67 1.82234 -0.617144 0
M  V30 53811 O 5327.97 1.87609 0.389036 0
M  V30 53812 C 5328.16 1.82913 -3.07047 0
M  V30 53813 C 5327.99 1.04388 -4.37417 0
M  V30 53814 C 5326.76 0.741438 -4.99831 0
M  V30 53815 C 5328.96 0.412354 -5.12644 0
M  V30 53816 N 5326.94 -0.065908 -6.13865 0
M  V30 53817 C 5328.31 -0.258689 -6.1946 0
M  V30 53818 C 5330.37 0.324718 -4.9684 0
M  V30 53819 C 5329.07 -1.00898 -7.12188 0
M  V30 53820 C 5331.09 -0.412085 -5.89963 0
M  V30 53821 C 5330.46 -1.0717 -6.962 0
M  V30 53822 H 5326.56 0.328311 -0.709743 0
M  V30 53823 H 5329.14 0.221988 -1.9343 0
M  V30 53824 H 5327.31 2.52955 -2.94734 0
M  V30 53825 H 5329.04 2.48852 -3.19147 0
M  V30 53826 H 5325.8 1.05785 -4.61635 0
M  V30 53827 H 5326.22 -0.458223 -6.75447 0
M  V30 53828 H 5330.86 0.820339 -4.14765 0
M  V30 53829 H 5328.58 -1.51614 -7.9375 0
M  V30 53830 H 5332.17 -0.48081 -5.7981 0
M  V30 53831 H 5331.05 -1.63272 -7.67015 0
M  V30 53832 N 5328.55 1.49639 0.494571 0
M  V30 53833 C 5329.5 1.63174 1.59243 0
M  V30 53834 C 5330.48 0.487143 1.53348 0
M  V30 53835 O 5331.68 0.740417 1.6077 0
M  V30 53836 C 5328.81 1.70754 2.97822 0
M  V30 53837 C 5327.89 2.90813 3.08689 0
M  V30 53838 N 5328.28 4.14807 2.89428 0
M  V30 53839 C 5326.58 2.88883 3.39798 0
M  V30 53840 C 5327.28 4.95546 3.04646 0
M  V30 53841 N 5326.26 4.29037 3.33809 0
M  V30 53842 H 5330.06 2.56756 1.43015 0
M  V30 53843 H 5327.57 1.46499 0.700833 0
M  V30 53844 H 5329.57 1.7855 3.7673 0
M  V30 53845 H 5328.23 0.783134 3.15114 0
M  V30 53846 H 5329.24 4.44684 2.65474 0
M  V30 53847 H 5325.92 2.05847 3.63226 0
M  V30 53848 H 5327.31 6.0407 2.94192 0
M  V30 53849 N 5330.03 -0.746085 1.38821 0
M  V30 53850 C 5331.44 -1.05016 1.20183 0
M  V30 53851 C 5331.64 -2.01423 0.0556979 0
M  V30 53852 O 5330.7 -2.45361 -0.596163 0
M  V30 53853 C 5332.01 -1.62306 2.53135 0
M  V30 53854 C 5333.56 -1.7444 2.59884 0
M  V30 53855 C 5334.04 -2.35141 3.9303 0
M  V30 53856 N 5335.53 -2.42563 3.9461 0
M  V30 53857 C 5336.26 -2.90442 4.944 0
M  V30 53858 N 5335.76 -3.38301 6.04586 0
M  V30 53859 N 5337.55 -2.89551 4.81785 0
M  V30 53860 H 5329.7 -0.106476 2.12133 0
M  V30 53861 H 5331.97 -0.109864 0.941612 0
M  V30 53862 H 5331.67 -0.989341 3.37498 0
M  V30 53863 H 5331.55 -2.61266 2.72066 0
M  V30 53864 H 5333.93 -2.36937 1.75912 0
M  V30 53865 H 5334.01 -0.741635 2.44813 0
M  V30 53866 H 5333.66 -1.73275 4.77429 0
M  V30 53867 H 5333.59 -3.36073 4.05416 0
M  V30 53868 H 5336.08 -2.08724 3.15028 0
M  V30 53869 H 5336.39 -3.73312 6.76652 0
M  V30 53870 H 5334.74 -3.36338 6.08195 0
M  V30 53871 H 5337.93 -2.51478 3.94812 0
M  V30 53872 H 5338.1 -3.26551 5.59704 0
M  V30 53873 N 5331.51 -1.23814 -0.975081 0
M  V30 53874 C 5332.44 -1.04853 -2.08634 0
M  V30 53875 C 5333.42 0.0362261 -1.70061 0
M  V30 53876 O 5334.6 -0.129438 -1.93768 0
M  V30 53877 C 5331.73 -0.644654 -3.41265 0
M  V30 53878 C 5330.69 -1.67735 -3.93762 0
M  V30 53879 C 5330.01 -1.12876 -5.2265 0
M  V30 53880 C 5331.31 -3.07162 -4.22432 0
M  V30 53881 H 5333.01 -1.97802 -2.24754 0
M  V30 53882 H 5330.55 -0.952435 -1.08003 0
M  V30 53883 H 5332.51 -0.499034 -4.18435 0
M  V30 53884 H 5331.23 0.320526 -3.25023 0
M  V30 53885 H 5329.89 -1.81106 -3.18742 0
M  V30 53886 H 5329.54 -0.154404 -5.02763 0
M  V30 53887 H 5329.24 -1.81881 -5.58742 0
M  V30 53888 H 5330.76 -0.995103 -6.02437 0
M  V30 53889 H 5332.17 -2.97063 -4.90333 0
M  V30 53890 H 5330.57 -3.73453 -4.69737 0
M  V30 53891 H 5331.64 -3.55755 -3.29495 0
M  V30 53892 N 5332.98 1.17465 -1.0507 0
M  V30 53893 C 5333.95 2.19645 -0.654871 0
M  V30 53894 C 5334.95 1.58108 0.293007 0
M  V30 53895 O 5336.14 1.7403 0.0770448 0
M  V30 53896 C 5333.27 3.40878 0.0383239 0
M  V30 53897 H 5334.46 2.56179 -1.55924 0
M  V30 53898 H 5332.02 1.31525 -0.844442 0
M  V30 53899 H 5332.75 3.09888 0.956024 0
M  V30 53900 H 5332.54 3.8679 -0.643097 0
M  V30 53901 H 5334.03 4.16511 0.301421 0
M  V30 53902 N 5334.46 0.831553 1.33877 0
M  V30 53903 C 5335.71 0.424371 1.9831 0
M  V30 53904 C 5336.04 -1.01205 1.65744 0
M  V30 53905 O 5335.32 -1.70633 0.933524 0
M  V30 53906 C 5335.6 0.63694 3.54422 0
M  V30 53907 C 5335.45 2.12011 3.96701 0
M  V30 53908 C 5336.77 0.0783958 4.4003 0
M  V30 53909 H 5333.89 0.155663 0.720374 0
M  V30 53910 H 5336.53 1.04571 1.58634 0
M  V30 53911 H 5334.68 0.108044 3.8835 0
M  V30 53912 H 5336.35 2.7133 3.73065 0
M  V30 53913 H 5334.6 2.60735 3.46698 0
M  V30 53914 H 5335.27 2.21962 5.05408 0
M  V30 53915 H 5337.74 0.530388 4.12706 0
M  V30 53916 H 5336.62 0.256869 5.48299 0
M  V30 53917 H 5336.88 -1.0173 4.30237 0
M  V30 53918 N 5335.94 -1.46248 0.587307 0
M  V30 53919 C 5336.87 -2.27393 -0.191757 0
M  V30 53920 C 5337.85 -1.35908 -0.892623 0
M  V30 53921 O 5339.04 -1.65322 -0.905585 0
M  V30 53922 C 5336.16 -3.13763 -1.27556 0
M  V30 53923 C 5335.21 -4.21044 -0.680038 0
M  V30 53924 S 5336.04 -5.33192 0.496607 0
M  V30 53925 C 5337.2 -6.23129 -0.588287 0
M  V30 53926 H 5337.43 -2.93121 0.496738 0
M  V30 53927 H 5334.96 -1.49794 0.374313 0
M  V30 53928 H 5336.92 -3.64087 -1.89608 0
M  V30 53929 H 5335.58 -2.47339 -1.93603 0
M  V30 53930 H 5334.78 -4.81321 -1.49486 0
M  V30 53931 H 5334.38 -3.73756 -0.135095 0
M  V30 53932 H 5336.67 -6.61299 -1.47275 0
M  V30 53933 H 5337.61 -7.08097 -0.0221603 0
M  V30 53934 H 5338.02 -5.57368 -0.8945 0
M  V30 53935 N 5337.42 -0.325336 -1.54205 0
M  V30 53936 C 5338.37 0.53981 -2.24399 0
M  V30 53937 C 5339.34 1.11023 -1.23544 0
M  V30 53938 O 5340.52 1.15025 -1.5223 0
M  V30 53939 C 5337.66 1.69395 -3.00665 0
M  V30 53940 C 5336.77 1.15258 -4.16341 0
M  V30 53941 C 5335.91 2.27255 -4.80134 0
M  V30 53942 C 5334.95 1.70377 -5.8791 0
M  V30 53943 N 5334.09 2.76042 -6.45558 0
M  V30 53944 H 5338.93 -0.0653366 -2.97928 0
M  V30 53945 H 5336.46 -0.0440157 -1.47034 0
M  V30 53946 H 5338.42 2.37313 -3.4313 0
M  V30 53947 H 5337.05 2.27035 -2.29466 0
M  V30 53948 H 5336.1 0.364901 -3.78646 0
M  V30 53949 H 5337.41 0.696403 -4.93915 0
M  V30 53950 H 5336.57 3.03074 -5.25577 0
M  V30 53951 H 5335.31 2.7621 -4.01944 0
M  V30 53952 H 5334.31 0.930561 -5.41868 0
M  V30 53953 H 5335.54 1.22296 -6.67997 0
M  V30 53954 H 5333.48 3.24286 -5.70241 0
M  V30 53955 H 5333.4 2.34993 -7.1855 0
M  V30 53956 H 5334.67 3.51685 -6.95656 0
M  V30 53957 N 5338.9 1.57509 -0.0535471 0
M  V30 53958 C 5340.12 1.97513 0.632725 0
M  V30 53959 C 5340.55 0.931004 1.63444 0
M  V30 53960 O 5339.91 -0.105494 1.80993 0
M  V30 53961 C 5339.95 3.36585 1.29395 0
M  V30 53962 O 5339.06 3.34678 2.40965 0
M  V30 53963 H 5338.4 0.643355 0.164287 0
M  V30 53964 H 5340.93 2.04232 -0.122652 0
M  V30 53965 H 5340.94 3.73365 1.64508 0
M  V30 53966 H 5339.61 4.12115 0.559831 0
M  V30 53967 H 5338.19 3.09647 2.07782 0
M  V30 53968 N 5340.38 -0.219858 1.56059 0
M  V30 53969 C 5341.62 -0.942137 1.78797 0
M  V30 53970 C 5341.94 -1.84802 0.622349 0
M  V30 53971 O 5341.21 -1.92551 -0.360668 0
M  V30 53972 H 5339.79 -0.350872 0.659468 0
M  V30 53973 H 5342.46 -0.231308 1.93523 0
M  V30 53974 H 5341.55 -1.54795 2.71007 0
M  V30 53975 N 5341.85 -1.49899 -0.486629 0
M  V30 53976 C 5342.8 -1.68131 -1.60732 0
M  V30 53977 C 5343.8 -0.547153 -1.6032 0
M  V30 53978 O 5345 -0.727211 -1.64656 0
M  V30 53979 H 5341.38 -0.53041 -0.533075 0
M  V30 53980 H 5343.35 -2.6217 -1.42511 0
M  V30 53981 C 5342.1 -1.77837 -2.98779 0
M  V30 53982 H 5341.42 -2.6449 -2.99808 0
M  V30 53983 H 5342.86 -1.94625 -3.76693 0
M  V30 53984 C 5341.32 -0.526404 -3.32762 0
M  V30 53985 O 5341.85 0.341466 -4.00246 0
M  V30 53986 N 5340.05 -0.385049 -2.88038 0
M  V30 53987 H 5339.6 -1.0923 -2.33295 0
M  V30 53988 H 5339.56 0.451509 -3.11141 0
M  V30 53989 N 5343.33 0.738712 -1.39215 0
M  V30 53990 C 5344.58 1.50042 -1.36438 0
M  V30 53991 C 5344.91 1.94157 0.0408792 0
M  V30 53992 O 5344.19 1.66518 1.00508 0
M  V30 53993 C 5344.47 2.74268 -2.33343 0
M  V30 53994 C 5344.32 2.36196 -3.82794 0
M  V30 53995 C 5345.64 3.76353 -2.28136 0
M  V30 53996 H 5342.76 0.544277 -0.496922 0
M  V30 53997 H 5345.4 0.844945 -1.70178 0
M  V30 53998 H 5343.55 3.30197 -2.047 0
M  V30 53999 H 5345.22 1.85927 -4.22171 0
M  V30 54000 H 5343.47 1.68469 -3.99751 0
M  V30 54001 H 5344.14 3.2514 -4.46081 0
M  V30 54002 H 5346.61 3.3 -2.53454 0
M  V30 54003 H 5345.49 4.60946 -2.98026 0
M  V30 54004 H 5345.75 4.23009 -1.28514 0
M  V30 54005 N 5344.81 1.24329 0.968501 0
M  V30 54006 C 5345.74 1.05958 2.08075 0
M  V30 54007 C 5346.72 -0.0272068 1.70078 0
M  V30 54008 O 5347.91 0.139712 1.93697 0
M  V30 54009 C 5345.04 0.662743 3.40918 0
M  V30 54010 C 5343.99 1.69821 3.92867 0
M  V30 54011 C 5343.32 1.15646 5.22044 0
M  V30 54012 C 5344.62 3.09398 4.20797 0
M  V30 54013 H 5346.31 1.98992 2.23702 0
M  V30 54014 H 5343.86 0.958149 1.07497 0
M  V30 54015 H 5345.81 0.521218 4.18164 0
M  V30 54016 H 5344.53 -0.303285 3.25189 0
M  V30 54017 H 5343.19 1.82794 3.17777 0
M  V30 54018 H 5342.84 0.181065 5.02674 0
M  V30 54019 H 5342.54 1.84842 5.5777 0
M  V30 54020 H 5344.06 1.02704 6.01901 0
M  V30 54021 H 5345.48 2.99659 4.88751 0
M  V30 54022 H 5343.87 3.75939 4.6775 0
M  V30 54023 H 5344.94 3.57497 3.27603 0
M  V30 54024 N 5346.29 -1.16906 1.05692 0
M  V30 54025 C 5347.7 -1.39285 0.779216 0
M  V30 54026 C 5347.9 -1.91589 -0.624163 0
M  V30 54027 O 5346.96 -2.11077 -1.38574 0
M  V30 54028 C 5348.27 -2.37908 1.83903 0
M  V30 54029 C 5349.82 -2.51604 1.86184 0
M  V30 54030 C 5350.3 -3.53504 2.91202 0
M  V30 54031 N 5351.79 -3.61026 2.90197 0
M  V30 54032 C 5352.52 -4.39644 3.68104 0
M  V30 54033 N 5352.02 -5.21736 4.55811 0
M  V30 54034 N 5353.81 -4.34567 3.56522 0
M  V30 54035 H 5345.96 -0.812891 1.96229 0
M  V30 54036 H 5348.22 -0.419788 0.849989 0
M  V30 54037 H 5347.93 -2.06558 2.84652 0
M  V30 54038 H 5347.8 -3.37477 1.68491 0
M  V30 54039 H 5350.19 -2.82261 0.860969 0
M  V30 54040 H 5350.27 -1.52092 2.05674 0
M  V30 54041 H 5349.92 -3.23585 3.91478 0
M  V30 54042 H 5349.85 -4.52732 2.68963 0
M  V30 54043 H 5352.34 -3.0242 2.26607 0
M  V30 54044 H 5352.65 -5.78921 5.11928 0
M  V30 54045 H 5351 -5.211 4.5987 0
M  V30 54046 H 5354.19 -3.69491 2.87392 0
M  V30 54047 H 5354.36 -4.95592 4.17483 0
M  V30 54048 N 5347.77 -0.838641 -1.33434 0
M  V30 54049 C 5348.7 -0.286753 -2.31733 0
M  V30 54050 C 5349.68 0.605395 -1.58962 0
M  V30 54051 O 5350.86 0.528994 -1.86856 0
M  V30 54052 C 5347.99 0.53919 -3.43089 0
M  V30 54053 C 5346.95 -0.257147 -4.27227 0
M  V30 54054 C 5346.27 0.692531 -5.30196 0
M  V30 54055 C 5347.57 -1.47409 -5.01067 0
M  V30 54056 H 5349.27 -1.10808 -2.7814 0
M  V30 54057 H 5346.81 -0.534282 -1.33721 0
M  V30 54058 H 5348.76 0.93558 -4.10883 0
M  V30 54059 H 5347.49 1.39373 -2.95369 0
M  V30 54060 H 5346.15 -0.635094 -3.61057 0
M  V30 54061 H 5345.8 1.54346 -4.78734 0
M  V30 54062 H 5345.5 0.163817 -5.87372 0
M  V30 54063 H 5347.02 1.08644 -6.00857 0
M  V30 54064 H 5348.43 -1.15087 -5.6163 0
M  V30 54065 H 5346.83 -1.93957 -5.67891 0
M  V30 54066 H 5347.9 -2.24397 -4.29853 0
M  V30 54067 N 5349.24 1.45934 -0.595055 0
M  V30 54068 C 5350.15 2.34221 0.133243 0
M  V30 54069 C 5351.17 1.50494 0.873354 0
M  V30 54070 O 5352.35 1.83331 0.833764 0
M  V30 54071 C 5349.41 3.279 1.12617 0
M  V30 54072 C 5348.47 4.2753 0.389381 0
M  V30 54073 C 5347.7 5.16733 1.335 0
M  V30 54074 O 5347.93 5.09111 2.5722 0
M  V30 54075 O 5346.86 5.96026 0.838875 0
M  V30 54076 H 5350.69 2.97875 -0.591966 0
M  V30 54077 H 5348.27 1.45112 -0.35538 0
M  V30 54078 H 5350.15 3.8566 1.69837 0
M  V30 54079 H 5348.83 2.66827 1.83262 0
M  V30 54080 H 5347.74 3.73423 -0.224974 0
M  V30 54081 H 5349.07 4.91424 -0.276342 0
M  V30 54082 N 5350.72 0.33351 1.54031 0
M  V30 54083 C 5351.97 -0.266457 2.01042 0
M  V30 54084 C 5352.3 -1.51001 1.22116 0
M  V30 54085 O 5351.58 -1.92076 0.306084 0
M  V30 54086 C 5351.86 -0.590655 3.55223 0
M  V30 54087 C 5351.71 0.6643 4.44868 0
M  V30 54088 C 5353.03 -1.40432 4.17093 0
M  V30 54089 H 5350.15 -0.0953723 0.730803 0
M  V30 54090 H 5352.79 0.45206 1.84544 0
M  V30 54091 H 5350.94 -1.20279 3.69412 0
M  V30 54092 H 5352.61 1.30242 4.42532 0
M  V30 54093 H 5350.86 1.29121 4.14138 0
M  V30 54094 H 5351.53 0.392857 5.506 0
M  V30 54095 H 5354 -0.886803 4.0654 0
M  V30 54096 H 5352.88 -1.59991 5.25066 0
M  V30 54097 H 5353.14 -2.40344 3.71062 0
M  V30 54098 N 5352.2 -1.57478 0.0618994 0
M  V30 54099 C 5353.48 -1.84487 -0.649928 0
M  V30 54100 C 5353.86 -0.952433 -1.88393 0
M  V30 54101 O 5353.21 -0.0161838 -2.28494 0
M  V30 54102 C 5353.42 -3.34456 -0.997016 0
M  V30 54103 C 5354.76 -4.01729 -1.37474 0
M  V30 54104 O 5355.79 -3.39144 -1.08904 0
M  V30 54105 O 5354.65 -5.12098 -1.90836 0
M  V30 54106 H 5351.74 -0.76181 -0.321831 0
M  V30 54107 H 5354.29 -1.6945 0.0920787 0
M  V30 54108 H 5353.06 -3.91115 -0.120164 0
M  V30 54109 H 5352.68 -3.54719 -1.79611 0
M  V30 54110 N 5353.68 0.211579 -1.56173 0
M  V30 54111 C 5354.64 1.24581 -1.92386 0
M  V30 54112 C 5355.64 1.39294 -0.80336 0
M  V30 54113 O 5356.83 1.37388 -1.07099 0
M  V30 54114 C 5353.96 2.61799 -2.18344 0
M  V30 54115 H 5355.16 0.936713 -2.84896 0
M  V30 54116 H 5352.71 0.452418 -1.49609 0
M  V30 54117 H 5353.44 2.97791 -1.28418 0
M  V30 54118 H 5353.23 2.52495 -2.99981 0
M  V30 54119 H 5354.72 3.36411 -2.47421 0
M  V30 54120 N 5355.16 1.50155 0.478672 0
M  V30 54121 C 5356.09 1.64609 1.59489 0
M  V30 54122 C 5357.1 0.527843 1.54005 0
M  V30 54123 O 5358.29 0.800746 1.59532 0
M  V30 54124 C 5355.39 1.60748 2.98351 0
M  V30 54125 C 5354.56 2.88479 3.28783 0
M  V30 54126 C 5353.62 2.77365 4.47163 0
M  V30 54127 O 5352.65 3.51318 4.47844 0
M  V30 54128 N 5353.85 1.90409 5.48384 0
M  V30 54129 H 5356.62 2.60886 1.47509 0
M  V30 54130 H 5354.18 1.47524 0.666959 0
M  V30 54131 H 5356.17 1.50936 3.755 0
M  V30 54132 H 5354.74 0.72238 3.04139 0
M  V30 54133 H 5353.96 3.12475 2.40318 0
M  V30 54134 H 5355.25 3.73114 3.45924 0
M  V30 54135 H 5354.64 1.29625 5.50649 0
M  V30 54136 H 5353.2 1.86506 6.24547 0
M  V30 54137 N 5356.63 -0.731319 1.39605 0
M  V30 54138 C 5357.86 -1.52562 1.40497 0
M  V30 54139 C 5358.28 -1.881 0.0023544 0
M  V30 54140 O 5357.64 -1.5217 -0.98559 0
M  V30 54141 C 5357.69 -2.78741 2.2877 0
M  V30 54142 O 5356.79 -3.74814 1.72012 0
M  V30 54143 H 5356.14 -0.460584 0.478287 0
M  V30 54144 H 5358.67 -0.901978 1.83645 0
M  V30 54145 H 5358.68 -3.27437 2.43411 0
M  V30 54146 H 5357.35 -2.52208 3.30702 0
M  V30 54147 H 5355.93 -3.33598 1.66634 0
M  V30 54148 N 5358.11 -1.24841 -0.961894 0
M  V30 54149 C 5359.06 -1.04367 -2.07871 0
M  V30 54150 C 5360.05 0.0231935 -1.69384 0
M  V30 54151 O 5361.26 -0.131836 -1.79517 0
M  V30 54152 H 5357.64 -0.320516 -0.680275 0
M  V30 54153 H 5359.61 -1.99062 -2.22299 0
M  V30 54154 C 5358.36 -0.671366 -3.41157 0
M  V30 54155 H 5357.68 -1.48408 -3.71234 0
M  V30 54156 H 5359.12 -0.567755 -4.20182 0
M  V30 54157 C 5357.58 0.622007 -3.31108 0
M  V30 54158 O 5358.11 1.66614 -3.65517 0
M  V30 54159 N 5356.31 0.604909 -2.84234 0
M  V30 54160 H 5355.86 -0.245142 -2.56431 0
M  V30 54161 H 5355.82 1.47046 -2.77893 0
M  V30 54162 N 5359.59 1.16344 -1.0631 0
M  V30 54163 C 5360.54 2.18715 -0.644024 0
M  V30 54164 C 5361.52 1.57575 0.32539 0
M  V30 54165 O 5362.72 1.76439 0.140806 0
M  V30 54166 C 5359.85 3.43285 -0.0321473 0
M  V30 54167 C 5358.93 4.11501 -1.02607 0
M  V30 54168 N 5359.32 4.55366 -2.20171 0
M  V30 54169 C 5357.62 4.37688 -0.857041 0
M  V30 54170 C 5358.32 5.08139 -2.83142 0
M  V30 54171 N 5357.3 5.01034 -2.10869 0
M  V30 54172 H 5361.1 2.50347 -1.53959 0
M  V30 54173 H 5358.61 1.32797 -0.93481 0
M  V30 54174 H 5360.61 4.15918 0.285918 0
M  V30 54175 H 5359.27 3.1314 0.858676 0
M  V30 54176 H 5360.28 4.49092 -2.57947 0
M  V30 54177 H 5356.96 4.17496 -0.018221 0
M  V30 54178 H 5358.35 5.52117 -3.82905 0
M  V30 54179 N 5361.07 0.845705 1.32987 0
M  V30 54180 C 5362.3 0.458421 2.01758 0
M  V30 54181 C 5362.71 -0.942333 1.63602 0
M  V30 54182 O 5362.07 -1.6135 0.852794 0
M  V30 54183 C 5362.12 0.577437 3.56858 0
M  V30 54184 O 5361.84 1.923 3.9364 0
M  V30 54185 C 5363.34 0.187994 4.42901 0
M  V30 54186 H 5360.56 0.181188 0.646074 0
M  V30 54187 H 5363.11 1.14017 1.69766 0
M  V30 54188 H 5361.26 -0.0564784 3.87359 0
M  V30 54189 H 5361.67 1.91339 4.88354 0
M  V30 54190 H 5363.15 0.322299 5.51058 0
M  V30 54191 H 5363.63 -0.870745 4.30482 0
M  V30 54192 H 5364.23 0.79662 4.17773 0
M  V30 54193 N 5362.55 -1.45617 0.602786 0
M  V30 54194 C 5363.79 -2.02571 0.0962472 0
M  V30 54195 C 5364.13 -1.47081 -1.2681 0
M  V30 54196 O 5363.4 -0.64363 -1.83542 0
M  V30 54197 C 5363.68 -3.60062 0.0521298 0
M  V30 54198 C 5363.54 -4.25896 1.4468 0
M  V30 54199 C 5364.86 -4.35448 -0.638189 0
M  V30 54200 H 5361.97 -0.736098 0.0364497 0
M  V30 54201 H 5364.62 -1.73527 0.773837 0
M  V30 54202 H 5362.77 -3.84938 -0.524897 0
M  V30 54203 H 5364.44 -4.12221 2.07054 0
M  V30 54204 H 5362.68 -3.84482 2.00888 0
M  V30 54205 H 5363.35 -5.34774 1.36822 0
M  V30 54206 H 5365.83 -4.15837 -0.14778 0
M  V30 54207 H 5364.7 -5.45178 -0.638148 0
M  V30 54208 H 5364.97 -4.07968 -1.70337 0
M  V30 54209 N 5364.02 -0.341674 -1.53852 0
M  V30 54210 C 5365.27 0.254908 -2.00486 0
M  V30 54211 C 5365.59 1.51218 -1.23119 0
M  V30 54212 O 5364.86 1.92965 -0.337855 0
M  V30 54213 H 5363.44 0.0971824 -0.740651 0
M  V30 54214 H 5366.11 -0.462399 -1.89335 0
M  V30 54215 H 5365.2 0.49867 -3.0809 0
M  V30 54216 N 5365.5 1.57443 -0.07025 0
M  V30 54217 C 5366.91 1.80877 0.462645 0
M  V30 54218 C 5367.27 0.984035 1.69739 0
M  V30 54219 O 5366.39 0.206102 2.15416 0
M  V30 54220 C 5366.99 3.28065 0.846115 0
M  V30 54221 C 5365.54 3.5235 1.32388 0
M  V30 54222 C 5364.69 2.75581 0.308302 0
M  V30 54223 H 5367.64 1.55916 -0.295962 0
M  V30 54224 H 5367.66 3.40029 1.70764 0
M  V30 54225 H 5367.18 3.88064 -0.0527398 0
M  V30 54226 H 5365.28 2.97653 2.24129 0
M  V30 54227 H 5365.39 4.61044 1.30287 0
M  V30 54228 H 5363.75 2.42293 0.785252 0
M  V30 54229 H 5364.54 3.38317 -0.582798 0
M  V30 54230 N 5366.98 -0.203294 1.56283 0
M  V30 54231 C 5367.91 -1.25483 1.96917 0
M  V30 54232 C 5368.89 -1.47916 0.839936 0
M  V30 54233 O 5370.08 -1.59791 1.10364 0
M  V30 54234 C 5367.21 -2.60082 2.30162 0
M  V30 54235 C 5366.16 -2.52276 3.45746 0
M  V30 54236 C 5365.49 -3.91073 3.64645 0
M  V30 54237 C 5366.79 -2.05486 4.8018 0
M  V30 54238 H 5368.48 -0.917205 2.85005 0
M  V30 54239 H 5366.03 -0.43977 1.3712 0
M  V30 54240 H 5367.98 -3.3382 2.57181 0
M  V30 54241 H 5366.7 -2.95569 1.38947 0
M  V30 54242 H 5365.36 -1.80995 3.18805 0
M  V30 54243 H 5365.01 -4.23898 2.70775 0
M  V30 54244 H 5364.71 -3.86727 4.42398 0
M  V30 54245 H 5366.24 -4.66445 3.94032 0
M  V30 54246 H 5367.65 -2.68977 5.06285 0
M  V30 54247 H 5366.05 -2.1216 5.61345 0
M  V30 54248 H 5367.12 -1.00776 4.74312 0
M  V30 54249 N 5368.46 -1.50407 -0.470702 0
M  V30 54250 C 5369.39 -1.72228 -1.5767 0
M  V30 54251 C 5370.37 -0.571267 -1.6022 0
M  V30 54252 O 5371.56 -0.810443 -1.76481 0
M  V30 54253 C 5368.69 -1.81677 -2.95991 0
M  V30 54254 C 5367.64 -2.96868 -3.08307 0
M  V30 54255 C 5366.97 -2.91461 -4.4828 0
M  V30 54256 C 5368.27 -4.37371 -2.85489 0
M  V30 54257 H 5369.96 -2.6483 -1.39662 0
M  V30 54258 H 5367.51 -1.2744 -0.670445 0
M  V30 54259 H 5369.46 -1.95527 -3.73292 0
M  V30 54260 H 5368.18 -0.856967 -3.15157 0
M  V30 54261 H 5366.84 -2.82669 -2.33439 0
M  V30 54262 H 5366.49 -1.93326 -4.64364 0
M  V30 54263 H 5366.19 -3.68792 -4.57456 0
M  V30 54264 H 5367.71 -3.0736 -5.276 0
M  V30 54265 H 5369.13 -4.52094 -3.5254 0
M  V30 54266 H 5367.52 -5.16156 -3.06109 0
M  V30 54267 H 5368.59 -4.49714 -1.81343 0
M  V30 54268 N 5369.94 0.723905 -1.39991 0
M  V30 54269 C 5370.9 1.81968 -1.39356 0
M  V30 54270 C 5371.9 1.58186 -0.288757 0
M  V30 54271 O 5373.09 1.65381 -0.547239 0
M  V30 54272 C 5370.22 3.19932 -1.17712 0
M  V30 54273 H 5371.42 1.83931 -2.36874 0
M  V30 54274 H 5368.97 0.928698 -1.25718 0
M  V30 54275 H 5369.7 3.23625 -0.209206 0
M  V30 54276 H 5369.49 3.38593 -1.97731 0
M  V30 54277 H 5370.98 3.99976 -1.20036 0
M  V30 54278 N 5371.42 1.2535 0.95526 0
M  V30 54279 C 5372.38 1.05761 2.0334 0
M  V30 54280 C 5373.38 0.0106308 1.60796 0
M  V30 54281 O 5374.57 0.252759 1.72357 0
M  V30 54282 C 5371.7 0.605654 3.35477 0
M  V30 54283 H 5372.89 2.01467 2.22151 0
M  V30 54284 H 5370.45 1.07748 1.13226 0
M  V30 54285 H 5371.18 -0.354041 3.22362 0
M  V30 54286 H 5370.97 1.36147 3.67704 0
M  V30 54287 H 5372.46 0.490013 4.14715 0
M  V30 54288 N 5372.89 -1.15778 1.06926 0
M  V30 54289 C 5373.86 -2.18576 0.689731 0
M  V30 54290 C 5374.86 -1.58554 -0.267817 0
M  V30 54291 O 5376.05 -1.7413 -0.0493484 0
M  V30 54292 C 5373.18 -3.40896 0.0159118 0
M  V30 54293 H 5374.37 -2.53666 1.5998 0
M  V30 54294 H 5371.92 -1.30165 0.865259 0
M  V30 54295 H 5372.66 -3.1137 -0.906602 0
M  V30 54296 H 5372.44 -3.85718 0.70455 0
M  V30 54297 H 5373.93 -4.16938 -0.23512 0
M  V30 54298 N 5374.37 -0.852746 -1.32537 0
M  V30 54299 C 5375.33 -0.301039 -2.27214 0
M  V30 54300 C 5376.33 0.538181 -1.51526 0
M  V30 54301 O 5377.52 0.349967 -1.70648 0
M  V30 54302 C 5374.66 0.57431 -3.36028 0
M  V30 54303 H 5375.85 -1.13664 -2.77525 0
M  V30 54304 H 5373.4 -0.626929 -1.43176 0
M  V30 54305 H 5374.14 1.4318 -2.90981 0
M  V30 54306 H 5373.92 -0.0263643 -3.92091 0
M  V30 54307 H 5375.41 0.953157 -4.06577 0
M  V30 54308 N 5375.85 1.45295 -0.6105 0
M  V30 54309 C 5377.1 2.01819 -0.106619 0
M  V30 54310 C 5377.42 1.48107 1.26844 0
M  V30 54311 O 5376.69 0.676476 1.83849 0
M  V30 54312 H 5375.27 0.746111 -0.0364244 0
M  V30 54313 H 5377.93 1.78058 -0.792554 0
M  V30 54314 H 5377.03 3.12045 -0.0586097 0
M  V30 54315 N 5377.33 0.349828 1.53668 0
M  V30 54316 C 5378.29 -0.491597 2.23866 0
M  V30 54317 C 5379.29 -1.02251 1.24102 0
M  V30 54318 O 5380.48 -0.910764 1.48495 0
M  V30 54319 C 5377.61 -1.68547 2.96319 0
M  V30 54320 H 5378.81 0.122435 2.9965 0
M  V30 54321 H 5376.36 0.101269 1.55972 0
M  V30 54322 H 5377.09 -2.33802 2.24738 0
M  V30 54323 H 5376.88 -1.3119 3.69502 0
M  V30 54324 H 5378.37 -2.28213 3.49727 0
M  V30 54325 N 5378.81 -1.57404 0.0785986 0
M  V30 54326 C 5380.22 -1.8112 -0.453047 0
M  V30 54327 C 5380.57 -0.993023 -1.69214 0
M  V30 54328 O 5379.69 -0.217524 -2.15304 0
M  V30 54329 C 5380.29 -3.28509 -0.828705 0
M  V30 54330 C 5378.85 -3.53047 -1.30518 0
M  V30 54331 C 5377.99 -2.7574 -0.293683 0
M  V30 54332 H 5380.94 -1.55757 0.304226 0
M  V30 54333 H 5380.97 -3.4093 -1.68959 0
M  V30 54334 H 5380.48 -3.88031 0.073319 0
M  V30 54335 H 5378.58 -2.98837 -2.22547 0
M  V30 54336 H 5378.69 -4.61729 -1.2784 0
M  V30 54337 H 5377.06 -2.42706 -0.772392 0
M  V30 54338 H 5377.84 -3.38003 0.600732 0
M  V30 54339 N 5380.28 0.195003 -1.56389 0
M  V30 54340 C 5381.25 1.22533 -1.93696 0
M  V30 54341 C 5382.25 1.38434 -0.818088 0
M  V30 54342 O 5383.44 1.36244 -1.0855 0
M  V30 54343 C 5380.57 2.59469 -2.21108 0
M  V30 54344 H 5381.76 0.906444 -2.85873 0
M  V30 54345 H 5379.32 0.436525 -1.5008 0
M  V30 54346 H 5380.05 2.96412 -1.31569 0
M  V30 54347 H 5379.84 2.49299 -3.02642 0
M  V30 54348 H 5381.33 3.33768 -2.50976 0
M  V30 54349 N 5381.76 1.50654 0.462719 0
M  V30 54350 C 5383.17 1.54825 1.04337 0
M  V30 54351 C 5383.52 0.356663 1.92931 0
M  V30 54352 O 5382.65 -0.529505 2.09822 0
M  V30 54353 C 5383.24 2.80578 1.89899 0
M  V30 54354 C 5381.8 2.87402 2.43057 0
M  V30 54355 C 5380.95 2.4921 1.21612 0
M  V30 54356 H 5383.9 1.56798 0.244993 0
M  V30 54357 H 5383.92 2.62906 2.75065 0
M  V30 54358 H 5383.43 3.67285 1.25392 0
M  V30 54359 H 5381.54 2.05066 3.11093 0
M  V30 54360 H 5381.65 3.90487 2.77591 0
M  V30 54361 H 5380.01 2.01835 1.55354 0
M  V30 54362 H 5380.8 3.38235 0.58755 0
M  V30 54363 N 5383.24 -0.716471 1.40373 0
M  V30 54364 C 5384.17 -1.8434 1.43321 0
M  V30 54365 C 5385.15 -1.67536 0.294245 0
M  V30 54366 O 5386.34 -1.8758 0.502737 0
M  V30 54367 C 5383.47 -3.22285 1.2942 0
M  V30 54368 C 5382.42 -3.5376 2.4091 0
M  V30 54369 C 5381.75 -4.9084 2.12086 0
M  V30 54370 C 5383.05 -3.54848 3.83249 0
M  V30 54371 H 5384.74 -1.8213 2.37632 0
M  V30 54372 H 5382.29 -0.874833 1.1438 0
M  V30 54373 H 5384.24 -4.00814 1.30099 0
M  V30 54374 H 5382.96 -3.25069 0.315845 0
M  V30 54375 H 5381.62 -2.77571 2.39478 0
M  V30 54376 H 5381.27 -4.90225 1.12643 0
M  V30 54377 H 5380.97 -5.12865 2.8678 0
M  V30 54378 H 5382.49 -5.71704 2.14446 0
M  V30 54379 H 5383.91 -4.23419 3.86509 0
M  V30 54380 H 5382.31 -3.884 4.57456 0
M  V30 54381 H 5383.38 -2.54252 4.12897 0
M  V30 54382 N 5384.72 -1.25855 -0.948599 0
M  V30 54383 C 5385.95 -1.13552 -1.72596 0
M  V30 54384 C 5386.36 0.312791 -1.86597 0
M  V30 54385 O 5385.7 1.22652 -1.36755 0
M  V30 54386 C 5385.76 -1.72327 -3.15506 0
M  V30 54387 C 5385.43 -3.21371 -3.24915 0
M  V30 54388 C 5386.42 -4.18285 -3.08762 0
M  V30 54389 C 5384.11 -3.61695 -3.48543 0
M  V30 54390 C 5386.1 -5.53502 -3.16093 0
M  V30 54391 C 5383.79 -4.97048 -3.55509 0
M  V30 54392 C 5384.79 -5.92761 -3.39299 0
M  V30 54393 O 5384.47 -7.2565 -3.45959 0
M  V30 54394 H 5384.21 -0.396575 -0.547453 0
M  V30 54395 H 5386.76 -1.66826 -1.19826 0
M  V30 54396 H 5384.99 -1.13507 -3.69666 0
M  V30 54397 H 5386.68 -1.55037 -3.75124 0
M  V30 54398 H 5387.45 -3.88471 -2.90371 0
M  V30 54399 H 5383.32 -2.87687 -3.60218 0
M  V30 54400 H 5386.87 -6.28188 -3.03358 0
M  V30 54401 H 5382.77 -5.26525 -3.73418 0
M  V30 54402 H 5383.53 -7.33825 -3.62551 0
M  V30 54403 N 5386.2 1.1521 -1.07538 0
M  V30 54404 C 5387.13 2.22157 -0.718915 0
M  V30 54405 C 5388.11 1.67531 0.294532 0
M  V30 54406 O 5389.29 1.93482 0.166863 0
M  V30 54407 C 5386.42 3.471 -0.117958 0
M  V30 54408 C 5385.38 4.14698 -1.05877 0
M  V30 54409 C 5384.7 5.33739 -0.320472 0
M  V30 54410 C 5386 4.64245 -2.39319 0
M  V30 54411 H 5387.7 2.52231 -1.61306 0
M  V30 54412 H 5385.24 1.21236 -0.777035 0
M  V30 54413 H 5387.2 4.21156 0.143371 0
M  V30 54414 H 5385.92 3.16363 0.811278 0
M  V30 54415 H 5384.58 3.42584 -1.30505 0
M  V30 54416 H 5384.23 4.9926 0.612284 0
M  V30 54417 H 5383.93 5.79909 -0.947585 0
M  V30 54418 H 5385.45 6.10563 -0.0669868 0
M  V30 54419 H 5386.86 5.2982 -2.19007 0
M  V30 54420 H 5385.26 5.21085 -2.97642 0
M  V30 54421 H 5386.33 3.79783 -3.01485 0
M  V30 54422 N 5387.67 0.859763 1.32083 0
M  V30 54423 C 5388.92 0.464731 1.96684 0
M  V30 54424 C 5389.24 -0.984061 1.68349 0
M  V30 54425 O 5388.51 -1.68843 0.99342 0
M  V30 54426 H 5387.09 0.168864 0.727663 0
M  V30 54427 H 5389.76 1.09731 1.61075 0
M  V30 54428 H 5388.85 0.614011 3.06001 0
M  V30 54429 N 5389.15 -1.44969 0.618196 0
M  V30 54430 C 5390.4 -2.01759 0.117321 0
M  V30 54431 C 5390.72 -1.48777 -1.26057 0
M  V30 54432 O 5389.99 -0.686217 -1.83488 0
M  V30 54433 H 5388.57 -0.745908 0.0403807 0
M  V30 54434 H 5391.23 -1.77635 0.801986 0
M  V30 54435 H 5390.33 -3.12009 0.0751574 0
M  V30 54436 N 5390.63 -0.357973 -1.53481 0
M  V30 54437 C 5391.56 0.48415 -2.28426 0
M  V30 54438 C 5392.54 1.09042 -1.30552 0
M  V30 54439 O 5393.73 1.1091 -1.59413 0
M  V30 54440 C 5390.86 1.62792 -3.06783 0
M  V30 54441 C 5389.81 1.14928 -4.12281 0
M  V30 54442 C 5389.14 2.3827 -4.78677 0
M  V30 54443 C 5390.44 0.239444 -5.21751 0
M  V30 54444 H 5392.13 -0.141084 -2.99067 0
M  V30 54445 H 5389.68 -0.0692946 -1.43833 0
M  V30 54446 H 5391.63 2.22362 -3.57957 0
M  V30 54447 H 5390.35 2.28027 -2.33818 0
M  V30 54448 H 5389.01 0.576315 -3.62042 0
M  V30 54449 H 5388.66 3.01944 -4.02292 0
M  V30 54450 H 5388.36 2.06919 -5.49962 0
M  V30 54451 H 5389.88 2.98539 -5.32641 0
M  V30 54452 H 5391.3 0.742398 -5.68473 0
M  V30 54453 H 5389.7 0.0171638 -6.00098 0
M  V30 54454 H 5390.77 -0.720501 -4.79517 0
M  V30 54455 N 5392.11 1.5736 -0.086945 0
M  V30 54456 C 5393.52 1.81358 0.443435 0
M  V30 54457 C 5393.87 1.00198 1.68685 0
M  V30 54458 O 5393 0.228939 2.15186 0
M  V30 54459 C 5393.59 3.28944 0.811271 0
M  V30 54460 C 5392.15 3.53734 1.28644 0
M  V30 54461 C 5391.3 2.75892 0.279056 0
M  V30 54462 H 5394.25 1.55593 -0.312482 0
M  V30 54463 H 5394.27 3.41821 1.67148 0
M  V30 54464 H 5393.78 3.87986 -0.0938962 0
M  V30 54465 H 5391.88 3.00013 2.20959 0
M  V30 54466 H 5391.99 4.624 1.2539 0
M  V30 54467 H 5390.36 2.43112 0.759509 0
M  V30 54468 H 5391.14 3.3768 -0.618648 0
M  V30 54469 N 5393.59 -0.186707 1.5649 0
M  V30 54470 C 5394.5 -1.25162 1.98423 0
M  V30 54471 C 5395.51 -1.49326 0.893177 0
M  V30 54472 O 5396.69 -1.61776 1.1996 0
M  V30 54473 C 5393.75 -2.57414 2.32248 0
M  V30 54474 C 5392.81 -2.41247 3.55103 0
M  V30 54475 C 5392.05 -3.67193 3.87305 0
M  V30 54476 O 5392.27 -4.7172 3.20681 0
M  V30 54477 O 5391.2 -3.62221 4.80708 0
M  V30 54478 H 5395.03 -0.925733 2.89247 0
M  V30 54479 H 5392.62 -0.39237 1.44156 0
M  V30 54480 H 5394.5 -3.35457 2.55042 0
M  V30 54481 H 5393.17 -2.89613 1.4459 0
M  V30 54482 H 5392.08 -1.61287 3.37546 0
M  V30 54483 H 5393.41 -2.13978 4.43254 0
M  V30 54484 N 5395.07 -1.50897 -0.454723 0
M  V30 54485 C 5396.48 -1.55376 -1.03514 0
M  V30 54486 C 5396.83 -0.36689 -1.92739 0
M  V30 54487 O 5395.95 0.51837 -2.101 0
M  V30 54488 C 5396.55 -2.81581 -1.88408 0
M  V30 54489 C 5395.11 -2.88687 -2.4153 0
M  V30 54490 C 5394.25 -2.49852 -1.20289 0
M  V30 54491 H 5397.2 -1.56925 -0.236674 0
M  V30 54492 H 5397.23 -2.64361 -2.73666 0
M  V30 54493 H 5396.74 -3.67945 -1.23442 0
M  V30 54494 H 5394.84 -2.06713 -3.10001 0
M  V30 54495 H 5394.95 -3.91953 -2.75517 0
M  V30 54496 H 5393.32 -2.02656 -1.54281 0
M  V30 54497 H 5394.1 -3.38542 -0.569604 0
M  V30 54498 N 5396.54 0.709016 -1.40751 0
M  V30 54499 C 5397.48 1.83288 -1.35943 0
M  V30 54500 C 5398.45 1.60983 -0.228767 0
M  V30 54501 O 5399.64 1.83909 -0.413499 0
M  V30 54502 C 5396.77 3.19742 -1.11726 0
M  V30 54503 C 5395.81 3.60864 -2.27331 0
M  V30 54504 S 5396.64 3.6722 -3.89756 0
M  V30 54505 C 5397.8 5.06422 -3.67815 0
M  V30 54506 H 5398.03 1.87087 -2.31054 0
M  V30 54507 H 5395.57 0.876434 -1.27114 0
M  V30 54508 H 5397.52 3.98522 -0.984386 0
M  V30 54509 H 5396.19 3.13569 -0.182582 0
M  V30 54510 H 5395.38 4.59958 -2.06046 0
M  V30 54511 H 5394.98 2.89358 -2.36956 0
M  V30 54512 H 5397.27 5.93532 -3.26689 0
M  V30 54513 H 5398.22 5.32745 -4.66464 0
M  V30 54514 H 5398.62 4.77325 -3.01365 0
M  V30 54515 N 5398.02 1.26356 0.941911 0
M  V30 54516 C 5398.98 1.07911 2.02207 0
M  V30 54517 C 5399.98 0.0276849 1.60776 0
M  V30 54518 O 5401.17 0.271026 1.72079 0
M  V30 54519 C 5398.31 0.641201 3.34816 0
M  V30 54520 H 5399.5 2.03812 2.20001 0
M  V30 54521 H 5397.05 1.08943 1.12077 0
M  V30 54522 H 5397.79 -0.31983 3.22719 0
M  V30 54523 H 5397.57 1.4004 3.66239 0
M  V30 54524 H 5399.06 0.533972 4.14172 0
M  V30 54525 N 5399.5 -1.14638 1.08148 0
M  V30 54526 C 5400.75 -1.85889 0.810749 0
M  V30 54527 C 5401.08 -1.82577 -0.661757 0
M  V30 54528 O 5400.35 -1.2546 -1.48628 0
M  V30 54529 C 5400.64 -3.34642 1.32991 0
M  V30 54530 C 5400.49 -3.46541 2.86756 0
M  V30 54531 C 5401.81 -4.29658 0.953015 0
M  V30 54532 H 5398.93 -0.674953 0.295987 0
M  V30 54533 H 5401.57 -1.34635 1.34065 0
M  V30 54534 H 5399.72 -3.78422 0.879163 0
M  V30 54535 H 5401.39 -3.11567 3.40182 0
M  V30 54536 H 5399.63 -2.87838 3.24549 0
M  V30 54537 H 5400.31 -4.5109 3.18154 0
M  V30 54538 H 5402.78 -3.9388 1.34155 0
M  V30 54539 H 5401.66 -5.32204 1.3435 0
M  V30 54540 H 5401.92 -4.41878 -0.140237 0
M  V30 54541 N 5400.98 -0.866756 -1.31625 0
M  V30 54542 C 5401.91 -0.277408 -2.27515 0
M  V30 54543 C 5402.92 0.557732 -1.52948 0
M  V30 54544 O 5404.11 0.380249 -1.74403 0
M  V30 54545 C 5401.21 0.625625 -3.33075 0
M  V30 54546 C 5400.38 -0.176358 -4.37044 0
M  V30 54547 C 5399.44 0.654313 -5.22116 0
M  V30 54548 O 5398.47 0.083496 -5.69139 0
M  V30 54549 N 5399.67 1.96689 -5.46163 0
M  V30 54550 H 5402.44 -1.10143 -2.78727 0
M  V30 54551 H 5400 -0.727921 -1.44613 0
M  V30 54552 H 5401.99 1.18696 -3.86902 0
M  V30 54553 H 5400.56 1.35032 -2.81931 0
M  V30 54554 H 5399.78 -0.919134 -3.83335 0
M  V30 54555 H 5401.07 -0.726771 -5.03583 0
M  V30 54556 H 5400.47 2.45382 -5.0971 0
M  V30 54557 H 5399.02 2.47608 -6.02938 0
M  V30 54558 N 5402.46 1.44639 -0.625876 0
M  V30 54559 C 5403.87 1.85501 -0.21124 0
M  V30 54560 C 5404.22 1.52361 1.23615 0
M  V30 54561 O 5403.34 0.959119 1.93984 0
M  V30 54562 C 5403.94 3.367 -0.376599 0
M  V30 54563 C 5402.5 3.76396 -0.0165118 0
M  V30 54564 C 5401.64 2.68515 -0.692462 0
M  V30 54565 H 5404.59 1.3518 -0.83138 0
M  V30 54566 H 5404.62 3.78537 0.385973 0
M  V30 54567 H 5404.13 3.6079 -1.43012 0
M  V30 54568 H 5402.23 3.57923 1.03548 0
M  V30 54569 H 5402.34 4.7723 -0.42291 0
M  V30 54570 H 5400.71 2.54377 -0.128281 0
M  V30 54571 H 5401.49 2.95437 -1.74847 0
M  V30 54572 N 5403.93 0.366107 1.53289 0
M  V30 54573 C 5405.18 -0.216327 2.02246 0
M  V30 54574 C 5405.53 -1.46379 1.24863 0
M  V30 54575 O 5404.83 -1.88666 0.334043 0
M  V30 54576 C 5405.02 -0.560781 3.52973 0
M  V30 54577 C 5404.85 0.651754 4.44952 0
M  V30 54578 C 5403.62 1.16399 4.91711 0
M  V30 54579 C 5405.82 1.51712 4.91414 0
M  V30 54580 N 5403.8 2.33649 5.67698 0
M  V30 54581 C 5405.17 2.53628 5.6575 0
M  V30 54582 C 5407.23 1.53994 4.73487 0
M  V30 54583 C 5405.93 3.57682 6.24064 0
M  V30 54584 C 5407.96 2.56942 5.32668 0
M  V30 54585 C 5407.32 3.57581 6.0689 0
M  V30 54586 H 5403.42 -0.0418615 0.780879 0
M  V30 54587 H 5406 0.51077 1.87881 0
M  V30 54588 H 5404.17 -1.25695 3.67499 0
M  V30 54589 H 5405.9 -1.12835 3.88652 0
M  V30 54590 H 5402.66 0.728538 4.67963 0
M  V30 54591 H 5403.08 2.92912 6.10354 0
M  V30 54592 H 5407.72 0.775411 4.15629 0
M  V30 54593 H 5405.44 4.35017 6.81018 0
M  V30 54594 H 5409.03 2.59562 5.20691 0
M  V30 54595 H 5407.91 4.35935 6.51867 0
M  V30 54596 N 5405.41 -1.57312 0.095289 0
M  V30 54597 C 5406.82 -1.8159 -0.433811 0
M  V30 54598 C 5407.17 -1.01091 -1.68152 0
M  V30 54599 O 5406.3 -0.240347 -2.15061 0
M  V30 54600 C 5406.89 -3.29369 -0.793815 0
M  V30 54601 C 5405.45 -3.54411 -1.26766 0
M  V30 54602 C 5404.6 -2.76036 -0.264421 0
M  V30 54603 H 5407.55 -1.55425 0.320729 0
M  V30 54604 H 5407.57 -3.42703 -1.65333 0
M  V30 54605 H 5407.08 -3.87931 0.114471 0
M  V30 54606 H 5405.18 -3.01181 -2.19365 0
M  V30 54607 H 5405.3 -4.63059 -1.22936 0
M  V30 54608 H 5403.66 -2.43512 -0.746606 0
M  V30 54609 H 5404.44 -3.37347 0.636547 0
M  V30 54610 N 5406.89 0.178405 -1.56587 0
M  V30 54611 C 5408.3 0.741539 -1.71342 0
M  V30 54612 C 5408.65 1.8311 -0.704643 0
M  V30 54613 O 5407.78 2.15975 0.135481 0
M  V30 54614 C 5408.37 1.35187 -3.10661 0
M  V30 54615 C 5406.93 1.8619 -3.27124 0
M  V30 54616 C 5406.08 0.738161 -2.67295 0
M  V30 54617 H 5409.03 -0.0468982 -1.58631 0
M  V30 54618 H 5409.05 2.22149 -3.08917 0
M  V30 54619 H 5408.56 0.558641 -3.84058 0
M  V30 54620 H 5406.66 2.68179 -2.58671 0
M  V30 54621 H 5406.78 2.01222 -4.34795 0
M  V30 54622 H 5405.14 1.15678 -2.26916 0
M  V30 54623 H 5405.92 -0.0431028 -3.43273 0
M  V30 54624 N 5408.37 1.51136 0.446714 0
M  V30 54625 C 5409.33 1.71193 1.524 0
M  V30 54626 C 5410.33 0.58209 1.49894 0
M  V30 54627 O 5411.52 0.849505 1.52082 0
M  V30 54628 C 5408.65 1.75973 2.9197 0
M  V30 54629 H 5409.85 2.67329 1.35924 0
M  V30 54630 H 5407.4 1.40985 0.674763 0
M  V30 54631 H 5408.13 0.816175 3.13862 0
M  V30 54632 H 5407.92 2.58075 2.95194 0
M  V30 54633 H 5409.41 1.9336 3.70137 0
M  V30 54634 N 5409.85 -0.701542 1.41125 0
M  V30 54635 C 5411.08 -1.48828 1.43296 0
M  V30 54636 C 5411.48 -1.89168 0.0349333 0
M  V30 54637 O 5410.83 -1.5694 -0.954745 0
M  V30 54638 C 5410.89 -2.78525 2.27297 0
M  V30 54639 C 5410.55 -2.60425 3.75537 0
M  V30 54640 C 5411.55 -2.26762 4.67841 0
M  V30 54641 C 5409.24 -2.76251 4.19512 0
M  V30 54642 C 5411.23 -2.09155 6.02107 0
M  V30 54643 C 5408.92 -2.58262 5.53845 0
M  V30 54644 C 5409.91 -2.24763 6.44958 0
M  V30 54645 O 5409.6 -2.06925 7.76812 0
M  V30 54646 H 5409.33 -0.465383 0.4903 0
M  V30 54647 H 5411.89 -0.871778 1.85982 0
M  V30 54648 H 5410.12 -3.4256 1.79415 0
M  V30 54649 H 5411.81 -3.40304 2.21241 0
M  V30 54650 H 5412.57 -2.14154 4.35158 0
M  V30 54651 H 5408.45 -3.0131 3.48903 0
M  V30 54652 H 5412 -1.82931 6.73188 0
M  V30 54653 H 5407.89 -2.70457 5.86108 0
M  V30 54654 H 5408.66 -2.21735 7.87893 0
M  V30 54655 N 5411.32 -1.26854 -0.935197 0
M  V30 54656 C 5412.56 -1.13978 -1.69671 0
M  V30 54657 C 5412.93 0.310589 -1.89471 0
M  V30 54658 O 5414.13 0.561599 -2.62868 0
M  V30 54659 C 5412.4 -1.89398 -3.03089 0
M  V30 54660 S 5413.96 -1.92647 -3.94249 0
M  V30 54661 H 5410.78 -0.40703 -0.582965 0
M  V30 54662 H 5413.38 -1.60657 -1.11398 0
M  V30 54663 H 5412.08 -2.9398 -2.86364 0
M  V30 54664 H 5411.61 -1.43184 -3.66418 0
M  V30 54665 H 5413.63 -1.01749 -4.85656 0
M  V30 54666 N 5412.8 1.14063 -1.08754 0
M  V30 54667 C 5414.05 1.84816 -0.817763 0
M  V30 54668 C 5414.37 1.83548 0.658424 0
M  V30 54669 O 5413.64 1.28639 1.47746 0
M  V30 54670 H 5412.22 0.68432 -0.299526 0
M  V30 54671 H 5414.88 1.38203 -1.37426 0
M  V30 54672 H 5413.98 2.89537 -1.16511 0
M  V30 54673 N 5414.28 0.873724 1.31163 0
M  V30 54674 C 5415.52 0.493075 1.98364 0
M  V30 54675 C 5415.88 -0.937914 1.67533 0
M  V30 54676 O 5417.09 -1.42411 2.27975 0
M  V30 54677 C 5415.36 0.747251 3.49501 0
M  V30 54678 S 5416.92 0.467023 4.36308 0
M  V30 54679 H 5413.73 0.183907 0.686804 0
M  V30 54680 H 5416.34 1.13056 1.59495 0
M  V30 54681 H 5415.04 1.78744 3.6943 0
M  V30 54682 H 5414.57 0.0968993 3.93281 0
M  V30 54683 H 5416.59 -0.699125 4.9125 0
M  V30 54684 N 5415.76 -1.44305 0.633538 0
M  V30 54685 C 5416.69 -2.27888 -0.119317 0
M  V30 54686 C 5417.67 -1.38679 -0.848933 0
M  V30 54687 O 5418.85 -1.68119 -0.852531 0
M  V30 54688 C 5415.98 -3.17662 -1.1751 0
M  V30 54689 C 5415.03 -4.22994 -0.545742 0
M  V30 54690 S 5415.86 -5.31343 0.665986 0
M  V30 54691 C 5417.02 -6.24685 -0.389746 0
M  V30 54692 H 5417.25 -2.91392 0.589741 0
M  V30 54693 H 5414.78 -1.48527 0.421779 0
M  V30 54694 H 5416.74 -3.69935 -1.77928 0
M  V30 54695 H 5415.4 -2.53373 -1.85636 0
M  V30 54696 H 5414.59 -4.85833 -1.34097 0
M  V30 54697 H 5414.2 -3.73997 -0.0161191 0
M  V30 54698 H 5416.49 -6.6565 -1.26162 0
M  V30 54699 H 5417.43 -7.07809 0.203126 0
M  V30 54700 H 5417.84 -5.59932 -0.716725 0
M  V30 54701 N 5417.24 -0.374231 -1.53092 0
M  V30 54702 C 5418.65 -0.0235344 -1.59583 0
M  V30 54703 C 5418.85 1.45979 -1.38897 0
M  V30 54704 O 5417.91 2.22247 -1.19844 0
M  V30 54705 C 5419.22 -0.487221 -2.96727 0
M  V30 54706 C 5420.77 -0.442182 -3.09861 0
M  V30 54707 C 5421.24 -0.881817 -4.49431 0
M  V30 54708 N 5422.74 -0.837222 -4.55571 0
M  V30 54709 C 5423.47 -1.14898 -5.6177 0
M  V30 54710 N 5422.97 -1.53046 -6.75684 0
M  V30 54711 N 5424.76 -1.07121 -5.51798 0
M  V30 54712 H 5416.91 -1.34009 -1.64789 0
M  V30 54713 H 5419.17 -0.548308 -0.773345 0
M  V30 54714 H 5418.88 -1.52263 -3.17031 0
M  V30 54715 H 5418.75 0.12164 -3.77004 0
M  V30 54716 H 5421.14 0.584114 -2.89261 0
M  V30 54717 H 5421.22 -1.08665 -2.31572 0
M  V30 54718 H 5420.87 -1.90627 -4.70769 0
M  V30 54719 H 5420.8 -0.214511 -5.26163 0
M  V30 54720 H 5423.29 -0.556304 -3.73783 0
M  V30 54721 H 5423.6 -1.75238 -7.5267 0
M  V30 54722 H 5421.94 -1.56919 -6.77053 0
M  V30 54723 H 5425.14 -0.772311 -4.61685 0
M  V30 54724 H 5425.31 -1.31751 -6.34465 0
M  V30 54725 N 5418.71 1.57259 -0.10363 0
M  V30 54726 C 5420.13 1.57582 0.253007 0
M  V30 54727 C 5420.33 1.11537 1.67815 0
M  V30 54728 O 5419.39 0.795716 2.39634 0
M  V30 54729 C 5420.7 3.00681 0.0336696 0
M  V30 54730 C 5422.25 3.12838 0.10076 0
M  V30 54731 C 5422.72 4.5791 -0.0906905 0
M  V30 54732 N 5424.21 4.63186 -0.0361418 0
M  V30 54733 C 5424.95 5.73178 -0.1594 0
M  V30 54734 N 5424.44 6.91975 -0.337971 0
M  V30 54735 N 5426.24 5.62011 -0.100064 0
M  V30 54736 H 5418.39 1.85495 -1.03467 0
M  V30 54737 H 5420.65 0.85657 -0.406193 0
M  V30 54738 H 5420.36 3.38599 -0.950977 0
M  V30 54739 H 5420.23 3.6921 0.772276 0
M  V30 54740 H 5422.62 2.74787 1.07592 0
M  V30 54741 H 5422.7 2.46884 -0.669477 0
M  V30 54742 H 5422.34 4.96657 -1.06275 0
M  V30 54743 H 5422.27 5.21936 0.699345 0
M  V30 54744 H 5424.76 3.7777 0.0989882 0
M  V30 54745 H 5425.08 7.7164 -0.423303 0
M  V30 54746 H 5423.42 6.93994 -0.373748 0
M  V30 54747 H 5426.61 4.68084 0.0383711 0
M  V30 54748 H 5426.79 6.47693 -0.19957 0
M  V30 54749 N 5420.19 -0.170098 1.56679 0
M  V30 54750 C 5421.12 -1.21278 1.99534 0
M  V30 54751 C 5422.1 -1.46101 0.871122 0
M  V30 54752 O 5423.29 -1.57415 1.13729 0
M  V30 54753 C 5420.42 -2.55142 2.35627 0
M  V30 54754 C 5419.37 -2.44886 3.5102 0
M  V30 54755 C 5418.7 -3.8325 3.72858 0
M  V30 54756 C 5420 -1.95254 4.84431 0
M  V30 54757 H 5421.69 -0.856545 2.86886 0
M  V30 54758 H 5419.24 -0.410586 1.38022 0
M  V30 54759 H 5421.19 -3.2829 2.64204 0
M  V30 54760 H 5419.92 -2.92556 1.45185 0
M  V30 54761 H 5418.57 -1.74192 3.22572 0
M  V30 54762 H 5418.22 -4.1806 2.79706 0
M  V30 54763 H 5417.92 -3.77256 4.50502 0
M  V30 54764 H 5419.45 -4.57982 4.03838 0
M  V30 54765 H 5420.86 -2.58177 5.11876 0
M  V30 54766 H 5419.26 -2.00205 5.65719 0
M  V30 54767 H 5420.33 -0.906923 4.76343 0
M  V30 54768 N 5421.67 -1.51371 -0.438693 0
M  V30 54769 C 5422.63 -1.71998 -1.5149 0
M  V30 54770 C 5423.63 -0.590031 -1.49584 0
M  V30 54771 O 5424.82 -0.857559 -1.5163 0
M  V30 54772 C 5421.96 -1.77519 -2.91033 0
M  V30 54773 H 5423.15 -2.68046 -1.34505 0
M  V30 54774 H 5420.7 -1.4134 -0.667277 0
M  V30 54775 H 5421.44 -0.832809 -3.13424 0
M  V30 54776 H 5421.22 -2.59637 -2.93821 0
M  V30 54777 H 5422.71 -1.95321 -3.69106 0
M  V30 54778 N 5423.15 0.694048 -1.41495 0
M  V30 54779 C 5424.39 1.45625 -1.41142 0
M  V30 54780 C 5424.73 1.94189 -0.0209111 0
M  V30 54781 O 5424 1.69632 0.951595 0
M  V30 54782 C 5424.29 2.66706 -2.4195 0
M  V30 54783 C 5424.14 2.23898 -3.90115 0
M  V30 54784 C 5425.46 3.68905 -2.39994 0
M  V30 54785 H 5422.58 0.528192 -0.513986 0
M  V30 54786 H 5425.22 0.790376 -1.7278 0
M  V30 54787 H 5423.37 3.23517 -2.15102 0
M  V30 54788 H 5425.04 1.72402 -4.27873 0
M  V30 54789 H 5423.28 1.55666 -4.04908 0
M  V30 54790 H 5423.95 3.10784 -4.56199 0
M  V30 54791 H 5426.43 3.2177 -2.63825 0
M  V30 54792 H 5425.31 4.51231 -3.1254 0
M  V30 54793 H 5425.57 4.18706 -1.41907 0
M  V30 54794 N 5424.63 1.27348 0.928456 0
M  V30 54795 C 5425.58 1.09842 2.05031 0
M  V30 54796 C 5426.57 0.0217238 1.69386 0
M  V30 54797 O 5427.78 0.179386 1.79104 0
M  V30 54798 H 5424.15 0.33844 0.671538 0
M  V30 54799 H 5426.12 2.04886 2.16943 0
M  V30 54800 C 5424.87 0.761581 3.39257 0
M  V30 54801 H 5424.19 1.58199 3.67169 0
M  V30 54802 H 5425.63 0.67896 4.18529 0
M  V30 54803 C 5424.09 -0.534001 3.32641 0
M  V30 54804 O 5424.62 -1.56864 3.69806 0
M  V30 54805 N 5422.83 -0.529337 2.85738 0
M  V30 54806 H 5422.38 0.313044 2.55691 0
M  V30 54807 H 5422.33 -1.39627 2.81694 0
M  V30 54808 N 5426.11 -1.13484 1.09357 0
M  V30 54809 C 5427.52 -1.36736 0.823134 0
M  V30 54810 C 5427.72 -1.93478 -0.562895 0
M  V30 54811 O 5426.78 -2.15379 -1.31789 0
M  V30 54812 C 5428.09 -2.31937 1.91379 0
M  V30 54813 C 5429.64 -2.45554 1.94094 0
M  V30 54814 C 5430.11 -3.44061 3.02301 0
M  V30 54815 N 5431.6 -3.51611 3.01536 0
M  V30 54816 C 5432.34 -4.27711 3.81905 0
M  V30 54817 N 5431.84 -5.0697 4.72179 0
M  V30 54818 N 5433.63 -4.23005 3.70167 0
M  V30 54819 H 5425.78 -0.75005 1.98716 0
M  V30 54820 H 5428.04 -0.392534 0.862914 0
M  V30 54821 H 5427.75 -1.97398 2.91079 0
M  V30 54822 H 5427.62 -3.31946 1.79142 0
M  V30 54823 H 5430.01 -2.79379 0.950332 0
M  V30 54824 H 5430.09 -1.45472 2.10408 0
M  V30 54825 H 5429.73 -3.10967 4.01574 0
M  V30 54826 H 5429.66 -4.43946 2.8323 0
M  V30 54827 H 5432.16 -2.95057 2.36113 0
M  V30 54828 H 5432.47 -5.62342 5.30087 0
M  V30 54829 H 5430.81 -5.06206 4.76215 0
M  V30 54830 H 5434 -3.6016 2.99002 0
M  V30 54831 H 5434.18 -4.82059 4.33039 0
M  V30 54832 N 5427.58 -0.880667 -1.30698 0
M  V30 54833 C 5428.81 -0.510979 -2.01007 0
M  V30 54834 C 5429.23 0.891983 -1.65606 0
M  V30 54835 O 5428.59 1.59042 -0.870365 0
M  V30 54836 C 5428.64 -0.687883 -3.53978 0
M  V30 54837 O 5427.74 0.268131 -4.11527 0
M  V30 54838 H 5427.08 -0.201887 -0.632564 0
M  V30 54839 H 5429.61 -1.18703 -1.66646 0
M  V30 54840 H 5429.62 -0.585237 -4.03781 0
M  V30 54841 H 5428.3 -1.71081 -3.79083 0
M  V30 54842 H 5426.88 0.119542 -3.72708 0
M  V30 54843 N 5429.06 1.43967 -0.641182 0
M  V30 54844 C 5430.47 1.85267 -0.230903 0
M  V30 54845 C 5430.82 1.53663 1.21992 0
M  V30 54846 O 5429.95 0.97964 1.92956 0
M  V30 54847 C 5430.54 3.36282 -0.412289 0
M  V30 54848 C 5429.1 3.76358 -0.0564328 0
M  V30 54849 C 5428.25 2.67765 -0.720903 0
M  V30 54850 H 5431.2 1.34291 -0.845671 0
M  V30 54851 H 5431.22 3.78925 0.345803 0
M  V30 54852 H 5430.73 3.59253 -1.46831 0
M  V30 54853 H 5428.83 3.59001 0.997456 0
M  V30 54854 H 5428.95 4.76754 -0.473503 0
M  V30 54855 H 5427.31 2.54226 -0.155254 0
M  V30 54856 H 5428.09 2.93566 -1.77971 0
M  V30 54857 N 5430.54 0.382345 1.52892 0
M  V30 54858 C 5431.79 -0.202362 2.01788 0
M  V30 54859 C 5432.12 -1.4704 1.26858 0
M  V30 54860 O 5431.39 -1.91005 0.367036 0
M  V30 54861 C 5431.68 -0.477345 3.56922 0
M  V30 54862 C 5431.53 0.805495 4.42529 0
M  V30 54863 C 5432.85 -1.27091 4.2135 0
M  V30 54864 H 5429.97 -0.072074 0.733467 0
M  V30 54865 H 5432.61 0.510542 1.83012 0
M  V30 54866 H 5430.76 -1.08465 3.73052 0
M  V30 54867 H 5432.43 1.44255 4.38164 0
M  V30 54868 H 5430.67 1.42231 4.09821 0
M  V30 54869 H 5431.35 0.567828 5.49072 0
M  V30 54870 H 5433.82 -0.757017 4.09156 0
M  V30 54871 H 5432.7 -1.43206 5.2989 0
M  V30 54872 H 5432.96 -2.28417 3.78521 0
M  V30 54873 N 5432.02 -1.57202 0.111969 0
M  V30 54874 C 5432.98 -2.13781 -0.826459 0
M  V30 54875 C 5433.98 -1.07101 -1.19942 0
M  V30 54876 O 5435.17 -1.3291 -1.12608 0
M  V30 54877 C 5432.3 -2.67227 -2.11666 0
M  V30 54878 H 5433.5 -2.98025 -0.33487 0
M  V30 54879 H 5431.05 -1.55697 -0.137202 0
M  V30 54880 H 5431.78 -1.86552 -2.65272 0
M  V30 54881 H 5431.57 -3.45242 -1.85878 0
M  V30 54882 H 5433.06 -3.10936 -2.78763 0
M  V30 54883 N 5433.5 0.161787 -1.56767 0
M  V30 54884 C 5434.43 1.22921 -1.92265 0
M  V30 54885 C 5435.41 1.42307 -0.786612 0
M  V30 54886 O 5436.59 1.57159 -1.04083 0
M  V30 54887 C 5433.72 2.59061 -2.18186 0
M  V30 54888 C 5432.76 2.56356 -3.40858 0
M  V30 54889 S 5433.6 2.04501 -4.94914 0
M  V30 54890 C 5434.75 3.42399 -5.2394 0
M  V30 54891 H 5434.99 0.926277 -2.82502 0
M  V30 54892 H 5432.52 0.366769 -1.49981 0
M  V30 54893 H 5434.48 3.37413 -2.338 0
M  V30 54894 H 5433.14 2.8655 -1.28639 0
M  V30 54895 H 5432.33 3.56538 -3.56225 0
M  V30 54896 H 5431.93 1.86105 -3.24409 0
M  V30 54897 H 5434.22 4.38443 -5.16502 0
M  V30 54898 H 5435.17 3.31898 -6.25499 0
M  V30 54899 H 5435.58 3.38852 -4.51486 0
M  V30 54900 N 5434.97 1.51602 0.430659 0
M  V30 54901 C 5436.2 1.68418 1.20179 0
M  V30 54902 C 5436.62 0.384362 1.84846 0
M  V30 54903 O 5435.97 -0.637748 1.70994 0
M  V30 54904 C 5436.02 2.80459 2.2809 0
M  V30 54905 O 5435.75 4.05405 1.66067 0
M  V30 54906 C 5437.25 3.08602 3.18245 0
M  V30 54907 H 5434.47 0.564995 0.36197 0
M  V30 54908 H 5437.01 1.98052 0.50947 0
M  V30 54909 H 5435.17 2.53405 2.93027 0
M  V30 54910 H 5435.58 4.67679 2.37437 0
M  V30 54911 H 5437.05 3.90564 3.90082 0
M  V30 54912 H 5437.53 2.21278 3.79385 0
M  V30 54913 H 5438.14 3.3734 2.59002 0
M  V30 54914 N 5436.45 -0.686534 1.41861 0
M  V30 54915 C 5437.87 -0.998239 1.24528 0
M  V30 54916 C 5438.07 -2.01006 0.141078 0
M  V30 54917 O 5437.12 -2.47669 -0.491561 0
M  V30 54918 C 5438.44 -1.51423 2.59791 0
M  V30 54919 C 5439.98 -1.63261 2.67049 0
M  V30 54920 C 5440.46 -2.18259 4.0265 0
M  V30 54921 N 5441.95 -2.25608 4.04543 0
M  V30 54922 C 5442.69 -2.69212 5.06273 0
M  V30 54923 N 5442.18 -3.12354 6.18391 0
M  V30 54924 N 5443.97 -2.68856 4.93632 0
M  V30 54925 H 5436.13 -0.0164078 2.12394 0
M  V30 54926 H 5438.39 -0.069828 0.945425 0
M  V30 54927 H 5438.09 -0.845306 3.4139 0
M  V30 54928 H 5437.97 -2.49492 2.82902 0
M  V30 54929 H 5440.36 -2.29263 1.85803 0
M  V30 54930 H 5440.44 -0.637134 2.47738 0
M  V30 54931 H 5440.08 -1.5287 4.84348 0
M  V30 54932 H 5440.01 -3.18576 4.19305 0
M  V30 54933 H 5442.5 -1.95175 3.23597 0
M  V30 54934 H 5442.81 -3.44277 6.91877 0
M  V30 54935 H 5441.16 -3.1024 6.21913 0
M  V30 54936 H 5444.35 -2.34506 4.05123 0
M  V30 54937 H 5444.52 -3.02519 5.7305 0
M  V30 54938 N 5437.93 -1.27838 -0.92169 0
M  V30 54939 C 5439.15 -1.17471 -1.70925 0
M  V30 54940 C 5439.58 0.264105 -1.86237 0
M  V30 54941 O 5438.94 1.1912 -1.36676 0
M  V30 54942 C 5438.99 -1.86981 -3.08335 0
M  V30 54943 O 5438.09 -1.17187 -3.954 0
M  V30 54944 H 5437.43 -0.408225 -0.523687 0
M  V30 54945 H 5439.96 -1.69017 -1.15301 0
M  V30 54946 H 5439.97 -1.94576 -3.58614 0
M  V30 54947 H 5438.65 -2.91643 -2.96508 0
M  V30 54948 H 5437.22 -1.17701 -3.53837 0
M  V30 54949 N 5439.41 1.12903 -1.09958 0
M  V30 54950 C 5440.65 1.84576 -0.84022 0
M  V30 54951 C 5440.99 1.83607 0.632627 0
M  V30 54952 O 5440.26 1.27808 1.46613 0
M  V30 54953 C 5440.55 3.32484 -1.38298 0
M  V30 54954 C 5440.4 3.41935 -2.92233 0
M  V30 54955 C 5441.72 4.28087 -1.02125 0
M  V30 54956 H 5438.84 0.670158 -0.306687 0
M  V30 54957 H 5441.48 1.32485 -1.3619 0
M  V30 54958 H 5439.63 3.76975 -0.939255 0
M  V30 54959 H 5441.3 3.06116 -3.45095 0
M  V30 54960 H 5439.54 2.82638 -3.29087 0
M  V30 54961 H 5440.21 4.45971 -3.2529 0
M  V30 54962 H 5442.69 3.91696 -1.40404 0
M  V30 54963 H 5441.57 5.29999 -1.428 0
M  V30 54964 H 5441.83 4.42045 0.0699199 0
M  V30 54965 N 5440.89 0.887586 1.30229 0
M  V30 54966 C 5441.8 0.360415 2.31815 0
M  V30 54967 C 5442.81 -0.538683 1.65452 0
M  V30 54968 O 5443.99 -0.431176 1.9673 0
M  V30 54969 C 5441.05 -0.414215 3.44217 0
M  V30 54970 C 5440.11 0.514949 4.262 0
M  V30 54971 C 5439.35 -0.222807 5.33235 0
M  V30 54972 O 5439.57 -1.44852 5.51701 0
M  V30 54973 O 5438.5 0.428433 6.00373 0
M  V30 54974 H 5442.33 1.20289 2.78863 0
M  V30 54975 H 5439.92 0.651506 1.34446 0
M  V30 54976 H 5441.8 -0.852714 4.12682 0
M  V30 54977 H 5440.47 -1.23294 2.99299 0
M  V30 54978 H 5439.38 1.00231 3.60423 0
M  V30 54979 H 5440.71 1.29976 4.74729 0
M  V30 54980 N 5442.36 -1.43625 0.648807 0
M  V30 54981 C 5443.61 -2.02163 0.160645 0
M  V30 54982 C 5443.94 -1.51041 -1.22067 0
M  V30 54983 O 5443.22 -0.701697 -1.81401 0
M  V30 54984 C 5443.5 -3.59714 0.166654 0
M  V30 54985 C 5443.35 -4.21078 1.58157 0
M  V30 54986 C 5444.67 -4.37258 -0.499331 0
M  V30 54987 H 5441.79 -0.734566 0.0598496 0
M  V30 54988 H 5444.43 -1.70978 0.828652 0
M  V30 54989 H 5442.58 -3.86413 -0.402166 0
M  V30 54990 H 5444.26 -4.05425 2.20064 0
M  V30 54991 H 5442.5 -3.77896 2.13018 0
M  V30 54992 H 5443.17 -5.30151 1.53766 0
M  V30 54993 H 5445.65 -4.16097 -0.0154099 0
M  V30 54994 H 5444.52 -5.46932 -0.464381 0
M  V30 54995 H 5444.78 -4.1318 -1.57272 0
M  V30 54996 N 5443.84 -0.390448 -1.52687 0
M  V30 54997 C 5444.79 0.461113 -2.23288 0
M  V30 54998 C 5445.78 1.02871 -1.23719 0
M  V30 54999 O 5446.97 0.954623 -1.4905 0
M  V30 55000 C 5444.1 1.58726 -3.04403 0
M  V30 55001 C 5443.18 1.03134 -4.11369 0
M  V30 55002 N 5443.57 0.200482 -5.05403 0
M  V30 55003 C 5441.87 1.30373 -4.2652 0
M  V30 55004 C 5442.57 -0.106753 -5.81602 0
M  V30 55005 N 5441.55 0.497496 -5.41319 0
M  V30 55006 H 5445.35 -0.180203 -2.93347 0
M  V30 55007 H 5442.87 -0.199818 -1.61166 0
M  V30 55008 H 5444.86 2.20973 -3.5352 0
M  V30 55009 H 5443.52 2.23138 -2.3588 0
M  V30 55010 H 5444.53 -0.16235 -5.17645 0
M  V30 55011 H 5441.21 1.94881 -3.69226 0
M  V30 55012 H 5442.6 -0.780013 -6.67357 0
M  V30 55013 N 5445.32 1.5714 -0.120304 0
M  V30 55014 C 5446.57 1.94854 0.536319 0
M  V30 55015 C 5446.89 1.00458 1.67132 0
M  V30 55016 O 5446.16 0.0611218 1.95805 0
M  V30 55017 H 5444.74 0.719418 0.201113 0
M  V30 55018 H 5447.4 1.93976 -0.189551 0
M  V30 55019 H 5446.5 2.97921 0.93004 0
M  V30 55020 N 5446.8 -0.153471 1.56851 0
M  V30 55021 C 5447.76 -1.17355 1.96877 0
M  V30 55022 C 5448.76 -1.36216 0.854504 0
M  V30 55023 O 5449.95 -1.33318 1.12124 0
M  V30 55024 C 5447.08 -2.53515 2.2791 0
M  V30 55025 H 5448.28 -0.830331 2.88176 0
M  V30 55026 H 5445.83 -0.39658 1.51185 0
M  V30 55027 H 5446.56 -2.9282 1.39381 0
M  V30 55028 H 5446.35 -2.41187 3.09146 0
M  V30 55029 H 5447.84 -3.26996 2.59737 0
M  V30 55030 N 5448.28 -1.51828 -0.422613 0
M  V30 55031 C 5449.52 -1.65469 -1.17252 0
M  V30 55032 C 5449.86 -0.376901 -1.90507 0
M  V30 55033 O 5449.13 0.624155 -1.84213 0
M  V30 55034 C 5449.41 -2.86783 -2.17778 0
M  V30 55035 C 5449.27 -4.24577 -1.48508 0
M  V30 55036 C 5450.59 -3.03615 -3.186 0
M  V30 55037 H 5447.7 -0.602184 -0.424904 0
M  V30 55038 H 5450.35 -1.8435 -0.459895 0
M  V30 55039 H 5448.5 -2.70816 -2.78552 0
M  V30 55040 H 5450.17 -4.52244 -0.90958 0
M  V30 55041 H 5448.41 -4.26598 -0.787204 0
M  V30 55042 H 5449.08 -5.05482 -2.21792 0
M  V30 55043 H 5451.56 -3.18391 -2.67893 0
M  V30 55044 H 5450.43 -3.90036 -3.86217 0
M  V30 55045 H 5450.7 -2.16332 -3.85556 0
M  V30 55046 N 5449.75 0.679002 -1.42223 0
M  V30 55047 C 5451 1.43622 -1.42187 0
M  V30 55048 C 5451.32 1.94963 -0.037778 0
M  V30 55049 O 5450.59 1.72791 0.923037 0
M  V30 55050 H 5449.17 0.532954 -0.523421 0
M  V30 55051 H 5451.84 0.802586 -1.77608 0
M  V30 55052 H 5450.93 2.2913 -2.1191 0
M  V30 55053 N 5451.23 1.28325 0.914897 0
M  V30 55054 C 5452.2 1.12176 1.99873 0
M  V30 55055 C 5453.2 0.0617816 1.60681 0
M  V30 55056 O 5454.39 0.307465 1.71465 0
M  V30 55057 C 5451.52 0.712076 3.3338 0
M  V30 55058 H 5452.71 2.08433 2.15629 0
M  V30 55059 H 5450.26 1.11295 1.09741 0
M  V30 55060 H 5451 -0.251304 3.23325 0
M  V30 55061 H 5450.78 1.47777 3.63187 0
M  V30 55062 H 5452.27 0.621704 4.12946 0
M  V30 55063 N 5452.71 -1.12318 1.10555 0
M  V30 55064 C 5453.94 -1.88217 0.871159 0
M  V30 55065 C 5454.36 -1.79162 -0.572942 0
M  V30 55066 O 5453.72 -1.14743 -1.4037 0
M  V30 55067 C 5453.77 -3.35344 1.32577 0
M  V30 55068 O 5452.87 -4.0946 0.491594 0
M  V30 55069 H 5452.21 -0.584776 0.314537 0
M  V30 55070 H 5454.74 -1.42034 1.47267 0
M  V30 55071 H 5454.75 -3.86185 1.31625 0
M  V30 55072 H 5453.43 -3.41252 2.3774 0
M  V30 55073 H 5452 -3.68573 0.566424 0
M  V30 55074 N 5454.19 -0.89448 -1.29757 0
M  V30 55075 C 5455.44 -0.516715 -1.95383 0
M  V30 55076 C 5455.76 0.939081 -1.70898 0
M  V30 55077 O 5455.03 1.6615 -1.03784 0
M  V30 55078 H 5453.61 -0.188097 -0.72293 0
M  V30 55079 H 5456.27 -1.13963 -1.58109 0
M  V30 55080 H 5455.37 -0.694926 -3.04265 0
M  V30 55081 N 5455.67 1.43279 -0.656415 0
M  V30 55082 C 5456.91 2.03652 -0.174753 0
M  V30 55083 C 5457.27 1.50684 1.18988 0
M  V30 55084 O 5458.47 2.02722 1.76514 0
M  V30 55085 C 5456.74 3.56906 -0.187905 0
M  V30 55086 S 5458.3 4.3822 0.225445 0
M  V30 55087 H 5455.12 0.707188 -0.0735278 0
M  V30 55088 H 5457.72 1.753 -0.865465 0
M  V30 55089 H 5456.43 3.92957 -1.18377 0
M  V30 55090 H 5455.96 3.89905 0.523241 0
M  V30 55091 H 5457.97 4.74126 1.46353 0
M  V30 55092 N 5457.15 0.398539 1.52478 0
M  V30 55093 C 5458.56 -0.073436 1.86556 0
M  V30 55094 C 5458.91 -1.45356 1.3178 0
M  V30 55095 O 5458.03 -2.06318 0.652832 0
M  V30 55096 C 5458.63 -0.140033 3.3851 0
M  V30 55097 C 5457.19 -0.55632 3.72266 0
M  V30 55098 C 5456.33 0.275889 2.75924 0
M  V30 55099 H 5459.28 0.616042 1.46255 0
M  V30 55100 H 5459.31 -0.957378 3.68259 0
M  V30 55101 H 5458.82 0.864575 3.78347 0
M  V30 55102 H 5456.92 -1.56796 3.38003 0
M  V30 55103 H 5457.03 -0.308059 4.78109 0
M  V30 55104 H 5455.4 -0.260215 2.53367 0
M  V30 55105 H 5456.18 1.27865 3.18599 0
M  V30 55106 N 5458.62 -1.57074 0.128636 0
M  V30 55107 C 5459.59 -2.14646 -0.803738 0
M  V30 55108 C 5460.59 -1.08367 -1.18799 0
M  V30 55109 O 5461.78 -1.34097 -1.11192 0
M  V30 55110 C 5458.91 -2.69457 -2.0882 0
M  V30 55111 H 5460.1 -2.98363 -0.303242 0
M  V30 55112 H 5457.65 -1.55833 -0.12068 0
M  V30 55113 H 5458.39 -1.89355 -2.63278 0
M  V30 55114 H 5458.17 -3.47194 -1.82206 0
M  V30 55115 H 5459.66 -3.13875 -2.75449 0
M  V30 55116 N 5460.1 0.14515 -1.5693 0
M  V30 55117 C 5461.06 1.16309 -1.97496 0
M  V30 55118 C 5462.06 1.35761 -0.861716 0
M  V30 55119 O 5463.25 1.32722 -1.1283 0
M  V30 55120 C 5460.39 2.52303 -2.29251 0
M  V30 55121 H 5461.58 0.815036 -2.88612 0
M  V30 55122 H 5459.13 0.388557 -1.51393 0
M  V30 55123 H 5459.87 2.92076 -1.40932 0
M  V30 55124 H 5459.65 2.39545 -3.1042 0
M  V30 55125 H 5461.14 3.25614 -2.61467 0
M  V30 55126 O 5461.62 1.58878 0.289824 0
M  V30 55127 H 5462.31 1.69574 0.936177 0
M  V30 END ATOM
M  V30 BEGIN BOND
M  V30 END BOND
M  V30 END CTAB
M  END
$$$$
