drugbank_target|O15217 Glutathione S-transferase A4 (DB00143)
 OpenBabel12092119403D

  0  0  0     0  0            999 V3000
M  V30 BEGIN CTAB
M  V30 COUNTS 3685 3726 0 0 0
M  V30 BEGIN ATOM
M  V30 1 H -0.908 1.98254 -0.117106 0
M  V30 2 N 0 1.576 0 0
M  V30 3 C 0.933 2.03868 1.02534 0
M  V30 4 C 1.911 0.928543 1.3348 0
M  V30 5 O 3.095 1.19667 1.45644 0
M  V30 6 C 0.222 2.43627 2.35294 0
M  V30 7 C -0.732 3.65373 2.2001 0
M  V30 8 S 0.101 5.13292 1.52614 0
M  V30 9 C 1.257 5.56322 2.86805 0
M  V30 10 H 1.49 2.90518 0.631377 0
M  V30 11 H -0.977 1.52953 0.210867 0
M  V30 12 H 0.981 2.67203 3.11629 0
M  V30 13 H -0.358 1.57376 2.7183 0
M  V30 14 H -1.165 3.90944 3.18086 0
M  V30 15 H -1.563 3.418 1.51819 0
M  V30 16 H 0.729 5.58782 3.83104 0
M  V30 17 H 1.672 6.56266 2.65933 0
M  V30 18 H 2.08 4.83886 2.90714 0
M  V30 19 N 1.4781 -0.272755 1.55222 0
M  V30 20 C 2.4411 -1.32041 1.87344 0
M  V30 21 C 3.4411 -1.42342 0.74803 0
M  V30 22 O 4.6311 -1.41488 1.0162 0
M  V30 23 C 1.7631 -2.70173 2.07893 0
M  V30 24 H 2.9561 -1.04789 2.80997 0
M  V30 25 H 0.5091 -0.51083 1.47717 0
M  V30 26 H 1.2441 -3.02605 1.16622 0
M  V30 27 H 1.0291 -2.64082 2.89833 0
M  V30 28 H 2.5191 -3.45869 2.34017 0
M  V30 29 N 2.9562 -1.48159 -0.537278 0
M  V30 30 C 3.9192 -1.61665 -1.62472 0
M  V30 31 C 4.9192 -0.490395 -1.5314 0
M  V30 32 O 6.1092 -0.755998 -1.5694 0
M  V30 33 C 3.2412 -1.57997 -3.02076 0
M  V30 34 H 4.4342 -2.58621 -1.51839 0
M  V30 35 H 1.9872 -1.36647 -0.758771 0
M  V30 36 H 2.7222 -0.624913 -3.18222 0
M  V30 37 H 2.5072 -2.39755 -3.10258 0
M  V30 38 H 3.9972 -1.70627 -3.81151 0
M  V30 39 N 4.4343 0.785586 -1.36625 0
M  V30 40 C 5.8503 1.08419 -1.17122 0
M  V30 41 C 6.0503 2.015 0.00208491 0
M  V30 42 O 5.1063 2.43551 0.666278 0
M  V30 43 C 6.4193 1.69498 -2.48377 0
M  V30 44 C 7.9673 1.81821 -2.54775 0
M  V30 45 C 8.4423 2.46315 -3.86126 0
M  V30 46 N 9.9333 2.53779 -3.87492 0
M  V30 47 C 10.6683 3.045 -4.85868 0
M  V30 48 N 10.1643 3.55499 -5.94637 0
M  V30 49 N 11.9573 3.03247 -4.73284 0
M  V30 50 H 4.1083 0.167264 -2.1174 0
M  V30 51 H 6.3713 0.13682 -0.938075 0
M  V30 52 H 6.0773 1.08571 -3.34522 0
M  V30 53 H 5.9513 2.6896 -2.64462 0
M  V30 54 H 8.3383 2.41884 -1.69045 0
M  V30 55 H 8.4193 0.811532 -2.42586 0
M  V30 56 H 8.0633 1.86895 -4.72263 0
M  V30 57 H 7.9933 3.47561 -3.95612 0
M  V30 58 H 10.4843 2.17672 -3.08913 0
M  V30 59 H 10.7973 3.92562 -6.65669 0
M  V30 60 H 9.1423 3.5364 -5.98301 0
M  V30 61 H 12.3333 2.62696 -3.87438 0
M  V30 62 H 12.5063 3.42467 -5.50109 0
M  V30 63 N 5.9124 1.20967 1.01018 0
M  V30 64 C 7.3234 1.02319 1.56165 0
M  V30 65 C 7.6744 -0.418546 1.91684 0
M  V30 66 O 6.7994 -1.30096 1.72928 0
M  V30 67 C 7.3944 1.85109 2.8376 0
M  V30 68 C 5.9534 1.70809 3.35412 0
M  V30 69 C 5.1004 1.82643 2.08655 0
M  V30 70 H 8.0514 1.35065 0.833255 0
M  V30 71 H 8.0724 1.35827 3.55431 0
M  V30 72 H 7.5844 2.90035 2.57878 0
M  V30 73 H 5.6854 0.685464 3.66241 0
M  V30 74 H 5.7984 2.52467 4.07182 0
M  V30 75 H 4.1624 1.25896 2.21409 0
M  V30 76 H 4.9454 2.89066 1.85191 0
M  V30 77 N 7.3905 -1.2043 1.01659 0
M  V30 78 C 8.3375 -2.23215 0.586822 0
M  V30 79 C 9.3075 -1.61382 -0.393085 0
M  V30 80 O 10.4925 -1.88544 -0.292525 0
M  V30 81 C 7.6325 -3.45032 -0.0687464 0
M  V30 82 C 6.7455 -4.21296 0.955724 0
M  V30 83 C 5.8805 -5.30507 0.271208 0
M  V30 84 C 4.9195 -5.98515 1.28244 0
M  V30 85 N 4.0565 -6.99316 0.62459 0
M  V30 86 H 8.8965 -2.59336 1.46796 0
M  V30 87 H 6.4335 -1.27431 0.734836 0
M  V30 88 H 8.3915 -4.1459 -0.465965 0
M  V30 89 H 7.0215 -3.09604 -0.913529 0
M  V30 90 H 6.0735 -3.50803 1.4711 0
M  V30 91 H 7.3855 -4.6803 1.72479 0
M  V30 92 H 6.5395 -6.06428 -0.18151 0
M  V30 93 H 5.2785 -4.8481 -0.530163 0
M  V30 94 H 4.2835 -5.21355 1.74554 0
M  V30 95 H 5.5085 -6.46298 2.08509 0
M  V30 96 H 3.4545 -6.55812 -0.156914 0
M  V30 97 H 3.3715 -7.44178 1.33172 0
M  V30 98 H 4.6395 -7.79255 0.195462 0
M  V30 99 N 8.8686 -0.792821 -1.36206 0
M  V30 100 C 9.7986 -0.207853 -2.32573 0
M  V30 101 C 10.7796 0.659055 -1.56813 0
M  V30 102 O 11.9646 0.592176 -1.84951 0
M  V30 103 C 9.0946 0.655449 -3.41059 0
M  V30 104 C 8.0486 -0.111842 -4.27854 0
M  V30 105 C 7.3746 0.872274 -5.27537 0
M  V30 106 C 8.6746 -1.30299 -5.05786 0
M  V30 107 H 10.3686 -1.01294 -2.81744 0
M  V30 108 H 7.9146 -0.48854 -1.3546 0
M  V30 109 H 9.8676 1.07464 -4.07467 0
M  V30 110 H 8.5916 1.49328 -2.90463 0
M  V30 111 H 7.2506 -0.512053 -3.63006 0
M  V30 112 H 6.8986 1.70523 -4.73214 0
M  V30 113 H 6.5986 0.363291 -5.86476 0
M  V30 114 H 8.1226 1.28996 -5.96818 0
M  V30 115 H 9.5366 -0.959379 -5.65216 0
M  V30 116 H 7.9336 -1.7455 -5.74154 0
M  V30 117 H 9.0036 -2.09663 -4.37229 0
M  V30 118 N 10.3467 1.47872 -0.545128 0
M  V30 119 C 11.2967 2.26842 0.229456 0
M  V30 120 C 12.2807 1.33626 0.896267 0
M  V30 121 O 13.4727 1.58063 0.79657 0
M  V30 122 C 10.6017 3.19089 1.26638 0
M  V30 123 C 9.6877 4.19783 0.603598 0
M  V30 124 N 10.0787 5.0479 -0.319405 0
M  V30 125 C 8.3767 4.3765 0.858989 0
M  V30 126 C 9.0777 5.77433 -0.703241 0
M  V30 127 N 8.0537 5.43566 -0.0608309 0
M  V30 128 H 11.8557 2.89947 -0.480391 0
M  V30 129 H 9.3697 1.58263 -0.364209 0
M  V30 130 H 11.3667 3.74337 1.83515 0
M  V30 131 H 10.0267 2.5754 1.97745 0
M  V30 132 H 11.0377 5.13244 -0.692889 0
M  V30 133 H 7.7147 3.87281 1.55948 0
M  V30 134 H 9.1047 6.55824 -1.46098 0
M  V30 135 N 11.8248 0.280983 1.55075 0
M  V30 136 C 13.0548 -0.336804 2.03836 0
M  V30 137 C 13.4628 -1.49577 1.15859 0
M  V30 138 O 12.8058 -1.82888 0.172503 0
M  V30 139 C 12.8678 -0.874616 3.48699 0
M  V30 140 C 12.5318 0.156478 4.56732 0
M  V30 141 C 13.5288 0.978032 5.10618 0
M  V30 142 C 11.2138 0.292409 5.01448 0
M  V30 143 C 13.2078 1.92165 6.07743 0
M  V30 144 C 10.8948 1.23949 5.98398 0
M  V30 145 C 11.8928 2.05261 6.51427 0
M  V30 146 O 11.5808 2.98367 7.4648 0
M  V30 147 H 11.3128 -0.0800885 0.671239 0
M  V30 148 H 13.8668 0.412589 2.01213 0
M  V30 149 H 12.0968 -1.67418 3.4858 0
M  V30 150 H 13.7858 -1.40612 3.80766 0
M  V30 151 H 14.5518 0.883782 4.7688 0
M  V30 152 H 10.4308 -0.330498 4.59814 0
M  V30 153 H 13.9748 2.55672 6.49059 0
M  V30 154 H 9.8718 1.33454 6.31554 0
M  V30 155 H 10.6398 2.93116 7.64215 0
M  V30 156 N 13.3029 -1.57598 0.00835791 0
M  V30 157 C 14.7139 -1.7892 -0.53333 0
M  V30 158 C 15.0649 -0.916609 -1.73473 0
M  V30 159 O 14.1899 -0.121336 -2.1606 0
M  V30 160 C 14.7849 -3.24488 -0.974313 0
M  V30 161 C 13.3439 -3.46878 -1.46125 0
M  V30 162 C 12.4909 -2.74157 -0.416302 0
M  V30 163 H 15.4419 -1.56958 0.234495 0
M  V30 164 H 15.4629 -3.3306 -1.83988 0
M  V30 165 H 14.9749 -3.87972 -0.099718 0
M  V30 166 H 13.0759 -2.8862 -2.35646 0
M  V30 167 H 13.1889 -4.55572 -1.48295 0
M  V30 168 H 11.5529 -2.39022 -0.87981 0
M  V30 169 H 12.3359 -3.40345 0.44947 0
M  V30 170 N 14.781 0.264519 -1.55364 0
M  V30 171 C 15.729 1.34702 -1.89626 0
M  V30 172 C 16.723 1.50712 -0.773459 0
M  V30 173 O 17.929 1.52395 -0.957897 0
M  V30 174 H 14.304 0.450682 -0.601988 0
M  V30 175 H 16.275 1.0306 -2.80038 0
M  V30 176 C 15.024 2.6989 -2.19214 0
M  V30 177 H 14.347 2.58365 -3.05103 0
M  V30 178 H 15.787 3.44553 -2.47102 0
M  V30 179 C 14.246 3.21637 -1.00254 0
M  V30 180 O 14.776 4.00973 -0.241501 0
M  V30 181 N 12.982 2.7943 -0.797938 0
M  V30 182 H 12.529 2.15026 -1.4185 0
M  V30 183 H 12.487 3.144 -0.00363422 0
M  V30 184 N 16.2591 1.48442 0.529413 0
M  V30 185 C 17.5071 1.56179 1.28267 0
M  V30 186 C 17.8281 0.237721 1.93546 0
M  V30 187 O 17.0981 -0.740779 1.81354 0
M  V30 188 H 15.6781 0.575367 0.476405 0
M  V30 189 H 18.3401 1.84909 0.61602 0
M  V30 190 H 17.4361 2.34312 2.06165 0
M  V30 191 N 17.7372 -0.778329 1.37039 0
M  V30 192 C 19.1532 -1.07796 1.17695 0
M  V30 193 C 19.3532 -2.01498 0.00860115 0
M  V30 194 O 18.4092 -2.43901 -0.653352 0
M  V30 195 C 19.7222 -1.68178 2.49272 0
M  V30 196 C 21.2702 -1.80467 2.55735 0
M  V30 197 C 21.7452 -2.44263 3.87427 0
M  V30 198 N 23.2362 -2.51721 3.88833 0
M  V30 199 C 23.9712 -3.01919 4.87476 0
M  V30 200 N 23.4672 -3.5234 5.96513 0
M  V30 201 N 25.2602 -3.00733 4.74885 0
M  V30 202 H 17.4112 -0.156032 2.11826 0
M  V30 203 H 19.6742 -0.131844 0.938787 0
M  V30 204 H 19.3802 -1.06796 3.35093 0
M  V30 205 H 19.2542 -2.67554 2.65885 0
M  V30 206 H 21.6412 -2.40984 1.70325 0
M  V30 207 H 21.7222 -0.798656 2.43013 0
M  V30 208 H 21.3662 -1.84388 4.73248 0
M  V30 209 H 21.2962 -3.45458 3.9745 0
M  V30 210 H 23.7872 -2.1603 3.10063 0
M  V30 211 H 24.1002 -3.89027 6.67741 0
M  V30 212 H 22.4452 -3.50462 6.00168 0
M  V30 213 H 25.6362 -2.60638 3.88826 0
M  V30 214 H 25.8092 -3.39545 5.51918 0
M  V30 215 N 19.2153 -1.21501 -1.00376 0
M  V30 216 C 20.4633 -1.03095 -1.73827 0
M  V30 217 C 20.7843 0.436341 -1.90055 0
M  V30 218 O 20.0543 1.31466 -1.45236 0
M  V30 219 H 18.6343 -0.378487 -0.644016 0
M  V30 220 H 21.2963 -1.52831 -1.20949 0
M  V30 221 H 20.3923 -1.49991 -2.73695 0
M  V30 222 N 20.6934 1.19889 -1.02296 0
M  V30 223 C 22.1094 1.41462 -0.738954 0
M  V30 224 C 22.3094 1.89721 0.678846 0
M  V30 225 O 21.3654 2.07016 1.4457 0
M  V30 226 C 22.6784 2.43083 -1.77005 0
M  V30 227 C 24.2264 2.5684 -1.78892 0
M  V30 228 C 24.7014 3.61709 -2.80945 0
M  V30 229 N 26.1924 3.69199 -2.79725 0
M  V30 230 C 26.9274 4.50019 -3.55345 0
M  V30 231 N 26.4234 5.34592 -4.40662 0
M  V30 232 N 28.2164 4.44612 -3.43914 0
M  V30 233 H 20.3674 0.868827 -1.93817 0
M  V30 234 H 22.6304 0.44399 -0.837602 0
M  V30 235 H 22.3364 2.14636 -2.78612 0
M  V30 236 H 22.2104 3.4217 -1.58744 0
M  V30 237 H 24.5974 2.84614 -0.779674 0
M  V30 238 H 24.6784 1.57927 -2.01228 0
M  V30 239 H 24.3224 3.34678 -3.82038 0
M  V30 240 H 24.2524 4.60259 -2.5587 0
M  V30 241 H 26.7434 3.08794 -2.17842 0
M  V30 242 H 27.0564 5.93363 -4.95116 0
M  V30 243 H 25.4014 5.34073 -4.44737 0
M  V30 244 H 28.5924 3.7758 -2.76679 0
M  V30 245 H 28.7654 5.0736 -4.031 0
M  V30 246 N 22.1715 0.800033 1.35784 0
M  V30 247 C 23.1045 0.151499 2.27697 0
M  V30 248 C 24.0825 -0.678663 1.4776 0
M  V30 249 O 25.2665 -0.647358 1.77035 0
M  V30 250 C 22.3935 -0.790492 3.29346 0
M  V30 251 C 21.4395 -0.0407832 4.26481 0
M  V30 252 S 22.2725 1.29077 5.19711 0
M  V30 253 C 23.4285 0.353055 6.24903 0
M  V30 254 H 23.6615 0.930796 2.82353 0
M  V30 255 H 21.1945 0.594767 1.42485 0
M  V30 256 H 23.1525 -1.3285 3.88409 0
M  V30 257 H 21.8135 -1.54312 2.73581 0
M  V30 258 H 21.0065 -0.755971 4.98298 0
M  V30 259 H 20.6085 0.427063 3.71554 0
M  V30 260 H 22.9005 -0.464147 6.75908 0
M  V30 261 H 23.8435 1.04023 7.00418 0
M  V30 262 H 24.2515 -0.0483344 5.64479 0
M  V30 263 N 23.6496 -1.47581 0.552962 0
M  V30 264 C 24.5596 -2.33743 -0.200353 0
M  V30 265 C 25.5756 -1.47928 -0.916151 0
M  V30 266 O 26.7516 -1.80865 -0.885993 0
M  V30 267 C 23.8166 -3.24536 -1.21973 0
M  V30 268 C 22.8776 -4.26238 -0.511819 0
M  V30 269 C 22.1106 -5.12693 -1.48263 0
M  V30 270 O 22.3336 -5.01525 -2.71714 0
M  V30 271 O 21.2676 -5.93375 -1.00945 0
M  V30 272 H 25.0936 -2.9945 0.506304 0
M  V30 273 H 22.6786 -1.46071 0.313622 0
M  V30 274 H 24.5606 -3.80631 -1.80827 0
M  V30 275 H 23.2356 -2.61462 -1.90839 0
M  V30 276 H 22.1426 -3.73914 0.117799 0
M  V30 277 H 23.4756 -4.92014 0.135308 0
M  V30 278 N 25.1277 -0.289203 -1.54924 0
M  V30 279 C 26.3527 0.329299 -2.04769 0
M  V30 280 C 26.7777 1.4763 -1.16564 0
M  V30 281 O 26.1357 1.80527 -0.167186 0
M  V30 282 C 26.1837 0.774438 -3.52186 0
M  V30 283 O 25.2877 1.88038 -3.67036 0
M  V30 284 H 24.6287 0.0659259 -0.660719 0
M  V30 285 H 27.1587 -0.42761 -2.00082 0
M  V30 286 H 27.1687 1.06642 -3.93816 0
M  V30 287 H 25.8437 -0.0646707 -4.1585 0
M  V30 288 H 24.4207 1.58985 -3.3731 0
M  V30 289 N 26.6058 1.57591 -0.0167156 0
M  V30 290 C 27.8518 1.91567 0.665582 0
M  V30 291 C 28.1848 0.892298 1.72487 0
M  V30 292 O 27.4598 -0.0867127 1.94307 0
M  V30 293 C 27.7428 3.36069 1.29342 0
M  V30 294 C 27.5958 4.49135 0.244541 0
M  V30 295 C 28.9148 3.803 2.21495 0
M  V30 296 H 26.0338 0.69666 0.240488 0
M  V30 297 H 28.6758 1.89866 -0.0714356 0
M  V30 298 H 26.8258 3.3765 1.92158 0
M  V30 299 H 28.4978 4.59689 -0.385228 0
M  V30 300 H 26.7408 4.3165 -0.431379 0
M  V30 301 H 27.4118 5.47242 0.723207 0
M  V30 302 H 29.8878 3.80377 1.68678 0
M  V30 303 H 28.7638 4.82127 2.62382 0
M  V30 304 H 29.0248 3.15104 3.101 0
M  V30 305 N 28.0839 -0.256276 1.55502 0
M  V30 306 C 29.4999 -0.604325 1.47716 0
M  V30 307 C 29.6999 -1.88763 0.705039 0
M  V30 308 O 28.7559 -2.51445 0.230613 0
M  V30 309 C 30.0689 -0.715756 2.92057 0
M  V30 310 C 31.6169 -0.808706 3.02372 0
M  V30 311 C 32.0919 -0.951777 4.48001 0
M  V30 312 N 33.5829 -1.01688 4.519 0
M  V30 313 C 34.3179 -1.14668 5.61817 0
M  V30 314 N 33.8139 -1.24261 6.81565 0
M  V30 315 N 35.6069 -1.1791 5.49594 0
M  V30 316 H 27.7579 0.586291 2.04148 0
M  V30 317 H 30.0209 0.201015 0.926443 0
M  V30 318 H 29.7269 0.157027 3.51349 0
M  V30 319 H 29.6009 -1.59071 3.42018 0
M  V30 320 H 31.9879 -1.67195 2.43166 0
M  V30 321 H 32.0689 0.0912063 2.55637 0
M  V30 322 H 31.7129 -0.0931291 5.07815 0
M  V30 323 H 31.6429 -1.86659 4.92408 0
M  V30 324 H 34.1339 -0.954468 3.65648 0
M  V30 325 H 34.4469 -1.34046 7.61086 0
M  V30 326 H 32.7919 -1.21236 6.84344 0
M  V30 327 H 35.9829 -1.10057 4.54978 0
M  V30 328 H 36.1559 -1.27681 6.35296 0
M  V30 329 N 29.562 -1.4872 -0.521534 0
M  V30 330 C 30.808 -1.58378 -1.27624 0
M  V30 331 C 31.163 -0.258028 -1.90662 0
M  V30 332 O 30.456 0.739917 -1.76736 0
M  V30 333 C 30.65 -2.66497 -2.38148 0
M  V30 334 C 30.479 -4.09456 -1.85945 0
M  V30 335 C 29.249 -4.76495 -1.68168 0
M  V30 336 C 31.447 -4.95353 -1.3831 0
M  V30 337 N 29.429 -6.0384 -1.1068 0
M  V30 338 C 30.8 -6.13012 -0.928238 0
M  V30 339 C 32.855 -4.81512 -1.26692 0
M  V30 340 C 31.558 -7.18354 -0.368701 0
M  V30 341 C 33.584 -5.86984 -0.721368 0
M  V30 342 C 32.946 -7.03857 -0.276623 0
M  V30 343 H 29.045 -0.634045 -0.457724 0
M  V30 344 H 31.629 -1.85639 -0.587049 0
M  V30 345 H 29.8 -2.41043 -3.04553 0
M  V30 346 H 31.532 -2.65791 -3.05184 0
M  V30 347 H 28.287 -4.32962 -1.91939 0
M  V30 348 H 28.711 -6.71778 -0.839217 0
M  V30 349 H 33.353 -3.91487 -1.5968 0
M  V30 350 H 31.071 -8.08096 -0.0265122 0
M  V30 351 H 34.657 -5.78329 -0.634531 0
M  V30 352 H 33.537 -7.84077 0.138947 0
M  V30 353 N 31.0401 0.771051 -1.3745 0
M  V30 354 C 32.2861 1.5319 -1.32894 0
M  V30 355 C 32.6191 1.94008 0.0862511 0
M  V30 356 O 31.8941 1.64124 1.04373 0
M  V30 357 C 32.1771 2.79648 -2.26868 0
M  V30 358 C 32.0301 2.45079 -3.77169 0
M  V30 359 C 33.3491 3.81583 -2.19277 0
M  V30 360 H 30.4681 0.555744 -0.484064 0
M  V30 361 H 33.1101 0.884492 -1.68157 0
M  V30 362 H 31.2601 3.34891 -1.96926 0
M  V30 363 H 32.9321 1.95745 -4.1771 0
M  V30 364 H 31.1751 1.77767 -3.95704 0
M  V30 365 H 31.8461 3.35478 -4.38359 0
M  V30 366 H 34.3221 3.35835 -2.45671 0
M  V30 367 H 33.1981 4.67787 -2.87171 0
M  V30 368 H 33.4591 4.25897 -1.18592 0
M  V30 369 N 32.5182 1.22032 0.997298 0
M  V30 370 C 33.4482 1.01065 2.10495 0
M  V30 371 C 34.4292 -0.0669542 1.69968 0
M  V30 372 O 35.6142 0.0943987 1.9397 0
M  V30 373 C 32.7442 0.582874 3.42374 0
M  V30 374 C 31.6982 1.60592 3.96729 0
M  V30 375 C 31.0242 1.03412 5.24605 0
M  V30 376 C 32.3242 2.99478 4.27914 0
M  V30 377 H 34.0182 1.93708 2.28292 0
M  V30 378 H 31.5642 0.932761 1.09707 0
M  V30 379 H 33.5172 0.423332 4.19268 0
M  V30 380 H 32.2412 -0.379213 3.24391 0
M  V30 381 H 30.9002 1.75316 3.21963 0
M  V30 382 H 30.5482 0.063518 5.0296 0
M  V30 383 H 30.2482 1.71754 5.61938 0
M  V30 384 H 31.7722 0.886066 6.04137 0
M  V30 385 H 33.1862 2.88153 4.95622 0
M  V30 386 H 31.5832 3.64903 4.76409 0
M  V30 387 H 32.6532 3.49742 3.3587 0
M  V30 388 N 33.9963 -1.19345 1.0293 0
M  V30 389 C 34.9593 -2.20793 0.615069 0
M  V30 390 C 35.9593 -1.57553 -0.321533 0
M  V30 391 O 37.1493 -1.73862 -0.108483 0
M  V30 392 C 34.2813 -3.40754 -0.0999222 0
M  V30 393 H 35.4743 -2.58955 1.51269 0
M  V30 394 H 33.0273 -1.3303 0.820534 0
M  V30 395 H 33.7623 -3.0811 -1.01187 0
M  V30 396 H 33.5473 -3.87889 0.57309 0
M  V30 397 H 35.0373 -4.15898 -0.376645 0
M  V30 398 N 35.4744 -0.807222 -1.35358 0
M  V30 399 C 36.4374 -0.223665 -2.28106 0
M  V30 400 C 37.4374 0.589354 -1.4961 0
M  V30 401 O 38.6274 0.407745 -1.69361 0
M  V30 402 C 35.7594 0.688149 -3.33882 0
M  V30 403 H 36.9524 -1.04169 -2.81227 0
M  V30 404 H 34.5054 -0.577921 -1.45223 0
M  V30 405 H 35.2404 1.52984 -2.85948 0
M  V30 406 H 35.0254 0.10687 -3.91954 0
M  V30 407 H 36.5154 1.09075 -4.03104 0
M  V30 408 N 36.9525 1.47285 -0.560781 0
M  V30 409 C 37.9155 2.28535 0.174488 0
M  V30 410 C 38.9155 1.37153 0.839388 0
M  V30 411 O 40.1055 1.59748 0.694702 0
M  V30 412 C 37.2375 3.16934 1.25561 0
M  V30 413 H 38.4305 2.95012 -0.539262 0
M  V30 414 H 35.9835 1.53034 -0.317865 0
M  V30 415 H 36.7185 2.55157 2.00164 0
M  V30 416 H 36.5035 3.8419 0.783604 0
M  V30 417 H 37.9935 3.78143 1.77193 0
M  V30 418 N 38.4306 0.297415 1.54768 0
M  V30 419 C 39.6786 -0.312295 1.99673 0
M  V30 420 C 39.9996 -1.54686 1.18732 0
M  V30 421 O 39.2696 -1.93854 0.282382 0
M  V30 422 H 37.8496 -0.118381 0.73756 0
M  V30 423 H 40.5116 0.407915 1.90583 0
M  V30 424 H 39.6076 -0.586813 3.06534 0
M  V30 425 N 39.9087 -1.5758 0.0250728 0
M  V30 426 C 41.1547 -1.91917 -0.655413 0
M  V30 427 C 41.4877 -0.901433 -1.72011 0
M  V30 428 O 40.7627 0.0764069 -1.9435 0
M  V30 429 C 41.0457 -3.36751 -1.27558 0
M  V30 430 C 40.8987 -4.49258 -0.220719 0
M  V30 431 C 42.2177 -3.81469 -2.19475 0
M  V30 432 H 39.3367 -0.697925 -0.23679 0
M  V30 433 H 41.9787 -1.89825 0.0815036 0
M  V30 434 H 40.1287 -3.38664 -1.90365 0
M  V30 435 H 41.8007 -4.59478 0.409601 0
M  V30 436 H 40.0437 -4.31415 0.454264 0
M  V30 437 H 40.7147 -5.47618 -0.694175 0
M  V30 438 H 43.1907 -3.81266 -1.66659 0
M  V30 439 H 42.0667 -4.83512 -2.59822 0
M  V30 440 H 42.3277 -3.16744 -3.08424 0
M  V30 441 N 41.3868 0.248026 -1.55636 0
M  V30 442 C 42.2968 1.32859 -1.93354 0
M  V30 443 C 43.3128 1.52719 -0.833838 0
M  V30 444 O 44.4888 1.66363 -1.13513 0
M  V30 445 C 41.5538 2.66337 -2.21958 0
M  V30 446 C 40.6148 2.55008 -3.45354 0
M  V30 447 C 39.8478 3.82121 -3.72584 0
M  V30 448 O 40.0708 4.83951 -3.01907 0
M  V30 449 O 39.0048 3.80822 -4.6611 0
M  V30 450 H 42.8308 1.03862 -2.85388 0
M  V30 451 H 40.4158 0.448686 -1.42503 0
M  V30 452 H 42.2978 3.45216 -2.4167 0
M  V30 453 H 40.9728 2.95068 -1.33103 0
M  V30 454 H 39.8798 1.7442 -3.30951 0
M  V30 455 H 41.2128 2.31222 -4.34508 0
M  V30 456 N 42.8649 1.48995 0.513639 0
M  V30 457 C 44.1119 1.57843 1.26854 0
M  V30 458 C 44.4399 0.259501 1.92761 0
M  V30 459 O 43.6949 -0.75159 1.80692 0
M  V30 460 C 43.9939 2.67756 2.36731 0
M  V30 461 C 43.6599 4.09669 1.88368 0
M  V30 462 C 42.3219 4.48291 1.74896 0
M  V30 463 C 44.6739 4.98537 1.52021 0
M  V30 464 C 42.0019 5.73568 1.23438 0
M  V30 465 C 44.3539 6.24319 1.0202 0
M  V30 466 C 43.0179 6.61783 0.871778 0
M  V30 467 H 42.2879 0.577587 0.464192 0
M  V30 468 H 44.9349 1.82778 0.571366 0
M  V30 469 H 43.2399 2.36743 3.12185 0
M  V30 470 H 44.9369 2.71813 2.9482 0
M  V30 471 H 41.5269 3.79176 1.99808 0
M  V30 472 H 45.7109 4.69363 1.61281 0
M  V30 473 H 40.9669 6.01304 1.10648 0
M  V30 474 H 45.1409 6.92566 0.729722 0
M  V30 475 H 42.7679 7.5874 0.470852 0
M  V30 476 N 44.343 -0.763751 1.37857 0
M  V30 477 C 45.62 -1.51244 1.24035 0
M  V30 478 C 46 -2.10472 -0.162649 0
M  V30 479 O 45.348 -1.96206 -1.17112 0
M  V30 480 C 45.558 -2.58694 2.34261 0
M  V30 481 C 46.906 -3.25878 2.72193 0
M  V30 482 O 47.93 -2.68993 2.33497 0
M  V30 483 O 46.789 -4.2874 3.38887 0
M  V30 484 H 43.883 -0.670243 0.484462 0
M  V30 485 H 46.429 -0.800031 1.49658 0
M  V30 486 H 45.201 -2.13105 3.2818 0
M  V30 487 H 44.824 -3.37527 2.10146 0
M  V30 488 N 45.8211 -1.22559 -0.990812 0
M  V30 489 C 46.7311 -1.01394 -2.11557 0
M  V30 490 C 47.7471 0.0383962 -1.73958 0
M  V30 491 O 48.9231 -0.154787 -2.00804 0
M  V30 492 C 45.9881 -0.596569 -3.41529 0
M  V30 493 C 45.0491 -1.72276 -3.93217 0
M  V30 494 C 44.2821 -1.32521 -5.16985 0
M  V30 495 O 44.5051 -0.204909 -5.70032 0
M  V30 496 O 43.4391 -2.14247 -5.62478 0
M  V30 497 H 47.2651 -1.95633 -2.32296 0
M  V30 498 H 44.8501 -1.01172 -1.0993 0
M  V30 499 H 46.7321 -0.374263 -4.19735 0
M  V30 500 H 45.4071 0.316939 -3.22145 0
M  V30 501 H 44.3141 -1.99961 -3.16174 0
M  V30 502 H 45.6471 -2.61421 -4.17037 0
M  V30 503 N 47.2992 1.18797 -1.03562 0
M  V30 504 C 48.2092 2.25913 -0.632505 0
M  V30 505 C 49.2252 1.70668 0.338882 0
M  V30 506 O 50.4012 2.00453 0.195076 0
M  V30 507 C 47.4662 3.467 0.00350942 0
M  V30 508 C 46.5272 4.17098 -1.01624 0
M  V30 509 C 45.7602 5.32119 -0.410478 0
M  V30 510 O 45.9832 5.64976 0.784725 0
M  V30 511 O 44.9172 5.9107 -1.13667 0
M  V30 512 H 48.7432 2.62648 -1.52478 0
M  V30 513 H 46.3282 1.25781 -0.806195 0
M  V30 514 H 48.2102 4.19878 0.35781 0
M  V30 515 H 46.8852 3.11798 0.869686 0
M  V30 516 H 45.7922 3.4601 -1.42224 0
M  V30 517 H 47.1252 4.55987 -1.85301 0
M  V30 518 N 48.7773 0.814389 1.34928 0
M  V30 519 C 50.0243 0.398423 1.98542 0
M  V30 520 C 50.3523 -1.03638 1.64589 0
M  V30 521 O 49.6073 -1.73509 0.90516 0
M  V30 522 C 49.9063 0.537781 3.53331 0
M  V30 523 C 49.5723 1.93704 4.07172 0
M  V30 524 C 48.2343 2.31984 4.21589 0
M  V30 525 C 50.5863 2.85213 4.36237 0
M  V30 526 C 47.9143 3.61125 4.62391 0
M  V30 527 C 50.2663 4.13809 4.78482 0
M  V30 528 C 48.9303 4.52077 4.91104 0
M  V30 529 H 48.2003 0.145793 0.726516 0
M  V30 530 H 50.8473 1.03669 1.61012 0
M  V30 531 H 49.1523 -0.183906 3.91368 0
M  V30 532 H 50.8493 0.196588 4.00518 0
M  V30 533 H 47.4393 1.62966 3.96409 0
M  V30 534 H 51.6233 2.56885 4.24645 0
M  V30 535 H 46.8793 3.90612 4.70353 0
M  V30 536 H 51.0533 4.84811 4.99932 0
M  V30 537 H 48.6803 5.52196 5.22478 0
M  V30 538 N 50.2554 -1.46986 0.568584 0
M  V30 539 C 51.1854 -2.32946 -0.160753 0
M  V30 540 C 52.1664 -1.44487 -0.897631 0
M  V30 541 O 53.3514 -1.73327 -0.875867 0
M  V30 542 C 50.4814 -3.26494 -1.18403 0
M  V30 543 C 49.4354 -4.24282 -0.562895 0
M  V30 544 C 48.7614 -5.07236 -1.69163 0
M  V30 545 C 50.0614 -5.19989 0.490761 0
M  V30 546 H 51.7554 -2.94175 0.556916 0
M  V30 547 H 49.3014 -1.4146 0.26927 0
M  V30 548 H 51.2544 -3.85477 -1.70251 0
M  V30 549 H 49.9784 -2.63343 -1.93179 0
M  V30 550 H 48.6374 -3.66541 -0.0656164 0
M  V30 551 H 48.2854 -4.4048 -2.42871 0
M  V30 552 H 47.9854 -5.7345 -1.28174 0
M  V30 553 H 49.5094 -5.6908 -2.21314 0
M  V30 554 H 50.9234 -5.73271 0.0579047 0
M  V30 555 H 49.3204 -5.94469 0.820165 0
M  V30 556 H 50.3904 -4.64777 1.3824 0
M  V30 557 N 51.7335 -0.305618 -1.54608 0
M  V30 558 C 52.6435 0.57778 -2.27374 0
M  V30 559 C 53.6595 1.14451 -1.31061 0
M  V30 560 O 54.8355 1.16831 -1.6405 0
M  V30 561 C 51.9005 1.73123 -3.00382 0
M  V30 562 C 50.9615 1.19812 -4.12242 0
M  V30 563 C 50.1945 2.2966 -4.81759 0
M  V30 564 O 50.4175 3.49651 -4.50666 0
M  V30 565 O 49.3515 1.96091 -5.69062 0
M  V30 566 H 53.1775 -0.012624 -3.03697 0
M  V30 567 H 50.7625 -0.0719184 -1.49227 0
M  V30 568 H 52.6445 2.40315 -3.4616 0
M  V30 569 H 51.3195 2.30815 -2.26949 0
M  V30 570 H 50.2265 0.491798 -3.70853 0
M  V30 571 H 51.5595 0.666566 -4.87666 0
M  V30 572 N 53.2116 1.57565 -0.0334293 0
M  V30 573 C 54.4396 1.9628 0.654347 0
M  V30 574 C 54.8546 0.910138 1.65414 0
M  V30 575 O 54.2116 -0.107595 1.82183 0
M  V30 576 C 54.2626 3.35067 1.35693 0
M  V30 577 O 53.9836 4.36296 0.397191 0
M  V30 578 C 55.4846 3.88439 2.13613 0
M  V30 579 H 52.7046 0.646369 0.180132 0
M  V30 580 H 55.2486 2.04282 -0.0944721 0
M  V30 581 H 53.4036 3.2827 2.05712 0
M  V30 582 H 53.8176 5.1678 0.896597 0
M  V30 583 H 55.2916 4.8788 2.58219 0
M  V30 584 H 55.7686 3.22914 2.97696 0
M  V30 585 H 56.3746 3.98516 1.48543 0
M  V30 586 N 54.6897 -0.239769 1.55765 0
M  V30 587 C 55.6367 -1.29696 1.90913 0
M  V30 588 C 56.6067 -1.47478 0.764164 0
M  V30 589 O 57.7917 -1.61345 1.01845 0
M  V30 590 C 54.9317 -2.64598 2.21544 0
M  V30 591 C 54.0447 -2.54765 3.48882 0
M  V30 592 C 53.1797 -3.82069 3.69049 0
M  V30 593 C 52.2187 -3.66883 4.89963 0
M  V30 594 N 51.3557 -4.86094 5.06614 0
M  V30 595 H 56.1957 -0.990224 2.81067 0
M  V30 596 H 53.7327 -0.477684 1.39128 0
M  V30 597 H 55.6907 -3.43132 2.3731 0
M  V30 598 H 54.3207 -2.93405 1.34585 0
M  V30 599 H 53.3727 -1.67763 3.41409 0
M  V30 600 H 54.6847 -2.39457 4.37563 0
M  V30 601 H 53.8387 -4.69046 3.84812 0
M  V30 602 H 52.5777 -4.00282 2.78614 0
M  V30 603 H 51.5827 -2.78289 4.74168 0
M  V30 604 H 52.8077 -3.50157 5.81865 0
M  V30 605 H 50.7537 -5.04655 4.19117 0
M  V30 606 H 50.6707 -4.73443 5.89396 0
M  V30 607 H 51.9387 -5.74549 5.26795 0
M  V30 608 N 56.1678 -1.49265 -0.50573 0
M  V30 609 C 57.0778 -1.68312 -1.63427 0
M  V30 610 C 58.0938 -0.565682 -1.64548 0
M  V30 611 O 59.2698 -0.839801 -1.83055 0
M  V30 612 C 56.3348 -1.74107 -2.99813 0
M  V30 613 C 55.3958 -2.97653 -3.09356 0
M  V30 614 C 54.6288 -3.03163 -4.39236 0
M  V30 615 O 54.8518 -2.16396 -5.27758 0
M  V30 616 O 53.7858 -3.9558 -4.53652 0
M  V30 617 H 57.6118 -2.63907 -1.50289 0
M  V30 618 H 55.1968 -1.32951 -0.681502 0
M  V30 619 H 57.0788 -1.803 -3.80881 0
M  V30 620 H 55.7538 -0.816901 -3.13223 0
M  V30 621 H 54.6608 -2.96981 -2.27493 0
M  V30 622 H 55.9938 -3.89535 -3.00871 0
M  V30 623 N 57.6459 0.756429 -1.3826 0
M  V30 624 C 58.5779 1.87971 -1.31147 0
M  V30 625 C 59.5909 1.61248 -0.224239 0
M  V30 626 O 60.7799 1.71881 -0.481581 0
M  V30 627 C 57.8799 3.23545 -1.00857 0
M  V30 628 C 57.0529 3.77794 -2.20432 0
M  V30 629 C 56.1119 4.91877 -1.86931 0
M  V30 630 O 55.1379 5.06659 -2.59395 0
M  V30 631 N 56.3399 5.74643 -0.822568 0
M  V30 632 H 59.1049 1.94585 -2.2794 0
M  V30 633 H 56.6659 0.936234 -1.32084 0
M  V30 634 H 58.6579 3.97403 -0.765021 0
M  V30 635 H 57.2279 3.12335 -0.128687 0
M  V30 636 H 56.4479 2.95534 -2.6087 0
M  V30 637 H 57.7359 4.10771 -3.00241 0
M  V30 638 H 57.1339 5.65266 -0.221575 0
M  V30 639 H 55.6909 6.48661 -0.638899 0
M  V30 640 N 59.124 1.23083 0.984299 0
M  V30 641 C 60.054 1.03292 2.09411 0
M  V30 642 C 61.035 -0.048923 1.7003 0
M  V30 643 O 62.22 0.114967 1.93859 0
M  V30 644 C 59.35 0.619155 3.41736 0
M  V30 645 C 58.304 1.64791 3.95004 0
M  V30 646 C 57.63 1.0897 5.23478 0
M  V30 647 C 58.93 3.03999 4.24714 0
M  V30 648 H 60.624 1.96119 2.26225 0
M  V30 649 H 58.17 0.944344 1.08711 0
M  V30 650 H 60.123 0.467777 4.18796 0
M  V30 651 H 58.847 -0.344786 3.24775 0
M  V30 652 H 57.506 1.78721 3.20085 0
M  V30 653 H 57.154 0.11686 5.02864 0
M  V30 654 H 56.854 1.77704 5.60085 0
M  V30 655 H 58.378 0.950093 6.03163 0
M  V30 656 H 59.792 2.93393 4.92538 0
M  V30 657 H 58.189 3.69936 4.72512 0
M  V30 658 H 59.259 3.53285 3.32142 0
M  V30 659 N 60.6021 -1.18246 1.0419 0
M  V30 660 C 61.8321 -1.91916 0.764961 0
M  V30 661 C 62.2401 -1.76485 -0.681898 0
M  V30 662 O 61.5831 -1.09275 -1.47664 0
M  V30 663 C 61.6451 -3.4373 1.05309 0
M  V30 664 C 61.3091 -3.8294 2.4941 0
M  V30 665 C 62.3061 -3.86621 3.47592 0
M  V30 666 C 59.9911 -4.142 2.84155 0
M  V30 667 C 61.9851 -4.21013 4.78568 0
M  V30 668 C 59.6721 -4.48262 4.15337 0
M  V30 669 C 60.6701 -4.51645 5.12353 0
M  V30 670 O 60.3581 -4.84911 6.41183 0
M  V30 671 H 60.0901 -0.61606 0.278292 0
M  V30 672 H 62.6441 -1.50947 1.39299 0
M  V30 673 H 60.8741 -3.84946 0.367933 0
M  V30 674 H 62.5631 -3.9865 0.763752 0
M  V30 675 H 63.3291 -3.62607 3.22089 0
M  V30 676 H 59.2081 -4.10743 2.09311 0
M  V30 677 H 62.7521 -4.23568 5.54289 0
M  V30 678 H 58.6491 -4.71737 4.40607 0
M  V30 679 H 59.4171 -5.02809 6.45852 0
M  V30 680 N 62.0802 -0.821533 -1.34494 0
M  V30 681 C 63.0272 -0.240397 -2.29545 0
M  V30 682 C 63.9972 0.634031 -1.53523 0
M  V30 683 O 65.1822 0.575966 -1.81899 0
M  V30 684 C 62.3222 0.592869 -3.39969 0
M  V30 685 C 61.4352 -0.30365 -4.30932 0
M  V30 686 C 60.5702 0.539049 -5.28458 0
M  V30 687 C 59.6092 -0.356942 -6.11058 0
M  V30 688 N 58.7462 0.446603 -7.00678 0
M  V30 689 H 63.5862 -1.05632 -2.7865 0
M  V30 690 H 61.1232 -0.532413 -1.37127 0
M  V30 691 H 63.0812 1.09129 -4.02675 0
M  V30 692 H 61.7112 1.37392 -2.92102 0
M  V30 693 H 60.7632 -0.920276 -3.691 0
M  V30 694 H 62.0752 -0.992661 -4.88823 0
M  V30 695 H 61.2292 1.102 -5.96608 0
M  V30 696 H 59.9682 1.26157 -4.71101 0
M  V30 697 H 58.9732 -0.932047 -5.41842 0
M  V30 698 H 60.1982 -1.07755 -6.70497 0
M  V30 699 H 58.1442 1.15282 -6.45791 0
M  V30 700 H 58.0612 -0.184048 -7.55776 0
M  V30 701 H 59.3292 0.992352 -7.73158 0
M  V30 702 N 63.5583 1.46682 -0.576371 0
M  V30 703 C 64.4883 2.33028 0.148397 0
M  V30 704 C 65.4693 1.44961 0.889956 0
M  V30 705 O 66.6543 1.73789 0.866662 0
M  V30 706 C 63.7843 3.27117 1.1667 0
M  V30 707 C 62.7383 4.24575 0.540386 0
M  V30 708 C 62.0643 5.08126 1.6647 0
M  V30 709 C 63.3643 5.19722 -0.518331 0
M  V30 710 H 65.0583 2.93875 -0.572509 0
M  V30 711 H 62.6043 1.41315 -0.276768 0
M  V30 712 H 64.5573 3.86374 1.68204 0
M  V30 713 H 63.2813 2.64364 1.9178 0
M  V30 714 H 61.9403 3.66571 0.0461769 0
M  V30 715 H 61.5883 4.41762 2.40531 0
M  V30 716 H 61.2883 5.74122 1.25131 0
M  V30 717 H 62.8123 5.70246 2.18293 0
M  V30 718 H 64.2263 5.73232 -0.0883058 0
M  V30 719 H 62.6233 5.94026 -0.851679 0
M  V30 720 H 63.6933 4.64037 -1.40703 0
M  V30 721 N 65.0364 0.313813 1.54444 0
M  V30 722 C 65.9684 -0.590425 2.21465 0
M  V30 723 C 66.9814 -1.08753 1.21147 0
M  V30 724 O 68.1704 -1.00278 1.4767 0
M  V30 725 C 65.2704 -1.82179 2.85769 0
M  V30 726 C 64.4434 -1.46502 4.12136 0
M  V30 727 C 63.5024 -2.55288 4.60124 0
M  V30 728 O 62.5284 -2.19842 5.25032 0
M  V30 729 N 63.7304 -3.86053 4.33525 0
M  V30 730 H 66.4954 -0.0166033 2.99695 0
M  V30 731 H 64.0564 0.136578 1.61323 0
M  V30 732 H 66.0484 -2.54328 3.14801 0
M  V30 733 H 64.6184 -2.30369 2.11303 0
M  V30 734 H 63.8384 -0.575595 3.89975 0
M  V30 735 H 65.1264 -1.20221 4.94393 0
M  V30 736 H 64.5244 -4.17654 3.81552 0
M  V30 737 H 63.0814 -4.54461 4.67235 0
M  V30 738 N 66.5145 -1.57545 0.0417849 0
M  V30 739 C 67.7915 -1.83642 -0.673433 0
M  V30 740 C 68.1715 -0.928298 -1.89594 0
M  V30 741 O 67.5195 0.0129955 -2.28496 0
M  V30 742 C 67.7295 -3.33155 -1.03964 0
M  V30 743 C 69.0775 -3.99941 -1.42592 0
M  V30 744 O 70.1015 -3.37725 -1.13226 0
M  V30 745 O 68.9605 -5.09619 -1.9736 0
M  V30 746 H 66.0545 -0.757638 -0.331533 0
M  V30 747 H 68.6005 -1.69554 0.070433 0
M  V30 748 H 67.3725 -3.9093 -0.170098 0
M  V30 749 H 66.9955 -3.52396 -1.84126 0
M  V30 750 N 67.9926 0.231505 -1.5589 0
M  V30 751 C 69.2406 0.955461 -1.78088 0
M  V30 752 C 69.5616 1.85262 -0.608533 0
M  V30 753 O 68.8316 1.92277 0.375035 0
M  V30 754 H 67.4116 0.355787 -0.656829 0
M  V30 755 H 70.0736 0.245751 -1.93344 0
M  V30 756 H 69.1696 1.56814 -2.69844 0
M  V30 757 N 69.4707 1.49531 0.497807 0
M  V30 758 C 70.4187 1.66926 1.61983 0
M  V30 759 C 71.4127 0.535167 1.60724 0
M  V30 760 O 72.6187 0.714896 1.65195 0
M  V30 761 H 68.9937 0.526415 0.537021 0
M  V30 762 H 70.9647 2.61098 1.44465 0
M  V30 763 C 69.7137 1.75602 3.00099 0
M  V30 764 H 69.0367 2.62244 3.01775 0
M  V30 765 H 70.4767 1.91807 3.78135 0
M  V30 766 C 68.9357 0.501543 3.33146 0
M  V30 767 O 69.4657 -0.371342 3.9998 0
M  V30 768 N 67.6717 0.363531 2.88317 0
M  V30 769 H 67.2187 1.07485 2.34104 0
M  V30 770 H 67.1767 -0.474728 3.10795 0
M  V30 771 N 70.9488 -0.749086 1.3866 0
M  V30 772 C 71.8988 -1.85368 1.32751 0
M  V30 773 C 72.8828 -1.59511 0.210945 0
M  V30 774 O 74.0748 -1.71255 0.447299 0
M  V30 775 C 71.2038 -3.23131 1.15935 0
M  V30 776 C 70.2898 -3.54864 2.32233 0
M  V30 777 N 70.6808 -3.57625 3.57684 0
M  V30 778 C 68.9788 -3.85154 2.24883 0
M  V30 779 C 69.6798 -3.86753 4.34508 0
M  V30 780 N 68.6558 -4.03812 3.63918 0
M  V30 781 H 72.4578 -1.85787 2.27729 0
M  V30 782 H 69.9718 -0.946658 1.31955 0
M  V30 783 H 71.9688 -4.02185 1.09786 0
M  V30 784 H 70.6288 -3.23961 0.218947 0
M  V30 785 H 71.6398 -3.39276 3.91295 0
M  V30 786 H 68.3168 -3.93672 1.39027 0
M  V30 787 H 69.7068 -3.95474 5.43185 0
M  V30 788 N 72.4269 -1.23603 -0.977757 0
M  V30 789 C 73.3569 -1.04401 -2.0886 0
M  V30 790 C 74.3379 0.0399052 -1.70053 0
M  V30 791 O 75.5229 -0.125246 -1.93796 0
M  V30 792 C 72.6529 -0.637269 -3.41403 0
M  V30 793 C 71.6069 -1.66883 -3.94124 0
M  V30 794 C 70.9329 -1.11745 -5.22893 0
M  V30 795 C 72.2329 -3.06247 -4.23096 0
M  V30 796 H 73.9269 -1.97316 -2.25182 0
M  V30 797 H 71.4729 -0.950096 -1.08209 0
M  V30 798 H 73.4259 -0.48998 -4.18542 0
M  V30 799 H 72.1499 0.327557 -3.24953 0
M  V30 800 H 70.8089 -1.80416 -3.19133 0
M  V30 801 H 70.4569 -0.143527 -5.02795 0
M  V30 802 H 70.1569 -1.80672 -5.59134 0
M  V30 803 H 71.6809 -0.982067 -6.02651 0
M  V30 804 H 73.0949 -2.96001 -4.90975 0
M  V30 805 H 71.4919 -3.72436 -4.70544 0
M  V30 806 H 72.5619 -3.55041 -3.30263 0
M  V30 807 N 73.905 1.17692 -1.04816 0
M  V30 808 C 74.835 2.23777 -0.666791 0
M  V30 809 C 75.816 1.66796 0.33361 0
M  V30 810 O 77.001 1.93039 0.212042 0
M  V30 811 C 74.131 3.47281 -0.0367933 0
M  V30 812 C 73.085 4.17059 -0.961546 0
M  V30 813 C 72.411 5.34342 -0.195626 0
M  V30 814 C 73.711 4.69713 -2.28402 0
M  V30 815 H 75.405 2.55933 -1.55367 0
M  V30 816 H 72.951 1.23019 -0.748484 0
M  V30 817 H 74.904 4.20706 0.241775 0
M  V30 818 H 73.628 3.14381 0.885004 0
M  V30 819 H 72.287 3.45541 -1.22462 0
M  V30 820 H 71.935 4.97692 0.728816 0
M  V30 821 H 71.635 5.81966 -0.811775 0
M  V30 822 H 73.159 6.10553 0.0757473 0
M  V30 823 H 74.573 5.34794 -2.06563 0
M  V30 824 H 72.97 5.279 -2.8538 0
M  V30 825 H 74.04 3.86726 -2.92525 0
M  V30 826 N 75.3831 0.828654 1.34056 0
M  V30 827 C 76.6301 0.419458 1.98108 0
M  V30 828 C 76.9581 -1.01886 1.65679 0
M  V30 829 O 76.2131 -1.72539 0.923512 0
M  V30 830 C 76.5121 0.575226 3.52741 0
M  V30 831 C 76.1781 1.98012 4.05095 0
M  V30 832 C 74.8401 2.36442 4.19104 0
M  V30 833 C 77.1921 2.89824 4.33188 0
M  V30 834 C 74.5201 3.66009 4.58535 0
M  V30 835 C 76.8721 4.1886 4.74066 0
M  V30 836 C 75.5361 4.5726 4.86281 0
M  V30 837 H 74.8061 0.153491 0.724929 0
M  V30 838 H 77.4531 1.05371 1.59904 0
M  V30 839 H 75.7581 -0.142385 3.91541 0
M  V30 840 H 77.4551 0.239057 4.00287 0
M  V30 841 H 74.0451 1.67162 3.94658 0
M  V30 842 H 78.2291 2.61375 4.21897 0
M  V30 843 H 73.4851 3.95579 4.66184 0
M  V30 844 H 77.6591 4.90086 4.94761 0
M  V30 845 H 75.2861 5.57707 5.16592 0
M  V30 846 N 76.8612 -1.46375 0.584142 0
M  V30 847 C 77.7932 -2.28443 -0.186119 0
M  V30 848 C 78.8062 -1.38596 -0.854115 0
M  V30 849 O 79.9952 -1.63183 -0.723438 0
M  V30 850 C 77.0952 -3.13671 -1.28311 0
M  V30 851 C 76.2682 -4.31652 -0.706758 0
M  V30 852 C 75.3272 -4.98267 -1.69163 0
M  V30 853 O 74.3532 -5.55815 -1.22712 0
M  V30 854 N 75.5552 -4.95408 -3.02575 0
M  V30 855 H 78.3202 -2.9519 0.517986 0
M  V30 856 H 75.8812 -1.56303 0.42201 0
M  V30 857 H 77.8732 -3.55101 -1.94128 0
M  V30 858 H 76.4432 -2.48989 -1.89005 0
M  V30 859 H 75.6632 -3.93989 0.128908 0
M  V30 860 H 76.9512 -5.07906 -0.301506 0
M  V30 861 H 76.3492 -4.49902 -3.42936 0
M  V30 862 H 74.9062 -5.40774 -3.63877 0
M  V30 863 N 78.3393 -0.321999 -1.54275 0
M  V30 864 C 79.2713 0.578671 -2.21775 0
M  V30 865 C 80.2843 1.08109 -1.21722 0
M  V30 866 O 81.4733 0.994938 -1.482 0
M  V30 867 C 78.5733 1.80661 -2.86731 0
M  V30 868 C 77.7463 1.44314 -4.12907 0
M  V30 869 C 76.8053 2.52845 -4.61472 0
M  V30 870 O 75.8313 2.17054 -5.2619 0
M  V30 871 N 77.0333 3.83748 -4.35566 0
M  V30 872 H 79.7983 0.000709447 -2.997 0
M  V30 873 H 77.3593 -0.145132 -1.61248 0
M  V30 874 H 79.3513 2.52655 -3.16145 0
M  V30 875 H 77.9213 2.29245 -2.12521 0
M  V30 876 H 77.1413 0.554906 -3.90275 0
M  V30 877 H 78.4293 1.17598 -4.95023 0
M  V30 878 H 77.8273 4.15625 -3.83761 0
M  V30 879 H 76.3843 4.51977 -4.69638 0
M  V30 880 N 79.8174 1.5752 -0.0501392 0
M  V30 881 C 81.0634 1.92936 0.624798 0
M  V30 882 C 81.3964 0.928685 1.70555 0
M  V30 883 O 80.6714 -0.0454779 1.94447 0
M  V30 884 C 80.9544 3.38737 1.22185 0
M  V30 885 C 80.8074 4.49552 0.149218 0
M  V30 886 C 82.1264 3.84913 2.13378 0
M  V30 887 H 79.2454 0.701604 0.225657 0
M  V30 888 H 81.8874 1.89671 -0.111693 0
M  V30 889 H 80.0374 3.4165 1.84953 0
M  V30 890 H 81.7094 4.58768 -0.482648 0
M  V30 891 H 79.9524 4.30638 -0.522841 0
M  V30 892 H 80.6234 5.48653 0.606966 0
M  V30 893 H 83.0994 3.8387 1.60572 0
M  V30 894 H 81.9754 4.87584 2.52097 0
M  V30 895 H 82.2364 3.21611 3.03346 0
M  V30 896 N 81.2955 -0.223234 1.56011 0
M  V30 897 C 82.7065 -0.790368 1.69145 0
M  V30 898 C 83.0575 -1.85055 0.651845 0
M  V30 899 O 82.1825 -2.15498 -0.197359 0
M  V30 900 C 82.7775 -1.4404 3.06656 0
M  V30 901 C 81.3365 -1.95494 3.2165 0
M  V30 902 C 80.4835 -0.814506 2.65068 0
M  V30 903 H 83.4345 0.00139011 1.587 0
M  V30 904 H 83.4555 -2.30916 3.0242 0
M  V30 905 H 82.9675 -0.668543 3.82298 0
M  V30 906 H 81.0685 -2.75487 2.50874 0
M  V30 907 H 81.1815 -2.13607 4.28846 0
M  V30 908 H 79.5455 -1.22137 2.23505 0
M  V30 909 H 80.3285 -0.0553515 3.43255 0
M  V30 910 N 82.7736 -1.49793 -0.48987 0
M  V30 911 C 83.7066 -1.61898 -1.60823 0
M  V30 912 C 84.6846 -0.467651 -1.5573 0
M  V30 913 O 85.8686 -0.684682 -1.75626 0
M  V30 914 C 82.9956 -1.58422 -2.99366 0
M  V30 915 C 82.0416 -2.78889 -3.22682 0
M  V30 916 S 82.8746 -4.40429 -3.04602 0
M  V30 917 C 84.0306 -4.39617 -4.4552 0
M  V30 918 H 84.2636 -2.56502 -1.50312 0
M  V30 919 H 81.7966 -1.38822 -0.675849 0
M  V30 920 H 83.7546 -1.57103 -3.79248 0
M  V30 921 H 82.4156 -0.650866 -3.07283 0
M  V30 922 H 81.6086 -2.72708 -4.23847 0
M  V30 923 H 81.2106 -2.77678 -2.50541 0
M  V30 924 H 83.5026 -4.12022 -5.37814 0
M  V30 925 H 84.4456 -5.41097 -4.56749 0
M  V30 926 H 84.8536 -3.69554 -4.2672 0
M  V30 927 N 84.2517 0.741722 -1.39055 0
M  V30 928 C 85.4977 1.50336 -1.36113 0
M  V30 929 C 85.8307 1.94148 0.0450796 0
M  V30 930 O 85.1057 1.66301 1.00868 0
M  V30 931 C 85.3887 2.74773 -2.32749 0
M  V30 932 C 85.2417 2.37023 -3.82283 0
M  V30 933 C 86.5607 3.76846 -2.27322 0
M  V30 934 H 83.6797 0.545351 -0.495743 0
M  V30 935 H 86.3217 0.848624 -1.69995 0
M  V30 936 H 84.4717 3.30639 -2.03986 0
M  V30 937 H 86.1437 1.8684 -4.21768 0
M  V30 938 H 84.3867 1.69334 -3.99385 0
M  V30 939 H 85.0577 3.26104 -4.45376 0
M  V30 940 H 87.5337 3.30548 -2.5274 0
M  V30 941 H 86.4097 4.6159 -2.97028 0
M  V30 942 H 86.6707 4.23286 -1.27599 0
M  V30 943 N 85.7298 1.2412 0.971189 0
M  V30 944 C 86.6398 1.04747 2.09917 0
M  V30 945 C 87.6558 -0.0107162 1.73997 0
M  V30 946 O 88.8318 0.186714 2.00533 0
M  V30 947 C 85.8968 0.650828 3.40537 0
M  V30 948 C 84.9578 1.7851 3.90426 0
M  V30 949 C 84.1908 1.40729 5.14812 0
M  V30 950 O 84.4138 0.29557 5.69634 0
M  V30 951 O 83.3478 2.23168 5.58999 0
M  V30 952 H 87.1738 1.99304 2.29154 0
M  V30 953 H 84.7588 1.02908 1.08307 0
M  V30 954 H 86.6408 0.440992 4.19086 0
M  V30 955 H 85.3158 -0.265649 3.22608 0
M  V30 956 H 84.2228 2.04966 3.12953 0
M  V30 957 H 85.5558 2.68023 4.12825 0
M  V30 958 N 87.2079 -1.17134 1.05439 0
M  V30 959 C 88.4569 -1.86791 0.761049 0
M  V30 960 C 88.7699 -1.82072 -0.714795 0
M  V30 961 O 89.9759 -2.47223 -1.12218 0
M  V30 962 C 88.4319 -3.35166 1.31117 0
M  V30 963 C 88.0399 -3.48381 2.81664 0
M  V30 964 C 89.7839 -4.10134 1.09499 0
M  V30 965 C 87.6909 -4.90793 3.29964 0
M  V30 966 H 86.6209 -0.699681 0.281002 0
M  V30 967 H 89.2719 -1.3226 1.27199 0
M  V30 968 H 87.6539 -3.8925 0.72803 0
M  V30 969 H 88.8279 -3.04502 3.45855 0
M  V30 970 H 87.1429 -2.86836 3.01851 0
M  V30 971 H 89.7399 -5.152 1.43084 0
M  V30 972 H 90.0829 -4.16287 0.0328772 0
M  V30 973 H 90.6159 -3.62264 1.64346 0
M  V30 974 H 87.3549 -4.89816 4.35616 0
M  V30 975 H 86.8749 -5.35333 2.70516 0
M  V30 976 H 88.5539 -5.59573 3.24787 0
M  V30 977 N 88.686 -0.835752 -1.33615 0
M  V30 978 C 89.963 -0.352017 -1.92406 0
M  V30 979 C 90.343 1.16225 -1.76224 0
M  V30 980 O 89.691 1.97526 -1.14873 0
M  V30 981 C 89.901 -0.795485 -3.39813 0
M  V30 982 C 91.249 -0.801703 -4.16963 0
M  V30 983 O 92.273 -0.738889 -3.48452 0
M  V30 984 O 91.132 -0.886607 -5.3926 0
M  V30 985 H 88.226 -0.0989641 -0.821057 0
M  V30 986 H 90.772 -0.921397 -1.42507 0
M  V30 987 H 89.544 -1.83795 -3.45449 0
M  V30 988 H 89.167 -0.202505 -3.97084 0
M  V30 989 N 90.1641 1.46063 -0.591896 0
M  V30 990 C 91.4121 2.01938 -0.0808391 0
M  V30 991 C 91.7331 1.46475 1.28725 0
M  V30 992 O 91.0031 0.652944 1.84698 0
M  V30 993 H 89.5831 0.746516 -0.0268938 0
M  V30 994 H 92.2451 1.79055 -0.769752 0
M  V30 995 H 91.3411 3.12094 -0.0187578 0
M  V30 996 N 91.6422 0.330177 1.54103 0
M  V30 997 C 92.5752 -0.575477 2.20825 0
M  V30 998 C 93.5532 -1.11064 1.18758 0
M  V30 999 O 94.7372 -1.17341 1.47524 0
M  V30 1000 C 91.8642 -1.79032 2.87516 0
M  V30 1001 C 90.9102 -1.38581 4.03358 0
M  V30 1002 S 91.7432 -0.416911 5.33875 0
M  V30 1003 C 92.8992 -1.63889 6.04062 0
M  V30 1004 H 93.1322 -0.00872114 2.97299 0
M  V30 1005 H 90.6652 0.114254 1.53977 0
M  V30 1006 H 92.6232 -2.48734 3.2656 0
M  V30 1007 H 91.2842 -2.32827 2.10832 0
M  V30 1008 H 90.4772 -2.29123 4.48908 0
M  V30 1009 H 90.0792 -0.768419 3.66021 0
M  V30 1010 H 92.3712 -2.57536 6.26643 0
M  V30 1011 H 93.3142 -1.22542 6.97416 0
M  V30 1012 H 93.7222 -1.82887 5.34053 0
M  V30 1013 N 93.1203 -1.57491 0.0584922 0
M  V30 1014 C 94.0673 -2.11958 -0.913376 0
M  V30 1015 C 95.0373 -1.02875 -1.30407 0
M  V30 1016 O 96.2223 -1.30464 -1.39226 0
M  V30 1017 C 93.3623 -2.67497 -2.18035 0
M  V30 1018 C 92.4753 -3.90691 -1.84349 0
M  V30 1019 C 91.6103 -4.3452 -3.05559 0
M  V30 1020 C 90.6493 -5.50395 -2.67827 0
M  V30 1021 N 89.7863 -5.89244 -3.81754 0
M  V30 1022 H 94.6263 -2.94704 -0.442017 0
M  V30 1023 H 92.1633 -1.45643 -0.206545 0
M  V30 1024 H 94.1213 -2.978 -2.92183 0
M  V30 1025 H 92.7513 -1.87537 -2.62735 0
M  V30 1026 H 91.8033 -3.66934 -1.00319 0
M  V30 1027 H 93.1153 -4.7489 -1.5258 0
M  V30 1028 H 92.2693 -4.66414 -3.87998 0
M  V30 1029 H 91.0083 -3.49147 -3.40511 0
M  V30 1030 H 90.0133 -5.18165 -1.83806 0
M  V30 1031 H 91.2383 -6.3749 -2.34059 0
M  V30 1032 H 89.1843 -5.06823 -4.16493 0
M  V30 1033 H 89.1013 -6.68151 -3.53708 0
M  V30 1034 H 90.3693 -6.25756 -4.64811 0
M  V30 1035 N 94.5984 0.214957 -1.56127 0
M  V30 1036 C 95.5284 1.2695 -1.95974 0
M  V30 1037 C 96.5094 1.48539 -0.828868 0
M  V30 1038 O 97.6944 1.60611 -1.09168 0
M  V30 1039 C 94.8244 2.61794 -2.28214 0
M  V30 1040 C 93.7784 2.54851 -3.43853 0
M  V30 1041 C 93.1044 3.93785 -3.61715 0
M  V30 1042 C 94.4044 2.09065 -4.78632 0
M  V30 1043 H 96.0984 0.93846 -2.84312 0
M  V30 1044 H 93.6444 0.449996 -1.36788 0
M  V30 1045 H 95.5974 3.35731 -2.54682 0
M  V30 1046 H 94.3214 2.96599 -1.36736 0
M  V30 1047 H 92.9804 1.8337 -3.17444 0
M  V30 1048 H 92.6284 4.25908 -2.67602 0
M  V30 1049 H 92.3284 3.90019 -4.39498 0
M  V30 1050 H 93.8524 4.69374 -3.90539 0
M  V30 1051 H 95.2664 2.7275 -5.04262 0
M  V30 1052 H 93.6634 2.16346 -5.59745 0
M  V30 1053 H 94.7334 1.04315 -4.73547 0
M  V30 1054 N 96.0765 1.50051 0.48192 0
M  V30 1055 C 97.3225 1.60736 1.2366 0
M  V30 1056 C 97.6555 0.301786 1.91841 0
M  V30 1057 O 96.9305 -0.696025 1.8162 0
M  V30 1058 C 97.2135 2.78009 2.28874 0
M  V30 1059 C 97.0665 4.18416 1.65069 0
M  V30 1060 C 98.3855 2.90867 3.30279 0
M  V30 1061 H 95.5045 0.585031 0.448228 0
M  V30 1062 H 98.1465 1.82402 0.531946 0
M  V30 1063 H 96.2965 2.59667 2.88973 0
M  V30 1064 H 97.9685 4.48322 1.0865 0
M  V30 1065 H 96.2115 4.23177 0.954148 0
M  V30 1066 H 96.8825 4.96381 2.41474 0
M  V30 1067 H 99.3585 3.07623 2.80191 0
M  V30 1068 H 98.2345 3.74566 4.01238 0
M  V30 1069 H 98.4955 2.01021 3.93755 0
M  V30 1070 N 97.5546 -0.734337 1.39446 0
M  V30 1071 C 98.4866 -1.85861 1.34121 0
M  V30 1072 C 99.4996 -1.60871 0.249864 0
M  V30 1073 O 100.689 -1.71093 0.508865 0
M  V30 1074 C 97.7886 -3.21899 1.05991 0
M  V30 1075 C 96.9616 -3.74239 2.26415 0
M  V30 1076 C 96.0206 -4.88841 1.94733 0
M  V30 1077 O 95.0466 -5.02468 2.67422 0
M  V30 1078 N 96.2486 -5.73261 0.913884 0
M  V30 1079 H 99.0136 -1.90934 2.31007 0
M  V30 1080 H 96.5746 -0.915102 1.33557 0
M  V30 1081 H 98.5666 -3.96136 0.828147 0
M  V30 1082 H 97.1366 -3.12091 0.178361 0
M  V30 1083 H 96.3566 -2.91347 2.65539 0
M  V30 1084 H 97.6446 -4.05942 3.06738 0
M  V30 1085 H 97.0426 -5.64842 0.311476 0
M  V30 1086 H 95.5996 -6.47563 0.742015 0
M  V30 1087 N 99.0327 -1.24633 -0.964593 0
M  V30 1088 C 100.261 -1.11501 -1.74285 0
M  V30 1089 C 100.676 0.332165 -1.85855 0
M  V30 1090 O 100.033 1.22903 -1.34911 0
M  V30 1091 C 100.084 -1.75258 -3.16175 0
M  V30 1092 O 99.8047 -3.14318 -3.05182 0
M  V30 1093 C 101.306 -1.67776 -4.10324 0
M  V30 1094 H 98.5257 -0.389407 -0.546446 0
M  V30 1095 H 101.07 -1.64801 -1.21083 0
M  V30 1096 H 99.2247 -1.25954 -3.66353 0
M  V30 1097 H 99.6387 -3.4551 -3.94618 0
M  V30 1098 H 101.113 -2.17064 -5.0753 0
M  V30 1099 H 101.59 -0.639584 -4.34518 0
M  V30 1100 H 102.196 -2.16522 -3.66058 0
M  V30 1101 N 100.511 1.16574 -1.06058 0
M  V30 1102 C 101.927 1.3904 -0.783585 0
M  V30 1103 C 102.127 1.91784 0.618145 0
M  V30 1104 O 101.183 2.11511 1.37911 0
M  V30 1105 C 102.496 2.37329 -1.84649 0
M  V30 1106 C 104.044 2.51018 -1.86973 0
M  V30 1107 C 104.519 3.52588 -2.92311 0
M  V30 1108 N 106.01 3.60113 -2.91329 0
M  V30 1109 C 106.745 4.38486 -3.69482 0
M  V30 1110 N 106.241 5.20302 -4.57447 0
M  V30 1111 N 108.034 4.33446 -3.57885 0
M  V30 1112 H 100.185 0.806725 -1.96483 0
M  V30 1113 H 102.448 0.417117 -0.851303 0
M  V30 1114 H 102.154 2.05663 -2.85299 0
M  V30 1115 H 102.028 3.36946 -1.6955 0
M  V30 1116 H 104.415 2.81989 -0.869827 0
M  V30 1117 H 104.496 1.51445 -2.0615 0
M  V30 1118 H 104.14 3.22354 -3.92492 0
M  V30 1119 H 104.07 4.51886 -2.70383 0
M  V30 1120 H 106.561 3.01707 -2.27555 0
M  V30 1121 H 106.874 5.77311 -5.13743 0
M  V30 1122 H 105.219 5.19653 -4.61503 0
M  V30 1123 H 108.41 3.68586 -2.88551 0
M  V30 1124 H 108.583 4.94279 -4.19037 0
M  V30 1125 N 101.989 0.842826 1.3317 0
M  V30 1126 C 103.214 0.453129 2.02389 0
M  V30 1127 C 103.639 -0.939105 1.6298 0
M  V30 1128 O 102.997 -1.61472 0.8244 0
M  V30 1129 C 103.045 0.586094 3.55805 0
M  V30 1130 O 102.149 -0.386029 4.10589 0
M  V30 1131 H 101.49 0.183664 0.638094 0
M  V30 1132 H 104.02 1.13875 1.69981 0
M  V30 1133 H 104.03 0.469209 4.05293 0
M  V30 1134 H 102.705 1.6014 3.83833 0
M  V30 1135 H 101.282 -0.226371 3.72212 0
M  V30 1136 N 103.467 -1.45747 0.599634 0
M  V30 1137 C 104.716 -2.01502 0.0893511 0
M  V30 1138 C 105.029 -1.4748 -1.28488 0
M  V30 1139 O 106.235 -1.95161 -1.88745 0
M  V30 1140 C 104.691 -3.59735 0.109082 0
M  V30 1141 C 104.299 -4.22754 1.48267 0
M  V30 1142 C 106.043 -4.23085 -0.346374 0
M  V30 1143 C 103.95 -5.73115 1.45921 0
M  V30 1144 H 102.88 -0.753417 0.0296347 0
M  V30 1145 H 105.531 -1.67303 0.753788 0
M  V30 1146 H 103.913 -3.91087 -0.621854 0
M  V30 1147 H 105.087 -4.02987 2.23468 0
M  V30 1148 H 103.402 -3.71567 1.87955 0
M  V30 1149 H 105.999 -5.33327 -0.38298 0
M  V30 1150 H 106.342 -3.93201 -1.36743 0
M  V30 1151 H 106.875 -3.9642 0.331038 0
M  V30 1152 H 103.614 -6.07685 2.45762 0
M  V30 1153 H 103.134 -5.95097 0.749665 0
M  V30 1154 H 104.813 -6.3616 1.17941 0
M  V30 1155 N 104.945 -0.338344 -1.53925 0
M  V30 1156 C 105.875 0.51328 -2.27789 0
M  V30 1157 C 106.856 1.107 -1.29149 0
M  V30 1158 O 108.041 1.12937 -1.57984 0
M  V30 1159 C 105.171 1.66697 -3.04679 0
M  V30 1160 C 104.125 1.20183 -4.1078 0
M  V30 1161 C 103.451 2.44363 -4.75595 0
M  V30 1162 C 104.751 0.30605 -5.21403 0
M  V30 1163 H 106.445 -0.102883 -2.99223 0
M  V30 1164 H 103.991 -0.0509219 -1.4391 0
M  V30 1165 H 105.944 2.26915 -3.55088 0
M  V30 1166 H 104.668 2.30995 -2.30887 0
M  V30 1167 H 103.327 0.622499 -3.61276 0
M  V30 1168 H 102.975 3.07057 -3.98403 0
M  V30 1169 H 102.675 2.13925 -5.47275 0
M  V30 1170 H 104.199 3.05317 -5.28786 0
M  V30 1171 H 105.613 0.814929 -5.67478 0
M  V30 1172 H 104.01 0.0937929 -6.00027 0
M  V30 1173 H 105.08 -0.65921 -4.80398 0
M  V30 1174 N 106.423 1.57458 -0.0668435 0
M  V30 1175 C 107.373 2.0896 0.912119 0
M  V30 1176 C 108.357 0.998186 1.26195 0
M  V30 1177 O 109.549 1.26133 1.24175 0
M  V30 1178 C 106.678 2.6508 2.18145 0
M  V30 1179 C 105.764 3.81218 1.85832 0
M  V30 1180 N 106.155 4.90378 1.23948 0
M  V30 1181 C 104.453 3.9042 2.15612 0
M  V30 1182 C 105.154 5.71279 1.09616 0
M  V30 1183 N 104.13 5.19389 1.60423 0
M  V30 1184 H 107.932 2.90749 0.42924 0
M  V30 1185 H 105.446 1.6182 0.137184 0
M  V30 1186 H 107.443 3.0029 2.89192 0
M  V30 1187 H 106.103 1.84736 2.67025 0
M  V30 1188 H 107.114 5.09847 0.909731 0
M  V30 1189 H 103.791 3.21043 2.66903 0
M  V30 1190 H 105.181 6.69085 0.614425 0
M  V30 1191 N 107.901 -0.206675 1.56239 0
M  V30 1192 C 109.131 -0.943975 1.83773 0
M  V30 1193 C 109.539 -1.77841 0.645703 0
M  V30 1194 O 108.882 -1.79403 -0.395008 0
M  V30 1195 C 108.944 -1.899 3.05251 0
M  V30 1196 C 108.608 -1.24764 4.39639 0
M  V30 1197 C 109.605 -0.630216 5.16066 0
M  V30 1198 C 107.29 -1.25496 4.8637 0
M  V30 1199 C 109.284 -0.0287946 6.37393 0
M  V30 1200 C 106.971 -0.649698 6.07637 0
M  V30 1201 C 107.969 -0.0376845 6.8299 0
M  V30 1202 O 107.657 0.55812 8.0196 0
M  V30 1203 H 107.389 -0.281508 0.614597 0
M  V30 1204 H 109.943 -0.222458 2.04192 0
M  V30 1205 H 108.173 -2.6599 2.80689 0
M  V30 1206 H 109.862 -2.5031 3.1953 0
M  V30 1207 H 110.628 -0.616785 4.81062 0
M  V30 1208 H 106.507 -1.72072 4.27683 0
M  V30 1209 H 110.051 0.449518 6.9615 0
M  V30 1210 H 105.948 -0.660592 6.42111 0
M  V30 1211 H 106.716 0.453891 8.17241 0
M  V30 1212 N 109.379 -1.50304 -0.473955 0
M  V30 1213 C 110.628 -1.60392 -1.22301 0
M  V30 1214 C 110.941 -0.308411 -1.93153 0
M  V30 1215 O 112.147 -0.288156 -2.69966 0
M  V30 1216 C 110.603 -2.83109 -2.2221 0
M  V30 1217 C 110.211 -4.19524 -1.57173 0
M  V30 1218 C 111.955 -3.0254 -2.97775 0
M  V30 1219 C 109.862 -5.33431 -2.55353 0
M  V30 1220 H 108.792 -0.597286 -0.460179 0
M  V30 1221 H 111.443 -1.76731 -0.493803 0
M  V30 1222 H 109.825 -2.60322 -2.9841 0
M  V30 1223 H 110.999 -4.52554 -0.867824 0
M  V30 1224 H 109.314 -4.05674 -0.939002 0
M  V30 1225 H 111.911 -3.84811 -3.71248 0
M  V30 1226 H 112.254 -2.14154 -3.56992 0
M  V30 1227 H 112.787 -3.25494 -2.28688 0
M  V30 1228 H 109.526 -6.23962 -2.00878 0
M  V30 1229 H 109.046 -5.04823 -3.23904 0
M  V30 1230 H 110.725 -5.63887 -3.17239 0
M  V30 1231 N 110.857 0.726932 -1.39834 0
M  V30 1232 C 111.82 1.82269 -1.38962 0
M  V30 1233 C 112.82 1.58248 -0.285334 0
M  V30 1234 O 114.01 1.65499 -0.54366 0
M  V30 1235 C 111.142 3.20186 -1.17019 0
M  V30 1236 H 112.335 1.84443 -2.36476 0
M  V30 1237 H 109.888 0.931416 -1.25516 0
M  V30 1238 H 110.623 3.23669 -0.202204 0
M  V30 1239 H 110.408 3.3902 -1.96998 0
M  V30 1240 H 111.898 4.00235 -1.1917 0
M  V30 1241 N 112.336 1.25143 0.95797 0
M  V30 1242 C 113.613 1.00472 1.67823 0
M  V30 1243 C 113.993 -0.470056 2.058 0
M  V30 1244 O 113.341 -1.44663 1.76875 0
M  V30 1245 C 113.551 1.9372 2.90299 0
M  V30 1246 C 114.899 2.21371 3.62326 0
M  V30 1247 O 115.923 1.91451 3.00375 0
M  V30 1248 O 114.782 2.72231 4.7387 0
M  V30 1249 H 111.876 0.380752 0.734137 0
M  V30 1250 H 114.422 1.36283 1.01119 0
M  V30 1251 H 113.194 2.93316 2.59001 0
M  V30 1252 H 112.817 1.58286 3.64735 0
M  V30 1253 N 113.814 -1.1601 1.06675 0
M  V30 1254 C 114.761 -2.20525 0.680967 0
M  V30 1255 C 115.731 -1.62904 -0.324283 0
M  V30 1256 O 116.916 -1.89615 -0.212294 0
M  V30 1257 C 114.056 -3.45013 0.0776551 0
M  V30 1258 C 113.169 -4.16863 1.13355 0
M  V30 1259 C 112.304 -5.2888 0.49597 0
M  V30 1260 C 111.343 -5.92537 1.53513 0
M  V30 1261 N 110.48 -6.96038 0.920631 0
M  V30 1262 H 115.32 -2.52876 1.57663 0
M  V30 1263 H 112.857 -1.24199 0.788223 0
M  V30 1264 H 114.815 -4.16193 -0.289704 0
M  V30 1265 H 113.445 -3.132 -0.781393 0
M  V30 1266 H 112.497 -3.44248 1.61857 0
M  V30 1267 H 113.809 -4.60294 1.92174 0
M  V30 1268 H 112.963 -6.06653 0.0758604 0
M  V30 1269 H 111.702 -4.86622 -0.324062 0
M  V30 1270 H 110.707 -5.13482 1.9651 0
M  V30 1271 H 111.932 -6.36873 2.35733 0
M  V30 1272 H 109.878 -6.55888 0.12138 0
M  V30 1273 H 109.795 -7.3786 1.64616 0
M  V30 1274 H 111.063 -7.77725 0.525795 0
M  V30 1275 N 115.292 -0.849877 -1.32721 0
M  V30 1276 C 116.242 -0.262892 -2.26479 0
M  V30 1277 C 117.226 0.588493 -1.49752 0
M  V30 1278 O 118.418 0.438659 -1.71478 0
M  V30 1279 C 115.547 0.551818 -3.38836 0
M  V30 1280 C 114.633 -0.311689 -4.22953 0
M  V30 1281 N 115.024 -1.39567 -4.86163 0
M  V30 1282 C 113.322 -0.100611 -4.45887 0
M  V30 1283 C 114.023 -1.92651 -5.48872 0
M  V30 1284 N 112.999 -1.22637 -5.29586 0
M  V30 1285 H 116.801 -1.09166 -2.72873 0
M  V30 1286 H 114.315 -0.695486 -1.46754 0
M  V30 1287 H 116.312 0.988713 -4.05006 0
M  V30 1288 H 114.972 1.37844 -2.93988 0
M  V30 1289 H 115.983 -1.77859 -4.86402 0
M  V30 1290 H 112.66 0.691681 -4.11731 0
M  V30 1291 H 114.05 -2.83487 -6.09167 0
M  V30 1292 N 116.77 1.45427 -0.607355 0
M  V30 1293 C 117.718 2.32269 0.12411 0
M  V30 1294 C 118.712 1.45955 0.859854 0
M  V30 1295 O 119.918 1.6244 0.775447 0
M  V30 1296 H 116.293 0.749691 0.0588839 0
M  V30 1297 H 118.264 2.91743 -0.626762 0
M  V30 1298 C 117.013 3.29567 1.1082 0
M  V30 1299 H 116.336 3.95978 0.551492 0
M  V30 1300 H 117.776 3.93061 1.58995 0
M  V30 1301 C 116.235 2.56722 2.18164 0
M  V30 1302 O 116.765 2.34842 3.25902 0
M  V30 1303 N 114.971 2.16861 1.93442 0
M  V30 1304 H 114.518 2.34855 1.05834 0
M  V30 1305 H 114.476 1.68444 2.65469 0
M  V30 1306 N 118.248 0.346503 1.53744 0
M  V30 1307 C 119.178 -0.501193 2.28058 0
M  V30 1308 C 120.159 -1.10014 1.29734 0
M  V30 1309 O 121.344 -1.12097 1.58581 0
M  V30 1310 C 118.474 -1.65078 3.05559 0
M  V30 1311 C 117.428 -1.18003 4.11411 0
M  V30 1312 C 116.754 -2.41837 4.76884 0
M  V30 1313 C 118.054 -0.278394 5.21558 0
M  V30 1314 H 119.748 0.11875 2.99164 0
M  V30 1315 H 117.294 0.0585531 1.43881 0
M  V30 1316 H 119.247 -2.25028 3.56287 0
M  V30 1317 H 117.971 -2.29767 2.32109 0
M  V30 1318 H 116.63 -0.603331 3.61601 0
M  V30 1319 H 116.278 -3.0494 4.00026 0
M  V30 1320 H 115.978 -2.1102 5.48402 0
M  V30 1321 H 117.502 -3.02508 5.30397 0
M  V30 1322 H 118.916 -0.784823 5.67903 0
M  V30 1323 H 117.313 -0.0619707 6.00068 0
M  V30 1324 H 118.383 0.684677 4.80042 0
M  V30 1325 N 119.726 -1.57421 0.075193 0
M  V30 1326 C 120.973 -1.93618 -0.593146 0
M  V30 1327 C 121.301 -0.955484 -1.69413 0
M  V30 1328 O 120.556 0.0283251 -1.9568 0
M  V30 1329 C 120.855 -3.36428 -1.20626 0
M  V30 1330 C 120.521 -4.50307 -0.231078 0
M  V30 1331 C 119.183 -4.81186 0.0371936 0
M  V30 1332 C 121.535 -5.19374 0.435888 0
M  V30 1333 C 118.863 -5.78466 0.979461 0
M  V30 1334 C 121.215 -6.17665 1.3665 0
M  V30 1335 C 119.879 -6.46958 1.6432 0
M  V30 1336 H 119.149 -0.708499 -0.217047 0
M  V30 1337 H 121.796 -1.90937 0.146793 0
M  V30 1338 H 120.101 -3.35592 -2.02201 0
M  V30 1339 H 121.798 -3.61727 -1.73073 0
M  V30 1340 H 118.388 -4.26227 -0.450357 0
M  V30 1341 H 122.572 -4.95711 0.241748 0
M  V30 1342 H 117.828 -5.99487 1.20106 0
M  V30 1343 H 122.002 -6.70284 1.88924 0
M  V30 1344 H 119.629 -7.2215 2.37494 0
M  V30 1345 N 121.204 0.198386 -1.56346 0
M  V30 1346 C 122.452 0.91747 -1.80075 0
M  V30 1347 C 122.773 1.83929 -0.647692 0
M  V30 1348 O 122.043 1.93029 0.334166 0
M  V30 1349 H 120.623 0.341774 -0.664228 0
M  V30 1350 H 123.285 0.204684 -1.93822 0
M  V30 1351 H 122.381 1.51055 -2.7311 0
M  V30 1352 N 122.682 1.50554 0.465978 0
M  V30 1353 C 123.629 1.6979 1.56333 0
M  V30 1354 C 124.599 0.539239 1.57103 0
M  V30 1355 O 125.784 0.770401 1.74555 0
M  V30 1356 C 122.924 1.80273 2.94271 0
M  V30 1357 C 122.037 3.07674 3.0325 0
M  V30 1358 C 121.172 3.08922 4.32135 0
M  V30 1359 C 120.211 4.30755 4.34875 0
M  V30 1360 N 119.348 4.29714 5.55239 0
M  V30 1361 H 124.188 2.63472 1.39235 0
M  V30 1362 H 121.725 1.30602 0.676873 0
M  V30 1363 H 123.683 1.84332 3.74269 0
M  V30 1364 H 122.313 0.900258 3.09992 0
M  V30 1365 H 121.365 3.13062 2.16094 0
M  V30 1366 H 122.677 3.97642 3.01135 0
M  V30 1367 H 121.831 3.11738 5.20485 0
M  V30 1368 H 120.57 2.16792 4.36866 0
M  V30 1369 H 119.575 4.28146 3.44922 0
M  V30 1370 H 120.8 5.24117 4.31831 0
M  V30 1371 H 118.746 3.4044 5.60746 0
M  V30 1372 H 118.663 5.13456 5.54886 0
M  V30 1373 H 119.931 4.36683 6.457 0
M  V30 1374 N 124.16 -0.719506 1.40217 0
M  V30 1375 C 125.108 -1.85493 1.40339 0
M  V30 1376 C 126.102 -1.66995 0.284415 0
M  V30 1377 O 127.308 -1.74148 0.455252 0
M  V30 1378 H 123.683 -0.610857 0.438586 0
M  V30 1379 H 125.654 -1.82506 2.36081 0
M  V30 1380 C 124.403 -3.23321 1.27901 0
M  V30 1381 H 123.726 -3.38159 2.1328 0
M  V30 1382 H 125.166 -4.02914 1.32045 0
M  V30 1383 C 123.625 -3.36898 -0.0111355 0
M  V30 1384 O 124.155 -3.89674 -0.975538 0
M  V30 1385 N 122.361 -2.90492 -0.0793393 0
M  V30 1386 H 121.908 -2.47731 0.706183 0
M  V30 1387 H 121.866 -2.99955 -0.942038 0
M  V30 1388 N 125.638 -1.25649 -0.95132 0
M  V30 1389 C 126.568 -1.08808 -2.06599 0
M  V30 1390 C 127.549 0.00382547 -1.701 0
M  V30 1391 O 128.734 -0.166325 -1.93486 0
M  V30 1392 C 125.864 -0.709542 -3.39975 0
M  V30 1393 C 124.818 -1.75206 -3.90496 0
M  V30 1394 C 124.144 -1.22811 -5.20405 0
M  V30 1395 C 125.444 -3.15153 -4.16504 0
M  V30 1396 H 127.138 -2.02048 -2.20946 0
M  V30 1397 H 124.684 -0.972835 -1.06169 0
M  V30 1398 H 126.637 -0.578649 -4.17408 0
M  V30 1399 H 125.361 0.258556 -3.25575 0
M  V30 1400 H 124.02 -1.87145 -3.15234 0
M  V30 1401 H 123.668 -0.250145 -5.02378 0
M  V30 1402 H 123.368 -1.92492 -5.55176 0
M  V30 1403 H 124.892 -1.10968 -6.00432 0
M  V30 1404 H 126.306 -3.06349 -4.84586 0
M  V30 1405 H 124.703 -3.82333 -4.62538 0
M  V30 1406 H 125.773 -3.61966 -3.22658 0
M  V30 1407 N 127.117 1.15442 -1.07289 0
M  V30 1408 C 128.064 2.20161 -0.692653 0
M  V30 1409 C 129.034 1.63073 0.31564 0
M  V30 1410 O 130.219 1.89725 0.202235 0
M  V30 1411 C 127.359 3.44967 -0.0959509 0
M  V30 1412 C 126.472 4.16256 -1.15564 0
M  V30 1413 C 125.607 5.28609 -0.524011 0
M  V30 1414 C 124.646 5.91715 -1.56653 0
M  V30 1415 N 123.783 6.9554 -0.957531 0
M  V30 1416 H 128.623 2.52037 -1.59002 0
M  V30 1417 H 126.16 1.2378 -0.794798 0
M  V30 1418 H 128.118 4.16341 0.267628 0
M  V30 1419 H 126.748 3.1361 0.764772 0
M  V30 1420 H 125.8 3.43385 -1.6368 0
M  V30 1421 H 127.112 4.59268 -1.94613 0
M  V30 1422 H 126.266 6.06604 -0.108032 0
M  V30 1423 H 125.005 4.86787 0.29825 0
M  V30 1424 H 124.01 5.12433 -1.9923 0
M  V30 1425 H 125.235 6.35614 -2.39107 0
M  V30 1426 H 123.181 6.55814 -0.156162 0
M  V30 1427 H 123.098 7.36977 -1.68526 0
M  V30 1428 H 124.366 7.77435 -0.567032 0
M  V30 1429 N 128.595 0.856903 1.32268 0
M  V30 1430 C 129.505 0.306131 2.32594 0
M  V30 1431 C 130.521 -0.577209 1.64147 0
M  V30 1432 O 131.697 -0.477043 1.95669 0
M  V30 1433 C 128.762 -0.494561 3.43154 0
M  V30 1434 C 127.823 0.415186 4.27288 0
M  V30 1435 C 127.056 -0.347387 5.32568 0
M  V30 1436 O 127.279 -1.57708 5.48165 0
M  V30 1437 O 126.213 0.287982 6.01211 0
M  V30 1438 H 130.039 1.13737 2.81598 0
M  V30 1439 H 127.624 0.619902 1.35932 0
M  V30 1440 H 129.506 -0.948944 4.10576 0
M  V30 1441 H 128.181 -1.30257 2.96336 0
M  V30 1442 H 127.088 0.917793 3.62667 0
M  V30 1443 H 128.421 1.18844 4.77637 0
M  V30 1444 N 130.073 -1.45103 0.615059 0
M  V30 1445 C 131.489 -1.57137 0.279322 0
M  V30 1446 C 131.689 -1.60523 -1.21797 0
M  V30 1447 O 130.745 -1.53956 -2.00134 0
M  V30 1448 C 132.058 -2.85062 0.957083 0
M  V30 1449 C 133.606 -2.98749 0.933706 0
M  V30 1450 C 134.081 -4.29455 1.59162 0
M  V30 1451 N 135.572 -4.36231 1.55746 0
M  V30 1452 C 136.307 -5.36051 2.0356 0
M  V30 1453 N 135.803 -6.42367 2.59494 0
M  V30 1454 N 137.596 -5.27456 1.94284 0
M  V30 1455 H 129.747 -1.41148 1.58717 0
M  V30 1456 H 132.01 -0.675331 0.665306 0
M  V30 1457 H 131.716 -2.88488 2.01166 0
M  V30 1458 H 131.59 -3.7407 0.48494 0
M  V30 1459 H 133.977 -2.94886 -0.112347 0
M  V30 1460 H 134.058 -2.11132 1.44419 0
M  V30 1461 H 133.702 -4.34077 2.63704 0
M  V30 1462 H 133.632 -5.15901 1.0561 0
M  V30 1463 H 136.123 -3.60011 1.14893 0
M  V30 1464 H 136.436 -7.14793 2.93752 0
M  V30 1465 H 134.781 -6.43097 2.63537 0
M  V30 1466 H 137.972 -4.43308 1.5032 0
M  V30 1467 H 138.145 -6.05099 2.3186 0
M  V30 1468 N 131.551 -0.354651 -1.53558 0
M  V30 1469 C 132.779 0.239515 -2.05509 0
M  V30 1470 C 133.194 1.4333 -1.2289 0
M  V30 1471 O 132.551 1.80538 -0.266899 0
M  V30 1472 C 132.602 0.643719 -3.55723 0
M  V30 1473 O 132.323 -0.502602 -4.35207 0
M  V30 1474 C 133.824 1.29743 -4.23889 0
M  V30 1475 H 131.044 0.0442697 -0.669538 0
M  V30 1476 H 133.588 -0.509856 -1.98042 0
M  V30 1477 H 131.743 1.34302 -3.63376 0
M  V30 1478 H 132.157 -0.178172 -5.24197 0
M  V30 1479 H 133.631 1.53091 -5.30346 0
M  V30 1480 H 134.108 2.25441 -3.76926 0
M  V30 1481 H 134.714 0.639865 -4.20459 0
M  V30 1482 N 133.029 1.57378 -0.0835403 0
M  V30 1483 C 133.959 2.1641 0.87686 0
M  V30 1484 C 134.94 1.09429 1.30228 0
M  V30 1485 O 136.125 1.37516 1.37124 0
M  V30 1486 C 133.255 2.73517 2.14022 0
M  V30 1487 C 132.209 3.85769 1.85381 0
M  V30 1488 C 131.535 4.29529 3.18448 0
M  V30 1489 C 132.835 5.09486 1.14984 0
M  V30 1490 H 134.529 2.96914 0.385059 0
M  V30 1491 H 132.075 1.42823 0.18377 0
M  V30 1492 H 134.028 3.13463 2.81636 0
M  V30 1493 H 132.752 1.90252 2.65465 0
M  V30 1494 H 131.411 3.46345 1.20169 0
M  V30 1495 H 131.059 3.43169 3.67755 0
M  V30 1496 H 130.759 5.05204 3.00071 0
M  V30 1497 H 132.283 4.72099 3.8724 0
M  V30 1498 H 133.697 5.46674 1.72687 0
M  V30 1499 H 132.094 5.90515 1.06826 0
M  V30 1500 H 133.164 4.84724 0.130749 0
M  V30 1501 N 134.507 -0.190092 1.56449 0
M  V30 1502 C 135.756 -0.907912 1.80111 0
M  V30 1503 C 136.069 -1.84214 0.657619 0
M  V30 1504 O 137.275 -2.60094 0.778663 0
M  V30 1505 C 135.731 -1.66485 3.19078 0
M  V30 1506 C 135.339 -0.7752 4.41242 0
M  V30 1507 C 137.083 -2.37201 3.52045 0
M  V30 1508 C 134.99 -1.53129 5.71231 0
M  V30 1509 H 133.92 -0.34276 0.671589 0
M  V30 1510 H 136.571 -0.161109 1.82791 0
M  V30 1511 H 134.953 -2.45572 3.10661 0
M  V30 1512 H 136.127 -0.0226298 4.60794 0
M  V30 1513 H 134.442 -0.178627 4.16017 0
M  V30 1514 H 137.039 -2.94329 4.46402 0
M  V30 1515 H 137.382 -3.11632 2.76028 0
M  V30 1516 H 137.915 -1.65075 3.61932 0
M  V30 1517 H 134.654 -0.82967 6.50228 0
M  V30 1518 H 134.174 -2.25767 5.55688 0
M  V30 1519 H 135.853 -2.08377 6.12526 0
M  V30 1520 N 135.985 -1.50799 -0.457987 0
M  V30 1521 C 137.262 -1.52968 -1.21902 0
M  V30 1522 C 137.642 -0.281906 -2.09209 0
M  V30 1523 O 136.99 0.734076 -2.16388 0
M  V30 1524 C 137.2 -2.8326 -2.03875 0
M  V30 1525 C 138.548 -3.34425 -2.6162 0
M  V30 1526 O 139.572 -2.8467 -2.14106 0
M  V30 1527 O 138.431 -4.21188 -3.48228 0
M  V30 1528 H 135.525 -0.614129 -0.553873 0
M  V30 1529 H 138.071 -1.63098 -0.468739 0
M  V30 1530 H 136.843 -3.65543 -1.39621 0
M  V30 1531 H 136.466 -2.76195 -2.8601 0
M  V30 1532 N 137.463 0.71206 -1.40597 0
M  V30 1533 C 138.396 1.83582 -1.35546 0
M  V30 1534 C 139.374 1.61032 -0.225284 0
M  V30 1535 O 140.558 1.83998 -0.409519 0
M  V30 1536 C 137.685 3.19983 -1.11034 0
M  V30 1537 C 136.731 3.61355 -2.2655 0
M  V30 1538 S 137.564 3.68062 -3.88961 0
M  V30 1539 C 138.72 5.07216 -3.66719 0
M  V30 1540 H 138.953 1.87586 -2.30648 0
M  V30 1541 H 136.486 0.879182 -1.26924 0
M  V30 1542 H 138.444 3.98734 -0.975761 0
M  V30 1543 H 137.105 3.13608 -0.175798 0
M  V30 1544 H 136.298 4.60403 -2.0505 0
M  V30 1545 H 135.9 2.8987 -2.36329 0
M  V30 1546 H 138.192 5.94238 -3.25404 0
M  V30 1547 H 139.135 5.33753 -4.6531 0
M  V30 1548 H 139.543 4.77976 -3.00332 0
M  V30 1549 N 138.941 1.26152 0.944643 0
M  V30 1550 C 140.171 1.14094 1.72239 0
M  V30 1551 C 140.579 -0.306931 1.86694 0
M  V30 1552 O 139.922 -1.22222 1.3714 0
M  V30 1553 C 139.984 1.73316 3.14963 0
M  V30 1554 C 139.648 3.2239 3.23904 0
M  V30 1555 C 140.645 4.19252 3.07447 0
M  V30 1556 C 138.33 3.62788 3.47405 0
M  V30 1557 C 140.324 5.54491 3.14353 0
M  V30 1558 C 138.011 4.98162 3.53947 0
M  V30 1559 C 139.009 5.93823 3.37436 0
M  V30 1560 O 138.697 7.26732 3.43679 0
M  V30 1561 H 138.429 0.398292 0.546205 0
M  V30 1562 H 140.983 1.67201 1.19301 0
M  V30 1563 H 139.213 1.14667 3.69308 0
M  V30 1564 H 140.902 1.56214 3.74636 0
M  V30 1565 H 141.668 3.8938 2.8915 0
M  V30 1566 H 137.547 2.88816 3.59313 0
M  V30 1567 H 141.091 6.29137 3.01384 0
M  V30 1568 H 136.988 5.27695 3.71763 0
M  V30 1569 H 137.756 7.3496 3.60245 0
M  V30 1570 N 140.419 -1.14872 1.07899 0
M  V30 1571 C 141.665 -1.86064 0.806725 0
M  V30 1572 C 141.998 -1.82434 -0.665706 0
M  V30 1573 O 141.273 -1.25138 -1.48899 0
M  V30 1574 C 141.556 -3.34929 1.32267 0
M  V30 1575 C 141.409 -3.47161 2.86006 0
M  V30 1576 C 142.728 -4.29863 0.943717 0
M  V30 1577 H 139.847 -0.675591 0.294526 0
M  V30 1578 H 142.489 -1.34925 1.33773 0
M  V30 1579 H 140.639 -3.78611 0.870974 0
M  V30 1580 H 142.311 -3.12302 3.39507 0
M  V30 1581 H 140.554 -2.88539 3.23925 0
M  V30 1582 H 141.225 -4.51777 3.17177 0
M  V30 1583 H 143.701 -3.9417 1.33302 0
M  V30 1584 H 142.577 -5.32494 1.33198 0
M  V30 1585 H 142.838 -4.41846 -0.149796 0
M  V30 1586 N 141.898 -0.863906 -1.31812 0
M  V30 1587 C 142.808 -0.318461 -2.32428 0
M  V30 1588 C 143.824 0.568496 -1.64451 0
M  V30 1589 O 145 0.46666 -1.95919 0
M  V30 1590 C 142.065 0.476355 -3.43412 0
M  V30 1591 C 141.126 -0.43784 -4.27061 0
M  V30 1592 C 140.359 0.319138 -5.32745 0
M  V30 1593 O 140.582 1.54799 -5.48993 0
M  V30 1594 O 139.516 -0.319861 -6.01049 0
M  V30 1595 H 143.342 -1.15229 -2.80991 0
M  V30 1596 H 140.927 -0.627103 -1.35602 0
M  V30 1597 H 142.809 0.927156 -4.11074 0
M  V30 1598 H 141.484 1.28683 -2.97022 0
M  V30 1599 H 140.391 -0.937013 -3.62175 0
M  V30 1600 H 141.724 -1.21375 -4.77 0
M  V30 1601 N 143.376 1.44774 -0.622745 0
M  V30 1602 C 144.624 2.01721 -0.123655 0
M  V30 1603 C 144.945 1.49172 1.25589 0
M  V30 1604 O 144.215 0.691974 1.83272 0
M  V30 1605 H 142.795 0.745777 -0.0427225 0
M  V30 1606 H 145.457 1.77382 -0.807559 0
M  V30 1607 H 144.553 3.11984 -0.0849534 0
M  V30 1608 N 144.854 0.36279 1.53368 0
M  V30 1609 C 146.082 -0.228613 2.05633 0
M  V30 1610 C 146.497 -1.42676 1.23649 0
M  V30 1611 O 145.854 -1.80394 0.27647 0
M  V30 1612 C 145.905 -0.624845 3.56059 0
M  V30 1613 O 145.626 0.525675 4.34935 0
M  V30 1614 C 147.127 -1.27493 4.24571 0
M  V30 1615 H 144.347 -0.0407183 0.669763 0
M  V30 1616 H 146.891 0.520352 1.97769 0
M  V30 1617 H 145.046 -1.32373 3.64083 0
M  V30 1618 H 145.46 0.205969 5.24095 0
M  V30 1619 H 146.934 -1.50277 5.31151 0
M  V30 1620 H 147.411 -2.23439 3.78116 0
M  V30 1621 H 148.017 -0.617558 4.20792 0
M  V30 1622 N 146.332 -1.57332 0.0918853 0
M  V30 1623 C 147.262 -2.16872 -0.865371 0
M  V30 1624 C 148.243 -1.10118 -1.29646 0
M  V30 1625 O 149.428 -1.38242 -1.36392 0
M  V30 1626 C 146.558 -2.74649 -2.12569 0
M  V30 1627 C 145.512 -3.86747 -1.83333 0
M  V30 1628 C 144.838 -4.31212 -3.16166 0
M  V30 1629 C 146.138 -5.10089 -1.1228 0
M  V30 1630 H 147.832 -2.97114 -0.369307 0
M  V30 1631 H 145.378 -1.42918 -0.176194 0
M  V30 1632 H 147.331 -3.14952 -2.7997 0
M  V30 1633 H 146.055 -1.91657 -2.64452 0
M  V30 1634 H 144.714 -3.46978 -1.18331 0
M  V30 1635 H 144.362 -3.45115 -3.6593 0
M  V30 1636 H 144.062 -5.06788 -2.97388 0
M  V30 1637 H 145.586 -4.74146 -3.84731 0
M  V30 1638 H 147 -5.47582 -1.69785 0
M  V30 1639 H 145.397 -5.91073 -1.03693 0
M  V30 1640 H 146.467 -4.84786 -0.105041 0
M  V30 1641 N 147.81 0.181792 -1.56548 0
M  V30 1642 C 149.087 0.926765 -1.72251 0
M  V30 1643 C 149.467 2.00831 -0.650386 0
M  V30 1644 O 148.815 2.26008 0.336521 0
M  V30 1645 C 149.025 1.50106 -3.1507 0
M  V30 1646 C 150.373 1.97805 -3.75711 0
M  V30 1647 O 151.397 1.59922 -3.18282 0
M  V30 1648 O 150.256 2.67555 -4.76525 0
M  V30 1649 H 147.35 0.435506 -0.703039 0
M  V30 1650 H 149.896 0.170443 -1.68842 0
M  V30 1651 H 148.668 0.72212 -3.84579 0
M  V30 1652 H 148.291 2.32186 -3.22763 0
M  V30 1653 N 149.288 1.51039 0.449983 0
M  V30 1654 C 150.218 1.74379 1.55288 0
M  V30 1655 C 151.199 0.593236 1.5942 0
M  V30 1656 O 152.384 0.834625 1.7535 0
M  V30 1657 C 149.514 1.85728 2.93466 0
M  V30 1658 C 148.468 3.01078 3.04197 0
M  V30 1659 C 147.794 2.97595 4.44231 0
M  V30 1660 C 149.094 4.41254 2.7945 0
M  V30 1661 H 150.788 2.66725 1.36008 0
M  V30 1662 H 148.334 1.2835 0.652864 0
M  V30 1663 H 150.287 2.0064 3.70569 0
M  V30 1664 H 149.011 0.900207 3.13949 0
M  V30 1665 H 147.67 2.85851 2.29531 0
M  V30 1666 H 147.318 1.99691 4.61663 0
M  V30 1667 H 147.018 3.75046 4.52343 0
M  V30 1668 H 148.542 3.14583 5.23326 0
M  V30 1669 H 149.956 4.56897 3.46292 0
M  V30 1670 H 148.353 5.20315 2.98985 0
M  V30 1671 H 149.423 4.52164 1.75144 0
M  V30 1672 N 150.766 -0.704594 1.40972 0
M  V30 1673 C 151.696 -1.83124 1.44872 0
M  V30 1674 C 152.677 -1.67281 0.30838 0
M  V30 1675 O 153.862 -1.87149 0.518556 0
M  V30 1676 C 150.992 -3.21181 1.32136 0
M  V30 1677 C 149.946 -3.51714 2.43888 0
M  V30 1678 C 149.272 -4.89032 2.16222 0
M  V30 1679 C 150.572 -3.516 3.86232 0
M  V30 1680 H 152.266 -1.80117 2.39161 0
M  V30 1681 H 149.812 -0.865145 1.15114 0
M  V30 1682 H 151.765 -3.99702 1.33479 0
M  V30 1683 H 150.489 -3.24791 0.343279 0
M  V30 1684 H 149.148 -2.75539 2.41813 0
M  V30 1685 H 148.796 -4.89256 1.16778 0
M  V30 1686 H 148.496 -5.10426 2.911 0
M  V30 1687 H 150.02 -5.69873 2.19265 0
M  V30 1688 H 151.434 -4.2014 3.9007 0
M  V30 1689 H 149.831 -3.84523 4.60719 0
M  V30 1690 H 150.901 -2.50757 4.15029 0
M  V30 1691 N 152.244 -1.26651 -0.937939 0
M  V30 1692 C 153.154 -1.10276 -2.07066 0
M  V30 1693 C 154.17 -0.0354197 -1.73964 0
M  V30 1694 O 155.346 -0.239816 -1.99967 0
M  V30 1695 C 152.411 -0.740887 -3.38691 0
M  V30 1696 C 151.472 -1.88799 -3.85556 0
M  V30 1697 C 150.705 -1.54329 -5.10899 0
M  V30 1698 O 150.928 -0.446494 -5.6865 0
M  V30 1699 O 149.862 -2.37911 -5.52885 0
M  V30 1700 H 153.688 -2.05309 -2.23789 0
M  V30 1701 H 151.273 -1.05743 -1.0554 0
M  V30 1702 H 153.155 -0.55195 -4.1777 0
M  V30 1703 H 151.83 0.180022 -3.23199 0
M  V30 1704 H 150.737 -2.13191 -3.07409 0
M  V30 1705 H 152.07 -2.78874 -4.05574 0
M  V30 1706 N 153.722 1.14298 -1.08507 0
M  V30 1707 C 154.652 2.21542 -0.737646 0
M  V30 1708 C 155.633 1.67773 0.280377 0
M  V30 1709 O 156.818 1.93616 0.150521 0
M  V30 1710 C 153.948 3.46988 -0.147259 0
M  V30 1711 C 152.902 4.13789 -1.09374 0
M  V30 1712 C 152.228 5.33449 -0.365524 0
M  V30 1713 C 153.528 4.62208 -2.4323 0
M  V30 1714 H 155.222 2.5086 -1.6343 0
M  V30 1715 H 152.768 1.20576 -0.787243 0
M  V30 1716 H 154.721 4.21262 0.107808 0
M  V30 1717 H 153.445 3.17037 0.784538 0
M  V30 1718 H 152.104 3.4147 -1.33393 0
M  V30 1719 H 151.752 4.99759 0.57011 0
M  V30 1720 H 151.452 5.79088 -0.996512 0
M  V30 1721 H 152.976 6.10485 -0.118534 0
M  V30 1722 H 154.39 5.27952 -2.23472 0
M  V30 1723 H 152.787 5.18553 -3.02031 0
M  V30 1724 H 153.857 3.77224 -3.04681 0
M  V30 1725 N 155.201 0.870884 1.31352 0
M  V30 1726 C 156.131 0.343096 2.30966 0
M  V30 1727 C 157.112 -0.566507 1.60389 0
M  V30 1728 O 158.297 -0.483336 1.88089 0
M  V30 1729 C 155.427 -0.455487 3.443 0
M  V30 1730 C 154.381 0.361103 4.26474 0
M  V30 1731 C 153.707 -0.563221 5.31725 0
M  V30 1732 C 155.007 1.59566 4.97329 0
M  V30 1733 H 156.701 1.17548 2.75359 0
M  V30 1734 H 154.247 0.566686 1.32381 0
M  V30 1735 H 156.2 -0.83525 4.13039 0
M  V30 1736 H 154.924 -1.32139 2.98675 0
M  V30 1737 H 153.583 0.722825 3.59403 0
M  V30 1738 H 153.231 -1.42643 4.82351 0
M  V30 1739 H 152.931 -0.0207409 5.87596 0
M  V30 1740 H 154.455 -0.939808 6.03324 0
M  V30 1741 H 155.869 1.28728 5.58661 0
M  V30 1742 H 154.266 2.07728 5.63 0
M  V30 1743 H 155.336 2.34798 4.24262 0
M  V30 1744 N 156.679 -1.44442 0.630414 0
M  V30 1745 C 157.928 -2.01267 0.132073 0
M  V30 1746 C 158.241 -1.50172 -1.25331 0
M  V30 1747 O 159.447 -1.9912 -1.84562 0
M  V30 1748 C 157.903 -3.59422 0.185362 0
M  V30 1749 C 157.511 -4.19514 1.57201 0
M  V30 1750 C 159.255 -4.23724 -0.256553 0
M  V30 1751 C 157.162 -5.69891 1.58045 0
M  V30 1752 H 156.092 -0.752619 0.0456092 0
M  V30 1753 H 158.743 -1.65666 0.789106 0
M  V30 1754 H 157.125 -3.92318 -0.538759 0
M  V30 1755 H 158.299 -3.98156 2.31966 0
M  V30 1756 H 156.614 -3.67496 1.95795 0
M  V30 1757 H 159.211 -5.34019 -0.269767 0
M  V30 1758 H 159.554 -3.96013 -1.28372 0
M  V30 1759 H 160.087 -3.95629 0.41505 0
M  V30 1760 H 156.826 -6.02336 2.58597 0
M  V30 1761 H 156.346 -5.93373 0.875725 0
M  V30 1762 H 158.025 -6.33515 1.31408 0
M  V30 1763 N 158.157 -0.370918 -1.53173 0
M  V30 1764 C 159.09 0.516727 -2.22273 0
M  V30 1765 C 160.068 1.07877 -1.21661 0
M  V30 1766 O 161.252 1.13389 -1.50583 0
M  V30 1767 C 158.379 1.71346 -2.92161 0
M  V30 1768 C 157.425 1.27838 -4.0689 0
M  V30 1769 S 158.258 0.275217 -5.34792 0
M  V30 1770 C 159.414 1.47816 -6.08195 0
M  V30 1771 H 159.647 -0.0701054 -2.97217 0
M  V30 1772 H 157.18 -0.155038 -1.5362 0
M  V30 1773 H 159.138 2.39988 -3.3304 0
M  V30 1774 H 157.799 2.27156 -2.16931 0
M  V30 1775 H 156.992 2.17141 -4.54825 0
M  V30 1776 H 156.594 0.671105 -3.6793 0
M  V30 1777 H 158.886 2.40831 -6.33251 0
M  V30 1778 H 159.829 1.04008 -7.0042 0
M  V30 1779 H 160.237 1.68663 -5.38714 0
M  V30 1780 N 159.635 1.57281 -0.100228 0
M  V30 1781 C 160.585 2.10848 0.86759 0
M  V30 1782 C 161.569 1.02473 1.24049 0
M  V30 1783 O 162.761 1.28739 1.21471 0
M  V30 1784 C 159.89 2.69648 2.12474 0
M  V30 1785 C 158.976 3.85074 1.77704 0
M  V30 1786 N 159.367 4.92897 1.13518 0
M  V30 1787 C 157.665 3.94905 2.07282 0
M  V30 1788 C 158.366 5.73475 0.974735 0
M  V30 1789 N 157.342 5.22675 1.4937 0
M  V30 1790 H 161.144 2.91594 0.367471 0
M  V30 1791 H 158.658 1.62074 0.102829 0
M  V30 1792 H 160.655 3.06356 2.82757 0
M  V30 1793 H 159.315 1.90359 2.63047 0
M  V30 1794 H 160.326 5.11662 0.801381 0
M  V30 1795 H 157.003 3.26633 2.60033 0
M  V30 1796 H 158.393 6.70238 0.472364 0
M  V30 1797 N 161.113 -0.173488 1.56642 0
M  V30 1798 C 162.524 -0.736155 1.71574 0
M  V30 1799 C 162.875 -1.82888 0.710389 0
M  V30 1800 O 162 -2.16017 -0.1287 0
M  V30 1801 C 162.595 -1.34211 3.11083 0
M  V30 1802 C 161.154 -1.85162 3.27707 0
M  V30 1803 C 160.301 -0.729765 2.67525 0
M  V30 1804 H 163.252 0.0518786 1.58615 0
M  V30 1805 H 163.273 -2.21178 3.09613 0
M  V30 1806 H 162.785 -0.546579 3.84232 0
M  V30 1807 H 160.886 -2.67366 2.59512 0
M  V30 1808 H 160.999 -1.99855 4.35425 0
M  V30 1809 H 159.363 -1.14965 2.27278 0
M  V30 1810 H 160.146 0.0538806 3.43258 0
M  V30 1811 N 162.591 -1.51276 -0.441967 0
M  V30 1812 C 163.838 -1.63715 -1.19179 0
M  V30 1813 C 164.166 -0.351175 -1.91303 0
M  V30 1814 O 163.421 0.664524 -1.84072 0
M  V30 1815 C 163.72 -2.78746 -2.23686 0
M  V30 1816 C 163.386 -4.18189 -1.68607 0
M  V30 1817 C 162.048 -4.56125 -1.53308 0
M  V30 1818 C 164.4 -5.05222 -1.28062 0
M  V30 1819 C 161.728 -5.78804 -0.959317 0
M  V30 1820 C 164.08 -6.28476 -0.721162 0
M  V30 1821 C 162.744 -6.65188 -0.55504 0
M  V30 1822 H 162.014 -0.599076 -0.436106 0
M  V30 1823 H 164.661 -1.85296 -0.48351 0
M  V30 1824 H 162.966 -2.51369 -3.00535 0
M  V30 1825 H 164.663 -2.8557 -2.81515 0
M  V30 1826 H 161.253 -3.88277 -1.8149 0
M  V30 1827 H 165.437 -4.76524 -1.38704 0
M  V30 1828 H 160.693 -6.05899 -0.81833 0
M  V30 1829 H 164.867 -6.95259 -0.398458 0
M  V30 1830 H 162.494 -7.60123 -0.108311 0
M  V30 1831 N 164.069 0.697108 -1.41344 0
M  V30 1832 C 164.999 1.82353 -1.45841 0
M  V30 1833 C 165.98 1.67115 -0.317247 0
M  V30 1834 O 167.165 1.86871 -0.528474 0
M  V30 1835 C 164.295 3.20476 -1.33838 0
M  V30 1836 C 163.249 3.50415 -2.4575 0
M  V30 1837 C 162.575 4.87878 -2.18813 0
M  V30 1838 C 163.875 3.49546 -3.88091 0
M  V30 1839 H 165.569 1.78846 -2.40113 0
M  V30 1840 H 163.115 0.859028 -1.15571 0
M  V30 1841 H 165.068 3.98988 -1.35596 0
M  V30 1842 H 163.792 3.24604 -0.360498 0
M  V30 1843 H 162.451 2.74253 -2.43271 0
M  V30 1844 H 162.099 4.8863 -1.19371 0
M  V30 1845 H 161.799 5.08875 -2.93803 0
M  V30 1846 H 163.323 5.68702 -2.22284 0
M  V30 1847 H 164.737 4.18066 -3.92293 0
M  V30 1848 H 163.134 3.82075 -4.62751 0
M  V30 1849 H 164.204 2.48552 -4.16353 0
M  V30 1850 N 165.547 1.27147 0.931209 0
M  V30 1851 C 166.494 1.09568 2.03134 0
M  V30 1852 C 167.464 -0.00222433 1.661 0
M  V30 1853 O 168.649 0.159439 1.90133 0
M  V30 1854 C 165.789 0.745231 3.36957 0
M  V30 1855 C 164.902 1.92041 3.86968 0
M  V30 1856 C 164.037 1.51216 5.09222 0
M  V30 1857 C 163.076 2.65504 5.5152 0
M  V30 1858 N 162.213 2.25291 6.64972 0
M  V30 1859 H 167.053 2.03708 2.17502 0
M  V30 1860 H 164.59 1.01411 1.06556 0
M  V30 1861 H 166.548 0.522878 4.1391 0
M  V30 1862 H 165.178 -0.159202 3.22407 0
M  V30 1863 H 164.23 2.25541 3.06326 0
M  V30 1864 H 165.542 2.77787 4.1429 0
M  V30 1865 H 164.696 1.25084 5.93666 0
M  V30 1866 H 163.435 0.625749 4.83669 0
M  V30 1867 H 162.44 2.92354 4.65628 0
M  V30 1868 H 163.665 3.54761 5.7907 0
M  V30 1869 H 161.611 1.39098 6.41083 0
M  V30 1870 H 161.528 3.04577 6.91931 0
M  V30 1871 H 162.796 2.02398 7.52765 0
M  V30 1872 N 167.025 -1.13721 1.09112 0
M  V30 1873 C 168.436 -1.6648 0.845068 0
M  V30 1874 C 168.787 -1.85911 -0.62701 0
M  V30 1875 O 167.912 -1.57556 -1.48341 0
M  V30 1876 C 168.507 -3.02413 1.52748 0
M  V30 1877 C 167.066 -3.52176 1.32849 0
M  V30 1878 C 166.213 -2.27492 1.58564 0
M  V30 1879 H 169.164 -0.976872 1.25072 0
M  V30 1880 H 169.185 -3.68223 0.958752 0
M  V30 1881 H 168.697 -2.88238 2.59885 0
M  V30 1882 H 166.798 -3.7156 0.278137 0
M  V30 1883 H 166.911 -4.32499 2.0611 0
M  V30 1884 H 165.275 -2.33923 1.00758 0
M  V30 1885 H 166.058 -2.15886 2.66924 0
M  V30 1886 N 168.503 -0.877838 -1.30888 0
M  V30 1887 C 169.78 -0.413052 -1.91189 0
M  V30 1888 C 170.16 1.1056 -1.79832 0
M  V30 1889 O 169.508 1.93771 -1.21099 0
M  V30 1890 C 169.718 -0.903191 -3.3711 0
M  V30 1891 C 171.066 -0.93395 -4.14201 0
M  V30 1892 O 172.09 -0.849373 -3.45925 0
M  V30 1893 O 170.949 -1.05772 -5.36167 0
M  V30 1894 H 168.043 -0.125035 -0.817493 0
M  V30 1895 H 170.589 -0.966269 -1.39504 0
M  V30 1896 H 169.361 -1.94692 -3.39427 0
M  V30 1897 H 168.984 -0.328732 -3.96239 0
M  V30 1898 N 169.982 1.44106 -0.638065 0
M  V30 1899 C 171.259 1.95453 -0.0759321 0
M  V30 1900 C 171.639 1.57984 1.40015 0
M  V30 1901 O 170.987 0.857361 2.11806 0
M  V30 1902 C 171.197 3.47655 -0.306132 0
M  V30 1903 C 172.545 4.24114 -0.203008 0
M  V30 1904 O 173.569 3.55405 -0.237871 0
M  V30 1905 O 172.428 5.46381 -0.113827 0
M  V30 1906 H 169.522 0.826797 0.0183332 0
M  V30 1907 H 172.068 1.54122 -0.710251 0
M  V30 1908 H 170.84 3.68 -1.3301 0
M  V30 1909 H 170.463 3.95949 0.361991 0
M  V30 1910 N 171.46 0.379036 1.52974 0
M  V30 1911 C 172.392 -0.495963 2.2377 0
M  V30 1912 C 173.405 -1.03517 1.25651 0
M  V30 1913 O 174.594 -0.939249 1.51791 0
M  V30 1914 C 171.694 -1.69894 2.93239 0
M  V30 1915 C 170.867 -1.2889 4.17979 0
M  V30 1916 C 169.926 -2.35543 4.70538 0
M  V30 1917 O 168.952 -1.97375 5.33883 0
M  V30 1918 N 170.154 -3.67318 4.49508 0
M  V30 1919 H 172.919 0.110523 2.99496 0
M  V30 1920 H 170.48 0.204878 1.60598 0
M  V30 1921 H 172.472 -2.40747 3.25304 0
M  V30 1922 H 171.042 -2.212 2.20883 0
M  V30 1923 H 170.262 -0.409676 3.92065 0
M  V30 1924 H 171.55 -0.991443 4.99047 0
M  V30 1925 H 170.948 -4.01095 3.98923 0
M  V30 1926 H 169.505 -4.34235 4.8609 0
M  V30 1927 N 172.938 -1.57226 0.108567 0
M  V30 1928 C 173.87 -2.11809 -0.875752 0
M  V30 1929 C 174.883 -1.05839 -1.23701 0
M  V30 1930 O 176.072 -1.33245 -1.18778 0
M  V30 1931 C 173.172 -2.59411 -2.18081 0
M  V30 1932 C 172.345 -3.89364 -1.99284 0
M  V30 1933 C 171.404 -4.22672 -3.13424 0
M  V30 1934 O 170.43 -4.91668 -2.86795 0
M  V30 1935 N 171.632 -3.79154 -4.3957 0
M  V30 1936 H 174.397 -2.9689 -0.409477 0
M  V30 1937 H 171.958 -1.61721 -0.076158 0
M  V30 1938 H 173.95 -2.7873 -2.93414 0
M  V30 1939 H 172.52 -1.79268 -2.5609 0
M  V30 1940 H 171.74 -3.79059 -1.08203 0
M  V30 1941 H 173.028 -4.74358 -1.84017 0
M  V30 1942 H 172.426 -3.23486 -4.64083 0
M  V30 1943 H 170.983 -4.03602 -5.11809 0
M  V30 1944 N 174.416 0.165178 -1.56732 0
M  V30 1945 C 175.363 1.2044 -1.96883 0
M  V30 1946 C 176.333 1.43664 -0.833657 0
M  V30 1947 O 177.518 1.56302 -1.09427 0
M  V30 1948 C 174.658 2.53727 -2.33916 0
M  V30 1949 C 173.771 2.3783 -3.6064 0
M  V30 1950 C 172.906 3.64026 -3.86857 0
M  V30 1951 C 171.945 3.43088 -5.06909 0
M  V30 1952 N 171.082 4.61369 -5.29229 0
M  V30 1953 H 175.922 0.854996 -2.85471 0
M  V30 1954 H 173.459 0.41076 -1.41249 0
M  V30 1955 H 175.417 3.31419 -2.53411 0
M  V30 1956 H 174.047 2.8665 -1.48431 0
M  V30 1957 H 173.099 1.51282 -3.49024 0
M  V30 1958 H 174.411 2.18308 -4.4849 0
M  V30 1959 H 173.565 4.50152 -4.06753 0
M  V30 1960 H 172.304 3.86533 -2.97394 0
M  V30 1961 H 171.309 2.55349 -4.86906 0
M  V30 1962 H 172.534 3.21997 -5.97909 0
M  V30 1963 H 170.48 4.84084 -4.42718 0
M  V30 1964 H 170.397 4.44783 -6.11313 0
M  V30 1965 H 171.665 5.48761 -5.53608 0
M  V30 1966 N 175.894 1.51508 0.433938 0
M  V30 1967 C 176.804 1.75917 1.5521 0
M  V30 1968 C 177.82 0.643545 1.61662 0
M  V30 1969 O 178.996 0.926183 1.7884 0
M  V30 1970 C 176.061 1.88213 2.91164 0
M  V30 1971 C 175.122 3.12074 2.94802 0
M  V30 1972 C 174.355 3.23774 4.24271 0
M  V30 1973 O 174.578 2.4133 5.16833 0
M  V30 1974 O 173.512 4.16774 4.34262 0
M  V30 1975 H 177.338 2.70777 1.37527 0
M  V30 1976 H 174.923 1.36051 0.617293 0
M  V30 1977 H 176.805 1.98267 3.71845 0
M  V30 1978 H 175.48 0.965413 3.08968 0
M  V30 1979 H 174.387 3.07497 2.13065 0
M  V30 1980 H 175.72 4.03446 2.81943 0
M  V30 1981 N 177.372 -0.689602 1.41712 0
M  V30 1982 C 178.618 -1.45181 1.41599 0
M  V30 1983 C 178.951 -1.94181 0.0270081 0
M  V30 1984 O 178.226 -1.6993 -0.946265 0
M  V30 1985 C 178.509 -2.65945 2.42787 0
M  V30 1986 C 178.362 -2.22672 3.90816 0
M  V30 1987 C 179.681 -3.68149 2.41151 0
M  V30 1988 H 176.8 -0.526576 0.515642 0
M  V30 1989 H 179.442 -0.784947 1.73028 0
M  V30 1990 H 177.592 -3.2284 2.16116 0
M  V30 1991 H 179.264 -1.71058 4.28412 0
M  V30 1992 H 177.507 -1.54394 4.05395 0
M  V30 1993 H 178.178 -3.0935 4.57172 0
M  V30 1994 H 180.654 -3.2094 2.64834 0
M  V30 1995 H 179.53 -4.50248 3.13955 0
M  V30 1996 H 179.791 -4.18259 1.43221 0
M  V30 1997 N 178.85 -1.27639 -0.924453 0
M  V30 1998 C 180.096 -1.14336 -1.67497 0
M  V30 1999 C 180.429 0.309465 -1.91718 0
M  V30 2000 O 179.704 1.22608 -1.50989 0
M  V30 2001 C 179.987 -1.93096 -3.0395 0
M  V30 2002 C 179.84 -3.46381 -2.8695 0
M  V30 2003 C 181.159 -1.73798 -4.0433 0
M  V30 2004 H 178.278 -0.416728 -0.607871 0
M  V30 2005 H 180.92 -1.56832 -1.07256 0
M  V30 2006 H 179.07 -1.56982 -3.55372 0
M  V30 2007 H 180.742 -3.92343 -2.42621 0
M  V30 2008 H 178.985 -3.72557 -2.22225 0
M  V30 2009 H 179.656 -3.96735 -3.83804 0
M  V30 2010 H 182.132 -2.05293 -3.61931 0
M  V30 2011 H 181.008 -2.31294 -4.97789 0
M  V30 2012 H 181.269 -0.686725 -4.36734 0
M  V30 2013 N 180.328 1.1314 -1.09713 0
M  V30 2014 C 181.276 2.20717 -0.733934 0
M  V30 2015 C 182.27 1.6729 0.266506 0
M  V30 2016 O 183.476 1.79547 0.127656 0
M  V30 2017 H 179.851 0.719292 -0.21937 0
M  V30 2018 H 181.822 2.48611 -1.6503 0
M  V30 2019 C 180.571 3.47265 -0.173849 0
M  V30 2020 H 179.894 3.88716 -0.934873 0
M  V30 2021 H 181.334 4.23979 0.0423126 0
M  V30 2022 C 179.793 3.18724 1.09164 0
M  V30 2023 O 180.323 3.37762 2.17439 0
M  V30 2024 N 178.529 2.72583 1.00732 0
M  V30 2025 H 178.076 2.57291 0.126121 0
M  V30 2026 H 178.034 2.53862 1.85476 0
M  V30 2027 N 181.806 0.884767 1.30421 0
M  V30 2028 C 182.739 0.295999 2.26272 0
M  V30 2029 C 183.717 -0.58332 1.51777 0
M  V30 2030 O 184.901 -0.53346 1.80794 0
M  V30 2031 C 182.028 -0.57944 3.33707 0
M  V30 2032 C 181.074 0.230525 4.25877 0
M  V30 2033 S 181.907 1.61867 5.1045 0
M  V30 2034 C 183.063 0.749756 6.21393 0
M  V30 2035 H 183.296 1.10848 2.75862 0
M  V30 2036 H 180.829 0.684178 1.38414 0
M  V30 2037 H 182.787 -1.07879 3.96071 0
M  V30 2038 H 181.448 -1.36601 2.82841 0
M  V30 2039 H 180.641 -0.437542 5.02097 0
M  V30 2040 H 180.243 0.662493 3.68086 0
M  V30 2041 H 182.535 -0.0333547 6.77492 0
M  V30 2042 H 183.478 1.48356 6.92384 0
M  V30 2043 H 183.886 0.310751 5.63644 0
M  V30 2044 N 183.284 -1.43765 0.645699 0
M  V30 2045 C 184.247 -2.29163 -0.0409488 0
M  V30 2046 C 185.247 -1.41813 -0.757996 0
M  V30 2047 O 186.437 -1.63527 -0.600382 0
M  V30 2048 C 183.569 -3.23716 -1.06869 0
M  V30 2049 H 184.762 -2.91366 0.710345 0
M  V30 2050 H 182.315 -1.5092 0.406547 0
M  V30 2051 H 183.05 -2.66393 -1.84947 0
M  V30 2052 H 182.835 -3.88105 -0.558277 0
M  V30 2053 H 184.325 -3.87831 -1.54845 0
M  V30 2054 N 184.763 -0.387143 -1.52771 0
M  V30 2055 C 185.695 0.484089 -2.2403 0
M  V30 2056 C 186.708 1.02849 -1.26198 0
M  V30 2057 O 187.897 0.931186 -1.52286 0
M  V30 2058 C 184.997 1.68337 -2.94136 0
M  V30 2059 C 184.17 1.26672 -4.18656 0
M  V30 2060 C 183.229 2.33045 -4.7178 0
M  V30 2061 O 182.255 1.94541 -5.34923 0
M  V30 2062 N 183.457 3.64929 -4.5145 0
M  V30 2063 H 186.222 -0.126404 -2.99433 0
M  V30 2064 H 183.783 -0.213392 -1.60488 0
M  V30 2065 H 185.775 2.39019 -3.26577 0
M  V30 2066 H 184.345 2.20025 -2.22053 0
M  V30 2067 H 183.565 0.388878 -3.92277 0
M  V30 2068 H 184.853 0.964964 -4.99566 0
M  V30 2069 H 184.251 3.98974 -4.01044 0
M  V30 2070 H 182.808 4.31651 -4.88386 0
M  V30 2071 N 186.241 1.57166 -0.116904 0
M  V30 2072 C 187.188 2.15202 0.83408 0
M  V30 2073 C 188.158 1.07644 1.26499 0
M  V30 2074 O 189.343 1.35541 1.34288 0
M  V30 2075 C 186.483 2.75405 2.07957 0
M  V30 2076 C 185.596 3.97264 1.69721 0
M  V30 2077 C 184.731 4.45561 2.89221 0
M  V30 2078 C 183.77 5.59956 2.47215 0
M  V30 2079 N 182.907 6.03006 3.59622 0
M  V30 2080 H 187.747 2.96141 0.332335 0
M  V30 2081 H 185.284 1.46309 0.152349 0
M  V30 2082 H 187.242 3.08439 2.80929 0
M  V30 2083 H 185.872 1.97159 2.55594 0
M  V30 2084 H 184.924 3.70404 0.866316 0
M  V30 2085 H 186.236 4.80226 1.34849 0
M  V30 2086 H 185.39 4.80493 3.7042 0
M  V30 2087 H 184.129 3.61544 3.27318 0
M  V30 2088 H 183.134 5.2463 1.64448 0
M  V30 2089 H 184.359 6.45738 2.10238 0
M  V30 2090 H 182.305 5.21931 3.97396 0
M  V30 2091 H 182.222 6.80819 3.28667 0
M  V30 2092 H 183.49 6.42576 4.41267 0
M  V30 2093 N 187.719 -0.156864 1.56817 0
M  V30 2094 C 188.682 -1.17781 1.96622 0
M  V30 2095 C 189.682 -1.36401 0.851555 0
M  V30 2096 O 190.872 -1.33561 1.11836 0
M  V30 2097 C 188.004 -2.54008 2.27361 0
M  V30 2098 H 189.197 -0.836564 2.87996 0
M  V30 2099 H 186.75 -0.39985 1.51099 0
M  V30 2100 H 187.485 -2.9312 1.38748 0
M  V30 2101 H 187.27 -2.41856 3.08623 0
M  V30 2102 H 188.76 -3.27558 2.59029 0
M  V30 2103 N 189.197 -1.51736 -0.425897 0
M  V30 2104 C 190.446 -1.64201 -1.17136 0
M  V30 2105 C 190.759 -0.369705 -1.92074 0
M  V30 2106 O 191.965 -0.373898 -2.68913 0
M  V30 2107 C 190.421 -2.90035 -2.13091 0
M  V30 2108 C 190.029 -4.24312 -1.43747 0
M  V30 2109 C 191.773 -3.1186 -2.87999 0
M  V30 2110 C 189.68 -5.41285 -2.38253 0
M  V30 2111 H 188.61 -0.611624 -0.440944 0
M  V30 2112 H 191.261 -1.78212 -0.437328 0
M  V30 2113 H 189.643 -2.69684 -2.89977 0
M  V30 2114 H 190.817 -4.55086 -0.723408 0
M  V30 2115 H 189.132 -4.08456 -0.809465 0
M  V30 2116 H 191.729 -3.96427 -3.58817 0
M  V30 2117 H 192.072 -2.25403 -3.49999 0
M  V30 2118 H 192.605 -3.32605 -2.18217 0
M  V30 2119 H 189.344 -6.30037 -1.80925 0
M  V30 2120 H 188.864 -5.14872 -3.0768 0
M  V30 2121 H 190.543 -5.73694 -2.99139 0
M  V30 2122 N 190.675 0.682077 -1.42076 0
M  V30 2123 C 191.924 1.43786 -1.41451 0
M  V30 2124 C 192.237 1.95574 -0.0317074 0
M  V30 2125 O 193.443 2.71326 0.0971462 0
M  V30 2126 C 191.899 2.60071 -2.48779 0
M  V30 2127 C 191.507 2.15013 -3.93031 0
M  V30 2128 C 193.251 3.37626 -2.57311 0
M  V30 2129 C 191.158 3.28336 -4.91883 0
M  V30 2130 H 190.088 0.540143 -0.526082 0
M  V30 2131 H 192.739 0.739157 -1.67955 0
M  V30 2132 H 191.121 3.32275 -2.15429 0
M  V30 2133 H 192.295 1.5001 -4.35699 0
M  V30 2134 H 190.61 1.50416 -3.88284 0
M  V30 2135 H 193.207 4.22012 -3.28345 0
M  V30 2136 H 193.55 3.83727 -1.61429 0
M  V30 2137 H 194.083 2.72488 -2.89819 0
M  V30 2138 H 190.822 2.87234 -5.89217 0
M  V30 2139 H 190.342 3.92145 -4.53853 0
M  V30 2140 H 192.021 3.93913 -5.13265 0
M  V30 2141 N 192.153 1.28127 0.917671 0
M  V30 2142 C 193.569 1.05749 1.19538 0
M  V30 2143 C 193.769 -0.202633 2.00479 0
M  V30 2144 O 192.825 -0.905382 2.3571 0
M  V30 2145 C 194.138 2.30273 1.93378 0
M  V30 2146 C 195.686 2.35412 2.06277 0
M  V30 2147 C 196.161 3.59692 2.83524 0
M  V30 2148 N 197.652 3.60309 2.91087 0
M  V30 2149 C 198.387 4.53147 3.51348 0
M  V30 2150 N 197.883 5.563 4.12919 0
M  V30 2151 N 199.676 4.40751 3.48849 0
M  V30 2152 H 191.827 2.09024 0.377184 0
M  V30 2153 H 194.09 0.919798 0.22951 0
M  V30 2154 H 193.796 3.22055 1.41328 0
M  V30 2155 H 193.67 2.36378 2.93947 0
M  V30 2156 H 196.057 1.4413 2.57508 0
M  V30 2157 H 196.138 2.33304 1.04895 0
M  V30 2158 H 195.782 4.51316 2.32973 0
M  V30 2159 H 195.712 3.59054 3.85211 0
M  V30 2160 H 198.203 2.85714 2.47338 0
M  V30 2161 H 198.516 6.2329 4.56869 0
M  V30 2162 H 196.861 5.60131 4.11435 0
M  V30 2163 H 200.052 3.59367 2.99955 0
M  V30 2164 H 200.225 5.13291 3.9552 0
M  V30 2165 N 193.631 -1.12557 1.10312 0
M  V30 2166 C 194.861 -1.87592 0.865617 0
M  V30 2167 C 195.269 -1.79851 -0.587389 0
M  V30 2168 O 194.612 -1.16949 -1.41664 0
M  V30 2169 C 194.674 -3.37665 1.23381 0
M  V30 2170 C 194.338 -3.69181 2.69359 0
M  V30 2171 C 195.335 -3.67652 3.67597 0
M  V30 2172 C 193.02 -3.98555 3.05711 0
M  V30 2173 C 195.014 -3.95053 5.00212 0
M  V30 2174 C 192.701 -4.25616 4.38514 0
M  V30 2175 C 193.699 -4.23851 5.35574 0
M  V30 2176 O 193.387 -4.50242 6.65986 0
M  V30 2177 H 193.119 -0.600442 0.310557 0
M  V30 2178 H 195.673 -1.4335 1.47105 0
M  V30 2179 H 193.903 -3.82454 0.571467 0
M  V30 2180 H 195.592 -3.94041 0.973994 0
M  V30 2181 H 196.358 -3.45024 3.40857 0
M  V30 2182 H 192.237 -3.99071 2.30789 0
M  V30 2183 H 195.781 -3.93591 5.75962 0
M  V30 2184 H 191.678 -4.47718 4.64994 0
M  V30 2185 H 192.446 -4.67867 6.71597 0
M  V30 2186 N 195.109 -0.891671 -1.2995 0
M  V30 2187 C 196.356 -0.513501 -1.95881 0
M  V30 2188 C 196.684 0.938655 -1.70351 0
M  V30 2189 O 195.939 1.67936 -1.00478 0
M  V30 2190 C 196.238 -0.742868 -3.49594 0
M  V30 2191 C 195.904 -2.17114 -3.95186 0
M  V30 2192 C 194.566 -2.56169 -4.07346 0
M  V30 2193 C 196.918 -3.10162 -4.18866 0
M  V30 2194 C 194.246 -3.87469 -4.4055 0
M  V30 2195 C 196.598 -4.41001 -4.53542 0
M  V30 2196 C 195.262 -4.79941 -4.63911 0
M  V30 2197 H 194.532 -0.187903 -0.71678 0
M  V30 2198 H 197.179 -1.1288 -1.54694 0
M  V30 2199 H 195.484 -0.044586 -3.91775 0
M  V30 2200 H 197.181 -0.429767 -3.9869 0
M  V30 2201 H 193.771 -1.85801 -3.86233 0
M  V30 2202 H 197.955 -2.81206 -4.08946 0
M  V30 2203 H 193.211 -4.17371 -4.46779 0
M  V30 2204 H 197.385 -5.13133 -4.70815 0
M  V30 2205 H 195.012 -5.81719 -4.89395 0
M  V30 2206 N 196.587 1.43421 -0.653314 0
M  V30 2207 C 197.998 1.85065 -0.246537 0
M  V30 2208 C 198.349 1.54688 1.2069 0
M  V30 2209 O 197.474 0.995896 1.92122 0
M  V30 2210 C 198.069 3.35922 -0.440666 0
M  V30 2211 C 196.628 3.76297 -0.0882064 0
M  V30 2212 C 195.775 2.67147 -0.743484 0
M  V30 2213 H 198.726 1.33572 -0.856979 0
M  V30 2214 H 198.747 3.79204 0.313798 0
M  V30 2215 H 198.259 3.58 -1.49858 0
M  V30 2216 H 196.36 3.5983 0.96711 0
M  V30 2217 H 196.473 4.76338 -0.513738 0
M  V30 2218 H 194.837 2.54086 -0.176712 0
M  V30 2219 H 195.62 2.92053 -1.80443 0
M  V30 2220 N 198.065 0.39524 1.52563 0
M  V30 2221 C 199.311 -0.185318 2.01952 0
M  V30 2222 C 199.644 -1.45964 1.28095 0
M  V30 2223 O 198.919 -1.90689 0.38315 0
M  V30 2224 C 199.202 -0.447193 3.57312 0
M  V30 2225 C 199.055 0.842828 4.41833 0
M  V30 2226 C 200.374 -1.23529 4.22408 0
M  V30 2227 H 197.493 -0.0658788 0.73405 0
M  V30 2228 H 200.135 0.525975 1.82575 0
M  V30 2229 H 198.285 -1.05312 3.73954 0
M  V30 2230 H 199.957 1.4795 4.36931 0
M  V30 2231 H 198.2 1.45686 4.08605 0
M  V30 2232 H 198.871 0.614165 5.48573 0
M  V30 2233 H 201.347 -0.722445 4.0978 0
M  V30 2234 H 200.223 -1.38727 5.3108 0
M  V30 2235 H 200.484 -2.25213 3.80436 0
M  V30 2236 N 199.544 -1.57102 0.125237 0
M  V30 2237 C 200.791 -1.95407 -0.531248 0
M  V30 2238 C 201.119 -1.0089 -1.66287 0
M  V30 2239 O 200.374 -0.0339431 -1.95671 0
M  V30 2240 C 200.673 -3.40096 -1.09862 0
M  V30 2241 C 200.339 -4.50815 -0.0876989 0
M  V30 2242 C 199.001 -4.80824 0.19026 0
M  V30 2243 C 201.353 -5.17724 0.600902 0
M  V30 2244 C 198.681 -5.75058 1.163 0
M  V30 2245 C 201.033 -6.13005 1.56231 0
M  V30 2246 C 199.697 -6.41403 1.8482 0
M  V30 2247 H 198.967 -0.715046 -0.194397 0
M  V30 2248 H 201.614 -1.90373 0.207463 0
M  V30 2249 H 199.919 -3.41855 -1.91422 0
M  V30 2250 H 201.616 -3.6705 -1.61478 0
M  V30 2251 H 198.206 -4.27444 -0.314528 0
M  V30 2252 H 202.39 -4.94691 0.399333 0
M  V30 2253 H 197.646 -5.95362 1.39117 0
M  V30 2254 H 201.82 -6.63934 2.10153 0
M  V30 2255 H 199.447 -7.14229 2.60349 0
M  V30 2256 N 201.022 0.148545 -1.56898 0
M  V30 2257 C 201.932 1.20293 -2.01412 0
M  V30 2258 C 202.948 1.47107 -0.929273 0
M  V30 2259 O 204.124 1.58807 -1.23863 0
M  V30 2260 C 201.189 2.51682 -2.38447 0
M  V30 2261 C 200.25 2.32529 -3.60872 0
M  V30 2262 C 199.483 3.57653 -3.96132 0
M  V30 2263 O 199.706 4.63771 -3.32073 0
M  V30 2264 O 198.64 3.50408 -4.89385 0
M  V30 2265 H 202.466 0.855025 -2.91416 0
M  V30 2266 H 200.051 0.357151 -1.45068 0
M  V30 2267 H 201.933 3.29147 -2.63135 0
M  V30 2268 H 200.608 2.86006 -1.51599 0
M  V30 2269 H 199.515 1.53019 -3.41373 0
M  V30 2270 H 200.848 2.03121 -4.48333 0
M  V30 2271 N 202.5 1.5196 0.417844 0
M  V30 2272 C 203.447 1.74678 1.50852 0
M  V30 2273 C 204.417 0.588947 1.55308 0
M  V30 2274 O 205.602 0.825544 1.72016 0
M  V30 2275 C 202.742 1.89544 2.88387 0
M  V30 2276 C 201.855 3.17166 2.93309 0
M  V30 2277 C 200.99 3.22513 4.22088 0
M  V30 2278 C 200.029 4.44372 4.20951 0
M  V30 2279 N 199.166 4.47161 5.41287 0
M  V30 2280 H 204.006 2.67768 1.30783 0
M  V30 2281 H 201.543 1.32689 0.63498 0
M  V30 2282 H 203.501 1.96146 3.68216 0
M  V30 2283 H 202.131 0.998424 3.06971 0
M  V30 2284 H 201.183 3.19778 2.06024 0
M  V30 2285 H 202.495 4.07021 2.88332 0
M  V30 2286 H 201.649 3.28139 5.10303 0
M  V30 2287 H 200.388 2.30581 4.29748 0
M  V30 2288 H 199.393 4.38902 3.31127 0
M  V30 2289 H 200.618 5.3759 4.14938 0
M  V30 2290 H 198.564 3.58108 5.49632 0
M  V30 2291 H 198.481 5.3085 5.3827 0
M  V30 2292 H 199.749 4.57005 6.3148 0
M  V30 2293 N 203.978 -0.674533 1.42435 0
M  V30 2294 C 205.227 -1.43034 1.42212 0
M  V30 2295 C 205.54 -1.95555 0.0420788 0
M  V30 2296 O 206.746 -2.71374 -0.0827558 0
M  V30 2297 C 205.202 -2.58748 2.50155 0
M  V30 2298 C 204.81 -2.12925 3.94166 0
M  V30 2299 C 206.554 -3.36257 2.59098 0
M  V30 2300 C 204.461 -3.25723 4.93618 0
M  V30 2301 H 203.391 -0.537345 0.528939 0
M  V30 2302 H 206.042 -0.73024 1.68344 0
M  V30 2303 H 204.424 -3.31128 2.17188 0
M  V30 2304 H 205.598 -1.47697 4.36488 0
M  V30 2305 H 203.913 -1.48354 3.89076 0
M  V30 2306 H 206.51 -4.20264 3.30578 0
M  V30 2307 H 206.853 -3.82866 1.63461 0
M  V30 2308 H 207.386 -2.70947 2.9126 0
M  V30 2309 H 204.125 -2.84105 5.90732 0
M  V30 2310 H 203.645 -3.89732 4.55926 0
M  V30 2311 H 205.324 -3.91186 5.15347 0
M  V30 2312 N 205.456 -1.28612 -0.910864 0
M  V30 2313 C 206.386 -1.15326 -2.03032 0
M  V30 2314 C 207.367 -0.0502924 -1.70026 0
M  V30 2315 O 208.552 -0.227797 -1.92859 0
M  V30 2316 C 205.682 -0.817343 -3.37545 0
M  V30 2317 C 204.636 -1.8754 -3.84724 0
M  V30 2318 C 203.962 -1.39305 -5.16235 0
M  V30 2319 C 205.262 -3.28244 -4.06267 0
M  V30 2320 H 206.956 -2.08975 -2.14406 0
M  V30 2321 H 204.502 -1.00612 -1.03021 0
M  V30 2322 H 206.455 -0.711151 -4.15356 0
M  V30 2323 H 205.179 0.154846 -3.26233 0
M  V30 2324 H 203.838 -1.97079 -3.09121 0
M  V30 2325 H 203.486 -0.409846 -5.01328 0
M  V30 2326 H 203.186 -2.10057 -5.48771 0
M  V30 2327 H 204.71 -1.30014 -5.96598 0
M  V30 2328 H 206.124 -3.21611 -4.74594 0
M  V30 2329 H 204.521 -3.96855 -4.5014 0
M  V30 2330 H 205.591 -3.72048 -3.10979 0
M  V30 2331 N 206.934 1.1197 -1.10907 0
M  V30 2332 C 208.35 1.35591 -0.841852 0
M  V30 2333 C 208.55 1.94233 0.536246 0
M  V30 2334 O 207.606 2.1717 1.28816 0
M  V30 2335 C 208.919 2.29284 -1.94549 0
M  V30 2336 C 210.467 2.42862 -1.97451 0
M  V30 2337 C 210.942 3.39873 -3.07002 0
M  V30 2338 N 212.433 3.47433 -3.06341 0
M  V30 2339 C 213.168 4.22421 -3.87748 0
M  V30 2340 N 212.664 5.00432 -4.79103 0
M  V30 2341 N 214.457 4.17876 -3.75946 0
M  V30 2342 H 206.608 0.722664 -1.99728 0
M  V30 2343 H 208.871 0.380635 -0.868229 0
M  V30 2344 H 208.577 1.93378 -2.93765 0
M  V30 2345 H 208.451 3.29452 -1.83688 0
M  V30 2346 H 210.838 2.78046 -0.988645 0
M  V30 2347 H 210.919 1.42566 -2.12388 0
M  V30 2348 H 210.563 3.05417 -4.05811 0
M  V30 2349 H 210.493 4.40011 -2.89306 0
M  V30 2350 H 212.984 2.91784 -2.40147 0
M  V30 2351 H 213.297 5.55002 -5.37766 0
M  V30 2352 H 211.642 4.99612 -4.83128 0
M  V30 2353 H 214.833 3.56016 -3.03924 0
M  V30 2354 H 215.006 4.76061 -4.39624 0
M  V30 2355 N 208.412 0.89855 1.29475 0
M  V30 2356 C 209.66 0.522847 1.9522 0
M  V30 2357 C 209.981 -0.93371 1.71192 0
M  V30 2358 O 209.251 -1.65823 1.04305 0
M  V30 2359 H 207.831 0.190366 0.722336 0
M  V30 2360 H 210.493 1.14459 1.5775 0
M  V30 2361 H 209.589 0.704476 3.04045 0
M  V30 2362 N 209.89 -1.43072 0.660911 0
M  V30 2363 C 210.84 -2.27948 -0.04847 0
M  V30 2364 C 211.824 -1.40325 -0.787246 0
M  V30 2365 O 213.016 -1.63893 -0.668446 0
M  V30 2366 C 210.145 -3.28143 -1.00881 0
M  V30 2367 C 209.231 -4.23252 -0.268108 0
M  V30 2368 N 209.622 -5.00656 0.719528 0
M  V30 2369 C 207.92 -4.43092 -0.508493 0
M  V30 2370 C 208.621 -5.70019 1.15988 0
M  V30 2371 N 207.597 -5.41364 0.492584 0
M  V30 2372 H 211.399 -2.85213 0.709279 0
M  V30 2373 H 208.913 -1.54869 0.488822 0
M  V30 2374 H 210.91 -3.87736 -1.53188 0
M  V30 2375 H 209.57 -2.7244 -1.76654 0
M  V30 2376 H 210.581 -5.06115 1.09855 0
M  V30 2377 H 207.258 -3.98449 -1.24679 0
M  V30 2378 H 208.648 -6.4214 1.97751 0
M  V30 2379 N 211.368 -0.403325 -1.52352 0
M  V30 2380 C 212.616 0.174003 -2.0135 0
M  V30 2381 C 212.937 1.46139 -1.29106 0
M  V30 2382 O 212.207 1.91448 -0.415253 0
M  V30 2383 H 210.787 0.0672911 -0.743963 0
M  V30 2384 H 213.449 -0.538235 -1.87321 0
M  V30 2385 H 212.545 0.374254 -3.09848 0
M  V30 2386 N 212.846 1.57033 -0.133567 0
M  V30 2387 C 213.778 2.13176 0.841944 0
M  V30 2388 C 214.791 1.07794 1.22001 0
M  V30 2389 O 215.98 1.35117 1.16643 0
M  V30 2390 C 213.08 2.62847 2.13926 0
M  V30 2391 C 212.253 3.92486 1.93064 0
M  V30 2392 C 211.312 4.27605 3.0666 0
M  V30 2393 O 210.338 4.96168 2.78937 0
M  V30 2394 N 211.54 3.861 4.33483 0
M  V30 2395 H 214.305 2.97503 0.362192 0
M  V30 2396 H 211.866 1.61821 0.05042 0
M  V30 2397 H 213.858 2.83363 2.88942 0
M  V30 2398 H 212.428 1.83319 2.53205 0
M  V30 2399 H 211.648 3.80732 1.02159 0
M  V30 2400 H 212.936 4.77225 1.76447 0
M  V30 2401 H 212.334 3.30828 4.58878 0
M  V30 2402 H 210.891 4.11694 5.05323 0
M  V30 2403 N 214.325 -0.140222 1.56975 0
M  V30 2404 C 215.55 -0.870414 1.88251 0
M  V30 2405 C 215.975 -1.73637 0.723312 0
M  V30 2406 O 215.333 -1.78329 -0.32689 0
M  V30 2407 C 215.381 -1.69737 3.18154 0
M  V30 2408 O 214.485 -2.80229 3.02565 0
M  V30 2409 H 213.826 -0.242025 0.61832 0
M  V30 2410 H 216.356 -0.128999 2.04193 0
M  V30 2411 H 216.366 -2.09099 3.50345 0
M  V30 2412 H 215.041 -1.06152 4.02125 0
M  V30 2413 H 213.618 -2.44224 2.81796 0
M  V30 2414 N 215.803 -1.52179 -0.40978 0
M  V30 2415 C 217.05 -1.66206 -1.15679 0
M  V30 2416 C 217.378 -0.391674 -1.90516 0
M  V30 2417 O 216.633 0.62533 -1.8544 0
M  V30 2418 C 216.932 -2.83428 -2.17723 0
M  V30 2419 C 216.598 -4.21672 -1.59699 0
M  V30 2420 C 215.26 -4.59274 -1.43599 0
M  V30 2421 C 217.612 -5.07825 -1.17317 0
M  V30 2422 C 214.94 -5.80709 -0.836328 0
M  V30 2423 C 217.292 -6.29864 -0.587691 0
M  V30 2424 C 215.956 -6.66216 -0.413818 0
M  V30 2425 H 215.226 -0.608192 -0.423301 0
M  V30 2426 H 217.873 -1.86279 -0.444097 0
M  V30 2427 H 216.178 -2.57687 -2.95135 0
M  V30 2428 H 217.875 -2.91477 -2.75394 0
M  V30 2429 H 214.465 -3.9204 -1.73213 0
M  V30 2430 H 218.649 -4.79359 -1.28565 0
M  V30 2431 H 213.905 -6.07498 -0.689626 0
M  V30 2432 H 218.079 -6.95948 -0.250894 0
M  V30 2433 H 215.706 -7.60182 0.0529471 0
M  V30 2434 N 217.281 0.66697 -1.42791 0
M  V30 2435 C 218.211 1.79218 -1.49677 0
M  V30 2436 C 219.192 1.66405 -0.352623 0
M  V30 2437 O 220.377 1.85708 -0.567993 0
M  V30 2438 C 217.507 3.17565 -1.40605 0
M  V30 2439 C 216.461 3.45124 -2.53127 0
M  V30 2440 C 215.787 4.83127 -2.29112 0
M  V30 2441 C 217.087 3.41236 -3.95418 0
M  V30 2442 H 218.781 1.73713 -2.43853 0
M  V30 2443 H 216.327 0.83432 -1.17367 0
M  V30 2444 H 218.28 3.96022 -1.44029 0
M  V30 2445 H 217.004 3.23767 -0.429271 0
M  V30 2446 H 215.663 2.69031 -2.49034 0
M  V30 2447 H 215.311 4.85988 -1.29709 0
M  V30 2448 H 215.011 5.02528 -3.04531 0
M  V30 2449 H 216.535 5.63859 -2.34297 0
M  V30 2450 H 217.949 4.09651 -4.01073 0
M  V30 2451 H 216.346 3.72173 -4.70752 0
M  V30 2452 H 217.416 2.39665 -4.21532 0
M  V30 2453 N 218.759 1.29093 0.90403 0
M  V30 2454 C 220.005 1.16986 1.65656 0
M  V30 2455 C 220.338 -0.278925 1.92186 0
M  V30 2456 O 219.613 -1.2019 1.5292 0
M  V30 2457 C 219.896 1.97908 3.0084 0
M  V30 2458 C 219.749 3.50903 2.81403 0
M  V30 2459 C 221.068 1.80208 4.01513 0
M  V30 2460 H 218.187 0.426346 0.601164 0
M  V30 2461 H 220.829 1.58518 1.04747 0
M  V30 2462 H 218.979 1.62616 3.52829 0
M  V30 2463 H 220.651 3.96153 2.36348 0
M  V30 2464 H 218.894 3.76045 2.1627 0
M  V30 2465 H 219.565 4.02791 3.77443 0
M  V30 2466 H 222.041 2.11025 3.58619 0
M  V30 2467 H 220.917 2.39184 4.94047 0
M  V30 2468 H 221.178 0.756119 4.35586 0
M  V30 2469 N 220.237 -1.11381 1.11499 0
M  V30 2470 C 221.485 -1.8277 0.862524 0
M  V30 2471 C 221.806 -1.85097 -0.613534 0
M  V30 2472 O 221.076 -1.32198 -1.4457 0
M  V30 2473 H 219.656 -0.676823 0.316101 0
M  V30 2474 H 222.318 -1.34816 1.4075 0
M  V30 2475 H 221.414 -2.86614 1.23527 0
M  V30 2476 N 221.715 -0.905404 -1.28997 0
M  V30 2477 C 222.663 -0.377431 -2.29517 0
M  V30 2478 C 223.657 0.526461 -1.61012 0
M  V30 2479 O 224.863 0.40863 -1.753 0
M  V30 2480 H 221.238 -0.103437 -0.744852 0
M  V30 2481 H 223.209 -1.23848 -2.71485 0
M  V30 2482 C 221.958 0.374833 -3.45674 0
M  V30 2483 H 221.281 -0.311474 -3.98585 0
M  V30 2484 H 222.721 0.70903 -4.1803 0
M  V30 2485 C 221.18 1.57963 -2.97572 0
M  V30 2486 O 221.71 2.67886 -2.99333 0
M  V30 2487 N 219.916 1.42375 -2.53333 0
M  V30 2488 H 219.463 0.529466 -2.521 0
M  V30 2489 H 219.421 2.23117 -2.21509 0
M  V30 2490 N 223.193 1.4272 -0.668489 0
M  V30 2491 C 224.125 2.2914 0.052613 0
M  V30 2492 C 225.138 1.43339 0.771857 0
M  V30 2493 O 226.327 1.67123 0.627067 0
M  V30 2494 C 223.427 3.20618 1.09804 0
M  V30 2495 C 222.6 4.35039 0.45389 0
M  V30 2496 C 221.659 5.07282 1.39825 0
M  V30 2497 O 220.685 5.62024 0.900978 0
M  V30 2498 N 221.887 5.12206 2.73176 0
M  V30 2499 H 224.652 2.91668 -0.689209 0
M  V30 2500 H 222.213 1.53577 -0.512422 0
M  V30 2501 H 224.205 3.65815 1.73094 0
M  V30 2502 H 222.775 2.59585 1.74167 0
M  V30 2503 H 221.995 3.92567 -0.358396 0
M  V30 2504 H 223.283 5.088 0.00486972 0
M  V30 2505 H 222.681 4.6913 3.16122 0
M  V30 2506 H 221.238 5.61069 3.31729 0
M  V30 2507 N 224.671 0.411399 1.52136 0
M  V30 2508 C 225.601 -0.404015 2.29978 0
M  V30 2509 C 226.582 -1.04412 1.34284 0
M  V30 2510 O 227.767 -1.0527 1.63192 0
M  V30 2511 C 224.897 -1.5197 3.12286 0
M  V30 2512 C 223.851 -1.00448 4.16046 0
M  V30 2513 C 223.177 -2.21393 4.86712 0
M  V30 2514 C 224.477 -0.0569336 5.22269 0
M  V30 2515 H 226.171 0.245529 2.98392 0
M  V30 2516 H 223.717 0.119525 1.43503 0
M  V30 2517 H 225.67 -2.09715 3.6551 0
M  V30 2518 H 224.394 -2.19716 2.41646 0
M  V30 2519 H 223.053 -0.449421 3.63835 0
M  V30 2520 H 222.701 -2.87699 4.12599 0
M  V30 2521 H 222.401 -1.87571 5.56858 0
M  V30 2522 H 223.925 -2.7974 5.4275 0
M  V30 2523 H 225.339 -0.54325 5.7072 0
M  V30 2524 H 223.736 0.192594 5.99791 0
M  V30 2525 H 224.806 0.887663 4.76706 0
M  V30 2526 N 226.149 -1.5696 0.141893 0
M  V30 2527 C 227.374 -2.00754 -0.520838 0
M  V30 2528 C 227.799 -1.0213 -1.57959 0
M  V30 2529 O 227.157 0.00371324 -1.813 0
M  V30 2530 C 227.205 -3.43318 -1.10294 0
M  V30 2531 O 226.309 -3.47679 -2.21795 0
M  V30 2532 H 225.65 -0.651564 -0.127908 0
M  V30 2533 H 228.18 -2.03221 0.23712 0
M  V30 2534 H 228.19 -3.82012 -1.43287 0
M  V30 2535 H 226.865 -4.14608 -0.327574 0
M  V30 2536 H 225.442 -3.20824 -1.9007 0
M  V30 2537 N 227.627 0.131896 -1.57047 0
M  V30 2538 C 228.557 1.16384 -2.02428 0
M  V30 2539 C 229.538 1.43936 -0.90644 0
M  V30 2540 O 230.723 1.54599 -1.17528 0
M  V30 2541 C 227.853 2.49328 -2.4177 0
M  V30 2542 C 226.807 2.36266 -3.56879 0
M  V30 2543 C 226.133 3.74057 -3.8208 0
M  V30 2544 C 227.433 1.834 -4.89042 0
M  V30 2545 H 229.127 0.786433 -2.88887 0
M  V30 2546 H 226.673 0.376855 -1.38981 0
M  V30 2547 H 228.626 3.21759 -2.7212 0
M  V30 2548 H 227.35 2.88934 -1.52266 0
M  V30 2549 H 226.009 1.66286 -3.26718 0
M  V30 2550 H 225.657 4.11125 -2.89803 0
M  V30 2551 H 225.357 3.66174 -4.59554 0
M  V30 2552 H 226.881 4.48012 -4.1487 0
M  V30 2553 H 228.295 2.45636 -5.18011 0
M  V30 2554 H 226.692 1.8637 -5.70426 0
M  V30 2555 H 227.762 0.790662 -4.7841 0
M  V30 2556 N 229.106 1.52395 0.401703 0
M  V30 2557 C 230.069 1.75636 1.47257 0
M  V30 2558 C 231.069 0.62628 1.48103 0
M  V30 2559 O 232.259 0.894227 1.49497 0
M  V30 2560 C 229.391 1.84553 2.86624 0
M  V30 2561 H 230.584 2.71241 1.27938 0
M  V30 2562 H 228.137 1.42923 0.632662 0
M  V30 2563 H 228.872 0.908882 3.11303 0
M  V30 2564 H 228.657 2.66715 2.87412 0
M  V30 2565 H 230.147 2.04251 3.64241 0
M  V30 2566 N 230.584 -0.659388 1.43143 0
M  V30 2567 C 231.861 -1.41627 1.34912 0
M  V30 2568 C 232.241 -2.11099 -0.00607785 0
M  V30 2569 O 231.589 -2.04353 -1.02236 0
M  V30 2570 C 231.799 -2.40604 2.52805 0
M  V30 2571 C 233.147 -3.04789 2.95616 0
M  V30 2572 O 234.171 -2.50932 2.52807 0
M  V30 2573 O 233.03 -4.02421 3.69756 0
M  V30 2574 H 230.124 -0.63246 0.532844 0
M  V30 2575 H 232.67 -0.686814 1.5518 0
M  V30 2576 H 231.442 -1.88174 3.43083 0
M  V30 2577 H 231.065 -3.21009 2.34604 0
M  V30 2578 N 232.062 -1.29571 -0.897171 0
M  V30 2579 C 233.308 -1.17863 -1.65034 0
M  V30 2580 C 233.641 0.268729 -1.92332 0
M  V30 2581 O 232.916 1.19378 -1.53555 0
M  V30 2582 C 233.199 -1.995 -2.99786 0
M  V30 2583 C 233.052 -3.5239 -2.79538 0
M  V30 2584 C 234.371 -1.82335 -4.00552 0
M  V30 2585 H 231.49 -0.429528 -0.598895 0
M  V30 2586 H 234.132 -1.59072 -1.03905 0
M  V30 2587 H 232.282 -1.64485 -3.51962 0
M  V30 2588 H 233.954 -3.97401 -2.34244 0
M  V30 2589 H 232.197 -3.77187 -2.14273 0
M  V30 2590 H 232.868 -4.04787 -3.75302 0
M  V30 2591 H 235.344 -2.12924 -3.57495 0
M  V30 2592 H 234.22 -2.41801 -4.92771 0
M  V30 2593 H 234.481 -0.779209 -4.35179 0
M  V30 2594 N 233.54 1.10788 -1.12088 0
M  V30 2595 C 234.789 1.82036 -0.868659 0
M  V30 2596 C 235.102 1.85929 0.607426 0
M  V30 2597 O 236.308 2.53346 0.97613 0
M  V30 2598 C 234.764 3.26951 -1.50435 0
M  V30 2599 C 234.372 3.31367 -3.01496 0
M  V30 2600 C 236.116 4.03053 -1.33225 0
M  V30 2601 C 234.023 4.7072 -3.58017 0
M  V30 2602 H 232.953 0.682108 -0.321318 0
M  V30 2603 H 235.604 1.24618 -1.34694 0
M  V30 2604 H 233.986 3.84343 -0.953735 0
M  V30 2605 H 235.16 2.83819 -3.6302 0
M  V30 2606 H 233.475 2.6875 -3.18061 0
M  V30 2607 H 236.072 5.05981 -1.72878 0
M  V30 2608 H 236.415 4.15387 -0.275529 0
M  V30 2609 H 236.948 3.52066 -1.85188 0
M  V30 2610 H 233.687 4.63585 -4.63432 0
M  V30 2611 H 233.207 5.1865 -3.01268 0
M  V30 2612 H 234.886 5.39685 -3.56859 0
M  V30 2613 N 235.018 0.912232 1.28515 0
M  V30 2614 C 235.948 0.416403 2.29757 0
M  V30 2615 C 236.929 -0.515194 1.6211 0
M  V30 2616 O 238.114 -0.423253 1.89532 0
M  V30 2617 C 235.244 -0.34572 3.45575 0
M  V30 2618 C 234.198 0.496599 4.25109 0
M  V30 2619 C 233.524 -0.393771 5.33248 0
M  V30 2620 C 234.824 1.75307 4.92001 0
M  V30 2621 H 236.518 1.26249 2.7148 0
M  V30 2622 H 234.064 0.608515 1.30511 0
M  V30 2623 H 236.017 -0.703422 4.15488 0
M  V30 2624 H 234.741 -1.2257 3.02728 0
M  V30 2625 H 233.4 0.8368 3.56922 0
M  V30 2626 H 233.048 -1.27225 4.86644 0
M  V30 2627 H 232.748 0.166209 5.87365 0
M  V30 2628 H 234.272 -0.747389 6.06009 0
M  V30 2629 H 235.686 1.46437 5.54283 0
M  V30 2630 H 234.083 2.25534 5.56106 0
M  V30 2631 H 235.153 2.48176 4.16577 0
M  V30 2632 N 236.496 -1.42363 0.676048 0
M  V30 2633 C 237.426 -2.33497 0.0124832 0
M  V30 2634 C 238.407 -1.50748 -0.787981 0
M  V30 2635 O 239.592 -1.79346 -0.744884 0
M  V30 2636 C 236.722 -3.34377 -0.938582 0
M  V30 2637 C 235.676 -4.27289 -0.246622 0
M  V30 2638 C 235.002 -5.18386 -1.31071 0
M  V30 2639 C 236.302 -5.14916 0.875125 0
M  V30 2640 H 237.996 -2.89233 0.773593 0
M  V30 2641 H 235.542 -1.39073 0.37346 0
M  V30 2642 H 237.495 -3.97044 -1.41188 0
M  V30 2643 H 236.219 -2.76947 -1.73113 0
M  V30 2644 H 234.878 -3.66018 0.206456 0
M  V30 2645 H 234.526 -4.57282 -2.09528 0
M  V30 2646 H 234.226 -5.81378 -0.852839 0
M  V30 2647 H 235.75 -5.83929 -1.78492 0
M  V30 2648 H 237.164 -5.71262 0.482983 0
M  V30 2649 H 235.561 -5.86747 1.25887 0
M  V30 2650 H 236.631 -4.53242 1.72335 0
M  V30 2651 N 237.974 -0.419461 -1.51915 0
M  V30 2652 C 238.906 0.43646 -2.25006 0
M  V30 2653 C 239.919 1.00149 -1.28351 0
M  V30 2654 O 241.108 0.898674 -1.54227 0
M  V30 2655 C 238.208 1.6206 -2.9764 0
M  V30 2656 C 237.381 1.17763 -4.21249 0
M  V30 2657 C 236.44 2.22985 -4.76617 0
M  V30 2658 O 235.466 1.83151 -5.38929 0
M  V30 2659 N 236.668 3.55271 -4.59089 0
M  V30 2660 H 239.433 -0.18989 -2.99098 0
M  V30 2661 H 236.994 -0.247386 -1.59999 0
M  V30 2662 H 238.986 2.32038 -3.31573 0
M  V30 2663 H 237.556 2.15266 -2.2667 0
M  V30 2664 H 236.776 0.305582 -3.93014 0
M  V30 2665 H 238.064 0.858781 -5.015 0
M  V30 2666 H 237.462 3.90377 -4.09417 0
M  V30 2667 H 236.019 4.21195 -4.97432 0
M  V30 2668 N 239.452 1.56882 -0.150215 0
M  V30 2669 C 240.68 2.00593 0.506948 0
M  V30 2670 C 241.095 1.03033 1.58208 0
M  V30 2671 O 240.452 0.0278396 1.82479 0
M  V30 2672 C 240.503 3.44209 1.10465 0
M  V30 2673 O 240.224 4.3804 0.0724636 0
M  V30 2674 C 241.725 4.03214 1.84211 0
M  V30 2675 H 238.945 0.65795 0.13169 0
M  V30 2676 H 241.489 2.03018 -0.245743 0
M  V30 2677 H 239.644 3.42625 1.80795 0
M  V30 2678 H 240.058 5.22007 0.510793 0
M  V30 2679 H 241.532 5.0569 2.21318 0
M  V30 2680 H 242.009 3.44107 2.72923 0
M  V30 2681 H 242.615 4.08437 1.18572 0
M  V30 2682 N 240.93 -0.123565 1.57115 0
M  V30 2683 C 242.179 -0.830704 1.83799 0
M  V30 2684 C 242.492 -1.81259 0.735158 0
M  V30 2685 O 243.698 -2.56558 0.888278 0
M  V30 2686 C 242.154 -1.52802 3.25852 0
M  V30 2687 C 241.762 -0.587356 4.44133 0
M  V30 2688 C 243.506 -2.22056 3.61789 0
M  V30 2689 C 241.413 -1.28764 5.77212 0
M  V30 2690 H 240.343 -0.313967 0.685522 0
M  V30 2691 H 242.994 -0.0834359 1.8331 0
M  V30 2692 H 241.376 -2.32175 3.20797 0
M  V30 2693 H 242.55 0.172829 4.60476 0
M  V30 2694 H 240.865 -0.00201892 4.164 0
M  V30 2695 H 243.462 -2.75131 4.58483 0
M  V30 2696 H 243.805 -2.99644 2.88997 0
M  V30 2697 H 244.338 -1.49576 3.68608 0
M  V30 2698 H 241.077 -0.55314 6.53162 0
M  V30 2699 H 240.597 -2.01995 5.64764 0
M  V30 2700 H 242.276 -1.8221 6.20813 0
M  V30 2701 N 242.408 -1.52605 -0.393616 0
M  V30 2702 C 243.338 -1.80022 -1.48709 0
M  V30 2703 C 244.319 -0.651995 -1.57108 0
M  V30 2704 O 245.504 -0.89913 -1.72132 0
M  V30 2705 C 242.634 -1.96492 -2.86371 0
M  V30 2706 C 241.588 -3.12161 -2.92813 0
M  V30 2707 C 240.914 -3.13877 -4.3288 0
M  V30 2708 C 242.214 -4.51322 -2.6288 0
M  V30 2709 H 243.908 -2.71589 -1.26015 0
M  V30 2710 H 241.454 -1.30684 -0.604778 0
M  V30 2711 H 243.407 -2.14255 -3.62867 0
M  V30 2712 H 242.131 -1.01611 -3.10391 0
M  V30 2713 H 240.79 -2.94173 -2.18764 0
M  V30 2714 H 240.438 -2.16687 -4.53933 0
M  V30 2715 H 240.138 -3.91576 -4.38112 0
M  V30 2716 H 241.662 -3.33789 -5.1129 0
M  V30 2717 H 243.076 -4.69435 -3.29096 0
M  V30 2718 H 241.473 -5.31053 -2.79468 0
M  V30 2719 H 242.543 -4.58353 -1.58242 0
M  V30 2720 N 243.887 0.651787 -1.4349 0
M  V30 2721 C 244.85 1.74647 -1.48429 0
M  V30 2722 C 245.85 1.56513 -0.368817 0
M  V30 2723 O 247.04 1.62385 -0.630623 0
M  V30 2724 C 244.172 3.13533 -1.33827 0
M  V30 2725 H 245.365 1.71649 -2.4592 0
M  V30 2726 H 242.918 0.863573 -1.30277 0
M  V30 2727 H 243.653 3.22142 -0.37349 0
M  V30 2728 H 243.438 3.28101 -2.14691 0
M  V30 2729 H 244.928 3.93356 -1.40218 0
M  V30 2730 N 245.365 1.30045 0.890287 0
M  V30 2731 C 246.295 1.18541 2.01172 0
M  V30 2732 C 247.276 0.0773356 1.69924 0
M  V30 2733 O 248.461 0.25845 1.92473 0
M  V30 2734 C 245.591 0.870941 3.36202 0
M  V30 2735 C 244.545 1.93637 3.81692 0
M  V30 2736 C 243.871 1.475 5.13953 0
M  V30 2737 C 245.171 3.34666 4.00994 0
M  V30 2738 H 246.865 2.12359 2.11054 0
M  V30 2739 H 244.411 1.02238 1.01407 0
M  V30 2740 H 246.364 0.777141 4.14172 0
M  V30 2741 H 245.088 -0.102926 3.26438 0
M  V30 2742 H 243.747 2.01972 3.05946 0
M  V30 2743 H 243.395 0.489551 5.00612 0
M  V30 2744 H 243.095 2.1876 5.4536 0
M  V30 2745 H 244.619 1.39489 5.94454 0
M  V30 2746 H 246.033 3.2912 4.69417 0
M  V30 2747 H 244.43 4.03966 4.43769 0
M  V30 2748 H 245.5 3.76949 3.05021 0
M  V30 2749 N 246.843 -1.10192 1.12674 0
M  V30 2750 C 247.753 -2.20172 0.810026 0
M  V30 2751 C 248.769 -1.72821 -0.202188 0
M  V30 2752 O 249.945 -2.01369 -0.0351691 0
M  V30 2753 C 247.01 -3.45631 0.272007 0
M  V30 2754 C 246.071 -4.07704 1.34447 0
M  V30 2755 C 245.304 -5.27175 0.832029 0
M  V30 2756 O 245.527 -5.69425 -0.333284 0
M  V30 2757 O 244.461 -5.80168 1.60277 0
M  V30 2758 H 248.287 -2.49701 1.72867 0
M  V30 2759 H 245.872 -1.18977 0.903597 0
M  V30 2760 H 247.754 -4.21394 -0.0230219 0
M  V30 2761 H 246.429 -3.17723 -0.619164 0
M  V30 2762 H 245.336 -3.33614 1.6927 0
M  V30 2763 H 246.669 -4.3982 2.2095 0
M  V30 2764 N 248.321 -0.919034 -1.28029 0
M  V30 2765 C 249.231 -0.416756 -2.30869 0
M  V30 2766 C 250.247 0.498235 -1.66714 0
M  V30 2767 O 251.423 0.383144 -1.97722 0
M  V30 2768 C 248.488 0.330274 -3.45123 0
M  V30 2769 C 247.549 -0.618578 -4.2482 0
M  V30 2770 C 246.782 0.0928959 -5.33619 0
M  V30 2771 O 247.005 1.31375 -5.55065 0
M  V30 2772 O 245.939 -0.574499 -5.99152 0
M  V30 2773 H 249.765 -1.27043 -2.75851 0
M  V30 2774 H 247.35 -0.684052 -1.3282 0
M  V30 2775 H 249.232 0.751972 -4.14636 0
M  V30 2776 H 247.907 1.1597 -3.02213 0
M  V30 2777 H 246.814 -1.08978 -3.57875 0
M  V30 2778 H 248.147 -1.41497 -4.71423 0
M  V30 2779 N 249.799 1.42003 -0.683588 0
M  V30 2780 C 250.746 2.30798 -0.0107309 0
M  V30 2781 C 251.716 1.4645 0.783688 0
M  V30 2782 O 252.901 1.75263 0.754156 0
M  V30 2783 C 250.041 3.3238 0.928306 0
M  V30 2784 C 249.154 4.31814 0.126776 0
M  V30 2785 C 248.289 5.20468 1.06236 0
M  V30 2786 C 247.328 6.11577 0.253035 0
M  V30 2787 N 246.465 6.92754 1.14179 0
M  V30 2788 H 251.305 2.8778 -0.773727 0
M  V30 2789 H 248.842 1.41745 -0.393283 0
M  V30 2790 H 250.8 3.89813 1.48666 0
M  V30 2791 H 249.43 2.76976 1.65783 0
M  V30 2792 H 248.482 3.76427 -0.54833 0
M  V30 2793 H 249.794 4.96276 -0.501192 0
M  V30 2794 H 248.948 5.82677 1.69035 0
M  V30 2795 H 247.687 4.56204 1.7242 0
M  V30 2796 H 246.692 5.48428 -0.388108 0
M  V30 2797 H 247.917 6.77892 -0.404839 0
M  V30 2798 H 245.863 6.3111 1.78987 0
M  V30 2799 H 245.78 7.53855 0.569111 0
M  V30 2800 H 247.048 7.59441 1.75697 0
M  V30 2801 N 251.277 0.427512 1.51691 0
M  V30 2802 C 252.526 -0.143679 2.01188 0
M  V30 2803 C 252.839 -1.44642 1.31674 0
M  V30 2804 O 254.045 -2.09997 1.72086 0
M  V30 2805 C 252.501 -0.306602 3.58592 0
M  V30 2806 C 252.109 0.985125 4.37035 0
M  V30 2807 C 253.853 -0.832091 4.16265 0
M  V30 2808 C 251.76 0.788382 5.86122 0
M  V30 2809 H 250.69 -0.0574701 0.751807 0
M  V30 2810 H 253.341 0.555772 1.74881 0
M  V30 2811 H 251.723 -1.06882 3.81303 0
M  V30 2812 H 252.897 1.75492 4.26074 0
M  V30 2813 H 251.212 1.4384 3.90767 0
M  V30 2814 H 253.809 -0.995617 5.25349 0
M  V30 2815 H 254.152 -1.81186 3.74803 0
M  V30 2816 H 254.685 -0.128444 3.97593 0
M  V30 2817 H 251.424 1.74025 6.31978 0
M  V30 2818 H 250.944 0.0582143 5.99772 0
M  V30 2819 H 252.623 0.437722 6.45518 0
M  V30 2820 N 252.755 -1.56801 0.158532 0
M  V30 2821 C 254.166 -1.83189 -0.360366 0
M  V30 2822 C 254.517 -1.07778 -1.63946 0
M  V30 2823 O 253.642 -0.326718 -2.13919 0
M  V30 2824 C 254.237 -3.32297 -0.660595 0
M  V30 2825 C 252.796 -3.59227 -1.12398 0
M  V30 2826 C 251.943 -2.76877 -0.153097 0
M  V30 2827 H 254.894 -1.54008 0.383031 0
M  V30 2828 H 254.915 -3.4908 -1.51405 0
M  V30 2829 H 254.427 -3.87156 0.270527 0
M  V30 2830 H 252.528 -3.09766 -2.07064 0
M  V30 2831 H 252.641 -4.67632 -1.04197 0
M  V30 2832 H 251.005 -2.46319 -0.647983 0
M  V30 2833 H 251.788 -3.34511 0.77182 0
M  V30 2834 N 254.233 0.115231 -1.57178 0
M  V30 2835 C 255.181 1.16014 -2.01602 0
M  V30 2836 C 256.175 1.42653 -0.913587 0
M  V30 2837 O 257.381 1.42571 -1.09879 0
M  V30 2838 H 253.756 0.391252 -0.642204 0
M  V30 2839 H 255.727 0.758998 -2.88586 0
M  V30 2840 C 254.476 2.47767 -2.4394 0
M  V30 2841 H 253.799 2.28108 -3.28339 0
M  V30 2842 H 255.239 3.19432 -2.78818 0
M  V30 2843 C 253.698 3.10617 -1.30455 0
M  V30 2844 O 254.228 3.96846 -0.622585 0
M  V30 2845 N 252.434 2.70553 -1.06064 0
M  V30 2846 H 251.981 2.00527 -1.61699 0
M  V30 2847 H 251.939 3.12934 -0.303284 0
M  V30 2848 N 255.711 1.52812 0.385517 0
M  V30 2849 C 256.96 1.67249 1.12741 0
M  V30 2850 C 257.273 0.4205 1.91027 0
M  V30 2851 O 258.479 0.445064 2.67827 0
M  V30 2852 C 256.935 2.95583 2.05326 0
M  V30 2853 C 256.543 4.27974 1.32447 0
M  V30 2854 C 258.287 3.19386 2.7963 0
M  V30 2855 C 256.194 5.47412 2.23818 0
M  V30 2856 H 255.124 0.6231 0.424573 0
M  V30 2857 H 257.775 1.79309 0.389924 0
M  V30 2858 H 256.157 2.77277 2.82725 0
M  V30 2859 H 257.331 4.56844 0.602495 0
M  V30 2860 H 255.646 4.10459 0.700885 0
M  V30 2861 H 258.243 4.05801 3.48181 0
M  V30 2862 H 258.586 2.34604 3.43899 0
M  V30 2863 H 259.119 3.38274 2.09322 0
M  V30 2864 H 255.858 6.34612 1.64157 0
M  V30 2865 H 255.378 5.22849 2.93921 0
M  V30 2866 H 257.057 5.81423 2.83824 0
M  V30 2867 N 257.189 -0.644168 1.43834 0
M  V30 2868 C 258.119 -1.76814 1.52509 0
M  V30 2869 C 259.1 -1.65823 0.379052 0
M  V30 2870 O 260.285 -1.84781 0.597466 0
M  V30 2871 C 257.415 -3.15288 1.4564 0
M  V30 2872 C 256.369 -3.41053 2.58586 0
M  V30 2873 C 255.695 -4.79421 2.36769 0
M  V30 2874 C 256.995 -3.34902 4.00797 0
M  V30 2875 H 258.689 -1.69812 2.46586 0
M  V30 2876 H 256.235 -0.815542 1.1868 0
M  V30 2877 H 258.188 -3.93681 1.50311 0
M  V30 2878 H 256.912 -3.23043 0.480725 0
M  V30 2879 H 255.571 -2.65035 2.53282 0
M  V30 2880 H 255.219 -4.83863 1.37424 0
M  V30 2881 H 254.919 -4.9762 3.12487 0
M  V30 2882 H 256.443 -5.6006 2.43238 0
M  V30 2883 H 257.857 -4.03218 4.07539 0
M  V30 2884 H 256.254 -3.64637 4.76613 0
M  V30 2885 H 257.324 -2.32928 4.25291 0
M  V30 2886 N 258.668 -1.30515 -0.883378 0
M  V30 2887 C 259.893 -1.22487 -1.67367 0
M  V30 2888 C 260.318 0.208767 -1.86938 0
M  V30 2889 O 259.676 1.15015 -1.40148 0
M  V30 2890 C 259.724 -1.96041 -3.02655 0
M  V30 2891 O 258.828 -1.28859 -3.91751 0
M  V30 2892 H 258.169 -0.423573 -0.511353 0
M  V30 2893 H 260.699 -1.72362 -1.10239 0
M  V30 2894 H 260.709 -2.05124 -3.52687 0
M  V30 2895 H 259.384 -3.00307 -2.8773 0
M  V30 2896 H 257.961 -1.28141 -3.50192 0
M  V30 2897 N 260.146 1.09593 -1.13257 0
M  V30 2898 C 261.109 2.14359 -0.811358 0
M  V30 2899 C 262.109 1.59808 0.178377 0
M  V30 2900 O 263.299 1.74132 -0.0484911 0
M  V30 2901 C 260.431 3.40269 -0.207276 0
M  V30 2902 H 261.624 2.44284 -1.73969 0
M  V30 2903 H 259.177 1.25102 -0.936973 0
M  V30 2904 H 259.912 3.15969 0.73036 0
M  V30 2905 H 259.697 3.81154 -0.919992 0
M  V30 2906 H 261.187 4.176 0.000667944 0
M  V30 2907 N 261.624 0.925811 1.2754 0
M  V30 2908 C 262.871 0.565255 1.94451 0
M  V30 2909 C 263.199 -0.89316 1.7278 0
M  V30 2910 O 262.454 -1.65213 1.04895 0
M  V30 2911 C 262.753 0.835296 3.47502 0
M  V30 2912 C 262.419 2.27515 3.89291 0
M  V30 2913 C 261.081 2.66879 4.00411 0
M  V30 2914 C 263.433 3.21158 4.10496 0
M  V30 2915 C 260.761 3.99014 4.30122 0
M  V30 2916 C 263.113 4.52871 4.4169 0
M  V30 2917 C 261.777 4.92072 4.51023 0
M  V30 2918 H 261.047 0.206841 0.711546 0
M  V30 2919 H 263.694 1.16942 1.51647 0
M  V30 2920 H 261.999 0.148442 3.91519 0
M  V30 2921 H 263.696 0.535322 3.97411 0
M  V30 2922 H 260.286 1.95976 3.81171 0
M  V30 2923 H 264.47 2.9195 4.01346 0
M  V30 2924 H 259.726 4.2907 4.35556 0
M  V30 2925 H 263.9 5.25436 4.57045 0
M  V30 2926 H 261.527 5.9449 4.738 0
M  V30 2927 N 263.102 -1.41638 0.69111 0
M  V30 2928 C 264.513 -1.84346 0.295517 0
M  V30 2929 C 264.864 -1.57833 -1.16547 0
M  V30 2930 O 263.989 -1.04648 -1.89414 0
M  V30 2931 C 264.584 -3.34636 0.529575 0
M  V30 2932 C 263.143 -3.7593 0.187944 0
M  V30 2933 C 262.29 -2.65082 0.814052 0
M  V30 2934 H 265.241 -1.31253 0.892092 0
M  V30 2935 H 265.262 -3.79903 -0.213148 0
M  V30 2936 H 264.774 -3.53901 1.59297 0
M  V30 2937 H 262.875 -3.62268 -0.871367 0
M  V30 2938 H 262.988 -4.74808 0.63985 0
M  V30 2939 H 261.352 -2.53528 0.244017 0
M  V30 2940 H 262.135 -2.87167 1.88123 0
M  V30 2941 N 264.58 -0.43555 -1.51462 0
M  V30 2942 C 265.827 0.131514 -2.02072 0
M  V30 2943 C 266.155 1.42868 -1.31981 0
M  V30 2944 O 265.41 1.91076 -0.422883 0
M  V30 2945 C 265.709 0.39942 -3.55161 0
M  V30 2946 C 265.375 -0.81172 -4.43533 0
M  V30 2947 C 264.037 -1.14387 -4.67407 0
M  V30 2948 C 266.389 -1.61976 -4.95392 0
M  V30 2949 C 263.717 -2.28477 -5.40384 0
M  V30 2950 C 266.069 -2.75164 -5.6962 0
M  V30 2951 C 264.733 -3.08835 -5.91758 0
M  V30 2952 H 264.003 0.0481244 -0.739436 0
M  V30 2953 H 266.65 -0.58238 -1.8243 0
M  V30 2954 H 264.955 1.19519 -3.73125 0
M  V30 2955 H 266.652 0.85157 -3.91854 0
M  V30 2956 H 263.242 -0.542898 -4.25148 0
M  V30 2957 H 267.426 -1.37637 -4.76833 0
M  V30 2958 H 262.682 -2.5488 -5.55739 0
M  V30 2959 H 266.856 -3.38147 -6.08793 0
M  V30 2960 H 264.483 -3.97353 -6.48086 0
M  V30 2961 N 266.058 1.56714 -0.166846 0
M  V30 2962 C 266.988 2.20754 0.760913 0
M  V30 2963 C 267.969 1.16178 1.24244 0
M  V30 2964 O 269.154 1.44592 1.29641 0
M  V30 2965 C 266.284 2.84478 1.99223 0
M  V30 2966 C 265.238 3.95053 1.64672 0
M  V30 2967 C 264.564 4.45805 2.95232 0
M  V30 2968 C 265.864 5.14865 0.878155 0
M  V30 2969 H 267.558 2.98537 0.22713 0
M  V30 2970 H 265.104 1.43596 0.107805 0
M  V30 2971 H 267.057 3.27951 2.64624 0
M  V30 2972 H 265.781 2.04056 2.55007 0
M  V30 2973 H 264.44 3.52228 1.01641 0
M  V30 2974 H 264.088 3.62181 3.49047 0
M  V30 2975 H 263.788 5.204 2.7287 0
M  V30 2976 H 265.312 4.91962 3.6167 0
M  V30 2977 H 266.726 5.55059 1.43466 0
M  V30 2978 H 265.123 5.95348 0.753738 0
M  V30 2979 H 266.193 4.84735 -0.126377 0
M  V30 2980 N 267.536 -0.106894 1.57237 0
M  V30 2981 C 268.468 -1.15646 1.97885 0
M  V30 2982 C 269.481 -1.36981 0.879779 0
M  V30 2983 O 270.67 -1.35841 1.15799 0
M  V30 2984 C 267.77 -2.51425 2.27241 0
M  V30 2985 C 266.943 -2.50529 3.58545 0
M  V30 2986 C 266.002 -3.68145 3.75973 0
M  V30 2987 O 265.028 -3.51176 4.47956 0
M  V30 2988 N 266.23 -4.87177 3.15656 0
M  V30 2989 H 268.995 -0.81059 2.8853 0
M  V30 2990 H 266.556 -0.296024 1.59171 0
M  V30 2991 H 268.548 -3.28689 2.36105 0
M  V30 2992 H 267.118 -2.78147 1.42663 0
M  V30 2993 H 266.338 -1.58894 3.60758 0
M  V30 2994 H 267.626 -2.46997 4.44826 0
M  V30 2995 H 267.024 -5.03868 2.57165 0
M  V30 2996 H 265.581 -5.62075 3.30023 0
M  V30 2997 N 269.014 -1.53014 -0.377408 0
M  V30 2998 C 269.924 -1.81557 -1.48574 0
M  V30 2999 C 270.94 -0.703102 -1.59162 0
M  V30 3000 O 272.116 -0.99192 -1.75279 0
M  V30 3001 C 269.181 -1.9889 -2.83978 0
M  V30 3002 C 268.242 -3.22801 -2.83016 0
M  V30 3003 C 267.475 -3.39298 -4.11962 0
M  V30 3004 O 267.698 -2.60345 -5.0752 0
M  V30 3005 O 266.632 -4.32604 -4.18494 0
M  V30 3006 H 270.458 -2.75695 -1.27382 0
M  V30 3007 H 268.043 -1.38248 -0.566373 0
M  V30 3008 H 269.925 -2.11931 -3.6423 0
M  V30 3009 H 268.6 -1.07942 -3.05172 0
M  V30 3010 H 267.507 -3.15193 -2.01505 0
M  V30 3011 H 268.84 -4.13632 -2.66775 0
M  V30 3012 N 270.492 0.636531 -1.44174 0
M  V30 3013 C 271.722 1.42146 -1.49927 0
M  V30 3014 C 272.13 1.88812 -0.121063 0
M  V30 3015 O 271.473 1.61126 0.882267 0
M  V30 3016 C 271.535 2.67883 -2.39748 0
M  V30 3017 C 271.199 2.43048 -3.8701 0
M  V30 3018 C 272.196 2.05216 -4.77684 0
M  V30 3019 C 269.881 2.56856 -4.3166 0
M  V30 3020 C 271.875 1.81512 -6.11009 0
M  V30 3021 C 269.562 2.32766 -5.65034 0
M  V30 3022 C 270.56 1.95152 -6.54526 0
M  V30 3023 O 270.248 1.71326 -7.85431 0
M  V30 3024 H 269.98 0.442567 -0.51099 0
M  V30 3025 H 272.534 0.786158 -1.8976 0
M  V30 3026 H 270.764 3.34032 -1.94832 0
M  V30 3027 H 272.453 3.29874 -2.36513 0
M  V30 3028 H 273.219 1.94111 -4.44462 0
M  V30 3029 H 269.098 2.85104 -3.62266 0
M  V30 3030 H 272.642 1.52077 -6.80822 0
M  V30 3031 H 268.539 2.43479 -5.97819 0
M  V30 3032 H 269.307 1.85616 -7.97176 0
M  V30 3033 N 271.97 1.30982 0.876444 0
M  V30 3034 C 273.198 1.23242 1.6619 0
M  V30 3035 C 273.613 -0.203345 1.87702 0
M  V30 3036 O 272.97 -1.13317 1.43057 0
M  V30 3037 C 273.021 1.96623 3.03351 0
M  V30 3038 O 272.742 3.34594 2.82804 0
M  V30 3039 C 274.243 1.95644 3.97792 0
M  V30 3040 H 271.463 0.426126 0.518322 0
M  V30 3041 H 274.007 1.7275 1.09442 0
M  V30 3042 H 272.162 1.50892 3.56806 0
M  V30 3043 H 272.576 3.71873 3.69879 0
M  V30 3044 H 274.05 2.51511 4.91372 0
M  V30 3045 H 274.527 0.937395 4.2908 0
M  V30 3046 H 275.133 2.41225 3.50272 0
M  V30 3047 N 273.449 -1.08991 1.13837 0
M  V30 3048 C 274.695 -1.81526 0.90422 0
M  V30 3049 C 275.028 -1.85706 -0.568066 0
M  V30 3050 O 274.303 -1.32855 -1.42056 0
M  V30 3051 C 274.586 -3.27447 1.49835 0
M  V30 3052 C 274.439 -3.31512 3.04006 0
M  V30 3053 C 275.758 -4.24256 1.17025 0
M  V30 3054 H 272.877 -0.659029 0.329923 0
M  V30 3055 H 275.519 -1.27644 1.40737 0
M  V30 3056 H 273.669 -3.73462 1.07044 0
M  V30 3057 H 275.341 -2.93867 3.55584 0
M  V30 3058 H 273.584 -2.70963 3.38765 0
M  V30 3059 H 274.255 -4.34329 3.40679 0
M  V30 3060 H 276.731 -3.86549 1.54009 0
M  V30 3061 H 275.607 -5.24684 1.61237 0
M  V30 3062 H 275.868 -4.42019 0.0846274 0
M  V30 3063 N 274.927 -0.932562 -1.27047 0
M  V30 3064 C 275.874 -0.434072 -2.26681 0
M  V30 3065 C 276.844 0.501639 -1.58344 0
M  V30 3066 O 278.029 0.419734 -1.86126 0
M  V30 3067 C 275.169 0.30261 -3.43771 0
M  V30 3068 C 274.282 -0.667774 -4.26808 0
M  V30 3069 C 273.417 0.0892393 -5.31125 0
M  V30 3070 C 272.456 -0.873532 -6.05835 0
M  V30 3071 N 271.593 -0.148832 -7.01942 0
M  V30 3072 H 276.433 -1.28868 -2.68695 0
M  V30 3073 H 273.97 -0.646713 -1.32121 0
M  V30 3074 H 275.928 0.746092 -4.10474 0
M  V30 3075 H 274.558 1.12142 -3.02695 0
M  V30 3076 H 273.61 -1.22978 -3.59973 0
M  V30 3077 H 274.922 -1.40337 -4.78651 0
M  V30 3078 H 274.076 0.592409 -6.03801 0
M  V30 3079 H 272.815 0.85777 -4.80097 0
M  V30 3080 H 271.82 -1.38791 -5.31994 0
M  V30 3081 H 273.045 -1.64193 -6.58952 0
M  V30 3082 H 270.991 0.601365 -6.53238 0
M  V30 3083 H 270.908 -0.82391 -7.51497 0
M  V30 3084 H 272.176 0.333527 -7.78786 0
M  V30 3085 N 276.405 1.4127 -0.698611 0
M  V30 3086 C 277.335 2.33447 -0.049629 0
M  V30 3087 C 278.316 1.51982 0.763898 0
M  V30 3088 O 279.501 1.80509 0.716257 0
M  V30 3089 C 276.631 3.35828 0.885267 0
M  V30 3090 C 275.585 4.27627 0.178613 0
M  V30 3091 C 274.911 5.20406 1.22807 0
M  V30 3092 C 276.211 5.13459 -0.956933 0
M  V30 3093 H 277.905 2.87966 -0.81951 0
M  V30 3094 H 275.451 1.38461 -0.395538 0
M  V30 3095 H 277.404 3.9924 1.34854 0
M  V30 3096 H 276.128 2.79666 1.68685 0
M  V30 3097 H 274.787 3.65643 -0.26466 0
M  V30 3098 H 274.435 4.60558 2.02226 0
M  V30 3099 H 274.135 5.82661 0.760239 0
M  V30 3100 H 275.659 5.86695 1.69179 0
M  V30 3101 H 277.073 5.70421 -0.573805 0
M  V30 3102 H 275.47 5.8467 -1.35205 0
M  V30 3103 H 276.54 4.50443 -1.79524 0
M  V30 3104 N 277.883 0.443576 1.51229 0
M  V30 3105 C 279.108 -0.121648 2.07043 0
M  V30 3106 C 279.533 -1.35156 1.30823 0
M  V30 3107 O 278.891 -1.7793 0.347934 0
M  V30 3108 C 278.939 -0.41624 3.5819 0
M  V30 3109 O 278.043 -1.50163 3.8409 0
M  V30 3110 H 277.384 0.000871367 0.663999 0
M  V30 3111 H 279.914 0.626706 1.94765 0
M  V30 3112 H 279.924 -0.664867 4.02546 0
M  V30 3113 H 278.599 0.482653 4.1309 0
M  V30 3114 H 277.176 -1.24248 3.51592 0
M  V30 3115 N 279.361 -1.56624 0.175154 0
M  V30 3116 C 280.309 -2.19468 -0.770495 0
M  V30 3117 C 281.303 -1.15985 -1.23466 0
M  V30 3118 O 282.509 -1.34176 -1.19987 0
M  V30 3119 H 278.884 -0.703095 -0.266761 0
M  V30 3120 H 280.855 -2.97613 -0.216542 0
M  V30 3121 C 279.604 -2.85264 -1.98796 0
M  V30 3122 H 278.927 -3.64623 -1.63983 0
M  V30 3123 H 280.367 -3.327 -2.62843 0
M  V30 3124 C 278.826 -1.85239 -2.81404 0
M  V30 3125 O 279.356 -1.34024 -3.78682 0
M  V30 3126 N 277.562 -1.53911 -2.46495 0
M  V30 3127 H 277.109 -1.95751 -1.67449 0
M  V30 3128 H 277.067 -0.872382 -3.02054 0
M  V30 3129 N 280.839 0.0985539 -1.57292 0
M  V30 3130 C 282.088 0.801358 -1.85098 0
M  V30 3131 C 282.401 1.80066 -0.763902 0
M  V30 3132 O 283.607 2.55112 -0.928981 0
M  V30 3133 C 282.063 1.47599 -3.28242 0
M  V30 3134 C 281.671 0.516624 -4.45011 0
M  V30 3135 C 283.415 2.16272 -3.65276 0
M  V30 3136 C 281.322 1.19564 -5.79188 0
M  V30 3137 H 280.252 0.303022 -0.69043 0
M  V30 3138 H 282.903 0.0542623 -1.8342 0
M  V30 3139 H 281.285 2.27042 -3.2445 0
M  V30 3140 H 282.459 -0.246065 -4.60143 0
M  V30 3141 H 280.774 -0.064227 -4.1635 0
M  V30 3142 H 283.371 2.67802 -4.62803 0
M  V30 3143 H 283.714 2.95009 -2.93727 0
M  V30 3144 H 284.247 1.43693 -3.70941 0
M  V30 3145 H 280.986 0.449157 -6.53959 0
M  V30 3146 H 280.506 1.92984 -5.67906 0
M  V30 3147 H 282.185 1.7231 -6.23633 0
M  V30 3148 N 282.317 1.53212 0.369288 0
M  V30 3149 C 283.728 1.60943 0.946276 0
M  V30 3150 C 284.079 0.47452 1.90375 0
M  V30 3151 O 283.204 -0.399597 2.12679 0
M  V30 3152 C 283.799 2.91715 1.72302 0
M  V30 3153 C 282.358 3.01792 2.24941 0
M  V30 3154 C 281.505 2.56211 1.06072 0
M  V30 3155 H 284.456 1.58007 0.148198 0
M  V30 3156 H 284.477 2.79309 2.58393 0
M  V30 3157 H 283.989 3.74295 1.0259 0
M  V30 3158 H 282.09 2.23791 2.97906 0
M  V30 3159 H 282.203 4.06803 2.53077 0
M  V30 3160 H 280.567 2.10998 1.4266 0
M  V30 3161 H 281.35 3.41206 0.378639 0
M  V30 3162 N 283.795 -0.628877 1.44509 0
M  V30 3163 C 285.023 -1.41554 1.50897 0
M  V30 3164 C 285.438 -1.8832 0.134564 0
M  V30 3165 O 284.795 -1.60969 -0.859965 0
M  V30 3166 C 284.846 -2.63435 2.47556 0
M  V30 3167 O 284.567 -2.18619 3.79654 0
M  V30 3168 C 286.068 -3.56537 2.63431 0
M  V30 3169 H 283.288 -0.434044 0.511709 0
M  V30 3170 H 285.832 -0.768895 1.89495 0
M  V30 3171 H 283.987 -3.24187 2.12089 0
M  V30 3172 H 284.401 -2.97652 4.31861 0
M  V30 3173 H 285.875 -4.38657 3.35088 0
M  V30 3174 H 286.352 -4.05493 1.68738 0
M  V30 3175 H 286.958 -3.01653 2.9981 0
M  V30 3176 N 285.273 -1.31445 -0.869486 0
M  V30 3177 C 286.522 -1.20517 -1.61736 0
M  V30 3178 C 286.835 0.235341 -1.94179 0
M  V30 3179 O 288.041 0.466312 -2.67465 0
M  V30 3180 C 286.497 -2.10982 -2.91573 0
M  V30 3181 C 286.105 -3.60032 -2.66611 0
M  V30 3182 C 287.849 -2.08856 -3.69567 0
M  V30 3183 C 285.756 -4.42503 -3.92358 0
M  V30 3184 H 284.686 -0.447493 -0.606849 0
M  V30 3185 H 287.337 -1.56303 -0.96133 0
M  V30 3186 H 285.719 -1.68095 -3.58553 0
M  V30 3187 H 286.893 -4.11167 -2.08035 0
M  V30 3188 H 285.208 -3.64139 -2.0197 0
M  V30 3189 H 287.805 -2.67716 -4.62852 0
M  V30 3190 H 288.148 -1.07582 -4.02159 0
M  V30 3191 H 288.681 -2.49945 -3.09471 0
M  V30 3192 H 285.42 -5.44533 -3.64916 0
M  V30 3193 H 284.94 -3.96125 -4.50383 0
M  V30 3194 H 286.619 -4.54741 -4.60238 0
M  V30 3195 N 286.751 1.08385 -1.14413 0
M  V30 3196 C 287.698 2.15311 -0.831265 0
M  V30 3197 C 288.668 1.64751 0.211292 0
M  V30 3198 O 289.853 1.90627 0.0811674 0
M  V30 3199 C 286.993 3.43658 -0.315143 0
M  V30 3200 C 286.106 4.08064 -1.41802 0
M  V30 3201 C 285.241 5.24207 -0.859126 0
M  V30 3202 C 284.28 5.80554 -1.93967 0
M  V30 3203 N 283.417 6.88042 -1.39793 0
M  V30 3204 H 288.257 2.41415 -1.74708 0
M  V30 3205 H 285.794 1.18474 -0.871909 0
M  V30 3206 H 287.752 4.172 0.00230884 0
M  V30 3207 H 286.382 3.17839 0.56378 0
M  V30 3208 H 285.434 3.3228 -1.85187 0
M  V30 3209 H 286.746 4.45962 -2.23427 0
M  V30 3210 H 285.9 6.04689 -0.49359 0
M  V30 3211 H 284.639 4.87699 -0.011932 0
M  V30 3212 H 283.644 4.98725 -2.31415 0
M  V30 3213 H 284.869 6.19121 -2.79046 0
M  V30 3214 H 282.815 6.53493 -0.572919 0
M  V30 3215 H 282.732 7.24767 -2.15054 0
M  V30 3216 H 284 7.72255 -1.0603 0
M  V30 3217 N 288.23 0.939286 1.26551 0
M  V30 3218 C 289.646 0.641304 1.46149 0
M  V30 3219 C 289.846 -0.805964 1.84679 0
M  V30 3220 O 288.902 -1.58278 1.96734 0
M  V30 3221 C 290.215 1.6011 2.54529 0
M  V30 3222 C 291.763 1.6106 2.68382 0
M  V30 3223 C 292.238 2.55765 3.79932 0
M  V30 3224 N 293.729 2.5404 3.87322 0
M  V30 3225 C 294.464 3.24004 4.73085 0
M  V30 3226 N 293.96 4.03388 5.63249 0
M  V30 3227 N 295.753 3.12965 4.66914 0
M  V30 3228 H 287.904 1.87478 0.998285 0
M  V30 3229 H 290.167 0.805559 0.499779 0
M  V30 3230 H 289.873 2.63412 2.33039 0
M  V30 3231 H 289.747 1.35171 3.52149 0
M  V30 3232 H 292.134 0.584835 2.89247 0
M  V30 3233 H 292.215 1.90053 1.71212 0
M  V30 3234 H 291.859 3.58458 3.5982 0
M  V30 3235 H 291.789 2.24063 4.76554 0
M  V30 3236 H 294.28 1.96396 3.22858 0
M  V30 3237 H 294.593 4.5373 6.25579 0
M  V30 3238 H 292.938 4.07489 5.63008 0
M  V30 3239 H 296.129 2.50432 3.95476 0
M  V30 3240 H 296.302 3.67759 5.33533 0
M  V30 3241 N 289.708 -1.40897 0.706093 0
M  V30 3242 C 290.955 -2.01054 0.241531 0
M  V30 3243 C 291.283 -1.55956 -1.16223 0
M  V30 3244 O 290.538 -0.766336 -1.80072 0
M  V30 3245 C 290.837 -3.5646 0.259099 0
M  V30 3246 C 290.503 -4.21106 1.61184 0
M  V30 3247 C 289.165 -4.38479 1.98216 0
M  V30 3248 C 291.517 -4.57256 2.50132 0
M  V30 3249 C 288.845 -4.89282 3.2376 0
M  V30 3250 C 291.197 -5.09454 3.7502 0
M  V30 3251 C 289.861 -5.25037 4.12181 0
M  V30 3252 H 289.131 -0.73571 0.0883825 0
M  V30 3253 H 291.778 -1.68645 0.907257 0
M  V30 3254 H 290.083 -3.88721 -0.490189 0
M  V30 3255 H 291.78 -4.00826 -0.11804 0
M  V30 3256 H 288.37 -4.07966 1.31384 0
M  V30 3257 H 292.554 -4.43479 2.228 0
M  V30 3258 H 287.81 -4.99531 3.52532 0
M  V30 3259 H 291.984 -5.36404 4.44121 0
M  V30 3260 H 289.611 -5.64164 5.09532 0
M  V30 3261 N 291.186 -0.45159 -1.50991 0
M  V30 3262 C 292.116 0.342898 -2.30969 0
M  V30 3263 C 293.097 1.00815 -1.37005 0
M  V30 3264 O 294.282 1.00907 -1.65926 0
M  V30 3265 C 291.412 1.43637 -3.16205 0
M  V30 3266 C 290.366 0.893818 -4.18563 0
M  V30 3267 C 289.692 2.08411 -4.92411 0
M  V30 3268 C 290.992 -0.0815568 -5.22236 0
M  V30 3269 H 292.686 -0.324556 -2.97636 0
M  V30 3270 H 290.232 -0.157531 -1.43136 0
M  V30 3271 H 292.185 1.9995 -3.70942 0
M  V30 3272 H 290.909 2.13232 -2.47386 0
M  V30 3273 H 289.568 0.352798 -3.64898 0
M  V30 3274 H 289.216 2.76658 -4.20082 0
M  V30 3275 H 288.916 1.72741 -5.61636 0
M  V30 3276 H 290.44 2.65251 -5.49976 0
M  V30 3277 H 291.854 0.391742 -5.7196 0
M  V30 3278 H 290.251 -0.351551 -5.99069 0
M  V30 3279 H 291.321 -1.01374 -4.74185 0
M  V30 3280 N 292.664 1.56529 -0.183458 0
M  V30 3281 C 293.574 2.22144 0.754272 0
M  V30 3282 C 294.59 1.21684 1.24374 0
M  V30 3283 O 295.766 1.54385 1.29333 0
M  V30 3284 C 292.831 2.85884 1.96141 0
M  V30 3285 C 291.892 4.01579 1.51765 0
M  V30 3286 C 291.125 4.6227 2.66725 0
M  V30 3287 O 291.348 4.21865 3.83909 0
M  V30 3288 O 290.282 5.51936 2.40104 0
M  V30 3289 H 294.108 3.02861 0.225527 0
M  V30 3290 H 291.693 1.49331 0.0453032 0
M  V30 3291 H 293.575 3.26253 2.66715 0
M  V30 3292 H 292.25 2.08154 2.47899 0
M  V30 3293 H 291.157 3.65856 0.781049 0
M  V30 3294 H 292.49 4.80938 1.04686 0
M  V30 3295 N 294.142 -0.090211 1.57342 0
M  V30 3296 C 295.553 -0.644173 1.75235 0
M  V30 3297 C 295.904 -1.78865 0.806335 0
M  V30 3298 O 295.029 -2.16395 -0.0140128 0
M  V30 3299 C 295.624 -1.17532 3.1776 0
M  V30 3300 C 294.183 -1.67531 3.37061 0
M  V30 3301 C 293.33 -0.58693 2.71017 0
M  V30 3302 H 296.281 0.135884 1.58117 0
M  V30 3303 H 296.302 -2.04455 3.20902 0
M  V30 3304 H 295.814 -0.342138 3.86589 0
M  V30 3305 H 293.915 -2.53234 2.73319 0
M  V30 3306 H 294.028 -1.76493 4.45406 0
M  V30 3307 H 292.392 -1.02756 2.33052 0
M  V30 3308 H 293.175 0.235758 3.4249 0
M  V30 3309 N 295.62 -1.53406 -0.361157 0
M  V30 3310 C 296.868 -1.69467 -1.10115 0
M  V30 3311 C 297.189 -0.451352 -1.89705 0
M  V30 3312 O 296.459 0.534636 -1.88463 0
M  V30 3313 H 295.039 -0.624749 -0.409508 0
M  V30 3314 H 297.701 -1.90609 -0.406699 0
M  V30 3315 H 296.797 -2.55774 -1.78847 0
M  V30 3316 N 297.098 0.621204 -1.44841 0
M  V30 3317 C 298.323 1.41244 -1.51871 0
M  V30 3318 C 298.748 1.87519 -0.147764 0
M  V30 3319 O 298.106 1.59334 0.865 0
M  V30 3320 C 298.154 2.60221 -2.49634 0
M  V30 3321 O 297.258 3.60395 -2.00473 0
M  V30 3322 H 296.599 0.42223 -0.512463 0
M  V30 3323 H 299.129 0.757305 -1.90069 0
M  V30 3324 H 299.139 3.0764 -2.67996 0
M  V30 3325 H 297.814 2.25887 -3.4921 0
M  V30 3326 H 296.391 3.19717 -1.91925 0
M  V30 3327 N 298.576 1.31904 0.862503 0
M  V30 3328 C 299.523 1.20182 1.9704 0
M  V30 3329 C 300.493 0.0858247 1.65878 0
M  V30 3330 O 301.678 0.26 1.8902 0
M  V30 3331 C 298.818 0.922797 3.32533 0
M  V30 3332 C 297.931 2.12284 3.76244 0
M  V30 3333 C 297.066 1.77996 5.00491 0
M  V30 3334 C 296.105 2.94366 5.36671 0
M  V30 3335 N 295.242 2.60223 6.52095 0
M  V30 3336 H 300.082 2.14951 2.06398 0
M  V30 3337 H 297.619 1.06917 1.01031 0
M  V30 3338 H 299.577 0.741548 4.10557 0
M  V30 3339 H 298.207 0.0119227 3.22798 0
M  V30 3340 H 297.259 2.41461 2.9394 0
M  V30 3341 H 298.571 2.99357 3.98982 0
M  V30 3342 H 297.725 1.56377 5.862 0
M  V30 3343 H 296.464 0.881252 4.79672 0
M  V30 3344 H 295.469 3.16625 4.49476 0
M  V30 3345 H 296.694 3.84957 5.59451 0
M  V30 3346 H 294.64 1.72884 6.32809 0
M  V30 3347 H 294.557 3.40827 6.74814 0
M  V30 3348 H 295.825 2.42016 7.40978 0
M  V30 3349 N 300.054 -1.07777 1.14986 0
M  V30 3350 C 301.001 -2.14867 0.842672 0
M  V30 3351 C 301.971 -1.6486 -0.202552 0
M  V30 3352 O 303.156 -1.90668 -0.0710568 0
M  V30 3353 C 300.296 -3.43486 0.333363 0
M  V30 3354 C 299.409 -4.07306 1.43965 0
M  V30 3355 C 298.544 -5.23744 0.886914 0
M  V30 3356 C 297.583 -5.79517 1.97043 0
M  V30 3357 N 296.72 -6.87291 1.4344 0
M  V30 3358 H 301.56 -2.40485 1.75986 0
M  V30 3359 H 299.097 -1.1801 0.878179 0
M  V30 3360 H 301.055 -4.17195 0.0198163 0
M  V30 3361 H 299.685 -3.18133 -0.546916 0
M  V30 3362 H 298.737 -3.31293 1.86946 0
M  V30 3363 H 300.049 -4.44771 2.25788 0
M  V30 3364 H 299.203 -6.04419 0.525651 0
M  V30 3365 H 297.942 -4.87685 0.0377957 0
M  V30 3366 H 296.947 -4.97491 2.34057 0
M  V30 3367 H 298.172 -6.17632 2.82325 0
M  V30 3368 H 296.118 -6.5318 0.607567 0
M  V30 3369 H 296.035 -7.23617 2.18895 0
M  V30 3370 H 297.303 -7.71682 1.10124 0
M  V30 3371 N 301.532 -0.945985 -1.26051 0
M  V30 3372 C 302.479 -0.45809 -2.26208 0
M  V30 3373 C 303.449 0.484816 -1.58867 0
M  V30 3374 O 304.634 0.399969 -1.86561 0
M  V30 3375 C 301.774 0.266131 -3.44072 0
M  V30 3376 C 300.887 -0.713005 -4.26075 0
M  V30 3377 C 300.022 0.0329013 -5.3119 0
M  V30 3378 C 299.061 -0.93774 -6.04874 0
M  V30 3379 N 298.198 -0.223274 -7.01745 0
M  V30 3380 H 303.038 -1.3171 -2.67313 0
M  V30 3381 H 300.575 -0.66069 -1.31428 0
M  V30 3382 H 302.533 0.702514 -4.11243 0
M  V30 3383 H 301.163 1.08925 -3.03867 0
M  V30 3384 H 300.215 -1.26789 -3.58648 0
M  V30 3385 H 301.527 -1.45406 -4.77136 0
M  V30 3386 H 300.681 0.528335 -6.04395 0
M  V30 3387 H 299.42 0.806801 -4.8098 0
M  V30 3388 H 298.425 -1.44425 -5.30492 0
M  V30 3389 H 299.65 -1.71172 -6.57173 0
M  V30 3390 H 297.596 0.532046 -6.53839 0
M  V30 3391 H 297.513 -0.90357 -7.50581 0
M  V30 3392 H 298.781 0.250907 -7.79096 0
M  V30 3393 N 303.011 1.40521 -0.713556 0
M  V30 3394 C 304.422 1.83853 -0.324807 0
M  V30 3395 C 304.773 1.59667 1.14021 0
M  V30 3396 O 303.898 1.07649 1.87725 0
M  V30 3397 C 304.493 3.33751 -0.582746 0
M  V30 3398 C 303.052 3.75584 -0.247727 0
M  V30 3399 C 302.199 2.63753 -0.856121 0
M  V30 3400 H 305.15 1.29817 -0.91286 0
M  V30 3401 H 305.171 3.80194 0.152682 0
M  V30 3402 H 304.683 3.51322 -1.64908 0
M  V30 3403 H 302.784 3.63608 0.813624 0
M  V30 3404 H 302.897 4.7373 -0.715307 0
M  V30 3405 H 301.261 2.53108 -0.28432 0
M  V30 3406 H 302.044 2.84137 -1.92668 0
M  V30 3407 N 304.489 0.459591 1.5075 0
M  V30 3408 C 305.9 0.00171547 1.867 0
M  V30 3409 C 306.251 -1.39934 1.37525 0
M  V30 3410 O 305.376 -2.03523 0.735349 0
M  V30 3411 C 305.971 -0.00366298 3.388 0
M  V30 3412 C 304.53 -0.406026 3.74204 0
M  V30 3413 C 303.677 0.38673 2.7459 0
M  V30 3414 H 306.628 0.674413 1.43657 0
M  V30 3415 H 306.649 -0.808371 3.71814 0
M  V30 3416 H 306.161 1.01617 3.74561 0
M  V30 3417 H 304.262 -1.43063 3.4404 0
M  V30 3418 H 304.375 -0.115362 4.78961 0
M  V30 3419 H 302.739 -0.158019 2.54209 0
M  V30 3420 H 303.522 1.40585 3.13194 0
M  V30 3421 N 305.967 -1.56429 0.191757 0
M  V30 3422 C 307.378 -1.83912 -0.321428 0
M  V30 3423 C 307.729 -1.11231 -1.61623 0
M  V30 3424 O 306.854 -0.37202 -2.13178 0
M  V30 3425 C 307.449 -3.33624 -0.589961 0
M  V30 3426 C 306.008 -3.6153 -1.04753 0
M  V30 3427 C 305.155 -2.7714 -0.0943327 0
M  V30 3428 H 308.106 -1.53161 0.415612 0
M  V30 3429 H 308.127 -3.52213 -1.43966 0
M  V30 3430 H 307.639 -3.86495 0.352588 0
M  V30 3431 H 305.74 -3.14089 -2.00447 0
M  V30 3432 H 305.853 -4.69737 -0.942549 0
M  V30 3433 H 304.217 -2.47638 -0.595589 0
M  V30 3434 H 305 -3.32799 0.842601 0
M  V30 3435 N 307.445 0.0818655 -1.57387 0
M  V30 3436 C 308.722 0.815343 -1.77796 0
M  V30 3437 C 309.102 1.96289 -0.77679 0
M  V30 3438 O 308.45 2.27691 0.192106 0
M  V30 3439 C 308.66 1.29765 -3.23978 0
M  V30 3440 C 310.008 1.7351 -3.8753 0
M  V30 3441 O 311.032 1.39356 -3.27808 0
M  V30 3442 O 309.891 2.36708 -4.92576 0
M  V30 3443 H 306.985 0.389914 -0.729312 0
M  V30 3444 H 309.531 0.0627213 -1.69584 0
M  V30 3445 H 308.303 0.47608 -3.88393 0
M  V30 3446 H 307.926 2.11189 -3.36875 0
M  V30 3447 N 308.923 1.53595 0.353017 0
M  V30 3448 C 309.833 1.83897 1.45667 0
M  V30 3449 C 310.849 0.728334 1.58023 0
M  V30 3450 O 312.025 1.01968 1.73679 0
M  V30 3451 C 309.09 2.03383 2.80778 0
M  V30 3452 C 308.151 3.27262 2.77845 0
M  V30 3453 C 307.384 3.45809 4.06512 0
M  V30 3454 O 307.607 2.68387 5.03314 0
M  V30 3455 O 306.541 4.39207 4.11559 0
M  V30 3456 H 310.367 2.77686 1.2298 0
M  V30 3457 H 307.952 1.39132 0.544308 0
M  V30 3458 H 309.834 2.17698 3.60812 0
M  V30 3459 H 308.509 1.12783 3.03417 0
M  V30 3460 H 307.416 3.18359 1.96465 0
M  V30 3461 H 308.749 4.17824 2.60161 0
M  V30 3462 N 310.401 -0.613514 1.45168 0
M  V30 3463 C 311.65 -1.36874 1.4815 0
M  V30 3464 C 311.963 -1.952 0.124982 0
M  V30 3465 O 313.169 -2.71481 0.0324176 0
M  V30 3466 C 311.625 -2.47905 2.60904 0
M  V30 3467 C 311.233 -1.96016 4.02842 0
M  V30 3468 C 312.977 -3.24965 2.73126 0
M  V30 3469 C 310.884 -3.04494 5.06988 0
M  V30 3470 H 309.814 -0.514428 0.551253 0
M  V30 3471 H 312.465 -0.658182 1.7129 0
M  V30 3472 H 310.847 -3.21618 2.31037 0
M  V30 3473 H 312.021 -1.29051 4.4236 0
M  V30 3474 H 310.336 -1.31719 3.95018 0
M  V30 3475 H 312.933 -4.05865 3.48106 0
M  V30 3476 H 313.276 -3.75588 1.79553 0
M  V30 3477 H 313.809 -2.5835 3.0249 0
M  V30 3478 H 310.548 -2.58795 6.0225 0
M  V30 3479 H 310.068 -3.70044 4.72046 0
M  V30 3480 H 311.747 -3.68976 5.31475 0
M  V30 3481 N 311.879 -1.3236 -0.855495 0
M  V30 3482 C 313.109 -1.25688 -1.6397 0
M  V30 3483 C 313.517 0.177592 -1.88365 0
M  V30 3484 O 312.86 1.12485 -1.45234 0
M  V30 3485 C 312.922 -1.94602 -3.02275 0
M  V30 3486 C 312.586 -3.43937 -3.00926 0
M  V30 3487 C 313.583 -4.39435 -2.77835 0
M  V30 3488 C 311.268 -3.85858 -3.21588 0
M  V30 3489 C 313.262 -5.74829 -2.75409 0
M  V30 3490 C 310.949 -5.21361 -3.18789 0
M  V30 3491 C 311.947 -6.15658 -2.95727 0
M  V30 3492 O 311.635 -7.48681 -2.928 0
M  V30 3493 H 311.367 -0.434972 -0.51747 0
M  V30 3494 H 313.921 -1.75023 -1.075 0
M  V30 3495 H 312.151 -1.39836 -3.60531 0
M  V30 3496 H 313.84 -1.81651 -3.62985 0
M  V30 3497 H 314.606 -4.08374 -2.6164 0
M  V30 3498 H 310.485 -3.12883 -3.38564 0
M  V30 3499 H 314.029 -6.48404 -2.57328 0
M  V30 3500 H 309.926 -5.52052 -3.34528 0
M  V30 3501 H 310.694 -7.5803 -3.0876 0
M  V30 3502 N 313.357 1.07166 -1.15556 0
M  V30 3503 C 314.603 1.80065 -0.932984 0
M  V30 3504 C 314.936 1.86586 0.53845 0
M  V30 3505 O 314.211 1.35098 1.39924 0
M  V30 3506 C 314.494 3.25022 -1.55025 0
M  V30 3507 C 314.347 3.26634 -3.09242 0
M  V30 3508 C 315.666 4.22341 -1.2376 0
M  V30 3509 H 312.785 0.653697 -0.340366 0
M  V30 3510 H 315.427 1.25389 -1.4275 0
M  V30 3511 H 313.577 3.71712 -1.12972 0
M  V30 3512 H 315.249 2.88173 -3.60214 0
M  V30 3513 H 313.492 2.65539 -3.43033 0
M  V30 3514 H 314.163 4.28854 -3.47546 0
M  V30 3515 H 316.639 3.8405 -1.60139 0
M  V30 3516 H 315.515 5.22053 -1.69564 0
M  V30 3517 H 315.776 4.41828 -0.154938 0
M  V30 3518 N 314.835 0.952656 1.25548 0
M  V30 3519 C 316.251 0.656769 1.4546 0
M  V30 3520 C 316.451 -0.78633 1.85524 0
M  V30 3521 O 315.507 -1.56183 1.98402 0
M  V30 3522 C 316.82 1.62801 2.52817 0
M  V30 3523 C 318.368 1.63897 2.66659 0
M  V30 3524 C 318.843 2.5978 3.77198 0
M  V30 3525 N 320.334 2.58133 3.84606 0
M  V30 3526 C 321.069 3.29003 4.69621 0
M  V30 3527 N 320.565 4.09339 5.58939 0
M  V30 3528 N 322.358 3.179 4.63569 0
M  V30 3529 H 314.509 1.88526 0.978344 0
M  V30 3530 H 316.772 0.810815 0.491206 0
M  V30 3531 H 316.478 2.65869 2.30232 0
M  V30 3532 H 316.352 1.38898 3.50695 0
M  V30 3533 H 318.739 0.615481 2.8861 0
M  V30 3534 H 318.82 1.91858 1.69187 0
M  V30 3535 H 318.464 3.62254 3.55997 0
M  V30 3536 H 318.394 2.29105 4.7415 0
M  V30 3537 H 320.885 1.99809 3.20757 0
M  V30 3538 H 321.198 4.6034 6.20731 0
M  V30 3539 H 319.543 4.13438 5.58654 0
M  V30 3540 H 322.734 2.54612 3.92798 0
M  V30 3541 H 322.907 3.73398 5.29602 0
M  V30 3542 N 316.313 -1.40141 0.720998 0
M  V30 3543 C 317.541 -2.05096 0.272656 0
M  V30 3544 C 317.956 -1.54334 -1.0875 0
M  V30 3545 O 317.313 -0.702211 -1.6845 0
M  V30 3546 C 317.364 -3.60636 0.249835 0
M  V30 3547 O 317.085 -4.09526 1.55629 0
M  V30 3548 C 318.586 -4.42772 -0.216396 0
M  V30 3549 H 315.806 -0.659897 0.121558 0
M  V30 3550 H 318.35 -1.79449 0.980723 0
M  V30 3551 H 316.505 -3.85232 -0.409237 0
M  V30 3552 H 316.919 -5.03758 1.4604 0
M  V30 3553 H 318.393 -5.51702 -0.181212 0
M  V30 3554 H 318.87 -4.20756 -1.25941 0
M  V30 3555 H 319.476 -4.23294 0.412596 0
M  V30 3556 N 317.792 -0.46758 -1.50504 0
M  V30 3557 C 319.038 0.0887532 -2.02606 0
M  V30 3558 C 319.371 1.39686 -1.34913 0
M  V30 3559 O 318.646 1.88644 -0.473694 0
M  V30 3560 C 318.929 0.276206 -3.59039 0
M  V30 3561 C 318.782 -1.05267 -4.37309 0
M  V30 3562 C 320.101 1.03235 -4.27821 0
M  V30 3563 H 317.22 0.0307814 -0.736357 0
M  V30 3564 H 319.862 -0.612485 -1.79857 0
M  V30 3565 H 318.012 0.8735 -3.78553 0
M  V30 3566 H 319.684 -1.68628 -4.29374 0
M  V30 3567 H 317.927 -1.65015 -4.01189 0
M  V30 3568 H 318.598 -0.875197 -5.45018 0
M  V30 3569 H 321.074 0.526111 -4.12761 0
M  V30 3570 H 319.95 1.1323 -5.37094 0
M  V30 3571 H 320.211 2.06806 -3.90748 0
M  V30 3572 N 319.27 1.56325 -0.20005 0
M  V30 3573 C 320.5 2.01811 0.442232 0
M  V30 3574 C 320.908 1.07932 1.55394 0
M  V30 3575 O 320.251 0.0772685 1.83537 0
M  V30 3576 C 320.313 3.43685 1.05457 0
M  V30 3577 C 319.977 4.56928 0.0809833 0
M  V30 3578 C 320.974 5.15009 -0.711471 0
M  V30 3579 C 318.659 5.0229 -0.0315364 0
M  V30 3580 C 320.653 6.16904 -1.60336 0
M  V30 3581 C 318.34 6.04028 -0.926981 0
M  V30 3582 C 319.338 6.6121 -1.71146 0
M  V30 3583 O 319.026 7.60971 -2.59189 0
M  V30 3584 H 318.758 0.666173 0.114848 0
M  V30 3585 H 321.312 2.03085 -0.307511 0
M  V30 3586 H 319.542 3.39413 1.85299 0
M  V30 3587 H 321.231 3.72948 1.60201 0
M  V30 3588 H 321.997 4.80827 -0.634873 0
M  V30 3589 H 317.876 4.57476 0.568902 0
M  V30 3590 H 321.42 6.61464 -2.21611 0
M  V30 3591 H 317.317 6.37634 -1.00468 0
M  V30 3592 H 318.085 7.7841 -2.53023 0
M  V30 3593 N 320.748 -0.0735177 1.57428 0
M  V30 3594 C 321.696 -1.10628 2.04607 0
M  V30 3595 C 322.69 -1.40181 0.951088 0
M  V30 3596 O 323.896 -1.39608 1.1362 0
M  V30 3597 H 320.271 -0.374088 0.652351 0
M  V30 3598 H 322.242 -0.682218 2.90497 0
M  V30 3599 C 320.991 -2.41212 2.50423 0
M  V30 3600 H 320.314 -2.19322 3.34272 0
M  V30 3601 H 321.754 -3.11927 2.87189 0
M  V30 3602 C 320.213 -3.0705 1.38644 0
M  V30 3603 O 320.743 -3.95056 0.727582 0
M  V30 3604 N 318.949 -2.67645 1.132 0
M  V30 3605 H 318.496 -1.96169 1.66959 0
M  V30 3606 H 318.454 -3.1202 0.386147 0
M  V30 3607 N 322.226 -1.5378 -0.344866 0
M  V30 3608 C 323.475 -1.7018 -1.08267 0
M  V30 3609 C 323.788 -0.471 -1.89845 0
M  V30 3610 O 324.994 -0.515917 -2.66553 0
M  V30 3611 C 323.45 -3.00923 -1.97417 0
M  V30 3612 C 323.058 -4.31335 -1.21053 0
M  V30 3613 C 324.802 -3.26688 -2.71063 0
M  V30 3614 C 322.709 -5.53153 -2.09225 0
M  V30 3615 H 321.639 -0.634138 -0.407903 0
M  V30 3616 H 324.29 -1.8028 -0.342246 0
M  V30 3617 H 322.672 -2.84676 -2.75274 0
M  V30 3618 H 323.846 -4.58281 -0.481159 0
M  V30 3619 H 322.161 -4.12173 -0.591813 0
M  V30 3620 H 324.758 -4.1489 -3.37299 0
M  V30 3621 H 325.101 -2.43639 -3.37558 0
M  V30 3622 H 325.634 -3.43705 -2.0028 0
M  V30 3623 H 322.373 -6.38741 -1.47274 0
M  V30 3624 H 321.893 -5.30458 -2.79955 0
M  V30 3625 H 323.572 -5.88744 -2.68308 0
M  V30 3626 N 323.704 0.605807 -1.45491 0
M  V30 3627 C 324.951 1.36476 -1.49601 0
M  V30 3628 C 325.279 1.94007 -0.138452 0
M  V30 3629 O 324.534 1.75638 0.863114 0
M  V30 3630 C 324.833 2.53012 -2.52428 0
M  V30 3631 C 324.499 2.13617 -3.97087 0
M  V30 3632 C 323.161 2.02587 -4.36477 0
M  V30 3633 C 325.513 1.82899 -4.88055 0
M  V30 3634 C 322.841 1.59064 -5.64726 0
M  V30 3635 C 325.193 1.40861 -6.16718 0
M  V30 3636 C 323.857 1.28391 -6.55036 0
M  V30 3637 H 323.127 0.499402 -0.547429 0
M  V30 3638 H 325.774 0.684546 -1.78847 0
M  V30 3639 H 324.079 3.26379 -2.16758 0
M  V30 3640 H 325.776 3.1124 -2.52845 0
M  V30 3641 H 322.366 2.23129 -3.65939 0
M  V30 3642 H 326.55 1.90317 -4.58359 0
M  V30 3643 H 321.806 1.48034 -5.93208 0
M  V30 3644 H 325.98 1.16138 -6.86648 0
M  V30 3645 H 323.607 0.944403 -7.54311 0
M  V30 3646 N 325.182 1.32811 0.848464 0
M  V30 3647 C 326.598 1.11937 1.13764 0
M  V30 3648 C 326.798 -0.0960789 2.01271 0
M  V30 3649 O 325.854 -0.779165 2.40178 0
M  V30 3650 C 327.167 2.402 1.809 0
M  V30 3651 C 328.715 2.46016 1.93508 0
M  V30 3652 C 329.19 3.74215 2.64059 0
M  V30 3653 N 330.681 3.75232 2.71579 0
M  V30 3654 C 331.416 4.71134 3.26833 0
M  V30 3655 N 330.912 5.77406 3.8285 0
M  V30 3656 N 332.705 4.58623 3.24995 0
M  V30 3657 H 324.856 2.1073 0.265855 0
M  V30 3658 H 327.119 0.930671 0.180431 0
M  V30 3659 H 326.825 3.29093 1.24058 0
M  V30 3660 H 326.699 2.51628 2.81004 0
M  V30 3661 H 329.086 1.57577 2.49506 0
M  V30 3662 H 329.167 2.38536 0.923811 0
M  V30 3663 H 328.811 4.63031 2.08722 0
M  V30 3664 H 328.741 3.78968 3.65637 0
M  V30 3665 H 331.232 2.98423 2.31845 0
M  V30 3666 H 331.545 6.46632 4.23187 0
M  V30 3667 H 329.89 5.81152 3.81165 0
M  V30 3668 H 333.081 3.74762 2.80484 0
M  V30 3669 H 333.254 5.33535 3.67756 0
M  V30 3670 N 326.66 -1.06551 1.16123 0
M  V30 3671 C 328.071 -1.60768 0.949232 0
M  V30 3672 C 328.422 -1.89523 -0.507508 0
M  V30 3673 O 327.547 -1.66671 -1.38021 0
M  V30 3674 C 328.142 -2.92086 1.71671 0
M  V30 3675 C 326.701 -3.43015 1.54977 0
M  V30 3676 C 325.848 -2.16947 1.72711 0
M  V30 3677 H 328.799 -0.895354 1.31031 0
M  V30 3678 H 328.82 -3.6138 1.19099 0
M  V30 3679 H 328.332 -2.71127 2.7769 0
M  V30 3680 H 326.433 -3.69039 0.513873 0
M  V30 3681 H 326.546 -4.18516 2.33198 0
M  V30 3682 H 324.91 -2.27041 1.15431 0
M  V30 3683 H 325.693 -1.98473 2.80113 0
M  V30 3684 O 328.177 -1.08916 -1.19246 0
M  V30 3685 H 328.868 -0.783022 -1.77168 0
M  V30 END ATOM
M  V30 BEGIN BOND
M  V30 END BOND
M  V30 END CTAB
M  END
$$$$
