drugbank_target|O15270 Serine palmitoyltransferase 2 (DB00114; DB00133)
 OpenBabel12092119363D

  0  0  0     0  0            999 V3000
M  V30 BEGIN CTAB
M  V30 COUNTS 8826 8917 0 0 0
M  V30 BEGIN ATOM
M  V30 1 H -0.908 1.98254 -0.117106 0
M  V30 2 N 0 1.576 0 0
M  V30 3 C 0.933 2.03868 1.02534 0
M  V30 4 C 1.911 0.928543 1.3348 0
M  V30 5 O 3.095 1.19667 1.45644 0
M  V30 6 C 0.222 2.43627 2.35294 0
M  V30 7 C -0.732 3.65373 2.2001 0
M  V30 8 S 0.101 5.13292 1.52614 0
M  V30 9 C 1.257 5.56322 2.86805 0
M  V30 10 H 1.49 2.90518 0.631377 0
M  V30 11 H -0.977 1.52953 0.210867 0
M  V30 12 H 0.981 2.67203 3.11629 0
M  V30 13 H -0.358 1.57376 2.7183 0
M  V30 14 H -1.165 3.90944 3.18086 0
M  V30 15 H -1.563 3.418 1.51819 0
M  V30 16 H 0.729 5.58782 3.83104 0
M  V30 17 H 1.672 6.56266 2.65933 0
M  V30 18 H 2.08 4.83886 2.90714 0
M  V30 19 N 1.4781 -0.272755 1.55222 0
M  V30 20 C 2.8941 -0.619959 1.47067 0
M  V30 21 C 3.0941 -1.895 0.684978 0
M  V30 22 O 2.1501 -2.51675 0.203931 0
M  V30 23 C 3.4631 -0.746693 2.91282 0
M  V30 24 C 5.0111 -0.840731 3.01497 0
M  V30 25 C 5.4861 -0.99924 4.46967 0
M  V30 26 N 6.9771 -1.06476 4.50796 0
M  V30 27 C 7.7121 -1.20621 5.6057 0
M  V30 28 N 7.2081 -1.31483 6.80209 0
M  V30 29 N 9.0011 -1.23733 5.48312 0
M  V30 30 H 1.1521 0.564606 2.04758 0
M  V30 31 H 3.4151 0.191177 0.928523 0
M  V30 32 H 3.1211 0.119753 3.51496 0
M  V30 33 H 2.9951 -1.6269 3.40311 0
M  V30 34 H 5.3821 -1.69764 2.41379 0
M  V30 35 H 5.4631 0.0640874 2.5572 0
M  V30 36 H 5.1071 -0.146984 5.07687 0
M  V30 37 H 5.0371 -1.91871 4.90401 0
M  V30 38 H 7.5281 -0.993196 3.64615 0
M  V30 39 H 7.8411 -1.42111 7.59621 0
M  V30 40 H 6.1861 -1.28487 6.8302 0
M  V30 41 H 9.3771 -1.14877 4.53785 0
M  V30 42 H 9.5501 -1.34412 6.33906 0
M  V30 43 N 2.9562 -1.48159 -0.537278 0
M  V30 44 C 4.3672 -1.49429 -1.11928 0
M  V30 45 C 4.7182 -0.26 -1.9447 0
M  V30 46 O 3.8432 0.633489 -2.0692 0
M  V30 47 C 4.4382 -2.70758 -2.03656 0
M  V30 48 C 2.9972 -2.74923 -2.57088 0
M  V30 49 C 2.1442 -2.42835 -1.3389 0
M  V30 50 H 5.0952 -1.55381 -0.322886 0
M  V30 51 H 5.1162 -2.48861 -2.87834 0
M  V30 52 H 4.6282 -3.60575 -1.43553 0
M  V30 53 H 2.7292 -1.89296 -3.20933 0
M  V30 54 H 2.8422 -3.76157 -2.9672 0
M  V30 55 H 1.2062 -1.93836 -1.65226 0
M  V30 56 H 1.9892 -3.34884 -0.755504 0
M  V30 57 N 4.4343 0.785586 -1.36625 0
M  V30 58 C 5.3443 1.92964 -1.33425 0
M  V30 59 C 6.3603 1.72394 -0.235851 0
M  V30 60 O 7.5363 1.95866 -0.468878 0
M  V30 61 C 4.6013 3.27884 -1.12662 0
M  V30 62 C 3.6623 3.61204 -2.32013 0
M  V30 63 C 2.8953 4.89687 -2.12231 0
M  V30 64 O 3.1183 5.59704 -1.09945 0
M  V30 65 O 2.0523 5.21752 -3.00098 0
M  V30 66 H 5.8783 1.98613 -2.29753 0
M  V30 67 H 3.4633 0.926384 -1.17211 0
M  V30 68 H 5.3453 4.08614 -1.03016 0
M  V30 69 H 4.0203 3.23118 -0.193991 0
M  V30 70 H 2.9273 2.80765 -2.47228 0
M  V30 71 H 4.2603 3.70698 -3.23796 0
M  V30 72 N 5.9124 1.20967 1.01018 0
M  V30 73 C 7.3234 1.02319 1.56165 0
M  V30 74 C 7.6744 -0.418546 1.91684 0
M  V30 75 O 6.7994 -1.30096 1.72928 0
M  V30 76 C 7.3944 1.85109 2.8376 0
M  V30 77 C 5.9534 1.70809 3.35412 0
M  V30 78 C 5.1004 1.82643 2.08655 0
M  V30 79 H 8.0514 1.35065 0.833255 0
M  V30 80 H 8.0724 1.35827 3.55431 0
M  V30 81 H 7.5844 2.90035 2.57878 0
M  V30 82 H 5.6854 0.685464 3.66241 0
M  V30 83 H 5.7984 2.52467 4.07182 0
M  V30 84 H 4.1624 1.25896 2.21409 0
M  V30 85 H 4.9454 2.89066 1.85191 0
M  V30 86 N 7.3905 -1.2043 1.01659 0
M  V30 87 C 8.6385 -1.89423 0.704522 0
M  V30 88 C 8.9595 -1.79231 -0.768197 0
M  V30 89 O 8.2295 -1.1947 -1.55254 0
M  V30 90 H 6.8095 -0.701178 0.257602 0
M  V30 91 H 9.4715 -1.4626 1.28818 0
M  V30 92 H 8.5675 -2.96052 0.987916 0
M  V30 93 N 8.8686 -0.792821 -1.36206 0
M  V30 94 C 10.1166 -0.366062 -1.98757 0
M  V30 95 C 10.4376 1.0668 -1.63231 0
M  V30 96 O 9.7076 1.73587 -0.907978 0
M  V30 97 H 8.2876 -0.132364 -0.735179 0
M  V30 98 H 10.9496 -1.01562 -1.66347 0
M  V30 99 H 10.0456 -0.460638 -3.08682 0
M  V30 100 N 10.3467 1.47872 -0.545128 0
M  V30 101 C 11.5867 2.04391 -0.0187854 0
M  V30 102 C 11.9507 1.41162 1.30144 0
M  V30 103 O 13.1517 1.88656 1.91474 0
M  V30 104 C 11.4227 3.57299 0.0850867 0
M  V30 105 S 12.9817 4.35221 0.559302 0
M  V30 106 H 9.7997 0.710737 -0.0193301 0
M  V30 107 H 12.4017 1.81395 -0.729125 0
M  V30 108 H 11.1057 4.00847 -0.880351 0
M  V30 109 H 10.6367 3.84773 0.819348 0
M  V30 110 H 12.6517 4.61571 1.82118 0
M  V30 111 N 11.8248 0.280983 1.55075 0
M  V30 112 C 13.0648 -0.335234 2.01632 0
M  V30 113 C 13.4288 -1.5261 1.16508 0
M  V30 114 O 14.6298 -2.21235 1.52672 0
M  V30 115 C 12.9008 -0.702172 3.50434 0
M  V30 116 S 14.4598 -1.30409 4.18974 0
M  V30 117 H 11.2778 -0.103967 0.703358 0
M  V30 118 H 13.8798 0.404187 1.91276 0
M  V30 119 H 12.5838 0.17333 4.10034 0
M  V30 120 H 12.1148 -1.4729 3.64786 0
M  V30 121 H 14.1298 -2.59253 4.23087 0
M  V30 122 N 13.3029 -1.57598 0.00835791 0
M  V30 123 C 14.5429 -1.92788 -0.679136 0
M  V30 124 C 14.9069 -0.883378 -1.70471 0
M  V30 125 O 16.1079 -1.12079 -2.44319 0
M  V30 126 C 14.3789 -3.32994 -1.29807 0
M  V30 127 S 15.9379 -3.90082 -2.00952 0
M  V30 128 H 12.7559 -0.67475 -0.224127 0
M  V30 129 H 15.3579 -1.95385 0.0670497 0
M  V30 130 H 14.0619 -4.06846 -0.538922 0
M  V30 131 H 13.5929 -3.33791 -2.082 0
M  V30 132 H 15.6079 -3.71834 -3.28563 0
M  V30 133 N 14.781 0.264519 -1.55364 0
M  V30 134 C 16.197 0.61215 -1.47394 0
M  V30 135 C 16.397 1.89134 -0.695018 0
M  V30 136 O 15.453 2.51563 -0.217275 0
M  V30 137 C 16.766 0.731235 -2.91674 0
M  V30 138 C 18.314 0.82473 -3.01939 0
M  V30 139 C 18.789 0.975522 -4.4749 0
M  V30 140 N 20.28 1.04083 -4.51354 0
M  V30 141 C 21.015 1.17646 -5.61201 0
M  V30 142 N 20.511 1.27874 -6.80896 0
M  V30 143 N 22.304 1.20823 -5.48961 0
M  V30 144 H 14.455 -0.575456 -2.04456 0
M  V30 145 H 16.718 -0.196099 -0.927496 0
M  V30 146 H 16.424 -0.138392 -3.51428 0
M  V30 147 H 16.298 1.60883 -3.41169 0
M  V30 148 H 18.685 1.68482 -2.42276 0
M  V30 149 H 18.766 -0.0776479 -2.55682 0
M  V30 150 H 18.41 0.120058 -5.07758 0
M  V30 151 H 18.34 1.89268 -4.91412 0
M  V30 152 H 20.831 0.973846 -3.65136 0
M  V30 153 H 21.144 1.38081 -7.60364 0
M  V30 154 H 19.489 1.24863 -6.83692 0
M  V30 155 H 22.68 1.12469 -4.54388 0
M  V30 156 H 22.853 1.31049 -6.3461 0
M  V30 157 N 16.2591 1.48442 0.529413 0
M  V30 158 C 17.6751 1.34575 0.858004 0
M  V30 159 C 17.8751 0.3572 1.98309 0
M  V30 160 O 16.9311 -0.221379 2.51528 0
M  V30 161 C 18.2441 2.74617 1.22499 0
M  V30 162 C 19.7921 2.83109 1.33484 0
M  V30 163 C 20.2671 4.23854 1.73526 0
M  V30 164 N 21.7581 4.2653 1.80628 0
M  V30 165 C 22.4931 5.32372 2.12997 0
M  V30 166 N 21.9891 6.48491 2.43786 0
M  V30 167 N 23.7821 5.19766 2.14008 0
M  V30 168 H 15.9331 2.1133 -0.212925 0
M  V30 169 H 18.1961 0.947439 -0.0326199 0
M  V30 170 H 17.9021 3.4852 0.471905 0
M  V30 171 H 17.7761 3.08177 2.17501 0
M  V30 172 H 20.1631 2.09462 2.0787 0
M  V30 173 H 20.2441 2.53168 0.366027 0
M  V30 174 H 19.8881 4.98018 0.997013 0
M  V30 175 H 19.8181 4.5124 2.71459 0
M  V30 176 H 22.3091 3.42772 1.59108 0
M  V30 177 H 22.6221 7.24993 2.67592 0
M  V30 178 H 20.9671 6.51765 2.41304 0
M  V30 179 H 24.1581 4.28066 1.89412 0
M  V30 180 H 24.3311 6.02354 2.38902 0
M  V30 181 N 17.7372 -0.778329 1.37039 0
M  V30 182 C 18.9652 -1.56734 1.35063 0
M  V30 183 C 19.3802 -1.88686 -0.0655597 0
M  V30 184 O 18.7372 -1.5096 -1.02554 0
M  V30 185 C 18.7882 -2.88163 2.18276 0
M  V30 186 O 18.5092 -2.57583 3.54376 0
M  V30 187 C 20.0102 -3.82422 2.24206 0
M  V30 188 H 17.2302 -0.485778 0.462883 0
M  V30 189 H 19.7742 -0.965185 1.8029 0
M  V30 190 H 17.9292 -3.44818 1.76576 0
M  V30 191 H 18.3432 -3.41699 3.97922 0
M  V30 192 H 19.8172 -4.71667 2.86765 0
M  V30 193 H 20.2942 -4.21078 1.24861 0
M  V30 194 H 20.9002 -3.31697 2.6619 0
M  V30 195 N 19.2153 -1.21501 -1.00376 0
M  V30 196 C 20.4613 -1.03452 -1.74429 0
M  V30 197 C 20.7943 0.430764 -1.89362 0
M  V30 198 O 20.0693 1.31962 -1.42886 0
M  V30 199 C 20.3523 -1.73375 -3.15615 0
M  V30 200 C 20.2053 -3.27431 -3.08397 0
M  V30 201 C 21.5243 -1.47732 -4.14564 0
M  V30 202 H 18.6433 -0.377226 -0.633143 0
M  V30 203 H 21.2853 -1.49693 -1.17013 0
M  V30 204 H 19.4353 -1.34064 -3.64636 0
M  V30 205 H 21.1073 -3.76119 -2.67081 0
M  V30 206 H 19.3503 -3.5767 -2.45468 0
M  V30 207 H 20.0213 -3.71524 -4.08258 0
M  V30 208 H 22.4973 -1.8186 -3.74254 0
M  V30 209 H 21.3733 -1.99169 -5.11491 0
M  V30 210 H 21.6343 -0.407589 -4.40217 0
M  V30 211 N 20.6934 1.19889 -1.02296 0
M  V30 212 C 22.1094 1.41462 -0.738954 0
M  V30 213 C 22.3094 1.89721 0.678846 0
M  V30 214 O 21.3654 2.07016 1.4457 0
M  V30 215 C 22.6784 2.43083 -1.77005 0
M  V30 216 C 24.2264 2.5684 -1.78892 0
M  V30 217 C 24.7014 3.61709 -2.80945 0
M  V30 218 N 26.1924 3.69199 -2.79725 0
M  V30 219 C 26.9274 4.50019 -3.55345 0
M  V30 220 N 26.4234 5.34592 -4.40662 0
M  V30 221 N 28.2164 4.44612 -3.43914 0
M  V30 222 H 20.3674 0.868827 -1.93817 0
M  V30 223 H 22.6304 0.44399 -0.837602 0
M  V30 224 H 22.3364 2.14636 -2.78612 0
M  V30 225 H 22.2104 3.4217 -1.58744 0
M  V30 226 H 24.5974 2.84614 -0.779674 0
M  V30 227 H 24.6784 1.57927 -2.01228 0
M  V30 228 H 24.3224 3.34678 -3.82038 0
M  V30 229 H 24.2524 4.60259 -2.5587 0
M  V30 230 H 26.7434 3.08794 -2.17842 0
M  V30 231 H 27.0564 5.93363 -4.95116 0
M  V30 232 H 25.4014 5.34073 -4.44737 0
M  V30 233 H 28.5924 3.7758 -2.76679 0
M  V30 234 H 28.7654 5.0736 -4.031 0
M  V30 235 N 22.1715 0.800033 1.35784 0
M  V30 236 C 23.1345 0.211565 2.28221 0
M  V30 237 C 24.1345 -0.59728 1.49296 0
M  V30 238 O 25.3245 -0.416721 1.69142 0
M  V30 239 C 22.4565 -0.705846 3.33513 0
M  V30 240 H 23.6495 1.02677 2.81776 0
M  V30 241 H 21.2025 0.570211 1.45528 0
M  V30 242 H 21.9375 -1.54498 2.85133 0
M  V30 243 H 21.7225 -0.127655 3.91892 0
M  V30 244 H 23.2125 -1.11211 4.02519 0
M  V30 245 N 23.6496 -1.47581 0.552962 0
M  V30 246 C 24.5976 -2.31648 -0.21023 0
M  V30 247 C 25.5916 -1.42663 -0.913432 0
M  V30 248 O 26.7976 -1.5945 -0.835201 0
M  V30 249 H 23.1726 -0.746989 -0.0866676 0
M  V30 250 H 25.1436 -2.93869 0.518051 0
M  V30 251 C 23.8926 -3.25226 -1.22976 0
M  V30 252 H 23.2156 -3.93658 -0.698077 0
M  V30 253 H 24.6556 -3.86889 -1.73473 0
M  V30 254 C 23.1146 -2.48448 -2.27542 0
M  V30 255 O 23.6446 -2.22585 -3.34393 0
M  V30 256 N 21.8506 -2.09532 -2.01357 0
M  V30 257 H 21.3976 -2.30765 -1.14478 0
M  V30 258 H 21.3556 -1.58476 -2.71538 0
M  V30 259 N 25.1277 -0.289203 -1.54924 0
M  V30 260 C 26.3757 0.322879 -1.99504 0
M  V30 261 C 26.6967 1.55313 -1.1791 0
M  V30 262 O 25.9667 1.94001 -0.272097 0
M  V30 263 H 24.5467 0.122291 -0.736922 0
M  V30 264 H 27.2087 -0.397802 -1.90797 0
M  V30 265 H 26.3047 0.603061 -3.06218 0
M  V30 266 N 26.6058 1.57591 -0.0167156 0
M  V30 267 C 27.8458 1.93145 0.668902 0
M  V30 268 C 28.2098 0.892406 1.7 0
M  V30 269 O 29.4108 1.13373 2.43721 0
M  V30 270 C 27.6818 3.33678 1.28039 0
M  V30 271 S 29.2408 3.91142 1.9888 0
M  V30 272 H 26.0588 0.67593 0.220545 0
M  V30 273 H 28.6608 1.95347 -0.0774105 0
M  V30 274 H 27.3648 4.07126 0.517339 0
M  V30 275 H 26.8958 3.3489 2.06427 0
M  V30 276 H 28.9108 3.73571 3.26587 0
M  V30 277 N 28.0839 -0.256276 1.55502 0
M  V30 278 C 29.3299 -0.987079 1.77157 0
M  V30 279 C 29.6629 -1.85327 0.580315 0
M  V30 280 O 28.9379 -1.89874 -0.421686 0
M  V30 281 C 29.2209 -1.85553 3.08613 0
M  V30 282 C 29.0739 -1.01816 4.38125 0
M  V30 283 C 30.3929 -2.8397 3.36228 0
M  V30 284 H 27.5119 -0.357428 0.644526 0
M  V30 285 H 30.1539 -0.258239 1.88237 0
M  V30 286 H 28.3039 -2.47695 2.99298 0
M  V30 287 H 29.9759 -0.416159 4.59419 0
M  V30 288 H 28.2189 -0.322178 4.32602 0
M  V30 289 H 28.8899 -1.65939 5.26468 0
M  V30 290 H 31.3659 -2.31964 3.45445 0
M  V30 291 H 30.2419 -3.41864 4.29442 0
M  V30 292 H 30.5029 -3.59955 2.56681 0
M  V30 293 N 29.562 -1.4872 -0.521534 0
M  V30 294 C 30.525 -1.63379 -1.60748 0
M  V30 295 C 31.525 -0.50661 -1.52611 0
M  V30 296 O 32.715 -0.772601 -1.5613 0
M  V30 297 C 29.847 -1.61192 -3.00383 0
M  V30 298 H 31.04 -2.60217 -1.49087 0
M  V30 299 H 28.593 -1.37444 -0.744235 0
M  V30 300 H 29.328 -0.65863 -3.17541 0
M  V30 301 H 29.113 -2.43032 -3.07698 0
M  V30 302 H 30.603 -1.7466 -3.7932 0
M  V30 303 N 31.0401 0.771051 -1.3745 0
M  V30 304 C 31.9881 1.90574 -1.33358 0
M  V30 305 C 32.9821 1.67936 -0.22224 0
M  V30 306 O 34.1881 1.75717 -0.390304 0
M  V30 307 H 30.5631 0.626714 -0.415612 0
M  V30 308 H 32.5341 1.91142 -2.29144 0
M  V30 309 C 31.2831 3.27845 -1.15813 0
M  V30 310 H 30.6061 3.45842 -2.00583 0
M  V30 311 H 32.0461 4.07538 -1.17 0
M  V30 312 C 30.5051 3.36625 0.136165 0
M  V30 313 O 31.0351 3.85785 1.11949 0
M  V30 314 N 29.2411 2.89997 0.187099 0
M  V30 315 H 28.7881 2.50182 -0.613753 0
M  V30 316 H 28.7461 2.96252 1.05272 0
M  V30 317 N 32.5182 1.22032 0.997298 0
M  V30 318 C 33.7662 1.04016 1.73278 0
M  V30 319 C 34.0872 -0.426255 1.90284 0
M  V30 320 O 33.3572 -1.30694 1.45931 0
M  V30 321 H 31.9372 0.381897 0.642 0
M  V30 322 H 34.5992 1.5347 1.20137 0
M  V30 323 H 33.6952 1.51441 2.72896 0
M  V30 324 N 33.9963 -1.19345 1.0293 0
M  V30 325 C 34.9063 -2.26245 0.620515 0
M  V30 326 C 35.9223 -1.70486 -0.347928 0
M  V30 327 O 37.0983 -2.00347 -0.205704 0
M  V30 328 C 34.1633 -3.46693 -0.0218957 0
M  V30 329 C 33.2243 -4.17632 0.994102 0
M  V30 330 C 32.4573 -5.32329 0.382253 0
M  V30 331 O 32.6803 -5.64552 -0.814676 0
M  V30 332 O 31.6143 -5.91664 1.10531 0
M  V30 333 H 35.4403 -2.63453 1.51083 0
M  V30 334 H 33.0253 -1.26207 0.799513 0
M  V30 335 H 34.9073 -4.19683 -0.380072 0
M  V30 336 H 33.5823 -3.11333 -0.886209 0
M  V30 337 H 32.4893 -3.4676 1.40387 0
M  V30 338 H 33.8223 -4.56964 1.8288 0
M  V30 339 N 35.4744 -0.807222 -1.35358 0
M  V30 340 C 36.7204 -0.388463 -1.99045 0
M  V30 341 C 37.0534 1.04184 -1.63888 0
M  V30 342 O 36.3284 1.72292 -0.902535 0
M  V30 343 C 36.6114 -0.572783 -3.55515 0
M  V30 344 C 36.4644 -2.04807 -4.00468 0
M  V30 345 C 37.7834 0.00114064 -4.401 0
M  V30 346 H 34.9024 -0.142619 -0.723069 0
M  V30 347 H 37.5444 -1.01687 -1.60498 0
M  V30 348 H 35.6944 -0.0378425 -3.88482 0
M  V30 349 H 37.3664 -2.64544 -3.77908 0
M  V30 350 H 35.6094 -2.54427 -3.51353 0
M  V30 351 H 36.2804 -2.12792 -5.09337 0
M  V30 352 H 38.7564 -0.455716 -4.13597 0
M  V30 353 H 37.6324 -0.157737 -5.48673 0
M  V30 354 H 37.8934 1.09488 -4.28328 0
M  V30 355 N 36.9525 1.47285 -0.560781 0
M  V30 356 C 38.3685 1.58065 -0.22081 0
M  V30 357 C 38.5685 1.55892 1.27671 0
M  V30 358 O 37.6245 1.46422 2.0571 0
M  V30 359 C 38.9375 2.88418 -0.850625 0
M  V30 360 C 40.4855 3.02009 -0.822184 0
M  V30 361 C 40.9605 4.35066 -1.43113 0
M  V30 362 N 42.4515 4.41711 -1.39448 0
M  V30 363 C 43.1865 5.43237 -1.83525 0
M  V30 364 N 42.6825 6.51555 -2.35474 0
M  V30 365 N 44.4755 5.34304 -1.74574 0
M  V30 366 H 36.6265 1.46941 -1.53369 0
M  V30 367 H 38.8895 0.699558 -0.639783 0
M  V30 368 H 38.5955 2.95755 -1.9032 0
M  V30 369 H 38.4695 3.75612 -0.345773 0
M  V30 370 H 40.8565 2.94266 0.221714 0
M  V30 371 H 40.9375 2.16347 -1.36483 0
M  V30 372 H 40.5815 4.43565 -2.47412 0
M  V30 373 H 40.5115 5.19465 -0.863899 0
M  V30 374 H 43.0025 3.64027 -1.01452 0
M  V30 375 H 43.3155 7.25203 -2.67021 0
M  V30 376 H 41.6605 6.52435 -2.39487 0
M  V30 377 H 44.8515 4.48581 -1.33763 0
M  V30 378 H 45.0245 6.13288 -2.09242 0
M  V30 379 N 38.4306 0.297415 1.54768 0
M  V30 380 C 39.3786 -0.596051 2.24833 0
M  V30 381 C 40.3726 -1.13992 1.25308 0
M  V30 382 O 41.5786 -1.09098 1.4317 0
M  V30 383 H 37.9536 -0.210814 0.721846 0
M  V30 384 H 39.9246 0.0174667 2.98395 0
M  V30 385 C 38.6736 -1.75818 2.99972 0
M  V30 386 H 37.9966 -1.3489 3.76357 0
M  V30 387 H 39.4366 -2.35949 3.52284 0
M  V30 388 C 37.8956 -2.66014 2.06732 0
M  V30 389 O 38.4256 -3.67009 1.63302 0
M  V30 390 N 36.6316 -2.33669 1.72763 0
M  V30 391 H 36.1786 -1.51586 2.08277 0
M  V30 392 H 36.1366 -2.94285 1.10652 0
M  V30 393 N 39.9087 -1.5758 0.0250728 0
M  V30 394 C 41.1567 -1.91255 -0.653151 0
M  V30 395 C 41.4777 -0.901691 -1.729 0
M  V30 396 O 40.7477 0.0573785 -1.95816 0
M  V30 397 H 39.3277 -0.705942 -0.244243 0
M  V30 398 H 41.9897 -1.94767 0.0719209 0
M  V30 399 H 41.0857 -2.91752 -1.10847 0
M  V30 400 N 41.3868 0.248026 -1.55636 0
M  V30 401 C 42.6168 0.992367 -1.81206 0
M  V30 402 C 43.0248 1.7949 -0.598324 0
M  V30 403 O 42.3678 1.78292 0.442434 0
M  V30 404 C 42.4298 1.97926 -3.00109 0
M  V30 405 C 42.0938 1.36377 -4.36177 0
M  V30 406 C 43.0908 0.76682 -5.14214 0
M  V30 407 C 40.7758 1.38347 -4.82872 0
M  V30 408 C 42.7698 0.197778 -6.37093 0
M  V30 409 C 40.4568 0.810574 -6.057 0
M  V30 410 C 41.4548 0.218754 -6.8265 0
M  V30 411 O 41.1428 -0.345298 -8.03158 0
M  V30 412 H 40.8748 0.297704 -0.606917 0
M  V30 413 H 43.4288 0.276517 -2.0353 0
M  V30 414 H 41.6588 2.73339 -2.73538 0
M  V30 415 H 43.3478 2.58694 -3.12781 0
M  V30 416 H 44.1138 0.744114 -4.79258 0
M  V30 417 H 39.9928 1.8335 -4.2297 0
M  V30 418 H 43.5368 -0.264788 -6.97097 0
M  V30 419 H 39.4338 0.830604 -6.40134 0
M  V30 420 H 40.2018 -0.237055 -8.18157 0
M  V30 421 N 42.8649 1.48995 0.513639 0
M  V30 422 C 44.1109 1.58076 1.27042 0
M  V30 423 C 44.4439 0.261026 1.92438 0
M  V30 424 O 43.7189 -0.734393 1.80103 0
M  V30 425 C 44.0019 2.73091 2.34719 0
M  V30 426 C 43.8549 4.14821 1.73907 0
M  V30 427 C 45.1739 2.83796 3.36375 0
M  V30 428 H 42.2929 0.575391 0.460536 0
M  V30 429 H 44.9349 1.81232 0.570516 0
M  V30 430 H 43.0849 2.53479 2.94416 0
M  V30 431 H 44.7569 4.45917 1.18135 0
M  V30 432 H 42.9999 4.21058 1.0437 0
M  V30 433 H 43.6709 4.91147 2.51949 0
M  V30 434 H 46.1469 3.01611 2.86653 0
M  V30 435 H 45.0229 3.65971 4.09093 0
M  V30 436 H 45.2839 1.92624 3.9793 0
M  V30 437 N 44.343 -0.763751 1.37857 0
M  V30 438 C 45.759 -1.06542 1.18832 0
M  V30 439 C 45.959 -2.01478 0.0299722 0
M  V30 440 O 45.015 -2.4458 -0.627447 0
M  V30 441 C 46.328 -1.65525 2.51042 0
M  V30 442 C 47.876 -1.77745 2.57635 0
M  V30 443 C 48.351 -2.4014 3.89996 0
M  V30 444 N 49.842 -2.47582 3.91481 0
M  V30 445 C 50.577 -2.96732 4.9065 0
M  V30 446 N 50.073 -3.45993 6.00217 0
M  V30 447 N 51.866 -2.95679 4.78048 0
M  V30 448 H 44.017 -0.133556 2.1198 0
M  V30 449 H 46.28 -0.121879 0.940133 0
M  V30 450 H 45.986 -1.03236 3.36207 0
M  V30 451 H 45.86 -2.64719 2.68707 0
M  V30 452 H 48.247 -2.39164 1.72872 0
M  V30 453 H 48.328 -0.772836 2.43846 0
M  V30 454 H 47.972 -1.79358 4.75177 0
M  V30 455 H 47.902 -3.41223 4.01092 0
M  V30 456 H 50.393 -2.1273 3.12337 0
M  V30 457 H 50.706 -3.81922 6.7183 0
M  V30 458 H 49.051 -3.44077 6.03851 0
M  V30 459 H 52.242 -2.56499 3.91568 0
M  V30 460 H 52.415 -3.33672 5.55488 0
M  V30 461 N 45.8211 -1.22559 -0.990812 0
M  V30 462 C 47.0461 -1.07862 -1.77145 0
M  V30 463 C 47.4711 0.366447 -1.84496 0
M  V30 464 O 46.8291 1.26478 -1.29896 0
M  V30 465 C 46.8771 -1.69686 -3.18181 0
M  V30 466 O 45.9811 -0.951946 -4.01263 0
M  V30 467 H 45.3221 -0.378712 -0.545411 0
M  V30 468 H 47.8521 -1.62399 -1.2445 0
M  V30 469 H 47.8621 -1.74496 -3.68802 0
M  V30 470 H 46.5371 -2.74841 -3.12146 0
M  V30 471 H 45.1141 -0.980011 -3.59792 0
M  V30 472 N 47.2992 1.18797 -1.03562 0
M  V30 473 C 48.5242 1.9314 -0.755764 0
M  V30 474 C 48.9492 1.7537 0.68022 0
M  V30 475 O 48.3072 1.06046 1.47051 0
M  V30 476 C 48.3552 3.42747 -1.12058 0
M  V30 477 O 47.4592 4.11683 -0.243124 0
M  V30 478 H 46.8002 0.602724 -0.278604 0
M  V30 479 H 49.3302 1.50678 -1.3841 0
M  V30 480 H 49.3402 3.93437 -1.08035 0
M  V30 481 H 48.0152 3.55002 -2.16672 0
M  V30 482 H 46.5922 3.71323 -0.342539 0
M  V30 483 N 48.7773 0.814389 1.34928 0
M  V30 484 C 49.7403 0.235759 2.27984 0
M  V30 485 C 50.7403 -0.581412 1.49921 0
M  V30 486 O 51.9303 -0.398758 1.69575 0
M  V30 487 C 49.0623 -0.670433 3.34242 0
M  V30 488 H 50.2553 1.05659 2.80671 0
M  V30 489 H 47.8083 0.585614 1.44915 0
M  V30 490 H 48.5433 -1.51466 2.86755 0
M  V30 491 H 48.3283 -0.0860822 3.92005 0
M  V30 492 H 49.8183 -1.06935 4.03676 0
M  V30 493 N 50.2554 -1.46986 0.568584 0
M  V30 494 C 51.2184 -2.28624 -0.162366 0
M  V30 495 C 52.2184 -1.37596 -0.832103 0
M  V30 496 O 53.4084 -1.60115 -0.68622 0
M  V30 497 C 50.5404 -3.17596 -1.23878 0
M  V30 498 H 51.7334 -2.94722 0.554899 0
M  V30 499 H 49.2864 -1.52863 0.325976 0
M  V30 500 H 50.0214 -2.56214 -1.98808 0
M  V30 501 H 49.8064 -3.846 -0.763219 0
M  V30 502 H 51.2964 -3.79078 -1.75185 0
M  V30 503 N 51.7335 -0.305618 -1.54608 0
M  V30 504 C 52.6965 0.555591 -2.22364 0
M  V30 505 C 53.6965 1.05768 -1.21119 0
M  V30 506 O 54.8865 0.952972 -1.45822 0
M  V30 507 C 52.0185 1.76974 -2.91364 0
M  V30 508 H 53.2115 -0.0364572 -2.99878 0
M  V30 509 H 50.7645 -0.0565007 -1.56198 0
M  V30 510 H 51.4995 2.40151 -2.17941 0
M  V30 511 H 51.2845 1.41732 -3.65588 0
M  V30 512 H 52.7745 2.38148 -3.43038 0
M  V30 513 N 53.2116 1.57565 -0.0334293 0
M  V30 514 C 54.1746 2.09393 0.932048 0
M  V30 515 C 55.1746 1.00986 1.25134 0
M  V30 516 O 56.3646 1.27129 1.19096 0
M  V30 517 C 53.4966 2.56338 2.2473 0
M  V30 518 H 54.6896 2.95984 0.483085 0
M  V30 519 H 52.2426 1.54819 0.21468 0
M  V30 520 H 52.9776 1.7309 2.74245 0
M  V30 521 H 52.7626 3.35542 2.02865 0
M  V30 522 H 54.2526 2.96646 2.93923 0
M  V30 523 N 54.6897 -0.239769 1.55765 0
M  V30 524 C 55.6527 -1.28038 1.90103 0
M  V30 525 C 56.6527 -1.40723 0.778055 0
M  V30 526 O 57.8427 -1.39301 1.04599 0
M  V30 527 C 54.9747 -2.65702 2.13577 0
M  V30 528 H 56.1677 -0.988048 2.83157 0
M  V30 529 H 53.7207 -0.479382 1.48767 0
M  V30 530 H 54.4557 -3.00063 1.23015 0
M  V30 531 H 54.2407 -2.57875 2.95369 0
M  V30 532 H 55.7307 -3.40828 2.41301 0
M  V30 533 N 56.1678 -1.49265 -0.50573 0
M  V30 534 C 57.1308 -1.65075 -1.59006 0
M  V30 535 C 58.1308 -0.522768 -1.52065 0
M  V30 536 O 59.3208 -0.789117 -1.55302 0
M  V30 537 C 56.4528 -1.64369 -2.98656 0
M  V30 538 H 57.6458 -2.61784 -1.46319 0
M  V30 539 H 55.1988 -1.38226 -0.729616 0
M  V30 540 H 55.9338 -0.692272 -3.16825 0
M  V30 541 H 55.7188 -2.46282 -3.05103 0
M  V30 542 H 57.2088 -1.78674 -3.77446 0
M  V30 543 N 57.6459 0.756429 -1.3826 0
M  V30 544 C 58.6089 1.85176 -1.35065 0
M  V30 545 C 59.6089 1.58818 -0.251703 0
M  V30 546 O 60.7989 1.66615 -0.508433 0
M  V30 547 C 57.9309 3.22596 -1.10201 0
M  V30 548 H 59.1239 1.89417 -2.3251 0
M  V30 549 H 56.6769 0.95783 -1.23512 0
M  V30 550 H 57.4119 3.24025 -0.133504 0
M  V30 551 H 57.1969 3.43122 -1.89762 0
M  V30 552 H 58.6869 4.02673 -1.10654 0
M  V30 553 N 59.124 1.23083 0.984299 0
M  V30 554 C 60.087 1.00979 2.05757 0
M  V30 555 C 61.087 -0.0269573 1.60777 0
M  V30 556 O 62.277 0.212403 1.729 0
M  V30 557 C 59.409 0.527072 3.36801 0
M  V30 558 H 60.602 1.9622 2.26799 0
M  V30 559 H 58.155 1.05072 1.15714 0
M  V30 560 H 58.89 -0.429294 3.21446 0
M  V30 561 H 58.675 1.27515 3.70786 0
M  V30 562 H 60.165 0.392942 4.15747 0
M  V30 563 N 60.6021 -1.18246 1.0419 0
M  V30 564 C 61.5651 -2.20128 0.638452 0
M  V30 565 C 62.5651 -1.57885 -0.304805 0
M  V30 566 O 63.7551 -1.73967 -0.0900369 0
M  V30 567 C 60.8871 -3.4084 -0.0637751 0
M  V30 568 H 62.0801 -2.57336 1.54007 0
M  V30 569 H 59.6331 -1.32152 0.834598 0
M  V30 570 H 60.3681 -3.09166 -0.979136 0
M  V30 571 H 60.1531 -3.8726 0.614198 0
M  V30 572 H 61.6431 -4.16274 -0.332512 0
M  V30 573 N 62.0802 -0.821533 -1.34494 0
M  V30 574 C 63.3282 -0.408139 -1.97936 0
M  V30 575 C 63.6492 1.03193 -1.65457 0
M  V30 576 O 62.9192 1.71622 -0.944595 0
M  V30 577 H 61.4992 -0.147928 -0.732206 0
M  V30 578 H 64.1612 -1.05067 -1.64155 0
M  V30 579 H 63.2572 -0.52601 -3.07635 0
M  V30 580 N 63.5583 1.46682 -0.576371 0
M  V30 581 C 64.4903 2.28341 0.198231 0
M  V30 582 C 65.5033 1.38141 0.861453 0
M  V30 583 O 66.6923 1.62797 0.732082 0
M  V30 584 C 63.7923 3.12986 1.29972 0
M  V30 585 C 62.9653 4.31271 0.729639 0
M  V30 586 C 62.0243 4.97363 1.71803 0
M  V30 587 O 61.0503 5.55156 1.25658 0
M  V30 588 N 62.2523 4.93796 3.05198 0
M  V30 589 H 65.0173 2.9546 -0.502324 0
M  V30 590 H 62.5783 1.56525 -0.413715 0
M  V30 591 H 64.5703 3.54066 1.96008 0
M  V30 592 H 63.1403 2.47984 1.90323 0
M  V30 593 H 62.3603 3.94052 -0.108012 0
M  V30 594 H 63.6483 5.07739 0.328438 0
M  V30 595 H 63.0463 4.48077 3.45317 0
M  V30 596 H 61.6033 5.38837 3.6674 0
M  V30 597 N 65.0364 0.313813 1.54444 0
M  V30 598 C 66.2854 -0.292519 1.99568 0
M  V30 599 C 66.5984 -1.54011 1.20582 0
M  V30 600 O 67.8044 -2.22183 1.56035 0
M  V30 601 C 66.2604 -0.571752 3.55329 0
M  V30 602 C 65.8684 0.658229 4.43138 0
M  V30 603 C 67.6124 -1.13857 4.08946 0
M  V30 604 C 65.5194 0.351439 5.90355 0
M  V30 605 H 64.4494 -0.113079 0.745472 0
M  V30 606 H 67.1004 0.424518 1.78522 0
M  V30 607 H 65.4824 -1.34872 3.72325 0
M  V30 608 H 66.6564 1.43403 4.37918 0
M  V30 609 H 64.9714 1.14458 4.0036 0
M  V30 610 H 67.5684 -1.38257 5.16516 0
M  V30 611 H 67.9114 -2.08489 3.6033 0
M  V30 612 H 68.4444 -0.423015 3.95544 0
M  V30 613 H 65.1834 1.26667 6.43145 0
M  V30 614 H 64.7034 -0.386842 5.98551 0
M  V30 615 H 66.3824 -0.0423134 6.46986 0
M  V30 616 N 66.5145 -1.57545 0.0417849 0
M  V30 617 C 67.4645 -2.07483 -0.945247 0
M  V30 618 C 68.4485 -0.977983 -1.27767 0
M  V30 619 O 69.6405 -1.24142 -1.26166 0
M  V30 620 C 66.7695 -2.61576 -2.22335 0
M  V30 621 C 65.8555 -3.78213 -1.91874 0
M  V30 622 N 66.2465 -4.88344 -1.31733 0
M  V30 623 C 64.5445 -3.8694 -2.21796 0
M  V30 624 C 65.2455 -5.69462 -1.1869 0
M  V30 625 N 64.2215 -5.16771 -1.68666 0
M  V30 626 H 68.0235 -2.90029 -0.475441 0
M  V30 627 H 65.5375 -1.61581 -0.162911 0
M  V30 628 H 67.5345 -2.95651 -2.93932 0
M  V30 629 H 66.1945 -1.80465 -2.69931 0
M  V30 630 H 67.2055 -5.08335 -0.990729 0
M  V30 631 H 63.8825 -3.16757 -2.71977 0
M  V30 632 H 65.2725 -6.68023 -0.720793 0
M  V30 633 N 67.9926 0.231505 -1.5589 0
M  V30 634 C 68.9426 1.29007 -1.87993 0
M  V30 635 C 69.9266 1.42764 -0.742102 0
M  V30 636 O 71.1186 1.45747 -1.00433 0
M  V30 637 C 68.2476 2.6425 -2.1915 0
M  V30 638 C 67.3336 2.54435 -3.39299 0
M  V30 639 N 67.7246 2.14262 -4.58176 0
M  V30 640 C 66.0226 2.85416 -3.42715 0
M  V30 641 C 66.7236 2.15455 -5.40328 0
M  V30 642 N 65.6996 2.55558 -4.79783 0
M  V30 643 H 69.5016 0.970213 -2.77424 0
M  V30 644 H 67.0156 0.440097 -1.56323 0
M  V30 645 H 69.0126 3.40665 -2.40319 0
M  V30 646 H 67.6726 2.9709 -1.31025 0
M  V30 647 H 68.6836 1.85554 -4.83518 0
M  V30 648 H 65.3606 3.22693 -2.64906 0
M  V30 649 H 66.7506 1.86605 -6.45467 0
M  V30 650 N 69.4707 1.49531 0.497807 0
M  V30 651 C 70.7167 1.59415 1.25358 0
M  V30 652 C 71.0497 0.281422 1.9215 0
M  V30 653 O 70.3247 -0.715249 1.80871 0
M  V30 654 C 70.6077 2.75566 2.3181 0
M  V30 655 C 70.4607 4.16642 1.69498 0
M  V30 656 C 71.7797 2.87347 3.33346 0
M  V30 657 H 68.8987 0.580244 0.454408 0
M  V30 658 H 71.5407 1.81827 0.551262 0
M  V30 659 H 69.6907 2.56587 2.91711 0
M  V30 660 H 71.3627 4.47145 1.13399 0
M  V30 661 H 69.6057 4.22141 0.998978 0
M  V30 662 H 70.2767 4.93792 2.46725 0
M  V30 663 H 72.7527 3.04634 2.83438 0
M  V30 664 H 71.6287 3.70289 4.05188 0
M  V30 665 H 71.8897 1.96834 3.95865 0
M  V30 666 N 70.9488 -0.749086 1.3866 0
M  V30 667 C 72.1768 -1.53834 1.38358 0
M  V30 668 C 72.5918 -1.88783 -0.0255219 0
M  V30 669 O 71.9488 -1.53101 -0.993292 0
M  V30 670 C 71.9998 -2.83468 2.2434 0
M  V30 671 O 71.7208 -2.50008 3.5976 0
M  V30 672 C 73.2218 -3.7758 2.32267 0
M  V30 673 H 70.4418 -0.47585 0.473083 0
M  V30 674 H 72.9858 -0.926726 1.82297 0
M  V30 675 H 71.1408 -3.40995 1.83851 0
M  V30 676 H 71.5548 -3.33182 4.05081 0
M  V30 677 H 73.0288 -4.65478 2.96706 0
M  V30 678 H 73.5058 -4.18334 1.33765 0
M  V30 679 H 74.1118 -3.25976 2.73166 0
M  V30 680 N 72.4269 -1.23603 -0.977757 0
M  V30 681 C 73.3589 -0.977369 -2.07317 0
M  V30 682 C 74.3719 0.0495845 -1.62724 0
M  V30 683 O 75.5609 -0.186261 -1.77526 0
M  V30 684 C 72.6609 -0.451216 -3.35883 0
M  V30 685 C 71.8339 -1.53896 -4.09432 0
M  V30 686 C 70.8929 -1.01721 -5.16274 0
M  V30 687 O 69.9189 -1.70676 -5.43009 0
M  V30 688 N 71.1209 0.153594 -5.80297 0
M  V30 689 H 73.8859 -1.92047 -2.30082 0
M  V30 690 H 71.4469 -1.14497 -1.14465 0
M  V30 691 H 73.4389 -0.0871574 -4.04606 0
M  V30 692 H 72.0089 0.397368 -3.10064 0
M  V30 693 H 71.2289 -2.07566 -3.35127 0
M  V30 694 H 72.5169 -2.27037 -4.55337 0
M  V30 695 H 71.9149 0.730323 -5.60966 0
M  V30 696 H 70.4719 0.458892 -6.50183 0
M  V30 697 N 73.905 1.17692 -1.04816 0
M  V30 698 C 74.853 2.23632 -0.63966 0
M  V30 699 C 75.847 1.6601 0.337219 0
M  V30 700 O 77.053 1.78844 0.203693 0
M  V30 701 H 73.428 0.727949 -0.188665 0
M  V30 702 H 75.399 2.55387 -1.54337 0
M  V30 703 C 74.148 3.4769 -0.0264051 0
M  V30 704 H 73.471 3.92331 -0.769164 0
M  V30 705 H 74.911 4.23418 0.222098 0
M  V30 706 C 73.37 3.13807 1.22584 0
M  V30 707 O 73.9 3.28236 2.31569 0
M  V30 708 N 72.106 2.68065 1.12202 0
M  V30 709 H 71.653 2.56525 0.235133 0
M  V30 710 H 71.611 2.45767 1.96076 0
M  V30 711 N 75.3831 0.828654 1.34056 0
M  V30 712 C 76.6311 0.41863 1.97717 0
M  V30 713 C 76.9521 -1.02314 1.66002 0
M  V30 714 O 76.2221 -1.71119 0.953683 0
M  V30 715 H 74.8021 0.151809 0.731412 0
M  V30 716 H 77.4641 1.05936 1.63596 0
M  V30 717 H 76.5601 0.542318 3.07352 0
M  V30 718 N 76.8612 -1.46375 0.584142 0
M  V30 719 C 78.1092 -2.01978 0.0701287 0
M  V30 720 C 78.4302 -1.4579 -1.295 0
M  V30 721 O 77.7002 -0.64314 -1.85042 0
M  V30 722 H 76.2802 -0.746648 0.0229345 0
M  V30 723 H 78.9422 -1.79461 0.760245 0
M  V30 724 H 78.0382 -3.121 0.0022064 0
M  V30 725 N 78.3393 -0.321999 -1.54275 0
M  V30 726 C 79.2693 0.537411 -2.27231 0
M  V30 727 C 80.2503 1.12064 -1.27968 0
M  V30 728 O 81.4353 1.14606 -1.56777 0
M  V30 729 C 78.5653 1.69919 -3.02894 0
M  V30 730 C 77.5193 1.24534 -4.09482 0
M  V30 731 C 76.8453 2.49394 -4.72977 0
M  V30 732 C 78.1453 0.361335 -5.21049 0
M  V30 733 H 79.8393 -0.0711406 -2.99315 0
M  V30 734 H 77.3853 -0.0356555 -1.43956 0
M  V30 735 H 79.3383 2.30668 -3.52662 0
M  V30 736 H 78.0623 2.33431 -2.28424 0
M  V30 737 H 76.7213 0.660782 -3.60596 0
M  V30 738 H 76.3693 3.11265 -3.95124 0
M  V30 739 H 76.0693 2.19718 -5.44975 0
M  V30 740 H 77.5933 3.10908 -5.25517 0
M  V30 741 H 79.0073 0.875072 -5.66582 0
M  V30 742 H 77.4043 0.157428 -5.99893 0
M  V30 743 H 78.4743 -0.60822 -4.8107 0
M  V30 744 N 79.8174 1.5752 -0.0501392 0
M  V30 745 C 81.0474 1.96678 0.632573 0
M  V30 746 C 81.4554 0.926298 1.64974 0
M  V30 747 O 80.7984 -0.09802 1.83438 0
M  V30 748 C 80.8604 3.32068 1.37735 0
M  V30 749 C 80.5244 4.54076 0.516131 0
M  V30 750 C 81.5214 5.19445 -0.217357 0
M  V30 751 C 79.2064 5.00304 0.44736 0
M  V30 752 C 81.2004 6.29378 -1.00807 0
M  V30 753 C 78.8874 6.10114 -0.347038 0
M  V30 754 C 79.8854 6.74512 -1.07344 0
M  V30 755 O 79.5734 7.82211 -1.85477 0
M  V30 756 H 79.3054 0.652193 0.177821 0
M  V30 757 H 81.8594 2.05091 -0.112543 0
M  V30 758 H 80.0894 3.20206 2.16807 0
M  V30 759 H 81.7784 3.55981 1.95019 0
M  V30 760 H 82.5444 4.84689 -0.173688 0
M  V30 761 H 78.4234 4.49971 1.00235 0
M  V30 762 H 81.9674 6.79575 -1.57556 0
M  V30 763 H 77.8644 6.44307 -0.392349 0
M  V30 764 H 78.6324 7.98982 -1.77678 0
M  V30 765 N 81.2955 -0.223234 1.56011 0
M  V30 766 C 82.2425 -1.27664 1.92277 0
M  V30 767 C 83.2125 -1.46659 0.779763 0
M  V30 768 O 84.3975 -1.60256 1.03551 0
M  V30 769 C 81.5375 -2.62234 2.24338 0
M  V30 770 C 80.6505 -2.51051 3.51564 0
M  V30 771 C 79.7855 -3.78133 3.7308 0
M  V30 772 C 78.8245 -3.61665 4.93827 0
M  V30 773 N 77.9615 -4.80693 5.11741 0
M  V30 774 H 82.8015 -0.960358 2.82101 0
M  V30 775 H 80.3385 -0.462901 1.39627 0
M  V30 776 H 82.2965 -3.40596 2.40936 0
M  V30 777 H 80.9265 -2.91961 1.3769 0
M  V30 778 H 79.9785 -1.64132 3.43169 0
M  V30 779 H 81.2905 -2.34803 4.40079 0
M  V30 780 H 80.4445 -4.64938 3.89766 0
M  V30 781 H 79.1835 -3.97304 2.82844 0
M  V30 782 H 78.1885 -2.73244 4.77093 0
M  V30 783 H 79.4135 -3.43966 5.85546 0
M  V30 784 H 77.3595 -5.00181 4.24446 0
M  V30 785 H 77.2765 -4.67165 5.94384 0
M  V30 786 H 78.5445 -5.6893 5.3286 0
M  V30 787 N 82.7736 -1.49793 -0.48987 0
M  V30 788 C 84.1896 -1.36803 -0.822022 0
M  V30 789 C 84.3896 -0.409652 -1.97292 0
M  V30 790 O 83.4456 0.154614 -2.52026 0
M  V30 791 C 84.7586 -2.77768 -1.15175 0
M  V30 792 C 86.3066 -2.86549 -1.25931 0
M  V30 793 C 86.7816 -4.28306 -1.62228 0
M  V30 794 N 88.2726 -4.31169 -1.69256 0
M  V30 795 C 89.0076 -5.37832 -1.98807 0
M  V30 796 N 88.5036 -6.54726 -2.26507 0
M  V30 797 N 90.2966 -5.25258 -2.00152 0
M  V30 798 H 82.4476 -2.10691 0.268881 0
M  V30 799 H 84.7106 -0.946241 0.057728 0
M  V30 800 H 84.4166 -3.49648 -0.379335 0
M  V30 801 H 84.2906 -3.13836 -2.09253 0
M  V30 802 H 86.6776 -2.14899 -2.02243 0
M  V30 803 H 86.7586 -2.54049 -0.298776 0
M  V30 804 H 86.4026 -5.00486 -0.864622 0
M  V30 805 H 86.3326 -4.58279 -2.594 0
M  V30 806 H 88.8236 -3.4687 -1.49965 0
M  V30 807 H 89.1366 -7.31833 -2.48276 0
M  V30 808 H 87.4816 -6.57933 -2.23939 0
M  V30 809 H 90.6726 -4.32938 -1.77996 0
M  V30 810 H 90.8456 -6.08476 -2.22848 0
M  V30 811 N 84.2517 0.741722 -1.39055 0
M  V30 812 C 85.6627 1.31966 -1.32068 0
M  V30 813 C 86.0137 1.96192 0.0180797 0
M  V30 814 O 85.1387 1.95861 0.920196 0
M  V30 815 C 85.7337 2.39954 -2.39181 0
M  V30 816 C 84.2927 2.93438 -2.35735 0
M  V30 817 C 83.4397 1.66936 -2.21422 0
M  V30 818 H 86.3907 0.539721 -1.4924 0
M  V30 819 H 86.4117 3.20182 -2.05581 0
M  V30 820 H 85.9237 1.9318 -3.36605 0
M  V30 821 H 84.0247 3.4451 -1.41929 0
M  V30 822 H 84.1377 3.4701 -3.30335 0
M  V30 823 H 82.5017 1.91016 -1.68478 0
M  V30 824 H 83.2847 1.22224 -3.20806 0
M  V30 825 N 85.7298 1.2412 0.971189 0
M  V30 826 C 86.9768 1.07881 1.71371 0
M  V30 827 C 87.3048 -0.382901 1.90694 0
M  V30 828 O 86.5598 -1.29945 1.46331 0
M  V30 829 C 86.8588 1.75983 3.11071 0
M  V30 830 C 86.5248 3.25909 3.11599 0
M  V30 831 C 85.1868 3.66813 3.11451 0
M  V30 832 C 87.5388 4.21771 3.062 0
M  V30 833 C 84.8668 5.02021 3.03631 0
M  V30 834 C 87.2188 5.56982 2.99923 0
M  V30 835 C 85.8828 5.97237 2.98102 0
M  V30 836 H 85.1528 0.394764 0.62709 0
M  V30 837 H 87.7998 1.54176 1.13587 0
M  V30 838 H 86.1048 1.22072 3.72298 0
M  V30 839 H 87.8018 1.60887 3.6731 0
M  V30 840 H 84.3918 2.93353 3.12477 0
M  V30 841 H 88.5758 3.91172 3.05447 0
M  V30 842 H 83.8318 5.32411 3.0058 0
M  V30 843 H 88.0058 6.30969 2.94704 0
M  V30 844 H 85.6328 7.01967 2.91798 0
M  V30 845 N 87.2079 -1.17134 1.05439 0
M  V30 846 C 88.1559 -2.23289 0.651511 0
M  V30 847 C 89.1499 -1.66186 -0.328411 0
M  V30 848 O 90.3559 -1.78949 -0.194206 0
M  V30 849 H 86.7309 -0.726938 0.192523 0
M  V30 850 H 88.7019 -2.54565 1.55689 0
M  V30 851 C 87.4509 -3.47671 0.0448436 0
M  V30 852 H 86.7739 -3.91918 0.78996 0
M  V30 853 H 88.2139 -4.2353 -0.19964 0
M  V30 854 C 86.6729 -3.14453 -1.20918 0
M  V30 855 O 87.2029 -3.29459 -2.29825 0
M  V30 856 N 85.4089 -2.68657 -1.10779 0
M  V30 857 H 84.9559 -2.56646 -0.221526 0
M  V30 858 H 84.9139 -2.46804 -1.9477 0
M  V30 859 N 88.686 -0.835752 -1.33615 0
M  V30 860 C 89.596 -0.269088 -2.33052 0
M  V30 861 C 90.612 0.603251 -1.63208 0
M  V30 862 O 91.788 0.508112 -1.94885 0
M  V30 863 C 88.853 0.549091 -3.42324 0
M  V30 864 C 87.914 -0.347156 -4.27894 0
M  V30 865 C 87.147 0.43207 -5.31948 0
M  V30 866 O 87.37 1.66409 -5.45586 0
M  V30 867 O 86.304 -0.192298 -6.01593 0
M  V30 868 H 90.13 -1.09243 -2.83372 0
M  V30 869 H 87.715 -0.598198 -1.36901 0
M  V30 870 H 89.597 1.01414 -4.09015 0
M  V30 871 H 88.272 1.34955 -2.94226 0
M  V30 872 H 87.179 -0.859979 -3.64081 0
M  V30 873 H 88.512 -1.1123 -4.79467 0
M  V30 874 N 90.1641 1.46063 -0.591896 0
M  V30 875 C 91.1271 2.28854 0.125973 0
M  V30 876 C 92.1271 1.38903 0.810107 0
M  V30 877 O 93.3171 1.61186 0.66066 0
M  V30 878 C 90.4491 3.19526 1.1881 0
M  V30 879 H 91.6421 2.93802 -0.601717 0
M  V30 880 H 89.1951 1.52325 -0.350254 0
M  V30 881 H 89.9301 2.59345 1.94707 0
M  V30 882 H 89.7151 3.85766 0.701936 0
M  V30 883 H 91.2051 3.81817 1.69132 0
M  V30 884 N 91.6422 0.330177 1.54103 0
M  V30 885 C 92.8892 -0.270405 2.00686 0
M  V30 886 C 93.2172 -1.51621 1.21825 0
M  V30 887 O 92.4722 -1.93536 0.29025 0
M  V30 888 C 92.7712 -0.643134 3.51566 0
M  V30 889 C 92.4372 0.504251 4.48072 0
M  V30 890 C 91.0992 0.819163 4.74176 0
M  V30 891 C 93.4512 1.27465 5.05373 0
M  V30 892 C 90.7792 1.90708 5.5484 0
M  V30 893 C 93.1312 2.35271 5.87223 0
M  V30 894 C 91.7952 2.67336 6.11627 0
M  V30 895 H 91.0652 -0.0989482 0.734364 0
M  V30 896 H 93.7122 0.455324 1.86008 0
M  V30 897 H 92.0172 -1.44938 3.64006 0
M  V30 898 H 93.7142 -1.11949 3.85056 0
M  V30 899 H 90.3042 0.248733 4.27878 0
M  V30 900 H 94.4882 1.04462 4.85182 0
M  V30 901 H 89.7442 2.15991 5.71977 0
M  V30 902 H 93.9182 2.95405 6.30641 0
M  V30 903 H 91.5452 3.51763 6.73919 0
M  V30 904 N 93.1203 -1.57491 0.0584922 0
M  V30 905 C 94.0303 -2.15448 -0.928414 0
M  V30 906 C 95.0463 -1.11416 -1.3365 0
M  V30 907 O 96.2223 -1.4362 -1.41193 0
M  V30 908 C 93.2873 -2.69393 -2.18239 0
M  V30 909 C 92.3483 -3.88249 -1.83196 0
M  V30 910 C 91.5813 -4.39613 -3.02616 0
M  V30 911 O 91.8043 -3.90023 -4.16219 0
M  V30 912 O 90.7383 -5.31111 -2.83204 0
M  V30 913 H 94.5643 -3.00112 -0.465483 0
M  V30 914 H 92.1493 -1.48499 -0.163826 0
M  V30 915 H 94.0313 -3.04026 -2.91798 0
M  V30 916 H 92.7063 -1.87796 -2.63656 0
M  V30 917 H 91.6133 -3.58492 -1.06931 0
M  V30 918 H 92.9463 -4.71098 -1.42573 0
M  V30 919 N 94.5984 0.214957 -1.56127 0
M  V30 920 C 95.5084 1.28727 -1.96129 0
M  V30 921 C 96.5244 1.50916 -0.866044 0
M  V30 922 O 97.7004 1.63918 -1.17016 0
M  V30 923 C 94.7654 2.61569 -2.27558 0
M  V30 924 C 93.8264 2.47625 -3.50685 0
M  V30 925 C 93.0594 3.74132 -3.80606 0
M  V30 926 O 93.2824 4.77438 -3.12104 0
M  V30 927 O 92.2164 3.70849 -4.74083 0
M  V30 928 H 96.0424 0.977855 -2.87527 0
M  V30 929 H 93.6274 0.418358 -1.43423 0
M  V30 930 H 95.5094 3.40012 -2.48938 0
M  V30 931 H 94.1844 2.92178 -1.39332 0
M  V30 932 H 93.0914 1.67361 -3.34576 0
M  V30 933 H 94.4244 2.21954 -4.39315 0
M  V30 934 N 96.0765 1.50051 0.48192 0
M  V30 935 C 97.3045 1.64237 1.25832 0
M  V30 936 C 97.7195 0.321336 1.86045 0
M  V30 937 O 97.0765 -0.695478 1.68729 0
M  V30 938 C 97.1275 2.72548 2.37487 0
M  V30 939 O 96.8485 3.99529 1.79745 0
M  V30 940 C 98.3495 2.9761 3.28547 0
M  V30 941 H 95.5695 0.55237 0.380957 0
M  V30 942 H 98.1135 1.96207 0.576467 0
M  V30 943 H 96.2685 2.43303 3.01467 0
M  V30 944 H 96.6825 4.59342 2.5319 0
M  V30 945 H 98.1565 3.77084 4.03127 0
M  V30 946 H 98.6335 2.0826 3.86684 0
M  V30 947 H 99.2395 3.28345 2.70314 0
M  V30 948 N 97.5546 -0.734337 1.39446 0
M  V30 949 C 98.9656 -1.31264 1.32766 0
M  V30 950 C 99.3166 -1.96198 -0.00767497 0
M  V30 951 O 98.4416 -1.96346 -0.909796 0
M  V30 952 C 99.0366 -2.38682 2.4045 0
M  V30 953 C 97.5956 -2.92184 2.37288 0
M  V30 954 C 96.7426 -1.6576 2.22304 0
M  V30 955 H 99.6936 -0.531799 1.49525 0
M  V30 956 H 99.7146 -3.19087 2.07276 0
M  V30 957 H 99.2266 -1.91392 3.37625 0
M  V30 958 H 97.3276 -3.43752 1.43754 0
M  V30 959 H 97.4406 -3.45253 3.3217 0
M  V30 960 H 95.8046 -1.9012 1.69489 0
M  V30 961 H 96.5876 -1.20521 3.21449 0
M  V30 962 N 99.0327 -1.24633 -0.964593 0
M  V30 963 C 99.9657 -0.984662 -2.05863 0
M  V30 964 C 100.944 0.0826554 -1.6239 0
M  V30 965 O 102.128 -0.0549296 -1.8842 0
M  V30 966 C 99.2547 -0.486529 -3.35187 0
M  V30 967 C 98.3007 -1.54286 -3.97615 0
M  V30 968 S 99.1337 -3.12513 -4.34851 0
M  V30 969 C 100.29 -2.6441 -5.67308 0
M  V30 970 H 100.523 -1.91104 -2.27743 0
M  V30 971 H 98.0557 -1.08052 -1.10291 0
M  V30 972 H 100.014 -0.205757 -4.09984 0
M  V30 973 H 98.6747 0.419186 -3.1129 0
M  V30 974 H 97.8677 -1.14481 -4.90826 0
M  V30 975 H 97.4697 -1.7738 -3.2926 0
M  V30 976 H 99.7617 -2.07416 -6.44969 0
M  V30 977 H 100.705 -3.56222 -6.11973 0
M  V30 978 H 101.113 -2.04734 -5.26065 0
M  V30 979 N 100.511 1.16574 -1.06058 0
M  V30 980 C 101.441 2.23057 -0.690488 0
M  V30 981 C 102.422 1.67141 0.315901 0
M  V30 982 O 103.607 1.93253 0.191556 0
M  V30 983 C 100.737 3.47222 -0.073625 0
M  V30 984 C 99.6908 4.16016 -1.00573 0
M  V30 985 C 99.0168 5.34104 -0.252289 0
M  V30 986 C 100.317 4.67264 -2.33371 0
M  V30 987 H 102.011 2.54271 -1.58072 0
M  V30 988 H 99.5568 1.22218 -0.76149 0
M  V30 989 H 101.51 4.20939 0.19714 0
M  V30 990 H 100.234 3.15302 0.85161 0
M  V30 991 H 98.8928 3.44223 -1.2612 0
M  V30 992 H 98.5408 4.98437 0.675988 0
M  V30 993 H 98.2408 5.81072 -0.873455 0
M  V30 994 H 99.7648 6.10599 0.0109857 0
M  V30 995 H 101.179 5.32573 -2.12223 0
M  V30 996 H 99.5758 5.24843 -2.90963 0
M  V30 997 H 100.646 3.83602 -2.96611 0
M  V30 998 N 101.989 0.842826 1.3317 0
M  V30 999 C 103.235 0.441099 1.97945 0
M  V30 1000 C 103.568 -0.998024 1.66593 0
M  V30 1001 O 102.843 -1.69839 0.947898 0
M  V30 1002 C 103.126 0.666841 3.53872 0
M  V30 1003 C 102.979 2.15352 3.94897 0
M  V30 1004 C 104.298 0.115544 4.39948 0
M  V30 1005 H 101.417 0.161739 0.719034 0
M  V30 1006 H 104.059 1.05907 1.57746 0
M  V30 1007 H 102.209 0.140828 3.88245 0
M  V30 1008 H 103.881 2.7447 3.70761 0
M  V30 1009 H 102.124 2.63653 3.44484 0
M  V30 1010 H 102.795 2.26221 5.03516 0
M  V30 1011 H 105.271 0.565213 4.12243 0
M  V30 1012 H 104.147 0.303152 5.48062 0
M  V30 1013 H 104.408 -0.980935 4.3108 0
M  V30 1014 N 103.467 -1.45747 0.599634 0
M  V30 1015 C 104.43 -2.28917 -0.113835 0
M  V30 1016 C 105.43 -1.3933 -0.802729 0
M  V30 1017 O 106.62 -1.61534 -0.652103 0
M  V30 1018 C 103.752 -3.20152 -1.17114 0
M  V30 1019 H 104.945 -2.93478 0.617289 0
M  V30 1020 H 102.498 -1.52137 0.358327 0
M  V30 1021 H 103.233 -2.60374 -1.93329 0
M  V30 1022 H 103.018 -3.86133 -0.681468 0
M  V30 1023 H 104.508 -3.82708 -1.67105 0
M  V30 1024 N 104.945 -0.338344 -1.53925 0
M  V30 1025 C 106.191 0.260143 -2.01125 0
M  V30 1026 C 106.524 1.50617 -1.22589 0
M  V30 1027 O 105.799 1.91979 -0.312113 0
M  V30 1028 C 106.082 0.579499 -3.55407 0
M  V30 1029 C 105.935 -0.678264 -4.44657 0
M  V30 1030 C 107.254 1.39122 -4.17532 0
M  V30 1031 H 104.373 0.0930772 -0.731099 0
M  V30 1032 H 107.015 -0.457852 -1.84401 0
M  V30 1033 H 105.165 1.19118 -3.69788 0
M  V30 1034 H 106.837 -1.31631 -4.42121 0
M  V30 1035 H 105.08 -1.3042 -4.13731 0
M  V30 1036 H 105.751 -0.410143 -5.50474 0
M  V30 1037 H 108.227 0.874035 -4.06817 0
M  V30 1038 H 107.103 1.58342 -5.25565 0
M  V30 1039 H 107.364 2.39178 -3.71815 0
M  V30 1040 N 106.423 1.57458 -0.0668435 0
M  V30 1041 C 107.353 2.15468 0.899764 0
M  V30 1042 C 108.334 1.08042 1.31381 0
M  V30 1043 O 109.519 1.36054 1.38574 0
M  V30 1044 C 106.649 2.71232 2.16911 0
M  V30 1045 C 105.603 3.83781 1.89463 0
M  V30 1046 C 104.929 4.26127 3.22986 0
M  V30 1047 C 106.229 5.08238 1.20381 0
M  V30 1048 H 107.923 2.96488 0.416529 0
M  V30 1049 H 105.469 1.4262 0.198908 0
M  V30 1050 H 107.422 3.10458 2.84945 0
M  V30 1051 H 106.146 1.87426 2.67468 0
M  V30 1052 H 104.805 3.45051 1.23836 0
M  V30 1053 H 104.453 3.39249 3.71374 0
M  V30 1054 H 104.153 5.01993 3.05413 0
M  V30 1055 H 105.677 4.67966 3.92225 0
M  V30 1056 H 107.091 5.44811 1.78475 0
M  V30 1057 H 105.488 5.89349 1.13083 0
M  V30 1058 H 106.558 4.84558 0.182153 0
M  V30 1059 N 107.901 -0.206675 1.56239 0
M  V30 1060 C 109.129 -0.945345 1.8404 0
M  V30 1061 C 109.544 -1.77336 0.647885 0
M  V30 1062 O 108.901 -1.78425 -0.383511 0
M  V30 1063 C 108.952 -1.8509 3.10522 0
M  V30 1064 O 108.673 -1.05634 4.25174 0
M  V30 1065 C 110.174 -2.70222 3.51418 0
M  V30 1066 H 107.394 -0.276372 0.61144 0
M  V30 1067 H 109.938 -0.217417 2.03341 0
M  V30 1068 H 108.093 -2.53259 2.93153 0
M  V30 1069 H 108.507 -1.67238 4.97124 0
M  V30 1070 H 109.981 -3.29438 4.42916 0
M  V30 1071 H 110.458 -3.43358 2.73864 0
M  V30 1072 H 111.064 -2.07443 3.71278 0
M  V30 1073 N 109.379 -1.50304 -0.473955 0
M  V30 1074 C 110.609 -1.64663 -1.24778 0
M  V30 1075 C 111.017 -0.328174 -1.86332 0
M  V30 1076 O 110.36 0.699536 -1.69859 0
M  V30 1077 C 110.422 -2.6778 -2.39863 0
M  V30 1078 C 110.086 -4.11413 -1.98969 0
M  V30 1079 C 111.083 -4.97372 -1.51385 0
M  V30 1080 C 108.768 -4.57312 -2.07777 0
M  V30 1081 C 110.762 -6.27277 -1.13148 0
M  V30 1082 C 108.449 -5.87223 -1.69152 0
M  V30 1083 C 109.447 -6.72031 -1.21915 0
M  V30 1084 O 109.135 -7.99518 -0.838237 0
M  V30 1085 H 108.867 -0.556602 -0.383627 0
M  V30 1086 H 111.421 -1.9726 -0.572491 0
M  V30 1087 H 109.651 -2.30419 -3.10554 0
M  V30 1088 H 111.34 -2.71388 -3.01833 0
M  V30 1089 H 112.106 -4.63128 -1.44004 0
M  V30 1090 H 107.985 -3.91449 -2.43493 0
M  V30 1091 H 111.529 -6.93425 -0.762077 0
M  V30 1092 H 107.426 -6.20989 -1.76191 0
M  V30 1093 H 108.194 -8.12764 -0.967339 0
M  V30 1094 N 110.857 0.726932 -1.39834 0
M  V30 1095 C 112.103 1.48884 -1.377 0
M  V30 1096 C 112.436 1.94185 0.0244852 0
M  V30 1097 O 111.711 1.67361 0.990986 0
M  V30 1098 C 111.994 2.72288 -2.3565 0
M  V30 1099 C 111.847 2.32956 -3.84775 0
M  V30 1100 C 113.166 3.74414 -2.31306 0
M  V30 1101 H 110.285 0.540062 -0.5015 0
M  V30 1102 H 112.927 0.830547 -1.70886 0
M  V30 1103 H 111.077 3.28457 -2.07481 0
M  V30 1104 H 112.749 1.82356 -4.23726 0
M  V30 1105 H 110.992 1.65088 -4.01159 0
M  V30 1106 H 111.663 3.21362 -4.4881 0
M  V30 1107 H 114.139 3.27849 -2.56231 0
M  V30 1108 H 113.015 4.58414 -3.01907 0
M  V30 1109 H 113.276 4.21909 -1.32081 0
M  V30 1110 N 112.336 1.25143 0.95797 0
M  V30 1111 C 113.584 1.09476 1.69881 0
M  V30 1112 C 113.905 -0.365502 1.91544 0
M  V30 1113 O 113.175 -1.25985 1.50015 0
M  V30 1114 H 111.755 0.402128 0.629525 0
M  V30 1115 H 114.417 1.57214 1.15194 0
M  V30 1116 H 113.513 1.60046 2.6794 0
M  V30 1117 N 113.814 -1.1601 1.06675 0
M  V30 1118 C 115.044 -1.90251 0.805497 0
M  V30 1119 C 115.452 -1.77891 -0.64431 0
M  V30 1120 O 114.795 -1.12383 -1.45313 0
M  V30 1121 C 114.857 -3.41419 1.12576 0
M  V30 1122 C 114.521 -3.77564 2.57477 0
M  V30 1123 C 115.518 -3.79161 3.55715 0
M  V30 1124 C 113.203 -4.08079 2.92877 0
M  V30 1125 C 115.197 -4.10767 4.8739 0
M  V30 1126 C 112.884 -4.39351 4.24751 0
M  V30 1127 C 113.882 -4.40675 5.21818 0
M  V30 1128 O 113.57 -4.71202 6.51325 0
M  V30 1129 H 113.302 -0.610018 0.291297 0
M  V30 1130 H 115.856 -1.47958 1.4247 0
M  V30 1131 H 114.086 -3.84079 0.449503 0
M  V30 1132 H 115.775 -3.9694 0.84814 0
M  V30 1133 H 116.541 -3.55693 3.29708 0
M  V30 1134 H 112.42 -4.06211 2.17976 0
M  V30 1135 H 115.964 -4.11715 5.63148 0
M  V30 1136 H 111.861 -4.62285 4.50514 0
M  V30 1137 H 112.629 -4.88996 6.56373 0
M  V30 1138 N 115.292 -0.849877 -1.32721 0
M  V30 1139 C 116.54 -0.450032 -1.97026 0
M  V30 1140 C 116.861 0.996604 -1.67609 0
M  V30 1141 O 116.131 1.6958 -0.980786 0
M  V30 1142 H 114.711 -0.163426 -0.728904 0
M  V30 1143 H 117.373 -1.08526 -1.6189 0
M  V30 1144 H 116.469 -0.591146 -3.0645 0
M  V30 1145 N 116.77 1.45427 -0.607355 0
M  V30 1146 C 118.016 2.0254 -0.102607 0
M  V30 1147 C 118.349 1.47478 1.26348 0
M  V30 1148 O 117.624 0.64939 1.83339 0
M  V30 1149 C 117.907 3.60044 -0.0634347 0
M  V30 1150 C 117.76 4.2544 -1.46017 0
M  V30 1151 C 119.079 4.35646 0.624514 0
M  V30 1152 H 116.198 0.73598 -0.0387607 0
M  V30 1153 H 118.84 1.73284 -0.779282 0
M  V30 1154 H 116.99 3.85101 0.512808 0
M  V30 1155 H 118.662 4.11569 -2.08347 0
M  V30 1156 H 116.905 3.83849 -2.02094 0
M  V30 1157 H 117.576 5.34342 -1.385 0
M  V30 1158 H 120.052 4.15882 0.134723 0
M  V30 1159 H 118.928 5.45376 0.621028 0
M  V30 1160 H 119.189 4.08501 1.69055 0
M  V30 1161 N 118.248 0.346503 1.53744 0
M  V30 1162 C 119.178 -0.501193 2.28058 0
M  V30 1163 C 120.159 -1.10014 1.29734 0
M  V30 1164 O 121.344 -1.12097 1.58581 0
M  V30 1165 C 118.474 -1.65078 3.05559 0
M  V30 1166 C 117.428 -1.18003 4.11411 0
M  V30 1167 C 116.754 -2.41837 4.76884 0
M  V30 1168 C 118.054 -0.278394 5.21558 0
M  V30 1169 H 119.748 0.11875 2.99164 0
M  V30 1170 H 117.294 0.0585531 1.43881 0
M  V30 1171 H 119.247 -2.25028 3.56287 0
M  V30 1172 H 117.971 -2.29767 2.32109 0
M  V30 1173 H 116.63 -0.603331 3.61601 0
M  V30 1174 H 116.278 -3.0494 4.00026 0
M  V30 1175 H 115.978 -2.1102 5.48402 0
M  V30 1176 H 117.502 -3.02508 5.30397 0
M  V30 1177 H 118.916 -0.784823 5.67903 0
M  V30 1178 H 117.313 -0.0619707 6.00068 0
M  V30 1179 H 118.383 0.684677 4.80042 0
M  V30 1180 N 119.726 -1.57421 0.075193 0
M  V30 1181 C 120.954 -1.97946 -0.602076 0
M  V30 1182 C 121.369 -0.953674 -1.62943 0
M  V30 1183 O 120.726 0.0592551 -1.82404 0
M  V30 1184 C 120.777 -3.38546 -1.26762 0
M  V30 1185 O 120.498 -4.37195 -0.281376 0
M  V30 1186 C 121.999 -3.93966 -2.03239 0
M  V30 1187 H 119.219 -0.650918 -0.162931 0
M  V30 1188 H 121.763 -2.03959 0.148601 0
M  V30 1189 H 119.918 -3.33609 -1.96936 0
M  V30 1190 H 120.332 -5.18975 -0.759267 0
M  V30 1191 H 121.806 -4.94555 -2.45193 0
M  V30 1192 H 122.283 -3.30693 -2.8903 0
M  V30 1193 H 122.889 -4.02315 -1.37924 0
M  V30 1194 N 121.204 0.198386 -1.56346 0
M  V30 1195 C 122.134 1.24865 -1.9731 0
M  V30 1196 C 123.115 1.47651 -0.844576 0
M  V30 1197 O 124.3 1.59444 -1.10866 0
M  V30 1198 C 121.43 2.59358 -2.30977 0
M  V30 1199 C 120.384 2.5119 -3.46537 0
M  V30 1200 C 119.71 3.89926 -3.65871 0
M  V30 1201 C 121.01 2.03977 -4.80823 0
M  V30 1202 H 122.704 0.908252 -2.85291 0
M  V30 1203 H 120.25 0.435462 -1.37258 0
M  V30 1204 H 122.203 3.33011 -2.58228 0
M  V30 1205 H 120.927 2.95132 -1.39874 0
M  V30 1206 H 119.586 1.79993 -3.19371 0
M  V30 1207 H 119.234 4.23046 -2.72105 0
M  V30 1208 H 118.934 3.85336 -4.4361 0
M  V30 1209 H 120.458 4.65205 -3.95495 0
M  V30 1210 H 121.872 2.67386 -5.07127 0
M  V30 1211 H 120.269 2.10397 -5.62008 0
M  V30 1212 H 121.339 0.992861 -4.74626 0
M  V30 1213 N 122.682 1.50554 0.465978 0
M  V30 1214 C 123.929 1.61798 1.21768 0
M  V30 1215 C 124.257 0.320696 1.91838 0
M  V30 1216 O 123.512 -0.693724 1.82992 0
M  V30 1217 C 123.811 2.75152 2.28093 0
M  V30 1218 C 123.477 4.15454 1.75239 0
M  V30 1219 C 122.139 4.53628 1.60546 0
M  V30 1220 C 124.491 5.03121 1.36083 0
M  V30 1221 C 121.819 5.77204 1.05128 0
M  V30 1222 C 124.171 6.27249 0.821056 0
M  V30 1223 C 122.835 6.64221 0.660795 0
M  V30 1224 H 122.105 0.592063 0.445582 0
M  V30 1225 H 124.752 1.84503 0.512927 0
M  V30 1226 H 123.057 2.46556 3.04496 0
M  V30 1227 H 124.754 2.81055 2.86023 0
M  V30 1228 H 121.344 3.85341 1.87644 0
M  V30 1229 H 125.528 4.74257 1.46267 0
M  V30 1230 H 120.784 6.0452 0.91462 0
M  V30 1231 H 124.958 6.94537 0.509018 0
M  V30 1232 H 122.585 7.59854 0.229226 0
M  V30 1233 N 124.16 -0.719506 1.40217 0
M  V30 1234 C 125.408 -1.47641 1.3801 0
M  V30 1235 C 125.729 -1.94992 -0.018145 0
M  V30 1236 O 124.999 -1.70073 -0.972207 0
M  V30 1237 H 123.579 -0.547744 0.507923 0
M  V30 1238 H 126.241 -0.853187 1.75233 0
M  V30 1239 H 125.337 -2.35112 2.05253 0
M  V30 1240 N 125.638 -1.25649 -0.95132 0
M  V30 1241 C 126.868 -1.13179 -1.72841 0
M  V30 1242 C 127.276 0.316827 -1.86528 0
M  V30 1243 O 126.619 1.22948 -1.3649 0
M  V30 1244 C 126.681 -1.71644 -3.15878 0
M  V30 1245 C 126.345 -3.20667 -3.25609 0
M  V30 1246 C 127.342 -4.17616 -3.09666 0
M  V30 1247 C 125.027 -3.6094 -3.49324 0
M  V30 1248 C 127.021 -5.52817 -3.17289 0
M  V30 1249 C 124.708 -4.96278 -3.56584 0
M  V30 1250 C 125.706 -5.92025 -3.40581 0
M  V30 1251 O 125.394 -7.24899 -3.47528 0
M  V30 1252 H 125.126 -0.395389 -0.54831 0
M  V30 1253 H 127.68 -1.66566 -1.20187 0
M  V30 1254 H 125.91 -1.12707 -3.69911 0
M  V30 1255 H 127.599 -1.54225 -3.75459 0
M  V30 1256 H 128.365 -3.87842 -2.91211 0
M  V30 1257 H 124.244 -2.86907 -3.6084 0
M  V30 1258 H 127.788 -6.2753 -3.04716 0
M  V30 1259 H 123.685 -5.25716 -3.74556 0
M  V30 1260 H 124.453 -7.33039 -3.64138 0
M  V30 1261 N 127.117 1.15442 -1.07289 0
M  V30 1262 C 128.047 2.22312 -0.714107 0
M  V30 1263 C 129.028 1.67467 0.298155 0
M  V30 1264 O 130.213 1.93445 0.171048 0
M  V30 1265 C 127.343 3.47124 -0.110448 0
M  V30 1266 C 126.297 4.14926 -1.04979 0
M  V30 1267 C 125.623 5.33807 -0.308924 0
M  V30 1268 C 126.923 4.64762 -2.38314 0
M  V30 1269 H 128.617 2.5258 -1.6076 0
M  V30 1270 H 126.163 1.21404 -0.77441 0
M  V30 1271 H 128.116 4.21124 0.152482 0
M  V30 1272 H 126.84 3.16187 0.81812 0
M  V30 1273 H 125.499 3.42866 -1.29764 0
M  V30 1274 H 125.147 4.99126 0.623084 0
M  V30 1275 H 124.847 5.80113 -0.935036 0
M  V30 1276 H 126.371 6.10576 -0.0537771 0
M  V30 1277 H 127.785 5.30292 -2.1786 0
M  V30 1278 H 126.182 5.21728 -2.96514 0
M  V30 1279 H 127.252 3.80434 -3.00663 0
M  V30 1280 N 128.595 0.856903 1.32268 0
M  V30 1281 C 130.011 0.547061 1.49931 0
M  V30 1282 C 130.211 -0.921781 1.7918 0
M  V30 1283 O 129.267 -1.70469 1.8627 0
M  V30 1284 C 130.58 1.43599 2.64196 0
M  V30 1285 C 132.128 1.43665 2.78081 0
M  V30 1286 C 132.603 2.31085 3.95428 0
M  V30 1287 N 134.094 2.28893 4.02694 0
M  V30 1288 C 134.829 2.93262 4.92732 0
M  V30 1289 N 134.325 3.66751 5.87763 0
M  V30 1290 N 136.118 2.82638 4.85873 0
M  V30 1291 H 128.269 1.8075 1.11549 0
M  V30 1292 H 130.532 0.772144 0.549997 0
M  V30 1293 H 130.238 2.48058 2.49319 0
M  V30 1294 H 130.112 1.12502 3.60032 0
M  V30 1295 H 132.499 0.399701 2.92381 0
M  V30 1296 H 132.58 1.7878 1.82952 0
M  V30 1297 H 132.224 3.34849 3.81888 0
M  V30 1298 H 132.154 1.93302 4.89839 0
M  V30 1299 H 134.645 1.75466 3.34694 0
M  V30 1300 H 134.958 4.13027 6.53168 0
M  V30 1301 H 133.303 3.70859 5.87783 0
M  V30 1302 H 136.494 2.24774 4.10602 0
M  V30 1303 H 136.667 3.33084 5.55841 0
M  V30 1304 N 130.073 -1.45103 0.615059 0
M  V30 1305 C 131.35 -1.95549 0.0448276 0
M  V30 1306 C 131.73 -1.55737 -1.4251 0
M  V30 1307 O 131.078 -0.823556 -2.13143 0
M  V30 1308 C 131.288 -3.48098 0.250785 0
M  V30 1309 C 132.636 -4.24384 0.135509 0
M  V30 1310 O 133.66 -3.55738 0.181299 0
M  V30 1311 O 132.519 -5.46493 0.0268878 0
M  V30 1312 H 129.613 -0.8264 -0.0314845 0
M  V30 1313 H 132.159 -1.55232 0.685642 0
M  V30 1314 H 130.931 -3.7007 1.27139 0
M  V30 1315 H 130.554 -3.95323 -0.424937 0
M  V30 1316 N 131.551 -0.354651 -1.53558 0
M  V30 1317 C 132.798 0.238443 -2.01091 0
M  V30 1318 C 133.126 1.49663 -1.24222 0
M  V30 1319 O 132.381 1.93049 -0.321003 0
M  V30 1320 C 132.68 0.587121 -3.52545 0
M  V30 1321 C 132.346 -0.575472 -4.47213 0
M  V30 1322 C 131.008 -0.894497 -4.72813 0
M  V30 1323 C 133.36 -1.35489 -5.03281 0
M  V30 1324 C 130.688 -1.99511 -5.51736 0
M  V30 1325 C 133.04 -2.44583 -5.83405 0
M  V30 1326 C 131.704 -2.77033 -6.07296 0
M  V30 1327 H 130.974 0.0872526 -0.735845 0
M  V30 1328 H 133.621 -0.484859 -1.8526 0
M  V30 1329 H 131.926 1.39129 -3.66265 0
M  V30 1330 H 133.623 1.05809 -3.86789 0
M  V30 1331 H 130.213 -0.316774 -4.27428 0
M  V30 1332 H 134.397 -1.12167 -4.83459 0
M  V30 1333 H 129.653 -2.25063 -5.68469 0
M  V30 1334 H 133.827 -3.05401 -6.25862 0
M  V30 1335 H 131.454 -3.6244 -6.68237 0
M  V30 1336 N 133.029 1.57378 -0.0835403 0
M  V30 1337 C 133.959 2.1641 0.87686 0
M  V30 1338 C 134.94 1.09429 1.30228 0
M  V30 1339 O 136.125 1.37516 1.37124 0
M  V30 1340 C 133.255 2.73517 2.14022 0
M  V30 1341 C 132.209 3.85769 1.85381 0
M  V30 1342 C 131.535 4.29529 3.18448 0
M  V30 1343 C 132.835 5.09486 1.14984 0
M  V30 1344 H 134.529 2.96914 0.385059 0
M  V30 1345 H 132.075 1.42823 0.18377 0
M  V30 1346 H 134.028 3.13463 2.81636 0
M  V30 1347 H 132.752 1.90252 2.65465 0
M  V30 1348 H 131.411 3.46345 1.20169 0
M  V30 1349 H 131.059 3.43169 3.67755 0
M  V30 1350 H 130.759 5.05204 3.00071 0
M  V30 1351 H 132.283 4.72099 3.8724 0
M  V30 1352 H 133.697 5.46674 1.72687 0
M  V30 1353 H 132.094 5.90515 1.06826 0
M  V30 1354 H 133.164 4.84724 0.130749 0
M  V30 1355 N 134.507 -0.190092 1.56449 0
M  V30 1356 C 135.923 -0.54113 1.50146 0
M  V30 1357 C 136.123 -1.85603 0.784465 0
M  V30 1358 O 135.179 -2.5024 0.337051 0
M  V30 1359 C 136.492 -0.591241 2.9483 0
M  V30 1360 C 138.04 -0.679732 3.0553 0
M  V30 1361 C 138.515 -0.760908 4.51635 0
M  V30 1362 N 140.006 -0.824302 4.55806 0
M  V30 1363 C 140.741 -0.907365 5.66175 0
M  V30 1364 N 140.237 -0.952422 6.86222 0
M  V30 1365 N 142.03 -0.94494 5.541 0
M  V30 1366 H 134.181 0.67235 2.01478 0
M  V30 1367 H 136.444 0.240127 0.917084 0
M  V30 1368 H 136.15 0.305905 3.50367 0
M  V30 1369 H 136.024 -1.44422 3.48457 0
M  V30 1370 H 138.411 -1.56731 2.50039 0
M  V30 1371 H 138.492 0.199549 2.5502 0
M  V30 1372 H 138.136 0.122336 5.07753 0
M  V30 1373 H 138.066 -1.65606 4.99882 0
M  V30 1374 H 140.557 -0.798526 3.69367 0
M  V30 1375 H 140.87 -1.01645 7.66086 0
M  V30 1376 H 139.215 -0.921014 6.8887 0
M  V30 1377 H 142.406 -0.906612 4.59236 0
M  V30 1378 H 142.579 -1.00622 6.4014 0
M  V30 1379 N 135.985 -1.50799 -0.457987 0
M  V30 1380 C 137.215 -1.65977 -1.23025 0
M  V30 1381 C 137.623 -0.347918 -1.85974 0
M  V30 1382 O 136.966 0.68148 -1.70592 0
M  V30 1383 C 137.028 -2.70309 -2.3701 0
M  V30 1384 C 136.692 -4.135 -1.94594 0
M  V30 1385 C 137.689 -4.98949 -1.46101 0
M  V30 1386 C 135.374 -4.5949 -2.02915 0
M  V30 1387 C 137.368 -6.28442 -1.06489 0
M  V30 1388 C 135.055 -5.88984 -1.62914 0
M  V30 1389 C 136.053 -6.73286 -1.1478 0
M  V30 1390 O 135.741 -8.00362 -0.75339 0
M  V30 1391 H 135.473 -0.56064 -0.377702 0
M  V30 1392 H 138.027 -1.97857 -0.551537 0
M  V30 1393 H 136.257 -2.337 -3.08093 0
M  V30 1394 H 137.946 -2.74574 -2.98938 0
M  V30 1395 H 138.712 -4.6463 -1.39084 0
M  V30 1396 H 134.591 -3.94009 -2.39328 0
M  V30 1397 H 138.135 -6.94194 -0.688488 0
M  V30 1398 H 134.032 -6.22822 -1.69595 0
M  V30 1399 H 134.8 -8.13744 -0.88108 0
M  V30 1400 N 137.463 0.71206 -1.40597 0
M  V30 1401 C 138.709 1.47292 -1.40274 0
M  V30 1402 C 139.064 1.92399 -0.00576812 0
M  V30 1403 O 138.357 1.65507 0.965297 0
M  V30 1404 C 138.551 2.71039 -2.32965 0
M  V30 1405 C 138.38 2.38035 -3.81536 0
M  V30 1406 C 137.15 2.29203 -4.50327 0
M  V30 1407 C 139.348 2.02076 -4.72938 0
M  V30 1408 N 137.33 1.88911 -5.84111 0
M  V30 1409 C 138.701 1.72412 -5.95545 0
M  V30 1410 C 140.756 1.88742 -4.60739 0
M  V30 1411 C 139.459 1.30756 -7.07316 0
M  V30 1412 C 141.485 1.4849 -5.72455 0
M  V30 1413 C 140.847 1.19726 -6.94151 0
M  V30 1414 H 136.946 0.536919 -0.568544 0
M  V30 1415 H 139.53 0.825424 -1.76337 0
M  V30 1416 H 137.701 3.33533 -1.99023 0
M  V30 1417 H 139.433 3.37404 -2.23474 0
M  V30 1418 H 136.188 2.47059 -4.04053 0
M  V30 1419 H 136.612 1.71293 -6.54972 0
M  V30 1420 H 141.254 2.0964 -3.67166 0
M  V30 1421 H 138.972 1.08601 -8.00769 0
M  V30 1422 H 142.558 1.38747 -5.65014 0
M  V30 1423 H 141.438 0.890482 -7.79128 0
M  V30 1424 N 138.941 1.26152 0.944643 0
M  V30 1425 C 140.357 1.03189 1.21754 0
M  V30 1426 C 140.557 -0.245112 2.00004 0
M  V30 1427 O 139.613 -0.955176 2.33736 0
M  V30 1428 C 140.926 2.26119 1.98219 0
M  V30 1429 C 142.474 2.30984 2.11224 0
M  V30 1430 C 142.949 3.53597 2.91089 0
M  V30 1431 N 144.44 3.54053 2.98664 0
M  V30 1432 C 145.175 4.45593 3.60881 0
M  V30 1433 N 144.671 5.47416 4.24626 0
M  V30 1434 N 146.464 4.33252 3.58119 0
M  V30 1435 H 138.615 2.08177 0.421437 0
M  V30 1436 H 140.878 0.914723 0.248969 0
M  V30 1437 H 140.584 3.18984 1.48128 0
M  V30 1438 H 140.458 2.3009 2.98895 0
M  V30 1439 H 142.845 1.38635 2.60508 0
M  V30 1440 H 142.926 2.31026 1.09821 0
M  V30 1441 H 142.57 4.46273 2.42493 0
M  V30 1442 H 142.5 3.50802 3.92741 0
M  V30 1443 H 144.991 2.80403 2.53343 0
M  V30 1444 H 145.304 6.13459 4.69987 0
M  V30 1445 H 143.649 5.51278 4.23223 0
M  V30 1446 H 146.84 3.52924 3.0751 0
M  V30 1447 H 147.013 5.04786 4.06319 0
M  V30 1448 N 140.419 -1.14872 1.07899 0
M  V30 1449 C 141.668 -1.85135 0.800499 0
M  V30 1450 C 141.981 -1.83547 -0.676014 0
M  V30 1451 O 143.187 -2.49548 -1.06948 0
M  V30 1452 C 141.643 -3.3231 1.38197 0
M  V30 1453 C 141.251 -3.42329 2.8899 0
M  V30 1454 C 142.995 -4.0772 1.18174 0
M  V30 1455 C 140.902 -4.83684 3.403 0
M  V30 1456 H 139.832 -0.693563 0.29578 0
M  V30 1457 H 142.483 -1.29532 1.29976 0
M  V30 1458 H 140.865 -3.87618 0.810431 0
M  V30 1459 H 142.039 -2.97097 3.52236 0
M  V30 1460 H 140.354 -2.80369 3.07867 0
M  V30 1461 H 142.951 -5.12049 1.5398 0
M  V30 1462 H 143.294 -4.16124 0.12117 0
M  V30 1463 H 143.827 -3.58696 1.71994 0
M  V30 1464 H 140.566 -4.80465 4.45907 0
M  V30 1465 H 140.086 -5.29474 2.81811 0
M  V30 1466 H 141.765 -5.52558 3.36584 0
M  V30 1467 N 141.898 -0.863906 -1.31812 0
M  V30 1468 C 142.808 -0.318461 -2.32428 0
M  V30 1469 C 143.824 0.568496 -1.64451 0
M  V30 1470 O 145 0.46666 -1.95919 0
M  V30 1471 C 142.065 0.476355 -3.43412 0
M  V30 1472 C 141.126 -0.43784 -4.27061 0
M  V30 1473 C 140.359 0.319138 -5.32745 0
M  V30 1474 O 140.582 1.54799 -5.48993 0
M  V30 1475 O 139.516 -0.319861 -6.01049 0
M  V30 1476 H 143.342 -1.15229 -2.80991 0
M  V30 1477 H 140.927 -0.627103 -1.35602 0
M  V30 1478 H 142.809 0.927156 -4.11074 0
M  V30 1479 H 141.484 1.28683 -2.97022 0
M  V30 1480 H 140.391 -0.937013 -3.62175 0
M  V30 1481 H 141.724 -1.21375 -4.77 0
M  V30 1482 N 143.376 1.44774 -0.622745 0
M  V30 1483 C 144.323 2.30635 0.0871679 0
M  V30 1484 C 145.293 1.42994 0.845097 0
M  V30 1485 O 146.478 1.71907 0.827812 0
M  V30 1486 C 143.618 3.28144 1.06844 0
M  V30 1487 C 142.731 4.30888 0.309809 0
M  V30 1488 C 141.866 5.15494 1.28215 0
M  V30 1489 C 140.905 6.09953 0.512198 0
M  V30 1490 N 140.042 6.87287 1.43458 0
M  V30 1491 H 144.882 2.90803 -0.650974 0
M  V30 1492 H 142.419 1.43286 -0.33281 0
M  V30 1493 H 144.377 3.83157 1.65066 0
M  V30 1494 H 143.007 2.69695 1.77382 0
M  V30 1495 H 142.059 3.78414 -0.388181 0
M  V30 1496 H 143.371 4.97955 -0.290254 0
M  V30 1497 H 142.525 5.74983 1.93596 0
M  V30 1498 H 141.264 4.48481 1.91614 0
M  V30 1499 H 140.269 5.49581 -0.155151 0
M  V30 1500 H 141.494 6.78999 -0.116958 0
M  V30 1501 H 139.44 6.2295 2.05594 0
M  V30 1502 H 139.357 7.50763 0.888335 0
M  V30 1503 H 140.625 7.51306 2.07749 0
M  V30 1504 N 144.854 0.36279 1.53368 0
M  V30 1505 C 146.094 -0.227882 2.03126 0
M  V30 1506 C 146.458 -1.4622 1.24434 0
M  V30 1507 O 147.659 -2.12831 1.64184 0
M  V30 1508 C 145.93 -0.515427 3.53664 0
M  V30 1509 S 147.489 -1.08017 4.25297 0
M  V30 1510 H 144.307 -0.0665377 0.70788 0
M  V30 1511 H 146.909 0.50501 1.88865 0
M  V30 1512 H 145.613 0.390436 4.08539 0
M  V30 1513 H 145.144 -1.27747 3.72081 0
M  V30 1514 H 147.159 -2.36462 4.36234 0
M  V30 1515 N 146.332 -1.57332 0.0918853 0
M  V30 1516 C 147.282 -2.10385 -0.87876 0
M  V30 1517 C 148.266 -1.01814 -1.24591 0
M  V30 1518 O 149.458 -1.28093 -1.22152 0
M  V30 1519 C 146.587 -2.68517 -2.13901 0
M  V30 1520 C 145.673 -3.84126 -1.79744 0
M  V30 1521 N 146.064 -4.92288 -1.1613 0
M  V30 1522 C 144.362 -3.93801 -2.09373 0
M  V30 1523 C 145.063 -5.7295 -1.00513 0
M  V30 1524 N 144.039 -5.21876 -1.5214 0
M  V30 1525 H 147.841 -2.91395 -0.38293 0
M  V30 1526 H 145.355 -1.62017 -0.111423 0
M  V30 1527 H 147.352 -3.04852 -2.84378 0
M  V30 1528 H 146.012 -1.88961 -2.64053 0
M  V30 1529 H 147.023 -5.1123 -0.828504 0
M  V30 1530 H 143.7 -3.25249 -2.61762 0
M  V30 1531 H 145.09 -6.69978 -0.507902 0
M  V30 1532 N 147.81 0.181792 -1.56548 0
M  V30 1533 C 148.76 1.22961 -1.92002 0
M  V30 1534 C 149.744 1.40331 -0.787146 0
M  V30 1535 O 150.936 1.42478 -1.05019 0
M  V30 1536 C 148.065 2.57144 -2.27446 0
M  V30 1537 C 147.151 2.43512 -3.47222 0
M  V30 1538 N 147.542 1.99577 -4.64761 0
M  V30 1539 C 145.84 2.74368 -3.51622 0
M  V30 1540 C 146.541 1.98156 -5.46909 0
M  V30 1541 N 145.517 2.40164 -4.8767 0
M  V30 1542 H 149.319 0.881462 -2.8037 0
M  V30 1543 H 146.833 0.390141 -1.57644 0
M  V30 1544 H 148.83 3.32847 -2.51035 0
M  V30 1545 H 147.49 2.92771 -1.40411 0
M  V30 1546 H 148.501 1.70078 -4.89177 0
M  V30 1547 H 145.178 3.14102 -2.75038 0
M  V30 1548 H 146.568 1.65975 -6.51077 0
M  V30 1549 N 149.288 1.51039 0.449983 0
M  V30 1550 C 150.251 1.70863 1.5277 0
M  V30 1551 C 151.251 0.578846 1.5002 0
M  V30 1552 O 152.441 0.846213 1.52266 0
M  V30 1553 C 149.573 1.75341 2.9235 0
M  V30 1554 H 150.766 2.67034 1.36502 0
M  V30 1555 H 148.319 1.40838 0.677812 0
M  V30 1556 H 149.054 0.809383 3.14037 0
M  V30 1557 H 148.839 2.57436 2.95752 0
M  V30 1558 H 150.329 1.92559 3.70555 0
M  V30 1559 N 150.766 -0.704594 1.40972 0
M  V30 1560 C 151.994 -1.49354 1.43182 0
M  V30 1561 C 152.409 -1.88768 0.0345508 0
M  V30 1562 O 151.766 -1.56184 -0.944081 0
M  V30 1563 C 151.817 -2.76187 2.33244 0
M  V30 1564 O 151.538 -2.38436 3.67532 0
M  V30 1565 C 153.039 -3.7 2.44162 0
M  V30 1566 H 150.259 -0.460559 0.487982 0
M  V30 1567 H 152.803 -0.868261 1.85153 0
M  V30 1568 H 150.958 -3.34974 1.94606 0
M  V30 1569 H 151.372 -3.20126 4.15475 0
M  V30 1570 H 152.846 -4.55803 3.11364 0
M  V30 1571 H 153.323 -4.13867 1.47006 0
M  V30 1572 H 153.929 -3.17121 2.83398 0
M  V30 1573 N 152.244 -1.26651 -0.937939 0
M  V30 1574 C 153.154 -1.10276 -2.07066 0
M  V30 1575 C 154.17 -0.0354197 -1.73964 0
M  V30 1576 O 155.346 -0.239816 -1.99967 0
M  V30 1577 C 152.411 -0.740887 -3.38691 0
M  V30 1578 C 151.472 -1.88799 -3.85556 0
M  V30 1579 C 150.705 -1.54329 -5.10899 0
M  V30 1580 O 150.928 -0.446494 -5.6865 0
M  V30 1581 O 149.862 -2.37911 -5.52885 0
M  V30 1582 H 153.688 -2.05309 -2.23789 0
M  V30 1583 H 151.273 -1.05743 -1.0554 0
M  V30 1584 H 153.155 -0.55195 -4.1777 0
M  V30 1585 H 151.83 0.180022 -3.23199 0
M  V30 1586 H 150.737 -2.13191 -3.07409 0
M  V30 1587 H 152.07 -2.78874 -4.05574 0
M  V30 1588 N 153.722 1.14298 -1.08507 0
M  V30 1589 C 155.138 1.37347 -0.812901 0
M  V30 1590 C 155.338 1.93052 0.577325 0
M  V30 1591 O 154.394 2.14389 1.33393 0
M  V30 1592 C 155.707 2.33359 -1.89642 0
M  V30 1593 C 157.255 2.46996 -1.92255 0
M  V30 1594 C 157.73 3.46309 -2.99724 0
M  V30 1595 N 159.221 3.53853 -2.98902 0
M  V30 1596 C 159.956 4.3055 -3.787 0
M  V30 1597 N 159.452 5.10482 -4.6838 0
M  V30 1598 N 161.245 4.25757 -3.66998 0
M  V30 1599 H 153.396 0.764867 -1.9815 0
M  V30 1600 H 155.659 0.398966 -0.859959 0
M  V30 1601 H 155.365 1.99565 -2.89597 0
M  V30 1602 H 155.239 3.33274 -1.76659 0
M  V30 1603 H 157.626 2.80081 -0.929445 0
M  V30 1604 H 157.707 1.47039 -2.09316 0
M  V30 1605 H 157.351 3.13957 -3.99241 0
M  V30 1606 H 157.281 4.46049 -2.79907 0
M  V30 1607 H 159.772 2.96812 -2.33904 0
M  V30 1608 H 160.085 5.66284 -5.25873 0
M  V30 1609 H 158.43 5.09747 -4.72422 0
M  V30 1610 H 161.621 3.62383 -2.96304 0
M  V30 1611 H 161.794 4.85279 -4.29427 0
M  V30 1612 N 155.201 0.870884 1.31352 0
M  V30 1613 C 156.111 0.330783 2.32256 0
M  V30 1614 C 157.127 -0.559767 1.6475 0
M  V30 1615 O 158.303 -0.456263 1.96164 0
M  V30 1616 C 155.368 -0.458137 3.4366 0
M  V30 1617 C 154.429 0.460482 4.26823 0
M  V30 1618 C 153.662 -0.290881 5.32907 0
M  V30 1619 O 153.885 -1.51885 5.49806 0
M  V30 1620 O 152.819 0.351732 6.00871 0
M  V30 1621 H 156.645 1.16718 2.80376 0
M  V30 1622 H 154.23 0.634285 1.35267 0
M  V30 1623 H 156.112 -0.905343 4.1156 0
M  V30 1624 H 154.787 -1.27106 2.97701 0
M  V30 1625 H 153.694 0.956207 3.61673 0
M  V30 1626 H 155.027 1.23903 4.7635 0
M  V30 1627 N 156.679 -1.44442 0.630414 0
M  V30 1628 C 157.589 -2.34476 -0.0761693 0
M  V30 1629 C 158.605 -1.52576 -0.836449 0
M  V30 1630 O 159.781 -1.85307 -0.788874 0
M  V30 1631 C 156.846 -3.30545 -1.04599 0
M  V30 1632 C 155.907 -4.28352 -0.28516 0
M  V30 1633 C 155.14 -5.19831 -1.20878 0
M  V30 1634 O 155.363 -5.15223 -2.44747 0
M  V30 1635 O 154.297 -5.97892 -0.693491 0
M  V30 1636 H 158.123 -2.96345 0.664324 0
M  V30 1637 H 155.708 -1.44203 0.39061 0
M  V30 1638 H 157.59 -3.89681 -1.60396 0
M  V30 1639 H 156.265 -2.7121 -1.76711 0
M  V30 1640 H 155.172 -3.72764 0.315837 0
M  V30 1641 H 156.505 -4.90605 0.395924 0
M  V30 1642 N 158.157 -0.370918 -1.53173 0
M  V30 1643 C 159.089 0.507823 -2.23503 0
M  V30 1644 C 160.102 1.04182 -1.251 0
M  V30 1645 O 161.291 0.947286 -1.5129 0
M  V30 1646 C 158.391 1.71447 -2.92334 0
M  V30 1647 C 157.564 1.31105 -4.17289 0
M  V30 1648 C 156.623 2.38035 -4.69282 0
M  V30 1649 O 155.649 2.00204 -5.32829 0
M  V30 1650 N 156.851 3.69697 -4.47554 0
M  V30 1651 H 159.616 -0.0946382 -2.99551 0
M  V30 1652 H 157.177 -0.196358 -1.60705 0
M  V30 1653 H 159.169 2.42469 -3.24023 0
M  V30 1654 H 157.739 2.22368 -2.19707 0
M  V30 1655 H 156.959 0.430462 -3.91843 0
M  V30 1656 H 158.247 1.0179 -4.98514 0
M  V30 1657 H 157.645 4.03205 -3.9679 0
M  V30 1658 H 156.202 4.36807 -4.8378 0
M  V30 1659 N 159.635 1.57281 -0.100228 0
M  V30 1660 C 160.582 2.14305 0.856858 0
M  V30 1661 C 161.552 1.06296 1.27634 0
M  V30 1662 O 162.737 1.34109 1.35718 0
M  V30 1663 C 159.877 2.73184 2.10866 0
M  V30 1664 C 158.99 3.95442 1.73925 0
M  V30 1665 C 158.125 4.42468 2.93931 0
M  V30 1666 C 157.164 5.57303 2.5314 0
M  V30 1667 N 156.301 5.99158 3.65997 0
M  V30 1668 H 161.141 2.95772 0.363726 0
M  V30 1669 H 158.678 1.46139 0.167858 0
M  V30 1670 H 160.636 3.05442 2.84185 0
M  V30 1671 H 159.266 1.94437 2.57671 0
M  V30 1672 H 158.318 3.69464 0.905554 0
M  V30 1673 H 159.63 4.78769 1.39935 0
M  V30 1674 H 158.784 4.76537 3.75496 0
M  V30 1675 H 157.523 3.58052 3.31134 0
M  V30 1676 H 156.528 5.22857 1.70003 0
M  V30 1677 H 157.753 6.43471 2.17075 0
M  V30 1678 H 155.699 5.17687 4.02909 0
M  V30 1679 H 155.616 6.77295 3.35869 0
M  V30 1680 H 156.884 6.3786 4.48057 0
M  V30 1681 N 161.113 -0.173488 1.56642 0
M  V30 1682 C 162.39 -0.917617 1.7274 0
M  V30 1683 C 162.77 -2.00484 0.661027 0
M  V30 1684 O 162.118 -2.26184 -0.32453 0
M  V30 1685 C 162.328 -1.48433 3.15862 0
M  V30 1686 C 163.676 -1.95809 3.76754 0
M  V30 1687 O 164.7 -1.58231 3.19126 0
M  V30 1688 O 163.559 -2.65024 4.77938 0
M  V30 1689 H 160.653 -0.431772 0.705338 0
M  V30 1690 H 163.199 -0.161487 1.6893 0
M  V30 1691 H 161.971 -0.701715 3.84957 0
M  V30 1692 H 161.594 -2.30471 3.23989 0
M  V30 1693 N 162.591 -1.51276 -0.441967 0
M  V30 1694 C 163.838 -1.63715 -1.19179 0
M  V30 1695 C 164.166 -0.351175 -1.91303 0
M  V30 1696 O 163.421 0.664524 -1.84072 0
M  V30 1697 C 163.72 -2.78746 -2.23686 0
M  V30 1698 C 163.386 -4.18189 -1.68607 0
M  V30 1699 C 162.048 -4.56125 -1.53308 0
M  V30 1700 C 164.4 -5.05222 -1.28062 0
M  V30 1701 C 161.728 -5.78804 -0.959317 0
M  V30 1702 C 164.08 -6.28476 -0.721162 0
M  V30 1703 C 162.744 -6.65188 -0.55504 0
M  V30 1704 H 162.014 -0.599076 -0.436106 0
M  V30 1705 H 164.661 -1.85296 -0.48351 0
M  V30 1706 H 162.966 -2.51369 -3.00535 0
M  V30 1707 H 164.663 -2.8557 -2.81515 0
M  V30 1708 H 161.253 -3.88277 -1.8149 0
M  V30 1709 H 165.437 -4.76524 -1.38704 0
M  V30 1710 H 160.693 -6.05899 -0.81833 0
M  V30 1711 H 164.867 -6.95259 -0.398458 0
M  V30 1712 H 162.494 -7.60123 -0.108311 0
M  V30 1713 N 164.069 0.697108 -1.41344 0
M  V30 1714 C 165.315 1.4593 -1.40827 0
M  V30 1715 C 165.648 1.94193 -0.0167098 0
M  V30 1716 O 164.923 1.69425 0.955263 0
M  V30 1717 C 165.206 2.67229 -2.41373 0
M  V30 1718 C 165.059 2.24741 -3.8963 0
M  V30 1719 C 166.378 3.69423 -2.39196 0
M  V30 1720 H 163.497 0.529303 -0.512842 0
M  V30 1721 H 166.139 0.794112 -1.72609 0
M  V30 1722 H 164.289 3.23982 -2.14401 0
M  V30 1723 H 165.961 1.73327 -4.27499 0
M  V30 1724 H 164.204 1.56542 -4.0457 0
M  V30 1725 H 164.875 3.1177 -4.55525 0
M  V30 1726 H 167.351 3.2234 -2.63128 0
M  V30 1727 H 166.227 4.51907 -3.11563 0
M  V30 1728 H 166.488 4.19012 -1.41001 0
M  V30 1729 N 165.547 1.27147 0.931209 0
M  V30 1730 C 166.772 1.16191 1.71797 0
M  V30 1731 C 167.197 -0.278004 1.86034 0
M  V30 1732 O 166.555 -1.20137 1.35782 0
M  V30 1733 C 166.603 1.84673 3.09723 0
M  V30 1734 O 165.707 1.14231 3.96264 0
M  V30 1735 H 165.048 0.404303 0.526721 0
M  V30 1736 H 167.578 1.68152 1.1656 0
M  V30 1737 H 167.588 1.91893 3.60057 0
M  V30 1738 H 166.263 2.89421 2.98677 0
M  V30 1739 H 164.84 1.15056 3.54706 0
M  V30 1740 N 167.025 -1.13721 1.09112 0
M  V30 1741 C 167.955 -2.21148 0.749385 0
M  V30 1742 C 168.936 -1.6792 -0.271475 0
M  V30 1743 O 170.121 -1.93693 -0.140251 0
M  V30 1744 C 167.251 -3.46905 0.165659 0
M  V30 1745 C 166.205 -4.13203 1.11567 0
M  V30 1746 C 165.531 -5.33248 0.393809 0
M  V30 1747 C 166.831 -4.60912 2.45678 0
M  V30 1748 H 168.525 -2.4999 1.64758 0
M  V30 1749 H 166.071 -1.20156 0.793626 0
M  V30 1750 H 168.024 -4.21313 -0.085466 0
M  V30 1751 H 166.748 -3.17449 -0.767714 0
M  V30 1752 H 165.407 -3.40758 1.35202 0
M  V30 1753 H 165.055 -5.00054 -0.543599 0
M  V30 1754 H 164.755 -5.78552 1.02721 0
M  V30 1755 H 166.279 -6.10413 0.150908 0
M  V30 1756 H 167.693 -5.26759 2.26269 0
M  V30 1757 H 166.09 -5.16944 3.04776 0
M  V30 1758 H 167.16 -3.75603 3.06677 0
M  V30 1759 N 168.503 -0.877838 -1.30888 0
M  V30 1760 C 169.733 -0.506678 -2.00291 0
M  V30 1761 C 170.141 0.907449 -1.66018 0
M  V30 1762 O 169.484 1.60719 -0.88967 0
M  V30 1763 C 169.546 -0.59323 -3.54572 0
M  V30 1764 C 169.21 -1.97038 -4.12341 0
M  V30 1765 C 170.207 -2.93889 -4.28865 0
M  V30 1766 C 167.892 -2.27383 -4.47886 0
M  V30 1767 C 169.886 -4.19224 -4.80136 0
M  V30 1768 C 167.573 -3.52965 -4.98857 0
M  V30 1769 C 168.571 -4.48701 -5.14934 0
M  V30 1770 O 168.259 -5.72056 -5.64808 0
M  V30 1771 H 167.991 -0.1951 -0.647234 0
M  V30 1772 H 170.545 -1.18301 -1.6791 0
M  V30 1773 H 168.775 0.140057 -3.86446 0
M  V30 1774 H 170.464 -0.234372 -4.05223 0
M  V30 1775 H 171.23 -2.71756 -4.01714 0
M  V30 1776 H 167.109 -1.53639 -4.34645 0
M  V30 1777 H 170.653 -4.93956 -4.92599 0
M  V30 1778 H 166.55 -3.74939 -5.25443 0
M  V30 1779 H 167.318 -5.74337 -5.83163 0
M  V30 1780 N 169.982 1.44106 -0.638065 0
M  V30 1781 C 170.914 2.28976 0.101205 0
M  V30 1782 C 171.927 1.4167 0.802088 0
M  V30 1783 O 173.116 1.65755 0.662375 0
M  V30 1784 C 170.216 3.18217 1.16581 0
M  V30 1785 C 169.389 4.33978 0.546066 0
M  V30 1786 C 168.448 5.04202 1.50554 0
M  V30 1787 O 167.474 5.59986 1.01999 0
M  V30 1788 N 168.676 5.06296 2.8398 0
M  V30 1789 H 171.441 2.93064 -0.627186 0
M  V30 1790 H 169.002 1.54629 -0.479731 0
M  V30 1791 H 170.994 3.62061 1.80815 0
M  V30 1792 H 169.564 2.55833 1.79634 0
M  V30 1793 H 168.784 3.93239 -0.275046 0
M  V30 1794 H 170.072 5.08675 0.112793 0
M  V30 1795 H 169.47 4.62319 3.26002 0
M  V30 1796 H 168.027 5.53907 3.43556 0
M  V30 1797 N 171.46 0.379036 1.52974 0
M  V30 1798 C 172.737 -0.263479 1.93817 0
M  V30 1799 C 173.117 -1.65244 1.31368 0
M  V30 1800 O 172.465 -2.23448 0.477856 0
M  V30 1801 C 172.675 -0.300166 3.47707 0
M  V30 1802 C 174.023 -0.534061 4.21228 0
M  V30 1803 O 175.047 -0.38081 3.54159 0
M  V30 1804 O 173.906 -0.833501 5.40106 0
M  V30 1805 H 171 -0.161149 0.811147 0
M  V30 1806 H 173.546 0.432798 1.64088 0
M  V30 1807 H 172.318 0.673138 3.85467 0
M  V30 1808 H 171.941 -1.04179 3.83709 0
M  V30 1809 N 172.938 -1.57226 0.108567 0
M  V30 1810 C 174.185 -1.94833 -0.551943 0
M  V30 1811 C 174.513 -0.991204 -1.67348 0
M  V30 1812 O 173.768 -0.0131878 -1.95696 0
M  V30 1813 C 174.067 -3.38911 -1.13463 0
M  V30 1814 C 173.733 -4.50696 -0.135509 0
M  V30 1815 C 172.395 -4.80998 0.139252 0
M  V30 1816 C 174.747 -5.18333 0.545957 0
M  V30 1817 C 172.075 -5.76259 1.10194 0
M  V30 1818 C 174.427 -6.14627 1.49721 0
M  V30 1819 C 173.091 -6.43327 1.78006 0
M  V30 1820 H 172.361 -0.712944 -0.20197 0
M  V30 1821 H 175.008 -1.90582 0.18726 0
M  V30 1822 H 173.313 -3.39805 -1.95037 0
M  V30 1823 H 175.01 -3.65317 -1.65362 0
M  V30 1824 H 171.6 -4.27087 -0.359846 0
M  V30 1825 H 175.784 -4.95087 0.346842 0
M  V30 1826 H 171.04 -5.96804 1.32795 0
M  V30 1827 H 175.214 -6.66126 2.03099 0
M  V30 1828 H 172.841 -7.1695 2.52759 0
M  V30 1829 N 174.416 0.165178 -1.56732 0
M  V30 1830 C 175.326 1.22423 -2.00125 0
M  V30 1831 C 176.342 1.48084 -0.913619 0
M  V30 1832 O 177.518 1.60112 -1.22172 0
M  V30 1833 C 174.583 2.54197 -2.35764 0
M  V30 1834 C 173.644 2.36343 -3.58386 0
M  V30 1835 C 172.877 3.61834 -3.92316 0
M  V30 1836 O 173.1 4.67267 -3.27135 0
M  V30 1837 O 172.034 3.55579 -4.85641 0
M  V30 1838 H 175.86 0.885886 -2.90492 0
M  V30 1839 H 173.445 0.372518 -1.44681 0
M  V30 1840 H 175.327 3.3192 -2.59629 0
M  V30 1841 H 174.002 2.87598 -1.48557 0
M  V30 1842 H 172.909 1.56632 -3.39731 0
M  V30 1843 H 174.242 2.07865 -4.46154 0
M  V30 1844 N 175.894 1.51508 0.433938 0
M  V30 1845 C 176.842 1.73646 1.54757 0
M  V30 1846 C 177.836 0.602854 1.5831 0
M  V30 1847 O 179.042 0.784318 1.62014 0
M  V30 1848 H 175.417 0.548718 0.51421 0
M  V30 1849 H 177.388 2.66991 1.33261 0
M  V30 1850 C 176.137 1.88172 2.92381 0
M  V30 1851 H 175.46 2.74808 2.90381 0
M  V30 1852 H 176.9 2.07672 3.6966 0
M  V30 1853 C 175.359 0.64239 3.30719 0
M  V30 1854 O 175.889 -0.201362 4.01195 0
M  V30 1855 N 174.095 0.485489 2.86516 0
M  V30 1856 H 173.642 1.17318 2.29334 0
M  V30 1857 H 173.6 -0.342482 3.12529 0
M  V30 1858 N 177.372 -0.689602 1.41712 0
M  V30 1859 C 178.619 -1.44966 1.4139 0
M  V30 1860 C 178.947 -1.94484 0.025105 0
M  V30 1861 O 178.202 -1.70307 -0.964048 0
M  V30 1862 C 178.501 -2.67298 2.37247 0
M  V30 1863 C 178.167 -2.36405 3.83958 0
M  V30 1864 C 176.829 -2.27691 4.23923 0
M  V30 1865 C 179.181 -2.11043 4.76561 0
M  V30 1866 C 176.509 -1.91719 5.54492 0
M  V30 1867 C 178.861 -1.76578 6.07456 0
M  V30 1868 C 177.525 -1.66363 6.46436 0
M  V30 1869 H 176.795 -0.53047 0.517381 0
M  V30 1870 H 179.442 -0.787655 1.74552 0
M  V30 1871 H 177.747 -3.38461 1.9736 0
M  V30 1872 H 179.444 -3.25452 2.34269 0
M  V30 1873 H 176.034 -2.44085 3.52308 0
M  V30 1874 H 180.218 -2.16717 4.46483 0
M  V30 1875 H 175.474 -1.82367 5.83568 0
M  V30 1876 H 179.648 -1.55974 6.78708 0
M  V30 1877 H 177.275 -1.38258 7.47522 0
M  V30 1878 N 178.85 -1.27639 -0.924453 0
M  V30 1879 C 180.08 -1.16819 -1.70402 0
M  V30 1880 C 180.488 0.277191 -1.87158 0
M  V30 1881 O 179.831 1.20025 -1.39067 0
M  V30 1882 C 179.893 -1.78305 -3.12166 0
M  V30 1883 C 179.557 -3.27502 -3.18734 0
M  V30 1884 C 180.554 -4.2409 -3.00738 0
M  V30 1885 C 178.239 -3.68269 -3.4159 0
M  V30 1886 C 180.233 -5.59422 -3.05492 0
M  V30 1887 C 177.92 -5.0373 -3.45977 0
M  V30 1888 C 178.918 -5.99116 -3.27946 0
M  V30 1889 O 178.606 -7.32108 -3.32074 0
M  V30 1890 H 178.338 -0.406931 -0.539799 0
M  V30 1891 H 180.892 -1.69078 -1.16626 0
M  V30 1892 H 179.122 -1.20528 -3.67437 0
M  V30 1893 H 180.811 -1.62154 -3.72103 0
M  V30 1894 H 181.577 -3.93931 -2.82919 0
M  V30 1895 H 177.456 -2.94496 -3.54673 0
M  V30 1896 H 181 -6.33852 -2.91337 0
M  V30 1897 H 176.897 -5.33543 -3.63321 0
M  V30 1898 H 177.665 -7.40598 -3.48507 0
M  V30 1899 N 180.328 1.1314 -1.09713 0
M  V30 1900 C 181.556 1.88321 -0.856898 0
M  V30 1901 C 181.971 1.79276 0.592073 0
M  V30 1902 O 181.328 1.16142 1.40774 0
M  V30 1903 C 181.379 3.37812 -1.28706 0
M  V30 1904 O 181.1 3.46627 -2.67921 0
M  V30 1905 C 182.601 4.29952 -1.07964 0
M  V30 1906 H 179.821 0.596094 -0.308079 0
M  V30 1907 H 182.365 1.43205 -1.45988 0
M  V30 1908 H 180.52 3.805 -0.727912 0
M  V30 1909 H 180.934 4.39579 -2.8613 0
M  V30 1910 H 182.408 5.33159 -1.42986 0
M  V30 1911 H 182.885 4.39196 -0.0176577 0
M  V30 1912 H 183.491 3.93036 -1.62489 0
M  V30 1913 N 181.806 0.884767 1.30421 0
M  V30 1914 C 183.222 0.57874 1.48737 0
M  V30 1915 C 183.422 -0.883567 1.81095 0
M  V30 1916 O 182.478 -1.6648 1.89844 0
M  V30 1917 C 183.791 1.49171 2.61091 0
M  V30 1918 C 185.339 1.49532 2.74971 0
M  V30 1919 C 185.814 2.39421 3.90438 0
M  V30 1920 N 187.305 2.37383 3.97748 0
M  V30 1921 C 188.04 3.03647 4.86401 0
M  V30 1922 N 187.536 3.79136 5.79852 0
M  V30 1923 N 189.329 2.9288 4.79768 0
M  V30 1924 H 181.48 1.83075 1.0769 0
M  V30 1925 H 183.743 0.783637 0.533495 0
M  V30 1926 H 183.449 2.53291 2.44001 0
M  V30 1927 H 183.323 1.20113 3.57565 0
M  V30 1928 H 185.71 0.46163 2.91467 0
M  V30 1929 H 185.791 1.8262 1.79119 0
M  V30 1930 H 185.435 3.42874 3.74699 0
M  V30 1931 H 185.365 2.03649 4.85628 0
M  V30 1932 H 187.856 1.82525 3.30897 0
M  V30 1933 H 188.169 4.26789 6.4426 0
M  V30 1934 H 186.514 3.83243 5.79784 0
M  V30 1935 H 189.705 2.33433 4.05742 0
M  V30 1936 H 189.878 3.448 5.4865 0
M  V30 1937 N 183.284 -1.43765 0.645699 0
M  V30 1938 C 184.232 -2.32516 -0.0624849 0
M  V30 1939 C 185.226 -1.48183 -0.820855 0
M  V30 1940 O 186.432 -1.64439 -0.732106 0
M  V30 1941 H 182.807 -0.750989 -0.0389864 0
M  V30 1942 H 184.778 -2.89979 0.703892 0
M  V30 1943 C 183.527 -3.32389 -1.02044 0
M  V30 1944 H 182.85 -3.97301 -0.446312 0
M  V30 1945 H 184.29 -3.97138 -1.48517 0
M  V30 1946 C 182.749 -2.62416 -2.11281 0
M  V30 1947 O 183.279 -2.434 -3.19561 0
M  V30 1948 N 181.485 -2.21913 -1.87624 0
M  V30 1949 H 181.032 -2.37578 -0.995703 0
M  V30 1950 H 180.99 -1.75424 -2.6091 0
M  V30 1951 N 184.763 -0.387143 -1.52771 0
M  V30 1952 C 185.693 0.440551 -2.29306 0
M  V30 1953 C 186.674 1.06535 -1.32606 0
M  V30 1954 O 187.859 1.07853 -1.61497 0
M  V30 1955 C 184.989 1.56919 -3.09829 0
M  V30 1956 C 183.943 1.07054 -4.14395 0
M  V30 1957 C 183.269 2.29109 -4.83129 0
M  V30 1958 C 184.569 0.140015 -5.22112 0
M  V30 1959 H 186.263 -0.198026 -2.98744 0
M  V30 1960 H 183.809 -0.09668 -1.43675 0
M  V30 1961 H 185.762 2.15503 -3.62128 0
M  V30 1962 H 184.486 2.23532 -2.3812 0
M  V30 1963 H 183.145 0.507247 -3.63074 0
M  V30 1964 H 182.793 2.94227 -4.0797 0
M  V30 1965 H 182.493 1.96406 -5.53804 0
M  V30 1966 H 184.017 2.88339 -5.38231 0
M  V30 1967 H 185.431 0.633978 -5.69784 0
M  V30 1968 H 183.828 -0.0971485 -6.00021 0
M  V30 1969 H 184.898 -0.811711 -4.78058 0
M  V30 1970 N 186.241 1.57166 -0.116904 0
M  V30 1971 C 187.471 1.99184 0.548586 0
M  V30 1972 C 187.879 0.995436 1.60897 0
M  V30 1973 O 187.222 -0.0201293 1.83689 0
M  V30 1974 C 187.284 3.37611 1.23526 0
M  V30 1975 C 186.948 4.55857 0.323077 0
M  V30 1976 C 187.945 5.18056 -0.437476 0
M  V30 1977 C 185.63 5.01751 0.234761 0
M  V30 1978 C 187.624 6.24536 -1.2741 0
M  V30 1979 C 185.311 6.08093 -0.605496 0
M  V30 1980 C 186.309 6.69352 -1.35856 0
M  V30 1981 O 185.997 7.7364 -2.18487 0
M  V30 1982 H 185.729 0.659148 0.149999 0
M  V30 1983 H 188.283 2.0443 -0.199428 0
M  V30 1984 H 186.513 3.29113 2.0303 0
M  V30 1985 H 188.202 3.63932 1.79745 0
M  V30 1986 H 188.968 4.83516 -0.379105 0
M  V30 1987 H 184.847 4.53817 0.810601 0
M  V30 1988 H 188.391 6.72281 -1.86237 0
M  V30 1989 H 184.288 6.42063 -0.665268 0
M  V30 1990 H 185.056 7.90727 -2.11406 0
M  V30 1991 N 187.719 -0.156864 1.56817 0
M  V30 1992 C 188.652 -1.22316 1.9265 0
M  V30 1993 C 189.63 -1.42059 0.791076 0
M  V30 1994 O 190.814 -1.56831 1.04576 0
M  V30 1995 C 187.941 -2.58375 2.18998 0
M  V30 1996 C 186.987 -2.55284 3.41661 0
M  V30 1997 S 187.82 -2.02946 4.95553 0
M  V30 1998 C 188.976 -3.40753 5.25013 0
M  V30 1999 H 189.209 -0.917403 2.82791 0
M  V30 2000 H 186.742 -0.362059 1.50095 0
M  V30 2001 H 188.7 -3.36677 2.34859 0
M  V30 2002 H 187.361 -2.86145 1.29538 0
M  V30 2003 H 186.554 -3.55418 3.57343 0
M  V30 2004 H 186.156 -1.85086 3.24991 0
M  V30 2005 H 188.448 -4.36819 5.17876 0
M  V30 2006 H 189.391 -3.29933 6.26538 0
M  V30 2007 H 189.799 -3.37433 4.52548 0
M  V30 2008 N 189.197 -1.51736 -0.425897 0
M  V30 2009 C 190.613 -1.40166 -0.76326 0
M  V30 2010 C 190.813 -0.492962 -1.95377 0
M  V30 2011 O 189.869 0.0475815 -2.52455 0
M  V30 2012 C 191.182 -2.82403 -1.03291 0
M  V30 2013 C 192.73 -2.91632 -1.13665 0
M  V30 2014 C 193.205 -4.34801 -1.43916 0
M  V30 2015 N 194.696 -4.3796 -1.50816 0
M  V30 2016 C 195.431 -5.4578 -1.75817 0
M  V30 2017 N 194.927 -6.63744 -1.98534 0
M  V30 2018 N 196.72 -5.33274 -1.77694 0
M  V30 2019 H 188.871 -2.09361 0.358 0
M  V30 2020 H 191.134 -0.942941 0.0978094 0
M  V30 2021 H 190.84 -3.50943 -0.230696 0
M  V30 2022 H 190.714 -3.22428 -1.95754 0
M  V30 2023 H 193.101 -2.23284 -1.92947 0
M  V30 2024 H 193.182 -2.55088 -0.190756 0
M  V30 2025 H 192.826 -5.03703 -0.65157 0
M  V30 2026 H 192.756 -4.68868 -2.39729 0
M  V30 2027 H 195.247 -3.52919 -1.35118 0
M  V30 2028 H 195.56 -7.41704 -2.17013 0
M  V30 2029 H 193.905 -6.66839 -1.95832 0
M  V30 2030 H 197.096 -4.40098 -1.59473 0
M  V30 2031 H 197.269 -6.1738 -1.9684 0
M  V30 2032 N 190.675 0.682077 -1.42076 0
M  V30 2033 C 191.924 1.43786 -1.41451 0
M  V30 2034 C 192.237 1.95574 -0.0317074 0
M  V30 2035 O 193.443 2.71326 0.0971462 0
M  V30 2036 C 191.899 2.60071 -2.48779 0
M  V30 2037 C 191.507 2.15013 -3.93031 0
M  V30 2038 C 193.251 3.37626 -2.57311 0
M  V30 2039 C 191.158 3.28336 -4.91883 0
M  V30 2040 H 190.088 0.540143 -0.526082 0
M  V30 2041 H 192.739 0.739157 -1.67955 0
M  V30 2042 H 191.121 3.32275 -2.15429 0
M  V30 2043 H 192.295 1.5001 -4.35699 0
M  V30 2044 H 190.61 1.50416 -3.88284 0
M  V30 2045 H 193.207 4.22012 -3.28345 0
M  V30 2046 H 193.55 3.83727 -1.61429 0
M  V30 2047 H 194.083 2.72488 -2.89819 0
M  V30 2048 H 190.822 2.87234 -5.89217 0
M  V30 2049 H 190.342 3.92145 -4.53853 0
M  V30 2050 H 192.021 3.93913 -5.13265 0
M  V30 2051 N 192.153 1.28127 0.917671 0
M  V30 2052 C 193.569 1.05749 1.19538 0
M  V30 2053 C 193.769 -0.202633 2.00479 0
M  V30 2054 O 192.825 -0.905382 2.3571 0
M  V30 2055 C 194.138 2.30273 1.93378 0
M  V30 2056 C 195.686 2.35412 2.06277 0
M  V30 2057 C 196.161 3.59692 2.83524 0
M  V30 2058 N 197.652 3.60309 2.91087 0
M  V30 2059 C 198.387 4.53147 3.51348 0
M  V30 2060 N 197.883 5.563 4.12919 0
M  V30 2061 N 199.676 4.40751 3.48849 0
M  V30 2062 H 191.827 2.09024 0.377184 0
M  V30 2063 H 194.09 0.919798 0.22951 0
M  V30 2064 H 193.796 3.22055 1.41328 0
M  V30 2065 H 193.67 2.36378 2.93947 0
M  V30 2066 H 196.057 1.4413 2.57508 0
M  V30 2067 H 196.138 2.33304 1.04895 0
M  V30 2068 H 195.782 4.51316 2.32973 0
M  V30 2069 H 195.712 3.59054 3.85211 0
M  V30 2070 H 198.203 2.85714 2.47338 0
M  V30 2071 H 198.516 6.2329 4.56869 0
M  V30 2072 H 196.861 5.60131 4.11435 0
M  V30 2073 H 200.052 3.59367 2.99955 0
M  V30 2074 H 200.225 5.13291 3.9552 0
M  V30 2075 N 193.631 -1.12557 1.10312 0
M  V30 2076 C 194.908 -1.80363 0.756878 0
M  V30 2077 C 195.288 -1.97067 -0.756824 0
M  V30 2078 O 194.636 -1.54601 -1.68259 0
M  V30 2079 C 194.846 -3.14812 1.50647 0
M  V30 2080 C 196.194 -3.90029 1.67817 0
M  V30 2081 O 197.218 -3.24464 1.46974 0
M  V30 2082 O 196.077 -5.07652 2.02365 0
M  V30 2083 H 193.171 -0.780667 0.272926 0
M  V30 2084 H 195.717 -1.19404 1.20586 0
M  V30 2085 H 194.489 -2.97936 2.53672 0
M  V30 2086 H 194.112 -3.83478 1.05026 0
M  V30 2087 N 195.109 -0.891671 -1.2995 0
M  V30 2088 C 196.057 -0.353066 -2.29905 0
M  V30 2089 C 197.051 0.543509 -1.60444 0
M  V30 2090 O 198.257 0.4272 -1.74857 0
M  V30 2091 H 194.632 -0.095531 -0.745907 0
M  V30 2092 H 196.603 -1.20961 -2.72784 0
M  V30 2093 C 195.352 0.411475 -3.45257 0
M  V30 2094 H 194.675 -0.269182 -3.98893 0
M  V30 2095 H 196.115 0.753328 -4.17254 0
M  V30 2096 C 194.574 1.6111 -2.9588 0
M  V30 2097 O 195.104 2.71045 -2.96475 0
M  V30 2098 N 193.31 1.45054 -2.51809 0
M  V30 2099 H 192.857 0.556175 -2.51524 0
M  V30 2100 H 192.815 2.25453 -2.1913 0
M  V30 2101 N 196.587 1.43421 -0.653314 0
M  V30 2102 C 197.833 2.02641 -0.175593 0
M  V30 2103 C 198.188 1.5062 1.19713 0
M  V30 2104 O 197.481 0.689697 1.78756 0
M  V30 2105 C 197.675 3.57176 -0.126623 0
M  V30 2106 C 197.504 4.24191 -1.49306 0
M  V30 2107 C 196.274 4.60257 -2.08547 0
M  V30 2108 C 198.472 4.53193 -2.43148 0
M  V30 2109 N 196.454 5.12345 -3.38194 0
M  V30 2110 C 197.825 5.06601 -3.57429 0
M  V30 2111 C 199.88 4.35161 -2.41949 0
M  V30 2112 C 198.583 5.43875 -4.70736 0
M  V30 2113 C 200.609 4.73498 -3.54336 0
M  V30 2114 C 199.971 5.27039 -4.67343 0
M  V30 2115 H 196.07 0.77441 -0.108686 0
M  V30 2116 H 198.654 1.74596 -0.861638 0
M  V30 2117 H 196.825 3.84784 0.528766 0
M  V30 2118 H 198.557 4.03078 0.36198 0
M  V30 2119 H 195.312 4.45302 -1.61255 0
M  V30 2120 H 195.736 5.42842 -4.04538 0
M  V30 2121 H 200.378 3.9304 -1.55818 0
M  V30 2122 H 198.096 5.8494 -5.57558 0
M  V30 2123 H 201.682 4.61241 -3.5461 0
M  V30 2124 H 200.562 5.56153 -5.52868 0
M  V30 2125 N 198.065 0.39524 1.52563 0
M  V30 2126 C 199.013 -0.451859 2.28169 0
M  V30 2127 C 200.007 -1.05792 1.32304 0
M  V30 2128 O 201.213 -0.997718 1.49818 0
M  V30 2129 H 197.588 -0.164481 0.733792 0
M  V30 2130 H 199.559 0.207199 2.9768 0
M  V30 2131 C 198.308 -1.56385 3.10546 0
M  V30 2132 H 197.631 -1.10682 3.84174 0
M  V30 2133 H 199.071 -2.13067 3.66577 0
M  V30 2134 C 197.53 -2.52328 2.23231 0
M  V30 2135 O 198.06 -3.5588 1.86312 0
M  V30 2136 N 196.266 -2.22209 1.87274 0
M  V30 2137 H 195.813 -1.38033 2.17496 0
M  V30 2138 H 195.771 -2.86652 1.29143 0
M  V30 2139 N 199.544 -1.57102 0.125237 0
M  V30 2140 C 200.96 -1.57915 -0.231322 0
M  V30 2141 C 201.16 -1.13833 -1.66266 0
M  V30 2142 O 200.216 -0.828581 -2.38518 0
M  V30 2143 C 201.529 -3.00699 0.00766489 0
M  V30 2144 C 203.077 -3.12947 -0.0577483 0
M  V30 2145 C 203.552 -4.57742 0.153626 0
M  V30 2146 N 205.043 -4.63092 0.0998073 0
M  V30 2147 C 205.778 -5.72905 0.238174 0
M  V30 2148 N 205.274 -6.91445 0.433057 0
M  V30 2149 N 207.067 -5.6182 0.177308 0
M  V30 2150 H 199.218 -1.84055 1.06007 0
M  V30 2151 H 201.481 -0.850905 0.417929 0
M  V30 2152 H 201.187 -3.3726 0.997431 0
M  V30 2153 H 201.061 -3.70236 -0.721452 0
M  V30 2154 H 203.448 -2.7624 -1.03804 0
M  V30 2155 H 203.529 -2.4594 0.70335 0
M  V30 2156 H 203.173 -4.95149 1.13092 0
M  V30 2157 H 203.103 -5.22848 -0.627534 0
M  V30 2158 H 205.594 -3.77871 -0.047051 0
M  V30 2159 H 205.907 -7.70985 0.529332 0
M  V30 2160 H 204.252 -6.93415 0.469109 0
M  V30 2161 H 207.443 -4.68093 0.0259748 0
M  V30 2162 H 207.616 -6.47357 0.288582 0
M  V30 2163 N 201.022 0.148545 -1.56898 0
M  V30 2164 C 202.433 0.708766 -1.72723 0
M  V30 2165 C 202.784 1.81734 -0.739395 0
M  V30 2166 O 201.909 2.16194 0.0943169 0
M  V30 2167 C 202.504 1.29245 -3.13179 0
M  V30 2168 C 201.063 1.79925 -3.30611 0
M  V30 2169 C 200.21 0.687111 -2.68652 0
M  V30 2170 H 203.161 -0.0771063 -1.58513 0
M  V30 2171 H 203.182 2.16224 -3.13093 0
M  V30 2172 H 202.694 0.485382 -3.85053 0
M  V30 2173 H 200.795 2.63203 -2.63732 0
M  V30 2174 H 200.908 1.92903 -4.38549 0
M  V30 2175 H 199.272 1.11335 -2.29078 0
M  V30 2176 H 200.055 -0.108483 -3.43129 0
M  V30 2177 N 202.5 1.5196 0.417844 0
M  V30 2178 C 203.749 1.6482 1.16264 0
M  V30 2179 C 204.062 0.379886 1.91876 0
M  V30 2180 O 205.268 0.388154 2.68711 0
M  V30 2181 C 203.724 2.91161 2.1155 0
M  V30 2182 C 203.332 4.25068 1.41495 0
M  V30 2183 C 205.076 3.13383 2.86341 0
M  V30 2184 C 202.983 5.42541 2.35379 0
M  V30 2185 H 201.913 0.613954 0.437694 0
M  V30 2186 H 204.564 1.78442 0.427871 0
M  V30 2187 H 202.946 2.71218 2.88543 0
M  V30 2188 H 204.12 4.55463 0.699263 0
M  V30 2189 H 202.435 4.0888 0.787792 0
M  V30 2190 H 205.032 3.98324 3.5671 0
M  V30 2191 H 205.375 2.27256 3.48798 0
M  V30 2192 H 205.908 3.33757 2.1645 0
M  V30 2193 H 202.647 6.30987 1.77582 0
M  V30 2194 H 202.167 5.16497 3.04945 0
M  V30 2195 H 203.846 5.75272 2.96093 0
M  V30 2196 N 203.978 -0.674533 1.42435 0
M  V30 2197 C 205.218 -1.4466 1.44405 0
M  V30 2198 C 205.582 -1.91911 0.0585784 0
M  V30 2199 O 206.783 -2.68759 -0.0469991 0
M  V30 2200 C 205.054 -2.61136 2.44013 0
M  V30 2201 S 206.613 -3.49981 2.64687 0
M  V30 2202 H 203.431 -0.494074 0.511284 0
M  V30 2203 H 206.033 -0.785162 1.7904 0
M  V30 2204 H 204.737 -2.24662 3.43446 0
M  V30 2205 H 204.268 -3.32153 2.10803 0
M  V30 2206 H 206.283 -4.57124 1.93007 0
M  V30 2207 N 205.456 -1.28612 -0.910864 0
M  V30 2208 C 206.681 -1.1891 -1.69927 0
M  V30 2209 C 207.106 0.248372 -1.86453 0
M  V30 2210 O 206.464 1.17961 -1.37676 0
M  V30 2211 C 206.512 -1.89578 -3.06745 0
M  V30 2212 O 205.616 -1.20521 -3.94396 0
M  V30 2213 H 204.957 -0.412632 -0.520222 0
M  V30 2214 H 207.487 -1.69985 -1.1387 0
M  V30 2215 H 207.497 -1.97597 -3.56958 0
M  V30 2216 H 206.172 -2.94136 -2.94035 0
M  V30 2217 H 204.749 -1.20684 -3.52831 0
M  V30 2218 N 206.934 1.1197 -1.10907 0
M  V30 2219 C 208.18 1.8386 -0.855773 0
M  V30 2220 C 208.513 1.84134 0.617103 0
M  V30 2221 O 207.788 1.29041 1.45529 0
M  V30 2222 C 208.071 3.31305 -1.411 0
M  V30 2223 C 207.924 3.39456 -2.9511 0
M  V30 2224 C 209.243 4.2721 -1.05736 0
M  V30 2225 H 206.362 0.667545 -0.312334 0
M  V30 2226 H 209.004 1.31331 -1.37303 0
M  V30 2227 H 207.154 3.76169 -0.97105 0
M  V30 2228 H 208.826 3.03191 -3.47668 0
M  V30 2229 H 207.069 2.79849 -3.31462 0
M  V30 2230 H 207.74 4.43209 -3.29044 0
M  V30 2231 H 210.216 3.90497 -1.43706 0
M  V30 2232 H 209.092 5.28775 -1.47269 0
M  V30 2233 H 209.353 4.42088 0.0325958 0
M  V30 2234 N 208.412 0.89855 1.29475 0
M  V30 2235 C 209.823 0.572537 1.77705 0
M  V30 2236 C 210.174 -0.911778 1.73727 0
M  V30 2237 O 209.299 -1.71288 1.32247 0
M  V30 2238 C 209.894 1.03252 3.22683 0
M  V30 2239 C 208.453 0.757687 3.68695 0
M  V30 2240 C 207.6 1.20787 2.49612 0
M  V30 2241 H 210.551 1.08139 1.16153 0
M  V30 2242 H 210.572 0.367307 3.78723 0
M  V30 2243 H 210.084 2.11285 3.25546 0
M  V30 2244 H 208.185 -0.310079 3.71308 0
M  V30 2245 H 208.298 1.35476 4.59547 0
M  V30 2246 H 206.662 0.626888 2.46865 0
M  V30 2247 H 207.445 2.29622 2.55203 0
M  V30 2248 N 209.89 -1.43072 0.660911 0
M  V30 2249 C 211.138 -2.01323 0.177094 0
M  V30 2250 C 211.459 -1.5245 -1.2159 0
M  V30 2251 O 210.729 -0.740322 -1.81373 0
M  V30 2252 H 209.309 -0.744382 0.0624804 0
M  V30 2253 H 211.971 -1.75179 0.854305 0
M  V30 2254 H 211.067 -3.11649 0.167641 0
M  V30 2255 N 211.368 -0.403325 -1.52352 0
M  V30 2256 C 212.331 0.413051 -2.25447 0
M  V30 2257 C 213.331 0.978513 -1.276 0
M  V30 2258 O 214.521 0.858305 -1.51587 0
M  V30 2259 C 211.653 1.58087 -3.02029 0
M  V30 2260 H 212.846 -0.227094 -2.99039 0
M  V30 2261 H 210.399 -0.155722 -1.55522 0
M  V30 2262 H 211.134 2.25804 -2.32772 0
M  V30 2263 H 210.919 1.18195 -3.73861 0
M  V30 2264 H 212.409 2.1585 -3.57489 0
M  V30 2265 N 212.846 1.57033 -0.133567 0
M  V30 2266 C 214.262 1.58035 0.222944 0
M  V30 2267 C 214.462 1.14713 1.6566 0
M  V30 2268 O 213.518 0.841218 2.38075 0
M  V30 2269 C 214.831 3.00691 -0.0236116 0
M  V30 2270 C 216.379 3.12973 0.0411512 0
M  V30 2271 C 216.854 4.57654 -0.177899 0
M  V30 2272 N 218.345 4.63033 -0.124365 0
M  V30 2273 C 219.08 5.72771 -0.268553 0
M  V30 2274 N 218.576 6.91206 -0.46972 0
M  V30 2275 N 220.369 5.61718 -0.2071 0
M  V30 2276 H 212.52 1.8349 -1.06981 0
M  V30 2277 H 214.783 0.848677 -0.422436 0
M  V30 2278 H 214.489 3.36726 -1.0153 0
M  V30 2279 H 214.363 3.70614 0.701808 0
M  V30 2280 H 216.75 2.76787 1.02338 0
M  V30 2281 H 216.831 2.45564 -0.716383 0
M  V30 2282 H 216.475 4.94542 -1.15717 0
M  V30 2283 H 216.405 5.23173 0.599797 0
M  V30 2284 H 218.896 3.7789 0.027011 0
M  V30 2285 H 219.209 7.70693 -0.570212 0
M  V30 2286 H 217.554 6.93156 -0.505876 0
M  V30 2287 H 220.745 4.68072 -0.0507986 0
M  V30 2288 H 220.918 6.47195 -0.322909 0
M  V30 2289 N 214.325 -0.140222 1.56975 0
M  V30 2290 C 215.571 -0.852949 1.83991 0
M  V30 2291 C 215.904 -1.80512 0.716187 0
M  V30 2292 O 215.179 -1.92479 -0.279681 0
M  V30 2293 C 215.462 -1.6215 3.21527 0
M  V30 2294 C 215.315 -0.690363 4.4447 0
M  V30 2295 C 216.634 -2.58247 3.56366 0
M  V30 2296 H 213.753 -0.308634 0.669264 0
M  V30 2297 H 216.395 -0.117898 1.89634 0
M  V30 2298 H 214.545 -2.24812 3.16847 0
M  V30 2299 H 216.217 -0.0742264 4.6124 0
M  V30 2300 H 214.46 -0.000396433 4.338 0
M  V30 2301 H 215.131 -1.2643 5.37326 0
M  V30 2302 H 217.607 -2.05701 3.61699 0
M  V30 2303 H 216.483 -3.09067 4.53617 0
M  V30 2304 H 216.744 -3.39923 2.82674 0
M  V30 2305 N 215.803 -1.52179 -0.40978 0
M  V30 2306 C 217.08 -1.56769 -1.16974 0
M  V30 2307 C 217.46 -0.348322 -2.08206 0
M  V30 2308 O 216.808 0.664862 -2.18613 0
M  V30 2309 C 217.018 -2.89603 -1.9476 0
M  V30 2310 C 218.366 -3.42579 -2.50849 0
M  V30 2311 O 219.39 -2.91338 -2.04941 0
M  V30 2312 O 218.249 -4.32054 -3.34652 0
M  V30 2313 H 215.343 -0.631439 -0.534054 0
M  V30 2314 H 217.889 -1.64507 -0.416613 0
M  V30 2315 H 216.661 -3.698 -1.27921 0
M  V30 2316 H 216.284 -2.85155 -2.77079 0
M  V30 2317 N 217.281 0.66697 -1.42791 0
M  V30 2318 C 218.53 1.42278 -1.42968 0
M  V30 2319 C 218.843 1.9553 -0.0524489 0
M  V30 2320 O 220.049 2.71414 0.068363 0
M  V30 2321 C 218.505 2.57418 -2.51524 0
M  V30 2322 C 218.113 2.10832 -3.9529 0
M  V30 2323 C 219.857 3.34878 -2.60877 0
M  V30 2324 C 217.764 3.23101 -4.95338 0
M  V30 2325 H 216.694 0.534533 -0.531781 0
M  V30 2326 H 219.345 0.721302 -1.68729 0
M  V30 2327 H 217.727 3.29971 -2.18941 0
M  V30 2328 H 218.901 1.4538 -4.37266 0
M  V30 2329 H 217.216 1.46289 -3.89857 0
M  V30 2330 H 219.813 4.18505 -3.32802 0
M  V30 2331 H 220.156 3.81993 -1.6549 0
M  V30 2332 H 220.689 2.69398 -2.92693 0
M  V30 2333 H 217.428 2.80969 -5.9223 0
M  V30 2334 H 216.948 3.87309 -4.57987 0
M  V30 2335 H 218.627 3.88447 -5.17415 0
M  V30 2336 N 218.759 1.29093 0.90403 0
M  V30 2337 C 219.692 1.08176 2.00931 0
M  V30 2338 C 220.67 -0.005083 1.62599 0
M  V30 2339 O 221.854 0.144765 1.87943 0
M  V30 2340 C 218.981 0.645897 3.32484 0
M  V30 2341 C 218.027 1.73081 3.89801 0
M  V30 2342 S 218.86 3.32905 4.19446 0
M  V30 2343 C 220.016 2.91176 5.54046 0
M  V30 2344 H 220.249 2.01752 2.18365 0
M  V30 2345 H 217.782 1.13191 1.0501 0
M  V30 2346 H 219.74 0.401131 4.08535 0
M  V30 2347 H 218.401 -0.270188 3.12936 0
M  V30 2348 H 217.594 1.37768 4.84805 0
M  V30 2349 H 217.196 1.92888 3.20422 0
M  V30 2350 H 219.488 2.37952 6.34338 0
M  V30 2351 H 220.431 3.85014 5.94281 0
M  V30 2352 H 220.839 2.296 5.15698 0
M  V30 2353 N 220.237 -1.11381 1.11499 0
M  V30 2354 C 221.147 -2.21019 0.786628 0
M  V30 2355 C 222.163 -1.72597 -0.220507 0
M  V30 2356 O 223.339 -2.01321 -0.0565251 0
M  V30 2357 C 220.404 -3.459 0.235333 0
M  V30 2358 C 219.465 -4.09107 1.30115 0
M  V30 2359 C 218.698 -5.28027 0.776068 0
M  V30 2360 O 218.921 -5.6904 -0.393661 0
M  V30 2361 O 217.855 -5.81835 1.54114 0
M  V30 2362 H 221.681 -2.51521 1.70209 0
M  V30 2363 H 219.266 -1.19928 0.890928 0
M  V30 2364 H 221.148 -4.21346 -0.067715 0
M  V30 2365 H 219.823 -3.17049 -0.652828 0
M  V30 2366 H 218.73 -3.35391 1.65722 0
M  V30 2367 H 220.063 -4.42139 2.16273 0
M  V30 2368 N 221.715 -0.905404 -1.28997 0
M  V30 2369 C 223.131 -0.60233 -1.47798 0
M  V30 2370 C 223.331 0.854645 -1.82478 0
M  V30 2371 O 222.387 1.63439 -1.92468 0
M  V30 2372 C 223.7 -1.53306 -2.58685 0
M  V30 2373 C 225.248 -1.53887 -2.72558 0
M  V30 2374 C 225.723 -2.45602 -3.86579 0
M  V30 2375 N 227.214 -2.43681 -3.93921 0
M  V30 2376 C 227.949 -3.11347 -4.81509 0
M  V30 2377 N 227.445 -3.88313 -5.73746 0
M  V30 2378 N 229.238 -3.00476 -4.75048 0
M  V30 2379 H 221.389 -1.84765 -1.04764 0
M  V30 2380 H 223.652 -0.792025 -0.520961 0
M  V30 2381 H 223.358 -2.57141 -2.39941 0
M  V30 2382 H 223.232 -1.25787 -3.55609 0
M  V30 2383 H 225.619 -0.507941 -2.90696 0
M  V30 2384 H 225.7 -1.85447 -1.76191 0
M  V30 2385 H 225.344 -3.48792 -3.69197 0
M  V30 2386 H 225.274 -2.11349 -4.82327 0
M  V30 2387 H 227.765 -1.87767 -3.27951 0
M  V30 2388 H 228.078 -4.36985 -6.37389 0
M  V30 2389 H 226.423 -3.92419 -5.73614 0
M  V30 2390 H 229.614 -2.39858 -4.01977 0
M  V30 2391 H 229.787 -3.53485 -5.43095 0
M  V30 2392 N 223.193 1.4272 -0.668489 0
M  V30 2393 C 224.125 2.2914 0.052613 0
M  V30 2394 C 225.138 1.43339 0.771857 0
M  V30 2395 O 226.327 1.67123 0.627067 0
M  V30 2396 C 223.427 3.20618 1.09804 0
M  V30 2397 C 222.6 4.35039 0.45389 0
M  V30 2398 C 221.659 5.07282 1.39825 0
M  V30 2399 O 220.685 5.62024 0.900978 0
M  V30 2400 N 221.887 5.12206 2.73176 0
M  V30 2401 H 224.652 2.91668 -0.689209 0
M  V30 2402 H 222.213 1.53577 -0.512422 0
M  V30 2403 H 224.205 3.65815 1.73094 0
M  V30 2404 H 222.775 2.59585 1.74167 0
M  V30 2405 H 221.995 3.92567 -0.358396 0
M  V30 2406 H 223.283 5.088 0.00486972 0
M  V30 2407 H 222.681 4.6913 3.16122 0
M  V30 2408 H 221.238 5.61069 3.31729 0
M  V30 2409 N 224.671 0.411399 1.52136 0
M  V30 2410 C 225.896 -0.165538 2.06738 0
M  V30 2411 C 226.321 -1.379 1.27926 0
M  V30 2412 O 225.679 -1.78628 0.310114 0
M  V30 2413 C 225.727 -0.492124 3.57226 0
M  V30 2414 O 224.831 -1.58276 3.80818 0
M  V30 2415 H 224.172 -0.0132132 0.663869 0
M  V30 2416 H 226.702 0.585253 1.96051 0
M  V30 2417 H 226.712 -0.750104 4.01045 0
M  V30 2418 H 225.387 0.394922 4.14021 0
M  V30 2419 H 223.964 -1.31677 3.48877 0
M  V30 2420 N 226.149 -1.5696 0.141893 0
M  V30 2421 C 227.099 -2.13074 -0.811383 0
M  V30 2422 C 228.083 -1.05726 -1.21288 0
M  V30 2423 O 229.275 -1.31914 -1.18015 0
M  V30 2424 C 226.404 -2.75186 -2.0525 0
M  V30 2425 C 225.49 -3.8965 -1.67432 0
M  V30 2426 N 225.881 -4.95733 -1.0041 0
M  V30 2427 C 224.179 -4.00262 -1.96739 0
M  V30 2428 C 224.88 -5.75858 -0.822345 0
M  V30 2429 N 223.856 -5.26452 -1.3546 0
M  V30 2430 H 227.658 -2.92465 -0.290031 0
M  V30 2431 H 225.172 -1.6229 -0.0598218 0
M  V30 2432 H 227.169 -3.13745 -2.74535 0
M  V30 2433 H 225.829 -1.97266 -2.57907 0
M  V30 2434 H 226.84 -5.13607 -0.665441 0
M  V30 2435 H 223.517 -3.33412 -2.51282 0
M  V30 2436 H 224.907 -6.71254 -0.294496 0
M  V30 2437 N 227.627 0.131896 -1.57047 0
M  V30 2438 C 228.904 0.871495 -1.75112 0
M  V30 2439 C 229.284 1.9866 -0.713949 0
M  V30 2440 O 228.632 2.26965 0.264447 0
M  V30 2441 C 228.842 1.40007 -3.19686 0
M  V30 2442 C 230.19 1.85752 -3.81813 0
M  V30 2443 O 231.214 1.49715 -3.23209 0
M  V30 2444 O 230.073 2.5226 -4.84796 0
M  V30 2445 H 227.167 0.412919 -0.716538 0
M  V30 2446 H 229.713 0.116641 -1.69299 0
M  V30 2447 H 228.485 0.599404 -3.86682 0
M  V30 2448 H 228.108 2.218 -3.29986 0
M  V30 2449 N 229.106 1.52395 0.401703 0
M  V30 2450 C 230.336 1.70429 1.1678 0
M  V30 2451 C 230.744 0.416702 1.84554 0
M  V30 2452 O 230.087 -0.617697 1.73003 0
M  V30 2453 C 230.149 2.78919 2.26814 0
M  V30 2454 C 229.813 4.20437 1.79113 0
M  V30 2455 C 230.81 5.04028 1.27482 0
M  V30 2456 C 228.495 4.66704 1.85722 0
M  V30 2457 C 230.489 6.31961 0.830913 0
M  V30 2458 C 228.176 5.94625 1.40942 0
M  V30 2459 C 229.174 6.77082 0.897128 0
M  V30 2460 O 228.862 8.02607 0.455822 0
M  V30 2461 H 228.594 0.574272 0.356634 0
M  V30 2462 H 231.148 1.99767 0.477724 0
M  V30 2463 H 229.378 2.44973 2.99207 0
M  V30 2464 H 231.067 2.8548 2.88541 0
M  V30 2465 H 231.833 4.69471 1.21744 0
M  V30 2466 H 227.712 4.0262 2.24539 0
M  V30 2467 H 231.256 6.96271 0.430368 0
M  V30 2468 H 227.153 6.28688 1.46362 0
M  V30 2469 H 227.921 8.16453 0.578457 0
M  V30 2470 N 230.584 -0.659388 1.43143 0
M  V30 2471 C 231.532 -1.79374 1.4808 0
M  V30 2472 C 232.526 -1.65639 0.354988 0
M  V30 2473 O 233.732 -1.7206 0.528704 0
M  V30 2474 H 230.107 -0.591705 0.4641 0
M  V30 2475 H 232.078 -1.72329 2.43609 0
M  V30 2476 C 230.827 -3.17606 1.41499 0
M  V30 2477 H 230.15 -3.28809 2.27431 0
M  V30 2478 H 231.59 -3.96951 1.49015 0
M  V30 2479 C 230.049 -3.36642 0.131765 0
M  V30 2480 O 230.579 -3.93461 -0.809386 0
M  V30 2481 N 228.785 -2.90567 0.0439396 0
M  V30 2482 H 228.332 -2.44513 0.810619 0
M  V30 2483 H 228.29 -3.03681 -0.813969 0
M  V30 2484 N 232.062 -1.29571 -0.897171 0
M  V30 2485 C 233.308 -1.18873 -1.65048 0
M  V30 2486 C 233.663 0.256707 -1.9068 0
M  V30 2487 O 232.956 1.18202 -1.50794 0
M  V30 2488 C 233.15 -1.9382 -3.00281 0
M  V30 2489 C 232.979 -3.45503 -2.8785 0
M  V30 2490 C 231.749 -4.14856 -2.88483 0
M  V30 2491 C 233.947 -4.40956 -2.64693 0
M  V30 2492 N 231.929 -5.52886 -2.66815 0
M  V30 2493 C 233.3 -5.66464 -2.5203 0
M  V30 2494 C 235.355 -4.3069 -2.49821 0
M  V30 2495 C 234.058 -6.82871 -2.26008 0
M  V30 2496 C 236.084 -5.46852 -2.25182 0
M  V30 2497 C 235.446 -6.71333 -2.13286 0
M  V30 2498 H 231.545 -0.489998 -0.609447 0
M  V30 2499 H 234.129 -1.63431 -1.05822 0
M  V30 2500 H 232.3 -1.51671 -3.57562 0
M  V30 2501 H 234.032 -1.75366 -3.64731 0
M  V30 2502 H 230.787 -3.66579 -2.99861 0
M  V30 2503 H 231.211 -6.25487 -2.59027 0
M  V30 2504 H 235.853 -3.35141 -2.5776 0
M  V30 2505 H 233.571 -7.78473 -2.16806 0
M  V30 2506 H 237.157 -5.40809 -2.14515 0
M  V30 2507 H 236.037 -7.59701 -1.94485 0
M  V30 2508 N 233.54 1.10788 -1.12088 0
M  V30 2509 C 234.765 1.87002 -0.896949 0
M  V30 2510 C 235.19 1.79933 0.548261 0
M  V30 2511 O 234.548 1.16662 1.38779 0
M  V30 2512 C 234.596 3.3349 -1.37174 0
M  V30 2513 O 233.7 4.08745 -0.547831 0
M  V30 2514 H 233.041 0.580397 -0.322545 0
M  V30 2515 H 235.571 1.39996 -1.49206 0
M  V30 2516 H 235.581 3.84339 -1.36922 0
M  V30 2517 H 234.256 3.37951 -2.42408 0
M  V30 2518 H 232.833 3.6776 -0.617034 0
M  V30 2519 N 235.018 0.912232 1.28515 0
M  V30 2520 C 236.265 0.544599 1.95039 0
M  V30 2521 C 236.593 -0.911435 1.71823 0
M  V30 2522 O 235.848 -1.66317 1.03137 0
M  V30 2523 C 236.147 0.798392 3.48368 0
M  V30 2524 C 235.813 2.23374 3.91682 0
M  V30 2525 C 234.475 2.62617 4.03219 0
M  V30 2526 C 236.827 3.16786 4.13879 0
M  V30 2527 C 234.155 3.94429 4.3433 0
M  V30 2528 C 236.507 4.48161 4.46469 0
M  V30 2529 C 235.171 4.8726 4.56217 0
M  V30 2530 H 234.441 0.199283 0.7137 0
M  V30 2531 H 237.088 1.15327 1.52879 0
M  V30 2532 H 235.393 0.106908 3.91654 0
M  V30 2533 H 237.09 0.493141 3.97956 0
M  V30 2534 H 233.68 1.91922 3.83228 0
M  V30 2535 H 237.864 2.87677 4.0442 0
M  V30 2536 H 233.12 4.24426 4.40082 0
M  V30 2537 H 237.294 5.20559 4.62592 0
M  V30 2538 H 234.921 5.89431 4.80078 0
M  V30 2539 N 236.496 -1.42363 0.676048 0
M  V30 2540 C 237.443 -2.308 -0.00150904 0
M  V30 2541 C 238.413 -1.46032 -0.791444 0
M  V30 2542 O 239.598 -1.74861 -0.76344 0
M  V30 2543 C 236.738 -3.31883 -0.945919 0
M  V30 2544 C 235.851 -4.31741 -0.149675 0
M  V30 2545 C 234.986 -5.19898 -1.08995 0
M  V30 2546 C 234.025 -6.11434 -0.285465 0
M  V30 2547 N 233.162 -6.92138 -1.17851 0
M  V30 2548 H 238.002 -2.88187 0.758455 0
M  V30 2549 H 235.539 -1.41952 0.38576 0
M  V30 2550 H 237.497 -3.89019 -1.50731 0
M  V30 2551 H 236.127 -2.76093 -1.6725 0
M  V30 2552 H 235.179 -3.76713 0.528359 0
M  V30 2553 H 236.491 -4.96534 0.474866 0
M  V30 2554 H 235.645 -5.81772 -1.72123 0
M  V30 2555 H 234.384 -4.55284 -1.74837 0
M  V30 2556 H 233.389 -5.48627 0.359018 0
M  V30 2557 H 234.614 -6.78097 0.368883 0
M  V30 2558 H 232.56 -6.30152 -1.82332 0
M  V30 2559 H 232.477 -7.53542 -0.609082 0
M  V30 2560 H 233.745 -7.58499 -1.79722 0
M  V30 2561 N 237.974 -0.419461 -1.51915 0
M  V30 2562 C 239.204 0.151915 -2.06041 0
M  V30 2563 C 239.612 1.38539 -1.28855 0
M  V30 2564 O 238.955 1.80592 -0.336463 0
M  V30 2565 C 239.017 0.557119 -3.55157 0
M  V30 2566 C 238.681 -0.567054 -4.53468 0
M  V30 2567 C 239.678 -1.43379 -4.99738 0
M  V30 2568 C 237.363 -0.742693 -4.96779 0
M  V30 2569 C 239.357 -2.46102 -5.87973 0
M  V30 2570 C 237.044 -1.77322 -5.84808 0
M  V30 2571 C 238.042 -2.63078 -6.30301 0
M  V30 2572 O 237.73 -3.64364 -7.16585 0
M  V30 2573 H 237.462 0.0193293 -0.675724 0
M  V30 2574 H 240.016 -0.592073 -1.96682 0
M  V30 2575 H 238.246 1.35355 -3.62238 0
M  V30 2576 H 239.935 1.05759 -3.9188 0
M  V30 2577 H 240.701 -1.30954 -4.66986 0
M  V30 2578 H 236.58 -0.0848307 -4.60922 0
M  V30 2579 H 240.124 -3.13071 -6.23404 0
M  V30 2580 H 236.021 -1.89773 -6.16974 0
M  V30 2581 H 236.789 -3.60731 -7.34721 0
M  V30 2582 N 239.452 1.56882 -0.150215 0
M  V30 2583 C 240.68 2.00593 0.506948 0
M  V30 2584 C 241.095 1.03033 1.58208 0
M  V30 2585 O 240.452 0.0278396 1.82479 0
M  V30 2586 C 240.503 3.44209 1.10465 0
M  V30 2587 O 240.224 4.3804 0.0724636 0
M  V30 2588 C 241.725 4.03214 1.84211 0
M  V30 2589 H 238.945 0.65795 0.13169 0
M  V30 2590 H 241.489 2.03018 -0.245743 0
M  V30 2591 H 239.644 3.42625 1.80795 0
M  V30 2592 H 240.058 5.22007 0.510793 0
M  V30 2593 H 241.532 5.0569 2.21318 0
M  V30 2594 H 242.009 3.44107 2.72923 0
M  V30 2595 H 242.615 4.08437 1.18572 0
M  V30 2596 N 240.93 -0.123565 1.57115 0
M  V30 2597 C 242.178 -0.83051 1.84247 0
M  V30 2598 C 242.499 -1.80629 0.73471 0
M  V30 2599 O 241.769 -1.94403 -0.241688 0
M  V30 2600 H 240.349 -0.309694 0.679778 0
M  V30 2601 H 243.011 -0.111976 1.94578 0
M  V30 2602 H 242.107 -1.37852 2.80006 0
M  V30 2603 N 242.408 -1.52605 -0.393616 0
M  V30 2604 C 243.356 -1.77688 -1.50099 0
M  V30 2605 C 244.35 -0.644615 -1.56656 0
M  V30 2606 O 245.556 -0.826997 -1.59877 0
M  V30 2607 H 241.931 -0.562159 -0.499481 0
M  V30 2608 H 243.902 -2.7043 -1.26135 0
M  V30 2609 C 242.651 -1.95858 -2.87289 0
M  V30 2610 H 241.974 -2.8241 -2.82992 0
M  V30 2611 H 243.414 -2.174 -3.64024 0
M  V30 2612 C 241.873 -0.729848 -3.28899 0
M  V30 2613 O 242.403 0.0949217 -4.01588 0
M  V30 2614 N 240.609 -0.561283 -2.85128 0
M  V30 2615 H 240.156 -1.23357 -2.26143 0
M  V30 2616 H 240.114 0.2595 -3.13327 0
M  V30 2617 N 243.887 0.651787 -1.4349 0
M  V30 2618 C 245.136 1.40754 -1.44469 0
M  V30 2619 C 245.449 1.95463 -0.0731845 0
M  V30 2620 O 246.655 2.71471 0.0395721 0
M  V30 2621 C 245.111 2.54735 -2.5424 0
M  V30 2622 C 244.719 2.06628 -3.97504 0
M  V30 2623 C 246.463 3.32092 -2.64414 0
M  V30 2624 C 244.37 3.17829 -4.98737 0
M  V30 2625 H 243.3 0.528862 -0.53742 0
M  V30 2626 H 245.951 0.703365 -1.69485 0
M  V30 2627 H 244.333 3.2763 -2.22428 0
M  V30 2628 H 245.507 1.40734 -4.38783 0
M  V30 2629 H 243.822 1.42146 -3.91387 0
M  V30 2630 H 246.419 4.14952 -3.37223 0
M  V30 2631 H 246.762 3.80217 -1.69532 0
M  V30 2632 H 247.295 2.66279 -2.95534 0
M  V30 2633 H 244.034 2.74671 -5.95177 0
M  V30 2634 H 243.554 3.82429 -4.62069 0
M  V30 2635 H 245.233 3.82937 -5.21505 0
M  V30 2636 N 245.365 1.30045 0.890287 0
M  V30 2637 C 246.614 1.17929 1.63633 0
M  V30 2638 C 246.927 -0.266204 1.9378 0
M  V30 2639 O 248.133 -0.508804 2.6669 0
M  V30 2640 C 246.589 2.06317 2.94892 0
M  V30 2641 C 246.197 3.55745 2.72305 0
M  V30 2642 C 247.941 2.0295 3.72843 0
M  V30 2643 C 245.848 4.36205 3.99348 0
M  V30 2644 H 244.778 0.437782 0.613892 0
M  V30 2645 H 247.429 1.54754 0.986075 0
M  V30 2646 H 245.811 1.6237 3.61182 0
M  V30 2647 H 246.985 4.07805 2.1455 0
M  V30 2648 H 245.3 3.6088 2.07737 0
M  V30 2649 H 247.897 2.60319 4.67053 0
M  V30 2650 H 248.24 1.0117 4.0382 0
M  V30 2651 H 248.773 2.4499 3.13408 0
M  V30 2652 H 245.512 5.38659 3.73533 0
M  V30 2653 H 245.032 3.8891 4.56628 0
M  V30 2654 H 246.711 4.47362 4.67415 0
M  V30 2655 N 246.843 -1.10192 1.12674 0
M  V30 2656 C 247.79 -2.16606 0.796906 0
M  V30 2657 C 248.76 -1.64394 -0.237476 0
M  V30 2658 O 249.945 -1.90474 -0.111484 0
M  V30 2659 C 247.085 -3.44116 0.26043 0
M  V30 2660 C 246.198 -4.10268 1.35293 0
M  V30 2661 C 245.333 -5.25507 0.775621 0
M  V30 2662 C 244.372 -5.83567 1.84706 0
M  V30 2663 N 243.509 -6.90179 1.28829 0
M  V30 2664 H 248.349 -2.44163 1.70846 0
M  V30 2665 H 245.886 -1.19846 0.85295 0
M  V30 2666 H 247.844 -4.17143 -0.0686814 0
M  V30 2667 H 246.474 -3.16901 -0.614274 0
M  V30 2668 H 245.526 -3.35184 1.79877 0
M  V30 2669 H 246.838 -4.4946 2.16303 0
M  V30 2670 H 245.992 -6.05398 0.397327 0
M  V30 2671 H 244.731 -4.87656 -0.0656581 0
M  V30 2672 H 243.736 -5.02344 2.23452 0
M  V30 2673 H 244.961 -6.23482 2.69161 0
M  V30 2674 H 242.907 -6.54322 0.468881 0
M  V30 2675 H 242.824 -7.28097 2.03497 0
M  V30 2676 H 244.092 -7.73844 0.937311 0
M  V30 2677 N 248.321 -0.919034 -1.28029 0
M  V30 2678 C 249.569 -0.553838 -1.94363 0
M  V30 2679 C 249.89 0.906357 -1.72656 0
M  V30 2680 O 249.16 1.64143 -1.0693 0
M  V30 2681 H 247.74 -0.201834 -0.719216 0
M  V30 2682 H 250.402 -1.16954 -1.55909 0
M  V30 2683 H 249.498 -0.752758 -3.02886 0
M  V30 2684 N 249.799 1.42003 -0.683588 0
M  V30 2685 C 251.045 2.01712 -0.209825 0
M  V30 2686 C 251.378 1.53968 1.18353 0
M  V30 2687 O 250.653 0.745661 1.79639 0
M  V30 2688 C 250.936 3.59202 -0.254197 0
M  V30 2689 C 250.789 4.17102 -1.68363 0
M  V30 2690 C 252.108 4.38344 0.392709 0
M  V30 2691 H 249.227 0.732891 -0.0777189 0
M  V30 2692 H 251.869 1.68909 -0.87004 0
M  V30 2693 H 250.019 3.87278 0.307954 0
M  V30 2694 H 251.691 3.99946 -2.29871 0
M  V30 2695 H 249.934 3.72597 -2.22157 0
M  V30 2696 H 250.605 5.26249 -1.6663 0
M  V30 2697 H 253.081 4.16011 -0.0859162 0
M  V30 2698 H 251.957 5.47901 0.331063 0
M  V30 2699 H 252.218 4.16887 1.47164 0
M  V30 2700 N 251.277 0.427512 1.51691 0
M  V30 2701 C 252.526 -0.143679 2.01188 0
M  V30 2702 C 252.839 -1.44642 1.31674 0
M  V30 2703 O 254.045 -2.09997 1.72086 0
M  V30 2704 C 252.501 -0.306602 3.58592 0
M  V30 2705 C 252.109 0.985125 4.37035 0
M  V30 2706 C 253.853 -0.832091 4.16265 0
M  V30 2707 C 251.76 0.788382 5.86122 0
M  V30 2708 H 250.69 -0.0574701 0.751807 0
M  V30 2709 H 253.341 0.555772 1.74881 0
M  V30 2710 H 251.723 -1.06882 3.81303 0
M  V30 2711 H 252.897 1.75492 4.26074 0
M  V30 2712 H 251.212 1.4384 3.90767 0
M  V30 2713 H 253.809 -0.995617 5.25349 0
M  V30 2714 H 254.152 -1.81186 3.74803 0
M  V30 2715 H 254.685 -0.128444 3.97593 0
M  V30 2716 H 251.424 1.74025 6.31978 0
M  V30 2717 H 250.944 0.0582143 5.99772 0
M  V30 2718 H 252.623 0.437722 6.45518 0
M  V30 2719 N 252.755 -1.56801 0.158532 0
M  V30 2720 C 253.703 -2.18638 -0.793729 0
M  V30 2721 C 254.697 -1.14669 -1.24689 0
M  V30 2722 O 255.903 -1.32895 -1.21403 0
M  V30 2723 H 252.278 -0.700226 -0.274204 0
M  V30 2724 H 254.249 -2.97367 -0.248095 0
M  V30 2725 C 252.998 -2.83139 -2.0181 0
M  V30 2726 H 252.321 -3.62863 -1.67841 0
M  V30 2727 H 253.761 -3.29894 -2.66357 0
M  V30 2728 C 252.22 -1.82244 -2.83353 0
M  V30 2729 O 252.75 -1.3 -3.80083 0
M  V30 2730 N 250.956 -1.51288 -2.48114 0
M  V30 2731 H 250.503 -1.93964 -1.69516 0
M  V30 2732 H 250.461 -0.840296 -3.02963 0
M  V30 2733 N 254.233 0.115231 -1.57178 0
M  V30 2734 C 255.166 1.17166 -1.95825 0
M  V30 2735 C 256.144 1.39912 -0.828463 0
M  V30 2736 O 257.328 1.54004 -1.08697 0
M  V30 2737 C 254.455 2.52478 -2.25771 0
M  V30 2738 C 253.501 2.46136 -3.48309 0
M  V30 2739 S 254.334 1.89736 -5.0076 0
M  V30 2740 C 255.49 3.26713 -5.33863 0
M  V30 2741 H 255.723 0.842103 -2.85124 0
M  V30 2742 H 253.256 0.322136 -1.51002 0
M  V30 2743 H 255.214 3.30332 -2.43702 0
M  V30 2744 H 253.875 2.82609 -1.37079 0
M  V30 2745 H 253.068 3.45819 -3.66641 0
M  V30 2746 H 252.67 1.76404 -3.29784 0
M  V30 2747 H 254.962 4.22935 -5.29275 0
M  V30 2748 H 255.905 3.13205 -6.35065 0
M  V30 2749 H 256.313 3.25316 -4.61335 0
M  V30 2750 N 255.711 1.52812 0.385517 0
M  V30 2751 C 256.959 1.67694 1.12797 0
M  V30 2752 C 257.28 0.421115 1.90399 0
M  V30 2753 O 256.55 -0.564551 1.87589 0
M  V30 2754 H 255.13 0.618155 0.419396 0
M  V30 2755 H 257.792 1.89938 0.436972 0
M  V30 2756 H 256.888 2.52896 1.82894 0
M  V30 2757 N 257.189 -0.644168 1.43834 0
M  V30 2758 C 258.414 -1.43642 1.49605 0
M  V30 2759 C 258.839 -1.8773 0.117913 0
M  V30 2760 O 258.197 -1.57938 -0.890239 0
M  V30 2761 C 258.245 -2.6416 2.45463 0
M  V30 2762 O 257.349 -3.63538 1.94714 0
M  V30 2763 H 256.69 -0.430329 0.50568 0
M  V30 2764 H 259.22 -0.787448 1.8884 0
M  V30 2765 H 259.23 -3.11864 2.63068 0
M  V30 2766 H 257.905 -2.31414 3.45572 0
M  V30 2767 H 256.482 -3.2273 1.86814 0
M  V30 2768 N 258.668 -1.30515 -0.883378 0
M  V30 2769 C 259.898 -1.22182 -1.66599 0
M  V30 2770 C 260.306 0.217507 -1.87946 0
M  V30 2771 O 259.649 1.1554 -1.42815 0
M  V30 2772 C 259.711 -1.88146 -3.06335 0
M  V30 2773 C 259.375 -3.37476 -3.08154 0
M  V30 2774 C 260.372 -4.33443 -2.87094 0
M  V30 2775 C 258.057 -3.7895 -3.29701 0
M  V30 2776 C 260.051 -5.68858 -2.8754 0
M  V30 2777 C 257.738 -5.14482 -3.29776 0
M  V30 2778 C 258.736 -6.09246 -3.0872 0
M  V30 2779 O 258.424 -7.42302 -3.08615 0
M  V30 2780 H 258.156 -0.423898 -0.52658 0
M  V30 2781 H 260.71 -1.72703 -1.11188 0
M  V30 2782 H 258.94 -1.32157 -3.63416 0
M  V30 2783 H 260.629 -1.7391 -3.66756 0
M  V30 2784 H 261.395 -4.02733 -2.70243 0
M  V30 2785 H 257.274 -3.05631 -3.45124 0
M  V30 2786 H 260.818 -6.428 -2.71024 0
M  V30 2787 H 256.715 -5.44832 -3.46163 0
M  V30 2788 H 257.483 -7.5131 -3.24769 0
M  V30 2789 N 260.146 1.09593 -1.13257 0
M  V30 2790 C 261.094 2.18271 -0.803783 0
M  V30 2791 C 262.088 1.68054 0.213148 0
M  V30 2792 O 263.294 1.79862 0.0704699 0
M  V30 2793 H 259.669 0.711949 -0.242143 0
M  V30 2794 H 261.64 2.43235 -1.72856 0
M  V30 2795 C 260.389 3.46536 -0.28424 0
M  V30 2796 H 259.712 3.85545 -1.05807 0
M  V30 2797 H 261.152 4.23899 -0.0925945 0
M  V30 2798 C 259.611 3.22036 0.989684 0
M  V30 2799 O 260.141 3.44509 2.06584 0
M  V30 2800 N 258.347 2.7565 0.920086 0
M  V30 2801 H 257.894 2.57562 0.0442019 0
M  V30 2802 H 257.852 2.59635 1.77306 0
M  V30 2803 N 261.624 0.925811 1.2754 0
M  V30 2804 C 262.854 0.580666 1.98272 0
M  V30 2805 C 263.262 -0.845207 1.69272 0
M  V30 2806 O 262.605 -1.57306 0.948707 0
M  V30 2807 C 262.667 0.724418 3.52126 0
M  V30 2808 C 262.331 2.12206 4.04744 0
M  V30 2809 C 263.328 3.09604 4.17662 0
M  V30 2810 C 261.013 2.4385 4.39138 0
M  V30 2811 C 263.007 4.36755 4.64246 0
M  V30 2812 C 260.694 3.71237 4.85414 0
M  V30 2813 C 261.692 4.67503 4.97926 0
M  V30 2814 O 261.38 5.92624 5.43187 0
M  V30 2815 H 261.112 0.218987 0.639547 0
M  V30 2816 H 263.666 1.24452 1.63404 0
M  V30 2817 H 261.896 0.0034663 3.867 0
M  V30 2818 H 263.585 0.384607 4.04074 0
M  V30 2819 H 264.351 2.86478 3.91351 0
M  V30 2820 H 260.23 1.69665 4.28643 0
M  V30 2821 H 263.774 5.11898 4.73927 0
M  V30 2822 H 259.671 3.94182 5.11166 0
M  V30 2823 H 260.439 5.95585 5.61445 0
M  V30 2824 N 263.102 -1.41638 0.69111 0
M  V30 2825 C 264.032 -2.3347 0.037248 0
M  V30 2826 C 265.013 -1.51575 -0.771947 0
M  V30 2827 O 266.198 -1.80126 -0.72582 0
M  V30 2828 C 263.328 -3.35354 -0.903064 0
M  V30 2829 C 262.282 -4.27526 -0.201288 0
M  V30 2830 C 261.608 -5.19747 -1.25565 0
M  V30 2831 C 262.908 -5.13959 0.929689 0
M  V30 2832 H 264.602 -2.88397 0.804227 0
M  V30 2833 H 262.148 -1.38669 0.388189 0
M  V30 2834 H 264.101 -3.98519 -1.36969 0
M  V30 2835 H 262.825 -2.78767 -1.70166 0
M  V30 2836 H 261.484 -3.65779 0.245265 0
M  V30 2837 H 261.132 -4.59479 -2.04666 0
M  V30 2838 H 260.832 -5.8225 -0.791128 0
M  V30 2839 H 262.356 -5.85789 -1.72288 0
M  V30 2840 H 263.77 -5.70718 0.543546 0
M  V30 2841 H 262.167 -5.85379 1.32103 0
M  V30 2842 H 263.237 -4.51389 1.77133 0
M  V30 2843 N 264.58 -0.43555 -1.51462 0
M  V30 2844 C 265.828 0.131254 -2.01673 0
M  V30 2845 C 266.149 1.43368 -1.32177 0
M  V30 2846 O 265.419 1.90524 -0.455769 0
M  V30 2847 H 263.999 0.0514954 -0.745223 0
M  V30 2848 H 266.661 -0.577847 -1.86137 0
M  V30 2849 H 265.757 0.308446 -3.10572 0
M  V30 2850 N 266.058 1.56714 -0.166846 0
M  V30 2851 C 267.305 1.96747 0.479252 0
M  V30 2852 C 267.633 1.05263 1.63554 0
M  V30 2853 O 266.888 0.0858098 1.95512 0
M  V30 2854 C 267.187 3.42889 1.00806 0
M  V30 2855 C 266.853 4.50889 -0.0318574 0
M  V30 2856 C 265.515 4.8015 -0.317675 0
M  V30 2857 C 267.867 5.15949 -0.737956 0
M  V30 2858 C 265.195 5.71772 -1.31506 0
M  V30 2859 C 267.547 6.08647 -1.72429 0
M  V30 2860 C 266.211 6.36277 -2.0176 0
M  V30 2861 H 265.481 0.719949 0.175371 0
M  V30 2862 H 268.128 1.89756 -0.257864 0
M  V30 2863 H 266.433 3.4681 1.82291 0
M  V30 2864 H 268.13 3.71203 1.51689 0
M  V30 2865 H 264.72 4.28128 0.201088 0
M  V30 2866 H 268.904 4.93458 -0.530351 0
M  V30 2867 H 264.16 5.91465 -1.54853 0
M  V30 2868 H 268.334 6.58129 -2.27682 0
M  V30 2869 H 265.961 7.07075 -2.79194 0
M  V30 2870 N 267.536 -0.106894 1.57237 0
M  V30 2871 C 268.499 -1.11466 2.0027 0
M  V30 2872 C 269.499 -1.33623 0.894519 0
M  V30 2873 O 270.689 -1.29935 1.16028 0
M  V30 2874 C 267.821 -2.46646 2.35327 0
M  V30 2875 H 269.014 -0.744516 2.90512 0
M  V30 2876 H 266.567 -0.351576 1.52295 0
M  V30 2877 H 267.302 -2.88558 1.48003 0
M  V30 2878 H 267.087 -2.31915 3.16161 0
M  V30 2879 H 268.577 -3.19151 2.69318 0
M  V30 2880 N 269.014 -1.53014 -0.377408 0
M  V30 2881 C 270.43 -1.42523 -0.718281 0
M  V30 2882 C 270.63 -0.55487 -1.9371 0
M  V30 2883 O 269.686 -0.0327593 -2.52479 0
M  V30 2884 C 270.999 -2.85546 -0.942539 0
M  V30 2885 C 272.547 -2.95101 -1.04329 0
M  V30 2886 C 273.022 -4.3916 -1.3001 0
M  V30 2887 N 274.513 -4.42536 -1.36806 0
M  V30 2888 C 275.248 -5.51097 -1.58364 0
M  V30 2889 N 274.744 -6.69724 -1.77317 0
M  V30 2890 N 276.537 -5.38657 -1.60638 0
M  V30 2891 H 268.688 -2.08116 0.424426 0
M  V30 2892 H 270.951 -0.939352 0.127759 0
M  V30 2893 H 270.657 -3.51499 -0.118929 0
M  V30 2894 H 270.531 -3.28493 -1.85397 0
M  V30 2895 H 272.918 -2.29309 -1.85745 0
M  V30 2896 H 272.999 -2.55566 -0.109505 0
M  V30 2897 H 272.643 -5.05521 -0.490991 0
M  V30 2898 H 272.573 -4.76258 -2.24691 0
M  V30 2899 H 275.064 -3.57039 -1.23821 0
M  V30 2900 H 275.377 -7.48233 -1.93306 0
M  V30 2901 H 273.722 -6.72732 -1.74518 0
M  V30 2902 H 276.913 -4.44948 -1.45391 0
M  V30 2903 H 277.086 -6.2333 -1.77098 0
M  V30 2904 N 270.492 0.636531 -1.44174 0
M  V30 2905 C 271.44 1.76995 -1.50915 0
M  V30 2906 C 272.434 1.65053 -0.381295 0
M  V30 2907 O 273.64 1.71197 -0.55601 0
M  V30 2908 H 270.015 0.584247 -0.473455 0
M  V30 2909 H 271.986 1.68432 -2.4632 0
M  V30 2910 C 270.735 3.15314 -1.46534 0
M  V30 2911 H 270.058 3.25149 -2.32633 0
M  V30 2912 H 271.498 3.9453 -1.55312 0
M  V30 2913 C 269.957 3.3639 -0.185305 0
M  V30 2914 O 270.487 3.94699 0.746688 0
M  V30 2915 N 268.693 2.9046 -0.0901606 0
M  V30 2916 H 268.24 2.43193 -0.849416 0
M  V30 2917 H 268.198 3.04937 0.765553 0
M  V30 2918 N 271.97 1.30982 0.876444 0
M  V30 2919 C 273.198 1.23242 1.6619 0
M  V30 2920 C 273.613 -0.203345 1.87702 0
M  V30 2921 O 272.97 -1.13317 1.43057 0
M  V30 2922 C 273.021 1.96623 3.03351 0
M  V30 2923 O 272.742 3.34594 2.82804 0
M  V30 2924 C 274.243 1.95644 3.97792 0
M  V30 2925 H 271.463 0.426126 0.518322 0
M  V30 2926 H 274.007 1.7275 1.09442 0
M  V30 2927 H 272.162 1.50892 3.56806 0
M  V30 2928 H 272.576 3.71873 3.69879 0
M  V30 2929 H 274.05 2.51511 4.91372 0
M  V30 2930 H 274.527 0.937395 4.2908 0
M  V30 2931 H 275.133 2.41225 3.50272 0
M  V30 2932 N 273.449 -1.08991 1.13837 0
M  V30 2933 C 274.697 -1.80899 0.901098 0
M  V30 2934 C 275.018 -1.86356 -0.574134 0
M  V30 2935 O 274.288 -1.35235 -1.41733 0
M  V30 2936 H 272.868 -0.669966 0.330386 0
M  V30 2937 H 275.53 -1.318 1.43578 0
M  V30 2938 H 274.626 -2.83929 1.29578 0
M  V30 2939 N 274.927 -0.932562 -1.27047 0
M  V30 2940 C 276.152 -0.591474 -1.98787 0
M  V30 2941 C 276.577 0.824601 -1.69062 0
M  V30 2942 O 275.935 1.5541 -0.933677 0
M  V30 2943 C 275.983 -0.829808 -3.50922 0
M  V30 2944 O 275.087 0.102266 -4.12273 0
M  V30 2945 H 274.428 -0.227185 -0.623926 0
M  V30 2946 H 276.958 -1.25314 -1.61733 0
M  V30 2947 H 276.968 -0.747292 -4.01098 0
M  V30 2948 H 275.643 -1.86201 -3.7189 0
M  V30 2949 H 274.22 -0.0305761 -3.72887 0
M  V30 2950 N 276.405 1.4127 -0.698611 0
M  V30 2951 C 277.645 2.03044 -0.235062 0
M  V30 2952 C 278.009 1.54146 1.14468 0
M  V30 2953 O 279.21 2.07867 1.70425 0
M  V30 2954 C 277.481 3.56192 -0.293651 0
M  V30 2955 S 279.04 4.38696 0.0954053 0
M  V30 2956 H 275.858 0.704697 -0.0944648 0
M  V30 2957 H 278.46 1.72656 -0.917064 0
M  V30 2958 H 277.164 3.89274 -1.29977 0
M  V30 2959 H 276.695 3.91285 0.407397 0
M  V30 2960 H 278.71 4.78257 1.3223 0
M  V30 2961 N 277.883 0.443576 1.51229 0
M  V30 2962 C 278.815 -0.400608 2.25672 0
M  V30 2963 C 279.828 -0.980945 1.29928 0
M  V30 2964 O 281.017 -0.874024 1.55638 0
M  V30 2965 C 278.117 -1.57304 3.00181 0
M  V30 2966 C 277.29 -1.11046 4.23069 0
M  V30 2967 C 276.349 -2.15374 4.80105 0
M  V30 2968 O 275.375 -1.74554 5.41774 0
M  V30 2969 N 276.577 -3.47922 4.64683 0
M  V30 2970 H 279.342 0.23745 2.98758 0
M  V30 2971 H 276.903 0.272809 1.59585 0
M  V30 2972 H 278.895 -2.26733 3.35223 0
M  V30 2973 H 277.465 -2.11632 2.30066 0
M  V30 2974 H 276.685 -0.243019 3.9345 0
M  V30 2975 H 277.973 -0.778888 5.02803 0
M  V30 2976 H 277.371 -3.83815 4.15575 0
M  V30 2977 H 275.928 -4.13228 5.0407 0
M  V30 2978 N 279.361 -1.56624 0.175154 0
M  V30 2979 C 280.271 -2.21741 -0.766042 0
M  V30 2980 C 281.287 -1.21023 -1.25018 0
M  V30 2981 O 282.463 -1.53697 -1.3015 0
M  V30 2982 C 279.528 -2.84839 -1.97655 0
M  V30 2983 C 278.589 -4.00769 -1.53892 0
M  V30 2984 C 277.822 -4.60849 -2.69173 0
M  V30 2985 O 278.045 -4.19823 -3.86141 0
M  V30 2986 O 276.979 -5.50655 -2.43028 0
M  V30 2987 H 280.805 -3.02738 -0.241585 0
M  V30 2988 H 278.39 -1.49305 -0.053222 0
M  V30 2989 H 280.272 -3.24834 -2.68442 0
M  V30 2990 H 278.947 -2.06836 -2.48999 0
M  V30 2991 H 277.854 -3.65436 -0.80044 0
M  V30 2992 H 279.187 -4.80376 -1.07236 0
M  V30 2993 N 280.839 0.0985539 -1.57292 0
M  V30 2994 C 281.802 1.10402 -2.00858 0
M  V30 2995 C 282.802 1.33146 -0.901593 0
M  V30 2996 O 283.992 1.29318 -1.16716 0
M  V30 2997 C 281.124 2.45394 -2.36632 0
M  V30 2998 H 282.317 0.729099 -2.90902 0
M  V30 2999 H 279.87 0.343495 -1.52479 0
M  V30 3000 H 280.605 2.87769 -1.49531 0
M  V30 3001 H 280.39 2.30235 -3.17387 0
M  V30 3002 H 281.88 3.17718 -2.71007 0
M  V30 3003 N 282.317 1.53212 0.369288 0
M  V30 3004 C 283.28 1.7872 1.43498 0
M  V30 3005 C 284.28 0.657554 1.46741 0
M  V30 3006 O 285.47 0.925736 1.47566 0
M  V30 3007 C 282.602 1.90591 2.82645 0
M  V30 3008 H 283.795 2.73894 1.22156 0
M  V30 3009 H 281.348 1.44233 0.602203 0
M  V30 3010 H 282.083 0.974709 3.09306 0
M  V30 3011 H 281.868 2.72751 2.8169 0
M  V30 3012 H 283.358 2.11931 3.59826 0
M  V30 3013 N 283.795 -0.628877 1.44509 0
M  V30 3014 C 284.758 -1.72263 1.51188 0
M  V30 3015 C 285.758 -1.55907 0.39367 0
M  V30 3016 O 286.948 -1.61361 0.656377 0
M  V30 3017 C 284.08 -3.11365 1.38798 0
M  V30 3018 H 285.273 -1.67714 2.4862 0
M  V30 3019 H 282.826 -0.842737 1.31634 0
M  V30 3020 H 283.561 -3.21507 0.424693 0
M  V30 3021 H 283.346 -3.24644 2.19884 0
M  V30 3022 H 284.836 -3.91075 1.46458 0
M  V30 3023 N 285.273 -1.31445 -0.869486 0
M  V30 3024 C 286.22 -1.19135 -1.97675 0
M  V30 3025 C 287.19 -0.0770266 -1.65921 0
M  V30 3026 O 288.375 -0.249972 -1.89155 0
M  V30 3027 C 285.515 -0.905149 -3.33018 0
M  V30 3028 C 284.628 -2.10285 -3.77365 0
M  V30 3029 C 283.763 -1.75339 -5.01427 0
M  V30 3030 C 282.802 -2.91515 -5.38224 0
M  V30 3031 N 281.939 -2.56762 -6.53466 0
M  V30 3032 H 286.779 -2.13853 -2.07535 0
M  V30 3033 H 284.316 -1.06379 -1.01597 0
M  V30 3034 H 286.274 -0.719765 -4.10944 0
M  V30 3035 H 284.904 0.00519624 -3.228 0
M  V30 3036 H 283.956 -2.39899 -2.95216 0
M  V30 3037 H 285.268 -2.97237 -4.00564 0
M  V30 3038 H 284.422 -1.53266 -5.87022 0
M  V30 3039 H 283.161 -0.855801 -4.80133 0
M  V30 3040 H 282.166 -3.14237 -4.51149 0
M  V30 3041 H 283.391 -3.81985 -5.61484 0
M  V30 3042 H 281.337 -1.69526 -6.33717 0
M  V30 3043 H 281.254 -3.37243 -6.76612 0
M  V30 3044 H 282.522 -2.38083 -7.42251 0
M  V30 3045 N 286.751 1.08385 -1.14413 0
M  V30 3046 C 287.997 1.81044 -0.913834 0
M  V30 3047 C 288.33 1.86004 0.558209 0
M  V30 3048 O 287.605 1.33606 1.4135 0
M  V30 3049 C 287.888 3.26648 -1.51569 0
M  V30 3050 C 287.741 3.29895 -3.0576 0
M  V30 3051 C 289.06 4.23629 -1.19273 0
M  V30 3052 H 286.179 0.65727 -0.333414 0
M  V30 3053 H 288.821 1.26896 -1.41412 0
M  V30 3054 H 286.971 3.72889 -1.09023 0
M  V30 3055 H 288.643 2.91977 -3.57137 0
M  V30 3056 H 286.886 2.69163 -3.40197 0
M  V30 3057 H 287.557 4.32516 -3.42977 0
M  V30 3058 H 290.033 3.85727 -1.56057 0
M  V30 3059 H 288.909 5.23822 -1.64017 0
M  V30 3060 H 289.17 4.41968 -0.108068 0
M  V30 3061 N 288.23 0.939286 1.26551 0
M  V30 3062 C 289.16 0.465044 2.28822 0
M  V30 3063 C 290.141 -0.480692 1.63167 0
M  V30 3064 O 291.326 -0.382955 1.90387 0
M  V30 3065 C 288.456 -0.27234 3.46231 0
M  V30 3066 C 287.41 0.58666 4.2396 0
M  V30 3067 C 286.736 -0.280573 5.33963 0
M  V30 3068 C 288.036 1.85704 4.88171 0
M  V30 3069 H 289.73 1.31979 2.68741 0
M  V30 3070 H 287.276 0.636061 1.29191 0
M  V30 3071 H 289.229 -0.615133 4.16886 0
M  V30 3072 H 287.953 -1.16121 3.0526 0
M  V30 3073 H 286.612 0.91232 3.55067 0
M  V30 3074 H 286.26 -1.16874 4.89234 0
M  V30 3075 H 285.96 0.29076 5.8688 0
M  V30 3076 H 287.484 -0.618678 6.07458 0
M  V30 3077 H 288.898 1.58161 5.51052 0
M  V30 3078 H 287.295 2.37279 5.51197 0
M  V30 3079 H 288.365 2.56957 4.11219 0
M  V30 3080 N 289.708 -1.40897 0.706093 0
M  V30 3081 C 290.618 -2.3455 0.0482286 0
M  V30 3082 C 291.634 -1.56796 -0.754396 0
M  V30 3083 O 292.81 -1.89228 -0.689538 0
M  V30 3084 C 289.875 -3.35625 -0.869303 0
M  V30 3085 C 288.936 -4.29261 -0.0576994 0
M  V30 3086 C 288.169 -5.25508 -0.931531 0
M  V30 3087 O 288.392 -5.27472 -2.17092 0
M  V30 3088 O 287.326 -6.00727 -0.375587 0
M  V30 3089 H 291.152 -2.92407 0.820476 0
M  V30 3090 H 288.737 -1.4193 0.4665 0
M  V30 3091 H 290.619 -3.97635 -1.39514 0
M  V30 3092 H 289.294 -2.80196 -1.62086 0
M  V30 3093 H 288.201 -3.70566 0.512988 0
M  V30 3094 H 289.534 -4.87817 0.655426 0
M  V30 3095 N 291.186 -0.45159 -1.50991 0
M  V30 3096 C 292.096 0.358431 -2.31846 0
M  V30 3097 C 293.112 1.01438 -1.41373 0
M  V30 3098 O 294.288 1.00663 -1.74439 0
M  V30 3099 C 291.353 1.43704 -3.15515 0
M  V30 3100 C 290.414 0.799742 -4.21785 0
M  V30 3101 C 289.647 1.82696 -5.01456 0
M  V30 3102 O 289.87 3.05105 -4.81941 0
M  V30 3103 O 288.804 1.40958 -5.85162 0
M  V30 3104 H 292.63 -0.302032 -3.02194 0
M  V30 3105 H 290.215 -0.213825 -1.47862 0
M  V30 3106 H 292.097 2.06227 -3.67489 0
M  V30 3107 H 290.772 2.08133 -2.47916 0
M  V30 3108 H 289.679 0.136084 -3.73852 0
M  V30 3109 H 291.012 0.198718 -4.91799 0
M  V30 3110 N 292.664 1.56529 -0.183458 0
M  V30 3111 C 293.894 2.01331 0.463612 0
M  V30 3112 C 294.302 1.06278 1.5653 0
M  V30 3113 O 293.645 0.0577976 1.83609 0
M  V30 3114 C 293.707 3.42547 1.09096 0
M  V30 3115 C 293.371 4.56817 0.129442 0
M  V30 3116 C 294.368 5.15734 -0.656807 0
M  V30 3117 C 292.053 5.02295 0.02174 0
M  V30 3118 C 294.047 6.1857 -1.53784 0
M  V30 3119 C 291.734 6.04978 -0.862864 0
M  V30 3120 C 292.732 6.62988 -1.64123 0
M  V30 3121 O 292.42 7.63677 -2.51103 0
M  V30 3122 H 292.152 0.664917 0.121907 0
M  V30 3123 H 294.706 2.034 -0.285954 0
M  V30 3124 H 292.936 3.37428 1.88889 0
M  V30 3125 H 294.625 3.71228 1.64148 0
M  V30 3126 H 295.391 4.81473 -0.583839 0
M  V30 3127 H 291.27 4.56847 0.617392 0
M  V30 3128 H 294.814 6.63777 -2.14583 0
M  V30 3129 H 290.711 6.38663 -0.93699 0
M  V30 3130 H 291.479 7.81049 -2.44753 0
M  V30 3131 N 294.142 -0.090211 1.57342 0
M  V30 3132 C 295.39 -0.791241 1.85967 0
M  V30 3133 C 295.711 -1.7903 0.772859 0
M  V30 3134 O 294.981 -1.94872 -0.200398 0
M  V30 3135 H 293.561 -0.295205 0.686195 0
M  V30 3136 H 296.223 -0.0706782 1.94772 0
M  V30 3137 H 295.319 -1.31882 2.82867 0
M  V30 3138 N 295.62 -1.53406 -0.361157 0
M  V30 3139 C 296.583 -1.79479 -1.42548 0
M  V30 3140 C 297.583 -0.665327 -1.4639 0
M  V30 3141 O 298.773 -0.933549 -1.47073 0
M  V30 3142 C 295.905 -1.92087 -2.8163 0
M  V30 3143 H 297.098 -2.74538 -1.20701 0
M  V30 3144 H 294.651 -1.4455 -0.594546 0
M  V30 3145 H 295.386 -0.991099 -3.08784 0
M  V30 3146 H 295.171 -2.74241 -2.80239 0
M  V30 3147 H 296.661 -2.13836 -3.58697 0
M  V30 3148 N 297.098 0.621204 -1.44841 0
M  V30 3149 C 298.346 1.37783 -1.47852 0
M  V30 3150 C 298.667 1.94653 -0.116224 0
M  V30 3151 O 297.937 1.76367 0.852737 0
M  V30 3152 H 296.517 0.511453 -0.544449 0
M  V30 3153 H 299.179 0.730446 -1.80694 0
M  V30 3154 H 298.275 2.20414 -2.20961 0
M  V30 3155 N 298.576 1.31904 0.862503 0
M  V30 3156 C 299.822 1.22197 1.61851 0
M  V30 3157 C 300.155 -0.217641 1.92977 0
M  V30 3158 O 299.43 -1.15264 1.56666 0
M  V30 3159 C 299.713 2.07378 2.94391 0
M  V30 3160 C 299.566 3.59678 2.70096 0
M  V30 3161 C 300.885 1.92891 3.95577 0
M  V30 3162 H 298.004 0.445255 0.587296 0
M  V30 3163 H 300.646 1.6177 0.99651 0
M  V30 3164 H 298.796 1.73758 3.47477 0
M  V30 3165 H 300.468 4.03472 2.23625 0
M  V30 3166 H 298.711 3.82735 2.04197 0
M  V30 3167 H 299.382 4.14595 3.64438 0
M  V30 3168 H 301.858 2.22327 3.51724 0
M  V30 3169 H 300.734 2.54781 4.86187 0
M  V30 3170 H 300.995 0.894315 4.3296 0
M  V30 3171 N 300.054 -1.07777 1.14986 0
M  V30 3172 C 301.294 -1.81888 0.932527 0
M  V30 3173 C 301.658 -1.84509 -0.531064 0
M  V30 3174 O 302.859 -2.54448 -0.866577 0
M  V30 3175 C 301.13 -3.23244 1.52473 0
M  V30 3176 S 302.689 -4.14154 1.44989 0
M  V30 3177 H 299.507 -0.626752 0.335712 0
M  V30 3178 H 302.109 -1.29503 1.46455 0
M  V30 3179 H 300.813 -3.18922 2.58296 0
M  V30 3180 H 300.344 -3.80704 0.991381 0
M  V30 3181 H 302.359 -4.94247 0.439799 0
M  V30 3182 N 301.532 -0.945985 -1.26051 0
M  V30 3183 C 302.757 -0.612525 -1.98149 0
M  V30 3184 C 303.182 0.806623 -1.69927 0
M  V30 3185 O 302.54 1.54411 -0.950108 0
M  V30 3186 C 302.588 -0.866981 -3.50023 0
M  V30 3187 O 301.692 0.0585333 -4.12358 0
M  V30 3188 H 301.033 -0.23379 -0.621481 0
M  V30 3189 H 303.563 -1.27023 -1.60395 0
M  V30 3190 H 303.573 -0.789792 -4.00283 0
M  V30 3191 H 302.248 -1.90135 -3.69894 0
M  V30 3192 H 300.825 -0.0701241 -3.72834 0
M  V30 3193 N 303.011 1.40521 -0.713556 0
M  V30 3194 C 304.239 2.05237 -0.261775 0
M  V30 3195 C 304.654 1.53755 1.09567 0
M  V30 3196 O 304.011 0.693268 1.6882 0
M  V30 3197 C 304.062 3.60763 -0.230706 0
M  V30 3198 O 303.783 4.10345 -1.53455 0
M  V30 3199 C 305.284 4.42651 0.239874 0
M  V30 3200 H 302.504 0.660533 -0.118057 0
M  V30 3201 H 305.048 1.79967 -0.971192 0
M  V30 3202 H 303.203 3.8501 0.429661 0
M  V30 3203 H 303.617 5.04526 -1.43366 0
M  V30 3204 H 305.091 5.51599 0.210468 0
M  V30 3205 H 305.568 4.20082 1.28171 0
M  V30 3206 H 306.174 4.23507 -0.390142 0
M  V30 3207 N 304.489 0.459591 1.5075 0
M  V30 3208 C 305.905 0.113092 1.59199 0
M  V30 3209 C 306.105 -1.37951 1.46874 0
M  V30 3210 O 305.161 -2.15168 1.32132 0
M  V30 3211 C 306.474 0.653043 2.93523 0
M  V30 3212 C 308.022 0.615449 3.0689 0
M  V30 3213 C 308.497 1.13275 4.43771 0
M  V30 3214 N 309.988 1.09167 4.50152 0
M  V30 3215 C 310.723 1.46256 5.54434 0
M  V30 3216 N 310.219 1.90739 6.66026 0
M  V30 3217 N 312.012 1.37932 5.44914 0
M  V30 3218 H 304.163 1.43049 1.57005 0
M  V30 3219 H 306.426 0.590861 0.741341 0
M  V30 3220 H 306.132 1.69822 3.07983 0
M  V30 3221 H 306.006 0.0902132 3.77092 0
M  V30 3222 H 308.393 -0.420793 2.92084 0
M  V30 3223 H 308.474 1.21495 2.25106 0
M  V30 3224 H 308.118 2.16757 4.59324 0
M  V30 3225 H 308.048 0.509576 5.24129 0
M  V30 3226 H 310.539 0.76528 3.7007 0
M  V30 3227 H 310.852 2.17218 7.41644 0
M  V30 3228 H 309.197 1.94683 6.67176 0
M  V30 3229 H 312.388 1.0303 4.56621 0
M  V30 3230 H 312.561 1.67164 6.26067 0
M  V30 3231 N 305.967 -1.56429 0.191757 0
M  V30 3232 C 306.899 -2.16154 -0.762245 0
M  V30 3233 C 307.912 -1.12247 -1.17917 0
M  V30 3234 O 309.101 -1.39353 -1.11548 0
M  V30 3235 C 306.201 -2.70606 -2.04024 0
M  V30 3236 C 305.374 -3.99381 -1.78364 0
M  V30 3237 C 304.433 -4.38692 -2.90578 0
M  V30 3238 O 303.459 -5.06179 -2.6033 0
M  V30 3239 N 304.661 -4.01922 -4.18854 0
M  V30 3240 H 307.426 -2.98643 -0.251526 0
M  V30 3241 H 304.987 -1.61897 0.00967373 0
M  V30 3242 H 306.979 -2.93891 -2.78227 0
M  V30 3243 H 305.549 -1.9259 -2.46227 0
M  V30 3244 H 304.769 -3.84262 -0.879581 0
M  V30 3245 H 306.057 -4.83445 -1.58614 0
M  V30 3246 H 305.455 -3.47631 -4.46283 0
M  V30 3247 H 304.012 -4.30165 -4.89695 0
M  V30 3248 N 307.445 0.0818655 -1.57387 0
M  V30 3249 C 308.355 1.11642 -2.06333 0
M  V30 3250 C 309.371 1.43033 -0.99083 0
M  V30 3251 O 310.547 1.53411 -1.30488 0
M  V30 3252 C 307.612 2.41342 -2.48907 0
M  V30 3253 C 306.673 2.17014 -3.7041 0
M  V30 3254 C 305.906 3.4053 -4.10944 0
M  V30 3255 O 306.129 4.4927 -3.51444 0
M  V30 3256 O 305.063 3.29336 -5.03807 0
M  V30 3257 H 308.889 0.730657 -2.9478 0
M  V30 3258 H 306.474 0.295301 -1.46452 0
M  V30 3259 H 308.356 3.17691 -2.76858 0
M  V30 3260 H 307.031 2.79319 -1.63593 0
M  V30 3261 H 305.938 1.38403 -3.47556 0
M  V30 3262 H 307.271 1.83923 -4.56545 0
M  V30 3263 N 308.923 1.53595 0.353017 0
M  V30 3264 C 310.172 1.69603 1.09168 0
M  V30 3265 C 310.485 0.460925 1.90092 0
M  V30 3266 O 311.691 0.501774 2.66823 0
M  V30 3267 C 310.147 2.99872 1.9901 0
M  V30 3268 C 309.755 4.30687 1.23339 0
M  V30 3269 C 311.499 3.25246 2.72792 0
M  V30 3270 C 309.406 5.52036 2.12156 0
M  V30 3271 H 308.336 0.631966 0.411261 0
M  V30 3272 H 310.987 1.80096 0.351802 0
M  V30 3273 H 309.369 2.83212 2.7678 0
M  V30 3274 H 310.543 4.58019 0.505456 0
M  V30 3275 H 308.858 4.11853 0.613663 0
M  V30 3276 H 311.455 4.13095 3.39495 0
M  V30 3277 H 311.798 2.41846 3.38846 0
M  V30 3278 H 312.331 3.42638 2.021 0
M  V30 3279 H 309.07 6.37951 1.50659 0
M  V30 3280 H 308.59 5.28966 2.82764 0
M  V30 3281 H 310.269 5.87313 2.71427 0
M  V30 3282 N 310.401 -0.613514 1.45168 0
M  V30 3283 C 311.649 -1.36997 1.48581 0
M  V30 3284 C 311.97 -1.94589 0.126545 0
M  V30 3285 O 311.24 -1.76816 -0.843372 0
M  V30 3286 H 309.82 -0.508558 0.547154 0
M  V30 3287 H 312.482 -0.720853 1.81079 0
M  V30 3288 H 311.578 -2.1924 2.22127 0
M  V30 3289 N 311.879 -1.3236 -0.855495 0
M  V30 3290 C 312.827 -1.2118 -1.9854 0
M  V30 3291 C 313.821 -0.116788 -1.68997 0
M  V30 3292 O 315.027 -0.279657 -1.77814 0
M  V30 3293 H 311.402 -0.375608 -0.651477 0
M  V30 3294 H 313.373 -2.16743 -2.05098 0
M  V30 3295 C 312.122 -0.950849 -3.34446 0
M  V30 3296 H 311.445 -1.78563 -3.57708 0
M  V30 3297 H 312.885 -0.912863 -4.14057 0
M  V30 3298 C 311.344 0.346404 -3.35114 0
M  V30 3299 O 311.874 1.35855 -3.7803 0
M  V30 3300 N 310.08 0.36808 -2.88259 0
M  V30 3301 H 309.627 -0.456102 -2.5353 0
M  V30 3302 H 309.585 1.23591 -2.89089 0
M  V30 3303 N 313.357 1.07166 -1.15556 0
M  V30 3304 C 314.287 2.16403 -0.877046 0
M  V30 3305 C 315.268 1.69217 0.173111 0
M  V30 3306 O 316.453 1.94181 0.027084 0
M  V30 3307 C 313.583 3.45349 -0.367632 0
M  V30 3308 C 312.537 4.05995 -1.35468 0
M  V30 3309 C 311.863 5.30045 -0.704038 0
M  V30 3310 C 313.163 4.45804 -2.72132 0
M  V30 3311 H 314.857 2.39959 -1.79053 0
M  V30 3312 H 312.403 1.15325 -0.862331 0
M  V30 3313 H 314.356 4.21095 -0.160317 0
M  V30 3314 H 313.08 3.21385 0.581326 0
M  V30 3315 H 311.739 3.32296 -1.54839 0
M  V30 3316 H 311.387 5.02373 0.251128 0
M  V30 3317 H 311.087 5.71579 -1.36277 0
M  V30 3318 H 312.611 6.08495 -0.50654 0
M  V30 3319 H 314.025 5.12671 -2.56595 0
M  V30 3320 H 312.422 4.98296 -3.34397 0
M  V30 3321 H 313.492 3.57083 -3.28054 0
M  V30 3322 N 314.835 0.952656 1.25548 0
M  V30 3323 C 316.112 0.523818 1.88456 0
M  V30 3324 C 316.492 -0.998871 1.85973 0
M  V30 3325 O 315.84 -1.86381 1.3219 0
M  V30 3326 C 316.05 1.0982 3.31271 0
M  V30 3327 C 317.398 1.17385 4.08051 0
M  V30 3328 O 318.422 1.04961 3.40384 0
M  V30 3329 O 317.281 1.36852 5.29088 0
M  V30 3330 H 314.375 0.172485 0.808813 0
M  V30 3331 H 316.921 1.04596 1.33633 0
M  V30 3332 H 315.693 2.1415 3.27499 0
M  V30 3333 H 315.316 0.559191 3.93648 0
M  V30 3334 N 316.313 -1.40141 0.720998 0
M  V30 3335 C 317.26 -2.30688 0.071919 0
M  V30 3336 C 318.23 -1.48476 -0.744584 0
M  V30 3337 O 319.415 -1.77201 -0.707423 0
M  V30 3338 C 316.555 -3.34724 -0.839855 0
M  V30 3339 C 315.668 -4.31998 -0.0122438 0
M  V30 3340 C 314.803 -5.23102 -0.923995 0
M  V30 3341 C 313.842 -6.12033 -0.0907969 0
M  V30 3342 N 312.979 -6.95537 -0.957718 0
M  V30 3343 H 317.819 -2.85628 0.849755 0
M  V30 3344 H 315.356 -1.40653 0.430726 0
M  V30 3345 H 317.314 -3.93618 -1.38279 0
M  V30 3346 H 315.944 -2.81274 -1.58381 0
M  V30 3347 H 314.996 -3.74841 0.64794 0
M  V30 3348 H 316.308 -4.94772 0.632595 0
M  V30 3349 H 315.462 -5.86953 -1.53527 0
M  V30 3350 H 314.201 -4.60615 -1.60264 0
M  V30 3351 H 313.206 -5.47207 0.533377 0
M  V30 3352 H 314.431 -6.76581 0.584428 0
M  V30 3353 H 312.377 -6.35633 -1.62192 0
M  V30 3354 H 312.294 -7.55099 -0.36904 0
M  V30 3355 H 313.562 -7.63832 -1.555 0
M  V30 3356 N 317.792 -0.46758 -1.50504 0
M  V30 3357 C 318.742 0.34698 -2.25344 0
M  V30 3358 C 319.726 0.964469 -1.2879 0
M  V30 3359 O 320.918 0.8776 -1.53711 0
M  V30 3360 C 318.047 1.43042 -3.1208 0
M  V30 3361 C 317.133 0.82084 -4.16081 0
M  V30 3362 N 317.524 -0.0567602 -5.05768 0
M  V30 3363 C 315.822 1.08517 -4.32597 0
M  V30 3364 C 316.523 -0.402343 -5.80307 0
M  V30 3365 N 315.499 0.221607 -5.43148 0
M  V30 3366 H 319.301 -0.329129 -2.92051 0
M  V30 3367 H 316.815 -0.281508 -1.59942 0
M  V30 3368 H 318.812 2.02712 -3.64299 0
M  V30 3369 H 317.472 2.10856 -2.46921 0
M  V30 3370 H 318.483 -0.425349 -5.1615 0
M  V30 3371 H 315.16 1.75855 -3.78657 0
M  V30 3372 H 316.55 -1.11834 -6.62528 0
M  V30 3373 N 319.27 1.56325 -0.20005 0
M  V30 3374 C 320.18 2.22931 0.730668 0
M  V30 3375 C 321.196 1.22997 1.23076 0
M  V30 3376 O 322.372 1.55748 1.27689 0
M  V30 3377 C 319.437 2.87948 1.93098 0
M  V30 3378 C 318.498 4.03166 1.47497 0
M  V30 3379 C 317.731 4.65073 2.61807 0
M  V30 3380 O 317.954 4.25913 3.79413 0
M  V30 3381 O 316.888 5.54452 2.34237 0
M  V30 3382 H 320.714 3.03084 0.193391 0
M  V30 3383 H 318.299 1.49371 0.0294621 0
M  V30 3384 H 320.181 3.29063 2.6324 0
M  V30 3385 H 318.856 2.10771 2.45677 0
M  V30 3386 H 317.763 3.66664 0.742201 0
M  V30 3387 H 319.096 4.82022 0.995796 0
M  V30 3388 N 320.748 -0.0735177 1.57428 0
M  V30 3389 C 321.658 -1.10547 2.06922 0
M  V30 3390 C 322.674 -1.42506 0.998402 0
M  V30 3391 O 323.85 -1.52717 1.31299 0
M  V30 3392 C 320.915 -2.40019 2.50184 0
M  V30 3393 C 319.976 -2.15046 3.71556 0
M  V30 3394 C 319.209 -3.38345 4.12745 0
M  V30 3395 O 319.432 -4.47399 3.53822 0
M  V30 3396 O 318.366 -3.2666 5.05546 0
M  V30 3397 H 322.192 -0.715013 2.95163 0
M  V30 3398 H 319.777 -0.287531 1.46607 0
M  V30 3399 H 321.659 -3.16218 2.78539 0
M  V30 3400 H 320.334 -2.78447 1.65072 0
M  V30 3401 H 319.241 -1.36558 3.48285 0
M  V30 3402 H 320.574 -1.81499 4.57514 0
M  V30 3403 N 322.226 -1.5378 -0.344866 0
M  V30 3404 C 323.156 -1.84662 -1.42906 0
M  V30 3405 C 324.137 -0.701648 -1.54955 0
M  V30 3406 O 325.322 -0.953438 -1.69184 0
M  V30 3407 C 322.452 -2.05503 -2.79974 0
M  V30 3408 C 321.406 -3.21318 -2.82734 0
M  V30 3409 C 320.732 -3.2749 -4.22675 0
M  V30 3410 C 322.032 -4.59456 -2.48389 0
M  V30 3411 H 323.726 -2.75461 -1.17311 0
M  V30 3412 H 321.272 -1.32542 -0.562896 0
M  V30 3413 H 323.225 -2.25691 -3.55867 0
M  V30 3414 H 321.949 -1.11434 -3.07002 0
M  V30 3415 H 320.608 -3.00984 -2.09294 0
M  V30 3416 H 320.256 -2.31019 -4.4681 0
M  V30 3417 H 319.956 -4.05316 -4.25433 0
M  V30 3418 H 321.48 -3.49887 -5.00412 0
M  V30 3419 H 322.894 -4.79667 -3.13995 0
M  V30 3420 H 321.291 -5.39675 -2.62432 0
M  V30 3421 H 322.361 -4.63155 -1.4358 0
M  V30 3422 N 323.704 0.605807 -1.45491 0
M  V30 3423 C 324.614 1.74466 -1.56839 0
M  V30 3424 C 325.63 1.68006 -0.452772 0
M  V30 3425 O 326.806 1.8833 -0.713708 0
M  V30 3426 C 323.871 3.10931 -1.53371 0
M  V30 3427 C 322.932 3.28832 -2.75986 0
M  V30 3428 C 322.165 4.58787 -2.72673 0
M  V30 3429 O 322.388 5.4122 -1.80102 0
M  V30 3430 O 321.322 4.79438 -3.63899 0
M  V30 3431 H 325.148 1.67843 -2.53106 0
M  V30 3432 H 322.733 0.770108 -1.28022 0
M  V30 3433 H 324.615 3.92233 -1.54051 0
M  V30 3434 H 323.29 3.18042 -0.602572 0
M  V30 3435 H 322.197 2.47112 -2.80867 0
M  V30 3436 H 323.53 3.26599 -3.68231 0
M  V30 3437 N 325.182 1.32811 0.848464 0
M  V30 3438 C 326.092 1.24278 1.98978 0
M  V30 3439 C 327.108 0.155176 1.73307 0
M  V30 3440 O 328.284 0.376999 1.9784 0
M  V30 3441 C 325.349 0.972444 3.32783 0
M  V30 3442 C 324.41 2.14911 3.71634 0
M  V30 3443 C 323.643 1.89157 4.99054 0
M  V30 3444 O 323.866 0.837165 5.64223 0
M  V30 3445 O 322.8 2.75433 5.35183 0
M  V30 3446 H 326.626 2.20238 2.09115 0
M  V30 3447 H 324.211 1.12762 0.980052 0
M  V30 3448 H 326.093 0.838432 4.12975 0
M  V30 3449 H 324.768 0.043051 3.23671 0
M  V30 3450 H 323.675 2.33862 2.91992 0
M  V30 3451 H 325.008 3.06151 3.85399 0
M  V30 3452 N 326.66 -1.06551 1.16123 0
M  V30 3453 C 327.59 -2.15935 0.88851 0
M  V30 3454 C 328.571 -1.69306 -0.164135 0
M  V30 3455 O 329.756 -1.94193 -0.0167857 0
M  V30 3456 C 326.886 -3.45149 0.385942 0
M  V30 3457 C 325.84 -4.05271 1.3762 0
M  V30 3458 C 325.166 -5.29664 0.732137 0
M  V30 3459 C 326.466 -4.44355 2.74493 0
M  V30 3460 H 328.16 -2.39006 1.80323 0
M  V30 3461 H 325.706 -1.14866 0.868435 0
M  V30 3462 H 327.659 -4.21004 0.182647 0
M  V30 3463 H 326.383 -3.21689 -0.564274 0
M  V30 3464 H 325.042 -3.3147 1.56599 0
M  V30 3465 H 324.69 -5.02499 -0.224483 0
M  V30 3466 H 324.39 -5.70848 1.39307 0
M  V30 3467 H 325.914 -6.08218 0.538802 0
M  V30 3468 H 327.328 -5.11303 2.59311 0
M  V30 3469 H 325.725 -4.96515 3.37035 0
M  V30 3470 H 326.795 -3.55339 3.29943 0
M  V30 3471 N 328.138 -0.959301 -1.25041 0
M  V30 3472 C 329.384 -0.617525 -1.9317 0
M  V30 3473 C 329.717 0.843981 -1.74902 0
M  V30 3474 O 328.992 1.60615 -1.09696 0
M  V30 3475 C 329.275 -0.982736 -3.46431 0
M  V30 3476 C 329.128 -2.50032 -3.73904 0
M  V30 3477 C 330.447 -0.511176 -4.37121 0
M  V30 3478 H 327.566 -0.22582 -0.701552 0
M  V30 3479 H 330.208 -1.19679 -1.4757 0
M  V30 3480 H 328.358 -0.489806 -3.854 0
M  V30 3481 H 330.03 -3.06737 -3.44544 0
M  V30 3482 H 328.273 -2.93598 -3.19348 0
M  V30 3483 H 328.944 -2.70635 -4.81103 0
M  V30 3484 H 331.42 -0.934075 -4.0548 0
M  V30 3485 H 330.296 -0.795361 -5.43107 0
M  V30 3486 H 330.557 0.588834 -4.38161 0
M  V30 3487 N 329.616 1.39756 -0.72842 0
M  V30 3488 C 330.579 2.29012 -0.0927297 0
M  V30 3489 C 331.579 1.45992 0.674025 0
M  V30 3490 O 332.769 1.66749 0.50402 0
M  V30 3491 C 329.901 3.29396 0.878137 0
M  V30 3492 H 331.094 2.86729 -0.879011 0
M  V30 3493 H 328.647 1.48293 -0.493847 0
M  V30 3494 H 329.382 2.76722 1.69101 0
M  V30 3495 H 329.167 3.907 0.331051 0
M  V30 3496 H 330.657 3.96199 1.3197 0
M  V30 3497 N 331.094 0.475555 1.50254 0
M  V30 3498 C 332.51 0.12997 1.5907 0
M  V30 3499 C 332.71 -1.36385 1.48328 0
M  V30 3500 O 331.766 -2.13754 1.34407 0
M  V30 3501 C 333.079 0.684139 2.92814 0
M  V30 3502 C 334.627 0.647965 3.0622 0
M  V30 3503 C 335.102 1.17975 4.42545 0
M  V30 3504 N 336.593 1.13936 4.48969 0
M  V30 3505 C 337.328 1.52129 5.52851 0
M  V30 3506 N 336.824 1.97793 6.63965 0
M  V30 3507 N 338.617 1.43704 5.4342 0
M  V30 3508 H 330.768 1.44706 1.55479 0
M  V30 3509 H 333.031 0.598691 0.735033 0
M  V30 3510 H 332.737 1.73079 3.06164 0
M  V30 3511 H 332.611 0.130204 3.76975 0
M  V30 3512 H 334.998 -0.38979 2.92514 0
M  V30 3513 H 335.079 1.23876 2.23805 0
M  V30 3514 H 334.723 2.21616 4.57 0
M  V30 3515 H 334.653 0.565138 5.23559 0
M  V30 3516 H 337.144 0.804488 3.69238 0
M  V30 3517 H 337.457 2.25072 7.39299 0
M  V30 3518 H 335.802 2.01749 6.65073 0
M  V30 3519 H 338.993 1.07867 4.55502 0
M  V30 3520 H 339.166 1.73794 6.24259 0
M  V30 3521 N 332.573 -1.56217 0.208337 0
M  V30 3522 C 333.82 -1.97949 -0.42692 0
M  V30 3523 C 334.148 -1.09562 -1.60706 0
M  V30 3524 O 333.403 -0.137616 -1.95216 0
M  V30 3525 C 333.702 -3.45441 -0.916797 0
M  V30 3526 C 333.368 -4.50646 0.151391 0
M  V30 3527 C 332.03 -4.79139 0.444867 0
M  V30 3528 C 334.382 -5.13811 0.874492 0
M  V30 3529 C 331.71 -5.68084 1.46619 0
M  V30 3530 C 334.062 -6.03861 1.88506 0
M  V30 3531 C 332.726 -6.30704 2.18559 0
M  V30 3532 H 331.996 -0.724345 -0.156221 0
M  V30 3533 H 334.643 -1.89006 0.308084 0
M  V30 3534 H 332.948 -3.51521 -1.73032 0
M  V30 3535 H 334.645 -3.75094 -1.41794 0
M  V30 3536 H 331.235 -4.28511 -0.0875068 0
M  V30 3537 H 335.419 -4.91879 0.660996 0
M  V30 3538 H 330.675 -5.87151 1.7048 0
M  V30 3539 H 334.849 -6.51861 2.45051 0
M  V30 3540 H 332.476 -6.99424 2.97843 0
M  V30 3541 N 334.051 0.0651679 -1.57465 0
M  V30 3542 C 334.981 1.07693 -2.07182 0
M  V30 3543 C 335.962 1.39962 -0.966673 0
M  V30 3544 O 337.147 1.49475 -1.2398 0
M  V30 3545 C 334.277 2.3885 -2.52127 0
M  V30 3546 C 333.231 2.20917 -3.66579 0
M  V30 3547 C 332.557 3.57515 -3.97601 0
M  V30 3548 C 333.857 1.62493 -4.9638 0
M  V30 3549 H 335.551 0.663199 -2.91962 0
M  V30 3550 H 333.097 0.317569 -1.40455 0
M  V30 3551 H 335.05 3.09928 -2.85522 0
M  V30 3552 H 333.774 2.82215 -1.64384 0
M  V30 3553 H 332.433 1.52279 -3.33477 0
M  V30 3554 H 332.081 3.98463 -3.06979 0
M  V30 3555 H 331.781 3.46353 -4.74672 0
M  V30 3556 H 333.305 4.30013 -4.33499 0
M  V30 3557 H 334.719 2.23445 -5.27963 0
M  V30 3558 H 333.116 1.62009 -5.77818 0
M  V30 3559 H 334.186 0.587041 -4.81333 0
M  V30 3560 N 335.529 1.53961 0.336706 0
M  V30 3561 C 336.777 1.71197 1.07405 0
M  V30 3562 C 337.098 0.481475 1.88962 0
M  V30 3563 O 336.368 -0.504585 1.8929 0
M  V30 3564 H 334.948 0.631185 0.399517 0
M  V30 3565 H 337.61 1.91232 0.376323 0
M  V30 3566 H 336.706 2.58587 1.74755 0
M  V30 3567 N 337.007 -0.598083 1.45811 0
M  V30 3568 C 338.253 -1.35882 1.50545 0
M  V30 3569 C 338.586 -1.93616 0.150445 0
M  V30 3570 O 337.861 -1.75604 -0.83628 0
M  V30 3571 C 338.144 -2.49966 2.59208 0
M  V30 3572 C 337.997 -1.97367 4.04186 0
M  V30 3573 C 339.316 -3.52068 2.64076 0
M  V30 3574 H 336.435 -0.492717 0.548087 0
M  V30 3575 H 339.077 -0.673319 1.77669 0
M  V30 3576 H 337.227 -3.08443 2.3621 0
M  V30 3577 H 338.899 -1.43466 4.38423 0
M  V30 3578 H 337.142 -1.283 4.14393 0
M  V30 3579 H 337.813 -2.79649 4.75921 0
M  V30 3580 H 340.289 -3.03448 2.84708 0
M  V30 3581 H 339.165 -4.2937 3.41954 0
M  V30 3582 H 339.426 -4.08304 1.69531 0
M  V30 3583 N 338.485 -1.33259 -0.841409 0
M  V30 3584 C 339.395 -1.25332 -1.98316 0
M  V30 3585 C 340.411 -0.164364 -1.73222 0
M  V30 3586 O 341.587 -0.387486 -1.97637 0
M  V30 3587 C 338.652 -0.990078 -3.32262 0
M  V30 3588 C 337.713 -2.16879 -3.70489 0
M  V30 3589 C 336.946 -1.91801 -4.98044 0
M  V30 3590 O 337.169 -0.867075 -5.63771 0
M  V30 3591 O 336.103 -2.78267 -5.33714 0
M  V30 3592 H 339.929 -2.21344 -2.07944 0
M  V30 3593 H 337.514 -1.1328 -0.974058 0
M  V30 3594 H 339.396 -0.860321 -4.12524 0
M  V30 3595 H 338.071 -0.0602155 -3.23644 0
M  V30 3596 H 336.978 -2.35407 -2.90748 0
M  V30 3597 H 338.311 -3.0819 -3.8377 0
M  V30 3598 N 339.963 1.05934 -1.16686 0
M  V30 3599 C 340.926 2.11669 -0.879144 0
M  V30 3600 C 341.926 1.60294 0.127445 0
M  V30 3601 O 343.116 1.7389 -0.103865 0
M  V30 3602 C 340.248 3.39438 -0.315425 0
M  V30 3603 H 341.441 2.38626 -1.81653 0
M  V30 3604 H 338.994 1.22058 -0.976299 0
M  V30 3605 H 339.729 3.18132 0.629468 0
M  V30 3606 H 339.514 3.78034 -1.04079 0
M  V30 3607 H 341.004 4.17391 -0.132189 0
M  V30 3608 N 341.441 0.965919 1.2453 0
M  V30 3609 C 342.404 0.499547 2.2369 0
M  V30 3610 C 343.404 -0.40294 1.5567 0
M  V30 3611 O 344.594 -0.19865 1.73064 0
M  V30 3612 C 341.726 -0.276792 3.39774 0
M  V30 3613 H 342.919 1.37613 2.66463 0
M  V30 3614 H 340.472 0.750324 1.37112 0
M  V30 3615 H 341.207 -1.17055 3.02438 0
M  V30 3616 H 340.992 0.370826 3.90343 0
M  V30 3617 H 342.482 -0.592175 4.1338 0
M  V30 3618 N 342.919 -1.39368 0.735821 0
M  V30 3619 C 343.852 -2.28155 0.0451175 0
M  V30 3620 C 344.83 -1.44433 -0.746852 0
M  V30 3621 O 346.014 -1.73823 -0.729237 0
M  V30 3622 C 343.141 -3.253 -0.943266 0
M  V30 3623 C 342.187 -4.25826 -0.239685 0
M  V30 3624 S 343.02 -5.25166 1.04693 0
M  V30 3625 C 344.176 -6.2587 0.0611639 0
M  V30 3626 H 344.409 -2.86388 0.79807 0
M  V30 3627 H 341.942 -1.45104 0.527653 0
M  V30 3628 H 343.9 -3.81789 -1.50824 0
M  V30 3629 H 342.561 -2.66085 -1.66906 0
M  V30 3630 H 341.754 -4.94229 -0.987596 0
M  V30 3631 H 341.356 -3.73141 0.253274 0
M  V30 3632 H 343.648 -6.73007 -0.778941 0
M  V30 3633 H 344.591 -7.04508 0.712362 0
M  V30 3634 H 344.999 -5.63639 -0.311602 0
M  V30 3635 N 344.397 -0.483516 -1.5 0
M  V30 3636 C 345.36 0.292965 -2.2732 0
M  V30 3637 C 346.36 0.909499 -1.32608 0
M  V30 3638 O 347.55 0.776745 -1.55924 0
M  V30 3639 C 344.682 1.41854 -3.09984 0
M  V30 3640 H 345.875 -0.385289 -2.97415 0
M  V30 3641 H 343.428 -0.237942 -1.54478 0
M  V30 3642 H 344.163 2.13148 -2.44414 0
M  V30 3643 H 343.948 0.982114 -3.79601 0
M  V30 3644 H 345.438 1.96597 -3.68429 0
M  V30 3645 N 345.875 1.56104 -0.216619 0
M  V30 3646 C 347.105 2.02269 0.420802 0
M  V30 3647 C 347.513 1.09575 1.5424 0
M  V30 3648 O 346.856 0.0967308 1.83445 0
M  V30 3649 C 346.918 3.44784 1.01806 0
M  V30 3650 C 346.582 4.56988 0.0325154 0
M  V30 3651 C 347.579 5.14225 -0.766055 0
M  V30 3652 C 345.264 5.02228 -0.0848092 0
M  V30 3653 C 347.258 6.15169 -1.6687 0
M  V30 3654 C 344.945 6.03011 -0.990994 0
M  V30 3655 C 345.943 6.59357 -1.78149 0
M  V30 3656 O 345.631 7.58179 -2.67245 0
M  V30 3657 H 345.363 0.667353 0.107776 0
M  V30 3658 H 347.917 2.02747 -0.329034 0
M  V30 3659 H 346.147 3.41359 1.81689 0
M  V30 3660 H 347.836 3.74626 1.56237 0
M  V30 3661 H 348.602 4.80126 -0.685836 0
M  V30 3662 H 344.481 4.58054 0.520349 0
M  V30 3663 H 348.025 6.59076 -2.28615 0
M  V30 3664 H 343.922 6.36532 -1.07225 0
M  V30 3665 H 344.69 7.75682 -2.61265 0
M  V30 3666 N 347.353 -0.0568162 1.57498 0
M  V30 3667 C 348.601 -0.751617 1.87604 0
M  V30 3668 C 348.922 -1.77351 0.81066 0
M  V30 3669 O 348.192 -1.95254 -0.159018 0
M  V30 3670 H 346.772 -0.280583 0.692302 0
M  V30 3671 H 349.434 -0.0293483 1.94878 0
M  V30 3672 H 348.53 -1.25852 2.856 0
M  V30 3673 N 348.832 -1.54138 -0.328536 0
M  V30 3674 C 349.765 -1.78014 -1.4278 0
M  V30 3675 C 350.743 -0.629889 -1.49904 0
M  V30 3676 O 351.927 -0.866763 -1.6739 0
M  V30 3677 C 349.054 -1.89225 -2.80912 0
M  V30 3678 C 348.1 -3.11483 -2.91343 0
M  V30 3679 S 348.933 -4.70201 -2.56263 0
M  V30 3680 C 350.089 -4.84312 -3.96476 0
M  V30 3681 H 350.322 -2.70974 -1.22313 0
M  V30 3682 H 347.855 -1.45197 -0.525084 0
M  V30 3683 H 349.813 -1.9637 -3.60485 0
M  V30 3684 H 348.474 -0.972518 -2.98665 0
M  V30 3685 H 347.667 -3.16046 -3.92595 0
M  V30 3686 H 347.269 -3.02642 -2.19736 0
M  V30 3687 H 349.561 -4.66643 -4.91173 0
M  V30 3688 H 350.504 -5.86411 -3.96898 0
M  V30 3689 H 350.912 -4.12652 -3.85199 0
M  V30 3690 N 350.31 0.590341 -1.46126 0
M  V30 3691 C 351.558 1.34616 -1.50742 0
M  V30 3692 C 351.879 1.94363 -0.157486 0
M  V30 3693 O 351.149 1.78136 0.815136 0
M  V30 3694 H 349.729 0.499789 -0.555175 0
M  V30 3695 H 352.391 0.691953 -1.82203 0
M  V30 3696 H 351.487 2.15678 -2.25587 0
M  V30 3697 N 351.788 1.33704 0.83433 0
M  V30 3698 C 353.035 1.25417 1.58987 0
M  V30 3699 C 353.363 -0.178869 1.93676 0
M  V30 3700 O 352.618 -1.13723 1.59265 0
M  V30 3701 C 352.917 2.07926 2.90692 0
M  V30 3702 C 352.583 3.57066 2.75345 0
M  V30 3703 C 351.245 3.97724 2.70867 0
M  V30 3704 C 353.597 4.51817 2.59828 0
M  V30 3705 C 350.925 5.31344 2.48778 0
M  V30 3706 C 353.277 5.85604 2.39272 0
M  V30 3707 C 351.941 6.25439 2.33199 0
M  V30 3708 H 351.211 0.458934 0.581774 0
M  V30 3709 H 353.858 1.65335 0.966261 0
M  V30 3710 H 352.163 1.608 3.57282 0
M  V30 3711 H 353.86 1.98868 3.48213 0
M  V30 3712 H 350.45 3.24785 2.79665 0
M  V30 3713 H 354.634 4.21311 2.62319 0
M  V30 3714 H 349.89 5.61241 2.42526 0
M  V30 3715 H 354.064 6.58623 2.2625 0
M  V30 3716 H 351.691 7.28914 2.15843 0
M  V30 3717 N 353.266 -1.05314 1.17247 0
M  V30 3718 C 354.229 -2.112 0.890357 0
M  V30 3719 C 355.229 -1.60359 -0.118943 0
M  V30 3720 O 356.419 -1.73833 0.113086 0
M  V30 3721 C 353.551 -3.39266 0.333422 0
M  V30 3722 H 354.744 -2.37659 1.82916 0
M  V30 3723 H 352.297 -1.21538 0.982758 0
M  V30 3724 H 353.032 -3.18462 -0.612587 0
M  V30 3725 H 352.817 -3.77477 1.06082 0
M  V30 3726 H 354.307 -4.17315 0.154322 0
M  V30 3727 N 354.744 -0.972509 -1.24016 0
M  V30 3728 C 355.972 -0.654803 -1.96265 0
M  V30 3729 C 356.387 0.776708 -1.72083 0
M  V30 3730 O 355.744 1.52171 -1.00748 0
M  V30 3731 C 355.795 -0.92592 -3.49441 0
M  V30 3732 O 355.516 -2.30116 -3.72798 0
M  V30 3733 C 357.017 -0.623068 -4.38899 0
M  V30 3734 H 354.237 -0.243907 -0.6251 0
M  V30 3735 H 356.781 -1.30175 -1.57717 0
M  V30 3736 H 354.936 -0.325108 -3.86033 0
M  V30 3737 H 355.35 -2.38483 -4.67147 0
M  V30 3738 H 356.824 -0.863189 -5.45209 0
M  V30 3739 H 357.301 0.442754 -4.36963 0
M  V30 3740 H 357.907 -1.204 -4.07902 0
M  V30 3741 N 356.222 1.38976 -0.743202 0
M  V30 3742 C 357.17 2.32394 -0.0978389 0
M  V30 3743 C 358.164 1.53486 0.716824 0
M  V30 3744 O 359.37 1.69092 0.617088 0
M  V30 3745 H 355.745 0.75189 -0.0128402 0
M  V30 3746 H 357.716 2.84441 -0.901981 0
M  V30 3747 C 356.465 3.38629 0.789036 0
M  V30 3748 H 355.788 3.99432 0.171559 0
M  V30 3749 H 357.228 4.06426 1.20807 0
M  V30 3750 C 355.687 2.76347 1.92702 0
M  V30 3751 O 356.217 2.64836 3.02034 0
M  V30 3752 N 354.423 2.34311 1.71891 0
M  V30 3753 H 353.97 2.43873 0.829675 0
M  V30 3754 H 353.928 1.9298 2.48205 0
M  V30 3755 N 357.7 0.491464 1.49741 0
M  V30 3756 C 358.925 -0.0557177 2.07325 0
M  V30 3757 C 359.35 -1.30925 1.35056 0
M  V30 3758 O 358.708 -1.76733 0.404365 0
M  V30 3759 C 358.756 -0.302074 3.59333 0
M  V30 3760 O 357.86 -1.37868 3.88672 0
M  V30 3761 H 357.201 0.0219956 0.663636 0
M  V30 3762 H 359.731 0.688352 1.92673 0
M  V30 3763 H 359.741 -0.536464 4.04458 0
M  V30 3764 H 358.416 0.61383 4.11345 0
M  V30 3765 H 356.993 -1.12999 3.55367 0
M  V30 3766 N 359.178 -1.55987 0.224894 0
M  V30 3767 C 360.111 -2.16413 -0.723929 0
M  V30 3768 C 361.089 -1.10952 -1.18863 0
M  V30 3769 O 362.273 -1.39225 -1.27077 0
M  V30 3770 C 359.4 -2.74711 -1.98121 0
M  V30 3771 C 358.446 -3.9303 -1.6562 0
M  V30 3772 S 359.279 -5.29817 -0.778058 0
M  V30 3773 C 360.435 -5.91555 -2.04483 0
M  V30 3774 H 360.668 -2.96555 -0.210347 0
M  V30 3775 H 358.201 -1.54397 0.00955457 0
M  V30 3776 H 360.159 -3.08938 -2.70311 0
M  V30 3777 H 358.82 -1.94555 -2.46591 0
M  V30 3778 H 358.013 -4.32334 -2.59043 0
M  V30 3779 H 357.615 -3.59966 -1.01491 0
M  V30 3780 H 359.907 -6.07732 -2.99446 0
M  V30 3781 H 360.85 -6.87498 -1.69563 0
M  V30 3782 H 361.258 -5.20419 -2.18688 0
M  V30 3783 N 360.656 0.0484629 -1.57525 0
M  V30 3784 C 361.604 1.07359 -2.06341 0
M  V30 3785 C 362.598 1.3865 -0.973269 0
M  V30 3786 O 363.804 1.37783 -1.15827 0
M  V30 3787 H 360.179 0.363662 -0.65822 0
M  V30 3788 H 362.15 0.635916 -2.91545 0
M  V30 3789 C 360.899 2.37198 -2.54229 0
M  V30 3790 H 360.222 2.13977 -3.37719 0
M  V30 3791 H 361.662 3.07319 -2.92115 0
M  V30 3792 C 360.121 3.04805 -1.43511 0
M  V30 3793 O 360.651 3.93848 -0.79034 0
M  V30 3794 N 358.857 2.65811 -1.17444 0
M  V30 3795 H 358.404 1.93488 -1.70059 0
M  V30 3796 H 358.362 3.11366 -0.435737 0
M  V30 3797 N 362.134 1.5431 0.320358 0
M  V30 3798 C 363.383 1.7188 1.05546 0
M  V30 3799 C 363.696 0.501143 1.89071 0
M  V30 3800 O 364.902 0.558258 2.65699 0
M  V30 3801 C 363.358 3.04025 1.92605 0
M  V30 3802 C 362.966 4.33207 1.14176 0
M  V30 3803 C 364.71 3.30959 2.65832 0
M  V30 3804 C 362.617 5.56412 2.00399 0
M  V30 3805 H 361.547 0.640547 0.397763 0
M  V30 3806 H 364.198 1.80802 0.313522 0
M  V30 3807 H 362.58 2.89019 2.7071 0
M  V30 3808 H 363.754 4.58989 0.40819 0
M  V30 3809 H 362.069 4.13062 0.526165 0
M  V30 3810 H 364.666 4.20203 3.30656 0
M  V30 3811 H 365.009 2.48979 3.33639 0
M  V30 3812 H 365.542 3.46847 1.94787 0
M  V30 3813 H 362.281 6.41004 1.37094 0
M  V30 3814 H 361.801 5.34844 2.7148 0
M  V30 3815 H 363.48 5.92938 2.58908 0
M  V30 3816 N 363.613 -0.582584 1.46437 0
M  V30 3817 C 365.024 -1.1647 1.45916 0
M  V30 3818 C 365.375 -1.95177 0.200077 0
M  V30 3819 O 364.5 -2.04874 -0.696819 0
M  V30 3820 C 365.095 -2.11885 2.64367 0
M  V30 3821 C 363.654 -2.65421 2.66887 0
M  V30 3822 C 362.801 -1.41294 2.38603 0
M  V30 3823 H 365.752 -0.370514 1.54314 0
M  V30 3824 H 365.773 -2.9535 2.39892 0
M  V30 3825 H 365.285 -1.54573 3.5599 0
M  V30 3826 H 363.386 -3.26602 1.79338 0
M  V30 3827 H 363.499 -3.08147 3.66854 0
M  V30 3828 H 361.863 -1.71109 1.88663 0
M  V30 3829 H 362.646 -0.858125 3.32402 0
M  V30 3830 N 365.091 -1.34144 -0.827227 0
M  V30 3831 C 366.054 -1.25264 -1.91942 0
M  V30 3832 C 367.054 -0.168866 -1.59911 0
M  V30 3833 O 368.244 -0.421198 -1.69031 0
M  V30 3834 C 365.376 -0.932952 -3.27885 0
M  V30 3835 H 366.569 -2.22357 -2.0124 0
M  V30 3836 H 364.122 -1.1837 -1.0207 0
M  V30 3837 H 364.857 0.0349917 -3.24281 0
M  V30 3838 H 364.642 -1.71682 -3.52516 0
M  V30 3839 H 366.132 -0.895874 -4.07877 0
M  V30 3840 N 366.569 1.04691 -1.17803 0
M  V30 3841 C 367.499 2.14494 -0.92275 0
M  V30 3842 C 368.48 1.69546 0.137179 0
M  V30 3843 O 369.665 1.94195 -0.0141108 0
M  V30 3844 C 366.795 3.44491 -0.440803 0
M  V30 3845 C 365.749 4.03031 -1.4405 0
M  V30 3846 C 365.075 5.28432 -0.81631 0
M  V30 3847 C 366.375 4.39932 -2.81527 0
M  V30 3848 H 368.069 2.36107 -1.84103 0
M  V30 3849 H 365.615 1.1347 -0.886599 0
M  V30 3850 H 367.568 4.2066 -0.249602 0
M  V30 3851 H 366.292 3.22546 0.513025 0
M  V30 3852 H 364.951 3.28937 -1.61853 0
M  V30 3853 H 364.599 5.02792 0.144511 0
M  V30 3854 H 364.299 5.68559 -1.48371 0
M  V30 3855 H 365.823 6.07284 -0.635496 0
M  V30 3856 H 367.237 5.07113 -2.67412 0
M  V30 3857 H 365.634 4.9109 -3.44892 0
M  V30 3858 H 366.704 3.50045 -3.35554 0
M  V30 3859 N 368.047 0.979072 1.23499 0
M  V30 3860 C 369.293 0.648178 1.92163 0
M  V30 3861 C 369.626 -0.816049 1.76222 0
M  V30 3862 O 368.901 -1.58849 1.12237 0
M  V30 3863 C 369.184 1.03773 3.44824 0
M  V30 3864 C 369.037 2.55948 3.69879 0
M  V30 3865 C 370.356 0.580653 4.36253 0
M  V30 3866 H 367.475 0.236952 0.69787 0
M  V30 3867 H 370.117 1.22012 1.45647 0
M  V30 3868 H 368.267 0.551058 3.84572 0
M  V30 3869 H 369.939 3.12179 3.3962 0
M  V30 3870 H 368.182 2.98641 3.14636 0
M  V30 3871 H 368.853 2.78255 4.76737 0
M  V30 3872 H 371.329 0.998465 4.03943 0
M  V30 3873 H 370.205 0.881663 5.41773 0
M  V30 3874 H 370.466 -0.519052 4.39042 0
M  V30 3875 N 369.525 -1.3858 0.750561 0
M  V30 3876 C 370.773 -1.99789 0.30477 0
M  V30 3877 C 371.094 -1.59874 -1.11649 0
M  V30 3878 O 370.364 -0.85417 -1.76297 0
M  V30 3879 H 368.944 -0.738902 0.109694 0
M  V30 3880 H 371.606 -1.69391 0.963983 0
M  V30 3881 H 370.702 -3.09952 0.365499 0
M  V30 3882 N 371.003 -0.499398 -1.49478 0
M  V30 3883 C 371.95 0.279881 -2.29097 0
M  V30 3884 C 372.92 0.961805 -1.3542 0
M  V30 3885 O 374.105 0.968777 -1.64376 0
M  V30 3886 C 371.245 1.33932 -3.18051 0
M  V30 3887 C 370.358 0.669333 -4.26783 0
M  V30 3888 C 369.493 1.70907 -5.02955 0
M  V30 3889 C 368.532 1.02087 -6.03527 0
M  V30 3890 N 367.669 2.00474 -6.7287 0
M  V30 3891 H 372.509 -0.405317 -2.95231 0
M  V30 3892 H 370.046 -0.211726 -1.45568 0
M  V30 3893 H 372.004 1.96553 -3.67998 0
M  V30 3894 H 370.634 1.9933 -2.53904 0
M  V30 3895 H 369.686 -0.0701234 -3.80335 0
M  V30 3896 H 370.998 0.127503 -4.98637 0
M  V30 3897 H 370.152 2.41037 -5.56764 0
M  V30 3898 H 368.891 2.28476 -4.30871 0
M  V30 3899 H 367.896 0.305338 -5.48951 0
M  V30 3900 H 369.121 0.451708 -6.77596 0
M  V30 3901 H 367.067 2.57007 -6.03559 0
M  V30 3902 H 366.984 1.51353 -7.40694 0
M  V30 3903 H 368.252 2.69897 -7.31284 0
M  V30 3904 N 372.481 1.55866 -0.233164 0
M  V30 3905 C 373.729 1.9821 0.394593 0
M  V30 3906 C 374.05 1.12234 1.59463 0
M  V30 3907 O 373.32 0.201981 1.94856 0
M  V30 3908 H 371.9 0.732034 0.148778 0
M  V30 3909 H 374.562 1.92107 -0.32876 0
M  V30 3910 H 373.658 3.03845 0.713063 0
M  V30 3911 N 373.959 -0.0401083 1.57549 0
M  V30 3912 C 375.199 -0.738098 1.90608 0
M  V30 3913 C 375.563 -1.73107 0.830539 0
M  V30 3914 O 376.764 -2.4765 1.04513 0
M  V30 3915 C 375.035 -1.39985 3.28845 0
M  V30 3916 S 376.594 -2.12852 3.83718 0
M  V30 3917 H 373.412 -0.24477 0.667539 0
M  V30 3918 H 376.014 0.00693599 1.95499 0
M  V30 3919 H 374.718 -0.663775 4.04997 0
M  V30 3920 H 374.249 -2.18366 3.2723 0
M  V30 3921 H 376.264 -3.39842 3.61555 0
M  V30 3922 N 375.437 -1.54477 -0.31217 0
M  V30 3923 C 376.367 -1.87652 -1.38957 0
M  V30 3924 C 377.348 -0.734358 -1.53431 0
M  V30 3925 O 378.533 -0.98911 -1.67123 0
M  V30 3926 C 375.663 -2.11396 -2.75552 0
M  V30 3927 C 374.617 -3.27243 -2.75855 0
M  V30 3928 C 373.943 -3.36382 -4.15633 0
M  V30 3929 C 375.243 -4.64622 -2.38587 0
M  V30 3930 H 376.937 -2.77887 -1.11442 0
M  V30 3931 H 374.483 -1.33707 -0.534655 0
M  V30 3932 H 376.436 -2.33189 -3.51 0
M  V30 3933 H 375.16 -1.17921 -3.04569 0
M  V30 3934 H 373.819 -3.05356 -2.02863 0
M  V30 3935 H 373.467 -2.40445 -4.41809 0
M  V30 3936 H 373.167 -4.14249 -4.1674 0
M  V30 3937 H 374.691 -3.60422 -4.92877 0
M  V30 3938 H 376.105 -4.86219 -3.03749 0
M  V30 3939 H 374.502 -5.45121 -2.50925 0
M  V30 3940 H 375.572 -4.66097 -1.33723 0
M  V30 3941 N 376.915 0.57481 -1.46744 0
M  V30 3942 C 378.164 1.32898 -1.51727 0
M  V30 3943 C 378.477 1.948 -0.176692 0
M  V30 3944 O 379.683 2.71299 -0.104385 0
M  V30 3945 C 378.139 2.40901 -2.67385 0
M  V30 3946 C 377.747 1.85266 -4.07898 0
M  V30 3947 C 379.491 3.17609 -2.81646 0
M  V30 3948 C 377.398 2.90945 -5.14883 0
M  V30 3949 H 376.328 0.499631 -0.564699 0
M  V30 3950 H 378.979 0.612536 -1.72975 0
M  V30 3951 H 377.361 3.15379 -2.39483 0
M  V30 3952 H 378.535 1.17278 -4.45626 0
M  V30 3953 H 376.85 1.21199 -3.98371 0
M  V30 3954 H 379.447 3.96493 -3.58744 0
M  V30 3955 H 379.79 3.70696 -1.89448 0
M  V30 3956 H 380.323 2.50239 -3.09233 0
M  V30 3957 H 377.062 2.42736 -6.089 0
M  V30 3958 H 376.582 3.57398 -4.81691 0
M  V30 3959 H 378.261 3.54755 -5.41071 0
M  V30 3960 N 378.394 1.34581 0.820102 0
M  V30 3961 C 379.324 1.29038 1.94606 0
M  V30 3962 C 380.305 0.1673 1.69275 0
M  V30 3963 O 381.49 0.360112 1.90832 0
M  V30 3964 C 378.62 1.04793 3.31113 0
M  V30 3965 C 377.574 2.13597 3.70891 0
M  V30 3966 C 376.9 1.74537 5.05412 0
M  V30 3967 C 378.2 3.55451 3.8269 0
M  V30 3968 H 379.894 2.23248 1.99501 0
M  V30 3969 H 377.44 1.0747 0.958449 0
M  V30 3970 H 379.393 0.995592 4.0947 0
M  V30 3971 H 378.117 0.0702565 3.26524 0
M  V30 3972 H 376.776 2.17905 2.9481 0
M  V30 3973 H 376.424 0.754226 4.97313 0
M  V30 3974 H 376.124 2.47361 5.32997 0
M  V30 3975 H 377.648 1.70803 5.86224 0
M  V30 3976 H 379.062 3.5354 4.51312 0
M  V30 3977 H 377.459 4.26922 4.21732 0
M  V30 3978 H 378.529 3.92587 2.84611 0
M  V30 3979 N 379.872 -1.04064 1.18357 0
M  V30 3980 C 381.097 -1.81454 1.00445 0
M  V30 3981 C 381.522 -1.82823 -0.442423 0
M  V30 3982 O 380.88 -1.24555 -1.31741 0
M  V30 3983 C 380.928 -3.24925 1.56384 0
M  V30 3984 O 380.032 -4.04856 0.785209 0
M  V30 3985 H 379.373 -0.560604 0.355835 0
M  V30 3986 H 381.903 -1.31059 1.57114 0
M  V30 3987 H 381.913 -3.75702 1.59097 0
M  V30 3988 H 380.588 -3.23244 2.61699 0
M  V30 3989 H 379.165 -3.63537 0.830399 0
M  V30 3990 N 381.35 -0.985608 -1.22978 0
M  V30 3991 C 382.627 -0.573599 -1.87001 0
M  V30 3992 C 383.007 0.949213 -1.88555 0
M  V30 3993 O 382.355 1.82811 -1.37086 0
M  V30 3994 C 382.565 -1.18564 -3.28243 0
M  V30 3995 C 383.913 -1.28163 -4.04796 0
M  V30 3996 O 384.937 -1.13949 -3.37482 0
M  V30 3997 O 383.796 -1.50832 -5.25273 0
M  V30 3998 H 380.89 -0.193868 -0.803955 0
M  V30 3999 H 383.436 -1.08102 -1.30813 0
M  V30 4000 H 382.208 -2.22758 -3.21706 0
M  V30 4001 H 381.831 -0.663363 -3.92027 0
M  V30 4002 N 382.828 1.3818 -0.7579 0
M  V30 4003 C 383.738 2.3421 -0.135247 0
M  V30 4004 C 384.754 1.59487 0.695683 0
M  V30 4005 O 385.93 1.91657 0.618832 0
M  V30 4006 C 382.995 3.3862 0.744139 0
M  V30 4007 C 382.056 4.2918 -0.101658 0
M  V30 4008 C 381.289 5.28603 0.735851 0
M  V30 4009 O 381.512 5.35166 1.97366 0
M  V30 4010 O 380.446 6.01707 0.152372 0
M  V30 4011 H 384.272 2.8916 -0.928436 0
M  V30 4012 H 381.857 1.40101 -0.518855 0
M  V30 4013 H 383.739 4.02539 1.2466 0
M  V30 4014 H 382.414 2.86019 1.51575 0
M  V30 4015 H 381.321 3.68407 -0.650167 0
M  V30 4016 H 382.654 4.85048 -0.836024 0
M  V30 4017 N 384.306 0.507319 1.49211 0
M  V30 4018 C 385.236 -0.256939 2.32082 0
M  V30 4019 C 386.217 -0.956609 1.40652 0
M  V30 4020 O 387.402 -0.946788 1.69557 0
M  V30 4021 C 384.532 -1.31802 3.21318 0
M  V30 4022 C 383.486 -0.737855 4.21592 0
M  V30 4023 C 382.812 -1.89992 4.99807 0
M  V30 4024 C 384.112 0.275325 5.21574 0
M  V30 4025 H 385.806 0.434798 2.96226 0
M  V30 4026 H 383.352 0.210546 1.42452 0
M  V30 4027 H 385.305 -1.86045 3.78107 0
M  V30 4028 H 384.029 -2.03903 2.5513 0
M  V30 4029 H 382.688 -0.217126 3.65956 0
M  V30 4030 H 382.336 -2.60877 4.30061 0
M  V30 4031 H 382.036 -1.51777 5.6766 0
M  V30 4032 H 383.56 -2.44657 5.59442 0
M  V30 4033 H 384.974 -0.179193 5.7302 0
M  V30 4034 H 383.371 0.573649 5.97352 0
M  V30 4035 H 384.441 1.18903 4.70096 0
M  V30 4036 N 385.784 -1.5574 0.241426 0
M  V30 4037 C 386.732 -2.22538 -0.676718 0
M  V30 4038 C 387.726 -1.21117 -1.18436 0
M  V30 4039 O 388.932 -1.39144 -1.14188 0
M  V30 4040 H 385.307 -0.713776 -0.236701 0
M  V30 4041 H 387.278 -2.98264 -0.0901187 0
M  V30 4042 C 386.027 -2.93439 -1.86518 0
M  V30 4043 H 385.35 -3.7125 -1.4837 0
M  V30 4044 H 386.79 -3.43549 -2.48495 0
M  V30 4045 C 385.249 -1.97008 -2.73294 0
M  V30 4046 O 385.779 -1.49965 -3.72657 0
M  V30 4047 N 383.985 -1.64227 -2.39745 0
M  V30 4048 H 383.532 -2.02677 -1.58996 0
M  V30 4049 H 383.49 -0.999708 -2.98083 0
M  V30 4050 N 387.262 0.0317525 -1.57568 0
M  V30 4051 C 388.212 1.04101 -2.02847 0
M  V30 4052 C 389.196 1.3219 -0.917317 0
M  V30 4053 O 390.388 1.31819 -1.18121 0
M  V30 4054 C 387.517 2.34295 -2.5092 0
M  V30 4055 C 386.603 2.09308 -3.68851 0
M  V30 4056 N 386.994 1.5437 -4.81667 0
M  V30 4057 C 385.292 2.39604 -3.76172 0
M  V30 4058 C 385.993 1.45126 -5.63306 0
M  V30 4059 N 384.969 1.92589 -5.08341 0
M  V30 4060 H 388.771 0.610217 -2.87495 0
M  V30 4061 H 386.285 0.238108 -1.60645 0
M  V30 4062 H 388.282 3.07404 -2.81617 0
M  V30 4063 H 386.942 2.78055 -1.67677 0
M  V30 4064 H 387.953 1.22678 -5.03161 0
M  V30 4065 H 384.63 2.86457 -3.03724 0
M  V30 4066 H 386.02 1.03163 -6.63933 0
M  V30 4067 N 388.74 1.54641 0.303973 0
M  V30 4068 C 389.703 1.84646 1.35789 0
M  V30 4069 C 390.703 0.7192 1.4382 0
M  V30 4070 O 391.893 0.987491 1.43507 0
M  V30 4071 C 389.025 2.02407 2.74307 0
M  V30 4072 H 390.218 2.78829 1.10429 0
M  V30 4073 H 387.771 1.46658 0.540487 0
M  V30 4074 H 388.506 1.10502 3.04893 0
M  V30 4075 H 388.291 2.84453 2.69868 0
M  V30 4076 H 389.781 2.27002 3.50514 0
M  V30 4077 N 390.218 -0.567019 1.47046 0
M  V30 4078 C 391.443 -1.3551 1.57009 0
M  V30 4079 C 391.868 -1.86841 0.217259 0
M  V30 4080 O 391.226 -1.62435 -0.805268 0
M  V30 4081 C 391.274 -2.50777 2.5912 0
M  V30 4082 O 390.378 -3.52706 2.13711 0
M  V30 4083 H 389.719 -0.402919 0.52778 0
M  V30 4084 H 392.249 -0.686241 1.92748 0
M  V30 4085 H 392.259 -2.97481 2.79229 0
M  V30 4086 H 390.934 -2.12771 3.57353 0
M  V30 4087 H 389.511 -3.12374 2.03659 0
M  V30 4088 N 391.696 -1.35014 -0.812953 0
M  V30 4089 C 392.626 -1.30069 -1.93919 0
M  V30 4090 C 393.607 -0.176275 -1.69184 0
M  V30 4091 O 394.792 -0.370227 -1.90638 0
M  V30 4092 C 391.922 -1.06547 -3.30552 0
M  V30 4093 C 390.876 -2.15561 -3.69753 0
M  V30 4094 C 390.202 -1.77214 -5.04479 0
M  V30 4095 C 391.502 -3.57476 -3.808 0
M  V30 4096 H 393.196 -2.24303 -1.98314 0
M  V30 4097 H 390.742 -1.07977 -0.952736 0
M  V30 4098 H 392.695 -1.01729 -4.08937 0
M  V30 4099 H 391.419 -0.0875719 -3.26483 0
M  V30 4100 H 390.078 -2.19466 -2.9365 0
M  V30 4101 H 389.726 -0.780589 -4.96906 0
M  V30 4102 H 389.426 -2.50184 -5.31678 0
M  V30 4103 H 390.95 -1.7391 -5.8531 0
M  V30 4104 H 392.364 -3.55929 -4.4943 0
M  V30 4105 H 390.761 -4.29152 -4.19462 0
M  V30 4106 H 391.831 -3.94091 -2.82525 0
M  V30 4107 N 393.175 1.03435 -1.18907 0
M  V30 4108 C 394.421 1.77005 -0.989798 0
M  V30 4109 C 394.754 1.88205 0.478816 0
M  V30 4110 O 394.029 1.39481 1.35556 0
M  V30 4111 C 394.312 3.19925 -1.65287 0
M  V30 4112 C 394.165 3.1663 -3.19477 0
M  V30 4113 C 395.484 4.18189 -1.37134 0
M  V30 4114 H 392.603 0.642538 -0.360991 0
M  V30 4115 H 395.245 1.20784 -1.46667 0
M  V30 4116 H 393.395 3.67929 -1.24741 0
M  V30 4117 H 395.067 2.76567 -3.692 0
M  V30 4118 H 393.31 2.54491 -3.51307 0
M  V30 4119 H 393.981 4.1758 -3.61013 0
M  V30 4120 H 396.457 3.78761 -1.72276 0
M  V30 4121 H 395.333 5.16394 -1.86087 0
M  V30 4122 H 395.594 4.41112 -0.295424 0
M  V30 4123 N 394.653 0.992116 1.22453 0
M  V30 4124 C 395.583 0.561677 2.26644 0
M  V30 4125 C 396.564 -0.411055 1.65059 0
M  V30 4126 O 397.749 -0.301861 1.9184 0
M  V30 4127 C 394.879 -0.125247 3.47074 0
M  V30 4128 C 393.833 0.765948 4.21091 0
M  V30 4129 C 393.159 -0.0538484 5.34673 0
M  V30 4130 C 394.459 2.06242 4.79856 0
M  V30 4131 H 396.153 1.43259 2.62902 0
M  V30 4132 H 393.699 0.690283 1.26377 0
M  V30 4133 H 395.652 -0.437764 4.1912 0
M  V30 4134 H 394.376 -1.03069 3.0991 0
M  V30 4135 H 393.035 1.0621 3.50878 0
M  V30 4136 H 392.683 -0.960188 4.9375 0
M  V30 4137 H 392.383 0.539415 5.85119 0
M  V30 4138 H 393.907 -0.360477 6.09535 0
M  V30 4139 H 395.321 1.8139 5.43848 0
M  V30 4140 H 393.718 2.60444 5.40638 0
M  V30 4141 H 394.788 2.74167 3.99951 0
M  V30 4142 N 396.131 -1.37776 0.765217 0
M  V30 4143 C 397.379 -1.99454 0.325943 0
M  V30 4144 C 397.7 -1.61049 -1.09947 0
M  V30 4145 O 396.97 -0.872821 -1.75381 0
M  V30 4146 H 395.55 -0.737697 0.117525 0
M  V30 4147 H 398.212 -1.68359 0.981895 0
M  V30 4148 H 397.308 -3.09547 0.398353 0
M  V30 4149 N 397.609 -0.515225 -1.4894 0
M  V30 4150 C 398.572 0.244681 -2.2789 0
M  V30 4151 C 399.572 0.881166 -1.34507 0
M  V30 4152 O 400.762 0.743497 -1.57537 0
M  V30 4153 C 397.894 1.35247 -3.12923 0
M  V30 4154 H 399.087 -0.448289 -2.96531 0
M  V30 4155 H 396.64 -0.270656 -1.53939 0
M  V30 4156 H 397.375 2.07916 -2.48881 0
M  V30 4157 H 397.16 0.901374 -3.81599 0
M  V30 4158 H 398.65 1.88737 -3.72516 0
M  V30 4159 N 399.087 1.5561 -0.249682 0
M  V30 4160 C 400.503 1.59254 0.105103 0
M  V30 4161 C 400.703 1.26685 1.56694 0
M  V30 4162 O 399.759 1.0155 2.31179 0
M  V30 4163 C 401.072 2.99687 -0.246592 0
M  V30 4164 C 402.62 3.12416 -0.191118 0
M  V30 4165 C 403.095 4.55074 -0.516885 0
M  V30 4166 N 404.586 4.60835 -0.467489 0
M  V30 4167 C 405.321 5.69201 -0.69268 0
M  V30 4168 N 404.817 6.85817 -0.981146 0
M  V30 4169 N 406.61 5.58635 -0.623198 0
M  V30 4170 H 398.761 1.75049 -1.20298 0
M  V30 4171 H 401.024 0.815003 -0.484225 0
M  V30 4172 H 400.73 3.28267 -1.26228 0
M  V30 4173 H 400.604 3.74798 0.424962 0
M  V30 4174 H 402.991 2.83615 0.815247 0
M  V30 4175 H 403.072 2.39573 -0.896563 0
M  V30 4176 H 402.716 4.84596 -1.52082 0
M  V30 4177 H 402.646 5.26181 0.210068 0
M  V30 4178 H 405.137 3.7705 -0.253373 0
M  V30 4179 H 405.45 7.64341 -1.14032 0
M  V30 4180 H 403.795 6.87494 -1.01865 0
M  V30 4181 H 406.986 4.66406 -0.397863 0
M  V30 4182 H 407.159 6.43017 -0.802093 0
M  V30 4183 N 400.565 -0.0233959 1.57583 0
M  V30 4184 C 401.495 -1.02162 2.09965 0
M  V30 4185 C 402.476 -1.3735 1.00344 0
M  V30 4186 O 403.661 -1.46135 1.27899 0
M  V30 4187 C 400.791 -2.32081 2.58371 0
M  V30 4188 C 399.745 -2.1112 3.72307 0
M  V30 4189 C 399.071 -3.46848 4.06941 0
M  V30 4190 C 400.371 -1.49276 5.00514 0
M  V30 4191 H 402.065 -0.585557 2.93618 0
M  V30 4192 H 399.611 -0.280218 1.41247 0
M  V30 4193 H 401.564 -3.02249 2.93639 0
M  V30 4194 H 400.288 -2.77758 1.71808 0
M  V30 4195 H 398.947 -1.43384 3.37397 0
M  V30 4196 H 398.595 -3.90184 3.17436 0
M  V30 4197 H 398.295 -3.33646 4.83688 0
M  V30 4198 H 399.819 -4.18369 4.44747 0
M  V30 4199 H 401.233 -2.09368 5.33702 0
M  V30 4200 H 399.63 -1.46632 5.8191 0
M  V30 4201 H 400.7 -0.459217 4.82721 0
M  V30 4202 N 402.043 -1.548 -0.295768 0
M  V30 4203 C 403.268 -1.78653 -1.05346 0
M  V30 4204 C 403.693 -0.546894 -1.79974 0
M  V30 4205 O 403.051 0.502763 -1.7419 0
M  V30 4206 C 403.099 -2.99679 -2.00561 0
M  V30 4207 O 402.203 -2.7317 -3.08953 0
M  V30 4208 H 401.544 -0.59116 -0.302367 0
M  V30 4209 H 404.074 -2.01895 -0.331598 0
M  V30 4210 H 404.084 -3.27793 -2.42932 0
M  V30 4211 H 402.759 -3.89562 -1.4565 0
M  V30 4212 H 401.336 -2.56089 -2.71059 0
M  V30 4213 N 403.521 0.559213 -1.47345 0
M  V30 4214 C 404.769 1.31388 -1.53563 0
M  V30 4215 C 405.09 1.93985 -0.198678 0
M  V30 4216 O 404.36 1.79825 0.777167 0
M  V30 4217 H 402.94 0.487901 -0.565652 0
M  V30 4218 H 405.602 0.65315 -1.8363 0
M  V30 4219 H 404.698 2.10844 -2.30111 0
M  V30 4220 N 404.999 1.35443 0.805782 0
M  V30 4221 C 405.962 1.28301 1.89925 0
M  V30 4222 C 406.962 0.194285 1.59622 0
M  V30 4223 O 408.152 0.448036 1.6834 0
M  V30 4224 C 405.284 0.984997 3.2636 0
M  V30 4225 H 406.477 2.2553 1.97677 0
M  V30 4226 H 404.03 1.19979 1.00173 0
M  V30 4227 H 404.765 0.016603 3.24296 0
M  V30 4228 H 404.55 1.77269 3.4974 0
M  V30 4229 H 406.04 0.960651 4.064 0
M  V30 4230 N 406.477 -1.02803 1.19454 0
M  V30 4231 C 407.705 -1.79841 1.02297 0
M  V30 4232 C 408.12 -1.83879 -0.428259 0
M  V30 4233 O 407.477 -1.28345 -1.29745 0
M  V30 4234 C 407.528 -3.24852 1.58598 0
M  V30 4235 O 407.249 -3.21097 2.98041 0
M  V30 4236 C 408.75 -4.18485 1.46236 0
M  V30 4237 H 405.97 -0.565936 0.360496 0
M  V30 4238 H 408.514 -1.2948 1.58288 0
M  V30 4239 H 406.669 -3.72401 1.06753 0
M  V30 4240 H 407.083 -4.12033 3.24545 0
M  V30 4241 H 408.557 -5.18121 1.90407 0
M  V30 4242 H 409.034 -4.37254 0.41301 0
M  V30 4243 H 409.64 -3.76811 1.97215 0
M  V30 4244 N 407.956 -0.998596 -1.21925 0
M  V30 4245 C 409.205 -0.673085 -1.90138 0
M  V30 4246 C 409.518 0.79895 -1.78539 0
M  V30 4247 O 410.724 1.23628 -2.4172 0
M  V30 4248 C 409.18 -1.15339 -3.40918 0
M  V30 4249 C 408.788 -2.65106 -3.61141 0
M  V30 4250 C 410.532 -0.902476 -4.14796 0
M  V30 4251 C 408.439 -3.0671 -5.05651 0
M  V30 4252 H 407.369 -0.248057 -0.712028 0
M  V30 4253 H 410.02 -1.20891 -1.38049 0
M  V30 4254 H 408.402 -0.545658 -3.92223 0
M  V30 4255 H 409.576 -3.31274 -3.20304 0
M  V30 4256 H 407.891 -2.88142 -3.00605 0
M  V30 4257 H 410.488 -1.18895 -5.21314 0
M  V30 4258 H 410.831 0.161349 -4.15987 0
M  V30 4259 H 411.364 -1.47269 -3.69536 0
M  V30 4260 H 408.103 -4.12292 -5.09603 0
M  V30 4261 H 407.623 -2.45249 -5.47369 0
M  V30 4262 H 409.302 -2.9833 -5.74115 0
M  V30 4263 N 409.434 1.37368 -0.772513 0
M  V30 4264 C 410.85 1.53059 -0.452231 0
M  V30 4265 C 411.05 1.73065 1.03203 0
M  V30 4266 O 410.106 1.75245 1.81784 0
M  V30 4267 C 411.419 2.72659 -1.26797 0
M  V30 4268 C 412.967 2.86521 -1.25995 0
M  V30 4269 C 413.442 4.09105 -2.05905 0
M  V30 4270 N 414.933 4.16219 -2.03263 0
M  V30 4271 C 415.668 5.10107 -2.61875 0
M  V30 4272 N 415.164 6.09547 -3.29278 0
M  V30 4273 N 416.957 5.02596 -2.51701 0
M  V30 4274 H 409.108 1.22634 -1.7342 0
M  V30 4275 H 411.371 0.597206 -0.736239 0
M  V30 4276 H 411.077 2.64343 -2.31982 0
M  V30 4277 H 410.951 3.66363 -0.897672 0
M  V30 4278 H 413.338 2.94308 -0.216081 0
M  V30 4279 H 413.419 1.93774 -1.66989 0
M  V30 4280 H 413.063 4.0208 -3.10313 0
M  V30 4281 H 412.993 5.00968 -1.62292 0
M  V30 4282 H 415.484 3.45012 -1.54192 0
M  V30 4283 H 415.797 6.77718 -3.71374 0
M  V30 4284 H 414.142 6.09824 -3.33377 0
M  V30 4285 H 417.333 4.23855 -1.98657 0
M  V30 4286 H 417.506 5.75582 -2.97673 0
M  V30 4287 N 410.912 0.523116 1.48665 0
M  V30 4288 C 412.161 -0.01544 2.01694 0
M  V30 4289 C 412.474 -1.35975 1.40606 0
M  V30 4290 O 413.68 -1.98627 1.85093 0
M  V30 4291 C 412.136 -0.0779303 3.59816 0
M  V30 4292 C 411.744 1.26107 4.29885 0
M  V30 4293 C 413.488 -0.565678 4.20714 0
M  V30 4294 C 411.395 1.15954 5.79921 0
M  V30 4295 H 410.325 -0.00954163 0.75394 0
M  V30 4296 H 412.976 0.665865 1.70993 0
M  V30 4297 H 411.358 -0.824165 3.87329 0
M  V30 4298 H 412.532 2.02233 4.14051 0
M  V30 4299 H 410.847 1.68401 3.80828 0
M  V30 4300 H 413.444 -0.6595 5.30617 0
M  V30 4301 H 413.787 -1.56984 3.85567 0
M  V30 4302 H 414.32 0.12467 3.97605 0
M  V30 4303 H 411.059 2.13864 6.19631 0
M  V30 4304 H 410.579 0.439529 5.98187 0
M  V30 4305 H 412.258 0.847361 6.41427 0
M  V30 4306 N 412.39 -1.55475 0.257931 0
M  V30 4307 C 413.637 -1.99207 -0.363728 0
M  V30 4308 C 413.965 -1.1462 -1.57139 0
M  V30 4309 O 413.22 -0.199653 -1.94679 0
M  V30 4310 C 413.519 -3.48183 -0.806433 0
M  V30 4311 C 413.185 -4.49936 0.294684 0
M  V30 4312 C 411.847 -4.77481 0.597076 0
M  V30 4313 C 414.199 -5.10769 1.03751 0
M  V30 4314 C 411.527 -5.63132 1.64618 0
M  V30 4315 C 413.879 -5.97558 2.07622 0
M  V30 4316 C 412.543 -6.23432 2.38514 0
M  V30 4317 H 411.813 -0.728949 -0.133097 0
M  V30 4318 H 414.46 -1.8793 0.368059 0
M  V30 4319 H 412.765 -3.56848 -1.61761 0
M  V30 4320 H 414.462 -3.79415 -1.29789 0
M  V30 4321 H 411.052 -4.28572 0.0488649 0
M  V30 4322 H 415.236 -4.89527 0.817149 0
M  V30 4323 H 410.492 -5.8143 1.89074 0
M  V30 4324 H 414.666 -6.43735 2.65666 0
M  V30 4325 H 412.293 -6.89594 3.19943 0
M  V30 4326 N 413.868 0.0150385 -1.57593 0
M  V30 4327 C 414.815 1.01126 -2.07466 0
M  V30 4328 C 415.785 1.35064 -0.966794 0
M  V30 4329 O 416.97 1.4516 -1.23827 0
M  V30 4330 C 414.11 2.30276 -2.57035 0
M  V30 4331 C 413.223 2.02373 -3.81666 0
M  V30 4332 C 412.358 3.25496 -4.19793 0
M  V30 4333 C 411.397 2.93211 -5.37303 0
M  V30 4334 N 410.534 4.08826 -5.70794 0
M  V30 4335 H 415.374 0.57901 -2.92321 0
M  V30 4336 H 412.911 0.27426 -1.44521 0
M  V30 4337 H 414.869 3.05757 -2.83846 0
M  V30 4338 H 413.499 2.71197 -1.75077 0
M  V30 4339 H 412.551 1.17327 -3.61854 0
M  V30 4340 H 413.863 1.74567 -4.67256 0
M  V30 4341 H 413.017 4.09333 -4.47807 0
M  V30 4342 H 411.756 3.56428 -3.32882 0
M  V30 4343 H 410.761 2.07777 -5.09027 0
M  V30 4344 H 411.986 2.63542 -6.25877 0
M  V30 4345 H 409.932 4.39682 -4.86842 0
M  V30 4346 H 409.849 3.84491 -6.50924 0
M  V30 4347 H 411.117 4.93496 -6.03392 0
M  V30 4348 N 415.346 1.54954 0.287554 0
M  V30 4349 C 416.296 1.8322 1.357 0
M  V30 4350 C 417.28 0.690152 1.45347 0
M  V30 4351 O 418.472 0.951137 1.49273 0
M  V30 4352 C 415.601 2.09481 2.71979 0
M  V30 4353 C 414.687 3.29906 2.66502 0
M  V30 4354 N 415.078 4.50154 2.30641 0
M  V30 4355 C 413.376 3.32203 2.97585 0
M  V30 4356 C 414.077 5.32209 2.34794 0
M  V30 4357 N 413.053 4.70258 2.72688 0
M  V30 4358 H 416.855 2.73746 1.0696 0
M  V30 4359 H 414.369 1.54635 0.496167 0
M  V30 4360 H 416.366 2.27882 3.49107 0
M  V30 4361 H 415.026 1.2023 3.0162 0
M  V30 4362 H 416.037 4.76515 2.02865 0
M  V30 4363 H 412.714 2.53101 3.32034 0
M  V30 4364 H 414.104 6.38321 2.09753 0
M  V30 4365 N 416.824 -0.551391 1.4764 0
M  V30 4366 C 417.772 -1.67896 1.60978 0
M  V30 4367 C 418.766 -1.62549 0.476877 0
M  V30 4368 O 419.972 -1.67664 0.654878 0
M  V30 4369 H 416.347 -0.555649 0.506713 0
M  V30 4370 H 418.318 -1.53784 2.55721 0
M  V30 4371 C 417.067 -3.06234 1.64669 0
M  V30 4372 H 416.39 -3.11033 2.51194 0
M  V30 4373 H 417.83 -3.84804 1.7805 0
M  V30 4374 C 416.289 -3.34737 0.381115 0
M  V30 4375 O 416.819 -3.98381 -0.515297 0
M  V30 4376 N 415.025 -2.8944 0.259354 0
M  V30 4377 H 414.572 -2.37827 0.98976 0
M  V30 4378 H 414.53 -3.08882 -0.586464 0
M  V30 4379 N 418.302 -1.35869 -0.798587 0
M  V30 4380 C 419.25 -1.29491 -1.93222 0
M  V30 4381 C 420.244 -0.18836 -1.6835 0
M  V30 4382 O 421.45 -0.354822 -1.76468 0
M  V30 4383 H 417.825 -0.402901 -0.63496 0
M  V30 4384 H 419.796 -2.25247 -1.9572 0
M  V30 4385 C 418.545 -1.09184 -3.30112 0
M  V30 4386 H 417.868 -1.93574 -3.49813 0
M  V30 4387 H 419.308 -1.08766 -4.09812 0
M  V30 4388 C 417.767 0.203959 -3.36282 0
M  V30 4389 O 418.297 1.19699 -3.83451 0
M  V30 4390 N 416.503 0.245488 -2.89561 0
M  V30 4391 H 416.05 -0.563223 -2.51367 0
M  V30 4392 H 416.008 1.11219 -2.94071 0
M  V30 4393 N 419.78 1.02168 -1.19998 0
M  V30 4394 C 420.713 2.10232 -0.887558 0
M  V30 4395 C 421.691 1.61827 0.158317 0
M  V30 4396 O 422.875 1.88471 0.0330249 0
M  V30 4397 C 420.002 3.37092 -0.32964 0
M  V30 4398 C 419.048 4.0438 -1.3557 0
M  V30 4399 S 419.881 4.48956 -2.91888 0
M  V30 4400 C 421.037 5.79024 -2.37658 0
M  V30 4401 H 421.27 2.36409 -1.80272 0
M  V30 4402 H 418.803 1.15211 -1.0279 0
M  V30 4403 H 420.761 4.10498 -0.0142824 0
M  V30 4404 H 419.422 3.08996 0.563941 0
M  V30 4405 H 418.615 4.95632 -0.9146 0
M  V30 4406 H 418.217 3.37176 -1.61828 0
M  V30 4407 H 420.509 6.53942 -1.77103 0
M  V30 4408 H 421.452 6.27924 -3.27287 0
M  V30 4409 H 421.86 5.35043 -1.79971 0
M  V30 4410 N 421.258 1.00505 1.21394 0
M  V30 4411 C 422.19 0.52372 2.23136 0
M  V30 4412 C 423.203 -0.387714 1.58116 0
M  V30 4413 O 424.392 -0.187905 1.77508 0
M  V30 4414 C 421.492 -0.258885 3.3791 0
M  V30 4415 C 420.665 0.651634 4.32519 0
M  V30 4416 C 419.724 -0.0813705 5.26137 0
M  V30 4417 O 418.75 0.537295 5.66658 0
M  V30 4418 N 419.952 -1.35992 5.64346 0
M  V30 4419 H 422.717 1.39865 2.65062 0
M  V30 4420 H 420.278 0.881196 1.35818 0
M  V30 4421 H 422.27 -0.758208 3.97534 0
M  V30 4422 H 420.84 -1.035 2.94968 0
M  V30 4423 H 420.06 1.33145 3.71034 0
M  V30 4424 H 421.348 1.27129 4.92662 0
M  V30 4425 H 420.746 -1.88368 5.33417 0
M  V30 4426 H 419.303 -1.8042 6.26332 0
M  V30 4427 N 422.737 -1.36956 0.779787 0
M  V30 4428 C 423.962 -2.04283 0.358224 0
M  V30 4429 C 424.387 -1.58422 -1.01411 0
M  V30 4430 O 423.745 -0.748179 -1.65142 0
M  V30 4431 C 423.793 -3.58152 0.419479 0
M  V30 4432 O 422.897 -4.08342 -0.577142 0
M  V30 4433 H 422.238 -0.645967 0.153698 0
M  V30 4434 H 424.768 -1.75108 1.05822 0
M  V30 4435 H 424.778 -4.07041 0.279636 0
M  V30 4436 H 423.453 -3.90886 1.42061 0
M  V30 4437 H 422.03 -3.70751 -0.399755 0
M  V30 4438 N 424.215 -0.530993 -1.48385 0
M  V30 4439 C 425.145 0.219985 -2.32461 0
M  V30 4440 C 426.126 0.934111 -1.42156 0
M  V30 4441 O 427.311 0.919694 -1.71042 0
M  V30 4442 C 424.441 1.26674 -3.23375 0
M  V30 4443 C 423.395 0.67069 -4.22712 0
M  V30 4444 C 422.721 1.82017 -5.02766 0
M  V30 4445 C 424.021 -0.358268 -5.2107 0
M  V30 4446 H 425.715 -0.48187 -2.95497 0
M  V30 4447 H 423.261 -0.233182 -1.42099 0
M  V30 4448 H 425.214 1.80006 -3.81019 0
M  V30 4449 H 423.938 1.99818 -2.58341 0
M  V30 4450 H 422.597 0.158878 -3.66256 0
M  V30 4451 H 422.245 2.54002 -4.34157 0
M  V30 4452 H 421.945 1.42727 -5.70003 0
M  V30 4453 H 423.469 2.35725 -5.63264 0
M  V30 4454 H 424.883 0.0880081 -5.73232 0
M  V30 4455 H 423.28 -0.66861 -5.96364 0
M  V30 4456 H 424.35 -1.26367 -4.68145 0
M  V30 4457 N 425.693 1.55336 -0.266172 0
M  V30 4458 C 426.603 2.2583 0.635458 0
M  V30 4459 C 427.619 1.28106 1.17749 0
M  V30 4460 O 428.795 1.61024 1.20968 0
M  V30 4461 C 425.86 2.95879 1.80712 0
M  V30 4462 C 424.921 4.09059 1.30265 0
M  V30 4463 C 424.154 4.75759 2.41846 0
M  V30 4464 O 424.377 4.41622 3.61007 0
M  V30 4465 O 423.311 5.63888 2.1051 0
M  V30 4466 H 427.137 3.03631 0.0646693 0
M  V30 4467 H 424.722 1.49361 -0.0339177 0
M  V30 4468 H 426.604 3.39932 2.49047 0
M  V30 4469 H 425.279 2.21002 2.36516 0
M  V30 4470 H 424.186 3.69482 0.586019 0
M  V30 4471 H 425.519 4.85811 0.790458 0
M  V30 4472 N 427.171 -0.0066808 1.57599 0
M  V30 4473 C 428.118 -1.00024 2.08 0
M  V30 4474 C 429.088 -1.34549 0.973943 0
M  V30 4475 O 430.273 -1.44502 1.24595 0
M  V30 4476 C 427.413 -2.2891 2.58252 0
M  V30 4477 C 426.526 -2.00346 3.82734 0
M  V30 4478 C 425.661 -3.23265 4.21513 0
M  V30 4479 C 424.7 -2.90357 5.3885 0
M  V30 4480 N 423.837 -4.05793 5.72954 0
M  V30 4481 H 428.677 -0.563499 2.92624 0
M  V30 4482 H 426.214 -0.266592 1.44664 0
M  V30 4483 H 428.172 -3.04247 2.85464 0
M  V30 4484 H 426.802 -2.70265 1.76512 0
M  V30 4485 H 425.854 -1.15406 3.62471 0
M  V30 4486 H 427.166 -1.72086 4.68175 0
M  V30 4487 H 426.32 -4.06953 4.49971 0
M  V30 4488 H 425.059 -3.54657 3.34768 0
M  V30 4489 H 424.064 -2.05075 5.10122 0
M  V30 4490 H 425.289 -2.60219 6.27266 0
M  V30 4491 H 423.235 -4.37094 4.89167 0
M  V30 4492 H 423.152 -3.81034 6.52954 0
M  V30 4493 H 424.42 -4.90289 6.06001 0
M  V30 4494 N 428.649 -1.55105 -0.279332 0
M  V30 4495 C 429.579 -1.90557 -1.34945 0
M  V30 4496 C 430.56 -0.766738 -1.51839 0
M  V30 4497 O 431.745 -1.02434 -1.64988 0
M  V30 4498 C 428.875 -2.17193 -2.71006 0
M  V30 4499 C 427.829 -3.33021 -2.68851 0
M  V30 4500 C 427.155 -3.45123 -4.08405 0
M  V30 4501 C 428.455 -4.69578 -2.28678 0
M  V30 4502 H 430.149 -2.80188 -1.05522 0
M  V30 4503 H 427.695 -1.34811 -0.506173 0
M  V30 4504 H 429.648 -2.40581 -3.45975 0
M  V30 4505 H 428.372 -1.24355 -3.01999 0
M  V30 4506 H 427.031 -3.0959 -1.9634 0
M  V30 4507 H 426.679 -2.49762 -4.3661 0
M  V30 4508 H 426.379 -4.22995 -4.07859 0
M  V30 4509 H 427.903 -3.70796 -4.85121 0
M  V30 4510 H 429.317 -4.92553 -2.93368 0
M  V30 4511 H 427.714 -5.5032 -2.39306 0
M  V30 4512 H 428.784 -4.68828 -1.23807 0
M  V30 4513 N 430.127 0.543554 -1.4793 0
M  V30 4514 C 431.057 1.65888 -1.64327 0
M  V30 4515 C 432.038 1.62818 -0.492383 0
M  V30 4516 O 433.223 1.80226 -0.723338 0
M  V30 4517 C 430.353 3.04506 -1.67013 0
M  V30 4518 C 429.307 3.2243 -2.81466 0
M  V30 4519 C 428.633 4.61972 -2.69233 0
M  V30 4520 C 429.933 3.06496 -4.22915 0
M  V30 4521 H 431.627 1.52421 -2.57698 0
M  V30 4522 H 429.173 0.731849 -1.24016 0
M  V30 4523 H 431.126 3.82391 -1.77074 0
M  V30 4524 H 429.85 3.18964 -0.70212 0
M  V30 4525 H 428.509 2.46957 -2.70938 0
M  V30 4526 H 428.157 4.73247 -1.7043 0
M  V30 4527 H 427.857 4.74911 -3.46025 0
M  V30 4528 H 429.381 5.41974 -2.81242 0
M  V30 4529 H 430.795 3.74186 -4.34348 0
M  V30 4530 H 429.192 3.30938 -5.006 0
M  V30 4531 H 430.262 2.03077 -4.40327 0
M  V30 4532 N 431.605 1.3629 0.791371 0
M  V30 4533 C 432.552 1.30458 1.90393 0
M  V30 4534 C 433.522 0.173632 1.6519 0
M  V30 4535 O 434.707 0.35983 1.87376 0
M  V30 4536 C 431.847 1.09777 3.27174 0
M  V30 4537 C 430.96 2.31929 3.64462 0
M  V30 4538 C 430.095 2.04276 4.90352 0
M  V30 4539 C 429.134 3.224 5.20312 0
M  V30 4540 N 428.271 2.94424 6.37385 0
M  V30 4541 H 433.111 2.25589 1.94714 0
M  V30 4542 H 430.648 1.12122 0.952216 0
M  V30 4543 H 432.606 0.958133 4.06049 0
M  V30 4544 H 431.236 0.183014 3.22281 0
M  V30 4545 H 430.288 2.56703 2.80727 0
M  V30 4546 H 431.6 3.20085 3.82553 0
M  V30 4547 H 430.754 1.87231 5.77087 0
M  V30 4548 H 429.493 1.13428 4.74326 0
M  V30 4549 H 428.498 3.40005 4.32061 0
M  V30 4550 H 429.723 4.14071 5.38258 0
M  V30 4551 H 427.669 2.06185 6.22755 0
M  V30 4552 H 427.586 3.76118 6.55798 0
M  V30 4553 H 428.854 2.80953 7.27108 0
M  V30 4554 N 433.083 -1.0153 1.20538 0
M  V30 4555 C 434.36 -1.72327 0.925343 0
M  V30 4556 C 434.74 -2.03383 -0.565547 0
M  V30 4557 O 434.088 -1.69934 -1.52757 0
M  V30 4558 C 434.298 -2.9902 1.79967 0
M  V30 4559 C 435.646 -3.72258 2.04228 0
M  V30 4560 O 436.67 -3.08979 1.77231 0
M  V30 4561 O 435.529 -4.86053 2.4983 0
M  V30 4562 H 432.623 -0.751099 0.346092 0
M  V30 4563 H 435.169 -1.07366 1.31417 0
M  V30 4564 H 433.941 -2.72402 2.80915 0
M  V30 4565 H 433.564 -3.71721 1.41099 0
M  V30 4566 N 434.561 -1.01147 -1.20859 0
M  V30 4567 C 435.524 -0.582224 -2.21682 0
M  V30 4568 C 436.524 0.344887 -1.57058 0
M  V30 4569 O 437.714 0.134281 -1.73682 0
M  V30 4570 C 434.846 0.150496 -3.40568 0
M  V30 4571 H 436.039 -1.47408 -2.61172 0
M  V30 4572 H 433.592 -0.800695 -1.34233 0
M  V30 4573 H 434.327 1.0575 -3.06574 0
M  V30 4574 H 434.112 -0.515444 -3.88697 0
M  V30 4575 H 435.602 0.438344 -4.15293 0
M  V30 4576 N 436.039 1.36541 -0.78704 0
M  V30 4577 C 437.288 1.98552 -0.35494 0
M  V30 4578 C 437.601 1.63171 1.07864 0
M  V30 4579 O 438.807 2.18399 1.61289 0
M  V30 4580 C 437.263 3.55136 -0.583671 0
M  V30 4581 C 436.871 3.99444 -2.02851 0
M  V30 4582 C 438.615 4.2395 -0.215957 0
M  V30 4583 C 436.522 5.48796 -2.20403 0
M  V30 4584 H 435.452 0.742888 -0.128972 0
M  V30 4585 H 438.103 1.5587 -0.968337 0
M  V30 4586 H 436.485 3.95875 0.0994046 0
M  V30 4587 H 437.659 3.6991 -2.74779 0
M  V30 4588 H 435.974 3.43459 -2.35425 0
M  V30 4589 H 438.571 5.33709 -0.325405 0
M  V30 4590 H 438.914 4.07827 0.835646 0
M  V30 4591 H 439.447 3.88565 -0.852175 0
M  V30 4592 H 436.186 5.69864 -3.23937 0
M  V30 4593 H 435.706 5.79964 -1.52977 0
M  V30 4594 H 437.385 6.14986 -2.01002 0
M  V30 4595 N 437.518 0.538854 1.48102 0
M  V30 4596 C 438.764 0.00801365 2.02798 0
M  V30 4597 C 439.097 -1.3309 1.41424 0
M  V30 4598 O 438.372 -1.86169 0.563158 0
M  V30 4599 C 438.655 -0.104589 3.59948 0
M  V30 4600 C 438.508 1.26012 4.31788 0
M  V30 4601 C 439.827 -0.827055 4.32259 0
M  V30 4602 H 436.946 0.00438624 0.736987 0
M  V30 4603 H 439.588 0.6976 1.7673 0
M  V30 4604 H 437.738 -0.691893 3.82289 0
M  V30 4605 H 439.41 1.88922 4.2084 0
M  V30 4606 H 437.653 1.83968 3.92859 0
M  V30 4607 H 438.324 1.13424 5.40221 0
M  V30 4608 H 440.8 -0.328578 4.14801 0
M  V30 4609 H 439.676 -0.87476 5.41885 0
M  V30 4610 H 439.937 -1.87927 4.0017 0
M  V30 4611 N 438.996 -1.55193 0.274407 0
M  V30 4612 C 440.226 -2.03692 -0.345442 0
M  V30 4613 C 440.634 -1.15224 -1.50067 0
M  V30 4614 O 439.977 -0.164749 -1.8296 0
M  V30 4615 C 440.039 -3.48325 -0.88939 0
M  V30 4616 C 439.703 -4.56794 0.137115 0
M  V30 4617 C 440.7 -5.11028 0.956378 0
M  V30 4618 C 438.385 -5.01568 0.27115 0
M  V30 4619 C 440.379 -6.08552 1.89587 0
M  V30 4620 C 438.066 -5.98918 1.21412 0
M  V30 4621 C 439.064 -6.52291 2.02498 0
M  V30 4622 O 438.752 -7.47738 2.952 0
M  V30 4623 H 438.484 -0.670893 -0.0829332 0
M  V30 4624 H 441.038 -2.01387 0.404056 0
M  V30 4625 H 439.268 -3.47867 -1.68895 0
M  V30 4626 H 440.957 -3.80167 -1.42225 0
M  V30 4627 H 441.723 -4.7725 0.863559 0
M  V30 4628 H 437.602 -4.5967 -0.349987 0
M  V30 4629 H 441.146 -6.50137 2.52918 0
M  V30 4630 H 437.043 -6.32114 1.30776 0
M  V30 4631 H 437.811 -7.65451 2.89874 0
M  V30 4632 N 440.474 -0.00167713 -1.576 0
M  V30 4633 C 441.722 0.681471 -1.90264 0
M  V30 4634 C 442.043 1.7422 -0.875924 0
M  V30 4635 O 441.313 1.95709 0.0864412 0
M  V30 4636 H 439.893 0.254696 -0.702239 0
M  V30 4637 H 442.555 -0.0429996 -1.94853 0
M  V30 4638 H 441.651 1.15166 -2.90075 0
M  V30 4639 N 441.952 1.55251 0.271103 0
M  V30 4640 C 442.884 1.84675 1.35749 0
M  V30 4641 C 443.897 0.731366 1.45447 0
M  V30 4642 O 445.086 1.00924 1.4723 0
M  V30 4643 C 442.186 1.99638 2.73857 0
M  V30 4644 C 441.359 3.30312 2.86727 0
M  V30 4645 C 440.418 3.35318 4.05522 0
M  V30 4646 O 439.444 4.08682 3.96191 0
M  V30 4647 N 440.646 2.62857 5.17577 0
M  V30 4648 H 443.411 2.78445 1.10853 0
M  V30 4649 H 440.972 1.55191 0.461218 0
M  V30 4650 H 442.964 2.00355 3.51625 0
M  V30 4651 H 441.534 1.12725 2.91568 0
M  V30 4652 H 440.754 3.42118 1.95829 0
M  V30 4653 H 442.042 4.16488 2.92258 0
M  V30 4654 H 441.44 2.02939 5.28046 0
M  V30 4655 H 439.997 2.69295 5.93568 0
M  V30 4656 N 443.43 -0.535701 1.48216 0
M  V30 4657 C 444.841 -1.11769 1.49548 0
M  V30 4658 C 445.192 -1.94442 0.26207 0
M  V30 4659 O 444.317 -2.06987 -0.631287 0
M  V30 4660 C 444.912 -2.03367 2.70975 0
M  V30 4661 C 443.471 -2.56795 2.75196 0
M  V30 4662 C 442.618 -1.33631 2.42977 0
M  V30 4663 H 445.569 -0.321232 1.55415 0
M  V30 4664 H 445.59 -2.87569 2.49167 0
M  V30 4665 H 445.102 -1.43169 3.60727 0
M  V30 4666 H 443.203 -3.20731 1.89638 0
M  V30 4667 H 443.316 -2.9632 3.76472 0
M  V30 4668 H 441.68 -1.6502 1.94012 0
M  V30 4669 H 442.463 -0.75194 3.34964 0
M  V30 4670 N 444.908 -1.36708 -0.784132 0
M  V30 4671 C 446.324 -1.17237 -1.08294 0
M  V30 4672 C 446.524 -5.93947e-05 -2.015 0
M  V30 4673 O 445.58 0.663686 -2.43622 0
M  V30 4674 C 446.893 -2.48557 -1.69233 0
M  V30 4675 C 448.441 -2.54968 -1.8155 0
M  V30 4676 C 448.916 -3.86388 -2.45904 0
M  V30 4677 N 450.407 -3.87762 -2.53367 0
M  V30 4678 C 451.142 -4.86191 -3.03983 0
M  V30 4679 N 450.638 -5.95015 -3.54866 0
M  V30 4680 N 452.431 -4.73606 -3.02743 0
M  V30 4681 H 444.582 -2.11758 -0.16501 0
M  V30 4682 H 446.845 -0.93822 -0.135822 0
M  V30 4683 H 446.551 -3.34638 -1.08215 0
M  V30 4684 H 446.425 -2.64748 -2.68679 0
M  V30 4685 H 448.812 -1.69302 -2.41704 0
M  V30 4686 H 448.893 -2.42672 -0.80895 0
M  V30 4687 H 448.537 -4.72462 -1.86392 0
M  V30 4688 H 448.467 -3.95982 -3.4714 0
M  V30 4689 H 450.958 -3.09145 -2.17343 0
M  V30 4690 H 451.271 -6.66086 -3.91854 0
M  V30 4691 H 449.616 -5.98676 -3.53003 0
M  V30 4692 H 452.807 -3.87717 -2.62284 0
M  V30 4693 H 452.98 -5.50473 -3.41881 0
M  V30 4694 N 446.386 1.0089 -1.21074 0
M  V30 4695 C 447.614 1.78191 -1.05145 0
M  V30 4696 C 448.029 1.84537 0.398952 0
M  V30 4697 O 447.386 1.30393 1.27687 0
M  V30 4698 C 447.437 3.22288 -1.63746 0
M  V30 4699 O 447.158 3.16315 -3.03111 0
M  V30 4700 C 448.659 4.16106 -1.52875 0
M  V30 4701 H 445.879 0.560129 -0.369454 0
M  V30 4702 H 448.423 1.26945 -1.60328 0
M  V30 4703 H 446.578 3.70655 -1.12664 0
M  V30 4704 H 446.992 4.06817 -3.31059 0
M  V30 4705 H 448.466 5.15026 -1.98626 0
M  V30 4706 H 448.943 4.36541 -0.482521 0
M  V30 4707 H 449.549 3.73625 -2.03185 0
M  V30 4708 N 447.864 1.01787 1.20321 0
M  V30 4709 C 449.28 0.732951 1.41774 0
M  V30 4710 C 449.48 -0.686883 1.89431 0
M  V30 4711 O 448.536 -1.45446 2.06402 0
M  V30 4712 C 449.849 1.75973 2.43832 0
M  V30 4713 C 451.397 1.77802 2.57596 0
M  V30 4714 C 451.872 2.7941 3.62897 0
M  V30 4715 N 453.363 2.78157 3.70382 0
M  V30 4716 C 454.098 3.53434 4.51521 0
M  V30 4717 N 453.594 4.38392 5.36455 0
M  V30 4718 N 455.387 3.42026 4.46066 0
M  V30 4719 H 447.538 1.93447 0.877035 0
M  V30 4720 H 449.801 0.835712 0.447536 0
M  V30 4721 H 449.507 2.77699 2.15815 0
M  V30 4722 H 449.381 1.57292 3.4284 0
M  V30 4723 H 451.768 0.767602 2.84942 0
M  V30 4724 H 451.849 2.00557 1.58779 0
M  V30 4725 H 451.493 3.80616 3.36295 0
M  V30 4726 H 451.423 2.53916 4.61339 0
M  V30 4727 H 453.914 2.16531 3.09714 0
M  V30 4728 H 454.227 4.92596 5.95457 0
M  V30 4729 H 452.572 4.4247 5.35953 0
M  V30 4730 H 455.763 2.75075 3.78749 0
M  V30 4731 H 455.936 4.00946 5.09064 0
M  V30 4732 N 449.342 -1.36122 0.79427 0
M  V30 4733 C 450.758 -1.5232 0.476525 0
M  V30 4734 C 450.958 -1.74685 -1.00436 0
M  V30 4735 O 450.014 -1.78115 -1.78973 0
M  V30 4736 C 451.327 -2.70607 1.31119 0
M  V30 4737 C 452.875 -2.8448 1.30537 0
M  V30 4738 C 453.35 -4.05778 2.12387 0
M  V30 4739 N 454.841 -4.12933 2.09859 0
M  V30 4740 C 455.576 -5.05876 2.69957 0
M  V30 4741 N 455.072 -6.04232 3.38934 0
M  V30 4742 N 456.865 -4.98528 2.59665 0
M  V30 4743 H 449.016 -1.1986 1.75349 0
M  V30 4744 H 451.279 -0.585418 0.745647 0
M  V30 4745 H 450.985 -2.60619 2.36158 0
M  V30 4746 H 450.859 -3.64888 0.955843 0
M  V30 4747 H 453.246 -2.93927 0.262876 0
M  V30 4748 H 453.327 -1.91093 1.70051 0
M  V30 4749 H 452.971 -3.97092 3.1667 0
M  V30 4750 H 452.901 -4.98323 1.70242 0
M  V30 4751 H 455.392 -3.42515 1.59662 0
M  V30 4752 H 455.705 -6.71724 3.82109 0
M  V30 4753 H 454.05 -6.04443 3.43036 0
M  V30 4754 H 457.241 -4.20641 2.05375 0
M  V30 4755 H 457.414 -5.70773 3.06793 0
M  V30 4756 N 450.82 -0.546701 -1.47814 0
M  V30 4757 C 452.231 -0.110564 -1.86372 0
M  V30 4758 C 452.582 1.31678 -1.45449 0
M  V30 4759 O 451.707 1.98889 -0.852758 0
M  V30 4760 C 452.302 -0.193873 -3.38245 0
M  V30 4761 C 450.861 0.187164 -3.75934 0
M  V30 4762 C 450.008 -0.546166 -2.71868 0
M  V30 4763 H 452.959 -0.757022 -1.39481 0
M  V30 4764 H 452.98 0.590218 -3.75895 0
M  V30 4765 H 452.492 -1.23282 -3.67999 0
M  V30 4766 H 450.593 1.22762 -3.51796 0
M  V30 4767 H 450.706 -0.164083 -4.78819 0
M  V30 4768 H 449.07 0.00953904 -2.54698 0
M  V30 4769 H 449.853 -1.58606 -3.04465 0
M  V30 4770 N 452.299 1.55045 -0.282633 0
M  V30 4771 C 453.545 2.0078 0.325436 0
M  V30 4772 C 453.9 1.1676 1.52921 0
M  V30 4773 O 453.193 0.231475 1.90197 0
M  V30 4774 C 453.387 3.49422 0.750938 0
M  V30 4775 C 453.216 4.47827 -0.410056 0
M  V30 4776 C 451.986 4.97288 -0.896239 0
M  V30 4777 C 454.184 4.98903 -1.24902 0
M  V30 4778 N 452.166 5.79508 -2.02591 0
M  V30 4779 C 453.537 5.78644 -2.22646 0
M  V30 4780 C 455.592 4.81126 -1.2815 0
M  V30 4781 C 454.295 6.42502 -3.23393 0
M  V30 4782 C 456.321 5.45789 -2.27745 0
M  V30 4783 C 455.683 6.25348 -3.24222 0
M  V30 4784 H 451.782 0.77747 0.08405 0
M  V30 4785 H 454.366 1.90369 -0.408368 0
M  V30 4786 H 452.537 3.60159 1.45395 0
M  V30 4787 H 454.269 3.81978 1.33698 0
M  V30 4788 H 451.024 4.71219 -0.474277 0
M  V30 4789 H 451.448 6.25308 -2.59459 0
M  V30 4790 H 456.09 4.19215 -0.549397 0
M  V30 4791 H 453.808 7.03558 -3.97533 0
M  V30 4792 H 457.394 5.33972 -2.31009 0
M  V30 4793 H 456.274 6.74498 -4.00027 0
M  V30 4794 N 453.777 0.010035 1.57597 0
M  V30 4795 C 454.724 -0.978122 2.09049 0
M  V30 4796 C 455.694 -1.33509 0.988159 0
M  V30 4797 O 456.879 -1.43172 1.26121 0
M  V30 4798 C 454.019 -2.26158 2.60666 0
M  V30 4799 C 453.132 -1.96275 3.84838 0
M  V30 4800 C 452.267 -3.18776 4.24918 0
M  V30 4801 C 451.306 -2.84625 5.41899 0
M  V30 4802 N 450.443 -3.99693 5.77226 0
M  V30 4803 H 455.283 -0.532431 2.93205 0
M  V30 4804 H 452.82 -0.251234 1.44939 0
M  V30 4805 H 454.778 -3.01202 2.88675 0
M  V30 4806 H 453.408 -2.68378 1.79369 0
M  V30 4807 H 452.46 -1.11555 3.63675 0
M  V30 4808 H 453.772 -1.67111 4.69974 0
M  V30 4809 H 452.926 -4.02157 4.54262 0
M  V30 4810 H 451.665 -3.51087 3.38511 0
M  V30 4811 H 450.67 -1.99653 5.12268 0
M  V30 4812 H 451.895 -2.53551 6.29991 0
M  V30 4813 H 449.841 -4.31882 4.93776 0
M  V30 4814 H 449.758 -3.74087 6.56959 0
M  V30 4815 H 451.026 -4.83834 6.11167 0
M  V30 4816 N 455.255 -1.55392 -0.262866 0
M  V30 4817 C 456.202 -1.88966 -1.32516 0
M  V30 4818 C 457.172 -0.742187 -1.48596 0
M  V30 4819 O 458.357 -0.99439 -1.62839 0
M  V30 4820 C 455.497 -2.17592 -2.67858 0
M  V30 4821 C 454.61 -3.45061 -2.59917 0
M  V30 4822 C 453.745 -3.63336 -3.87505 0
M  V30 4823 C 452.784 -4.84462 -3.74116 0
M  V30 4824 N 451.921 -4.99342 -4.93561 0
M  V30 4825 H 456.761 -2.79566 -1.03184 0
M  V30 4826 H 454.298 -1.38404 -0.498285 0
M  V30 4827 H 456.256 -2.3219 -3.46617 0
M  V30 4828 H 454.886 -1.30215 -2.95371 0
M  V30 4829 H 453.938 -3.38881 -1.72812 0
M  V30 4830 H 455.25 -4.3396 -2.45926 0
M  V30 4831 H 454.404 -3.77807 -4.74707 0
M  V30 4832 H 453.143 -2.72641 -4.04374 0
M  V30 4833 H 452.148 -4.69985 -2.85297 0
M  V30 4834 H 453.373 -5.76603 -3.58757 0
M  V30 4835 H 451.319 -4.1158 -5.10821 0
M  V30 4836 H 451.236 -5.82303 -4.82141 0
M  V30 4837 H 452.504 -5.18208 -5.82306 0
M  V30 4838 N 456.733 0.527833 -1.48498 0
M  V30 4839 C 457.982 1.28003 -1.55878 0
M  V30 4840 C 458.295 1.9414 -0.238577 0
M  V30 4841 O 459.501 2.7083 -0.190643 0
M  V30 4842 C 457.957 2.32272 -2.74914 0
M  V30 4843 C 457.565 1.72196 -4.13585 0
M  V30 4844 C 459.309 3.08488 -2.91608 0
M  V30 4845 C 457.216 2.74417 -5.23879 0
M  V30 4846 H 456.146 0.481413 -0.580308 0
M  V30 4847 H 458.797 0.557195 -1.74836 0
M  V30 4848 H 457.179 3.07601 -2.49395 0
M  V30 4849 H 458.353 1.03041 -4.49132 0
M  V30 4850 H 456.668 1.08464 -4.02025 0
M  V30 4851 H 459.265 3.84879 -3.71177 0
M  V30 4852 H 459.608 3.64481 -2.01145 0
M  V30 4853 H 460.141 2.40274 -3.17038 0
M  V30 4854 H 456.88 2.23242 -6.16314 0
M  V30 4855 H 456.4 3.41893 -4.92818 0
M  V30 4856 H 458.079 3.37362 -5.52083 0
M  V30 4857 N 458.211 1.37122 0.776871 0
M  V30 4858 C 459.141 1.35164 1.90402 0
M  V30 4859 C 460.122 0.221069 1.68657 0
M  V30 4860 O 461.307 0.420642 1.8959 0
M  V30 4861 C 458.437 1.15274 3.27611 0
M  V30 4862 C 457.391 2.25289 3.63908 0
M  V30 4863 C 456.717 1.90527 4.99603 0
M  V30 4864 C 458.017 3.67446 3.71188 0
M  V30 4865 H 459.711 2.29482 1.92297 0
M  V30 4866 H 457.257 1.10465 0.923773 0
M  V30 4867 H 459.21 1.12536 4.06096 0
M  V30 4868 H 457.934 0.174102 3.26136 0
M  V30 4869 H 456.593 2.27174 2.87728 0
M  V30 4870 H 456.241 0.91206 4.94662 0
M  V30 4871 H 455.941 2.64193 5.24858 0
M  V30 4872 H 457.465 1.89367 5.80493 0
M  V30 4873 H 458.879 3.67719 4.39836 0
M  V30 4874 H 457.276 4.40123 4.07936 0
M  V30 4875 H 458.346 4.01443 2.71977 0
M  V30 4876 N 459.689 -1.00246 1.21608 0
M  V30 4877 C 460.938 -1.73476 1.02902 0
M  V30 4878 C 461.251 -1.90643 -0.437561 0
M  V30 4879 O 462.457 -2.61105 -0.74407 0
M  V30 4880 C 460.913 -3.12079 1.79261 0
M  V30 4881 C 460.521 -3.02877 3.30106 0
M  V30 4882 C 462.265 -3.89421 1.68972 0
M  V30 4883 C 460.172 -4.36575 3.98944 0
M  V30 4884 H 459.102 -0.650408 0.381425 0
M  V30 4885 H 461.753 -1.11985 1.45367 0
M  V30 4886 H 460.135 -3.74196 1.2959 0
M  V30 4887 H 461.309 -2.49983 3.87098 0
M  V30 4888 H 459.624 -2.39022 3.40965 0
M  V30 4889 H 462.221 -4.88362 2.17731 0
M  V30 4890 H 462.564 -4.1122 0.648397 0
M  V30 4891 H 463.097 -3.33963 2.16133 0
M  V30 4892 H 459.836 -4.19978 5.03288 0
M  V30 4893 H 459.356 -4.8942 3.4674 0
M  V30 4894 H 461.035 -5.05364 4.04 0
M  V30 4895 N 461.167 -1.02423 -1.1978 0
M  V30 4896 C 462.097 -0.62157 -2.25075 0
M  V30 4897 C 463.078 0.367148 -1.6609 0
M  V30 4898 O 464.263 0.250892 -1.92573 0
M  V30 4899 C 461.393 0.0331826 -3.47284 0
M  V30 4900 C 460.347 -0.877323 -4.18912 0
M  V30 4901 C 459.673 -0.0879296 -5.34628 0
M  V30 4902 C 460.973 -2.18892 -4.74219 0
M  V30 4903 H 462.667 -1.50179 -2.59011 0
M  V30 4904 H 460.213 -0.723547 -1.24502 0
M  V30 4905 H 462.166 0.326488 -4.20133 0
M  V30 4906 H 460.89 0.948164 -3.12534 0
M  V30 4907 H 459.549 -1.15475 -3.47938 0
M  V30 4908 H 459.197 0.828941 -4.96123 0
M  V30 4909 H 458.897 -0.694359 -5.83483 0
M  V30 4910 H 460.421 0.198743 -6.10276 0
M  V30 4911 H 461.835 -1.95746 -5.38847 0
M  V30 4912 H 460.232 -2.74686 -5.33542 0
M  V30 4913 H 461.302 -2.84674 -3.92541 0
M  V30 4914 N 462.645 1.35699 -0.801477 0
M  V30 4915 C 463.891 1.99208 -0.380022 0
M  V30 4916 C 464.224 1.63445 1.04878 0
M  V30 4917 O 463.499 0.895223 1.72673 0
M  V30 4918 C 463.782 3.55755 -0.557708 0
M  V30 4919 C 463.635 4.01332 -2.03107 0
M  V30 4920 C 464.954 4.40096 0.0197968 0
M  V30 4921 H 462.073 0.723667 -0.139552 0
M  V30 4922 H 464.715 1.60928 -1.01006 0
M  V30 4923 H 462.865 3.88494 -0.0213741 0
M  V30 4924 H 464.537 3.79026 -2.62939 0
M  V30 4925 H 462.78 3.52429 -2.52936 0
M  V30 4926 H 463.451 5.10234 -2.1063 0
M  V30 4927 H 465.927 4.13786 -0.438179 0
M  V30 4928 H 464.803 5.48735 -0.134477 0
M  V30 4929 H 465.064 4.2786 1.11303 0
M  V30 4930 N 464.123 0.554532 1.47522 0
M  V30 4931 C 465.033 -0.197865 2.33764 0
M  V30 4932 C 466.049 -0.914576 1.48025 0
M  V30 4933 O 467.225 -0.884067 1.80959 0
M  V30 4934 C 464.29 -1.21628 3.24665 0
M  V30 4935 C 463.351 -0.507283 4.26292 0
M  V30 4936 C 462.584 -1.47718 5.1285 0
M  V30 4937 O 462.807 -2.7118 5.01814 0
M  V30 4938 O 461.741 -1.00313 5.93482 0
M  V30 4939 H 465.567 0.50949 2.99396 0
M  V30 4940 H 463.152 0.315176 1.46038 0
M  V30 4941 H 465.034 -1.80421 3.80823 0
M  V30 4942 H 463.709 -1.9056 2.61665 0
M  V30 4943 H 462.616 0.121778 3.73902 0
M  V30 4944 H 463.949 0.140544 4.91999 0
M  V30 4945 N 465.601 -1.54893 0.290851 0
M  V30 4946 C 466.849 -1.99538 -0.320756 0
M  V30 4947 C 467.17 -1.18075 -1.55188 0
M  V30 4948 O 466.44 -0.274162 -1.93972 0
M  V30 4949 H 465.02 -0.737052 -0.121507 0
M  V30 4950 H 467.682 -1.90755 0.399832 0
M  V30 4951 H 466.778 -3.06282 -0.599802 0
M  V30 4952 N 467.08 -0.0183926 -1.57589 0
M  V30 4953 C 468.329 0.66185 -1.90532 0
M  V30 4954 C 468.642 1.73904 -0.895366 0
M  V30 4955 O 469.848 2.47518 -1.11566 0
M  V30 4956 C 468.304 1.22844 -3.38286 0
M  V30 4957 C 467.912 0.185103 -4.47617 0
M  V30 4958 C 469.656 1.88581 -3.80312 0
M  V30 4959 C 467.563 0.762723 -5.86461 0
M  V30 4960 H 466.493 0.250972 -0.711006 0
M  V30 4961 H 469.144 -0.0819435 -1.83317 0
M  V30 4962 H 467.526 2.0235 -3.40398 0
M  V30 4963 H 468.7 -0.58671 -4.5705 0
M  V30 4964 H 467.015 -0.372889 -4.14727 0
M  V30 4965 H 469.612 2.32735 -4.81392 0
M  V30 4966 H 469.955 2.72408 -3.14801 0
M  V30 4967 H 470.488 1.15782 -3.80578 0
M  V30 4968 H 467.227 -0.0371713 -6.55489 0
M  V30 4969 H 466.747 1.50327 -5.80656 0
M  V30 4970 H 468.426 1.25576 -6.34697 0
M  V30 4971 N 468.558 1.5553 0.254621 0
M  V30 4972 C 469.788 1.80784 1.00004 0
M  V30 4973 C 470.196 0.59071 1.79742 0
M  V30 4974 O 469.539 -0.449988 1.78103 0
M  V30 4975 C 469.601 2.99268 1.99196 0
M  V30 4976 C 469.265 4.35595 1.38224 0
M  V30 4977 C 470.262 5.13884 0.788611 0
M  V30 4978 C 467.947 4.82281 1.40393 0
M  V30 4979 C 469.941 6.37004 0.224783 0
M  V30 4980 C 467.628 6.05351 0.836243 0
M  V30 4981 C 468.626 6.82551 0.24769 0
M  V30 4982 O 468.314 8.03297 -0.311249 0
M  V30 4983 H 468.046 0.60565 0.300274 0
M  V30 4984 H 470.6 2.03411 0.285143 0
M  V30 4985 H 468.83 2.72377 2.74496 0
M  V30 4986 H 470.519 3.11682 2.60018 0
M  V30 4987 H 471.285 4.78938 0.764423 0
M  V30 4988 H 467.164 4.22189 1.85142 0
M  V30 4989 H 470.708 6.97203 -0.235235 0
M  V30 4990 H 466.605 6.39776 0.857733 0
M  V30 4991 H 467.373 8.1825 -0.20237 0
M  V30 4992 N 470.036 -0.519951 1.48776 0
M  V30 4993 C 471.261 -1.30447 1.6124 0
M  V30 4994 C 471.686 -1.86055 0.276591 0
M  V30 4995 O 471.044 -1.64915 -0.753183 0
M  V30 4996 C 471.092 -2.42406 2.66967 0
M  V30 4997 O 470.196 -3.45728 2.24824 0
M  V30 4998 H 469.537 -0.385924 0.540332 0
M  V30 4999 H 472.067 -0.624572 1.94834 0
M  V30 5000 H 472.077 -2.88447 2.88552 0
M  V30 5001 H 470.752 -2.01294 3.63941 0
M  V30 5002 H 469.329 -3.05737 2.13494 0
M  V30 5003 N 471.514 -1.37532 -0.769588 0
M  V30 5004 C 472.447 -1.27839 -1.8903 0
M  V30 5005 C 473.425 -0.158504 -1.61826 0
M  V30 5006 O 474.609 -0.333086 -1.85534 0
M  V30 5007 C 471.736 -0.977072 -3.24301 0
M  V30 5008 C 470.782 -2.11414 -3.70414 0
M  V30 5009 S 471.615 -3.73409 -3.83831 0
M  V30 5010 C 472.771 -3.45432 -5.21946 0
M  V30 5011 H 473.004 -2.22694 -1.96963 0
M  V30 5012 H 470.537 -1.2318 -0.930914 0
M  V30 5013 H 472.495 -0.810049 -4.02428 0
M  V30 5014 H 471.156 -0.0459701 -3.14066 0
M  V30 5015 H 470.349 -1.85837 -4.68488 0
M  V30 5016 H 469.951 -2.24141 -2.99394 0
M  V30 5017 H 472.243 -3.00554 -6.07185 0
M  V30 5018 H 473.186 -4.42841 -5.52537 0
M  V30 5019 H 473.594 -2.80311 -4.89986 0
M  V30 5020 N 472.992 0.995999 -1.22138 0
M  V30 5021 C 473.902 2.11985 -1.00496 0
M  V30 5022 C 474.918 1.7394 0.0457701 0
M  V30 5023 O 476.094 2.00868 -0.146273 0
M  V30 5024 C 473.159 3.41779 -0.582086 0
M  V30 5025 C 472.22 3.93943 -1.70608 0
M  V30 5026 C 471.453 5.17542 -1.30328 0
M  V30 5027 O 471.676 5.70114 -0.180743 0
M  V30 5028 O 470.61 5.63382 -2.11861 0
M  V30 5029 H 474.436 2.33123 -1.94647 0
M  V30 5030 H 472.021 1.10358 -1.00705 0
M  V30 5031 H 473.903 4.1989 -0.356467 0
M  V30 5032 H 472.578 3.22007 0.330592 0
M  V30 5033 H 471.485 3.17019 -1.98619 0
M  V30 5034 H 472.818 4.18141 -2.59651 0
M  V30 5035 N 474.47 1.03057 1.19235 0
M  V30 5036 C 475.718 0.726581 1.88587 0
M  V30 5037 C 476.039 -0.747227 1.80115 0
M  V30 5038 O 475.309 -1.53849 1.21274 0
M  V30 5039 H 473.889 0.265768 0.698124 0
M  V30 5040 H 476.551 1.30516 1.44746 0
M  V30 5041 H 475.647 1.0224 2.94879 0
M  V30 5042 N 475.948 -1.35272 0.808662 0
M  V30 5043 C 477.173 -2.03477 0.401475 0
M  V30 5044 C 477.598 -1.60537 -0.980279 0
M  V30 5045 O 476.956 -0.78304 -1.63518 0
M  V30 5046 C 477.004 -3.57181 0.495354 0
M  V30 5047 O 476.108 -4.09474 -0.490397 0
M  V30 5048 H 475.449 -0.642561 0.167366 0
M  V30 5049 H 477.979 -1.72824 1.09512 0
M  V30 5050 H 477.989 -4.06356 0.365912 0
M  V30 5051 H 476.664 -3.87784 1.5032 0
M  V30 5052 H 475.241 -3.71516 -0.321023 0
M  V30 5053 N 477.426 -0.562348 -1.47226 0
M  V30 5054 C 478.675 -0.038041 -2.01664 0
M  V30 5055 C 478.988 1.32199 -1.44162 0
M  V30 5056 O 480.194 1.9365 -1.90294 0
M  V30 5057 C 478.65 -0.0174958 -3.59896 0
M  V30 5058 C 478.258 -1.3746 -4.2639 0
M  V30 5059 C 480.002 0.453934 -4.22066 0
M  V30 5060 C 477.909 -1.31289 -5.76643 0
M  V30 5061 H 476.839 -0.0104511 -0.753928 0
M  V30 5062 H 479.49 -0.710966 -1.69167 0
M  V30 5063 H 477.872 0.721182 -3.89378 0
M  V30 5064 H 479.046 -2.1314 -4.08544 0
M  V30 5065 H 477.361 -1.78438 -3.7623 0
M  V30 5066 H 479.958 0.518584 -5.32179 0
M  V30 5067 H 480.301 1.46706 -3.89594 0
M  V30 5068 H 480.834 -0.230044 -3.97134 0
M  V30 5069 H 477.573 -2.30217 -6.13743 0
M  V30 5070 H 477.093 -0.597973 -5.96812 0
M  V30 5071 H 478.772 -1.01713 -6.38955 0
M  V30 5072 N 478.904 1.54736 -0.299062 0
M  V30 5073 C 480.15 2.00397 0.311244 0
M  V30 5074 C 480.483 1.18716 1.53688 0
M  V30 5075 O 479.758 0.263154 1.92712 0
M  V30 5076 C 480.041 3.53817 0.669761 0
M  V30 5077 C 479.894 4.46239 -0.564882 0
M  V30 5078 C 481.213 4.13856 1.49702 0
M  V30 5079 H 478.332 0.728493 0.111653 0
M  V30 5080 H 480.974 1.85506 -0.410774 0
M  V30 5081 H 479.124 3.66637 1.28491 0
M  V30 5082 H 480.796 4.45328 -1.20337 0
M  V30 5083 H 479.039 4.16916 -1.19849 0
M  V30 5084 H 479.71 5.5134 -0.269918 0
M  V30 5085 H 482.186 4.04461 0.977284 0
M  V30 5086 H 481.062 5.21365 1.71666 0
M  V30 5087 H 481.323 3.65608 2.48563 0
M  V30 5088 N 480.382 0.0267497 1.57577 0
M  V30 5089 C 481.798 -0.32962 1.56159 0
M  V30 5090 C 481.998 -1.73059 1.03213 0
M  V30 5091 O 481.054 -2.43233 0.677804 0
M  V30 5092 C 482.367 -0.18039 3.00158 0
M  V30 5093 C 483.915 -0.253334 3.11973 0
M  V30 5094 C 484.39 -0.132921 4.57807 0
M  V30 5095 N 485.881 -0.189979 4.6281 0
M  V30 5096 C 486.616 -0.120554 5.73273 0
M  V30 5097 N 486.112 -0.000180315 6.928 0
M  V30 5098 N 487.905 -0.174369 5.61829 0
M  V30 5099 H 480.056 0.942896 1.90324 0
M  V30 5100 H 482.319 0.3639 0.875375 0
M  V30 5101 H 482.025 0.784576 3.42837 0
M  V30 5102 H 481.899 -0.951565 3.65 0
M  V30 5103 H 484.286 -1.20876 2.69208 0
M  V30 5104 H 484.367 0.548177 2.49857 0
M  V30 5105 H 484.011 0.819073 5.01252 0
M  V30 5106 H 483.941 -0.953264 5.179 0
M  V30 5107 H 486.432 -0.283257 3.76837 0
M  V30 5108 H 486.745 0.0461666 7.72786 0
M  V30 5109 H 485.09 0.034569 6.94991 0
M  V30 5110 H 488.281 -0.266794 4.67339 0
M  V30 5111 H 488.454 -0.116802 6.47895 0
M  V30 5112 N 481.861 -1.55662 -0.24637 0
M  V30 5113 C 482.791 -1.93377 -1.30873 0
M  V30 5114 C 483.772 -0.798773 -1.50179 0
M  V30 5115 O 484.957 -1.0591 -1.62778 0
M  V30 5116 C 482.087 -2.22893 -2.66338 0
M  V30 5117 C 481.041 -3.38649 -2.61727 0
M  V30 5118 C 480.367 -3.53708 -4.00992 0
M  V30 5119 C 481.667 -4.74323 -2.18666 0
M  V30 5120 H 483.361 -2.82363 -0.995552 0
M  V30 5121 H 480.907 -1.35854 -0.477464 0
M  V30 5122 H 482.86 -2.47866 -3.40794 0
M  V30 5123 H 481.584 -1.30733 -2.99293 0
M  V30 5124 H 480.243 -3.13685 -1.89729 0
M  V30 5125 H 479.891 -2.58967 -4.31214 0
M  V30 5126 H 479.591 -4.31551 -3.98795 0
M  V30 5127 H 481.115 -3.81003 -4.77147 0
M  V30 5128 H 482.529 -4.98665 -2.82854 0
M  V30 5129 H 480.926 -5.55273 -2.27579 0
M  V30 5130 H 481.996 -4.71349 -1.13834 0
M  V30 5131 N 483.339 0.512053 -1.4905 0
M  V30 5132 C 484.75 1.09376 -1.51307 0
M  V30 5133 C 485.101 1.94 -0.292971 0
M  V30 5134 O 484.226 2.07965 0.598277 0
M  V30 5135 C 484.821 1.99031 -2.74176 0
M  V30 5136 C 483.38 2.52385 -2.79247 0
M  V30 5137 C 482.527 1.29749 -2.45073 0
M  V30 5138 H 485.478 0.296467 -1.55906 0
M  V30 5139 H 485.499 2.83569 -2.53711 0
M  V30 5140 H 485.011 1.37412 -3.62959 0
M  V30 5141 H 483.112 3.17673 -1.94716 0
M  V30 5142 H 483.225 2.90293 -3.81139 0
M  V30 5143 H 481.589 1.61912 -1.96612 0
M  V30 5144 H 482.372 0.698555 -3.36118 0
M  V30 5145 N 484.817 1.37938 0.762283 0
M  V30 5146 C 485.727 1.36681 1.90671 0
M  V30 5147 C 486.743 0.265078 1.71969 0
M  V30 5148 O 487.919 0.502055 1.95042 0
M  V30 5149 C 484.984 1.18211 3.25925 0
M  V30 5150 C 484.045 2.3811 3.57214 0
M  V30 5151 C 483.278 2.20512 4.86014 0
M  V30 5152 O 483.501 1.19429 5.57757 0
M  V30 5153 O 482.435 3.08911 5.16583 0
M  V30 5154 H 486.261 2.33091 1.94685 0
M  V30 5155 H 483.846 1.18767 0.906356 0
M  V30 5156 H 485.728 1.09937 4.06807 0
M  V30 5157 H 484.403 0.248807 3.22742 0
M  V30 5158 H 483.31 2.51958 2.76529 0
M  V30 5159 H 484.643 3.30041 3.65149 0
M  V30 5160 N 486.295 -0.989507 1.22664 0
M  V30 5161 C 487.541 -1.7321 1.05481 0
M  V30 5162 C 487.874 -1.89852 -0.408635 0
M  V30 5163 O 487.149 -1.44416 -1.30285 0
M  V30 5164 C 487.432 -3.1357 1.77047 0
M  V30 5165 C 487.285 -3.04555 3.31008 0
M  V30 5166 C 488.604 -4.12812 1.5256 0
M  V30 5167 H 485.723 -0.628697 0.384589 0
M  V30 5168 H 488.365 -1.15258 1.51049 0
M  V30 5169 H 486.515 -3.63046 1.3831 0
M  V30 5170 H 488.187 -2.62674 3.7921 0
M  V30 5171 H 486.43 -2.41278 3.6051 0
M  V30 5172 H 487.101 -4.03894 3.76263 0
M  V30 5173 H 489.577 -3.72106 1.86215 0
M  V30 5174 H 488.453 -5.09132 2.05124 0
M  V30 5175 H 488.714 -4.39711 0.458936 0
M  V30 5176 N 487.773 -1.03688 -1.18687 0
M  V30 5177 C 489.022 -0.733235 -1.879 0
M  V30 5178 C 489.335 0.741745 -1.8099 0
M  V30 5179 O 490.541 1.15875 -2.4553 0
M  V30 5180 C 488.997 -1.26127 -3.37076 0
M  V30 5181 C 488.605 -2.76461 -3.52524 0
M  V30 5182 C 490.349 -1.03398 -4.11715 0
M  V30 5183 C 488.256 -3.22642 -4.95637 0
M  V30 5184 H 487.186 -0.270584 -0.703776 0
M  V30 5185 H 489.837 -1.25222 -1.34133 0
M  V30 5186 H 488.219 -0.670165 -3.90288 0
M  V30 5187 H 489.393 -3.41296 -3.09602 0
M  V30 5188 H 487.708 -2.97559 -2.91286 0
M  V30 5189 H 490.305 -1.3542 -5.17267 0
M  V30 5190 H 490.648 0.0289246 -4.1629 0
M  V30 5191 H 491.181 -1.5895 -3.64664 0
M  V30 5192 H 487.92 -4.28296 -4.96228 0
M  V30 5193 H 487.44 -2.62539 -5.39289 0
M  V30 5194 H 489.119 -3.16444 -5.64333 0
M  V30 5195 N 489.251 1.34841 -0.815825 0
M  V30 5196 C 490.214 2.27959 -0.238185 0
M  V30 5197 C 491.214 1.49983 0.579816 0
M  V30 5198 O 492.404 1.69617 0.396953 0
M  V30 5199 C 489.536 3.34314 0.666876 0
M  V30 5200 H 490.729 2.80558 -1.05958 0
M  V30 5201 H 488.282 1.44852 -0.587156 0
M  V30 5202 H 489.017 2.86916 1.5116 0
M  V30 5203 H 488.802 3.92014 0.0819106 0
M  V30 5204 H 490.292 4.0379 1.06506 0
M  V30 5205 N 490.729 0.570148 1.46925 0
M  V30 5206 C 491.659 -0.158274 2.32963 0
M  V30 5207 C 492.64 -0.896093 1.44583 0
M  V30 5208 O 493.825 -0.874022 1.7342 0
M  V30 5209 C 490.955 -1.18055 3.26619 0
M  V30 5210 C 489.909 -0.558379 4.24342 0
M  V30 5211 C 489.235 -1.68623 5.07415 0
M  V30 5212 C 490.535 0.496295 5.19937 0
M  V30 5213 H 492.229 0.560046 2.94115 0
M  V30 5214 H 489.775 0.270775 1.41431 0
M  V30 5215 H 491.728 -1.69841 3.85658 0
M  V30 5216 H 490.452 -1.92899 2.63548 0
M  V30 5217 H 489.111 -0.0617157 3.66548 0
M  V30 5218 H 488.759 -2.42402 4.40738 0
M  V30 5219 H 488.459 -1.27564 5.73586 0
M  V30 5220 H 489.983 -2.20709 5.69315 0
M  V30 5221 H 491.397 0.0640052 5.73264 0
M  V30 5222 H 489.794 0.82649 5.94381 0
M  V30 5223 H 490.864 1.38735 4.6463 0
M  V30 5224 N 492.207 -1.54576 0.307264 0
M  V30 5225 C 493.154 -2.23751 -0.56604 0
M  V30 5226 C 494.124 -1.22235 -1.12462 0
M  V30 5227 O 495.309 -1.50873 -1.16799 0
M  V30 5228 C 492.449 -2.98661 -1.72903 0
M  V30 5229 C 491.562 -4.14963 -1.20124 0
M  V30 5230 C 490.697 -4.77441 -2.3286 0
M  V30 5231 C 489.736 -5.85875 -1.77247 0
M  V30 5232 N 488.873 -6.42282 -2.8358 0
M  V30 5233 H 493.713 -2.97984 0.0304578 0
M  V30 5234 H 491.25 -1.47076 0.0268015 0
M  V30 5235 H 493.208 -3.40329 -2.41313 0
M  V30 5236 H 491.838 -2.26793 -2.29706 0
M  V30 5237 H 490.89 -3.78193 -0.409198 0
M  V30 5238 H 492.202 -4.93066 -0.754171 0
M  V30 5239 H 491.356 -5.21993 -3.09205 0
M  V30 5240 H 490.095 -3.98684 -2.80896 0
M  V30 5241 H 489.1 -5.40741 -0.993926 0
M  V30 5242 H 490.325 -6.6652 -1.30107 0
M  V30 5243 H 488.271 -5.66406 -3.30939 0
M  V30 5244 H 488.188 -7.1575 -2.43388 0
M  V30 5245 H 489.456 -6.91492 -3.59804 0
M  V30 5246 N 493.685 -0.035106 -1.57561 0
M  V30 5247 C 494.632 0.94474 -2.10578 0
M  V30 5248 C 495.602 1.3192 -1.00927 0
M  V30 5249 O 496.787 1.41147 -1.28382 0
M  V30 5250 C 493.927 2.21982 -2.64231 0
M  V30 5251 C 493.04 1.90128 -3.87911 0
M  V30 5252 C 492.175 3.11975 -4.29936 0
M  V30 5253 C 491.214 2.75968 -5.46359 0
M  V30 5254 N 490.351 3.90459 -5.83512 0
M  V30 5255 H 495.191 0.485717 -2.94015 0
M  V30 5256 H 492.728 0.228143 -1.4532 0
M  V30 5257 H 494.686 2.96572 -2.9343 0
M  V30 5258 H 493.316 2.6549 -1.83616 0
M  V30 5259 H 492.368 1.05755 -3.65404 0
M  V30 5260 H 493.68 1.59613 -4.72573 0
M  V30 5261 H 492.834 3.9488 -4.60603 0
M  V30 5262 H 491.573 3.45657 -3.44053 0
M  V30 5263 H 490.578 1.91478 -5.1538 0
M  V30 5264 H 491.803 2.43497 -6.33945 0
M  V30 5265 H 489.749 4.23971 -5.00584 0
M  V30 5266 H 489.666 3.63588 -6.62827 0
M  V30 5267 H 490.934 4.7405 -6.18787 0
M  V30 5268 N 495.163 1.55791 0.238111 0
M  V30 5269 C 496.11 1.9105 1.29493 0
M  V30 5270 C 497.08 0.765733 1.47397 0
M  V30 5271 O 498.265 1.02017 1.61236 0
M  V30 5272 C 495.405 2.21826 2.64362 0
M  V30 5273 C 494.518 3.49153 2.54394 0
M  V30 5274 C 493.653 3.69455 3.81676 0
M  V30 5275 C 492.692 4.90353 3.66361 0
M  V30 5276 N 491.829 5.07131 4.85554 0
M  V30 5277 H 496.669 2.81172 0.987233 0
M  V30 5278 H 494.206 1.39179 0.476203 0
M  V30 5279 H 496.164 2.37675 3.4288 0
M  V30 5280 H 494.794 1.34897 2.93262 0
M  V30 5281 H 493.846 3.41587 1.67399 0
M  V30 5282 H 495.158 4.37818 2.38991 0
M  V30 5283 H 494.312 3.85311 4.68636 0
M  V30 5284 H 493.051 2.7904 3.99985 0
M  V30 5285 H 492.056 4.74464 2.77784 0
M  V30 5286 H 493.281 5.82237 3.49538 0
M  V30 5287 H 491.227 4.19654 5.04209 0
M  V30 5288 H 491.144 5.89899 4.72816 0
M  V30 5289 H 492.412 5.27407 5.73988 0
M  V30 5290 N 496.642 -0.504142 1.49319 0
M  V30 5291 C 497.872 -1.28071 1.62116 0
M  V30 5292 C 498.28 -1.86955 0.290566 0
M  V30 5293 O 497.623 -1.68415 -0.733616 0
M  V30 5294 C 497.685 -2.4521 2.62893 0
M  V30 5295 C 497.349 -2.07218 4.0732 0
M  V30 5296 C 498.346 -1.61375 4.94221 0
M  V30 5297 C 496.031 -2.16949 4.53033 0
M  V30 5298 C 498.025 -1.25763 6.2487 0
M  V30 5299 C 495.712 -1.80949 5.83696 0
M  V30 5300 C 496.71 -1.3543 6.69438 0
M  V30 5301 O 496.398 -0.99915 7.97667 0
M  V30 5302 H 496.13 -0.394763 0.54876 0
M  V30 5303 H 498.684 -0.612118 1.96067 0
M  V30 5304 H 496.914 -3.15134 2.24115 0
M  V30 5305 H 498.603 -3.0724 2.65252 0
M  V30 5306 H 499.369 -1.53306 4.60133 0
M  V30 5307 H 495.248 -2.5133 3.86463 0
M  V30 5308 H 498.792 -0.901631 6.91749 0
M  V30 5309 H 494.689 -1.88667 6.17313 0
M  V30 5310 H 495.457 -1.13089 8.1065 0
M  V30 5311 N 498.12 -1.38341 -0.754957 0
M  V30 5312 C 499.067 -1.3546 -1.86867 0
M  V30 5313 C 500.037 -0.217369 -1.64672 0
M  V30 5314 O 501.222 -0.409383 -1.86356 0
M  V30 5315 C 498.362 -1.18413 -3.24149 0
M  V30 5316 C 497.475 -2.41511 -3.58185 0
M  V30 5317 C 496.61 -2.17205 -4.84763 0
M  V30 5318 C 495.649 -3.36081 -5.11582 0
M  V30 5319 N 494.786 -3.11219 -6.29354 0
M  V30 5320 H 499.626 -2.30672 -1.88664 0
M  V30 5321 H 497.163 -1.14607 -0.922154 0
M  V30 5322 H 499.121 -1.06545 -4.03366 0
M  V30 5323 H 497.751 -0.268397 -3.21682 0
M  V30 5324 H 496.803 -2.64056 -2.73822 0
M  V30 5325 H 498.115 -3.30115 -3.73932 0
M  V30 5326 H 497.269 -2.02465 -5.7192 0
M  V30 5327 H 496.008 -1.25964 -4.71152 0
M  V30 5328 H 495.013 -3.51341 -4.22894 0
M  V30 5329 H 496.238 -4.28196 -5.27091 0
M  V30 5330 H 494.184 -2.22624 -6.17069 0
M  V30 5331 H 494.101 -3.93373 -6.45596 0
M  V30 5332 H 495.369 -3.00132 -7.19403 0
M  V30 5333 N 499.598 0.982988 -1.23187 0
M  V30 5334 C 500.561 2.05649 -1.01198 0
M  V30 5335 C 501.561 1.6078 0.0252464 0
M  V30 5336 O 502.751 1.72878 -0.214243 0
M  V30 5337 C 499.883 3.36744 -0.530656 0
M  V30 5338 H 501.076 2.2659 -1.96461 0
M  V30 5339 H 498.629 1.15602 -1.05195 0
M  V30 5340 H 499.364 3.21492 0.425873 0
M  V30 5341 H 499.149 3.7065 -1.2791 0
M  V30 5342 H 500.639 4.15705 -0.397366 0
M  V30 5343 N 501.076 1.04316 1.18135 0
M  V30 5344 C 502.306 0.767003 1.91835 0
M  V30 5345 C 502.714 -0.68002 1.76557 0
M  V30 5346 O 502.057 -1.47548 1.09432 0
M  V30 5347 C 502.119 1.05674 3.43618 0
M  V30 5348 C 501.783 2.49818 3.82675 0
M  V30 5349 C 502.78 3.48003 3.86251 0
M  V30 5350 C 500.465 2.84596 4.13897 0
M  V30 5351 C 502.459 4.79016 4.20503 0
M  V30 5352 C 500.146 4.15813 4.4782 0
M  V30 5353 C 501.144 5.12834 4.51099 0
M  V30 5354 O 500.832 6.41699 4.84229 0
M  V30 5355 H 500.564 0.278948 0.615763 0
M  V30 5356 H 503.118 1.3946 1.50798 0
M  V30 5357 H 501.348 0.372029 3.84906 0
M  V30 5358 H 503.037 0.767994 3.98568 0
M  V30 5359 H 503.803 3.22475 3.62264 0
M  V30 5360 H 499.682 2.09748 4.1052 0
M  V30 5361 H 503.226 5.54739 4.22978 0
M  V30 5362 H 499.123 4.41109 4.71268 0
M  V30 5363 H 499.891 6.46387 5.02121 0
M  V30 5364 N 502.554 -1.34406 0.822964 0
M  V30 5365 C 503.484 -2.32052 0.259608 0
M  V30 5366 C 504.465 -1.58243 -0.623961 0
M  V30 5367 O 505.65 -1.86224 -0.55083 0
M  V30 5368 C 502.78 -3.42434 -0.579314 0
M  V30 5369 C 501.734 -4.27499 0.20712 0
M  V30 5370 C 501.06 -5.29349 -0.754547 0
M  V30 5371 C 502.36 -5.02758 1.41533 0
M  V30 5372 H 504.054 -2.79418 1.07545 0
M  V30 5373 H 501.6 -1.34338 0.518593 0
M  V30 5374 H 503.553 -4.0976 -0.983612 0
M  V30 5375 H 502.277 -2.93717 -1.4282 0
M  V30 5376 H 500.936 -3.61776 0.592787 0
M  V30 5377 H 500.584 -4.76895 -1.59939 0
M  V30 5378 H 500.284 -5.8714 -0.232561 0
M  V30 5379 H 501.808 -5.99544 -1.1567 0
M  V30 5380 H 503.222 -5.62938 1.08504 0
M  V30 5381 H 501.619 -5.70123 1.87296 0
M  V30 5382 H 502.689 -4.32451 2.1935 0
M  V30 5383 N 504.032 -0.577932 -1.46621 0
M  V30 5384 C 505.262 -0.0670668 -2.06491 0
M  V30 5385 C 505.67 1.24119 -1.42798 0
M  V30 5386 O 505.013 1.76016 -0.525759 0
M  V30 5387 C 505.075 0.177995 -3.59059 0
M  V30 5388 C 504.739 -1.04394 -4.44917 0
M  V30 5389 C 505.736 -1.95479 -4.81751 0
M  V30 5390 C 503.421 -1.26444 -4.86125 0
M  V30 5391 C 505.415 -3.06965 -5.58615 0
M  V30 5392 C 503.102 -2.38237 -5.62749 0
M  V30 5393 C 504.1 -3.28327 -5.98908 0
M  V30 5394 O 503.788 -4.38179 -6.73984 0
M  V30 5395 H 503.52 -0.0523159 -0.673973 0
M  V30 5396 H 506.074 -0.796966 -1.89308 0
M  V30 5397 H 504.304 0.962451 -3.74531 0
M  V30 5398 H 505.993 0.636782 -4.00874 0
M  V30 5399 H 506.759 -1.79657 -4.50498 0
M  V30 5400 H 502.638 -0.572316 -4.57434 0
M  V30 5401 H 506.182 -3.77309 -5.86757 0
M  V30 5402 H 502.079 -2.54023 -5.93416 0
M  V30 5403 H 502.847 -4.36486 -6.92403 0
M  V30 5404 N 505.51 1.54411 -0.315457 0
M  V30 5405 C 506.44 2.27002 0.547039 0
M  V30 5406 C 507.421 1.27492 1.12605 0
M  V30 5407 O 508.606 1.5629 1.15269 0
M  V30 5408 C 505.736 3.02171 1.71201 0
M  V30 5409 C 504.69 4.0895 1.26268 0
M  V30 5410 C 504.016 4.71915 2.51396 0
M  V30 5411 C 505.316 5.20891 0.383419 0
M  V30 5412 H 507.01 2.99343 -0.0584517 0
M  V30 5413 H 504.556 1.4397 -0.0295527 0
M  V30 5414 H 506.509 3.51681 2.32161 0
M  V30 5415 H 505.233 2.27433 2.34397 0
M  V30 5416 H 503.892 3.60312 0.676062 0
M  V30 5417 H 503.54 3.93801 3.12937 0
M  V30 5418 H 503.24 5.44039 2.22026 0
M  V30 5419 H 504.764 5.24195 3.13133 0
M  V30 5420 H 506.178 5.66206 0.899082 0
M  V30 5421 H 504.575 5.99821 0.182857 0
M  V30 5422 H 505.645 4.81324 -0.587821 0
M  V30 5423 N 506.988 0.0434614 1.5754 0
M  V30 5424 C 508.265 -0.671479 1.83713 0
M  V30 5425 C 508.645 -1.89495 0.930315 0
M  V30 5426 O 507.993 -2.28498 -0.0105639 0
M  V30 5427 C 508.203 -1.0361 3.33266 0
M  V30 5428 C 509.551 -1.42167 4.00092 0
M  V30 5429 O 510.575 -1.12866 3.37846 0
M  V30 5430 O 509.434 -1.96817 5.09829 0
M  V30 5431 H 506.528 -0.330726 0.75799 0
M  V30 5432 H 509.074 0.0722373 1.69546 0
M  V30 5433 H 507.846 -0.165938 3.90948 0
M  V30 5434 H 507.469 -1.83751 3.52592 0
M  V30 5435 N 508.466 -1.55915 -0.229846 0
M  V30 5436 C 509.376 -1.94891 -1.30593 0
M  V30 5437 C 510.392 -0.851604 -1.51736 0
M  V30 5438 O 511.568 -1.15447 -1.65027 0
M  V30 5439 C 508.633 -2.25052 -2.63728 0
M  V30 5440 C 507.694 -3.48306 -2.5096 0
M  V30 5441 C 506.927 -3.77019 -3.77747 0
M  V30 5442 O 507.15 -3.07534 -4.80395 0
M  V30 5443 O 506.084 -4.70523 -3.75356 0
M  V30 5444 H 509.91 -2.86581 -1.00525 0
M  V30 5445 H 507.495 -1.43017 -0.432025 0
M  V30 5446 H 509.377 -2.45682 -3.42372 0
M  V30 5447 H 508.052 -1.36538 -2.93495 0
M  V30 5448 H 506.959 -3.32964 -1.70546 0
M  V30 5449 H 508.292 -4.37177 -2.26136 0
M  V30 5450 N 509.944 0.496216 -1.49584 0
M  V30 5451 C 510.907 1.57952 -1.66084 0
M  V30 5452 C 511.907 1.51729 -0.53244 0
M  V30 5453 O 513.097 1.54796 -0.79899 0
M  V30 5454 C 510.229 2.97604 -1.66268 0
M  V30 5455 H 511.422 1.44649 -2.6271 0
M  V30 5456 H 508.975 0.7208 -1.38687 0
M  V30 5457 H 509.71 3.16378 -0.712432 0
M  V30 5458 H 509.495 3.03528 -2.4822 0
M  V30 5459 H 510.985 3.76301 -1.81073 0
M  V30 5460 N 511.423 1.38739 0.74761 0
M  V30 5461 C 512.373 1.32948 1.85226 0
M  V30 5462 C 513.357 0.212642 1.59489 0
M  V30 5463 O 514.549 0.449121 1.71207 0
M  V30 5464 C 511.678 1.16279 3.23008 0
M  V30 5465 C 510.764 2.32611 3.54617 0
M  V30 5466 N 511.155 3.58065 3.57244 0
M  V30 5467 C 509.453 2.25293 3.84914 0
M  V30 5468 C 510.154 4.34919 3.8629 0
M  V30 5469 N 509.13 3.64348 4.03425 0
M  V30 5470 H 512.932 2.27927 1.85544 0
M  V30 5471 H 510.446 1.32056 0.945253 0
M  V30 5472 H 512.443 1.10214 4.02068 0
M  V30 5473 H 511.103 0.222394 3.23937 0
M  V30 5474 H 512.114 3.91656 3.3886 0
M  V30 5475 H 508.791 1.39446 3.93524 0
M  V30 5476 H 510.181 5.43605 3.94896 0
M  V30 5477 N 512.901 -0.976442 1.23707 0
M  V30 5478 C 514.126 -1.75875 1.09922 0
M  V30 5479 C 514.551 -1.84911 -0.34489 0
M  V30 5480 O 513.909 -1.31363 -1.24954 0
M  V30 5481 C 513.957 -3.16179 1.73388 0
M  V30 5482 O 513.061 -4.00124 0.99871 0
M  V30 5483 H 512.402 -0.540954 0.385052 0
M  V30 5484 H 514.932 -1.22546 1.6384 0
M  V30 5485 H 514.942 -3.66741 1.78788 0
M  V30 5486 H 513.617 -3.08917 2.78466 0
M  V30 5487 H 512.194 -3.58624 1.02193 0
M  V30 5488 N 514.379 -1.04941 -1.1758 0
M  V30 5489 C 515.628 -0.753124 -1.87112 0
M  V30 5490 C 515.941 0.722507 -1.81767 0
M  V30 5491 O 517.147 1.13265 -2.46746 0
M  V30 5492 C 515.603 -1.29695 -3.35719 0
M  V30 5493 C 515.211 -2.80184 -3.49572 0
M  V30 5494 C 516.955 -1.07759 -4.10595 0
M  V30 5495 C 514.862 -3.2788 -4.92187 0
M  V30 5496 H 513.792 -0.278034 -0.700866 0
M  V30 5497 H 516.443 -1.26637 -1.32798 0
M  V30 5498 H 514.825 -0.711522 -3.89555 0
M  V30 5499 H 515.999 -3.44561 -3.05965 0
M  V30 5500 H 514.314 -3.00632 -2.88113 0
M  V30 5501 H 516.911 -1.40899 -5.15802 0
M  V30 5502 H 517.254 -0.0152302 -4.16297 0
M  V30 5503 H 517.787 -1.62809 -3.62957 0
M  V30 5504 H 514.526 -4.33535 -4.91658 0
M  V30 5505 H 514.046 -2.68245 -5.36475 0
M  V30 5506 H 515.725 -3.22412 -5.60945 0
M  V30 5507 N 515.857 1.33968 -0.830081 0
M  V30 5508 C 517.105 1.97672 -0.420734 0
M  V30 5509 C 517.426 1.66111 1.02138 0
M  V30 5510 O 516.696 0.955503 1.71017 0
M  V30 5511 H 515.276 0.73125 -0.152587 0
M  V30 5512 H 517.938 1.63483 -1.0611 0
M  V30 5513 H 517.034 3.07294 -0.545588 0
M  V30 5514 N 517.335 0.585699 1.46312 0
M  V30 5515 C 518.298 -0.135673 2.28798 0
M  V30 5516 C 519.298 -0.815988 1.38558 0
M  V30 5517 O 520.488 -0.667487 1.60904 0
M  V30 5518 C 517.62 -1.20163 3.1902 0
M  V30 5519 H 518.813 0.589257 2.94054 0
M  V30 5520 H 516.366 0.343794 1.52472 0
M  V30 5521 H 517.101 -1.95804 2.58517 0
M  V30 5522 H 516.886 -0.718282 3.85465 0
M  V30 5523 H 518.376 -1.70749 3.81096 0
M  V30 5524 N 518.813 -1.54241 0.323641 0
M  V30 5525 C 519.743 -2.27289 -0.534993 0
M  V30 5526 C 520.724 -1.28087 -1.11927 0
M  V30 5527 O 521.909 -1.56899 -1.14439 0
M  V30 5528 C 519.039 -3.03075 -1.69596 0
M  V30 5529 C 517.993 -4.09614 -1.24098 0
M  V30 5530 C 517.319 -4.73242 -2.4889 0
M  V30 5531 C 518.619 -5.21087 -0.355789 0
M  V30 5532 H 520.313 -2.99308 0.0743257 0
M  V30 5533 H 517.859 -1.43952 0.0371874 0
M  V30 5534 H 519.812 -3.52907 -2.30293 0
M  V30 5535 H 518.536 -2.28673 -2.33187 0
M  V30 5536 H 517.195 -3.60666 -0.656945 0
M  V30 5537 H 516.843 -3.95455 -3.10845 0
M  V30 5538 H 516.543 -5.45209 -2.19138 0
M  V30 5539 H 518.067 -5.25848 -3.10348 0
M  V30 5540 H 519.481 -5.66675 -0.869042 0
M  V30 5541 H 517.878 -5.9991 -0.151045 0
M  V30 5542 H 518.948 -4.81005 0.613339 0
M  V30 5543 N 520.291 -0.0518155 -1.57515 0
M  V30 5544 C 521.539 0.620595 -1.92336 0
M  V30 5545 C 521.86 1.71345 -0.930907 0
M  V30 5546 O 521.13 1.95885 0.0241341 0
M  V30 5547 H 519.71 0.232226 -0.709986 0
M  V30 5548 H 522.372 -0.104969 -1.94617 0
M  V30 5549 H 521.468 1.05879 -2.93592 0
M  V30 5550 N 521.769 1.56035 0.221574 0
M  V30 5551 C 523.18 1.69229 0.788567 0
M  V30 5552 C 523.531 0.653814 1.84986 0
M  V30 5553 O 522.656 -0.195065 2.15519 0
M  V30 5554 C 523.251 3.06809 1.43713 0
M  V30 5555 C 521.81 3.21858 1.95152 0
M  V30 5556 C 520.957 2.65155 0.811685 0
M  V30 5557 H 523.908 1.587 -0.00307894 0
M  V30 5558 H 523.929 3.02666 2.30594 0
M  V30 5559 H 523.441 3.82369 0.664475 0
M  V30 5560 H 521.542 2.51167 2.7522 0
M  V30 5561 H 521.655 4.29073 2.1315 0
M  V30 5562 H 520.019 2.23635 1.21899 0
M  V30 5563 H 520.802 3.43261 0.0516987 0
M  V30 5564 N 523.247 -0.488276 1.49845 0
M  V30 5565 C 524.475 -1.26527 1.63702 0
M  V30 5566 C 524.89 -1.8618 0.313447 0
M  V30 5567 O 524.247 -1.68432 -0.702624 0
M  V30 5568 C 524.298 -2.3864 2.71538 0
M  V30 5569 O 524.019 -1.81437 3.98763 0
M  V30 5570 C 525.52 -3.29805 2.96215 0
M  V30 5571 H 522.74 -0.383295 0.55075 0
M  V30 5572 H 525.284 -0.584779 1.95961 0
M  V30 5573 H 523.439 -3.02496 2.42023 0
M  V30 5574 H 523.853 -2.55135 4.58265 0
M  V30 5575 H 525.327 -4.04722 3.75372 0
M  V30 5576 H 525.804 -3.87563 2.06619 0
M  V30 5577 H 526.41 -2.71703 3.27196 0
M  V30 5578 N 524.725 -1.39134 -0.740242 0
M  V30 5579 C 525.973 -1.35803 -1.49673 0
M  V30 5580 C 526.294 0.0470897 -1.94943 0
M  V30 5581 O 525.564 0.997347 -1.68611 0
M  V30 5582 H 524.144 -0.499736 -0.555224 0
M  V30 5583 H 526.806 -1.73947 -0.879107 0
M  V30 5584 H 525.902 -2.0174 -2.38133 0
M  V30 5585 N 526.204 0.969867 -1.24223 0
M  V30 5586 C 527.62 1.23809 -1.00716 0
M  V30 5587 C 527.82 1.99469 0.285358 0
M  V30 5588 O 526.876 2.31764 1.00207 0
M  V30 5589 C 528.189 2.02734 -2.2208 0
M  V30 5590 C 529.737 2.15834 -2.26681 0
M  V30 5591 C 530.212 2.98154 -3.47661 0
M  V30 5592 N 531.703 3.05737 -3.47964 0
M  V30 5593 C 532.438 3.69785 -4.38231 0
M  V30 5594 N 531.934 4.35569 -5.3875 0
M  V30 5595 N 533.727 3.66775 -4.25949 0
M  V30 5596 H 525.878 0.463294 -2.07286 0
M  V30 5597 H 528.141 0.267348 -0.909521 0
M  V30 5598 H 527.847 1.54524 -3.15935 0
M  V30 5599 H 527.721 3.0347 -2.24021 0
M  V30 5600 H 530.108 2.63248 -1.33359 0
M  V30 5601 H 530.189 1.14453 -2.28767 0
M  V30 5602 H 529.833 2.51435 -4.41297 0
M  V30 5603 H 529.763 3.99729 -3.42818 0
M  V30 5604 H 532.254 2.58941 -2.75242 0
M  V30 5605 H 532.567 4.82251 -6.03866 0
M  V30 5606 H 530.912 4.34244 -5.42639 0
M  V30 5607 H 534.103 3.14558 -3.46657 0
M  V30 5608 H 534.276 4.16407 -4.96497 0
M  V30 5609 N 527.682 1.05563 1.17022 0
M  V30 5610 C 528.93 0.76642 1.87004 0
M  V30 5611 C 529.251 -0.708854 1.8166 0
M  V30 5612 O 528.521 -1.51242 1.2451 0
M  V30 5613 H 527.101 0.280516 0.692329 0
M  V30 5614 H 529.763 1.33557 1.41945 0
M  V30 5615 H 528.859 1.08472 2.92644 0
M  V30 5616 N 529.16 -1.33526 0.837174 0
M  V30 5617 C 530.406 -1.9813 0.432704 0
M  V30 5618 C 530.739 -1.66168 -1.00508 0
M  V30 5619 O 530.014 -0.94069 -1.70239 0
M  V30 5620 C 530.297 -3.54151 0.651834 0
M  V30 5621 C 530.15 -3.95806 2.13676 0
M  V30 5622 C 531.469 -4.39993 0.0968937 0
M  V30 5623 H 528.588 -0.719713 0.15869 0
M  V30 5624 H 531.23 -1.58193 1.05237 0
M  V30 5625 H 529.38 -3.88301 0.124369 0
M  V30 5626 H 531.052 -3.71921 2.72896 0
M  V30 5627 H 529.295 -3.45599 2.62191 0
M  V30 5628 H 529.966 -5.0447 2.24084 0
M  V30 5629 H 532.442 -4.12479 0.547733 0
M  V30 5630 H 531.318 -5.48186 0.279917 0
M  V30 5631 H 531.579 -4.3066 -0.9992 0
M  V30 5632 N 530.638 -0.59345 -1.46 0
M  V30 5633 C 531.884 -0.0832754 -2.02629 0
M  V30 5634 C 532.217 1.27749 -1.46266 0
M  V30 5635 O 531.492 1.8395 -0.631866 0
M  V30 5636 C 531.775 -0.0290756 -3.60088 0
M  V30 5637 C 531.628 -1.41951 -4.26814 0
M  V30 5638 C 532.947 0.666055 -4.35031 0
M  V30 5639 H 530.066 -0.031736 -0.736316 0
M  V30 5640 H 532.708 -0.762711 -1.74019 0
M  V30 5641 H 530.858 0.549532 -3.84594 0
M  V30 5642 H 532.53 -2.04411 -4.13538 0
M  V30 5643 H 530.773 -1.98422 -3.8576 0
M  V30 5644 H 531.444 -1.33395 -5.3564 0
M  V30 5645 H 533.92 0.174401 -4.15734 0
M  V30 5646 H 532.796 0.673041 -5.44758 0
M  V30 5647 H 533.057 1.72946 -4.06869 0
M  V30 5648 N 532.116 1.54067 -0.331816 0
M  V30 5649 C 533.026 2.28322 0.539104 0
M  V30 5650 C 534.042 1.32985 1.1221 0
M  V30 5651 O 535.218 1.6601 1.1403 0
M  V30 5652 C 532.283 3.03277 1.68 0
M  V30 5653 C 531.344 4.14216 1.12798 0
M  V30 5654 C 530.577 4.85588 2.2145 0
M  V30 5655 O 530.8 4.56536 3.41952 0
M  V30 5656 O 529.734 5.72309 1.86404 0
M  V30 5657 H 533.56 3.03632 -0.0641692 0
M  V30 5658 H 531.145 1.49083 -0.0972365 0
M  V30 5659 H 533.027 3.50189 2.34405 0
M  V30 5660 H 531.702 2.30834 2.2693 0
M  V30 5661 H 530.609 3.71635 0.428782 0
M  V30 5662 H 531.942 4.88727 0.583698 0
M  V30 5663 N 533.594 0.0601682 1.57485 0
M  V30 5664 C 534.824 -0.620037 1.97076 0
M  V30 5665 C 535.232 -1.64381 0.936784 0
M  V30 5666 O 534.575 -1.83497 -0.0863377 0
M  V30 5667 C 534.637 -1.35617 3.32939 0
M  V30 5668 C 534.301 -0.487208 4.54396 0
M  V30 5669 C 535.298 0.250428 5.19297 0
M  V30 5670 C 532.983 -0.415494 5.00579 0
M  V30 5671 C 534.977 1.04812 6.28723 0
M  V30 5672 C 532.664 0.385879 6.0988 0
M  V30 5673 C 533.662 1.11637 6.73815 0
M  V30 5674 O 533.35 1.90454 7.81014 0
M  V30 5675 H 533.082 -0.173664 0.653312 0
M  V30 5676 H 535.636 0.1256 2.05016 0
M  V30 5677 H 533.866 -2.14763 3.2158 0
M  V30 5678 H 535.555 -1.92749 3.57215 0
M  V30 5679 H 536.321 0.204546 4.84568 0
M  V30 5680 H 532.2 -0.973679 4.506 0
M  V30 5681 H 535.744 1.6188 6.78558 0
M  V30 5682 H 531.641 0.433366 6.44044 0
M  V30 5683 H 532.409 1.82762 7.97835 0
M  V30 5684 N 535.072 -1.5615 -0.213296 0
M  V30 5685 C 536.319 -1.79546 -0.936462 0
M  V30 5686 C 536.647 -0.630337 -1.84003 0
M  V30 5687 O 535.902 0.384883 -1.91878 0
M  V30 5688 C 536.201 -3.08772 -1.79985 0
M  V30 5689 C 535.867 -4.38532 -1.04882 0
M  V30 5690 C 534.529 -4.73787 -0.841393 0
M  V30 5691 C 536.881 -5.18609 -0.51907 0
M  V30 5692 C 534.209 -5.86627 -0.0924403 0
M  V30 5693 C 536.561 -6.32229 0.216581 0
M  V30 5694 C 535.225 -6.6608 0.435191 0
M  V30 5695 H 534.495 -0.657004 -0.342676 0
M  V30 5696 H 537.142 -1.9041 -0.204051 0
M  V30 5697 H 535.447 -2.93065 -2.60038 0
M  V30 5698 H 537.144 -3.24077 -2.36168 0
M  V30 5699 H 533.734 -4.10855 -1.22048 0
M  V30 5700 H 537.918 -4.91801 -0.666775 0
M  V30 5701 H 533.174 -6.11338 0.087081 0
M  V30 5702 H 537.348 -6.93503 0.634538 0
M  V30 5703 H 534.975 -7.5336 1.01746 0
M  V30 5704 N 536.55 0.480323 -1.50102 0
M  V30 5705 C 537.798 1.23063 -1.60312 0
M  V30 5706 C 538.119 1.92659 -0.301226 0
M  V30 5707 O 537.389 1.83691 0.680753 0
M  V30 5708 H 535.969 0.457231 -0.590719 0
M  V30 5709 H 538.631 0.554893 -1.86834 0
M  V30 5710 H 537.727 1.9835 -2.40964 0
M  V30 5711 N 538.028 1.39524 0.732853 0
M  V30 5712 C 538.958 1.41153 1.86005 0
M  V30 5713 C 539.939 0.274614 1.67869 0
M  V30 5714 O 541.124 0.480745 1.88155 0
M  V30 5715 C 538.254 1.25638 3.23778 0
M  V30 5716 C 537.208 2.36752 3.56556 0
M  V30 5717 C 536.534 2.06326 4.93289 0
M  V30 5718 C 537.834 3.79069 3.5931 0
M  V30 5719 H 539.528 2.35484 1.84899 0
M  V30 5720 H 537.074 1.13348 0.888162 0
M  V30 5721 H 539.027 1.25398 4.0231 0
M  V30 5722 H 537.751 0.277772 3.25417 0
M  V30 5723 H 536.41 2.36213 2.80355 0
M  V30 5724 H 536.058 1.06897 4.9151 0
M  V30 5725 H 535.758 2.80757 5.16187 0
M  V30 5726 H 537.282 2.07739 5.74175 0
M  V30 5727 H 538.696 3.81526 4.27914 0
M  V30 5728 H 537.093 4.52878 3.93728 0
M  V30 5729 H 538.163 4.09893 2.59068 0
M  V30 5730 N 539.506 -0.963266 1.24736 0
M  V30 5731 C 540.783 -1.68248 0.9976 0
M  V30 5732 C 541.163 -2.05599 -0.478776 0
M  V30 5733 O 540.511 -1.7626 -1.45412 0
M  V30 5734 C 540.721 -2.91118 1.92487 0
M  V30 5735 C 542.069 -3.63261 2.19833 0
M  V30 5736 O 543.093 -3.01184 1.90176 0
M  V30 5737 O 541.952 -4.75019 2.7022 0
M  V30 5738 H 539.046 -0.735744 0.377637 0
M  V30 5739 H 541.592 -1.01696 1.35853 0
M  V30 5740 H 540.364 -2.60242 2.92215 0
M  V30 5741 H 539.987 -3.65402 1.56738 0
M  V30 5742 N 540.985 -1.06182 -1.16461 0
M  V30 5743 C 542.396 -0.802426 -1.68576 0
M  V30 5744 C 542.747 0.67412 -1.84255 0
M  V30 5745 O 541.872 1.52303 -1.5373 0
M  V30 5746 C 542.467 -1.45002 -3.06202 0
M  V30 5747 C 541.026 -1.23843 -3.55443 0
M  V30 5748 C 540.173 -1.52724 -2.31454 0
M  V30 5749 H 543.124 -1.22545 -1.00839 0
M  V30 5750 H 543.145 -0.864731 -3.70544 0
M  V30 5751 H 542.657 -2.52466 -2.94759 0
M  V30 5752 H 540.758 -0.183487 -3.72148 0
M  V30 5753 H 540.871 -1.95036 -4.37604 0
M  V30 5754 H 539.235 -0.947726 -2.36411 0
M  V30 5755 H 540.018 -2.61343 -2.22609 0
M  V30 5756 N 542.463 1.3308 -0.844243 0
M  V30 5757 C 543.373 2.32876 -0.283922 0
M  V30 5758 C 544.389 1.63589 0.592846 0
M  V30 5759 O 545.565 1.95205 0.495693 0
M  V30 5760 C 542.63 3.42667 0.527283 0
M  V30 5761 C 541.691 4.27664 -0.374394 0
M  V30 5762 C 540.924 5.32212 0.39819 0
M  V30 5763 O 541.147 5.46635 1.62932 0
M  V30 5764 O 540.081 6.01458 -0.2306 0
M  V30 5765 H 543.907 2.82671 -1.11045 0
M  V30 5766 H 541.492 1.36518 -0.606903 0
M  V30 5767 H 543.374 4.09652 0.988078 0
M  V30 5768 H 542.049 2.95079 1.33078 0
M  V30 5769 H 540.956 3.63526 -0.883144 0
M  V30 5770 H 542.289 4.78749 -1.1428 0
M  V30 5771 N 543.941 0.601185 1.45683 0
M  V30 5772 C 545.218 0.0261659 1.95582 0
M  V30 5773 C 545.598 -1.4399 1.5437 0
M  V30 5774 O 544.946 -2.13919 0.80318 0
M  V30 5775 C 545.156 0.217557 3.48321 0
M  V30 5776 C 546.504 0.0950076 4.24494 0
M  V30 5777 O 547.528 0.147345 3.55895 0
M  V30 5778 O 546.387 -0.025261 5.46494 0
M  V30 5779 H 543.481 -0.0393688 0.826062 0
M  V30 5780 H 546.027 0.670798 1.55879 0
M  V30 5781 H 544.799 1.23601 3.71266 0
M  V30 5782 H 544.422 -0.46264 3.94899 0
M  V30 5783 N 545.419 -1.53889 0.339982 0
M  V30 5784 C 546.665 -2.01152 -0.258003 0
M  V30 5785 C 546.998 -1.22749 -1.50487 0
M  V30 5786 O 546.273 -0.314156 -1.91946 0
M  V30 5787 C 546.556 -3.55468 -0.575717 0
M  V30 5788 C 546.409 -4.44584 0.682996 0
M  V30 5789 C 547.728 -4.1768 -1.38677 0
M  V30 5790 H 544.847 -0.731198 -0.0922992 0
M  V30 5791 H 547.489 -1.84352 0.459814 0
M  V30 5792 H 545.639 -3.69914 -1.18725 0
M  V30 5793 H 547.311 -4.41981 1.32102 0
M  V30 5794 H 545.554 -4.13592 1.3086 0
M  V30 5795 H 546.225 -5.5043 0.416001 0
M  V30 5796 H 548.701 -4.0691 -0.869705 0
M  V30 5797 H 547.577 -5.25734 -1.57783 0
M  V30 5798 H 547.838 -3.72069 -2.38782 0
M  V30 5799 N 546.897 -0.0685191 -1.57451 0
M  V30 5800 C 548.174 0.642167 -1.84758 0
M  V30 5801 C 548.554 1.87991 -0.960344 0
M  V30 5802 O 547.902 2.28485 -0.0257894 0
M  V30 5803 C 548.112 0.982946 -3.34872 0
M  V30 5804 C 549.46 1.35784 -4.02303 0
M  V30 5805 O 550.484 1.07477 -3.39598 0
M  V30 5806 O 549.343 1.88681 -5.12895 0
M  V30 5807 H 546.437 0.318625 -0.763156 0
M  V30 5808 H 548.983 -0.0992015 -1.6941 0
M  V30 5809 H 547.755 0.10372 -3.91163 0
M  V30 5810 H 547.378 1.78119 -3.55471 0
M  V30 5811 N 548.375 1.56261 0.205012 0
M  V30 5812 C 549.621 1.80306 0.9283 0
M  V30 5813 C 549.954 0.640932 1.83319 0
M  V30 5814 O 549.229 -0.359032 1.91158 0
M  V30 5815 C 549.512 3.14547 1.75306 0
M  V30 5816 C 549.365 4.41236 0.873562 0
M  V30 5817 C 550.684 3.45382 2.72762 0
M  V30 5818 H 547.803 0.655929 0.336044 0
M  V30 5819 H 550.445 1.88984 0.196211 0
M  V30 5820 H 548.595 3.0728 2.37721 0
M  V30 5821 H 550.267 4.60539 0.264887 0
M  V30 5822 H 548.51 4.33427 0.179773 0
M  V30 5823 H 549.181 5.31639 1.48541 0
M  V30 5824 H 551.657 3.52884 2.20481 0
M  V30 5825 H 550.533 4.40449 3.2756 0
M  V30 5826 H 550.794 2.68377 3.51321 0
M  V30 5827 N 549.853 -0.472356 1.50355 0
M  V30 5828 C 550.786 -1.58923 1.63764 0
M  V30 5829 C 551.764 -1.55173 0.485793 0
M  V30 5830 O 552.948 -1.74815 0.705132 0
M  V30 5831 C 550.075 -2.97497 1.61905 0
M  V30 5832 C 549.121 -3.19405 2.82635 0
M  V30 5833 S 549.954 -2.99441 4.43954 0
M  V30 5834 C 551.11 -4.40359 4.44786 0
M  V30 5835 H 551.343 -1.47309 2.58239 0
M  V30 5836 H 548.876 -0.659601 1.39602 0
M  V30 5837 H 550.834 -3.77389 1.61518 0
M  V30 5838 H 549.495 -3.06502 0.686683 0
M  V30 5839 H 548.688 -4.20636 2.77636 0
M  V30 5840 H 548.29 -2.47283 2.80583 0
M  V30 5841 H 550.582 -5.32969 4.1827 0
M  V30 5842 H 551.525 -4.50403 5.46391 0
M  V30 5843 H 551.933 -4.22378 3.74509 0
M  V30 5844 N 551.331 -1.39911 -0.725443 0
M  V30 5845 C 552.264 -1.33788 -1.84867 0
M  V30 5846 C 553.242 -0.209907 -1.61239 0
M  V30 5847 O 554.426 -0.391943 -1.8438 0
M  V30 5848 C 551.553 -1.07975 -3.21028 0
M  V30 5849 C 550.599 -2.23092 -3.635 0
M  V30 5850 S 551.432 -3.85431 -3.71757 0
M  V30 5851 C 552.588 -3.61862 -5.10692 0
M  V30 5852 H 552.821 -2.28848 -1.89779 0
M  V30 5853 H 550.354 -1.26079 -0.891254 0
M  V30 5854 H 552.312 -0.937669 -3.99647 0
M  V30 5855 H 550.973 -0.145865 -3.13761 0
M  V30 5856 H 550.166 -2.00647 -4.62338 0
M  V30 5857 H 549.768 -2.33553 -2.92112 0
M  V30 5858 H 552.06 -3.19719 -5.97316 0
M  V30 5859 H 553.003 -4.60196 -5.38169 0
M  V30 5860 H 553.411 -2.95757 -4.8082 0
M  V30 5861 N 552.809 0.956637 -1.25245 0
M  V30 5862 C 554.057 1.69764 -1.09657 0
M  V30 5863 C 554.378 1.91583 0.363464 0
M  V30 5864 O 553.648 1.50149 1.25825 0
M  V30 5865 H 552.228 0.629097 -0.402798 0
M  V30 5866 H 554.89 1.15026 -1.57337 0
M  V30 5867 H 553.986 2.67769 -1.60331 0
M  V30 5868 N 554.287 1.06798 1.15896 0
M  V30 5869 C 555.515 0.808694 1.90441 0
M  V30 5870 C 555.93 -0.637506 1.77711 0
M  V30 5871 O 555.287 -1.43684 1.12522 0
M  V30 5872 C 555.338 1.20068 3.40978 0
M  V30 5873 O 555.059 2.59013 3.53333 0
M  V30 5874 C 556.56 0.96987 4.3256 0
M  V30 5875 H 553.78 0.292809 0.603742 0
M  V30 5876 H 556.324 1.42296 1.46874 0
M  V30 5877 H 554.479 0.630842 3.82229 0
M  V30 5878 H 554.893 2.7485 4.46719 0
M  V30 5879 H 556.367 1.29371 5.36626 0
M  V30 5880 H 556.844 -0.0941209 4.39099 0
M  V30 5881 H 557.45 1.52433 3.97044 0
M  V30 5882 N 555.766 -1.3263 0.851289 0
M  V30 5883 C 557.013 -1.97368 0.453023 0
M  V30 5884 C 557.341 -1.67384 -0.990596 0
M  V30 5885 O 556.596 -0.952665 -1.70947 0
M  V30 5886 C 556.895 -3.51713 0.635015 0
M  V30 5887 C 556.561 -4.01676 2.04859 0
M  V30 5888 C 555.223 -4.15031 2.43522 0
M  V30 5889 C 557.575 -4.28206 2.97135 0
M  V30 5890 C 554.903 -4.52257 3.73739 0
M  V30 5891 C 557.255 -4.66889 4.26846 0
M  V30 5892 C 555.919 -4.7845 4.65448 0
M  V30 5893 H 555.189 -0.722219 0.165773 0
M  V30 5894 H 557.836 -1.58092 1.0807 0
M  V30 5895 H 556.141 -3.91726 -0.0759081 0
M  V30 5896 H 557.838 -3.99823 0.306964 0
M  V30 5897 H 554.428 -3.91764 1.73836 0
M  V30 5898 H 558.612 -4.174 2.68498 0
M  V30 5899 H 553.868 -4.59402 4.03435 0
M  V30 5900 H 558.042 -4.86372 4.98413 0
M  V30 5901 H 555.669 -5.07052 5.66395 0
M  V30 5902 N 557.244 -0.608902 -1.45362 0
M  V30 5903 C 558.472 -0.111013 -2.06602 0
M  V30 5904 C 558.887 1.20516 -1.45332 0
M  V30 5905 O 558.244 1.73437 -0.567978 0
M  V30 5906 C 558.295 0.033688 -3.61484 0
M  V30 5907 O 558.016 -1.23041 -4.20467 0
M  V30 5908 C 559.517 0.562882 -4.39712 0
M  V30 5909 H 556.737 -0.0694453 -0.667397 0
M  V30 5910 H 559.281 -0.837008 -1.86586 0
M  V30 5911 H 557.436 0.710016 -3.80838 0
M  V30 5912 H 557.85 -1.06094 -5.13658 0
M  V30 5913 H 559.324 0.613213 -5.48583 0
M  V30 5914 H 559.801 1.58543 -4.09586 0
M  V30 5915 H 560.407 -0.0794454 -4.25226 0
M  V30 5916 N 558.722 1.53707 -0.348139 0
M  V30 5917 C 559.669 2.25173 0.506518 0
M  V30 5918 C 560.639 1.25174 1.09182 0
M  V30 5919 O 561.824 1.53917 1.12757 0
M  V30 5920 C 558.964 3.03141 1.64923 0
M  V30 5921 C 558.077 4.18002 1.0908 0
M  V30 5922 C 557.212 4.83447 2.20119 0
M  V30 5923 C 556.251 5.90369 1.61651 0
M  V30 5924 N 555.388 6.49575 2.66451 0
M  V30 5925 H 560.228 2.97799 -0.109452 0
M  V30 5926 H 557.765 1.46953 -0.0657866 0
M  V30 5927 H 559.723 3.46607 2.32205 0
M  V30 5928 H 558.353 2.32803 2.23612 0
M  V30 5929 H 557.405 3.79145 0.308783 0
M  V30 5930 H 558.717 4.94892 0.623178 0
M  V30 5931 H 557.871 5.30008 2.95257 0
M  V30 5932 H 556.61 4.05991 2.70227 0
M  V30 5933 H 555.615 5.43186 0.850209 0
M  V30 5934 H 556.84 6.69735 1.1239 0
M  V30 5935 H 554.786 5.74981 3.15805 0
M  V30 5936 H 554.703 7.21952 2.24325 0
M  V30 5937 H 555.971 7.00789 3.41344 0
M  V30 5938 N 560.2 0.0768682 1.57412 0
M  V30 5939 C 561.425 -0.603404 1.98428 0
M  V30 5940 C 561.85 -1.62047 0.955108 0
M  V30 5941 O 561.208 -1.81129 -0.0786778 0
M  V30 5942 C 561.256 -1.24396 3.38464 0
M  V30 5943 O 560.36 -2.35982 3.3821 0
M  V30 5944 H 559.701 -0.154741 0.645718 0
M  V30 5945 H 562.231 0.152885 2.04028 0
M  V30 5946 H 562.241 -1.5896 3.7576 0
M  V30 5947 H 560.916 -0.498735 4.12899 0
M  V30 5948 H 559.493 -2.03173 3.1269 0
M  V30 5949 N 561.678 -1.56367 -0.196722 0
M  V30 5950 C 562.925 -1.80529 -0.917366 0
M  V30 5951 C 563.253 -0.649817 -1.83324 0
M  V30 5952 O 562.508 0.36451 -1.92275 0
M  V30 5953 C 562.807 -3.10663 -1.767 0
M  V30 5954 C 562.473 -4.3962 -1.00225 0
M  V30 5955 C 561.135 -4.74653 -0.791095 0
M  V30 5956 C 563.487 -5.1913 -0.464035 0
M  V30 5957 C 560.815 -5.86692 -0.0302155 0
M  V30 5958 C 563.167 -6.31964 0.283625 0
M  V30 5959 C 561.831 -6.65581 0.505813 0
M  V30 5960 H 561.101 -0.660602 -0.335688 0
M  V30 5961 H 563.748 -1.90615 -0.183844 0
M  V30 5962 H 562.053 -2.95807 -2.56915 0
M  V30 5963 H 563.75 -3.26563 -2.32718 0
M  V30 5964 H 560.34 -4.12127 -1.17684 0
M  V30 5965 H 564.524 -4.9248 -0.614575 0
M  V30 5966 H 559.78 -6.11211 0.151917 0
M  V30 5967 H 563.954 -6.92791 0.708057 0
M  V30 5968 H 561.581 -7.52239 1.0973 0
M  V30 5969 N 563.156 0.464375 -1.50603 0
M  V30 5970 C 564.404 1.21356 -1.61608 0
M  V30 5971 C 564.725 1.92329 -0.321643 0
M  V30 5972 O 563.995 1.84403 0.661232 0
M  V30 5973 H 562.575 0.45094 -0.595535 0
M  V30 5974 H 565.237 0.535046 -1.87412 0
M  V30 5975 H 564.333 1.95783 -2.43054 0
M  V30 5976 N 564.634 1.40294 0.718013 0
M  V30 5977 C 565.597 1.4012 1.81381 0
M  V30 5978 C 566.597 0.295405 1.58063 0
M  V30 5979 O 567.787 0.554187 1.6515 0
M  V30 5980 C 564.919 1.19056 3.19435 0
M  V30 5981 H 566.112 2.37645 1.82933 0
M  V30 5982 H 563.665 1.26107 0.923405 0
M  V30 5983 H 564.4 0.222809 3.23534 0
M  V30 5984 H 564.185 1.99152 3.37758 0
M  V30 5985 H 565.675 1.21716 3.99468 0
M  V30 5986 N 566.112 -0.949982 1.2575 0
M  V30 5987 C 567.337 -1.73503 1.13628 0
M  V30 5988 C 567.762 -1.85601 -0.30559 0
M  V30 5989 O 567.12 -1.33984 -1.22139 0
M  V30 5990 C 567.168 -3.1243 1.80055 0
M  V30 5991 O 566.272 -3.97916 1.08336 0
M  V30 5992 H 565.613 -0.532665 0.396439 0
M  V30 5993 H 568.143 -1.19043 1.66403 0
M  V30 5994 H 568.153 -3.62866 1.86527 0
M  V30 5995 H 566.828 -3.02941 2.84956 0
M  V30 5996 H 565.405 -3.56375 1.09777 0
M  V30 5997 N 567.59 -1.07411 -1.15328 0
M  V30 5998 C 568.838 -0.796073 -1.85761 0
M  V30 5999 C 569.159 0.679864 -1.82764 0
M  V30 6000 O 568.429 1.49242 -1.269 0
M  V30 6001 H 567.009 -0.291495 -0.687779 0
M  V30 6002 H 569.671 -1.35799 -1.39802 0
M  V30 6003 H 568.767 -1.13114 -2.90881 0
M  V30 6004 N 569.068 1.32177 -0.85831 0
M  V30 6005 C 570.316 1.96735 -0.462568 0
M  V30 6006 C 570.637 1.6824 0.985911 0
M  V30 6007 O 569.907 0.991564 1.68952 0
M  V30 6008 H 568.487 0.727849 -0.168064 0
M  V30 6009 H 571.149 1.61195 -1.09554 0
M  V30 6010 H 570.245 3.06068 -0.610647 0
M  V30 6011 N 570.547 0.616602 1.45037 0
M  V30 6012 C 571.777 0.121791 2.06241 0
M  V30 6013 C 572.185 -1.20289 1.46038 0
M  V30 6014 O 571.528 -1.7456 0.572242 0
M  V30 6015 C 571.59 -0.0827345 3.59405 0
M  V30 6016 C 571.254 1.16153 4.41993 0
M  V30 6017 C 572.251 2.08183 4.76399 0
M  V30 6018 C 569.936 1.39288 4.82601 0
M  V30 6019 C 571.93 3.21668 5.5028 0
M  V30 6020 C 569.617 2.53073 5.56235 0
M  V30 6021 C 570.615 3.44091 5.89992 0
M  V30 6022 O 570.303 4.55894 6.6213 0
M  V30 6023 H 570.035 0.0701667 0.672349 0
M  V30 6024 H 572.589 0.846877 1.87129 0
M  V30 6025 H 570.819 -0.862812 3.76952 0
M  V30 6026 H 572.508 -0.530273 4.02421 0
M  V30 6027 H 573.274 1.91538 4.45576 0
M  V30 6028 H 569.153 0.693396 4.55755 0
M  V30 6029 H 572.697 3.92733 5.76547 0
M  V30 6030 H 568.594 2.69667 5.86472 0
M  V30 6031 H 569.362 4.5469 6.80587 0
M  V30 6032 N 572.025 -1.5352 0.356285 0
M  V30 6033 C 573.274 -2.00298 -0.237373 0
M  V30 6034 C 573.587 -1.24784 -1.50627 0
M  V30 6035 O 574.793 -1.62103 -2.17795 0
M  V30 6036 C 573.249 -3.56771 -0.473545 0
M  V30 6037 C 572.857 -4.41154 0.780183 0
M  V30 6038 C 574.601 -4.1193 -1.02537 0
M  V30 6039 C 572.508 -5.89161 0.514108 0
M  V30 6040 H 571.438 -0.748307 -0.092478 0
M  V30 6041 H 574.089 -1.77283 0.473588 0
M  V30 6042 H 572.471 -3.75902 -1.24553 0
M  V30 6043 H 573.645 -4.33797 1.55425 0
M  V30 6044 H 571.96 -3.97052 1.25455 0
M  V30 6045 H 574.557 -5.20133 -1.2396 0
M  V30 6046 H 574.9 -3.65943 -1.98473 0
M  V30 6047 H 575.433 -3.96561 -0.313775 0
M  V30 6048 H 572.172 -6.39408 1.44355 0
M  V30 6049 H 571.692 -5.9939 -0.221632 0
M  V30 6050 H 573.371 -6.46857 0.136122 0
M  V30 6051 N 573.503 -0.0852151 -1.57369 0
M  V30 6052 C 574.751 0.579658 -1.93609 0
M  V30 6053 C 575.072 1.69332 -0.967043 0
M  V30 6054 O 574.342 1.95892 -0.0174215 0
M  V30 6055 H 572.922 0.217113 -0.714752 0
M  V30 6056 H 575.584 -0.146226 -1.94351 0
M  V30 6057 H 574.68 0.996276 -2.95771 0
M  V30 6058 N 574.981 1.5647 0.188427 0
M  V30 6059 C 576.229 1.80655 0.905986 0
M  V30 6060 C 576.55 0.659391 1.83513 0
M  V30 6061 O 575.82 -0.321868 1.93238 0
M  V30 6062 H 574.4 0.666391 0.337538 0
M  V30 6063 H 577.062 1.93949 0.192339 0
M  V30 6064 H 576.158 2.74066 1.49313 0
M  V30 6065 N 576.459 -0.456382 1.50847 0
M  V30 6066 C 577.406 -1.55249 1.70782 0
M  V30 6067 C 578.376 -1.56757 0.549231 0
M  V30 6068 O 579.561 -1.74061 0.7815 0
M  V30 6069 C 576.701 -2.93118 1.82143 0
M  V30 6070 C 575.814 -3.01285 3.09598 0
M  V30 6071 C 574.949 -4.30159 3.11667 0
M  V30 6072 C 573.988 -4.32124 4.33515 0
M  V30 6073 N 573.125 -5.52492 4.3324 0
M  V30 6074 H 577.965 -1.37555 2.64353 0
M  V30 6075 H 575.502 -0.668543 1.3103 0
M  V30 6076 H 577.46 -3.73088 1.86711 0
M  V30 6077 H 576.09 -3.09413 0.919978 0
M  V30 6078 H 575.142 -2.14096 3.14431 0
M  V30 6079 H 576.454 -2.98597 3.99551 0
M  V30 6080 H 575.608 -5.18489 3.15046 0
M  V30 6081 H 574.347 -4.35477 2.1957 0
M  V30 6082 H 573.352 -3.42189 4.30333 0
M  V30 6083 H 574.577 -4.28485 5.26856 0
M  V30 6084 H 572.523 -5.58567 3.44004 0
M  V30 6085 H 572.44 -5.51605 5.16979 0
M  V30 6086 H 573.708 -6.42906 4.40786 0
M  V30 6087 N 577.937 -1.40673 -0.710563 0
M  V30 6088 C 578.884 -1.41336 -1.82463 0
M  V30 6089 C 579.854 -0.269648 -1.63897 0
M  V30 6090 O 581.039 -0.468463 -1.8496 0
M  V30 6091 C 578.179 -1.28665 -3.20218 0
M  V30 6092 C 577.292 -2.52784 -3.5032 0
M  V30 6093 C 576.427 -2.32517 -4.77608 0
M  V30 6094 C 575.466 -3.52187 -5.0063 0
M  V30 6095 N 574.603 -3.31084 -6.19135 0
M  V30 6096 H 579.443 -2.36558 -1.8123 0
M  V30 6097 H 576.98 -1.17483 -0.885226 0
M  V30 6098 H 578.938 -1.19324 -3.99772 0
M  V30 6099 H 577.568 -0.370602 -3.20666 0
M  V30 6100 H 576.62 -2.72634 -2.65283 0
M  V30 6101 H 577.932 -3.41845 -3.63241 0
M  V30 6102 H 577.086 -2.20558 -5.65189 0
M  V30 6103 H 575.825 -1.40889 -4.66906 0
M  V30 6104 H 574.83 -3.64617 -4.11502 0
M  V30 6105 H 576.055 -4.44749 -5.13201 0
M  V30 6106 H 574.001 -2.42143 -6.09674 0
M  V30 6107 H 573.918 -4.13713 -6.32754 0
M  V30 6108 H 575.186 -3.22868 -7.0949 0
M  V30 6109 N 579.415 0.9433 -1.26252 0
M  V30 6110 C 580.325 2.07532 -1.09397 0
M  V30 6111 C 581.341 1.73977 -0.0280449 0
M  V30 6112 O 582.517 2.00067 -0.231337 0
M  V30 6113 C 579.582 3.39002 -0.726523 0
M  V30 6114 C 578.643 3.86353 -1.87163 0
M  V30 6115 C 577.876 5.11549 -1.52162 0
M  V30 6116 O 578.099 5.68834 -0.422385 0
M  V30 6117 O 577.033 5.53889 -2.35565 0
M  V30 6118 H 580.859 2.24658 -2.04359 0
M  V30 6119 H 578.444 1.05988 -1.05295 0
M  V30 6120 H 580.326 4.18 -0.534236 0
M  V30 6121 H 579.001 3.2312 0.193721 0
M  V30 6122 H 577.908 3.0831 -2.11886 0
M  V30 6123 H 579.241 4.06752 -2.77152 0
M  V30 6124 N 580.893 1.08022 1.14757 0
M  V30 6125 C 581.823 0.728248 2.21853 0
M  V30 6126 C 582.804 -0.287486 1.67653 0
M  V30 6127 O 583.989 -0.158727 1.9355 0
M  V30 6128 C 581.119 0.132549 3.47047 0
M  V30 6129 C 580.073 1.07619 4.14249 0
M  V30 6130 C 579.399 0.342907 5.33599 0
M  V30 6131 C 580.699 2.41268 4.63235 0
M  V30 6132 H 582.393 1.62365 2.51551 0
M  V30 6133 H 579.939 0.782125 1.20908 0
M  V30 6134 H 581.892 -0.125665 4.21213 0
M  V30 6135 H 580.616 -0.797971 3.16702 0
M  V30 6136 H 579.275 1.31944 3.42033 0
M  V30 6137 H 578.923 -0.59129 4.99513 0
M  V30 6138 H 578.623 0.971955 5.79506 0
M  V30 6139 H 580.147 0.0926538 6.1053 0
M  V30 6140 H 581.561 2.21232 5.28894 0
M  V30 6141 H 579.958 2.9983 5.19829 0
M  V30 6142 H 581.028 3.03079 3.78512 0
M  V30 6143 N 582.371 -1.3172 0.865308 0
M  V30 6144 C 583.62 -1.96145 0.470098 0
M  V30 6145 C 583.933 -1.69182 -0.981674 0
M  V30 6146 O 585.139 -2.27431 -1.48281 0
M  V30 6147 C 583.595 -3.51129 0.789732 0
M  V30 6148 C 583.203 -3.86938 2.25795 0
M  V30 6149 C 584.947 -4.2197 0.462765 0
M  V30 6150 C 582.854 -5.35012 2.52024 0
M  V30 6151 H 581.784 -0.734105 0.172065 0
M  V30 6152 H 584.435 -1.49959 1.05757 0
M  V30 6153 H 582.817 -3.95781 0.131571 0
M  V30 6154 H 583.991 -3.5326 2.95879 0
M  V30 6155 H 582.306 -3.29149 2.55049 0
M  V30 6156 H 584.903 -5.30904 0.636019 0
M  V30 6157 H 585.246 -4.12005 -0.59645 0
M  V30 6158 H 585.779 -3.82936 1.07727 0
M  V30 6159 H 582.518 -5.50008 3.56611 0
M  V30 6160 H 582.038 -5.70058 1.8653 0
M  V30 6161 H 583.717 -6.0222 2.36515 0
M  V30 6162 N 583.85 -0.624285 -1.44708 0
M  V30 6163 C 585.127 -0.0572781 -1.95516 0
M  V30 6164 C 585.507 1.41516 -1.56641 0
M  V30 6165 O 584.855 2.12614 -0.837111 0
M  V30 6166 C 585.065 -0.272944 -3.47931 0
M  V30 6167 C 586.413 -0.162529 -4.24289 0
M  V30 6168 O 587.437 -0.203946 -3.55616 0
M  V30 6169 O 586.296 -0.0616847 -5.46465 0
M  V30 6170 H 583.389 0.0262219 -0.826584 0
M  V30 6171 H 585.936 -0.695512 -1.54793 0
M  V30 6172 H 584.707 -1.29492 -3.69253 0
M  V30 6173 H 584.331 0.399756 -3.95585 0
M  V30 6174 N 585.328 1.53329 -0.364422 0
M  V30 6175 C 586.558 2.05359 0.226096 0
M  V30 6176 C 586.966 1.23777 1.43094 0
M  V30 6177 O 586.309 0.271139 1.81688 0
M  V30 6178 C 586.371 3.52918 0.684794 0
M  V30 6179 C 586.035 4.55218 -0.403206 0
M  V30 6180 C 587.032 5.04583 -1.2527 0
M  V30 6181 C 584.717 4.99134 -0.563117 0
M  V30 6182 C 586.711 5.96463 -2.24745 0
M  V30 6183 C 584.398 5.9082 -1.56124 0
M  V30 6184 C 585.396 6.39375 -2.40184 0
M  V30 6185 O 585.084 7.29255 -3.38293 0
M  V30 6186 H 584.816 0.674588 0.0436772 0
M  V30 6187 H 587.37 1.98688 -0.520782 0
M  V30 6188 H 585.6 3.57122 1.48326 0
M  V30 6189 H 587.289 3.87812 1.19818 0
M  V30 6190 H 588.055 4.71403 -1.14034 0
M  V30 6191 H 583.934 4.60928 0.0813909 0
M  V30 6192 H 587.478 6.34285 -2.90393 0
M  V30 6193 H 583.375 6.23414 -1.67407 0
M  V30 6194 H 584.143 7.47249 -3.34009 0
M  V30 6195 N 586.806 0.0935595 1.57322 0
M  V30 6196 C 587.736 -0.863062 2.16964 0
M  V30 6197 C 588.717 -1.29528 1.10256 0
M  V30 6198 O 589.902 -1.36245 1.38387 0
M  V30 6199 C 587.032 -2.12276 2.74875 0
M  V30 6200 C 585.986 -1.82921 3.86942 0
M  V30 6201 C 585.312 -3.15707 4.31548 0
M  V30 6202 C 586.612 -1.11737 5.10208 0
M  V30 6203 H 588.306 -0.366145 2.97153 0
M  V30 6204 H 585.852 -0.174673 1.42937 0
M  V30 6205 H 587.805 -2.79634 3.1525 0
M  V30 6206 H 586.529 -2.64248 1.91938 0
M  V30 6207 H 585.188 -1.17961 3.47103 0
M  V30 6208 H 584.836 -3.65563 3.45504 0
M  V30 6209 H 584.536 -2.96849 5.07104 0
M  V30 6210 H 586.06 -3.84226 4.74555 0
M  V30 6211 H 587.474 -1.69203 5.47762 0
M  V30 6212 H 585.871 -1.03064 5.91183 0
M  V30 6213 H 586.941 -0.0998818 4.84797 0
M  V30 6214 N 588.284 -1.56567 -0.180126 0
M  V30 6215 C 589.7 -1.50488 -0.531559 0
M  V30 6216 C 589.9 -0.796267 -1.851 0
M  V30 6217 O 588.956 -0.352978 -2.50021 0
M  V30 6218 C 590.269 -2.95201 -0.572456 0
M  V30 6219 C 591.817 -3.05957 -0.660264 0
M  V30 6220 C 592.292 -4.5211 -0.732135 0
M  V30 6221 N 593.783 -4.56322 -0.795262 0
M  V30 6222 C 594.518 -5.66742 -0.871296 0
M  V30 6223 N 594.014 -6.86815 -0.908708 0
M  V30 6224 N 595.807 -5.54691 -0.909639 0
M  V30 6225 H 587.958 -2.01045 0.685165 0
M  V30 6226 H 590.221 -0.915536 0.245962 0
M  V30 6227 H 589.927 -3.50165 0.328208 0
M  V30 6228 H 589.801 -3.49369 -1.422 0
M  V30 6229 H 592.188 -2.51032 -1.55136 0
M  V30 6230 H 592.269 -2.54888 0.215783 0
M  V30 6231 H 591.913 -5.07664 0.154664 0
M  V30 6232 H 591.843 -5.00926 -1.6242 0
M  V30 6233 H 594.334 -3.69868 -0.77499 0
M  V30 6234 H 594.647 -7.66718 -0.967654 0
M  V30 6235 H 592.992 -6.89443 -0.877132 0
M  V30 6236 H 596.183 -4.59804 -0.877353 0
M  V30 6237 H 596.356 -6.40768 -0.965434 0
M  V30 6238 N 589.762 0.448376 -1.51087 0
M  V30 6239 C 590.99 1.22143 -1.66999 0
M  V30 6240 C 591.405 1.85283 -0.362699 0
M  V30 6241 O 590.762 1.70236 0.65772 0
M  V30 6242 C 590.813 2.31357 -2.7777 0
M  V30 6243 O 590.534 1.70801 -4.03434 0
M  V30 6244 C 592.035 3.21836 -3.04855 0
M  V30 6245 H 589.255 0.368558 -0.560719 0
M  V30 6246 H 591.799 0.532618 -1.97442 0
M  V30 6247 H 589.954 2.95973 -2.49958 0
M  V30 6248 H 590.368 2.42895 -4.64868 0
M  V30 6249 H 591.842 3.94627 -3.85971 0
M  V30 6250 H 592.319 3.81949 -2.16821 0
M  V30 6251 H 592.925 2.62933 -3.34285 0
M  V30 6252 N 591.24 1.41047 0.703093 0
M  V30 6253 C 592.19 1.38774 1.80903 0
M  V30 6254 C 593.174 0.263275 1.58731 0
M  V30 6255 O 594.366 0.503362 1.69692 0
M  V30 6256 C 591.495 1.26497 3.19145 0
M  V30 6257 C 590.581 2.43775 3.47037 0
M  V30 6258 N 590.972 3.69249 3.45672 0
M  V30 6259 C 589.27 2.37425 3.77552 0
M  V30 6260 C 589.971 4.46989 3.72258 0
M  V30 6261 N 588.947 3.76998 3.91629 0
M  V30 6262 H 592.749 2.33714 1.78199 0
M  V30 6263 H 590.263 1.34996 0.902762 0
M  V30 6264 H 592.26 1.2295 3.98358 0
M  V30 6265 H 590.92 0.32534 3.23066 0
M  V30 6266 H 591.931 4.02239 3.26228 0
M  V30 6267 H 588.608 1.51895 3.88888 0
M  V30 6268 H 589.998 5.55894 3.77402 0
M  V30 6269 N 592.718 -0.936591 1.26751 0
M  V30 6270 C 593.943 -1.72288 1.15462 0
M  V30 6271 C 594.368 -1.85915 -0.285887 0
M  V30 6272 O 593.726 -1.35272 -1.20711 0
M  V30 6273 C 593.774 -3.10503 1.83359 0
M  V30 6274 O 592.878 -3.96745 1.1255 0
M  V30 6275 H 592.219 -0.52843 0.402067 0
M  V30 6276 H 594.749 -1.17271 1.67656 0
M  V30 6277 H 594.759 -3.60867 1.90365 0
M  V30 6278 H 593.434 -2.99901 2.88153 0
M  V30 6279 H 592.011 -3.55191 1.13551 0
M  V30 6280 N 594.196 -1.08629 -1.14182 0
M  V30 6281 C 595.146 -0.687882 -2.17376 0
M  V30 6282 C 596.13 0.293632 -1.58198 0
M  V30 6283 O 597.322 0.105292 -1.76687 0
M  V30 6284 C 594.451 -0.101184 -3.43151 0
M  V30 6285 C 593.537 -1.10862 -4.09354 0
M  V30 6286 N 593.928 -2.29285 -4.50846 0
M  V30 6287 C 592.226 -0.944897 -4.35876 0
M  V30 6288 C 592.927 -2.93305 -5.02342 0
M  V30 6289 N 591.903 -2.20903 -4.96692 0
M  V30 6290 H 595.705 -1.58963 -2.472 0
M  V30 6291 H 593.219 -0.961329 -1.3089 0
M  V30 6292 H 595.216 0.202209 -4.16409 0
M  V30 6293 H 593.876 0.795522 -3.14804 0
M  V30 6294 H 594.887 -2.66927 -4.43813 0
M  V30 6295 H 591.564 -0.102186 -4.17375 0
M  V30 6296 H 592.954 -3.93932 -5.44304 0
M  V30 6297 N 595.674 1.31259 -0.872281 0
M  V30 6298 C 596.899 2.0133 -0.498099 0
M  V30 6299 C 597.324 1.65031 0.902568 0
M  V30 6300 O 596.682 0.860164 1.59596 0
M  V30 6301 C 596.73 3.54411 -0.665205 0
M  V30 6302 O 595.834 4.11347 0.294473 0
M  V30 6303 H 595.175 0.633844 -0.197832 0
M  V30 6304 H 597.705 1.67402 -1.17633 0
M  V30 6305 H 597.715 4.04147 -0.559373 0
M  V30 6306 H 596.39 3.80171 -1.68651 0
M  V30 6307 H 594.967 3.72624 0.143403 0
M  V30 6308 N 597.152 0.631951 1.44375 0
M  V30 6309 C 598.115 -0.0628142 2.29114 0
M  V30 6310 C 599.115 -0.771494 1.41084 0
M  V30 6311 O 600.305 -0.615959 1.62947 0
M  V30 6312 C 597.437 -1.09953 3.22681 0
M  V30 6313 H 598.63 0.682509 2.92031 0
M  V30 6314 H 596.183 0.392128 1.51301 0
M  V30 6315 H 596.918 -1.87481 2.64616 0
M  V30 6316 H 596.703 -0.595286 3.87555 0
M  V30 6317 H 598.193 -1.58538 3.86336 0
M  V30 6318 N 598.631 -1.53133 0.372548 0
M  V30 6319 C 599.877 -2.01654 -0.215277 0
M  V30 6320 C 600.21 -1.25914 -1.47849 0
M  V30 6321 O 599.485 -0.3548 -1.91237 0
M  V30 6322 C 599.768 -3.56609 -0.500187 0
M  V30 6323 C 599.621 -4.43036 0.777145 0
M  V30 6324 C 600.94 -4.20528 -1.29786 0
M  V30 6325 H 598.059 -0.732991 -0.0767686 0
M  V30 6326 H 600.701 -1.83335 0.498814 0
M  V30 6327 H 598.851 -3.7235 -1.10852 0
M  V30 6328 H 600.523 -4.39079 1.41447 0
M  V30 6329 H 598.766 -4.10723 1.39604 0
M  V30 6330 H 599.437 -5.49424 0.532662 0
M  V30 6331 H 601.913 -4.08663 -0.783198 0
M  V30 6332 H 600.789 -5.28962 -1.46596 0
M  V30 6333 H 601.05 -3.77051 -2.30836 0
M  V30 6334 N 600.109 -0.101901 -1.5727 0
M  V30 6335 C 601.339 0.567568 -1.98651 0
M  V30 6336 C 601.747 1.61839 -0.980037 0
M  V30 6337 O 601.09 1.83661 0.0376564 0
M  V30 6338 C 601.152 1.26742 -3.36417 0
M  V30 6339 C 600.816 0.366561 -4.55528 0
M  V30 6340 C 601.813 -0.388022 -5.1845 0
M  V30 6341 C 599.498 0.282629 -5.01504 0
M  V30 6342 C 601.492 -1.21445 -6.25724 0
M  V30 6343 C 599.179 -0.547443 -6.08643 0
M  V30 6344 C 600.177 -1.29462 -6.70618 0
M  V30 6345 O 599.865 -2.11095 -7.7569 0
M  V30 6346 H 599.597 0.156282 -0.657687 0
M  V30 6347 H 602.151 -0.179912 -2.04611 0
M  V30 6348 H 600.381 2.06162 -3.27161 0
M  V30 6349 H 602.07 1.8321 -3.622 0
M  V30 6350 H 602.836 -0.332949 -4.83856 0
M  V30 6351 H 598.715 0.853868 -4.53023 0
M  V30 6352 H 602.259 -1.79814 -6.74027 0
M  V30 6353 H 598.156 -0.603971 -6.42668 0
M  V30 6354 H 598.924 -2.03851 -7.92709 0
M  V30 6355 N 601.587 1.56661 0.17182 0
M  V30 6356 C 602.55 1.9549 1.19651 0
M  V30 6357 C 603.55 0.838501 1.37207 0
M  V30 6358 O 604.74 1.10556 1.34622 0
M  V30 6359 C 601.872 2.24927 2.56166 0
M  V30 6360 H 603.065 2.87184 0.864007 0
M  V30 6361 H 600.618 1.50711 0.41425 0
M  V30 6362 H 601.353 1.35944 2.94431 0
M  V30 6363 H 601.138 3.06301 2.4479 0
M  V30 6364 H 602.628 2.55891 3.30014 0
M  V30 6365 N 603.065 -0.440357 1.51323 0
M  V30 6366 C 604.293 -1.21255 1.67645 0
M  V30 6367 C 604.708 -1.85088 0.37252 0
M  V30 6368 O 604.065 -1.70582 -0.648683 0
M  V30 6369 C 604.116 -2.29881 2.78993 0
M  V30 6370 O 603.837 -1.68659 4.04334 0
M  V30 6371 C 605.338 -3.20214 3.06558 0
M  V30 6372 H 602.558 -0.36558 0.562666 0
M  V30 6373 H 605.102 -0.52214 1.97722 0
M  V30 6374 H 603.257 -2.94643 2.51524 0
M  V30 6375 H 603.671 -2.40426 4.6615 0
M  V30 6376 H 605.145 -3.92575 3.88058 0
M  V30 6377 H 605.622 -3.80794 2.18844 0
M  V30 6378 H 606.228 -2.61156 3.35675 0
M  V30 6379 N 604.543 -1.41418 -0.695603 0
M  V30 6380 C 605.768 -1.44329 -1.48942 0
M  V30 6381 C 606.193 -0.0501579 -1.88033 0
M  V30 6382 O 605.551 0.946598 -1.54626 0
M  V30 6383 C 605.599 -2.3578 -2.72837 0
M  V30 6384 O 604.703 -1.81482 -3.70322 0
M  V30 6385 H 604.044 -0.489838 -0.44828 0
M  V30 6386 H 606.574 -1.85878 -0.855014 0
M  V30 6387 H 606.584 -2.51654 -3.21145 0
M  V30 6388 H 605.259 -3.37005 -2.43722 0
M  V30 6389 H 603.836 -1.75058 -3.29255 0
M  V30 6390 N 606.021 0.929856 -1.27246 0
M  V30 6391 C 606.951 2.04722 -1.12299 0
M  V30 6392 C 607.932 1.70082 -0.0250464 0
M  V30 6393 O 609.117 1.93176 -0.199141 0
M  V30 6394 C 606.247 3.38721 -0.767145 0
M  V30 6395 C 605.201 3.87466 -1.81808 0
M  V30 6396 C 604.527 5.18246 -1.31626 0
M  V30 6397 C 605.827 4.11095 -3.22177 0
M  V30 6398 H 607.521 2.17485 -2.05769 0
M  V30 6399 H 605.067 1.04503 -0.990715 0
M  V30 6400 H 607.02 4.16366 -0.649413 0
M  V30 6401 H 605.744 3.25967 0.203259 0
M  V30 6402 H 604.403 3.12012 -1.92468 0
M  V30 6403 H 604.051 5.01881 -0.335378 0
M  V30 6404 H 603.751 5.51829 -2.01887 0
M  V30 6405 H 605.275 5.98462 -1.21143 0
M  V30 6406 H 606.689 4.79316 -3.1453 0
M  V30 6407 H 605.086 4.55982 -3.90129 0
M  V30 6408 H 606.156 3.16468 -3.67391 0
M  V30 6409 N 607.499 1.09233 1.13605 0
M  V30 6410 C 608.724 0.849067 1.89224 0
M  V30 6411 C 609.149 -0.593875 1.78479 0
M  V30 6412 O 608.507 -1.41703 1.13092 0
M  V30 6413 C 608.555 1.28642 3.36873 0
M  V30 6414 O 607.659 0.44363 4.10007 0
M  V30 6415 H 607 0.30767 0.588417 0
M  V30 6416 H 609.53 1.45595 1.43748 0
M  V30 6417 H 609.54 1.27096 3.87699 0
M  V30 6418 H 608.215 2.33729 3.44011 0
M  V30 6419 H 606.792 0.523241 3.69211 0
M  V30 6420 N 608.977 -1.30795 0.87923 0
M  V30 6421 C 610.388 -1.78535 0.546093 0
M  V30 6422 C 610.739 -1.72354 -0.937467 0
M  V30 6423 O 609.864 -1.2969 -1.73233 0
M  V30 6424 C 610.459 -3.24181 0.9845 0
M  V30 6425 C 609.018 -3.69779 0.702871 0
M  V30 6426 C 608.165 -2.51377 1.17068 0
M  V30 6427 H 611.116 -1.17746 1.06403 0
M  V30 6428 H 611.137 -3.79227 0.311045 0
M  V30 6429 H 610.649 -3.28647 2.06429 0
M  V30 6430 H 608.75 -3.70806 -0.365166 0
M  V30 6431 H 608.863 -4.61507 1.28639 0
M  V30 6432 H 607.227 -2.47768 0.590172 0
M  V30 6433 H 608.01 -2.58584 2.25808 0
M  V30 6434 N 610.455 -0.639598 -1.44038 0
M  V30 6435 C 611.866 -0.228866 -1.85292 0
M  V30 6436 C 612.217 1.22161 -1.53529 0
M  V30 6437 O 611.342 1.93064 -0.977518 0
M  V30 6438 C 611.937 -0.408592 -3.36327 0
M  V30 6439 C 610.496 -0.0522953 -3.76364 0
M  V30 6440 C 609.643 -0.717959 -2.67844 0
M  V30 6441 H 612.594 -0.844194 -1.34384 0
M  V30 6442 H 612.615 0.349968 -3.78887 0
M  V30 6443 H 612.127 -1.46435 -3.59414 0
M  V30 6444 H 610.228 1.0014 -3.58891 0
M  V30 6445 H 610.341 -0.468261 -4.76806 0
M  V30 6446 H 608.705 -0.152459 -2.54243 0
M  V30 6447 H 609.488 -1.77648 -2.93762 0
M  V30 6448 N 611.933 1.52934 -0.380664 0
M  V30 6449 C 613.179 2.01765 0.20458 0
M  V30 6450 C 613.512 1.26696 1.47179 0
M  V30 6451 O 612.787 0.364936 1.91046 0
M  V30 6452 C 613.07 3.56869 0.481269 0
M  V30 6453 C 612.923 4.42617 -0.800629 0
M  V30 6454 C 614.242 4.2121 1.27554 0
M  V30 6455 H 611.361 0.733388 0.0728803 0
M  V30 6456 H 614.003 1.83068 -0.50853 0
M  V30 6457 H 612.153 3.72932 1.08875 0
M  V30 6458 H 613.825 4.38323 -1.43773 0
M  V30 6459 H 612.068 4.09977 -1.4178 0
M  V30 6460 H 612.739 5.49134 -0.561791 0
M  V30 6461 H 615.215 4.09072 0.761514 0
M  V30 6462 H 614.091 5.29732 1.43788 0
M  V30 6463 H 614.352 3.78269 2.28833 0
M  V30 6464 N 613.412 0.11024 1.57214 0
M  V30 6465 C 614.658 -0.550684 1.9518 0
M  V30 6466 C 614.991 -1.66885 0.993122 0
M  V30 6467 O 614.266 -1.94479 0.0287907 0
M  V30 6468 C 614.549 -1.09163 3.43155 0
M  V30 6469 C 614.402 0.0225198 4.49794 0
M  V30 6470 C 615.721 -1.98527 3.92778 0
M  V30 6471 H 612.84 -0.198706 0.709708 0
M  V30 6472 H 615.482 0.184024 1.89107 0
M  V30 6473 H 613.632 -1.71775 3.48462 0
M  V30 6474 H 615.304 0.657443 4.56591 0
M  V30 6475 H 613.547 0.686868 4.28328 0
M  V30 6476 H 614.218 -0.39706 5.5057 0
M  V30 6477 H 616.694 -1.458 3.8972 0
M  V30 6478 H 615.57 -2.33298 4.96853 0
M  V30 6479 H 615.831 -2.90846 3.32958 0
M  V30 6480 N 614.89 -1.56749 -0.16351 0
M  V30 6481 C 615.8 -2.00255 -1.2221 0
M  V30 6482 C 616.816 -0.915194 -1.47987 0
M  V30 6483 O 617.992 -1.22342 -1.59982 0
M  V30 6484 C 615.057 -2.36035 -2.53946 0
M  V30 6485 C 614.118 -3.58637 -2.35962 0
M  V30 6486 C 613.351 -3.92701 -3.61416 0
M  V30 6487 O 613.574 -3.27632 -4.66919 0
M  V30 6488 O 612.508 -4.86019 -3.55062 0
M  V30 6489 H 616.334 -2.90586 -0.882794 0
M  V30 6490 H 613.919 -1.44721 -0.370978 0
M  V30 6491 H 615.801 -2.59982 -3.31643 0
M  V30 6492 H 614.476 -1.48863 -2.8744 0
M  V30 6493 H 613.383 -3.39898 -1.5627 0
M  V30 6494 H 614.716 -4.46374 -2.0739 0
M  V30 6495 N 616.368 0.432326 -1.51554 0
M  V30 6496 C 617.3 1.54357 -1.6943 0
M  V30 6497 C 618.313 1.52311 -0.574897 0
M  V30 6498 O 619.502 1.56997 -0.849369 0
M  V30 6499 C 616.602 2.93273 -1.69836 0
M  V30 6500 C 615.775 3.19768 -2.98442 0
M  V30 6501 C 614.834 4.38433 -2.90969 0
M  V30 6502 O 613.86 4.36842 -3.64908 0
M  V30 6503 N 615.062 5.42276 -2.07163 0
M  V30 6504 H 617.827 1.39426 -2.65293 0
M  V30 6505 H 615.388 0.621331 -1.49503 0
M  V30 6506 H 617.38 3.70687 -1.62399 0
M  V30 6507 H 615.95 3.01777 -0.815456 0
M  V30 6508 H 615.17 2.30607 -3.19709 0
M  V30 6509 H 616.458 3.343 -3.83563 0
M  V30 6510 H 615.856 5.46407 -1.46477 0
M  V30 6511 H 614.413 6.18524 -2.05601 0
M  V30 6512 N 617.846 1.41785 0.688094 0
M  V30 6513 C 619.095 1.4084 1.44385 0
M  V30 6514 C 619.408 0.0234166 1.95586 0
M  V30 6515 O 620.614 -0.108647 2.71283 0
M  V30 6516 C 619.07 2.47675 2.61123 0
M  V30 6517 C 618.678 3.92116 2.16677 0
M  V30 6518 C 620.422 2.55877 3.38714 0
M  V30 6519 C 618.329 4.90487 3.30419 0
M  V30 6520 H 617.259 0.523787 0.542368 0
M  V30 6521 H 619.91 1.6764 0.74627 0
M  V30 6522 H 618.292 2.14018 3.33185 0
M  V30 6523 H 619.466 4.35059 1.51856 0
M  V30 6524 H 617.781 3.87642 1.5206 0
M  V30 6525 H 620.378 3.26553 4.234 0
M  V30 6526 H 620.721 1.59801 3.84408 0
M  V30 6527 H 621.254 2.88662 2.73714 0
M  V30 6528 H 617.993 5.87994 2.89729 0
M  V30 6529 H 617.513 4.52187 3.94065 0
M  V30 6530 H 619.192 5.11591 3.96085 0
M  V30 6531 N 619.324 -0.923095 1.27737 0
M  V30 6532 C 620.573 -1.66581 1.13727 0
M  V30 6533 C 620.886 -1.9304 -0.315433 0
M  V30 6534 O 622.092 -2.65309 -0.57651 0
M  V30 6535 C 620.548 -3.00047 1.98745 0
M  V30 6536 C 620.156 -2.8127 3.48699 0
M  V30 6537 C 621.9 -3.77887 1.93395 0
M  V30 6538 C 619.807 -4.1032 4.25901 0
M  V30 6539 H 618.737 -0.624834 0.422017 0
M  V30 6540 H 621.388 -1.02514 1.52194 0
M  V30 6541 H 619.77 -3.65197 1.53125 0
M  V30 6542 H 620.944 -2.24859 4.02213 0
M  V30 6543 H 619.259 -2.16854 3.55476 0
M  V30 6544 H 621.856 -4.73526 2.48348 0
M  V30 6545 H 622.199 -4.06264 0.908605 0
M  V30 6546 H 622.732 -3.19541 2.36935 0
M  V30 6547 H 619.471 -3.8712 5.28978 0
M  V30 6548 H 618.991 -4.66377 3.77163 0
M  V30 6549 H 620.67 -4.78648 4.35321 0
M  V30 6550 N 620.802 -1.09834 -1.13024 0
M  V30 6551 C 622.03 -0.858902 -1.8823 0
M  V30 6552 C 622.445 0.590164 -1.79339 0
M  V30 6553 O 621.802 1.4065 -1.16292 0
M  V30 6554 C 621.853 -1.29066 -3.37675 0
M  V30 6555 O 621.574 -2.6829 -3.46341 0
M  V30 6556 C 623.075 -1.08421 -4.29837 0
M  V30 6557 H 620.295 -0.308713 -0.595766 0
M  V30 6558 H 622.839 -1.4614 -1.4305 0
M  V30 6559 H 620.994 -0.731961 -3.80422 0
M  V30 6560 H 621.408 -2.86598 -4.39274 0
M  V30 6561 H 622.882 -1.43553 -5.33007 0
M  V30 6562 H 623.359 -0.0223315 -4.39194 0
M  V30 6563 H 623.965 -1.62907 -3.92863 0
M  V30 6564 N 622.28 1.30327 -0.886154 0
M  V30 6565 C 623.505 2.0079 -0.519425 0
M  V30 6566 C 623.93 1.65979 0.885013 0
M  V30 6567 O 623.288 0.877043 1.58675 0
M  V30 6568 C 623.336 3.53686 -0.702758 0
M  V30 6569 O 622.44 4.11637 0.250828 0
M  V30 6570 H 621.781 0.63171 -0.204544 0
M  V30 6571 H 624.311 1.66145 -1.19402 0
M  V30 6572 H 624.321 4.03531 -0.602207 0
M  V30 6573 H 622.996 3.78361 -1.72673 0
M  V30 6574 H 621.573 3.72755 0.103873 0
M  V30 6575 N 623.758 0.647228 1.43697 0
M  V30 6576 C 624.691 -0.097646 2.27991 0
M  V30 6577 C 625.669 -0.83571 1.3948 0
M  V30 6578 O 626.853 -0.836509 1.68922 0
M  V30 6579 C 623.98 -1.14484 3.18765 0
M  V30 6580 C 623.026 -0.505503 4.23494 0
M  V30 6581 S 623.859 0.716471 5.30685 0
M  V30 6582 C 625.015 -0.330339 6.25028 0
M  V30 6583 H 625.248 0.617417 2.90818 0
M  V30 6584 H 622.781 0.435881 1.4812 0
M  V30 6585 H 624.739 -1.74403 3.7161 0
M  V30 6586 H 623.4 -1.83219 2.55127 0
M  V30 6587 H 622.593 -1.29473 4.87086 0
M  V30 6588 H 622.195 0.0194377 3.73995 0
M  V30 6589 H 624.487 -1.19828 6.66819 0
M  V30 6590 H 625.43 0.270409 7.07583 0
M  V30 6591 H 625.838 -0.663459 5.60588 0
M  V30 6592 N 625.236 -1.5273 0.388769 0
M  V30 6593 C 626.183 -2.26437 -0.446639 0
M  V30 6594 C 627.153 -1.28025 -1.05824 0
M  V30 6595 O 628.338 -1.56852 -1.08637 0
M  V30 6596 C 625.478 -3.07407 -1.56828 0
M  V30 6597 C 624.591 -4.20747 -0.979589 0
M  V30 6598 C 623.726 -4.89113 -2.07224 0
M  V30 6599 C 622.765 -5.94447 -1.45942 0
M  V30 6600 N 621.902 -6.56411 -2.49135 0
M  V30 6601 H 626.742 -2.97404 0.18837 0
M  V30 6602 H 624.279 -1.46727 0.104725 0
M  V30 6603 H 626.237 -3.52642 -2.22934 0
M  V30 6604 H 624.867 -2.3865 -2.17361 0
M  V30 6605 H 623.919 -3.7983 -0.208151 0
M  V30 6606 H 625.231 -4.9637 -0.491747 0
M  V30 6607 H 624.385 -5.3765 -2.81101 0
M  V30 6608 H 623.124 -4.13013 -2.59368 0
M  V30 6609 H 622.129 -5.4525 -0.705894 0
M  V30 6610 H 623.354 -6.7248 -0.945932 0
M  V30 6611 H 621.3 -5.83152 -3.00449 0
M  V30 6612 H 621.217 -7.27645 -2.05105 0
M  V30 6613 H 622.485 -7.09592 -3.22644 0
M  V30 6614 N 626.714 -0.118576 -1.57153 0
M  V30 6615 C 627.954 0.542618 -1.97066 0
M  V30 6616 C 628.318 1.63874 -1.00046 0
M  V30 6617 O 629.519 2.3588 -1.28895 0
M  V30 6618 C 627.79 1.06196 -3.41258 0
M  V30 6619 S 629.349 1.73174 -4.03183 0
M  V30 6620 H 626.167 0.17638 -0.688775 0
M  V30 6621 H 628.769 -0.203556 -1.94437 0
M  V30 6622 H 627.473 0.253016 -4.09619 0
M  V30 6623 H 627.004 1.84342 -3.47536 0
M  V30 6624 H 629.019 3.01749 -3.93906 0
M  V30 6625 N 628.193 1.56834 0.155195 0
M  V30 6626 C 629.442 1.82088 0.867567 0
M  V30 6627 C 629.755 0.69849 1.82703 0
M  V30 6628 O 630.961 0.836407 2.58295 0
M  V30 6629 C 629.417 3.22707 1.59336 0
M  V30 6630 C 629.025 4.42859 0.676719 0
M  V30 6631 C 630.769 3.57242 2.293 0
M  V30 6632 C 628.676 5.74501 1.40367 0
M  V30 6633 H 627.606 0.679057 0.327715 0
M  V30 6634 H 630.257 1.83105 0.120351 0
M  V30 6635 H 628.639 3.16054 2.38591 0
M  V30 6636 H 629.813 4.60731 -0.0800196 0
M  V30 6637 H 628.128 4.16311 0.0859129 0
M  V30 6638 H 630.725 4.52847 2.84312 0
M  V30 6639 H 631.068 2.82901 3.05406 0
M  V30 6640 H 631.601 3.6552 1.56972 0
M  V30 6641 H 628.34 6.51915 0.684623 0
M  V30 6642 H 627.86 5.60579 2.13332 0
M  V30 6643 H 629.539 6.17016 1.94681 0
M  V30 6644 N 629.671 -0.424282 1.51781 0
M  V30 6645 C 630.604 -1.53633 1.68737 0
M  V30 6646 C 631.582 -1.53549 0.534915 0
M  V30 6647 O 632.766 -1.72483 0.760391 0
M  V30 6648 C 629.893 -2.92195 1.71288 0
M  V30 6649 C 628.939 -3.10251 2.92654 0
M  V30 6650 S 629.772 -2.85166 4.53256 0
M  V30 6651 C 630.928 -4.25986 4.58571 0
M  V30 6652 H 631.161 -1.39018 2.62795 0
M  V30 6653 H 628.694 -0.614854 1.41629 0
M  V30 6654 H 630.652 -3.72059 1.73443 0
M  V30 6655 H 629.313 -3.04162 0.783847 0
M  V30 6656 H 628.506 -4.1159 2.90877 0
M  V30 6657 H 628.108 -2.38231 2.88308 0
M  V30 6658 H 630.4 -5.19392 4.35015 0
M  V30 6659 H 631.343 -4.32792 5.60444 0
M  V30 6660 H 631.751 -4.1025 3.87757 0
M  V30 6661 N 631.149 -1.42148 -0.680565 0
M  V30 6662 C 632.397 -1.42029 -1.43779 0
M  V30 6663 C 632.718 -0.0356347 -1.94967 0
M  V30 6664 O 631.988 0.924936 -1.7269 0
M  V30 6665 H 630.568 -0.522835 -0.533529 0
M  V30 6666 H 633.23 -1.7752 -0.804538 0
M  V30 6667 H 632.326 -2.11658 -2.29363 0
M  V30 6668 N 632.627 0.916307 -1.28225 0
M  V30 6669 C 633.559 2.02303 -1.07732 0
M  V30 6670 C 634.572 1.62773 -0.0298421 0
M  V30 6671 O 635.761 1.76406 -0.272626 0
M  V30 6672 C 632.861 3.33282 -0.614504 0
M  V30 6673 C 632.034 4.01439 -1.73682 0
M  V30 6674 C 631.093 5.10698 -1.26781 0
M  V30 6675 O 630.119 5.34038 -1.96958 0
M  V30 6676 N 631.321 5.80355 -0.129624 0
M  V30 6677 H 634.086 2.20442 -2.03041 0
M  V30 6678 H 631.647 1.08744 -1.19943 0
M  V30 6679 H 633.639 4.03699 -0.284397 0
M  V30 6680 H 632.209 3.11633 0.245664 0
M  V30 6681 H 631.429 3.24604 -2.23665 0
M  V30 6682 H 632.717 4.43721 -2.48976 0
M  V30 6683 H 632.115 5.6386 0.455847 0
M  V30 6684 H 630.672 6.51647 0.141224 0
M  V30 6685 N 634.105 1.10431 1.1244 0
M  V30 6686 C 635.382 0.758797 1.80282 0
M  V30 6687 C 635.762 -0.754727 1.97147 0
M  V30 6688 O 635.11 -1.68094 1.54779 0
M  V30 6689 C 635.32 1.50982 3.14651 0
M  V30 6690 C 636.668 1.68232 3.8985 0
M  V30 6691 O 637.692 1.47319 3.24308 0
M  V30 6692 O 636.551 2.02905 5.07437 0
M  V30 6693 H 633.645 0.273756 0.780376 0
M  V30 6694 H 636.191 1.20713 1.19275 0
M  V30 6695 H 634.963 2.53989 2.97666 0
M  V30 6696 H 634.586 1.05435 3.83366 0
M  V30 6697 N 635.583 -1.29855 0.893053 0
M  V30 6698 C 636.831 -1.9544 0.514566 0
M  V30 6699 C 637.152 -1.70795 -0.940959 0
M  V30 6700 O 636.422 -1.03601 -1.66264 0
M  V30 6701 H 635.002 -0.723137 0.187302 0
M  V30 6702 H 637.664 -1.58234 1.13789 0
M  V30 6703 H 636.76 -3.04341 0.691581 0
M  V30 6704 N 637.061 -0.65484 -1.43351 0
M  V30 6705 C 638.289 -0.176685 -2.06144 0
M  V30 6706 C 638.704 1.15831 -1.49093 0
M  V30 6707 O 638.061 1.71542 -0.622868 0
M  V30 6708 C 638.112 -0.0813326 -3.61408 0
M  V30 6709 O 637.833 -1.36355 -4.1634 0
M  V30 6710 C 639.334 0.422706 -4.4128 0
M  V30 6711 H 636.554 -0.0906429 -0.66485 0
M  V30 6712 H 639.098 -0.895945 -1.83829 0
M  V30 6713 H 637.253 0.588496 -3.82904 0
M  V30 6714 H 637.667 -1.22381 -5.10023 0
M  V30 6715 H 639.141 0.438375 -5.50257 0
M  V30 6716 H 639.618 1.45432 -4.14423 0
M  V30 6717 H 640.224 -0.214687 -4.24758 0
M  V30 6718 N 638.539 1.52521 -0.396863 0
M  V30 6719 C 639.764 2.06571 0.185258 0
M  V30 6720 C 640.189 1.26605 1.39115 0
M  V30 6721 O 639.547 0.293055 1.78916 0
M  V30 6722 C 639.595 3.5674 0.526189 0
M  V30 6723 O 638.699 3.7929 1.61903 0
M  V30 6724 H 638.04 0.663712 0.0195474 0
M  V30 6725 H 640.57 1.966 -0.566519 0
M  V30 6726 H 640.58 4.00311 0.788338 0
M  V30 6727 H 639.255 4.14379 -0.355397 0
M  V30 6728 H 637.832 3.47605 1.35 0
M  V30 6729 N 640.017 0.126909 1.57088 0
M  V30 6730 C 640.947 -0.816847 2.18746 0
M  V30 6731 C 641.928 -1.27161 1.12979 0
M  V30 6732 O 643.113 -1.33279 1.41246 0
M  V30 6733 C 640.243 -2.06398 2.79315 0
M  V30 6734 C 639.197 -1.74673 3.90735 0
M  V30 6735 C 638.523 -3.06482 4.38147 0
M  V30 6736 C 639.823 -1.0089 5.12463 0
M  V30 6737 H 641.517 -0.303032 2.97863 0
M  V30 6738 H 639.063 -0.144314 1.43275 0
M  V30 6739 H 641.016 -2.72885 3.2111 0
M  V30 6740 H 639.74 -2.60118 1.975 0
M  V30 6741 H 638.399 -1.10572 3.49527 0
M  V30 6742 H 638.047 -3.58152 3.5318 0
M  V30 6743 H 637.747 -2.86025 5.13287 0
M  V30 6744 H 639.271 -3.74073 4.82599 0
M  V30 6745 H 640.685 -1.57546 5.51228 0
M  V30 6746 H 639.082 -0.905006 5.93237 0
M  V30 6747 H 640.152 0.00297335 4.849 0
M  V30 6748 N 641.495 -1.56914 -0.146875 0
M  V30 6749 C 642.743 -1.82994 -0.85777 0
M  V30 6750 C 643.064 -0.707814 -1.817 0
M  V30 6751 O 642.334 0.270521 -1.94023 0
M  V30 6752 H 640.914 -0.675106 -0.319751 0
M  V30 6753 H 643.576 -1.9439 -0.140849 0
M  V30 6754 H 642.672 -2.77928 -1.41994 0
M  V30 6755 N 642.974 0.416227 -1.52004 0
M  V30 6756 C 643.921 1.50666 -1.74838 0
M  V30 6757 C 644.891 1.55245 -0.590599 0
M  V30 6758 O 646.076 1.71928 -0.827374 0
M  V30 6759 C 643.216 2.88185 -1.89851 0
M  V30 6760 C 642.329 2.92971 -3.17478 0
M  V30 6761 C 641.464 4.21745 -3.22962 0
M  V30 6762 C 640.503 4.20478 -4.4482 0
M  V30 6763 N 639.64 5.40811 -4.47736 0
M  V30 6764 H 644.48 1.30498 -2.67907 0
M  V30 6765 H 642.017 0.633568 -1.32757 0
M  V30 6766 H 643.975 3.68007 -1.96537 0
M  V30 6767 H 642.605 3.06865 -1.00169 0
M  V30 6768 H 641.657 2.05684 -3.19997 0
M  V30 6769 H 642.969 2.87899 -4.07328 0
M  V30 6770 H 642.123 5.09954 -3.28682 0
M  V30 6771 H 640.862 4.29503 -2.31038 0
M  V30 6772 H 639.867 3.30659 -4.39254 0
M  V30 6773 H 641.092 4.14366 -5.38031 0
M  V30 6774 H 639.038 5.4925 -3.58692 0
M  V30 6775 H 638.955 5.37705 -5.31422 0
M  V30 6776 H 640.223 6.30993 -4.57676 0
M  V30 6777 N 644.452 1.42507 0.673017 0
M  V30 6778 C 645.362 1.4853 1.81593 0
M  V30 6779 C 646.378 0.373907 1.69935 0
M  V30 6780 O 647.554 0.625078 1.91454 0
M  V30 6781 C 644.619 1.387 3.17747 0
M  V30 6782 C 643.68 2.60346 3.41348 0
M  V30 6783 C 642.913 2.50975 4.71007 0
M  V30 6784 O 643.136 1.54659 5.49033 0
M  V30 6785 O 642.07 3.41138 4.95892 0
M  V30 6786 H 645.896 2.45001 1.79467 0
M  V30 6787 H 643.481 1.2429 0.82899 0
M  V30 6788 H 645.363 1.35586 3.98992 0
M  V30 6789 H 644.038 0.453555 3.20507 0
M  V30 6790 H 642.945 2.69034 2.59945 0
M  V30 6791 H 644.278 3.52595 3.43421 0
M  V30 6792 N 645.93 -0.909495 1.28709 0
M  V30 6793 C 647.17 -1.67344 1.17368 0
M  V30 6794 C 647.534 -1.90058 -0.272419 0
M  V30 6795 O 648.735 -2.63944 -0.508617 0
M  V30 6796 C 647.006 -2.99219 1.95455 0
M  V30 6797 S 648.565 -3.90295 2.00538 0
M  V30 6798 H 645.383 -0.57466 0.418672 0
M  V30 6799 H 647.985 -1.08144 1.62865 0
M  V30 6800 H 646.689 -2.80393 2.9968 0
M  V30 6801 H 646.22 -3.63464 1.50524 0
M  V30 6802 H 648.235 -4.83511 1.11496 0
M  V30 6803 N 647.408 -1.11026 -1.11852 0
M  V30 6804 C 648.654 -0.857729 -1.83768 0
M  V30 6805 C 648.987 0.615143 -1.842 0
M  V30 6806 O 648.262 1.45391 -1.29196 0
M  V30 6807 C 648.545 -1.41453 -3.31154 0
M  V30 6808 C 648.398 -2.95471 -3.39142 0
M  V30 6809 C 649.717 -1.0619 -4.27097 0
M  V30 6810 H 646.836 -0.313044 -0.667212 0
M  V30 6811 H 649.478 -1.37443 -1.31185 0
M  V30 6812 H 647.628 -0.975052 -3.76065 0
M  V30 6813 H 649.3 -3.4799 -3.02821 0
M  V30 6814 H 647.543 -3.31759 -2.79497 0
M  V30 6815 H 648.214 -3.29515 -4.42859 0
M  V30 6816 H 650.69 -1.44122 -3.90344 0
M  V30 6817 H 649.566 -1.47832 -5.28618 0
M  V30 6818 H 649.827 0.0278912 -4.42091 0
M  V30 6819 N 648.886 1.2938 -0.899927 0
M  V30 6820 C 649.818 2.26737 -0.335139 0
M  V30 6821 C 650.831 1.54316 0.518681 0
M  V30 6822 O 652.02 1.75313 0.335803 0
M  V30 6823 C 649.12 3.34558 0.540774 0
M  V30 6824 C 648.293 4.36455 -0.287372 0
M  V30 6825 C 647.352 5.2361 0.52141 0
M  V30 6826 O 646.378 5.69167 -0.0611735 0
M  V30 6827 N 647.58 5.50985 1.82745 0
M  V30 6828 H 650.345 2.75838 -1.17191 0
M  V30 6829 H 647.906 1.42716 -0.764438 0
M  V30 6830 H 649.898 3.89794 1.08825 0
M  V30 6831 H 648.468 2.85272 1.27823 0
M  V30 6832 H 647.688 3.80875 -1.01626 0
M  V30 6833 H 648.976 5.01573 -0.854518 0
M  V30 6834 H 648.374 5.15781 2.32349 0
M  V30 6835 H 646.931 6.09036 2.32204 0
M  V30 6836 N 650.364 0.662433 1.43002 0
M  V30 6837 C 651.296 -0.062326 2.29115 0
M  V30 6838 C 652.309 -0.777926 1.43011 0
M  V30 6839 O 653.498 -0.634146 1.66856 0
M  V30 6840 C 650.598 -1.11163 3.2015 0
M  V30 6841 C 649.771 -0.472327 4.34842 0
M  V30 6842 C 648.83 -1.41974 5.06685 0
M  V30 6843 O 647.856 -0.924795 5.61637 0
M  V30 6844 N 649.058 -2.75345 5.11043 0
M  V30 6845 H 651.823 0.676838 2.91957 0
M  V30 6846 H 649.384 0.505907 1.53793 0
M  V30 6847 H 651.376 -1.74643 3.65078 0
M  V30 6848 H 649.946 -1.75266 2.58845 0
M  V30 6849 H 649.166 0.341751 3.92716 0
M  V30 6850 H 650.454 -0.0264381 5.08793 0
M  V30 6851 H 649.852 -3.18108 4.67786 0
M  V30 6852 H 648.409 -3.34105 5.59658 0
M  V30 6853 N 651.842 -1.52309 0.404946 0
M  V30 6854 C 652.772 -2.29805 -0.41376 0
M  V30 6855 C 653.753 -1.3384 -1.0498 0
M  V30 6856 O 654.938 -1.62745 -1.05961 0
M  V30 6857 C 652.068 -3.11639 -1.53292 0
M  V30 6858 C 651.022 -4.15616 -1.02211 0
M  V30 6859 C 650.348 -4.8577 -2.23455 0
M  V30 6860 C 651.648 -5.2224 -0.0790725 0
M  V30 6861 H 653.342 -2.98493 0.232878 0
M  V30 6862 H 650.888 -1.43552 0.113441 0
M  V30 6863 H 652.841 -3.64618 -2.11262 0
M  V30 6864 H 651.565 -2.40712 -2.20738 0
M  V30 6865 H 650.224 -3.63641 -0.46484 0
M  V30 6866 H 649.872 -4.11376 -2.89445 0
M  V30 6867 H 649.572 -5.56058 -1.89929 0
M  V30 6868 H 651.096 -5.4156 -2.82038 0
M  V30 6869 H 652.51 -5.70485 -0.567438 0
M  V30 6870 H 650.907 -5.99867 0.167167 0
M  V30 6871 H 651.977 -4.77078 0.867447 0
M  V30 6872 N 653.32 -0.135238 -1.57019 0
M  V30 6873 C 654.283 0.794707 -2.14981 0
M  V30 6874 C 655.283 1.18342 -1.08866 0
M  V30 6875 O 656.473 1.10627 -1.34563 0
M  V30 6876 C 653.605 2.07685 -2.70333 0
M  V30 6877 H 654.798 0.290696 -2.98488 0
M  V30 6878 H 652.351 0.114128 -1.55883 0
M  V30 6879 H 653.086 2.6248 -1.9046 0
M  V30 6880 H 652.871 1.80745 -3.47957 0
M  V30 6881 H 654.361 2.74127 -3.1503 0
M  V30 6882 N 654.798 1.5699 0.138552 0
M  V30 6883 C 655.708 2.02174 1.19008 0
M  V30 6884 C 656.724 0.938622 1.46512 0
M  V30 6885 O 657.9 1.24872 1.58016 0
M  V30 6886 C 654.965 2.40045 2.50159 0
M  V30 6887 C 654.026 3.62346 2.30226 0
M  V30 6888 C 653.259 3.98401 3.55123 0
M  V30 6889 O 653.482 3.35019 4.61647 0
M  V30 6890 O 652.416 4.91606 3.47285 0
M  V30 6891 H 656.242 2.91954 0.836452 0
M  V30 6892 H 653.827 1.45293 0.347907 0
M  V30 6893 H 655.709 2.65225 3.27465 0
M  V30 6894 H 654.384 1.53417 2.85035 0
M  V30 6895 H 653.291 3.42341 1.50843 0
M  V30 6896 H 654.624 4.49617 2.00262 0
M  V30 6897 N 656.276 -0.40816 1.52223 0
M  V30 6898 C 657.224 -1.51788 1.76248 0
M  V30 6899 C 658.218 -1.57264 0.629638 0
M  V30 6900 O 659.424 -1.60659 0.811704 0
M  V30 6901 H 655.799 -0.504823 0.557367 0
M  V30 6902 H 657.77 -1.2871 2.69214 0
M  V30 6903 C 656.519 -2.89145 1.93107 0
M  V30 6904 H 655.842 -2.85674 2.79697 0
M  V30 6905 H 657.282 -3.66082 2.13916 0
M  V30 6906 C 655.741 -3.29581 0.698431 0
M  V30 6907 O 656.271 -4.01479 -0.133238 0
M  V30 6908 N 654.477 -2.85651 0.53405 0
M  V30 6909 H 654.024 -2.2731 1.21194 0
M  V30 6910 H 653.982 -3.13065 -0.289387 0
M  V30 6911 N 657.755 -1.42862 -0.66545 0
M  V30 6912 C 658.983 -1.47246 -1.45349 0
M  V30 6913 C 659.398 -0.0865944 -1.88601 0
M  V30 6914 O 658.755 0.900652 -1.58728 0
M  V30 6915 C 658.806 -2.40772 -2.6965 0
M  V30 6916 O 658.527 -3.73968 -2.2821 0
M  V30 6917 C 660.028 -2.54272 -3.63126 0
M  V30 6918 H 657.248 -0.500497 -0.446927 0
M  V30 6919 H 659.792 -1.87477 -0.816871 0
M  V30 6920 H 657.947 -2.0377 -3.29479 0
M  V30 6921 H 658.361 -4.24146 -3.08546 0
M  V30 6922 H 659.835 -3.23815 -4.47043 0
M  V30 6923 H 660.312 -1.58364 -4.09656 0
M  V30 6924 H 660.918 -2.92036 -3.09185 0
M  V30 6925 N 659.233 0.902656 -1.29189 0
M  V30 6926 C 660.649 1.18296 -1.07137 0
M  V30 6927 C 660.849 2.00701 0.179223 0
M  V30 6928 O 659.905 2.3675 0.877812 0
M  V30 6929 C 661.218 1.90677 -2.32514 0
M  V30 6930 C 662.766 2.03515 -2.37804 0
M  V30 6931 C 663.241 2.79307 -3.62976 0
M  V30 6932 N 664.732 2.86862 -3.63681 0
M  V30 6933 C 665.467 3.46035 -4.57217 0
M  V30 6934 N 664.963 4.06399 -5.61081 0
M  V30 6935 N 666.756 3.43681 -4.44792 0
M  V30 6936 H 658.907 0.352765 -2.0945 0
M  V30 6937 H 661.17 0.21876 -0.922414 0
M  V30 6938 H 660.876 1.3756 -3.23682 0
M  V30 6939 H 660.75 2.91169 -2.39793 0
M  V30 6940 H 663.137 2.55809 -1.47125 0
M  V30 6941 H 663.218 1.02166 -2.34512 0
M  V30 6942 H 662.862 2.2769 -4.54004 0
M  V30 6943 H 662.792 3.80995 -3.63525 0
M  V30 6944 H 665.283 2.43987 -2.88581 0
M  V30 6945 H 665.596 4.49564 -6.2858 0
M  V30 6946 H 663.941 4.0487 -5.64894 0
M  V30 6947 H 667.132 2.9574 -3.62843 0
M  V30 6948 H 667.305 3.89503 -5.17872 0
M  V30 6949 N 660.711 1.11618 1.11262 0
M  V30 6950 C 661.941 0.88745 1.86569 0
M  V30 6951 C 662.349 -0.56636 1.80524 0
M  V30 6952 O 661.692 -1.40289 1.18594 0
M  V30 6953 C 661.754 1.27313 3.36202 0
M  V30 6954 C 661.418 2.73649 3.66013 0
M  V30 6955 C 662.415 3.71863 3.63337 0
M  V30 6956 C 660.1 3.10342 3.9496 0
M  V30 6957 C 662.094 5.04788 3.89188 0
M  V30 6958 C 659.781 4.43451 4.20469 0
M  V30 6959 C 660.779 5.40484 4.17572 0
M  V30 6960 O 660.467 6.71195 4.42439 0
M  V30 6961 H 660.199 0.317543 0.596777 0
M  V30 6962 H 662.753 1.48768 1.41624 0
M  V30 6963 H 660.983 0.616062 3.81761 0
M  V30 6964 H 662.672 1.01991 3.92877 0
M  V30 6965 H 663.438 3.44861 3.41022 0
M  V30 6966 H 659.317 2.35431 3.9635 0
M  V30 6967 H 662.861 5.80516 3.86842 0
M  V30 6968 H 658.758 4.70187 4.42261 0
M  V30 6969 H 659.526 6.77012 4.59997 0
M  V30 6970 N 662.189 -1.289 0.906776 0
M  V30 6971 C 663.436 -1.95269 0.536326 0
M  V30 6972 C 663.764 -1.71435 -0.918711 0
M  V30 6973 O 663.019 -1.02431 -1.66752 0
M  V30 6974 C 663.318 -3.48704 0.783617 0
M  V30 6975 C 662.984 -3.92626 2.21711 0
M  V30 6976 C 661.646 -4.04329 2.60906 0
M  V30 6977 C 663.998 -4.15218 3.15029 0
M  V30 6978 C 661.326 -4.35998 3.92584 0
M  V30 6979 C 663.678 -4.48365 4.46264 0
M  V30 6980 C 662.342 -4.58278 4.85322 0
M  V30 6981 H 661.612 -0.714538 0.196256 0
M  V30 6982 H 664.259 -1.53366 1.14678 0
M  V30 6983 H 662.564 -3.91696 0.0903048 0
M  V30 6984 H 664.261 -3.98162 0.476267 0
M  V30 6985 H 660.851 -3.84038 1.90296 0
M  V30 6986 H 665.035 -4.05636 2.8596 0
M  V30 6987 H 660.291 -4.41878 4.22557 0
M  V30 6988 H 664.465 -4.64795 5.18593 0
M  V30 6989 H 662.092 -4.82573 5.87391 0
M  V30 6990 N 663.667 -0.670007 -1.42649 0
M  V30 6991 C 665.083 -0.33911 -1.55956 0
M  V30 6992 C 665.283 1.1558 -1.65056 0
M  V30 6993 O 664.339 1.94111 -1.61485 0
M  V30 6994 C 665.652 -1.06522 -2.812 0
M  V30 6995 C 667.2 -1.04708 -2.94966 0
M  V30 6996 C 667.675 -1.75442 -4.23065 0
M  V30 6997 N 669.166 -1.72286 -4.29967 0
M  V30 6998 C 669.901 -2.23877 -5.27889 0
M  V30 6999 N 669.397 -2.83829 -6.31991 0
M  V30 7000 N 671.19 -2.14279 -5.19654 0
M  V30 7001 H 663.341 -1.6399 -1.34986 0
M  V30 7002 H 665.604 -0.690603 -0.649439 0
M  V30 7003 H 665.31 -2.12033 -2.80597 0
M  V30 7004 H 665.184 -0.627398 -3.71946 0
M  V30 7005 H 667.571 -0.000315966 -2.951 0
M  V30 7006 H 667.652 -1.52374 -2.05465 0
M  V30 7007 H 667.296 -2.80084 -4.23693 0
M  V30 7008 H 667.226 -1.25229 -5.11493 0
M  V30 7009 H 669.717 -1.28554 -3.55362 0
M  V30 7010 H 670.03 -3.20827 -7.03057 0
M  V30 7011 H 668.375 -2.87896 -6.32567 0
M  V30 7012 H 671.566 -1.67135 -4.37245 0
M  V30 7013 H 671.739 -2.54792 -5.95806 0
M  V30 7014 N 665.145 1.52092 -0.413018 0
M  V30 7015 C 666.561 1.59471 -0.0640836 0
M  V30 7016 C 666.761 1.42562 1.42402 0
M  V30 7017 O 665.817 1.25453 2.19129 0
M  V30 7018 C 667.13 2.95392 -0.562474 0
M  V30 7019 C 668.678 3.08637 -0.520788 0
M  V30 7020 C 669.153 4.47044 -0.995752 0
M  V30 7021 N 670.644 4.53296 -0.952732 0
M  V30 7022 C 671.379 5.58669 -1.29138 0
M  V30 7023 N 670.875 6.71576 -1.70168 0
M  V30 7024 N 672.668 5.48898 -1.2111 0
M  V30 7025 H 664.819 1.6133 -1.38153 0
M  V30 7026 H 667.082 0.75916 -0.567785 0
M  V30 7027 H 666.788 3.13059 -1.60271 0
M  V30 7028 H 666.662 3.77191 0.0257875 0
M  V30 7029 H 669.049 2.90652 0.510412 0
M  V30 7030 H 669.13 2.28735 -1.14515 0
M  V30 7031 H 668.774 4.65773 -2.0253 0
M  V30 7032 H 668.704 5.25448 -0.348162 0
M  V30 7033 H 671.195 3.72248 -0.651119 0
M  V30 7034 H 671.508 7.47973 -1.9431 0
M  V30 7035 H 669.853 6.72847 -1.74075 0
M  V30 7036 H 673.044 4.59573 -0.889396 0
M  V30 7037 H 673.217 6.30912 -1.47833 0
M  V30 7038 N 666.623 0.143563 1.56945 0
M  V30 7039 C 668.039 -0.212877 1.58174 0
M  V30 7040 C 668.239 -1.64926 1.15766 0
M  V30 7041 O 667.295 -2.37535 0.856361 0
M  V30 7042 C 668.608 0.0427573 3.0067 0
M  V30 7043 C 670.156 -0.0212221 3.12993 0
M  V30 7044 C 670.631 0.207036 4.57532 0
M  V30 7045 N 672.122 0.153845 4.62944 0
M  V30 7046 C 672.857 0.305018 5.72588 0
M  V30 7047 N 672.353 0.513722 6.90893 0
M  V30 7048 N 674.146 0.242862 5.61575 0
M  V30 7049 H 666.297 1.08148 1.82805 0
M  V30 7050 H 668.56 0.427831 0.84597 0
M  V30 7051 H 668.266 1.03672 3.36073 0
M  V30 7052 H 668.14 -0.678195 3.71053 0
M  V30 7053 H 670.527 -1.00574 2.77433 0
M  V30 7054 H 670.608 0.732004 2.45103 0
M  V30 7055 H 670.252 1.18863 4.93795 0
M  V30 7056 H 670.182 -0.566473 5.23544 0
M  V30 7057 H 672.673 -0.00294866 3.779 0
M  V30 7058 H 672.986 0.619273 7.70315 0
M  V30 7059 H 671.331 0.550001 6.9282 0
M  V30 7060 H 674.522 0.0806015 4.68031 0
M  V30 7061 H 674.695 0.364112 6.46976 0
M  V30 7062 N 668.101 -1.57061 -0.130224 0
M  V30 7063 C 669.031 -2.02552 -1.16168 0
M  V30 7064 C 670.012 -0.907971 -1.4384 0
M  V30 7065 O 671.197 -1.17693 -1.54473 0
M  V30 7066 C 668.327 -2.42035 -2.49071 0
M  V30 7067 C 667.281 -3.5713 -2.35886 0
M  V30 7068 C 666.607 -3.82478 -3.7365 0
M  V30 7069 C 667.907 -4.89236 -1.8288 0
M  V30 7070 H 669.601 -2.8897 -0.783359 0
M  V30 7071 H 667.147 -1.39021 -0.375376 0
M  V30 7072 H 669.1 -2.72462 -3.21469 0
M  V30 7073 H 667.824 -1.52573 -2.88771 0
M  V30 7074 H 666.483 -3.26895 -1.65938 0
M  V30 7075 H 666.131 -2.9024 -4.10816 0
M  V30 7076 H 665.831 -4.59944 -3.65685 0
M  V30 7077 H 667.355 -4.15347 -4.47571 0
M  V30 7078 H 668.769 -5.18272 -2.45085 0
M  V30 7079 H 667.166 -5.70624 -1.85763 0
M  V30 7080 H 668.236 -4.78494 -0.785571 0
M  V30 7081 N 669.579 0.400081 -1.52437 0
M  V30 7082 C 670.526 1.48803 -1.76426 0
M  V30 7083 C 671.496 1.5461 -0.607032 0
M  V30 7084 O 672.681 1.71041 -0.845563 0
M  V30 7085 C 669.821 2.86156 -1.92896 0
M  V30 7086 C 668.934 2.89587 -3.20567 0
M  V30 7087 C 668.069 4.18296 -3.27417 0
M  V30 7088 C 667.108 4.15736 -4.49255 0
M  V30 7089 N 666.245 5.36032 -4.53447 0
M  V30 7090 H 671.085 1.27649 -2.69276 0
M  V30 7091 H 668.622 0.619451 -1.33421 0
M  V30 7092 H 670.58 3.65901 -2.00429 0
M  V30 7093 H 669.21 3.05785 -1.03418 0
M  V30 7094 H 668.262 2.02278 -3.22161 0
M  V30 7095 H 669.574 2.83562 -4.10358 0
M  V30 7096 H 668.728 5.06439 -3.34072 0
M  V30 7097 H 667.467 4.27028 -2.35581 0
M  V30 7098 H 666.472 3.25982 -4.42737 0
M  V30 7099 H 667.697 4.08636 -5.42396 0
M  V30 7100 H 665.643 5.45415 -3.64498 0
M  V30 7101 H 665.56 5.32038 -5.37096 0
M  V30 7102 H 666.828 6.26104 -4.64343 0
M  V30 7103 N 671.057 1.43213 0.657864 0
M  V30 7104 C 671.967 1.50448 1.80007 0
M  V30 7105 C 672.983 0.39191 1.69529 0
M  V30 7106 O 674.159 0.645349 1.90781 0
M  V30 7107 C 671.224 1.42062 3.16258 0
M  V30 7108 C 670.285 2.63951 3.38568 0
M  V30 7109 C 669.518 2.55956 4.68318 0
M  V30 7110 O 669.741 1.60473 5.47361 0
M  V30 7111 O 668.675 3.46378 4.92245 0
M  V30 7112 H 672.501 2.4689 1.76858 0
M  V30 7113 H 670.086 1.25163 0.81576 0
M  V30 7114 H 671.968 1.3981 3.97531 0
M  V30 7115 H 670.643 0.487524 3.20008 0
M  V30 7116 H 669.55 2.71776 2.57077 0
M  V30 7117 H 670.883 3.56217 3.39662 0
M  V30 7118 N 672.536 -0.895792 1.29666 0
M  V30 7119 C 673.469 -2.00238 1.09453 0
M  V30 7120 C 674.447 -1.62599 0.00527044 0
M  V30 7121 O 675.631 -1.87847 0.156729 0
M  V30 7122 C 672.758 -3.32066 0.667054 0
M  V30 7123 C 671.804 -3.88691 1.7556 0
M  V30 7124 S 672.637 -4.17317 3.35569 0
M  V30 7125 C 673.793 -5.52181 2.94698 0
M  V30 7126 H 674.026 -2.17076 2.03138 0
M  V30 7127 H 671.559 -1.04287 1.13858 0
M  V30 7128 H 673.517 -4.08272 0.427136 0
M  V30 7129 H 672.178 -3.13101 -0.250256 0
M  V30 7130 H 671.371 -4.83918 1.40853 0
M  V30 7131 H 670.973 -3.19187 1.94924 0
M  V30 7132 H 673.265 -6.3281 2.41986 0
M  V30 7133 H 674.208 -5.91817 3.88791 0
M  V30 7134 H 674.616 -5.14225 2.32879 0
M  V30 7135 N 674.014 -1.12206 -1.10668 0
M  V30 7136 C 675.262 -0.874144 -1.82217 0
M  V30 7137 C 675.583 0.601736 -1.85484 0
M  V30 7138 O 674.853 1.43725 -1.33116 0
M  V30 7139 H 673.433 -0.320404 -0.674797 0
M  V30 7140 H 676.095 -1.41606 -1.33917 0
M  V30 7141 H 675.191 -1.25349 -2.85822 0
M  V30 7142 N 675.492 1.28418 -0.913599 0
M  V30 7143 C 676.739 1.94981 -0.546674 0
M  V30 7144 C 677.067 1.7192 0.909606 0
M  V30 7145 O 676.322 1.03314 1.66207 0
M  V30 7146 C 676.621 3.48283 -0.802099 0
M  V30 7147 C 676.287 3.91444 -2.2379 0
M  V30 7148 C 674.949 4.02939 -2.63046 0
M  V30 7149 C 677.301 4.13542 -3.17227 0
M  V30 7150 C 674.629 4.3391 -3.94891 0
M  V30 7151 C 676.981 4.45992 -4.48636 0
M  V30 7152 C 675.645 4.55698 -4.87746 0
M  V30 7153 H 674.915 0.713487 -0.200042 0
M  V30 7154 H 677.562 1.52756 -1.15489 0
M  V30 7155 H 675.867 3.91643 -0.111076 0
M  V30 7156 H 677.564 3.97903 -0.497375 0
M  V30 7157 H 674.154 3.83024 -1.9233 0
M  V30 7158 H 678.338 4.04114 -2.88107 0
M  V30 7159 H 673.594 4.39631 -4.24894 0
M  V30 7160 H 677.768 4.62038 -5.21051 0
M  V30 7161 H 675.395 4.79451 -5.89942 0
M  V30 7162 N 676.97 0.677563 1.42291 0
M  V30 7163 C 678.219 0.198173 2.00724 0
M  V30 7164 C 678.532 -1.20325 1.54211 0
M  V30 7165 O 679.738 -1.77916 2.05081 0
M  V30 7166 C 678.194 0.303432 3.58619 0
M  V30 7167 C 677.802 1.70909 4.14119 0
M  V30 7168 C 679.546 -0.117103 4.24338 0
M  V30 7169 C 677.453 1.76696 5.64387 0
M  V30 7170 H 676.383 0.070329 0.750713 0
M  V30 7171 H 679.034 0.843147 1.62982 0
M  V30 7172 H 677.416 -0.409482 3.93877 0
M  V30 7173 H 678.59 2.44931 3.90315 0
M  V30 7174 H 676.905 2.07771 3.6086 0
M  V30 7175 H 679.502 -0.0940471 5.34617 0
M  V30 7176 H 679.845 -1.15283 4.00019 0
M  V30 7177 H 680.378 0.5449 3.9405 0
M  V30 7178 H 677.117 2.7826 5.93508 0
M  V30 7179 H 676.637 1.07034 5.90173 0
M  V30 7180 H 678.316 1.52166 6.28852 0
M  V30 7181 N 678.448 -1.51871 0.421078 0
M  V30 7182 C 679.697 -2.01125 -0.152206 0
M  V30 7183 C 680.01 -1.3106 -1.45199 0
M  V30 7184 O 681.216 -1.71195 -2.10724 0
M  V30 7185 C 679.672 -3.58458 -0.3218 0
M  V30 7186 C 679.28 -4.37448 0.96659 0
M  V30 7187 C 681.024 -4.15908 -0.84973 0
M  V30 7188 C 678.931 -5.86451 0.763529 0
M  V30 7189 H 677.861 -0.751556 -0.0606565 0
M  V30 7190 H 680.512 -1.75115 0.548354 0
M  V30 7191 H 678.894 -3.80847 -1.08498 0
M  V30 7192 H 680.068 -4.26814 1.73684 0
M  V30 7193 H 678.383 -3.91373 1.42183 0
M  V30 7194 H 680.98 -5.24922 -1.01788 0
M  V30 7195 H 681.323 -3.74031 -1.82774 0
M  V30 7196 H 681.856 -3.97535 -0.145297 0
M  V30 7197 H 678.595 -6.3271 1.71344 0
M  V30 7198 H 678.115 -5.99791 0.0327889 0
M  V30 7199 H 679.794 -6.45697 0.410354 0
M  V30 7200 N 679.926 -0.151884 -1.56866 0
M  V30 7201 C 681.156 0.504081 -2.00356 0
M  V30 7202 C 681.564 1.58639 -1.03103 0
M  V30 7203 O 680.907 1.83688 -0.0207931 0
M  V30 7204 C 680.969 1.15975 -3.40279 0
M  V30 7205 C 680.633 0.221453 -4.56463 0
M  V30 7206 C 681.63 -0.552766 -5.16953 0
M  V30 7207 C 679.315 0.122936 -5.0215 0
M  V30 7208 C 681.309 -1.4129 -6.21543 0
M  V30 7209 C 678.996 -0.740801 -6.06593 0
M  V30 7210 C 679.994 -1.50732 -6.6616 0
M  V30 7211 O 679.682 -2.35666 -7.68581 0
M  V30 7212 H 679.414 0.135279 -0.662326 0
M  V30 7213 H 681.968 -0.244916 -2.03935 0
M  V30 7214 H 680.198 1.95649 -3.33554 0
M  V30 7215 H 681.887 1.71594 -3.67846 0
M  V30 7216 H 682.653 -0.486716 -4.82552 0
M  V30 7217 H 678.532 0.70931 -4.5551 0
M  V30 7218 H 682.076 -2.01166 -6.67966 0
M  V30 7219 H 677.973 -0.808125 -6.40421 0
M  V30 7220 H 678.741 -2.28967 -7.85822 0
M  V30 7221 N 681.404 1.57128 0.121893 0
M  V30 7222 C 682.652 1.84335 0.828548 0
M  V30 7223 C 682.973 0.736632 1.80551 0
M  V30 7224 O 682.243 -0.23962 1.94429 0
M  V30 7225 H 680.823 0.680108 0.30897 0
M  V30 7226 H 683.485 1.9459 0.109906 0
M  V30 7227 H 682.581 2.80152 1.37554 0
M  V30 7228 N 682.882 -0.391992 1.52647 0
M  V30 7229 C 683.83 -1.4991 1.77848 0
M  V30 7230 C 684.824 -1.56587 0.646282 0
M  V30 7231 O 686.03 -1.59789 0.828698 0
M  V30 7232 H 682.405 -0.498883 0.56269 0
M  V30 7233 H 684.376 -1.25847 2.70564 0
M  V30 7234 C 683.125 -2.87081 1.96163 0
M  V30 7235 H 682.448 -2.82692 2.82711 0
M  V30 7236 H 683.888 -3.63792 2.17787 0
M  V30 7237 C 682.347 -3.28822 0.733348 0
M  V30 7238 O 682.877 -4.01598 -0.0906481 0
M  V30 7239 N 681.083 -2.85068 0.564317 0
M  V30 7240 H 680.63 -2.26012 1.23598 0
M  V30 7241 H 680.588 -3.13355 -0.256166 0
M  V30 7242 N 684.36 -1.4356 -0.65026 0
M  V30 7243 C 685.27 -1.514 -1.79207 0
M  V30 7244 C 686.286 -0.400895 -1.69319 0
M  V30 7245 O 687.462 -0.655458 -1.90436 0
M  V30 7246 C 684.527 -1.43737 -3.155 0
M  V30 7247 C 683.588 -2.65743 -3.37163 0
M  V30 7248 C 682.821 -2.58436 -4.66954 0
M  V30 7249 O 683.044 -1.63374 -5.46503 0
M  V30 7250 O 681.978 -3.48984 -4.90402 0
M  V30 7251 H 685.804 -2.47825 -1.75547 0
M  V30 7252 H 683.389 -1.25594 -0.809111 0
M  V30 7253 H 685.271 -1.41916 -3.96784 0
M  V30 7254 H 683.946 -0.504488 -3.19745 0
M  V30 7255 H 682.853 -2.73136 -2.55632 0
M  V30 7256 H 684.186 -3.58014 -3.37768 0
M  V30 7257 N 685.838 0.888903 -1.30139 0
M  V30 7258 C 687.115 1.62145 -1.094 0
M  V30 7259 C 687.495 2.08041 0.358091 0
M  V30 7260 O 686.843 1.84438 1.34888 0
M  V30 7261 C 687.053 2.794 -2.09133 0
M  V30 7262 C 688.401 3.49826 -2.40638 0
M  V30 7263 O 689.425 2.89583 -2.07412 0
M  V30 7264 O 688.284 4.58457 -2.97455 0
M  V30 7265 H 685.378 0.712475 -0.41989 0
M  V30 7266 H 687.924 0.936023 -1.41551 0
M  V30 7267 H 686.696 2.42762 -3.06891 0
M  V30 7268 H 686.319 3.55643 -1.77776 0
M  V30 7269 N 687.317 1.12792 1.10072 0
M  V30 7270 C 688.542 0.908838 1.86427 0
M  V30 7271 C 688.967 -0.536793 1.80278 0
M  V30 7272 O 688.325 -1.38033 1.17543 0
M  V30 7273 C 688.373 1.39295 3.3261 0
M  V30 7274 O 687.477 0.573846 4.08388 0
M  V30 7275 H 686.818 0.326234 0.578331 0
M  V30 7276 H 689.348 1.50094 1.39043 0
M  V30 7277 H 689.358 1.39366 3.83459 0
M  V30 7278 H 688.033 2.44555 3.36401 0
M  V30 7279 H 686.61 0.640438 3.67359 0
M  V30 7280 N 688.795 -1.27931 0.920396 0
M  V30 7281 C 690.206 -1.76707 0.602616 0
M  V30 7282 C 690.557 -1.75249 -0.882159 0
M  V30 7283 O 689.682 -1.35135 -1.69019 0
M  V30 7284 C 690.277 -3.20884 1.08714 0
M  V30 7285 C 688.836 -3.67356 0.820157 0
M  V30 7286 C 687.983 -2.47525 1.25006 0
M  V30 7287 H 690.934 -1.14301 1.10095 0
M  V30 7288 H 690.955 -3.78045 0.431535 0
M  V30 7289 H 690.467 -3.21913 2.1678 0
M  V30 7290 H 688.568 -3.7178 -0.247012 0
M  V30 7291 H 688.681 -4.57181 1.43257 0
M  V30 7292 H 687.045 -2.45765 0.668698 0
M  V30 7293 H 687.828 -2.51269 2.3392 0
M  V30 7294 N 690.273 -0.685099 -1.4193 0
M  V30 7295 C 691.519 -0.211971 -2.01689 0
M  V30 7296 C 691.852 1.18189 -1.54094 0
M  V30 7297 O 691.127 1.79559 -0.747572 0
M  V30 7298 C 691.41 -0.258019 -3.59174 0
M  V30 7299 C 691.263 -1.68807 -4.16922 0
M  V30 7300 C 692.582 0.388044 -4.38386 0
M  V30 7301 H 689.701 -0.0784987 -0.732808 0
M  V30 7302 H 692.343 -0.871837 -1.68816 0
M  V30 7303 H 690.493 0.303832 -3.8731 0
M  V30 7304 H 692.165 -2.30296 -3.99702 0
M  V30 7305 H 690.408 -2.22553 -3.72361 0
M  V30 7306 H 691.079 -1.6719 -5.26072 0
M  V30 7307 H 693.555 -0.0903432 -4.16002 0
M  V30 7308 H 692.431 0.325232 -5.47936 0
M  V30 7309 H 692.692 1.4672 -4.17044 0
M  V30 7310 N 691.751 1.51645 -0.429126 0
M  V30 7311 C 692.997 2.02314 0.140286 0
M  V30 7312 C 693.33 1.31314 1.43074 0
M  V30 7313 O 692.605 0.425531 1.89788 0
M  V30 7314 C 692.888 3.5822 0.36749 0
M  V30 7315 C 692.741 4.39846 -0.941039 0
M  V30 7316 C 694.06 4.25055 1.14089 0
M  V30 7317 H 691.179 0.735335 0.0495112 0
M  V30 7318 H 693.821 1.81358 -0.566514 0
M  V30 7319 H 691.971 3.76207 0.969556 0
M  V30 7320 H 693.643 4.33527 -1.57646 0
M  V30 7321 H 691.886 4.05259 -1.54751 0
M  V30 7322 H 692.557 5.47069 -0.73621 0
M  V30 7323 H 695.033 4.11288 0.630986 0
M  V30 7324 H 693.909 5.34038 1.26863 0
M  V30 7325 H 694.17 3.85358 2.16683 0
M  V30 7326 N 693.229 0.160201 1.56784 0
M  V30 7327 C 694.64 -0.358417 1.83227 0
M  V30 7328 C 694.991 -1.63831 1.07952 0
M  V30 7329 O 694.116 -2.13885 0.328995 0
M  V30 7330 C 694.711 -0.657058 3.32368 0
M  V30 7331 C 693.27 -1.12015 3.59346 0
M  V30 7332 C 692.417 -0.15015 2.76893 0
M  V30 7333 H 695.368 0.384669 1.53967 0
M  V30 7334 H 695.389 -1.51033 3.49241 0
M  V30 7335 H 694.901 0.274647 3.87127 0
M  V30 7336 H 693.002 -2.06734 3.09987 0
M  V30 7337 H 693.115 -1.037 4.67743 0
M  V30 7338 H 691.479 -0.645361 2.46388 0
M  V30 7339 H 692.262 0.775379 3.34429 0
M  V30 7340 N 694.707 -1.5719 -0.113559 0
M  V30 7341 C 695.637 -2.03772 -1.14013 0
M  V30 7342 C 696.618 -0.923176 -1.42869 0
M  V30 7343 O 697.803 -1.19325 -1.53216 0
M  V30 7344 C 694.933 -2.44663 -2.4649 0
M  V30 7345 C 693.887 -3.59612 -2.32085 0
M  V30 7346 C 693.213 -3.8642 -3.69573 0
M  V30 7347 C 694.513 -4.91149 -1.7768 0
M  V30 7348 H 696.207 -2.89785 -0.752665 0
M  V30 7349 H 693.753 -1.39412 -0.360609 0
M  V30 7350 H 695.706 -2.75857 -3.18561 0
M  V30 7351 H 694.43 -1.55628 -2.87137 0
M  V30 7352 H 693.089 -3.28636 -1.62461 0
M  V30 7353 H 692.737 -2.94581 -4.07715 0
M  V30 7354 H 692.437 -4.63797 -3.60786 0
M  V30 7355 H 693.961 -4.2007 -4.4314 0
M  V30 7356 H 695.375 -5.20843 -2.39574 0
M  V30 7357 H 693.772 -5.72562 -1.79701 0
M  V30 7358 H 694.842 -4.79301 -0.734776 0
M  V30 7359 N 696.185 0.383891 -1.52853 0
M  V30 7360 C 697.118 1.49105 -1.72751 0
M  V30 7361 C 698.096 1.52077 -0.575438 0
M  V30 7362 O 699.28 1.70406 -0.805854 0
M  V30 7363 C 696.407 2.87551 -1.78975 0
M  V30 7364 C 695.453 3.02383 -3.00777 0
M  V30 7365 S 696.286 2.73048 -4.60657 0
M  V30 7366 C 697.442 4.13678 -4.69704 0
M  V30 7367 H 697.675 1.32002 -2.66388 0
M  V30 7368 H 695.208 0.577088 -1.4321 0
M  V30 7369 H 697.166 3.6733 -1.83246 0
M  V30 7370 H 695.827 3.01977 -0.864215 0
M  V30 7371 H 695.02 4.03733 -3.01688 0
M  V30 7372 H 694.622 2.30504 -2.94523 0
M  V30 7373 H 696.914 5.07676 -4.48633 0
M  V30 7374 H 697.857 4.1778 -5.71721 0
M  V30 7375 H 698.265 3.99825 -3.98497 0
M  V30 7376 N 697.663 1.43903 0.642637 0
M  V30 7377 C 698.593 1.52697 1.76652 0
M  V30 7378 C 699.574 0.380816 1.65782 0
M  V30 7379 O 700.759 0.599432 1.84717 0
M  V30 7380 C 697.889 1.45975 3.15133 0
M  V30 7381 C 696.843 2.58949 3.40778 0
M  V30 7382 C 696.169 2.37279 4.79169 0
M  V30 7383 C 697.469 4.01153 3.34475 0
M  V30 7384 H 699.163 2.46766 1.69549 0
M  V30 7385 H 696.709 1.18767 0.814279 0
M  V30 7386 H 698.662 1.5073 3.93521 0
M  V30 7387 H 697.386 0.484162 3.22991 0
M  V30 7388 H 696.045 2.53564 2.64765 0
M  V30 7389 H 695.693 1.37939 4.83717 0
M  V30 7390 H 695.393 3.13016 4.97287 0
M  V30 7391 H 696.917 2.43834 5.59801 0
M  V30 7392 H 698.331 4.07968 4.02784 0
M  V30 7393 H 696.728 4.77001 3.64129 0
M  V30 7394 H 697.798 4.25539 2.32475 0
M  V30 7395 N 699.141 -0.881989 1.30609 0
M  V30 7396 C 700.371 -1.66469 1.22359 0
M  V30 7397 C 700.779 -1.87969 -0.215507 0
M  V30 7398 O 700.122 -1.42938 -1.15388 0
M  V30 7399 C 700.184 -3.06135 1.88472 0
M  V30 7400 C 699.848 -3.07795 3.37804 0
M  V30 7401 C 700.845 -2.86633 4.33749 0
M  V30 7402 C 698.53 -3.29297 3.793 0
M  V30 7403 C 700.524 -2.86934 5.69164 0
M  V30 7404 C 698.211 -3.29228 5.14832 0
M  V30 7405 C 699.209 -3.08071 6.09574 0
M  V30 7406 O 698.897 -3.07824 7.4263 0
M  V30 7407 H 698.629 -0.526129 0.424458 0
M  V30 7408 H 701.183 -1.11004 1.72821 0
M  V30 7409 H 699.413 -3.63276 1.32543 0
M  V30 7410 H 701.102 -3.66571 1.74301 0
M  V30 7411 H 701.868 -2.69814 4.0302 0
M  V30 7412 H 697.747 -3.44799 3.05998 0
M  V30 7413 H 701.291 -2.70339 6.43088 0
M  V30 7414 H 697.188 -3.45583 5.452 0
M  V30 7415 H 697.956 -3.2397 7.51656 0
M  V30 7416 N 700.619 -1.13374 -1.09472 0
M  V30 7417 C 701.552 -0.754354 -2.15371 0
M  V30 7418 C 702.53 0.259205 -1.60521 0
M  V30 7419 O 703.714 0.150819 -1.87896 0
M  V30 7420 C 700.841 -0.118197 -3.38494 0
M  V30 7421 C 699.887 -1.10017 -4.12066 0
M  V30 7422 S 700.72 -2.63242 -4.6633 0
M  V30 7423 C 701.876 -2.00984 -5.92753 0
M  V30 7424 H 702.109 -1.65135 -2.4722 0
M  V30 7425 H 699.642 -0.953838 -1.21414 0
M  V30 7426 H 701.6 0.242447 -4.09783 0
M  V30 7427 H 700.261 0.756065 -3.04865 0
M  V30 7428 H 699.454 -0.60287 -5.00381 0
M  V30 7429 H 699.056 -1.40426 -3.46636 0
M  V30 7430 H 701.348 -1.35863 -6.63738 0
M  V30 7431 H 702.291 -2.8738 -6.47162 0
M  V30 7432 H 702.699 -1.46161 -5.4525 0
M  V30 7433 N 702.098 1.27442 -0.927168 0
M  V30 7434 C 703.509 1.76385 -0.611979 0
M  V30 7435 C 703.86 1.75715 0.872853 0
M  V30 7436 O 702.985 1.3603 1.683 0
M  V30 7437 C 703.58 3.20303 -1.10414 0
M  V30 7438 C 702.139 3.66916 -0.839628 0
M  V30 7439 C 701.286 2.46859 -1.26317 0
M  V30 7440 H 704.237 1.13716 -1.107 0
M  V30 7441 H 704.258 3.77811 -0.451578 0
M  V30 7442 H 703.77 3.20759 -2.18484 0
M  V30 7443 H 701.871 3.71906 0.227292 0
M  V30 7444 H 701.984 4.56415 -1.45679 0
M  V30 7445 H 700.348 2.45407 -0.681723 0
M  V30 7446 H 701.131 2.50025 -2.3525 0
M  V30 7447 N 703.576 0.692616 1.41565 0
M  V30 7448 C 704.539 0.0344174 2.29174 0
M  V30 7449 C 705.539 -0.710961 1.44229 0
M  V30 7450 O 706.729 -0.546293 1.65412 0
M  V30 7451 C 703.861 -0.961682 3.27054 0
M  V30 7452 H 705.054 0.805755 2.88873 0
M  V30 7453 H 702.607 0.455947 1.49502 0
M  V30 7454 H 703.342 -1.76089 2.72329 0
M  V30 7455 H 703.127 -0.430375 3.89731 0
M  V30 7456 H 704.617 -1.4201 3.92712 0
M  V30 7457 N 705.054 -1.51416 0.437162 0
M  V30 7458 C 706.001 -2.27743 -0.374374 0
M  V30 7459 C 706.971 -1.31327 -1.01698 0
M  V30 7460 O 708.156 -1.60229 -1.03592 0
M  V30 7461 C 705.296 -3.12241 -1.46969 0
M  V30 7462 C 704.409 -4.23651 -0.845236 0
M  V30 7463 C 703.544 -4.95458 -1.91559 0
M  V30 7464 C 702.583 -5.98789 -1.26956 0
M  V30 7465 N 701.72 -6.64005 -2.28126 0
M  V30 7466 H 706.56 -2.96654 0.282892 0
M  V30 7467 H 704.097 -1.46319 0.151352 0
M  V30 7468 H 706.055 -3.59556 -2.11602 0
M  V30 7469 H 704.685 -2.45445 -2.09659 0
M  V30 7470 H 703.737 -3.803 -0.0872059 0
M  V30 7471 H 705.049 -4.97683 -0.333582 0
M  V30 7472 H 704.203 -5.46321 -2.63854 0
M  V30 7473 H 702.942 -4.21055 -2.46097 0
M  V30 7474 H 701.947 -5.47219 -0.53207 0
M  V30 7475 H 703.172 -6.75149 -0.731509 0
M  V30 7476 H 701.118 -5.92415 -2.81745 0
M  V30 7477 H 701.035 -7.33802 -1.81852 0
M  V30 7478 H 702.303 -7.19498 -2.99905 0
M  V30 7479 N 706.532 -0.168513 -1.56696 0
M  V30 7480 C 707.781 0.477233 -1.95973 0
M  V30 7481 C 708.094 1.64578 -1.05704 0
M  V30 7482 O 709.3 2.35758 -1.3465 0
M  V30 7483 C 707.756 0.900413 -3.48455 0
M  V30 7484 C 707.364 -0.242382 -4.47344 0
M  V30 7485 C 709.108 1.51474 -3.96555 0
M  V30 7486 C 707.015 0.200272 -5.91061 0
M  V30 7487 H 705.945 0.182061 -0.73169 0
M  V30 7488 H 708.596 -0.256297 -1.81701 0
M  V30 7489 H 706.978 1.68984 -3.58135 0
M  V30 7490 H 708.152 -1.01967 -4.49377 0
M  V30 7491 H 706.467 -0.766484 -4.09285 0
M  V30 7492 H 709.064 1.85792 -5.01384 0
M  V30 7493 H 709.407 2.41163 -3.39332 0
M  V30 7494 H 709.94 0.789802 -3.89881 0
M  V30 7495 H 706.679 -0.661775 -6.52151 0
M  V30 7496 H 706.199 0.942979 -5.92341 0
M  V30 7497 H 707.878 0.645088 -6.43776 0
M  V30 7498 N 708.01 1.57248 0.105221 0
M  V30 7499 C 709.258 1.85204 0.808951 0
M  V30 7500 C 709.579 0.75574 1.7976 0
M  V30 7501 O 708.849 -0.218984 1.94672 0
M  V30 7502 H 707.429 0.683346 0.301739 0
M  V30 7503 H 710.091 1.94695 0.0892605 0
M  V30 7504 H 709.187 2.81595 1.34575 0
M  V30 7505 N 709.488 -0.375779 1.53054 0
M  V30 7506 C 710.451 -1.44254 1.7811 0
M  V30 7507 C 711.451 -1.47018 0.651328 0
M  V30 7508 O 712.641 -1.47957 0.919472 0
M  V30 7509 C 709.773 -2.8345 1.89391 0
M  V30 7510 H 710.966 -1.23316 2.73374 0
M  V30 7511 H 708.519 -0.608312 1.43977 0
M  V30 7512 H 709.254 -3.09716 0.961589 0
M  V30 7513 H 709.039 -2.82844 2.71555 0
M  V30 7514 H 710.529 -3.60722 2.10404 0
M  V30 7515 N 710.966 -1.44241 -0.634997 0
M  V30 7516 C 712.213 -1.46821 -1.39463 0
M  V30 7517 C 712.541 -0.0993362 -1.94246 0
M  V30 7518 O 711.796 0.898325 -1.73864 0
M  V30 7519 C 712.095 -2.47279 -2.58046 0
M  V30 7520 C 711.761 -3.92703 -2.21574 0
M  V30 7521 C 710.423 -4.32306 -2.1134 0
M  V30 7522 C 712.775 -4.84271 -1.92695 0
M  V30 7523 C 710.103 -5.61407 -1.70409 0
M  V30 7524 C 712.455 -6.13755 -1.53258 0
M  V30 7525 C 711.119 -6.52316 -1.41562 0
M  V30 7526 H 710.389 -0.537256 -0.51033 0
M  V30 7527 H 713.036 -1.77431 -0.720441 0
M  V30 7528 H 711.341 -2.10138 -3.3068 0
M  V30 7529 H 713.038 -2.46523 -3.16271 0
M  V30 7530 H 709.628 -3.61369 -2.30456 0
M  V30 7531 H 713.812 -4.54432 -1.99513 0
M  V30 7532 H 709.068 -5.90105 -1.59955 0
M  V30 7533 H 713.242 -6.84168 -1.29949 0
M  V30 7534 H 710.869 -7.52255 -1.09619 0
M  V30 7535 N 712.444 0.87505 -1.31075 0
M  V30 7536 C 713.692 1.62447 -1.20231 0
M  V30 7537 C 714.013 1.93506 0.240888 0
M  V30 7538 O 713.283 1.57847 1.16022 0
M  V30 7539 H 711.863 0.602207 -0.441991 0
M  V30 7540 H 714.525 1.04788 -1.64334 0
M  V30 7541 H 713.621 2.57031 -1.77036 0
M  V30 7542 N 713.922 1.13953 1.08869 0
M  V30 7543 C 715.338 0.878924 1.33218 0
M  V30 7544 C 715.538 -0.482478 1.95638 0
M  V30 7545 O 714.594 -1.22778 2.2064 0
M  V30 7546 C 715.907 2.00798 2.23832 0
M  V30 7547 C 717.455 2.04073 2.37325 0
M  V30 7548 C 717.93 3.16258 3.31278 0
M  V30 7549 N 719.421 3.15805 3.38853 0
M  V30 7550 C 720.156 3.99249 4.11567 0
M  V30 7551 N 719.652 4.92721 4.87029 0
M  V30 7552 N 721.445 3.87327 4.0735 0
M  V30 7553 H 713.596 2.01645 0.66731 0
M  V30 7554 H 715.859 0.878395 0.356547 0
M  V30 7555 H 715.565 2.98986 1.85203 0
M  V30 7556 H 715.439 1.92704 3.24261 0
M  V30 7557 H 717.826 1.06495 2.75214 0
M  V30 7558 H 717.907 2.16239 1.36654 0
M  V30 7559 H 717.551 4.14079 2.9411 0
M  V30 7560 H 717.481 3.0133 4.31866 0
M  V30 7561 H 719.972 2.48102 2.8505 0
M  V30 7562 H 720.285 5.52867 5.39961 0
M  V30 7563 H 718.63 4.96723 4.86098 0
M  V30 7564 H 721.821 3.13627 3.475 0
M  V30 7565 H 721.994 4.52585 4.63757 0
M  V30 7566 N 715.4 -1.26948 0.933913 0
M  V30 7567 C 716.31 -2.30366 0.443671 0
M  V30 7568 C 717.326 -1.67284 -0.478745 0
M  V30 7569 O 718.502 -1.98156 -0.360043 0
M  V30 7570 C 715.567 -3.45485 -0.289974 0
M  V30 7571 C 714.628 -4.24069 0.668114 0
M  V30 7572 C 713.861 -5.33691 -0.0306138 0
M  V30 7573 O 714.084 -5.5656 -1.24888 0
M  V30 7574 O 713.018 -5.98441 0.644384 0
M  V30 7575 H 716.844 -2.74349 1.30254 0
M  V30 7576 H 714.429 -1.32012 0.699506 0
M  V30 7577 H 716.311 -4.15486 -0.70353 0
M  V30 7578 H 714.986 -3.03546 -1.12435 0
M  V30 7579 H 713.893 -3.56579 1.13147 0
M  V30 7580 H 715.226 -4.69739 1.46989 0
M  V30 7581 N 716.879 -0.700114 -1.41195 0
M  V30 7582 C 717.812 0.0129614 -2.28196 0
M  V30 7583 C 718.79 0.783367 -1.42486 0
M  V30 7584 O 719.974 0.773238 -1.71911 0
M  V30 7585 C 717.101 1.02575 -3.22794 0
M  V30 7586 C 716.147 0.347977 -4.25078 0
M  V30 7587 S 716.98 -0.912938 -5.27661 0
M  V30 7588 C 718.136 0.0981362 -6.25823 0
M  V30 7589 H 718.369 -0.724927 -2.88326 0
M  V30 7590 H 715.902 -0.490554 -1.464 0
M  V30 7591 H 717.86 1.60491 -3.77826 0
M  V30 7592 H 716.521 1.73624 -2.61751 0
M  V30 7593 H 715.714 1.11305 -4.91556 0
M  V30 7594 H 715.316 -0.15823 -3.73665 0
M  V30 7595 H 717.608 0.949965 -6.70807 0
M  V30 7596 H 718.551 -0.532838 -7.06092 0
M  V30 7597 H 718.959 0.454944 -5.62664 0
M  V30 7598 N 718.357 1.51182 -0.445186 0
M  V30 7599 C 719.287 2.30821 0.352686 0
M  V30 7600 C 720.268 1.36576 1.01395 0
M  V30 7601 O 721.453 1.65497 1.01609 0
M  V30 7602 C 718.583 3.15593 1.44976 0
M  V30 7603 C 717.537 4.1818 0.911553 0
M  V30 7604 C 716.863 4.91523 2.10497 0
M  V30 7605 C 718.163 5.22266 -0.059418 0
M  V30 7606 H 719.857 2.97771 -0.311936 0
M  V30 7607 H 717.403 1.43201 -0.151461 0
M  V30 7608 H 719.356 3.70091 2.01521 0
M  V30 7609 H 718.08 2.4648 2.14278 0
M  V30 7610 H 716.739 3.64746 0.368264 0
M  V30 7611 H 716.387 4.18906 2.78437 0
M  V30 7612 H 716.087 5.60898 1.7512 0
M  V30 7613 H 717.611 5.48847 2.6758 0
M  V30 7614 H 719.025 5.71789 0.415985 0
M  V30 7615 H 717.422 5.99213 -0.326152 0
M  V30 7616 H 718.492 4.7461 -0.993631 0
M  V30 7617 N 719.835 0.176821 1.56605 0
M  V30 7618 C 720.782 -0.751312 2.18229 0
M  V30 7619 C 721.752 -1.22297 1.12395 0
M  V30 7620 O 722.937 -1.29015 1.40569 0
M  V30 7621 C 720.077 -1.97291 2.83143 0
M  V30 7622 C 719.19 -1.54431 4.03454 0
M  V30 7623 C 718.325 -2.72 4.56278 0
M  V30 7624 C 717.364 -2.25657 5.68986 0
M  V30 7625 N 716.501 -3.36338 6.16296 0
M  V30 7626 H 721.341 -0.219033 2.97194 0
M  V30 7627 H 718.878 -0.0963803 1.46784 0
M  V30 7628 H 720.836 -2.68949 3.1894 0
M  V30 7629 H 719.466 -2.4788 2.06773 0
M  V30 7630 H 718.518 -0.724273 3.73441 0
M  V30 7631 H 719.83 -1.16417 4.85024 0
M  V30 7632 H 718.984 -3.51806 4.94285 0
M  V30 7633 H 717.723 -3.13277 3.73777 0
M  V30 7634 H 716.728 -1.44299 5.30526 0
M  V30 7635 H 717.953 -1.85432 6.53293 0
M  V30 7636 H 715.899 -3.7718 5.36723 0
M  V30 7637 H 715.816 -3.02435 6.9287 0
M  V30 7638 H 717.084 -4.16413 6.58954 0
M  V30 7639 N 721.313 -1.57302 -0.09688 0
M  V30 7640 C 722.729 -1.53094 -0.451041 0
M  V30 7641 C 722.929 -0.893265 -1.80618 0
M  V30 7642 O 721.985 -0.485013 -2.47798 0
M  V30 7643 C 723.298 -2.9782 -0.415172 0
M  V30 7644 C 724.846 -3.09026 -0.497155 0
M  V30 7645 C 725.321 -4.55356 -0.491452 0
M  V30 7646 N 726.812 -4.59896 -0.552258 0
M  V30 7647 C 727.547 -5.70563 -0.569654 0
M  V30 7648 N 727.043 -6.90666 -0.543365 0
M  V30 7649 N 728.836 -5.58733 -0.614331 0
M  V30 7650 H 720.987 -1.97131 0.790771 0
M  V30 7651 H 723.25 -0.901211 0.294147 0
M  V30 7652 H 722.956 -3.47933 0.513362 0
M  V30 7653 H 722.83 -3.56416 -1.23481 0
M  V30 7654 H 725.217 -2.58902 -1.41611 0
M  V30 7655 H 725.298 -2.53386 0.35059 0
M  V30 7656 H 724.942 -5.06131 0.423549 0
M  V30 7657 H 724.872 -5.08832 -1.35639 0
M  V30 7658 H 727.363 -3.73456 -0.577842 0
M  V30 7659 H 727.676 -7.70769 -0.559873 0
M  V30 7660 H 726.021 -6.93123 -0.510441 0
M  V30 7661 H 729.212 -4.63809 -0.632387 0
M  V30 7662 H 729.385 -6.44984 -0.62442 0
M  V30 7663 N 722.791 0.367657 -1.53252 0
M  V30 7664 C 723.739 1.47061 -1.8021 0
M  V30 7665 C 724.733 1.55539 -0.671112 0
M  V30 7666 O 725.939 1.58451 -0.854014 0
M  V30 7667 H 722.314 0.489868 -0.570555 0
M  V30 7668 H 724.285 1.21527 -2.72532 0
M  V30 7669 C 723.034 2.83924 -2.00706 0
M  V30 7670 H 722.357 2.78158 -2.87172 0
M  V30 7671 H 723.797 3.60281 -2.23547 0
M  V30 7672 C 722.256 3.27613 -0.785568 0
M  V30 7673 O 722.786 4.01691 0.0267459 0
M  V30 7674 N 720.992 2.84134 -0.609597 0
M  V30 7675 H 720.539 2.24017 -1.27178 0
M  V30 7676 H 720.497 3.13723 0.206281 0
M  V30 7677 N 724.269 1.44576 0.627338 0
M  V30 7678 C 725.518 1.46837 1.38281 0
M  V30 7679 C 725.831 0.10635 1.95311 0
M  V30 7680 O 727.037 0.00651084 2.71499 0
M  V30 7681 C 725.493 2.58527 2.50384 0
M  V30 7682 C 725.101 4.00953 1.99851 0
M  V30 7683 C 726.845 2.70013 3.27557 0
M  V30 7684 C 724.752 5.0406 3.09318 0
M  V30 7685 H 723.682 0.546319 0.519664 0
M  V30 7686 H 726.333 1.70654 0.674497 0
M  V30 7687 H 724.715 2.27957 3.23808 0
M  V30 7688 H 725.889 4.41108 1.33267 0
M  V30 7689 H 724.204 3.93743 1.35482 0
M  V30 7690 H 726.801 3.44217 4.09168 0
M  V30 7691 H 727.144 1.75961 3.77284 0
M  V30 7692 H 727.677 3.00011 2.61224 0
M  V30 7693 H 724.416 5.99753 2.6453 0
M  V30 7694 H 723.936 4.68493 3.74532 0
M  V30 7695 H 725.615 5.2793 3.74031 0
M  V30 7696 N 725.747 -0.868086 1.31537 0
M  V30 7697 C 726.995 -1.61807 1.21091 0
M  V30 7698 C 727.316 -1.93631 -0.230623 0
M  V30 7699 O 726.586 -1.5846 -1.15183 0
M  V30 7700 H 725.166 -0.599854 0.445178 0
M  V30 7701 H 727.828 -1.03915 1.64887 0
M  V30 7702 H 726.924 -2.56088 1.78396 0
M  V30 7703 N 727.225 -1.14528 -1.08264 0
M  V30 7704 C 728.471 -0.91576 -1.80947 0
M  V30 7705 C 728.804 0.55623 -1.86064 0
M  V30 7706 O 728.079 1.41207 -1.33756 0
M  V30 7707 C 728.362 -1.51917 -3.26486 0
M  V30 7708 C 728.215 -3.06111 -3.2957 0
M  V30 7709 C 729.534 -1.19724 -4.23502 0
M  V30 7710 H 726.653 -0.334113 -0.656915 0
M  V30 7711 H 729.295 -1.41547 -1.26746 0
M  V30 7712 H 727.445 -1.0942 -3.72773 0
M  V30 7713 H 729.117 -3.57448 -2.91597 0
M  V30 7714 H 727.36 -3.40483 -2.688 0
M  V30 7715 H 728.031 -3.43438 -4.32151 0
M  V30 7716 H 730.507 -1.56467 -3.85561 0
M  V30 7717 H 729.383 -1.64575 -5.23647 0
M  V30 7718 H 729.644 -0.112771 -4.41956 0
M  V30 7719 N 728.703 1.26451 -0.940633 0
M  V30 7720 C 729.949 1.94065 -0.58878 0
M  V30 7721 C 730.282 1.7363 0.869853 0
M  V30 7722 O 729.557 1.073 1.62225 0
M  V30 7723 C 729.84 3.47852 -0.931199 0
M  V30 7724 C 729.693 3.77575 -2.44453 0
M  V30 7725 C 731.012 4.37832 -0.446229 0
M  V30 7726 H 728.131 0.704827 -0.21538 0
M  V30 7727 H 730.773 1.4933 -1.17475 0
M  V30 7728 H 728.923 3.86085 -0.432539 0
M  V30 7729 H 730.595 3.49059 -3.01588 0
M  V30 7730 H 728.838 3.23671 -2.88825 0
M  V30 7731 H 729.509 4.85068 -2.63464 0
M  V30 7732 H 731.985 4.06822 -0.873778 0
M  V30 7733 H 730.861 5.44228 -0.714648 0
M  V30 7734 H 731.122 4.37239 0.653815 0
M  V30 7735 N 730.181 0.707592 1.40822 0
M  V30 7736 C 731.427 0.244031 2.01326 0
M  V30 7737 C 731.76 -1.15722 1.55955 0
M  V30 7738 O 731.035 -1.78347 0.776044 0
M  V30 7739 C 731.318 0.315128 3.58718 0
M  V30 7740 C 731.171 1.75419 4.14184 0
M  V30 7741 C 732.49 -0.318251 4.38948 0
M  V30 7742 H 729.609 0.0901471 0.731466 0
M  V30 7743 H 732.251 0.898584 1.67408 0
M  V30 7744 H 730.401 -0.242176 3.87744 0
M  V30 7745 H 732.073 2.36626 3.95987 0
M  V30 7746 H 730.316 2.28449 3.68773 0
M  V30 7747 H 730.987 1.75538 5.23345 0
M  V30 7748 H 733.463 0.156514 4.15806 0
M  V30 7749 H 732.339 -0.238019 5.48384 0
M  V30 7750 H 732.6 -1.40067 4.19325 0
M  V30 7751 N 731.66 -1.50943 0.453197 0
M  V30 7752 C 732.906 -2.02512 -0.108082 0
M  V30 7753 C 733.239 -1.33574 -1.40967 0
M  V30 7754 O 732.514 -0.455671 -1.89087 0
M  V30 7755 C 732.797 -3.58759 -0.310453 0
M  V30 7756 C 732.65 -4.38293 1.0109 0
M  V30 7757 C 733.969 -4.26816 -1.07313 0
M  V30 7758 H 731.088 -0.73603 -0.0378064 0
M  V30 7759 H 733.73 -1.80433 0.595295 0
M  V30 7760 H 731.88 -3.77702 -0.909582 0
M  V30 7761 H 733.552 -4.30964 1.64523 0
M  V30 7762 H 731.795 -4.02745 1.61179 0
M  V30 7763 H 732.466 -5.45828 0.82315 0
M  V30 7764 H 734.942 -4.1224 -0.565473 0
M  V30 7765 H 733.818 -5.35989 -1.1835 0
M  V30 7766 H 734.079 -3.88757 -2.10525 0
M  V30 7767 N 733.138 -0.185124 -1.56509 0
M  V30 7768 C 734.386 0.455357 -1.96903 0
M  V30 7769 C 734.707 1.62839 -1.07277 0
M  V30 7770 O 733.977 1.95385 -0.141966 0
M  V30 7771 H 732.557 0.171218 -0.727113 0
M  V30 7772 H 735.219 -0.26953 -1.93027 0
M  V30 7773 H 734.315 0.80616 -3.01509 0
M  V30 7774 N 734.616 1.57351 0.0885366 0
M  V30 7775 C 735.863 1.86419 0.790824 0
M  V30 7776 C 736.191 0.774561 1.78412 0
M  V30 7777 O 735.446 -0.23119 1.9433 0
M  V30 7778 C 735.745 3.22098 1.5488 0
M  V30 7779 C 735.411 4.4548 0.697025 0
M  V30 7780 C 734.073 4.78975 0.462237 0
M  V30 7781 C 736.425 5.21094 0.105315 0
M  V30 7782 C 733.753 5.85507 -0.374016 0
M  V30 7783 C 736.105 6.28509 -0.718298 0
M  V30 7784 C 734.769 6.60515 -0.963116 0
M  V30 7785 H 734.039 0.682157 0.289383 0
M  V30 7786 H 736.686 1.91429 0.0520961 0
M  V30 7787 H 734.991 3.12803 2.35927 0
M  V30 7788 H 736.688 3.41819 2.09669 0
M  V30 7789 H 733.278 4.19255 0.890137 0
M  V30 7790 H 737.462 4.95544 0.273856 0
M  V30 7791 H 732.718 6.08713 -0.572606 0
M  V30 7792 H 736.892 6.86268 -1.18362 0
M  V30 7793 H 734.519 7.42893 -1.6129 0
M  V30 7794 N 736.094 -0.359525 1.53444 0
M  V30 7795 C 737.505 -0.936009 1.61542 0
M  V30 7796 C 737.856 -1.90069 0.486633 0
M  V30 7797 O 736.981 -2.12929 -0.386047 0
M  V30 7798 C 737.576 -1.70441 2.92806 0
M  V30 7799 C 736.135 -2.23015 3.03218 0
M  V30 7800 C 735.282 -1.04438 2.56881 0
M  V30 7801 H 738.233 -0.138134 1.58098 0
M  V30 7802 H 738.254 -2.56609 2.80948 0
M  V30 7803 H 737.766 -1.00205 3.74941 0
M  V30 7804 H 735.867 -2.96475 2.25684 0
M  V30 7805 H 735.98 -2.50481 4.08407 0
M  V30 7806 H 734.344 -1.41314 2.11902 0
M  V30 7807 H 735.127 -0.356905 3.4144 0
M  V30 7808 N 737.572 -1.44907 -0.619662 0
M  V30 7809 C 738.535 -1.52282 -1.71297 0
M  V30 7810 C 739.535 -0.40359 -1.55653 0
M  V30 7811 O 740.725 -0.666638 -1.6094 0
M  V30 7812 C 737.857 -1.40778 -3.10474 0
M  V30 7813 H 739.05 -2.49683 -1.66128 0
M  V30 7814 H 736.603 -1.32168 -0.834339 0
M  V30 7815 H 737.338 -0.445156 -3.2123 0
M  V30 7816 H 737.123 -2.21947 -3.23237 0
M  V30 7817 H 738.613 -1.48946 -3.90135 0
M  V30 7818 N 739.05 0.861098 -1.31996 0
M  V30 7819 C 740.278 1.6474 -1.25173 0
M  V30 7820 C 740.693 1.87926 0.181425 0
M  V30 7821 O 740.05 1.4437 1.1164 0
M  V30 7822 C 740.101 3.01036 -2.0015 0
M  V30 7823 O 739.822 2.7888 -3.37872 0
M  V30 7824 C 741.323 3.95481 -2.00273 0
M  V30 7825 H 738.543 0.513314 -0.432146 0
M  V30 7826 H 741.087 1.07419 -1.74016 0
M  V30 7827 H 739.242 3.55021 -1.55046 0
M  V30 7828 H 739.656 3.65514 -3.76165 0
M  V30 7829 H 741.13 4.88403 -2.57229 0
M  V30 7830 H 741.607 4.27957 -0.987407 0
M  V30 7831 H 742.213 3.47433 -2.45296 0
M  V30 7832 N 740.528 1.15101 1.07655 0
M  V30 7833 C 741.939 0.933848 1.61667 0
M  V30 7834 C 742.29 -0.525569 1.8903 0
M  V30 7835 O 741.415 -1.39605 1.65346 0
M  V30 7836 C 742.01 1.68876 2.93711 0
M  V30 7837 C 740.569 1.51697 3.44478 0
M  V30 7838 C 739.716 1.70633 2.18586 0
M  V30 7839 H 742.667 1.30171 0.907816 0
M  V30 7840 H 742.688 1.15645 3.625 0
M  V30 7841 H 742.2 2.7509 2.73764 0
M  V30 7842 H 740.301 0.478635 3.69513 0
M  V30 7843 H 740.414 2.29194 4.20722 0
M  V30 7844 H 738.778 1.13259 2.28132 0
M  V30 7845 H 739.561 2.78206 2.01137 0
M  V30 7846 N 742.006 -1.2595 0.947325 0
M  V30 7847 C 743.255 -1.92759 0.593887 0
M  V30 7848 C 743.568 -1.75083 -0.872093 0
M  V30 7849 O 744.774 -2.36401 -1.33518 0
M  V30 7850 C 743.23 -3.45395 1.01144 0
M  V30 7851 C 742.838 -3.71795 2.49946 0
M  V30 7852 C 744.582 -4.18173 0.730185 0
M  V30 7853 C 742.489 -5.17901 2.85539 0
M  V30 7854 H 741.419 -0.721676 0.218403 0
M  V30 7855 H 744.07 -1.4293 1.15079 0
M  V30 7856 H 742.452 -3.94143 0.383007 0
M  V30 7857 H 743.626 -3.33728 3.17746 0
M  V30 7858 H 741.941 -3.12263 2.75465 0
M  V30 7859 H 744.538 -5.25784 0.972367 0
M  V30 7860 H 744.881 -4.14964 -0.333223 0
M  V30 7861 H 745.414 -3.75309 1.31862 0
M  V30 7862 H 742.153 -5.26216 3.90867 0
M  V30 7863 H 741.673 -5.57042 2.22406 0
M  V30 7864 H 743.352 -5.8596 2.74336 0
M  V30 7865 N 743.484 -0.715051 -1.40445 0
M  V30 7866 C 744.733 -0.251322 -2.00128 0
M  V30 7867 C 745.046 1.16194 -1.57347 0
M  V30 7868 O 746.252 1.72416 -2.09726 0
M  V30 7869 C 744.708 -0.398407 -3.57688 0
M  V30 7870 C 744.316 -1.81828 -4.09442 0
M  V30 7871 C 746.06 0.00455625 -4.245 0
M  V30 7872 C 743.967 -1.91598 -5.59503 0
M  V30 7873 H 742.897 -0.0902081 -0.748584 0
M  V30 7874 H 745.548 -0.886062 -1.6069 0
M  V30 7875 H 743.93 0.304908 -3.94824 0
M  V30 7876 H 745.104 -2.55193 -3.83684 0
M  V30 7877 H 743.419 -2.17266 -3.55225 0
M  V30 7878 H 746.016 -0.0477303 -5.34679 0
M  V30 7879 H 746.359 1.04636 -4.02935 0
M  V30 7880 H 746.892 -0.649184 -3.92467 0
M  V30 7881 H 743.631 -2.93898 -5.85922 0
M  V30 7882 H 743.151 -1.22644 -5.87127 0
M  V30 7883 H 744.83 -1.68785 -6.24596 0
M  V30 7884 N 744.962 1.50701 -0.461195 0
M  V30 7885 C 745.872 2.32069 0.343661 0
M  V30 7886 C 746.888 1.42016 1.00535 0
M  V30 7887 O 748.064 1.75077 0.995498 0
M  V30 7888 C 745.129 3.16424 1.41692 0
M  V30 7889 C 744.19 4.22286 0.772869 0
M  V30 7890 C 743.423 5.02609 1.79499 0
M  V30 7891 O 743.646 4.83874 3.0203 0
M  V30 7892 O 742.58 5.86047 1.3723 0
M  V30 7893 H 746.406 3.01996 -0.321268 0
M  V30 7894 H 743.991 1.47723 -0.223235 0
M  V30 7895 H 745.873 3.68795 2.03883 0
M  V30 7896 H 744.548 2.49236 2.0655 0
M  V30 7897 H 743.455 3.73931 0.112277 0
M  V30 7898 H 744.788 4.91915 0.167399 0
M  V30 7899 N 746.441 0.193421 1.56409 0
M  V30 7900 C 747.666 -0.454552 2.02358 0
M  V30 7901 C 748.091 -1.54516 1.07268 0
M  V30 7902 O 747.449 -1.81214 0.0558962 0
M  V30 7903 C 747.497 -0.989469 3.46759 0
M  V30 7904 O 746.601 -2.10244 3.54783 0
M  V30 7905 H 745.942 -0.106417 0.655417 0
M  V30 7906 H 748.472 0.303807 2.02332 0
M  V30 7907 H 748.482 -1.30649 3.86516 0
M  V30 7908 H 747.157 -0.191083 4.15461 0
M  V30 7909 H 745.734 -1.79419 3.26899 0
M  V30 7910 N 747.919 -1.57396 -0.0801906 0
M  V30 7911 C 749.335 -1.53564 -0.434778 0
M  V30 7912 C 749.535 -0.912372 -1.79661 0
M  V30 7913 O 748.591 -0.511268 -2.4727 0
M  V30 7914 C 749.904 -2.98244 -0.383561 0
M  V30 7915 C 751.452 -3.09536 -0.46435 0
M  V30 7916 C 751.927 -4.55851 -0.443128 0
M  V30 7917 N 753.418 -4.60456 -0.503448 0
M  V30 7918 C 754.153 -5.71135 -0.509106 0
M  V30 7919 N 753.649 -6.91203 -0.47008 0
M  V30 7920 N 755.442 -5.59353 -0.555035 0
M  V30 7921 H 747.593 -1.96281 0.811635 0
M  V30 7922 H 749.856 -0.898041 0.303689 0
M  V30 7923 H 749.562 -3.47369 0.550236 0
M  V30 7924 H 749.436 -3.57705 -1.19694 0
M  V30 7925 H 751.823 -2.6039 -1.38857 0
M  V30 7926 H 751.904 -2.53 0.377445 0
M  V30 7927 H 751.548 -5.05653 0.477207 0
M  V30 7928 H 751.478 -5.10242 -1.30234 0
M  V30 7929 H 753.969 -3.74048 -0.538199 0
M  V30 7930 H 754.282 -7.7132 -0.478091 0
M  V30 7931 H 752.627 -6.93625 -0.436897 0
M  V30 7932 H 755.818 -4.64453 -0.583158 0
M  V30 7933 H 755.991 -6.4561 -0.555976 0
M  V30 7934 N 749.397 0.351382 -1.53633 0
M  V30 7935 C 750.36 1.41403 -1.80383 0
M  V30 7936 C 751.36 1.45963 -0.674635 0
M  V30 7937 O 752.55 1.46476 -0.942895 0
M  V30 7938 C 749.682 2.80401 -1.93876 0
M  V30 7939 H 750.875 1.18951 -2.75301 0
M  V30 7940 H 748.428 0.58533 -1.44926 0
M  V30 7941 H 749.163 3.08147 -1.01074 0
M  V30 7942 H 748.948 2.78488 -2.7602 0
M  V30 7943 H 750.438 3.57329 -2.16116 0
M  V30 7944 N 750.875 1.45233 0.611969 0
M  V30 7945 C 752.291 1.29542 0.932251 0
M  V30 7946 C 752.491 0.24523 2.00002 0
M  V30 7947 O 751.547 -0.362333 2.49887 0
M  V30 7948 C 752.86 2.67301 1.37733 0
M  V30 7949 C 754.408 2.75163 1.49178 0
M  V30 7950 C 754.883 4.13437 1.97064 0
M  V30 7951 N 756.374 4.15709 2.04304 0
M  V30 7952 C 757.109 5.19566 2.42568 0
M  V30 7953 N 756.605 6.33771 2.79832 0
M  V30 7954 N 758.398 5.06923 2.42869 0
M  V30 7955 H 750.549 2.12192 -0.0938679 0
M  V30 7956 H 752.812 0.947775 0.0206569 0
M  V30 7957 H 752.518 3.45318 0.666951 0
M  V30 7958 H 752.392 2.95472 2.3447 0
M  V30 7959 H 754.779 1.97453 2.19309 0
M  V30 7960 H 754.86 2.50712 0.507674 0
M  V30 7961 H 754.504 4.91631 1.27521 0
M  V30 7962 H 754.434 4.35277 2.9638 0
M  V30 7963 H 756.925 3.33293 1.78113 0
M  V30 7964 H 757.238 7.08815 3.07898 0
M  V30 7965 H 755.583 6.37179 2.77538 0
M  V30 7966 H 758.774 4.1675 2.1316 0
M  V30 7967 H 758.947 5.87981 2.72364 0
M  V30 7968 N 752.353 -0.854086 1.3245 0
M  V30 7969 C 753.6 -1.60831 1.23043 0
M  V30 7970 C 753.928 -1.93389 -0.2076 0
M  V30 7971 O 753.183 -1.5756 -1.16075 0
M  V30 7972 C 753.482 -2.93746 2.03587 0
M  V30 7973 C 753.148 -2.80615 3.52939 0
M  V30 7974 C 751.81 -2.76742 3.93659 0
M  V30 7975 C 754.162 -2.66507 4.4791 0
M  V30 7976 C 751.49 -2.56638 5.27592 0
M  V30 7977 C 753.842 -2.47939 5.81987 0
M  V30 7978 C 752.506 -2.42458 6.21909 0
M  V30 7979 H 751.776 -0.588523 0.450247 0
M  V30 7980 H 754.423 -0.990699 1.63882 0
M  V30 7981 H 752.728 -3.5963 1.55478 0
M  V30 7982 H 754.425 -3.51127 1.93677 0
M  V30 7983 H 751.015 -2.84456 3.20598 0
M  V30 7984 H 755.199 -2.68544 4.1737 0
M  V30 7985 H 750.455 -2.50831 5.57579 0
M  V30 7986 H 754.629 -2.36002 6.55192 0
M  V30 7987 H 752.256 -2.2664 7.2563 0
M  V30 7988 N 753.831 -1.1567 -1.07043 0
M  V30 7989 C 755.071 -0.944089 -1.81291 0
M  V30 7990 C 755.435 0.519305 -1.84844 0
M  V30 7991 O 756.636 0.850357 -2.54995 0
M  V30 7992 C 754.907 -1.54528 -3.22267 0
M  V30 7993 S 756.466 -1.47623 -4.13223 0
M  V30 7994 H 753.284 -0.339696 -0.624602 0
M  V30 7995 H 755.886 -1.47277 -1.28568 0
M  V30 7996 H 754.59 -2.60321 -3.17271 0
M  V30 7997 H 754.121 -1.0156 -3.80065 0
M  V30 7998 H 756.136 -0.471261 -4.93957 0
M  V30 7999 N 755.309 1.25446 -0.953992 0
M  V30 8000 C 756.239 2.28264 -0.491717 0
M  V30 8001 C 757.22 1.63717 0.461617 0
M  V30 8002 O 758.405 1.90821 0.36071 0
M  V30 8003 C 755.535 3.46525 0.231915 0
M  V30 8004 C 754.489 4.23247 -0.636098 0
M  V30 8005 C 753.815 5.34254 0.218238 0
M  V30 8006 C 755.115 4.85971 -1.91389 0
M  V30 8007 H 756.809 2.67183 -1.35106 0
M  V30 8008 H 754.355 1.2844 -0.651095 0
M  V30 8009 H 756.308 4.17576 0.566439 0
M  V30 8010 H 755.032 3.06594 1.12551 0
M  V30 8011 H 753.691 3.53978 -0.953696 0
M  V30 8012 H 753.339 4.90564 1.11156 0
M  V30 8013 H 753.039 5.86501 -0.359232 0
M  V30 8014 H 754.563 6.08138 0.547743 0
M  V30 8015 H 755.977 5.49168 -1.64581 0
M  V30 8016 H 754.374 5.48391 -2.43696 0
M  V30 8017 H 755.444 4.08192 -2.61738 0
M  V30 8018 N 756.787 0.722489 1.40064 0
M  V30 8019 C 758.012 0.273446 2.05589 0
M  V30 8020 C 758.437 -1.07875 1.54093 0
M  V30 8021 O 757.795 -1.68095 0.679252 0
M  V30 8022 C 757.843 0.271023 3.5958 0
M  V30 8023 O 756.947 -0.745499 4.05606 0
M  V30 8024 H 756.288 0.126856 0.65177 0
M  V30 8025 H 758.818 0.984906 1.79334 0
M  V30 8026 H 758.828 0.111084 4.07849 0
M  V30 8027 H 757.503 1.25776 3.96425 0
M  V30 8028 H 756.08 -0.552719 3.68781 0
M  V30 8029 N 758.265 -1.50454 0.469181 0
M  V30 8030 C 759.228 -2.2703 -0.314643 0
M  V30 8031 C 760.228 -1.31734 -0.922111 0
M  V30 8032 O 761.418 -1.55176 -0.791588 0
M  V30 8033 C 758.55 -3.08616 -1.44806 0
M  V30 8034 H 759.743 -2.97769 0.356892 0
M  V30 8035 H 757.296 -1.54698 0.223191 0
M  V30 8036 H 758.031 -2.42369 -2.1547 0
M  V30 8037 H 757.816 -3.78647 -1.01829 0
M  V30 8038 H 759.306 -3.66536 -2.00103 0
M  V30 8039 N 759.743 -0.201713 -1.56304 0
M  V30 8040 C 760.706 0.702811 -2.18159 0
M  V30 8041 C 761.706 1.13619 -1.13787 0
M  V30 8042 O 762.896 1.0482 -1.39134 0
M  V30 8043 C 760.028 1.96032 -2.78898 0
M  V30 8044 H 761.221 0.163836 -2.99452 0
M  V30 8045 H 758.774 0.04791 -1.56227 0
M  V30 8046 H 759.509 2.54165 -2.01421 0
M  V30 8047 H 759.294 1.65824 -3.55309 0
M  V30 8048 H 760.784 2.60519 -3.26373 0
M  V30 8049 N 761.222 1.57436 0.0718424 0
M  V30 8050 C 762.172 2.00132 1.09229 0
M  V30 8051 C 763.156 0.883379 1.34481 0
M  V30 8052 O 764.348 1.14728 1.34783 0
M  V30 8053 C 761.477 2.44876 2.40605 0
M  V30 8054 C 760.563 3.63405 2.18627 0
M  V30 8055 N 760.954 4.77583 1.66579 0
M  V30 8056 C 759.252 3.69953 2.491 0
M  V30 8057 C 759.953 5.5943 1.59415 0
M  V30 8058 N 758.929 5.03275 2.05464 0
M  V30 8059 H 762.731 2.85849 0.683185 0
M  V30 8060 H 760.245 1.59987 0.278914 0
M  V30 8061 H 762.242 2.73703 3.14471 0
M  V30 8062 H 760.902 1.60546 2.82232 0
M  V30 8063 H 761.913 4.99875 1.35443 0
M  V30 8064 H 758.59 2.96336 2.94094 0
M  V30 8065 H 759.98 6.61093 1.20026 0
M  V30 8066 N 762.7 -0.34323 1.53817 0
M  V30 8067 C 763.928 -1.10348 1.75017 0
M  V30 8068 C 764.343 -1.82345 0.489475 0
M  V30 8069 O 763.7 -1.74362 -0.538886 0
M  V30 8070 C 763.751 -2.11672 2.93048 0
M  V30 8071 O 763.472 -1.42603 4.14241 0
M  V30 8072 C 764.973 -3.0007 3.26301 0
M  V30 8073 H 762.193 -0.329056 0.584776 0
M  V30 8074 H 764.737 -0.395339 2.00642 0
M  V30 8075 H 762.892 -2.78051 2.69753 0
M  V30 8076 H 763.306 -2.10294 4.80496 0
M  V30 8077 H 764.78 -3.67101 4.12239 0
M  V30 8078 H 765.257 -3.66105 2.42618 0
M  V30 8079 H 765.863 -2.3928 3.51604 0
M  V30 8080 N 764.178 -1.45556 -0.604258 0
M  V30 8081 C 765.125 -1.54482 -1.71476 0
M  V30 8082 C 766.095 -0.390479 -1.61445 0
M  V30 8083 O 767.28 -0.604371 -1.80975 0
M  V30 8084 C 764.42 -1.52064 -3.09791 0
M  V30 8085 C 763.533 -2.78073 -3.30604 0
M  V30 8086 C 762.668 -2.67304 -4.59044 0
M  V30 8087 C 761.707 -3.88352 -4.73127 0
M  V30 8088 N 760.844 -3.76098 -5.9287 0
M  V30 8089 H 765.684 -2.49349 -1.63184 0
M  V30 8090 H 763.221 -1.23725 -0.795641 0
M  V30 8091 H 765.179 -1.48649 -3.89819 0
M  V30 8092 H 763.809 -0.607442 -3.17033 0
M  V30 8093 H 762.861 -2.91561 -2.44329 0
M  V30 8094 H 764.173 -3.67847 -3.36883 0
M  V30 8095 H 763.327 -2.61875 -5.47272 0
M  V30 8096 H 762.066 -1.75135 -4.55169 0
M  V30 8097 H 761.071 -3.94137 -3.83322 0
M  V30 8098 H 762.296 -4.81591 -4.78797 0
M  V30 8099 H 760.242 -2.867 -5.90033 0
M  V30 8100 H 760.159 -4.59509 -6.00323 0
M  V30 8101 H 761.427 -3.74607 -6.83586 0
M  V30 8102 N 765.656 0.84705 -1.32902 0
M  V30 8103 C 766.566 1.98845 -1.2449 0
M  V30 8104 C 767.582 1.7329 -0.15702 0
M  V30 8105 O 768.758 1.978 -0.379104 0
M  V30 8106 C 765.823 3.32679 -0.975985 0
M  V30 8107 C 764.884 3.71405 -2.15306 0
M  V30 8108 C 764.117 4.98853 -1.89688 0
M  V30 8109 O 764.34 5.64134 -0.843168 0
M  V30 8110 O 763.274 5.34889 -2.76002 0
M  V30 8111 H 767.1 2.0888 -2.2046 0
M  V30 8112 H 764.685 0.978852 -1.12867 0
M  V30 8113 H 766.567 4.12885 -0.842826 0
M  V30 8114 H 765.242 3.23667 -0.0464954 0
M  V30 8115 H 764.149 2.91743 -2.34172 0
M  V30 8116 H 765.482 3.85073 -3.06561 0
M  V30 8117 N 767.134 1.16236 1.06428 0
M  V30 8118 C 768.383 0.937523 1.78587 0
M  V30 8119 C 768.696 -0.536 1.88113 0
M  V30 8120 O 769.902 -0.878697 2.56887 0
M  V30 8121 C 768.358 1.62808 3.2097 0
M  V30 8122 C 767.966 3.13927 3.19615 0
M  V30 8123 C 769.71 1.48515 3.97673 0
M  V30 8124 C 767.617 3.75727 4.56709 0
M  V30 8125 H 766.547 0.347125 0.669343 0
M  V30 8126 H 769.198 1.39353 1.19385 0
M  V30 8127 H 767.58 1.09977 3.80422 0
M  V30 8128 H 768.754 3.7359 2.69753 0
M  V30 8129 H 767.069 3.28089 2.56411 0
M  V30 8130 H 769.666 1.92069 4.99013 0
M  V30 8131 H 770.009 0.433913 4.14032 0
M  V30 8132 H 770.542 1.98494 3.44739 0
M  V30 8133 H 767.281 4.80793 4.45554 0
M  V30 8134 H 766.801 3.20849 5.0677 0
M  V30 8135 H 768.48 3.77203 5.25668 0
M  V30 8136 N 768.612 -1.24939 0.960631 0
M  V30 8137 C 769.542 -2.28 0.503815 0
M  V30 8138 C 770.523 -1.63959 -0.452928 0
M  V30 8139 O 771.708 -1.91009 -0.350585 0
M  V30 8140 C 768.838 -3.46643 -0.213535 0
M  V30 8141 C 767.792 -4.22903 0.658535 0
M  V30 8142 C 767.118 -5.34363 -0.189902 0
M  V30 8143 C 768.418 -4.84949 1.93963 0
M  V30 8144 H 770.112 -2.66462 1.36521 0
M  V30 8145 H 767.658 -1.28093 0.657897 0
M  V30 8146 H 769.611 -4.1787 -0.544286 0
M  V30 8147 H 768.335 -3.07187 -1.10923 0
M  V30 8148 H 766.994 -3.53467 0.972455 0
M  V30 8149 H 766.642 -4.91147 -1.08553 0
M  V30 8150 H 766.342 -5.86302 0.390331 0
M  V30 8151 H 767.866 -6.0842 -0.515484 0
M  V30 8152 H 769.28 -5.48288 1.67491 0
M  V30 8153 H 767.677 -5.47091 2.46601 0
M  V30 8154 H 768.747 -4.06799 2.639 0
M  V30 8155 N 770.09 -0.729906 -1.39679 0
M  V30 8156 C 771.367 -0.202149 -1.94553 0
M  V30 8157 C 771.747 1.29507 -1.66707 0
M  V30 8158 O 771.095 2.05819 -0.992517 0
M  V30 8159 C 771.305 -0.530279 -3.44948 0
M  V30 8160 C 772.653 -0.476808 -4.21914 0
M  V30 8161 O 773.677 -0.467171 -3.53123 0
M  V30 8162 O 772.536 -0.466869 -5.44502 0
M  V30 8163 H 769.63 -0.0351644 -0.826252 0
M  V30 8164 H 772.176 -0.808417 -1.49207 0
M  V30 8165 H 770.948 -1.56526 -3.5863 0
M  V30 8166 H 770.571 0.10522 -3.97461 0
M  V30 8167 N 771.568 1.50203 -0.477153 0
M  V30 8168 C 772.796 2.0677 0.0732489 0
M  V30 8169 C 773.211 1.34033 1.32968 0
M  V30 8170 O 772.568 0.411412 1.77802 0
M  V30 8171 C 772.619 3.59751 0.35518 0
M  V30 8172 O 772.34 4.29747 -0.851425 0
M  V30 8173 C 773.841 4.3296 0.951877 0
M  V30 8174 H 771.061 0.670929 -0.00978923 0
M  V30 8175 H 773.605 1.93293 -0.667676 0
M  V30 8176 H 771.76 3.7301 1.04605 0
M  V30 8177 H 772.174 5.2106 -0.599708 0
M  V30 8178 H 773.648 5.40952 1.09888 0
M  V30 8179 H 774.125 3.93856 1.94356 0
M  V30 8180 H 774.731 4.24246 0.299208 0
M  V30 8181 N 773.046 0.209999 1.56195 0
M  V30 8182 C 774.009 -0.691232 2.18528 0
M  V30 8183 C 775.009 -1.13013 1.14388 0
M  V30 8184 O 776.199 -1.04081 1.39688 0
M  V30 8185 C 773.331 -1.94551 2.79934 0
M  V30 8186 H 774.524 -0.147953 2.99535 0
M  V30 8187 H 772.077 -0.0396243 1.5625 0
M  V30 8188 H 772.812 -2.53094 2.02766 0
M  V30 8189 H 772.597 -1.63938 3.56184 0
M  V30 8190 H 774.087 -2.58785 3.2775 0
M  V30 8191 N 774.524 -1.57472 -0.0634922 0
M  V30 8192 C 775.454 -2.07297 -1.07473 0
M  V30 8193 C 776.435 -0.968162 -1.39859 0
M  V30 8194 O 777.62 -1.24139 -1.49343 0
M  V30 8195 C 774.75 -2.52381 -2.38581 0
M  V30 8196 C 773.704 -3.66813 -2.20526 0
M  V30 8197 C 773.03 -3.97982 -3.57092 0
M  V30 8198 C 774.33 -4.96553 -1.61965 0
M  V30 8199 H 776.024 -2.92033 -0.660092 0
M  V30 8200 H 773.57 -1.40488 -0.316074 0
M  V30 8201 H 775.523 -2.85852 -3.09624 0
M  V30 8202 H 774.247 -1.64684 -2.8204 0
M  V30 8203 H 772.906 -3.33639 -1.51924 0
M  V30 8204 H 772.554 -3.07403 -3.98136 0
M  V30 8205 H 772.254 -4.7504 -3.45848 0
M  V30 8206 H 773.778 -4.33956 -4.29552 0
M  V30 8207 H 775.192 -5.28201 -2.22883 0
M  V30 8208 H 773.589 -5.7799 -1.61394 0
M  V30 8209 H 774.659 -4.81396 -0.581918 0
M  V30 8210 N 776.003 0.335068 -1.53997 0
M  V30 8211 C 776.95 1.41187 -1.82579 0
M  V30 8212 C 777.92 1.51897 -0.672061 0
M  V30 8213 O 779.105 1.673 -0.917346 0
M  V30 8214 C 776.245 2.77717 -2.0486 0
M  V30 8215 C 775.358 2.7573 -3.32561 0
M  V30 8216 C 774.493 4.04032 -3.44864 0
M  V30 8217 C 773.532 3.96308 -4.66483 0
M  V30 8218 N 772.669 5.16317 -4.75774 0
M  V30 8219 H 777.509 1.16113 -2.74448 0
M  V30 8220 H 775.046 0.562305 -1.35928 0
M  V30 8221 H 777.004 3.57071 -2.15768 0
M  V30 8222 H 775.634 3.01124 -1.16294 0
M  V30 8223 H 774.686 1.88432 -3.3045 0
M  V30 8224 H 775.998 2.65902 -4.22016 0
M  V30 8225 H 775.152 4.91814 -3.55251 0
M  V30 8226 H 773.891 4.16652 -2.53481 0
M  V30 8227 H 772.896 3.06911 -4.56164 0
M  V30 8228 H 774.121 3.85263 -5.5924 0
M  V30 8229 H 772.067 5.29464 -3.87303 0
M  V30 8230 H 771.984 5.08779 -5.59178 0
M  V30 8231 H 773.252 6.05846 -4.9048 0
M  V30 8232 N 777.481 1.45874 0.596531 0
M  V30 8233 C 778.391 1.57947 1.73464 0
M  V30 8234 C 779.407 0.463461 1.67714 0
M  V30 8235 O 780.583 0.725685 1.87872 0
M  V30 8236 C 777.648 1.55348 3.09948 0
M  V30 8237 C 776.709 2.78074 3.27068 0
M  V30 8238 C 775.942 2.75589 4.57041 0
M  V30 8239 O 776.165 1.83545 5.40063 0
M  V30 8240 O 775.099 3.66945 4.77111 0
M  V30 8241 H 778.925 2.54169 1.66228 0
M  V30 8242 H 776.51 1.2851 0.76194 0
M  V30 8243 H 778.392 1.56545 3.91244 0
M  V30 8244 H 777.067 0.622811 3.17652 0
M  V30 8245 H 775.974 2.82435 2.45319 0
M  V30 8246 H 777.307 3.70303 3.24248 0
M  V30 8247 N 778.959 -0.83999 1.33349 0
M  V30 8248 C 780.208 -1.59011 1.2409 0
M  V30 8249 C 780.521 -1.94655 -0.192029 0
M  V30 8250 O 781.727 -2.68438 -0.406617 0
M  V30 8251 C 780.183 -2.86801 2.17425 0
M  V30 8252 C 779.791 -2.58525 3.65881 0
M  V30 8253 C 781.535 -3.64823 2.17036 0
M  V30 8254 C 779.442 -3.82404 4.51133 0
M  V30 8255 H 778.372 -0.596731 0.460899 0
M  V30 8256 H 781.023 -0.926274 1.58406 0
M  V30 8257 H 779.405 -3.54719 1.7604 0
M  V30 8258 H 780.579 -1.98824 4.15699 0
M  V30 8259 H 778.894 -1.93808 3.68548 0
M  V30 8260 H 781.491 -4.56774 2.7796 0
M  V30 8261 H 781.834 -3.99663 1.16513 0
M  V30 8262 H 782.367 -3.03826 2.56777 0
M  V30 8263 H 779.106 -3.52696 5.52527 0
M  V30 8264 H 778.626 -4.41447 4.0606 0
M  V30 8265 H 780.305 -4.49995 4.6488 0
M  V30 8266 N 780.437 -1.16799 -1.0581 0
M  V30 8267 C 781.714 -0.862616 -1.75551 0
M  V30 8268 C 782.094 0.6385 -2.01212 0
M  V30 8269 O 781.442 1.58784 -1.64317 0
M  V30 8270 C 781.652 -1.6907 -3.05314 0
M  V30 8271 C 783 -1.90675 -3.79379 0
M  V30 8272 O 784.024 -1.65976 -3.15167 0
M  V30 8273 O 782.883 -2.32145 -4.94743 0
M  V30 8274 H 779.977 -0.318789 -0.763088 0
M  V30 8275 H 782.523 -1.27461 -1.12034 0
M  V30 8276 H 781.295 -2.70912 -2.82352 0
M  V30 8277 H 780.918 -1.27606 -3.76567 0
M  V30 8278 N 781.915 1.24427 -0.967243 0
M  V30 8279 C 782.825 2.29109 -0.504592 0
M  V30 8280 C 783.841 1.68495 0.434224 0
M  V30 8281 O 785.017 1.99041 0.307379 0
M  V30 8282 C 782.082 3.46133 0.198273 0
M  V30 8283 C 781.143 4.22149 -0.780313 0
M  V30 8284 C 780.376 5.33585 -0.110896 0
M  V30 8285 O 780.599 5.59676 1.10088 0
M  V30 8286 O 779.533 5.96522 -0.802823 0
M  V30 8287 H 783.359 2.708 -1.37482 0
M  V30 8288 H 780.944 1.30111 -0.73426 0
M  V30 8289 H 782.826 4.17205 0.593124 0
M  V30 8290 H 781.501 3.0642 1.04347 0
M  V30 8291 H 780.408 3.53454 -1.22561 0
M  V30 8292 H 781.741 4.65677 -1.59392 0
M  V30 8293 N 783.393 0.737304 1.3929 0
M  V30 8294 C 784.639 0.286681 2.00763 0
M  V30 8295 C 784.972 -1.12388 1.58375 0
M  V30 8296 O 784.247 -1.76661 0.813699 0
M  V30 8297 C 784.53 0.391147 3.57969 0
M  V30 8298 C 784.383 1.84165 4.1037 0
M  V30 8299 C 785.702 -0.225072 4.39524 0
M  V30 8300 H 782.821 0.105642 0.729389 0
M  V30 8301 H 785.463 0.933892 1.65464 0
M  V30 8302 H 783.613 -0.159875 3.88171 0
M  V30 8303 H 785.285 2.44972 3.90879 0
M  V30 8304 H 783.528 2.3622 3.63844 0
M  V30 8305 H 784.199 1.866 5.19504 0
M  V30 8306 H 786.675 0.244677 4.1538 0
M  V30 8307 H 785.551 -0.121646 5.48765 0
M  V30 8308 H 785.812 -1.31141 4.22202 0
M  V30 8309 N 784.871 -1.49948 0.485112 0
M  V30 8310 C 786.119 -2.01996 -0.0648775 0
M  V30 8311 C 786.44 -1.36819 -1.38945 0
M  V30 8312 O 785.71 -0.518163 -1.88923 0
M  V30 8313 H 784.29 -0.746513 -0.0269662 0
M  V30 8314 H 786.952 -1.84136 0.638733 0
M  V30 8315 H 786.048 -3.11418 -0.20617 0
M  V30 8316 N 786.349 -0.21828 -1.56081 0
M  V30 8317 C 787.626 0.463143 -1.90038 0
M  V30 8318 C 788.006 1.77982 -1.13515 0
M  V30 8319 O 787.354 2.27199 -0.24345 0
M  V30 8320 C 787.564 0.659292 -3.42716 0
M  V30 8321 C 788.912 0.968203 -4.13414 0
M  V30 8322 O 789.936 0.746195 -3.48296 0
M  V30 8323 O 788.795 1.38936 -5.28544 0
M  V30 8324 H 785.889 0.244435 -0.790051 0
M  V30 8325 H 788.435 -0.260221 -1.67693 0
M  V30 8326 H 787.207 -0.269584 -3.9037 0
M  V30 8327 H 786.83 1.43426 -3.7083 0
M  V30 8328 N 787.827 1.57504 0.0551401 0
M  V30 8329 C 788.757 2.07864 1.06372 0
M  V30 8330 C 789.738 0.975565 1.39344 0
M  V30 8331 O 790.923 1.24929 1.48682 0
M  V30 8332 C 788.053 2.53643 2.3724 0
M  V30 8333 C 787.007 3.67978 2.18578 0
M  V30 8334 C 786.333 3.9987 3.54976 0
M  V30 8335 C 787.633 4.97405 1.59329 0
M  V30 8336 H 789.327 2.92379 0.644595 0
M  V30 8337 H 786.873 1.40654 0.308619 0
M  V30 8338 H 788.826 2.8749 3.08103 0
M  V30 8339 H 787.55 1.66177 2.81163 0
M  V30 8340 H 786.209 3.3444 1.50152 0
M  V30 8341 H 785.857 3.0951 3.965 0
M  V30 8342 H 785.557 4.76867 3.43324 0
M  V30 8343 H 787.081 4.36228 4.27244 0
M  V30 8344 H 788.495 5.29375 2.20078 0
M  V30 8345 H 786.892 5.78837 1.58327 0
M  V30 8346 H 787.962 4.81697 0.55638 0
M  V30 8347 N 789.305 -0.326896 1.54172 0
M  V30 8348 C 790.235 -1.40741 1.86317 0
M  V30 8349 C 791.216 -1.54125 0.719684 0
M  V30 8350 O 792.401 -1.6806 0.973117 0
M  V30 8351 C 789.531 -2.77557 2.08757 0
M  V30 8352 C 788.485 -2.78965 3.24596 0
M  V30 8353 C 787.811 -4.18824 3.32401 0
M  V30 8354 C 789.111 -2.4301 4.62324 0
M  V30 8355 H 790.805 -1.14088 2.76811 0
M  V30 8356 H 788.351 -0.547389 1.3319 0
M  V30 8357 H 790.304 -3.53209 2.29829 0
M  V30 8358 H 789.028 -3.0568 1.15009 0
M  V30 8359 H 787.687 -2.05767 3.03406 0
M  V30 8360 H 787.335 -4.44083 2.36218 0
M  V30 8361 H 787.035 -4.20673 4.10253 0
M  V30 8362 H 788.559 -4.96294 3.55703 0
M  V30 8363 H 789.973 -3.08375 4.83299 0
M  V30 8364 H 788.37 -2.56116 5.42701 0
M  V30 8365 H 789.44 -1.38165 4.64799 0
M  V30 8366 N 790.784 -1.46188 -0.588786 0
M  V30 8367 C 791.716 -1.52319 -1.71265 0
M  V30 8368 C 792.729 -0.412096 -1.57498 0
M  V30 8369 O 793.918 -0.680146 -1.65034 0
M  V30 8370 C 791.018 -1.38164 -3.09458 0
M  V30 8371 C 790.191 -2.63284 -3.49286 0
M  V30 8372 C 789.25 -2.43415 -4.66514 0
M  V30 8373 O 788.276 -3.17113 -4.72682 0
M  V30 8374 N 789.478 -1.49187 -5.61002 0
M  V30 8375 H 792.243 -2.49219 -1.66463 0
M  V30 8376 H 789.804 -1.42167 -0.774601 0
M  V30 8377 H 791.796 -1.22653 -3.85666 0
M  V30 8378 H 790.366 -0.494678 -3.08661 0
M  V30 8379 H 789.586 -2.93779 -2.62845 0
M  V30 8380 H 790.874 -3.46413 -3.7266 0
M  V30 8381 H 790.272 -0.884027 -5.5875 0
M  V30 8382 H 788.829 -1.39642 -6.36666 0
M  V30 8383 N 792.262 0.832906 -1.33792 0
M  V30 8384 C 793.192 1.95828 -1.27176 0
M  V30 8385 C 794.173 1.69427 -0.15114 0
M  V30 8386 O 795.358 1.91167 -0.341886 0
M  V30 8387 C 792.488 3.32098 -1.01629 0
M  V30 8388 C 791.442 3.72912 -2.10049 0
M  V30 8389 C 790.768 5.07054 -1.69706 0
M  V30 8390 C 792.068 3.86064 -3.51783 0
M  V30 8391 H 793.762 2.01622 -2.21334 0
M  V30 8392 H 791.308 0.96866 -1.0655 0
M  V30 8393 H 793.261 4.10402 -0.956474 0
M  V30 8394 H 791.985 3.26577 -0.0390956 0
M  V30 8395 H 790.644 2.96876 -2.15082 0
M  V30 8396 H 790.292 4.9801 -0.706737 0
M  V30 8397 H 789.992 5.35333 -2.42264 0
M  V30 8398 H 791.516 5.87827 -1.65202 0
M  V30 8399 H 792.93 4.54665 -3.49218 0
M  V30 8400 H 791.327 4.25787 -4.22878 0
M  V30 8401 H 792.397 2.88344 -3.89854 0
M  V30 8402 N 793.74 1.17359 1.05189 0
M  V30 8403 C 794.687 0.890325 2.12936 0
M  V30 8404 C 795.657 -0.165779 1.65271 0
M  V30 8405 O 796.842 -0.0285672 1.90779 0
M  V30 8406 C 793.982 0.409793 3.42658 0
M  V30 8407 C 793.095 1.53002 4.03998 0
M  V30 8408 C 792.23 1.00336 5.21638 0
M  V30 8409 C 791.269 2.09903 5.74984 0
M  V30 8410 N 790.406 1.58714 6.83926 0
M  V30 8411 H 795.246 1.81299 2.36505 0
M  V30 8412 H 792.783 0.904249 1.16025 0
M  V30 8413 H 794.741 0.112743 4.17048 0
M  V30 8414 H 793.371 -0.475915 3.19272 0
M  V30 8415 H 792.423 1.9428 3.27047 0
M  V30 8416 H 793.735 2.3564 4.39631 0
M  V30 8417 H 792.889 0.660158 6.03098 0
M  V30 8418 H 791.628 0.14642 4.8748 0
M  V30 8419 H 790.633 2.45081 4.92154 0
M  V30 8420 H 791.858 2.96013 6.1119 0
M  V30 8421 H 789.804 0.752915 6.51665 0
M  V30 8422 H 789.721 2.34959 7.18561 0
M  V30 8423 H 790.989 1.27287 7.69037 0
M  V30 8424 N 795.218 -1.23913 0.973828 0
M  V30 8425 C 796.448 -1.95911 0.655938 0
M  V30 8426 C 796.856 -1.72375 -0.779967 0
M  V30 8427 O 796.199 -1.00807 -1.5357 0
M  V30 8428 C 796.261 -3.49103 0.858324 0
M  V30 8429 C 795.925 -3.96347 2.27504 0
M  V30 8430 C 796.922 -4.05537 3.25324 0
M  V30 8431 C 794.607 -4.29509 2.60437 0
M  V30 8432 C 796.601 -4.47233 4.5416 0
M  V30 8433 C 794.288 -4.70887 3.89498 0
M  V30 8434 C 795.286 -4.79714 4.86172 0
M  V30 8435 O 794.974 -5.20166 6.1293 0
M  V30 8436 H 794.706 -0.630721 0.243244 0
M  V30 8437 H 797.26 -1.58534 1.30599 0
M  V30 8438 H 795.49 -3.86405 0.151097 0
M  V30 8439 H 797.179 -4.02311 0.538592 0
M  V30 8440 H 797.945 -3.80128 3.0121 0
M  V30 8441 H 793.824 -4.21853 1.85906 0
M  V30 8442 H 797.368 -4.54038 5.29618 0
M  V30 8443 H 793.265 -4.95744 4.1341 0
M  V30 8444 H 794.033 -5.38298 6.16586 0
M  V30 8445 N 796.696 -0.74468 -1.38897 0
M  V30 8446 C 797.921 -0.306119 -2.05128 0
M  V30 8447 C 798.346 1.0541 -1.55789 0
M  V30 8448 O 797.704 1.66993 -0.705909 0
M  V30 8449 C 797.752 -0.328195 -3.59103 0
M  V30 8450 O 796.856 0.680876 -4.06741 0
M  V30 8451 H 796.197 -0.137209 -0.649669 0
M  V30 8452 H 798.727 -1.01331 -1.77745 0
M  V30 8453 H 798.737 -0.175956 -4.0762 0
M  V30 8454 H 797.412 -1.32067 -3.94374 0
M  V30 8455 H 795.989 0.49398 -3.69614 0
M  V30 8456 N 798.174 1.49689 -0.493057 0
M  V30 8457 C 799.59 1.58907 -0.148526 0
M  V30 8458 C 799.79 1.4991 1.34645 0
M  V30 8459 O 798.846 1.36893 2.12171 0
M  V30 8460 C 800.159 2.91996 -0.718265 0
M  V30 8461 C 801.707 3.05443 -0.683658 0
M  V30 8462 C 802.182 4.41138 -1.23132 0
M  V30 8463 N 803.673 4.47608 -1.19167 0
M  V30 8464 C 804.408 5.51038 -1.5857 0
M  V30 8465 N 803.904 6.61612 -2.05528 0
M  V30 8466 N 805.697 5.41706 -1.50036 0
M  V30 8467 H 797.848 1.5378 -1.46511 0
M  V30 8468 H 800.111 0.727996 -0.607228 0
M  V30 8469 H 799.817 3.04123 -1.7664 0
M  V30 8470 H 799.691 3.76798 -0.17419 0
M  V30 8471 H 802.078 2.92949 0.355626 0
M  V30 8472 H 802.159 2.22344 -1.26479 0
M  V30 8473 H 801.803 4.54382 -2.26935 0
M  V30 8474 H 801.733 5.22864 -0.626201 0
M  V30 8475 H 804.224 3.68274 -0.847524 0
M  V30 8476 H 804.537 7.36622 -2.33685 0
M  V30 8477 H 802.882 6.62674 -2.09497 0
M  V30 8478 H 806.073 4.54212 -1.13176 0
M  V30 8479 H 806.246 6.22188 -1.81068 0
M  V30 8480 N 799.652 0.226554 1.55963 0
M  V30 8481 C 800.602 -0.694986 2.1715 0
M  V30 8482 C 801.586 -1.15394 1.12129 0
M  V30 8483 O 802.778 -1.1071 1.38102 0
M  V30 8484 C 799.907 -1.9007 2.85882 0
M  V30 8485 C 798.993 -1.46119 3.98133 0
M  V30 8486 N 799.384 -0.734584 5.00437 0
M  V30 8487 C 797.682 -1.74809 4.10314 0
M  V30 8488 C 798.383 -0.509773 5.79462 0
M  V30 8489 N 797.359 -1.06796 5.33006 0
M  V30 8490 H 801.161 -0.131469 2.93606 0
M  V30 8491 H 798.675 0.0280165 1.62376 0
M  V30 8492 H 800.672 -2.57169 3.28131 0
M  V30 8493 H 799.332 -2.46864 2.10923 0
M  V30 8494 H 800.343 -0.386757 5.16454 0
M  V30 8495 H 797.02 -2.32887 3.46511 0
M  V30 8496 H 798.41 0.0688847 6.71865 0
M  V30 8497 N 801.13 -1.57531 -0.0467866 0
M  V30 8498 C 802.546 -1.54451 -0.402107 0
M  V30 8499 C 802.746 -0.950275 -1.77685 0
M  V30 8500 O 801.802 -0.563602 -2.4613 0
M  V30 8501 C 803.115 -2.9899 -0.320212 0
M  V30 8502 C 804.663 -3.10452 -0.398588 0
M  V30 8503 C 805.138 -4.56689 -0.346335 0
M  V30 8504 N 806.629 -4.6142 -0.405666 0
M  V30 8505 C 807.364 -5.72087 -0.387845 0
M  V30 8506 N 806.86 -6.92045 -0.32336 0
M  V30 8507 N 808.653 -5.60404 -0.436263 0
M  V30 8508 H 800.804 -1.94515 0.853087 0
M  V30 8509 H 803.067 -0.891397 0.322669 0
M  V30 8510 H 802.773 -3.46124 0.623794 0
M  V30 8511 H 802.647 -3.60164 -1.1208 0
M  V30 8512 H 805.034 -2.63276 -1.33302 0
M  V30 8513 H 805.115 -2.52142 0.431026 0
M  V30 8514 H 804.759 -5.04527 0.584356 0
M  V30 8515 H 804.689 -5.12889 -1.19382 0
M  V30 8516 H 807.18 -3.75105 -0.458737 0
M  V30 8517 H 807.493 -7.7216 -0.314375 0
M  V30 8518 H 805.838 -6.94396 -0.28967 0
M  V30 8519 H 809.029 -4.65586 -0.48451 0
M  V30 8520 H 809.202 -6.46645 -0.418907 0
M  V30 8521 N 802.608 0.318715 -1.54344 0
M  V30 8522 C 803.538 1.39751 -1.87061 0
M  V30 8523 C 804.519 1.53741 -0.727848 0
M  V30 8524 O 805.704 1.67541 -0.982016 0
M  V30 8525 C 802.834 2.76446 -2.10226 0
M  V30 8526 C 801.788 2.77239 -3.26071 0
M  V30 8527 C 801.114 4.17056 -3.34617 0
M  V30 8528 C 802.414 2.40555 -4.63606 0
M  V30 8529 H 804.108 1.12619 -2.77412 0
M  V30 8530 H 801.654 0.540318 -1.33479 0
M  V30 8531 H 803.607 3.51985 -2.31699 0
M  V30 8532 H 802.331 3.05066 -1.16629 0
M  V30 8533 H 800.99 2.04155 -3.04493 0
M  V30 8534 H 800.638 4.42824 -2.3857 0
M  V30 8535 H 800.338 4.18492 -4.12478 0
M  V30 8536 H 801.862 4.94401 -3.5833 0
M  V30 8537 H 803.276 3.05808 -4.84927 0
M  V30 8538 H 801.673 2.53234 -5.44052 0
M  V30 8539 H 802.743 1.35698 -4.65526 0
M  V30 8540 N 804.086 1.46499 0.581025 0
M  V30 8541 C 805.332 1.52121 1.34116 0
M  V30 8542 C 805.665 0.173031 1.93428 0
M  V30 8543 O 804.94 -0.815729 1.76568 0
M  V30 8544 C 805.223 2.62108 2.46924 0
M  V30 8545 C 805.076 4.06462 1.92636 0
M  V30 8546 C 806.395 2.68167 3.48962 0
M  V30 8547 H 803.514 0.5538 0.486287 0
M  V30 8548 H 806.156 1.78443 0.652538 0
M  V30 8549 H 804.306 2.39794 3.05665 0
M  V30 8550 H 805.978 4.40068 1.3834 0
M  V30 8551 H 804.221 4.15862 1.23455 0
M  V30 8552 H 804.892 4.79152 2.74076 0
M  V30 8553 H 807.368 2.8823 3.00104 0
M  V30 8554 H 806.244 3.46942 4.2535 0
M  V30 8555 H 806.505 1.74284 4.06297 0
M  V30 8556 N 805.565 -0.825799 1.34232 0
M  V30 8557 C 806.976 -1.39835 1.23706 0
M  V30 8558 C 807.327 -1.95709 -0.138649 0
M  V30 8559 O 806.452 -1.89833 -1.03886 0
M  V30 8560 C 807.047 -2.54203 2.23978 0
M  V30 8561 C 805.606 -3.07374 2.17251 0
M  V30 8562 C 804.753 -1.80232 2.10741 0
M  V30 8563 H 807.704 -0.630442 1.4564 0
M  V30 8564 H 807.725 -3.32214 1.8551 0
M  V30 8565 H 807.237 -2.13506 3.24094 0
M  V30 8566 H 805.338 -3.52583 1.20483 0
M  V30 8567 H 805.451 -3.6666 3.08379 0
M  V30 8568 H 803.815 -2.01012 1.56417 0
M  V30 8569 H 804.598 -1.41713 3.12686 0
M  V30 8570 N 807.043 -1.17915 -1.04565 0
M  V30 8571 C 807.973 -0.925033 -2.14395 0
M  V30 8572 C 808.954 0.135375 -1.6956 0
M  V30 8573 O 810.139 -0.0161774 -1.94193 0
M  V30 8574 C 807.269 -0.444469 -3.44444 0
M  V30 8575 C 806.223 -1.44478 -4.02877 0
M  V30 8576 C 805.549 -0.821933 -5.28345 0
M  V30 8577 C 806.849 -2.81995 -4.39632 0
M  V30 8578 H 808.543 -1.84354 -2.35911 0
M  V30 8579 H 806.089 -0.887806 -1.13375 0
M  V30 8580 H 808.042 -0.254078 -4.20633 0
M  V30 8581 H 806.766 0.509592 -3.226 0
M  V30 8582 H 805.425 -1.62203 -3.28764 0
M  V30 8583 H 805.073 0.139161 -5.02807 0
M  V30 8584 H 804.773 -1.48976 -5.68401 0
M  V30 8585 H 806.297 -0.641959 -6.07216 0
M  V30 8586 H 807.711 -2.67952 -5.06828 0
M  V30 8587 H 806.108 -3.45414 -4.90723 0
M  V30 8588 H 807.178 -3.35927 -3.49687 0
M  V30 8589 N 808.521 1.23394 -0.980386 0
M  V30 8590 C 809.451 2.2717 -0.540024 0
M  V30 8591 C 810.432 1.64659 0.426787 0
M  V30 8592 O 811.617 1.91543 0.320153 0
M  V30 8593 C 808.747 3.46939 0.15836 0
M  V30 8594 C 807.701 4.21802 -0.725732 0
M  V30 8595 C 807.027 5.34597 0.104866 0
M  V30 8596 C 808.327 4.81802 -2.01654 0
M  V30 8597 H 810.021 2.64257 -1.40743 0
M  V30 8598 H 807.567 1.2703 -0.678193 0
M  V30 8599 H 809.52 4.18683 0.477737 0
M  V30 8600 H 808.244 3.08912 1.06022 0
M  V30 8601 H 806.903 3.51875 -1.02857 0
M  V30 8602 H 806.551 4.92812 1.00726 0
M  V30 8603 H 806.251 5.85607 -0.483557 0
M  V30 8604 H 807.775 6.09163 0.418624 0
M  V30 8605 H 809.189 5.45554 -1.76193 0
M  V30 8606 H 807.586 5.43098 -2.55273 0
M  V30 8607 H 808.656 4.02549 -2.70338 0
M  V30 8608 N 809.999 0.752036 1.385 0
M  V30 8609 C 811.276 0.233075 1.94206 0
M  V30 8610 C 811.656 -1.26838 1.68746 0
M  V30 8611 O 811.004 -2.04214 1.02513 0
M  V30 8612 C 811.214 0.58509 3.44061 0
M  V30 8613 C 812.562 0.543871 4.21102 0
M  V30 8614 O 813.586 0.523291 3.52335 0
M  V30 8615 O 812.445 0.553436 5.4369 0
M  V30 8616 H 809.539 0.0483049 0.825588 0
M  V30 8617 H 812.085 0.832053 1.47902 0
M  V30 8618 H 810.857 1.62212 3.56094 0
M  V30 8619 H 810.48 -0.0419738 3.97578 0
M  V30 8620 N 811.477 -1.49425 0.500989 0
M  V30 8621 C 812.893 -1.58826 0.156951 0
M  V30 8622 C 813.093 -1.50622 -1.33848 0
M  V30 8623 O 812.149 -1.38016 -2.11442 0
M  V30 8624 C 813.462 -2.91611 0.73374 0
M  V30 8625 C 815.01 -3.05076 0.699846 0
M  V30 8626 C 815.485 -4.40479 1.2547 0
M  V30 8627 N 816.976 -4.4697 1.2154 0
M  V30 8628 C 817.711 -5.50189 1.6149 0
M  V30 8629 N 817.207 -6.60512 2.09034 0
M  V30 8630 N 819 -5.40903 1.52907 0
M  V30 8631 H 811.151 -1.53001 1.47324 0
M  V30 8632 H 813.414 -0.724765 0.61108 0
M  V30 8633 H 813.12 -3.03182 1.78251 0
M  V30 8634 H 812.994 -3.767 0.19417 0
M  V30 8635 H 815.381 -2.93134 -0.340085 0
M  V30 8636 H 815.462 -2.2167 1.27656 0
M  V30 8637 H 815.106 -4.53172 2.29341 0
M  V30 8638 H 815.036 -5.22524 0.653921 0
M  V30 8639 H 817.527 -3.67819 0.867043 0
M  V30 8640 H 817.84 -7.35372 2.37588 0
M  V30 8641 H 816.185 -6.61553 2.13008 0
M  V30 8642 H 819.376 -4.53606 1.15583 0
M  V30 8643 H 819.549 -6.21219 1.84365 0
M  V30 8644 N 812.955 -0.234822 -1.55841 0
M  V30 8645 C 814.366 0.270588 -1.84729 0
M  V30 8646 C 814.717 1.58494 -1.15646 0
M  V30 8647 O 813.842 2.12071 -0.430667 0
M  V30 8648 C 814.437 0.497733 -3.35124 0
M  V30 8649 C 812.996 0.947428 -3.64281 0
M  V30 8650 C 812.143 0.01787 -2.77294 0
M  V30 8651 H 815.094 -0.457691 -1.51957 0
M  V30 8652 H 815.115 1.34199 -3.56049 0
M  V30 8653 H 814.627 -0.459037 -3.85376 0
M  V30 8654 H 812.728 1.91709 -3.19497 0
M  V30 8655 H 812.841 0.812651 -4.72158 0
M  V30 8656 H 811.205 0.527071 -2.49187 0
M  V30 8657 H 811.988 -0.934056 -3.30349 0
M  V30 8658 N 814.433 1.57553 0.0384317 0
M  V30 8659 C 815.68 1.88841 0.731116 0
M  V30 8660 C 816.008 0.83093 1.75857 0
M  V30 8661 O 815.263 -0.169248 1.94967 0
M  V30 8662 C 815.562 3.26862 1.44554 0
M  V30 8663 C 815.228 4.47472 0.554946 0
M  V30 8664 C 813.89 4.80203 0.309621 0
M  V30 8665 C 816.242 5.21165 -0.0605204 0
M  V30 8666 C 813.57 5.8402 -0.560101 0
M  V30 8667 C 815.922 6.25905 -0.91789 0
M  V30 8668 C 814.586 6.57117 -1.17277 0
M  V30 8669 H 813.856 0.691018 0.267534 0
M  V30 8670 H 816.503 1.91498 -0.00883195 0
M  V30 8671 H 814.808 3.2015 2.25856 0
M  V30 8672 H 816.505 3.48316 1.98688 0
M  V30 8673 H 813.095 4.21874 0.756304 0
M  V30 8674 H 817.279 4.96164 0.116064 0
M  V30 8675 H 812.535 6.06583 -0.765974 0
M  V30 8676 H 816.709 6.82155 -1.40136 0
M  V30 8677 H 814.336 7.37385 -1.84843 0
M  V30 8678 N 815.911 -0.310526 1.54511 0
M  V30 8679 C 817.188 -1.06593 1.64004 0
M  V30 8680 C 817.568 -2.05519 0.482216 0
M  V30 8681 O 816.916 -2.22455 -0.52212 0
M  V30 8682 C 817.126 -1.75627 3.01589 0
M  V30 8683 C 818.474 -2.28173 3.58081 0
M  V30 8684 O 819.498 -1.85674 3.03979 0
M  V30 8685 O 818.357 -3.06015 4.52788 0
M  V30 8686 H 815.451 -0.492109 0.664649 0
M  V30 8687 H 817.997 -0.309374 1.66856 0
M  V30 8688 H 816.769 -1.03743 3.77297 0
M  V30 8689 H 816.392 -2.58061 3.02473 0
M  V30 8690 N 817.389 -1.46805 -0.573248 0
M  V30 8691 C 818.299 -1.60687 -1.70929 0
M  V30 8692 C 819.315 -0.490084 -1.66956 0
M  V30 8693 O 820.491 -0.755482 -1.86693 0
M  V30 8694 C 817.556 -1.60259 -3.07438 0
M  V30 8695 C 816.617 -2.83242 -3.22603 0
M  V30 8696 C 815.85 -2.82825 -4.52599 0
M  V30 8697 O 816.073 -1.92113 -5.37074 0
M  V30 8698 O 815.007 -3.74489 -4.71213 0
M  V30 8699 H 818.833 -2.56782 -1.62163 0
M  V30 8700 H 816.418 -1.29706 -0.741399 0
M  V30 8701 H 818.3 -1.6275 -3.88704 0
M  V30 8702 H 816.975 -0.673268 -3.16621 0
M  V30 8703 H 815.882 -2.86302 -2.40794 0
M  V30 8704 H 817.215 -3.75415 -3.18315 0
M  V30 8705 N 818.867 0.818669 -1.34668 0
M  V30 8706 C 820.095 1.60674 -1.30351 0
M  V30 8707 C 820.51 1.88408 0.121546 0
M  V30 8708 O 819.867 1.47849 1.06991 0
M  V30 8709 C 819.918 2.94516 -2.09625 0
M  V30 8710 O 819.639 2.6799 -3.46573 0
M  V30 8711 C 821.14 3.8891 -2.12754 0
M  V30 8712 H 818.36 0.499306 -0.448258 0
M  V30 8713 H 820.904 1.01828 -1.77345 0
M  V30 8714 H 819.059 3.49908 -1.66262 0
M  V30 8715 H 819.473 3.53361 -3.87603 0
M  V30 8716 H 820.947 4.79972 -2.72637 0
M  V30 8717 H 821.424 4.24599 -1.12306 0
M  V30 8718 H 822.03 3.39453 -2.56225 0
M  V30 8719 N 820.346 1.18468 1.03938 0
M  V30 8720 C 821.574 1.00576 1.80809 0
M  V30 8721 C 821.989 -0.445786 1.83462 0
M  V30 8722 O 821.346 -1.30964 1.27101 0
M  V30 8723 C 821.397 1.55491 3.26351 0
M  V30 8724 O 821.118 2.94963 3.23926 0
M  V30 8725 C 822.619 1.42236 4.19862 0
M  V30 8726 H 819.839 0.35508 0.56935 0
M  V30 8727 H 822.383 1.57046 1.30984 0
M  V30 8728 H 820.538 1.03195 3.73403 0
M  V30 8729 H 820.952 3.20598 4.15111 0
M  V30 8730 H 822.426 1.85455 5.19914 0
M  V30 8731 H 822.903 0.371267 4.37628 0
M  V30 8732 H 823.509 1.9361 3.78675 0
M  V30 8733 N 821.824 -1.22873 0.986916 0
M  V30 8734 C 823.054 -1.95204 0.67668 0
M  V30 8735 C 823.462 -1.73193 -0.761641 0
M  V30 8736 O 822.805 -1.0243 -1.52492 0
M  V30 8737 C 822.867 -3.48173 0.895302 0
M  V30 8738 C 822.531 -3.93912 2.31695 0
M  V30 8739 C 823.528 -4.02064 3.29607 0
M  V30 8740 C 821.213 -4.26722 2.64978 0
M  V30 8741 C 823.207 -4.42391 4.58878 0
M  V30 8742 C 820.894 -4.66729 3.94471 0
M  V30 8743 C 821.892 -4.74531 4.91232 0
M  V30 8744 O 821.58 -5.13636 6.18412 0
M  V30 8745 H 821.312 -0.628105 0.24992 0
M  V30 8746 H 823.866 -1.5714 1.32274 0
M  V30 8747 H 822.096 -3.86223 0.192072 0
M  V30 8748 H 823.785 -4.01717 0.581233 0
M  V30 8749 H 824.551 -3.76912 3.05225 0
M  V30 8750 H 820.43 -4.19858 1.9037 0
M  V30 8751 H 823.974 -4.48395 5.34404 0
M  V30 8752 H 819.871 -4.91332 4.18645 0
M  V30 8753 H 820.639 -5.31728 6.2226 0
M  V30 8754 N 823.302 -0.75937 -1.38099 0
M  V30 8755 C 824.212 -0.13774 -2.34195 0
M  V30 8756 C 825.228 0.693985 -1.59561 0
M  V30 8757 O 826.404 0.616792 -1.91723 0
M  V30 8758 C 823.469 0.740535 -3.38699 0
M  V30 8759 C 822.53 -0.106225 -4.29169 0
M  V30 8760 C 821.763 0.730225 -5.28681 0
M  V30 8761 O 821.986 1.96796 -5.35376 0
M  V30 8762 O 820.92 0.145969 -6.01723 0
M  V30 8763 H 824.746 -0.931512 -2.89061 0
M  V30 8764 H 822.331 -0.520345 -1.40046 0
M  V30 8765 H 824.213 1.24232 -4.02672 0
M  V30 8766 H 822.888 1.51271 -2.8618 0
M  V30 8767 H 821.795 -0.654088 -3.68337 0
M  V30 8768 H 823.128 -0.841186 -4.84959 0
M  V30 8769 N 824.78 1.49157 -0.508906 0
M  V30 8770 C 825.69 2.33045 0.269656 0
M  V30 8771 C 826.706 1.45143 0.959662 0
M  V30 8772 O 827.882 1.78155 0.939295 0
M  V30 8773 C 824.947 3.20772 1.31554 0
M  V30 8774 C 824.008 4.24531 0.638131 0
M  V30 8775 C 823.241 5.08065 1.63418 0
M  V30 8776 O 823.464 4.93238 2.86483 0
M  V30 8777 O 822.398 5.90117 1.18516 0
M  V30 8778 H 826.224 3.00821 -0.417183 0
M  V30 8779 H 823.809 1.46938 -0.270119 0
M  V30 8780 H 825.691 3.75095 1.92047 0
M  V30 8781 H 824.366 2.55681 1.98516 0
M  V30 8782 H 823.273 3.74099 -0.00674357 0
M  V30 8783 H 824.606 4.92199 0.0108155 0
M  V30 8784 N 826.258 0.243083 1.55714 0
M  V30 8785 C 827.486 -0.386971 2.03249 0
M  V30 8786 C 827.901 -1.51812 1.12243 0
M  V30 8787 O 827.258 -1.81992 0.136119 0
M  V30 8788 C 827.309 -0.898361 3.5016 0
M  V30 8789 O 827.03 0.187708 4.37698 0
M  V30 8790 C 828.531 -1.59949 4.13438 0
M  V30 8791 H 825.751 -0.0923981 0.664608 0
M  V30 8792 H 828.295 0.365832 2.01201 0
M  V30 8793 H 826.45 -1.60136 3.52754 0
M  V30 8794 H 826.864 -0.200001 5.24119 0
M  V30 8795 H 828.338 -1.90907 5.17937 0
M  V30 8796 H 828.815 -2.52014 3.59702 0
M  V30 8797 H 829.421 -0.941163 4.14756 0
M  V30 8798 N 827.736 -1.57571 -0.0300757 0
M  V30 8799 C 828.646 -2.09892 -1.04798 0
M  V30 8800 C 829.662 -1.03732 -1.39698 0
M  V30 8801 O 830.838 -1.35461 -1.49038 0
M  V30 8802 C 827.903 -2.56707 -2.33028 0
M  V30 8803 C 826.964 -3.77345 -2.04718 0
M  V30 8804 C 826.197 -4.21918 -3.26834 0
M  V30 8805 O 826.42 -3.66025 -4.37472 0
M  V30 8806 O 825.354 -5.14362 -3.12594 0
M  V30 8807 H 829.18 -2.97023 -0.633344 0
M  V30 8808 H 826.765 -1.47344 -0.246991 0
M  V30 8809 H 828.647 -2.87154 -3.08417 0
M  V30 8810 H 827.322 -1.72688 -2.73789 0
M  V30 8811 H 826.229 -3.51919 -1.26901 0
M  V30 8812 H 827.562 -4.62345 -1.68813 0
M  V30 8813 N 829.214 0.302327 -1.54673 0
M  V30 8814 C 830.491 1.05721 -1.64567 0
M  V30 8815 C 830.871 2.0526 -0.493108 0
M  V30 8816 O 830.219 2.22729 0.510315 0
M  V30 8817 C 830.429 1.74025 -3.02517 0
M  V30 8818 C 831.777 2.26271 -3.59286 0
M  V30 8819 O 832.801 1.8406 -3.0496 0
M  V30 8820 O 831.66 3.0361 -4.54404 0
M  V30 8821 H 828.754 0.488577 -0.667249 0
M  V30 8822 H 831.3 0.300521 -1.67018 0
M  V30 8823 H 830.072 1.0174 -3.77842 0
M  V30 8824 H 829.695 2.56454 -3.03838 0
M  V30 8825 O 830.731 1.55155 0.448226 0
M  V30 8826 H 831.422 1.59293 1.10206 0
M  V30 END ATOM
M  V30 BEGIN BOND
M  V30 END BOND
M  V30 END CTAB
M  END
$$$$
