drugbank_target|O15342 V-type proton ATPase subunit e 1 (DB01133)
 OpenBabel12092121233D

  0  0  0     0  0            999 V3000
M  V30 BEGIN CTAB
M  V30 COUNTS 1344 1372 0 0 0
M  V30 BEGIN ATOM
M  V30 1 H -0.908 1.98254 -0.117106 0
M  V30 2 N 0 1.576 0 0
M  V30 3 C 0.933 2.03868 1.02534 0
M  V30 4 C 1.911 0.928543 1.3348 0
M  V30 5 O 3.095 1.19667 1.45644 0
M  V30 6 C 0.222 2.43627 2.35294 0
M  V30 7 C -0.732 3.65373 2.2001 0
M  V30 8 S 0.101 5.13292 1.52614 0
M  V30 9 C 1.257 5.56322 2.86805 0
M  V30 10 H 1.49 2.90518 0.631377 0
M  V30 11 H -0.977 1.52953 0.210867 0
M  V30 12 H 0.981 2.67203 3.11629 0
M  V30 13 H -0.358 1.57376 2.7183 0
M  V30 14 H -1.165 3.90944 3.18086 0
M  V30 15 H -1.563 3.418 1.51819 0
M  V30 16 H 0.729 5.58782 3.83104 0
M  V30 17 H 1.672 6.56266 2.65933 0
M  V30 18 H 2.08 4.83886 2.90714 0
M  V30 19 N 1.4781 -0.272755 1.55222 0
M  V30 20 C 2.4411 -1.32041 1.87344 0
M  V30 21 C 3.4411 -1.42342 0.74803 0
M  V30 22 O 4.6311 -1.41488 1.0162 0
M  V30 23 C 1.7631 -2.70173 2.07893 0
M  V30 24 H 2.9561 -1.04789 2.80997 0
M  V30 25 H 0.5091 -0.51083 1.47717 0
M  V30 26 H 1.2441 -3.02605 1.16622 0
M  V30 27 H 1.0291 -2.64082 2.89833 0
M  V30 28 H 2.5191 -3.45869 2.34017 0
M  V30 29 N 2.9562 -1.48159 -0.537278 0
M  V30 30 C 4.1862 -1.59223 -1.3165 0
M  V30 31 C 4.5942 -0.248849 -1.87556 0
M  V30 32 O 3.9372 0.770949 -1.6674 0
M  V30 33 C 3.9992 -2.57365 -2.51005 0
M  V30 34 C 3.6632 -4.02603 -2.16239 0
M  V30 35 C 4.6602 -4.90503 -1.72344 0
M  V30 36 C 2.3452 -4.48088 -2.26986 0
M  V30 37 C 4.3392 -6.21913 -1.39651 0
M  V30 38 C 2.0262 -5.7952 -1.93906 0
M  V30 39 C 3.0242 -6.66255 -1.50309 0
M  V30 40 O 2.7122 -7.95243 -1.17659 0
M  V30 41 H 2.4442 -0.539831 -0.406889 0
M  V30 42 H 4.9982 -1.94655 -0.655641 0
M  V30 43 H 3.2282 -2.1704 -3.20048 0
M  V30 44 H 4.9172 -2.58342 -3.13072 0
M  V30 45 H 5.6832 -4.56604 -1.63517 0
M  V30 46 H 1.5622 -3.80769 -2.59877 0
M  V30 47 H 5.1062 -6.89569 -1.0555 0
M  V30 48 H 1.0032 -6.12957 -2.02371 0
M  V30 49 H 1.7712 -8.0793 -1.31119 0
M  V30 50 N 4.4343 0.785586 -1.36625 0
M  V30 51 C 5.3843 1.88822 -1.27789 0
M  V30 52 C 6.3683 1.60014 -0.168579 0
M  V30 53 O 7.5603 1.72381 -0.401737 0
M  V30 54 C 4.6893 3.26092 -1.07327 0
M  V30 55 C 3.7753 3.60897 -2.22743 0
M  V30 56 N 4.1663 3.66982 -3.48077 0
M  V30 57 C 2.4643 3.90981 -2.14593 0
M  V30 58 C 3.1653 3.98137 -4.24101 0
M  V30 59 N 2.1413 4.13319 -3.53084 0
M  V30 60 H 5.9433 1.91759 -2.22723 0
M  V30 61 H 3.4573 0.981311 -1.29399 0
M  V30 62 H 5.4543 4.04954 -0.990842 0
M  V30 63 H 4.1143 3.24428 -0.132977 0
M  V30 64 H 5.1253 3.49531 -3.82163 0
M  V30 65 H 1.8023 3.9722 -1.2854 0
M  V30 66 H 3.1923 4.09737 -5.32509 0
M  V30 67 N 5.9124 1.20967 1.01018 0
M  V30 68 C 7.1604 1.02172 1.74371 0
M  V30 69 C 7.4814 -0.446414 1.89821 0
M  V30 70 O 6.7514 -1.32234 1.44537 0
M  V30 71 H 5.3314 0.375066 0.646014 0
M  V30 72 H 7.9934 1.52187 1.21758 0
M  V30 73 H 7.0894 1.48538 2.74487 0
M  V30 74 N 7.3905 -1.2043 1.01659 0
M  V30 75 C 8.3205 -2.25466 0.607226 0
M  V30 76 C 9.3015 -1.65853 -0.377716 0
M  V30 77 O 10.4865 -1.92409 -0.263149 0
M  V30 78 C 7.6165 -3.47256 -0.0552949 0
M  V30 79 C 6.5705 -4.19462 0.850632 0
M  V30 80 C 5.8965 -5.34673 0.0538859 0
M  V30 81 C 7.1965 -4.75603 2.15868 0
M  V30 82 H 8.8905 -2.59962 1.48526 0
M  V30 83 H 6.4365 -1.2496 0.715605 0
M  V30 84 H 8.3895 -4.19917 -0.353233 0
M  V30 85 H 7.1135 -3.11924 -0.968045 0
M  V30 86 H 5.7725 -3.48667 1.13257 0
M  V30 87 H 5.4205 -4.95585 -0.860514 0
M  V30 88 H 5.1205 -5.83913 0.657192 0
M  V30 89 H 6.6445 -6.10138 -0.237598 0
M  V30 90 H 8.0585 -5.40083 1.92311 0
M  V30 91 H 6.4555 -5.3528 2.71284 0
M  V30 92 H 7.5255 -3.94346 2.82169 0
M  V30 93 N 8.8686 -0.792821 -1.36206 0
M  V30 94 C 10.0966 -0.378825 -2.03402 0
M  V30 95 C 10.5116 1.00586 -1.59774 0
M  V30 96 O 9.8686 1.64574 -0.788764 0
M  V30 97 C 9.9196 -0.43683 -3.58851 0
M  V30 98 O 9.6406 -1.76691 -4.00889 0
M  V30 99 C 11.1416 -0.0138943 -4.43298 0
M  V30 100 H 8.3616 -0.155673 -0.652692 0
M  V30 101 H 10.9056 -1.07261 -1.74113 0
M  V30 102 H 9.0606 0.208575 -3.86838 0
M  V30 103 H 9.4746 -1.72011 -4.95492 0
M  V30 104 H 10.9486 -0.105615 -5.51899 0
M  V30 105 H 11.4256 1.03915 -4.2673 0
M  V30 106 H 12.0316 -0.63192 -4.20579 0
M  V30 107 N 10.3467 1.47872 -0.545128 0
M  V30 108 C 11.5927 2.02793 -0.0166104 0
M  V30 109 C 11.9257 1.41987 1.32489 0
M  V30 110 O 11.2007 0.571045 1.85928 0
M  V30 111 C 11.4837 3.59989 0.0893294 0
M  V30 112 C 11.3367 4.3125 -1.27841 0
M  V30 113 C 12.6557 4.32606 0.808724 0
M  V30 114 H 9.7747 0.736962 -0.00751035 0
M  V30 115 H 12.4167 1.76433 -0.705085 0
M  V30 116 H 10.5667 3.82579 0.675681 0
M  V30 117 H 12.2387 4.20035 -1.90704 0
M  V30 118 H 10.4817 3.92076 -1.85632 0
M  V30 119 H 11.1527 5.39736 -1.15713 0
M  V30 120 H 13.6287 4.14936 0.310992 0
M  V30 121 H 12.5047 5.42251 0.851782 0
M  V30 122 H 12.7657 4.00963 1.86229 0
M  V30 123 N 11.8248 0.280983 1.55075 0
M  V30 124 C 13.2358 -0.215629 1.85451 0
M  V30 125 C 13.5868 -1.54991 1.203 0
M  V30 126 O 12.7118 -2.10699 0.493435 0
M  V30 127 C 13.3068 -0.398026 3.36454 0
M  V30 128 C 11.8658 -0.838866 3.66933 0
M  V30 129 C 11.0128 0.064458 2.77225 0
M  V30 130 H 13.9638 0.502601 1.50531 0
M  V30 131 H 13.9848 -1.23569 3.59876 0
M  V30 132 H 13.4968 0.573241 3.83843 0
M  V30 133 H 11.5978 -1.8214 3.25048 0
M  V30 134 H 11.7108 -0.672123 4.74362 0
M  V30 135 H 10.0748 -0.452863 2.50642 0
M  V30 136 H 10.8578 1.03172 3.2743 0
M  V30 137 N 13.3029 -1.57598 0.00835791 0
M  V30 138 C 14.2329 -2.1198 -0.979113 0
M  V30 139 C 15.2139 -1.03091 -1.35301 0
M  V30 140 O 16.3989 -1.30818 -1.43528 0
M  V30 141 C 13.5289 -2.62995 -2.26828 0
M  V30 142 C 12.4829 -3.76485 -2.03576 0
M  V30 143 C 11.8089 -4.13846 -3.38579 0
M  V30 144 C 13.1089 -5.0342 -1.39161 0
M  V30 145 H 14.8029 -2.94738 -0.526281 0
M  V30 146 H 12.3489 -1.41783 -0.251704 0
M  V30 147 H 14.3019 -2.99669 -2.96271 0
M  V30 148 H 13.0259 -1.7737 -2.7424 0
M  V30 149 H 11.6849 -3.40217 -1.36557 0
M  V30 150 H 11.3329 -3.25232 -3.83709 0
M  V30 151 H 11.0329 -4.90312 -3.23834 0
M  V30 152 H 12.5569 -4.53086 -4.09323 0
M  V30 153 H 13.9709 -5.37812 -1.98573 0
M  V30 154 H 12.3679 -5.84746 -1.34878 0
M  V30 155 H 13.4379 -4.83548 -0.361868 0
M  V30 156 N 14.781 0.264519 -1.55364 0
M  V30 157 C 16.03 0.992812 -1.75574 0
M  V30 158 C 16.343 1.87142 -0.568979 0
M  V30 159 O 17.549 2.63513 -0.653682 0
M  V30 160 C 16.005 1.81519 -3.10771 0
M  V30 161 C 15.613 0.984839 -4.37041 0
M  V30 162 C 17.357 2.53727 -3.40327 0
M  V30 163 C 15.264 1.80209 -5.63275 0
M  V30 164 H 14.194 0.374412 -0.65447 0
M  V30 165 H 16.845 0.248138 -1.81815 0
M  V30 166 H 15.227 2.60115 -2.98591 0
M  V30 167 H 16.401 0.242455 -4.60162 0
M  V30 168 H 14.716 0.37691 -4.14691 0
M  V30 169 H 17.313 3.15292 -4.3185 0
M  V30 170 H 17.656 3.24447 -2.60845 0
M  V30 171 H 18.189 1.82156 -3.53644 0
M  V30 172 H 14.928 1.13896 -6.45529 0
M  V30 173 H 14.448 2.52022 -5.44284 0
M  V30 174 H 16.127 2.37364 -6.01887 0
M  V30 175 N 16.2591 1.48442 0.529413 0
M  V30 176 C 17.5051 1.5672 1.28711 0
M  V30 177 C 17.8381 0.2406 1.92704 0
M  V30 178 O 17.1131 -0.753454 1.79313 0
M  V30 179 C 17.3961 2.70587 2.37603 0
M  V30 180 C 17.2491 4.12953 1.78297 0
M  V30 181 C 18.5681 2.80212 3.39366 0
M  V30 182 H 15.6871 0.570474 0.466613 0
M  V30 183 H 18.3291 1.80617 0.589706 0
M  V30 184 H 16.4791 2.50342 2.97088 0
M  V30 185 H 18.1511 4.44639 1.22858 0
M  V30 186 H 16.3941 4.19927 1.0883 0
M  V30 187 H 17.0651 4.88448 2.57144 0
M  V30 188 H 19.5411 2.98553 2.89836 0
M  V30 189 H 18.4171 3.61611 4.12951 0
M  V30 190 H 18.6781 1.88393 3.99951 0
M  V30 191 N 17.7372 -0.778329 1.37039 0
M  V30 192 C 18.6702 -1.8984 1.26633 0
M  V30 193 C 19.6482 -1.61923 0.148197 0
M  V30 194 O 20.8322 -1.85742 0.321265 0
M  V30 195 C 17.9592 -3.24916 0.956403 0
M  V30 196 C 17.0052 -3.71752 2.09051 0
M  V30 197 S 17.8382 -3.86201 3.70957 0
M  V30 198 C 18.9942 -5.24135 3.42101 0
M  V30 199 H 19.2272 -1.98377 2.21436 0
M  V30 200 H 16.7602 -0.938738 1.22585 0
M  V30 201 H 18.7182 -4.02936 0.784409 0
M  V30 202 H 17.3792 -3.14089 0.0259713 0
M  V30 203 H 16.5722 -4.69661 1.8285 0
M  V30 204 H 16.1742 -3.00815 2.2223 0
M  V30 205 H 18.4662 -6.09086 2.96682 0
M  V30 206 H 19.4092 -5.55346 4.39314 0
M  V30 207 H 19.8172 -4.91761 2.77185 0
M  V30 208 N 19.2153 -1.21501 -1.00376 0
M  V30 209 C 20.4403 -1.05977 -1.78279 0
M  V30 210 C 20.8653 0.385994 -1.84097 0
M  V30 211 O 20.2233 1.27849 -1.28547 0
M  V30 212 C 20.2713 -1.66302 -3.19963 0
M  V30 213 O 19.3753 -0.909333 -4.0225 0
M  V30 214 H 18.7163 -0.372906 -0.549397 0
M  V30 215 H 21.2463 -1.6107 -1.26165 0
M  V30 216 H 21.2563 -1.70574 -3.70632 0
M  V30 217 H 19.9313 -2.71515 -3.15043 0
M  V30 218 H 18.5083 -0.941795 -3.60811 0
M  V30 219 N 20.6934 1.19889 -1.02296 0
M  V30 220 C 21.9394 1.89701 -0.717033 0
M  V30 221 C 22.2724 1.7905 0.751989 0
M  V30 222 O 21.5474 1.17891 1.547 0
M  V30 223 C 21.8304 3.40858 -1.16136 0
M  V30 224 C 21.6834 3.60411 -2.69117 0
M  V30 225 C 23.0024 4.33876 -0.737549 0
M  V30 226 H 20.1214 0.688874 -0.261957 0
M  V30 227 H 22.7634 1.41154 -1.27183 0
M  V30 228 H 20.9134 3.82335 -0.689342 0
M  V30 229 H 22.5854 3.28145 -3.2422 0
M  V30 230 H 20.8284 3.03665 -3.0979 0
M  V30 231 H 21.4994 4.66396 -2.95261 0
M  V30 232 H 23.9754 4.00081 -1.14344 0
M  V30 233 H 22.8514 5.38242 -1.0764 0
M  V30 234 H 23.1124 4.40628 0.360436 0
M  V30 235 N 22.1715 0.800033 1.35784 0
M  V30 236 C 23.4185 0.377342 1.98953 0
M  V30 237 C 23.7465 -1.05378 1.6348 0
M  V30 238 O 23.0015 -1.74459 0.886707 0
M  V30 239 C 23.3005 0.500276 3.53881 0
M  V30 240 C 22.9665 1.89375 4.09204 0
M  V30 241 C 21.6285 2.27499 4.24025 0
M  V30 242 C 23.9805 2.8057 4.39238 0
M  V30 243 C 21.3085 3.562 4.66195 0
M  V30 244 C 23.6605 4.0871 4.82844 0
M  V30 245 C 22.3245 4.46843 4.95871 0
M  V30 246 H 21.5945 0.138079 0.728021 0
M  V30 247 H 24.2415 1.01955 1.62103 0
M  V30 248 H 22.5465 -0.225405 3.91151 0
M  V30 249 H 24.2435 0.154097 4.00704 0
M  V30 250 H 20.8335 1.58753 3.98115 0
M  V30 251 H 25.0175 2.52367 4.27346 0
M  V30 252 H 20.2735 3.85602 4.74469 0
M  V30 253 H 24.4475 4.79481 5.05046 0
M  V30 254 H 22.0745 5.46623 5.28306 0
M  V30 255 N 23.6496 -1.47581 0.552962 0
M  V30 256 C 24.8956 -2.03369 0.0355807 0
M  V30 257 C 25.2506 -1.42016 -1.29805 0
M  V30 258 O 24.5436 -0.564917 -1.83083 0
M  V30 259 C 24.7376 -3.57199 -0.119728 0
M  V30 260 C 24.5666 -4.33468 1.1973 0
M  V30 261 C 23.3366 -4.7353 1.76345 0
M  V30 262 C 25.5346 -4.68866 2.11351 0
M  V30 263 N 23.5166 -5.34426 3.02097 0
M  V30 264 C 24.8876 -5.3002 3.21681 0
M  V30 265 C 26.9426 -4.50795 2.11397 0
M  V30 266 C 25.6456 -5.75011 4.32151 0
M  V30 267 C 27.6716 -4.96782 3.20876 0
M  V30 268 C 27.0336 -5.57981 4.29926 0
M  V30 269 H 23.1326 -0.780058 0.0550806 0
M  V30 270 H 25.7166 -1.80117 0.739315 0
M  V30 271 H 23.8876 -3.80227 -0.792579 0
M  V30 272 H 25.6196 -3.99627 -0.638792 0
M  V30 273 H 22.3746 -4.55352 1.30196 0
M  V30 274 H 22.7986 -5.69421 3.66182 0
M  V30 275 H 27.4406 -4.0284 1.28372 0
M  V30 276 H 25.1586 -6.21959 5.15938 0
M  V30 277 H 28.7446 -4.84573 3.21994 0
M  V30 278 H 27.6246 -5.92918 5.13243 0
M  V30 279 N 25.1277 -0.289203 -1.54924 0
M  V30 280 C 26.3757 0.322879 -1.99504 0
M  V30 281 C 26.6967 1.55313 -1.1791 0
M  V30 282 O 25.9667 1.94001 -0.272097 0
M  V30 283 H 24.5467 0.122291 -0.736922 0
M  V30 284 H 27.2087 -0.397802 -1.90797 0
M  V30 285 H 26.3047 0.603061 -3.06218 0
M  V30 286 N 26.6058 1.57591 -0.0167156 0
M  V30 287 C 27.8528 1.91283 0.664597 0
M  V30 288 C 28.1808 0.891949 1.72842 0
M  V30 289 O 27.4358 -0.100931 1.9544 0
M  V30 290 C 27.7348 3.3172 1.33029 0
M  V30 291 C 27.4008 4.4914 0.398047 0
M  V30 292 C 26.0628 4.80992 0.141421 0
M  V30 293 C 28.4148 5.20634 -0.242825 0
M  V30 294 C 25.7428 5.81703 -0.764092 0
M  V30 295 C 28.0948 6.22311 -1.13632 0
M  V30 296 C 26.7588 6.52611 -1.40196 0
M  V30 297 H 26.0288 0.699956 0.243193 0
M  V30 298 H 28.6758 1.9135 -0.0758267 0
M  V30 299 H 26.9808 3.27856 2.14517 0
M  V30 300 H 28.6778 3.55055 1.86379 0
M  V30 301 H 25.2678 4.24262 0.608238 0
M  V30 302 H 29.4518 4.96267 -0.0576019 0
M  V30 303 H 24.7078 6.03532 -0.977732 0
M  V30 304 H 28.8818 6.76834 -1.63917 0
M  V30 305 H 26.5088 7.30467 -2.10529 0
M  V30 306 N 28.0839 -0.256276 1.55502 0
M  V30 307 C 29.3299 -0.987079 1.77157 0
M  V30 308 C 29.6629 -1.85327 0.580315 0
M  V30 309 O 28.9379 -1.89874 -0.421686 0
M  V30 310 C 29.2209 -1.85553 3.08613 0
M  V30 311 C 29.0739 -1.01816 4.38125 0
M  V30 312 C 30.3929 -2.8397 3.36228 0
M  V30 313 H 27.5119 -0.357428 0.644526 0
M  V30 314 H 30.1539 -0.258239 1.88237 0
M  V30 315 H 28.3039 -2.47695 2.99298 0
M  V30 316 H 29.9759 -0.416159 4.59419 0
M  V30 317 H 28.2189 -0.322178 4.32602 0
M  V30 318 H 28.8899 -1.65939 5.26468 0
M  V30 319 H 31.3659 -2.31964 3.45445 0
M  V30 320 H 30.2419 -3.41864 4.29442 0
M  V30 321 H 30.5029 -3.59955 2.56681 0
M  V30 322 N 29.562 -1.4872 -0.521534 0
M  V30 323 C 30.81 -1.56857 -1.27437 0
M  V30 324 C 31.131 -0.247982 -1.93417 0
M  V30 325 O 30.401 0.731151 -1.81744 0
M  V30 326 H 28.981 -0.577885 -0.473347 0
M  V30 327 H 31.643 -1.85233 -0.606205 0
M  V30 328 H 30.739 -2.35402 -2.0492 0
M  V30 329 N 31.0401 0.771051 -1.3745 0
M  V30 330 C 32.2871 1.52963 -1.32697 0
M  V30 331 C 32.6151 1.94299 0.0883274 0
M  V30 332 O 31.8701 1.64397 1.0617 0
M  V30 333 C 32.1691 2.80676 -2.2126 0
M  V30 334 C 31.8351 2.58389 -3.69521 0
M  V30 335 C 30.4971 2.52019 -4.09927 0
M  V30 336 C 32.8491 2.38469 -4.63446 0
M  V30 337 C 30.1771 2.23721 -5.42371 0
M  V30 338 C 32.5291 2.11694 -5.96128 0
M  V30 339 C 31.1931 2.03769 -6.35637 0
M  V30 340 H 30.4631 0.559732 -0.485573 0
M  V30 341 H 33.1101 0.888083 -1.69662 0
M  V30 342 H 31.4151 3.49392 -1.77291 0
M  V30 343 H 33.1121 3.38557 -2.14895 0
M  V30 344 H 29.7021 2.6421 -3.37478 0
M  V30 345 H 33.8861 2.4238 -4.33089 0
M  V30 346 H 29.1421 2.16081 -5.71943 0
M  V30 347 H 33.3161 1.9528 -6.6846 0
M  V30 348 H 30.9431 1.81606 -7.38189 0
M  V30 349 N 32.5182 1.22032 0.997298 0
M  V30 350 C 33.4482 1.01065 2.10495 0
M  V30 351 C 34.4292 -0.0669542 1.69968 0
M  V30 352 O 35.6142 0.0943987 1.9397 0
M  V30 353 C 32.7442 0.582874 3.42374 0
M  V30 354 C 31.6982 1.60592 3.96729 0
M  V30 355 C 31.0242 1.03412 5.24605 0
M  V30 356 C 32.3242 2.99478 4.27914 0
M  V30 357 H 34.0182 1.93708 2.28292 0
M  V30 358 H 31.5642 0.932761 1.09707 0
M  V30 359 H 33.5172 0.423332 4.19268 0
M  V30 360 H 32.2412 -0.379213 3.24391 0
M  V30 361 H 30.9002 1.75316 3.21963 0
M  V30 362 H 30.5482 0.063518 5.0296 0
M  V30 363 H 30.2482 1.71754 5.61938 0
M  V30 364 H 31.7722 0.886066 6.04137 0
M  V30 365 H 33.1862 2.88153 4.95622 0
M  V30 366 H 31.5832 3.64903 4.76409 0
M  V30 367 H 32.6532 3.49742 3.3587 0
M  V30 368 N 33.9963 -1.19345 1.0293 0
M  V30 369 C 35.2423 -1.89318 0.727083 0
M  V30 370 C 35.5753 -1.79446 -0.742483 0
M  V30 371 O 34.8503 -1.1871 -1.54072 0
M  V30 372 C 35.1333 -3.40238 1.17942 0
M  V30 373 C 34.9863 -3.58979 2.71024 0
M  V30 374 C 36.3053 -4.33479 0.760548 0
M  V30 375 H 33.4243 -0.687475 0.265606 0
M  V30 376 H 36.0663 -1.40477 1.2793 0
M  V30 377 H 34.2163 -3.81964 0.709608 0
M  V30 378 H 35.8883 -3.26421 3.25955 0
M  V30 379 H 34.1313 -3.02018 3.11396 0
M  V30 380 H 34.8023 -4.64823 2.9773 0
M  V30 381 H 37.2783 -3.99469 1.16464 0
M  V30 382 H 36.1543 -5.37664 1.10493 0
M  V30 383 H 36.4153 -4.40813 -0.337063 0
M  V30 384 N 35.4744 -0.807222 -1.35358 0
M  V30 385 C 36.8854 -0.44876 -1.81226 0
M  V30 386 C 37.2364 1.02929 -1.67033 0
M  V30 387 O 36.3614 1.79991 -1.20133 0
M  V30 388 C 36.9564 -0.807774 -3.2903 0
M  V30 389 C 35.5154 -0.501901 -3.73039 0
M  V30 390 C 34.6624 -1.03304 -2.57339 0
M  V30 391 H 37.6134 -0.998808 -1.23327 0
M  V30 392 H 37.6344 -0.10554 -3.80354 0
M  V30 393 H 37.1464 -1.88357 -3.39328 0
M  V30 394 H 35.2474 0.565128 -3.68289 0
M  V30 395 H 35.3604 -1.03497 -4.67787 0
M  V30 396 H 33.7244 -0.455339 -2.50597 0
M  V30 397 H 34.5074 -2.11496 -2.70415 0
M  V30 398 N 36.9525 1.47285 -0.560781 0
M  V30 399 C 38.1985 2.03347 -0.0463654 0
M  V30 400 C 38.5535 1.42702 1.2905 0
M  V30 401 O 37.8465 0.574619 1.8278 0
M  V30 402 C 38.0405 3.57258 0.100784 0
M  V30 403 C 37.8695 4.32827 -1.22027 0
M  V30 404 C 36.6395 4.72588 -1.78854 0
M  V30 405 C 38.8375 4.67739 -2.13834 0
M  V30 406 N 36.8195 5.32816 -3.04927 0
M  V30 407 C 38.1905 5.28307 -3.24487 0
M  V30 408 C 40.2455 4.49667 -2.13784 0
M  V30 409 C 38.9485 5.72711 -4.35194 0
M  V30 410 C 40.9745 4.95073 -3.23506 0
M  V30 411 C 40.3365 5.55693 -4.32879 0
M  V30 412 H 36.4355 0.779755 -0.0592166 0
M  V30 413 H 39.0195 1.79723 -0.748857 0
M  V30 414 H 37.1905 3.80642 0.772404 0
M  V30 415 H 38.9225 3.9996 0.617589 0
M  V30 416 H 35.6775 4.54656 -1.32609 0
M  V30 417 H 36.1015 5.67471 -3.69197 0
M  V30 418 H 40.7435 4.02154 -1.30507 0
M  V30 419 H 38.4615 6.19214 -5.1923 0
M  V30 420 H 42.0475 4.82859 -3.24559 0
M  V30 421 H 40.9275 5.90188 -5.1638 0
M  V30 422 N 38.4306 0.297415 1.54768 0
M  V30 423 C 39.6776 -0.312913 2.00068 0
M  V30 424 C 40.0056 -1.54171 1.18582 0
M  V30 425 O 39.2606 -1.94108 0.249133 0
M  V30 426 C 39.5596 -0.717561 3.50123 0
M  V30 427 C 39.2256 0.409095 4.4904 0
M  V30 428 C 37.8876 0.718399 4.75807 0
M  V30 429 C 40.2396 1.16717 5.07963 0
M  V30 430 C 37.5676 1.78896 5.5876 0
M  V30 431 C 39.9196 2.22762 5.92081 0
M  V30 432 C 38.5836 2.54303 6.1716 0
M  V30 433 H 37.8536 -0.114503 0.7321 0
M  V30 434 H 40.5006 0.415767 1.86932 0
M  V30 435 H 38.8056 -1.52627 3.60849 0
M  V30 436 H 40.5026 -1.20091 3.82595 0
M  V30 437 H 37.0926 0.157918 4.28309 0
M  V30 438 H 41.2766 0.941466 4.87289 0
M  V30 439 H 36.5326 2.0381 5.7643 0
M  V30 440 H 40.7066 2.81962 6.36765 0
M  V30 441 H 38.3336 3.3739 6.81229 0
M  V30 442 N 39.9087 -1.5758 0.0250728 0
M  V30 443 C 41.1577 -1.90811 -0.653767 0
M  V30 444 C 41.4707 -0.90273 -1.73523 0
M  V30 445 O 42.6767 -1.12614 -2.47043 0
M  V30 446 C 41.1327 -3.38804 -1.21409 0
M  V30 447 C 40.7407 -4.47692 -0.166126 0
M  V30 448 C 42.4847 -3.81108 -1.86967 0
M  V30 449 C 40.3917 -5.86779 -0.737856 0
M  V30 450 H 39.3217 -0.712063 -0.247956 0
M  V30 451 H 41.9727 -1.83281 0.0897137 0
M  V30 452 H 40.3547 -3.41252 -2.00905 0
M  V30 453 H 41.5287 -4.56797 0.606079 0
M  V30 454 H 39.8437 -4.14565 0.390466 0
M  V30 455 H 42.4407 -4.82375 -2.30692 0
M  V30 456 H 42.7837 -3.15953 -2.71071 0
M  V30 457 H 43.3167 -3.81065 -1.14167 0
M  V30 458 H 40.0557 -6.55468 0.0649577 0
M  V30 459 H 39.5757 -5.81288 -1.47864 0
M  V30 460 H 41.2547 -6.35223 -1.22884 0
M  V30 461 N 41.3868 0.248026 -1.55636 0
M  V30 462 C 42.7978 0.817177 -1.67866 0
M  V30 463 C 43.1488 1.86069 -0.622322 0
M  V30 464 O 42.2738 2.15157 0.231618 0
M  V30 465 C 42.8688 1.489 -3.04326 0
M  V30 466 C 41.4278 2.00587 -3.185 0
M  V30 467 C 40.5748 0.856573 -2.63739 0
M  V30 468 H 43.5258 0.0238579 -1.58682 0
M  V30 469 H 43.5468 2.35698 -2.98708 0
M  V30 470 H 43.0588 0.729279 -3.81186 0
M  V30 471 H 41.1598 2.79443 -2.4646 0
M  V30 472 H 41.2728 2.20402 -4.25393 0
M  V30 473 H 39.6368 1.25678 -2.21534 0
M  V30 474 H 40.4198 0.109953 -3.43124 0
M  V30 475 N 42.8649 1.48995 0.513639 0
M  V30 476 C 43.8119 1.6473 1.61656 0
M  V30 477 C 44.7819 0.488984 1.58739 0
M  V30 478 O 45.9669 0.714478 1.76918 0
M  V30 479 C 43.1069 1.7082 2.99858 0
M  V30 480 C 42.2199 2.9787 3.12885 0
M  V30 481 C 41.3549 2.95017 4.41744 0
M  V30 482 C 40.3939 4.16702 4.48359 0
M  V30 483 N 39.5309 4.11832 5.68629 0
M  V30 484 H 44.3709 2.58909 1.47547 0
M  V30 485 H 41.9079 1.28382 0.71808 0
M  V30 486 H 43.8659 1.72331 3.79944 0
M  V30 487 H 42.4959 0.801181 3.12699 0
M  V30 488 H 41.5479 3.06029 2.25944 0
M  V30 489 H 42.8599 3.8786 3.13633 0
M  V30 490 H 42.0139 2.95021 5.30139 0
M  V30 491 H 40.7529 2.02784 4.43542 0
M  V30 492 H 39.7579 4.16955 3.58369 0
M  V30 493 H 40.9829 5.10113 4.48287 0
M  V30 494 H 38.9289 3.22428 5.71293 0
M  V30 495 H 38.8459 4.95543 5.7094 0
M  V30 496 H 40.1139 4.1592 6.59266 0
M  V30 497 N 44.343 -0.763751 1.37857 0
M  V30 498 C 45.591 -1.51957 1.33243 0
M  V30 499 C 45.912 -1.94835 -0.0801709 0
M  V30 500 O 45.182 -1.66894 -1.02582 0
M  V30 501 H 43.762 -0.563626 0.49024 0
M  V30 502 H 46.424 -0.908504 1.7243 0
M  V30 503 H 45.52 -2.41523 1.97669 0
M  V30 504 N 45.8211 -1.22559 -0.990812 0
M  V30 505 C 47.2321 -1.04791 -1.54518 0
M  V30 506 C 47.5831 0.387998 -1.92325 0
M  V30 507 O 46.7081 1.27328 -1.74976 0
M  V30 508 C 47.3031 -1.896 -2.80779 0
M  V30 509 C 45.8621 -1.76124 -3.32652 0
M  V30 510 C 45.0091 -1.8594 -2.05722 0
M  V30 511 H 47.9601 -1.36374 -0.811662 0
M  V30 512 H 47.9811 -1.41464 -3.53225 0
M  V30 513 H 47.4931 -2.94101 -2.53231 0
M  V30 514 H 45.5941 -0.743643 -3.65104 0
M  V30 515 H 45.7071 -2.58913 -4.03114 0
M  V30 516 H 44.0711 -1.29403 -2.19379 0
M  V30 517 H 44.8541 -2.91976 -1.80568 0
M  V30 518 N 47.2992 1.18797 -1.03562 0
M  V30 519 C 48.2472 2.24297 -0.615905 0
M  V30 520 C 49.2412 1.65643 0.354808 0
M  V30 521 O 50.4472 1.78618 0.22265 0
M  V30 522 H 46.8222 0.729909 -0.180934 0
M  V30 523 H 48.7932 2.5701 -1.5162 0
M  V30 524 C 47.5422 3.47698 0.0104735 0
M  V30 525 H 46.8652 3.93125 -0.727509 0
M  V30 526 H 48.3052 4.23159 0.266995 0
M  V30 527 C 46.7642 3.12489 1.25905 0
M  V30 528 O 47.2942 3.25761 2.35038 0
M  V30 529 N 45.5002 2.6686 1.15039 0
M  V30 530 H 45.0472 2.56261 0.262328 0
M  V30 531 H 45.0052 2.43674 1.98672 0
M  V30 532 N 48.7773 0.814389 1.34928 0
M  V30 533 C 50.1933 0.499084 1.51596 0
M  V30 534 C 50.3933 -0.978319 1.76157 0
M  V30 535 O 49.4493 -1.76309 1.80752 0
M  V30 536 C 50.7623 1.35121 2.68631 0
M  V30 537 C 52.3103 1.34746 2.82511 0
M  V30 538 C 52.7853 2.18388 4.0258 0
M  V30 539 N 54.2763 2.15966 4.09772 0
M  V30 540 C 55.0113 2.77437 5.01813 0
M  V30 541 N 54.5073 3.47866 5.99134 0
M  V30 542 N 56.3003 2.67037 4.94619 0
M  V30 543 H 48.4513 1.7711 1.17243 0
M  V30 544 H 50.7143 0.754256 0.574284 0
M  V30 545 H 50.4203 2.40001 2.57085 0
M  V30 546 H 50.2943 1.00991 3.63429 0
M  V30 547 H 52.6813 0.30648 2.93504 0
M  V30 548 H 52.7623 1.72869 1.88547 0
M  V30 549 H 52.4063 3.2253 3.92347 0
M  V30 550 H 52.3363 1.77621 4.9574 0
M  V30 551 H 54.8273 1.64729 3.40107 0
M  V30 552 H 55.1403 3.92038 6.65977 0
M  V30 553 H 53.4853 3.51972 5.99284 0
M  V30 554 H 56.6763 2.11597 4.17546 0
M  V30 555 H 56.8493 3.15232 5.66156 0
M  V30 556 N 50.2554 -1.46986 0.568584 0
M  V30 557 C 51.5034 -2.02041 0.0487022 0
M  V30 558 C 51.8244 -1.44408 -1.31039 0
M  V30 559 O 51.0944 -0.623477 -1.85714 0
M  V30 560 H 49.6744 -0.746849 0.015014 0
M  V30 561 H 52.3364 -1.80257 0.741168 0
M  V30 562 H 51.4324 -3.12085 -0.0308961 0
M  V30 563 N 51.7335 -0.305618 -1.54608 0
M  V30 564 C 52.9795 0.302746 -2.00528 0
M  V30 565 C 53.3125 1.53184 -1.19367 0
M  V30 566 O 52.5875 1.92598 -0.271321 0
M  V30 567 C 52.8705 0.654756 -3.54097 0
M  V30 568 C 52.7235 -0.583793 -4.45995 0
M  V30 569 C 54.0425 1.47947 -4.14487 0
M  V30 570 H 51.1615 0.108564 -0.72896 0
M  V30 571 H 53.8035 -0.418634 -1.85331 0
M  V30 572 H 51.9535 1.26935 -3.67178 0
M  V30 573 H 53.6255 -1.22224 -4.44814 0
M  V30 574 H 51.8685 -1.21615 -4.16404 0
M  V30 575 H 52.5395 -0.293287 -5.5122 0
M  V30 576 H 55.0155 0.96013 -4.04871 0
M  V30 577 H 53.8915 1.69454 -5.22088 0
M  V30 578 H 54.1525 2.47011 -3.66658 0
M  V30 579 N 53.2116 1.57565 -0.0334293 0
M  V30 580 C 54.4606 1.91155 0.643639 0
M  V30 581 C 54.7736 0.91192 1.73042 0
M  V30 582 O 55.9796 1.13923 2.46442 0
M  V30 583 C 54.4356 3.39443 1.1961 0
M  V30 584 C 54.0436 4.47774 0.142381 0
M  V30 585 C 55.7876 3.82094 1.84944 0
M  V30 586 C 53.6946 5.87162 0.706727 0
M  V30 587 H 52.6246 0.713368 0.244176 0
M  V30 588 H 55.2756 1.8323 -0.0994323 0
M  V30 589 H 53.6576 3.42313 1.99092 0
M  V30 590 H 54.8316 4.56469 -0.630296 0
M  V30 591 H 53.1466 4.14352 -0.412446 0
M  V30 592 H 55.7436 4.83591 2.2813 0
M  V30 593 H 56.0866 3.17386 2.69392 0
M  V30 594 H 56.6196 3.81665 1.12145 0
M  V30 595 H 53.3586 6.55424 -0.0997178 0
M  V30 596 H 52.8786 5.82064 1.44779 0
M  V30 597 H 54.5576 6.35866 1.19514 0
M  V30 598 N 54.6897 -0.239769 1.55765 0
M  V30 599 C 55.9387 -0.964754 1.77131 0
M  V30 600 C 56.2517 -1.86213 0.59868 0
M  V30 601 O 57.4577 -2.6244 0.695522 0
M  V30 602 C 55.9137 -1.76552 3.1362 0
M  V30 603 C 55.5217 -0.915185 4.38553 0
M  V30 604 C 57.2657 -2.48281 3.44321 0
M  V30 605 C 55.1727 -1.71225 5.66071 0
M  V30 606 H 54.1027 -0.363953 0.660344 0
M  V30 607 H 56.7537 -0.219181 1.82186 0
M  V30 608 H 55.1357 -2.55331 3.02691 0
M  V30 609 H 56.3097 -0.169217 4.60489 0
M  V30 610 H 54.6247 -0.310889 4.15238 0
M  V30 611 H 57.2217 -3.08382 4.36812 0
M  V30 612 H 57.5647 -3.20256 2.65973 0
M  V30 613 H 58.0977 -1.76507 3.56497 0
M  V30 614 H 54.8367 -1.03612 6.4726 0
M  V30 615 H 54.3567 -2.43331 5.48224 0
M  V30 616 H 56.0357 -2.27758 6.05587 0
M  V30 617 N 56.1678 -1.49265 -0.50573 0
M  V30 618 C 57.3958 -1.62215 -1.28429 0
M  V30 619 C 57.8108 -0.291697 -1.86533 0
M  V30 620 O 57.1678 0.722233 -1.67601 0
M  V30 621 C 57.2188 -2.68735 -2.41793 0
M  V30 622 O 56.9398 -3.96619 -1.86078 0
M  V30 623 C 58.4408 -2.92346 -3.3324 0
M  V30 624 H 55.6608 -0.546239 -0.389697 0
M  V30 625 H 58.2048 -1.95265 -0.607609 0
M  V30 626 H 56.3598 -2.38476 -3.053 0
M  V30 627 H 56.7738 -4.55256 -2.60465 0
M  V30 628 H 58.2478 -3.70623 -4.09075 0
M  V30 629 H 58.7248 -2.02081 -3.89948 0
M  V30 630 H 59.3308 -3.24003 -2.75503 0
M  V30 631 N 57.6459 0.756429 -1.3826 0
M  V30 632 C 58.5789 1.87802 -1.29637 0
M  V30 633 C 59.5569 1.61667 -0.173939 0
M  V30 634 O 60.7409 1.85208 -0.350775 0
M  V30 635 C 57.8679 3.23354 -1.00797 0
M  V30 636 C 56.9139 3.68379 -2.14939 0
M  V30 637 S 57.7469 3.8025 -3.77054 0
M  V30 638 C 58.9029 5.18626 -3.50396 0
M  V30 639 H 59.1359 1.94829 -2.24564 0
M  V30 640 H 56.6689 0.919117 -1.24063 0
M  V30 641 H 58.6269 4.01637 -0.848413 0
M  V30 642 H 57.2879 3.14008 -0.0759369 0
M  V30 643 H 56.4809 4.66693 -1.90299 0
M  V30 644 H 56.0829 2.97242 -2.26988 0
M  V30 645 H 58.3749 6.04289 -3.06334 0
M  V30 646 H 59.3179 5.48286 -4.48094 0
M  V30 647 H 59.7259 4.87289 -2.84973 0
M  V30 648 N 59.124 1.23083 0.984299 0
M  V30 649 C 60.054 1.03292 2.09411 0
M  V30 650 C 61.035 -0.048923 1.7003 0
M  V30 651 O 62.22 0.114967 1.93859 0
M  V30 652 C 59.35 0.619155 3.41736 0
M  V30 653 C 58.304 1.64791 3.95004 0
M  V30 654 C 57.63 1.0897 5.23478 0
M  V30 655 C 58.93 3.03999 4.24714 0
M  V30 656 H 60.624 1.96119 2.26225 0
M  V30 657 H 58.17 0.944344 1.08711 0
M  V30 658 H 60.123 0.467777 4.18796 0
M  V30 659 H 58.847 -0.344786 3.24775 0
M  V30 660 H 57.506 1.78721 3.20085 0
M  V30 661 H 57.154 0.11686 5.02864 0
M  V30 662 H 56.854 1.77704 5.60085 0
M  V30 663 H 58.378 0.950093 6.03163 0
M  V30 664 H 59.792 2.93393 4.92538 0
M  V30 665 H 58.189 3.69936 4.72512 0
M  V30 666 H 59.259 3.53285 3.32142 0
M  V30 667 N 60.6021 -1.18246 1.0419 0
M  V30 668 C 61.8481 -1.88536 0.747122 0
M  V30 669 C 62.1811 -1.80223 -0.723409 0
M  V30 670 O 61.4561 -1.20337 -1.52804 0
M  V30 671 C 61.7391 -3.38968 1.21544 0
M  V30 672 C 61.5921 -3.56084 2.74816 0
M  V30 673 C 62.9111 -4.32648 0.806482 0
M  V30 674 H 60.0301 -0.684619 0.272883 0
M  V30 675 H 62.6721 -1.39113 1.29413 0
M  V30 676 H 60.8221 -3.8119 0.750081 0
M  V30 677 H 62.4941 -3.22946 3.29399 0
M  V30 678 H 60.7371 -2.98699 3.14582 0
M  V30 679 H 61.4081 -4.61639 3.02644 0
M  V30 680 H 63.8841 -3.98211 1.20695 0
M  V30 681 H 62.7601 -5.36462 1.1619 0
M  V30 682 H 63.0211 -4.41146 -0.29029 0
M  V30 683 N 62.0802 -0.821533 -1.34494 0
M  V30 684 C 63.3082 -0.421884 -2.02553 0
M  V30 685 C 63.7232 0.971745 -1.61872 0
M  V30 686 O 63.0802 1.62864 -0.823496 0
M  V30 687 C 63.1312 -0.51285 -3.57844 0
M  V30 688 O 62.8522 -1.85155 -3.97051 0
M  V30 689 C 64.3532 -0.107921 -4.43169 0
M  V30 690 H 61.5732 -0.169482 -0.649243 0
M  V30 691 H 64.1172 -1.1093 -1.71798 0
M  V30 692 H 62.2722 0.126474 -3.87193 0
M  V30 693 H 62.6862 -1.82482 -4.91732 0
M  V30 694 H 64.1602 -0.222657 -5.51551 0
M  V30 695 H 64.6372 0.948401 -4.28838 0
M  V30 696 H 65.2432 -0.720989 -4.19144 0
M  V30 697 N 63.5583 1.46682 -0.576371 0
M  V30 698 C 64.7983 2.04306 -0.0621356 0
M  V30 699 C 65.1623 1.4389 1.2712 0
M  V30 700 O 66.3633 1.92675 1.87429 0
M  V30 701 C 64.6343 3.57399 0.00927922 0
M  V30 702 S 66.1933 4.36309 0.466859 0
M  V30 703 H 63.0113 0.710167 -0.0344016 0
M  V30 704 H 65.6133 1.79807 -0.767437 0
M  V30 705 H 64.3173 3.98889 -0.965178 0
M  V30 706 H 63.8483 3.86424 0.737547 0
M  V30 707 H 65.8633 4.6533 1.72287 0
M  V30 708 N 65.0364 0.313813 1.54444 0
M  V30 709 C 66.2614 -0.296681 2.05267 0
M  V30 710 C 66.6864 -1.45757 1.18897 0
M  V30 711 O 66.0444 -1.80239 0.195886 0
M  V30 712 C 66.0924 -0.71831 3.53373 0
M  V30 713 O 65.1964 -1.82175 3.69981 0
M  V30 714 H 64.5374 -0.0554061 0.661684 0
M  V30 715 H 67.0674 0.459387 1.99376 0
M  V30 716 H 67.0774 -1.00364 3.95463 0
M  V30 717 H 65.7524 0.130821 4.15694 0
M  V30 718 H 64.3294 -1.53598 3.39797 0
M  V30 719 N 66.5145 -1.57545 0.0417849 0
M  V30 720 C 67.7605 -1.92601 -0.635021 0
M  V30 721 C 68.0935 -0.919627 -1.71045 0
M  V30 722 O 67.3685 0.0557892 -1.9442 0
M  V30 723 C 67.6515 -3.38085 -1.23979 0
M  V30 724 C 67.5045 -4.49467 -0.173057 0
M  V30 725 C 68.8235 -3.83776 -2.15416 0
M  V30 726 H 65.9425 -0.700397 -0.229374 0
M  V30 727 H 68.5845 -1.89728 0.101633 0
M  V30 728 H 66.7345 -3.40664 -1.86762 0
M  V30 729 H 68.4065 -4.59018 0.458312 0
M  V30 730 H 66.6495 -4.30909 0.499996 0
M  V30 731 H 67.3205 -5.48323 -0.636054 0
M  V30 732 H 69.7965 -3.83013 -1.62605 0
M  V30 733 H 68.6725 -4.8624 -2.54679 0
M  V30 734 H 68.9335 -3.19998 -3.05047 0
M  V30 735 N 67.9926 0.231505 -1.5589 0
M  V30 736 C 69.2326 0.964533 -1.80211 0
M  V30 737 C 69.5966 1.81926 -0.613744 0
M  V30 738 O 70.7976 2.58526 -0.736045 0
M  V30 739 C 69.0686 1.78956 -3.09369 0
M  V30 740 S 70.6276 2.57959 -3.54969 0
M  V30 741 H 67.4456 0.324173 -0.632798 0
M  V30 742 H 70.0476 0.230985 -1.94131 0
M  V30 743 H 68.7516 1.15161 -3.93911 0
M  V30 744 H 68.2826 2.56559 -2.9823 0
M  V30 745 H 70.2976 3.81309 -3.17519 0
M  V30 746 N 69.4707 1.49531 0.497807 0
M  V30 747 C 70.7107 1.60799 1.26187 0
M  V30 748 C 71.0747 0.289627 1.89803 0
M  V30 749 O 72.2757 0.277512 2.67364 0
M  V30 750 C 70.5467 2.73729 2.29798 0
M  V30 751 S 72.1057 3.04968 3.155 0
M  V30 752 H 68.9237 0.567145 0.428798 0
M  V30 753 H 71.5257 1.87204 0.563477 0
M  V30 754 H 70.2297 3.68036 1.81597 0
M  V30 755 H 69.7607 2.49328 3.04301 0
M  V30 756 H 71.7757 2.46735 4.30507 0
M  V30 757 N 70.9488 -0.749086 1.3866 0
M  V30 758 C 72.1788 -1.53611 1.38157 0
M  V30 759 C 72.5868 -1.89177 -0.0293595 0
M  V30 760 O 71.9298 -1.53606 -1.00752 0
M  V30 761 C 71.9918 -2.86087 2.17702 0
M  V30 762 C 71.6558 -2.73034 3.66472 0
M  V30 763 C 72.6528 -2.42526 4.59866 0
M  V30 764 C 70.3378 -2.90345 4.09884 0
M  V30 765 C 72.3318 -2.29492 5.94653 0
M  V30 766 C 70.0188 -2.7693 5.4475 0
M  V30 767 C 71.0168 -2.46547 6.36949 0
M  V30 768 O 70.7048 -2.33199 7.69333 0
M  V30 769 H 70.4368 -0.481773 0.474205 0
M  V30 770 H 72.9908 -0.934465 1.82912 0
M  V30 771 H 71.2208 -3.48458 1.67672 0
M  V30 772 H 72.9098 -3.47625 2.09551 0
M  V30 773 H 73.6758 -2.28816 4.27631 0
M  V30 774 H 69.5548 -3.1299 3.38464 0
M  V30 775 H 73.0988 -2.05698 6.66584 0
M  V30 776 H 68.9958 -2.90215 5.76581 0
M  V30 777 H 69.7638 -2.48376 7.79905 0
M  V30 778 N 72.4269 -1.23603 -0.977757 0
M  V30 779 C 73.3569 -1.04401 -2.0886 0
M  V30 780 C 74.3379 0.0399052 -1.70053 0
M  V30 781 O 75.5229 -0.125246 -1.93796 0
M  V30 782 C 72.6529 -0.637269 -3.41403 0
M  V30 783 C 71.6069 -1.66883 -3.94124 0
M  V30 784 C 70.9329 -1.11745 -5.22893 0
M  V30 785 C 72.2329 -3.06247 -4.23096 0
M  V30 786 H 73.9269 -1.97316 -2.25182 0
M  V30 787 H 71.4729 -0.950096 -1.08209 0
M  V30 788 H 73.4259 -0.48998 -4.18542 0
M  V30 789 H 72.1499 0.327557 -3.24953 0
M  V30 790 H 70.8089 -1.80416 -3.19133 0
M  V30 791 H 70.4569 -0.143527 -5.02795 0
M  V30 792 H 70.1569 -1.80672 -5.59134 0
M  V30 793 H 71.6809 -0.982067 -6.02651 0
M  V30 794 H 73.0949 -2.96001 -4.90975 0
M  V30 795 H 71.4919 -3.72436 -4.70544 0
M  V30 796 H 72.5619 -3.55041 -3.30263 0
M  V30 797 N 73.905 1.17692 -1.04816 0
M  V30 798 C 75.152 1.87859 -0.75599 0
M  V30 799 C 75.48 1.80812 0.716752 0
M  V30 800 O 74.735 1.20819 1.53952 0
M  V30 801 C 75.034 3.37462 -1.17703 0
M  V30 802 C 74.7 3.64713 -2.65133 0
M  V30 803 C 73.362 3.71859 -3.05408 0
M  V30 804 C 75.714 3.76492 -3.60421 0
M  V30 805 C 73.042 3.88271 -4.39843 0
M  V30 806 C 75.394 3.94421 -4.94585 0
M  V30 807 C 74.058 3.99806 -5.3452 0
M  V30 808 H 73.328 0.687425 -0.276636 0
M  V30 809 H 75.975 1.39255 -1.31455 0
M  V30 810 H 74.28 3.88097 -0.537395 0
M  V30 811 H 75.977 3.90109 -0.928218 0
M  V30 812 H 72.567 3.59772 -2.32942 0
M  V30 813 H 76.751 3.70295 -3.30447 0
M  V30 814 H 72.007 3.90687 -4.70291 0
M  V30 815 H 76.181 4.02477 -5.68318 0
M  V30 816 H 73.808 4.12276 -6.38696 0
M  V30 817 N 75.3831 0.828654 1.34056 0
M  V30 818 C 76.6291 0.429279 1.98818 0
M  V30 819 C 76.9841 -0.998011 1.64492 0
M  V30 820 O 76.2771 -1.68652 0.909228 0
M  V30 821 C 76.4711 0.575226 3.52741 0
M  V30 822 C 76.3001 2.01515 4.02022 0
M  V30 823 C 75.0701 2.64825 4.30344 0
M  V30 824 C 77.2681 2.98261 4.18981 0
M  V30 825 N 75.2501 3.99998 4.65698 0
M  V30 826 C 76.6211 4.18356 4.57578 0
M  V30 827 C 78.6761 2.94802 4.01243 0
M  V30 828 C 77.3791 5.35454 4.80293 0
M  V30 829 C 79.4051 4.11121 4.25128 0
M  V30 830 C 78.7671 5.29969 4.64018 0
M  V30 831 H 74.8661 0.205304 0.754569 0
M  V30 832 H 77.4501 1.07457 1.62361 0
M  V30 833 H 75.6211 -0.0401962 3.88379 0
M  V30 834 H 77.3531 0.148292 4.04428 0
M  V30 835 H 74.1081 2.16027 4.21461 0
M  V30 836 H 74.5321 4.69653 4.87601 0
M  V30 837 H 79.1741 2.04054 3.70299 0
M  V30 838 H 76.8921 6.26755 5.10102 0
M  V30 839 H 80.4781 4.0985 4.12934 0
M  V30 840 H 79.3581 6.18479 4.82134 0
M  V30 841 N 76.8612 -1.46375 0.584142 0
M  V30 842 C 77.7912 -2.33103 -0.136037 0
M  V30 843 C 78.7722 -1.45431 -0.882255 0
M  V30 844 O 79.9572 -1.74246 -0.857434 0
M  V30 845 C 77.0872 -3.27731 -1.14933 0
M  V30 846 C 76.0412 -4.24855 -0.517862 0
M  V30 847 C 75.3672 -5.09001 -1.63773 0
M  V30 848 C 76.6672 -5.19439 0.545886 0
M  V30 849 H 78.3612 -2.93568 0.588086 0
M  V30 850 H 75.9072 -1.41166 0.284259 0
M  V30 851 H 77.8602 -3.87261 -1.66153 0
M  V30 852 H 76.5842 -2.65377 -1.90375 0
M  V30 853 H 75.2432 -3.6659 -0.0267361 0
M  V30 854 H 74.8912 -4.43031 -2.38185 0
M  V30 855 H 74.5912 -5.74777 -1.22085 0
M  V30 856 H 76.1152 -5.71396 -2.15266 0
M  V30 857 H 77.5292 -5.73177 0.118704 0
M  V30 858 H 75.9262 -5.93566 0.88317 0
M  V30 859 H 76.9962 -4.63285 1.43162 0
M  V30 860 N 78.3393 -0.321999 -1.54275 0
M  V30 861 C 79.5883 0.281931 -1.9972 0
M  V30 862 C 79.9013 1.53369 -1.21397 0
M  V30 863 O 81.1073 2.21352 -1.57211 0
M  V30 864 C 79.5633 0.5529 -3.55628 0
M  V30 865 C 79.1713 -0.681721 -4.42783 0
M  V30 866 C 80.9153 1.11687 -4.09544 0
M  V30 867 C 78.8223 -0.382742 -5.9016 0
M  V30 868 H 77.7523 0.109124 -0.746062 0
M  V30 869 H 80.4033 -0.43398 -1.78294 0
M  V30 870 H 78.7853 1.32896 -3.73035 0
M  V30 871 H 79.9593 -1.45723 -4.37151 0
M  V30 872 H 78.2743 -1.1658 -3.99748 0
M  V30 873 H 80.8713 1.35515 -5.17242 0
M  V30 874 H 81.2143 2.06575 -3.61431 0
M  V30 875 H 81.7473 0.402032 -3.95763 0
M  V30 876 H 78.4863 -1.30076 -6.42464 0
M  V30 877 H 78.0063 0.355094 -5.98748 0
M  V30 878 H 79.6853 0.00800157 -6.47 0
M  V30 879 N 79.8174 1.5752 -0.0501392 0
M  V30 880 C 80.7804 2.1037 0.909786 0
M  V30 881 C 81.7804 1.02308 1.24056 0
M  V30 882 O 82.9704 1.28385 1.17741 0
M  V30 883 C 80.1024 2.58708 2.21998 0
M  V30 884 H 81.2954 2.96479 0.451665 0
M  V30 885 H 78.8484 1.55038 0.198248 0
M  V30 886 H 79.5834 1.75989 2.72394 0
M  V30 887 H 79.3684 3.37675 1.99295 0
M  V30 888 H 80.8584 2.99747 2.9076 0
M  V30 889 N 81.2955 -0.223234 1.56011 0
M  V30 890 C 82.5445 -0.945912 1.78144 0
M  V30 891 C 82.8575 -1.85567 0.618396 0
M  V30 892 O 84.0635 -2.61688 0.723318 0
M  V30 893 C 82.5195 -1.73216 3.15475 0
M  V30 894 C 82.1275 -0.868619 4.39499 0
M  V30 895 C 83.8715 -2.44615 3.46935 0
M  V30 896 C 81.7785 -1.65212 5.67855 0
M  V30 897 H 80.7085 -0.356929 0.664167 0
M  V30 898 H 83.3595 -0.199845 1.82409 0
M  V30 899 H 81.7415 -2.52107 3.05382 0
M  V30 900 H 82.9155 -0.120366 4.60643 0
M  V30 901 H 81.2305 -0.26683 4.15544 0
M  V30 902 H 83.8275 -3.03732 4.40058 0
M  V30 903 H 84.1705 -3.17417 2.69355 0
M  V30 904 H 84.7035 -1.72715 3.58349 0
M  V30 905 H 81.4425 -0.967407 6.48322 0
M  V30 906 H 80.9625 -2.37503 5.50774 0
M  V30 907 H 82.6415 -2.21322 6.07968 0
M  V30 908 N 82.7736 -1.49793 -0.48987 0
M  V30 909 C 83.7036 -1.70201 -1.59856 0
M  V30 910 C 84.6846 -0.55076 -1.60937 0
M  V30 911 O 85.8696 -0.787841 -1.77501 0
M  V30 912 C 82.9996 -1.77882 -2.98287 0
M  V30 913 C 81.9536 -2.92907 -3.12073 0
M  V30 914 C 81.2796 -2.85712 -4.51965 0
M  V30 915 C 82.5796 -4.3369 -2.91051 0
M  V30 916 H 84.2736 -2.63025 -1.43032 0
M  V30 917 H 81.8196 -1.26574 -0.686664 0
M  V30 918 H 83.7726 -1.90744 -3.75759 0
M  V30 919 H 82.4966 -0.816653 -3.16225 0
M  V30 920 H 81.1556 -2.79665 -2.37029 0
M  V30 921 H 80.8036 -1.8738 -4.66795 0
M  V30 922 H 80.5036 -3.62921 -4.62128 0
M  V30 923 H 82.0276 -3.00598 -5.31482 0
M  V30 924 H 83.4416 -4.47555 -3.58284 0
M  V30 925 H 81.8386 -5.12205 -3.12675 0
M  V30 926 H 82.9086 -4.47362 -1.87071 0
M  V30 927 N 84.2517 0.741722 -1.39055 0
M  V30 928 C 85.2147 1.83733 -1.37021 0
M  V30 929 C 86.2147 1.58542 -0.268534 0
M  V30 930 O 87.4047 1.66067 -0.526076 0
M  V30 931 C 84.5367 3.2141 -1.13617 0
M  V30 932 H 85.7297 1.86941 -2.34506 0
M  V30 933 H 83.2827 0.944676 -1.24521 0
M  V30 934 H 84.0177 3.23865 -0.167863 0
M  V30 935 H 83.8027 3.4109 -1.93391 0
M  V30 936 H 85.2927 4.01477 -1.14918 0
M  V30 937 N 85.7298 1.2412 0.971189 0
M  V30 938 C 86.6618 0.988349 2.06795 0
M  V30 939 C 87.6748 -0.0409541 1.62748 0
M  V30 940 O 88.8638 0.195673 1.77424 0
M  V30 941 C 85.9638 0.469023 3.35639 0
M  V30 942 C 85.1368 1.56065 4.08611 0
M  V30 943 C 84.1958 1.04458 5.15728 0
M  V30 944 O 83.2218 1.73553 5.42096 0
M  V30 945 N 84.4238 -0.122817 5.8037 0
M  V30 946 H 87.1888 1.93265 2.29061 0
M  V30 947 H 84.7498 1.15102 1.13856 0
M  V30 948 H 86.7418 0.108613 4.04554 0
M  V30 949 H 85.3118 -0.380919 3.1027 0
M  V30 950 H 84.5318 2.09341 3.34021 0
M  V30 951 H 85.8198 2.29449 4.54126 0
M  V30 952 H 85.2178 -0.700563 5.61345 0
M  V30 953 H 83.7748 -0.424404 6.50417 0
M  V30 954 N 87.2079 -1.17134 1.05439 0
M  V30 955 C 88.1379 -2.2342 0.678649 0
M  V30 956 C 89.1189 -1.66971 -0.32476 0
M  V30 957 O 90.3039 -1.93149 -0.201802 0
M  V30 958 C 87.4339 -3.47256 0.0552099 0
M  V30 959 C 86.3879 -4.16543 0.98365 0
M  V30 960 C 85.7139 -5.34231 0.223961 0
M  V30 961 C 87.0139 -4.68495 2.3089 0
M  V30 962 H 88.7079 -2.55105 1.56722 0
M  V30 963 H 86.2539 -1.2262 0.754998 0
M  V30 964 H 88.2069 -4.20828 -0.21946 0
M  V30 965 H 86.9309 -3.14846 -0.868319 0
M  V30 966 H 85.5899 -3.44887 1.24293 0
M  V30 967 H 85.2379 -4.98071 -0.702412 0
M  V30 968 H 84.9379 -5.81527 0.842627 0
M  V30 969 H 86.4619 -6.10585 -0.0433671 0
M  V30 970 H 87.8759 -5.33691 2.09396 0
M  V30 971 H 86.2729 -5.26379 2.88176 0
M  V30 972 H 87.3429 -3.85169 2.94572 0
M  V30 973 N 88.686 -0.835752 -1.33615 0
M  V30 974 C 89.634 -0.255238 -2.31195 0
M  V30 975 C 90.628 0.61107 -1.57995 0
M  V30 976 O 91.834 0.500979 -1.72888 0
M  V30 977 H 88.209 -0.0638085 -0.749288 0
M  V30 978 H 90.18 -1.09283 -2.77669 0
M  V30 979 C 88.929 0.55754 -3.43201 0
M  V30 980 H 88.252 -0.0997553 -3.99676 0
M  V30 981 H 89.692 0.929622 -4.13683 0
M  V30 982 C 88.151 1.73515 -2.88781 0
M  V30 983 O 88.681 2.83376 -2.84712 0
M  V30 984 N 86.887 1.55603 -2.4543 0
M  V30 985 H 86.434 0.662354 -2.48939 0
M  V30 986 H 86.392 2.34545 -2.09371 0
M  V30 987 N 90.1641 1.46063 -0.591896 0
M  V30 988 C 91.5751 1.85944 -0.167822 0
M  V30 989 C 91.9261 1.49429 1.27143 0
M  V30 990 O 91.0511 0.913515 1.96173 0
M  V30 991 C 91.6461 3.37489 -0.297794 0
M  V30 992 C 90.2051 3.76332 0.0714732 0
M  V30 993 C 89.3521 2.7006 -0.629509 0
M  V30 994 H 92.3031 1.37087 -0.799555 0
M  V30 995 H 92.3241 3.77532 0.474349 0
M  V30 996 H 91.8361 3.64034 -1.3454 0
M  V30 997 H 89.9371 3.55405 1.11886 0
M  V30 998 H 90.0501 4.78088 -0.311245 0
M  V30 999 H 88.4141 2.54607 -0.0687867 0
M  V30 1000 H 89.1971 2.99444 -1.67894 0
M  V30 1001 N 91.6422 0.330177 1.54103 0
M  V30 1002 C 92.5722 -0.525353 2.27513 0
M  V30 1003 C 93.5532 -1.11383 1.2856 0
M  V30 1004 O 94.7382 -1.13773 1.57383 0
M  V30 1005 C 91.8682 -1.6831 3.03791 0
M  V30 1006 C 90.8222 -1.2236 4.10137 0
M  V30 1007 C 90.1482 -2.46882 4.74293 0
M  V30 1008 C 91.4482 -0.333697 5.21233 0
M  V30 1009 H 93.1422 0.087013 2.99274 0
M  V30 1010 H 90.6882 0.0432893 1.43935 0
M  V30 1011 H 92.6412 -2.28795 3.5388 0
M  V30 1012 H 91.3652 -2.32216 2.29659 0
M  V30 1013 H 90.0242 -0.64165 3.60941 0
M  V30 1014 H 89.6722 -3.09165 3.96769 0
M  V30 1015 H 89.3722 -2.16825 5.46133 0
M  V30 1016 H 90.8962 -3.08117 5.27159 0
M  V30 1017 H 92.3102 -0.845013 5.67038 0
M  V30 1018 H 90.7072 -0.125612 5.99969 0
M  V30 1019 H 91.7772 0.633724 4.80741 0
M  V30 1020 N 93.1203 -1.57491 0.0584922 0
M  V30 1021 C 94.3673 -1.92978 -0.613648 0
M  V30 1022 C 94.6953 -0.937461 -1.70417 0
M  V30 1023 O 93.9503 0.049078 -1.95638 0
M  V30 1024 C 94.2493 -3.3513 -1.24188 0
M  V30 1025 C 93.9153 -4.50037 -0.278826 0
M  V30 1026 C 92.5773 -4.81198 -0.0138447 0
M  V30 1027 C 94.9293 -5.19807 0.380777 0
M  V30 1028 C 92.2573 -5.79473 0.918052 0
M  V30 1029 C 94.6093 -6.19079 1.30091 0
M  V30 1030 C 93.2733 -6.48665 1.57449 0
M  V30 1031 H 92.5433 -0.706157 -0.22455 0
M  V30 1032 H 95.1903 -1.91082 0.126533 0
M  V30 1033 H 93.4953 -3.33429 -2.05749 0
M  V30 1034 H 95.1923 -3.59871 -1.769 0
M  V30 1035 H 91.7823 -4.25726 -0.495539 0
M  V30 1036 H 95.9663 -4.95939 0.189158 0
M  V30 1037 H 91.2223 -6.00727 1.1374 0
M  V30 1038 H 95.3963 -6.7225 1.81804 0
M  V30 1039 H 93.0233 -7.24628 2.29822 0
M  V30 1040 N 94.5984 0.214957 -1.56127 0
M  V30 1041 C 95.8464 0.936518 -1.79091 0
M  V30 1042 C 96.1674 1.84606 -0.628148 0
M  V30 1043 O 95.4374 1.92664 0.35462 0
M  V30 1044 H 94.0174 0.3488 -0.660566 0
M  V30 1045 H 96.6794 0.22523 -1.93594 0
M  V30 1046 H 95.7754 1.53943 -2.71492 0
M  V30 1047 N 96.0765 1.50051 0.48192 0
M  V30 1048 C 97.4875 1.5348 1.06305 0
M  V30 1049 C 97.8385 0.331997 1.93371 0
M  V30 1050 O 96.9635 -0.556256 2.09129 0
M  V30 1051 C 97.5585 2.7813 1.93466 0
M  V30 1052 C 96.1175 2.84275 2.46707 0
M  V30 1053 C 95.2645 2.47637 1.24785 0
M  V30 1054 H 98.2155 1.56472 0.264995 0
M  V30 1055 H 98.2365 2.59372 2.78399 0
M  V30 1056 H 97.7485 3.65654 1.30072 0
M  V30 1057 H 95.8495 2.01077 3.13686 0
M  V30 1058 H 95.9625 3.8691 2.82555 0
M  V30 1059 H 94.3265 1.99835 1.57918 0
M  V30 1060 H 95.1095 3.37457 0.630694 0
M  V30 1061 N 97.5546 -0.734337 1.39446 0
M  V30 1062 C 98.4866 -1.85861 1.34121 0
M  V30 1063 C 99.4996 -1.60871 0.249864 0
M  V30 1064 O 100.689 -1.71093 0.508865 0
M  V30 1065 C 97.7886 -3.21899 1.05991 0
M  V30 1066 C 96.9616 -3.74239 2.26415 0
M  V30 1067 C 96.0206 -4.88841 1.94733 0
M  V30 1068 O 95.0466 -5.02468 2.67422 0
M  V30 1069 N 96.2486 -5.73261 0.913884 0
M  V30 1070 H 99.0136 -1.90934 2.31007 0
M  V30 1071 H 96.5746 -0.915102 1.33557 0
M  V30 1072 H 98.5666 -3.96136 0.828147 0
M  V30 1073 H 97.1366 -3.12091 0.178361 0
M  V30 1074 H 96.3566 -2.91347 2.65539 0
M  V30 1075 H 97.6446 -4.05942 3.06738 0
M  V30 1076 H 97.0426 -5.64842 0.311476 0
M  V30 1077 H 95.5996 -6.47563 0.742015 0
M  V30 1078 N 99.0327 -1.24633 -0.964593 0
M  V30 1079 C 99.9627 -1.06611 -2.07741 0
M  V30 1080 C 100.944 0.0218666 -1.70086 0
M  V30 1081 O 102.129 -0.145793 -1.93652 0
M  V30 1082 C 99.2587 -0.673444 -3.40708 0
M  V30 1083 C 98.2127 -1.71054 -3.92332 0
M  V30 1084 C 97.5387 -1.17285 -5.21678 0
M  V30 1085 C 98.8387 -3.10718 -4.19824 0
M  V30 1086 H 100.533 -1.99693 -2.23076 0
M  V30 1087 H 98.0787 -0.96152 -1.07195 0
M  V30 1088 H 100.032 -0.534345 -4.17998 0
M  V30 1089 H 98.7557 0.293073 -3.25282 0
M  V30 1090 H 97.4147 -1.83791 -3.17201 0
M  V30 1091 H 97.0627 -0.196847 -5.02615 0
M  V30 1092 H 96.7627 -1.86592 -5.57187 0
M  V30 1093 H 98.2867 -1.04593 -6.01575 0
M  V30 1094 H 99.7007 -3.01192 -4.87808 0
M  V30 1095 H 98.0977 -3.77406 -4.66567 0
M  V30 1096 H 99.1677 -3.58524 -3.26479 0
M  V30 1097 N 100.511 1.16574 -1.06058 0
M  V30 1098 C 101.458 2.20883 -0.669263 0
M  V30 1099 C 102.428 1.62729 0.332918 0
M  V30 1100 O 103.613 1.895 0.222346 0
M  V30 1101 C 100.753 3.45049 -0.0593572 0
M  V30 1102 C 99.8658 4.17458 -1.11143 0
M  V30 1103 C 99.0008 5.29135 -0.467916 0
M  V30 1104 C 98.0398 5.93343 -1.50369 0
M  V30 1105 N 97.1768 6.96516 -0.883706 0
M  V30 1106 H 102.017 2.53709 -1.5632 0
M  V30 1107 H 99.5538 1.24616 -0.781625 0
M  V30 1108 H 101.512 4.16033 0.311771 0
M  V30 1109 H 100.142 3.12781 0.797992 0
M  V30 1110 H 99.1938 3.45101 -1.60029 0
M  V30 1111 H 100.506 4.61307 -1.89731 0
M  V30 1112 H 99.6598 6.06684 -0.0436871 0
M  V30 1113 H 98.3988 4.86443 0.349864 0
M  V30 1114 H 97.4038 5.14517 -1.93784 0
M  V30 1115 H 98.6288 6.38114 -2.32352 0
M  V30 1116 H 96.5748 6.55943 -0.086595 0
M  V30 1117 H 96.4918 7.38723 -1.607 0
M  V30 1118 H 97.7598 7.77993 -0.484543 0
M  V30 1119 N 101.989 0.842826 1.3317 0
M  V30 1120 C 102.937 0.267495 2.31057 0
M  V30 1121 C 103.931 -0.602682 1.58316 0
M  V30 1122 O 105.137 -0.491803 1.73151 0
M  V30 1123 H 101.512 0.0677813 0.748939 0
M  V30 1124 H 103.483 1.10754 2.77085 0
M  V30 1125 C 102.232 -0.539331 3.43492 0
M  V30 1126 H 101.555 0.12095 3.99617 0
M  V30 1127 H 102.995 -0.90767 4.14171 0
M  V30 1128 C 101.454 -1.71981 2.89697 0
M  V30 1129 O 101.984 -2.81862 2.86211 0
M  V30 1130 N 100.19 -1.54299 2.46252 0
M  V30 1131 H 99.7369 -0.649143 2.49287 0
M  V30 1132 H 99.6949 -2.33431 2.10612 0
M  V30 1133 N 103.467 -1.45747 0.599634 0
M  V30 1134 C 104.377 -2.34262 -0.125888 0
M  V30 1135 C 105.393 -1.50768 -0.868625 0
M  V30 1136 O 106.569 -1.83592 -0.828003 0
M  V30 1137 C 103.634 -3.28252 -1.11587 0
M  V30 1138 C 102.695 -4.27651 -0.375956 0
M  V30 1139 C 101.928 -5.1715 -1.31877 0
M  V30 1140 O 102.151 -5.09916 -2.55621 0
M  V30 1141 O 101.085 -5.96286 -0.820157 0
M  V30 1142 H 104.911 -2.97688 0.601315 0
M  V30 1143 H 102.496 -1.44999 0.359934 0
M  V30 1144 H 104.378 -3.86191 -1.68626 0
M  V30 1145 H 103.053 -2.67401 -1.82424 0
M  V30 1146 H 101.96 -3.7335 0.236698 0
M  V30 1147 H 103.293 -4.91334 0.29177 0
M  V30 1148 N 104.945 -0.338344 -1.53925 0
M  V30 1149 C 106.173 0.261298 -2.05243 0
M  V30 1150 C 106.588 1.44625 -1.21363 0
M  V30 1151 O 105.945 1.80811 -0.247736 0
M  V30 1152 C 105.996 0.681412 -3.5502 0
M  V30 1153 O 105.717 -0.456414 -4.35716 0
M  V30 1154 C 107.218 1.34232 -4.22489 0
M  V30 1155 H 104.438 0.0513685 -0.669031 0
M  V30 1156 H 106.982 -0.488822 -1.98572 0
M  V30 1157 H 105.137 1.38148 -3.61931 0
M  V30 1158 H 105.551 -0.122564 -5.24357 0
M  V30 1159 H 107.025 1.58708 -5.28693 0
M  V30 1160 H 107.502 2.29426 -3.74514 0
M  V30 1161 H 108.108 0.684424 -4.19757 0
M  V30 1162 N 106.423 1.57458 -0.0668435 0
M  V30 1163 C 107.672 1.92477 0.602947 0
M  V30 1164 C 107.985 0.948419 1.71068 0
M  V30 1165 O 109.191 1.19124 2.43971 0
M  V30 1166 C 107.647 3.41903 1.12383 0
M  V30 1167 C 107.255 4.47975 0.04737 0
M  V30 1168 C 108.999 3.85931 1.76797 0
M  V30 1169 C 106.906 5.88529 0.582022 0
M  V30 1170 H 105.836 0.718387 0.22899 0
M  V30 1171 H 108.487 1.82978 -0.138276 0
M  V30 1172 H 106.869 3.46459 1.91787 0
M  V30 1173 H 108.043 4.55029 -0.726978 0
M  V30 1174 H 106.358 4.13384 -0.500243 0
M  V30 1175 H 108.955 4.88322 2.17821 0
M  V30 1176 H 109.298 3.23029 2.62599 0
M  V30 1177 H 109.831 3.83958 1.04024 0
M  V30 1178 H 106.57 6.55065 -0.238721 0
M  V30 1179 H 106.09 5.85004 1.324 0
M  V30 1180 H 107.769 6.38258 1.05999 0
M  V30 1181 N 107.901 -0.206675 1.56239 0
M  V30 1182 C 109.147 -0.925733 1.81113 0
M  V30 1183 C 109.502 -1.81368 0.642135 0
M  V30 1184 O 108.795 -1.88126 -0.363211 0
M  V30 1185 C 108.989 -1.78675 3.09532 0
M  V30 1186 C 108.818 -0.98365 4.3881 0
M  V30 1187 C 107.588 -0.672661 5.00803 0
M  V30 1188 C 109.786 -0.341847 5.13163 0
M  V30 1189 N 107.768 0.150283 6.13716 0
M  V30 1190 C 109.139 0.343815 6.19046 0
M  V30 1191 C 111.194 -0.256392 4.97239 0
M  V30 1192 C 109.897 1.10678 7.10734 0
M  V30 1193 C 111.923 0.493142 5.8934 0
M  V30 1194 C 111.285 1.16729 6.94661 0
M  V30 1195 H 107.384 -0.318524 0.714189 0
M  V30 1196 H 109.968 -0.195378 1.93717 0
M  V30 1197 H 108.139 -2.4888 2.98183 0
M  V30 1198 H 109.871 -2.44441 3.22538 0
M  V30 1199 H 106.626 -0.994294 4.63045 0
M  V30 1200 H 107.05 0.551026 6.74754 0
M  V30 1201 H 111.692 -0.763249 4.15854 0
M  V30 1202 H 109.41 1.6251 7.91591 0
M  V30 1203 H 112.996 0.560465 5.79094 0
M  V30 1204 H 111.876 1.738 7.64698 0
M  V30 1205 N 109.379 -1.50304 -0.473955 0
M  V30 1206 C 110.609 -1.64663 -1.24778 0
M  V30 1207 C 111.017 -0.328174 -1.86332 0
M  V30 1208 O 110.36 0.699536 -1.69859 0
M  V30 1209 C 110.422 -2.6778 -2.39863 0
M  V30 1210 C 110.086 -4.11413 -1.98969 0
M  V30 1211 C 111.083 -4.97372 -1.51385 0
M  V30 1212 C 108.768 -4.57312 -2.07777 0
M  V30 1213 C 110.762 -6.27277 -1.13148 0
M  V30 1214 C 108.449 -5.87223 -1.69152 0
M  V30 1215 C 109.447 -6.72031 -1.21915 0
M  V30 1216 O 109.135 -7.99518 -0.838237 0
M  V30 1217 H 108.867 -0.556602 -0.383627 0
M  V30 1218 H 111.421 -1.9726 -0.572491 0
M  V30 1219 H 109.651 -2.30419 -3.10554 0
M  V30 1220 H 111.34 -2.71388 -3.01833 0
M  V30 1221 H 112.106 -4.63128 -1.44004 0
M  V30 1222 H 107.985 -3.91449 -2.43493 0
M  V30 1223 H 111.529 -6.93425 -0.762077 0
M  V30 1224 H 107.426 -6.20989 -1.76191 0
M  V30 1225 H 108.194 -8.12764 -0.967339 0
M  V30 1226 N 110.857 0.726932 -1.39834 0
M  V30 1227 C 111.787 1.85405 -1.41941 0
M  V30 1228 C 112.768 1.67751 -0.281728 0
M  V30 1229 O 113.953 1.8795 -0.488717 0
M  V30 1230 C 111.083 3.23243 -1.2701 0
M  V30 1231 C 110.037 3.55549 -2.38262 0
M  V30 1232 C 109.363 4.9241 -2.08415 0
M  V30 1233 C 110.663 3.577 -3.80589 0
M  V30 1234 H 112.357 1.83899 -2.36266 0
M  V30 1235 H 109.903 0.883349 -1.13723 0
M  V30 1236 H 111.856 4.01775 -1.27103 0
M  V30 1237 H 110.58 3.25296 -0.291564 0
M  V30 1238 H 109.239 2.79351 -2.37399 0
M  V30 1239 H 108.887 4.91052 -1.0898 0
M  V30 1240 H 108.587 5.14992 -2.82943 0
M  V30 1241 H 110.111 5.73289 -2.10171 0
M  V30 1242 H 111.525 4.26293 -3.83337 0
M  V30 1243 H 109.922 3.91804 -4.54543 0
M  V30 1244 H 110.992 2.57328 -4.10987 0
M  V30 1245 N 112.336 1.25143 0.95797 0
M  V30 1246 C 113.283 1.05235 2.05412 0
M  V30 1247 C 114.253 -0.0374561 1.66058 0
M  V30 1248 O 115.438 0.119073 1.90428 0
M  V30 1249 C 112.578 0.673589 3.38462 0
M  V30 1250 C 111.691 1.8379 3.90954 0
M  V30 1251 C 110.826 1.40381 5.12315 0
M  V30 1252 C 109.865 2.53746 5.57027 0
M  V30 1253 N 109.002 2.11136 6.69601 0
M  V30 1254 H 113.842 1.99048 2.21774 0
M  V30 1255 H 111.379 0.991277 1.08683 0
M  V30 1256 H 113.337 0.434964 4.14926 0
M  V30 1257 H 111.967 -0.227554 3.21997 0
M  V30 1258 H 111.019 2.18992 3.11041 0
M  V30 1259 H 112.331 2.68937 4.20089 0
M  V30 1260 H 111.485 1.12464 5.96185 0
M  V30 1261 H 110.224 0.523015 4.84887 0
M  V30 1262 H 109.229 2.82412 4.71724 0
M  V30 1263 H 110.454 3.42398 5.86464 0
M  V30 1264 H 108.4 1.25468 6.4389 0
M  V30 1265 H 108.317 2.89832 6.98236 0
M  V30 1266 H 109.585 1.86385 7.56889 0
M  V30 1267 N 113.814 -1.1601 1.06675 0
M  V30 1268 C 115.044 -1.90251 0.805497 0
M  V30 1269 C 115.452 -1.77891 -0.64431 0
M  V30 1270 O 114.795 -1.12383 -1.45313 0
M  V30 1271 C 114.857 -3.41419 1.12576 0
M  V30 1272 C 114.521 -3.77564 2.57477 0
M  V30 1273 C 115.518 -3.79161 3.55715 0
M  V30 1274 C 113.203 -4.08079 2.92877 0
M  V30 1275 C 115.197 -4.10767 4.8739 0
M  V30 1276 C 112.884 -4.39351 4.24751 0
M  V30 1277 C 113.882 -4.40675 5.21818 0
M  V30 1278 O 113.57 -4.71202 6.51325 0
M  V30 1279 H 113.302 -0.610018 0.291297 0
M  V30 1280 H 115.856 -1.47958 1.4247 0
M  V30 1281 H 114.086 -3.84079 0.449503 0
M  V30 1282 H 115.775 -3.9694 0.84814 0
M  V30 1283 H 116.541 -3.55693 3.29708 0
M  V30 1284 H 112.42 -4.06211 2.17976 0
M  V30 1285 H 115.964 -4.11715 5.63148 0
M  V30 1286 H 111.861 -4.62285 4.50514 0
M  V30 1287 H 112.629 -4.88996 6.56373 0
M  V30 1288 N 115.292 -0.849877 -1.32721 0
M  V30 1289 C 116.242 -0.262892 -2.26479 0
M  V30 1290 C 117.226 0.588493 -1.49752 0
M  V30 1291 O 118.418 0.438659 -1.71478 0
M  V30 1292 C 115.547 0.551818 -3.38836 0
M  V30 1293 C 114.633 -0.311689 -4.22953 0
M  V30 1294 N 115.024 -1.39567 -4.86163 0
M  V30 1295 C 113.322 -0.100611 -4.45887 0
M  V30 1296 C 114.023 -1.92651 -5.48872 0
M  V30 1297 N 112.999 -1.22637 -5.29586 0
M  V30 1298 H 116.801 -1.09166 -2.72873 0
M  V30 1299 H 114.315 -0.695486 -1.46754 0
M  V30 1300 H 116.312 0.988713 -4.05006 0
M  V30 1301 H 114.972 1.37844 -2.93988 0
M  V30 1302 H 115.983 -1.77859 -4.86402 0
M  V30 1303 H 112.66 0.691681 -4.11731 0
M  V30 1304 H 114.05 -2.83487 -6.09167 0
M  V30 1305 N 116.77 1.45427 -0.607355 0
M  V30 1306 C 118.016 2.03097 -0.111035 0
M  V30 1307 C 118.371 1.46735 1.24445 0
M  V30 1308 O 117.664 0.632478 1.8086 0
M  V30 1309 C 117.858 3.57398 -0.0129263 0
M  V30 1310 C 117.687 4.28726 -1.35735 0
M  V30 1311 C 116.457 4.66659 -1.93798 0
M  V30 1312 C 118.655 4.60699 -2.28607 0
M  V30 1313 N 116.637 5.22845 -3.21723 0
M  V30 1314 C 118.008 5.17716 -3.41131 0
M  V30 1315 C 120.063 4.42638 -2.27982 0
M  V30 1316 C 118.766 5.58576 -4.53194 0
M  V30 1317 C 120.792 4.84531 -3.39093 0
M  V30 1318 C 120.154 5.4164 -4.50339 0
M  V30 1319 H 116.253 0.777476 -0.083994 0
M  V30 1320 H 118.837 1.77249 -0.805655 0
M  V30 1321 H 117.008 3.82907 0.650914 0
M  V30 1322 H 118.74 4.01722 0.490033 0
M  V30 1323 H 115.495 4.50207 -1.47007 0
M  V30 1324 H 115.919 5.55438 -3.87063 0
M  V30 1325 H 120.561 3.97798 -1.43235 0
M  V30 1326 H 118.279 6.02382 -5.38667 0
M  V30 1327 H 121.865 4.72289 -3.39757 0
M  V30 1328 H 120.745 5.73461 -5.34895 0
M  V30 1329 N 118.248 0.346503 1.53744 0
M  V30 1330 C 119.659 -0.136779 1.86198 0
M  V30 1331 C 120.01 -1.49749 1.26766 0
M  V30 1332 O 119.135 -2.08417 0.582355 0
M  V30 1333 C 119.73 -0.254966 3.37839 0
M  V30 1334 C 118.289 -0.682482 3.70161 0
M  V30 1335 C 117.436 0.181981 2.76702 0
M  V30 1336 H 120.387 0.565994 1.48264 0
M  V30 1337 H 120.408 -1.08195 3.64793 0
M  V30 1338 H 119.92 0.735526 3.81066 0
M  V30 1339 H 118.021 -1.68189 3.3248 0
M  V30 1340 H 118.134 -0.470326 4.76786 0
M  V30 1341 H 116.498 -0.34615 2.52337 0
M  V30 1342 H 117.281 1.16966 3.2276 0
M  V30 1343 O 119.765 -1.60064 0.214914 0
M  V30 1344 H 120.456 -1.90195 -0.366829 0
M  V30 END ATOM
M  V30 BEGIN BOND
M  V30 END BOND
M  V30 END CTAB
M  END
$$$$
