drugbank_target|O15375 Monocarboxylate transporter 6 (DB00119)
 OpenBabel12092119303D

  0  0  0     0  0            999 V3000
M  V30 BEGIN CTAB
M  V30 COUNTS 7781 7891 0 0 0
M  V30 BEGIN ATOM
M  V30 1 H -0.908 1.98254 -0.117106 0
M  V30 2 N 0 1.576 0 0
M  V30 3 C 0.933 2.03868 1.02534 0
M  V30 4 C 1.911 0.928543 1.3348 0
M  V30 5 O 3.095 1.19667 1.45644 0
M  V30 6 C 0.222 2.43627 2.35294 0
M  V30 7 C -0.732 3.65373 2.2001 0
M  V30 8 S 0.101 5.13292 1.52614 0
M  V30 9 C 1.257 5.56322 2.86805 0
M  V30 10 H 1.49 2.90518 0.631377 0
M  V30 11 H -0.977 1.52953 0.210867 0
M  V30 12 H 0.981 2.67203 3.11629 0
M  V30 13 H -0.358 1.57376 2.7183 0
M  V30 14 H -1.165 3.90944 3.18086 0
M  V30 15 H -1.563 3.418 1.51819 0
M  V30 16 H 0.729 5.58782 3.83104 0
M  V30 17 H 1.672 6.56266 2.65933 0
M  V30 18 H 2.08 4.83886 2.90714 0
M  V30 19 N 1.4781 -0.272755 1.55222 0
M  V30 20 C 2.8891 -0.84378 1.66545 0
M  V30 21 C 3.2401 -1.87035 0.592641 0
M  V30 22 O 2.3651 -2.14761 -0.265818 0
M  V30 23 C 2.9601 -1.53723 3.01918 0
M  V30 24 C 1.5191 -2.05628 3.15268 0
M  V30 25 C 0.6661 -0.898424 2.62343 0
M  V30 26 H 3.6171 -0.0490998 1.58624 0
M  V30 27 H 3.6381 -2.40421 2.94921 0
M  V30 28 H 3.1501 -0.78983 3.79978 0
M  V30 29 H 1.2511 -2.83329 2.41983 0
M  V30 30 H 1.3641 -2.27142 4.21833 0
M  V30 31 H -0.2719 -1.29186 2.19506 0
M  V30 32 H 0.5111 -0.164528 3.42906 0
M  V30 33 N 2.9562 -1.48159 -0.537278 0
M  V30 34 C 3.8882 -1.58218 -1.65831 0
M  V30 35 C 4.9012 -0.466948 -1.5596 0
M  V30 36 O 6.0902 -0.73747 -1.62553 0
M  V30 37 C 3.1902 -1.48906 -3.04434 0
M  V30 38 C 2.3632 -2.75343 -3.3986 0
M  V30 39 C 1.4222 -2.59588 -4.57712 0
M  V30 40 O 0.4482 -3.33457 -4.61297 0
M  V30 41 N 1.6502 -1.68724 -5.55439 0
M  V30 42 H 4.4152 -2.54891 -1.57641 0
M  V30 43 H 1.9762 -1.4479 -0.724386 0
M  V30 44 H 3.9682 -1.36072 -3.81139 0
M  V30 45 H 2.5382 -0.602368 -3.06741 0
M  V30 46 H 1.7582 -3.02795 -2.52406 0
M  V30 47 H 3.0462 -3.5924 -3.60311 0
M  V30 48 H 2.4442 -1.07898 -5.55315 0
M  V30 49 H 1.0012 -1.61832 -6.3139 0
M  V30 50 N 4.4343 0.785586 -1.36625 0
M  V30 51 C 5.3973 1.87999 -1.31107 0
M  V30 52 C 6.3973 1.59316 -0.217959 0
M  V30 53 O 7.5873 1.67656 -0.472977 0
M  V30 54 C 4.7193 3.24861 -1.03334 0
M  V30 55 H 5.9123 1.94307 -2.2844 0
M  V30 56 H 3.4653 0.983813 -1.21453 0
M  V30 57 H 4.2003 3.24235 -0.0647432 0
M  V30 58 H 3.9853 3.4707 -1.82441 0
M  V30 59 H 5.4753 4.04929 -1.02088 0
M  V30 60 N 5.9124 1.20967 1.01018 0
M  V30 61 C 6.8424 0.988272 2.11555 0
M  V30 62 C 7.8234 -0.0849778 1.69888 0
M  V30 63 O 9.0084 0.0738202 1.9406 0
M  V30 64 C 6.1384 0.546528 3.42973 0
M  V30 65 C 5.0924 1.56375 3.9841 0
M  V30 66 C 4.4184 0.97842 5.25672 0
M  V30 67 C 5.7184 2.94922 4.31066 0
M  V30 68 H 7.4124 1.91276 2.30334 0
M  V30 69 H 4.9584 0.921073 1.1069 0
M  V30 70 H 6.9114 0.378839 4.19694 0
M  V30 71 H 5.6354 -0.413598 3.23971 0
M  V30 72 H 4.2944 1.71891 3.23804 0
M  V30 73 H 3.9424 0.0101688 5.02999 0
M  V30 74 H 3.6424 1.65784 5.63728 0
M  V30 75 H 5.1664 0.821939 6.05043 0
M  V30 76 H 6.5804 2.8288 4.9865 0
M  V30 77 H 4.9774 3.5983 4.80253 0
M  V30 78 H 6.0474 3.4616 3.39561 0
M  V30 79 N 7.3905 -1.2043 1.01659 0
M  V30 80 C 8.3005 -2.2689 0.596484 0
M  V30 81 C 9.3165 -1.70107 -0.36599 0
M  V30 82 O 10.4925 -2.00117 -0.226942 0
M  V30 83 C 7.5575 -3.4665 -0.0586659 0
M  V30 84 C 6.6185 -4.18662 0.949751 0
M  V30 85 C 5.8515 -5.32705 0.32577 0
M  V30 86 O 6.0745 -5.63656 -0.874509 0
M  V30 87 O 5.0085 -5.92803 1.04249 0
M  V30 88 H 8.8345 -2.65041 1.4828 0
M  V30 89 H 6.4195 -1.27048 0.786082 0
M  V30 90 H 8.3015 -4.19256 -0.424564 0
M  V30 91 H 6.9765 -3.10375 -0.91918 0
M  V30 92 H 5.8835 -3.48229 1.36702 0
M  V30 93 H 7.2165 -4.58878 1.78023 0
M  V30 94 N 8.8686 -0.792821 -1.36206 0
M  V30 95 C 10.2846 -0.474903 -1.52371 0
M  V30 96 C 10.4846 1.00622 -1.74578 0
M  V30 97 O 9.5406 1.79162 -1.77924 0
M  V30 98 C 10.8536 -1.3083 -2.70747 0
M  V30 99 C 12.4016 -1.30234 -2.84619 0
M  V30 100 C 12.8766 -2.11956 -4.06004 0
M  V30 101 N 14.3676 -2.09419 -4.13156 0
M  V30 102 C 15.1026 -2.69419 -5.06163 0
M  V30 103 N 14.5986 -3.3829 -6.04592 0
M  V30 104 N 16.3916 -2.59134 -4.98804 0
M  V30 105 H 8.5426 -1.75222 -1.20046 0
M  V30 106 H 10.8056 -0.745024 -0.586211 0
M  V30 107 H 10.5116 -2.35881 -2.6087 0
M  V30 108 H 10.3856 -0.95196 -3.6499 0
M  V30 109 H 12.7726 -0.259748 -2.93955 0
M  V30 110 H 12.8536 -1.69847 -1.91274 0
M  V30 111 H 12.4976 -3.16248 -3.97429 0
M  V30 112 H 12.4276 -1.69711 -4.98503 0
M  V30 113 H 14.9186 -1.59297 -3.42685 0
M  V30 114 H 15.2316 -3.81394 -6.7213 0
M  V30 115 H 13.5766 -3.42393 -6.04807 0
M  V30 116 H 16.7676 -2.04927 -4.20859 0
M  V30 117 H 16.9406 -3.06185 -5.711 0
M  V30 118 N 10.3467 1.47872 -0.545128 0
M  V30 119 C 11.3097 2.28337 0.198717 0
M  V30 120 C 12.3097 1.36255 0.853888 0
M  V30 121 O 13.4997 1.59003 0.711606 0
M  V30 122 C 10.6317 3.15585 1.28915 0
M  V30 123 H 11.8247 2.95567 -0.507941 0
M  V30 124 H 9.3777 1.53362 -0.301616 0
M  V30 125 H 10.1127 2.53019 2.02859 0
M  V30 126 H 9.8977 3.83337 0.824309 0
M  V30 127 H 11.3877 3.76243 1.81194 0
M  V30 128 N 11.8248 0.280983 1.55075 0
M  V30 129 C 13.1018 -0.386207 1.91749 0
M  V30 130 C 13.4818 -1.73264 1.20594 0
M  V30 131 O 12.8298 -2.26034 0.334784 0
M  V30 132 C 13.0398 -0.520687 3.45094 0
M  V30 133 C 14.3878 -0.800865 4.16979 0
M  V30 134 O 15.4118 -0.605271 3.5102 0
M  V30 135 O 14.2708 -1.1753 5.33712 0
M  V30 136 H 11.3648 -0.212408 0.799257 0
M  V30 137 H 13.9108 0.327568 1.66509 0
M  V30 138 H 12.6828 0.426633 3.88967 0
M  V30 139 H 12.3058 -1.2837 3.76307 0
M  V30 140 N 13.3029 -1.57598 0.00835791 0
M  V30 141 C 14.5509 -1.90551 -0.6734 0
M  V30 142 C 14.8719 -0.883301 -1.73847 0
M  V30 143 O 14.1419 0.0781442 -1.95744 0
M  V30 144 H 12.7219 -0.703312 -0.251717 0
M  V30 145 H 15.3839 -1.94833 0.0512592 0
M  V30 146 H 14.4799 -2.9056 -1.13935 0
M  V30 147 N 14.781 0.264519 -1.55364 0
M  V30 148 C 16.006 1.01726 -1.80739 0
M  V30 149 C 16.431 1.78836 -0.583044 0
M  V30 150 O 15.789 1.75167 0.467566 0
M  V30 151 C 15.837 1.94482 -3.03659 0
M  V30 152 O 14.941 3.03386 -2.7934 0
M  V30 153 H 14.282 0.290395 -0.597132 0
M  V30 154 H 16.812 0.290854 -2.02522 0
M  V30 155 H 16.822 2.36278 -3.32621 0
M  V30 156 H 15.497 1.37772 -3.92418 0
M  V30 157 H 14.074 2.65844 -2.61498 0
M  V30 158 N 16.2591 1.48442 0.529413 0
M  V30 159 C 17.5051 1.57699 1.28463 0
M  V30 160 C 17.8601 0.247913 1.90796 0
M  V30 161 O 17.1531 -0.749279 1.76342 0
M  V30 162 C 17.3471 2.6523 2.39558 0
M  V30 163 C 17.1761 4.08464 1.88114 0
M  V30 164 C 15.9461 4.75596 1.70693 0
M  V30 165 C 18.1441 4.94613 1.40935 0
M  V30 166 N 16.1261 6.03245 1.13881 0
M  V30 167 C 17.4971 6.12511 0.960734 0
M  V30 168 C 19.5521 4.80833 1.29243 0
M  V30 169 C 18.2551 7.18149 0.406792 0
M  V30 170 C 20.2811 5.86593 0.752487 0
M  V30 171 C 19.6431 7.037 0.313946 0
M  V30 172 H 15.7421 0.631608 0.46108 0
M  V30 173 H 18.3261 1.85325 0.596886 0
M  V30 174 H 16.4971 2.39425 3.05827 0
M  V30 175 H 18.2291 2.64169 3.06589 0
M  V30 176 H 14.9841 4.31938 1.94232 0
M  V30 177 H 15.4081 6.71324 0.874831 0
M  V30 178 H 20.0501 3.90635 1.61754 0
M  V30 179 H 17.7681 8.0807 0.0693671 0
M  V30 180 H 21.3541 5.77985 0.665192 0
M  V30 181 H 20.2341 7.8414 -0.0973632 0
M  V30 182 N 17.7372 -0.778329 1.37039 0
M  V30 183 C 18.7002 -1.87301 1.32102 0
M  V30 184 C 19.7002 -1.59198 0.226405 0
M  V30 185 O 20.8902 -1.67403 0.481861 0
M  V30 186 C 18.0222 -3.24309 1.05055 0
M  V30 187 H 19.2152 -1.93093 2.29467 0
M  V30 188 H 16.7682 -0.977358 1.21973 0
M  V30 189 H 17.5032 -3.24196 0.0819373 0
M  V30 190 H 17.2882 -3.46098 1.84279 0
M  V30 191 H 18.7782 -4.04382 1.04234 0
M  V30 192 N 19.2153 -1.21501 -1.00376 0
M  V30 193 C 20.4613 -1.04457 -1.74529 0
M  V30 194 C 20.8163 0.417386 -1.87818 0
M  V30 195 O 20.1093 1.30556 -1.40234 0
M  V30 196 C 20.3033 -1.67673 -3.15627 0
M  V30 197 C 20.1323 -3.19865 -3.16096 0
M  V30 198 C 18.9023 -3.88915 -3.22604 0
M  V30 199 C 21.1003 -4.16936 -3.01112 0
M  V30 200 N 19.0823 -5.28284 -3.12712 0
M  V30 201 C 20.4533 -5.43066 -2.99131 0
M  V30 202 C 22.5083 -4.07968 -2.85423 0
M  V30 203 C 21.2113 -6.6126 -2.83068 0
M  V30 204 C 23.2373 -5.258 -2.70718 0
M  V30 205 C 22.5993 -6.50842 -2.69414 0
M  V30 206 H 18.6983 -0.436584 -0.648782 0
M  V30 207 H 21.2823 -1.53875 -1.19293 0
M  V30 208 H 19.4533 -1.20822 -3.6913 0
M  V30 209 H 21.1853 -1.43824 -3.78281 0
M  V30 210 H 17.9403 -3.39847 -3.2985 0
M  V30 211 H 18.3643 -6.01284 -3.11105 0
M  V30 212 H 23.0063 -3.1209 -2.85236 0
M  V30 213 H 20.7243 -7.57298 -2.82002 0
M  V30 214 H 24.3103 -5.20683 -2.59577 0
M  V30 215 H 23.1903 -7.40485 -2.5817 0
M  V30 216 N 20.6934 1.19889 -1.02296 0
M  V30 217 C 21.9394 1.89701 -0.717033 0
M  V30 218 C 22.2724 1.7905 0.751989 0
M  V30 219 O 21.5474 1.17891 1.547 0
M  V30 220 C 21.8304 3.40858 -1.16136 0
M  V30 221 C 21.6834 3.60411 -2.69117 0
M  V30 222 C 23.0024 4.33876 -0.737549 0
M  V30 223 H 20.1214 0.688874 -0.261957 0
M  V30 224 H 22.7634 1.41154 -1.27183 0
M  V30 225 H 20.9134 3.82335 -0.689342 0
M  V30 226 H 22.5854 3.28145 -3.2422 0
M  V30 227 H 20.8284 3.03665 -3.0979 0
M  V30 228 H 21.4994 4.66396 -2.95261 0
M  V30 229 H 23.9754 4.00081 -1.14344 0
M  V30 230 H 22.8514 5.38242 -1.0764 0
M  V30 231 H 23.1124 4.40628 0.360436 0
M  V30 232 N 22.1715 0.800033 1.35784 0
M  V30 233 C 23.4175 0.377901 1.99248 0
M  V30 234 C 23.7505 -1.05052 1.63333 0
M  V30 235 O 23.0255 -1.72768 0.893385 0
M  V30 236 C 23.3085 0.553922 3.55814 0
M  V30 237 C 23.1615 2.0268 4.01548 0
M  V30 238 C 24.4805 -0.0244802 4.40093 0
M  V30 239 H 21.5995 0.138782 0.723815 0
M  V30 240 H 24.2415 1.00835 1.61035 0
M  V30 241 H 22.3915 0.0172398 3.88496 0
M  V30 242 H 24.0635 2.62536 3.79305 0
M  V30 243 H 22.3065 2.5256 3.52698 0
M  V30 244 H 22.9775 2.10087 5.10458 0
M  V30 245 H 25.4535 0.433775 4.13833 0
M  V30 246 H 24.3295 0.128637 5.48749 0
M  V30 247 H 24.5905 -1.11758 4.27741 0
M  V30 248 N 23.6496 -1.47581 0.552962 0
M  V30 249 C 24.5796 -2.32762 -0.185451 0
M  V30 250 C 25.5606 -1.43527 -0.912905 0
M  V30 251 O 26.7456 -1.72388 -0.894201 0
M  V30 252 C 23.8756 -3.25219 -1.21859 0
M  V30 253 C 22.8296 -4.23661 -0.607864 0
M  V30 254 C 22.1556 -5.05413 -1.74533 0
M  V30 255 C 23.4556 -5.20481 0.435582 0
M  V30 256 H 25.1496 -2.94749 0.525684 0
M  V30 257 H 22.6956 -1.41738 0.254251 0
M  V30 258 H 24.6486 -3.8365 -1.7433 0
M  V30 259 H 23.3726 -2.61279 -1.95961 0
M  V30 260 H 22.0316 -3.66451 -0.104489 0
M  V30 261 H 21.6796 -4.3788 -2.47529 0
M  V30 262 H 21.3796 -5.72059 -1.34249 0
M  V30 263 H 22.9036 -5.66701 -2.27338 0
M  V30 264 H 24.3176 -5.733 -0.00290157 0
M  V30 265 H 22.7146 -5.95305 0.757067 0
M  V30 266 H 23.7846 -4.66217 1.33303 0
M  V30 267 N 25.1277 -0.289203 -1.54924 0
M  V30 268 C 26.0577 0.58549 -2.2604 0
M  V30 269 C 27.0387 1.14753 -1.25562 0
M  V30 270 O 28.2237 1.17906 -1.54311 0
M  V30 271 C 25.3537 1.76305 -2.99222 0
M  V30 272 C 24.3077 1.33191 -4.06748 0
M  V30 273 C 23.6337 2.5937 -4.6758 0
M  V30 274 C 24.9337 0.471775 -5.20165 0
M  V30 275 H 26.6277 -0.00763532 -2.99399 0
M  V30 276 H 24.1737 -0.00511229 -1.43999 0
M  V30 277 H 26.1267 2.38097 -3.47689 0
M  V30 278 H 24.8507 2.38223 -2.23422 0
M  V30 279 H 23.5097 0.737121 -3.59113 0
M  V30 280 H 23.1577 3.19576 -3.88433 0
M  V30 281 H 22.8577 2.31228 -5.40192 0
M  V30 282 H 24.3817 3.21985 -5.18804 0
M  V30 283 H 25.7957 0.995056 -5.64599 0
M  V30 284 H 24.1927 0.284639 -5.99425 0
M  V30 285 H 25.2627 -0.506041 -4.82252 0
M  V30 286 N 26.6058 1.57591 -0.0167156 0
M  V30 287 C 27.5688 2.08393 0.954204 0
M  V30 288 C 28.5688 0.996531 1.26198 0
M  V30 289 O 29.7588 1.25858 1.20438 0
M  V30 290 C 26.8908 2.5394 2.27436 0
M  V30 291 H 28.0838 2.95455 0.514451 0
M  V30 292 H 25.6368 1.54582 0.231089 0
M  V30 293 H 26.3718 1.70171 2.76066 0
M  V30 294 H 26.1568 3.33371 2.06412 0
M  V30 295 H 27.6468 2.93512 2.97053 0
M  V30 296 N 28.0839 -0.256276 1.55502 0
M  V30 297 C 29.3119 -1.00342 1.8094 0
M  V30 298 C 29.7269 -1.79307 0.59114 0
M  V30 299 O 29.0839 -1.77114 -0.440081 0
M  V30 300 C 29.1349 -1.94875 3.04476 0
M  V30 301 O 28.8559 -1.19107 4.21598 0
M  V30 302 C 30.3569 -2.81266 3.42644 0
M  V30 303 H 27.5769 -0.295685 0.602338 0
M  V30 304 H 30.1209 -0.281998 2.02546 0
M  V30 305 H 28.2759 -2.62457 2.84947 0
M  V30 306 H 28.6899 -1.82969 4.91551 0
M  V30 307 H 30.1639 -3.43362 4.32211 0
M  V30 308 H 30.6409 -3.51897 2.62802 0
M  V30 309 H 31.2469 -2.1915 3.64491 0
M  V30 310 N 29.562 -1.4872 -0.521534 0
M  V30 311 C 30.495 -1.58451 -1.64221 0
M  V30 312 C 31.473 -0.434513 -1.56687 0
M  V30 313 O 32.657 -0.647275 -1.77038 0
M  V30 314 C 29.784 -1.52037 -3.02659 0
M  V30 315 C 28.83 -2.71981 -3.28525 0
M  V30 316 S 29.663 -4.33869 -3.13876 0
M  V30 317 C 30.819 -4.30067 -4.54745 0
M  V30 318 H 31.052 -2.53256 -1.55719 0
M  V30 319 H 28.585 -1.37358 -0.705143 0
M  V30 320 H 30.543 -1.49023 -3.82495 0
M  V30 321 H 29.204 -0.585541 -3.08594 0
M  V30 322 H 28.397 -2.63656 -4.29536 0
M  V30 323 H 27.999 -2.72302 -2.56374 0
M  V30 324 H 30.291 -4.00521 -5.46433 0
M  V30 325 H 31.234 -5.31287 -4.68123 0
M  V30 326 H 31.642 -3.60419 -4.34463 0
M  V30 327 N 31.0401 0.771051 -1.3745 0
M  V30 328 C 32.2861 1.5319 -1.32894 0
M  V30 329 C 32.6191 1.94008 0.0862511 0
M  V30 330 O 31.8941 1.64124 1.04373 0
M  V30 331 C 32.1771 2.79648 -2.26868 0
M  V30 332 C 32.0301 2.45079 -3.77169 0
M  V30 333 C 33.3491 3.81583 -2.19277 0
M  V30 334 H 30.4681 0.555744 -0.484064 0
M  V30 335 H 33.1101 0.884492 -1.68157 0
M  V30 336 H 31.2601 3.34891 -1.96926 0
M  V30 337 H 32.9321 1.95745 -4.1771 0
M  V30 338 H 31.1751 1.77767 -3.95704 0
M  V30 339 H 31.8461 3.35478 -4.38359 0
M  V30 340 H 34.3221 3.35835 -2.45671 0
M  V30 341 H 33.1981 4.67787 -2.87171 0
M  V30 342 H 33.4591 4.25897 -1.18592 0
M  V30 343 N 32.5182 1.22032 0.997298 0
M  V30 344 C 33.7462 1.06841 1.7718 0
M  V30 345 C 34.1612 -0.381325 1.84909 0
M  V30 346 O 33.5182 -1.26437 1.31605 0
M  V30 347 C 33.5692 1.66814 3.20711 0
M  V30 348 O 33.2902 3.06116 3.13408 0
M  V30 349 C 34.7912 1.56838 4.14628 0
M  V30 350 H 32.0112 0.374782 0.556578 0
M  V30 351 H 34.5552 1.61532 1.2541 0
M  V30 352 H 32.7102 1.16196 3.69564 0
M  V30 353 H 33.1242 3.34926 4.0364 0
M  V30 354 H 34.5982 2.03532 5.13107 0
M  V30 355 H 35.0752 0.524155 4.36061 0
M  V30 356 H 35.6812 2.06741 3.7167 0
M  V30 357 N 33.9963 -1.19345 1.0293 0
M  V30 358 C 34.9283 -2.22036 0.56857 0
M  V30 359 C 35.9413 -1.58865 -0.355779 0
M  V30 360 O 37.1303 -1.77851 -0.152103 0
M  V30 361 C 34.2303 -3.38363 -0.190752 0
M  V30 362 C 33.4033 -4.31118 0.738643 0
M  V30 363 C 32.4623 -5.26194 0.0246497 0
M  V30 364 O 31.4883 -5.65461 0.651354 0
M  V30 365 N 32.6903 -5.66971 -1.24594 0
M  V30 366 H 35.4553 -2.6219 1.45177 0
M  V30 367 H 33.0163 -1.34015 0.908381 0
M  V30 368 H 35.0083 -3.98981 -0.677961 0
M  V30 369 H 33.5783 -2.96994 -0.975366 0
M  V30 370 H 32.7983 -3.68276 1.40593 0
M  V30 371 H 34.0863 -4.90001 1.37029 0
M  V30 372 H 33.4843 -5.37104 -1.77583 0
M  V30 373 H 32.0413 -6.2984 -1.67764 0
M  V30 374 N 35.4744 -0.807222 -1.35358 0
M  V30 375 C 36.7224 -0.387122 -1.98358 0
M  V30 376 C 37.0434 1.04942 -1.64354 0
M  V30 377 O 36.3134 1.72615 -0.926339 0
M  V30 378 H 34.8934 -0.140154 -0.733734 0
M  V30 379 H 37.5554 -1.0332 -1.6526 0
M  V30 380 H 36.6514 -0.493352 -3.08176 0
M  V30 381 N 36.9525 1.47285 -0.560781 0
M  V30 382 C 37.8825 2.32857 0.173105 0
M  V30 383 C 38.8635 1.44009 0.905281 0
M  V30 384 O 40.0485 1.7286 0.885046 0
M  V30 385 C 37.1785 3.25861 1.20133 0
M  V30 386 C 36.1325 4.23978 0.585388 0
M  V30 387 C 35.4585 5.06332 1.7185 0
M  V30 388 C 36.7585 5.20242 -0.463178 0
M  V30 389 H 38.4525 2.94466 -0.541307 0
M  V30 390 H 35.9985 1.41601 -0.261764 0
M  V30 391 H 37.9515 3.84569 1.72293 0
M  V30 392 H 36.6755 2.62315 1.94573 0
M  V30 393 H 35.3345 3.66501 0.085054 0
M  V30 394 H 34.9825 4.39186 2.45203 0
M  V30 395 H 34.6825 5.72762 1.31213 0
M  V30 396 H 36.2065 5.67899 2.24329 0
M  V30 397 H 37.6205 5.73293 -0.027502 0
M  V30 398 H 36.0175 5.94896 -0.788627 0
M  V30 399 H 37.0875 4.65504 -1.35773 0
M  V30 400 N 38.4306 0.297415 1.54768 0
M  V30 401 C 39.6586 -0.315623 2.04478 0
M  V30 402 C 40.0736 -1.47792 1.17486 0
M  V30 403 O 39.4306 -1.81404 0.19971 0
M  V30 404 C 39.4816 -0.7753 3.53088 0
M  V30 405 O 39.2026 0.340732 4.36773 0
M  V30 406 C 40.7036 -1.45386 4.18781 0
M  V30 407 H 37.9236 -0.0690887 0.667434 0
M  V30 408 H 40.4676 0.436003 1.99798 0
M  V30 409 H 38.6226 -1.47696 3.58141 0
M  V30 410 H 39.0366 -0.0165035 5.24497 0
M  V30 411 H 40.5106 -1.72669 5.24299 0
M  V30 412 H 40.9876 -2.39275 3.68299 0
M  V30 413 H 41.5936 -0.795475 4.17795 0
M  V30 414 N 39.9087 -1.5758 0.0250728 0
M  V30 415 C 40.8387 -2.13007 -0.956575 0
M  V30 416 C 41.8197 -1.0452 -1.342 0
M  V30 417 O 43.0047 -1.32332 -1.42133 0
M  V30 418 C 40.1347 -2.65386 -2.24026 0
M  V30 419 C 39.0887 -3.78623 -1.99571 0
M  V30 420 C 38.4147 -4.17414 -3.3417 0
M  V30 421 C 39.7147 -5.04867 -1.33814 0
M  V30 422 H 41.4087 -2.9528 -0.494991 0
M  V30 423 H 38.9547 -1.42042 -0.236651 0
M  V30 424 H 40.9077 -3.02794 -2.93076 0
M  V30 425 H 39.6317 -1.80268 -2.72343 0
M  V30 426 H 38.2907 -3.41646 -1.32941 0
M  V30 427 H 37.9387 -3.29284 -3.80238 0
M  V30 428 H 37.6387 -4.93719 -3.18615 0
M  V30 429 H 39.1627 -4.57402 -4.04495 0
M  V30 430 H 40.5767 -5.39888 -1.92857 0
M  V30 431 H 38.9737 -5.86144 -1.28669 0
M  V30 432 H 40.0437 -4.83904 -0.310561 0
M  V30 433 N 41.3868 0.248026 -1.55636 0
M  V30 434 C 42.6348 0.974295 -1.77065 0
M  V30 435 C 42.9558 1.85897 -0.588849 0
M  V30 436 O 42.2258 1.91868 0.395407 0
M  V30 437 H 40.8058 0.362733 -0.653019 0
M  V30 438 H 43.4678 0.266244 -1.93073 0
M  V30 439 H 42.5638 1.59667 -2.68166 0
M  V30 440 N 42.8649 1.48995 0.513639 0
M  V30 441 C 44.1119 1.57843 1.26854 0
M  V30 442 C 44.4399 0.259501 1.92761 0
M  V30 443 O 43.6949 -0.75159 1.80692 0
M  V30 444 C 43.9939 2.67756 2.36731 0
M  V30 445 C 43.6599 4.09669 1.88368 0
M  V30 446 C 42.3219 4.48291 1.74896 0
M  V30 447 C 44.6739 4.98537 1.52021 0
M  V30 448 C 42.0019 5.73568 1.23438 0
M  V30 449 C 44.3539 6.24319 1.0202 0
M  V30 450 C 43.0179 6.61783 0.871778 0
M  V30 451 H 42.2879 0.577587 0.464192 0
M  V30 452 H 44.9349 1.82778 0.571366 0
M  V30 453 H 43.2399 2.36743 3.12185 0
M  V30 454 H 44.9369 2.71813 2.9482 0
M  V30 455 H 41.5269 3.79176 1.99808 0
M  V30 456 H 45.7109 4.69363 1.61281 0
M  V30 457 H 40.9669 6.01304 1.10648 0
M  V30 458 H 45.1409 6.92566 0.729722 0
M  V30 459 H 42.7679 7.5874 0.470852 0
M  V30 460 N 44.343 -0.763751 1.37857 0
M  V30 461 C 45.754 -1.3405 1.29952 0
M  V30 462 C 46.105 -1.96138 -0.0492898 0
M  V30 463 O 45.23 -1.94372 -0.951239 0
M  V30 464 C 45.825 -2.43729 2.35333 0
M  V30 465 C 44.384 -2.97151 2.31037 0
M  V30 466 C 43.531 -1.70438 2.18738 0
M  V30 467 H 46.482 -0.563396 1.48363 0
M  V30 468 H 46.503 -3.23412 2.00462 0
M  V30 469 H 46.015 -1.9851 3.33489 0
M  V30 470 H 44.116 -3.46724 1.3643 0
M  V30 471 H 44.229 -3.52221 3.24772 0
M  V30 472 H 42.593 -1.93673 1.65418 0
M  V30 473 H 43.376 -1.27312 3.18821 0
M  V30 474 N 45.8211 -1.22559 -0.990812 0
M  V30 475 C 47.0491 -1.07779 -1.76611 0
M  V30 476 C 47.4641 0.371513 -1.85109 0
M  V30 477 O 46.8211 1.25737 -1.32274 0
M  V30 478 C 46.8721 -1.68512 -3.19822 0
M  V30 479 O 46.5931 -3.07774 -3.1178 0
M  V30 480 C 48.0941 -1.59035 -4.13791 0
M  V30 481 H 45.3141 -0.377729 -0.554583 0
M  V30 482 H 47.8581 -1.62195 -1.24551 0
M  V30 483 H 46.0131 -1.18154 -3.68942 0
M  V30 484 H 46.4271 -3.37062 -4.01858 0
M  V30 485 H 47.9011 -2.0625 -5.1202 0
M  V30 486 H 48.3781 -0.547273 -4.35777 0
M  V30 487 H 48.9841 -2.08709 -3.70568 0
M  V30 488 N 47.2992 1.18797 -1.03562 0
M  V30 489 C 48.5392 1.90346 -0.744832 0
M  V30 490 C 48.9032 1.78231 0.713972 0
M  V30 491 O 50.1042 2.44441 1.11813 0
M  V30 492 C 48.3752 3.36942 -1.19184 0
M  V30 493 S 49.9342 4.26638 -1.02593 0
M  V30 494 H 46.7522 0.657343 -0.270963 0
M  V30 495 H 49.3542 1.43579 -1.32685 0
M  V30 496 H 48.0582 3.43287 -2.24905 0
M  V30 497 H 47.5892 3.88745 -0.603397 0
M  V30 498 H 49.6042 4.96164 0.0596033 0
M  V30 499 N 48.7773 0.814389 1.34928 0
M  V30 500 C 50.0263 0.394871 1.97797 0
M  V30 501 C 50.3393 -1.04555 1.65311 0
M  V30 502 O 51.5453 -1.56856 2.21604 0
M  V30 503 C 50.0013 0.655103 3.53888 0
M  V30 504 C 49.6093 2.10858 3.95276 0
M  V30 505 C 51.3533 0.301329 4.23429 0
M  V30 506 C 49.2603 2.31415 5.44244 0
M  V30 507 H 48.1903 0.143913 0.740139 0
M  V30 508 H 50.8413 0.999544 1.53888 0
M  V30 509 H 49.2233 -0.0196253 3.95995 0
M  V30 510 H 50.3973 2.82176 3.64298 0
M  V30 511 H 48.7123 2.42297 3.38646 0
M  V30 512 H 51.3093 0.432869 5.32945 0
M  V30 513 H 51.6523 -0.75331 4.09428 0
M  V30 514 H 52.1853 0.930288 3.86769 0
M  V30 515 H 48.9243 3.35353 5.63222 0
M  V30 516 H 48.4443 1.6463 5.76764 0
M  V30 517 H 50.1233 2.13352 6.10811 0
M  V30 518 N 50.2554 -1.46986 0.568584 0
M  V30 519 C 51.5034 -2.02041 0.0487022 0
M  V30 520 C 51.8244 -1.44408 -1.31039 0
M  V30 521 O 51.0944 -0.623477 -1.85714 0
M  V30 522 H 49.6744 -0.746849 0.015014 0
M  V30 523 H 52.3364 -1.80257 0.741168 0
M  V30 524 H 51.4324 -3.12085 -0.0308961 0
M  V30 525 N 51.7335 -0.305618 -1.54608 0
M  V30 526 C 52.9825 0.303098 -1.9941 0
M  V30 527 C 53.2955 1.54648 -1.19764 0
M  V30 528 O 54.5015 2.23007 -1.54855 0
M  V30 529 C 52.9575 0.590588 -3.55021 0
M  V30 530 C 52.5655 -0.634719 -4.43481 0
M  V30 531 C 54.3095 1.16025 -4.08336 0
M  V30 532 C 52.2165 -0.320126 -5.90533 0
M  V30 533 H 51.1465 0.117031 -0.744862 0
M  V30 534 H 53.7975 -0.415045 -1.78745 0
M  V30 535 H 52.1795 1.36845 -3.71604 0
M  V30 536 H 53.3535 -1.41079 -4.38672 0
M  V30 537 H 51.6685 -1.12333 -4.00962 0
M  V30 538 H 54.2655 1.40994 -5.15776 0
M  V30 539 H 54.6085 2.10397 -3.5922 0
M  V30 540 H 55.1415 0.443985 -3.95315 0
M  V30 541 H 51.8805 -1.23254 -6.43808 0
M  V30 542 H 51.4005 0.418579 -5.98338 0
M  V30 543 H 53.0795 0.0766241 -6.46955 0
M  V30 544 N 53.2116 1.57565 -0.0334293 0
M  V30 545 C 54.4586 1.91978 0.644272 0
M  V30 546 C 54.7866 0.910231 1.71887 0
M  V30 547 O 54.0416 -0.0801961 1.95536 0
M  V30 548 C 54.3406 3.33112 1.29504 0
M  V30 549 C 54.0066 4.49537 0.350388 0
M  V30 550 C 52.6686 4.81115 0.0903974 0
M  V30 551 C 55.0206 5.20347 -0.298032 0
M  V30 552 C 52.3486 5.8086 -0.825746 0
M  V30 553 C 54.7006 6.2107 -1.20226 0
M  V30 554 C 53.3646 6.51088 -1.4711 0
M  V30 555 H 52.6346 0.702496 0.235756 0
M  V30 556 H 55.2816 1.91259 -0.0961176 0
M  V30 557 H 53.5866 3.30113 2.11028 0
M  V30 558 H 55.2836 3.57011 1.82603 0
M  V30 559 H 51.8736 4.24883 0.563205 0
M  V30 560 H 56.0576 4.96178 -0.110234 0
M  V30 561 H 51.3136 6.02461 -1.04169 0
M  V30 562 H 55.4876 6.75057 -1.71086 0
M  V30 563 H 53.1146 7.28193 -2.18264 0
M  V30 564 N 54.6897 -0.239769 1.55765 0
M  V30 565 C 55.9367 -0.966801 1.7793 0
M  V30 566 C 56.2647 -1.85046 0.599015 0
M  V30 567 O 55.5197 -1.91197 -0.417395 0
M  V30 568 C 55.8187 -1.852 3.05672 0
M  V30 569 C 55.4847 -1.1231 4.36689 0
M  V30 570 C 54.1467 -0.921689 4.72291 0
M  V30 571 C 56.4987 -0.607019 5.17653 0
M  V30 572 C 53.8267 -0.191996 5.86386 0
M  V30 573 C 56.1787 0.109241 6.32506 0
M  V30 574 C 54.8427 0.322073 6.66723 0
M  V30 575 H 54.1127 -0.353778 0.651093 0
M  V30 576 H 56.7597 -0.23634 1.90036 0
M  V30 577 H 55.0647 -2.64975 2.8861 0
M  V30 578 H 56.7617 -2.41635 3.20021 0
M  V30 579 H 53.3517 -1.29004 4.08725 0
M  V30 580 H 57.5357 -0.750153 4.90598 0
M  V30 581 H 52.7917 -0.0166949 6.11398 0
M  V30 582 H 56.9657 0.516737 6.9448 0
M  V30 583 H 54.5927 0.88944 7.54979 0
M  V30 584 N 56.1678 -1.49265 -0.50573 0
M  V30 585 C 57.3958 -1.62215 -1.28429 0
M  V30 586 C 57.8108 -0.291697 -1.86533 0
M  V30 587 O 57.1678 0.722233 -1.67601 0
M  V30 588 C 57.2188 -2.68735 -2.41793 0
M  V30 589 O 56.9398 -3.96619 -1.86078 0
M  V30 590 C 58.4408 -2.92346 -3.3324 0
M  V30 591 H 55.6608 -0.546239 -0.389697 0
M  V30 592 H 58.2048 -1.95265 -0.607609 0
M  V30 593 H 56.3598 -2.38476 -3.053 0
M  V30 594 H 56.7738 -4.55256 -2.60465 0
M  V30 595 H 58.2478 -3.70623 -4.09075 0
M  V30 596 H 58.7248 -2.02081 -3.89948 0
M  V30 597 H 59.3308 -3.24003 -2.75503 0
M  V30 598 N 57.6459 0.756429 -1.3826 0
M  V30 599 C 58.5559 1.9009 -1.37488 0
M  V30 600 C 59.5719 1.71855 -0.272366 0
M  V30 601 O 60.7479 1.94827 -0.510318 0
M  V30 602 C 57.8129 3.25421 -1.19592 0
M  V30 603 C 56.8739 3.56202 -2.39622 0
M  V30 604 C 56.1069 4.85075 -2.2257 0
M  V30 605 O 56.3299 5.57246 -1.21793 0
M  V30 606 O 55.2639 5.15269 -3.11098 0
M  V30 607 H 59.0899 1.93695 -2.33914 0
M  V30 608 H 56.6749 0.901313 -1.1915 0
M  V30 609 H 58.5569 4.06337 -1.11661 0
M  V30 610 H 57.2319 3.22634 -0.262486 0
M  V30 611 H 56.1389 2.75458 -2.53128 0
M  V30 612 H 57.4719 3.63747 -3.31586 0
M  V30 613 N 59.124 1.23083 0.984299 0
M  V30 614 C 60.054 1.03292 2.09411 0
M  V30 615 C 61.035 -0.048923 1.7003 0
M  V30 616 O 62.22 0.114967 1.93859 0
M  V30 617 C 59.35 0.619155 3.41736 0
M  V30 618 C 58.304 1.64791 3.95004 0
M  V30 619 C 57.63 1.0897 5.23478 0
M  V30 620 C 58.93 3.03999 4.24714 0
M  V30 621 H 60.624 1.96119 2.26225 0
M  V30 622 H 58.17 0.944344 1.08711 0
M  V30 623 H 60.123 0.467777 4.18796 0
M  V30 624 H 58.847 -0.344786 3.24775 0
M  V30 625 H 57.506 1.78721 3.20085 0
M  V30 626 H 57.154 0.11686 5.02864 0
M  V30 627 H 56.854 1.77704 5.60085 0
M  V30 628 H 58.378 0.950093 6.03163 0
M  V30 629 H 59.792 2.93393 4.92538 0
M  V30 630 H 58.189 3.69936 4.72512 0
M  V30 631 H 59.259 3.53285 3.32142 0
M  V30 632 N 60.6021 -1.18246 1.0419 0
M  V30 633 C 61.5341 -2.2142 0.592088 0
M  V30 634 C 62.5471 -1.59233 -0.338909 0
M  V30 635 O 63.7361 -1.78002 -0.133231 0
M  V30 636 C 60.8361 -3.38546 -0.154854 0
M  V30 637 C 60.0091 -4.3031 0.784328 0
M  V30 638 C 59.0681 -5.26138 0.0804583 0
M  V30 639 O 58.0941 -5.64738 0.711292 0
M  V30 640 N 59.2961 -5.68261 -1.18574 0
M  V30 641 H 62.0611 -2.60636 1.47949 0
M  V30 642 H 59.6221 -1.33044 0.922544 0
M  V30 643 H 61.6141 -3.99678 -0.635606 0
M  V30 644 H 60.1841 -2.98012 -0.943811 0
M  V30 645 H 59.4041 -3.66764 1.44491 0
M  V30 646 H 60.6921 -4.8852 1.42218 0
M  V30 647 H 60.0901 -5.38957 -1.71876 0
M  V30 648 H 58.6471 -6.31584 -1.61074 0
M  V30 649 N 62.0802 -0.821533 -1.34494 0
M  V30 650 C 63.3262 -0.418729 -1.99043 0
M  V30 651 C 63.6812 1.00672 -1.6396 0
M  V30 652 O 62.9742 1.69132 -0.900271 0
M  V30 653 C 63.1682 -0.556512 -3.53041 0
M  V30 654 C 62.9972 -1.9938 -4.03085 0
M  V30 655 C 61.7672 -2.62539 -4.31742 0
M  V30 656 C 63.9652 -2.96035 -4.20556 0
M  V30 657 N 61.9472 -3.97523 -4.67813 0
M  V30 658 C 63.3182 -4.15924 -4.59791 0
M  V30 659 C 65.3732 -2.9267 -4.02801 0
M  V30 660 C 64.0762 -5.32899 -4.83126 0
M  V30 661 C 66.1022 -4.08861 -4.27302 0
M  V30 662 C 65.4642 -5.275 -4.66822 0
M  V30 663 H 61.5632 -0.201299 -0.755647 0
M  V30 664 H 64.1472 -1.06594 -1.62929 0
M  V30 665 H 62.3182 0.0607924 -3.88352 0
M  V30 666 H 64.0502 -0.126842 -4.04501 0
M  V30 667 H 60.8052 -2.13789 -4.22601 0
M  V30 668 H 61.2292 -4.67061 -4.90085 0
M  V30 669 H 65.8712 -2.02088 -3.71376 0
M  V30 670 H 63.5892 -6.24041 -5.13418 0
M  V30 671 H 67.1752 -4.07654 -4.15101 0
M  V30 672 H 66.0552 -6.15913 -4.85408 0
M  V30 673 N 63.5583 1.46682 -0.576371 0
M  V30 674 C 64.4683 2.34032 0.163141 0
M  V30 675 C 65.4843 1.49367 0.892501 0
M  V30 676 O 66.6603 1.82252 0.857106 0
M  V30 677 C 63.7253 3.26435 1.16795 0
M  V30 678 C 62.7863 4.26998 0.443944 0
M  V30 679 C 62.0193 5.14986 1.40088 0
M  V30 680 O 62.2423 5.05785 2.637 0
M  V30 681 O 61.1763 5.94906 0.914917 0
M  V30 682 H 65.0023 2.98607 -0.55388 0
M  V30 683 H 62.5873 1.45554 -0.336821 0
M  V30 684 H 64.4693 3.83459 1.74748 0
M  V30 685 H 63.1443 2.64465 1.86655 0
M  V30 686 H 62.0513 3.7368 -0.177271 0
M  V30 687 H 63.3843 4.91736 -0.213566 0
M  V30 688 N 65.0364 0.313813 1.54444 0
M  V30 689 C 66.2834 -0.291675 2.00388 0
M  V30 690 C 66.6114 -1.52904 1.2021 0
M  V30 691 O 65.8664 -1.93833 0.269707 0
M  V30 692 C 66.1654 -0.680386 3.50864 0
M  V30 693 C 65.8314 0.456699 4.48581 0
M  V30 694 C 64.4934 0.768824 4.75018 0
M  V30 695 C 66.8454 1.22098 5.06697 0
M  V30 696 C 64.1734 1.84812 5.56831 0
M  V30 697 C 66.5254 2.29029 5.89685 0
M  V30 698 C 65.1894 2.60834 6.14428 0
M  V30 699 H 64.4594 -0.106732 0.733273 0
M  V30 700 H 67.1064 0.43557 1.86481 0
M  V30 701 H 65.4114 -1.48791 3.62448 0
M  V30 702 H 67.1084 -1.16026 3.83847 0
M  V30 703 H 63.6984 0.203337 4.28117 0
M  V30 704 H 67.8824 0.993096 4.86263 0
M  V30 705 H 63.1384 2.09912 5.74236 0
M  V30 706 H 67.3124 2.887 6.33739 0
M  V30 707 H 64.9394 3.44596 6.77612 0
M  V30 708 N 66.5145 -1.57545 0.0417849 0
M  V30 709 C 67.4465 -2.07904 -0.964799 0
M  V30 710 C 68.4595 -1.00497 -1.28079 0
M  V30 711 O 69.6485 -1.28087 -1.24322 0
M  V30 712 C 66.7485 -2.49928 -2.28887 0
M  V30 713 C 65.9215 -3.80562 -2.15619 0
M  V30 714 C 64.9805 -4.08999 -3.31069 0
M  V30 715 O 64.0065 -4.79061 -3.0739 0
M  V30 716 N 65.2085 -3.6017 -4.55256 0
M  V30 717 H 67.9735 -2.94886 -0.535029 0
M  V30 718 H 65.5345 -1.61252 -0.144681 0
M  V30 719 H 67.5265 -2.66034 -3.04972 0
M  V30 720 H 66.0965 -1.68245 -2.63463 0
M  V30 721 H 65.3165 -3.74129 -1.24183 0
M  V30 722 H 66.6045 -4.66126 -2.03971 0
M  V30 723 H 66.0025 -3.03512 -4.77386 0
M  V30 724 H 64.5595 -3.81532 -5.28466 0
M  V30 725 N 67.9926 0.231505 -1.5589 0
M  V30 726 C 68.9556 1.27028 -1.90779 0
M  V30 727 C 69.9556 1.40308 -0.785507 0
M  V30 728 O 71.1456 1.38744 -1.05336 0
M  V30 729 C 68.2776 2.64566 -2.14983 0
M  V30 730 H 69.4706 0.973017 -2.83677 0
M  V30 731 H 67.0236 0.471486 -1.49019 0
M  V30 732 H 67.7586 2.99406 -1.24604 0
M  V30 733 H 67.5436 2.56305 -2.96732 0
M  V30 734 H 69.0336 3.39543 -2.43105 0
M  V30 735 N 69.4707 1.49531 0.497807 0
M  V30 736 C 70.6957 1.63159 1.28039 0
M  V30 737 C 71.1207 0.30418 1.85624 0
M  V30 738 O 70.4787 -0.728618 1.66015 0
M  V30 739 C 70.5267 2.70537 2.38416 0
M  V30 740 O 69.6307 2.29931 3.42353 0
M  V30 741 H 68.9717 0.546001 0.377861 0
M  V30 742 H 71.5017 1.9574 0.59558 0
M  V30 743 H 71.5117 2.92802 2.84132 0
M  V30 744 H 70.1867 3.6689 1.95869 0
M  V30 745 H 68.7637 2.18009 3.02533 0
M  V30 746 N 70.9488 -0.749086 1.3866 0
M  V30 747 C 71.8968 -1.88428 1.36373 0
M  V30 748 C 72.8908 -1.67561 0.248929 0
M  V30 749 O 74.0968 -1.75074 0.41821 0
M  V30 750 H 70.4718 -0.620023 0.42553 0
M  V30 751 H 72.4428 -1.87473 2.32156 0
M  V30 752 C 71.1918 -3.25961 1.21014 0
M  V30 753 H 70.5148 -3.42607 2.06059 0
M  V30 754 H 71.9548 -4.05625 1.23469 0
M  V30 755 C 70.4138 -3.36799 -0.0825941 0
M  V30 756 O 70.9438 -3.87517 -1.05797 0
M  V30 757 N 69.1498 -2.90258 -0.140939 0
M  V30 758 H 68.6968 -2.49174 0.653477 0
M  V30 759 H 68.6548 -2.97889 -1.00545 0
M  V30 760 N 72.4269 -1.23603 -0.977757 0
M  V30 761 C 73.6519 -1.09735 -1.75991 0
M  V30 762 C 74.0769 0.346858 -1.84874 0
M  V30 763 O 73.4349 1.25093 -1.3123 0
M  V30 764 C 73.4829 -1.73051 -3.16363 0
M  V30 765 O 72.5869 -0.994452 -4.0023 0
M  V30 766 H 71.9279 -0.384476 -0.541364 0
M  V30 767 H 74.4579 -1.6371 -1.2272 0
M  V30 768 H 74.4679 -1.78398 -3.66931 0
M  V30 769 H 73.1429 -2.78137 -3.09213 0
M  V30 770 H 71.7199 -1.01812 -3.58732 0
M  V30 771 N 73.905 1.17692 -1.04816 0
M  V30 772 C 74.815 2.25229 -0.65643 0
M  V30 773 C 75.831 1.71018 0.320761 0
M  V30 774 O 77.007 2.00649 0.173805 0
M  V30 775 C 74.072 3.46684 -0.0332629 0
M  V30 776 C 73.133 4.15997 -1.06042 0
M  V30 777 C 72.366 5.31654 -0.466893 0
M  V30 778 O 72.589 5.65777 0.724758 0
M  V30 779 O 71.523 5.89831 -1.1993 0
M  V30 780 H 75.349 2.61016 -1.55255 0
M  V30 781 H 72.934 1.24919 -0.81949 0
M  V30 782 H 74.816 4.20234 0.313256 0
M  V30 783 H 73.491 3.12703 0.836566 0
M  V30 784 H 72.398 3.44482 -1.45886 0
M  V30 785 H 73.731 4.53996 -1.90127 0
M  V30 786 N 75.3831 0.828654 1.34056 0
M  V30 787 C 76.6111 0.43262 2.02326 0
M  V30 788 C 77.0261 -0.963147 1.62385 0
M  V30 789 O 76.3831 -1.62425 0.832121 0
M  V30 790 C 76.4341 0.53182 3.57567 0
M  V30 791 O 76.1551 1.87258 3.96063 0
M  V30 792 C 77.6561 0.131422 4.43105 0
M  V30 793 H 74.8761 0.172923 0.648335 0
M  V30 794 H 77.4201 1.1184 1.71208 0
M  V30 795 H 75.5751 -0.105938 3.87255 0
M  V30 796 H 75.9891 1.85087 4.90758 0
M  V30 797 H 77.4631 0.251904 5.51425 0
M  V30 798 H 77.9401 -0.925645 4.29335 0
M  V30 799 H 78.5461 0.743207 4.18756 0
M  V30 800 N 76.8612 -1.46375 0.584142 0
M  V30 801 C 78.0862 -2.07268 0.0740405 0
M  V30 802 C 78.5112 -1.42979 -1.22223 0
M  V30 803 O 77.8692 -0.514092 -1.73859 0
M  V30 804 C 77.9172 -3.60518 -0.0767769 0
M  V30 805 O 77.0212 -3.96533 -1.13292 0
M  V30 806 H 76.3622 -0.660961 0.0634524 0
M  V30 807 H 78.8922 -1.87991 0.807492 0
M  V30 808 H 78.9022 -4.07021 -0.282489 0
M  V30 809 H 77.5772 -4.06702 0.86986 0
M  V30 810 H 76.1542 -3.61738 -0.905553 0
M  V30 811 N 78.3393 -0.321999 -1.54275 0
M  V30 812 C 79.5853 0.274234 -2.01543 0
M  V30 813 C 79.9403 1.499 -1.20614 0
M  V30 814 O 79.2333 1.89546 -0.279804 0
M  V30 815 C 79.4273 0.661769 -3.5122 0
M  V30 816 C 79.2563 -0.523892 -4.46638 0
M  V30 817 C 78.0263 -1.02251 -4.94846 0
M  V30 818 C 80.2243 -1.37558 -4.95563 0
M  V30 819 N 78.2063 -2.17274 -5.74165 0
M  V30 820 C 79.5773 -2.37301 -5.7279 0
M  V30 821 C 81.6323 -1.40353 -4.77709 0
M  V30 822 C 80.3353 -3.3964 -6.34064 0
M  V30 823 C 82.3613 -2.41562 -5.39817 0
M  V30 824 C 81.7233 -3.40031 -6.16894 0
M  V30 825 H 77.8223 0.0642367 -0.779357 0
M  V30 826 H 80.4063 -0.456683 -1.89268 0
M  V30 827 H 78.5773 1.36182 -3.63743 0
M  V30 828 H 80.3093 1.23934 -3.85256 0
M  V30 829 H 77.0643 -0.594046 -4.6986 0
M  V30 830 H 77.4883 -2.75289 -6.18502 0
M  V30 831 H 82.1303 -0.655907 -4.17681 0
M  V30 832 H 79.8483 -4.15309 -6.93213 0
M  V30 833 H 83.4343 -2.44524 -5.2792 0
M  V30 834 H 82.3143 -4.17063 -6.64099 0
M  V30 835 N 79.8174 1.5752 -0.0501392 0
M  V30 836 C 81.0644 1.9265 0.623874 0
M  V30 837 C 81.3924 0.928411 1.70912 0
M  V30 838 O 80.6474 -0.0594525 1.9561 0
M  V30 839 C 80.9464 3.34467 1.25963 0
M  V30 840 C 80.6124 4.49883 0.302689 0
M  V30 841 C 79.2744 4.81184 0.0393636 0
M  V30 842 C 81.6264 5.20002 -0.353205 0
M  V30 843 C 78.9544 5.79951 -0.887308 0
M  V30 844 C 81.3064 6.1976 -1.26806 0
M  V30 845 C 79.9704 6.49491 -1.54007 0
M  V30 846 H 79.2404 0.704957 0.228292 0
M  V30 847 H 81.8874 1.91146 -0.116398 0
M  V30 848 H 80.1924 3.32333 2.07514 0
M  V30 849 H 81.8894 3.58928 1.78806 0
M  V30 850 H 78.4794 4.25457 0.518109 0
M  V30 851 H 82.6634 4.96033 -0.162854 0
M  V30 852 H 77.9194 6.01322 -1.10553 0
M  V30 853 H 82.0934 6.73205 -1.78236 0
M  V30 854 H 79.7204 7.25837 -2.25976 0
M  V30 855 N 81.2955 -0.223234 1.56011 0
M  V30 856 C 82.7065 -0.790368 1.69145 0
M  V30 857 C 83.0575 -1.85055 0.651845 0
M  V30 858 O 82.1825 -2.15498 -0.197359 0
M  V30 859 C 82.7775 -1.4404 3.06656 0
M  V30 860 C 81.3365 -1.95494 3.2165 0
M  V30 861 C 80.4835 -0.814506 2.65068 0
M  V30 862 H 83.4345 0.00139011 1.587 0
M  V30 863 H 83.4555 -2.30916 3.0242 0
M  V30 864 H 82.9675 -0.668543 3.82298 0
M  V30 865 H 81.0685 -2.75487 2.50874 0
M  V30 866 H 81.1815 -2.13607 4.28846 0
M  V30 867 H 79.5455 -1.22137 2.23505 0
M  V30 868 H 80.3285 -0.0553515 3.43255 0
M  V30 869 N 82.7736 -1.49793 -0.48987 0
M  V30 870 C 83.9986 -1.63836 -1.27172 0
M  V30 871 C 84.4236 -0.31402 -1.8546 0
M  V30 872 O 83.7816 0.719803 -1.66399 0
M  V30 873 C 83.8296 -2.71797 -2.36978 0
M  V30 874 O 82.9336 -2.31744 -3.41128 0
M  V30 875 H 82.2746 -0.547997 -0.37496 0
M  V30 876 H 84.8046 -1.96053 -0.585191 0
M  V30 877 H 84.8146 -2.94305 -2.82575 0
M  V30 878 H 83.4896 -3.67923 -1.93921 0
M  V30 879 H 82.0666 -2.1961 -3.01373 0
M  V30 880 N 84.2517 0.741722 -1.39055 0
M  V30 881 C 85.5007 1.49656 -1.35225 0
M  V30 882 C 85.8137 1.95533 0.0512708 0
M  V30 883 O 87.0197 2.7067 0.212138 0
M  V30 884 C 85.4757 2.70389 -2.37525 0
M  V30 885 C 85.0837 2.31489 -3.83558 0
M  V30 886 C 86.8277 3.48236 -2.42759 0
M  V30 887 C 84.7347 3.48903 -4.77515 0
M  V30 888 H 83.6647 0.56197 -0.502699 0
M  V30 889 H 86.3157 0.809727 -1.64668 0
M  V30 890 H 84.6977 3.41113 -2.01142 0
M  V30 891 H 85.8717 1.68354 -4.28945 0
M  V30 892 H 84.1867 1.66749 -3.81554 0
M  V30 893 H 86.7837 4.35558 -3.1015 0
M  V30 894 H 87.1267 3.90229 -1.45008 0
M  V30 895 H 87.6597 2.84535 -2.78002 0
M  V30 896 H 84.3987 3.11966 -5.76504 0
M  V30 897 H 83.9187 4.11041 -4.36813 0
M  V30 898 H 85.5977 4.15328 -4.96096 0
M  V30 899 N 85.7298 1.2412 0.971189 0
M  V30 900 C 86.6598 1.05508 2.08304 0
M  V30 901 C 87.6408 -0.0308864 1.70072 0
M  V30 902 O 88.8258 0.135521 1.93727 0
M  V30 903 C 85.9558 0.655365 3.4106 0
M  V30 904 C 84.9098 1.68971 3.93234 0
M  V30 905 C 84.2358 1.14516 5.22293 0
M  V30 906 C 85.5358 3.08487 4.21465 0
M  V30 907 H 87.2298 1.98507 2.24132 0
M  V30 908 H 84.7758 0.955821 1.07704 0
M  V30 909 H 86.7288 0.51217 4.18276 0
M  V30 910 H 85.4528 -0.31032 3.25122 0
M  V30 911 H 84.1118 1.82106 3.18171 0
M  V30 912 H 83.7598 0.170189 5.02712 0
M  V30 913 H 83.4598 1.83635 5.58168 0
M  V30 914 H 84.9838 1.01401 6.02121 0
M  V30 915 H 86.3978 2.98601 4.89398 0
M  V30 916 H 84.7948 3.74926 4.68562 0
M  V30 917 H 85.8648 3.56787 3.28376 0
M  V30 918 N 87.2079 -1.17134 1.05439 0
M  V30 919 C 88.4359 -1.91372 0.786414 0
M  V30 920 C 88.8509 -1.76955 -0.658202 0
M  V30 921 O 88.2079 -1.10838 -1.44987 0
M  V30 922 C 88.2589 -3.42356 1.1608 0
M  V30 923 O 87.9799 -3.56332 2.54871 0
M  V30 924 C 89.4809 -4.33663 0.919322 0
M  V30 925 H 86.7009 -0.607118 0.285743 0
M  V30 926 H 89.2449 -1.48525 1.40572 0
M  V30 927 H 87.3999 -3.82939 0.586191 0
M  V30 928 H 87.8139 -4.49896 2.69618 0
M  V30 929 H 89.2879 -5.38099 1.231 0
M  V30 930 H 89.7649 -4.38959 -0.145359 0
M  V30 931 H 90.3709 -3.98796 1.47789 0
M  V30 932 N 88.686 -0.835752 -1.33615 0
M  V30 933 C 89.649 -0.272 -2.2758 0
M  V30 934 C 90.649 0.557487 -1.50827 0
M  V30 935 O 91.839 0.37173 -1.70188 0
M  V30 936 C 88.971 0.617173 -3.35267 0
M  V30 937 H 90.164 -1.10111 -2.78954 0
M  V30 938 H 87.717 -0.608594 -1.43965 0
M  V30 939 H 88.452 1.46884 -2.89129 0
M  V30 940 H 88.237 0.0237066 -3.92093 0
M  V30 941 H 89.727 1.005 -4.05326 0
M  V30 942 N 90.1641 1.46063 -0.591896 0
M  V30 943 C 91.4101 2.02638 -0.0811191 0
M  V30 944 C 91.7431 1.4613 1.27905 0
M  V30 945 O 91.0181 0.629908 1.84017 0
M  V30 946 C 91.3011 3.60091 -0.0252436 0
M  V30 947 C 91.1541 4.26965 -1.41496 0
M  V30 948 C 92.4731 4.3496 0.670685 0
M  V30 949 H 89.5921 0.73635 -0.0309524 0
M  V30 950 H 92.2341 1.741 -0.760859 0
M  V30 951 H 90.3841 3.84535 0.553624 0
M  V30 952 H 92.0561 4.13756 -2.0397 0
M  V30 953 H 90.2991 3.85971 -1.98011 0
M  V30 954 H 90.9701 5.35781 -1.32825 0
M  V30 955 H 93.4461 4.15716 0.178825 0
M  V30 956 H 92.3221 5.44686 0.678837 0
M  V30 957 H 92.5831 4.06685 1.73379 0
M  V30 958 N 91.6422 0.330177 1.54103 0
M  V30 959 C 92.5722 -0.525353 2.27513 0
M  V30 960 C 93.5532 -1.11383 1.2856 0
M  V30 961 O 94.7382 -1.13773 1.57383 0
M  V30 962 C 91.8682 -1.6831 3.03791 0
M  V30 963 C 90.8222 -1.2236 4.10137 0
M  V30 964 C 90.1482 -2.46882 4.74293 0
M  V30 965 C 91.4482 -0.333697 5.21233 0
M  V30 966 H 93.1422 0.087013 2.99274 0
M  V30 967 H 90.6882 0.0432893 1.43935 0
M  V30 968 H 92.6412 -2.28795 3.5388 0
M  V30 969 H 91.3652 -2.32216 2.29659 0
M  V30 970 H 90.0242 -0.64165 3.60941 0
M  V30 971 H 89.6722 -3.09165 3.96769 0
M  V30 972 H 89.3722 -2.16825 5.46133 0
M  V30 973 H 90.8962 -3.08117 5.27159 0
M  V30 974 H 92.3102 -0.845013 5.67038 0
M  V30 975 H 90.7072 -0.125612 5.99969 0
M  V30 976 H 91.7772 0.633724 4.80741 0
M  V30 977 N 93.1203 -1.57491 0.0584922 0
M  V30 978 C 94.0703 -2.08474 -0.923188 0
M  V30 979 C 95.0543 -0.991479 -1.26722 0
M  V30 980 O 96.2463 -1.25473 -1.24842 0
M  V30 981 C 93.3753 -2.6392 -2.19548 0
M  V30 982 C 92.4613 -3.80227 -1.87852 0
M  V30 983 N 92.8523 -4.89714 -1.26546 0
M  V30 984 C 91.1503 -3.89271 -2.17679 0
M  V30 985 C 91.8513 -5.70689 -1.12644 0
M  V30 986 N 90.8273 -5.18531 -1.63176 0
M  V30 987 H 94.6293 -2.90517 -0.444653 0
M  V30 988 H 92.1433 -1.61745 -0.145764 0
M  V30 989 H 94.1403 -2.98752 -2.9078 0
M  V30 990 H 92.8003 -1.83318 -2.68001 0
M  V30 991 H 93.8113 -5.09358 -0.936757 0
M  V30 992 H 90.4883 -3.19623 -2.68602 0
M  V30 993 H 91.8783 -6.6875 -0.6499 0
M  V30 994 N 94.5984 0.214957 -1.56127 0
M  V30 995 C 95.5314 1.29382 -1.87977 0
M  V30 996 C 96.5094 1.44897 -0.737807 0
M  V30 997 O 97.6934 1.60605 -0.986833 0
M  V30 998 C 94.8204 2.66325 -2.09258 0
M  V30 999 C 93.8664 2.67789 -3.31951 0
M  V30 1000 S 94.6994 2.21198 -4.8768 0
M  V30 1001 C 95.8554 3.60003 -5.12004 0
M  V30 1002 H 96.0884 1.02173 -2.79192 0
M  V30 1003 H 93.6214 0.417516 -1.48648 0
M  V30 1004 H 95.5794 3.45162 -2.22201 0
M  V30 1005 H 94.2404 2.90755 -1.18829 0
M  V30 1006 H 93.4334 3.68436 -3.43906 0
M  V30 1007 H 93.0354 1.9702 -3.17898 0
M  V30 1008 H 95.3274 4.55739 -5.01307 0
M  V30 1009 H 96.2704 3.52959 -6.13861 0
M  V30 1010 H 96.6784 3.53996 -4.39712 0
M  V30 1011 N 96.0765 1.50051 0.48192 0
M  V30 1012 C 97.0395 1.67584 1.5636 0
M  V30 1013 C 98.0395 0.546894 1.51214 0
M  V30 1014 O 99.2295 0.813725 1.54026 0
M  V30 1015 C 96.3615 1.691 2.96003 0
M  V30 1016 H 97.5545 2.64078 1.42136 0
M  V30 1017 H 95.1075 1.39369 0.707533 0
M  V30 1018 H 95.8425 0.742589 3.15684 0
M  V30 1019 H 95.6275 2.51105 3.01146 0
M  V30 1020 H 97.1175 1.84656 3.74556 0
M  V30 1021 N 97.5546 -0.734337 1.39446 0
M  V30 1022 C 98.8026 -1.49096 1.36436 0
M  V30 1023 C 99.1236 -1.94961 -0.0388255 0
M  V30 1024 O 98.3936 -1.69033 -0.990191 0
M  V30 1025 H 96.9736 -0.5531 0.502085 0
M  V30 1026 H 99.6356 -0.871725 1.74319 0
M  V30 1027 H 98.7316 -2.37276 2.02747 0
M  V30 1028 N 99.0327 -1.24633 -0.964593 0
M  V30 1029 C 100.444 -1.08045 -1.5226 0
M  V30 1030 C 100.795 0.347116 -1.93105 0
M  V30 1031 O 99.9197 1.23588 -1.77637 0
M  V30 1032 C 100.515 -1.95514 -2.76695 0
M  V30 1033 C 99.0737 -1.8314 -3.28841 0
M  V30 1034 C 98.2207 -1.90262 -2.01732 0
M  V30 1035 H 101.172 -1.38064 -0.782553 0
M  V30 1036 H 101.193 -1.48925 -3.50145 0
M  V30 1037 H 100.705 -2.99407 -2.46936 0
M  V30 1038 H 98.8057 -0.82092 -3.63444 0
M  V30 1039 H 98.9187 -2.67406 -3.97531 0
M  V30 1040 H 97.2827 -1.34027 -2.16584 0
M  V30 1041 H 98.0657 -2.9574 -1.74334 0
M  V30 1042 N 100.511 1.16574 -1.06058 0
M  V30 1043 C 101.441 2.23057 -0.690488 0
M  V30 1044 C 102.422 1.67141 0.315901 0
M  V30 1045 O 103.607 1.93253 0.191556 0
M  V30 1046 C 100.737 3.47222 -0.073625 0
M  V30 1047 C 99.6908 4.16016 -1.00573 0
M  V30 1048 C 99.0168 5.34104 -0.252289 0
M  V30 1049 C 100.317 4.67264 -2.33371 0
M  V30 1050 H 102.011 2.54271 -1.58072 0
M  V30 1051 H 99.5568 1.22218 -0.76149 0
M  V30 1052 H 101.51 4.20939 0.19714 0
M  V30 1053 H 100.234 3.15302 0.85161 0
M  V30 1054 H 98.8928 3.44223 -1.2612 0
M  V30 1055 H 98.5408 4.98437 0.675988 0
M  V30 1056 H 98.2408 5.81072 -0.873455 0
M  V30 1057 H 99.7648 6.10599 0.0109857 0
M  V30 1058 H 101.179 5.32573 -2.12223 0
M  V30 1059 H 99.5758 5.24843 -2.90963 0
M  V30 1060 H 100.646 3.83602 -2.96611 0
M  V30 1061 N 101.989 0.842826 1.3317 0
M  V30 1062 C 103.229 0.446574 1.99462 0
M  V30 1063 C 103.593 -0.976818 1.65295 0
M  V30 1064 O 104.794 -1.477 2.24584 0
M  V30 1065 C 103.065 0.665353 3.51152 0
M  V30 1066 S 104.624 0.364911 4.3728 0
M  V30 1067 H 101.442 0.167803 0.690915 0
M  V30 1068 H 104.044 1.09297 1.62094 0
M  V30 1069 H 102.748 1.7006 3.73507 0
M  V30 1070 H 102.279 0.00494568 3.934 0
M  V30 1071 H 104.294 -0.813761 4.89482 0
M  V30 1072 N 103.467 -1.45747 0.599634 0
M  V30 1073 C 104.692 -2.07178 0.0960198 0
M  V30 1074 C 105.117 -1.44268 -1.207 0
M  V30 1075 O 104.475 -0.532503 -1.73303 0
M  V30 1076 C 104.523 -3.60579 -0.0385348 0
M  V30 1077 O 103.627 -3.97713 -1.0908 0
M  V30 1078 H 102.968 -0.660251 0.0704593 0
M  V30 1079 H 105.498 -1.87124 0.827385 0
M  V30 1080 H 105.508 -4.07298 -0.239304 0
M  V30 1081 H 104.183 -4.05756 0.912947 0
M  V30 1082 H 102.76 -3.62678 -0.867135 0
M  V30 1083 N 104.945 -0.338344 -1.53925 0
M  V30 1084 C 106.194 0.260732 -2.00008 0
M  V30 1085 C 106.507 1.52073 -1.23017 0
M  V30 1086 O 107.713 2.19672 -1.5955 0
M  V30 1087 C 106.169 0.51515 -3.56194 0
M  V30 1088 C 105.777 -0.728645 -4.42035 0
M  V30 1089 C 107.521 1.07337 -4.10706 0
M  V30 1090 C 105.428 -0.445315 -5.89721 0
M  V30 1091 H 104.358 0.101205 -0.747177 0
M  V30 1092 H 107.009 -0.452866 -1.77824 0
M  V30 1093 H 105.391 1.28932 -3.74423 0
M  V30 1094 H 106.565 -1.50352 -4.35581 0
M  V30 1095 H 104.88 -1.20813 -3.98489 0
M  V30 1096 H 107.477 1.30022 -5.18651 0
M  V30 1097 H 107.82 2.0273 -3.63602 0
M  V30 1098 H 108.353 0.360034 -3.96167 0
M  V30 1099 H 105.092 -1.36883 -6.41049 0
M  V30 1100 H 104.612 0.291569 -5.99091 0
M  V30 1101 H 106.291 -0.0606218 -6.46972 0
M  V30 1102 N 106.423 1.57458 -0.0668435 0
M  V30 1103 C 107.353 2.15468 0.899764 0
M  V30 1104 C 108.334 1.08042 1.31381 0
M  V30 1105 O 109.519 1.36054 1.38574 0
M  V30 1106 C 106.649 2.71232 2.16911 0
M  V30 1107 C 105.603 3.83781 1.89463 0
M  V30 1108 C 104.929 4.26127 3.22986 0
M  V30 1109 C 106.229 5.08238 1.20381 0
M  V30 1110 H 107.923 2.96488 0.416529 0
M  V30 1111 H 105.469 1.4262 0.198908 0
M  V30 1112 H 107.422 3.10458 2.84945 0
M  V30 1113 H 106.146 1.87426 2.67468 0
M  V30 1114 H 104.805 3.45051 1.23836 0
M  V30 1115 H 104.453 3.39249 3.71374 0
M  V30 1116 H 104.153 5.01993 3.05413 0
M  V30 1117 H 105.677 4.67966 3.92225 0
M  V30 1118 H 107.091 5.44811 1.78475 0
M  V30 1119 H 105.488 5.89349 1.13083 0
M  V30 1120 H 106.558 4.84558 0.182153 0
M  V30 1121 N 107.901 -0.206675 1.56239 0
M  V30 1122 C 109.147 -0.930218 1.80208 0
M  V30 1123 C 109.48 -1.83387 0.638981 0
M  V30 1124 O 108.755 -1.91119 -0.361066 0
M  V30 1125 C 109.038 -1.75641 3.1436 0
M  V30 1126 C 108.891 -0.878257 4.41142 0
M  V30 1127 C 110.21 -2.73129 3.45092 0
M  V30 1128 H 107.329 -0.336742 0.655571 0
M  V30 1129 H 109.971 -0.198222 1.88963 0
M  V30 1130 H 108.121 -2.38048 3.07027 0
M  V30 1131 H 109.793 -0.269787 4.6051 0
M  V30 1132 H 108.036 -0.184385 4.33408 0
M  V30 1133 H 108.707 -1.49106 5.3148 0
M  V30 1134 H 111.183 -2.20856 3.52649 0
M  V30 1135 H 110.059 -3.28028 4.40101 0
M  V30 1136 H 110.32 -3.51606 2.68003 0
M  V30 1137 N 109.379 -1.50304 -0.473955 0
M  V30 1138 C 110.627 -1.60832 -1.22382 0
M  V30 1139 C 110.948 -0.30939 -1.9253 0
M  V30 1140 O 110.218 0.67296 -1.83978 0
M  V30 1141 H 108.798 -0.592652 -0.454723 0
M  V30 1142 H 111.46 -1.87068 -0.546968 0
M  V30 1143 H 110.556 -2.41803 -1.97327 0
M  V30 1144 N 110.857 0.726932 -1.39834 0
M  V30 1145 C 112.273 1.03354 -1.21615 0
M  V30 1146 C 112.473 2.01327 -0.08338 0
M  V30 1147 O 111.529 2.46158 0.56238 0
M  V30 1148 C 112.842 1.58811 -2.55342 0
M  V30 1149 C 114.39 1.70851 -2.62257 0
M  V30 1150 C 114.865 2.29716 -3.96225 0
M  V30 1151 N 116.356 2.37116 -3.97907 0
M  V30 1152 C 117.091 2.83619 -4.98345 0
M  V30 1153 N 116.587 3.29958 -6.09179 0
M  V30 1154 N 118.38 2.82901 -4.8572 0
M  V30 1155 H 110.531 0.0773069 -2.12259 0
M  V30 1156 H 112.794 0.0969102 -0.943034 0
M  V30 1157 H 112.5 0.942855 -3.38826 0
M  V30 1158 H 112.374 2.57502 -2.75632 0
M  V30 1159 H 114.761 2.34497 -1.79152 0
M  V30 1160 H 114.842 0.707913 -2.45809 0
M  V30 1161 H 114.486 1.66696 -4.79765 0
M  V30 1162 H 114.416 3.30469 -4.09997 0
M  V30 1163 H 116.907 2.04374 -3.17868 0
M  V30 1164 H 117.22 3.63976 -6.8172 0
M  V30 1165 H 115.565 3.27946 -6.12761 0
M  V30 1166 H 118.756 2.46027 -3.98231 0
M  V30 1167 H 118.929 3.18827 -5.6414 0
M  V30 1168 N 112.336 1.25143 0.95797 0
M  V30 1169 C 113.583 1.09692 1.70217 0
M  V30 1170 C 113.911 -0.362654 1.91089 0
M  V30 1171 O 113.166 -1.28386 1.47701 0
M  V30 1172 C 113.465 1.79272 3.09187 0
M  V30 1173 C 113.131 3.29196 3.08125 0
M  V30 1174 C 111.793 3.70096 3.07543 0
M  V30 1175 C 114.145 4.24995 3.0171 0
M  V30 1176 C 111.473 5.05213 2.9829 0
M  V30 1177 C 113.825 5.60132 2.93999 0
M  V30 1178 C 112.489 6.00365 2.9175 0
M  V30 1179 H 111.759 0.401393 0.622868 0
M  V30 1180 H 114.406 1.55372 1.11945 0
M  V30 1181 H 112.711 1.26014 3.70982 0
M  V30 1182 H 114.408 1.64773 3.65583 0
M  V30 1183 H 110.998 2.96651 3.09348 0
M  V30 1184 H 115.182 3.9439 3.01281 0
M  V30 1185 H 110.438 5.35569 2.94916 0
M  V30 1186 H 114.612 6.3406 2.87996 0
M  V30 1187 H 112.239 7.05023 2.84336 0
M  V30 1188 N 113.814 -1.1601 1.06675 0
M  V30 1189 C 115.062 -1.86264 0.784229 0
M  V30 1190 C 115.383 -1.82328 -0.691488 0
M  V30 1191 O 114.653 -1.25947 -1.50047 0
M  V30 1192 H 113.233 -0.689621 0.28711 0
M  V30 1193 H 115.895 -1.40664 1.34906 0
M  V30 1194 H 114.991 -2.91595 1.11259 0
M  V30 1195 N 115.292 -0.849877 -1.32721 0
M  V30 1196 C 116.532 -0.457146 -1.99222 0
M  V30 1197 C 116.896 0.968038 -1.6581 0
M  V30 1198 O 118.097 1.46507 -2.25364 0
M  V30 1199 C 116.368 -0.683966 -3.50794 0
M  V30 1200 S 117.927 -0.388095 -4.3708 0
M  V30 1201 H 114.745 -0.171464 -0.690015 0
M  V30 1202 H 117.347 -1.10155 -1.61512 0
M  V30 1203 H 116.051 -1.72038 -3.726 0
M  V30 1204 H 115.582 -0.0258086 -3.93392 0
M  V30 1205 H 117.597 0.787791 -4.89906 0
M  V30 1206 N 116.77 1.45427 -0.607355 0
M  V30 1207 C 118.186 1.57283 -0.270985 0
M  V30 1208 C 118.386 1.59875 1.22647 0
M  V30 1209 O 117.442 1.52893 2.00948 0
M  V30 1210 C 118.755 2.85566 -0.941952 0
M  V30 1211 C 120.303 2.9924 -0.917849 0
M  V30 1212 C 120.778 4.30293 -1.56882 0
M  V30 1213 N 122.269 4.37051 -1.5343 0
M  V30 1214 C 123.004 5.37123 -2.00715 0
M  V30 1215 N 122.5 6.43734 -2.56084 0
M  V30 1216 N 124.293 5.28479 -1.91484 0
M  V30 1217 H 116.444 1.41988 -1.57966 0
M  V30 1218 H 118.707 0.67885 -0.661715 0
M  V30 1219 H 118.413 2.8955 -1.99633 0
M  V30 1220 H 118.287 3.74322 -0.465096 0
M  V30 1221 H 120.674 2.94822 0.127984 0
M  V30 1222 H 120.755 2.11895 -1.43297 0
M  V30 1223 H 120.399 4.35469 -2.61398 0
M  V30 1224 H 120.329 5.16454 -1.02873 0
M  V30 1225 H 122.82 3.60615 -1.12982 0
M  V30 1226 H 123.133 7.16341 -2.89958 0
M  V30 1227 H 121.478 6.44485 -2.60122 0
M  V30 1228 H 124.669 4.44098 -1.47967 0
M  V30 1229 H 124.842 6.0632 -2.28648 0
M  V30 1230 N 118.248 0.346503 1.53744 0
M  V30 1231 C 119.494 -0.249473 2.0126 0
M  V30 1232 C 119.827 -1.49965 1.23386 0
M  V30 1233 O 119.102 -1.91811 0.32229 0
M  V30 1234 C 119.385 -0.560643 3.55709 0
M  V30 1235 C 119.238 0.701836 4.44291 0
M  V30 1236 C 120.557 -1.36905 4.18264 0
M  V30 1237 H 117.676 -0.0891987 0.731582 0
M  V30 1238 H 120.318 0.467624 1.84156 0
M  V30 1239 H 118.468 -1.17156 3.70414 0
M  V30 1240 H 120.14 1.33974 4.41417 0
M  V30 1241 H 118.383 1.32612 4.13033 0
M  V30 1242 H 119.054 0.43933 5.50249 0
M  V30 1243 H 121.53 -0.852448 4.07275 0
M  V30 1244 H 120.406 -1.55553 5.26398 0
M  V30 1245 H 120.667 -2.37203 3.73078 0
M  V30 1246 N 119.726 -1.57421 0.075193 0
M  V30 1247 C 120.954 -1.97946 -0.602076 0
M  V30 1248 C 121.369 -0.953674 -1.62943 0
M  V30 1249 O 120.726 0.0592551 -1.82404 0
M  V30 1250 C 120.777 -3.38546 -1.26762 0
M  V30 1251 O 120.498 -4.37195 -0.281376 0
M  V30 1252 C 121.999 -3.93966 -2.03239 0
M  V30 1253 H 119.219 -0.650918 -0.162931 0
M  V30 1254 H 121.763 -2.03959 0.148601 0
M  V30 1255 H 119.918 -3.33609 -1.96936 0
M  V30 1256 H 120.332 -5.18975 -0.759267 0
M  V30 1257 H 121.806 -4.94555 -2.45193 0
M  V30 1258 H 122.283 -3.30693 -2.8903 0
M  V30 1259 H 122.889 -4.02315 -1.37924 0
M  V30 1260 N 121.204 0.198386 -1.56346 0
M  V30 1261 C 122.45 0.920648 -1.80698 0
M  V30 1262 C 122.783 1.83045 -0.648697 0
M  V30 1263 O 122.058 1.91308 0.350925 0
M  V30 1264 C 122.341 1.73971 -3.15287 0
M  V30 1265 C 122.194 0.85485 -4.41602 0
M  V30 1266 C 123.513 2.71296 -3.46535 0
M  V30 1267 H 120.632 0.333261 -0.657348 0
M  V30 1268 H 123.274 0.188198 -1.89066 0
M  V30 1269 H 121.424 2.36416 -3.08285 0
M  V30 1270 H 123.096 0.245362 -4.60647 0
M  V30 1271 H 121.339 0.161398 -4.335 0
M  V30 1272 H 122.01 1.46286 -5.32264 0
M  V30 1273 H 124.486 2.18983 -3.53816 0
M  V30 1274 H 123.362 3.2569 -4.41834 0
M  V30 1275 H 123.623 3.5018 -2.69864 0
M  V30 1276 N 122.682 1.50554 0.465978 0
M  V30 1277 C 123.615 1.64436 1.58227 0
M  V30 1278 C 124.593 0.492367 1.54966 0
M  V30 1279 O 125.777 0.712536 1.74514 0
M  V30 1280 C 122.904 1.63165 2.96808 0
M  V30 1281 C 121.95 2.83987 3.18204 0
M  V30 1282 S 122.783 4.45219 2.97557 0
M  V30 1283 C 123.939 4.46649 4.3847 0
M  V30 1284 H 124.172 2.58861 1.46213 0
M  V30 1285 H 121.705 1.3988 0.653678 0
M  V30 1286 H 123.663 1.63116 3.76701 0
M  V30 1287 H 122.324 0.69967 3.06208 0
M  V30 1288 H 121.517 2.79416 4.19455 0
M  V30 1289 H 121.119 2.81629 2.46092 0
M  V30 1290 H 123.411 4.20526 5.31191 0
M  V30 1291 H 124.354 5.48295 4.48082 0
M  V30 1292 H 124.762 3.76296 4.20787 0
M  V30 1293 N 124.16 -0.719506 1.40217 0
M  V30 1294 C 125.09 -1.8465 1.42922 0
M  V30 1295 C 126.071 -1.67599 0.29062 0
M  V30 1296 O 127.256 -1.87688 0.498677 0
M  V30 1297 C 124.386 -3.22565 1.28722 0
M  V30 1298 C 123.34 -3.54281 2.40144 0
M  V30 1299 C 122.666 -4.91298 2.11023 0
M  V30 1300 C 123.966 -3.55676 3.82481 0
M  V30 1301 H 125.66 -1.82644 2.37237 0
M  V30 1302 H 123.206 -0.877305 1.1419 0
M  V30 1303 H 125.159 -4.01095 1.29232 0
M  V30 1304 H 123.883 -3.25137 0.308811 0
M  V30 1305 H 122.542 -2.78088 2.38877 0
M  V30 1306 H 122.19 -4.90468 1.11582 0
M  V30 1307 H 121.89 -5.13485 2.8567 0
M  V30 1308 H 123.414 -5.72166 2.13209 0
M  V30 1309 H 124.828 -4.24254 3.85592 0
M  V30 1310 H 123.225 -3.89388 4.56614 0
M  V30 1311 H 124.295 -2.55144 4.12346 0
M  V30 1312 N 125.638 -1.25649 -0.95132 0
M  V30 1313 C 126.886 -1.10375 -1.69298 0
M  V30 1314 C 127.207 0.355339 -1.91735 0
M  V30 1315 O 126.477 1.25188 -1.50681 0
M  V30 1316 H 125.057 -0.405461 -0.627384 0
M  V30 1317 H 127.719 -1.57823 -1.14358 0
M  V30 1318 H 126.815 -1.61465 -2.67087 0
M  V30 1319 N 127.117 1.15442 -1.07289 0
M  V30 1320 C 128.365 1.85845 -0.794096 0
M  V30 1321 C 128.686 1.82692 0.681809 0
M  V30 1322 O 127.956 1.26741 1.49377 0
M  V30 1323 H 126.536 0.688089 -0.290763 0
M  V30 1324 H 129.198 1.39947 -1.3565 0
M  V30 1325 H 128.294 2.91001 -1.12804 0
M  V30 1326 N 128.595 0.856903 1.32268 0
M  V30 1327 C 129.841 0.462069 1.97466 0
M  V30 1328 C 130.174 -0.980298 1.67642 0
M  V30 1329 O 129.449 -1.68824 0.965858 0
M  V30 1330 C 129.732 0.704336 3.53145 0
M  V30 1331 C 129.585 2.19529 3.9259 0
M  V30 1332 C 130.904 0.1622 4.39801 0
M  V30 1333 H 128.023 0.169357 0.717278 0
M  V30 1334 H 130.665 1.07574 1.56614 0
M  V30 1335 H 128.815 0.181999 3.88073 0
M  V30 1336 H 130.487 2.78387 3.67829 0
M  V30 1337 H 128.73 2.67292 3.41668 0
M  V30 1338 H 129.401 2.31549 5.01088 0
M  V30 1339 H 131.877 0.608905 4.11621 0
M  V30 1340 H 130.753 0.361265 5.4771 0
M  V30 1341 H 131.014 -0.935158 4.32096 0
M  V30 1342 N 130.073 -1.45103 0.615059 0
M  V30 1343 C 131.003 -2.33339 -0.0865619 0
M  V30 1344 C 131.984 -1.4727 -0.851209 0
M  V30 1345 O 133.169 -1.76026 -0.820281 0
M  V30 1346 C 130.299 -3.30095 -1.07956 0
M  V30 1347 C 129.253 -4.25858 -0.427628 0
M  V30 1348 C 128.579 -5.12361 -1.5294 0
M  V30 1349 C 129.879 -5.18165 0.655944 0
M  V30 1350 H 131.573 -2.92254 0.650224 0
M  V30 1351 H 129.119 -1.40532 0.314138 0
M  V30 1352 H 131.072 -3.90698 -1.57901 0
M  V30 1353 H 129.796 -2.69355 -1.84703 0
M  V30 1354 H 128.455 -3.66564 0.0510292 0
M  V30 1355 H 128.103 -4.47984 -2.28734 0
M  V30 1356 H 127.803 -5.77238 -1.09865 0
M  V30 1357 H 129.327 -5.75833 -2.03098 0
M  V30 1358 H 130.741 -5.72796 0.240257 0
M  V30 1359 H 129.138 -5.91559 1.00888 0
M  V30 1360 H 130.208 -4.60144 1.52957 0
M  V30 1361 N 131.551 -0.354651 -1.53558 0
M  V30 1362 C 132.514 0.484566 -2.24019 0
M  V30 1363 C 133.514 1.01861 -1.24422 0
M  V30 1364 O 134.704 0.906097 -1.4878 0
M  V30 1365 C 131.836 1.67615 -2.96847 0
M  V30 1366 H 133.029 -0.131843 -2.9961 0
M  V30 1367 H 130.582 -0.106165 -1.55939 0
M  V30 1368 H 131.317 2.33095 -2.25471 0
M  V30 1369 H 131.102 1.30029 -3.69912 0
M  V30 1370 H 132.592 2.27114 -3.50441 0
M  V30 1371 N 133.029 1.57378 -0.0835403 0
M  V30 1372 C 134.254 1.98682 0.594987 0
M  V30 1373 C 134.679 0.961969 1.61641 0
M  V30 1374 O 134.037 -0.0709989 1.81161 0
M  V30 1375 C 134.085 3.38988 1.2296 0
M  V30 1376 O 133.189 3.39208 2.34546 0
M  V30 1377 H 132.53 0.646368 0.152002 0
M  V30 1378 H 135.06 2.03961 -0.161533 0
M  V30 1379 H 135.07 3.76431 1.57366 0
M  V30 1380 H 133.745 4.13107 0.481228 0
M  V30 1381 H 132.322 3.13548 2.01846 0
M  V30 1382 N 134.507 -0.190092 1.56449 0
M  V30 1383 C 135.437 -1.23816 1.97969 0
M  V30 1384 C 136.418 -1.47201 0.852395 0
M  V30 1385 O 137.603 -1.58854 1.1171 0
M  V30 1386 C 134.733 -2.5813 2.3235 0
M  V30 1387 C 133.687 -2.49348 3.47864 0
M  V30 1388 C 133.013 -3.8798 3.67934 0
M  V30 1389 C 134.313 -2.01424 4.81898 0
M  V30 1390 H 136.007 -0.89311 2.85769 0
M  V30 1391 H 133.553 -0.428177 1.37487 0
M  V30 1392 H 135.506 -3.31637 2.59991 0
M  V30 1393 H 134.23 -2.94386 1.41438 0
M  V30 1394 H 132.889 -1.78297 3.20321 0
M  V30 1395 H 132.537 -4.21597 2.74344 0
M  V30 1396 H 132.237 -3.82978 4.45648 0
M  V30 1397 H 133.761 -4.63101 3.97957 0
M  V30 1398 H 135.175 -2.64693 5.08538 0
M  V30 1399 H 133.572 -2.07413 5.63116 0
M  V30 1400 H 134.642 -0.967677 4.75146 0
M  V30 1401 N 135.985 -1.50799 -0.457987 0
M  V30 1402 C 137.233 -1.62121 -1.2067 0
M  V30 1403 C 137.554 -0.329793 -1.92191 0
M  V30 1404 O 136.824 0.653409 -1.84682 0
M  V30 1405 H 135.404 -0.597441 -0.448411 0
M  V30 1406 H 138.066 -1.87637 -0.527096 0
M  V30 1407 H 137.162 -2.43882 -1.94751 0
M  V30 1408 N 137.463 0.71206 -1.40597 0
M  V30 1409 C 138.396 1.83582 -1.35546 0
M  V30 1410 C 139.374 1.61032 -0.225284 0
M  V30 1411 O 140.558 1.83998 -0.409519 0
M  V30 1412 C 137.685 3.19983 -1.11034 0
M  V30 1413 C 136.731 3.61355 -2.2655 0
M  V30 1414 S 137.564 3.68062 -3.88961 0
M  V30 1415 C 138.72 5.07216 -3.66719 0
M  V30 1416 H 138.953 1.87586 -2.30648 0
M  V30 1417 H 136.486 0.879182 -1.26924 0
M  V30 1418 H 138.444 3.98734 -0.975761 0
M  V30 1419 H 137.105 3.13608 -0.175798 0
M  V30 1420 H 136.298 4.60403 -2.0505 0
M  V30 1421 H 135.9 2.8987 -2.36329 0
M  V30 1422 H 138.192 5.94238 -3.25404 0
M  V30 1423 H 139.135 5.33753 -4.6531 0
M  V30 1424 H 139.543 4.77976 -3.00332 0
M  V30 1425 N 138.941 1.26152 0.944643 0
M  V30 1426 C 140.187 1.11657 1.69294 0
M  V30 1427 C 140.52 -0.339926 1.91202 0
M  V30 1428 O 139.795 -1.24994 1.49019 0
M  V30 1429 C 140.078 1.88236 3.06984 0
M  V30 1430 C 139.931 3.41772 2.92424 0
M  V30 1431 C 141.25 1.67343 4.07043 0
M  V30 1432 H 138.369 0.407004 0.614424 0
M  V30 1433 H 141.011 1.55106 1.09737 0
M  V30 1434 H 139.161 1.51308 3.57824 0
M  V30 1435 H 140.833 3.88433 2.48832 0
M  V30 1436 H 139.076 3.68974 2.28124 0
M  V30 1437 H 139.747 3.90579 3.90067 0
M  V30 1438 H 142.223 1.99509 3.65151 0
M  V30 1439 H 141.099 2.23346 5.01406 0
M  V30 1440 H 141.36 0.617158 4.37771 0
M  V30 1441 N 140.419 -1.14872 1.07899 0
M  V30 1442 C 141.382 -2.17986 0.708161 0
M  V30 1443 C 142.382 -1.58775 -0.25442 0
M  V30 1444 O 143.572 -1.74166 -0.034645 0
M  V30 1445 C 140.704 -3.40871 0.0446929 0
M  V30 1446 H 141.897 -2.52306 1.62116 0
M  V30 1447 H 139.45 -1.2943 0.876218 0
M  V30 1448 H 140.185 -3.12124 -0.880281 0
M  V30 1449 H 139.97 -3.8511 0.737091 0
M  V30 1450 H 141.46 -4.17121 -0.19991 0
M  V30 1451 N 141.898 -0.863906 -1.31812 0
M  V30 1452 C 143.123 -0.48527 -2.01643 0
M  V30 1453 C 143.548 0.913058 -1.64453 0
M  V30 1454 O 142.906 1.6014 -0.849985 0
M  V30 1455 C 142.954 -0.642625 -3.54828 0
M  V30 1456 O 142.058 0.320659 -4.11151 0
M  V30 1457 H 141.399 -0.193793 -0.635091 0
M  V30 1458 H 143.929 -1.16565 -1.68148 0
M  V30 1459 H 143.939 -0.533628 -4.04495 0
M  V30 1460 H 142.614 -1.66227 -3.81237 0
M  V30 1461 H 141.191 0.167126 -3.72525 0
M  V30 1462 N 143.376 1.44774 -0.622745 0
M  V30 1463 C 144.601 2.06999 -0.128968 0
M  V30 1464 C 145.026 1.4617 1.1839 0
M  V30 1465 O 144.384 0.560007 1.72434 0
M  V30 1466 C 144.432 3.60595 -0.0188351 0
M  V30 1467 O 143.536 3.99398 1.02739 0
M  V30 1468 H 142.877 0.659047 -0.0809544 0
M  V30 1469 H 145.407 1.85784 -0.85705 0
M  V30 1470 H 145.417 4.07627 0.174476 0
M  V30 1471 H 144.092 4.04252 -0.977384 0
M  V30 1472 H 142.669 3.64011 0.809326 0
M  V30 1473 N 144.854 0.36279 1.53368 0
M  V30 1474 C 146.101 -0.227776 2.01215 0
M  V30 1475 C 146.429 -1.49003 1.25014 0
M  V30 1476 O 145.684 -1.92876 0.331236 0
M  V30 1477 C 145.983 -0.568417 3.52851 0
M  V30 1478 C 145.649 0.59918 4.46901 0
M  V30 1479 C 144.311 0.919559 4.72332 0
M  V30 1480 C 146.663 1.38156 5.02556 0
M  V30 1481 C 143.991 2.02434 5.5067 0
M  V30 1482 C 146.343 2.47674 5.821 0
M  V30 1483 C 145.007 2.8025 6.05819 0
M  V30 1484 H 144.277 -0.083349 0.736297 0
M  V30 1485 H 146.924 0.494677 1.85001 0
M  V30 1486 H 145.229 -1.37185 3.66998 0
M  V30 1487 H 146.926 -1.03756 3.87344 0
M  V30 1488 H 143.516 0.339437 4.27254 0
M  V30 1489 H 147.7 1.14729 4.82857 0
M  V30 1490 H 142.956 2.28075 5.67267 0
M  V30 1491 H 147.13 3.08716 6.24234 0
M  V30 1492 H 144.757 3.65979 6.66306 0
M  V30 1493 N 146.332 -1.57332 0.0918853 0
M  V30 1494 C 147.557 -1.98995 -0.584442 0
M  V30 1495 C 147.982 -0.970528 -1.61128 0
M  V30 1496 O 147.34 0.0613904 -1.81196 0
M  V30 1497 C 147.388 -3.39636 -1.21161 0
M  V30 1498 O 146.492 -3.40447 -2.32744 0
M  V30 1499 H 145.833 -0.647165 -0.148572 0
M  V30 1500 H 148.363 -2.03873 0.172347 0
M  V30 1501 H 148.373 -3.7726 -1.55367 0
M  V30 1502 H 147.048 -4.13356 -0.459313 0
M  V30 1503 H 145.625 -3.14614 -2.0018 0
M  V30 1504 N 147.81 0.181792 -1.56548 0
M  V30 1505 C 148.76 1.22961 -1.92002 0
M  V30 1506 C 149.744 1.40331 -0.787146 0
M  V30 1507 O 150.936 1.42478 -1.05019 0
M  V30 1508 C 148.065 2.57144 -2.27446 0
M  V30 1509 C 147.151 2.43512 -3.47222 0
M  V30 1510 N 147.542 1.99577 -4.64761 0
M  V30 1511 C 145.84 2.74368 -3.51622 0
M  V30 1512 C 146.541 1.98156 -5.46909 0
M  V30 1513 N 145.517 2.40164 -4.8767 0
M  V30 1514 H 149.319 0.881462 -2.8037 0
M  V30 1515 H 146.833 0.390141 -1.57644 0
M  V30 1516 H 148.83 3.32847 -2.51035 0
M  V30 1517 H 147.49 2.92771 -1.40411 0
M  V30 1518 H 148.501 1.70078 -4.89177 0
M  V30 1519 H 145.178 3.14102 -2.75038 0
M  V30 1520 H 146.568 1.65975 -6.51077 0
M  V30 1521 N 149.288 1.51039 0.449983 0
M  V30 1522 C 150.236 1.71995 1.5659 0
M  V30 1523 C 151.23 0.586029 1.5894 0
M  V30 1524 O 152.436 0.76709 1.62837 0
M  V30 1525 H 148.811 0.543233 0.520001 0
M  V30 1526 H 150.782 2.65562 1.36085 0
M  V30 1527 C 149.531 1.8506 2.9436 0
M  V30 1528 H 148.854 2.71712 2.93279 0
M  V30 1529 H 150.294 2.0374 3.71842 0
M  V30 1530 C 148.753 0.607277 3.31382 0
M  V30 1531 O 149.283 -0.243903 4.00959 0
M  V30 1532 N 147.489 0.455073 2.87015 0
M  V30 1533 H 147.036 1.14879 2.30566 0
M  V30 1534 H 146.994 -0.375611 3.12148 0
M  V30 1535 N 150.766 -0.704594 1.40972 0
M  V30 1536 C 151.696 -1.83124 1.44872 0
M  V30 1537 C 152.677 -1.67281 0.30838 0
M  V30 1538 O 153.862 -1.87149 0.518556 0
M  V30 1539 C 150.992 -3.21181 1.32136 0
M  V30 1540 C 149.946 -3.51714 2.43888 0
M  V30 1541 C 149.272 -4.89032 2.16222 0
M  V30 1542 C 150.572 -3.516 3.86232 0
M  V30 1543 H 152.266 -1.80117 2.39161 0
M  V30 1544 H 149.812 -0.865145 1.15114 0
M  V30 1545 H 151.765 -3.99702 1.33479 0
M  V30 1546 H 150.489 -3.24791 0.343279 0
M  V30 1547 H 149.148 -2.75539 2.41813 0
M  V30 1548 H 148.796 -4.89256 1.16778 0
M  V30 1549 H 148.496 -5.10426 2.911 0
M  V30 1550 H 150.02 -5.69873 2.19265 0
M  V30 1551 H 151.434 -4.2014 3.9007 0
M  V30 1552 H 149.831 -3.84523 4.60719 0
M  V30 1553 H 150.901 -2.50757 4.15029 0
M  V30 1554 N 152.244 -1.26651 -0.937939 0
M  V30 1555 C 153.469 -1.15279 -1.72411 0
M  V30 1556 C 153.894 0.287866 -1.85884 0
M  V30 1557 O 153.252 1.20855 -1.35143 0
M  V30 1558 C 153.3 -1.83028 -3.10698 0
M  V30 1559 O 152.404 -1.12128 -3.96864 0
M  V30 1560 H 151.745 -0.401504 -0.528858 0
M  V30 1561 H 154.275 -1.67531 -1.1745 0
M  V30 1562 H 154.285 -1.89981 -3.6107 0
M  V30 1563 H 152.96 -2.87833 -3.00208 0
M  V30 1564 H 151.537 -1.13173 -3.55312 0
M  V30 1565 N 153.722 1.14298 -1.08507 0
M  V30 1566 C 154.654 2.1907 -0.673859 0
M  V30 1567 C 155.667 1.60381 0.279577 0
M  V30 1568 O 156.856 1.78374 0.0670754 0
M  V30 1569 C 153.956 3.38888 0.0290979 0
M  V30 1570 C 153.129 4.27103 -0.943494 0
M  V30 1571 C 152.188 5.25477 -0.275676 0
M  V30 1572 O 151.214 5.61709 -0.920401 0
M  V30 1573 N 152.416 5.7227 0.974013 0
M  V30 1574 H 155.181 2.54965 -1.57521 0
M  V30 1575 H 152.742 1.29528 -0.971287 0
M  V30 1576 H 154.734 4.01761 0.48683 0
M  V30 1577 H 153.304 3.01309 0.832555 0
M  V30 1578 H 152.524 3.61149 -1.58004 0
M  V30 1579 H 153.812 4.82905 -1.60251 0
M  V30 1580 H 153.21 5.44965 1.51755 0
M  V30 1581 H 151.767 6.37127 1.37522 0
M  V30 1582 N 155.201 0.870884 1.31352 0
M  V30 1583 C 156.131 0.343096 2.30966 0
M  V30 1584 C 157.112 -0.566507 1.60389 0
M  V30 1585 O 158.297 -0.483336 1.88089 0
M  V30 1586 C 155.427 -0.455487 3.443 0
M  V30 1587 C 154.381 0.361103 4.26474 0
M  V30 1588 C 153.707 -0.563221 5.31725 0
M  V30 1589 C 155.007 1.59566 4.97329 0
M  V30 1590 H 156.701 1.17548 2.75359 0
M  V30 1591 H 154.247 0.566686 1.32381 0
M  V30 1592 H 156.2 -0.83525 4.13039 0
M  V30 1593 H 154.924 -1.32139 2.98675 0
M  V30 1594 H 153.583 0.722825 3.59403 0
M  V30 1595 H 153.231 -1.42643 4.82351 0
M  V30 1596 H 152.931 -0.0207409 5.87596 0
M  V30 1597 H 154.455 -0.939808 6.03324 0
M  V30 1598 H 155.869 1.28728 5.58661 0
M  V30 1599 H 154.266 2.07728 5.63 0
M  V30 1600 H 155.336 2.34798 4.24262 0
M  V30 1601 N 156.679 -1.44442 0.630414 0
M  V30 1602 C 157.909 -2.06115 0.141465 0
M  V30 1603 C 158.317 -1.47179 -1.1889 0
M  V30 1604 O 157.66 -0.588873 -1.74006 0
M  V30 1605 C 157.722 -3.59467 -0.0484355 0
M  V30 1606 C 157.386 -4.40864 1.20366 0
M  V30 1607 C 158.383 -4.74391 2.12719 0
M  V30 1608 C 156.068 -4.8125 1.43887 0
M  V30 1609 C 158.062 -5.47186 3.26904 0
M  V30 1610 C 155.749 -5.53795 2.5837 0
M  V30 1611 C 156.747 -5.86682 3.49705 0
M  V30 1612 O 156.435 -6.57749 4.62191 0
M  V30 1613 H 156.167 -0.671648 0.0765792 0
M  V30 1614 H 158.721 -1.86312 0.864695 0
M  V30 1615 H 156.951 -3.77758 -0.826803 0
M  V30 1616 H 158.64 -4.02909 -0.491849 0
M  V30 1617 H 159.406 -4.43728 1.95781 0
M  V30 1618 H 155.285 -4.55073 0.736853 0
M  V30 1619 H 158.829 -5.72773 3.98217 0
M  V30 1620 H 154.726 -5.83872 2.75251 0
M  V30 1621 H 155.494 -6.76217 4.61164 0
M  V30 1622 N 158.157 -0.370918 -1.53173 0
M  V30 1623 C 159.404 0.217102 -2.01333 0
M  V30 1624 C 159.732 1.48338 -1.25802 0
M  V30 1625 O 158.987 1.92698 -0.34146 0
M  V30 1626 C 159.286 0.549696 -3.53147 0
M  V30 1627 C 158.952 -0.622872 -4.46577 0
M  V30 1628 C 157.614 -0.944595 -4.71838 0
M  V30 1629 C 159.966 -1.40819 -5.01816 0
M  V30 1630 C 157.294 -2.05351 -5.49589 0
M  V30 1631 C 159.646 -2.50757 -5.80778 0
M  V30 1632 C 158.31 -2.83458 -6.04324 0
M  V30 1633 H 157.58 0.0794431 -0.736729 0
M  V30 1634 H 160.227 -0.504481 -1.84736 0
M  V30 1635 H 158.532 1.35237 -3.6772 0
M  V30 1636 H 160.229 1.017 -3.87889 0
M  V30 1637 H 156.819 -0.36209 -4.27068 0
M  V30 1638 H 161.003 -1.17289 -4.82242 0
M  V30 1639 H 156.259 -2.3108 -5.6605 0
M  V30 1640 H 160.433 -3.12022 -6.22588 0
M  V30 1641 H 158.06 -3.69508 -6.64355 0
M  V30 1642 N 159.635 1.57281 -0.100228 0
M  V30 1643 C 160.863 1.98879 0.570509 0
M  V30 1644 C 161.278 0.979476 1.61405 0
M  V30 1645 O 160.635 -0.0302288 1.82475 0
M  V30 1646 C 160.686 3.4052 1.2136 0
M  V30 1647 O 160.407 4.37588 0.211786 0
M  V30 1648 C 161.908 3.97149 1.96945 0
M  V30 1649 H 159.128 0.653428 0.152555 0
M  V30 1650 H 161.672 2.03697 -0.18103 0
M  V30 1651 H 159.827 3.367 1.91603 0
M  V30 1652 H 160.241 5.20118 0.676607 0
M  V30 1653 H 161.715 4.98393 2.37294 0
M  V30 1654 H 162.192 3.3525 2.83733 0
M  V30 1655 H 162.798 4.04458 1.31506 0
M  V30 1656 N 161.113 -0.173488 1.56642 0
M  V30 1657 C 162.076 -1.19859 1.95362 0
M  V30 1658 C 163.076 -1.37296 0.83704 0
M  V30 1659 O 164.266 -1.34739 1.10413 0
M  V30 1660 C 161.398 -2.56405 2.24654 0
M  V30 1661 H 162.591 -0.867062 2.87092 0
M  V30 1662 H 160.144 -0.415853 1.50666 0
M  V30 1663 H 160.879 -2.94576 1.35631 0
M  V30 1664 H 160.664 -2.45115 3.06041 0
M  V30 1665 H 162.154 -3.30287 2.5554 0
M  V30 1666 N 162.591 -1.51276 -0.441967 0
M  V30 1667 C 163.839 -1.63392 -1.18943 0
M  V30 1668 C 164.16 -0.350159 -1.9183 0
M  V30 1669 O 163.43 0.633784 -1.85364 0
M  V30 1670 H 162.01 -0.602164 -0.442049 0
M  V30 1671 H 164.672 -1.88186 -0.507165 0
M  V30 1672 H 163.768 -2.45934 -1.92154 0
M  V30 1673 N 164.069 0.697108 -1.41344 0
M  V30 1674 C 165.316 1.45714 -1.40619 0
M  V30 1675 C 165.644 1.94494 -0.0147907 0
M  V30 1676 O 164.899 1.69794 0.973066 0
M  V30 1677 C 165.198 2.68553 -2.35826 0
M  V30 1678 C 164.864 2.38438 -3.82698 0
M  V30 1679 C 163.526 2.29936 -4.22709 0
M  V30 1680 C 165.878 2.13567 -4.75435 0
M  V30 1681 C 163.206 1.94656 -5.53467 0
M  V30 1682 C 165.558 1.79797 -6.06511 0
M  V30 1683 C 164.222 1.69789 -6.45545 0
M  V30 1684 H 163.492 0.533206 -0.51456 0
M  V30 1685 H 166.139 0.796901 -1.74131 0
M  V30 1686 H 164.444 3.39503 -1.95563 0
M  V30 1687 H 166.141 3.2669 -2.32539 0
M  V30 1688 H 162.731 2.4595 -3.51008 0
M  V30 1689 H 166.915 2.19082 -4.45328 0
M  V30 1690 H 162.171 1.8546 -5.82593 0
M  V30 1691 H 166.345 1.59572 -6.77872 0
M  V30 1692 H 163.972 1.4222 -7.46778 0
M  V30 1693 N 165.547 1.27147 0.931209 0
M  V30 1694 C 166.796 1.12664 1.67302 0
M  V30 1695 C 167.109 -0.327718 1.92835 0
M  V30 1696 O 168.315 -0.593392 2.64936 0
M  V30 1697 C 166.771 1.9683 3.01307 0
M  V30 1698 C 166.379 3.46901 2.83485 0
M  V30 1699 C 168.123 1.90985 3.79111 0
M  V30 1700 C 166.03 4.23279 4.13024 0
M  V30 1701 H 164.96 0.41803 0.627509 0
M  V30 1702 H 167.611 1.51539 1.03481 0
M  V30 1703 H 165.993 1.50797 3.66164 0
M  V30 1704 H 167.167 4.00773 2.27415 0
M  V30 1705 H 165.482 3.54088 2.19113 0
M  V30 1706 H 168.079 2.45328 4.75098 0
M  V30 1707 H 168.422 0.882718 4.06834 0
M  V30 1708 H 168.955 2.34895 3.21044 0
M  V30 1709 H 165.694 5.26503 3.90481 0
M  V30 1710 H 165.214 3.74186 4.6877 0
M  V30 1711 H 166.893 4.32265 4.81411 0
M  V30 1712 N 167.025 -1.13721 1.09112 0
M  V30 1713 C 168.253 -1.88773 0.846899 0
M  V30 1714 C 168.668 -1.7896 -0.601572 0
M  V30 1715 O 168.025 -1.15394 -1.41388 0
M  V30 1716 C 168.076 -3.3849 1.26913 0
M  V30 1717 O 167.797 -3.48043 2.66079 0
M  V30 1718 C 169.298 -4.30518 1.05682 0
M  V30 1719 H 166.518 -0.59772 0.304914 0
M  V30 1720 H 169.062 -1.43977 1.45227 0
M  V30 1721 H 167.217 -3.80881 0.707723 0
M  V30 1722 H 167.631 -4.4109 2.83795 0
M  V30 1723 H 169.105 -5.3391 1.40156 0
M  V30 1724 H 169.582 -4.392 -0.00563416 0
M  V30 1725 H 170.188 -3.93893 1.60402 0
M  V30 1726 N 168.503 -0.877838 -1.30888 0
M  V30 1727 C 169.751 -0.491723 -1.96027 0
M  V30 1728 C 170.072 0.960827 -1.69685 0
M  V30 1729 O 169.342 1.67462 -1.01654 0
M  V30 1730 H 167.922 -0.17885 -0.725273 0
M  V30 1731 H 170.584 -1.11935 -1.59551 0
M  V30 1732 H 169.68 -0.656016 -3.05128 0
M  V30 1733 N 169.982 1.44106 -0.638065 0
M  V30 1734 C 170.912 2.33448 0.0494287 0
M  V30 1735 C 171.893 1.48606 0.827672 0
M  V30 1736 O 173.078 1.77308 0.792173 0
M  V30 1737 C 170.208 3.31771 1.02691 0
M  V30 1738 C 169.162 4.26485 0.359823 0
M  V30 1739 C 168.488 5.14729 1.44769 0
M  V30 1740 C 169.788 5.17056 -0.738296 0
M  V30 1741 H 171.482 2.91183 -0.696636 0
M  V30 1742 H 169.028 1.40014 -0.336456 0
M  V30 1743 H 170.981 3.93161 1.51666 0
M  V30 1744 H 169.705 2.7226 1.80395 0
M  V30 1745 H 168.364 3.66437 -0.10934 0
M  V30 1746 H 168.012 4.51566 2.21578 0
M  V30 1747 H 167.712 5.78913 1.00668 0
M  V30 1748 H 169.236 5.78991 1.93911 0
M  V30 1749 H 170.65 5.72342 -0.331354 0
M  V30 1750 H 169.047 5.89879 -1.10286 0
M  V30 1751 H 170.117 4.57652 -1.60258 0
M  V30 1752 N 171.46 0.379036 1.52974 0
M  V30 1753 C 172.708 -0.206014 2.01047 0
M  V30 1754 C 173.029 -1.48175 1.26765 0
M  V30 1755 O 172.299 -1.92085 0.384743 0
M  V30 1756 H 170.879 -0.0791184 0.742798 0
M  V30 1757 H 173.541 0.508366 1.88153 0
M  V30 1758 H 172.637 -0.423501 3.09213 0
M  V30 1759 N 172.938 -1.57226 0.108567 0
M  V30 1760 C 173.871 -2.10447 -0.882464 0
M  V30 1761 C 174.849 -1.01829 -1.26766 0
M  V30 1762 O 176.033 -1.29415 -1.37054 0
M  V30 1763 C 173.16 -2.59258 -2.17952 0
M  V30 1764 C 172.206 -3.79662 -1.94318 0
M  V30 1765 S 173.039 -5.22586 -1.16892 0
M  V30 1766 C 174.195 -5.74758 -2.47799 0
M  V30 1767 H 174.428 -2.94178 -0.429745 0
M  V30 1768 H 171.961 -1.54043 -0.105 0
M  V30 1769 H 173.919 -2.88036 -2.92482 0
M  V30 1770 H 172.58 -1.75728 -2.60343 0
M  V30 1771 H 171.773 -4.11928 -2.90399 0
M  V30 1772 H 171.375 -3.51446 -1.27913 0
M  V30 1773 H 173.667 -5.83846 -3.43701 0
M  V30 1774 H 174.61 -6.73027 -2.20093 0
M  V30 1775 H 175.018 -5.02763 -2.56689 0
M  V30 1776 N 174.416 0.165178 -1.56732 0
M  V30 1777 C 175.656 0.887231 -1.8414 0
M  V30 1778 C 176.02 1.79159 -0.690353 0
M  V30 1779 O 177.221 2.55172 -0.845032 0
M  V30 1780 C 175.492 1.65674 -3.16681 0
M  V30 1781 S 177.051 2.42671 -3.6559 0
M  V30 1782 H 173.869 0.297042 -0.645978 0
M  V30 1783 H 176.471 0.148439 -1.94936 0
M  V30 1784 H 175.175 0.983507 -3.98441 0
M  V30 1785 H 174.706 2.43679 -3.08843 0
M  V30 1786 H 176.721 3.67499 -3.33406 0
M  V30 1787 N 175.894 1.51508 0.433938 0
M  V30 1788 C 177.141 1.64345 1.18309 0
M  V30 1789 C 177.469 0.361315 1.91115 0
M  V30 1790 O 176.724 -0.654753 1.84422 0
M  V30 1791 C 177.023 2.79928 2.22205 0
M  V30 1792 C 176.689 4.19078 1.66387 0
M  V30 1793 C 175.351 4.56932 1.50887 0
M  V30 1794 C 177.703 5.05894 1.25381 0
M  V30 1795 C 175.031 5.79305 0.928608 0
M  V30 1796 C 177.383 6.2885 0.687823 0
M  V30 1797 C 176.047 6.65473 0.519755 0
M  V30 1798 H 175.317 0.601381 0.432923 0
M  V30 1799 H 177.964 1.85549 0.473676 0
M  V30 1800 H 176.269 2.52959 2.99197 0
M  V30 1801 H 177.966 2.87059 2.79997 0
M  V30 1802 H 174.556 3.89234 1.79428 0
M  V30 1803 H 178.74 4.77253 1.36175 0
M  V30 1804 H 173.996 6.06324 0.786186 0
M  V30 1805 H 178.17 6.95461 0.361581 0
M  V30 1806 H 175.797 7.6017 0.0679979 0
M  V30 1807 N 177.372 -0.689602 1.41712 0
M  V30 1808 C 178.597 -1.48329 1.44959 0
M  V30 1809 C 179.022 -1.8801 0.0581283 0
M  V30 1810 O 178.38 -1.55026 -0.940035 0
M  V30 1811 C 178.428 -2.71835 2.36935 0
M  V30 1812 O 177.532 -3.69549 1.8305 0
M  V30 1813 H 176.873 -0.446199 0.491734 0
M  V30 1814 H 179.403 -0.847127 1.86239 0
M  V30 1815 H 179.413 -3.20076 2.53013 0
M  V30 1816 H 178.088 -2.42291 3.38035 0
M  V30 1817 H 176.665 -3.2851 1.76452 0
M  V30 1818 N 178.85 -1.27639 -0.924453 0
M  V30 1819 C 180.097 -1.14167 -1.67249 0
M  V30 1820 C 180.425 0.311863 -1.91984 0
M  V30 1821 O 179.68 1.24425 -1.51053 0
M  V30 1822 C 179.979 -1.87407 -3.04325 0
M  V30 1823 C 179.645 -3.37249 -2.99289 0
M  V30 1824 C 178.307 -3.7812 -2.97622 0
M  V30 1825 C 180.659 -4.32845 -2.90336 0
M  V30 1826 C 177.987 -5.12944 -2.8479 0
M  V30 1827 C 180.339 -5.6773 -2.79045 0
M  V30 1828 C 179.003 -6.07889 -2.7573 0
M  V30 1829 H 178.273 -0.417766 -0.612007 0
M  V30 1830 H 180.92 -1.58286 -1.07786 0
M  V30 1831 H 179.225 -1.35805 -3.67511 0
M  V30 1832 H 180.922 -1.74408 -3.61086 0
M  V30 1833 H 177.512 -3.04748 -3.01374 0
M  V30 1834 H 181.696 -4.02239 -2.90719 0
M  V30 1835 H 176.952 -5.432 -2.80612 0
M  V30 1836 H 181.126 -6.41472 -2.71083 0
M  V30 1837 H 178.753 -7.12314 -2.65544 0
M  V30 1838 N 180.328 1.1314 -1.09713 0
M  V30 1839 C 181.26 2.18343 -0.697056 0
M  V30 1840 C 182.273 1.60669 0.262551 0
M  V30 1841 O 183.462 1.78435 0.0481527 0
M  V30 1842 C 180.562 3.38899 -0.00684728 0
M  V30 1843 C 179.735 4.26078 -0.988741 0
M  V30 1844 C 178.794 5.25155 -0.331394 0
M  V30 1845 O 177.82 5.60701 -0.979926 0
M  V30 1846 N 179.022 5.73271 0.913261 0
M  V30 1847 H 181.787 2.5328 -1.60216 0
M  V30 1848 H 179.348 1.28491 -0.984971 0
M  V30 1849 H 181.34 4.02255 0.444191 0
M  V30 1850 H 179.91 3.02175 0.800551 0
M  V30 1851 H 179.13 3.59453 -1.61826 0
M  V30 1852 H 180.418 4.81178 -1.65364 0
M  V30 1853 H 179.816 5.46544 1.45966 0
M  V30 1854 H 178.373 6.3855 1.30757 0
M  V30 1855 N 181.806 0.884767 1.30421 0
M  V30 1856 C 183.031 0.517288 2.00845 0
M  V30 1857 C 183.456 -0.886779 1.65885 0
M  V30 1858 O 182.814 -1.58768 0.875354 0
M  V30 1859 C 182.862 0.698994 3.5376 0
M  V30 1860 O 181.966 -0.255208 4.1161 0
M  V30 1861 H 181.307 0.203872 0.631927 0
M  V30 1862 H 183.837 1.19225 1.66272 0
M  V30 1863 H 183.847 0.597912 4.03595 0
M  V30 1864 H 182.522 1.72271 3.78544 0
M  V30 1865 H 181.099 -0.10784 3.72744 0
M  V30 1866 N 183.284 -1.43765 0.645699 0
M  V30 1867 C 184.509 -2.06767 0.161883 0
M  V30 1868 C 184.934 -1.48034 -1.16049 0
M  V30 1869 O 184.292 -0.587369 -1.71522 0
M  V30 1870 C 184.34 -3.60519 0.0762003 0
M  V30 1871 O 183.444 -4.00982 -0.963721 0
M  V30 1872 H 182.785 -0.657675 0.091429 0
M  V30 1873 H 185.315 -1.84397 0.886499 0
M  V30 1874 H 185.325 -4.07853 -0.109604 0
M  V30 1875 H 184 -4.02646 1.04157 0
M  V30 1876 H 182.577 -3.65253 -0.751312 0
M  V30 1877 N 184.763 -0.387143 -1.52771 0
M  V30 1878 C 186.012 0.19697 -2.00736 0
M  V30 1879 C 186.325 1.48082 -1.27793 0
M  V30 1880 O 187.531 2.14485 -1.66458 0
M  V30 1881 C 185.987 0.401568 -3.57653 0
M  V30 1882 C 185.595 -0.868907 -4.39493 0
M  V30 1883 C 187.339 0.942164 -4.13912 0
M  V30 1884 C 185.246 -0.632705 -5.88006 0
M  V30 1885 H 184.176 0.0773827 -0.750019 0
M  V30 1886 H 186.827 -0.50921 -1.76293 0
M  V30 1887 H 185.209 1.16954 -3.78335 0
M  V30 1888 H 186.383 -1.64133 -4.30577 0
M  V30 1889 H 184.698 -1.33429 -3.94443 0
M  V30 1890 H 187.295 1.13455 -5.22525 0
M  V30 1891 H 187.638 1.9106 -3.69867 0
M  V30 1892 H 188.171 0.233814 -3.97112 0
M  V30 1893 H 184.91 -1.57208 -6.36369 0
M  V30 1894 H 184.43 0.100825 -5.99715 0
M  V30 1895 H 186.109 -0.26642 -6.46451 0
M  V30 1896 N 186.241 1.57166 -0.116904 0
M  V30 1897 C 187.469 1.99473 0.549383 0
M  V30 1898 C 187.884 0.996541 1.60357 0
M  V30 1899 O 187.241 -0.0108731 1.82497 0
M  V30 1900 C 187.292 3.41788 1.17741 0
M  V30 1901 O 187.013 4.37788 0.165362 0
M  V30 1902 C 188.514 3.99216 1.92722 0
M  V30 1903 H 185.734 0.655009 0.145616 0
M  V30 1904 H 188.278 2.03494 -0.202625 0
M  V30 1905 H 186.433 3.38713 1.88021 0
M  V30 1906 H 186.847 5.20806 0.621403 0
M  V30 1907 H 188.321 5.00882 2.31995 0
M  V30 1908 H 188.798 3.3824 2.80161 0
M  V30 1909 H 189.404 4.0583 1.27209 0
M  V30 1910 N 187.719 -0.156864 1.56817 0
M  V30 1911 C 188.965 -0.872416 1.83076 0
M  V30 1912 C 189.298 -1.81261 0.697001 0
M  V30 1913 O 188.573 -1.92171 -0.30008 0
M  V30 1914 C 188.856 -1.65551 3.19789 0
M  V30 1915 C 188.709 -0.737467 4.43713 0
M  V30 1916 C 190.028 -2.62012 3.53606 0
M  V30 1917 H 187.147 -0.315715 0.665953 0
M  V30 1918 H 189.789 -0.138004 1.89498 0
M  V30 1919 H 187.939 -2.28159 3.14445 0
M  V30 1920 H 189.611 -0.123143 4.61136 0
M  V30 1921 H 187.854 -0.0464067 4.33775 0
M  V30 1922 H 188.525 -1.32122 5.35955 0
M  V30 1923 H 191.001 -2.09525 3.59497 0
M  V30 1924 H 189.877 -3.13861 4.50314 0
M  V30 1925 H 190.138 -3.42902 2.79053 0
M  V30 1926 N 189.197 -1.51736 -0.425897 0
M  V30 1927 C 190.127 -1.76827 -1.52494 0
M  V30 1928 C 191.108 -0.618524 -1.58456 0
M  V30 1929 O 192.293 -0.862416 -1.74 0
M  V30 1930 C 189.423 -1.90374 -2.90474 0
M  V30 1931 C 188.377 -3.0588 -2.99369 0
M  V30 1932 C 187.703 -3.04625 -4.3944 0
M  V30 1933 C 189.003 -4.45644 -2.72394 0
M  V30 1934 H 190.697 -2.68855 -1.31748 0
M  V30 1935 H 188.243 -1.29372 -0.632362 0
M  V30 1936 H 190.196 -2.0651 -3.6733 0
M  V30 1937 H 188.92 -0.95004 -3.12477 0
M  V30 1938 H 187.579 -2.89467 -2.24954 0
M  V30 1939 H 187.227 -2.0701 -4.58428 0
M  V30 1940 H 186.927 -3.82195 -4.46319 0
M  V30 1941 H 188.451 -3.22869 -5.18255 0
M  V30 1942 H 189.865 -4.62348 -3.38979 0
M  V30 1943 H 188.262 -5.25006 -2.9067 0
M  V30 1944 H 189.332 -4.54893 -1.67929 0
M  V30 1945 N 190.675 0.682077 -1.42076 0
M  V30 1946 C 191.923 1.4393 -1.41876 0
M  V30 1947 C 192.244 1.94971 -0.0335599 0
M  V30 1948 O 191.514 1.72591 0.926773 0
M  V30 1949 H 190.094 0.534085 -0.522267 0
M  V30 1950 H 192.756 0.806427 -1.77434 0
M  V30 1951 H 191.852 2.29588 -2.11414 0
M  V30 1952 N 192.153 1.28127 0.917671 0
M  V30 1953 C 193.4 1.15052 1.66641 0
M  V30 1954 C 193.728 -0.301677 1.92146 0
M  V30 1955 O 192.983 -1.23622 1.51711 0
M  V30 1956 C 193.282 1.89018 3.03327 0
M  V30 1957 C 192.948 3.38832 2.97496 0
M  V30 1958 C 191.61 3.79693 2.95613 0
M  V30 1959 C 193.962 4.34378 2.88036 0
M  V30 1960 C 191.29 5.14447 2.82066 0
M  V30 1961 C 193.642 5.69201 2.7603 0
M  V30 1962 C 192.306 6.09343 2.72502 0
M  V30 1963 H 191.576 0.421006 0.609783 0
M  V30 1964 H 194.223 1.58855 1.06945 0
M  V30 1965 H 192.528 1.37752 3.66785 0
M  V30 1966 H 194.225 1.76321 3.60156 0
M  V30 1967 H 190.815 3.06342 2.99754 0
M  V30 1968 H 194.999 4.03775 2.88581 0
M  V30 1969 H 190.255 5.44681 2.77728 0
M  V30 1970 H 194.429 6.42901 2.67678 0
M  V30 1971 H 192.056 7.13712 2.61762 0
M  V30 1972 N 193.631 -1.12557 1.10312 0
M  V30 1973 C 194.861 -1.87592 0.865617 0
M  V30 1974 C 195.269 -1.79851 -0.587389 0
M  V30 1975 O 194.612 -1.16949 -1.41664 0
M  V30 1976 C 194.674 -3.37665 1.23381 0
M  V30 1977 C 194.338 -3.69181 2.69359 0
M  V30 1978 C 195.335 -3.67652 3.67597 0
M  V30 1979 C 193.02 -3.98555 3.05711 0
M  V30 1980 C 195.014 -3.95053 5.00212 0
M  V30 1981 C 192.701 -4.25616 4.38514 0
M  V30 1982 C 193.699 -4.23851 5.35574 0
M  V30 1983 O 193.387 -4.50242 6.65986 0
M  V30 1984 H 193.119 -0.600442 0.310557 0
M  V30 1985 H 195.673 -1.4335 1.47105 0
M  V30 1986 H 193.903 -3.82454 0.571467 0
M  V30 1987 H 195.592 -3.94041 0.973994 0
M  V30 1988 H 196.358 -3.45024 3.40857 0
M  V30 1989 H 192.237 -3.99071 2.30789 0
M  V30 1990 H 195.781 -3.93591 5.75962 0
M  V30 1991 H 191.678 -4.47718 4.64994 0
M  V30 1992 H 192.446 -4.67867 6.71597 0
M  V30 1993 N 195.109 -0.891671 -1.2995 0
M  V30 1994 C 196.356 -0.513501 -1.95881 0
M  V30 1995 C 196.684 0.938655 -1.70351 0
M  V30 1996 O 195.939 1.67936 -1.00478 0
M  V30 1997 C 196.238 -0.742868 -3.49594 0
M  V30 1998 C 195.904 -2.17114 -3.95186 0
M  V30 1999 C 194.566 -2.56169 -4.07346 0
M  V30 2000 C 196.918 -3.10162 -4.18866 0
M  V30 2001 C 194.246 -3.87469 -4.4055 0
M  V30 2002 C 196.598 -4.41001 -4.53542 0
M  V30 2003 C 195.262 -4.79941 -4.63911 0
M  V30 2004 H 194.532 -0.187903 -0.71678 0
M  V30 2005 H 197.179 -1.1288 -1.54694 0
M  V30 2006 H 195.484 -0.044586 -3.91775 0
M  V30 2007 H 197.181 -0.429767 -3.9869 0
M  V30 2008 H 193.771 -1.85801 -3.86233 0
M  V30 2009 H 197.955 -2.81206 -4.08946 0
M  V30 2010 H 193.211 -4.17371 -4.46779 0
M  V30 2011 H 197.385 -5.13133 -4.70815 0
M  V30 2012 H 195.012 -5.81719 -4.89395 0
M  V30 2013 N 196.587 1.43421 -0.653314 0
M  V30 2014 C 197.833 2.02111 -0.166992 0
M  V30 2015 C 198.166 1.51423 1.21592 0
M  V30 2016 O 197.441 0.707389 1.8118 0
M  V30 2017 C 197.724 3.5966 -0.177948 0
M  V30 2018 C 197.577 4.20579 -1.59478 0
M  V30 2019 C 198.896 4.37413 0.4856 0
M  V30 2020 H 196.015 0.734374 -0.0621557 0
M  V30 2021 H 198.657 1.70717 -0.834016 0
M  V30 2022 H 196.807 3.86537 0.390032 0
M  V30 2023 H 198.479 4.04732 -2.21336 0
M  V30 2024 H 196.722 3.77226 -2.14204 0
M  V30 2025 H 197.393 5.29665 -1.5543 0
M  V30 2026 H 199.869 4.161 0.00234528 0
M  V30 2027 H 198.745 5.47075 0.447207 0
M  V30 2028 H 199.006 4.13672 1.55974 0
M  V30 2029 N 198.065 0.39524 1.52563 0
M  V30 2030 C 199.481 0.0454682 1.59535 0
M  V30 2031 C 199.681 -1.44056 1.4089 0
M  V30 2032 O 198.737 -2.20579 1.22888 0
M  V30 2033 C 200.05 0.527963 2.96029 0
M  V30 2034 C 201.598 0.484733 3.09224 0
M  V30 2035 C 202.073 0.943512 4.48176 0
M  V30 2036 N 203.564 0.899765 4.54377 0
M  V30 2037 C 204.299 1.22609 5.60138 0
M  V30 2038 N 203.795 1.62319 6.73516 0
M  V30 2039 N 205.588 1.14696 5.50274 0
M  V30 2040 H 197.739 1.36261 1.62931 0
M  V30 2041 H 200.002 0.558887 0.765735 0
M  V30 2042 H 199.708 1.56607 3.14908 0
M  V30 2043 H 199.582 -0.0698056 3.77135 0
M  V30 2044 H 201.969 -0.544298 2.90037 0
M  V30 2045 H 202.05 1.11838 2.30056 0
M  V30 2046 H 201.694 1.9708 4.68104 0
M  V30 2047 H 201.624 0.286817 5.25818 0
M  V30 2048 H 204.115 0.607632 3.72983 0
M  V30 2049 H 204.428 1.85567 7.5019 0
M  V30 2050 H 202.773 1.66211 6.74833 0
M  V30 2051 H 205.964 0.835701 4.6058 0
M  V30 2052 H 206.137 1.40459 6.32594 0
M  V30 2053 N 199.544 -1.57102 0.125237 0
M  V30 2054 C 200.96 -1.57915 -0.231322 0
M  V30 2055 C 201.16 -1.13833 -1.66266 0
M  V30 2056 O 200.216 -0.828581 -2.38518 0
M  V30 2057 C 201.529 -3.00699 0.00766489 0
M  V30 2058 C 203.077 -3.12947 -0.0577483 0
M  V30 2059 C 203.552 -4.57742 0.153626 0
M  V30 2060 N 205.043 -4.63092 0.0998073 0
M  V30 2061 C 205.778 -5.72905 0.238174 0
M  V30 2062 N 205.274 -6.91445 0.433057 0
M  V30 2063 N 207.067 -5.6182 0.177308 0
M  V30 2064 H 199.218 -1.84055 1.06007 0
M  V30 2065 H 201.481 -0.850905 0.417929 0
M  V30 2066 H 201.187 -3.3726 0.997431 0
M  V30 2067 H 201.061 -3.70236 -0.721452 0
M  V30 2068 H 203.448 -2.7624 -1.03804 0
M  V30 2069 H 203.529 -2.4594 0.70335 0
M  V30 2070 H 203.173 -4.95149 1.13092 0
M  V30 2071 H 203.103 -5.22848 -0.627534 0
M  V30 2072 H 205.594 -3.77871 -0.047051 0
M  V30 2073 H 205.907 -7.70985 0.529332 0
M  V30 2074 H 204.252 -6.93415 0.469109 0
M  V30 2075 H 207.443 -4.68093 0.0259748 0
M  V30 2076 H 207.616 -6.47357 0.288582 0
M  V30 2077 N 201.022 0.148545 -1.56898 0
M  V30 2078 C 202.438 0.501131 -1.51528 0
M  V30 2079 C 202.638 1.83458 -0.833399 0
M  V30 2080 O 201.694 2.49259 -0.40328 0
M  V30 2081 C 203.007 0.512864 -2.96294 0
M  V30 2082 C 204.555 0.598487 -3.07225 0
M  V30 2083 C 205.03 0.640897 -4.53494 0
M  V30 2084 N 206.521 0.703163 -4.57832 0
M  V30 2085 C 207.256 0.756935 -5.68382 0
M  V30 2086 N 206.752 0.770147 -6.88506 0
M  V30 2087 N 208.545 0.797698 -5.56411 0
M  V30 2088 H 200.696 -0.725532 -1.99624 0
M  V30 2089 H 202.959 -0.264358 -0.910395 0
M  V30 2090 H 202.665 -0.398691 -3.49433 0
M  V30 2091 H 202.539 1.35133 -3.52163 0
M  V30 2092 H 204.926 1.50046 -2.54106 0
M  V30 2093 H 205.007 -0.267093 -2.54402 0
M  V30 2094 H 204.651 -0.256915 -5.0725 0
M  V30 2095 H 204.581 1.52295 -5.04097 0
M  V30 2096 H 207.072 0.700314 -3.71354 0
M  V30 2097 H 207.385 0.812983 -7.68512 0
M  V30 2098 H 205.73 0.738049 -6.9107 0
M  V30 2099 H 208.921 0.784535 -4.61479 0
M  V30 2100 H 209.094 0.83614 -6.42583 0
M  V30 2101 N 202.5 1.5196 0.417844 0
M  V30 2102 C 203.746 1.65836 1.16732 0
M  V30 2103 C 204.079 0.382881 1.90388 0
M  V30 2104 O 203.354 -0.618368 1.84408 0
M  V30 2105 C 203.637 2.87466 2.16876 0
M  V30 2106 C 203.49 4.25041 1.47174 0
M  V30 2107 C 204.809 3.04613 3.17646 0
M  V30 2108 H 201.928 0.603515 0.423011 0
M  V30 2109 H 204.57 1.84494 0.454105 0
M  V30 2110 H 202.72 2.71689 2.777 0
M  V30 2111 H 204.392 4.52527 0.895376 0
M  V30 2112 H 202.635 4.26843 0.773806 0
M  V30 2113 H 203.306 5.06176 2.20204 0
M  V30 2114 H 205.782 3.1923 2.66892 0
M  V30 2115 H 204.658 3.91247 3.8499 0
M  V30 2116 H 204.919 2.17541 3.84874 0
M  V30 2117 N 203.978 -0.674533 1.42435 0
M  V30 2118 C 204.908 -1.80009 1.48724 0
M  V30 2119 C 205.889 -1.6659 0.343793 0
M  V30 2120 O 207.074 -1.86007 0.558137 0
M  V30 2121 C 204.204 -3.18306 1.38919 0
M  V30 2122 C 203.158 -3.46461 2.51294 0
M  V30 2123 C 202.484 -4.84335 2.26547 0
M  V30 2124 C 203.784 -3.43328 3.93603 0
M  V30 2125 H 205.478 -1.75004 2.42928 0
M  V30 2126 H 203.024 -0.840533 1.16923 0
M  V30 2127 H 204.977 -3.9678 1.41927 0
M  V30 2128 H 203.701 -3.2399 0.412094 0
M  V30 2129 H 202.36 -2.70348 2.47604 0
M  V30 2130 H 202.008 -4.86669 1.2713 0
M  V30 2131 H 201.708 -5.04136 3.01861 0
M  V30 2132 H 203.232 -5.65094 2.31304 0
M  V30 2133 H 204.646 -4.11772 3.98894 0
M  V30 2134 H 203.043 -3.74664 4.68771 0
M  V30 2135 H 204.113 -2.41897 4.20255 0
M  V30 2136 N 205.456 -1.28612 -0.910864 0
M  V30 2137 C 206.419 -1.12803 -1.9952 0
M  V30 2138 C 207.419 -0.0668264 -1.60661 0
M  V30 2139 O 208.609 -0.312847 -1.71368 0
M  V30 2140 C 205.741 -0.72254 -3.33155 0
M  V30 2141 H 206.934 -2.09109 -2.14973 0
M  V30 2142 H 204.487 -1.11639 -1.09391 0
M  V30 2143 H 205.222 0.241152 -3.23402 0
M  V30 2144 H 205.007 -1.48916 -3.62721 0
M  V30 2145 H 206.497 -0.634666 -4.12749 0
M  V30 2146 N 206.934 1.1197 -1.10907 0
M  V30 2147 C 207.882 2.19927 -0.757303 0
M  V30 2148 C 208.876 1.67564 0.248747 0
M  V30 2149 O 210.082 1.79672 0.108605 0
M  V30 2150 H 206.457 0.716925 -0.226987 0
M  V30 2151 H 208.428 2.46847 -1.67658 0
M  V30 2152 C 207.177 3.47061 -0.210671 0
M  V30 2153 H 206.5 3.87703 -0.976049 0
M  V30 2154 H 207.94 4.24 -0.0026584 0
M  V30 2155 C 206.399 3.19864 1.05777 0
M  V30 2156 O 206.929 3.40049 2.13845 0
M  V30 2157 N 205.135 2.73636 0.978349 0
M  V30 2158 H 204.682 2.5741 0.0988246 0
M  V30 2159 H 204.64 2.55815 1.82773 0
M  V30 2160 N 208.412 0.89855 1.29475 0
M  V30 2161 C 209.375 0.380272 2.26023 0
M  V30 2162 C 210.375 -0.484891 1.53315 0
M  V30 2163 O 211.565 -0.290108 1.71767 0
M  V30 2164 C 208.697 -0.45651 3.3783 0
M  V30 2165 H 209.89 1.23295 2.73383 0
M  V30 2166 H 207.443 0.676589 1.40897 0
M  V30 2167 H 208.178 -1.32922 2.95808 0
M  V30 2168 H 207.963 0.163393 3.91759 0
M  V30 2169 H 209.453 -0.810466 4.0966 0
M  V30 2170 N 209.89 -1.43072 0.660911 0
M  V30 2171 C 210.82 -2.33497 -0.0122829 0
M  V30 2172 C 211.801 -1.49903 -0.803925 0
M  V30 2173 O 212.986 -1.78546 -0.763864 0
M  V30 2174 C 210.116 -3.33363 -0.973994 0
M  V30 2175 C 209.07 -4.27003 -0.291928 0
M  V30 2176 C 208.396 -5.16967 -1.36562 0
M  V30 2177 C 209.696 -5.15816 0.820462 0
M  V30 2178 H 211.39 -2.90038 0.742873 0
M  V30 2179 H 208.936 -1.39461 0.358688 0
M  V30 2180 H 210.889 -3.95524 -1.45392 0
M  V30 2181 H 209.613 -2.75095 -1.7604 0
M  V30 2182 H 208.272 -3.66217 0.167623 0
M  V30 2183 H 207.92 -4.55034 -2.14366 0
M  V30 2184 H 207.62 -5.80441 -0.914454 0
M  V30 2185 H 209.144 -5.82003 -1.84675 0
M  V30 2186 H 210.558 -5.71742 0.422366 0
M  V30 2187 H 208.955 -5.8805 1.19656 0
M  V30 2188 H 210.025 -4.55045 1.67518 0
M  V30 2189 N 211.368 -0.403325 -1.52352 0
M  V30 2190 C 212.331 0.413051 -2.25447 0
M  V30 2191 C 213.331 0.978513 -1.276 0
M  V30 2192 O 214.521 0.858305 -1.51587 0
M  V30 2193 C 211.653 1.58087 -3.02029 0
M  V30 2194 H 212.846 -0.227094 -2.99039 0
M  V30 2195 H 210.399 -0.155722 -1.55522 0
M  V30 2196 H 211.134 2.25804 -2.32772 0
M  V30 2197 H 210.919 1.18195 -3.73861 0
M  V30 2198 H 212.409 2.1585 -3.57489 0
M  V30 2199 N 212.846 1.57033 -0.133567 0
M  V30 2200 C 214.071 2.00475 0.531477 0
M  V30 2201 C 214.496 1.01291 1.58499 0
M  V30 2202 O 213.854 -0.0133279 1.81295 0
M  V30 2203 C 213.902 3.42729 1.12113 0
M  V30 2204 O 213.006 3.46498 2.23636 0
M  V30 2205 H 212.347 0.650876 0.131362 0
M  V30 2206 H 214.877 2.03344 -0.22634 0
M  V30 2207 H 214.887 3.81246 1.4531 0
M  V30 2208 H 213.562 4.14428 0.349557 0
M  V30 2209 H 212.139 3.19811 1.91769 0
M  V30 2210 N 214.325 -0.140222 1.56975 0
M  V30 2211 C 215.258 -1.20266 1.93936 0
M  V30 2212 C 216.236 -1.41212 0.806099 0
M  V30 2213 O 217.42 -1.55713 1.06234 0
M  V30 2214 C 214.547 -2.56037 2.21726 0
M  V30 2215 C 213.593 -2.51646 3.44349 0
M  V30 2216 S 214.426 -1.97678 4.97678 0
M  V30 2217 C 215.582 -3.35165 5.28597 0
M  V30 2218 H 215.815 -0.887358 2.83749 0
M  V30 2219 H 213.348 -0.346119 1.50471 0
M  V30 2220 H 215.306 -3.34167 2.38416 0
M  V30 2221 H 213.967 -2.84755 1.32566 0
M  V30 2222 H 213.16 -3.51608 3.61092 0
M  V30 2223 H 212.762 -1.81628 3.26936 0
M  V30 2224 H 215.054 -4.31302 5.2248 0
M  V30 2225 H 215.997 -3.23269 6.30002 0
M  V30 2226 H 216.405 -3.32614 4.56101 0
M  V30 2227 N 215.803 -1.52179 -0.40978 0
M  V30 2228 C 217.051 -1.65878 -1.15451 0
M  V30 2229 C 217.372 -0.390771 -1.91044 0
M  V30 2230 O 216.642 0.594323 -1.86667 0
M  V30 2231 H 215.222 -0.611405 -0.429177 0
M  V30 2232 H 217.884 -1.89219 -0.467134 0
M  V30 2233 H 216.98 -2.49954 -1.86894 0
M  V30 2234 N 217.281 0.66697 -1.42791 0
M  V30 2235 C 218.527 1.4291 -1.43891 0
M  V30 2236 C 218.86 1.94114 -0.0578972 0
M  V30 2237 O 218.135 1.71414 0.91911 0
M  V30 2238 C 218.418 2.62049 -2.46987 0
M  V30 2239 C 218.271 2.16426 -3.94309 0
M  V30 2240 C 219.59 3.64266 -2.46978 0
M  V30 2241 H 216.709 0.518306 -0.523954 0
M  V30 2242 H 219.351 0.757321 -1.74255 0
M  V30 2243 H 217.501 3.19361 -2.21225 0
M  V30 2244 H 219.173 1.64221 -4.31079 0
M  V30 2245 H 217.416 1.47925 -4.078 0
M  V30 2246 H 218.087 3.02038 -4.62036 0
M  V30 2247 H 220.563 3.16686 -2.69906 0
M  V30 2248 H 219.439 4.45196 -3.21079 0
M  V30 2249 H 219.7 4.15927 -1.49857 0
M  V30 2250 N 218.759 1.29093 0.90403 0
M  V30 2251 C 219.984 1.19809 1.69294 0
M  V30 2252 C 220.409 -0.238481 1.86582 0
M  V30 2253 O 219.767 -1.1723 1.383 0
M  V30 2254 C 219.815 1.91202 3.05736 0
M  V30 2255 O 218.919 1.22611 3.93752 0
M  V30 2256 H 218.26 0.415385 0.518027 0
M  V30 2257 H 220.79 1.70586 1.12967 0
M  V30 2258 H 220.8 1.99487 3.55906 0
M  V30 2259 H 219.475 2.95692 2.92471 0
M  V30 2260 H 218.052 1.22554 3.52186 0
M  V30 2261 N 220.237 -1.11381 1.11499 0
M  V30 2262 C 221.167 -2.19509 0.796125 0
M  V30 2263 C 222.148 -1.68458 -0.235796 0
M  V30 2264 O 223.333 -1.93947 -0.0991344 0
M  V30 2265 C 220.463 -3.46475 0.239205 0
M  V30 2266 C 219.417 -4.10744 1.20307 0
M  V30 2267 C 218.743 -5.32293 0.50683 0
M  V30 2268 C 220.043 -4.55597 2.55399 0
M  V30 2269 H 221.737 -2.46439 1.70024 0
M  V30 2270 H 219.283 -1.18446 0.818935 0
M  V30 2271 H 221.236 -4.214 0.00392006 0
M  V30 2272 H 219.96 -3.19006 -0.700206 0
M  V30 2273 H 218.619 -3.37813 1.42399 0
M  V30 2274 H 218.267 -5.01095 -0.437408 0
M  V30 2275 H 217.967 -5.76243 1.1497 0
M  V30 2276 H 219.491 -6.09956 0.280351 0
M  V30 2277 H 220.905 -5.21841 2.37391 0
M  V30 2278 H 219.302 -5.10363 3.15673 0
M  V30 2279 H 220.372 -3.69013 3.14575 0
M  V30 2280 N 221.715 -0.905404 -1.28997 0
M  V30 2281 C 222.963 -0.533192 -1.9494 0
M  V30 2282 C 223.284 0.924618 -1.71685 0
M  V30 2283 O 222.554 1.65268 -1.05183 0
M  V30 2284 H 221.134 -0.194194 -0.721317 0
M  V30 2285 H 223.796 -1.15294 -1.57141 0
M  V30 2286 H 222.892 -0.72059 -3.03667 0
M  V30 2287 N 223.193 1.4272 -0.668489 0
M  V30 2288 C 224.442 2.00846 -0.185389 0
M  V30 2289 C 224.755 1.53442 1.21305 0
M  V30 2290 O 225.961 2.03944 1.79218 0
M  V30 2291 C 224.417 3.58805 -0.280591 0
M  V30 2292 C 224.025 4.15198 -1.68268 0
M  V30 2293 C 225.769 4.24255 0.14412 0
M  V30 2294 C 223.676 5.655 -1.73099 0
M  V30 2295 H 222.606 0.751145 -0.0655475 0
M  V30 2296 H 225.257 1.63516 -0.832752 0
M  V30 2297 H 223.639 3.93608 0.434553 0
M  V30 2298 H 224.813 3.91866 -2.42441 0
M  V30 2299 H 223.128 3.62176 -2.05469 0
M  V30 2300 H 225.725 5.34547 0.128086 0
M  V30 2301 H 226.068 3.99277 1.17827 0
M  V30 2302 H 226.601 3.94389 -0.519798 0
M  V30 2303 H 223.34 5.95268 -2.74475 0
M  V30 2304 H 222.86 5.90842 -1.03274 0
M  V30 2305 H 224.539 6.29808 -1.48158 0
M  V30 2306 N 224.671 0.411399 1.52136 0
M  V30 2307 C 225.899 -0.163076 2.06256 0
M  V30 2308 C 226.314 -1.3867 1.28125 0
M  V30 2309 O 225.671 -1.79423 0.333721 0
M  V30 2310 C 225.722 -0.511252 3.57867 0
M  V30 2311 O 225.443 0.66378 4.33042 0
M  V30 2312 C 226.944 -1.13921 4.28412 0
M  V30 2313 H 224.164 -0.0193897 0.67072 0
M  V30 2314 H 226.708 0.583007 1.96013 0
M  V30 2315 H 224.863 -1.20723 3.6811 0
M  V30 2316 H 225.277 0.372601 5.23175 0
M  V30 2317 H 226.751 -1.33302 5.35663 0
M  V30 2318 H 227.228 -2.11296 3.85033 0
M  V30 2319 H 227.834 -0.483373 4.22544 0
M  V30 2320 N 226.149 -1.5696 0.141893 0
M  V30 2321 C 227.079 -2.19516 -0.795936 0
M  V30 2322 C 228.06 -1.14187 -1.26077 0
M  V30 2323 O 229.245 -1.42511 -1.31925 0
M  V30 2324 C 226.375 -2.81272 -2.03723 0
M  V30 2325 C 225.329 -3.92384 -1.70936 0
M  V30 2326 C 224.655 -4.41052 -3.02287 0
M  V30 2327 C 225.955 -5.13403 -0.959954 0
M  V30 2328 H 227.649 -2.98138 -0.274596 0
M  V30 2329 H 225.195 -1.43406 -0.130636 0
M  V30 2330 H 227.148 -3.237 -2.69808 0
M  V30 2331 H 225.872 -1.99973 -2.58221 0
M  V30 2332 H 224.531 -3.50566 -1.07232 0
M  V30 2333 H 224.179 -3.56582 -3.54765 0
M  V30 2334 H 223.879 -5.15993 -2.81114 0
M  V30 2335 H 225.403 -4.86146 -3.69451 0
M  V30 2336 H 226.817 -5.52706 -1.52279 0
M  V30 2337 H 225.214 -5.94073 -0.848357 0
M  V30 2338 H 226.284 -4.84875 0.0492434 0
M  V30 2339 N 227.627 0.131896 -1.57047 0
M  V30 2340 C 228.873 0.838268 -1.85323 0
M  V30 2341 C 229.228 1.78098 -0.727937 0
M  V30 2342 O 228.521 1.89645 0.27304 0
M  V30 2343 C 228.715 1.63703 -3.17704 0
M  V30 2344 C 228.544 0.773167 -4.43004 0
M  V30 2345 C 227.314 0.432956 -5.03442 0
M  V30 2346 C 229.512 0.0966216 -5.14209 0
M  V30 2347 N 227.494 -0.442924 -6.123 0
M  V30 2348 C 228.865 -0.638778 -6.16701 0
M  V30 2349 C 230.92 0.018861 -4.97896 0
M  V30 2350 C 229.623 -1.44462 -7.04644 0
M  V30 2351 C 231.649 -0.773762 -5.86316 0
M  V30 2352 C 231.011 -1.4974 -6.883 0
M  V30 2353 H 227.11 0.284086 -0.728573 0
M  V30 2354 H 229.694 0.102731 -1.94429 0
M  V30 2355 H 227.865 2.3437 -3.09718 0
M  V30 2356 H 229.597 2.28774 -3.33833 0
M  V30 2357 H 226.352 0.772237 -4.67262 0
M  V30 2358 H 226.776 -0.872332 -6.71356 0
M  V30 2359 H 231.418 0.56397 -4.19022 0
M  V30 2360 H 229.136 -2.00093 -7.82936 0
M  V30 2361 H 232.722 -0.83612 -5.75761 0
M  V30 2362 H 231.602 -2.10087 -7.55535 0
M  V30 2363 N 229.106 1.52395 0.401703 0
M  V30 2364 C 230.517 1.58899 0.980202 0
M  V30 2365 C 230.868 0.434032 1.91339 0
M  V30 2366 O 229.993 -0.444619 2.11783 0
M  V30 2367 C 230.588 2.87994 1.78451 0
M  V30 2368 C 229.147 2.96953 2.31292 0
M  V30 2369 C 228.294 2.53903 1.11483 0
M  V30 2370 H 231.245 1.57657 0.18168 0
M  V30 2371 H 231.266 2.73765 2.64259 0
M  V30 2372 H 230.778 3.72035 1.10506 0
M  V30 2373 H 228.879 2.17422 3.02586 0
M  V30 2374 H 228.992 4.01344 2.61649 0
M  V30 2375 H 227.356 2.07925 1.47104 0
M  V30 2376 H 228.139 3.40326 0.450928 0
M  V30 2377 N 230.584 -0.659388 1.43143 0
M  V30 2378 C 231.514 -1.78422 1.50625 0
M  V30 2379 C 232.495 -1.66216 0.361443 0
M  V30 2380 O 233.68 -1.85404 0.577834 0
M  V30 2381 C 230.81 -3.16815 1.42287 0
M  V30 2382 C 229.764 -3.43777 2.54954 0
M  V30 2383 C 229.09 -4.81905 2.31671 0
M  V30 2384 C 230.39 -3.39134 3.97222 0
M  V30 2385 H 232.084 -1.72417 2.44771 0
M  V30 2386 H 229.63 -0.828084 1.17808 0
M  V30 2387 H 231.583 -3.95253 1.46127 0
M  V30 2388 H 230.307 -3.23534 0.446435 0
M  V30 2389 H 228.966 -2.67707 2.50457 0
M  V30 2390 H 228.614 -4.85294 1.32284 0
M  V30 2391 H 228.314 -5.00906 3.07192 0
M  V30 2392 H 229.838 -5.62609 2.37284 0
M  V30 2393 H 231.252 -4.07518 4.03239 0
M  V30 2394 H 229.649 -3.69671 4.72719 0
M  V30 2395 H 230.719 -2.37426 4.22797 0
M  V30 2396 N 232.062 -1.29571 -0.897171 0
M  V30 2397 C 232.992 -1.17473 -2.01798 0
M  V30 2398 C 233.973 -0.068323 -1.69963 0
M  V30 2399 O 235.158 -0.248239 -1.92607 0
M  V30 2400 C 232.288 -0.853099 -3.36659 0
M  V30 2401 C 231.242 -1.9161 -3.82713 0
M  V30 2402 C 230.568 -1.44773 -5.14728 0
M  V30 2403 C 231.868 -3.32535 -4.02763 0
M  V30 2404 H 233.562 -2.11237 -2.12177 0
M  V30 2405 H 231.108 -1.01699 -1.01948 0
M  V30 2406 H 233.061 -0.755165 -4.14578 0
M  V30 2407 H 231.785 0.120236 -3.26379 0
M  V30 2408 H 230.444 -2.00346 -3.07013 0
M  V30 2409 H 230.092 -0.462995 -5.00865 0
M  V30 2410 H 229.792 -2.15865 -5.46513 0
M  V30 2411 H 231.316 -1.36334 -5.95185 0
M  V30 2412 H 232.73 -3.26626 -4.71156 0
M  V30 2413 H 231.127 -4.01607 -4.45905 0
M  V30 2414 H 232.197 -3.75326 -3.07016 0
M  V30 2415 N 233.54 1.10788 -1.12088 0
M  V30 2416 C 234.765 1.87002 -0.896949 0
M  V30 2417 C 235.19 1.79933 0.548261 0
M  V30 2418 O 234.548 1.16662 1.38779 0
M  V30 2419 C 234.596 3.3349 -1.37174 0
M  V30 2420 O 233.7 4.08745 -0.547831 0
M  V30 2421 H 233.041 0.580397 -0.322545 0
M  V30 2422 H 235.571 1.39996 -1.49206 0
M  V30 2423 H 235.581 3.84339 -1.36922 0
M  V30 2424 H 234.256 3.37951 -2.42408 0
M  V30 2425 H 232.833 3.6776 -0.617034 0
M  V30 2426 N 235.018 0.912232 1.28515 0
M  V30 2427 C 236.434 0.610159 1.47476 0
M  V30 2428 C 236.634 -0.844955 1.82928 0
M  V30 2429 O 235.69 -1.62416 1.93332 0
M  V30 2430 C 237.003 1.54675 2.57868 0
M  V30 2431 C 238.551 1.55331 2.71738 0
M  V30 2432 C 239.026 2.47649 3.85272 0
M  V30 2433 N 240.517 2.45767 3.92623 0
M  V30 2434 C 241.252 3.13896 4.79851 0
M  V30 2435 N 240.748 3.9135 5.71679 0
M  V30 2436 N 242.541 3.02991 4.73448 0
M  V30 2437 H 234.692 1.85318 1.03783 0
M  V30 2438 H 236.955 0.794777 0.516753 0
M  V30 2439 H 236.661 2.5841 2.38574 0
M  V30 2440 H 236.535 1.27671 3.54937 0
M  V30 2441 H 238.922 0.52335 2.90422 0
M  V30 2442 H 239.003 1.86378 1.75205 0
M  V30 2443 H 238.647 3.50745 3.67342 0
M  V30 2444 H 238.577 2.13904 4.81199 0
M  V30 2445 H 241.068 1.89503 3.26951 0
M  V30 2446 H 241.381 4.40359 6.35062 0
M  V30 2447 H 239.726 3.95455 5.71524 0
M  V30 2448 H 242.917 2.41987 4.007 0
M  V30 2449 H 243.09 3.5636 5.41213 0
M  V30 2450 N 236.496 -1.42363 0.676048 0
M  V30 2451 C 237.726 -2.05561 0.206967 0
M  V30 2452 C 238.134 -1.50887 -1.14148 0
M  V30 2453 O 237.477 -0.643933 -1.72044 0
M  V30 2454 C 237.539 -3.5944 0.0659508 0
M  V30 2455 C 237.203 -4.36812 1.34331 0
M  V30 2456 C 238.2 -4.67383 2.27704 0
M  V30 2457 C 235.885 -4.76429 1.59125 0
M  V30 2458 C 237.879 -5.36509 3.44147 0
M  V30 2459 C 235.566 -5.45294 2.75857 0
M  V30 2460 C 236.564 -5.75259 3.68193 0
M  V30 2461 O 236.252 -6.42712 4.82883 0
M  V30 2462 H 235.984 -0.668872 0.0979084 0
M  V30 2463 H 238.538 -1.83467 0.923531 0
M  V30 2464 H 236.768 -3.80197 -0.706204 0
M  V30 2465 H 238.457 -4.0427 -0.363418 0
M  V30 2466 H 239.223 -4.37275 2.09799 0
M  V30 2467 H 235.102 -4.52498 0.881258 0
M  V30 2468 H 238.646 -5.59814 4.16238 0
M  V30 2469 H 234.543 -5.7482 2.93688 0
M  V30 2470 H 235.311 -6.61204 4.82444 0
M  V30 2471 N 237.974 -0.419461 -1.51915 0
M  V30 2472 C 238.904 0.391813 -2.30189 0
M  V30 2473 C 239.885 1.03699 -1.34836 0
M  V30 2474 O 241.07 1.04403 -1.63748 0
M  V30 2475 C 238.2 1.50312 -3.13087 0
M  V30 2476 C 237.154 0.9824 -4.16573 0
M  V30 2477 C 236.48 2.18809 -4.8788 0
M  V30 2478 C 237.78 0.0292356 -5.22292 0
M  V30 2479 H 239.474 -0.26135 -2.98257 0
M  V30 2480 H 237.02 -0.127134 -1.43438 0
M  V30 2481 H 238.973 2.07773 -3.66617 0
M  V30 2482 H 237.697 2.18431 -2.42807 0
M  V30 2483 H 236.356 0.430119 -3.64068 0
M  V30 2484 H 236.004 2.85507 -4.14119 0
M  V30 2485 H 235.704 1.84615 -5.57845 0
M  V30 2486 H 237.228 2.76858 -5.44226 0
M  V30 2487 H 238.642 0.512976 -5.71 0
M  V30 2488 H 237.039 -0.2244 -5.9968 0
M  V30 2489 H 238.109 -0.912931 -4.76228 0
M  V30 2490 N 239.452 1.56882 -0.150215 0
M  V30 2491 C 240.382 2.19935 0.784284 0
M  V30 2492 C 241.363 1.14854 1.25469 0
M  V30 2493 O 242.548 1.43209 1.31168 0
M  V30 2494 C 239.678 2.82349 2.02229 0
M  V30 2495 C 238.632 3.93285 1.68853 0
M  V30 2496 C 237.958 4.42649 2.99944 0
M  V30 2497 C 239.258 5.13904 0.932714 0
M  V30 2498 H 240.952 2.9828 0.258781 0
M  V30 2499 H 238.498 1.43473 0.123029 0
M  V30 2500 H 240.451 3.25126 2.68088 0
M  V30 2501 H 239.175 2.0134 2.57157 0
M  V30 2502 H 237.834 3.5113 1.05371 0
M  V30 2503 H 237.482 3.58458 3.52869 0
M  V30 2504 H 237.182 5.17476 2.78374 0
M  V30 2505 H 238.706 4.88099 3.66868 0
M  V30 2506 H 240.12 5.53506 1.49345 0
M  V30 2507 H 238.517 5.94515 0.81684 0
M  V30 2508 H 239.587 4.84842 -0.0749568 0
M  V30 2509 N 240.93 -0.123565 1.57115 0
M  V30 2510 C 241.84 -1.17074 2.033 0
M  V30 2511 C 242.856 -1.4561 0.952559 0
M  V30 2512 O 244.032 -1.56817 1.26374 0
M  V30 2513 C 241.097 -2.47857 2.42421 0
M  V30 2514 C 240.158 -2.26758 3.64526 0
M  V30 2515 C 239.391 -3.51305 4.01771 0
M  V30 2516 O 239.614 -4.5843 3.39409 0
M  V30 2517 O 238.548 -3.42578 4.94898 0
M  V30 2518 H 242.374 -0.808555 2.92739 0
M  V30 2519 H 239.959 -0.334027 1.45618 0
M  V30 2520 H 241.841 -3.2492 2.68338 0
M  V30 2521 H 240.516 -2.83558 1.5613 0
M  V30 2522 H 239.423 -1.47569 3.43765 0
M  V30 2523 H 240.756 -1.95963 4.51508 0
M  V30 2524 N 242.408 -1.52605 -0.393616 0
M  V30 2525 C 243.356 -1.77688 -1.50099 0
M  V30 2526 C 244.35 -0.644615 -1.56656 0
M  V30 2527 O 245.556 -0.826997 -1.59877 0
M  V30 2528 H 241.931 -0.562159 -0.499481 0
M  V30 2529 H 243.902 -2.7043 -1.26135 0
M  V30 2530 C 242.651 -1.95858 -2.87289 0
M  V30 2531 H 241.974 -2.8241 -2.82992 0
M  V30 2532 H 243.414 -2.174 -3.64024 0
M  V30 2533 C 241.873 -0.729848 -3.28899 0
M  V30 2534 O 242.403 0.0949217 -4.01588 0
M  V30 2535 N 240.609 -0.561283 -2.85128 0
M  V30 2536 H 240.156 -1.23357 -2.26143 0
M  V30 2537 H 240.114 0.2595 -3.13327 0
M  V30 2538 N 243.887 0.651787 -1.4349 0
M  V30 2539 C 244.817 1.77621 -1.51569 0
M  V30 2540 C 245.798 1.66022 -0.370253 0
M  V30 2541 O 246.983 1.85095 -0.587658 0
M  V30 2542 C 244.113 3.16056 -1.43966 0
M  V30 2543 C 243.067 3.4242 -2.56774 0
M  V30 2544 C 242.393 4.8067 -2.34223 0
M  V30 2545 C 243.693 3.37023 -3.99015 0
M  V30 2546 H 245.387 1.71117 -2.45681 0
M  V30 2547 H 242.933 0.821825 -1.18246 0
M  V30 2548 H 244.886 3.94472 -1.48221 0
M  V30 2549 H 243.61 3.23293 -0.463586 0
M  V30 2550 H 242.269 2.66375 -2.51873 0
M  V30 2551 H 241.917 4.84585 -1.34856 0
M  V30 2552 H 241.617 4.9927 -3.09844 0
M  V30 2553 H 243.141 5.61342 -2.40265 0
M  V30 2554 H 244.555 4.05374 -4.05395 0
M  V30 2555 H 242.952 3.67159 -4.74673 0
M  V30 2556 H 244.022 2.3518 -4.2405 0
M  V30 2557 N 245.365 1.30045 0.890287 0
M  V30 2558 C 246.613 1.18327 1.63839 0
M  V30 2559 C 246.934 -0.263455 1.93212 0
M  V30 2560 O 246.204 -1.17856 1.56482 0
M  V30 2561 H 244.784 0.434933 0.607324 0
M  V30 2562 H 247.446 1.631 1.06698 0
M  V30 2563 H 246.542 1.74024 2.59079 0
M  V30 2564 N 246.843 -1.10192 1.12674 0
M  V30 2565 C 248.089 -1.82658 0.894847 0
M  V30 2566 C 248.444 -1.83666 -0.573107 0
M  V30 2567 O 247.737 -1.28816 -1.41835 0
M  V30 2568 C 247.931 -3.28552 1.4067 0
M  V30 2569 C 247.76 -3.41756 2.92289 0
M  V30 2570 C 246.53 -3.54021 3.60551 0
M  V30 2571 C 248.728 -3.34949 3.90274 0
M  V30 2572 N 246.71 -3.55827 5.0026 0
M  V30 2573 C 248.081 -3.43531 5.16127 0
M  V30 2574 C 250.136 -3.18565 3.8265 0
M  V30 2575 C 248.839 -3.37416 6.3525 0
M  V30 2576 C 250.865 -3.13772 5.01299 0
M  V30 2577 C 250.227 -3.22938 6.26012 0
M  V30 2578 H 246.326 -0.683044 0.380756 0
M  V30 2579 H 248.91 -1.31752 1.43351 0
M  V30 2580 H 247.081 -3.77946 0.895055 0
M  V30 2581 H 248.813 -3.88991 1.11661 0
M  V30 2582 H 245.568 -3.57135 3.1105 0
M  V30 2583 H 245.992 -3.60335 5.73138 0
M  V30 2584 H 250.634 -3.10354 2.87124 0
M  V30 2585 H 248.352 -3.44391 7.3104 0
M  V30 2586 H 251.938 -3.02242 4.97133 0
M  V30 2587 H 250.818 -3.19235 7.16281 0
M  V30 2588 N 248.321 -0.919034 -1.28029 0
M  V30 2589 C 249.737 -0.617972 -1.4715 0
M  V30 2590 C 249.937 0.835242 -1.83374 0
M  V30 2591 O 248.993 1.61388 -1.94191 0
M  V30 2592 C 250.306 -1.56041 -2.57044 0
M  V30 2593 C 251.854 -1.56769 -2.7091 0
M  V30 2594 C 252.329 -2.49688 -3.83953 0
M  V30 2595 N 253.82 -2.47845 -3.91314 0
M  V30 2596 C 254.555 -3.16437 -4.78179 0
M  V30 2597 N 254.051 -3.94376 -5.69596 0
M  V30 2598 N 255.844 -3.05498 -4.71834 0
M  V30 2599 H 247.995 -1.85866 -1.02798 0
M  V30 2600 H 250.258 -0.797506 -0.512531 0
M  V30 2601 H 249.964 -2.59671 -2.372 0
M  V30 2602 H 249.838 -1.29551 -3.54255 0
M  V30 2603 H 252.225 -0.538745 -2.90141 0
M  V30 2604 H 252.306 -1.87305 -1.74214 0
M  V30 2605 H 251.95 -3.52688 -3.65477 0
M  V30 2606 H 251.88 -2.16453 -4.80058 0
M  V30 2607 H 254.371 -1.91234 -3.25941 0
M  V30 2608 H 254.684 -4.43721 -6.32718 0
M  V30 2609 H 253.029 -3.98481 -5.69419 0
M  V30 2610 H 256.22 -2.44108 -3.99411 0
M  V30 2611 H 256.393 -3.59225 -5.39316 0
M  V30 2612 N 249.799 1.42003 -0.683588 0
M  V30 2613 C 251.047 2.01015 -0.209101 0
M  V30 2614 C 251.368 1.54365 1.19149 0
M  V30 2615 O 250.638 0.769083 1.80172 0
M  V30 2616 H 249.218 0.743294 -0.074315 0
M  V30 2617 H 251.88 1.73798 -0.882066 0
M  V30 2618 H 250.976 3.11343 -0.2172 0
M  V30 2619 N 251.277 0.427512 1.51691 0
M  V30 2620 C 252.505 -0.141191 2.06418 0
M  V30 2621 C 252.92 -1.37303 1.29589 0
M  V30 2622 O 252.277 -1.79059 0.352732 0
M  V30 2623 C 252.328 -0.473266 3.58389 0
M  V30 2624 O 252.049 0.709673 4.32314 0
M  V30 2625 C 253.55 -1.09371 4.29596 0
M  V30 2626 H 250.77 -0.0122747 0.670888 0
M  V30 2627 H 253.314 0.603764 1.95384 0
M  V30 2628 H 251.469 -1.16812 3.69369 0
M  V30 2629 H 251.883 0.42807 5.2275 0
M  V30 2630 H 253.357 -1.27613 5.37046 0
M  V30 2631 H 253.834 -2.072 3.87253 0
M  V30 2632 H 254.44 -0.43853 4.23033 0
M  V30 2633 N 252.755 -1.56801 0.158532 0
M  V30 2634 C 254.002 -1.9649 -0.489679 0
M  V30 2635 C 254.33 -1.04394 -1.6411 0
M  V30 2636 O 253.585 -0.0754401 -1.95555 0
M  V30 2637 C 253.884 -3.4235 -1.02623 0
M  V30 2638 C 253.55 -4.50899 0.00794526 0
M  V30 2639 C 252.212 -4.80312 0.292207 0
M  V30 2640 C 254.564 -5.16333 0.710584 0
M  V30 2641 C 251.892 -5.72461 1.28472 0
M  V30 2642 C 254.244 -6.09553 1.69199 0
M  V30 2643 C 252.908 -6.37339 1.98383 0
M  V30 2644 H 252.178 -0.719009 -0.179186 0
M  V30 2645 H 254.825 -1.8989 0.247798 0
M  V30 2646 H 253.13 -3.45838 -1.84128 0
M  V30 2647 H 254.827 -3.70393 -1.53656 0
M  V30 2648 H 251.417 -4.28015 -0.22379 0
M  V30 2649 H 255.601 -4.93732 0.504174 0
M  V30 2650 H 250.857 -5.92278 1.51714 0
M  V30 2651 H 255.031 -6.59327 2.24189 0
M  V30 2652 H 252.658 -7.08546 2.7544 0
M  V30 2653 N 254.233 0.115231 -1.57178 0
M  V30 2654 C 255.163 1.1423 -2.03651 0
M  V30 2655 C 256.144 1.42967 -0.921655 0
M  V30 2656 O 257.329 1.53343 -1.19162 0
M  V30 2657 C 254.459 2.4675 -2.44401 0
M  V30 2658 C 253.413 2.32467 -3.59365 0
M  V30 2659 C 252.739 3.69984 -3.86026 0
M  V30 2660 C 254.039 1.78203 -4.90959 0
M  V30 2661 H 255.733 0.755749 -2.89705 0
M  V30 2662 H 253.279 0.362093 -1.39373 0
M  V30 2663 H 255.232 3.18854 -2.75517 0
M  V30 2664 H 253.956 2.87302 -1.55322 0
M  V30 2665 H 252.615 1.62811 -3.28463 0
M  V30 2666 H 252.263 4.08028 -2.94147 0
M  V30 2667 H 251.963 3.61279 -4.63412 0
M  V30 2668 H 253.487 4.43587 -4.19599 0
M  V30 2669 H 254.901 2.40128 -5.20587 0
M  V30 2670 H 253.298 1.8031 -5.72371 0
M  V30 2671 H 254.368 0.739876 -4.79222 0
M  V30 2672 N 255.711 1.52812 0.385517 0
M  V30 2673 C 256.957 1.68275 1.13188 0
M  V30 2674 C 257.29 0.423179 1.89533 0
M  V30 2675 O 256.565 -0.579113 1.85679 0
M  V30 2676 C 256.848 2.92001 2.1073 0
M  V30 2677 C 256.701 4.28067 1.38125 0
M  V30 2678 C 258.02 3.11283 3.11113 0
M  V30 2679 H 255.139 0.612352 0.410115 0
M  V30 2680 H 257.781 1.85415 0.414869 0
M  V30 2681 H 255.931 2.77519 2.71874 0
M  V30 2682 H 257.603 4.54324 0.799187 0
M  V30 2683 H 255.846 4.28388 0.683092 0
M  V30 2684 H 256.517 5.10733 2.09417 0
M  V30 2685 H 258.993 3.2482 2.6006 0
M  V30 2686 H 257.869 3.99325 3.76605 0
M  V30 2687 H 258.13 2.25656 3.80173 0
M  V30 2688 N 257.189 -0.644168 1.43834 0
M  V30 2689 C 258.436 -1.40395 1.4593 0
M  V30 2690 C 258.764 -1.94305 0.0869658 0
M  V30 2691 O 258.019 -1.73288 -0.909378 0
M  V30 2692 C 258.318 -2.59615 2.45631 0
M  V30 2693 C 257.984 -2.2407 3.91284 0
M  V30 2694 C 256.646 -2.14089 4.30952 0
M  V30 2695 C 258.998 -1.95775 4.83034 0
M  V30 2696 C 256.326 -1.73981 5.6031 0
M  V30 2697 C 258.678 -1.57163 6.12766 0
M  V30 2698 C 257.342 -1.45713 6.51402 0
M  V30 2699 H 256.612 -0.513741 0.533995 0
M  V30 2700 H 259.259 -0.731724 1.76969 0
M  V30 2701 H 257.564 -3.32011 2.08028 0
M  V30 2702 H 259.261 -3.17834 2.44504 0
M  V30 2703 H 255.851 -2.32753 3.59895 0
M  V30 2704 H 260.035 -2.02403 4.53152 0
M  V30 2705 H 255.291 -1.63709 5.89075 0
M  V30 2706 H 259.465 -1.34303 6.83327 0
M  V30 2707 H 257.092 -1.14406 7.51542 0
M  V30 2708 N 258.668 -1.30515 -0.883378 0
M  V30 2709 C 259.916 -1.19194 -1.63209 0
M  V30 2710 C 260.237 0.253205 -1.93349 0
M  V30 2711 O 259.507 1.17025 -1.57105 0
M  V30 2712 H 258.087 -0.438148 -0.605009 0
M  V30 2713 H 260.749 -1.63663 -1.05832 0
M  V30 2714 H 259.845 -1.75396 -2.58153 0
M  V30 2715 N 260.146 1.09593 -1.13257 0
M  V30 2716 C 261.394 1.81375 -0.891492 0
M  V30 2717 C 261.715 1.86049 0.584009 0
M  V30 2718 O 260.985 1.34481 1.42449 0
M  V30 2719 H 259.565 0.671708 -0.326828 0
M  V30 2720 H 262.227 1.3256 -1.42877 0
M  V30 2721 H 261.323 2.84612 -1.28071 0
M  V30 2722 N 261.624 0.925811 1.2754 0
M  V30 2723 C 262.873 0.561084 1.93739 0
M  V30 2724 C 263.186 -0.901685 1.73577 0
M  V30 2725 O 264.392 -1.37511 2.34101 0
M  V30 2726 C 262.848 0.952668 3.47062 0
M  V30 2727 C 262.456 2.43599 3.75983 0
M  V30 2728 C 264.2 0.659103 4.19352 0
M  V30 2729 C 262.107 2.76707 5.22673 0
M  V30 2730 H 261.037 0.206122 0.725279 0
M  V30 2731 H 263.688 1.12637 1.44863 0
M  V30 2732 H 262.07 0.316053 3.94737 0
M  V30 2733 H 263.244 3.12035 3.39073 0
M  V30 2734 H 261.559 2.70125 3.16893 0
M  V30 2735 H 264.156 0.882985 5.27359 0
M  V30 2736 H 264.499 -0.403607 4.14339 0
M  V30 2737 H 265.032 1.25473 3.77494 0
M  V30 2738 H 261.771 3.8188 5.32774 0
M  V30 2739 H 261.291 2.12919 5.60737 0
M  V30 2740 H 262.97 2.6435 5.90532 0
M  V30 2741 N 263.102 -1.41638 0.69111 0
M  V30 2742 C 264.349 -2.01299 0.220193 0
M  V30 2743 C 264.677 -1.54715 -1.17871 0
M  V30 2744 O 263.932 -0.747193 -1.80874 0
M  V30 2745 C 264.231 -3.56714 0.221277 0
M  V30 2746 C 263.897 -4.22792 1.56709 0
M  V30 2747 C 262.559 -4.40557 1.93554 0
M  V30 2748 C 264.911 -4.59883 2.45268 0
M  V30 2749 C 262.239 -4.92688 3.18552 0
M  V30 2750 C 264.591 -5.13403 3.69595 0
M  V30 2751 C 263.255 -5.29379 4.06589 0
M  V30 2752 H 262.525 -0.736606 0.0805743 0
M  V30 2753 H 265.172 -1.69598 0.889319 0
M  V30 2754 H 263.477 -3.8818 -0.531391 0
M  V30 2755 H 265.174 -4.00678 -0.160547 0
M  V30 2756 H 261.764 -4.09336 1.2705 0
M  V30 2757 H 265.948 -4.45817 2.18084 0
M  V30 2758 H 261.204 -5.03242 3.47214 0
M  V30 2759 H 265.378 -5.41084 4.38407 0
M  V30 2760 H 263.005 -5.69537 5.03519 0
M  V30 2761 N 264.58 -0.43555 -1.51462 0
M  V30 2762 C 265.51 0.367376 -2.30592 0
M  V30 2763 C 266.491 1.02263 -1.35928 0
M  V30 2764 O 267.676 1.02661 -1.64847 0
M  V30 2765 C 264.806 1.46983 -3.14664 0
M  V30 2766 C 263.76 0.938161 -4.17591 0
M  V30 2767 C 263.086 2.13622 -4.90173 0
M  V30 2768 C 264.386 -0.0261621 -5.22293 0
M  V30 2769 H 266.08 -0.292969 -2.97963 0
M  V30 2770 H 263.626 -0.14234 -1.43295 0
M  V30 2771 H 265.579 2.03873 -3.688 0
M  V30 2772 H 264.303 2.15843 -2.4511 0
M  V30 2773 H 262.962 0.391481 -3.64504 0
M  V30 2774 H 262.61 2.81098 -4.17124 0
M  V30 2775 H 262.31 1.78688 -5.59772 0
M  V30 2776 H 263.834 2.7107 -5.47132 0
M  V30 2777 H 265.248 0.452384 -5.71512 0
M  V30 2778 H 263.645 -0.287992 -5.99409 0
M  V30 2779 H 264.715 -0.963391 -4.75233 0
M  V30 2780 N 266.058 1.56714 -0.166846 0
M  V30 2781 C 267.008 2.14338 0.777382 0
M  V30 2782 C 267.992 1.07642 1.19591 0
M  V30 2783 O 269.184 1.33775 1.15902 0
M  V30 2784 C 266.313 2.78417 2.00846 0
M  V30 2785 C 265.399 3.92264 1.61212 0
M  V30 2786 N 265.79 4.97268 0.925104 0
M  V30 2787 C 264.088 4.03342 1.90346 0
M  V30 2788 C 264.789 5.77093 0.730627 0
M  V30 2789 N 263.765 5.2854 1.27067 0
M  V30 2790 H 267.567 2.9289 0.243466 0
M  V30 2791 H 265.081 1.62364 0.0339954 0
M  V30 2792 H 267.078 3.18073 2.69509 0
M  V30 2793 H 265.738 2.01344 2.54736 0
M  V30 2794 H 266.749 5.14601 0.583646 0
M  V30 2795 H 263.426 3.37368 2.45946 0
M  V30 2796 H 264.816 6.71638 0.187668 0
M  V30 2797 N 267.536 -0.106894 1.57237 0
M  V30 2798 C 268.776 -0.818277 1.87306 0
M  V30 2799 C 269.14 -1.76474 0.756371 0
M  V30 2800 O 270.341 -2.5186 0.939155 0
M  V30 2801 C 268.612 -1.53806 3.22612 0
M  V30 2802 S 270.171 -2.28935 3.74345 0
M  V30 2803 H 266.989 -0.272862 0.656557 0
M  V30 2804 H 269.591 -0.075988 1.95352 0
M  V30 2805 H 268.295 -0.834951 4.01817 0
M  V30 2806 H 267.826 -2.32049 3.17674 0
M  V30 2807 H 269.841 -3.54871 3.46815 0
M  V30 2808 N 269.014 -1.53014 -0.377408 0
M  V30 2809 C 270.254 -1.70318 -1.1301 0
M  V30 2810 C 270.618 -0.439538 -1.86901 0
M  V30 2811 O 271.819 -0.489095 -2.64313 0
M  V30 2812 C 270.09 -2.91125 -2.07319 0
M  V30 2813 S 271.649 -3.29075 -2.90268 0
M  V30 2814 H 268.467 -0.599426 -0.382374 0
M  V30 2815 H 271.069 -1.91089 -0.412933 0
M  V30 2816 H 269.773 -3.81303 -1.51777 0
M  V30 2817 H 269.304 -2.7272 -2.83526 0
M  V30 2818 H 271.319 -2.80165 -4.09539 0
M  V30 2819 N 270.492 0.636531 -1.44174 0
M  V30 2820 C 271.741 1.39213 -1.45954 0
M  V30 2821 C 272.054 1.95374 -0.0939119 0
M  V30 2822 O 273.26 2.71498 0.0107767 0
M  V30 2823 C 271.716 2.52025 -2.56927 0
M  V30 2824 C 271.324 2.024 -3.99673 0
M  V30 2825 C 273.068 3.29269 -2.67922 0
M  V30 2826 C 270.975 3.12521 -5.0208 0
M  V30 2827 H 269.905 0.523132 -0.542999 0
M  V30 2828 H 272.556 0.685349 -1.70221 0
M  V30 2829 H 270.938 3.25253 -2.25891 0
M  V30 2830 H 272.112 1.36073 -4.40251 0
M  V30 2831 H 270.427 1.37987 -3.92872 0
M  V30 2832 H 273.024 4.11352 -3.41605 0
M  V30 2833 H 273.367 3.78397 -1.73555 0
M  V30 2834 H 273.9 2.63129 -2.98342 0
M  V30 2835 H 270.639 2.68343 -5.98057 0
M  V30 2836 H 270.159 3.77507 -4.66099 0
M  V30 2837 H 271.838 3.77385 -5.25538 0
M  V30 2838 N 271.97 1.30982 0.876444 0
M  V30 2839 C 273.21 1.21589 1.64303 0
M  V30 2840 C 273.574 -0.223962 1.90689 0
M  V30 2841 O 274.775 -0.44128 2.65153 0
M  V30 2842 C 273.046 2.03007 2.94148 0
M  V30 2843 S 274.605 2.10405 3.85065 0
M  V30 2844 H 271.423 0.433161 0.563819 0
M  V30 2845 H 274.025 1.65565 1.03964 0
M  V30 2846 H 272.729 3.06719 2.72675 0
M  V30 2847 H 272.26 1.59725 3.59515 0
M  V30 2848 H 274.275 1.23765 4.80517 0
M  V30 2849 N 273.449 -1.08991 1.13837 0
M  V30 2850 C 274.697 -1.80899 0.901098 0
M  V30 2851 C 275.018 -1.86356 -0.574134 0
M  V30 2852 O 274.288 -1.35235 -1.41733 0
M  V30 2853 H 272.868 -0.669966 0.330386 0
M  V30 2854 H 275.53 -1.318 1.43578 0
M  V30 2855 H 274.626 -2.83929 1.29578 0
M  V30 2856 N 274.927 -0.932562 -1.27047 0
M  V30 2857 C 275.89 -0.440064 -2.24936 0
M  V30 2858 C 276.89 0.444071 -1.54547 0
M  V30 2859 O 278.08 0.244465 -1.72476 0
M  V30 2860 C 275.212 0.36678 -3.38921 0
M  V30 2861 H 276.405 -1.305 -2.70018 0
M  V30 2862 H 273.958 -0.713707 -1.39054 0
M  V30 2863 H 274.693 1.25033 -2.99228 0
M  V30 2864 H 274.478 -0.267204 -3.91188 0
M  V30 2865 H 275.968 0.701567 -4.11665 0
M  V30 2866 N 276.405 1.4127 -0.698611 0
M  V30 2867 C 277.654 2.00408 -0.227949 0
M  V30 2868 C 277.967 1.55981 1.18023 0
M  V30 2869 O 279.173 2.07699 1.74852 0
M  V30 2870 C 277.629 3.58129 -0.356636 0
M  V30 2871 C 277.237 4.11536 -1.77037 0
M  V30 2872 C 278.981 4.24466 0.0540969 0
M  V30 2873 C 276.888 5.61701 -1.85055 0
M  V30 2874 H 275.818 0.749586 -0.0814657 0
M  V30 2875 H 278.469 1.61713 -0.867249 0
M  V30 2876 H 276.851 3.94442 0.350965 0
M  V30 2877 H 278.025 3.86636 -2.50698 0
M  V30 2878 H 276.34 3.57736 -2.13105 0
M  V30 2879 H 278.937 5.34698 0.0146723 0
M  V30 2880 H 279.28 4.01687 1.09332 0
M  V30 2881 H 279.813 3.93198 -0.603337 0
M  V30 2882 H 276.552 5.89312 -2.8704 0
M  V30 2883 H 276.072 5.88519 -1.15783 0
M  V30 2884 H 277.751 6.26524 -1.61484 0
M  V30 2885 N 277.883 0.443576 1.51229 0
M  V30 2886 C 279.132 -0.122332 2.01329 0
M  V30 2887 C 279.445 -1.43237 1.33201 0
M  V30 2888 O 280.651 -2.0816 1.74304 0
M  V30 2889 C 279.107 -0.268551 3.58897 0
M  V30 2890 C 278.715 1.03142 4.35965 0
M  V30 2891 C 280.459 -0.787894 4.17124 0
M  V30 2892 C 278.366 0.850504 5.85252 0
M  V30 2893 H 277.296 -0.0494929 0.752374 0
M  V30 2894 H 279.947 0.574289 1.74282 0
M  V30 2895 H 278.329 -1.02832 3.82415 0
M  V30 2896 H 279.503 1.80001 4.24189 0
M  V30 2897 H 277.818 1.47977 3.89219 0
M  V30 2898 H 280.415 -0.939841 5.26375 0
M  V30 2899 H 280.758 -1.77201 3.76703 0
M  V30 2900 H 281.291 -0.0862669 3.97706 0
M  V30 2901 H 278.03 1.80718 6.30096 0
M  V30 2902 H 277.55 0.121825 5.99676 0
M  V30 2903 H 279.229 0.506163 6.45017 0
M  V30 2904 N 279.361 -1.56624 0.175154 0
M  V30 2905 C 280.777 -1.58571 -0.180966 0
M  V30 2906 C 280.977 -1.19065 -1.6256 0
M  V30 2907 O 280.033 -0.904044 -2.35761 0
M  V30 2908 C 281.346 -3.00522 0.103326 0
M  V30 2909 C 282.894 -3.12972 0.0418426 0
M  V30 2910 C 283.369 -4.57022 0.299175 0
M  V30 2911 N 284.86 -4.62541 0.247086 0
M  V30 2912 C 285.595 -5.71857 0.420318 0
M  V30 2913 N 285.091 -6.89717 0.652816 0
M  V30 2914 N 286.884 -5.60972 0.355957 0
M  V30 2915 H 279.035 -1.80589 1.11809 0
M  V30 2916 H 281.298 -0.837178 0.444788 0
M  V30 2917 H 281.004 -3.33916 1.10422 0
M  V30 2918 H 280.878 -3.72344 -0.603299 0
M  V30 2919 H 283.265 -2.79403 -0.949636 0
M  V30 2920 H 283.346 -2.43578 0.781238 0
M  V30 2921 H 282.99 -4.913 1.28788 0
M  V30 2922 H 282.92 -5.24579 -0.460876 0
M  V30 2923 H 285.411 -3.77829 0.0731895 0
M  V30 2924 H 285.724 -7.68911 0.774347 0
M  V30 2925 H 284.069 -6.91572 0.689476 0
M  V30 2926 H 287.26 -4.67773 0.174882 0
M  V30 2927 H 287.433 -6.46111 0.494388 0
M  V30 2928 N 280.839 0.0985539 -1.57292 0
M  V30 2929 C 282.25 0.653457 -1.74891 0
M  V30 2930 C 282.601 1.7929 -0.796838 0
M  V30 2931 O 281.726 2.16385 0.0254886 0
M  V30 2932 C 282.321 1.19216 -3.17133 0
M  V30 2933 C 280.88 1.69316 -3.36168 0
M  V30 2934 C 280.027 0.601294 -2.70702 0
M  V30 2935 H 282.978 -0.127497 -1.58187 0
M  V30 2936 H 282.999 2.06154 -3.19814 0
M  V30 2937 H 282.511 0.362635 -3.86402 0
M  V30 2938 H 280.612 2.5468 -2.71972 0
M  V30 2939 H 280.725 1.78853 -4.44464 0
M  V30 2940 H 279.089 1.0399 -2.32504 0
M  V30 2941 H 279.872 -0.217592 -3.4261 0
M  V30 2942 N 282.317 1.53212 0.369288 0
M  V30 2943 C 283.563 1.69466 1.11397 0
M  V30 2944 C 283.896 0.443257 1.89074 0
M  V30 2945 O 283.171 -0.559386 1.86282 0
M  V30 2946 C 283.454 2.9422 2.07621 0
M  V30 2947 C 283.307 4.29508 1.33577 0
M  V30 2948 C 284.626 3.14565 3.07794 0
M  V30 2949 H 281.745 0.616667 0.403597 0
M  V30 2950 H 284.387 1.85845 0.395179 0
M  V30 2951 H 282.537 2.80387 2.68916 0
M  V30 2952 H 284.209 4.55147 0.750955 0
M  V30 2953 H 282.452 4.29088 0.637618 0
M  V30 2954 H 283.123 5.12926 2.03989 0
M  V30 2955 H 285.599 3.2756 2.56601 0
M  V30 2956 H 284.475 4.03297 3.72348 0
M  V30 2957 H 284.736 2.29675 3.77759 0
M  V30 2958 N 283.795 -0.628877 1.44509 0
M  V30 2959 C 284.758 -1.72263 1.51188 0
M  V30 2960 C 285.758 -1.55907 0.39367 0
M  V30 2961 O 286.948 -1.61361 0.656377 0
M  V30 2962 C 284.08 -3.11365 1.38798 0
M  V30 2963 H 285.273 -1.67714 2.4862 0
M  V30 2964 H 282.826 -0.842737 1.31634 0
M  V30 2965 H 283.561 -3.21507 0.424693 0
M  V30 2966 H 283.346 -3.24644 2.19884 0
M  V30 2967 H 284.836 -3.91075 1.46458 0
M  V30 2968 N 285.273 -1.31445 -0.869486 0
M  V30 2969 C 286.501 -1.24122 -1.65534 0
M  V30 2970 C 286.916 0.193387 -1.87807 0
M  V30 2971 O 286.273 1.12557 -1.43656 0
M  V30 2972 C 286.324 -1.98229 -3.02304 0
M  V30 2973 O 286.045 -3.3609 -2.81026 0
M  V30 2974 C 287.546 -1.97751 -3.96749 0
M  V30 2975 H 284.766 -0.428868 -0.516055 0
M  V30 2976 H 287.31 -1.73328 -1.08525 0
M  V30 2977 H 285.465 -1.52782 -3.56001 0
M  V30 2978 H 285.879 -3.7383 -3.67902 0
M  V30 2979 H 287.353 -2.54114 -4.90031 0
M  V30 2980 H 287.83 -0.960137 -4.28577 0
M  V30 2981 H 288.436 -2.43079 -3.48988 0
M  V30 2982 N 286.751 1.08385 -1.14413 0
M  V30 2983 C 287.976 1.85057 -0.936413 0
M  V30 2984 C 288.401 1.81055 0.509971 0
M  V30 2985 O 287.759 1.1958 1.36273 0
M  V30 2986 C 287.807 3.30505 -1.44217 0
M  V30 2987 O 286.911 4.07491 -0.634409 0
M  V30 2988 H 286.252 0.573425 -0.334784 0
M  V30 2989 H 288.782 1.36799 -1.52142 0
M  V30 2990 H 288.792 3.81348 -1.45043 0
M  V30 2991 H 287.467 3.32734 -2.49522 0
M  V30 2992 H 286.044 3.66368 -0.694902 0
M  V30 2993 N 288.23 0.939286 1.26551 0
M  V30 2994 C 289.476 0.586715 1.94128 0
M  V30 2995 C 289.809 -0.8717 1.73537 0
M  V30 2996 O 289.084 -1.62339 1.07127 0
M  V30 2997 C 289.367 0.927497 3.4795 0
M  V30 2998 C 289.22 2.44052 3.77834 0
M  V30 2999 C 290.539 0.441569 4.37879 0
M  V30 3000 H 287.658 0.21463 0.705055 0
M  V30 3001 H 290.3 1.17316 1.49455 0
M  V30 3002 H 288.45 0.428431 3.8613 0
M  V30 3003 H 290.122 3.01216 3.4938 0
M  V30 3004 H 288.365 2.8848 3.23978 0
M  V30 3005 H 289.036 2.62947 4.85348 0
M  V30 3006 H 291.512 0.869448 4.06915 0
M  V30 3007 H 290.388 0.708856 5.44304 0
M  V30 3008 H 290.649 -0.658467 4.37169 0
M  V30 3009 N 289.708 -1.40897 0.706093 0
M  V30 3010 C 290.671 -2.29131 0.0562841 0
M  V30 3011 C 291.671 -1.44901 -0.697166 0
M  V30 3012 O 292.861 -1.65926 -0.530484 0
M  V30 3013 C 289.993 -3.27957 -0.93043 0
M  V30 3014 H 291.186 -2.88091 0.833284 0
M  V30 3015 H 288.739 -1.4906 0.470192 0
M  V30 3016 H 289.474 -2.73997 -1.73482 0
M  V30 3017 H 289.259 -3.90124 -0.393166 0
M  V30 3018 H 290.749 -3.94049 -1.38256 0
M  V30 3019 N 291.186 -0.45159 -1.50991 0
M  V30 3020 C 292.597 0.00818571 -1.86698 0
M  V30 3021 C 292.948 1.40661 -1.3678 0
M  V30 3022 O 292.073 2.0391 -0.724546 0
M  V30 3023 C 292.668 0.0216303 -3.38793 0
M  V30 3024 C 291.227 0.425865 -3.73983 0
M  V30 3025 C 290.374 -0.372163 -2.74791 0
M  V30 3026 H 293.325 -0.666785 -1.44013 0
M  V30 3027 H 293.346 0.828078 -3.7138 0
M  V30 3028 H 292.858 -0.996288 -3.75094 0
M  V30 3029 H 290.959 1.44886 -3.43277 0
M  V30 3030 H 291.072 0.140761 -4.78893 0
M  V30 3031 H 289.436 0.171498 -2.54122 0
M  V30 3032 H 290.219 -1.38922 -3.13935 0
M  V30 3033 N 292.664 1.56529 -0.183458 0
M  V30 3034 C 293.574 2.22144 0.754272 0
M  V30 3035 C 294.59 1.21684 1.24374 0
M  V30 3036 O 295.766 1.54385 1.29333 0
M  V30 3037 C 292.831 2.85884 1.96141 0
M  V30 3038 C 291.892 4.01579 1.51765 0
M  V30 3039 C 291.125 4.6227 2.66725 0
M  V30 3040 O 291.348 4.21865 3.83909 0
M  V30 3041 O 290.282 5.51936 2.40104 0
M  V30 3042 H 294.108 3.02861 0.225527 0
M  V30 3043 H 291.693 1.49331 0.0453032 0
M  V30 3044 H 293.575 3.26253 2.66715 0
M  V30 3045 H 292.25 2.08154 2.47899 0
M  V30 3046 H 291.157 3.65856 0.781049 0
M  V30 3047 H 292.49 4.80938 1.04686 0
M  V30 3048 N 294.142 -0.090211 1.57342 0
M  V30 3049 C 295.37 -0.806224 1.90546 0
M  V30 3050 C 295.785 -1.72041 0.777644 0
M  V30 3051 O 295.142 -1.80778 -0.250103 0
M  V30 3052 C 295.193 -1.61546 3.23396 0
M  V30 3053 O 294.914 -0.738043 4.31839 0
M  V30 3054 C 296.415 -2.4341 3.70495 0
M  V30 3055 H 293.635 -0.230256 0.630257 0
M  V30 3056 H 296.179 -0.0659843 2.04394 0
M  V30 3057 H 294.334 -2.30816 3.11131 0
M  V30 3058 H 294.748 -1.29901 5.08159 0
M  V30 3059 H 296.222 -2.95676 4.66133 0
M  V30 3060 H 296.699 -3.22098 2.98579 0
M  V30 3061 H 297.305 -1.79331 3.85643 0
M  V30 3062 N 295.62 -1.53406 -0.361157 0
M  V30 3063 C 296.567 -1.80156 -1.44265 0
M  V30 3064 C 297.537 -0.646183 -1.53015 0
M  V30 3065 O 298.722 -0.888818 -1.68833 0
M  V30 3066 C 295.862 -2.00116 -2.81154 0
M  V30 3067 C 294.975 -3.27833 -2.81335 0
M  V30 3068 C 294.11 -3.37957 -4.09828 0
M  V30 3069 C 293.149 -4.59689 -4.04168 0
M  V30 3070 N 292.286 -4.66942 -5.24318 0
M  V30 3071 H 297.126 -2.72438 -1.20754 0
M  V30 3072 H 294.663 -1.34954 -0.585296 0
M  V30 3073 H 296.621 -2.09677 -3.60682 0
M  V30 3074 H 295.251 -1.11167 -3.03054 0
M  V30 3075 H 294.303 -3.27204 -1.94014 0
M  V30 3076 H 295.615 -4.17442 -2.73027 0
M  V30 3077 H 294.769 -3.46853 -4.97773 0
M  V30 3078 H 293.508 -2.46372 -4.20894 0
M  V30 3079 H 292.513 -4.50889 -3.14609 0
M  V30 3080 H 293.738 -5.5262 -3.947 0
M  V30 3081 H 291.684 -3.7826 -5.35962 0
M  V30 3082 H 291.601 -5.50462 -5.18197 0
M  V30 3083 H 292.869 -4.80127 -6.14084 0
M  V30 3084 N 297.098 0.621204 -1.44841 0
M  V30 3085 C 298.008 1.7612 -1.5498 0
M  V30 3086 C 299.024 1.68477 -0.434927 0
M  V30 3087 O 300.2 1.89076 -0.693693 0
M  V30 3088 C 297.265 3.1254 -1.50065 0
M  V30 3089 C 296.326 3.31741 -2.72482 0
M  V30 3090 C 295.559 4.61653 -2.67792 0
M  V30 3091 O 295.782 5.431 -1.74352 0
M  V30 3092 O 294.716 4.83271 -3.58794 0
M  V30 3093 H 298.542 1.70518 -2.51311 0
M  V30 3094 H 296.127 0.783643 -1.27198 0
M  V30 3095 H 298.009 3.93844 -1.49882 0
M  V30 3096 H 296.684 3.18663 -0.568806 0
M  V30 3097 H 295.591 2.50077 -2.7823 0
M  V30 3098 H 296.924 3.30486 -3.64746 0
M  V30 3099 N 298.576 1.31904 0.862503 0
M  V30 3100 C 299.816 1.23324 1.63004 0
M  V30 3101 C 300.18 -0.203724 1.90916 0
M  V30 3102 O 301.381 -0.413132 2.65606 0
M  V30 3103 C 299.652 2.06116 2.91978 0
M  V30 3104 S 301.211 2.14478 3.82812 0
M  V30 3105 H 298.029 0.439117 0.559193 0
M  V30 3106 H 300.631 1.66658 1.02202 0
M  V30 3107 H 299.335 3.09593 2.69407 0
M  V30 3108 H 298.866 1.6353 3.57801 0
M  V30 3109 H 300.881 1.28855 4.79177 0
M  V30 3110 N 300.054 -1.07777 1.14986 0
M  V30 3111 C 301.465 -1.61766 0.932127 0
M  V30 3112 C 301.816 -1.88974 -0.527581 0
M  V30 3113 O 300.941 -1.65198 -1.39781 0
M  V30 3114 C 301.536 -2.93891 1.68563 0
M  V30 3115 C 300.095 -3.44639 1.5133 0
M  V30 3116 C 299.242 -2.18767 1.704 0
M  V30 3117 H 302.193 -0.909201 1.30074 0
M  V30 3118 H 302.214 -3.62623 1.15259 0
M  V30 3119 H 301.726 -2.74057 2.74799 0
M  V30 3120 H 299.827 -3.69564 0.474702 0
M  V30 3121 H 299.94 -4.20966 2.28746 0
M  V30 3122 H 298.304 -2.28253 1.13016 0
M  V30 3123 H 299.087 -2.01433 2.77992 0
M  V30 3124 N 301.532 -0.945985 -1.26051 0
M  V30 3125 C 302.943 -0.638096 -1.75457 0
M  V30 3126 C 303.294 0.846672 -1.76991 0
M  V30 3127 O 302.419 1.66262 -1.38513 0
M  V30 3128 C 303.014 -1.15157 -3.18629 0
M  V30 3129 C 301.573 -0.894004 -3.65629 0
M  V30 3130 C 300.72 -1.29967 -2.44957 0
M  V30 3131 H 303.671 -1.12376 -1.1206 0
M  V30 3132 H 303.692 -0.507615 -3.77099 0
M  V30 3133 H 303.204 -2.23222 -3.1748 0
M  V30 3134 H 301.305 0.172057 -3.72203 0
M  V30 3135 H 301.418 -1.52439 -4.54202 0
M  V30 3136 H 299.782 -0.718078 -2.44368 0
M  V30 3137 H 300.565 -2.38935 -2.46505 0
M  V30 3138 N 303.011 1.40521 -0.713556 0
M  V30 3139 C 304.422 1.83853 -0.324807 0
M  V30 3140 C 304.773 1.59667 1.14021 0
M  V30 3141 O 303.898 1.07649 1.87725 0
M  V30 3142 C 304.493 3.33751 -0.582746 0
M  V30 3143 C 303.052 3.75584 -0.247727 0
M  V30 3144 C 302.199 2.63753 -0.856121 0
M  V30 3145 H 305.15 1.29817 -0.91286 0
M  V30 3146 H 305.171 3.80194 0.152682 0
M  V30 3147 H 304.683 3.51322 -1.64908 0
M  V30 3148 H 302.784 3.63608 0.813624 0
M  V30 3149 H 302.897 4.7373 -0.715307 0
M  V30 3150 H 301.261 2.53108 -0.28432 0
M  V30 3151 H 302.044 2.84137 -1.92668 0
M  V30 3152 N 304.489 0.459591 1.5075 0
M  V30 3153 C 305.9 0.00171547 1.867 0
M  V30 3154 C 306.251 -1.39934 1.37525 0
M  V30 3155 O 305.376 -2.03523 0.735349 0
M  V30 3156 C 305.971 -0.00366298 3.388 0
M  V30 3157 C 304.53 -0.406026 3.74204 0
M  V30 3158 C 303.677 0.38673 2.7459 0
M  V30 3159 H 306.628 0.674413 1.43657 0
M  V30 3160 H 306.649 -0.808371 3.71814 0
M  V30 3161 H 306.161 1.01617 3.74561 0
M  V30 3162 H 304.262 -1.43063 3.4404 0
M  V30 3163 H 304.375 -0.115362 4.78961 0
M  V30 3164 H 302.739 -0.158019 2.54209 0
M  V30 3165 H 303.522 1.40585 3.13194 0
M  V30 3166 N 305.967 -1.56429 0.191757 0
M  V30 3167 C 307.378 -1.83912 -0.321428 0
M  V30 3168 C 307.729 -1.11231 -1.61623 0
M  V30 3169 O 306.854 -0.37202 -2.13178 0
M  V30 3170 C 307.449 -3.33624 -0.589961 0
M  V30 3171 C 306.008 -3.6153 -1.04753 0
M  V30 3172 C 305.155 -2.7714 -0.0943327 0
M  V30 3173 H 308.106 -1.53161 0.415612 0
M  V30 3174 H 308.127 -3.52213 -1.43966 0
M  V30 3175 H 307.639 -3.86495 0.352588 0
M  V30 3176 H 305.74 -3.14089 -2.00447 0
M  V30 3177 H 305.853 -4.69737 -0.942549 0
M  V30 3178 H 304.217 -2.47638 -0.595589 0
M  V30 3179 H 305 -3.32799 0.842601 0
M  V30 3180 N 307.445 0.0818655 -1.57387 0
M  V30 3181 C 308.355 1.11642 -2.06333 0
M  V30 3182 C 309.371 1.43033 -0.99083 0
M  V30 3183 O 310.547 1.53411 -1.30488 0
M  V30 3184 C 307.612 2.41342 -2.48907 0
M  V30 3185 C 306.673 2.17014 -3.7041 0
M  V30 3186 C 305.906 3.4053 -4.10944 0
M  V30 3187 O 306.129 4.4927 -3.51444 0
M  V30 3188 O 305.063 3.29336 -5.03807 0
M  V30 3189 H 308.889 0.730657 -2.9478 0
M  V30 3190 H 306.474 0.295301 -1.46452 0
M  V30 3191 H 308.356 3.17691 -2.76858 0
M  V30 3192 H 307.031 2.79319 -1.63593 0
M  V30 3193 H 305.938 1.38403 -3.47556 0
M  V30 3194 H 307.271 1.83923 -4.56545 0
M  V30 3195 N 308.923 1.53595 0.353017 0
M  V30 3196 C 310.151 1.74311 1.1146 0
M  V30 3197 C 310.566 0.477854 1.82653 0
M  V30 3198 O 309.923 -0.549977 1.74016 0
M  V30 3199 C 309.974 2.91694 2.13534 0
M  V30 3200 O 309.695 4.13325 1.45238 0
M  V30 3201 C 311.196 3.24384 3.02142 0
M  V30 3202 H 308.416 0.582669 0.332773 0
M  V30 3203 H 310.96 2.00386 0.408107 0
M  V30 3204 H 309.115 2.67977 2.79763 0
M  V30 3205 H 309.529 4.79148 2.13349 0
M  V30 3206 H 311.003 4.09893 3.69718 0
M  V30 3207 H 311.48 2.40282 3.67643 0
M  V30 3208 H 312.086 3.50073 2.41514 0
M  V30 3209 N 310.401 -0.613514 1.45168 0
M  V30 3210 C 311.812 -1.19539 1.43413 0
M  V30 3211 C 312.163 -1.95558 0.158632 0
M  V30 3212 O 311.288 -2.0335 -0.740119 0
M  V30 3213 C 311.883 -2.17445 2.59813 0
M  V30 3214 C 310.442 -2.71022 2.61197 0
M  V30 3215 C 309.589 -1.46323 2.35552 0
M  V30 3216 H 312.54 -0.403163 1.53494 0
M  V30 3217 H 312.561 -3.00373 2.33574 0
M  V30 3218 H 312.073 -1.62089 3.52631 0
M  V30 3219 H 310.174 -3.30332 1.7237 0
M  V30 3220 H 310.287 -3.15859 3.60236 0
M  V30 3221 H 308.651 -1.75072 1.84992 0
M  V30 3222 H 309.434 -0.92844 3.30507 0
M  V30 3223 N 311.879 -1.3236 -0.855495 0
M  V30 3224 C 312.842 -1.21164 -1.94556 0
M  V30 3225 C 313.842 -0.134908 -1.60233 0
M  V30 3226 O 315.032 -0.385249 -1.69887 0
M  V30 3227 C 312.164 -0.863192 -3.29791 0
M  V30 3228 H 313.357 -2.18038 -2.05911 0
M  V30 3229 H 310.91 -1.16179 -1.04557 0
M  V30 3230 H 311.645 0.103769 -3.24134 0
M  V30 3231 H 311.43 -1.64166 -3.56078 0
M  V30 3232 H 312.92 -0.809156 -4.09686 0
M  V30 3233 N 313.357 1.07166 -1.15556 0
M  V30 3234 C 314.287 2.16403 -0.877046 0
M  V30 3235 C 315.268 1.69217 0.173111 0
M  V30 3236 O 316.453 1.94181 0.027084 0
M  V30 3237 C 313.583 3.45349 -0.367632 0
M  V30 3238 C 312.537 4.05995 -1.35468 0
M  V30 3239 C 311.863 5.30045 -0.704038 0
M  V30 3240 C 313.163 4.45804 -2.72132 0
M  V30 3241 H 314.857 2.39959 -1.79053 0
M  V30 3242 H 312.403 1.15325 -0.862331 0
M  V30 3243 H 314.356 4.21095 -0.160317 0
M  V30 3244 H 313.08 3.21385 0.581326 0
M  V30 3245 H 311.739 3.32296 -1.54839 0
M  V30 3246 H 311.387 5.02373 0.251128 0
M  V30 3247 H 311.087 5.71579 -1.36277 0
M  V30 3248 H 312.611 6.08495 -0.50654 0
M  V30 3249 H 314.025 5.12671 -2.56595 0
M  V30 3250 H 312.422 4.98296 -3.34397 0
M  V30 3251 H 313.492 3.57083 -3.28054 0
M  V30 3252 N 314.835 0.952656 1.25548 0
M  V30 3253 C 316.083 0.605176 1.92826 0
M  V30 3254 C 316.404 -0.860261 1.74999 0
M  V30 3255 O 315.674 -1.6125 1.11244 0
M  V30 3256 H 314.254 0.220832 0.713612 0
M  V30 3257 H 316.916 1.21047 1.52754 0
M  V30 3258 H 316.012 0.832798 3.00784 0
M  V30 3259 N 316.313 -1.40141 0.720998 0
M  V30 3260 C 317.553 -2.02644 0.267335 0
M  V30 3261 C 317.917 -1.55948 -1.12001 0
M  V30 3262 O 319.118 -2.10552 -1.67097 0
M  V30 3263 C 317.389 -3.55679 0.350281 0
M  V30 3264 S 318.948 -4.38793 -0.0256004 0
M  V30 3265 H 315.766 -0.703105 0.105664 0
M  V30 3266 H 318.368 -1.71175 0.944416 0
M  V30 3267 H 317.072 -3.87157 1.36153 0
M  V30 3268 H 316.603 -3.91883 -0.345096 0
M  V30 3269 H 318.618 -4.803 -1.24604 0
M  V30 3270 N 317.792 -0.46758 -1.50504 0
M  V30 3271 C 318.722 0.318381 -2.31319 0
M  V30 3272 C 319.703 0.993564 -1.38066 0
M  V30 3273 O 320.888 0.991411 -1.66987 0
M  V30 3274 C 318.018 1.40275 -3.17711 0
M  V30 3275 C 316.972 0.849373 -4.19487 0
M  V30 3276 C 316.298 2.03177 -4.94594 0
M  V30 3277 C 317.598 -0.136942 -5.2212 0
M  V30 3278 H 319.292 -0.356106 -2.97275 0
M  V30 3279 H 316.838 -0.172703 -1.42961 0
M  V30 3280 H 318.791 1.96004 -3.73042 0
M  V30 3281 H 317.515 2.10596 -2.49634 0
M  V30 3282 H 316.174 0.314076 -3.65252 0
M  V30 3283 H 315.822 2.72187 -4.22993 0
M  V30 3284 H 315.522 1.66774 -5.63436 0
M  V30 3285 H 317.046 2.59403 -5.52759 0
M  V30 3286 H 318.46 0.331056 -5.72343 0
M  V30 3287 H 316.857 -0.41507 -5.98663 0
M  V30 3288 H 317.927 -1.06398 -4.73083 0
M  V30 3289 N 319.27 1.56325 -0.20005 0
M  V30 3290 C 320.233 2.18084 0.705132 0
M  V30 3291 C 321.233 1.13666 1.1374 0
M  V30 3292 O 322.423 1.39023 1.04968 0
M  V30 3293 C 319.555 2.78689 1.96329 0
M  V30 3294 H 320.748 2.99435 0.167023 0
M  V30 3295 H 318.301 1.56221 0.0495725 0
M  V30 3296 H 319.036 2.0115 2.5438 0
M  V30 3297 H 318.821 3.55133 1.66202 0
M  V30 3298 H 320.311 3.26096 2.60866 0
M  V30 3299 N 320.748 -0.0735177 1.57428 0
M  V30 3300 C 321.711 -1.07192 2.02589 0
M  V30 3301 C 322.711 -1.31695 0.922661 0
M  V30 3302 O 323.901 -1.27445 1.18758 0
M  V30 3303 C 321.033 -2.41599 2.40506 0
M  V30 3304 H 322.226 -0.682727 2.92025 0
M  V30 3305 H 319.779 -0.319193 1.53006 0
M  V30 3306 H 320.514 -2.85354 1.5409 0
M  V30 3307 H 320.299 -2.25156 3.21009 0
M  V30 3308 H 321.789 -3.13367 2.76027 0
M  V30 3309 N 322.226 -1.5378 -0.344866 0
M  V30 3310 C 323.466 -1.72677 -1.09371 0
M  V30 3311 C 323.83 -0.479084 -1.85927 0
M  V30 3312 O 325.031 -0.54505 -2.63216 0
M  V30 3313 C 323.302 -2.95457 -2.01097 0
M  V30 3314 S 324.861 -3.35158 -2.83222 0
M  V30 3315 H 321.679 -0.607402 -0.369573 0
M  V30 3316 H 324.281 -1.91922 -0.372307 0
M  V30 3317 H 322.985 -3.84437 -1.43655 0
M  V30 3318 H 322.516 -2.78673 -2.77678 0
M  V30 3319 H 324.531 -2.88789 -4.03504 0
M  V30 3320 N 323.704 0.605807 -1.45491 0
M  V30 3321 C 324.952 1.36207 -1.49305 0
M  V30 3322 C 325.273 1.94519 -0.136863 0
M  V30 3323 O 324.543 1.77261 0.833983 0
M  V30 3324 H 323.123 0.50565 -0.549843 0
M  V30 3325 H 325.785 0.711239 -1.81459 0
M  V30 3326 H 324.881 2.18058 -2.23287 0
M  V30 3327 N 325.182 1.32811 0.848464 0
M  V30 3328 C 326.598 1.11937 1.13764 0
M  V30 3329 C 326.798 -0.0960789 2.01271 0
M  V30 3330 O 325.854 -0.779165 2.40178 0
M  V30 3331 C 327.167 2.402 1.809 0
M  V30 3332 C 328.715 2.46016 1.93508 0
M  V30 3333 C 329.19 3.74215 2.64059 0
M  V30 3334 N 330.681 3.75232 2.71579 0
M  V30 3335 C 331.416 4.71134 3.26833 0
M  V30 3336 N 330.912 5.77406 3.8285 0
M  V30 3337 N 332.705 4.58623 3.24995 0
M  V30 3338 H 324.856 2.1073 0.265855 0
M  V30 3339 H 327.119 0.930671 0.180431 0
M  V30 3340 H 326.825 3.29093 1.24058 0
M  V30 3341 H 326.699 2.51628 2.81004 0
M  V30 3342 H 329.086 1.57577 2.49506 0
M  V30 3343 H 329.167 2.38536 0.923811 0
M  V30 3344 H 328.811 4.63031 2.08722 0
M  V30 3345 H 328.741 3.78968 3.65637 0
M  V30 3346 H 331.232 2.98423 2.31845 0
M  V30 3347 H 331.545 6.46632 4.23187 0
M  V30 3348 H 329.89 5.81152 3.81165 0
M  V30 3349 H 333.081 3.74762 2.80484 0
M  V30 3350 H 333.254 5.33535 3.67756 0
M  V30 3351 N 326.66 -1.06551 1.16123 0
M  V30 3352 C 327.888 -1.83005 0.965237 0
M  V30 3353 C 328.303 -1.82423 -0.486542 0
M  V30 3354 O 327.66 -1.24152 -1.33763 0
M  V30 3355 C 327.711 -3.29733 1.48183 0
M  V30 3356 O 327.432 -3.30416 2.87674 0
M  V30 3357 C 328.933 -4.22926 1.32848 0
M  V30 3358 H 326.153 -0.577118 0.342309 0
M  V30 3359 H 328.697 -1.3445 1.54089 0
M  V30 3360 H 326.852 -3.75609 0.948517 0
M  V30 3361 H 327.266 -4.22149 3.11272 0
M  V30 3362 H 328.74 -5.23916 1.73827 0
M  V30 3363 H 329.217 -4.38346 0.273692 0
M  V30 3364 H 329.823 -3.82894 1.85127 0
M  V30 3365 N 328.138 -0.959301 -1.25041 0
M  V30 3366 C 329.387 -0.612254 -1.92183 0
M  V30 3367 C 329.7 0.855347 -1.75907 0
M  V30 3368 O 330.906 1.31256 -2.37664 0
M  V30 3369 C 329.362 -1.04435 -3.44414 0
M  V30 3370 C 328.97 -2.53482 -3.69393 0
M  V30 3371 C 330.714 -0.770055 -4.17457 0
M  V30 3372 C 328.621 -2.90468 -5.15153 0
M  V30 3373 H 327.551 -0.225279 -0.719559 0
M  V30 3374 H 330.202 -1.16438 -1.41825 0
M  V30 3375 H 328.584 -0.4206 -3.9376 0
M  V30 3376 H 329.758 -3.20916 -3.30681 0
M  V30 3377 H 328.073 -2.78432 -3.0962 0
M  V30 3378 H 330.67 -1.02249 -5.24832 0
M  V30 3379 H 331.013 0.293611 -4.15263 0
M  V30 3380 H 331.546 -1.35437 -3.74034 0
M  V30 3381 H 328.285 -3.95871 -5.22462 0
M  V30 3382 H 327.805 -2.27711 -5.54894 0
M  V30 3383 H 329.484 -2.79914 -5.83315 0
M  V30 3384 N 329.616 1.39756 -0.72842 0
M  V30 3385 C 330.548 2.29157 -0.0446202 0
M  V30 3386 C 331.561 1.46484 0.710367 0
M  V30 3387 O 332.75 1.69632 0.55562 0
M  V30 3388 C 329.85 3.24987 0.961071 0
M  V30 3389 C 329.023 4.36572 0.268967 0
M  V30 3390 C 328.082 5.12756 1.18184 0
M  V30 3391 O 327.108 5.6534 0.661794 0
M  V30 3392 N 328.31 5.23331 2.51206 0
M  V30 3393 H 331.075 2.88482 -0.812295 0
M  V30 3394 H 328.636 1.51265 -0.577098 0
M  V30 3395 H 330.628 3.72827 1.57423 0
M  V30 3396 H 329.198 2.66739 1.63 0
M  V30 3397 H 328.418 3.90694 -0.524574 0
M  V30 3398 H 329.706 5.08363 -0.210934 0
M  V30 3399 H 329.104 4.82116 2.9594 0
M  V30 3400 H 327.661 5.74634 3.07634 0
M  V30 3401 N 331.094 0.475555 1.50254 0
M  V30 3402 C 332.51 0.12997 1.5907 0
M  V30 3403 C 332.71 -1.36385 1.48328 0
M  V30 3404 O 331.766 -2.13754 1.34407 0
M  V30 3405 C 333.079 0.684139 2.92814 0
M  V30 3406 C 334.627 0.647965 3.0622 0
M  V30 3407 C 335.102 1.17975 4.42545 0
M  V30 3408 N 336.593 1.13936 4.48969 0
M  V30 3409 C 337.328 1.52129 5.52851 0
M  V30 3410 N 336.824 1.97793 6.63965 0
M  V30 3411 N 338.617 1.43704 5.4342 0
M  V30 3412 H 330.768 1.44706 1.55479 0
M  V30 3413 H 333.031 0.598691 0.735033 0
M  V30 3414 H 332.737 1.73079 3.06164 0
M  V30 3415 H 332.611 0.130204 3.76975 0
M  V30 3416 H 334.998 -0.38979 2.92514 0
M  V30 3417 H 335.079 1.23876 2.23805 0
M  V30 3418 H 334.723 2.21616 4.57 0
M  V30 3419 H 334.653 0.565138 5.23559 0
M  V30 3420 H 337.144 0.804488 3.69238 0
M  V30 3421 H 337.457 2.25072 7.39299 0
M  V30 3422 H 335.802 2.01749 6.65073 0
M  V30 3423 H 338.993 1.07867 4.55502 0
M  V30 3424 H 339.166 1.73794 6.24259 0
M  V30 3425 N 332.573 -1.56217 0.208337 0
M  V30 3426 C 333.523 -2.16324 -0.720281 0
M  V30 3427 C 334.507 -1.10775 -1.16695 0
M  V30 3428 O 335.699 -1.36801 -1.12314 0
M  V30 3429 C 332.828 -2.83644 -1.93393 0
M  V30 3430 C 331.914 -3.96401 -1.50755 0
M  V30 3431 N 332.305 -4.99546 -0.792937 0
M  V30 3432 C 330.603 -4.08246 -1.79585 0
M  V30 3433 C 331.304 -5.78828 -0.577364 0
M  V30 3434 N 330.28 -5.31723 -1.1301 0
M  V30 3435 H 334.082 -2.93432 -0.165725 0
M  V30 3436 H 331.596 -1.62397 0.00906463 0
M  V30 3437 H 333.593 -3.25107 -2.60981 0
M  V30 3438 H 332.253 -2.08027 -2.49308 0
M  V30 3439 H 333.264 -5.15967 -0.447004 0
M  V30 3440 H 329.941 -3.4377 -2.36915 0
M  V30 3441 H 331.331 -6.71899 -0.00952956 0
M  V30 3442 N 334.051 0.0651679 -1.57465 0
M  V30 3443 C 334.981 1.07693 -2.07182 0
M  V30 3444 C 335.962 1.39962 -0.966673 0
M  V30 3445 O 337.147 1.49475 -1.2398 0
M  V30 3446 C 334.277 2.3885 -2.52127 0
M  V30 3447 C 333.231 2.20917 -3.66579 0
M  V30 3448 C 332.557 3.57515 -3.97601 0
M  V30 3449 C 333.857 1.62493 -4.9638 0
M  V30 3450 H 335.551 0.663199 -2.91962 0
M  V30 3451 H 333.097 0.317569 -1.40455 0
M  V30 3452 H 335.05 3.09928 -2.85522 0
M  V30 3453 H 333.774 2.82215 -1.64384 0
M  V30 3454 H 332.433 1.52279 -3.33477 0
M  V30 3455 H 332.081 3.98463 -3.06979 0
M  V30 3456 H 331.781 3.46353 -4.74672 0
M  V30 3457 H 333.305 4.30013 -4.33499 0
M  V30 3458 H 334.719 2.23445 -5.27963 0
M  V30 3459 H 333.116 1.62009 -5.77818 0
M  V30 3460 H 334.186 0.587041 -4.81333 0
M  V30 3461 N 335.529 1.53961 0.336706 0
M  V30 3462 C 336.492 1.81724 1.39675 0
M  V30 3463 C 337.492 0.688532 1.45313 0
M  V30 3464 O 338.682 0.956829 1.45569 0
M  V30 3465 C 335.814 1.96543 2.78538 0
M  V30 3466 H 337.007 2.76424 1.16318 0
M  V30 3467 H 334.56 1.45478 0.571474 0
M  V30 3468 H 335.295 1.0401 3.07168 0
M  V30 3469 H 335.08 2.78665 2.75841 0
M  V30 3470 H 336.57 2.19516 3.5525 0
M  V30 3471 N 337.007 -0.598083 1.45811 0
M  V30 3472 C 338.254 -1.35681 1.50323 0
M  V30 3473 C 338.582 -1.9393 0.148739 0
M  V30 3474 O 337.837 -1.76094 -0.853787 0
M  V30 3475 C 338.136 -2.51669 2.53766 0
M  V30 3476 C 337.802 -2.11508 3.98215 0
M  V30 3477 C 336.464 -2.0027 4.37545 0
M  V30 3478 C 338.816 -1.80308 4.89018 0
M  V30 3479 C 336.144 -1.56067 5.65562 0
M  V30 3480 C 338.496 -1.37589 6.17456 0
M  V30 3481 C 337.16 -1.24916 6.55708 0
M  V30 3482 H 336.43 -0.496492 0.550069 0
M  V30 3483 H 339.077 -0.675052 1.79207 0
M  V30 3484 H 337.382 -3.25225 2.18486 0
M  V30 3485 H 339.079 -3.09895 2.54492 0
M  V30 3486 H 335.669 -2.21185 3.67117 0
M  V30 3487 H 339.853 -1.87884 4.59362 0
M  V30 3488 H 335.109 -1.44886 5.93985 0
M  V30 3489 H 339.283 -1.12495 6.87254 0
M  V30 3490 H 336.91 -0.904386 7.54801 0
M  V30 3491 N 338.485 -1.33259 -0.841409 0
M  V30 3492 C 339.762 -1.15174 -1.58096 0
M  V30 3493 C 340.142 0.282858 -2.09196 0
M  V30 3494 O 339.49 1.28151 -1.89181 0
M  V30 3495 C 339.7 -2.1907 -2.71679 0
M  V30 3496 C 341.048 -2.53093 -3.40924 0
M  V30 3497 O 342.072 -2.17717 -2.81918 0
M  V30 3498 O 340.931 -3.1379 -4.47435 0
M  V30 3499 H 338.025 -0.445303 -0.696875 0
M  V30 3500 H 340.571 -1.44833 -0.884385 0
M  V30 3501 H 339.343 -3.15443 -2.31541 0
M  V30 3502 H 338.966 -1.90481 -3.49002 0
M  V30 3503 N 339.963 1.05934 -1.16686 0
M  V30 3504 C 341.212 1.78188 -0.945085 0
M  V30 3505 C 341.525 1.88338 0.528021 0
M  V30 3506 O 342.731 2.57258 0.867799 0
M  V30 3507 C 341.187 3.20277 -1.64167 0
M  V30 3508 C 340.795 3.18281 -3.15279 0
M  V30 3509 C 342.539 3.97039 -1.502 0
M  V30 3510 C 340.446 4.55112 -3.7766 0
M  V30 3511 H 339.376 0.667866 -0.349959 0
M  V30 3512 H 342.027 1.18794 -1.39858 0
M  V30 3513 H 340.409 3.79952 -1.11589 0
M  V30 3514 H 341.583 2.68167 -3.74731 0
M  V30 3515 H 339.898 2.55018 -3.29173 0
M  V30 3516 H 342.495 4.98194 -1.94183 0
M  V30 3517 H 342.838 4.13845 -0.451461 0
M  V30 3518 H 343.371 3.43894 -1.99954 0
M  V30 3519 H 340.11 4.43512 -4.82677 0
M  V30 3520 H 339.63 5.05406 -3.22994 0
M  V30 3521 H 341.309 5.24064 -3.79428 0
M  V30 3522 N 341.441 0.965919 1.2453 0
M  V30 3523 C 342.371 0.513476 2.27784 0
M  V30 3524 C 343.352 -0.445974 1.6415 0
M  V30 3525 O 344.537 -0.342485 1.91156 0
M  V30 3526 C 341.667 -0.198839 3.4673 0
M  V30 3527 C 340.621 0.676456 4.2262 0
M  V30 3528 C 339.947 -0.167248 5.34438 0
M  V30 3529 C 341.247 1.96017 4.84123 0
M  V30 3530 H 342.941 1.3765 2.65881 0
M  V30 3531 H 340.487 0.663321 1.27813 0
M  V30 3532 H 342.44 -0.526567 4.18097 0
M  V30 3533 H 341.164 -1.0962 3.07654 0
M  V30 3534 H 339.823 0.98743 3.53052 0
M  V30 3535 H 339.471 -1.0647 4.91603 0
M  V30 3536 H 339.171 0.415181 5.86131 0
M  V30 3537 H 340.695 -0.489688 6.08633 0
M  V30 3538 H 342.109 1.69814 5.47573 0
M  V30 3539 H 340.506 2.48918 5.4604 0
M  V30 3540 H 341.576 2.65622 4.05676 0
M  V30 3541 N 342.919 -1.39368 0.735821 0
M  V30 3542 C 344.335 -1.54204 0.411492 0
M  V30 3543 C 344.535 -1.70268 -1.07755 0
M  V30 3544 O 343.591 -1.70364 -1.86366 0
M  V30 3545 C 344.904 -2.75925 1.19523 0
M  V30 3546 C 346.452 -2.89761 1.18354 0
M  V30 3547 C 346.927 -4.14421 1.94986 0
M  V30 3548 N 348.418 -4.21462 1.92156 0
M  V30 3549 C 349.153 -5.16871 2.48258 0
M  V30 3550 N 348.649 -6.18063 3.13001 0
M  V30 3551 N 350.442 -5.09093 2.38287 0
M  V30 3552 H 342.593 -1.27189 1.70108 0
M  V30 3553 H 344.856 -0.616517 0.720147 0
M  V30 3554 H 344.562 -2.70401 2.24892 0
M  V30 3555 H 344.436 -3.68614 0.800222 0
M  V30 3556 H 346.823 -2.94777 0.137975 0
M  V30 3557 H 346.904 -1.98133 1.61793 0
M  V30 3558 H 346.548 -4.10166 2.99543 0
M  V30 3559 H 346.478 -5.05095 1.48953 0
M  V30 3560 H 348.969 -3.48979 1.44991 0
M  V30 3561 H 349.282 -6.87326 3.53275 0
M  V30 3562 H 347.627 -6.18448 3.17091 0
M  V30 3563 H 350.818 -4.28973 1.8735 0
M  V30 3564 H 350.991 -5.83272 2.82308 0
M  V30 3565 N 344.397 -0.483516 -1.5 0
M  V30 3566 C 345.347 0.32306 -2.257 0
M  V30 3567 C 346.331 0.950755 -1.29805 0
M  V30 3568 O 347.523 0.861247 -1.54634 0
M  V30 3569 C 344.652 1.39724 -3.13579 0
M  V30 3570 C 343.738 0.776663 -4.16928 0
M  V30 3571 N 344.129 -0.1104 -5.0568 0
M  V30 3572 C 342.427 1.03922 -4.33724 0
M  V30 3573 C 343.128 -0.46387 -5.79848 0
M  V30 3574 N 342.104 0.163987 -5.43353 0
M  V30 3575 H 345.906 -0.360086 -2.91686 0
M  V30 3576 H 343.42 -0.298456 -1.59634 0
M  V30 3577 H 345.417 1.98837 -3.66428 0
M  V30 3578 H 344.077 2.08225 -2.49143 0
M  V30 3579 H 345.088 -0.480069 -5.1567 0
M  V30 3580 H 341.765 1.71829 -3.80501 0
M  V30 3581 H 343.155 -1.18854 -6.61304 0
M  V30 3582 N 345.875 1.56104 -0.216619 0
M  V30 3583 C 346.823 2.21434 0.712036 0
M  V30 3584 C 347.817 1.19218 1.20348 0
M  V30 3585 O 349.023 1.3731 1.16387 0
M  V30 3586 H 345.398 0.70992 0.248026 0
M  V30 3587 H 347.369 2.98083 0.137558 0
M  V30 3588 C 346.118 2.90434 1.91163 0
M  V30 3589 H 345.441 3.68842 1.54258 0
M  V30 3590 H 346.881 3.39552 2.5393 0
M  V30 3591 C 345.34 1.92635 2.76394 0
M  V30 3592 O 345.87 1.44017 3.74996 0
M  V30 3593 N 344.076 1.60392 2.42328 0
M  V30 3594 H 343.623 2.00122 1.622 0
M  V30 3595 H 343.581 0.952159 2.99635 0
M  V30 3596 N 347.353 -0.0568162 1.57498 0
M  V30 3597 C 348.581 -0.765626 1.92213 0
M  V30 3598 C 348.996 -1.70353 0.813961 0
M  V30 3599 O 348.353 -1.81268 -0.211701 0
M  V30 3600 C 348.404 -1.5465 3.2675 0
M  V30 3601 O 348.125 -0.646278 4.33307 0
M  V30 3602 C 349.626 -2.35497 3.75574 0
M  V30 3603 H 346.846 -0.216835 0.634999 0
M  V30 3604 H 349.39 -0.0226146 2.04487 0
M  V30 3605 H 347.545 -2.24165 3.15957 0
M  V30 3606 H 347.959 -1.19093 5.108 0
M  V30 3607 H 349.433 -2.85722 4.72299 0
M  V30 3608 H 349.91 -3.15692 3.05344 0
M  V30 3609 H 350.516 -1.7111 3.8936 0
M  V30 3610 N 348.832 -1.54138 -0.328536 0
M  V30 3611 C 350.08 -1.71765 -1.06496 0
M  V30 3612 C 350.401 -0.49149 -1.88704 0
M  V30 3613 O 349.671 0.494539 -1.89555 0
M  V30 3614 H 348.251 -0.633295 -0.396164 0
M  V30 3615 H 350.913 -1.91429 -0.366176 0
M  V30 3616 H 350.009 -2.5951 -1.73381 0
M  V30 3617 N 350.31 0.590341 -1.46126 0
M  V30 3618 C 351.54 1.37304 -1.54373 0
M  V30 3619 C 351.948 1.88332 -0.181071 0
M  V30 3620 O 351.291 1.63852 0.830559 0
M  V30 3621 C 351.353 2.6012 -2.48149 0
M  V30 3622 C 351.017 2.30613 -3.94546 0
M  V30 3623 C 352.014 1.89915 -4.83971 0
M  V30 3624 C 349.699 2.42993 -4.39613 0
M  V30 3625 C 351.693 1.61981 -6.16475 0
M  V30 3626 C 349.38 2.14672 -5.72153 0
M  V30 3627 C 350.378 1.7423 -6.60404 0
M  V30 3628 O 350.066 1.46251 -7.90485 0
M  V30 3629 H 349.798 0.426086 -0.524811 0
M  V30 3630 H 352.352 0.72539 -1.92165 0
M  V30 3631 H 350.582 3.27664 -2.05361 0
M  V30 3632 H 352.271 3.22182 -2.46887 0
M  V30 3633 H 353.037 1.79872 -4.50412 0
M  V30 3634 H 348.916 2.73435 -3.71153 0
M  V30 3635 H 352.46 1.30341 -6.85315 0
M  V30 3636 H 348.357 2.24337 -6.05263 0
M  V30 3637 H 349.125 1.6016 -8.02677 0
M  V30 3638 N 351.788 1.33704 0.83433 0
M  V30 3639 C 353.028 1.26754 1.60352 0
M  V30 3640 C 353.392 -0.163182 1.91305 0
M  V30 3641 O 354.593 -0.3567 2.66423 0
M  V30 3642 C 352.864 2.12262 2.8754 0
M  V30 3643 S 354.423 2.22549 3.78176 0
M  V30 3644 H 351.241 0.450879 0.549753 0
M  V30 3645 H 353.843 1.68788 0.986444 0
M  V30 3646 H 352.547 3.15238 2.62779 0
M  V30 3647 H 352.078 1.71082 3.54252 0
M  V30 3648 H 354.093 1.3899 4.76336 0
M  V30 3649 N 353.266 -1.05314 1.17247 0
M  V30 3650 C 354.512 -1.78557 0.961513 0
M  V30 3651 C 354.845 -1.87419 -0.508697 0
M  V30 3652 O 354.12 -1.37307 -1.37757 0
M  V30 3653 C 354.403 -3.22514 1.60176 0
M  V30 3654 C 354.256 -3.21673 3.14399 0
M  V30 3655 C 355.575 -4.20318 1.30463 0
M  V30 3656 H 352.694 -0.6482 0.350723 0
M  V30 3657 H 355.336 -1.23102 1.44727 0
M  V30 3658 H 353.486 -3.69867 1.18871 0
M  V30 3659 H 355.158 -2.82405 3.64753 0
M  V30 3660 H 353.401 -2.60048 3.47214 0
M  V30 3661 H 354.072 -4.23271 3.54324 0
M  V30 3662 H 356.548 -3.81454 1.66229 0
M  V30 3663 H 355.424 -5.19289 1.77848 0
M  V30 3664 H 355.685 -4.41526 0.22521 0
M  V30 3665 N 354.744 -0.972509 -1.24016 0
M  V30 3666 C 355.974 -0.653853 -1.9598 0
M  V30 3667 C 356.382 0.781801 -1.72292 0
M  V30 3668 O 355.725 1.53677 -1.00644 0
M  V30 3669 C 355.787 -0.854608 -3.49194 0
M  V30 3670 C 355.451 -2.27082 -3.96589 0
M  V30 3671 C 356.448 -3.24892 -4.05883 0
M  V30 3672 C 354.133 -2.5998 -4.29786 0
M  V30 3673 C 356.127 -4.53684 -4.47716 0
M  V30 3674 C 353.814 -3.88997 -4.71301 0
M  V30 3675 C 354.812 -4.85661 -4.80232 0
M  V30 3676 O 354.5 -6.12376 -5.20818 0
M  V30 3677 H 354.232 -0.242572 -0.630979 0
M  V30 3678 H 356.786 -1.30431 -1.58673 0
M  V30 3679 H 355.016 -0.146985 -3.86421 0
M  V30 3680 H 356.705 -0.534311 -4.02368 0
M  V30 3681 H 357.471 -3.00805 -3.80449 0
M  V30 3682 H 353.35 -1.85457 -4.22051 0
M  V30 3683 H 356.894 -5.29135 -4.54601 0
M  V30 3684 H 352.791 -4.12882 -4.96184 0
M  V30 3685 H 353.559 -6.16013 -5.38953 0
M  V30 3686 N 356.222 1.38976 -0.743202 0
M  V30 3687 C 357.471 1.99581 -0.291592 0
M  V30 3688 C 357.784 1.59656 1.13001 0
M  V30 3689 O 358.99 2.13157 1.68156 0
M  V30 3690 C 357.446 3.56813 -0.470391 0
M  V30 3691 C 357.054 4.05695 -1.90041 0
M  V30 3692 C 358.798 4.24423 -0.0809709 0
M  V30 3693 C 356.705 5.5553 -2.02832 0
M  V30 3694 H 355.635 0.746615 -0.105272 0
M  V30 3695 H 358.286 1.58872 -0.918258 0
M  V30 3696 H 356.668 3.95359 0.225299 0
M  V30 3697 H 357.842 3.78464 -2.62872 0
M  V30 3698 H 356.157 3.50775 -2.24379 0
M  V30 3699 H 358.754 5.34474 -0.155445 0
M  V30 3700 H 359.097 4.04962 0.96497 0
M  V30 3701 H 359.63 3.9108 -0.728124 0
M  V30 3702 H 356.369 5.79881 -3.05643 0
M  V30 3703 H 355.889 5.84537 -1.34448 0
M  V30 3704 H 357.568 6.21069 -1.81335 0
M  V30 3705 N 357.7 0.491464 1.49741 0
M  V30 3706 C 358.63 -0.28154 2.31796 0
M  V30 3707 C 359.611 -0.971473 1.3963 0
M  V30 3708 O 360.796 -0.964719 1.68543 0
M  V30 3709 C 357.926 -1.35203 3.19902 0
M  V30 3710 C 356.88 -0.782529 4.20786 0
M  V30 3711 C 356.206 -1.95283 4.97764 0
M  V30 3712 C 357.506 0.21999 5.21837 0
M  V30 3713 H 359.2 0.403355 2.96671 0
M  V30 3714 H 356.746 0.195425 1.42668 0
M  V30 3715 H 358.699 -1.90045 3.76113 0
M  V30 3716 H 357.423 -2.06598 2.52953 0
M  V30 3717 H 356.082 -0.255928 3.65706 0
M  V30 3718 H 355.73 -2.65423 4.2727 0
M  V30 3719 H 355.43 -1.57789 5.66018 0
M  V30 3720 H 356.954 -2.50577 5.56816 0
M  V30 3721 H 358.368 -0.23996 5.72798 0
M  V30 3722 H 356.765 0.51026 5.97927 0
M  V30 3723 H 357.835 1.13911 4.7133 0
M  V30 3724 N 359.178 -1.55987 0.224894 0
M  V30 3725 C 360.426 -1.97998 -0.405099 0
M  V30 3726 C 360.747 -1.11387 -1.60056 0
M  V30 3727 O 360.017 -0.191645 -1.9496 0
M  V30 3728 H 358.597 -0.731235 -0.152658 0
M  V30 3729 H 361.259 -1.92279 0.318567 0
M  V30 3730 H 360.355 -3.03463 -0.729167 0
M  V30 3731 N 360.656 0.0484629 -1.57525 0
M  V30 3732 C 361.902 0.744226 -1.88651 0
M  V30 3733 C 362.235 1.76029 -0.820212 0
M  V30 3734 O 361.51 1.93782 0.166985 0
M  V30 3735 C 361.793 1.43128 -3.30434 0
M  V30 3736 C 361.646 0.43005 -4.47739 0
M  V30 3737 C 362.965 2.37031 -3.70816 0
M  V30 3738 H 360.084 0.269089 -0.68612 0
M  V30 3739 H 362.726 0.00713532 -1.89999 0
M  V30 3740 H 360.876 2.05956 -3.29415 0
M  V30 3741 H 362.548 -0.194816 -4.60888 0
M  V30 3742 H 360.791 -0.252522 -4.33064 0
M  V30 3743 H 361.462 0.948874 -5.43783 0
M  V30 3744 H 363.938 1.84263 -3.73077 0
M  V30 3745 H 362.814 2.82094 -4.70865 0
M  V30 3746 H 363.075 3.22864 -3.02012 0
M  V30 3747 N 362.134 1.5431 0.320358 0
M  V30 3748 C 363.067 1.78769 1.41834 0
M  V30 3749 C 364.045 0.63783 1.49568 0
M  V30 3750 O 365.229 0.875628 1.66928 0
M  V30 3751 C 362.356 1.90712 2.79905 0
M  V30 3752 C 361.402 3.13023 2.89687 0
M  V30 3753 S 362.235 4.71554 2.53766 0
M  V30 3754 C 363.391 4.86408 3.93902 0
M  V30 3755 H 363.624 2.71619 1.20874 0
M  V30 3756 H 361.157 1.45474 0.517377 0
M  V30 3757 H 363.115 1.98279 3.59438 0
M  V30 3758 H 361.776 0.988343 2.98145 0
M  V30 3759 H 360.969 3.18124 3.90913 0
M  V30 3760 H 360.571 3.03803 2.18128 0
M  V30 3761 H 362.863 4.69241 4.88691 0
M  V30 3762 H 363.806 5.88508 3.93782 0
M  V30 3763 H 364.214 4.14689 3.83005 0
M  V30 3764 N 363.613 -0.582584 1.46437 0
M  V30 3765 C 364.859 -1.34064 1.52965 0
M  V30 3766 C 365.214 -1.91566 0.178968 0
M  V30 3767 O 364.507 -1.73526 -0.812365 0
M  V30 3768 C 364.701 -2.48964 2.56421 0
M  V30 3769 C 364.53 -2.02717 4.01417 0
M  V30 3770 C 363.3 -1.87728 4.69134 0
M  V30 3771 C 365.498 -1.58675 4.8921 0
M  V30 3772 N 363.48 -1.35554 5.98747 0
M  V30 3773 C 364.851 -1.18093 6.08649 0
M  V30 3774 C 366.906 -1.46494 4.75861 0
M  V30 3775 C 365.609 -0.665427 7.16215 0
M  V30 3776 C 367.635 -0.96347 5.83499 0
M  V30 3777 C 366.997 -0.567432 7.02111 0
M  V30 3778 H 363.096 -0.483551 0.614575 0
M  V30 3779 H 365.68 -0.663309 1.83053 0
M  V30 3780 H 363.851 -3.1426 2.28244 0
M  V30 3781 H 365.583 -3.15913 2.52944 0
M  V30 3782 H 362.338 -2.09678 4.24655 0
M  V30 3783 H 362.762 -1.11628 6.67734 0
M  V30 3784 H 367.404 -1.75731 3.8455 0
M  V30 3785 H 365.122 -0.360639 8.07295 0
M  V30 3786 H 368.708 -0.873129 5.75211 0
M  V30 3787 H 367.588 -0.185389 7.83981 0
M  V30 3788 N 365.091 -1.34144 -0.827227 0
M  V30 3789 C 366.316 -1.29476 -1.62021 0
M  V30 3790 C 366.741 0.129292 -1.87655 0
M  V30 3791 O 366.099 1.08967 -1.449 0
M  V30 3792 C 366.147 -2.08702 -2.94068 0
M  V30 3793 O 365.251 -1.45359 -3.85933 0
M  V30 3794 H 364.592 -0.444881 -0.492927 0
M  V30 3795 H 367.122 -1.76882 -1.02829 0
M  V30 3796 H 367.132 -2.19898 -3.43669 0
M  V30 3797 H 365.807 -3.12241 -2.74734 0
M  V30 3798 H 364.384 -1.42879 -3.44442 0
M  V30 3799 N 366.569 1.04691 -1.17803 0
M  V30 3800 C 367.815 1.78045 -0.970969 0
M  V30 3801 C 368.148 1.87686 0.498751 0
M  V30 3802 O 367.423 1.38035 1.37027 0
M  V30 3803 C 367.706 3.2166 -1.61884 0
M  V30 3804 C 367.559 3.20001 -3.161 0
M  V30 3805 C 368.878 4.1962 -1.3269 0
M  V30 3806 H 365.997 0.64633 -0.354155 0
M  V30 3807 H 368.639 1.22333 -1.45378 0
M  V30 3808 H 366.789 3.69232 -1.20831 0
M  V30 3809 H 368.461 2.80467 -3.66246 0
M  V30 3810 H 366.704 2.58203 -3.48588 0
M  V30 3811 H 367.375 4.21386 -3.56564 0
M  V30 3812 H 369.851 3.80567 -1.68249 0
M  V30 3813 H 368.727 5.18339 -1.80599 0
M  V30 3814 H 368.988 4.414 -0.248622 0
M  V30 3815 N 368.047 0.979072 1.23499 0
M  V30 3816 C 368.977 0.537606 2.27227 0
M  V30 3817 C 369.958 -0.428539 1.64613 0
M  V30 3818 O 371.143 -0.322191 1.91509 0
M  V30 3819 C 368.273 -0.162052 3.46922 0
M  V30 3820 C 367.227 0.721242 4.21879 0
M  V30 3821 C 366.553 -0.110555 5.34586 0
M  V30 3822 C 367.853 2.01141 4.82016 0
M  V30 3823 H 369.547 1.40462 2.64406 0
M  V30 3824 H 367.093 0.67684 1.27102 0
M  V30 3825 H 369.046 -0.482192 4.18632 0
M  V30 3826 H 367.77 -1.06351 3.08799 0
M  V30 3827 H 366.429 1.02482 3.51984 0
M  V30 3828 H 366.077 -1.0125 4.92704 0
M  V30 3829 H 365.777 0.477325 5.85658 0
M  V30 3830 H 367.301 -0.425107 6.09118 0
M  V30 3831 H 368.715 1.75612 5.45741 0
M  V30 3832 H 367.112 2.54695 5.43369 0
M  V30 3833 H 368.182 2.69909 4.02836 0
M  V30 3834 N 369.525 -1.3858 0.750561 0
M  V30 3835 C 370.773 -1.99789 0.30477 0
M  V30 3836 C 371.094 -1.59874 -1.11649 0
M  V30 3837 O 370.364 -0.85417 -1.76297 0
M  V30 3838 H 368.944 -0.738902 0.109694 0
M  V30 3839 H 371.606 -1.69391 0.963983 0
M  V30 3840 H 370.702 -3.09952 0.365499 0
M  V30 3841 N 371.003 -0.499398 -1.49478 0
M  V30 3842 C 372.25 0.0456899 -2.02448 0
M  V30 3843 C 372.578 1.37142 -1.37921 0
M  V30 3844 O 371.833 1.89111 -0.503544 0
M  V30 3845 C 372.132 0.248424 -3.56536 0
M  V30 3846 C 371.798 -0.999107 -4.39692 0
M  V30 3847 C 370.46 -1.34108 -4.62135 0
M  V30 3848 C 372.812 -1.82842 -4.88076 0
M  V30 3849 C 370.14 -2.51191 -5.30208 0
M  V30 3850 C 372.492 -2.99076 -5.57437 0
M  V30 3851 C 371.156 -3.33655 -5.78127 0
M  V30 3852 H 370.426 0.0167191 -0.740811 0
M  V30 3853 H 373.073 -0.65923 -1.79795 0
M  V30 3854 H 371.378 1.03586 -3.77859 0
M  V30 3855 H 373.075 0.684605 -3.95113 0
M  V30 3856 H 369.665 -0.722729 -4.22463 0
M  V30 3857 H 373.849 -1.57737 -4.70566 0
M  V30 3858 H 369.105 -2.78221 -5.44429 0
M  V30 3859 H 373.279 -3.63664 -5.93904 0
M  V30 3860 H 370.906 -4.24483 -6.30649 0
M  V30 3861 N 372.481 1.55866 -0.233164 0
M  V30 3862 C 373.892 1.847 0.272554 0
M  V30 3863 C 374.243 1.15477 1.58617 0
M  V30 3864 O 373.368 0.42841 2.12117 0
M  V30 3865 C 373.963 3.35071 0.501299 0
M  V30 3866 C 372.522 3.6418 0.951304 0
M  V30 3867 C 371.669 2.77292 0.0208209 0
M  V30 3868 H 374.62 1.52005 -0.456074 0
M  V30 3869 H 374.641 3.55906 1.34577 0
M  V30 3870 H 374.153 3.85424 -0.454936 0
M  V30 3871 H 372.254 3.19293 1.92049 0
M  V30 3872 H 372.367 4.72071 0.817675 0
M  V30 3873 H 370.731 2.49131 0.529723 0
M  V30 3874 H 371.514 3.30448 -0.93054 0
M  V30 3875 N 373.959 -0.0401083 1.57549 0
M  V30 3876 C 374.889 -1.04384 2.08869 0
M  V30 3877 C 375.87 -1.38407 0.988817 0
M  V30 3878 O 377.055 -1.47483 1.26342 0
M  V30 3879 C 374.185 -2.34808 2.55895 0
M  V30 3880 C 373.139 -2.15057 3.70047 0
M  V30 3881 C 372.465 -3.51145 4.03239 0
M  V30 3882 C 373.765 -1.54576 4.98902 0
M  V30 3883 H 375.459 -0.616666 2.92981 0
M  V30 3884 H 373.005 -0.295184 1.40942 0
M  V30 3885 H 374.958 -3.05346 2.90417 0
M  V30 3886 H 373.682 -2.79565 1.68853 0
M  V30 3887 H 372.341 -1.46954 3.35857 0
M  V30 3888 H 371.989 -3.93529 3.13279 0
M  V30 3889 H 371.689 -3.38758 4.80122 0
M  V30 3890 H 373.213 -4.23062 4.40285 0
M  V30 3891 H 374.627 -2.15017 5.31451 0
M  V30 3892 H 373.024 -1.52796 5.80322 0
M  V30 3893 H 374.094 -0.51039 4.82206 0
M  V30 3894 N 375.437 -1.54477 -0.31217 0
M  V30 3895 C 376.848 -1.64344 -0.885891 0
M  V30 3896 C 377.199 -0.54485 -1.88483 0
M  V30 3897 O 376.324 0.320387 -2.14015 0
M  V30 3898 C 376.919 -2.97908 -1.61357 0
M  V30 3899 C 375.478 -3.09933 -2.13585 0
M  V30 3900 C 374.625 -2.59971 -0.964897 0
M  V30 3901 H 377.576 -1.58448 -0.0894528 0
M  V30 3902 H 377.597 -2.88706 -2.47848 0
M  V30 3903 H 377.109 -3.77845 -0.886277 0
M  V30 3904 H 375.21 -2.34694 -2.89395 0
M  V30 3905 H 375.323 -4.15916 -2.37804 0
M  V30 3906 H 373.687 -2.16147 -1.34731 0
M  V30 3907 H 374.47 -3.42376 -0.251742 0
M  V30 3908 N 376.915 0.57481 -1.46744 0
M  V30 3909 C 377.847 1.69804 -1.53946 0
M  V30 3910 C 378.86 1.57098 -0.427106 0
M  V30 3911 O 380.049 1.64378 -0.695863 0
M  V30 3912 C 377.149 3.08125 -1.4111 0
M  V30 3913 C 376.322 3.46757 -2.66605 0
M  V30 3914 C 375.381 4.6417 -2.47855 0
M  V30 3915 O 374.407 4.69634 -3.21609 0
M  V30 3916 N 375.609 5.59553 -1.54534 0
M  V30 3917 H 378.374 1.64077 -2.50796 0
M  V30 3918 H 375.935 0.761 -1.429 0
M  V30 3919 H 377.927 3.84478 -1.26328 0
M  V30 3920 H 376.497 3.08175 -0.524109 0
M  V30 3921 H 375.717 2.6003 -2.96274 0
M  V30 3922 H 377.005 3.69337 -3.49954 0
M  V30 3923 H 376.403 5.57881 -0.937304 0
M  V30 3924 H 374.96 6.35304 -1.45711 0
M  V30 3925 N 378.394 1.34581 0.820102 0
M  V30 3926 C 379.64 1.27285 1.57881 0
M  V30 3927 C 379.973 -0.156137 1.93571 0
M  V30 3928 O 379.248 -1.10222 1.60254 0
M  V30 3929 C 379.531 2.16639 2.87645 0
M  V30 3930 C 379.384 3.68088 2.58517 0
M  V30 3931 C 380.703 2.05378 3.8924 0
M  V30 3932 H 377.822 0.463714 0.572833 0
M  V30 3933 H 380.464 1.64859 0.944539 0
M  V30 3934 H 378.614 1.84725 3.41773 0
M  V30 3935 H 380.286 4.10382 2.10676 0
M  V30 3936 H 378.529 3.89038 1.91917 0
M  V30 3937 H 379.2 4.2598 3.51063 0
M  V30 3938 H 381.676 2.33404 3.44473 0
M  V30 3939 H 380.552 2.7012 4.77835 0
M  V30 3940 H 380.813 1.0316 4.29896 0
M  V30 3941 N 379.872 -1.04064 1.18357 0
M  V30 3942 C 381.119 -1.77265 0.978947 0
M  V30 3943 C 381.447 -1.88189 -0.491428 0
M  V30 3944 O 380.702 -1.38653 -1.38108 0
M  V30 3945 C 381.001 -3.20634 1.57888 0
M  V30 3946 C 380.667 -3.29743 3.07539 0
M  V30 3947 C 379.329 -3.31937 3.48384 0
M  V30 3948 C 381.681 -3.29841 4.03552 0
M  V30 3949 C 379.009 -3.3187 4.83818 0
M  V30 3950 C 381.361 -3.31313 5.38901 0
M  V30 3951 C 380.025 -3.31799 5.79194 0
M  V30 3952 H 379.295 -0.648659 0.358222 0
M  V30 3953 H 381.942 -1.22225 1.47422 0
M  V30 3954 H 380.247 -3.78675 1.00561 0
M  V30 3955 H 381.944 -3.75917 1.39598 0
M  V30 3956 H 378.534 -3.28757 2.74986 0
M  V30 3957 H 382.718 -3.27337 3.73047 0
M  V30 3958 H 377.974 -3.30562 5.14333 0
M  V30 3959 H 382.148 -3.30338 6.13066 0
M  V30 3960 H 379.775 -3.315 6.84114 0
M  V30 3961 N 381.35 -0.985608 -1.22978 0
M  V30 3962 C 382.28 -0.549649 -2.26939 0
M  V30 3963 C 383.261 0.419803 -1.64838 0
M  V30 3964 O 384.446 0.31203 -1.91677 0
M  V30 3965 C 381.576 0.143652 -3.47003 0
M  V30 3966 C 380.53 -0.743606 -4.21491 0
M  V30 3967 C 379.856 0.0822027 -5.34637 0
M  V30 3968 C 381.156 -2.03694 -4.80943 0
M  V30 3969 H 382.85 -1.41862 -2.63658 0
M  V30 3970 H 380.396 -0.683571 -1.26741 0
M  V30 3971 H 382.349 0.459985 -4.18882 0
M  V30 3972 H 381.073 1.04711 -3.09359 0
M  V30 3973 H 379.732 -1.04347 -3.51436 0
M  V30 3974 H 379.38 0.986359 -4.93234 0
M  V30 3975 H 379.08 -0.508377 -5.85397 0
M  V30 3976 H 380.604 0.392797 -6.09335 0
M  V30 3977 H 382.018 -1.78504 -5.44802 0
M  V30 3978 H 380.415 -2.57573 -5.42011 0
M  V30 3979 H 381.485 -2.72042 -4.01399 0
M  V30 3980 N 382.828 1.3818 -0.7579 0
M  V30 3981 C 384.074 2.00316 -0.316453 0
M  V30 3982 C 384.407 1.60026 1.10025 0
M  V30 3983 O 383.682 0.839835 1.75434 0
M  V30 3984 C 383.965 3.57349 -0.444245 0
M  V30 3985 C 383.818 4.07591 -1.90236 0
M  V30 3986 C 385.137 4.3981 0.1598 0
M  V30 3987 H 382.256 0.727741 -0.116459 0
M  V30 3988 H 384.898 1.6406 -0.958352 0
M  V30 3989 H 383.048 3.88365 0.102233 0
M  V30 3990 H 384.72 3.87199 -2.50748 0
M  V30 3991 H 382.963 3.60297 -2.41595 0
M  V30 3992 H 383.634 5.16677 -1.94291 0
M  V30 3993 H 386.11 4.14971 -0.306314 0
M  V30 3994 H 384.986 5.48885 0.0401675 0
M  V30 3995 H 385.247 4.24102 1.24859 0
M  V30 3996 N 384.306 0.507319 1.49211 0
M  V30 3997 C 385.717 0.0611118 1.866 0
M  V30 3998 C 386.068 -1.35488 1.41907 0
M  V30 3999 O 385.193 -2.0108 0.799726 0
M  V30 4000 C 385.788 0.104125 3.3864 0
M  V30 4001 C 384.347 -0.28677 3.75306 0
M  V30 4002 C 383.494 0.473893 2.73221 0
M  V30 4003 H 386.445 0.719775 1.41439 0
M  V30 4004 H 386.466 -0.689672 3.74198 0
M  V30 4005 H 385.978 1.13482 3.71138 0
M  V30 4006 H 384.079 -1.32046 3.48417 0
M  V30 4007 H 384.192 0.0370745 4.79086 0
M  V30 4008 H 382.556 -0.0770644 2.54583 0
M  V30 4009 H 383.339 1.50478 3.08563 0
M  V30 4010 N 385.784 -1.5574 0.241426 0
M  V30 4011 C 387.014 -2.02913 -0.38857 0
M  V30 4012 C 387.422 -1.12014 -1.52478 0
M  V30 4013 O 386.765 -0.125903 -1.83268 0
M  V30 4014 C 386.827 -3.4636 -0.963075 0
M  V30 4015 C 386.491 -4.56982 0.0401916 0
M  V30 4016 C 387.488 -5.12941 0.847766 0
M  V30 4017 C 385.173 -5.0203 0.164699 0
M  V30 4018 C 387.167 -6.12437 1.76636 0
M  V30 4019 C 384.854 -6.01358 1.0868 0
M  V30 4020 C 385.852 -6.5644 1.88616 0
M  V30 4021 O 385.54 -7.53831 2.79273 0
M  V30 4022 H 385.272 -0.668983 -0.0971452 0
M  V30 4023 H 387.826 -2.02198 0.361248 0
M  V30 4024 H 386.056 -3.44206 -1.76235 0
M  V30 4025 H 387.745 -3.77065 -1.50257 0
M  V30 4026 H 388.511 -4.78974 0.762133 0
M  V30 4027 H 384.39 -4.58824 -0.447411 0
M  V30 4028 H 387.934 -6.55355 2.39071 0
M  V30 4029 H 383.831 -6.34746 1.17338 0
M  V30 4030 H 384.599 -7.71428 2.73572 0
M  V30 4031 N 387.262 0.0317525 -1.57568 0
M  V30 4032 C 388.225 1.01783 -2.0536 0
M  V30 4033 C 389.225 1.29203 -0.957253 0
M  V30 4034 O 390.415 1.24251 -1.22095 0
M  V30 4035 C 387.547 2.35137 -2.46827 0
M  V30 4036 H 388.74 0.605062 -2.93733 0
M  V30 4037 H 386.293 0.278514 -1.53799 0
M  V30 4038 H 387.028 2.81168 -1.61602 0
M  V30 4039 H 386.813 2.16566 -3.26866 0
M  V30 4040 H 388.303 3.05938 -2.84239 0
M  V30 4041 N 388.74 1.54641 0.303973 0
M  V30 4042 C 389.673 1.80263 1.3993 0
M  V30 4043 C 390.651 0.653657 1.48883 0
M  V30 4044 O 391.835 0.893284 1.6599 0
M  V30 4045 C 388.962 1.9367 2.77866 0
M  V30 4046 C 388.008 3.16078 2.86351 0
M  V30 4047 S 388.841 4.74219 2.4875 0
M  V30 4048 C 389.997 4.90558 3.88721 0
M  V30 4049 H 390.23 2.72886 1.17986 0
M  V30 4050 H 387.763 1.46014 0.501918 0
M  V30 4051 H 389.721 2.0208 3.57315 0
M  V30 4052 H 388.382 1.01991 2.9708 0
M  V30 4053 H 387.575 3.22252 3.87517 0
M  V30 4054 H 387.177 3.06099 2.14893 0
M  V30 4055 H 389.469 4.74398 4.83687 0
M  V30 4056 H 390.412 5.92651 3.87518 0
M  V30 4057 H 390.82 4.18728 3.78585 0
M  V30 4058 N 390.218 -0.567019 1.47046 0
M  V30 4059 C 391.464 -1.32434 1.54379 0
M  V30 4060 C 391.819 -1.91365 0.199276 0
M  V30 4061 O 391.112 -1.74378 -0.793915 0
M  V30 4062 C 391.306 -2.4623 2.59047 0
M  V30 4063 C 391.135 -1.98448 4.03545 0
M  V30 4064 C 389.905 -1.82741 4.71098 0
M  V30 4065 C 392.103 -1.53477 4.90866 0
M  V30 4066 N 390.085 -1.29196 6.00151 0
M  V30 4067 C 391.456 -1.1163 6.09868 0
M  V30 4068 C 393.511 -1.41438 4.77388 0
M  V30 4069 C 392.214 -0.589425 7.16881 0
M  V30 4070 C 394.24 -0.901528 5.84488 0
M  V30 4071 C 393.602 -0.492932 7.02673 0
M  V30 4072 H 389.701 -0.477005 0.61967 0
M  V30 4073 H 392.285 -0.643856 1.83746 0
M  V30 4074 H 390.456 -3.11821 2.31564 0
M  V30 4075 H 392.188 -3.13213 2.56281 0
M  V30 4076 H 388.943 -2.05162 4.26855 0
M  V30 4077 H 389.367 -1.0454 6.6888 0
M  V30 4078 H 394.009 -1.71643 3.86392 0
M  V30 4079 H 391.727 -0.274994 8.07632 0
M  V30 4080 H 395.313 -0.812071 5.76105 0
M  V30 4081 H 394.193 -0.102227 7.84133 0
M  V30 4082 N 391.696 -1.35014 -0.812953 0
M  V30 4083 C 392.646 -1.23959 -1.91359 0
M  V30 4084 C 393.63 -0.136306 -1.60322 0
M  V30 4085 O 394.822 -0.366925 -1.73155 0
M  V30 4086 C 391.951 -1.00736 -3.28188 0
M  V30 4087 C 391.037 -2.15426 -3.65311 0
M  V30 4088 N 391.428 -3.40612 -3.73921 0
M  V30 4089 C 389.726 -2.06672 -3.95225 0
M  V30 4090 C 390.427 -4.15994 -4.06601 0
M  V30 4091 N 389.403 -3.44685 -4.20349 0
M  V30 4092 H 393.205 -2.18815 -1.96208 0
M  V30 4093 H 390.719 -1.27395 -1.00718 0
M  V30 4094 H 392.716 -0.909052 -4.06868 0
M  V30 4095 H 391.376 -0.067586 -3.2463 0
M  V30 4096 H 392.387 -3.75043 -3.5716 0
M  V30 4097 H 389.064 -1.20511 -3.99729 0
M  V30 4098 H 390.454 -5.24145 -4.20382 0
M  V30 4099 N 393.175 1.03435 -1.18907 0
M  V30 4100 C 394.4 1.80919 -1.01406 0
M  V30 4101 C 394.825 1.83055 0.432721 0
M  V30 4102 O 394.183 1.25252 1.31079 0
M  V30 4103 C 394.231 3.24091 -1.58105 0
M  V30 4104 O 393.335 4.04434 -0.806669 0
M  V30 4105 H 392.676 0.558709 -0.358803 0
M  V30 4106 H 395.206 1.30223 -1.57807 0
M  V30 4107 H 395.216 3.74853 -1.61087 0
M  V30 4108 H 393.891 3.21851 -2.6341 0
M  V30 4109 H 392.468 3.63091 -0.849666 0
M  V30 4110 N 394.653 0.992116 1.22453 0
M  V30 4111 C 395.899 0.668523 1.91464 0
M  V30 4112 C 396.232 -0.797313 1.77078 0
M  V30 4113 O 395.507 -1.5765 1.13916 0
M  V30 4114 C 395.79 1.07424 3.43703 0
M  V30 4115 C 395.643 2.59857 3.67143 0
M  V30 4116 C 396.962 0.626891 4.35612 0
M  V30 4117 H 394.081 0.244341 0.695318 0
M  V30 4118 H 396.723 1.2355 1.44345 0
M  V30 4119 H 394.873 0.591816 3.83966 0
M  V30 4120 H 396.545 3.15764 3.3629 0
M  V30 4121 H 394.788 3.01961 3.11451 0
M  V30 4122 H 395.459 2.83296 4.73759 0
M  V30 4123 H 397.935 1.04125 4.02861 0
M  V30 4124 H 396.811 0.939076 5.40807 0
M  V30 4125 H 397.072 -0.472457 4.39568 0
M  V30 4126 N 396.131 -1.37776 0.765217 0
M  V30 4127 C 397.408 -1.93975 0.251596 0
M  V30 4128 C 397.788 -1.69949 -1.25222 0
M  V30 4129 O 397.136 -1.04457 -2.03226 0
M  V30 4130 C 397.346 -3.43487 0.617895 0
M  V30 4131 C 398.694 -4.20564 0.584029 0
M  V30 4132 O 399.718 -3.5182 0.556888 0
M  V30 4133 O 398.577 -5.43138 0.605291 0
M  V30 4134 H 395.671 -0.82509 0.0561806 0
M  V30 4135 H 398.217 -1.47101 0.846128 0
M  V30 4136 H 396.989 -3.5453 1.65602 0
M  V30 4137 H 396.612 -3.976 -0.00403411 0
M  V30 4138 N 397.609 -0.515225 -1.4894 0
M  V30 4139 C 398.519 0.259774 -2.33157 0
M  V30 4140 C 399.535 0.953501 -1.45548 0
M  V30 4141 O 400.711 0.931735 -1.78552 0
M  V30 4142 C 397.776 1.30193 -3.21326 0
M  V30 4143 C 396.837 0.620129 -4.24797 0
M  V30 4144 C 396.07 1.61263 -5.08753 0
M  V30 4145 O 396.293 2.84389 -4.94448 0
M  V30 4146 O 395.227 1.16013 -5.90614 0
M  V30 4147 H 399.053 -0.429932 -3.00641 0
M  V30 4148 H 396.638 -0.276346 -1.46822 0
M  V30 4149 H 398.52 1.90455 -3.75905 0
M  V30 4150 H 397.195 1.97431 -2.56521 0
M  V30 4151 H 396.102 -0.0226019 -3.74093 0
M  V30 4152 H 397.435 -0.0100493 -4.92199 0
M  V30 4153 N 399.087 1.5561 -0.249682 0
M  V30 4154 C 400.019 2.18834 0.681496 0
M  V30 4155 C 401.032 1.16546 1.1367 0
M  V30 4156 O 402.221 1.43397 1.06299 0
M  V30 4157 C 399.321 2.77992 1.9384 0
M  V30 4158 C 398.494 4.05725 1.63419 0
M  V30 4159 C 397.553 4.49174 2.74096 0
M  V30 4160 O 396.579 5.15492 2.41364 0
M  V30 4161 N 397.781 4.17191 4.03649 0
M  V30 4162 H 400.546 2.9937 0.140514 0
M  V30 4163 H 398.107 1.6175 -0.0697541 0
M  V30 4164 H 400.099 3.04015 2.67127 0
M  V30 4165 H 398.669 2.01596 2.38909 0
M  V30 4166 H 397.889 3.87261 0.736358 0
M  V30 4167 H 399.177 4.88999 1.40562 0
M  V30 4168 H 398.575 3.63955 4.33074 0
M  V30 4169 H 397.132 4.48043 4.73393 0
M  V30 4170 N 400.565 -0.0233959 1.57583 0
M  V30 4171 C 401.497 -1.04994 2.03737 0
M  V30 4172 C 402.51 -1.32125 0.951152 0
M  V30 4173 O 403.699 -1.29512 1.22837 0
M  V30 4174 C 400.799 -2.39026 2.40249 0
M  V30 4175 C 399.972 -2.31171 3.7132 0
M  V30 4176 C 399.031 -3.47698 3.94959 0
M  V30 4177 O 398.057 -3.26937 4.65941 0
M  V30 4178 N 399.259 -4.6976 3.41037 0
M  V30 4179 H 402.024 -0.656507 2.92421 0
M  V30 4180 H 399.585 -0.211235 1.60516 0
M  V30 4181 H 401.577 -3.15712 2.53196 0
M  V30 4182 H 400.147 -2.70194 1.57207 0
M  V30 4183 H 399.367 -1.39547 3.68674 0
M  V30 4184 H 400.655 -2.23071 4.57293 0
M  V30 4185 H 400.053 -4.89528 2.83512 0
M  V30 4186 H 398.61 -5.43791 3.59353 0
M  V30 4187 N 402.043 -1.548 -0.295768 0
M  V30 4188 C 403.006 -1.85363 -1.34808 0
M  V30 4189 C 404.006 -0.726817 -1.43436 0
M  V30 4190 O 405.196 -0.995088 -1.42981 0
M  V30 4191 C 402.328 -2.03859 -2.73229 0
M  V30 4192 H 403.521 -2.7941 -1.08949 0
M  V30 4193 H 401.074 -1.46942 -0.532702 0
M  V30 4194 H 401.809 -1.12117 -3.04303 0
M  V30 4195 H 401.594 -2.8588 -2.68356 0
M  V30 4196 H 403.084 -2.28857 -3.49305 0
M  V30 4197 N 403.521 0.559213 -1.47345 0
M  V30 4198 C 404.484 1.64854 -1.59235 0
M  V30 4199 C 405.484 1.53851 -0.467607 0
M  V30 4200 O 406.674 1.58045 -0.732617 0
M  V30 4201 C 403.806 3.04388 -1.53496 0
M  V30 4202 H 404.999 1.55662 -2.56339 0
M  V30 4203 H 402.552 0.778973 -1.35505 0
M  V30 4204 H 403.287 3.19115 -0.577604 0
M  V30 4205 H 403.072 3.13783 -2.35123 0
M  V30 4206 H 404.562 3.83642 -1.6495 0
M  V30 4207 N 404.999 1.35443 0.805782 0
M  V30 4208 C 405.929 1.31095 1.93226 0
M  V30 4209 C 406.91 0.185244 1.69088 0
M  V30 4210 O 408.095 0.380332 1.90439 0
M  V30 4211 C 405.225 1.08299 3.29983 0
M  V30 4212 C 404.179 2.17519 3.68605 0
M  V30 4213 C 403.505 1.79887 5.03532 0
M  V30 4214 C 404.805 3.5949 3.78898 0
M  V30 4215 H 406.499 2.25352 1.97122 0
M  V30 4216 H 404.045 1.0848 0.946996 0
M  V30 4217 H 405.998 1.03897 4.08391 0
M  V30 4218 H 404.722 0.104885 3.26432 0
M  V30 4219 H 403.381 2.2102 2.92482 0
M  V30 4220 H 403.029 0.80693 4.96485 0
M  V30 4221 H 402.729 2.53001 5.30344 0
M  V30 4222 H 404.253 1.77011 5.84379 0
M  V30 4223 H 405.667 3.58307 4.47536 0
M  V30 4224 H 404.064 4.31371 4.1718 0
M  V30 4225 H 405.134 3.95584 2.80431 0
M  V30 4226 N 406.477 -1.02803 1.19454 0
M  V30 4227 C 407.407 -2.12999 0.956758 0
M  V30 4228 C 408.388 -1.69743 -0.110188 0
M  V30 4229 O 409.573 -1.94148 0.0450038 0
M  V30 4230 C 406.703 -3.43746 0.495553 0
M  V30 4231 C 405.657 -4.00688 1.50443 0
M  V30 4232 C 404.983 -5.27067 0.900275 0
M  V30 4233 C 406.283 -4.35397 2.8849 0
M  V30 4234 H 407.977 -2.33148 1.87836 0
M  V30 4235 H 405.523 -1.12045 0.904539 0
M  V30 4236 H 407.476 -4.2021 0.316493 0
M  V30 4237 H 406.2 -3.23321 -0.461646 0
M  V30 4238 H 404.859 -3.2632 1.67065 0
M  V30 4239 H 404.507 -5.02959 -0.064503 0
M  V30 4240 H 404.207 -5.66127 1.57397 0
M  V30 4241 H 405.731 -6.06196 0.73203 0
M  V30 4242 H 407.145 -5.02795 2.75446 0
M  V30 4243 H 405.542 -4.85541 3.52661 0
M  V30 4244 H 406.612 -3.44662 3.41081 0
M  V30 4245 N 407.956 -0.998596 -1.21925 0
M  V30 4246 C 409.205 -0.673085 -1.90138 0
M  V30 4247 C 409.518 0.79895 -1.78539 0
M  V30 4248 O 410.724 1.23628 -2.4172 0
M  V30 4249 C 409.18 -1.15339 -3.40918 0
M  V30 4250 C 408.788 -2.65106 -3.61141 0
M  V30 4251 C 410.532 -0.902476 -4.14796 0
M  V30 4252 C 408.439 -3.0671 -5.05651 0
M  V30 4253 H 407.369 -0.248057 -0.712028 0
M  V30 4254 H 410.02 -1.20891 -1.38049 0
M  V30 4255 H 408.402 -0.545658 -3.92223 0
M  V30 4256 H 409.576 -3.31274 -3.20304 0
M  V30 4257 H 407.891 -2.88142 -3.00605 0
M  V30 4258 H 410.488 -1.18895 -5.21314 0
M  V30 4259 H 410.831 0.161349 -4.15987 0
M  V30 4260 H 411.364 -1.47269 -3.69536 0
M  V30 4261 H 408.103 -4.12292 -5.09603 0
M  V30 4262 H 407.623 -2.45249 -5.47369 0
M  V30 4263 H 409.302 -2.9833 -5.74115 0
M  V30 4264 N 409.434 1.37368 -0.772513 0
M  V30 4265 C 410.659 2.0447 -0.347386 0
M  V30 4266 C 411.084 1.57882 1.0225 0
M  V30 4267 O 410.442 0.73941 1.65537 0
M  V30 4268 C 410.49 3.58369 -0.400479 0
M  V30 4269 O 409.594 4.0803 0.598789 0
M  V30 4270 H 408.935 0.646773 -0.15027 0
M  V30 4271 H 411.465 1.75667 -1.04892 0
M  V30 4272 H 411.475 4.07183 -0.258045 0
M  V30 4273 H 410.15 3.91633 -1.39986 0
M  V30 4274 H 408.727 3.70534 0.419411 0
M  V30 4275 N 410.912 0.523116 1.48665 0
M  V30 4276 C 412.161 -0.01544 2.01694 0
M  V30 4277 C 412.474 -1.35975 1.40606 0
M  V30 4278 O 413.68 -1.98627 1.85093 0
M  V30 4279 C 412.136 -0.0779303 3.59816 0
M  V30 4280 C 411.744 1.26107 4.29885 0
M  V30 4281 C 413.488 -0.565678 4.20714 0
M  V30 4282 C 411.395 1.15954 5.79921 0
M  V30 4283 H 410.325 -0.00954163 0.75394 0
M  V30 4284 H 412.976 0.665865 1.70993 0
M  V30 4285 H 411.358 -0.824165 3.87329 0
M  V30 4286 H 412.532 2.02233 4.14051 0
M  V30 4287 H 410.847 1.68401 3.80828 0
M  V30 4288 H 413.444 -0.6595 5.30617 0
M  V30 4289 H 413.787 -1.56984 3.85567 0
M  V30 4290 H 414.32 0.12467 3.97605 0
M  V30 4291 H 411.059 2.13864 6.19631 0
M  V30 4292 H 410.579 0.439529 5.98187 0
M  V30 4293 H 412.258 0.847361 6.41427 0
M  V30 4294 N 412.39 -1.55475 0.257931 0
M  V30 4295 C 413.639 -1.98383 -0.364275 0
M  V30 4296 C 413.952 -1.14952 -1.58258 0
M  V30 4297 O 415.158 -1.47924 -2.27664 0
M  V30 4298 C 413.614 -3.53037 -0.699479 0
M  V30 4299 C 413.222 -4.45223 0.498046 0
M  V30 4300 C 414.966 -4.04575 -1.28526 0
M  V30 4301 C 412.873 -5.91238 0.138383 0
M  V30 4302 H 411.803 -0.740911 -0.13988 0
M  V30 4303 H 414.454 -1.79936 0.359883 0
M  V30 4304 H 412.836 -3.6722 -1.48207 0
M  V30 4305 H 414.01 -4.42803 1.27522 0
M  V30 4306 H 412.325 -4.04226 0.999503 0
M  V30 4307 H 414.922 -5.11196 -1.56788 0
M  V30 4308 H 415.265 -3.5258 -2.21344 0
M  V30 4309 H 415.798 -3.93762 -0.565337 0
M  V30 4310 H 412.537 -6.47294 1.03398 0
M  V30 4311 H 412.057 -5.96768 -0.602374 0
M  V30 4312 H 413.736 -6.46413 -0.27553 0
M  V30 4313 N 413.868 0.0150385 -1.57593 0
M  V30 4314 C 415.116 0.701613 -1.8953 0
M  V30 4315 C 415.437 1.75139 -0.857396 0
M  V30 4316 O 414.707 1.95607 0.107194 0
M  V30 4317 H 413.287 0.26213 -0.699498 0
M  V30 4318 H 415.949 -0.0223304 -1.94887 0
M  V30 4319 H 415.045 1.18236 -2.88837 0
M  V30 4320 N 415.346 1.54954 0.287554 0
M  V30 4321 C 416.593 1.74873 1.02106 0
M  V30 4322 C 416.921 0.541829 1.86801 0
M  V30 4323 O 416.176 -0.475992 1.89823 0
M  V30 4324 C 416.475 2.99833 1.94512 0
M  V30 4325 C 416.141 4.33029 1.25686 0
M  V30 4326 C 414.803 4.69233 1.06649 0
M  V30 4327 C 417.155 5.15542 0.765913 0
M  V30 4328 C 414.483 5.85518 0.372222 0
M  V30 4329 C 416.835 6.32542 0.0853101 0
M  V30 4330 C 415.499 6.67398 -0.1169 0
M  V30 4331 H 414.769 0.639906 0.373632 0
M  V30 4332 H 417.416 1.89219 0.294665 0
M  V30 4333 H 415.721 2.80325 2.73725 0
M  V30 4334 H 417.418 3.1244 2.51361 0
M  V30 4335 H 414.008 4.04564 1.41512 0
M  V30 4336 H 418.192 4.88059 0.90066 0
M  V30 4337 H 413.448 6.11057 0.204695 0
M  V30 4338 H 417.622 6.95741 -0.302936 0
M  V30 4339 H 415.249 7.57357 -0.656859 0
M  V30 4340 N 416.824 -0.551391 1.4764 0
M  V30 4341 C 418.049 -1.33837 1.58437 0
M  V30 4342 C 418.474 -1.866 0.237063 0
M  V30 4343 O 417.832 -1.6328 -0.787994 0
M  V30 4344 C 417.88 -2.48014 2.61766 0
M  V30 4345 O 416.984 -3.50419 2.1744 0
M  V30 4346 H 416.325 -0.397299 0.532024 0
M  V30 4347 H 418.855 -0.665759 1.93465 0
M  V30 4348 H 418.865 -2.94503 2.82369 0
M  V30 4349 H 417.54 -2.08969 3.5959 0
M  V30 4350 H 416.117 -3.10196 2.06961 0
M  V30 4351 N 418.302 -1.35869 -0.798587 0
M  V30 4352 C 419.25 -1.29491 -1.93222 0
M  V30 4353 C 420.244 -0.18836 -1.6835 0
M  V30 4354 O 421.45 -0.354822 -1.76468 0
M  V30 4355 H 417.825 -0.402901 -0.63496 0
M  V30 4356 H 419.796 -2.25247 -1.9572 0
M  V30 4357 C 418.545 -1.09184 -3.30112 0
M  V30 4358 H 417.868 -1.93574 -3.49813 0
M  V30 4359 H 419.308 -1.08766 -4.09812 0
M  V30 4360 C 417.767 0.203959 -3.36282 0
M  V30 4361 O 418.297 1.19699 -3.83451 0
M  V30 4362 N 416.503 0.245488 -2.89561 0
M  V30 4363 H 416.05 -0.563223 -2.51367 0
M  V30 4364 H 416.008 1.11219 -2.94071 0
M  V30 4365 N 419.78 1.02168 -1.19998 0
M  V30 4366 C 421.029 1.75091 -1.0013 0
M  V30 4367 C 421.342 1.89923 0.467835 0
M  V30 4368 O 422.548 2.59888 0.785515 0
M  V30 4369 C 421.004 3.14892 -1.74273 0
M  V30 4370 C 420.612 3.0809 -3.25245 0
M  V30 4371 C 422.356 3.9206 -1.62755 0
M  V30 4372 C 420.263 4.42867 -3.91948 0
M  V30 4373 H 419.193 0.656394 -0.37103 0
M  V30 4374 H 421.844 1.14284 -1.43567 0
M  V30 4375 H 420.226 3.7621 -1.2362 0
M  V30 4376 H 421.4 2.5611 -3.83072 0
M  V30 4377 H 419.715 2.44416 -3.3712 0
M  V30 4378 H 422.312 4.91764 -2.09934 0
M  V30 4379 H 422.655 4.12199 -0.582894 0
M  V30 4380 H 423.188 3.37359 -2.10793 0
M  V30 4381 H 419.927 4.27931 -4.96543 0
M  V30 4382 H 419.447 4.94874 -3.3891 0
M  V30 4383 H 421.126 5.11728 -3.95909 0
M  V30 4384 N 421.258 1.00505 1.21394 0
M  V30 4385 C 422.505 0.687774 1.90462 0
M  V30 4386 C 422.833 -0.78147 1.7811 0
M  V30 4387 O 422.088 -1.58208 1.1519 0
M  V30 4388 C 422.387 1.0546 3.41486 0
M  V30 4389 C 422.053 2.51812 3.74034 0
M  V30 4390 C 420.715 2.91804 3.82628 0
M  V30 4391 C 423.067 3.46614 3.8924 0
M  V30 4392 C 420.395 4.2556 4.03876 0
M  V30 4393 C 422.747 4.80044 4.11995 0
M  V30 4394 C 421.411 5.19759 4.18816 0
M  V30 4395 H 420.681 0.251674 0.696951 0
M  V30 4396 H 423.328 1.26349 1.43903 0
M  V30 4397 H 421.633 0.397133 3.89782 0
M  V30 4398 H 423.33 0.786976 3.93202 0
M  V30 4399 H 419.92 2.1982 3.67936 0
M  V30 4400 H 424.104 3.16883 3.81967 0
M  V30 4401 H 419.36 4.55901 4.07387 0
M  V30 4402 H 423.534 5.53439 4.22704 0
M  V30 4403 H 421.161 6.23418 4.35033 0
M  V30 4404 N 422.737 -1.36956 0.779787 0
M  V30 4405 C 423.667 -2.32761 0.185651 0
M  V30 4406 C 424.648 -1.56177 -0.673989 0
M  V30 4407 O 425.833 -1.84378 -0.609797 0
M  V30 4408 C 422.963 -3.40418 -0.687964 0
M  V30 4409 C 421.917 -4.27941 0.0710102 0
M  V30 4410 C 421.243 -5.26681 -0.922573 0
M  V30 4411 C 422.543 -5.07006 1.25467 0
M  V30 4412 H 424.237 -2.82698 0.986008 0
M  V30 4413 H 421.783 -1.3592 0.475592 0
M  V30 4414 H 423.736 -4.06423 -1.11348 0
M  V30 4415 H 422.46 -2.89025 -1.52093 0
M  V30 4416 H 421.119 -3.63478 0.47739 0
M  V30 4417 H 420.767 -4.71565 -1.7503 0
M  V30 4418 H 420.467 -5.86103 -0.419237 0
M  V30 4419 H 421.991 -5.9556 -1.34686 0
M  V30 4420 H 423.405 -5.66105 0.905401 0
M  V30 4421 H 421.802 -5.75793 1.69063 0
M  V30 4422 H 422.872 -4.3921 2.05481 0
M  V30 4423 N 424.215 -0.530993 -1.48385 0
M  V30 4424 C 425.631 -0.188919 -1.58478 0
M  V30 4425 C 425.831 1.30786 -1.53288 0
M  V30 4426 O 424.887 2.08619 -1.42248 0
M  V30 4427 C 426.2 -0.792343 -2.90073 0
M  V30 4428 C 427.748 -0.76117 -3.03604 0
M  V30 4429 C 428.223 -1.34319 -4.37861 0
M  V30 4430 N 429.714 -1.3052 -4.44431 0
M  V30 4431 C 430.449 -1.72543 -5.46824 0
M  V30 4432 N 429.945 -2.22299 -6.56167 0
M  V30 4433 N 431.738 -1.63773 -5.37712 0
M  V30 4434 H 423.889 -1.50377 -1.50002 0
M  V30 4435 H 426.152 -0.625559 -0.712306 0
M  V30 4436 H 425.858 -1.84323 -2.99529 0
M  V30 4437 H 425.732 -0.270026 -3.76232 0
M  V30 4438 H 428.119 0.280957 -2.93759 0
M  V30 4439 H 428.2 -1.32097 -2.19053 0
M  V30 4440 H 427.844 -2.38425 -4.4846 0
M  V30 4441 H 427.774 -0.759064 -5.21101 0
M  V30 4442 H 430.265 -0.940973 -3.65997 0
M  V30 4443 H 430.578 -2.52356 -7.30436 0
M  V30 4444 H 428.923 -2.26293 -6.57127 0
M  V30 4445 H 432.114 -1.24698 -4.51185 0
M  V30 4446 H 432.287 -1.96844 -6.17379 0
M  V30 4447 N 425.693 1.55336 -0.266172 0
M  V30 4448 C 427.104 1.85236 0.233315 0
M  V30 4449 C 427.455 1.18816 1.56132 0
M  V30 4450 O 426.58 0.473307 2.11161 0
M  V30 4451 C 427.175 3.36059 0.430113 0
M  V30 4452 C 425.734 3.66116 0.873842 0
M  V30 4453 C 424.881 2.77274 -0.0380016 0
M  V30 4454 H 427.832 1.51004 -0.488214 0
M  V30 4455 H 427.853 3.58681 1.26998 0
M  V30 4456 H 427.365 3.84373 -0.536588 0
M  V30 4457 H 425.466 3.23295 1.85233 0
M  V30 4458 H 425.579 4.73699 0.717358 0
M  V30 4459 H 423.943 2.50198 0.476759 0
M  V30 4460 H 424.726 3.284 -1.00042 0
M  V30 4461 N 427.171 -0.0066808 1.57599 0
M  V30 4462 C 428.101 -0.999296 2.11036 0
M  V30 4463 C 429.082 -1.36278 1.01795 0
M  V30 4464 O 430.267 -1.4477 1.29442 0
M  V30 4465 C 427.397 -2.29328 2.60818 0
M  V30 4466 C 426.351 -2.07159 3.74525 0
M  V30 4467 C 425.677 -3.42512 4.10596 0
M  V30 4468 C 426.977 -1.43959 5.02069 0
M  V30 4469 H 428.671 -0.554382 2.94223 0
M  V30 4470 H 426.217 -0.265221 1.41536 0
M  V30 4471 H 428.17 -2.99117 2.96828 0
M  V30 4472 H 426.894 -2.7592 1.74745 0
M  V30 4473 H 425.553 -1.39797 3.38899 0
M  V30 4474 H 425.201 -3.86795 3.21556 0
M  V30 4475 H 424.901 -3.28498 4.87199 0
M  V30 4476 H 426.425 -4.13628 4.4916 0
M  V30 4477 H 427.839 -2.03696 5.35893 0
M  V30 4478 H 426.236 -1.40452 5.83432 0
M  V30 4479 H 427.306 -0.407992 4.83181 0
M  V30 4480 N 428.649 -1.55105 -0.279332 0
M  V30 4481 C 429.612 -1.86783 -1.32834 0
M  V30 4482 C 430.612 -0.74199 -1.42657 0
M  V30 4483 O 431.802 -1.0102 -1.41918 0
M  V30 4484 C 428.934 -2.06746 -2.71052 0
M  V30 4485 H 430.127 -2.8055 -1.05979 0
M  V30 4486 H 427.68 -1.47499 -0.517087 0
M  V30 4487 H 428.415 -1.15339 -3.03097 0
M  V30 4488 H 428.2 -2.88711 -2.65309 0
M  V30 4489 H 429.69 -2.32549 -3.46858 0
M  V30 4490 N 430.127 0.543554 -1.4793 0
M  V30 4491 C 431.375 1.29752 -1.54948 0
M  V30 4492 C 431.696 1.93764 -0.219242 0
M  V30 4493 O 430.966 1.80639 0.75805 0
M  V30 4494 H 429.546 0.481874 -0.570795 0
M  V30 4495 H 432.208 0.633636 -1.84312 0
M  V30 4496 H 431.304 2.08392 -2.32334 0
M  V30 4497 N 431.605 1.3629 0.791371 0
M  V30 4498 C 432.535 1.33137 1.91825 0
M  V30 4499 C 433.516 0.203168 1.68882 0
M  V30 4500 O 434.701 0.400509 1.90025 0
M  V30 4501 C 431.831 1.11793 3.28816 0
M  V30 4502 C 430.785 2.21417 3.66277 0
M  V30 4503 C 430.111 1.85218 5.01596 0
M  V30 4504 C 431.411 3.63489 3.75064 0
M  V30 4505 H 433.105 2.2743 1.9472 0
M  V30 4506 H 430.651 1.09479 0.935437 0
M  V30 4507 H 432.604 1.08222 4.07266 0
M  V30 4508 H 431.328 0.139501 3.26302 0
M  V30 4509 H 429.987 2.2411 2.90121 0
M  V30 4510 H 429.635 0.859544 4.95602 0
M  V30 4511 H 429.335 2.58611 5.27631 0
M  V30 4512 H 430.859 1.832 5.82469 0
M  V30 4513 H 432.273 3.63034 4.43711 0
M  V30 4514 H 430.67 4.35771 4.12582 0
M  V30 4515 H 431.74 3.98536 2.76219 0
M  V30 4516 N 433.083 -1.0153 1.20538 0
M  V30 4517 C 434.016 -2.09759 0.898695 0
M  V30 4518 C 434.994 -1.61909 -0.149733 0
M  V30 4519 O 436.178 -1.88486 -0.0230293 0
M  V30 4520 C 433.305 -3.36913 0.347512 0
M  V30 4521 C 432.351 -4.03655 1.37713 0
M  V30 4522 S 433.184 -4.47402 2.94265 0
M  V30 4523 C 434.34 -5.77756 2.40726 0
M  V30 4524 H 434.573 -2.3545 1.81523 0
M  V30 4525 H 432.106 -1.14665 1.03399 0
M  V30 4526 H 434.064 -4.10484 0.0360518 0
M  V30 4527 H 432.725 -3.09291 -0.547546 0
M  V30 4528 H 431.918 -4.9514 0.940872 0
M  V30 4529 H 431.52 -3.36313 1.63614 0
M  V30 4530 H 433.812 -6.52994 1.80569 0
M  V30 4531 H 434.755 -6.2618 3.30612 0
M  V30 4532 H 435.163 -5.34081 1.82806 0
M  V30 4533 N 434.561 -1.01147 -1.20859 0
M  V30 4534 C 435.524 -0.582224 -2.21682 0
M  V30 4535 C 436.524 0.344887 -1.57058 0
M  V30 4536 O 437.714 0.134281 -1.73682 0
M  V30 4537 C 434.846 0.150496 -3.40568 0
M  V30 4538 H 436.039 -1.47408 -2.61172 0
M  V30 4539 H 433.592 -0.800695 -1.34233 0
M  V30 4540 H 434.327 1.0575 -3.06574 0
M  V30 4541 H 434.112 -0.515444 -3.88697 0
M  V30 4542 H 435.602 0.438344 -4.15293 0
M  V30 4543 N 436.039 1.36541 -0.78704 0
M  V30 4544 C 437.287 1.98911 -0.357633 0
M  V30 4545 C 437.608 1.62778 1.07371 0
M  V30 4546 O 436.878 0.900612 1.73971 0
M  V30 4547 H 435.458 0.735734 -0.129246 0
M  V30 4548 H 438.12 1.66776 -1.00855 0
M  V30 4549 H 437.216 3.08874 -0.447549 0
M  V30 4550 N 437.518 0.538854 1.48102 0
M  V30 4551 C 438.934 0.19732 1.58376 0
M  V30 4552 C 439.134 -1.29971 1.5398 0
M  V30 4553 O 438.19 -2.07861 1.43352 0
M  V30 4554 C 439.503 0.807716 2.89649 0
M  V30 4555 C 441.051 0.77726 3.03196 0
M  V30 4556 C 441.526 1.36639 4.37143 0
M  V30 4557 N 443.017 1.32875 4.43732 0
M  V30 4558 C 443.752 1.7544 5.45901 0
M  V30 4559 N 443.248 2.25776 6.54979 0
M  V30 4560 N 445.041 1.66623 5.36836 0
M  V30 4561 H 437.192 1.5117 1.49202 0
M  V30 4562 H 439.455 0.629327 0.708979 0
M  V30 4563 H 439.161 1.85909 2.98548 0
M  V30 4564 H 439.035 0.289975 3.76084 0
M  V30 4565 H 441.422 -0.265374 2.93904 0
M  V30 4566 H 441.503 1.33256 2.18349 0
M  V30 4567 H 441.147 2.408 4.47189 0
M  V30 4568 H 441.077 0.786689 5.20691 0
M  V30 4569 H 443.568 0.96037 3.65493 0
M  V30 4570 H 443.881 2.56226 7.29087 0
M  V30 4571 H 442.226 2.29775 6.55918 0
M  V30 4572 H 445.417 1.27089 4.50517 0
M  V30 4573 H 445.59 2.00115 6.16326 0
M  V30 4574 N 438.996 -1.55193 0.274407 0
M  V30 4575 C 440.407 -1.85358 -0.223488 0
M  V30 4576 C 440.758 -1.19642 -1.555 0
M  V30 4577 O 439.883 -0.484498 -2.10907 0
M  V30 4578 C 440.478 -3.36282 -0.412285 0
M  V30 4579 C 439.037 -3.66574 -0.854413 0
M  V30 4580 C 438.184 -2.7725 0.0527056 0
M  V30 4581 H 441.135 -1.50743 0.496215 0
M  V30 4582 H 441.156 -3.59349 -1.25094 0
M  V30 4583 H 440.668 -3.84083 0.556965 0
M  V30 4584 H 438.769 -3.24273 -1.83516 0
M  V30 4585 H 438.882 -4.74073 -0.692226 0
M  V30 4586 H 437.246 -2.50447 -0.463484 0
M  V30 4587 H 438.029 -3.27865 1.01783 0
M  V30 4588 N 440.474 -0.00167713 -1.576 0
M  V30 4589 C 441.437 0.974046 -2.07473 0
M  V30 4590 C 442.437 1.27143 -0.984444 0
M  V30 4591 O 443.627 1.21633 -1.24703 0
M  V30 4592 C 440.759 2.29849 -2.51759 0
M  V30 4593 H 441.952 0.54262 -2.9495 0
M  V30 4594 H 439.505 0.245829 -1.54355 0
M  V30 4595 H 440.24 2.77677 -1.67529 0
M  V30 4596 H 440.025 2.09584 -3.31386 0
M  V30 4597 H 441.515 2.9984 -2.90664 0
M  V30 4598 N 441.952 1.55251 0.271103 0
M  V30 4599 C 443.199 1.75946 1.00245 0
M  V30 4600 C 443.527 0.561611 1.86215 0
M  V30 4601 O 442.782 -0.455832 1.90317 0
M  V30 4602 C 443.081 3.01879 1.91321 0
M  V30 4603 C 442.747 4.34337 1.21086 0
M  V30 4604 C 441.409 4.70338 1.01666 0
M  V30 4605 C 443.761 5.16325 0.71119 0
M  V30 4606 C 441.089 5.8588 0.310099 0
M  V30 4607 C 443.441 6.32597 0.0182157 0
M  V30 4608 C 442.105 6.67236 -0.18768 0
M  V30 4609 H 441.375 0.643833 0.366824 0
M  V30 4610 H 444.022 1.89521 0.27458 0
M  V30 4611 H 442.327 2.83212 2.70736 0
M  V30 4612 H 444.024 3.15088 2.48033 0
M  V30 4613 H 440.614 4.06043 1.37213 0
M  V30 4614 H 444.798 4.88987 0.848844 0
M  V30 4615 H 440.054 6.1124 0.139873 0
M  V30 4616 H 444.228 6.9538 -0.376711 0
M  V30 4617 H 441.855 7.56618 -0.73715 0
M  V30 4618 N 443.43 -0.535701 1.48216 0
M  V30 4619 C 444.393 -1.623 1.61838 0
M  V30 4620 C 445.393 -1.53087 0.492024 0
M  V30 4621 O 446.583 -1.5686 0.757668 0
M  V30 4622 C 443.715 -3.01907 1.58319 0
M  V30 4623 H 444.908 -1.51564 2.58783 0
M  V30 4624 H 442.461 -0.757317 1.36727 0
M  V30 4625 H 443.196 -3.18155 0.628299 0
M  V30 4626 H 442.981 -3.10003 2.40085 0
M  V30 4627 H 444.471 -3.80969 1.71033 0
M  V30 4628 N 444.908 -1.36708 -0.784132 0
M  V30 4629 C 446.133 -1.34565 -1.5782 0
M  V30 4630 C 446.558 0.0695257 -1.87971 0
M  V30 4631 O 445.916 1.04302 -1.48293 0
M  V30 4632 C 445.964 -2.17952 -2.87279 0
M  V30 4633 O 445.068 -1.57563 -3.81114 0
M  V30 4634 H 444.409 -0.460337 -0.478524 0
M  V30 4635 H 446.939 -1.80064 -0.971495 0
M  V30 4636 H 446.949 -2.30721 -3.365 0
M  V30 4637 H 445.624 -3.20823 -2.64661 0
M  V30 4638 H 444.201 -1.53764 -3.39722 0
M  V30 4639 N 446.386 1.0089 -1.21074 0
M  V30 4640 C 447.336 2.0799 -0.934034 0
M  V30 4641 C 448.32 1.60529 0.10919 0
M  V30 4642 O 449.512 1.76722 -0.0992198 0
M  V30 4643 C 446.641 3.39693 -0.496334 0
M  V30 4644 C 445.727 3.93833 -1.57341 0
M  V30 4645 N 446.118 4.21388 -2.7976 0
M  V30 4646 C 444.416 4.22067 -1.44137 0
M  V30 4647 C 445.117 4.65156 -3.49292 0
M  V30 4648 N 444.093 4.67895 -2.76722 0
M  V30 4649 H 447.895 2.27213 -1.86417 0
M  V30 4650 H 445.409 1.18927 -1.10589 0
M  V30 4651 H 447.406 4.15962 -0.279471 0
M  V30 4652 H 446.066 3.21879 0.427084 0
M  V30 4653 H 447.077 4.10061 -3.1634 0
M  V30 4654 H 443.754 4.1341 -0.582947 0
M  V30 4655 H 445.144 4.95231 -4.54088 0
M  V30 4656 N 447.864 1.01787 1.20321 0
M  V30 4657 C 449.28 0.732951 1.41774 0
M  V30 4658 C 449.48 -0.686883 1.89431 0
M  V30 4659 O 448.536 -1.45446 2.06402 0
M  V30 4660 C 449.849 1.75973 2.43832 0
M  V30 4661 C 451.397 1.77802 2.57596 0
M  V30 4662 C 451.872 2.7941 3.62897 0
M  V30 4663 N 453.363 2.78157 3.70382 0
M  V30 4664 C 454.098 3.53434 4.51521 0
M  V30 4665 N 453.594 4.38392 5.36455 0
M  V30 4666 N 455.387 3.42026 4.46066 0
M  V30 4667 H 447.538 1.93447 0.877035 0
M  V30 4668 H 449.801 0.835712 0.447536 0
M  V30 4669 H 449.507 2.77699 2.15815 0
M  V30 4670 H 449.381 1.57292 3.4284 0
M  V30 4671 H 451.768 0.767602 2.84942 0
M  V30 4672 H 451.849 2.00557 1.58779 0
M  V30 4673 H 451.493 3.80616 3.36295 0
M  V30 4674 H 451.423 2.53916 4.61339 0
M  V30 4675 H 453.914 2.16531 3.09714 0
M  V30 4676 H 454.227 4.92596 5.95457 0
M  V30 4677 H 452.572 4.4247 5.35953 0
M  V30 4678 H 455.763 2.75075 3.78749 0
M  V30 4679 H 455.936 4.00946 5.09064 0
M  V30 4680 N 449.342 -1.36122 0.79427 0
M  V30 4681 C 450.289 -2.29982 0.194101 0
M  V30 4682 C 451.259 -1.52214 -0.664833 0
M  V30 4683 O 452.444 -1.80702 -0.612498 0
M  V30 4684 C 449.584 -3.38706 -0.661244 0
M  V30 4685 C 448.697 -4.31456 0.216766 0
M  V30 4686 C 447.832 -5.27265 -0.645411 0
M  V30 4687 C 446.871 -6.11653 0.233756 0
M  V30 4688 N 446.008 -6.99636 -0.587682 0
M  V30 4689 H 450.848 -2.80722 0.999965 0
M  V30 4690 H 448.385 -1.38172 0.504677 0
M  V30 4691 H 450.343 -4.00394 -1.17219 0
M  V30 4692 H 448.973 -2.89274 -1.43249 0
M  V30 4693 H 448.025 -3.7088 0.845724 0
M  V30 4694 H 449.337 -4.90724 0.893973 0
M  V30 4695 H 448.491 -5.94266 -1.22198 0
M  V30 4696 H 447.23 -4.68463 -1.35623 0
M  V30 4697 H 446.235 -5.4361 0.82269 0
M  V30 4698 H 447.46 -6.72531 0.942247 0
M  V30 4699 H 445.406 -6.43337 -1.2827 0
M  V30 4700 H 445.323 -7.55993 0.0317402 0
M  V30 4701 H 446.591 -7.71001 -1.14792 0
M  V30 4702 N 450.82 -0.546701 -1.47814 0
M  V30 4703 C 452.05 -0.0232519 -2.06587 0
M  V30 4704 C 452.458 1.2712 -1.40133 0
M  V30 4705 O 451.801 1.77091 -0.488305 0
M  V30 4706 C 451.863 0.254117 -3.58601 0
M  V30 4707 C 451.527 -0.949331 -4.47031 0
M  V30 4708 C 452.524 -1.85216 -4.85789 0
M  V30 4709 C 450.209 -1.16104 -4.88697 0
M  V30 4710 C 452.203 -2.95047 -5.65001 0
M  V30 4711 C 449.89 -2.26247 -5.67676 0
M  V30 4712 C 450.888 -3.1555 -6.05737 0
M  V30 4713 O 450.576 -4.23784 -6.83127 0
M  V30 4714 H 450.308 -0.0380082 -0.674931 0
M  V30 4715 H 452.862 -0.756631 -1.90956 0
M  V30 4716 H 451.092 1.04168 -3.72406 0
M  V30 4717 H 452.781 0.72167 -3.99433 0
M  V30 4718 H 453.547 -1.70061 -4.54207 0
M  V30 4719 H 449.426 -0.475159 -4.58545 0
M  V30 4720 H 452.97 -3.64778 -5.94628 0
M  V30 4721 H 448.867 -2.41379 -5.98671 0
M  V30 4722 H 449.635 -4.21701 -7.01506 0
M  V30 4723 N 452.299 1.55045 -0.282633 0
M  V30 4724 C 453.229 2.2579 0.595066 0
M  V30 4725 C 454.21 1.25074 1.15284 0
M  V30 4726 O 455.395 1.5381 1.18559 0
M  V30 4727 C 452.525 2.98472 1.77572 0
M  V30 4728 C 451.479 4.0618 1.34914 0
M  V30 4729 C 450.805 4.66477 2.6135 0
M  V30 4730 C 452.105 5.1996 0.493821 0
M  V30 4731 H 453.799 2.994 0.00505653 0
M  V30 4732 H 451.345 1.44 0.000992001 0
M  V30 4733 H 453.298 3.46677 2.39568 0
M  V30 4734 H 452.022 2.2241 2.39168 0
M  V30 4735 H 450.681 3.58797 0.752338 0
M  V30 4736 H 450.329 3.87074 3.2122 0
M  V30 4737 H 450.029 5.39207 2.33516 0
M  V30 4738 H 451.553 5.17435 3.24181 0
M  V30 4739 H 452.967 5.64172 1.01898 0
M  V30 4740 H 451.364 5.99299 0.310047 0
M  V30 4741 H 452.434 4.82462 -0.485593 0
M  V30 4742 N 453.777 0.010035 1.57597 0
M  V30 4743 C 455.024 -0.6727 1.91 0
M  V30 4744 C 455.352 -1.73219 0.884614 0
M  V30 4745 O 454.607 -1.95395 -0.109215 0
M  V30 4746 C 454.906 -1.34434 3.31153 0
M  V30 4747 C 454.572 -0.417083 4.48967 0
M  V30 4748 C 453.234 -0.161809 4.80928 0
M  V30 4749 C 455.586 0.220753 5.20732 0
M  V30 4750 C 452.914 0.739426 5.82022 0
M  V30 4751 C 455.266 1.10993 6.22787 0
M  V30 4752 C 453.93 1.37428 6.532 0
M  V30 4753 H 453.2 -0.246158 0.698918 0
M  V30 4754 H 455.847 0.0677145 1.9138 0
M  V30 4755 H 454.152 -2.15905 3.26944 0
M  V30 4756 H 455.849 -1.87883 3.54261 0
M  V30 4757 H 452.439 -0.626217 4.24001 0
M  V30 4758 H 456.623 0.0365643 4.96287 0
M  V30 4759 H 451.879 0.952139 6.03941 0
M  V30 4760 H 456.053 1.61046 6.77523 0
M  V30 4761 H 453.68 2.0743 7.31353 0
M  V30 4762 N 455.255 -1.55392 -0.262866 0
M  V30 4763 C 456.48 -1.80847 -1.01533 0
M  V30 4764 C 456.905 -0.584946 -1.78774 0
M  V30 4765 O 456.263 0.465701 -1.75217 0
M  V30 4766 C 456.311 -3.03866 -1.94159 0
M  V30 4767 O 455.415 -2.79662 -3.03089 0
M  V30 4768 H 454.756 -0.597441 -0.289759 0
M  V30 4769 H 457.286 -2.02553 -0.288698 0
M  V30 4770 H 457.296 -3.32872 -2.35924 0
M  V30 4771 H 455.971 -3.92564 -1.37354 0
M  V30 4772 H 454.548 -2.61781 -2.65566 0
M  V30 4773 N 456.733 0.527833 -1.48498 0
M  V30 4774 C 457.663 1.64136 -1.66077 0
M  V30 4775 C 458.644 1.62286 -0.509625 0
M  V30 4776 O 459.829 1.79449 -0.742413 0
M  V30 4777 C 456.959 3.02717 -1.70234 0
M  V30 4778 C 455.913 3.19426 -2.8487 0
M  V30 4779 C 455.239 4.5909 -2.74118 0
M  V30 4780 C 456.539 3.01993 -4.26142 0
M  V30 4781 H 458.233 1.4968 -2.593 0
M  V30 4782 H 455.779 0.718654 -1.24785 0
M  V30 4783 H 457.732 3.80491 -1.8112 0
M  V30 4784 H 456.456 3.18201 -0.735911 0
M  V30 4785 H 455.115 2.4407 -2.73542 0
M  V30 4786 H 454.763 4.71413 -1.7544 0
M  V30 4787 H 454.463 4.71214 -3.51042 0
M  V30 4788 H 455.987 5.3896 -2.86974 0
M  V30 4789 H 457.401 3.69558 -4.38292 0
M  V30 4790 H 455.798 3.2561 -5.04082 0
M  V30 4791 H 456.868 1.98396 -4.42456 0
M  V30 4792 N 458.211 1.37122 0.776871 0
M  V30 4793 C 459.174 1.32301 1.8716 0
M  V30 4794 C 460.174 0.228099 1.59174 0
M  V30 4795 O 461.364 0.483642 1.67352 0
M  V30 4796 C 458.496 1.054 3.24197 0
M  V30 4797 H 459.689 2.29673 1.92848 0
M  V30 4798 H 457.242 1.22077 0.97606 0
M  V30 4799 H 457.977 0.0853872 3.24188 0
M  V30 4800 H 457.762 1.84648 3.45901 0
M  V30 4801 H 459.252 1.04664 4.04271 0
M  V30 4802 N 459.689 -1.00246 1.21608 0
M  V30 4803 C 460.619 -2.10921 1.00172 0
M  V30 4804 C 461.6 -1.69938 -0.0741587 0
M  V30 4805 O 462.785 -1.94009 0.0861753 0
M  V30 4806 C 459.915 -3.42618 0.568355 0
M  V30 4807 C 458.869 -3.97407 1.58909 0
M  V30 4808 C 458.195 -5.25038 1.01187 0
M  V30 4809 C 459.495 -4.2918 2.97661 0
M  V30 4810 H 461.189 -2.29112 1.92739 0
M  V30 4811 H 458.735 -1.10101 0.928102 0
M  V30 4812 H 460.688 -4.19444 0.405555 0
M  V30 4813 H 459.412 -3.24227 -0.392961 0
M  V30 4814 H 458.071 -3.22703 1.73949 0
M  V30 4815 H 457.719 -5.02982 0.0421965 0
M  V30 4816 H 457.419 -5.62661 1.6937 0
M  V30 4817 H 458.943 -6.04507 0.860448 0
M  V30 4818 H 460.357 -4.96839 2.86049 0
M  V30 4819 H 458.754 -4.77952 3.6288 0
M  V30 4820 H 459.824 -3.3735 3.48315 0
M  V30 4821 N 461.167 -1.02423 -1.1978 0
M  V30 4822 C 462.097 -0.62157 -2.25075 0
M  V30 4823 C 463.078 0.367148 -1.6609 0
M  V30 4824 O 464.263 0.250892 -1.92573 0
M  V30 4825 C 461.393 0.0331826 -3.47284 0
M  V30 4826 C 460.347 -0.877323 -4.18912 0
M  V30 4827 C 459.673 -0.0879296 -5.34628 0
M  V30 4828 C 460.973 -2.18892 -4.74219 0
M  V30 4829 H 462.667 -1.50179 -2.59011 0
M  V30 4830 H 460.213 -0.723547 -1.24502 0
M  V30 4831 H 462.166 0.326488 -4.20133 0
M  V30 4832 H 460.89 0.948164 -3.12534 0
M  V30 4833 H 459.549 -1.15475 -3.47938 0
M  V30 4834 H 459.197 0.828941 -4.96123 0
M  V30 4835 H 458.897 -0.694359 -5.83483 0
M  V30 4836 H 460.421 0.198743 -6.10276 0
M  V30 4837 H 461.835 -1.95746 -5.38847 0
M  V30 4838 H 460.232 -2.74686 -5.33542 0
M  V30 4839 H 461.302 -2.84674 -3.92541 0
M  V30 4840 N 462.645 1.35699 -0.801477 0
M  V30 4841 C 463.575 2.32436 -0.222658 0
M  V30 4842 C 464.556 1.5723 0.649057 0
M  V30 4843 O 465.741 1.85324 0.580387 0
M  V30 4844 C 462.871 3.41469 0.633719 0
M  V30 4845 C 461.825 4.27774 -0.139083 0
M  V30 4846 C 461.151 5.28082 0.838666 0
M  V30 4847 C 462.451 5.04946 -1.33517 0
M  V30 4848 H 464.145 2.81094 -1.03086 0
M  V30 4849 H 461.691 1.35146 -0.497155 0
M  V30 4850 H 463.644 4.08143 1.04868 0
M  V30 4851 H 462.368 2.91408 1.47475 0
M  V30 4852 H 461.027 3.62673 -0.535156 0
M  V30 4853 H 460.675 4.7429 1.67506 0
M  V30 4854 H 460.375 5.86695 0.32594 0
M  V30 4855 H 461.899 5.97628 1.25194 0
M  V30 4856 H 463.313 5.64593 -0.995349 0
M  V30 4857 H 461.71 5.7303 -1.78202 0
M  V30 4858 H 462.78 4.35886 -2.12442 0
M  V30 4859 N 464.123 0.554532 1.47522 0
M  V30 4860 C 465.071 -0.207765 2.3167 0
M  V30 4861 C 466.065 -0.911914 1.4276 0
M  V30 4862 O 467.271 -0.833504 1.59539 0
M  V30 4863 H 463.646 -0.0858726 0.747081 0
M  V30 4864 H 465.617 0.521178 2.93813 0
M  V30 4865 C 464.366 -1.2263 3.25357 0
M  V30 4866 H 463.689 -0.693887 3.93732 0
M  V30 4867 H 465.129 -1.73062 3.87073 0
M  V30 4868 C 463.588 -2.27278 2.4869 0
M  V30 4869 O 464.118 -3.34156 2.22941 0
M  V30 4870 N 462.324 -2.01134 2.09746 0
M  V30 4871 H 461.871 -1.14232 2.30887 0
M  V30 4872 H 461.829 -2.71369 1.58765 0
M  V30 4873 N 465.601 -1.54893 0.290851 0
M  V30 4874 C 466.849 -1.99538 -0.320756 0
M  V30 4875 C 467.17 -1.18075 -1.55188 0
M  V30 4876 O 466.44 -0.274162 -1.93972 0
M  V30 4877 H 465.02 -0.737052 -0.121507 0
M  V30 4878 H 467.682 -1.90755 0.399832 0
M  V30 4879 H 466.778 -3.06282 -0.599802 0
M  V30 4880 N 467.08 -0.0183926 -1.57589 0
M  V30 4881 C 468.01 0.965596 -2.12599 0
M  V30 4882 C 468.991 1.34641 -1.0395 0
M  V30 4883 O 470.176 1.42693 -1.31729 0
M  V30 4884 C 467.306 2.25149 -2.64434 0
M  V30 4885 C 466.26 2.01175 -3.77773 0
M  V30 4886 C 465.586 3.35937 -4.15994 0
M  V30 4887 C 466.886 1.35953 -5.04296 0
M  V30 4888 H 468.58 0.507504 -2.95067 0
M  V30 4889 H 466.126 0.242671 -1.41941 0
M  V30 4890 H 468.079 2.94357 -3.01549 0
M  V30 4891 H 466.803 2.73105 -1.79112 0
M  V30 4892 H 465.462 1.34388 -3.4108 0
M  V30 4893 H 465.11 3.81631 -3.27669 0
M  V30 4894 H 464.81 3.20705 -4.92364 0
M  V30 4895 H 466.334 4.0643 -4.55683 0
M  V30 4896 H 467.748 1.95144 -5.39065 0
M  V30 4897 H 466.145 1.31152 -5.85593 0
M  V30 4898 H 467.215 0.331071 -4.83768 0
M  V30 4899 N 468.558 1.5553 0.254621 0
M  V30 4900 C 469.786 1.81046 1.00149 0
M  V30 4901 C 470.201 0.593047 1.79244 0
M  V30 4902 O 469.558 -0.438196 1.77161 0
M  V30 4903 C 469.609 3.04684 1.94551 0
M  V30 4904 O 469.33 4.21725 1.18658 0
M  V30 4905 C 470.831 3.42943 2.80901 0
M  V30 4906 H 468.051 0.602653 0.295044 0
M  V30 4907 H 470.595 2.02576 0.279842 0
M  V30 4908 H 468.75 2.85226 2.62154 0
M  V30 4909 H 469.164 4.91746 1.82445 0
M  V30 4910 H 470.638 4.32576 3.42902 0
M  V30 4911 H 471.115 2.63176 3.51617 0
M  V30 4912 H 471.721 3.64724 2.18762 0
M  V30 4913 N 470.036 -0.519951 1.48776 0
M  V30 4914 C 470.984 -1.64443 1.64503 0
M  V30 4915 C 471.978 -1.61501 0.511248 0
M  V30 4916 O 473.184 -1.66238 0.690294 0
M  V30 4917 H 469.559 -0.544776 0.518385 0
M  V30 4918 H 471.53 -1.48325 2.58925 0
M  V30 4919 C 470.279 -3.02673 1.71127 0
M  V30 4920 H 469.602 -3.05635 2.57735 0
M  V30 4921 H 471.042 -3.80941 1.86172 0
M  V30 4922 C 469.501 -3.33854 0.452032 0
M  V30 4923 O 470.031 -3.99385 -0.430678 0
M  V30 4924 N 468.237 -2.88825 0.32069 0
M  V30 4925 H 467.784 -2.35674 1.03998 0
M  V30 4926 H 467.742 -3.10056 -0.520814 0
M  V30 4927 N 471.514 -1.37532 -0.769588 0
M  V30 4928 C 472.444 -1.36172 -1.89682 0
M  V30 4929 C 473.425 -0.23001 -1.68538 0
M  V30 4930 O 474.61 -0.43069 -1.89364 0
M  V30 4931 C 471.74 -1.1701 -3.26995 0
M  V30 4932 C 470.694 -2.27216 -3.62708 0
M  V30 4933 C 470.02 -1.93174 -4.98586 0
M  V30 4934 C 471.32 -3.6941 -3.69234 0
M  V30 4935 H 473.014 -2.30499 -1.91078 0
M  V30 4936 H 470.56 -1.10953 -0.917902 0
M  V30 4937 H 472.513 -1.14688 -4.05493 0
M  V30 4938 H 471.237 -0.191395 -3.26039 0
M  V30 4939 H 469.896 -2.28697 -2.86519 0
M  V30 4940 H 469.544 -0.938281 -4.94171 0
M  V30 4941 H 469.244 -2.66973 -5.23449 0
M  V30 4942 H 470.768 -1.92443 -5.79481 0
M  V30 4943 H 472.182 -3.70047 -4.37879 0
M  V30 4944 H 470.579 -4.4228 -4.05597 0
M  V30 4945 H 471.649 -4.0288 -2.69844 0
M  V30 4946 N 472.992 0.995999 -1.22138 0
M  V30 4947 C 474.238 1.73767 -1.04561 0
M  V30 4948 C 474.571 1.89633 0.418698 0
M  V30 4949 O 473.846 1.43723 1.3105 0
M  V30 4950 C 474.129 3.14505 -1.75382 0
M  V30 4951 C 473.982 3.06306 -3.29388 0
M  V30 4952 C 475.301 4.13615 -1.50369 0
M  V30 4953 H 472.42 0.630728 -0.38125 0
M  V30 4954 H 475.062 1.16057 -1.50435 0
M  V30 4955 H 473.212 3.63775 -1.36383 0
M  V30 4956 H 474.884 2.64681 -3.77812 0
M  V30 4957 H 473.127 2.43186 -3.59226 0
M  V30 4958 H 473.798 4.05884 -3.74116 0
M  V30 4959 H 476.274 3.73089 -1.84239 0
M  V30 4960 H 475.15 5.10212 -2.02421 0
M  V30 4961 H 475.411 4.39949 -0.435611 0
M  V30 4962 N 474.47 1.03057 1.19235 0
M  V30 4963 C 475.71 0.736757 1.9066 0
M  V30 4964 C 476.074 -0.721521 1.77927 0
M  V30 4965 O 477.275 -1.12849 2.43964 0
M  V30 4966 C 475.546 1.17755 3.37444 0
M  V30 4967 S 477.105 1.00783 4.27069 0
M  V30 4968 H 473.923 0.268174 0.658486 0
M  V30 4969 H 476.525 1.32076 1.4414 0
M  V30 4970 H 475.229 2.23448 3.44237 0
M  V30 4971 H 474.76 0.586912 3.88997 0
M  V30 4972 H 476.775 -0.0806356 4.96134 0
M  V30 4973 N 475.948 -1.35272 0.808662 0
M  V30 4974 C 476.911 -2.28082 0.226093 0
M  V30 4975 C 477.911 -1.49673 -0.587762 0
M  V30 4976 O 479.101 -1.69404 -0.405943 0
M  V30 4977 C 476.233 -3.33955 -0.684596 0
M  V30 4978 H 477.426 -2.81116 1.04469 0
M  V30 4979 H 474.979 -1.45162 0.579466 0
M  V30 4980 H 475.714 -2.86111 -1.5268 0
M  V30 4981 H 475.499 -3.91965 -0.102699 0
M  V30 4982 H 476.989 -4.03219 -1.08646 0
M  V30 4983 N 477.426 -0.562348 -1.47226 0
M  V30 4984 C 478.389 0.172056 -2.28553 0
M  V30 4985 C 479.389 0.837928 -1.37242 0
M  V30 4986 O 480.579 0.693001 -1.59822 0
M  V30 4987 C 477.711 1.25223 -3.17068 0
M  V30 4988 H 478.904 -0.542401 -2.94954 0
M  V30 4989 H 476.457 -0.319493 -1.53 0
M  V30 4990 H 477.192 1.99892 -2.55369 0
M  V30 4991 H 476.977 0.779515 -3.84273 0
M  V30 4992 H 478.467 1.76791 -3.78332 0
M  V30 4993 N 478.904 1.54736 -0.299062 0
M  V30 4994 C 480.129 2.04975 0.316254 0
M  V30 4995 C 480.554 1.17501 1.46885 0
M  V30 4996 O 479.912 0.178678 1.80417 0
M  V30 4997 C 479.96 3.52672 0.751997 0
M  V30 4998 O 479.064 3.68226 1.85697 0
M  V30 4999 H 478.405 0.661126 0.0617175 0
M  V30 5000 H 480.935 1.99805 -0.440341 0
M  V30 5001 H 480.945 3.94488 1.04133 0
M  V30 5002 H 479.62 4.158 -0.0911482 0
M  V30 5003 H 478.197 3.38316 1.56834 0
M  V30 5004 N 480.382 0.0267497 1.57577 0
M  V30 5005 C 481.63 -0.651116 1.91324 0
M  V30 5006 C 481.951 -1.72804 0.90353 0
M  V30 5007 O 481.221 -1.95822 -0.0552946 0
M  V30 5008 H 479.801 -0.243491 0.706202 0
M  V30 5009 H 482.463 0.0739935 1.94759 0
M  V30 5010 H 481.559 -1.10536 2.9187 0
M  V30 5011 N 481.861 -1.55662 -0.24637 0
M  V30 5012 C 483.138 -1.68272 -0.997198 0
M  V30 5013 C 483.518 -0.566785 -2.03349 0
M  V30 5014 O 482.866 0.429688 -2.24424 0
M  V30 5015 C 483.076 -3.08594 -1.63006 0
M  V30 5016 C 484.424 -3.6721 -2.13171 0
M  V30 5017 O 485.448 -3.11397 -1.72946 0
M  V30 5018 O 484.307 -4.65054 -2.87031 0
M  V30 5019 H 481.401 -0.684429 -0.464205 0
M  V30 5020 H 483.947 -1.67993 -0.240114 0
M  V30 5021 H 482.719 -3.81264 -0.880527 0
M  V30 5022 H 482.342 -3.12886 -2.45333 0
M  V30 5023 N 483.339 0.512053 -1.4905 0
M  V30 5024 C 484.586 1.26686 -1.57978 0
M  V30 5025 C 484.914 1.92733 -0.261553 0
M  V30 5026 O 484.169 1.80772 0.749667 0
M  V30 5027 C 484.468 2.36446 -2.68008 0
M  V30 5028 C 484.134 1.87932 -4.09869 0
M  V30 5029 C 482.796 1.74419 -4.48477 0
M  V30 5030 C 485.148 1.5149 -4.98698 0
M  V30 5031 C 482.476 1.22827 -5.73699 0
M  V30 5032 C 484.828 1.01355 -6.24428 0
M  V30 5033 C 483.492 0.864735 -6.61875 0
M  V30 5034 H 482.762 0.463577 -0.578081 0
M  V30 5035 H 485.409 0.569421 -1.82838 0
M  V30 5036 H 483.714 3.11933 -2.37076 0
M  V30 5037 H 485.411 2.9453 -2.72127 0
M  V30 5038 H 482.001 1.99405 -3.79389 0
M  V30 5039 H 486.185 1.60782 -4.69535 0
M  V30 5040 H 481.441 1.10008 -6.01422 0
M  V30 5041 H 485.615 0.722351 -6.92644 0
M  V30 5042 H 483.242 0.462777 -7.5879 0
M  V30 5043 N 484.817 1.37938 0.762283 0
M  V30 5044 C 486.063 1.34873 1.52253 0
M  V30 5045 C 486.418 -0.0635972 1.92295 0
M  V30 5046 O 485.711 -1.02434 1.61919 0
M  V30 5047 C 485.905 2.23042 2.79261 0
M  V30 5048 C 485.734 3.72706 2.51635 0
M  V30 5049 C 484.504 4.41771 2.45289 0
M  V30 5050 C 486.702 4.65345 2.18994 0
M  V30 5051 N 484.684 5.76921 2.09846 0
M  V30 5052 C 486.055 5.88943 1.9377 0
M  V30 5053 C 488.11 4.53636 2.0523 0
M  V30 5054 C 486.813 7.02142 1.5617 0
M  V30 5055 C 488.839 5.6673 1.69031 0
M  V30 5056 C 488.201 6.89383 1.44673 0
M  V30 5057 H 484.3 0.548818 0.557067 0
M  V30 5058 H 486.884 1.73247 0.888458 0
M  V30 5059 H 485.055 1.8687 3.40491 0
M  V30 5060 H 486.787 2.11165 3.45241 0
M  V30 5061 H 483.542 3.94883 2.61465 0
M  V30 5062 H 483.966 6.4837 1.94794 0
M  V30 5063 H 488.608 3.5937 2.2274 0
M  V30 5064 H 486.326 7.96334 1.37399 0
M  V30 5065 H 489.912 5.59645 1.59026 0
M  V30 5066 H 488.792 7.75411 1.17079 0
M  V30 5067 N 486.295 -0.989507 1.22664 0
M  V30 5068 C 487.541 -1.7321 1.05481 0
M  V30 5069 C 487.874 -1.89852 -0.408635 0
M  V30 5070 O 487.149 -1.44416 -1.30285 0
M  V30 5071 C 487.432 -3.1357 1.77047 0
M  V30 5072 C 487.285 -3.04555 3.31008 0
M  V30 5073 C 488.604 -4.12812 1.5256 0
M  V30 5074 H 485.723 -0.628697 0.384589 0
M  V30 5075 H 488.365 -1.15258 1.51049 0
M  V30 5076 H 486.515 -3.63046 1.3831 0
M  V30 5077 H 488.187 -2.62674 3.7921 0
M  V30 5078 H 486.43 -2.41278 3.6051 0
M  V30 5079 H 487.101 -4.03894 3.76263 0
M  V30 5080 H 489.577 -3.72106 1.86215 0
M  V30 5081 H 488.453 -5.09132 2.05124 0
M  V30 5082 H 488.714 -4.39711 0.458936 0
M  V30 5083 N 487.773 -1.03688 -1.18687 0
M  V30 5084 C 488.703 -0.645407 -2.24403 0
M  V30 5085 C 489.684 0.349511 -1.66471 0
M  V30 5086 O 490.869 0.230453 -1.92828 0
M  V30 5087 C 487.999 -0.00365337 -3.473 0
M  V30 5088 C 486.953 -0.921705 -4.17958 0
M  V30 5089 C 486.279 -0.144629 -5.34504 0
M  V30 5090 C 487.579 -2.23909 -4.71871 0
M  V30 5091 H 489.273 -1.52917 -2.57404 0
M  V30 5092 H 486.819 -0.736711 -1.23728 0
M  V30 5093 H 488.772 0.281908 -4.20456 0
M  V30 5094 H 487.496 0.914963 -3.13522 0
M  V30 5095 H 486.155 -1.19159 -3.46694 0
M  V30 5096 H 485.803 0.776274 -4.96974 0
M  V30 5097 H 485.503 -0.756206 -5.82714 0
M  V30 5098 H 487.027 0.134004 -6.10453 0
M  V30 5099 H 488.441 -2.0145 -5.36741 0
M  V30 5100 H 486.838 -2.8033 -5.30599 0
M  V30 5101 H 487.908 -2.88822 -3.895 0
M  V30 5102 N 489.251 1.34841 -0.815825 0
M  V30 5103 C 490.497 1.98793 -0.401129 0
M  V30 5104 C 490.83 1.64548 1.03139 0
M  V30 5105 O 490.105 0.913487 1.71714 0
M  V30 5106 C 490.388 3.55143 -0.595409 0
M  V30 5107 C 490.241 3.99155 -2.07352 0
M  V30 5108 C 491.56 4.40092 -0.0268823 0
M  V30 5109 H 488.679 0.722146 -0.14722 0
M  V30 5110 H 491.321 1.59847 -1.02707 0
M  V30 5111 H 489.471 3.8845 -0.0625779 0
M  V30 5112 H 491.143 3.76216 -2.66945 0
M  V30 5113 H 489.386 3.49726 -2.56659 0
M  V30 5114 H 490.057 5.07971 -2.1603 0
M  V30 5115 H 492.533 4.13298 -0.482042 0
M  V30 5116 H 491.409 5.48562 -0.19267 0
M  V30 5117 H 491.67 4.29016 1.06759 0
M  V30 5118 N 490.729 0.570148 1.46925 0
M  V30 5119 C 491.977 0.0508523 2.02036 0
M  V30 5120 C 492.298 -1.30885 1.44548 0
M  V30 5121 O 491.568 -1.85647 0.625453 0
M  V30 5122 H 490.148 0.0158088 0.746833 0
M  V30 5123 H 492.81 0.743086 1.80178 0
M  V30 5124 H 491.906 -0.027575 3.12088 0
M  V30 5125 N 492.207 -1.54576 0.307264 0
M  V30 5126 C 493.437 -2.04378 -0.302158 0
M  V30 5127 C 493.845 -1.18381 -1.47589 0
M  V30 5128 O 493.188 -0.20352 -1.82569 0
M  V30 5129 C 493.25 -3.50133 -0.815305 0
M  V30 5130 C 492.914 -4.56401 0.233977 0
M  V30 5131 C 493.911 -5.08884 1.06456 0
M  V30 5132 C 491.596 -5.0088 0.377478 0
M  V30 5133 C 493.59 -6.04394 2.02452 0
M  V30 5134 C 491.277 -5.96208 1.34088 0
M  V30 5135 C 492.275 -6.47849 2.16288 0
M  V30 5136 O 491.963 -7.41308 3.10994 0
M  V30 5137 H 491.695 -0.672502 -0.0686839 0
M  V30 5138 H 494.249 -2.00484 0.446682 0
M  V30 5139 H 492.479 -3.51371 -1.61478 0
M  V30 5140 H 494.168 -3.83098 -1.34129 0
M  V30 5141 H 494.934 -4.75311 0.964596 0
M  V30 5142 H 490.813 -4.60309 -0.252405 0
M  V30 5143 H 494.357 -6.44626 2.66652 0
M  V30 5144 H 490.254 -6.29198 1.44154 0
M  V30 5145 H 491.022 -7.5913 3.06045 0
M  V30 5146 N 493.685 -0.035106 -1.57561 0
M  V30 5147 C 494.925 0.646316 -1.93913 0
M  V30 5148 C 495.289 1.68947 -0.912185 0
M  V30 5149 O 496.49 2.42381 -1.1621 0
M  V30 5150 C 494.761 1.24136 -3.35149 0
M  V30 5151 S 496.32 1.94302 -3.93436 0
M  V30 5152 H 493.138 0.212642 -0.678457 0
M  V30 5153 H 495.74 -0.100203 -1.95243 0
M  V30 5154 H 494.444 0.46979 -4.07702 0
M  V30 5155 H 493.975 2.02505 -3.37276 0
M  V30 5156 H 495.99 3.22205 -3.77357 0
M  V30 5157 N 495.163 1.55791 0.238111 0
M  V30 5158 C 496.093 1.94068 1.29846 0
M  V30 5159 C 497.074 0.806726 1.49753 0
M  V30 5160 O 498.259 1.06772 1.62214 0
M  V30 5161 C 495.389 2.24302 2.65153 0
M  V30 5162 C 494.343 3.40032 2.59927 0
M  V30 5163 C 493.669 3.55829 3.99111 0
M  V30 5164 C 494.969 4.75476 2.16148 0
M  V30 5165 H 496.663 2.82887 0.980563 0
M  V30 5166 H 494.209 1.36105 0.470253 0
M  V30 5167 H 496.162 2.4967 3.39475 0
M  V30 5168 H 494.886 1.32318 2.98596 0
M  V30 5169 H 493.545 3.14687 1.88063 0
M  V30 5170 H 493.193 2.6125 4.29834 0
M  V30 5171 H 492.893 4.3366 3.96501 0
M  V30 5172 H 494.417 3.83528 4.7512 0
M  V30 5173 H 495.831 5.00158 2.80205 0
M  V30 5174 H 494.228 5.56472 2.24631 0
M  V30 5175 H 495.298 4.71946 1.11333 0
M  V30 5176 N 496.642 -0.504142 1.49319 0
M  V30 5177 C 497.605 -1.5883 1.65244 0
M  V30 5178 C 498.605 -1.52009 0.524386 0
M  V30 5179 O 499.795 -1.55218 0.79077 0
M  V30 5180 C 496.927 -2.98481 1.64687 0
M  V30 5181 H 498.12 -1.4604 2.61939 0
M  V30 5182 H 495.673 -0.728144 1.38303 0
M  V30 5183 H 496.408 -3.16751 0.695644 0
M  V30 5184 H 496.193 -3.0484 2.46607 0
M  V30 5185 H 497.683 -3.77256 1.79075 0
M  V30 5186 N 498.12 -1.38341 -0.754957 0
M  V30 5187 C 499.35 -1.37504 -1.54195 0
M  V30 5188 C 499.758 0.0373787 -1.89163 0
M  V30 5189 O 499.101 1.01402 -1.53178 0
M  V30 5190 C 499.163 -2.16488 -2.87008 0
M  V30 5191 C 498.827 -3.65311 -2.74585 0
M  V30 5192 C 499.824 -4.58834 -2.44474 0
M  V30 5193 C 497.509 -4.08649 -2.9208 0
M  V30 5194 C 499.503 -5.93675 -2.32011 0
M  V30 5195 C 497.19 -5.43571 -2.79237 0
M  V30 5196 C 498.188 -6.35898 -2.49245 0
M  V30 5197 O 497.876 -7.68338 -2.36458 0
M  V30 5198 H 497.608 -0.472159 -0.483779 0
M  V30 5199 H 500.162 -1.82515 -0.94221 0
M  V30 5200 H 498.392 -1.66194 -3.49166 0
M  V30 5201 H 500.081 -2.08076 -3.4851 0
M  V30 5202 H 500.847 -4.26657 -2.30627 0
M  V30 5203 H 496.726 -3.37134 -3.14422 0
M  V30 5204 H 500.27 -6.65706 -2.08522 0
M  V30 5205 H 496.167 -5.75345 -2.92657 0
M  V30 5206 H 496.935 -7.78845 -2.5168 0
M  V30 5207 N 499.598 0.982988 -1.23187 0
M  V30 5208 C 500.823 1.76455 -1.08988 0
M  V30 5209 C 501.248 1.84726 0.354691 0
M  V30 5210 O 500.606 1.30699 1.25649 0
M  V30 5211 C 500.654 3.17094 -1.71708 0
M  V30 5212 O 499.758 4.00648 -0.977477 0
M  V30 5213 H 499.099 0.542988 -0.382177 0
M  V30 5214 H 501.629 1.23413 -1.63188 0
M  V30 5215 H 501.639 3.67684 -1.76841 0
M  V30 5216 H 500.314 3.10389 -2.76823 0
M  V30 5217 H 498.891 3.59161 -1.0029 0
M  V30 5218 N 501.076 1.04316 1.18135 0
M  V30 5219 C 502.322 0.749128 1.88457 0
M  V30 5220 C 502.655 -0.72149 1.803 0
M  V30 5221 O 501.93 -1.52676 1.205 0
M  V30 5222 C 502.213 1.21905 3.38838 0
M  V30 5223 C 502.066 2.75195 3.55792 0
M  V30 5224 C 503.385 0.811085 4.32561 0
M  V30 5225 H 500.504 0.273611 0.684329 0
M  V30 5226 H 503.146 1.29561 1.38975 0
M  V30 5227 H 501.296 0.754137 3.8111 0
M  V30 5228 H 502.968 3.29743 3.22595 0
M  V30 5229 H 501.211 3.14899 2.98364 0
M  V30 5230 H 501.882 3.03135 4.61317 0
M  V30 5231 H 504.358 1.21118 3.98082 0
M  V30 5232 H 503.234 1.16761 5.36338 0
M  V30 5233 H 503.495 -0.285596 4.41177 0
M  V30 5234 N 502.554 -1.34406 0.822964 0
M  V30 5235 C 503.779 -2.0304 0.423034 0
M  V30 5236 C 504.204 -1.61568 -0.963196 0
M  V30 5237 O 503.562 -0.800339 -1.62678 0
M  V30 5238 C 503.61 -3.56636 0.53321 0
M  V30 5239 O 502.714 -4.09971 -0.446939 0
M  V30 5240 H 502.055 -0.64075 0.174171 0
M  V30 5241 H 504.585 -1.71653 1.11339 0
M  V30 5242 H 504.595 -4.05945 0.408991 0
M  V30 5243 H 503.27 -3.86168 1.54425 0
M  V30 5244 H 501.847 -3.71835 -0.281601 0
M  V30 5245 N 504.032 -0.577932 -1.46621 0
M  V30 5246 C 504.965 0.206312 -2.27265 0
M  V30 5247 C 505.943 0.901306 -1.35334 0
M  V30 5248 O 507.127 0.916151 -1.64739 0
M  V30 5249 C 504.254 1.29563 -3.1294 0
M  V30 5250 C 503.3 0.706981 -4.206 0
M  V30 5251 S 504.133 -0.462459 -5.33499 0
M  V30 5252 C 505.289 0.628171 -6.2274 0
M  V30 5253 H 505.522 -0.477961 -2.93433 0
M  V30 5254 H 503.055 -0.364715 -1.50031 0
M  V30 5255 H 505.013 1.91935 -3.62865 0
M  V30 5256 H 503.674 1.95183 -2.46095 0
M  V30 5257 H 502.867 1.52565 -4.80354 0
M  V30 5258 H 502.469 0.159022 -3.73662 0
M  V30 5259 H 504.761 1.51506 -6.60342 0
M  V30 5260 H 505.704 0.0674961 -7.08068 0
M  V30 5261 H 506.112 0.930167 -5.56784 0
M  V30 5262 N 505.51 1.54411 -0.315457 0
M  V30 5263 C 506.735 2.05299 0.294496 0
M  V30 5264 C 507.16 1.19052 1.4563 0
M  V30 5265 O 506.518 0.197804 1.80218 0
M  V30 5266 C 506.566 3.5345 0.714549 0
M  V30 5267 O 505.67 3.70175 1.81781 0
M  V30 5268 H 505.011 0.661743 0.0547019 0
M  V30 5269 H 507.541 1.99327 -0.461508 0
M  V30 5270 H 507.551 3.9557 0.999426 0
M  V30 5271 H 506.226 4.1568 -0.135244 0
M  V30 5272 H 504.803 3.3996 1.53236 0
M  V30 5273 N 506.988 0.0434614 1.5754 0
M  V30 5274 C 508.236 -0.630786 1.92004 0
M  V30 5275 C 508.557 -1.71836 0.921807 0
M  V30 5276 O 507.827 -1.9587 -0.034522 0
M  V30 5277 H 506.407 -0.235988 0.708745 0
M  V30 5278 H 509.069 0.0946462 1.9467 0
M  V30 5279 H 508.165 -1.07434 2.93026 0
M  V30 5280 N 508.466 -1.55915 -0.229846 0
M  V30 5281 C 509.715 -1.77742 -0.953455 0
M  V30 5282 C 510.028 -0.610524 -1.85828 0
M  V30 5283 O 511.234 -0.712219 -2.61992 0
M  V30 5284 C 509.69 -3.14738 -1.74551 0
M  V30 5285 C 509.298 -4.39126 -0.887242 0
M  V30 5286 C 511.042 -3.45895 -2.46084 0
M  V30 5287 C 508.949 -5.67149 -1.67617 0
M  V30 5288 H 507.879 -0.662648 -0.359741 0
M  V30 5289 H 510.53 -1.82322 -0.207576 0
M  V30 5290 H 508.912 -3.04311 -2.53399 0
M  V30 5291 H 510.086 -4.60588 -0.139892 0
M  V30 5292 H 508.401 -4.15427 -0.284443 0
M  V30 5293 H 510.998 -4.38767 -3.05594 0
M  V30 5294 H 511.341 -2.68007 -3.18556 0
M  V30 5295 H 511.874 -3.57614 -1.74233 0
M  V30 5296 H 508.613 -6.47906 -0.994881 0
M  V30 5297 H 508.133 -5.49763 -2.39836 0
M  V30 5298 H 509.812 -6.07025 -2.23898 0
M  V30 5299 N 509.944 0.496216 -1.49584 0
M  V30 5300 C 511.192 1.24756 -1.58998 0
M  V30 5301 C 511.513 1.92968 -0.280775 0
M  V30 5302 O 510.783 1.82959 0.700198 0
M  V30 5303 H 509.363 0.463471 -0.585836 0
M  V30 5304 H 512.025 0.574678 -1.86235 0
M  V30 5305 H 511.121 2.00895 -2.38847 0
M  V30 5306 N 511.423 1.38739 0.74761 0
M  V30 5307 C 512.386 1.36241 1.84312 0
M  V30 5308 C 513.386 0.261811 1.58654 0
M  V30 5309 O 514.576 0.519031 1.66288 0
M  V30 5310 C 511.708 1.12253 3.21888 0
M  V30 5311 H 512.901 2.33712 1.87933 0
M  V30 5312 H 510.454 1.2412 0.949946 0
M  V30 5313 H 511.189 0.154133 3.23934 0
M  V30 5314 H 510.974 1.91943 3.41907 0
M  V30 5315 H 512.464 1.13215 4.0196 0
M  V30 5316 N 512.901 -0.976442 1.23707 0
M  V30 5317 C 513.831 -2.08749 1.04624 0
M  V30 5318 C 514.812 -1.70057 -0.0380956 0
M  V30 5319 O 515.997 -1.93782 0.127308 0
M  V30 5320 C 513.127 -3.41335 0.640902 0
M  V30 5321 C 512.081 -3.93947 1.67302 0
M  V30 5322 C 511.407 -5.22774 1.12301 0
M  V30 5323 C 512.707 -4.22769 3.06697 0
M  V30 5324 H 514.401 -2.24972 1.97555 0
M  V30 5325 H 511.947 -1.08108 0.951247 0
M  V30 5326 H 513.9 -4.18489 0.494434 0
M  V30 5327 H 512.624 -3.24988 -0.324099 0
M  V30 5328 H 511.283 -3.18941 1.80755 0
M  V30 5329 H 510.931 -5.0278 0.148877 0
M  V30 5330 H 510.631 -5.58942 1.81267 0
M  V30 5331 H 512.155 -6.02546 0.988479 0
M  V30 5332 H 513.569 -4.90659 2.96524 0
M  V30 5333 H 511.966 -4.70147 3.72937 0
M  V30 5334 H 513.036 -3.29885 3.55392 0
M  V30 5335 N 514.379 -1.04941 -1.1758 0
M  V30 5336 C 515.628 -0.753124 -1.87112 0
M  V30 5337 C 515.941 0.722507 -1.81767 0
M  V30 5338 O 517.147 1.13265 -2.46746 0
M  V30 5339 C 515.603 -1.29695 -3.35719 0
M  V30 5340 C 515.211 -2.80184 -3.49572 0
M  V30 5341 C 516.955 -1.07759 -4.10595 0
M  V30 5342 C 514.862 -3.2788 -4.92187 0
M  V30 5343 H 513.792 -0.278034 -0.700866 0
M  V30 5344 H 516.443 -1.26637 -1.32798 0
M  V30 5345 H 514.825 -0.711522 -3.89555 0
M  V30 5346 H 515.999 -3.44561 -3.05965 0
M  V30 5347 H 514.314 -3.00632 -2.88113 0
M  V30 5348 H 516.911 -1.40899 -5.15802 0
M  V30 5349 H 517.254 -0.0152302 -4.16297 0
M  V30 5350 H 517.787 -1.62809 -3.62957 0
M  V30 5351 H 514.526 -4.33535 -4.91658 0
M  V30 5352 H 514.046 -2.68245 -5.36475 0
M  V30 5353 H 515.725 -3.22412 -5.60945 0
M  V30 5354 N 515.857 1.33968 -0.830081 0
M  V30 5355 C 517.104 1.98063 -0.421566 0
M  V30 5356 C 517.432 1.65787 1.0171 0
M  V30 5357 O 516.687 0.925348 1.72441 0
M  V30 5358 C 516.986 3.52679 -0.57898 0
M  V30 5359 C 516.652 4.04884 -1.98443 0
M  V30 5360 C 515.314 4.18852 -2.36888 0
M  V30 5361 C 517.666 4.32879 -2.90285 0
M  V30 5362 C 514.994 4.58145 -3.66497 0
M  V30 5363 C 517.346 4.7362 -4.19364 0
M  V30 5364 C 516.01 4.85794 -4.57778 0
M  V30 5365 H 515.28 0.724765 -0.154262 0
M  V30 5366 H 517.927 1.59792 -1.05541 0
M  V30 5367 H 516.232 3.91556 0.138219 0
M  V30 5368 H 517.929 4.00261 -0.243317 0
M  V30 5369 H 514.519 3.9448 -1.67581 0
M  V30 5370 H 518.703 4.21619 -2.61823 0
M  V30 5371 H 513.959 4.65762 -3.96075 0
M  V30 5372 H 518.133 4.9424 -4.90612 0
M  V30 5373 H 515.76 5.15998 -5.58256 0
M  V30 5374 N 517.335 0.585699 1.46312 0
M  V30 5375 C 518.267 -0.183687 2.28463 0
M  V30 5376 C 519.28 -0.85264 1.38686 0
M  V30 5377 O 520.469 -0.721701 1.6326 0
M  V30 5378 C 517.569 -1.27977 3.13808 0
M  V30 5379 C 516.742 -0.702164 4.31727 0
M  V30 5380 C 515.801 -1.68633 4.98447 0
M  V30 5381 O 514.827 -1.22121 5.55945 0
M  V30 5382 N 516.029 -3.02047 4.95729 0
M  V30 5383 H 518.794 0.521127 2.95134 0
M  V30 5384 H 516.355 0.423673 1.56258 0
M  V30 5385 H 518.347 -1.9375 3.55307 0
M  V30 5386 H 516.917 -1.8874 2.4919 0
M  V30 5387 H 516.137 0.1331 3.93975 0
M  V30 5388 H 517.425 -0.296101 5.07938 0
M  V30 5389 H 516.823 -3.42457 4.50266 0
M  V30 5390 H 515.38 -3.63301 5.41161 0
M  V30 5391 N 518.813 -1.54241 0.323641 0
M  V30 5392 C 520.059 -2.00867 -0.279323 0
M  V30 5393 C 520.392 -1.21146 -1.5178 0
M  V30 5394 O 519.667 -0.29378 -1.92269 0
M  V30 5395 C 519.95 -3.54837 -0.613387 0
M  V30 5396 C 519.803 -4.45284 0.635803 0
M  V30 5397 C 521.122 -4.16186 -1.43099 0
M  V30 5398 H 518.241 -0.730177 -0.100049 0
M  V30 5399 H 520.883 -1.84829 0.440235 0
M  V30 5400 H 519.033 -3.68634 -1.22641 0
M  V30 5401 H 520.705 -4.43357 1.27406 0
M  V30 5402 H 518.948 -4.14956 1.26466 0
M  V30 5403 H 519.619 -5.5084 0.357597 0
M  V30 5404 H 522.095 -4.05964 -0.912814 0
M  V30 5405 H 520.971 -5.24031 -1.6335 0
M  V30 5406 H 521.232 -3.69516 -2.42715 0
M  V30 5407 N 520.291 -0.0518155 -1.57515 0
M  V30 5408 C 521.221 0.920283 -2.146 0
M  V30 5409 C 522.202 1.32406 -1.06783 0
M  V30 5410 O 523.387 1.39866 -1.34726 0
M  V30 5411 C 520.517 2.1949 -2.6915 0
M  V30 5412 C 519.471 1.93116 -3.81956 0
M  V30 5413 C 518.797 3.27037 -4.23026 0
M  V30 5414 C 520.097 1.25225 -5.07066 0
M  V30 5415 H 521.791 0.444801 -2.96077 0
M  V30 5416 H 519.337 0.212508 -1.42423 0
M  V30 5417 H 521.29 2.87894 -3.07725 0
M  V30 5418 H 520.014 2.69244 -1.84865 0
M  V30 5419 H 518.673 1.27123 -3.43854 0
M  V30 5420 H 518.321 3.74595 -3.3569 0
M  V30 5421 H 518.021 3.10189 -4.99056 0
M  V30 5422 H 519.545 3.96673 -4.64202 0
M  V30 5423 H 520.959 1.83666 -5.43083 0
M  V30 5424 H 519.356 1.18702 -5.88243 0
M  V30 5425 H 520.426 0.228382 -4.84362 0
M  V30 5426 N 521.769 1.56035 0.221574 0
M  V30 5427 C 522.702 1.87427 1.30178 0
M  V30 5428 C 523.68 0.731658 1.45209 0
M  V30 5429 O 524.864 0.980016 1.61022 0
M  V30 5430 C 521.991 2.08127 2.67209 0
M  V30 5431 C 521.037 3.30813 2.69194 0
M  V30 5432 S 521.87 4.86738 2.23263 0
M  V30 5433 C 523.026 5.10474 3.62171 0
M  V30 5434 H 523.259 2.78756 1.03355 0
M  V30 5435 H 520.792 1.48469 0.423813 0
M  V30 5436 H 522.75 2.20736 3.46101 0
M  V30 5437 H 521.411 1.17595 2.91256 0
M  V30 5438 H 520.604 3.42341 3.6989 0
M  V30 5439 H 520.206 3.1706 1.98366 0
M  V30 5440 H 522.498 4.9937 4.5786 0
M  V30 5441 H 523.441 6.12359 3.55558 0
M  V30 5442 H 523.849 4.38208 3.55857 0
M  V30 5443 N 523.247 -0.488276 1.49845 0
M  V30 5444 C 524.524 -1.24959 1.50481 0
M  V30 5445 C 524.904 -2.09735 0.239698 0
M  V30 5446 O 524.252 -2.14865 -0.777524 0
M  V30 5447 C 524.462 -2.0954 2.79095 0
M  V30 5448 C 525.81 -2.68305 3.29086 0
M  V30 5449 O 526.834 -2.19797 2.80299 0
M  V30 5450 O 525.693 -3.56643 4.14087 0
M  V30 5451 H 522.787 -0.566133 0.602845 0
M  V30 5452 H 525.333 -0.501504 1.6212 0
M  V30 5453 H 524.105 -1.46958 3.62656 0
M  V30 5454 H 523.728 -2.91517 2.70377 0
M  V30 5455 N 524.725 -1.39134 -0.740242 0
M  V30 5456 C 525.974 -1.35384 -1.49512 0
M  V30 5457 C 526.287 0.04919 -1.95538 0
M  V30 5458 O 527.493 0.209257 -2.70692 0
M  V30 5459 C 525.949 -2.37812 -2.70136 0
M  V30 5460 C 525.557 -3.83804 -2.31081 0
M  V30 5461 C 527.301 -2.4313 -3.47977 0
M  V30 5462 C 525.208 -4.77886 -3.48395 0
M  V30 5463 H 524.138 -0.503297 -0.561434 0
M  V30 5464 H 526.789 -1.64754 -0.807974 0
M  V30 5465 H 525.171 -2.01505 -3.40899 0
M  V30 5466 H 526.345 -4.29123 -1.67898 0
M  V30 5467 H 524.66 -3.81732 -1.66343 0
M  V30 5468 H 527.257 -3.10614 -4.35228 0
M  V30 5469 H 527.6 -1.45423 -3.90074 0
M  V30 5470 H 528.133 -2.78304 -2.84239 0
M  V30 5471 H 524.872 -5.76836 -3.11353 0
M  V30 5472 H 524.392 -4.3725 -4.10576 0
M  V30 5473 H 526.071 -4.96538 -4.148 0
M  V30 5474 N 526.204 0.969867 -1.24223 0
M  V30 5475 C 527.45 1.7151 -1.08223 0
M  V30 5476 C 527.783 1.90478 0.37838 0
M  V30 5477 O 527.058 1.4647 1.27971 0
M  V30 5478 C 527.341 3.10714 -1.82013 0
M  V30 5479 C 527.194 2.9925 -3.35811 0
M  V30 5480 C 528.513 4.10332 -1.59108 0
M  V30 5481 H 525.632 0.622499 -0.394543 0
M  V30 5482 H 528.274 1.1284 -1.52863 0
M  V30 5483 H 526.424 3.608 -1.44068 0
M  V30 5484 H 528.096 2.56608 -3.83341 0
M  V30 5485 H 526.339 2.35512 -3.64303 0
M  V30 5486 H 527.01 3.97857 -3.82641 0
M  V30 5487 H 529.486 3.69097 -1.92111 0
M  V30 5488 H 528.362 5.05804 -2.13198 0
M  V30 5489 H 528.623 4.38926 -0.528832 0
M  V30 5490 N 527.682 1.05563 1.17022 0
M  V30 5491 C 529.093 0.793475 1.69 0
M  V30 5492 C 529.444 -0.683882 1.83895 0
M  V30 5493 O 528.569 -1.53116 1.5292 0
M  V30 5494 C 529.164 1.43376 3.06967 0
M  V30 5495 C 527.723 1.21956 3.56095 0
M  V30 5496 C 526.87 1.51494 2.3226 0
M  V30 5497 H 529.821 1.22008 1.01487 0
M  V30 5498 H 529.842 0.845068 3.70997 0
M  V30 5499 H 529.354 2.50899 2.96093 0
M  V30 5500 H 527.455 0.163749 3.7224 0
M  V30 5501 H 527.568 1.92713 4.38633 0
M  V30 5502 H 525.932 0.935175 2.3691 0
M  V30 5503 H 526.715 2.60159 2.23992 0
M  V30 5504 N 529.16 -1.33526 0.837174 0
M  V30 5505 C 530.093 -2.27192 0.214233 0
M  V30 5506 C 531.071 -1.49575 -0.637657 0
M  V30 5507 O 532.255 -1.78753 -0.598291 0
M  V30 5508 C 529.382 -3.31401 -0.699367 0
M  V30 5509 C 528.428 -4.26431 0.0768429 0
M  V30 5510 S 529.261 -5.15954 1.4336 0
M  V30 5511 C 530.417 -6.23692 0.525251 0
M  V30 5512 H 530.65 -2.79679 1.00831 0
M  V30 5513 H 528.183 -1.4079 0.633834 0
M  V30 5514 H 530.141 -3.91924 -1.22088 0
M  V30 5515 H 528.802 -2.77732 -1.46709 0
M  V30 5516 H 527.995 -5.00193 -0.618268 0
M  V30 5517 H 527.597 -3.70235 0.529364 0
M  V30 5518 H 529.889 -6.76931 -0.277575 0
M  V30 5519 H 530.832 -6.97283 1.23299 0
M  V30 5520 H 531.24 -5.64398 0.107351 0
M  V30 5521 N 530.638 -0.59345 -1.46 0
M  V30 5522 C 531.915 -0.0157933 -1.95594 0
M  V30 5523 C 532.295 1.44807 -1.53604 0
M  V30 5524 O 531.643 2.14342 -0.791824 0
M  V30 5525 C 531.853 -0.199081 -3.48432 0
M  V30 5526 C 533.201 -0.0724943 -4.24538 0
M  V30 5527 O 534.225 -0.128469 -3.55968 0
M  V30 5528 O 533.084 0.0542426 -5.46473 0
M  V30 5529 H 530.178 0.043749 -0.825842 0
M  V30 5530 H 532.724 -0.662522 -1.56233 0
M  V30 5531 H 531.496 -1.21631 -3.71916 0
M  V30 5532 H 531.119 0.483576 -3.94648 0
M  V30 5533 N 532.116 1.54067 -0.331816 0
M  V30 5534 C 533.048 2.22139 0.564538 0
M  V30 5535 C 534.061 1.22408 1.07332 0
M  V30 5536 O 535.25 1.4883 0.985481 0
M  V30 5537 C 532.35 2.87876 1.78831 0
M  V30 5538 C 531.523 4.13817 1.41682 0
M  V30 5539 C 530.582 4.63072 2.49901 0
M  V30 5540 O 529.608 5.27562 2.13699 0
M  V30 5541 N 530.81 4.38001 3.80967 0
M  V30 5542 H 533.575 2.99694 -0.0183736 0
M  V30 5543 H 531.136 1.61153 -0.155396 0
M  V30 5544 H 533.128 3.17747 2.50637 0
M  V30 5545 H 531.698 2.13977 2.27887 0
M  V30 5546 H 530.918 3.9062 0.530044 0
M  V30 5547 H 532.206 4.95762 1.14443 0
M  V30 5548 H 531.604 3.864 4.13173 0
M  V30 5549 H 530.161 4.72507 4.48977 0
M  V30 5550 N 533.594 0.0601682 1.57485 0
M  V30 5551 C 534.841 -0.611594 1.93043 0
M  V30 5552 C 535.169 -1.70317 0.939274 0
M  V30 5553 O 534.424 -1.95644 -0.046996 0
M  V30 5554 C 534.723 -1.23831 3.35262 0
M  V30 5555 C 534.389 -0.274037 4.50066 0
M  V30 5556 C 533.051 -0.00872394 4.81199 0
M  V30 5557 C 535.403 0.386308 5.19766 0
M  V30 5558 C 532.731 0.924218 5.79375 0
M  V30 5559 C 535.083 1.3075 6.1894 0
M  V30 5560 C 533.747 1.58139 6.48497 0
M  V30 5561 H 533.017 -0.223798 0.706396 0
M  V30 5562 H 535.664 0.128566 1.91068 0
M  V30 5563 H 533.969 -2.05394 3.33647 0
M  V30 5564 H 535.666 -1.76517 3.60059 0
M  V30 5565 H 532.256 -0.491008 4.25778 0
M  V30 5566 H 536.44 0.194436 4.95919 0
M  V30 5567 H 531.696 1.1438 6.00606 0
M  V30 5568 H 535.87 1.82519 6.72056 0
M  V30 5569 H 533.497 2.30593 7.24383 0
M  V30 5570 N 535.072 -1.5615 -0.213296 0
M  V30 5571 C 536.483 -1.69645 -0.779582 0
M  V30 5572 C 536.834 -0.663615 -1.84636 0
M  V30 5573 O 535.959 0.183633 -2.15619 0
M  V30 5574 C 536.554 -3.07567 -1.42084 0
M  V30 5575 C 535.113 -3.22889 -1.93442 0
M  V30 5576 C 534.26 -2.65581 -0.797612 0
M  V30 5577 H 537.211 -1.58696 0.0114951 0
M  V30 5578 H 537.232 -3.03884 -2.28986 0
M  V30 5579 H 536.744 -3.82716 -0.644187 0
M  V30 5580 H 534.845 -2.52623 -2.73884 0
M  V30 5581 H 534.958 -4.30197 -2.10872 0
M  V30 5582 H 533.322 -2.24278 -1.20712 0
M  V30 5583 H 534.105 -3.43284 -0.033494 0
M  V30 5584 N 536.55 0.480323 -1.50102 0
M  V30 5585 C 537.966 0.813295 -1.37323 0
M  V30 5586 C 538.166 1.97027 -0.422206 0
M  V30 5587 O 537.222 2.5212 0.138563 0
M  V30 5588 C 538.535 1.13404 -2.78496 0
M  V30 5589 C 540.083 1.24104 -2.87345 0
M  V30 5590 C 540.558 1.59497 -4.29331 0
M  V30 5591 N 542.049 1.66507 -4.32238 0
M  V30 5592 C 542.784 1.95378 -5.39087 0
M  V30 5593 N 542.28 2.22333 -6.56155 0
M  V30 5594 N 544.073 1.96803 -5.26522 0
M  V30 5595 H 536.224 -0.282291 -2.10516 0
M  V30 5596 H 538.487 -0.063752 -0.945854 0
M  V30 5597 H 538.193 0.357064 -3.49883 0
M  V30 5598 H 538.067 2.07251 -3.15162 0
M  V30 5599 H 540.454 2.00871 -2.16183 0
M  V30 5600 H 540.535 0.282593 -2.54234 0
M  V30 5601 H 540.179 0.832736 -5.01027 0
M  V30 5602 H 540.109 2.56477 -4.59921 0
M  V30 5603 H 542.6 1.47753 -3.47818 0
M  V30 5604 H 542.913 2.43611 -7.33399 0
M  V30 5605 H 541.258 2.19745 -6.59346 0
M  V30 5606 H 544.449 1.75235 -4.34062 0
M  V30 5607 H 544.622 2.18969 -6.09883 0
M  V30 5608 N 538.028 1.39524 0.732853 0
M  V30 5609 C 538.991 1.38189 1.82857 0
M  V30 5610 C 539.991 0.278624 1.58368 0
M  V30 5611 O 541.181 0.536639 1.65728 0
M  V30 5612 C 538.313 1.15661 3.2068 0
M  V30 5613 H 539.506 2.35692 1.85444 0
M  V30 5614 H 537.059 1.2512 0.936728 0
M  V30 5615 H 537.794 0.188482 3.23752 0
M  V30 5616 H 537.579 1.95559 3.39852 0
M  V30 5617 H 539.069 1.17472 4.00737 0
M  V30 5618 N 539.506 -0.963266 1.24736 0
M  V30 5619 C 540.436 -2.07628 1.06832 0
M  V30 5620 C 541.417 -1.70088 -0.0200566 0
M  V30 5621 O 542.602 -1.93636 0.147854 0
M  V30 5622 C 539.732 -3.40636 0.677069 0
M  V30 5623 C 538.686 -3.9215 1.71471 0
M  V30 5624 C 538.012 -5.21553 1.1784 0
M  V30 5625 C 539.312 -4.19493 3.11164 0
M  V30 5626 H 541.006 -2.22864 1.9993 0
M  V30 5627 H 538.552 -1.07093 0.96266 0
M  V30 5628 H 540.505 -4.17941 0.538792 0
M  V30 5629 H 539.229 -3.25313 -0.289612 0
M  V30 5630 H 537.888 -3.17005 1.84128 0
M  V30 5631 H 537.536 -5.02593 0.202195 0
M  V30 5632 H 537.236 -5.56988 1.87185 0
M  V30 5633 H 538.76 -6.01463 1.05233 0
M  V30 5634 H 540.174 -4.87487 3.01711 0
M  V30 5635 H 538.571 -4.66165 3.77902 0
M  V30 5636 H 539.641 -3.26097 3.58871 0
M  V30 5637 N 540.985 -1.06182 -1.16461 0
M  V30 5638 C 542.233 -0.776326 -1.86595 0
M  V30 5639 C 542.554 0.69921 -1.82033 0
M  V30 5640 O 541.824 1.50579 -1.2531 0
M  V30 5641 H 540.404 -0.284184 -0.690832 0
M  V30 5642 H 543.066 -1.34308 -1.41235 0
M  V30 5643 H 542.162 -1.10022 -2.92064 0
M  V30 5644 N 542.463 1.3308 -0.844243 0
M  V30 5645 C 543.393 2.3161 -0.296493 0
M  V30 5646 C 544.374 1.59215 0.598707 0
M  V30 5647 O 545.559 1.87077 0.521134 0
M  V30 5648 C 542.689 3.43313 0.524762 0
M  V30 5649 C 541.643 4.27115 -0.275106 0
M  V30 5650 C 540.969 5.30483 0.670236 0
M  V30 5651 C 542.269 5.00443 -1.49514 0
M  V30 5652 H 543.963 2.77672 -1.11976 0
M  V30 5653 H 541.509 1.33496 -0.539899 0
M  V30 5654 H 543.462 4.11273 0.918298 0
M  V30 5655 H 542.186 2.95952 1.3813 0
M  V30 5656 H 540.845 3.60787 -0.650267 0
M  V30 5657 H 540.493 4.79379 1.52332 0
M  V30 5658 H 540.193 5.87435 0.139123 0
M  V30 5659 H 541.717 6.01308 1.06117 0
M  V30 5660 H 543.131 5.61141 -1.17447 0
M  V30 5661 H 541.528 5.67071 -1.96343 0
M  V30 5662 H 542.598 4.28906 -2.26202 0
M  V30 5663 N 543.941 0.601185 1.45683 0
M  V30 5664 C 545.188 0.0938811 2.02282 0
M  V30 5665 C 545.516 -1.27315 1.47041 0
M  V30 5666 O 544.771 -1.85193 0.632623 0
M  V30 5667 C 545.07 -0.00222425 3.574 0
M  V30 5668 C 544.736 1.29963 4.31764 0
M  V30 5669 C 543.398 1.65625 4.51798 0
M  V30 5670 C 545.75 2.1603 4.74321 0
M  V30 5671 C 543.078 2.87119 5.11644 0
M  V30 5672 C 545.43 3.36766 5.3551 0
M  V30 5673 C 544.094 3.72689 5.53768 0
M  V30 5674 H 543.364 0.0343535 0.740203 0
M  V30 5675 H 546.011 0.781522 1.74827 0
M  V30 5676 H 544.316 -0.773096 3.84097 0
M  V30 5677 H 546.013 -0.410794 3.9889 0
M  V30 5678 H 542.603 1.01204 4.1648 0
M  V30 5679 H 546.787 1.89778 4.58582 0
M  V30 5680 H 542.043 3.15065 5.2397 0
M  V30 5681 H 546.217 4.03713 5.67441 0
M  V30 5682 H 543.844 4.66918 5.99909 0
M  V30 5683 N 545.419 -1.53889 0.339982 0
M  V30 5684 C 546.647 -2.05271 -0.259114 0
M  V30 5685 C 547.062 -1.21517 -1.44496 0
M  V30 5686 O 546.419 -0.24966 -1.80784 0
M  V30 5687 C 546.47 -3.55092 -0.677634 0
M  V30 5688 O 546.191 -4.35667 0.461051 0
M  V30 5689 C 547.692 -4.22631 -1.33782 0
M  V30 5690 H 544.912 -0.669085 -0.0506566 0
M  V30 5691 H 547.456 -1.9852 0.490935 0
M  V30 5692 H 545.611 -3.62077 -1.37763 0
M  V30 5693 H 546.025 -5.24343 0.128144 0
M  V30 5694 H 547.499 -5.28861 -1.58145 0
M  V30 5695 H 547.976 -3.74758 -2.29027 0
M  V30 5696 H 548.582 -4.19829 -0.679957 0
M  V30 5697 N 546.897 -0.0685191 -1.57451 0
M  V30 5698 C 548.143 0.602239 -1.93652 0
M  V30 5699 C 548.476 1.6946 -0.948526 0
M  V30 5700 O 547.751 1.94487 0.022782 0
M  V30 5701 C 548.034 1.18223 -3.4014 0
M  V30 5702 C 547.887 0.0967431 -4.49696 0
M  V30 5703 C 549.206 2.08872 -3.87377 0
M  V30 5704 H 546.325 0.217453 -0.70419 0
M  V30 5705 H 548.967 -0.133821 -1.89528 0
M  V30 5706 H 547.117 1.80953 -3.43785 0
M  V30 5707 H 548.789 -0.536155 -4.58174 0
M  V30 5708 H 547.032 -0.573063 -4.29998 0
M  V30 5709 H 547.703 0.542894 -5.49324 0
M  V30 5710 H 550.179 1.56081 -3.85717 0
M  V30 5711 H 549.055 2.46389 -4.90493 0
M  V30 5712 H 549.316 2.99572 -3.25129 0
M  V30 5713 N 548.375 1.56261 0.205012 0
M  V30 5714 C 549.305 1.96779 1.257 0
M  V30 5715 C 550.286 0.838309 1.48008 0
M  V30 5716 O 551.471 1.10189 1.59913 0
M  V30 5717 C 548.601 2.29876 2.60335 0
M  V30 5718 C 547.555 3.45469 2.52656 0
M  V30 5719 C 546.881 3.64215 3.91473 0
M  V30 5720 C 548.181 4.79954 2.06014 0
M  V30 5721 H 549.875 2.84904 0.920338 0
M  V30 5722 H 547.421 1.37072 0.441277 0
M  V30 5723 H 549.374 2.56814 3.34102 0
M  V30 5724 H 548.098 1.38622 2.95722 0
M  V30 5725 H 546.757 3.18605 1.81345 0
M  V30 5726 H 546.405 2.70309 4.24196 0
M  V30 5727 H 546.105 4.41973 3.87213 0
M  V30 5728 H 547.629 3.93519 4.66878 0
M  V30 5729 H 549.043 5.05989 2.69533 0
M  V30 5730 H 547.44 5.61111 2.12777 0
M  V30 5731 H 548.51 4.74201 1.01297 0
M  V30 5732 N 549.853 -0.472356 1.50355 0
M  V30 5733 C 551.13 -1.23356 1.51798 0
M  V30 5734 C 551.51 -2.09469 0.26193 0
M  V30 5735 O 550.858 -2.15677 -0.754691 0
M  V30 5736 C 551.068 -2.06568 2.81302 0
M  V30 5737 C 552.416 -2.648 3.31913 0
M  V30 5738 O 553.44 -2.16812 2.82614 0
M  V30 5739 O 552.299 -3.52231 4.17846 0
M  V30 5740 H 549.393 -0.559707 0.608816 0
M  V30 5741 H 551.939 -0.48428 1.62643 0
M  V30 5742 H 550.711 -1.43103 3.64194 0
M  V30 5743 H 550.334 -2.88633 2.73454 0
M  V30 5744 N 551.331 -1.39911 -0.725443 0
M  V30 5745 C 552.579 -1.37382 -1.48224 0
M  V30 5746 C 552.9 0.0264107 -1.94982 0
M  V30 5747 O 552.17 0.979408 -1.6966 0
M  V30 5748 H 550.75 -0.505596 -0.549892 0
M  V30 5749 H 553.412 -1.7487 -0.860608 0
M  V30 5750 H 552.508 -2.04254 -2.3598 0
M  V30 5751 N 552.809 0.956637 -1.25245 0
M  V30 5752 C 553.739 2.07058 -1.07931 0
M  V30 5753 C 554.72 1.70096 0.0110361 0
M  V30 5754 O 555.905 1.93555 -0.158121 0
M  V30 5755 C 553.035 3.40272 -0.695124 0
M  V30 5756 C 551.989 3.91235 -1.73549 0
M  V30 5757 C 551.315 5.20921 -1.20604 0
M  V30 5758 C 552.615 4.17837 -3.13385 0
M  V30 5759 H 554.309 2.218 -2.01109 0
M  V30 5760 H 551.855 1.06581 -0.968326 0
M  V30 5761 H 553.808 4.1765 -0.560949 0
M  V30 5762 H 552.532 3.25462 0.272355 0
M  V30 5763 H 551.191 3.16025 -1.85807 0
M  V30 5764 H 550.839 5.02479 -0.228846 0
M  V30 5765 H 550.539 5.55987 -1.90136 0
M  V30 5766 H 552.063 6.00897 -1.08421 0
M  V30 5767 H 553.477 4.8588 -3.04292 0
M  V30 5768 H 551.874 4.64154 -3.80369 0
M  V30 5769 H 552.944 3.2419 -3.60595 0
M  V30 5770 N 554.287 1.06798 1.15896 0
M  V30 5771 C 555.25 0.687328 2.18651 0
M  V30 5772 C 556.25 -0.269559 1.58524 0
M  V30 5773 O 557.44 -0.0512627 1.74125 0
M  V30 5774 C 554.572 0.0121642 3.40898 0
M  V30 5775 H 555.765 1.59701 2.53842 0
M  V30 5776 H 553.318 0.863828 1.3026 0
M  V30 5777 H 554.053 -0.910025 3.1127 0
M  V30 5778 H 553.838 0.700309 3.85795 0
M  V30 5779 H 555.328 -0.239703 4.16911 0
M  V30 5780 N 555.766 -1.3263 0.851289 0
M  V30 5781 C 557.013 -1.97368 0.453023 0
M  V30 5782 C 557.341 -1.67384 -0.990596 0
M  V30 5783 O 556.596 -0.952665 -1.70947 0
M  V30 5784 C 556.895 -3.51713 0.635015 0
M  V30 5785 C 556.561 -4.01676 2.04859 0
M  V30 5786 C 555.223 -4.15031 2.43522 0
M  V30 5787 C 557.575 -4.28206 2.97135 0
M  V30 5788 C 554.903 -4.52257 3.73739 0
M  V30 5789 C 557.255 -4.66889 4.26846 0
M  V30 5790 C 555.919 -4.7845 4.65448 0
M  V30 5791 H 555.189 -0.722219 0.165773 0
M  V30 5792 H 557.836 -1.58092 1.0807 0
M  V30 5793 H 556.141 -3.91726 -0.0759081 0
M  V30 5794 H 557.838 -3.99823 0.306964 0
M  V30 5795 H 554.428 -3.91764 1.73836 0
M  V30 5796 H 558.612 -4.174 2.68498 0
M  V30 5797 H 553.868 -4.59402 4.03435 0
M  V30 5798 H 558.042 -4.86372 4.98413 0
M  V30 5799 H 555.669 -5.07052 5.66395 0
M  V30 5800 N 557.244 -0.608902 -1.45362 0
M  V30 5801 C 558.174 0.0964526 -2.33301 0
M  V30 5802 C 559.155 0.857444 -1.46908 0
M  V30 5803 O 560.34 0.827735 -1.75676 0
M  V30 5804 C 557.47 1.09354 -3.29635 0
M  V30 5805 C 556.424 0.445676 -4.25673 0
M  V30 5806 C 555.75 1.5511 -5.11708 0
M  V30 5807 C 557.05 -0.633972 -5.18438 0
M  V30 5808 H 558.744 -0.637829 -2.92527 0
M  V30 5809 H 556.29 -0.308178 -1.40664 0
M  V30 5810 H 558.243 1.59556 -3.90025 0
M  V30 5811 H 556.967 1.85843 -2.6857 0
M  V30 5812 H 555.626 -0.0354897 -3.66583 0
M  V30 5813 H 555.274 2.30631 -4.4701 0
M  V30 5814 H 554.974 1.12311 -5.76767 0
M  V30 5815 H 556.498 2.05537 -5.74967 0
M  V30 5816 H 557.912 -0.215974 -5.72893 0
M  V30 5817 H 556.309 -0.983789 -5.91981 0
M  V30 5818 H 557.379 -1.51005 -4.60788 0
M  V30 5819 N 558.722 1.53707 -0.348139 0
M  V30 5820 C 559.971 2.0017 0.247992 0
M  V30 5821 C 560.284 1.23983 1.51286 0
M  V30 5822 O 561.49 1.60946 2.18652 0
M  V30 5823 C 559.946 3.56515 0.492459 0
M  V30 5824 C 559.554 4.41562 -0.756777 0
M  V30 5825 C 561.298 4.11381 1.0472 0
M  V30 5826 C 559.205 5.89426 -0.482856 0
M  V30 5827 H 558.135 0.747806 0.0964452 0
M  V30 5828 H 560.786 1.77532 -0.464179 0
M  V30 5829 H 559.168 3.75236 1.26545 0
M  V30 5830 H 560.342 4.34615 -1.53122 0
M  V30 5831 H 558.657 3.97711 -1.23348 0
M  V30 5832 H 561.254 5.19468 1.26717 0
M  V30 5833 H 561.597 3.64885 2.00411 0
M  V30 5834 H 562.13 3.96389 0.334801 0
M  V30 5835 H 558.869 6.40164 -1.40962 0
M  V30 5836 H 558.389 5.99264 0.253416 0
M  V30 5837 H 560.068 6.4692 -0.101816 0
M  V30 5838 N 560.2 0.0768682 1.57412 0
M  V30 5839 C 561.425 -0.603404 1.98428 0
M  V30 5840 C 561.85 -1.62047 0.955108 0
M  V30 5841 O 561.208 -1.81129 -0.0786778 0
M  V30 5842 C 561.256 -1.24396 3.38464 0
M  V30 5843 O 560.36 -2.35982 3.3821 0
M  V30 5844 H 559.701 -0.154741 0.645718 0
M  V30 5845 H 562.231 0.152885 2.04028 0
M  V30 5846 H 562.241 -1.5896 3.7576 0
M  V30 5847 H 560.916 -0.498735 4.12899 0
M  V30 5848 H 559.493 -2.03173 3.1269 0
M  V30 5849 N 561.678 -1.56367 -0.196722 0
M  V30 5850 C 563.089 -1.70462 -0.761545 0
M  V30 5851 C 563.44 -0.683161 -1.83922 0
M  V30 5852 O 562.565 0.160753 -2.15802 0
M  V30 5853 C 563.16 -3.09057 -1.38814 0
M  V30 5854 C 561.719 -3.24922 -1.90007 0
M  V30 5855 C 560.866 -2.66412 -0.769399 0
M  V30 5856 H 563.817 -1.58675 0.0283263 0
M  V30 5857 H 563.838 -3.06296 -2.2575 0
M  V30 5858 H 563.35 -3.83378 -0.603559 0
M  V30 5859 H 561.451 -2.55514 -2.71189 0
M  V30 5860 H 561.564 -4.3241 -2.06297 0
M  V30 5861 H 559.928 -2.25546 -1.18326 0
M  V30 5862 H 560.711 -3.433 0.00291773 0
M  V30 5863 N 563.156 0.464375 -1.50603 0
M  V30 5864 C 564.567 1.04507 -1.5471 0
M  V30 5865 C 564.918 1.9297 -0.354542 0
M  V30 5866 O 564.043 2.09763 0.531812 0
M  V30 5867 C 564.638 1.90207 -2.80369 0
M  V30 5868 C 563.197 2.43373 -2.87135 0
M  V30 5869 C 562.344 1.21886 -2.49076 0
M  V30 5870 H 565.295 0.246716 -1.56771 0
M  V30 5871 H 565.316 2.75353 -2.62604 0
M  V30 5872 H 564.828 1.25796 -3.67147 0
M  V30 5873 H 562.929 3.11318 -2.04724 0
M  V30 5874 H 563.042 2.7802 -3.90181 0
M  V30 5875 H 561.406 1.55575 -2.01664 0
M  V30 5876 H 562.189 0.591268 -3.3817 0
M  V30 5877 N 564.634 1.40294 0.718013 0
M  V30 5878 C 565.564 1.43118 1.84498 0
M  V30 5879 C 566.545 0.292403 1.67568 0
M  V30 5880 O 567.73 0.500675 1.87635 0
M  V30 5881 C 564.86 1.29065 3.22427 0
M  V30 5882 C 563.814 2.40521 3.54025 0
M  V30 5883 C 563.14 2.11546 4.91073 0
M  V30 5884 C 564.44 3.82859 3.55269 0
M  V30 5885 H 566.134 2.37432 1.82391 0
M  V30 5886 H 563.68 1.14283 0.87609 0
M  V30 5887 H 565.633 1.29658 4.00957 0
M  V30 5888 H 564.357 0.312271 3.25104 0
M  V30 5889 H 563.016 2.39173 2.77834 0
M  V30 5890 H 562.664 1.12104 4.90348 0
M  V30 5891 H 562.364 2.86216 5.1318 0
M  V30 5892 H 563.888 2.13817 5.71939 0
M  V30 5893 H 565.302 3.86044 4.23843 0
M  V30 5894 H 563.699 4.57029 3.88902 0
M  V30 5895 H 564.769 4.12617 2.54706 0
M  V30 5896 N 566.112 -0.949982 1.2575 0
M  V30 5897 C 567.075 -2.02894 1.06615 0
M  V30 5898 C 568.075 -1.60791 0.0173905 0
M  V30 5899 O 569.265 -1.72249 0.260003 0
M  V30 5900 C 566.397 -3.35219 0.619751 0
M  V30 5901 H 567.59 -2.21302 2.02399 0
M  V30 5902 H 565.143 -1.12772 1.08223 0
M  V30 5903 H 565.878 -3.22508 -0.340486 0
M  V30 5904 H 565.663 -3.67129 1.37692 0
M  V30 5905 H 567.153 -4.14505 0.507443 0
M  V30 5906 N 567.59 -1.07411 -1.15328 0
M  V30 5907 C 568.838 -0.796073 -1.85761 0
M  V30 5908 C 569.159 0.679864 -1.82764 0
M  V30 5909 O 568.429 1.49242 -1.269 0
M  V30 5910 H 567.009 -0.291495 -0.687779 0
M  V30 5911 H 569.671 -1.35799 -1.39802 0
M  V30 5912 H 568.767 -1.13114 -2.90881 0
M  V30 5913 N 569.068 1.32177 -0.85831 0
M  V30 5914 C 569.998 2.31282 -0.321041 0
M  V30 5915 C 570.979 1.59841 0.581786 0
M  V30 5916 O 572.164 1.87619 0.501262 0
M  V30 5917 C 569.294 3.4385 0.48832 0
M  V30 5918 C 568.248 4.26799 -0.320391 0
M  V30 5919 C 567.574 5.31164 0.613934 0
M  V30 5920 C 568.874 4.98829 -1.54813 0
M  V30 5921 H 570.568 2.76469 -1.14915 0
M  V30 5922 H 568.114 1.32916 -0.554028 0
M  V30 5923 H 570.067 4.12224 0.874626 0
M  V30 5924 H 568.791 2.97401 1.34983 0
M  V30 5925 H 567.45 3.60077 -0.688497 0
M  V30 5926 H 567.098 4.80967 1.47239 0
M  V30 5927 H 566.798 5.8755 0.0768097 0
M  V30 5928 H 568.322 6.024 0.997336 0
M  V30 5929 H 569.736 5.59864 -1.23392 0
M  V30 5930 H 568.133 5.64957 -2.02346 0
M  V30 5931 H 569.203 4.26483 -2.30739 0
M  V30 5932 N 570.547 0.616602 1.45037 0
M  V30 5933 C 571.477 -0.0840787 2.33349 0
M  V30 5934 C 572.458 -0.849641 1.4736 0
M  V30 5935 O 573.643 -0.818407 1.76113 0
M  V30 5936 C 570.773 -1.07604 3.3021 0
M  V30 5937 C 569.727 -0.423096 4.25904 0
M  V30 5938 C 569.053 -1.52394 5.12523 0
M  V30 5939 C 570.353 0.661457 5.18095 0
M  V30 5940 H 572.047 0.653333 2.92185 0
M  V30 5941 H 569.593 0.315634 1.40498 0
M  V30 5942 H 571.546 -1.57485 3.90866 0
M  V30 5943 H 570.27 -1.84416 2.69552 0
M  V30 5944 H 568.929 0.05493 3.66559 0
M  V30 5945 H 568.577 -2.28257 4.48227 0
M  V30 5946 H 568.277 -1.09251 5.77354 0
M  V30 5947 H 569.801 -2.02485 5.76049 0
M  V30 5948 H 571.215 0.246353 5.7277 0
M  V30 5949 H 569.612 1.01517 5.91451 0
M  V30 5950 H 570.682 1.53446 4.59981 0
M  V30 5951 N 572.025 -1.5352 0.356285 0
M  V30 5952 C 572.955 -2.28372 -0.486661 0
M  V30 5953 C 573.936 -1.30432 -1.09185 0
M  V30 5954 O 575.121 -1.59291 -1.11085 0
M  V30 5955 C 572.251 -3.06604 -1.63129 0
M  V30 5956 C 571.205 -4.12154 -1.15381 0
M  V30 5957 C 570.531 -4.78415 -2.38796 0
M  V30 5958 C 571.831 -5.21724 -0.245179 0
M  V30 5959 H 573.525 -2.99083 0.137797 0
M  V30 5960 H 571.071 -1.43841 0.0677134 0
M  V30 5961 H 573.024 -3.57712 -2.22755 0
M  V30 5962 H 571.748 -2.33568 -2.28284 0
M  V30 5963 H 570.407 -3.61978 -0.580294 0
M  V30 5964 H 570.055 -4.01959 -3.02387 0
M  V30 5965 H 569.755 -5.49734 -2.07524 0
M  V30 5966 H 571.279 -5.32313 -2.99125 0
M  V30 5967 H 572.693 -5.68391 -0.748646 0
M  V30 5968 H 571.09 -6.00095 -0.0237608 0
M  V30 5969 H 572.16 -4.79596 0.715229 0
M  V30 5970 N 573.503 -0.0852151 -1.57369 0
M  V30 5971 C 574.78 0.622534 -1.85429 0
M  V30 5972 C 575.16 1.86962 -0.980229 0
M  V30 5973 O 574.508 2.28445 -0.0500219 0
M  V30 5974 C 574.718 0.947374 -3.35896 0
M  V30 5975 C 576.066 1.31509 -4.03721 0
M  V30 5976 O 577.09 1.03869 -3.40719 0
M  V30 5977 O 575.949 1.83231 -5.14868 0
M  V30 5978 H 573.043 0.310513 -0.766492 0
M  V30 5979 H 575.589 -0.117164 -1.69295 0
M  V30 5980 H 574.361 0.0622264 -3.91251 0
M  V30 5981 H 573.984 1.74338 -3.5734 0
M  V30 5982 N 574.981 1.5647 0.188427 0
M  V30 5983 C 575.944 1.9421 1.21718 0
M  V30 5984 C 576.944 0.823901 1.38089 0
M  V30 5985 O 578.134 1.09122 1.35787 0
M  V30 5986 C 575.266 2.22197 2.58537 0
M  V30 5987 H 576.459 2.86252 0.894418 0
M  V30 5988 H 574.012 1.50263 0.430211 0
M  V30 5989 H 574.747 1.32814 2.95856 0
M  V30 5990 H 574.532 3.03688 2.48025 0
M  V30 5991 H 576.022 2.52376 3.3271 0
M  V30 5992 N 576.459 -0.456382 1.50847 0
M  V30 5993 C 577.687 -1.23026 1.66349 0
M  V30 5994 C 578.102 -1.85473 0.352868 0
M  V30 5995 O 577.459 -1.69885 -0.666739 0
M  V30 5996 C 577.51 -2.32827 2.76539 0
M  V30 5997 O 577.231 -1.72938 4.02522 0
M  V30 5998 C 578.732 -3.23448 3.03144 0
M  V30 5999 H 575.952 -0.371527 0.558756 0
M  V30 6000 H 578.496 -0.543082 1.97157 0
M  V30 6001 H 576.651 -2.97294 2.48384 0
M  V30 6002 H 577.065 -2.45357 4.63573 0
M  V30 6003 H 578.539 -3.96669 3.83872 0
M  V30 6004 H 579.016 -3.83094 2.14793 0
M  V30 6005 H 579.622 -2.64702 3.32886 0
M  V30 6006 N 577.937 -1.40673 -0.710563 0
M  V30 6007 C 578.885 -1.41517 -1.84596 0
M  V30 6008 C 579.879 -0.295043 -1.66811 0
M  V30 6009 O 581.085 -0.466331 -1.73854 0
M  V30 6010 H 577.46 -0.442467 -0.608052 0
M  V30 6011 H 579.431 -2.37238 -1.80999 0
M  V30 6012 C 578.18 -1.29957 -3.225 0
M  V30 6013 H 577.503 -2.15429 -3.36794 0
M  V30 6014 H 578.943 -1.34608 -4.02066 0
M  V30 6015 C 577.402 -0.0103164 -3.36898 0
M  V30 6016 O 577.932 0.950707 -3.90288 0
M  V30 6017 N 576.138 0.0608409 -2.90536 0
M  V30 6018 H 575.685 -0.721943 -2.47277 0
M  V30 6019 H 575.643 0.92292 -3.00549 0
M  V30 6020 N 579.415 0.9433 -1.26252 0
M  V30 6021 C 580.363 2.06302 -1.07434 0
M  V30 6022 C 581.357 1.694 -0.00189471 0
M  V30 6023 O 582.563 1.79302 -0.158408 0
M  V30 6024 H 578.938 0.675453 -0.330556 0
M  V30 6025 H 580.909 2.19326 -2.02333 0
M  V30 6026 C 579.658 3.40125 -0.721817 0
M  V30 6027 H 578.981 3.68996 -1.5389 0
M  V30 6028 H 580.421 4.19295 -0.629922 0
M  V30 6029 C 578.88 3.31993 0.572902 0
M  V30 6030 O 579.41 3.67945 1.61182 0
M  V30 6031 N 577.616 2.85099 0.562748 0
M  V30 6032 H 577.163 2.5604 -0.283092 0
M  V30 6033 H 577.121 2.80041 1.42915 0
M  V30 6034 N 580.893 1.08022 1.14757 0
M  V30 6035 C 582.14 0.807509 1.85703 0
M  V30 6036 C 582.468 -0.666617 1.8272 0
M  V30 6037 O 581.723 -1.50562 1.25018 0
M  V30 6038 C 582.022 1.26964 3.34088 0
M  V30 6039 C 581.688 2.7509 3.57262 0
M  V30 6040 C 580.35 3.15547 3.63296 0
M  V30 6041 C 582.702 3.70667 3.66409 0
M  V30 6042 C 580.03 4.50384 3.75994 0
M  V30 6043 C 582.382 5.05274 3.80632 0
M  V30 6044 C 581.046 5.45342 3.84913 0
M  V30 6045 H 580.316 0.295488 0.679535 0
M  V30 6046 H 582.963 1.35245 1.35577 0
M  V30 6047 H 581.268 0.644216 3.86467 0
M  V30 6048 H 582.965 1.03544 3.87401 0
M  V30 6049 H 579.555 2.42775 3.53212 0
M  V30 6050 H 583.739 3.40533 3.61041 0
M  V30 6051 H 578.995 4.80886 3.77569 0
M  V30 6052 H 583.169 5.79201 3.86652 0
M  V30 6053 H 580.796 6.49823 3.94505 0
M  V30 6054 N 582.371 -1.3172 0.865308 0
M  V30 6055 C 583.596 -2.01591 0.487415 0
M  V30 6056 C 584.021 -1.6455 -0.911307 0
M  V30 6057 O 583.379 -0.851689 -1.6005 0
M  V30 6058 C 583.427 -3.54759 0.646401 0
M  V30 6059 O 582.531 -4.11185 -0.316284 0
M  V30 6060 H 581.872 -0.634884 0.194468 0
M  V30 6061 H 584.402 -1.68024 1.16744 0
M  V30 6062 H 584.412 -4.04438 0.537932 0
M  V30 6063 H 583.087 -3.8106 1.66632 0
M  V30 6064 H 581.664 -3.72543 -0.163162 0
M  V30 6065 N 583.85 -0.624285 -1.44708 0
M  V30 6066 C 585.08 -0.132726 -2.06173 0
M  V30 6067 C 585.488 1.19513 -1.46674 0
M  V30 6068 O 584.831 1.74254 -0.581491 0
M  V30 6069 C 584.893 0.0636732 -3.59444 0
M  V30 6070 C 584.557 -1.18496 -4.4137 0
M  V30 6071 C 585.553 -2.10706 -4.75288 0
M  V30 6072 C 583.239 -1.41846 -4.81856 0
M  V30 6073 C 585.233 -3.24582 -5.48567 0
M  V30 6074 C 582.92 -2.5602 -5.54885 0
M  V30 6075 C 583.918 -3.47215 -5.88159 0
M  V30 6076 O 583.606 -4.59399 -6.59703 0
M  V30 6077 H 583.338 -0.0737313 -0.671967 0
M  V30 6078 H 585.892 -0.856789 -1.86677 0
M  V30 6079 H 584.122 0.842809 -3.77404 0
M  V30 6080 H 585.811 0.508924 -4.02697 0
M  V30 6081 H 586.577 -1.93898 -4.44554 0
M  V30 6082 H 582.456 -0.717556 -4.55381 0
M  V30 6083 H 586 -3.95785 -5.74456 0
M  V30 6084 H 581.897 -2.72774 -5.85034 0
M  V30 6085 H 582.665 -4.58293 -6.78166 0
M  V30 6086 N 585.328 1.53329 -0.364422 0
M  V30 6087 C 586.574 2.01537 0.225969 0
M  V30 6088 C 586.907 1.25128 1.48515 0
M  V30 6089 O 586.182 0.344653 1.91422 0
M  V30 6090 C 586.465 3.56339 0.519092 0
M  V30 6091 C 586.318 4.43441 -0.753639 0
M  V30 6092 C 587.637 4.19833 1.32015 0
M  V30 6093 H 584.756 0.732573 0.0806548 0
M  V30 6094 H 587.398 1.83597 -0.489084 0
M  V30 6095 H 585.548 3.71756 1.12825 0
M  V30 6096 H 587.22 4.39823 -1.39116 0
M  V30 6097 H 585.463 4.11457 -1.37424 0
M  V30 6098 H 586.134 5.49699 -0.503517 0
M  V30 6099 H 588.61 4.08242 0.804859 0
M  V30 6100 H 587.486 5.28177 1.49399 0
M  V30 6101 H 587.747 3.75821 2.32832 0
M  V30 6102 N 586.806 0.0935595 1.57322 0
M  V30 6103 C 588.053 -0.570509 1.94297 0
M  V30 6104 C 588.381 -1.68286 0.97519 0
M  V30 6105 O 587.636 -1.95699 -0.00548655 0
M  V30 6106 C 587.935 -1.16692 3.37813 0
M  V30 6107 C 587.601 -0.178509 4.50547 0
M  V30 6108 C 586.263 0.0933475 4.81109 0
M  V30 6109 C 588.615 0.496472 5.1883 0
M  V30 6110 C 585.943 1.0469 5.77284 0
M  V30 6111 C 588.295 1.43849 6.16028 0
M  V30 6112 C 586.959 1.71859 6.44997 0
M  V30 6113 H 586.229 -0.208764 0.710984 0
M  V30 6114 H 588.876 0.169066 1.90752 0
M  V30 6115 H 587.181 -1.98271 3.37929 0
M  V30 6116 H 588.878 -1.6884 3.63722 0
M  V30 6117 H 585.468 -0.400584 4.26724 0
M  V30 6118 H 589.652 0.299584 4.95395 0
M  V30 6119 H 584.908 1.27094 5.98044 0
M  V30 6120 H 589.082 1.96734 6.68034 0
M  V30 6121 H 586.709 2.45906 7.19329 0
M  V30 6122 N 588.284 -1.56567 -0.180126 0
M  V30 6123 C 589.514 -1.85349 -0.912647 0
M  V30 6124 C 589.922 -0.675795 -1.76719 0
M  V30 6125 O 589.265 0.3645 -1.80047 0
M  V30 6126 C 589.327 -3.08431 -1.84691 0
M  V30 6127 C 588.991 -4.41694 -1.17284 0
M  V30 6128 C 589.988 -5.17062 -0.542532 0
M  V30 6129 C 587.673 -4.8843 -1.17223 0
M  V30 6130 C 589.667 -6.37351 0.0793953 0
M  V30 6131 C 587.354 -6.08652 -0.54647 0
M  V30 6132 C 588.352 -6.82955 0.0782458 0
M  V30 6133 O 588.04 -8.00897 0.694158 0
M  V30 6134 H 587.772 -0.619286 -0.271036 0
M  V30 6135 H 590.326 -2.0454 -0.187768 0
M  V30 6136 H 588.556 -2.85163 -2.61188 0
M  V30 6137 H 590.245 -3.23733 -2.44851 0
M  V30 6138 H 591.011 -4.8204 -0.535045 0
M  V30 6139 H 586.89 -4.30542 -1.64788 0
M  V30 6140 H 590.434 -6.95287 0.567612 0
M  V30 6141 H 586.331 -6.4314 -0.55151 0
M  V30 6142 H 587.099 -8.16352 0.592537 0
M  V30 6143 N 589.762 0.448376 -1.51087 0
M  V30 6144 C 590.695 1.56298 -1.66272 0
M  V30 6145 C 591.673 1.54381 -0.510419 0
M  V30 6146 O 592.857 1.73671 -0.732854 0
M  V30 6147 C 589.984 2.94883 -1.66618 0
M  V30 6148 C 589.03 3.14868 -2.87681 0
M  V30 6149 S 589.863 2.9234 -4.48662 0
M  V30 6150 C 591.019 4.33227 -4.51735 0
M  V30 6151 H 591.252 1.43182 -2.6055 0
M  V30 6152 H 588.785 0.637309 -1.40633 0
M  V30 6153 H 590.743 3.74771 -1.67502 0
M  V30 6154 H 589.404 3.05371 -0.735358 0
M  V30 6155 H 588.597 4.16166 -2.84292 0
M  V30 6156 H 588.199 2.42788 -2.84482 0
M  V30 6157 H 590.491 5.26247 -4.26697 0
M  V30 6158 H 591.434 4.41653 -5.53487 0
M  V30 6159 H 591.842 4.16367 -3.81181 0
M  V30 6160 N 591.24 1.41047 0.703093 0
M  V30 6161 C 592.465 1.43537 1.49706 0
M  V30 6162 C 592.89 0.0401853 1.88057 0
M  V30 6163 O 592.248 -0.954785 1.54122 0
M  V30 6164 C 592.296 2.3433 2.74084 0
M  V30 6165 O 591.4 1.79515 3.71279 0
M  V30 6166 H 590.741 0.487454 0.450871 0
M  V30 6167 H 593.271 1.85422 0.86486 0
M  V30 6168 H 593.281 2.49947 3.22476 0
M  V30 6169 H 591.956 3.35708 2.45506 0
M  V30 6170 H 590.533 1.7331 3.30179 0
M  V30 6171 N 592.718 -0.936591 1.26751 0
M  V30 6172 C 593.943 -1.72288 1.15462 0
M  V30 6173 C 594.368 -1.85915 -0.285887 0
M  V30 6174 O 593.726 -1.35272 -1.20711 0
M  V30 6175 C 593.774 -3.10503 1.83359 0
M  V30 6176 O 592.878 -3.96745 1.1255 0
M  V30 6177 H 592.219 -0.52843 0.402067 0
M  V30 6178 H 594.749 -1.17271 1.67656 0
M  V30 6179 H 594.759 -3.60867 1.90365 0
M  V30 6180 H 593.434 -2.99901 2.88153 0
M  V30 6181 H 592.011 -3.55191 1.13551 0
M  V30 6182 N 594.196 -1.08629 -1.14182 0
M  V30 6183 C 595.443 -0.817345 -1.85272 0
M  V30 6184 C 595.771 0.656917 -1.83071 0
M  V30 6185 O 595.026 1.49897 -1.25815 0
M  V30 6186 C 595.325 -1.28734 -3.3341 0
M  V30 6187 C 594.991 -2.76981 -3.55798 0
M  V30 6188 C 593.653 -3.17469 -3.61617 0
M  V30 6189 C 596.005 -3.72605 -3.64438 0
M  V30 6190 C 593.333 -4.52371 -3.736 0
M  V30 6191 C 595.685 -5.07286 -3.77947 0
M  V30 6192 C 594.349 -5.47376 -3.82016 0
M  V30 6193 H 593.619 -0.299088 -0.677958 0
M  V30 6194 H 596.266 -1.35962 -1.34857 0
M  V30 6195 H 594.571 -0.664702 -3.8612 0
M  V30 6196 H 596.268 -1.05598 -3.86846 0
M  V30 6197 H 592.858 -2.44644 -3.51919 0
M  V30 6198 H 597.042 -3.42443 -3.5923 0
M  V30 6199 H 592.298 -4.82882 -3.75013 0
M  V30 6200 H 596.472 -5.81243 -3.83575 0
M  V30 6201 H 594.099 -6.51906 -3.91054 0
M  V30 6202 N 595.674 1.31259 -0.872281 0
M  V30 6203 C 596.921 1.96622 -0.484365 0
M  V30 6204 C 597.249 1.68939 0.963841 0
M  V30 6205 O 596.504 0.97974 1.6941 0
M  V30 6206 C 596.803 3.50659 -0.690889 0
M  V30 6207 C 596.469 3.98366 -2.11224 0
M  V30 6208 C 595.131 4.11104 -2.50094 0
M  V30 6209 C 597.483 4.23425 -3.0391 0
M  V30 6210 C 594.811 4.46254 -3.80887 0
M  V30 6211 C 597.163 4.60039 -4.3422 0
M  V30 6212 C 595.827 4.70984 -4.73001 0
M  V30 6213 H 595.097 0.71949 -0.177242 0
M  V30 6214 H 597.744 1.56353 -1.10571 0
M  V30 6215 H 596.049 3.91798 0.0135782 0
M  V30 6216 H 597.746 3.99284 -0.370534 0
M  V30 6217 H 594.336 3.88949 -1.80047 0
M  V30 6218 H 598.52 4.13075 -2.75104 0
M  V30 6219 H 593.776 4.52926 -4.10692 0
M  V30 6220 H 597.95 4.78381 -5.06088 0
M  V30 6221 H 595.577 4.97977 -5.7439 0
M  V30 6222 N 597.152 0.631951 1.44375 0
M  V30 6223 C 598.082 -0.0593243 2.33425 0
M  V30 6224 C 599.063 -0.833964 1.48253 0
M  V30 6225 O 600.248 -0.799682 1.76971 0
M  V30 6226 C 597.378 -1.04096 3.31333 0
M  V30 6227 C 596.332 -0.377899 4.26328 0
M  V30 6228 C 595.658 -1.4695 5.14111 0
M  V30 6229 C 596.958 0.716371 5.17364 0
M  V30 6230 H 598.652 0.684287 2.91475 0
M  V30 6231 H 596.198 0.330518 1.40156 0
M  V30 6232 H 598.151 -1.53331 3.92514 0
M  V30 6233 H 596.875 -1.81547 2.71493 0
M  V30 6234 H 595.534 0.0938054 3.6648 0
M  V30 6235 H 595.182 -2.2349 4.50623 0
M  V30 6236 H 594.882 -1.03121 5.78481 0
M  V30 6237 H 596.406 -1.96363 5.78164 0
M  V30 6238 H 597.82 0.307089 5.72477 0
M  V30 6239 H 596.217 1.07784 5.90341 0
M  V30 6240 H 597.287 1.58316 4.58327 0
M  V30 6241 N 598.631 -1.53133 0.372548 0
M  V30 6242 C 599.88 -2.00539 -0.216115 0
M  V30 6243 C 600.193 -1.26374 -1.49295 0
M  V30 6244 O 601.399 -1.64404 -2.16064 0
M  V30 6245 C 599.855 -3.57253 -0.435678 0
M  V30 6246 C 599.463 -4.40302 0.82693 0
M  V30 6247 C 601.207 -4.12995 -0.981618 0
M  V30 6248 C 599.114 -5.88583 0.576567 0
M  V30 6249 H 598.044 -0.749246 -0.084536 0
M  V30 6250 H 600.695 -1.76771 0.492364 0
M  V30 6251 H 599.077 -3.77202 -1.20559 0
M  V30 6252 H 600.251 -4.32124 1.60017 0
M  V30 6253 H 598.566 -3.95699 1.29659 0
M  V30 6254 H 601.163 -5.21418 -1.18436 0
M  V30 6255 H 601.506 -3.68027 -1.94581 0
M  V30 6256 H 602.039 -3.96871 -0.271696 0
M  V30 6257 H 598.778 -6.37841 1.51128 0
M  V30 6258 H 598.298 -5.99592 -0.158047 0
M  V30 6259 H 599.977 -6.46676 0.204722 0
M  V30 6260 N 600.109 -0.101901 -1.5727 0
M  V30 6261 C 601.334 0.571759 -1.99363 0
M  V30 6262 C 601.759 1.60507 -0.980768 0
M  V30 6263 O 601.117 1.81231 0.0498517 0
M  V30 6264 C 601.165 1.18996 -3.404 0
M  V30 6265 O 600.269 2.30572 -3.41922 0
M  V30 6266 H 599.61 0.144449 -0.648098 0
M  V30 6267 H 602.14 -0.185325 -2.03759 0
M  V30 6268 H 602.15 1.52962 -3.78241 0
M  V30 6269 H 600.825 0.432984 -4.1364 0
M  V30 6270 H 599.402 1.98173 -3.15883 0
M  V30 6271 N 601.587 1.56661 0.17182 0
M  V30 6272 C 602.55 1.9549 1.19651 0
M  V30 6273 C 603.55 0.838501 1.37207 0
M  V30 6274 O 604.74 1.10556 1.34622 0
M  V30 6275 C 601.872 2.24927 2.56166 0
M  V30 6276 H 603.065 2.87184 0.864007 0
M  V30 6277 H 600.618 1.50711 0.41425 0
M  V30 6278 H 601.353 1.35944 2.94431 0
M  V30 6279 H 601.138 3.06301 2.4479 0
M  V30 6280 H 602.628 2.55891 3.30014 0
M  V30 6281 N 603.065 -0.440357 1.51323 0
M  V30 6282 C 604.028 -1.51679 1.71832 0
M  V30 6283 C 605.028 -1.49648 0.588386 0
M  V30 6284 O 606.218 -1.51724 0.855891 0
M  V30 6285 C 603.35 -2.91228 1.77199 0
M  V30 6286 H 604.543 -1.34799 2.67898 0
M  V30 6287 H 602.096 -0.66883 1.41267 0
M  V30 6288 H 602.831 -3.13516 0.829363 0
M  V30 6289 H 602.616 -2.94107 2.59314 0
M  V30 6290 H 604.106 -3.69321 1.94915 0
M  V30 6291 N 604.543 -1.41418 -0.695603 0
M  V30 6292 C 605.473 -1.46035 -1.82197 0
M  V30 6293 C 606.454 -0.319025 -1.67082 0
M  V30 6294 O 607.639 -0.530462 -1.86815 0
M  V30 6295 C 604.769 -1.34179 -3.20333 0
M  V30 6296 C 603.723 -2.46123 -3.50154 0
M  V30 6297 C 603.049 -2.19332 -4.87645 0
M  V30 6298 C 604.349 -3.88463 -3.49133 0
M  V30 6299 H 606.043 -2.40303 -1.78591 0
M  V30 6300 H 603.589 -1.15663 -0.857797 0
M  V30 6301 H 605.542 -1.36021 -3.98844 0
M  V30 6302 H 604.266 -0.363952 -3.24566 0
M  V30 6303 H 602.925 -2.43563 -2.73994 0
M  V30 6304 H 602.573 -1.19891 -4.88503 0
M  V30 6305 H 602.273 -2.94344 -5.08562 0
M  V30 6306 H 603.797 -2.22889 -5.68465 0
M  V30 6307 H 605.211 -3.92738 -4.17648 0
M  V30 6308 H 603.608 -4.63158 -3.81582 0
M  V30 6309 H 604.678 -4.16617 -2.48109 0
M  V30 6310 N 606.021 0.929856 -1.27246 0
M  V30 6311 C 607.268 1.67731 -1.13457 0
M  V30 6312 C 607.596 1.9185 0.319998 0
M  V30 6313 O 606.851 1.50524 1.25064 0
M  V30 6314 C 607.15 3.05116 -1.86115 0
M  V30 6315 C 606.816 3.00715 -3.35978 0
M  V30 6316 C 605.478 2.99222 -3.76855 0
M  V30 6317 C 607.83 2.92168 -4.3161 0
M  V30 6318 C 605.158 2.86962 -5.11732 0
M  V30 6319 C 607.51 2.81449 -5.66542 0
M  V30 6320 C 606.174 2.78305 -6.06715 0
M  V30 6321 H 605.444 0.613772 -0.415168 0
M  V30 6322 H 608.091 1.08456 -1.57827 0
M  V30 6323 H 606.396 3.68083 -1.34246 0
M  V30 6324 H 608.093 3.61822 -1.72876 0
M  V30 6325 H 604.683 3.02664 -3.03468 0
M  V30 6326 H 608.867 2.92421 -4.01003 0
M  V30 6327 H 604.123 2.82913 -5.42006 0
M  V30 6328 H 608.297 2.738 -6.40317 0
M  V30 6329 H 605.924 2.68561 -7.11181 0
M  V30 6330 N 607.499 1.09233 1.13605 0
M  V30 6331 C 608.432 0.6739 2.18023 0
M  V30 6332 C 609.41 -0.318603 1.59448 0
M  V30 6333 O 610.594 -0.220452 1.87206 0
M  V30 6334 C 607.721 -0.00751458 3.38699 0
M  V30 6335 C 606.767 0.946481 4.15865 0
M  V30 6336 S 607.6 2.45753 4.75779 0
M  V30 6337 C 608.756 1.78846 5.99804 0
M  V30 6338 H 608.989 1.55846 2.53178 0
M  V30 6339 H 606.522 0.908118 1.2487 0
M  V30 6340 H 608.48 -0.394368 4.08601 0
M  V30 6341 H 607.141 -0.868693 3.01849 0
M  V30 6342 H 606.334 0.416742 5.02274 0
M  V30 6343 H 605.936 1.27464 3.51609 0
M  V30 6344 H 608.228 1.11135 6.68323 0
M  V30 6345 H 609.171 2.63163 6.57382 0
M  V30 6346 H 609.579 1.25823 5.50299 0
M  V30 6347 N 608.977 -1.30795 0.87923 0
M  V30 6348 C 610.225 -1.95974 0.493809 0
M  V30 6349 C 610.546 -1.69787 -0.959021 0
M  V30 6350 O 609.816 -1.01832 -1.67353 0
M  V30 6351 H 608.396 -0.725083 0.179622 0
M  V30 6352 H 611.058 -1.59432 1.12105 0
M  V30 6353 H 610.154 -3.05058 0.659263 0
M  V30 6354 N 610.455 -0.639598 -1.44038 0
M  V30 6355 C 611.703 -0.147188 -2.01563 0
M  V30 6356 C 612.024 1.2384 -1.50628 0
M  V30 6357 O 611.294 1.82452 -0.713316 0
M  V30 6358 H 609.874 -0.0514231 -0.745228 0
M  V30 6359 H 612.536 -0.828205 -1.76428 0
M  V30 6360 H 611.632 -0.121358 -3.11864 0
M  V30 6361 N 611.933 1.52934 -0.380664 0
M  V30 6362 C 613.158 2.06363 0.207157 0
M  V30 6363 C 613.583 1.25122 1.4045 0
M  V30 6364 O 612.941 0.274062 1.79217 0
M  V30 6365 C 612.989 3.56162 0.563996 0
M  V30 6366 O 612.093 3.77552 1.65917 0
M  V30 6367 H 611.434 0.663468 0.0265859 0
M  V30 6368 H 613.964 1.9719 -0.545635 0
M  V30 6369 H 613.974 3.99453 0.830752 0
M  V30 6370 H 612.649 4.14732 -0.311427 0
M  V30 6371 H 611.226 3.46154 1.3868 0
M  V30 6372 N 613.412 0.11024 1.57214 0
M  V30 6373 C 614.659 -0.54987 1.94891 0
M  V30 6374 C 614.987 -1.67243 0.992984 0
M  V30 6375 O 614.242 -1.95694 0.0152703 0
M  V30 6376 C 614.541 -1.13102 3.39032 0
M  V30 6377 C 614.207 -0.130713 4.5071 0
M  V30 6378 C 612.869 0.14437 4.80983 0
M  V30 6379 C 615.221 0.551472 5.18274 0
M  V30 6380 C 612.549 1.10807 5.76141 0
M  V30 6381 C 614.901 1.50375 6.14467 0
M  V30 6382 C 613.565 1.78691 6.43138 0
M  V30 6383 H 612.835 -0.201212 0.713158 0
M  V30 6384 H 615.482 0.189288 1.90562 0
M  V30 6385 H 613.787 -1.94675 3.40013 0
M  V30 6386 H 615.484 -1.64973 3.65493 0
M  V30 6387 H 612.074 -0.355301 4.27125 0
M  V30 6388 H 616.258 0.35211 4.95049 0
M  V30 6389 H 611.514 1.3343 5.96663 0
M  V30 6390 H 615.688 2.03808 6.65909 0
M  V30 6391 H 613.315 2.53522 7.1668 0
M  V30 6392 N 614.89 -1.56749 -0.16351 0
M  V30 6393 C 616.12 -1.86307 -0.892936 0
M  V30 6394 C 616.528 -0.6945 -1.75992 0
M  V30 6395 O 615.871 0.345384 -1.80424 0
M  V30 6396 C 615.933 -3.10372 -1.81409 0
M  V30 6397 C 615.597 -4.42913 -1.12593 0
M  V30 6398 C 616.594 -5.17608 -0.487661 0
M  V30 6399 C 614.279 -4.89646 -1.12035 0
M  V30 6400 C 616.273 -6.3723 0.14699 0
M  V30 6401 C 613.96 -6.09197 -0.481883 0
M  V30 6402 C 614.958 -6.82834 0.150678 0
M  V30 6403 O 614.646 -8.00116 0.779065 0
M  V30 6404 H 614.378 -0.622126 -0.264452 0
M  V30 6405 H 616.932 -2.04728 -0.166063 0
M  V30 6406 H 615.162 -2.87917 -2.58148 0
M  V30 6407 H 616.851 -3.26312 -2.41403 0
M  V30 6408 H 617.617 -4.8258 -0.483888 0
M  V30 6409 H 613.496 -4.32265 -1.60212 0
M  V30 6410 H 617.04 -6.94646 0.641325 0
M  V30 6411 H 612.937 -6.43688 -0.483266 0
M  V30 6412 H 613.705 -8.15678 0.679089 0
M  V30 6413 N 616.368 0.432326 -1.51554 0
M  V30 6414 C 617.331 1.50765 -1.72634 0
M  V30 6415 C 618.331 1.49334 -0.596314 0
M  V30 6416 O 619.521 1.51268 -0.863925 0
M  V30 6417 C 616.653 2.90284 -1.7874 0
M  V30 6418 H 617.846 1.33377 -2.68609 0
M  V30 6419 H 615.399 0.661329 -1.4162 0
M  V30 6420 H 616.134 3.13071 -0.845977 0
M  V30 6421 H 615.919 2.92727 -2.6087 0
M  V30 6422 H 617.409 3.68282 -1.96871 0
M  V30 6423 N 617.846 1.41785 0.688094 0
M  V30 6424 C 618.776 1.47 1.8142 0
M  V30 6425 C 619.757 0.327881 1.6691 0
M  V30 6426 O 620.942 0.540362 1.86531 0
M  V30 6427 C 618.072 1.35876 3.19617 0
M  V30 6428 C 617.026 2.47976 3.48844 0
M  V30 6429 C 616.352 2.21915 4.86475 0
M  V30 6430 C 617.652 3.90309 3.47068 0
M  V30 6431 H 619.346 2.41247 1.77314 0
M  V30 6432 H 616.892 1.16116 0.851651 0
M  V30 6433 H 618.845 1.38134 3.98117 0
M  V30 6434 H 617.569 0.38116 3.24368 0
M  V30 6435 H 616.228 2.45013 2.72698 0
M  V30 6436 H 615.876 1.2248 4.8786 0
M  V30 6437 H 615.576 2.97037 5.06994 0
M  V30 6438 H 617.1 2.25901 5.67275 0
M  V30 6439 H 618.514 3.94947 4.1556 0
M  V30 6440 H 616.911 4.65175 3.7912 0
M  V30 6441 H 617.981 4.17927 2.45896 0
M  V30 6442 N 619.324 -0.923095 1.27737 0
M  V30 6443 C 620.256 -2.02871 1.06658 0
M  V30 6444 C 621.269 -1.62786 0.0212095 0
M  V30 6445 O 622.458 -1.76548 0.263267 0
M  V30 6446 C 619.558 -3.33603 0.59682 0
M  V30 6447 C 618.731 -4.02354 1.71551 0
M  V30 6448 C 617.79 -5.11364 1.24071 0
M  V30 6449 O 616.816 -5.35075 1.94123 0
M  V30 6450 N 618.018 -5.80416 0.0988444 0
M  V30 6451 H 620.783 -2.21515 2.01869 0
M  V30 6452 H 618.344 -1.09378 1.19365 0
M  V30 6453 H 620.336 -4.03845 0.262984 0
M  V30 6454 H 618.906 -3.11499 -0.262187 0
M  V30 6455 H 618.126 -3.25786 2.2194 0
M  V30 6456 H 619.414 -4.45035 2.46619 0
M  V30 6457 H 618.812 -5.63611 -0.485743 0
M  V30 6458 H 617.369 -6.51563 -0.17578 0
M  V30 6459 N 620.802 -1.09834 -1.13024 0
M  V30 6460 C 621.749 -0.741522 -2.18564 0
M  V30 6461 C 622.719 0.279236 -1.63736 0
M  V30 6462 O 623.904 0.159923 -1.90129 0
M  V30 6463 C 621.044 -0.17277 -3.44667 0
M  V30 6464 C 620.157 -1.24808 -4.13578 0
M  V30 6465 C 619.292 -0.641631 -5.27311 0
M  V30 6466 C 618.331 -1.69795 -5.88078 0
M  V30 6467 N 617.468 -1.11223 -6.93234 0
M  V30 6468 H 622.308 -1.64576 -2.48432 0
M  V30 6469 H 619.845 -0.822174 -1.21978 0
M  V30 6470 H 621.803 0.17482 -4.16834 0
M  V30 6471 H 620.433 0.694725 -3.15235 0
M  V30 6472 H 619.485 -1.71288 -3.39653 0
M  V30 6473 H 620.797 -2.04795 -4.54819 0
M  V30 6474 H 619.951 -0.243128 -6.06213 0
M  V30 6475 H 618.69 0.189742 -4.87331 0
M  V30 6476 H 617.695 -2.10595 -5.07868 0
M  V30 6477 H 618.92 -2.53206 -6.3013 0
M  V30 6478 H 616.866 -0.302208 -6.55304 0
M  V30 6479 H 616.783 -1.84901 -7.3304 0
M  V30 6480 H 618.051 -0.740068 -7.75979 0
M  V30 6481 N 622.28 1.30327 -0.886154 0
M  V30 6482 C 623.227 2.28099 -0.352069 0
M  V30 6483 C 624.197 1.56433 0.558397 0
M  V30 6484 O 625.382 1.84492 0.486561 0
M  V30 6485 C 622.522 3.42456 0.426346 0
M  V30 6486 C 621.635 4.28938 -0.513472 0
M  V30 6487 C 620.77 5.30458 0.280657 0
M  V30 6488 C 619.809 6.0859 -0.654556 0
M  V30 6489 N 618.946 7.02022 0.104322 0
M  V30 6490 H 623.786 2.73166 -1.19097 0
M  V30 6491 H 621.323 1.34367 -0.598662 0
M  V30 6492 H 623.281 4.07518 0.893587 0
M  V30 6493 H 621.911 2.98455 1.22981 0
M  V30 6494 H 620.963 3.64173 -1.09921 0
M  V30 6495 H 622.275 4.83399 -1.2299 0
M  V30 6496 H 621.429 6.01273 0.8097 0
M  V30 6497 H 620.168 4.76693 1.03029 0
M  V30 6498 H 619.173 5.36651 -1.19522 0
M  V30 6499 H 620.398 6.64443 -1.4033 0
M  V30 6500 H 618.344 6.50645 0.836472 0
M  V30 6501 H 618.261 7.53979 -0.552453 0
M  V30 6502 H 619.529 7.77077 0.614069 0
M  V30 6503 N 623.758 0.647228 1.43697 0
M  V30 6504 C 624.668 -0.0487997 2.34549 0
M  V30 6505 C 625.684 -0.818586 1.53542 0
M  V30 6506 O 626.86 -0.767195 1.86215 0
M  V30 6507 C 623.925 -1.00734 3.31743 0
M  V30 6508 C 622.986 -0.23515 4.28655 0
M  V30 6509 C 622.219 -1.14803 5.21206 0
M  V30 6510 O 622.442 -2.38717 5.18045 0
M  V30 6511 O 621.376 -0.623667 5.9866 0
M  V30 6512 H 625.202 0.698863 2.9555 0
M  V30 6513 H 622.787 0.407412 1.43738 0
M  V30 6514 H 624.669 -1.55837 3.91526 0
M  V30 6515 H 623.344 -1.73534 2.73254 0
M  V30 6516 H 622.251 0.359319 3.7237 0
M  V30 6517 H 623.584 0.453152 4.9011 0
M  V30 6518 N 625.236 -1.5273 0.388769 0
M  V30 6519 C 626.168 -2.24081 -0.481704 0
M  V30 6520 C 627.181 -1.26307 -1.02715 0
M  V30 6521 O 628.37 -1.52386 -0.929565 0
M  V30 6522 C 625.47 -2.94315 -1.68024 0
M  V30 6523 C 624.643 -4.18791 -1.26226 0
M  V30 6524 C 623.702 -4.72028 -2.32542 0
M  V30 6525 O 622.728 -5.35129 -1.93972 0
M  V30 6526 N 623.93 -4.51838 -3.64448 0
M  V30 6527 H 626.695 -2.9942 0.129591 0
M  V30 6528 H 624.256 -1.60465 0.2151 0
M  V30 6529 H 626.248 -3.26831 -2.38671 0
M  V30 6530 H 624.818 -2.22287 -2.19789 0
M  V30 6531 H 624.038 -3.92318 -0.384703 0
M  V30 6532 H 625.326 -4.99668 -0.959647 0
M  V30 6533 H 624.724 -4.01468 -3.98547 0
M  V30 6534 H 623.281 -4.88845 -4.31131 0
M  V30 6535 N 626.714 -0.118576 -1.57153 0
M  V30 6536 C 627.962 0.538461 -1.94795 0
M  V30 6537 C 628.283 1.67243 -1.00274 0
M  V30 6538 O 627.553 1.95811 -0.0589692 0
M  V30 6539 H 626.133 0.201904 -0.719197 0
M  V30 6540 H 628.795 -0.187418 -1.93997 0
M  V30 6541 H 627.891 0.933315 -2.97818 0
M  V30 6542 N 628.193 1.56834 0.155195 0
M  V30 6543 C 629.14 1.97646 1.19184 0
M  V30 6544 C 630.11 0.842788 1.4313 0
M  V30 6545 O 631.295 1.1042 1.55602 0
M  V30 6546 C 628.435 2.35527 2.52232 0
M  V30 6547 C 627.548 3.62147 2.35529 0
M  V30 6548 C 626.683 3.89167 3.61555 0
M  V30 6549 C 625.722 5.09084 3.39853 0
M  V30 6550 N 624.859 5.32156 4.5799 0
M  V30 6551 H 629.699 2.8601 0.836802 0
M  V30 6552 H 627.236 1.41507 0.401758 0
M  V30 6553 H 629.194 2.55516 3.29799 0
M  V30 6554 H 627.824 1.50253 2.85699 0
M  V30 6555 H 626.876 3.4998 1.49057 0
M  V30 6556 H 628.188 4.49871 2.15448 0
M  V30 6557 H 627.342 4.09611 4.47553 0
M  V30 6558 H 626.081 2.9985 3.84632 0
M  V30 6559 H 625.086 4.88522 2.52243 0
M  V30 6560 H 626.311 5.99947 3.18183 0
M  V30 6561 H 624.257 4.45791 4.81255 0
M  V30 6562 H 624.174 6.14133 4.40882 0
M  V30 6563 H 625.442 5.57091 5.45225 0
M  V30 6564 N 629.671 -0.424282 1.51781 0
M  V30 6565 C 630.603 -1.53457 1.70246 0
M  V30 6566 C 631.616 -1.52004 0.582967 0
M  V30 6567 O 632.805 -1.56544 0.857683 0
M  V30 6568 C 629.905 -2.92368 1.71389 0
M  V30 6569 C 629.078 -3.1818 3.00133 0
M  V30 6570 C 628.137 -4.36884 2.9329 0
M  V30 6571 O 627.163 -4.34901 3.67219 0
M  V30 6572 N 628.365 -5.4117 2.10036 0
M  V30 6573 H 631.13 -1.38017 2.66029 0
M  V30 6574 H 628.691 -0.613394 1.4983 0
M  V30 6575 H 630.683 -3.6982 1.64362 0
M  V30 6576 H 629.253 -3.0134 0.831449 0
M  V30 6577 H 628.473 -2.28908 3.20928 0
M  V30 6578 H 629.761 -3.32261 3.85331 0
M  V30 6579 H 629.159 -5.45623 1.49373 0
M  V30 6580 H 627.716 -6.17425 2.08878 0
M  V30 6581 N 631.149 -1.42148 -0.680565 0
M  V30 6582 C 632.112 -1.4488 -1.77602 0
M  V30 6583 C 633.112 -0.337209 -1.57224 0
M  V30 6584 O 634.302 -0.597778 -1.63622 0
M  V30 6585 C 631.434 -1.27483 -3.16166 0
M  V30 6586 H 632.627 -2.42412 -1.76568 0
M  V30 6587 H 630.18 -1.28511 -0.889645 0
M  V30 6588 H 630.915 -0.30851 -3.22829 0
M  V30 6589 H 630.7 -2.08037 -3.3236 0
M  V30 6590 H 632.19 -1.32265 -3.96101 0
M  V30 6591 N 632.627 0.916307 -1.28225 0
M  V30 6592 C 633.873 1.66765 -1.154 0
M  V30 6593 C 634.206 1.91912 0.297251 0
M  V30 6594 O 633.481 1.51766 1.21644 0
M  V30 6595 C 633.764 3.02715 -1.95028 0
M  V30 6596 C 633.617 2.84738 -3.48201 0
M  V30 6597 C 634.936 4.03215 -1.76369 0
M  V30 6598 H 632.055 0.605205 -0.42059 0
M  V30 6599 H 634.697 1.06255 -1.57512 0
M  V30 6600 H 632.847 3.54365 -1.59242 0
M  V30 6601 H 634.519 2.40118 -3.9388 0
M  V30 6602 H 632.762 2.19848 -3.73964 0
M  V30 6603 H 633.433 3.8127 -3.99171 0
M  V30 6604 H 635.909 3.60617 -2.07593 0
M  V30 6605 H 634.785 4.96306 -2.34459 0
M  V30 6606 H 635.046 4.36288 -0.71452 0
M  V30 6607 N 634.105 1.10431 1.1244 0
M  V30 6608 C 635.068 0.756542 2.16354 0
M  V30 6609 C 636.068 -0.21899 1.59302 0
M  V30 6610 O 637.258 0.00415969 1.742 0
M  V30 6611 C 634.39 0.120612 3.40687 0
M  V30 6612 H 635.583 1.67696 2.48632 0
M  V30 6613 H 633.136 0.904832 1.27446 0
M  V30 6614 H 633.871 -0.810536 3.14008 0
M  V30 6615 H 633.656 0.822693 3.83372 0
M  V30 6616 H 635.146 -0.106945 4.17463 0
M  V30 6617 N 635.583 -1.29855 0.893053 0
M  V30 6618 C 636.546 -2.26183 0.370687 0
M  V30 6619 C 637.546 -1.53108 -0.491385 0
M  V30 6620 O 638.736 -1.71643 -0.297386 0
M  V30 6621 C 635.868 -3.37633 -0.470827 0
M  V30 6622 H 637.061 -2.73903 1.22135 0
M  V30 6623 H 634.614 -1.41183 0.67061 0
M  V30 6624 H 635.349 -2.95241 -1.34175 0
M  V30 6625 H 635.134 -3.91825 0.146784 0
M  V30 6626 H 636.624 -4.09313 -0.827825 0
M  V30 6627 N 637.061 -0.65484 -1.43351 0
M  V30 6628 C 638.338 -0.0987371 -1.95351 0
M  V30 6629 C 638.718 1.38161 -1.59608 0
M  V30 6630 O 638.066 2.10791 -0.882021 0
M  V30 6631 C 638.276 -0.346684 -3.47274 0
M  V30 6632 C 639.624 -0.25249 -4.23849 0
M  V30 6633 O 640.648 -0.279332 -3.55103 0
M  V30 6634 O 639.507 -0.177584 -5.46211 0
M  V30 6635 H 636.601 0.0086829 -0.826954 0
M  V30 6636 H 639.147 -0.728189 -1.53282 0
M  V30 6637 H 637.919 -1.37296 -3.66423 0
M  V30 6638 H 637.542 0.315757 -3.96344 0
M  V30 6639 N 638.539 1.52521 -0.396863 0
M  V30 6640 C 639.502 2.2527 0.422604 0
M  V30 6641 C 640.502 1.27184 0.983913 0
M  V30 6642 O 641.692 1.51222 0.864723 0
M  V30 6643 C 638.824 3.01356 1.59365 0
M  V30 6644 H 640.017 2.99133 -0.214416 0
M  V30 6645 H 637.57 1.55587 -0.149128 0
M  V30 6646 H 638.305 2.31813 2.26789 0
M  V30 6647 H 638.09 3.73357 1.19779 0
M  V30 6648 H 639.58 3.56571 2.17363 0
M  V30 6649 N 640.017 0.126909 1.57088 0
M  V30 6650 C 640.947 -0.816847 2.18746 0
M  V30 6651 C 641.928 -1.27161 1.12979 0
M  V30 6652 O 643.113 -1.33279 1.41246 0
M  V30 6653 C 640.243 -2.06398 2.79315 0
M  V30 6654 C 639.197 -1.74673 3.90735 0
M  V30 6655 C 638.523 -3.06482 4.38147 0
M  V30 6656 C 639.823 -1.0089 5.12463 0
M  V30 6657 H 641.517 -0.303032 2.97863 0
M  V30 6658 H 639.063 -0.144314 1.43275 0
M  V30 6659 H 641.016 -2.72885 3.2111 0
M  V30 6660 H 639.74 -2.60118 1.975 0
M  V30 6661 H 638.399 -1.10572 3.49527 0
M  V30 6662 H 638.047 -3.58152 3.5318 0
M  V30 6663 H 637.747 -2.86025 5.13287 0
M  V30 6664 H 639.271 -3.74073 4.82599 0
M  V30 6665 H 640.685 -1.57546 5.51228 0
M  V30 6666 H 639.082 -0.905006 5.93237 0
M  V30 6667 H 640.152 0.00297335 4.849 0
M  V30 6668 N 641.495 -1.56914 -0.146875 0
M  V30 6669 C 642.405 -2.0154 -1.20079 0
M  V30 6670 C 643.421 -0.930838 -1.47008 0
M  V30 6671 O 644.597 -1.24032 -1.58676 0
M  V30 6672 C 641.662 -2.38715 -2.51428 0
M  V30 6673 C 640.723 -3.6112 -2.32145 0
M  V30 6674 C 639.956 -3.96512 -3.57231 0
M  V30 6675 O 640.179 -3.32566 -4.63418 0
M  V30 6676 O 639.113 -4.89758 -3.49887 0
M  V30 6677 H 642.939 -2.91506 -0.851924 0
M  V30 6678 H 640.524 -1.45106 -0.355607 0
M  V30 6679 H 642.406 -2.63485 -3.28867 0
M  V30 6680 H 641.081 -1.51903 -2.85845 0
M  V30 6681 H 639.988 -3.41536 -1.52656 0
M  V30 6682 H 641.321 -4.48549 -2.02644 0
M  V30 6683 N 642.974 0.416227 -1.52004 0
M  V30 6684 C 644.39 0.754319 -1.40649 0
M  V30 6685 C 644.59 1.95059 -0.505392 0
M  V30 6686 O 643.646 2.5248 0.0315057 0
M  V30 6687 C 644.959 1.0149 -2.83055 0
M  V30 6688 C 646.507 1.11805 -2.9235 0
M  V30 6689 C 646.982 1.41144 -4.35709 0
M  V30 6690 N 648.473 1.48024 -4.38911 0
M  V30 6691 C 649.208 1.72338 -5.46889 0
M  V30 6692 N 648.704 1.94303 -6.64995 0
M  V30 6693 N 650.497 1.74294 -5.34395 0
M  V30 6694 H 642.648 -0.371324 -2.09129 0
M  V30 6695 H 644.911 -0.103811 -0.942299 0
M  V30 6696 H 644.617 0.208345 -3.51082 0
M  V30 6697 H 644.491 1.93697 -3.23668 0
M  V30 6698 H 646.878 1.91521 -2.24508 0
M  V30 6699 H 646.959 0.17451 -2.55204 0
M  V30 6700 H 646.603 0.619484 -5.04108 0
M  V30 6701 H 646.533 2.36739 -4.70385 0
M  V30 6702 H 649.024 1.32868 -3.53772 0
M  V30 6703 H 649.337 2.12286 -7.43071 0
M  V30 6704 H 647.682 1.91582 -6.68073 0
M  V30 6705 H 650.873 1.56667 -4.41104 0
M  V30 6706 H 651.046 1.92904 -6.18621 0
M  V30 6707 N 644.452 1.42507 0.673017 0
M  V30 6708 C 645.729 1.33554 1.42908 0
M  V30 6709 C 646.109 -0.0262211 2.11084 0
M  V30 6710 O 645.457 -1.04181 2.03368 0
M  V30 6711 C 645.667 2.50498 2.43006 0
M  V30 6712 C 647.015 2.92694 3.07596 0
M  V30 6713 O 648.039 2.50401 2.53333 0
M  V30 6714 O 646.898 3.65899 4.05931 0
M  V30 6715 H 643.992 0.526785 0.637516 0
M  V30 6716 H 646.538 1.54518 0.701591 0
M  V30 6717 H 645.31 3.41272 1.9144 0
M  V30 6718 H 644.933 2.3153 3.23233 0
M  V30 6719 N 645.93 -0.909495 1.28709 0
M  V30 6720 C 646.86 -2.0291 1.15542 0
M  V30 6721 C 647.841 -1.7002 0.0521017 0
M  V30 6722 O 649.026 -1.92835 0.229849 0
M  V30 6723 C 646.156 -3.37458 0.820935 0
M  V30 6724 C 645.11 -3.84524 1.87949 0
M  V30 6725 C 644.436 -5.16086 1.39854 0
M  V30 6726 C 645.736 -4.05918 3.28676 0
M  V30 6727 H 647.43 -2.14183 2.09203 0
M  V30 6728 H 644.976 -1.02913 1.00722 0
M  V30 6729 H 646.929 -4.1528 0.715571 0
M  V30 6730 H 645.653 -3.26249 -0.151374 0
M  V30 6731 H 644.312 -3.08911 1.97408 0
M  V30 6732 H 643.96 -5.01284 0.41518 0
M  V30 6733 H 643.66 -5.48547 2.1064 0
M  V30 6734 H 645.184 -5.96459 1.30649 0
M  V30 6735 H 646.598 -4.74252 3.22115 0
M  V30 6736 H 644.995 -4.49717 3.97334 0
M  V30 6737 H 646.065 -3.10583 3.72379 0
M  V30 6738 N 647.408 -1.11026 -1.11852 0
M  V30 6739 C 648.655 -0.85646 -1.83497 0
M  V30 6740 C 648.983 0.617938 -1.84423 0
M  V30 6741 O 648.238 1.47194 -1.28966 0
M  V30 6742 C 648.537 -1.35777 -3.30604 0
M  V30 6743 C 648.203 -2.84465 -3.49843 0
M  V30 6744 C 646.865 -3.25068 -3.54802 0
M  V30 6745 C 649.217 -3.80251 -3.56453 0
M  V30 6746 C 646.545 -4.60194 -3.63921 0
M  V30 6747 C 648.897 -5.15188 -3.67102 0
M  V30 6748 C 647.561 -5.55356 -3.70319 0
M  V30 6749 H 646.831 -0.313401 -0.671462 0
M  V30 6750 H 649.478 -1.38792 -1.31943 0
M  V30 6751 H 647.783 -0.746455 -3.84624 0
M  V30 6752 H 649.48 -1.13779 -3.8452 0
M  V30 6753 H 646.07 -2.52054 -3.46651 0
M  V30 6754 H 650.254 -3.49986 -3.51886 0
M  V30 6755 H 645.51 -4.90728 -3.64686 0
M  V30 6756 H 649.684 -5.89248 -3.71159 0
M  V30 6757 H 647.311 -6.60054 -3.77138 0
M  V30 6758 N 648.886 1.2938 -0.899927 0
M  V30 6759 C 649.816 2.30144 -0.39446 0
M  V30 6760 C 650.797 1.61611 0.530639 0
M  V30 6761 O 651.982 1.89119 0.441319 0
M  V30 6762 C 649.112 3.45229 0.37868 0
M  V30 6763 C 648.066 4.25564 -0.456012 0
M  V30 6764 C 647.392 5.32848 0.444637 0
M  V30 6765 C 648.692 4.93651 -1.70605 0
M  V30 6766 H 650.386 2.72673 -1.23653 0
M  V30 6767 H 647.932 1.31086 -0.596034 0
M  V30 6768 H 649.885 4.14797 0.743037 0
M  V30 6769 H 648.609 3.01545 1.25453 0
M  V30 6770 H 647.268 3.57704 -0.802704 0
M  V30 6771 H 646.916 4.85408 1.31863 0
M  V30 6772 H 646.616 5.87497 -0.110154 0
M  V30 6773 H 648.14 6.05268 0.805182 0
M  V30 6774 H 649.554 5.55655 -1.41141 0
M  V30 6775 H 647.951 5.58233 -2.20217 0
M  V30 6776 H 649.021 4.18926 -2.4419 0
M  V30 6777 N 650.364 0.662433 1.43002 0
M  V30 6778 C 651.274 -0.0239199 2.34588 0
M  V30 6779 C 652.29 -0.802255 1.54402 0
M  V30 6780 O 653.466 -0.747401 1.87018 0
M  V30 6781 C 650.531 -0.972098 3.32793 0
M  V30 6782 C 649.592 -0.189673 4.28881 0
M  V30 6783 C 648.825 -1.09269 5.22395 0
M  V30 6784 O 649.048 -2.33209 5.20547 0
M  V30 6785 O 647.982 -0.560136 5.99288 0
M  V30 6786 H 651.808 0.730171 2.94792 0
M  V30 6787 H 649.393 0.422635 1.43297 0
M  V30 6788 H 651.275 -1.51676 3.93157 0
M  V30 6789 H 649.95 -1.70626 2.75079 0
M  V30 6790 H 648.857 0.398794 3.71968 0
M  V30 6791 H 650.19 0.50511 4.89601 0
M  V30 6792 N 651.842 -1.52309 0.404946 0
M  V30 6793 C 652.805 -2.25491 -0.410651 0
M  V30 6794 C 653.805 -1.27704 -0.977154 0
M  V30 6795 O 654.995 -1.51679 -0.856691 0
M  V30 6796 C 652.127 -3.02197 -1.57765 0
M  V30 6797 H 653.32 -2.99015 0.230277 0
M  V30 6798 H 650.873 -1.55506 0.157377 0
M  V30 6799 H 651.608 -2.33013 -2.25556 0
M  V30 6800 H 651.393 -3.73987 -1.17797 0
M  V30 6801 H 652.883 -3.57719 -2.15469 0
M  V30 6802 N 653.32 -0.135238 -1.57019 0
M  V30 6803 C 654.267 0.808908 -2.1616 0
M  V30 6804 C 655.237 1.25234 -1.09113 0
M  V30 6805 O 656.422 1.32697 -1.37099 0
M  V30 6806 C 653.562 2.04729 -2.77813 0
M  V30 6807 C 652.675 1.65074 -3.99218 0
M  V30 6808 C 651.81 2.84002 -4.48906 0
M  V30 6809 C 650.849 2.40663 -5.62803 0
M  V30 6810 N 649.986 3.5256 -6.07162 0
M  V30 6811 H 654.826 0.297751 -2.96509 0
M  V30 6812 H 652.363 0.135264 -1.46477 0
M  V30 6813 H 654.321 2.7731 -3.11697 0
M  V30 6814 H 652.951 2.53275 -2.00128 0
M  V30 6815 H 652.003 0.823029 -3.7139 0
M  V30 6816 H 653.315 1.29236 -4.81767 0
M  V30 6817 H 652.469 3.64788 -4.84783 0
M  V30 6818 H 651.208 3.23076 -3.65339 0
M  V30 6819 H 650.213 1.58314 -5.26514 0
M  V30 6820 H 651.438 2.02687 -6.48147 0
M  V30 6821 H 649.384 3.91278 -5.26534 0
M  V30 6822 H 649.301 3.20699 -6.84608 0
M  V30 6823 H 650.569 4.33738 -6.47682 0
M  V30 6824 N 654.798 1.5699 0.138552 0
M  V30 6825 C 656.075 1.74741 0.87891 0
M  V30 6826 C 656.455 0.705522 1.98961 0
M  V30 6827 O 655.803 -0.274066 2.2685 0
M  V30 6828 C 656.013 3.1909 1.4136 0
M  V30 6829 C 657.361 3.81023 1.87368 0
M  V30 6830 O 658.385 3.22571 1.51084 0
M  V30 6831 O 657.244 4.83722 2.54312 0
M  V30 6832 H 654.338 0.714781 0.415953 0
M  V30 6833 H 656.884 1.69248 0.123817 0
M  V30 6834 H 655.656 3.86424 0.61579 0
M  V30 6835 H 655.279 3.29043 2.23196 0
M  V30 6836 N 656.276 -0.40816 1.52223 0
M  V30 6837 C 657.524 -1.15274 1.66001 0
M  V30 6838 C 657.845 -1.91003 0.392803 0
M  V30 6839 O 657.115 -1.8673 -0.592336 0
M  V30 6840 H 655.695 -0.428526 0.611861 0
M  V30 6841 H 658.357 -0.46512 1.89269 0
M  V30 6842 H 657.453 -1.86628 2.50153 0
M  V30 6843 N 657.755 -1.42862 -0.66545 0
M  V30 6844 C 659.166 -1.3901 -1.24632 0
M  V30 6845 C 659.517 -0.0880285 -1.96002 0
M  V30 6846 O 658.642 0.812947 -2.0055 0
M  V30 6847 C 659.237 -2.51806 -2.2667 0
M  V30 6848 C 657.796 -2.51257 -2.80262 0
M  V30 6849 C 656.943 -2.30124 -1.5472 0
M  V30 6850 H 659.894 -1.5194 -0.458237 0
M  V30 6851 H 659.915 -2.22593 -3.08598 0
M  V30 6852 H 659.427 -3.46558 -1.74697 0
M  V30 6853 H 657.528 -1.60349 -3.36332 0
M  V30 6854 H 657.641 -3.48614 -3.28641 0
M  V30 6855 H 656.005 -1.7856 -1.81627 0
M  V30 6856 H 656.788 -3.26945 -1.04699 0
M  V30 6857 N 659.233 0.902656 -1.29189 0
M  V30 6858 C 660.481 1.6496 -1.16758 0
M  V30 6859 C 660.802 1.92952 0.28188 0
M  V30 6860 O 660.072 1.55351 1.19344 0
M  V30 6861 H 658.652 0.611447 -0.429118 0
M  V30 6862 H 661.314 1.0825 -1.62074 0
M  V30 6863 H 660.41 2.60728 -1.71544 0
M  V30 6864 N 660.711 1.11618 1.11262 0
M  V30 6865 C 661.658 0.7762 2.17356 0
M  V30 6866 C 662.628 -0.253152 1.6416 0
M  V30 6867 O 663.813 -0.129655 1.90359 0
M  V30 6868 C 660.953 0.227581 3.44349 0
M  V30 6869 C 660.066 1.31372 4.1154 0
M  V30 6870 C 659.201 0.72544 5.26223 0
M  V30 6871 C 658.24 1.7913 5.85302 0
M  V30 6872 N 657.377 1.22237 6.91377 0
M  V30 6873 H 662.217 1.68508 2.45783 0
M  V30 6874 H 659.754 0.841475 1.20655 0
M  V30 6875 H 661.712 -0.108483 4.17059 0
M  V30 6876 H 660.342 -0.644486 3.16301 0
M  V30 6877 H 659.394 1.7667 3.36885 0
M  V30 6878 H 660.706 2.12005 4.51504 0
M  V30 6879 H 659.86 0.339541 6.05749 0
M  V30 6880 H 658.599 -0.112188 4.87571 0
M  V30 6881 H 657.604 2.18648 5.04453 0
M  V30 6882 H 658.829 2.63199 6.26022 0
M  V30 6883 H 656.775 0.406423 6.5474 0
M  V30 6884 H 656.692 1.9654 7.30006 0
M  V30 6885 H 657.96 0.863426 7.74703 0
M  V30 6886 N 662.189 -1.289 0.906776 0
M  V30 6887 C 663.121 -2.26556 0.347159 0
M  V30 6888 C 664.134 -1.54589 -0.51049 0
M  V30 6889 O 665.323 -1.75489 -0.326501 0
M  V30 6890 C 662.423 -3.3484 -0.523024 0
M  V30 6891 C 661.596 -4.36296 0.310515 0
M  V30 6892 C 660.655 -5.23879 -0.493634 0
M  V30 6893 O 659.681 -5.69127 0.0913569 0
M  V30 6894 N 660.883 -5.51946 -1.7982 0
M  V30 6895 H 663.648 -2.75212 1.18652 0
M  V30 6896 H 661.209 -1.42309 0.771996 0
M  V30 6897 H 663.201 -3.90366 -1.06756 0
M  V30 6898 H 661.771 -2.85946 -1.26309 0
M  V30 6899 H 660.991 -3.80331 1.03644 0
M  V30 6900 H 662.279 -5.01113 0.881106 0
M  V30 6901 H 661.677 -5.17006 -2.2961 0
M  V30 6902 H 660.234 -6.10258 -2.28971 0
M  V30 6903 N 663.667 -0.670007 -1.42649 0
M  V30 6904 C 665.083 -0.33911 -1.55956 0
M  V30 6905 C 665.283 1.1558 -1.65056 0
M  V30 6906 O 664.339 1.94111 -1.61485 0
M  V30 6907 C 665.652 -1.06522 -2.812 0
M  V30 6908 C 667.2 -1.04708 -2.94966 0
M  V30 6909 C 667.675 -1.75442 -4.23065 0
M  V30 6910 N 669.166 -1.72286 -4.29967 0
M  V30 6911 C 669.901 -2.23877 -5.27889 0
M  V30 6912 N 669.397 -2.83829 -6.31991 0
M  V30 6913 N 671.19 -2.14279 -5.19654 0
M  V30 6914 H 663.341 -1.6399 -1.34986 0
M  V30 6915 H 665.604 -0.690603 -0.649439 0
M  V30 6916 H 665.31 -2.12033 -2.80597 0
M  V30 6917 H 665.184 -0.627398 -3.71946 0
M  V30 6918 H 667.571 -0.000315966 -2.951 0
M  V30 6919 H 667.652 -1.52374 -2.05465 0
M  V30 6920 H 667.296 -2.80084 -4.23693 0
M  V30 6921 H 667.226 -1.25229 -5.11493 0
M  V30 6922 H 669.717 -1.28554 -3.55362 0
M  V30 6923 H 670.03 -3.20827 -7.03057 0
M  V30 6924 H 668.375 -2.87896 -6.32567 0
M  V30 6925 H 671.566 -1.67135 -4.37245 0
M  V30 6926 H 671.739 -2.54792 -5.95806 0
M  V30 6927 N 665.145 1.52092 -0.413018 0
M  V30 6928 C 666.37 2.06756 0.163338 0
M  V30 6929 C 666.795 1.28073 1.37764 0
M  V30 6930 O 666.153 0.312015 1.78595 0
M  V30 6931 C 666.201 3.57278 0.488322 0
M  V30 6932 O 665.305 3.80986 1.57871 0
M  V30 6933 H 664.646 0.663882 0.0125068 0
M  V30 6934 H 667.176 1.95988 -0.587339 0
M  V30 6935 H 667.186 4.01125 0.745836 0
M  V30 6936 H 665.861 4.13978 -0.399327 0
M  V30 6937 H 664.438 3.49017 1.31306 0
M  V30 6938 N 666.623 0.143563 1.56945 0
M  V30 6939 C 668.034 -0.37783 1.82837 0
M  V30 6940 C 668.385 -1.64967 1.06209 0
M  V30 6941 O 667.51 -2.14221 0.306291 0
M  V30 6942 C 668.105 -0.692274 3.31652 0
M  V30 6943 C 666.664 -1.1582 3.58138 0
M  V30 6944 C 665.811 -0.17951 2.76718 0
M  V30 6945 H 668.762 0.368317 1.54367 0
M  V30 6946 H 668.783 -1.54729 3.47619 0
M  V30 6947 H 668.295 0.233572 3.87397 0
M  V30 6948 H 666.396 -2.10011 3.07776 0
M  V30 6949 H 666.509 -1.08655 4.66616 0
M  V30 6950 H 664.873 -0.671458 2.4569 0
M  V30 6951 H 665.656 0.739865 3.35233 0
M  V30 6952 N 668.101 -1.57061 -0.130224 0
M  V30 6953 C 669.011 -2.02802 -1.17934 0
M  V30 6954 C 670.027 -0.946378 -1.46013 0
M  V30 6955 O 671.203 -1.25708 -1.57351 0
M  V30 6956 C 668.268 -2.41368 -2.48882 0
M  V30 6957 C 667.329 -3.63561 -2.28301 0
M  V30 6958 C 666.562 -4.00279 -3.53005 0
M  V30 6959 O 666.785 -3.37463 -4.59864 0
M  V30 6960 O 665.719 -4.93441 -3.44673 0
M  V30 6961 H 669.545 -2.92394 -0.820958 0
M  V30 6962 H 667.13 -1.45475 -0.340197 0
M  V30 6963 H 669.012 -2.66958 -3.26054 0
M  V30 6964 H 667.687 -1.54926 -2.84217 0
M  V30 6965 H 666.594 -3.43136 -1.49025 0
M  V30 6966 H 667.927 -4.50673 -1.97875 0
M  V30 6967 N 669.579 0.400081 -1.52437 0
M  V30 6968 C 670.828 1.14332 -1.66166 0
M  V30 6969 C 671.141 1.91419 -0.402253 0
M  V30 6970 O 672.347 2.6824 -0.419487 0
M  V30 6971 C 670.803 2.08137 -2.9361 0
M  V30 6972 C 670.411 1.36524 -4.26691 0
M  V30 6973 C 672.155 2.82664 -3.16703 0
M  V30 6974 C 670.062 2.29031 -5.45251 0
M  V30 6975 H 668.992 0.430499 -0.61902 0
M  V30 6976 H 671.643 0.407017 -1.78929 0
M  V30 6977 H 670.025 2.85358 -2.74567 0
M  V30 6978 H 671.199 0.646061 -4.56249 0
M  V30 6979 H 669.514 0.74002 -4.09771 0
M  V30 6980 H 672.111 3.52037 -4.0246 0
M  V30 6981 H 672.454 3.46122 -2.31312 0
M  V30 6982 H 672.987 2.12541 -3.36261 0
M  V30 6983 H 669.726 1.70206 -6.33017 0
M  V30 6984 H 669.246 2.98896 -5.2002 0
M  V30 6985 H 670.925 2.89359 -5.78689 0
M  V30 6986 N 671.057 1.43213 0.657864 0
M  V30 6987 C 671.99 1.42456 1.78273 0
M  V30 6988 C 672.968 0.286598 1.60054 0
M  V30 6989 O 674.152 0.479467 1.823 0
M  V30 6990 C 671.279 1.23169 3.15511 0
M  V30 6991 C 670.325 2.40181 3.52442 0
M  V30 6992 S 671.158 4.02729 3.52944 0
M  V30 6993 C 672.314 3.85816 4.92846 0
M  V30 6994 H 672.547 2.37642 1.78644 0
M  V30 6995 H 670.08 1.30188 0.830084 0
M  V30 6996 H 672.038 1.12728 3.94719 0
M  V30 6997 H 670.699 0.295398 3.12708 0
M  V30 6998 H 669.892 2.22478 4.52239 0
M  V30 6999 H 669.494 2.47224 2.80636 0
M  V30 7000 H 671.786 3.47853 5.81381 0
M  V30 7001 H 672.729 4.85348 5.15599 0
M  V30 7002 H 673.137 3.18361 4.66162 0
M  V30 7003 N 672.536 -0.895792 1.29666 0
M  V30 7004 C 673.776 -1.6609 1.19136 0
M  V30 7005 C 674.14 -1.90336 -0.252245 0
M  V30 7006 O 675.341 -2.64469 -0.480593 0
M  V30 7007 C 673.612 -2.97129 1.98618 0
M  V30 7008 S 675.171 -3.88146 2.04666 0
M  V30 7009 H 671.989 -0.570188 0.424744 0
M  V30 7010 H 674.591 -1.06411 1.64003 0
M  V30 7011 H 673.295 -2.77199 3.02637 0
M  V30 7012 H 672.826 -3.61847 1.54371 0
M  V30 7013 H 674.841 -4.82301 1.16618 0
M  V30 7014 N 674.014 -1.12206 -1.10668 0
M  V30 7015 C 674.946 -0.74552 -2.16736 0
M  V30 7016 C 675.959 0.226696 -1.61214 0
M  V30 7017 O 677.148 0.0083936 -1.78498 0
M  V30 7018 C 674.248 -0.0823368 -3.388 0
M  V30 7019 C 673.421 -1.08341 -4.2377 0
M  V30 7020 C 672.48 -0.448292 -5.24287 0
M  V30 7021 O 671.506 -1.10458 -5.58379 0
M  V30 7022 N 672.708 0.785336 -5.75163 0
M  V30 7023 H 675.473 -1.65818 -2.49649 0
M  V30 7024 H 673.034 -1.01335 -1.26265 0
M  V30 7025 H 675.026 0.354476 -4.03145 0
M  V30 7026 H 673.596 0.733041 -3.03884 0
M  V30 7027 H 672.816 -1.69792 -3.55759 0
M  V30 7028 H 674.104 -1.76042 -4.77375 0
M  V30 7029 H 673.502 1.33755 -5.4966 0
M  V30 7030 H 672.059 1.16501 -6.41304 0
M  V30 7031 N 675.492 1.28418 -0.913599 0
M  V30 7032 C 676.717 1.99643 -0.561899 0
M  V30 7033 C 677.142 1.67819 0.849608 0
M  V30 7034 O 676.5 0.910503 1.56779 0
M  V30 7035 C 676.548 3.52116 -0.777622 0
M  V30 7036 O 675.652 4.12076 0.163457 0
M  V30 7037 H 674.993 0.627229 -0.217898 0
M  V30 7038 H 677.523 1.63575 -1.229 0
M  V30 7039 H 677.533 4.02163 -0.687666 0
M  V30 7040 H 676.208 3.74613 -1.8066 0
M  V30 7041 H 674.785 3.72892 0.0247827 0
M  V30 7042 N 676.97 0.677563 1.42291 0
M  V30 7043 C 678.195 0.207901 2.06355 0
M  V30 7044 C 678.62 -1.12723 1.50583 0
M  V30 7045 O 677.978 -1.70171 0.62543 0
M  V30 7046 C 678.026 0.156489 3.6026 0
M  V30 7047 O 677.13 -0.874162 4.03029 0
M  V30 7048 H 676.471 0.106056 0.655475 0
M  V30 7049 H 679.001 0.927354 1.82377 0
M  V30 7050 H 679.011 -0.0187258 4.07996 0
M  V30 7051 H 677.686 1.13101 4.00226 0
M  V30 7052 H 676.263 -0.669764 3.66836 0
M  V30 7053 N 678.448 -1.51871 0.421078 0
M  V30 7054 C 679.864 -1.59435 0.0725398 0
M  V30 7055 C 680.064 -1.43315 -1.41644 0
M  V30 7056 O 679.12 -1.26614 -2.18461 0
M  V30 7057 C 680.433 -2.9509 0.578132 0
M  V30 7058 C 681.981 -3.08356 0.537149 0
M  V30 7059 C 682.456 -4.4651 1.01945 0
M  V30 7060 N 683.947 -4.52784 0.976758 0
M  V30 7061 C 684.682 -5.57976 1.32099 0
M  V30 7062 N 684.178 -6.70664 1.73727 0
M  V30 7063 N 685.971 -5.48248 1.2402 0
M  V30 7064 H 678.122 -1.60595 1.39007 0
M  V30 7065 H 680.385 -0.756138 0.571803 0
M  V30 7066 H 680.091 -3.12205 1.61929 0
M  V30 7067 H 679.965 -3.772 -0.00578374 0
M  V30 7068 H 682.352 -2.90919 -0.494991 0
M  V30 7069 H 682.433 -2.28125 1.15727 0
M  V30 7070 H 682.077 -4.64692 2.04997 0
M  V30 7071 H 682.007 -5.25256 0.376023 0
M  V30 7072 H 684.498 -3.71898 0.670851 0
M  V30 7073 H 684.811 -7.46932 1.98274 0
M  V30 7074 H 683.156 -6.71914 1.77641 0
M  V30 7075 H 686.347 -4.59095 0.913756 0
M  V30 7076 H 686.52 -6.30119 1.51176 0
M  V30 7077 N 679.926 -0.151884 -1.56866 0
M  V30 7078 C 680.858 0.817008 -2.14144 0
M  V30 7079 C 681.871 1.20735 -1.0921 0
M  V30 7080 O 683.06 1.15058 -1.36469 0
M  V30 7081 C 680.16 2.10844 -2.65326 0
M  V30 7082 C 679.333 1.88471 -3.94712 0
M  V30 7083 C 678.392 3.01649 -4.31155 0
M  V30 7084 O 677.418 2.73127 -4.9939 0
M  V30 7085 N 678.62 4.28947 -3.91132 0
M  V30 7086 H 681.385 0.327448 -2.97906 0
M  V30 7087 H 678.946 0.0315313 -1.61869 0
M  V30 7088 H 680.938 2.85616 -2.86715 0
M  V30 7089 H 679.508 2.51049 -1.86262 0
M  V30 7090 H 678.728 0.977088 -3.81899 0
M  V30 7091 H 680.016 1.70866 -4.79252 0
M  V30 7092 H 679.414 4.54986 -3.36161 0
M  V30 7093 H 677.971 5.00484 -4.17563 0
M  V30 7094 N 681.404 1.57128 0.121893 0
M  V30 7095 C 682.815 1.73902 0.679348 0
M  V30 7096 C 683.166 0.770135 1.80453 0
M  V30 7097 O 682.291 -0.0576083 2.16323 0
M  V30 7098 C 682.886 3.15328 1.2391 0
M  V30 7099 C 681.445 3.33618 1.74288 0
M  V30 7100 C 680.592 2.6978 0.641414 0
M  V30 7101 H 683.543 1.58359 -0.104 0
M  V30 7102 H 683.564 3.16718 2.10879 0
M  V30 7103 H 683.076 3.85821 0.419957 0
M  V30 7104 H 681.177 2.68162 2.58689 0
M  V30 7105 H 681.29 4.4176 1.85432 0
M  V30 7106 H 679.654 2.30935 1.0743 0
M  V30 7107 H 680.437 3.42895 -0.166707 0
M  V30 7108 N 682.882 -0.391992 1.52647 0
M  V30 7109 C 684.298 -0.731848 1.41831 0
M  V30 7110 C 684.498 -1.9423 0.536361 0
M  V30 7111 O 683.554 -2.52499 0.00866571 0
M  V30 7112 C 684.867 -0.969743 2.84634 0
M  V30 7113 C 686.415 -1.0714 2.94092 0
M  V30 7114 C 686.89 -1.34195 4.37899 0
M  V30 7115 N 688.381 -1.41023 4.41211 0
M  V30 7116 C 689.116 -1.63616 5.49561 0
M  V30 7117 N 688.612 -1.83699 6.68002 0
M  V30 7118 N 690.405 -1.65771 5.371 0
M  V30 7119 H 682.556 0.404547 2.08512 0
M  V30 7120 H 684.819 0.11879 0.940528 0
M  V30 7121 H 684.525 -0.152465 3.51369 0
M  V30 7122 H 684.399 -1.88523 3.26709 0
M  V30 7123 H 686.786 -1.87925 2.27526 0
M  V30 7124 H 686.867 -0.133887 2.55449 0
M  V30 7125 H 686.511 -0.539207 5.0503 0
M  V30 7126 H 686.441 -2.29226 4.74092 0
M  V30 7127 H 688.932 -1.27223 3.55841 0
M  V30 7128 H 689.245 -2.00437 7.46354 0
M  V30 7129 H 687.59 -1.8093 6.71036 0
M  V30 7130 H 690.781 -1.4963 4.43541 0
M  V30 7131 H 690.954 -1.83038 6.21612 0
M  V30 7132 N 684.36 -1.4356 -0.65026 0
M  V30 7133 C 685.771 -1.40324 -1.2315 0
M  V30 7134 C 686.122 -0.108812 -1.95898 0
M  V30 7135 O 685.247 0.79163 -2.01401 0
M  V30 7136 C 685.842 -2.54195 -2.23987 0
M  V30 7137 C 684.401 -2.54215 -2.77582 0
M  V30 7138 C 683.548 -2.31752 -1.5227 0
M  V30 7139 H 686.499 -1.52418 -0.442095 0
M  V30 7140 H 686.52 -2.25854 -3.0622 0
M  V30 7141 H 686.032 -3.48392 -1.71011 0
M  V30 7142 H 684.133 -1.63907 -3.34612 0
M  V30 7143 H 684.246 -3.52081 -3.24925 0
M  V30 7144 H 682.61 -1.80476 -1.79723 0
M  V30 7145 H 683.393 -3.28037 -1.01225 0
M  V30 7146 N 685.838 0.888903 -1.30139 0
M  V30 7147 C 686.801 1.97576 -1.16174 0
M  V30 7148 C 687.801 1.60525 -0.094086 0
M  V30 7149 O 688.991 1.70812 -0.341889 0
M  V30 7150 C 686.123 3.3188 -0.778983 0
M  V30 7151 H 687.316 2.11393 -2.12728 0
M  V30 7152 H 684.869 1.0748 -1.1348 0
M  V30 7153 H 685.604 3.23765 0.186225 0
M  V30 7154 H 685.389 3.60141 -1.55051 0
M  V30 7155 H 686.879 4.11612 -0.704631 0
M  V30 7156 N 687.317 1.12792 1.10072 0
M  V30 7157 C 688.565 0.883796 1.81751 0
M  V30 7158 C 688.886 -0.591891 1.858 0
M  V30 7159 O 688.156 -1.43017 1.33876 0
M  V30 7160 H 686.736 0.323978 0.673088 0
M  V30 7161 H 689.398 1.42314 1.33164 0
M  V30 7162 H 688.494 1.26863 2.85153 0
M  V30 7163 N 688.795 -1.27931 0.920396 0
M  V30 7164 C 690.041 -1.94977 0.557832 0
M  V30 7165 C 690.374 -1.72224 -0.897365 0
M  V30 7166 O 689.649 -1.04705 -1.63912 0
M  V30 7167 C 689.932 -3.49289 0.875741 0
M  V30 7168 C 689.785 -3.81416 2.38416 0
M  V30 7169 C 691.104 -4.38486 0.376517 0
M  V30 7170 H 688.223 -0.708164 0.20414 0
M  V30 7171 H 690.865 -1.5118 1.15085 0
M  V30 7172 H 689.015 -3.86724 0.371062 0
M  V30 7173 H 690.687 -3.53813 2.95997 0
M  V30 7174 H 688.93 -3.28225 2.83639 0
M  V30 7175 H 689.601 -4.89198 2.55713 0
M  V30 7176 H 692.077 -4.08161 0.808945 0
M  V30 7177 H 690.953 -5.45296 0.627976 0
M  V30 7178 H 691.214 -4.36143 -0.723293 0
M  V30 7179 N 690.273 -0.685099 -1.4193 0
M  V30 7180 C 691.221 -0.00165985 -2.326 0
M  V30 7181 C 692.215 0.779678 -1.50391 0
M  V30 7182 O 693.421 0.68648 -1.66395 0
M  V30 7183 H 689.796 0.0182616 -0.751778 0
M  V30 7184 H 691.767 -0.783592 -2.87928 0
M  V30 7185 C 690.516 0.928385 -3.35077 0
M  V30 7186 H 689.839 0.336578 -3.98381 0
M  V30 7187 H 691.279 1.37509 -4.01083 0
M  V30 7188 C 689.738 2.03964 -2.68142 0
M  V30 7189 O 690.268 3.12727 -2.5212 0
M  V30 7190 N 688.474 1.81433 -2.27003 0
M  V30 7191 H 688.021 0.929807 -2.40234 0
M  V30 7192 H 687.979 2.55973 -1.82552 0
M  V30 7193 N 691.751 1.51645 -0.429126 0
M  V30 7194 C 692.698 2.27542 0.386446 0
M  V30 7195 C 693.668 1.30786 1.02393 0
M  V30 7196 O 694.853 1.59678 1.0444 0
M  V30 7197 C 691.993 3.11457 1.48623 0
M  V30 7198 C 691.106 4.23196 0.867691 0
M  V30 7199 C 690.241 4.94435 1.94183 0
M  V30 7200 C 689.28 5.98108 1.30129 0
M  V30 7201 N 688.417 6.62786 2.31644 0
M  V30 7202 H 693.257 2.968 -0.267155 0
M  V30 7203 H 690.794 1.46397 -0.143591 0
M  V30 7204 H 692.752 3.58429 2.13506 0
M  V30 7205 H 691.382 2.44329 2.10957 0
M  V30 7206 H 690.434 3.80248 0.107373 0
M  V30 7207 H 691.746 4.97499 0.35997 0
M  V30 7208 H 690.9 5.44914 2.66747 0
M  V30 7209 H 689.639 4.19744 2.48326 0
M  V30 7210 H 688.644 5.4693 0.561082 0
M  V30 7211 H 689.869 6.74751 0.767303 0
M  V30 7212 H 687.815 5.90913 2.84883 0
M  V30 7213 H 687.732 7.32828 1.85741 0
M  V30 7214 H 689 7.17897 3.03717 0
M  V30 7215 N 693.229 0.160201 1.56784 0
M  V30 7216 C 694.179 -0.786461 2.14007 0
M  V30 7217 C 695.163 -1.20046 1.07134 0
M  V30 7218 O 696.355 -1.16468 1.33283 0
M  V30 7219 C 693.484 -2.02024 2.77563 0
M  V30 7220 C 692.57 -1.62874 3.91578 0
M  V30 7221 N 692.961 -0.946176 4.96871 0
M  V30 7222 C 691.259 -1.92054 4.02531 0
M  V30 7223 C 691.96 -0.755084 5.76778 0
M  V30 7224 N 690.936 -1.29307 5.27997 0
M  V30 7225 H 694.738 -0.255879 2.92784 0
M  V30 7226 H 692.252 -0.0408778 1.62349 0
M  V30 7227 H 694.249 -2.70855 3.16928 0
M  V30 7228 H 692.909 -2.55587 2.00263 0
M  V30 7229 H 693.92 -0.605455 5.14349 0
M  V30 7230 H 690.597 -2.47374 3.36322 0
M  V30 7231 H 691.987 -0.216138 6.71552 0
M  V30 7232 N 694.707 -1.5719 -0.113559 0
M  V30 7233 C 695.637 -2.03772 -1.14013 0
M  V30 7234 C 696.618 -0.923176 -1.42869 0
M  V30 7235 O 697.803 -1.19325 -1.53216 0
M  V30 7236 C 694.933 -2.44663 -2.4649 0
M  V30 7237 C 693.887 -3.59612 -2.32085 0
M  V30 7238 C 693.213 -3.8642 -3.69573 0
M  V30 7239 C 694.513 -4.91149 -1.7768 0
M  V30 7240 H 696.207 -2.89785 -0.752665 0
M  V30 7241 H 693.753 -1.39412 -0.360609 0
M  V30 7242 H 695.706 -2.75857 -3.18561 0
M  V30 7243 H 694.43 -1.55628 -2.87137 0
M  V30 7244 H 693.089 -3.28636 -1.62461 0
M  V30 7245 H 692.737 -2.94581 -4.07715 0
M  V30 7246 H 692.437 -4.63797 -3.60786 0
M  V30 7247 H 693.961 -4.2007 -4.4314 0
M  V30 7248 H 695.375 -5.20843 -2.39574 0
M  V30 7249 H 693.772 -5.72562 -1.79701 0
M  V30 7250 H 694.842 -4.79301 -0.734776 0
M  V30 7251 N 696.185 0.383891 -1.52853 0
M  V30 7252 C 697.431 1.12667 -1.69345 0
M  V30 7253 C 697.786 1.87519 -0.430635 0
M  V30 7254 O 697.079 1.82742 0.575846 0
M  V30 7255 C 697.273 2.12881 -2.87082 0
M  V30 7256 C 697.102 1.47873 -4.24692 0
M  V30 7257 C 695.872 1.24064 -4.89833 0
M  V30 7258 C 698.07 0.926118 -5.05893 0
M  V30 7259 N 696.052 0.552138 -6.11412 0
M  V30 7260 C 697.423 0.365966 -6.18919 0
M  V30 7261 C 699.478 0.823023 -4.91051 0
M  V30 7262 C 698.181 -0.287204 -7.18726 0
M  V30 7263 C 700.207 0.183666 -5.91115 0
M  V30 7264 C 699.569 -0.365693 -7.0345 0
M  V30 7265 H 695.668 0.398064 -0.673104 0
M  V30 7266 H 698.252 0.415504 -1.90215 0
M  V30 7267 H 696.423 2.81329 -2.67784 0
M  V30 7268 H 698.155 2.79703 -2.92486 0
M  V30 7269 H 694.91 1.51701 -4.48647 0
M  V30 7270 H 695.334 0.223783 -6.7663 0
M  V30 7271 H 699.976 1.23354 -4.04405 0
M  V30 7272 H 697.694 -0.709719 -8.04977 0
M  V30 7273 H 701.28 0.105074 -5.81705 0
M  V30 7274 H 700.16 -0.85261 -7.79551 0
M  V30 7275 N 697.663 1.43903 0.642637 0
M  V30 7276 C 698.911 1.45791 1.39962 0
M  V30 7277 C 699.232 0.0873144 1.94804 0
M  V30 7278 O 698.502 -0.878825 1.75081 0
M  V30 7279 H 697.082 0.536797 0.519479 0
M  V30 7280 H 699.744 1.7959 0.757189 0
M  V30 7281 H 698.84 2.17665 2.2367 0
M  V30 7282 N 699.141 -0.881989 1.30609 0
M  V30 7283 C 700.381 -1.64817 1.20891 0
M  V30 7284 C 700.745 -1.90593 -0.232043 0
M  V30 7285 O 701.946 -2.64964 -0.452516 0
M  V30 7286 C 700.217 -2.95006 2.01758 0
M  V30 7287 S 701.776 -3.85953 2.08771 0
M  V30 7288 H 698.594 -0.565651 0.430767 0
M  V30 7289 H 701.196 -1.04665 1.65122 0
M  V30 7290 H 699.9 -2.73973 3.0556 0
M  V30 7291 H 699.431 -3.60189 1.582 0
M  V30 7292 H 701.446 -4.81037 1.21727 0
M  V30 7293 N 700.619 -1.13374 -1.09472 0
M  V30 7294 C 702.03 -0.90801 -1.63132 0
M  V30 7295 C 702.381 0.555576 -1.8817 0
M  V30 7296 O 701.506 1.42218 -1.63104 0
M  V30 7297 C 702.101 -1.64182 -2.96361 0
M  V30 7298 C 700.66 -1.46197 -3.46848 0
M  V30 7299 C 699.807 -1.67134 -2.21273 0
M  V30 7300 H 702.758 -1.2871 -0.928411 0
M  V30 7301 H 702.779 -1.09863 -3.64294 0
M  V30 7302 H 702.291 -2.707 -2.78106 0
M  V30 7303 H 700.392 -0.419788 -3.70228 0
M  V30 7304 H 700.505 -2.22472 -4.24315 0
M  V30 7305 H 698.869 -1.09616 -2.29905 0
M  V30 7306 H 699.652 -2.74971 -2.05538 0
M  V30 7307 N 702.098 1.27442 -0.927168 0
M  V30 7308 C 703.061 2.2512 -0.430525 0
M  V30 7309 C 704.061 1.54357 0.450619 0
M  V30 7310 O 705.251 1.72371 0.251774 0
M  V30 7311 C 702.383 3.38763 0.381144 0
M  V30 7312 H 703.576 2.70569 -1.29354 0
M  V30 7313 H 701.129 1.39355 -0.707806 0
M  V30 7314 H 701.864 2.98695 1.263 0
M  V30 7315 H 701.649 3.91298 -0.250618 0
M  V30 7316 H 703.139 4.11364 0.719012 0
M  V30 7317 N 703.576 0.692616 1.41565 0
M  V30 7318 C 704.801 0.229776 2.06123 0
M  V30 7319 C 705.226 -1.11119 1.5177 0
M  V30 7320 O 704.584 -1.69498 0.643444 0
M  V30 7321 C 704.632 0.19469 3.60074 0
M  V30 7322 O 703.736 -0.831366 4.03933 0
M  V30 7323 H 703.077 0.113002 0.654314 0
M  V30 7324 H 705.607 0.946645 1.81383 0
M  V30 7325 H 705.617 0.0245487 4.07993 0
M  V30 7326 H 704.292 1.17339 3.99004 0
M  V30 7327 H 702.869 -0.630819 3.67526 0
M  V30 7328 N 705.054 -1.51416 0.437162 0
M  V30 7329 C 706.279 -2.0699 -0.130424 0
M  V30 7330 C 706.704 -1.30249 -1.35709 0
M  V30 7331 O 706.062 -0.340388 -1.78076 0
M  V30 7332 C 706.11 -3.5801 -0.43142 0
M  V30 7333 O 705.214 -3.8345 -1.5179 0
M  V30 7334 H 704.555 -0.663997 -0.00194339 0
M  V30 7335 H 707.085 -1.95029 0.618445 0
M  V30 7336 H 707.095 -4.02261 -0.681926 0
M  V30 7337 H 705.77 -4.13291 0.465137 0
M  V30 7338 H 704.347 -3.51062 -1.25737 0
M  V30 7339 N 706.532 -0.168513 -1.56696 0
M  V30 7340 C 707.948 0.187686 -1.58493 0
M  V30 7341 C 708.148 1.63063 -1.18375 0
M  V30 7342 O 707.204 2.36142 -0.894042 0
M  V30 7343 C 708.517 -0.0905858 -3.00564 0
M  V30 7344 C 710.065 -0.028575 -3.12987 0
M  V30 7345 C 710.54 -0.279799 -4.57145 0
M  V30 7346 N 712.031 -0.227476 -4.62641 0
M  V30 7347 C 712.766 -0.396073 -5.7203 0
M  V30 7348 N 712.262 -0.623572 -6.89988 0
M  V30 7349 N 714.055 -0.332173 -5.61118 0
M  V30 7350 H 706.206 -1.11042 -1.81062 0
M  V30 7351 H 708.469 -0.441235 -0.839056 0
M  V30 7352 H 708.175 -1.09006 -3.34381 0
M  V30 7353 H 708.049 0.619078 -3.72085 0
M  V30 7354 H 710.436 0.961471 -2.78998 0
M  V30 7355 H 710.517 -0.770905 -2.43907 0
M  V30 7356 H 710.161 -1.26704 -4.91842 0
M  V30 7357 H 710.091 0.48311 -5.24379 0
M  V30 7358 H 712.582 -0.0571723 -3.77857 0
M  V30 7359 H 712.895 -0.741745 -7.69232 0
M  V30 7360 H 711.24 -0.660153 -6.91858 0
M  V30 7361 H 714.431 -0.155051 -4.67843 0
M  V30 7362 H 714.604 -0.466994 -6.46315 0
M  V30 7363 N 708.01 1.57248 0.105221 0
M  V30 7364 C 709.238 1.89768 0.82437 0
M  V30 7365 C 709.653 0.761192 1.72775 0
M  V30 7366 O 709.01 -0.267342 1.80531 0
M  V30 7367 C 709.061 3.2184 1.64625 0
M  V30 7368 O 708.782 4.31115 0.779217 0
M  V30 7369 C 710.283 3.68155 2.46935 0
M  V30 7370 H 707.503 0.628031 0.236259 0
M  V30 7371 H 710.047 2.04321 0.085485 0
M  V30 7372 H 708.202 3.08915 2.33775 0
M  V30 7373 H 708.616 5.06897 1.34745 0
M  V30 7374 H 710.09 4.6329 3.00111 0
M  V30 7375 H 710.567 2.95492 3.24932 0
M  V30 7376 H 711.173 3.83914 1.83002 0
M  V30 7377 N 709.488 -0.375779 1.53054 0
M  V30 7378 C 710.713 -1.14484 1.7294 0
M  V30 7379 C 711.138 -1.82572 0.452668 0
M  V30 7380 O 710.496 -1.71343 -0.592567 0
M  V30 7381 C 710.544 -2.15857 2.88857 0
M  V30 7382 O 709.648 -3.22725 2.56753 0
M  V30 7383 H 708.989 -0.332666 0.574656 0
M  V30 7384 H 711.519 -0.436025 1.999 0
M  V30 7385 H 711.529 -2.59631 3.14731 0
M  V30 7386 H 710.204 -1.65689 3.81471 0
M  V30 7387 H 708.781 -2.83996 2.41663 0
M  V30 7388 N 710.966 -1.44241 -0.634997 0
M  V30 7389 C 711.916 -1.47247 -1.74076 0
M  V30 7390 C 712.9 -0.338708 -1.57295 0
M  V30 7391 O 714.092 -0.583751 -1.67097 0
M  V30 7392 C 711.221 -1.41579 -3.12746 0
M  V30 7393 C 710.307 -2.60055 -3.35011 0
M  V30 7394 N 710.698 -3.85321 -3.27661 0
M  V30 7395 C 708.996 -2.55168 -3.65794 0
M  V30 7396 C 709.697 -4.64241 -3.50508 0
M  V30 7397 N 708.673 -3.95254 -3.73196 0
M  V30 7398 H 712.475 -2.4195 -1.66845 0
M  V30 7399 H 709.989 -1.3915 -0.837326 0
M  V30 7400 H 711.986 -1.41816 -3.92038 0
M  V30 7401 H 710.646 -0.479108 -3.21146 0
M  V30 7402 H 711.657 -4.17345 -3.06665 0
M  V30 7403 H 708.334 -1.70276 -3.81198 0
M  V30 7404 H 709.724 -5.73267 -3.50449 0
M  V30 7405 N 712.444 0.87505 -1.31075 0
M  V30 7406 C 713.354 2.01441 -1.20244 0
M  V30 7407 C 714.37 1.73584 -0.120227 0
M  V30 7408 O 715.546 1.98559 -0.337063 0
M  V30 7409 C 712.611 3.34675 -0.905199 0
M  V30 7410 C 711.672 3.75889 -2.0738 0
M  V30 7411 C 710.905 5.02764 -1.79064 0
M  V30 7412 O 711.128 5.65795 -0.723318 0
M  V30 7413 O 710.062 5.40623 -2.64594 0
M  V30 7414 H 713.888 2.13509 -2.1598 0
M  V30 7415 H 711.473 1.00257 -1.10765 0
M  V30 7416 H 713.355 4.1458 -0.755057 0
M  V30 7417 H 712.03 3.23692 0.0221695 0
M  V30 7418 H 710.937 2.96645 -2.27931 0
M  V30 7419 H 712.27 3.91489 -2.98324 0
M  V30 7420 N 713.922 1.13953 1.08869 0
M  V30 7421 C 715.168 0.916103 1.81602 0
M  V30 7422 C 715.523 -0.551633 1.84322 0
M  V30 7423 O 714.816 -1.40322 1.30462 0
M  V30 7424 C 715.01 1.44495 3.26888 0
M  V30 7425 C 714.839 2.96257 3.38322 0
M  V30 7426 C 713.609 3.64658 3.49789 0
M  V30 7427 C 715.807 3.94156 3.30372 0
M  V30 7428 N 713.789 5.04379 3.49965 0
M  V30 7429 C 715.16 5.20101 3.37484 0
M  V30 7430 C 717.215 3.86342 3.14077 0
M  V30 7431 C 715.918 6.39145 3.29979 0
M  V30 7432 C 717.944 5.04927 3.07901 0
M  V30 7433 C 717.306 6.29738 3.1561 0
M  V30 7434 H 713.405 0.388701 0.678554 0
M  V30 7435 H 715.989 1.44879 1.3007 0
M  V30 7436 H 714.16 0.939102 3.76876 0
M  V30 7437 H 715.892 1.16193 3.87661 0
M  V30 7438 H 712.647 3.15196 3.5348 0
M  V30 7439 H 713.071 5.77305 3.53622 0
M  V30 7440 H 717.713 2.90726 3.06982 0
M  V30 7441 H 715.431 7.3501 3.35836 0
M  V30 7442 H 719.017 5.00626 2.9642 0
M  V30 7443 H 717.897 7.19958 3.10854 0
M  V30 7444 N 715.4 -1.26948 0.933913 0
M  V30 7445 C 716.33 -2.29017 0.45534 0
M  V30 7446 C 717.311 -1.62961 -0.487605 0
M  V30 7447 O 718.496 -1.90223 -0.391022 0
M  V30 7448 C 715.626 -3.46112 -0.287015 0
M  V30 7449 C 714.58 -4.24205 0.568682 0
M  V30 7450 C 713.906 -5.3384 -0.303206 0
M  V30 7451 C 715.206 -4.88954 1.83633 0
M  V30 7452 H 716.9 -2.69298 1.30839 0
M  V30 7453 H 714.446 -1.29459 0.630579 0
M  V30 7454 H 716.399 -4.16622 -0.6328 0
M  V30 7455 H 715.123 -3.04765 -1.17414 0
M  V30 7456 H 713.782 -3.5545 0.897261 0
M  V30 7457 H 713.43 -4.88734 -1.18947 0
M  V30 7458 H 713.13 -5.86998 0.265879 0
M  V30 7459 H 714.654 -6.0719 -0.644423 0
M  V30 7460 H 716.068 -5.51717 1.55823 0
M  V30 7461 H 714.465 -5.52198 2.34941 0
M  V30 7462 H 715.535 -4.12305 2.55211 0
M  V30 7463 N 716.879 -0.700114 -1.41195 0
M  V30 7464 C 717.809 -0.0521132 -2.33442 0
M  V30 7465 C 718.79 0.76228 -1.52063 0
M  V30 7466 O 719.975 0.714336 -1.80585 0
M  V30 7467 C 717.105 0.881693 -3.35922 0
M  V30 7468 C 716.059 0.174062 -4.27646 0
M  V30 7469 C 715.385 1.22254 -5.20536 0
M  V30 7470 C 716.685 -0.962396 -5.13357 0
M  V30 7471 H 718.379 -0.822574 -2.87879 0
M  V30 7472 H 715.925 -0.397011 -1.38419 0
M  V30 7473 H 717.878 1.34429 -3.99383 0
M  V30 7474 H 716.602 1.68387 -2.79845 0
M  V30 7475 H 715.261 -0.268551 -3.65615 0
M  V30 7476 H 714.909 2.01736 -4.60773 0
M  V30 7477 H 714.609 0.754038 -5.82742 0
M  V30 7478 H 716.133 1.68555 -5.86874 0
M  V30 7479 H 717.547 -0.579875 -5.7036 0
M  V30 7480 H 715.944 -1.35828 -5.84526 0
M  V30 7481 H 717.014 -1.80003 -4.50252 0
M  V30 7482 N 718.357 1.51182 -0.445186 0
M  V30 7483 C 719.603 2.03097 0.111049 0
M  V30 7484 C 719.958 1.32293 1.397 0
M  V30 7485 O 719.251 0.431529 1.86677 0
M  V30 7486 C 719.445 3.55408 0.376797 0
M  V30 7487 C 719.274 4.40969 -0.88185 0
M  V30 7488 C 718.044 4.85006 -1.41766 0
M  V30 7489 C 720.242 4.82876 -1.77017 0
M  V30 7490 N 718.224 5.54804 -2.62803 0
M  V30 7491 C 719.595 5.51821 -2.82654 0
M  V30 7492 C 721.65 4.64855 -1.78365 0
M  V30 7493 C 720.353 6.04655 -3.89595 0
M  V30 7494 C 722.379 5.18612 -2.84246 0
M  V30 7495 C 721.741 5.87509 -3.88603 0
M  V30 7496 H 717.84 0.781999 0.0012696 0
M  V30 7497 H 720.424 1.84976 -0.60761 0
M  V30 7498 H 718.595 3.73528 1.06449 0
M  V30 7499 H 720.327 3.93985 0.925082 0
M  V30 7500 H 717.082 4.6355 -0.970476 0
M  V30 7501 H 717.506 5.94326 -3.24201 0
M  V30 7502 H 722.148 4.11043 -0.990119 0
M  V30 7503 H 719.866 6.57518 -4.69782 0
M  V30 7504 H 723.452 5.06515 -2.86241 0
M  V30 7505 H 722.332 6.28358 -4.69186 0
M  V30 7506 N 719.835 0.176821 1.56605 0
M  V30 7507 C 721.246 -0.338963 1.83597 0
M  V30 7508 C 721.597 -1.62677 1.09684 0
M  V30 7509 O 720.722 -2.13524 0.351661 0
M  V30 7510 C 721.317 -0.62177 3.33046 0
M  V30 7511 C 719.876 -1.08198 3.60514 0
M  V30 7512 C 719.023 -0.120774 2.77037 0
M  V30 7513 H 721.974 0.400978 1.53551 0
M  V30 7514 H 721.995 -1.47321 3.50823 0
M  V30 7515 H 721.507 0.315692 3.86814 0
M  V30 7516 H 719.608 -2.03435 3.12162 0
M  V30 7517 H 719.721 -0.987329 4.68816 0
M  V30 7518 H 718.085 -0.619192 2.47059 0
M  V30 7519 H 718.868 0.810806 3.33588 0
M  V30 7520 N 721.313 -1.57302 -0.09688 0
M  V30 7521 C 722.26 -2.01933 -1.11766 0
M  V30 7522 C 723.23 -0.895329 -1.39904 0
M  V30 7523 O 724.415 -1.16119 -1.51397 0
M  V30 7524 C 721.555 -2.44726 -2.43317 0
M  V30 7525 C 720.668 -3.70639 -2.21925 0
M  V30 7526 C 719.803 -4.02318 -3.46862 0
M  V30 7527 C 718.842 -5.21346 -3.20725 0
M  V30 7528 N 717.979 -5.48787 -4.37924 0
M  V30 7529 H 722.819 -2.88919 -0.730075 0
M  V30 7530 H 720.356 -1.42901 -0.348962 0
M  V30 7531 H 722.314 -2.6758 -3.20088 0
M  V30 7532 H 720.944 -1.60753 -2.79926 0
M  V30 7533 H 719.996 -3.55271 -1.35965 0
M  V30 7534 H 721.308 -4.57557 -1.98603 0
M  V30 7535 H 720.462 -4.25939 -4.32042 0
M  V30 7536 H 719.201 -3.13918 -3.73238 0
M  V30 7537 H 718.206 -4.97547 -2.33938 0
M  V30 7538 H 719.431 -6.11343 -2.95697 0
M  V30 7539 H 717.377 -4.63346 -4.64378 0
M  V30 7540 H 717.294 -6.30073 -4.17785 0
M  V30 7541 H 718.562 -5.76943 -5.24173 0
M  V30 7542 N 722.791 0.367657 -1.53252 0
M  V30 7543 C 723.754 1.43308 -1.78873 0
M  V30 7544 C 724.754 1.46671 -0.659115 0
M  V30 7545 O 725.944 1.47468 -0.927306 0
M  V30 7546 C 723.076 2.82442 -1.90892 0
M  V30 7547 H 724.269 1.21864 -2.74024 0
M  V30 7548 H 721.822 0.600668 -1.44297 0
M  V30 7549 H 722.557 3.09202 -0.978 0
M  V30 7550 H 722.342 2.81399 -2.73051 0
M  V30 7551 H 723.832 3.59601 -2.12314 0
M  V30 7552 N 724.269 1.44576 0.627338 0
M  V30 7553 C 725.515 1.47777 1.38888 0
M  V30 7554 C 725.848 0.111406 1.9388 0
M  V30 7555 O 725.123 -0.87149 1.73883 0
M  V30 7556 C 725.406 2.54119 2.55138 0
M  V30 7557 C 725.259 4.00128 2.0547 0
M  V30 7558 C 726.578 2.56929 3.57317 0
M  V30 7559 H 723.697 0.538048 0.50366 0
M  V30 7560 H 726.339 1.76277 0.708978 0
M  V30 7561 H 724.489 2.29948 3.13139 0
M  V30 7562 H 726.161 4.35444 1.5227 0
M  V30 7563 H 724.404 4.11724 1.36623 0
M  V30 7564 H 725.075 4.7019 2.89181 0
M  V30 7565 H 727.551 2.78536 3.09122 0
M  V30 7566 H 726.427 3.33234 4.36173 0
M  V30 7567 H 726.688 1.6127 4.11636 0
M  V30 7568 N 725.747 -0.868086 1.31537 0
M  V30 7569 C 726.677 -1.99131 1.21939 0
M  V30 7570 C 727.658 -1.69768 0.106166 0
M  V30 7571 O 728.843 -1.92006 0.291081 0
M  V30 7572 C 725.973 -3.34676 0.927879 0
M  V30 7573 C 724.927 -3.7835 2.00088 0
M  V30 7574 C 724.253 -5.11375 1.56203 0
M  V30 7575 C 725.553 -3.95256 3.41424 0
M  V30 7576 H 727.247 -2.07419 2.15911 0
M  V30 7577 H 724.793 -0.996569 1.03945 0
M  V30 7578 H 726.746 -4.12793 0.847327 0
M  V30 7579 H 725.47 -3.26565 -0.0475042 0
M  V30 7580 H 724.129 -3.02474 2.07135 0
M  V30 7581 H 723.777 -4.99709 0.57445 0
M  V30 7582 H 723.477 -5.41568 2.27985 0
M  V30 7583 H 725.001 -5.92001 1.49558 0
M  V30 7584 H 726.415 -4.63764 3.3704 0
M  V30 7585 H 724.812 -4.36849 4.1144 0
M  V30 7586 H 725.882 -2.98579 3.82072 0
M  V30 7587 N 727.225 -1.14528 -1.08264 0
M  V30 7588 C 728.157 -0.791325 -2.15106 0
M  V30 7589 C 729.17 0.192449 -1.61659 0
M  V30 7590 O 730.359 -0.0294704 -1.78476 0
M  V30 7591 C 727.459 -0.154183 -3.38549 0
M  V30 7592 C 726.632 -1.17305 -4.21377 0
M  V30 7593 C 725.691 -0.559401 -5.23218 0
M  V30 7594 O 724.717 -1.22277 -5.55911 0
M  V30 7595 N 725.919 0.663159 -5.767 0
M  V30 7596 H 728.684 -1.71076 -2.46075 0
M  V30 7597 H 726.245 -1.0399 -1.24087 0
M  V30 7598 H 728.237 0.268884 -4.03806 0
M  V30 7599 H 726.807 0.668418 -3.0537 0
M  V30 7600 H 726.027 -1.773 -3.52077 0
M  V30 7601 H 727.315 -1.86128 -4.73533 0
M  V30 7602 H 726.713 1.22066 -5.52373 0
M  V30 7603 H 725.27 1.02871 -6.43631 0
M  V30 7604 N 728.703 1.26451 -0.940633 0
M  V30 7605 C 729.666 2.24651 -0.454378 0
M  V30 7606 C 730.666 1.54826 0.434222 0
M  V30 7607 O 731.856 1.72628 0.233477 0
M  V30 7608 C 728.988 3.39148 0.345192 0
M  V30 7609 H 730.181 2.69182 -1.32217 0
M  V30 7610 H 727.734 1.38596 -0.722547 0
M  V30 7611 H 728.469 3.00018 1.23125 0
M  V30 7612 H 728.254 3.9101 -0.292107 0
M  V30 7613 H 729.744 4.12103 0.675341 0
M  V30 7614 N 730.181 0.707592 1.40822 0
M  V30 7615 C 731.128 0.0499029 2.30746 0
M  V30 7616 C 732.098 -0.758718 1.47759 0
M  V30 7617 O 733.283 -0.724299 1.76518 0
M  V30 7618 C 730.423 -0.871756 3.33908 0
M  V30 7619 C 729.536 -0.0534655 4.31967 0
M  V30 7620 C 728.671 -0.973869 5.22197 0
M  V30 7621 C 727.71 -0.149194 6.11918 0
M  V30 7622 N 726.847 -1.02404 6.94592 0
M  V30 7623 H 731.687 0.822461 2.86426 0
M  V30 7624 H 729.224 0.417285 1.41057 0
M  V30 7625 H 731.182 -1.42028 3.9228 0
M  V30 7626 H 729.812 -1.61058 2.7975 0
M  V30 7627 H 728.864 0.612142 3.75442 0
M  V30 7628 H 730.176 0.585354 4.95353 0
M  V30 7629 H 729.33 -1.59121 5.85462 0
M  V30 7630 H 728.069 -1.64652 4.59065 0
M  V30 7631 H 727.074 0.481137 5.47691 0
M  V30 7632 H 728.299 0.519841 6.77107 0
M  V30 7633 H 726.245 -1.6825 6.34057 0
M  V30 7634 H 726.162 -0.441076 7.54712 0
M  V30 7635 H 727.43 -1.62782 7.62314 0
M  V30 7636 N 731.66 -1.50943 0.453197 0
M  V30 7637 C 732.592 -2.25922 -0.38623 0
M  V30 7638 C 733.605 -1.3055 -0.972652 0
M  V30 7639 O 734.794 -1.56191 -0.864097 0
M  V30 7640 C 731.894 -3.01176 -1.5539 0
M  V30 7641 C 731.067 -4.23768 -1.0835 0
M  V30 7642 C 730.126 -4.81466 -2.12313 0
M  V30 7643 O 729.152 -5.42875 -1.71101 0
M  V30 7644 N 730.354 -4.66889 -3.44956 0
M  V30 7645 H 733.119 -2.98601 0.256468 0
M  V30 7646 H 730.68 -1.59408 0.282965 0
M  V30 7647 H 732.672 -3.36659 -2.24594 0
M  V30 7648 H 731.242 -2.31409 -2.10163 0
M  V30 7649 H 730.462 -3.93597 -0.217961 0
M  V30 7650 H 731.75 -5.03289 -0.746857 0
M  V30 7651 H 731.148 -4.18011 -3.81161 0
M  V30 7652 H 729.705 -5.06691 -4.1001 0
M  V30 7653 N 733.138 -0.185124 -1.56509 0
M  V30 7654 C 734.366 0.462139 -2.01673 0
M  V30 7655 C 734.781 1.55873 -1.06532 0
M  V30 7656 O 734.138 1.82371 -0.0684805 0
M  V30 7657 C 734.189 1.0277 -3.46584 0
M  V30 7658 O 733.91 -0.0251296 -4.38093 0
M  V30 7659 C 735.411 1.75183 -4.07217 0
M  V30 7660 H 732.631 0.117001 -0.660721 0
M  V30 7661 H 735.175 -0.290905 -2.0242 0
M  V30 7662 H 733.33 1.73118 -3.46568 0
M  V30 7663 H 733.744 0.394387 -5.23015 0
M  V30 7664 H 735.218 2.09999 -5.10494 0
M  V30 7665 H 735.695 2.6519 -3.50101 0
M  V30 7666 H 736.301 1.09445 -4.10977 0
M  V30 7667 N 734.616 1.57351 0.0885366 0
M  V30 7668 C 735.579 2.01557 1.09121 0
M  V30 7669 C 736.579 0.910052 1.3257 0
M  V30 7670 O 737.769 1.17537 1.28572 0
M  V30 7671 C 734.901 2.38189 2.43883 0
M  V30 7672 H 736.094 2.91361 0.710562 0
M  V30 7673 H 733.647 1.52694 0.333779 0
M  V30 7674 H 734.382 1.5136 2.86811 0
M  V30 7675 H 734.167 3.18846 2.28209 0
M  V30 7676 H 735.657 2.73025 3.15986 0
M  V30 7677 N 736.094 -0.359525 1.53444 0
M  V30 7678 C 737.024 -1.44662 1.8329 0
M  V30 7679 C 738.005 -1.55617 0.68683 0
M  V30 7680 O 739.19 -1.70086 0.93725 0
M  V30 7681 C 736.32 -2.81923 2.02822 0
M  V30 7682 C 735.274 -2.85787 3.18606 0
M  V30 7683 C 734.6 -4.25781 3.23442 0
M  V30 7684 C 735.9 -2.52762 4.57065 0
M  V30 7685 H 737.594 -1.19934 2.74329 0
M  V30 7686 H 735.14 -0.575517 1.31999 0
M  V30 7687 H 737.093 -3.58005 2.22285 0
M  V30 7688 H 735.817 -3.08051 1.085 0
M  V30 7689 H 734.476 -2.12157 2.98973 0
M  V30 7690 H 734.124 -4.48994 2.26745 0
M  V30 7691 H 733.824 -4.29281 4.01238 0
M  V30 7692 H 735.348 -5.03727 3.45096 0
M  V30 7693 H 736.762 -3.18557 4.76649 0
M  V30 7694 H 735.159 -2.67569 5.37147 0
M  V30 7695 H 736.229 -1.47993 4.61764 0
M  V30 7696 N 737.572 -1.44907 -0.619662 0
M  V30 7697 C 738.82 -1.47999 -1.37625 0
M  V30 7698 C 739.141 -0.118295 -1.94641 0
M  V30 7699 O 738.411 0.85086 -1.76457 0
M  V30 7700 H 736.991 -0.544993 -0.510873 0
M  V30 7701 H 739.653 -1.80772 -0.728522 0
M  V30 7702 H 738.749 -2.21196 -2.20179 0
M  V30 7703 N 739.05 0.861098 -1.31996 0
M  V30 7704 C 740.296 1.61707 -1.23379 0
M  V30 7705 C 740.651 1.91315 0.204026 0
M  V30 7706 O 739.944 1.53997 1.13998 0
M  V30 7707 C 740.138 2.94822 -2.02027 0
M  V30 7708 C 739.967 2.78212 -3.5331 0
M  V30 7709 C 738.737 2.76933 -4.22654 0
M  V30 7710 C 740.935 2.52432 -4.48088 0
M  V30 7711 N 738.917 2.51466 -5.60034 0
M  V30 7712 C 740.288 2.36312 -5.73198 0
M  V30 7713 C 742.343 2.37848 -4.37416 0
M  V30 7714 C 741.046 2.0709 -6.88844 0
M  V30 7715 C 743.072 2.10016 -5.52854 0
M  V30 7716 C 742.434 1.94691 -6.7696 0
M  V30 7717 H 738.533 0.595703 -0.506618 0
M  V30 7718 H 741.117 1.01275 -1.66287 0
M  V30 7719 H 739.288 3.53243 -1.61474 0
M  V30 7720 H 741.02 3.59756 -1.85358 0
M  V30 7721 H 737.775 2.89638 -3.74709 0
M  V30 7722 H 738.199 2.41679 -6.32392 0
M  V30 7723 H 742.841 2.4842 -3.42122 0
M  V30 7724 H 740.559 1.95256 -7.84156 0
M  V30 7725 H 744.145 1.99519 -5.46519 0
M  V30 7726 H 743.025 1.7346 -7.64775 0
M  V30 7727 N 740.528 1.15101 1.07655 0
M  V30 7728 C 741.476 0.840714 2.16875 0
M  V30 7729 C 742.47 -0.184594 1.68391 0
M  V30 7730 O 743.676 -0.0399315 1.79956 0
M  V30 7731 H 740.051 0.254192 0.707736 0
M  V30 7732 H 742.022 1.76959 2.40266 0
M  V30 7733 C 740.771 0.343018 3.46004 0
M  V30 7734 H 740.094 1.12335 3.83694 0
M  V30 7735 H 741.534 0.16453 4.23681 0
M  V30 7736 C 739.993 -0.934881 3.23669 0
M  V30 7737 O 740.523 -2.00706 3.47965 0
M  V30 7738 N 738.729 -0.873167 2.77172 0
M  V30 7739 H 738.276 -0.000479072 2.576 0
M  V30 7740 H 738.234 -1.72873 2.62607 0
M  V30 7741 N 742.006 -1.2595 0.947325 0
M  V30 7742 C 743.231 -1.98083 0.614633 0
M  V30 7743 C 743.656 -1.70013 -0.804815 0
M  V30 7744 O 743.014 -0.95175 -1.54309 0
M  V30 7745 C 743.062 -3.4993 0.870706 0
M  V30 7746 O 742.166 -4.12364 -0.0541451 0
M  V30 7747 H 741.507 -0.621232 0.234451 0
M  V30 7748 H 744.037 -1.60259 1.27193 0
M  V30 7749 H 744.047 -4.00198 0.794051 0
M  V30 7750 H 742.722 -3.69691 1.90529 0
M  V30 7751 H 741.299 -3.72826 0.0740917 0
M  V30 7752 N 743.484 -0.715051 -1.40445 0
M  V30 7753 C 744.895 -0.326763 -1.83818 0
M  V30 7754 C 745.246 1.13851 -1.59789 0
M  V30 7755 O 744.371 1.87611 -1.07848 0
M  V30 7756 C 744.966 -0.586297 -3.33688 0
M  V30 7757 C 743.525 -0.251724 -3.75557 0
M  V30 7758 C 742.672 -0.858928 -2.63662 0
M  V30 7759 H 745.623 -0.914241 -1.2972 0
M  V30 7760 H 745.644 0.148636 -3.8021 0
M  V30 7761 H 745.156 -1.65281 -3.51146 0
M  V30 7762 H 743.257 0.809754 -3.63695 0
M  V30 7763 H 743.37 -0.720348 -4.73654 0
M  V30 7764 H 741.734 -0.287013 -2.53078 0
M  V30 7765 H 742.517 -1.9297 -2.83932 0
M  V30 7766 N 744.962 1.50701 -0.461195 0
M  V30 7767 C 746.19 2.06681 0.0951756 0
M  V30 7768 C 746.605 1.32615 1.34382 0
M  V30 7769 O 745.962 0.392531 1.78229 0
M  V30 7770 C 746.013 3.59354 0.393316 0
M  V30 7771 O 745.734 4.30626 -0.805797 0
M  V30 7772 C 747.235 4.31926 0.997744 0
M  V30 7773 H 744.455 0.670995 -0.00267259 0
M  V30 7774 H 746.999 1.93991 -0.647137 0
M  V30 7775 H 745.154 3.7188 1.08555 0
M  V30 7776 H 745.568 5.21667 -0.544409 0
M  V30 7777 H 747.042 5.39756 1.15619 0
M  V30 7778 H 747.519 3.91772 1.98523 0
M  V30 7779 H 748.125 4.23905 0.344188 0
M  V30 7780 O 746.479 0.334734 1.57993 0
M  V30 7781 H 747.17 -0.222689 1.92416 0
M  V30 END ATOM
M  V30 BEGIN BOND
M  V30 END BOND
M  V30 END CTAB
M  END
$$$$
