drugbank_target|O15393 Transmembrane protease serine 2 (DB13729)
 OpenBabel12092121223D

  0  0  0     0  0            999 V3000
M  V30 BEGIN CTAB
M  V30 COUNTS 7437 7544 0 0 0
M  V30 BEGIN ATOM
M  V30 1 H -0.908 1.98254 -0.117106 0
M  V30 2 N 0 1.576 0 0
M  V30 3 C 0.933 2.03868 1.02534 0
M  V30 4 C 1.911 0.928543 1.3348 0
M  V30 5 O 3.095 1.19667 1.45644 0
M  V30 6 C 0.222 2.43627 2.35294 0
M  V30 7 C -0.732 3.65373 2.2001 0
M  V30 8 S 0.101 5.13292 1.52614 0
M  V30 9 C 1.257 5.56322 2.86805 0
M  V30 10 H 1.49 2.90518 0.631377 0
M  V30 11 H -0.977 1.52953 0.210867 0
M  V30 12 H 0.981 2.67203 3.11629 0
M  V30 13 H -0.358 1.57376 2.7183 0
M  V30 14 H -1.165 3.90944 3.18086 0
M  V30 15 H -1.563 3.418 1.51819 0
M  V30 16 H 0.729 5.58782 3.83104 0
M  V30 17 H 1.672 6.56266 2.65933 0
M  V30 18 H 2.08 4.83886 2.90714 0
M  V30 19 N 1.4781 -0.272755 1.55222 0
M  V30 20 C 2.4411 -1.32041 1.87344 0
M  V30 21 C 3.4411 -1.42342 0.74803 0
M  V30 22 O 4.6311 -1.41488 1.0162 0
M  V30 23 C 1.7631 -2.70173 2.07893 0
M  V30 24 H 2.9561 -1.04789 2.80997 0
M  V30 25 H 0.5091 -0.51083 1.47717 0
M  V30 26 H 1.2441 -3.02605 1.16622 0
M  V30 27 H 1.0291 -2.64082 2.89833 0
M  V30 28 H 2.5191 -3.45869 2.34017 0
M  V30 29 N 2.9562 -1.48159 -0.537278 0
M  V30 30 C 3.8862 -1.65029 -1.6519 0
M  V30 31 C 4.8672 -0.499281 -1.62607 0
M  V30 32 O 6.0522 -0.730972 -1.79918 0
M  V30 33 C 3.1822 -1.68303 -3.03795 0
M  V30 34 C 2.1362 -2.8283 -3.21234 0
M  V30 35 C 1.4622 -2.71189 -4.60826 0
M  V30 36 C 2.7622 -4.24211 -3.04701 0
M  V30 37 H 4.4562 -2.58341 -1.51328 0
M  V30 38 H 2.0022 -1.24325 -0.726585 0
M  V30 39 H 3.9552 -1.78693 -3.81637 0
M  V30 40 H 2.6792 -0.715635 -3.18663 0
M  V30 41 H 1.3382 -2.71983 -2.45807 0
M  V30 42 H 0.9862 -1.72435 -4.7252 0
M  V30 43 H 0.6862 -3.48035 -4.7344 0
M  V30 44 H 2.2102 -2.83537 -5.40777 0
M  V30 45 H 3.6242 -4.3593 -3.72341 0
M  V30 46 H 2.0212 -5.01998 -3.28813 0
M  V30 47 H 3.0912 -4.41184 -2.01209 0
M  V30 48 N 4.4343 0.785586 -1.36625 0
M  V30 49 C 5.3823 1.91978 -1.31329 0
M  V30 50 C 6.3763 1.68162 -0.204416 0
M  V30 51 O 7.5823 1.76122 -0.371645 0
M  V30 52 H 3.9573 0.631087 -0.408942 0
M  V30 53 H 5.9283 1.93562 -2.27104 0
M  V30 54 C 4.6773 3.29055 -1.12329 0
M  V30 55 H 4.0003 3.4795 -1.96903 0
M  V30 56 H 5.4403 4.08756 -1.12671 0
M  V30 57 C 3.8993 3.36461 0.171861 0
M  V30 58 O 4.4293 3.84576 1.16035 0
M  V30 59 N 2.6353 2.89782 0.217846 0
M  V30 60 H 2.1823 2.50819 -0.587183 0
M  V30 61 H 2.1403 2.95119 1.08408 0
M  V30 62 N 5.9124 1.20967 1.01018 0
M  V30 63 C 7.1374 1.0503 1.78839 0
M  V30 64 C 7.5624 -0.395752 1.8389 0
M  V30 65 O 6.9204 -1.28529 1.27867 0
M  V30 66 C 6.9684 1.64602 3.2084 0
M  V30 67 O 6.0724 0.887988 4.02726 0
M  V30 68 H 5.4134 0.369987 0.551367 0
M  V30 69 H 7.9434 1.60399 1.27018 0
M  V30 70 H 7.9534 1.68607 3.71532 0
M  V30 71 H 6.6284 2.69841 3.16479 0
M  V30 72 H 5.2054 0.922648 3.61305 0
M  V30 73 N 7.3905 -1.2043 1.01659 0
M  V30 74 C 8.6385 -1.89423 0.704522 0
M  V30 75 C 8.9595 -1.79231 -0.768197 0
M  V30 76 O 8.2295 -1.1947 -1.55254 0
M  V30 77 H 6.8095 -0.701178 0.257602 0
M  V30 78 H 9.4715 -1.4626 1.28818 0
M  V30 79 H 8.5675 -2.96052 0.987916 0
M  V30 80 N 8.8686 -0.792821 -1.36206 0
M  V30 81 C 10.0936 -0.377701 -2.03932 0
M  V30 82 C 10.5186 0.998947 -1.59382 0
M  V30 83 O 9.8766 1.64421 -0.763903 0
M  V30 84 C 9.9246 -0.453635 -3.57735 0
M  V30 85 O 9.0286 0.538151 -4.08874 0
M  V30 86 H 8.3696 -0.159855 -0.644471 0
M  V30 87 H 10.8996 -1.07488 -1.7409 0
M  V30 88 H 10.9096 -0.318464 -4.06755 0
M  V30 89 H 9.5846 -1.45784 -3.89512 0
M  V30 90 H 8.1616 0.364359 -3.71116 0
M  V30 91 N 10.3467 1.47872 -0.545128 0
M  V30 92 C 11.7577 1.86384 -0.108581 0
M  V30 93 C 12.1087 1.45309 1.31832 0
M  V30 94 O 11.2337 0.850641 1.9898 0
M  V30 95 C 11.8287 3.38265 -0.190274 0
M  V30 96 C 10.3877 3.75914 0.191164 0
M  V30 97 C 9.5347 2.71926 -0.543273 0
M  V30 98 H 12.4857 1.39561 -0.755537 0
M  V30 99 H 12.5067 3.75831 0.594217 0
M  V30 100 H 12.0187 3.6813 -1.2289 0
M  V30 101 H 10.1197 3.51665 1.23136 0
M  V30 102 H 10.2327 4.78836 -0.158987 0
M  V30 103 H 8.5967 2.54697 0.0122495 0
M  V30 104 H 9.3797 3.04634 -1.58282 0
M  V30 105 N 11.8248 0.280983 1.55075 0
M  V30 106 C 13.2358 -0.215629 1.85451 0
M  V30 107 C 13.5868 -1.54991 1.203 0
M  V30 108 O 12.7118 -2.10699 0.493435 0
M  V30 109 C 13.3068 -0.398026 3.36454 0
M  V30 110 C 11.8658 -0.838866 3.66933 0
M  V30 111 C 11.0128 0.064458 2.77225 0
M  V30 112 H 13.9638 0.502601 1.50531 0
M  V30 113 H 13.9848 -1.23569 3.59876 0
M  V30 114 H 13.4968 0.573241 3.83843 0
M  V30 115 H 11.5978 -1.8214 3.25048 0
M  V30 116 H 11.7108 -0.672123 4.74362 0
M  V30 117 H 10.0748 -0.452863 2.50642 0
M  V30 118 H 10.8578 1.03172 3.2743 0
M  V30 119 N 13.3029 -1.57598 0.00835791 0
M  V30 120 C 14.2659 -2.07884 -0.965242 0
M  V30 121 C 15.2659 -0.989825 -1.26725 0
M  V30 122 O 16.4559 -1.25218 -1.21104 0
M  V30 123 C 13.5879 -2.52731 -2.28779 0
M  V30 124 H 14.7809 -2.95178 -0.530112 0
M  V30 125 H 12.3339 -1.54458 -0.239283 0
M  V30 126 H 13.0689 -1.68705 -2.76964 0
M  V30 127 H 12.8539 -3.32272 -2.08177 0
M  V30 128 H 14.3439 -2.91933 -2.98605 0
M  V30 129 N 14.781 0.264519 -1.55364 0
M  V30 130 C 16.03 0.992812 -1.75574 0
M  V30 131 C 16.343 1.87142 -0.568979 0
M  V30 132 O 17.549 2.63513 -0.653682 0
M  V30 133 C 16.005 1.81519 -3.10771 0
M  V30 134 C 15.613 0.984839 -4.37041 0
M  V30 135 C 17.357 2.53727 -3.40327 0
M  V30 136 C 15.264 1.80209 -5.63275 0
M  V30 137 H 14.194 0.374412 -0.65447 0
M  V30 138 H 16.845 0.248138 -1.81815 0
M  V30 139 H 15.227 2.60115 -2.98591 0
M  V30 140 H 16.401 0.242455 -4.60162 0
M  V30 141 H 14.716 0.37691 -4.14691 0
M  V30 142 H 17.313 3.15292 -4.3185 0
M  V30 143 H 17.656 3.24447 -2.60845 0
M  V30 144 H 18.189 1.82156 -3.53644 0
M  V30 145 H 14.928 1.13896 -6.45529 0
M  V30 146 H 14.448 2.52022 -5.44284 0
M  V30 147 H 16.127 2.37364 -6.01887 0
M  V30 148 N 16.2591 1.48442 0.529413 0
M  V30 149 C 17.5071 1.56179 1.28267 0
M  V30 150 C 17.8281 0.237721 1.93546 0
M  V30 151 O 17.0981 -0.740779 1.81354 0
M  V30 152 H 15.6781 0.575367 0.476405 0
M  V30 153 H 18.3401 1.84909 0.61602 0
M  V30 154 H 17.4361 2.34312 2.06165 0
M  V30 155 N 17.7372 -0.778329 1.37039 0
M  V30 156 C 19.1482 -1.35421 1.28523 0
M  V30 157 C 19.4992 -1.96075 -0.0700901 0
M  V30 158 O 18.6242 -1.93352 -0.971801 0
M  V30 159 C 19.2192 -2.46211 2.32735 0
M  V30 160 C 17.7782 -2.99585 2.27873 0
M  V30 161 C 16.9252 -1.72748 2.16918 0
M  V30 162 H 19.8762 -0.5791 1.47757 0
M  V30 163 H 19.8972 -3.2552 1.9702 0
M  V30 164 H 19.4092 -2.02036 3.31365 0
M  V30 165 H 17.5102 -3.48152 1.32745 0
M  V30 166 H 17.6232 -3.55646 3.21018 0
M  V30 167 H 15.9872 -1.95416 1.63354 0
M  V30 168 H 16.7702 -1.30686 3.17452 0
M  V30 169 N 19.2153 -1.21501 -1.00376 0
M  V30 170 C 20.4453 -1.05746 -1.77486 0
M  V30 171 C 20.8533 0.395655 -1.85017 0
M  V30 172 O 20.1963 1.28626 -1.31152 0
M  V30 173 C 20.2583 -1.58092 -3.22873 0
M  V30 174 C 19.9223 -3.06568 -3.38917 0
M  V30 175 C 20.9193 -4.04106 -3.271 0
M  V30 176 C 18.6043 -3.45799 -3.64319 0
M  V30 177 C 20.5983 -5.38862 -3.40451 0
M  V30 178 C 18.2853 -4.80707 -3.77311 0
M  V30 179 C 19.2833 -5.77047 -3.65384 0
M  V30 180 O 18.9713 -7.09507 -3.77961 0
M  V30 181 H 18.7033 -0.371778 -0.564586 0
M  V30 182 H 21.2573 -1.61319 -1.27143 0
M  V30 183 H 19.4873 -0.969163 -3.74358 0
M  V30 184 H 21.1763 -1.38162 -3.81662 0
M  V30 185 H 21.9423 -3.75141 -3.07399 0
M  V30 186 H 17.8213 -2.71344 -3.72684 0
M  V30 187 H 21.3653 -6.14041 -3.31058 0
M  V30 188 H 17.2623 -5.09357 -3.96517 0
M  V30 189 H 18.0303 -7.16935 -3.94901 0
M  V30 190 N 20.6934 1.19889 -1.02296 0
M  V30 191 C 21.9234 1.93109 -0.734332 0
M  V30 192 C 22.3314 1.75377 0.709889 0
M  V30 193 O 21.6744 1.06912 1.49384 0
M  V30 194 C 21.7364 3.45362 -0.99827 0
M  V30 195 C 21.4004 3.8686 -2.43287 0
M  V30 196 C 22.3974 3.92102 -3.41397 0
M  V30 197 C 20.0824 4.18668 -2.77529 0
M  V30 198 C 22.0764 4.28573 -4.71809 0
M  V30 199 C 19.7634 4.54813 -4.08153 0
M  V30 200 C 20.7614 4.59739 -5.05103 0
M  V30 201 O 20.4494 4.95051 -6.33388 0
M  V30 202 H 20.1814 0.620409 -0.268456 0
M  V30 203 H 22.7354 1.53144 -1.3688 0
M  V30 204 H 20.9654 3.85482 -0.306645 0
M  V30 205 H 22.6544 3.99814 -0.700234 0
M  V30 206 H 23.4204 3.67685 -3.1628 0
M  V30 207 H 19.2994 4.14021 -2.0275 0
M  V30 208 H 22.8434 4.32333 -5.4748 0
M  V30 209 H 18.7404 4.78687 -4.33047 0
M  V30 210 H 19.5084 5.1302 -6.37772 0
M  V30 211 N 22.1715 0.800033 1.35784 0
M  V30 212 C 23.0815 0.207204 2.33683 0
M  V30 213 C 24.0975 -0.64631 1.61551 0
M  V30 214 O 25.2735 -0.559604 1.93469 0
M  V30 215 C 22.3385 -0.639659 3.40748 0
M  V30 216 C 21.3995 0.233585 4.28664 0
M  V30 217 C 20.6325 -0.572954 5.30616 0
M  V30 218 O 20.8555 -1.80816 5.40982 0
M  V30 219 O 19.7895 0.0327285 6.01891 0
M  V30 220 H 23.6155 1.01692 2.86169 0
M  V30 221 H 21.2005 0.561691 1.38439 0
M  V30 222 H 23.0825 -1.12223 4.06182 0
M  V30 223 H 21.7575 -1.42708 2.90544 0
M  V30 224 H 20.6645 0.763147 3.66233 0
M  V30 225 H 21.9975 0.984784 4.82248 0
M  V30 226 N 23.6496 -1.47581 0.552962 0
M  V30 227 C 24.5976 -2.31648 -0.21023 0
M  V30 228 C 25.5916 -1.42663 -0.913432 0
M  V30 229 O 26.7976 -1.5945 -0.835201 0
M  V30 230 H 23.1726 -0.746989 -0.0866676 0
M  V30 231 H 25.1436 -2.93869 0.518051 0
M  V30 232 C 23.8926 -3.25226 -1.22976 0
M  V30 233 H 23.2156 -3.93658 -0.698077 0
M  V30 234 H 24.6556 -3.86889 -1.73473 0
M  V30 235 C 23.1146 -2.48448 -2.27542 0
M  V30 236 O 23.6446 -2.22585 -3.34393 0
M  V30 237 N 21.8506 -2.09532 -2.01357 0
M  V30 238 H 21.3976 -2.30765 -1.14478 0
M  V30 239 H 21.3556 -1.58476 -2.71538 0
M  V30 240 N 25.1277 -0.289203 -1.54924 0
M  V30 241 C 26.0777 0.606939 -2.19773 0
M  V30 242 C 27.0617 1.10783 -1.16687 0
M  V30 243 O 28.2537 1.05057 -1.4245 0
M  V30 244 C 25.3827 1.78398 -2.93307 0
M  V30 245 C 24.4687 1.29961 -4.03697 0
M  V30 246 N 24.8597 0.532377 -5.0299 0
M  V30 247 C 23.1577 1.58136 -4.17024 0
M  V30 248 C 23.8587 0.275912 -5.81045 0
M  V30 249 N 22.8347 0.852365 -5.36876 0
M  V30 250 H 26.6367 0.0130779 -2.93897 0
M  V30 251 H 24.1507 -0.09341 -1.62131 0
M  V30 252 H 26.1477 2.43741 -3.38225 0
M  V30 253 H 24.8077 2.38166 -2.20697 0
M  V30 254 H 25.8187 0.17838 -5.17593 0
M  V30 255 H 22.4957 2.18738 -3.55612 0
M  V30 256 H 23.8857 -0.339502 -6.71042 0
M  V30 257 N 26.6058 1.57591 -0.0167156 0
M  V30 258 C 27.8538 1.90906 0.663285 0
M  V30 259 C 28.1748 0.892509 1.73376 0
M  V30 260 O 27.4448 -0.0677623 1.95783 0
M  V30 261 H 26.0248 0.704637 0.247983 0
M  V30 262 H 28.6868 1.94803 -0.0615909 0
M  V30 263 H 27.7828 2.9116 1.12393 0
M  V30 264 N 28.0839 -0.256276 1.55502 0
M  V30 265 C 29.3139 -1.00196 1.80677 0
M  V30 266 C 29.7219 -1.79805 0.588797 0
M  V30 267 O 29.0649 -1.78055 -0.451883 0
M  V30 268 C 29.1269 -1.99515 2.99055 0
M  V30 269 C 28.7909 -1.38688 4.35448 0
M  V30 270 C 29.7879 -0.794079 5.138 0
M  V30 271 C 27.4729 -1.40906 4.82132 0
M  V30 272 C 29.4669 -0.231562 6.36979 0
M  V30 273 C 27.1539 -0.842684 6.05262 0
M  V30 274 C 28.1519 -0.254953 6.82524 0
M  V30 275 O 27.8399 0.3027 8.0333 0
M  V30 276 H 27.5719 -0.300919 0.60533 0
M  V30 277 H 30.1259 -0.287307 2.03381 0
M  V30 278 H 28.3559 -2.74785 2.72084 0
M  V30 279 H 30.0449 -2.60349 3.11405 0
M  V30 280 H 30.8109 -0.769519 4.78856 0
M  V30 281 H 26.6899 -1.85591 4.21992 0
M  V30 282 H 30.2339 0.227816 6.97228 0
M  V30 283 H 26.1309 -0.86454 6.39684 0
M  V30 284 H 26.8989 0.193662 8.18271 0
M  V30 285 N 29.562 -1.4872 -0.521534 0
M  V30 286 C 30.494 -1.59968 -1.64143 0
M  V30 287 C 31.507 -0.483463 -1.55456 0
M  V30 288 O 32.696 -0.75467 -1.61762 0
M  V30 289 C 29.796 -1.52127 -3.02838 0
M  V30 290 C 28.969 -2.78932 -3.36921 0
M  V30 291 C 28.028 -2.64428 -4.54933 0
M  V30 292 O 27.054 -3.38331 -4.57735 0
M  V30 293 N 28.256 -1.74606 -5.53618 0
M  V30 294 H 31.021 -2.56548 -1.54929 0
M  V30 295 H 28.582 -1.45551 -0.708988 0
M  V30 296 H 30.574 -1.40106 -3.79674 0
M  V30 297 H 29.144 -0.634868 -3.06085 0
M  V30 298 H 28.364 -3.05455 -2.4918 0
M  V30 299 H 29.652 -3.63041 -3.56481 0
M  V30 300 H 29.05 -1.13782 -5.54139 0
M  V30 301 H 27.607 -1.6852 -6.29638 0
M  V30 302 N 31.0401 0.771051 -1.3745 0
M  V30 303 C 32.4511 1.34737 -1.29239 0
M  V30 304 C 32.8021 1.96109 0.0596908 0
M  V30 305 O 31.9271 1.93865 0.961534 0
M  V30 306 C 32.5221 2.44973 -2.34037 0
M  V30 307 C 31.0811 2.98372 -2.29458 0
M  V30 308 C 30.2281 1.71595 -2.17831 0
M  V30 309 H 33.1791 0.571256 -1.48062 0
M  V30 310 H 33.2001 3.24471 -1.98744 0
M  V30 311 H 32.7121 2.00276 -3.32432 0
M  V30 312 H 30.8131 3.47443 -1.34589 0
M  V30 313 H 30.9261 3.53939 -3.229 0
M  V30 314 H 29.2901 1.94547 -1.64388 0
M  V30 315 H 30.0731 1.29001 -3.18141 0
M  V30 316 N 32.5182 1.22032 0.997298 0
M  V30 317 C 33.4282 1.00271 2.12092 0
M  V30 318 C 34.4442 -0.047621 1.73935 0
M  V30 319 O 35.6202 0.144136 2.00884 0
M  V30 320 C 32.6852 0.578449 3.4184 0
M  V30 321 C 31.7462 1.70189 3.94125 0
M  V30 322 C 30.9792 1.29778 5.17681 0
M  V30 323 O 31.2022 0.174676 5.70132 0
M  V30 324 O 30.1362 2.11261 5.63607 0
M  V30 325 H 33.9622 1.94398 2.3333 0
M  V30 326 H 31.5472 1.00587 1.10465 0
M  V30 327 H 33.4292 0.351998 4.19927 0
M  V30 328 H 32.1042 -0.334019 3.21972 0
M  V30 329 H 31.0112 1.98282 3.1723 0
M  V30 330 H 32.3442 2.59206 4.18417 0
M  V30 331 N 33.9963 -1.19345 1.0293 0
M  V30 332 C 34.9443 -2.24621 0.604001 0
M  V30 333 C 35.9383 -1.65452 -0.363587 0
M  V30 334 O 37.1443 -1.78497 -0.23212 0
M  V30 335 H 33.5193 -0.730858 0.177061 0
M  V30 336 H 35.4903 -2.5781 1.50255 0
M  V30 337 C 34.2393 -3.47688 -0.0289127 0
M  V30 338 H 33.5623 -3.93505 0.706651 0
M  V30 339 H 35.0023 -4.23011 -0.289432 0
M  V30 340 C 33.4613 -3.11817 -1.2756 0
M  V30 341 O 33.9913 -3.2451 -2.36762 0
M  V30 342 N 32.1973 -2.66246 -1.16453 0
M  V30 343 H 31.7443 -2.56118 -0.275914 0
M  V30 344 H 31.7023 -2.42617 -1.99961 0
M  V30 345 N 35.4744 -0.807222 -1.35358 0
M  V30 346 C 36.8854 -0.44876 -1.81226 0
M  V30 347 C 37.2364 1.02929 -1.67033 0
M  V30 348 O 36.3614 1.79991 -1.20133 0
M  V30 349 C 36.9564 -0.807774 -3.2903 0
M  V30 350 C 35.5154 -0.501901 -3.73039 0
M  V30 351 C 34.6624 -1.03304 -2.57339 0
M  V30 352 H 37.6134 -0.998808 -1.23327 0
M  V30 353 H 37.6344 -0.10554 -3.80354 0
M  V30 354 H 37.1464 -1.88357 -3.39328 0
M  V30 355 H 35.2474 0.565128 -3.68289 0
M  V30 356 H 35.3604 -1.03497 -4.67787 0
M  V30 357 H 33.7244 -0.455339 -2.50597 0
M  V30 358 H 34.5074 -2.11496 -2.70415 0
M  V30 359 N 36.9525 1.47285 -0.560781 0
M  V30 360 C 38.1825 2.06555 -0.0429638 0
M  V30 361 C 38.5905 1.41339 1.25777 0
M  V30 362 O 37.9335 0.505182 1.76617 0
M  V30 363 C 37.9955 3.58827 0.219887 0
M  V30 364 C 37.6595 4.46105 -0.991944 0
M  V30 365 C 38.6565 4.84 -1.89843 0
M  V30 366 C 36.3415 4.87567 -1.20762 0
M  V30 367 C 38.3355 5.6216 -3.00425 0
M  V30 368 C 36.0225 5.65491 -2.31653 0
M  V30 369 C 37.0205 6.02699 -3.21315 0
M  V30 370 O 36.7085 6.79052 -4.30283 0
M  V30 371 H 36.4405 0.674537 -0.0444468 0
M  V30 372 H 38.9945 1.90225 -0.774818 0
M  V30 373 H 37.2245 3.73383 1.00609 0
M  V30 374 H 38.9135 4.00103 0.683522 0
M  V30 375 H 39.6795 4.52564 -1.74387 0
M  V30 376 H 35.5585 4.5807 -0.518893 0
M  V30 377 H 39.1025 5.9112 -3.70436 0
M  V30 378 H 34.9995 5.9634 -2.47081 0
M  V30 379 H 35.7675 6.9745 -4.28376 0
M  V30 380 N 38.4306 0.297415 1.54768 0
M  V30 381 C 39.8416 -0.195947 1.85669 0
M  V30 382 C 40.1926 -1.53707 1.21937 0
M  V30 383 O 39.3176 -2.10164 0.515754 0
M  V30 384 C 39.9126 -0.362318 3.36857 0
M  V30 385 C 38.4716 -0.799901 3.67802 0
M  V30 386 C 37.6186 0.0938578 2.77141 0
M  V30 387 H 40.5696 0.518538 1.4999 0
M  V30 388 H 40.5906 -1.19745 3.61167 0
M  V30 389 H 40.1026 0.613921 3.83214 0
M  V30 390 H 38.2036 -1.78682 3.26961 0
M  V30 391 H 38.3166 -0.621773 4.75048 0
M  V30 392 H 36.6806 -0.426254 2.51108 0
M  V30 393 H 37.4636 1.06639 3.26318 0
M  V30 394 N 39.9087 -1.5758 0.0250728 0
M  V30 395 C 40.8717 -2.08896 -0.943139 0
M  V30 396 C 41.8717 -1.00321 -1.25668 0
M  V30 397 O 43.0617 -1.26495 -1.19769 0
M  V30 398 C 40.1937 -2.55143 -2.26086 0
M  V30 399 H 41.3867 -2.95723 -0.498775 0
M  V30 400 H 38.9397 -1.54703 -0.222888 0
M  V30 401 H 39.6747 -1.71633 -2.75159 0
M  V30 402 H 39.4597 -3.34461 -2.04641 0
M  V30 403 H 40.9497 -2.95083 -2.95492 0
M  V30 404 N 41.3868 0.248026 -1.55636 0
M  V30 405 C 42.3188 1.32993 -1.8667 0
M  V30 406 C 43.3318 1.44345 -0.752877 0
M  V30 407 O 44.5208 1.45715 -1.03098 0
M  V30 408 C 41.6208 2.70863 -2.03682 0
M  V30 409 C 40.7938 2.81792 -3.34532 0
M  V30 410 C 39.8528 4.005 -3.41301 0
M  V30 411 O 38.8788 3.9008 -4.14519 0
M  V30 412 N 40.0808 5.13618 -2.70512 0
M  V30 413 H 42.8458 1.06707 -2.8006 0
M  V30 414 H 40.4068 0.438129 -1.55859 0
M  V30 415 H 42.3988 3.48612 -2.05553 0
M  V30 416 H 40.9688 2.89862 -1.17041 0
M  V30 417 H 40.1888 1.90729 -3.44987 0
M  V30 418 H 41.4768 2.86043 -4.20781 0
M  V30 419 H 40.8748 5.24975 -2.10755 0
M  V30 420 H 39.4318 5.89505 -2.78077 0
M  V30 421 N 42.8649 1.48995 0.513639 0
M  V30 422 C 44.2759 1.5119 1.09537 0
M  V30 423 C 44.6269 0.290906 1.94031 0
M  V30 424 O 43.7519 -0.60049 2.07902 0
M  V30 425 C 44.3469 2.73964 1.99322 0
M  V30 426 C 42.9059 2.78978 2.52682 0
M  V30 427 C 42.0529 2.44934 1.30009 0
M  V30 428 H 45.0039 1.55875 0.298125 0
M  V30 429 H 45.0249 2.53409 2.83838 0
M  V30 430 H 44.5369 3.62813 1.37799 0
M  V30 431 H 42.6379 1.94378 3.1788 0
M  V30 432 H 42.7509 3.8083 2.90698 0
M  V30 433 H 41.1149 1.9644 1.62122 0
M  V30 434 H 41.8979 3.36043 0.702131 0
M  V30 435 N 44.343 -0.763751 1.37857 0
M  V30 436 C 45.571 -1.55293 1.36718 0
M  V30 437 C 45.986 -1.88745 -0.0455434 0
M  V30 438 O 45.343 -1.52039 -1.00947 0
M  V30 439 C 45.394 -2.85831 2.2132 0
M  V30 440 O 45.115 -2.5381 3.57089 0
M  V30 441 C 46.616 -3.80023 2.28249 0
M  V30 442 H 43.836 -0.480841 0.468009 0
M  V30 443 H 46.38 -0.946009 1.81303 0
M  V30 444 H 44.535 -3.42926 1.80223 0
M  V30 445 H 44.949 -3.37459 4.01524 0
M  V30 446 H 46.423 -4.68599 2.91752 0
M  V30 447 H 46.9 -4.1973 1.2932 0
M  V30 448 H 47.506 -3.28855 2.69693 0
M  V30 449 N 45.8211 -1.22559 -0.990812 0
M  V30 450 C 47.0671 -1.05297 -1.73322 0
M  V30 451 C 47.4001 0.410655 -1.89808 0
M  V30 452 O 46.6751 1.30439 -1.44277 0
M  V30 453 C 46.9581 -1.76713 -3.13759 0
M  V30 454 C 46.8111 -3.30684 -3.04907 0
M  V30 455 C 48.1301 -1.52121 -4.12974 0
M  V30 456 H 45.2491 -0.38392 -0.629106 0
M  V30 457 H 47.8911 -1.50926 -1.15418 0
M  V30 458 H 46.0411 -1.37924 -3.63193 0
M  V30 459 H 47.7131 -3.7893 -2.63077 0
M  V30 460 H 45.9561 -3.60253 -2.41661 0
M  V30 461 H 46.6271 -3.75833 -4.04294 0
M  V30 462 H 49.1031 -1.85819 -3.72304 0
M  V30 463 H 47.9791 -2.04582 -5.0935 0
M  V30 464 H 48.2401 -0.454257 -4.3976 0
M  V30 465 N 47.2992 1.18797 -1.03562 0
M  V30 466 C 48.5452 1.8893 -0.737113 0
M  V30 467 C 48.8782 1.79837 0.732956 0
M  V30 468 O 48.1532 1.19525 1.5344 0
M  V30 469 C 48.4362 3.39607 -1.19745 0
M  V30 470 C 48.2892 3.57537 -2.72924 0
M  V30 471 C 49.6082 4.33069 -0.783526 0
M  V30 472 H 46.7272 0.686057 -0.269249 0
M  V30 473 H 49.3692 1.39797 -1.28673 0
M  V30 474 H 47.5192 3.81583 -0.729855 0
M  V30 475 H 49.1912 3.24688 -3.27682 0
M  V30 476 H 47.4342 3.00363 -3.12993 0
M  V30 477 H 48.1052 4.63238 -3.00191 0
M  V30 478 H 50.5812 3.98846 -1.18581 0
M  V30 479 H 49.4572 5.3707 -1.13343 0
M  V30 480 H 49.7182 4.40986 0.313681 0
M  V30 481 N 48.7773 0.814389 1.34928 0
M  V30 482 C 50.1883 0.458364 1.80986 0
M  V30 483 C 50.5393 -1.02042 1.67577 0
M  V30 484 O 49.6643 -1.79352 1.21086 0
M  V30 485 C 50.2593 0.825212 3.28597 0
M  V30 486 C 48.8183 0.521677 3.72767 0
M  V30 487 C 47.9653 1.04668 2.56788 0
M  V30 488 H 50.9163 1.00533 1.22795 0
M  V30 489 H 50.9373 0.12571 3.80292 0
M  V30 490 H 50.4493 1.90154 3.38324 0
M  V30 491 H 48.5503 -0.545589 3.68584 0
M  V30 492 H 48.6633 1.05977 4.67232 0
M  V30 493 H 47.0273 0.468622 2.50352 0
M  V30 494 H 47.8103 2.12927 2.6929 0
M  V30 495 N 50.2554 -1.46986 0.568584 0
M  V30 496 C 51.4834 -2.0683 0.0539956 0
M  V30 497 C 51.8984 -1.41953 -1.24478 0
M  V30 498 O 51.2554 -0.519933 -1.74937 0
M  V30 499 C 51.3064 -3.61254 -0.133362 0
M  V30 500 O 51.0274 -4.237 1.11399 0
M  V30 501 C 52.5284 -4.37992 -0.683927 0
M  V30 502 H 49.7484 -0.669058 0.0510141 0
M  V30 503 H 52.2924 -1.88824 0.785234 0
M  V30 504 H 50.4474 -3.78735 -0.81477 0
M  V30 505 H 50.8614 -5.16388 0.91888 0
M  V30 506 H 52.3354 -5.46684 -0.764263 0
M  V30 507 H 52.8124 -4.05058 -1.69778 0
M  V30 508 H 53.4184 -4.25283 -0.0378494 0
M  V30 509 N 51.7335 -0.305618 -1.54608 0
M  V30 510 C 52.9795 0.302746 -2.00528 0
M  V30 511 C 53.3125 1.53184 -1.19367 0
M  V30 512 O 52.5875 1.92598 -0.271321 0
M  V30 513 C 52.8705 0.654756 -3.54097 0
M  V30 514 C 52.7235 -0.583793 -4.45995 0
M  V30 515 C 54.0425 1.47947 -4.14487 0
M  V30 516 H 51.1615 0.108564 -0.72896 0
M  V30 517 H 53.8035 -0.418634 -1.85331 0
M  V30 518 H 51.9535 1.26935 -3.67178 0
M  V30 519 H 53.6255 -1.22224 -4.44814 0
M  V30 520 H 51.8685 -1.21615 -4.16404 0
M  V30 521 H 52.5395 -0.293287 -5.5122 0
M  V30 522 H 55.0155 0.96013 -4.04871 0
M  V30 523 H 53.8915 1.69454 -5.22088 0
M  V30 524 H 54.1525 2.47011 -3.66658 0
M  V30 525 N 53.2116 1.57565 -0.0334293 0
M  V30 526 C 54.4416 1.95996 0.653398 0
M  V30 527 C 54.8496 0.908749 1.65947 0
M  V30 528 O 54.1926 -0.117471 1.83324 0
M  V30 529 C 54.2546 3.30589 1.41249 0
M  V30 530 C 53.9186 4.53503 0.564263 0
M  V30 531 C 54.9156 5.19647 -0.16225 0
M  V30 532 C 52.6006 4.99801 0.500398 0
M  V30 533 C 54.5946 6.30412 -0.941255 0
M  V30 534 C 52.2816 6.10448 -0.282308 0
M  V30 535 C 53.2796 6.75612 -1.00184 0
M  V30 536 O 52.9676 7.84134 -1.77171 0
M  V30 537 H 52.6996 0.65027 0.184728 0
M  V30 538 H 55.2536 2.05199 -0.0907841 0
M  V30 539 H 53.4836 3.17888 2.20191 0
M  V30 540 H 55.1726 3.53892 1.98784 0
M  V30 541 H 55.9386 4.84846 -0.12227 0
M  V30 542 H 51.8176 4.48883 1.05002 0
M  V30 543 H 55.3616 6.81208 -1.50339 0
M  V30 544 H 51.2586 6.44686 -0.323989 0
M  V30 545 H 52.0266 8.00822 -1.69194 0
M  V30 546 N 54.6897 -0.239769 1.55765 0
M  V30 547 C 55.5997 -1.31831 1.94056 0
M  V30 548 C 56.6157 -1.52275 0.841925 0
M  V30 549 O 57.7917 -1.65759 1.14394 0
M  V30 550 C 54.8567 -2.65156 2.23368 0
M  V30 551 C 53.9177 -2.53173 3.46701 0
M  V30 552 C 53.1507 -3.8014 3.74606 0
M  V30 553 O 53.3737 -4.82343 3.04469 0
M  V30 554 O 52.3077 -3.78344 4.68123 0
M  V30 555 H 56.1337 -1.02347 2.85935 0
M  V30 556 H 53.7187 -0.441123 1.42739 0
M  V30 557 H 55.6007 -3.43929 2.43497 0
M  V30 558 H 54.2757 -2.94358 1.34666 0
M  V30 559 H 53.1827 -1.72662 3.31871 0
M  V30 560 H 54.5157 -2.28915 4.35728 0
M  V30 561 N 56.1678 -1.49265 -0.50573 0
M  V30 562 C 57.4138 -1.58748 -1.26202 0
M  V30 563 C 57.7468 -0.271227 -1.92297 0
M  V30 564 O 57.0218 0.724831 -1.80489 0
M  V30 565 C 57.3048 -2.74332 -2.33268 0
M  V30 566 C 57.1578 -4.15737 -1.71705 0
M  V30 567 C 58.4768 -2.85576 -3.34865 0
M  V30 568 H 55.5958 -0.577826 -0.457478 0
M  V30 569 H 58.2378 -1.81532 -0.560897 0
M  V30 570 H 56.3878 -2.55036 -2.93068 0
M  V30 571 H 58.0598 -4.46537 -1.15769 0
M  V30 572 H 56.3028 -4.21605 -1.02135 0
M  V30 573 H 56.9738 -4.92477 -2.49341 0
M  V30 574 H 59.4498 -3.03127 -2.8505 0
M  V30 575 H 58.3258 -3.68135 -4.07146 0
M  V30 576 H 58.5868 -1.94732 -3.96903 0
M  V30 577 N 57.6459 0.756429 -1.3826 0
M  V30 578 C 58.5959 1.86069 -1.31766 0
M  V30 579 C 59.5799 1.59621 -0.202483 0
M  V30 580 O 60.7719 1.7149 -0.438211 0
M  V30 581 C 57.9009 3.23742 -1.1422 0
M  V30 582 C 56.9869 3.56091 -2.30348 0
M  V30 583 N 57.3779 3.59517 -3.55783 0
M  V30 584 C 55.6759 3.86341 -2.22838 0
M  V30 585 C 56.3769 3.89052 -4.32451 0
M  V30 586 N 55.3529 4.05736 -3.61772 0
M  V30 587 H 59.1549 1.86992 -2.26741 0
M  V30 588 H 56.6689 0.953643 -1.31451 0
M  V30 589 H 58.6659 4.02761 -1.07652 0
M  V30 590 H 57.3259 3.24073 -0.201763 0
M  V30 591 H 58.3369 3.41347 -3.89491 0
M  V30 592 H 55.0139 3.94404 -1.36937 0
M  V30 593 H 56.4039 3.98349 -5.4108 0
M  V30 594 N 59.124 1.23083 0.984299 0
M  V30 595 C 60.535 1.05609 1.5396 0
M  V30 596 C 60.886 -0.377793 1.92528 0
M  V30 597 O 60.011 -1.26398 1.75649 0
M  V30 598 C 60.606 1.91087 2.7977 0
M  V30 599 C 59.165 1.77885 3.31713 0
M  V30 600 C 58.312 1.87028 2.04733 0
M  V30 601 H 61.263 1.36802 0.804419 0
M  V30 602 H 61.284 1.43336 3.5247 0
M  V30 603 H 60.796 2.9544 2.51668 0
M  V30 604 H 58.897 0.762995 3.64704 0
M  V30 605 H 59.01 2.61047 4.01735 0
M  V30 606 H 57.374 1.30565 2.18689 0
M  V30 607 H 58.157 2.92929 1.79017 0
M  V30 608 N 60.6021 -1.18246 1.0419 0
M  V30 609 C 61.5651 -2.20128 0.638452 0
M  V30 610 C 62.5651 -1.57885 -0.304805 0
M  V30 611 O 63.7551 -1.73967 -0.0900369 0
M  V30 612 C 60.8871 -3.4084 -0.0637751 0
M  V30 613 H 62.0801 -2.57336 1.54007 0
M  V30 614 H 59.6331 -1.32152 0.834598 0
M  V30 615 H 60.3681 -3.09166 -0.979136 0
M  V30 616 H 60.1531 -3.8726 0.614198 0
M  V30 617 H 61.6431 -4.16274 -0.332512 0
M  V30 618 N 62.0802 -0.821533 -1.34494 0
M  V30 619 C 63.0122 -0.199946 -2.28326 0
M  V30 620 C 64.0252 0.609377 -1.50965 0
M  V30 621 O 65.2142 0.439285 -1.7301 0
M  V30 622 C 62.3142 0.738431 -3.30757 0
M  V30 623 C 61.4872 -0.0277632 -4.37391 0
M  V30 624 C 60.5462 0.831332 -5.19591 0
M  V30 625 O 59.5722 0.276822 -5.68526 0
M  V30 626 N 60.7742 2.15132 -5.39165 0
M  V30 627 H 63.5392 -1.00609 -2.82308 0
M  V30 628 H 61.1002 -0.678366 -1.47003 0
M  V30 629 H 63.0922 1.31773 -3.82646 0
M  V30 630 H 61.6622 1.44533 -2.7718 0
M  V30 631 H 60.8822 -0.788359 -3.86236 0
M  V30 632 H 62.1702 -0.555251 -5.05761 0
M  V30 633 H 61.5682 2.62559 -5.01078 0
M  V30 634 H 60.1252 2.6795 -5.94177 0
M  V30 635 N 63.5583 1.46682 -0.576371 0
M  V30 636 C 64.7883 2.06498 -0.0648694 0
M  V30 637 C 65.1963 1.42665 1.24271 0
M  V30 638 O 64.5393 0.523886 1.76071 0
M  V30 639 C 64.6013 3.5904 0.181816 0
M  V30 640 C 64.2653 4.45028 -1.0392 0
M  V30 641 C 65.2623 4.81959 -1.94966 0
M  V30 642 C 62.9473 4.86259 -1.25927 0
M  V30 643 C 64.9413 5.58942 -3.06371 0
M  V30 644 C 62.6283 5.63002 -2.37638 0
M  V30 645 C 63.6263 5.99257 -3.2769 0
M  V30 646 O 63.3143 6.7445 -4.37461 0
M  V30 647 H 63.0463 0.674028 -0.0515987 0
M  V30 648 H 65.6003 1.89393 -0.794951 0
M  V30 649 H 63.8303 3.74429 0.966436 0
M  V30 650 H 65.5193 4.00806 0.641047 0
M  V30 651 H 66.2853 4.50689 -1.79177 0
M  V30 652 H 62.1643 4.57494 -0.567448 0
M  V30 653 H 65.7083 5.87158 -3.76684 0
M  V30 654 H 61.6053 5.93686 -2.53392 0
M  V30 655 H 62.3733 6.92867 -4.35749 0
M  V30 656 N 65.0364 0.313813 1.54444 0
M  V30 657 C 66.2664 -0.293491 2.04505 0
M  V30 658 C 66.6744 -1.47086 1.19005 0
M  V30 659 O 66.0174 -1.82481 0.211257 0
M  V30 660 C 66.0794 -0.800455 3.50475 0
M  V30 661 C 65.7434 0.253322 4.56297 0
M  V30 662 C 66.7404 1.08612 5.08428 0
M  V30 663 C 64.4254 0.398708 5.00715 0
M  V30 664 C 66.4194 2.05013 6.0353 0
M  V30 665 C 64.1064 1.36614 5.95634 0
M  V30 666 C 65.1044 2.19033 6.46926 0
M  V30 667 O 64.7924 3.14134 7.39983 0
M  V30 668 H 64.5244 -0.0658325 0.672787 0
M  V30 669 H 67.0784 0.455177 2.00293 0
M  V30 670 H 65.3084 -1.59987 3.52053 0
M  V30 671 H 66.9974 -1.32504 3.83663 0
M  V30 672 H 67.7634 0.984736 4.74898 0
M  V30 673 H 63.6424 -0.23289 4.60411 0
M  V30 674 H 67.1864 2.69382 6.4349 0
M  V30 675 H 63.0834 1.4682 6.28581 0
M  V30 676 H 63.8514 3.0926 7.57826 0
M  V30 677 N 66.5145 -1.57545 0.0417849 0
M  V30 678 C 67.9255 -1.80011 -0.495259 0
M  V30 679 C 68.2765 -0.953199 -1.71489 0
M  V30 680 O 67.4015 -0.167138 -2.15754 0
M  V30 681 C 67.9965 -3.26482 -0.905265 0
M  V30 682 C 66.5555 -3.499 -1.38734 0
M  V30 683 C 65.7025 -2.74979 -0.358056 0
M  V30 684 H 68.6535 -1.56425 0.267736 0
M  V30 685 H 68.6745 -3.36887 -1.76882 0
M  V30 686 H 68.1865 -3.88096 -0.017401 0
M  V30 687 H 66.2875 -2.93553 -2.29471 0
M  V30 688 H 66.4005 -4.58615 -1.38598 0
M  V30 689 H 64.7645 -2.40834 -0.828912 0
M  V30 690 H 65.5475 -3.39315 0.521561 0
M  V30 691 N 67.9926 0.231505 -1.5589 0
M  V30 692 C 69.2176 0.978689 -1.82856 0
M  V30 693 C 69.6426 1.77559 -0.620846 0
M  V30 694 O 69.0006 1.76119 0.430305 0
M  V30 695 C 69.0486 1.87997 -3.07716 0
M  V30 696 O 68.1526 2.97393 -2.85712 0
M  V30 697 H 67.4936 0.277663 -0.603158 0
M  V30 698 H 70.0236 0.24783 -2.03093 0
M  V30 699 H 70.0336 2.2917 -3.37558 0
M  V30 700 H 68.7086 1.29417 -3.95252 0
M  V30 701 H 67.2856 2.60238 -2.67078 0
M  V30 702 N 69.4707 1.49531 0.497807 0
M  V30 703 C 70.8817 1.52344 1.07927 0
M  V30 704 C 71.2327 0.311469 1.93712 0
M  V30 705 O 70.3577 -0.578405 2.08527 0
M  V30 706 C 70.9527 2.76062 1.96405 0
M  V30 707 C 69.5117 2.81643 2.49709 0
M  V30 708 C 68.6587 2.46299 1.27404 0
M  V30 709 H 71.6097 1.56182 0.281576 0
M  V30 710 H 71.6307 2.56405 2.81135 0
M  V30 711 H 71.1427 3.64254 1.33943 0
M  V30 712 H 69.2437 1.97739 3.15801 0
M  V30 713 H 69.3567 3.83891 2.86643 0
M  V30 714 H 67.7207 1.98148 1.60029 0
M  V30 715 H 68.5037 3.36769 0.66645 0
M  V30 716 N 70.9488 -0.749086 1.3866 0
M  V30 717 C 72.1948 -1.51056 1.35314 0
M  V30 718 C 72.5278 -1.94121 -0.0553751 0
M  V30 719 O 71.8028 -1.65763 -1.01749 0
M  V30 720 C 72.0858 -2.76003 2.31288 0
M  V30 721 C 71.9388 -2.39047 3.8102 0
M  V30 722 C 73.2578 -3.78046 2.2532 0
M  V30 723 H 70.3768 -0.547972 0.492844 0
M  V30 724 H 73.0188 -0.857628 1.69543 0
M  V30 725 H 71.1688 -3.31716 2.02229 0
M  V30 726 H 72.8408 -1.89074 4.20771 0
M  V30 727 H 71.0838 -1.71449 3.98482 0
M  V30 728 H 71.7548 -3.28462 4.4364 0
M  V30 729 H 74.2308 -3.31884 2.50983 0
M  V30 730 H 73.1068 -4.63159 2.94576 0
M  V30 731 H 73.3678 -4.23957 1.25352 0
M  V30 732 N 72.4269 -1.23603 -0.977757 0
M  V30 733 C 73.8379 -1.06424 -1.53398 0
M  V30 734 C 74.1889 0.367578 -1.92726 0
M  V30 735 O 73.3139 1.25465 -1.76316 0
M  V30 736 C 73.9089 -1.92568 -2.78753 0
M  V30 737 C 72.4679 -1.79642 -3.30765 0
M  V30 738 C 71.6149 -1.88111 -2.03739 0
M  V30 739 H 74.5659 -1.37227 -0.797152 0
M  V30 740 H 74.5869 -1.45203 -3.51705 0
M  V30 741 H 74.0989 -2.96771 -2.50098 0
M  V30 742 H 72.1999 -0.782325 -3.64294 0
M  V30 743 H 72.3129 -2.63174 -4.00345 0
M  V30 744 H 70.6769 -1.31723 -2.17994 0
M  V30 745 H 71.4599 -2.93875 -1.77461 0
M  V30 746 N 73.905 1.17692 -1.04816 0
M  V30 747 C 74.837 2.21103 -0.603822 0
M  V30 748 C 75.85 1.59411 0.33046 0
M  V30 749 O 77.039 1.7807 0.12379 0
M  V30 750 C 74.139 3.38623 0.136898 0
M  V30 751 C 73.312 4.29888 -0.807137 0
M  V30 752 C 72.371 5.26088 -0.10836 0
M  V30 753 O 71.397 5.64353 -0.741232 0
M  V30 754 N 72.599 5.68882 1.15558 0
M  V30 755 H 75.364 2.59848 -1.49329 0
M  V30 756 H 72.925 1.32553 -0.929587 0
M  V30 757 H 74.917 4.00009 0.614401 0
M  V30 758 H 73.487 2.98508 0.927993 0
M  V30 759 H 72.707 3.65993 -1.46434 0
M  V30 760 H 73.995 4.87759 -1.44807 0
M  V30 761 H 73.393 5.39861 1.69015 0
M  V30 762 H 71.95 6.32429 1.57722 0
M  V30 763 N 75.3831 0.828654 1.34056 0
M  V30 764 C 76.6131 0.431993 2.02033 0
M  V30 765 C 77.0211 -0.96844 1.62536 0
M  V30 766 O 76.3641 -1.6391 0.829408 0
M  V30 767 C 76.4261 0.461224 3.56529 0
M  V30 768 C 76.0901 1.81599 4.1937 0
M  V30 769 C 77.0871 2.7777 4.39477 0
M  V30 770 C 74.7721 2.10604 4.56017 0
M  V30 771 C 76.7661 4.01115 4.95364 0
M  V30 772 C 74.4531 3.34207 5.11614 0
M  V30 773 C 75.4511 4.2928 5.31232 0
M  V30 774 O 75.1391 5.50699 5.8565 0
M  V30 775 H 74.8711 0.170943 0.654029 0
M  V30 776 H 77.4251 1.11988 1.72185 0
M  V30 777 H 75.6551 -0.283388 3.8566 0
M  V30 778 H 77.3441 0.0838149 4.05813 0
M  V30 779 H 78.1101 2.56659 4.11523 0
M  V30 780 H 73.9891 1.37402 4.40047 0
M  V30 781 H 77.5331 4.75333 5.10592 0
M  V30 782 H 73.4301 3.55179 5.38997 0
M  V30 783 H 74.1981 5.52298 6.04077 0
M  V30 784 N 76.8612 -1.46375 0.584142 0
M  V30 785 C 77.8242 -2.28784 -0.138108 0
M  V30 786 C 78.8242 -1.38471 -0.817462 0
M  V30 787 O 80.0142 -1.60833 -0.669199 0
M  V30 788 C 77.1462 -3.18892 -1.20503 0
M  V30 789 H 78.3392 -2.94117 0.586127 0
M  V30 790 H 75.8922 -1.52509 0.342171 0
M  V30 791 H 76.6272 -2.58309 -1.96079 0
M  V30 792 H 76.4122 -3.85388 -0.722384 0
M  V30 793 H 77.9022 -3.80914 -1.71155 0
M  V30 794 N 78.3393 -0.321999 -1.54275 0
M  V30 795 C 79.7503 0.166384 -1.85957 0
M  V30 796 C 80.1013 1.51747 -1.24367 0
M  V30 797 O 79.2263 2.09317 -0.549124 0
M  V30 798 C 79.8213 0.308681 -3.37391 0
M  V30 799 C 78.3803 0.741286 -3.69028 0
M  V30 800 C 77.5273 -0.137937 -2.76957 0
M  V30 801 H 80.4783 -0.542335 -1.49146 0
M  V30 802 H 80.4993 1.13984 -3.63026 0
M  V30 803 H 80.0113 -0.674809 -3.82188 0
M  V30 804 H 78.1123 1.73458 -3.29762 0
M  V30 805 H 78.2253 0.546118 -4.75977 0
M  V30 806 H 76.5893 0.386251 -2.51754 0
M  V30 807 H 77.3723 -1.11816 -3.2458 0
M  V30 808 N 79.8174 1.5752 -0.0501392 0
M  V30 809 C 81.2334 1.56631 0.306402 0
M  V30 810 C 81.4334 1.0577 1.71508 0
M  V30 811 O 80.4894 0.713837 2.422 0
M  V30 812 C 81.8024 3.00393 0.135811 0
M  V30 813 C 83.3504 3.12315 0.206993 0
M  V30 814 C 83.8254 4.57954 0.064944 0
M  V30 815 N 85.3164 4.63041 0.121254 0
M  V30 816 C 86.0514 5.73389 0.0354381 0
M  V30 817 N 85.5474 6.92724 -0.102666 0
M  V30 818 N 87.3404 5.62026 0.090946 0
M  V30 819 H 79.4914 1.88903 -0.971046 0
M  V30 820 H 81.7544 0.869876 -0.376855 0
M  V30 821 H 81.4604 3.41635 -0.835384 0
M  V30 822 H 81.3344 3.66373 0.897275 0
M  V30 823 H 83.7214 2.70973 1.16866 0
M  V30 824 H 83.8024 2.49016 -0.585208 0
M  V30 825 H 83.4464 4.99981 -0.893394 0
M  V30 826 H 83.3764 5.19258 0.876277 0
M  V30 827 H 85.8674 3.77216 0.227284 0
M  V30 828 H 86.1804 7.72633 -0.160882 0
M  V30 829 H 84.5254 6.94864 -0.137737 0
M  V30 830 H 87.7164 4.67684 0.197388 0
M  V30 831 H 87.8894 6.47997 0.0206089 0
M  V30 832 N 81.2955 -0.223234 1.56011 0
M  V30 833 C 82.5415 -0.949279 1.79211 0
M  V30 834 C 82.8745 -1.84054 0.619494 0
M  V30 835 O 82.1495 -1.90726 -0.381317 0
M  V30 836 C 82.4325 -1.78965 3.12479 0
M  V30 837 C 82.2855 -0.924997 4.40186 0
M  V30 838 C 83.6045 -2.76774 3.42175 0
M  V30 839 H 80.7235 -0.343676 0.651963 0
M  V30 840 H 83.3655 -0.218253 1.88742 0
M  V30 841 H 81.5155 -2.41291 3.04485 0
M  V30 842 H 83.1875 -0.318615 4.60198 0
M  V30 843 H 81.4305 -0.230344 4.33188 0
M  V30 844 H 82.1015 -1.54735 5.29869 0
M  V30 845 H 84.5775 -2.24584 3.50287 0
M  V30 846 H 83.4535 -3.32678 4.36597 0
M  V30 847 H 83.7145 -3.54429 2.64258 0
M  V30 848 N 82.7736 -1.49793 -0.48987 0
M  V30 849 C 83.7036 -1.70201 -1.59856 0
M  V30 850 C 84.6846 -0.55076 -1.60937 0
M  V30 851 O 85.8696 -0.787841 -1.77501 0
M  V30 852 C 82.9996 -1.77882 -2.98287 0
M  V30 853 C 81.9536 -2.92907 -3.12073 0
M  V30 854 C 81.2796 -2.85712 -4.51965 0
M  V30 855 C 82.5796 -4.3369 -2.91051 0
M  V30 856 H 84.2736 -2.63025 -1.43032 0
M  V30 857 H 81.8196 -1.26574 -0.686664 0
M  V30 858 H 83.7726 -1.90744 -3.75759 0
M  V30 859 H 82.4966 -0.816653 -3.16225 0
M  V30 860 H 81.1556 -2.79665 -2.37029 0
M  V30 861 H 80.8036 -1.8738 -4.66795 0
M  V30 862 H 80.5036 -3.62921 -4.62128 0
M  V30 863 H 82.0276 -3.00598 -5.31482 0
M  V30 864 H 83.4416 -4.47555 -3.58284 0
M  V30 865 H 81.8386 -5.12205 -3.12675 0
M  V30 866 H 82.9086 -4.47362 -1.87071 0
M  V30 867 N 84.2517 0.741722 -1.39055 0
M  V30 868 C 85.4797 1.53098 -1.39171 0
M  V30 869 C 85.8947 1.88794 0.0155099 0
M  V30 870 O 85.2517 1.53626 0.985159 0
M  V30 871 C 85.3027 2.82274 -2.2584 0
M  V30 872 O 85.0237 2.48097 -3.61081 0
M  V30 873 C 86.5247 3.76343 -2.34266 0
M  V30 874 H 83.7447 0.473335 -0.4756 0
M  V30 875 H 86.2887 0.917045 -1.82785 0
M  V30 876 H 84.4437 3.40015 -1.85656 0
M  V30 877 H 84.8577 3.31029 -4.06842 0
M  V30 878 H 86.3317 4.63898 -2.9917 0
M  V30 879 H 86.8087 4.17619 -1.35982 0
M  V30 880 H 87.4147 3.24523 -2.74891 0
M  V30 881 N 85.7298 1.2412 0.971189 0
M  V30 882 C 86.6618 0.988349 2.06795 0
M  V30 883 C 87.6748 -0.0409541 1.62748 0
M  V30 884 O 88.8638 0.195673 1.77424 0
M  V30 885 C 85.9638 0.469023 3.35639 0
M  V30 886 C 85.1368 1.56065 4.08611 0
M  V30 887 C 84.1958 1.04458 5.15728 0
M  V30 888 O 83.2218 1.73553 5.42096 0
M  V30 889 N 84.4238 -0.122817 5.8037 0
M  V30 890 H 87.1888 1.93265 2.29061 0
M  V30 891 H 84.7498 1.15102 1.13856 0
M  V30 892 H 86.7418 0.108613 4.04554 0
M  V30 893 H 85.3118 -0.380919 3.1027 0
M  V30 894 H 84.5318 2.09341 3.34021 0
M  V30 895 H 85.8198 2.29449 4.54126 0
M  V30 896 H 85.2178 -0.700563 5.61345 0
M  V30 897 H 83.7748 -0.424404 6.50417 0
M  V30 898 N 87.2079 -1.17134 1.05439 0
M  V30 899 C 88.1709 -2.19439 0.661764 0
M  V30 900 C 89.1709 -1.58199 -0.288042 0
M  V30 901 O 90.3609 -1.74053 -0.0715803 0
M  V30 902 C 87.4929 -3.40889 -0.0276209 0
M  V30 903 H 88.6859 -2.55688 1.56728 0
M  V30 904 H 86.2389 -1.31259 0.848567 0
M  V30 905 H 86.9739 -3.10187 -0.94629 0
M  V30 906 H 86.7589 -3.86586 0.655238 0
M  V30 907 H 88.2489 -4.16603 -0.288342 0
M  V30 908 N 88.686 -0.835752 -1.33615 0
M  V30 909 C 89.911 -0.442389 -2.02627 0
M  V30 910 C 90.336 0.947735 -1.62479 0
M  V30 911 O 89.694 1.61907 -0.815826 0
M  V30 912 C 89.742 -0.567216 -3.56111 0
M  V30 913 O 88.846 0.407799 -4.10379 0
M  V30 914 H 88.187 -0.180278 -0.639059 0
M  V30 915 H 90.717 -1.12972 -1.70583 0
M  V30 916 H 90.727 -0.447708 -4.05536 0
M  V30 917 H 89.402 -1.58103 -3.84677 0
M  V30 918 H 87.979 0.246107 -3.72087 0
M  V30 919 N 90.1641 1.46063 -0.591896 0
M  V30 920 C 91.1121 2.32124 0.148739 0
M  V30 921 C 92.1061 1.45035 0.875286 0
M  V30 922 O 93.3121 1.61609 0.792632 0
M  V30 923 H 89.6871 0.749024 0.066832 0
M  V30 924 H 91.6581 2.92392 -0.595783 0
M  V30 925 C 90.4071 3.28373 1.1431 0
M  V30 926 H 89.7301 3.95371 0.59346 0
M  V30 927 H 91.1701 3.91352 1.63155 0
M  V30 928 C 89.6291 2.54393 2.20875 0
M  V30 929 O 90.1591 2.31373 3.28374 0
M  V30 930 N 88.3651 2.14797 1.95731 0
M  V30 931 H 87.9121 2.33719 1.08319 0
M  V30 932 H 87.8701 1.65619 2.67241 0
M  V30 933 N 91.6422 0.330177 1.54103 0
M  V30 934 C 93.0532 -0.15652 1.86043 0
M  V30 935 C 93.4042 -1.51086 1.2517 0
M  V30 936 O 92.5292 -2.09023 0.560217 0
M  V30 937 C 93.1242 -0.290784 3.3755 0
M  V30 938 C 91.6832 -0.721705 3.69416 0
M  V30 939 C 90.8302 0.152622 2.7688 0
M  V30 940 H 93.7812 0.550237 1.48856 0
M  V30 941 H 93.8022 -1.12058 3.63625 0
M  V30 942 H 93.3142 0.695068 3.81825 0
M  V30 943 H 91.4152 -1.71706 3.30678 0
M  V30 944 H 91.5282 -0.520869 4.7626 0
M  V30 945 H 89.8922 -0.372894 2.51956 0
M  V30 946 H 90.6752 1.13536 3.23982 0
M  V30 947 N 93.1203 -1.57491 0.0584922 0
M  V30 948 C 94.3663 -1.93264 -0.614558 0
M  V30 949 C 94.6993 -0.937717 -1.7006 0
M  V30 950 O 93.9743 0.0351652 -1.94468 0
M  V30 951 C 94.2573 -3.3938 -1.20386 0
M  V30 952 C 94.1103 -4.49625 -0.125375 0
M  V30 953 C 95.4293 -3.86039 -2.11334 0
M  V30 954 H 92.5483 -0.702791 -0.221933 0
M  V30 955 H 95.1903 -1.8961 0.12175 0
M  V30 956 H 93.3403 -3.42626 -1.83139 0
M  V30 957 H 95.0123 -4.58506 0.506971 0
M  V30 958 H 93.2553 -4.30354 0.545672 0
M  V30 959 H 93.9263 -5.48967 -0.577861 0
M  V30 960 H 96.4023 -3.84716 -1.58534 0
M  V30 961 H 95.2783 -4.88914 -2.49507 0
M  V30 962 H 95.5393 -3.23215 -3.01636 0
M  V30 963 N 94.5984 0.214957 -1.56127 0
M  V30 964 C 95.8444 0.939762 -1.79712 0
M  V30 965 C 96.1774 1.83723 -0.629247 0
M  V30 966 O 95.4524 1.90925 0.371197 0
M  V30 967 C 95.7354 1.77306 -3.13424 0
M  V30 968 C 95.5884 0.90164 -4.40671 0
M  V30 969 C 96.9074 2.74956 -3.43638 0
M  V30 970 H 94.0264 0.340214 -0.653776 0
M  V30 971 H 96.6684 0.20824 -1.88855 0
M  V30 972 H 94.8184 2.39673 -3.0576 0
M  V30 973 H 96.4904 0.294206 -4.60361 0
M  V30 974 H 94.7334 0.207368 -4.33304 0
M  V30 975 H 95.4044 1.51923 -5.30682 0
M  V30 976 H 97.8804 2.22724 -3.51473 0
M  V30 977 H 96.7564 3.30358 -4.38355 0
M  V30 978 H 97.0174 3.53023 -2.66134 0
M  V30 979 N 96.0765 1.50051 0.48192 0
M  V30 980 C 97.3165 1.62128 1.24474 0
M  V30 981 C 97.6805 0.309742 1.89485 0
M  V30 982 O 98.8815 0.305854 2.67054 0
M  V30 983 C 97.1525 2.76151 2.26882 0
M  V30 984 S 98.7115 3.08297 3.12247 0
M  V30 985 H 95.5295 0.571661 0.422759 0
M  V30 986 H 98.1315 1.87791 0.54359 0
M  V30 987 H 96.8355 3.69942 1.77683 0
M  V30 988 H 96.3665 2.52541 3.0164 0
M  V30 989 H 98.3815 2.51287 4.27866 0
M  V30 990 N 97.5546 -0.734337 1.39446 0
M  V30 991 C 98.7826 -1.52358 1.39981 0
M  V30 992 C 99.1976 -1.88799 -0.0054975 0
M  V30 993 O 98.5546 -1.54146 -0.976998 0
M  V30 994 C 98.6056 -2.81072 2.27333 0
M  V30 995 O 98.3266 -2.46178 3.62392 0
M  V30 996 C 99.8276 -3.75096 2.36259 0
M  V30 997 H 97.0476 -0.470806 0.478103 0
M  V30 998 H 99.5916 -0.907339 1.83269 0
M  V30 999 H 97.7466 -3.39026 1.87457 0
M  V30 1000 H 98.1606 -3.28866 4.08592 0
M  V30 1001 H 99.6346 -4.62305 3.01626 0
M  V30 1002 H 100.112 -4.16892 1.38194 0
M  V30 1003 H 100.718 -3.23061 2.76608 0
M  V30 1004 N 99.0327 -1.24633 -0.964593 0
M  V30 1005 C 99.9647 -0.999302 -2.06268 0
M  V30 1006 C 100.978 0.0323226 -1.62768 0
M  V30 1007 O 102.167 -0.205079 -1.77318 0
M  V30 1008 C 99.2667 -0.486816 -3.35385 0
M  V30 1009 C 98.4397 -1.5823 -4.07777 0
M  V30 1010 C 97.4987 -1.07191 -5.15166 0
M  V30 1011 O 96.5247 -1.76426 -5.41168 0
M  V30 1012 N 97.7267 0.0920373 -5.80427 0
M  V30 1013 H 100.492 -1.94477 -2.28033 0
M  V30 1014 H 98.0527 -1.15704 -1.13244 0
M  V30 1015 H 100.045 -0.130066 -4.04491 0
M  V30 1016 H 98.6147 0.364459 -3.10468 0
M  V30 1017 H 97.8347 -2.11109 -3.32906 0
M  V30 1018 H 99.1227 -2.31854 -4.52903 0
M  V30 1019 H 98.5207 0.670784 -5.61709 0
M  V30 1020 H 97.0777 0.389905 -6.50633 0
M  V30 1021 N 100.511 1.16574 -1.06058 0
M  V30 1022 C 101.922 1.68662 -0.800632 0
M  V30 1023 C 102.273 1.84184 0.67608 0
M  V30 1024 O 101.398 1.53568 1.52466 0
M  V30 1025 C 101.993 3.06356 -1.44676 0
M  V30 1026 C 100.552 3.55575 -1.23465 0
M  V30 1027 C 99.6988 2.31616 -1.52477 0
M  V30 1028 H 102.65 1.00969 -1.22438 0
M  V30 1029 H 102.671 3.70636 -0.860788 0
M  V30 1030 H 102.183 2.95027 -2.52152 0
M  V30 1031 H 100.284 3.72167 -0.179527 0
M  V30 1032 H 100.397 4.37812 -1.94571 0
M  V30 1033 H 98.7608 2.36512 -0.945209 0
M  V30 1034 H 99.5438 2.22887 -2.61106 0
M  V30 1035 N 101.989 0.842826 1.3317 0
M  V30 1036 C 102.936 0.276885 2.29133 0
M  V30 1037 C 103.906 -0.609527 1.54512 0
M  V30 1038 O 105.091 -0.546955 1.82792 0
M  V30 1039 C 102.231 -0.538707 3.40869 0
M  V30 1040 C 101.344 0.372169 4.30394 0
M  V30 1041 C 100.479 -0.454908 5.29249 0
M  V30 1042 C 99.5179 0.45411 6.10413 0
M  V30 1043 N 98.6549 -0.335075 7.013 0
M  V30 1044 H 103.495 1.10052 2.76934 0
M  V30 1045 H 101.032 0.554161 1.36262 0
M  V30 1046 H 102.99 -1.02709 4.0436 0
M  V30 1047 H 101.62 -1.32727 2.9425 0
M  V30 1048 H 100.672 0.97888 3.6759 0
M  V30 1049 H 101.984 1.0703 4.87182 0
M  V30 1050 H 101.138 -1.00695 5.98285 0
M  V30 1051 H 99.8769 -1.18646 4.73048 0
M  V30 1052 H 98.8819 1.01813 5.40291 0
M  V30 1053 H 100.107 1.18409 6.68697 0
M  V30 1054 H 98.0529 -1.04994 6.47543 0
M  V30 1055 H 97.9699 0.304262 7.55387 0
M  V30 1056 H 99.2379 -0.869224 7.74638 0
M  V30 1057 N 103.467 -1.45747 0.599634 0
M  V30 1058 C 104.692 -2.07178 0.0960198 0
M  V30 1059 C 105.117 -1.44268 -1.207 0
M  V30 1060 O 104.475 -0.532503 -1.73303 0
M  V30 1061 C 104.523 -3.60579 -0.0385348 0
M  V30 1062 O 103.627 -3.97713 -1.0908 0
M  V30 1063 H 102.968 -0.660251 0.0704593 0
M  V30 1064 H 105.498 -1.87124 0.827385 0
M  V30 1065 H 105.508 -4.07298 -0.239304 0
M  V30 1066 H 104.183 -4.05756 0.912947 0
M  V30 1067 H 102.76 -3.62678 -0.867135 0
M  V30 1068 N 104.945 -0.338344 -1.53925 0
M  V30 1069 C 106.356 0.146651 -1.86123 0
M  V30 1070 C 106.707 1.5042 -1.2597 0
M  V30 1071 O 105.832 2.08723 -0.571294 0
M  V30 1072 C 106.427 0.272879 -3.37699 0
M  V30 1073 C 104.986 0.702103 -3.69794 0
M  V30 1074 C 104.133 -0.167304 -2.76795 0
M  V30 1075 H 107.084 -0.558123 -1.48562 0
M  V30 1076 H 107.105 1.10128 -3.64214 0
M  V30 1077 H 106.617 -0.715307 -3.81451 0
M  V30 1078 H 104.718 1.6995 -3.31584 0
M  V30 1079 H 104.831 0.495604 -4.7653 0
M  V30 1080 H 103.195 0.359527 -2.5215 0
M  V30 1081 H 103.978 -1.15253 -3.23375 0
M  V30 1082 N 106.423 1.57458 -0.0668435 0
M  V30 1083 C 107.648 1.9804 0.616027 0
M  V30 1084 C 108.073 0.944771 1.62652 0
M  V30 1085 O 107.431 -0.0902094 1.81075 0
M  V30 1086 C 107.479 3.37665 1.26549 0
M  V30 1087 O 106.583 3.36701 2.38131 0
M  V30 1088 H 105.924 0.644719 0.158849 0
M  V30 1089 H 108.454 2.04121 -0.139891 0
M  V30 1090 H 108.464 3.7474 1.6135 0
M  V30 1091 H 107.139 4.12573 0.525016 0
M  V30 1092 H 105.716 3.1139 2.0516 0
M  V30 1093 N 107.901 -0.206675 1.56239 0
M  V30 1094 C 109.149 -0.927007 1.79586 0
M  V30 1095 C 109.47 -1.8427 0.637929 0
M  V30 1096 O 108.74 -1.92849 -0.344398 0
M  V30 1097 H 107.32 -0.345292 0.662407 0
M  V30 1098 H 109.982 -0.21496 1.93711 0
M  V30 1099 H 109.078 -1.52501 2.72305 0
M  V30 1100 N 109.379 -1.50304 -0.473955 0
M  V30 1101 C 110.607 -1.64902 -1.24959 0
M  V30 1102 C 111.022 -0.331198 -1.85872 0
M  V30 1103 O 110.379 0.68652 -1.69095 0
M  V30 1104 C 110.43 -2.73803 -2.36038 0
M  V30 1105 O 110.151 -4.00477 -1.77624 0
M  V30 1106 C 111.652 -2.99349 -3.26964 0
M  V30 1107 H 108.872 -0.554383 -0.378022 0
M  V30 1108 H 111.416 -1.9651 -0.566054 0
M  V30 1109 H 109.571 -2.44898 -3.00173 0
M  V30 1110 H 109.985 -4.60678 -2.5075 0
M  V30 1111 H 111.459 -3.79217 -4.01121 0
M  V30 1112 H 111.936 -2.10307 -3.85574 0
M  V30 1113 H 112.542 -3.29774 -2.68569 0
M  V30 1114 N 110.857 0.726932 -1.39834 0
M  V30 1115 C 112.103 1.48884 -1.377 0
M  V30 1116 C 112.436 1.94185 0.0244852 0
M  V30 1117 O 111.711 1.67361 0.990986 0
M  V30 1118 C 111.994 2.72288 -2.3565 0
M  V30 1119 C 111.847 2.32956 -3.84775 0
M  V30 1120 C 113.166 3.74414 -2.31306 0
M  V30 1121 H 110.285 0.540062 -0.5015 0
M  V30 1122 H 112.927 0.830547 -1.70886 0
M  V30 1123 H 111.077 3.28457 -2.07481 0
M  V30 1124 H 112.749 1.82356 -4.23726 0
M  V30 1125 H 110.992 1.65088 -4.01159 0
M  V30 1126 H 111.663 3.21362 -4.4881 0
M  V30 1127 H 114.139 3.27849 -2.56231 0
M  V30 1128 H 113.015 4.58414 -3.01907 0
M  V30 1129 H 113.276 4.21909 -1.32081 0
M  V30 1130 N 112.336 1.25143 0.95797 0
M  V30 1131 C 113.576 1.10893 1.71703 0
M  V30 1132 C 113.94 -0.34478 1.88879 0
M  V30 1133 O 115.141 -0.609014 2.6181 0
M  V30 1134 C 113.412 1.83889 3.06463 0
M  V30 1135 S 114.971 1.85491 3.97666 0
M  V30 1136 H 111.789 0.396428 0.590226 0
M  V30 1137 H 114.391 1.58618 1.14283 0
M  V30 1138 H 113.095 2.88756 2.9163 0
M  V30 1139 H 112.626 1.36538 3.68946 0
M  V30 1140 H 114.641 0.929553 4.87415 0
M  V30 1141 N 113.814 -1.1601 1.06675 0
M  V30 1142 C 115.042 -1.90527 0.806667 0
M  V30 1143 C 115.457 -1.77643 -0.639396 0
M  V30 1144 O 114.814 -1.12369 -1.43803 0
M  V30 1145 C 114.865 -3.41106 1.19705 0
M  V30 1146 O 114.586 -3.53608 2.58636 0
M  V30 1147 C 116.087 -4.32663 0.965266 0
M  V30 1148 H 113.307 -0.604053 0.292166 0
M  V30 1149 H 115.851 -1.47026 1.4214 0
M  V30 1150 H 114.006 -3.82296 0.626774 0
M  V30 1151 H 114.42 -4.47011 2.74375 0
M  V30 1152 H 115.894 -5.36763 1.288 0
M  V30 1153 H 116.371 -4.39089 -0.0987936 0
M  V30 1154 H 116.977 -3.97206 1.52011 0
M  V30 1155 N 115.292 -0.849877 -1.32721 0
M  V30 1156 C 116.517 -0.463856 -2.02146 0
M  V30 1157 C 116.942 0.930449 -1.63476 0
M  V30 1158 O 116.3 1.61033 -0.832952 0
M  V30 1159 C 116.348 -0.604955 -3.55489 0
M  V30 1160 O 115.452 0.36425 -4.10788 0
M  V30 1161 H 114.793 -0.187046 -0.637111 0
M  V30 1162 H 117.323 -1.14775 -1.69375 0
M  V30 1163 H 117.333 -0.490696 -4.05038 0
M  V30 1164 H 116.008 -1.62174 -3.82978 0
M  V30 1165 H 114.585 0.206628 -3.72327 0
M  V30 1166 N 116.77 1.45427 -0.607355 0
M  V30 1167 C 117.717 2.3053 0.111625 0
M  V30 1168 C 118.687 1.4209 0.860216 0
M  V30 1169 O 119.872 1.71019 0.845998 0
M  V30 1170 C 117.012 3.26992 1.10319 0
M  V30 1171 C 116.125 4.30535 0.355493 0
M  V30 1172 C 115.26 5.14105 1.33676 0
M  V30 1173 C 114.299 6.09376 0.576862 0
M  V30 1174 N 113.436 6.85727 1.5074 0
M  V30 1175 H 118.276 2.91477 -0.620093 0
M  V30 1176 H 115.813 1.43631 -0.317594 0
M  V30 1177 H 117.771 3.81385 1.6912 0
M  V30 1178 H 116.401 2.67799 1.80232 0
M  V30 1179 H 115.453 3.78805 -0.348023 0
M  V30 1180 H 116.765 4.98235 -0.237423 0
M  V30 1181 H 115.919 5.72897 1.99684 0
M  V30 1182 H 114.658 4.46423 1.9636 0
M  V30 1183 H 113.663 5.49715 -0.0968519 0
M  V30 1184 H 114.888 6.79085 -0.0449341 0
M  V30 1185 H 112.834 6.20735 2.12189 0
M  V30 1186 H 112.751 7.49778 0.967913 0
M  V30 1187 H 114.019 7.4906 2.15706 0
M  V30 1188 N 118.248 0.346503 1.53744 0
M  V30 1189 C 119.476 -0.25041 2.05379 0
M  V30 1190 C 119.891 -1.43979 1.22129 0
M  V30 1191 O 119.248 -1.80677 0.257321 0
M  V30 1192 C 119.299 -0.662575 3.55376 0
M  V30 1193 O 119.02 0.479515 4.35468 0
M  V30 1194 C 120.521 -1.31989 4.23195 0
M  V30 1195 H 117.741 -0.0478198 0.669294 0
M  V30 1196 H 120.285 0.499346 1.9831 0
M  V30 1197 H 118.44 -1.36227 3.62658 0
M  V30 1198 H 118.854 0.15037 5.24284 0
M  V30 1199 H 120.328 -1.55902 5.29527 0
M  V30 1200 H 120.805 -2.27436 3.75725 0
M  V30 1201 H 121.411 -0.662154 4.20114 0
M  V30 1202 N 119.726 -1.57421 0.075193 0
M  V30 1203 C 120.673 -2.12915 -0.890843 0
M  V30 1204 C 121.643 -1.04252 -1.29309 0
M  V30 1205 O 122.828 -1.31933 -1.37834 0
M  V30 1206 C 119.968 -2.69795 -2.15186 0
M  V30 1207 C 119.081 -3.92624 -1.80194 0
M  V30 1208 C 118.216 -4.37736 -3.00933 0
M  V30 1209 C 117.255 -5.53205 -2.61974 0
M  V30 1210 N 116.392 -5.9326 -3.75483 0
M  V30 1211 H 121.232 -2.95156 -0.410735 0
M  V30 1212 H 118.769 -1.45854 -0.191086 0
M  V30 1213 H 120.727 -3.00883 -2.89008 0
M  V30 1214 H 119.357 -1.90313 -2.60731 0
M  V30 1215 H 118.409 -3.67977 -0.964218 0
M  V30 1216 H 119.721 -4.76482 -1.47534 0
M  V30 1217 H 118.875 -4.70503 -3.8303 0
M  V30 1218 H 117.614 -3.52739 -3.36789 0
M  V30 1219 H 116.619 -5.20086 -1.783 0
M  V30 1220 H 117.844 -6.39936 -2.27284 0
M  V30 1221 H 115.79 -5.11212 -4.11094 0
M  V30 1222 H 115.707 -6.71865 -3.46602 0
M  V30 1223 H 116.975 -6.30651 -4.58148 0
M  V30 1224 N 121.204 0.198386 -1.56346 0
M  V30 1225 C 122.151 1.24589 -1.94284 0
M  V30 1226 C 123.121 1.454 -0.802997 0
M  V30 1227 O 124.306 1.58588 -1.06087 0
M  V30 1228 C 121.446 2.58631 -2.28482 0
M  V30 1229 C 120.559 2.45426 -3.55514 0
M  V30 1230 C 119.694 3.7215 -3.79049 0
M  V30 1231 C 118.733 3.53763 -4.99518 0
M  V30 1232 N 117.87 4.72491 -5.19323 0
M  V30 1233 H 122.71 0.915356 -2.83593 0
M  V30 1234 H 120.247 0.440629 -1.40346 0
M  V30 1235 H 122.205 3.3672 -2.46324 0
M  V30 1236 H 120.835 2.89734 -1.42317 0
M  V30 1237 H 119.887 1.58652 -3.45737 0
M  V30 1238 H 121.199 2.27772 -4.43758 0
M  V30 1239 H 120.353 4.58679 -3.97113 0
M  V30 1240 H 119.092 3.92754 -2.89129 0
M  V30 1241 H 118.097 2.65619 -4.8138 0
M  V30 1242 H 119.322 3.34607 -5.90944 0
M  V30 1243 H 117.268 4.93365 -4.3235 0
M  V30 1244 H 117.185 4.5765 -6.01741 0
M  V30 1245 H 118.453 5.6038 -5.41843 0
M  V30 1246 N 122.682 1.50554 0.465978 0
M  V30 1247 C 123.645 1.69233 1.54574 0
M  V30 1248 C 124.645 0.562901 1.50626 0
M  V30 1249 O 125.835 0.830016 1.53155 0
M  V30 1250 C 122.967 1.7223 2.94193 0
M  V30 1251 H 124.16 2.65571 1.39327 0
M  V30 1252 H 121.713 1.40111 0.692711 0
M  V30 1253 H 122.448 0.77603 3.14878 0
M  V30 1254 H 122.233 2.54285 2.98466 0
M  V30 1255 H 123.723 1.88618 3.72576 0
M  V30 1256 N 124.16 -0.719506 1.40217 0
M  V30 1257 C 125.09 -1.8465 1.42922 0
M  V30 1258 C 126.071 -1.67599 0.29062 0
M  V30 1259 O 127.256 -1.87688 0.498677 0
M  V30 1260 C 124.386 -3.22565 1.28722 0
M  V30 1261 C 123.34 -3.54281 2.40144 0
M  V30 1262 C 122.666 -4.91298 2.11023 0
M  V30 1263 C 123.966 -3.55676 3.82481 0
M  V30 1264 H 125.66 -1.82644 2.37237 0
M  V30 1265 H 123.206 -0.877305 1.1419 0
M  V30 1266 H 125.159 -4.01095 1.29232 0
M  V30 1267 H 123.883 -3.25137 0.308811 0
M  V30 1268 H 122.542 -2.78088 2.38877 0
M  V30 1269 H 122.19 -4.90468 1.11582 0
M  V30 1270 H 121.89 -5.13485 2.8567 0
M  V30 1271 H 123.414 -5.72166 2.13209 0
M  V30 1272 H 124.828 -4.24254 3.85592 0
M  V30 1273 H 123.225 -3.89388 4.56614 0
M  V30 1274 H 124.295 -2.55144 4.12346 0
M  V30 1275 N 125.638 -1.25649 -0.95132 0
M  V30 1276 C 126.878 -1.11802 -1.71113 0
M  V30 1277 C 127.242 0.334758 -1.89059 0
M  V30 1278 O 128.443 0.595121 -2.62129 0
M  V30 1279 C 126.714 -1.85512 -3.05483 0
M  V30 1280 S 128.273 -1.87597 -3.96677 0
M  V30 1281 H 125.091 -0.399552 -0.588115 0
M  V30 1282 H 127.693 -1.59222 -1.1344 0
M  V30 1283 H 126.397 -2.90299 -2.90094 0
M  V30 1284 H 125.928 -1.38493 -3.68216 0
M  V30 1285 H 127.943 -0.955389 -4.86916 0
M  V30 1286 N 127.117 1.15442 -1.07289 0
M  V30 1287 C 128.366 1.85557 -0.790669 0
M  V30 1288 C 128.679 1.83186 0.685739 0
M  V30 1289 O 129.885 2.48977 1.0827 0
M  V30 1290 C 128.341 3.33038 -1.36433 0
M  V30 1291 C 127.949 3.43856 -2.8717 0
M  V30 1292 C 129.693 4.0834 -1.1601 0
M  V30 1293 C 127.6 4.85482 -3.3773 0
M  V30 1294 H 126.53 0.695122 -0.292098 0
M  V30 1295 H 129.181 1.30219 -1.29287 0
M  V30 1296 H 127.563 3.88043 -0.789864 0
M  V30 1297 H 128.737 2.98961 -3.50655 0
M  V30 1298 H 127.052 2.81998 -3.06376 0
M  V30 1299 H 129.649 5.12859 -1.51262 0
M  V30 1300 H 129.992 4.16182 -0.0991007 0
M  V30 1301 H 130.525 3.59603 -1.70089 0
M  V30 1302 H 127.264 4.82823 -4.43353 0
M  V30 1303 H 126.784 5.30961 -2.78999 0
M  V30 1304 H 128.463 5.54335 -3.33648 0
M  V30 1305 N 128.595 0.856903 1.32268 0
M  V30 1306 C 129.823 0.475439 2.01363 0
M  V30 1307 C 130.238 -0.928486 1.64392 0
M  V30 1308 O 129.595 -1.60624 0.866387 0
M  V30 1309 C 129.646 0.607545 3.56358 0
M  V30 1310 O 129.367 1.95617 3.92002 0
M  V30 1311 C 130.868 0.225382 4.42727 0
M  V30 1312 H 128.088 0.186636 0.644521 0
M  V30 1313 H 130.632 1.15446 1.68797 0
M  V30 1314 H 128.787 -0.0237719 3.87393 0
M  V30 1315 H 129.201 1.95455 4.86721 0
M  V30 1316 H 130.675 0.368813 5.50767 0
M  V30 1317 H 131.152 -0.834369 4.31202 0
M  V30 1318 H 131.758 0.831864 4.17085 0
M  V30 1319 N 130.073 -1.45103 0.615059 0
M  V30 1320 C 131.003 -2.33339 -0.0865619 0
M  V30 1321 C 131.984 -1.4727 -0.851209 0
M  V30 1322 O 133.169 -1.76026 -0.820281 0
M  V30 1323 C 130.299 -3.30095 -1.07956 0
M  V30 1324 C 129.253 -4.25858 -0.427628 0
M  V30 1325 C 128.579 -5.12361 -1.5294 0
M  V30 1326 C 129.879 -5.18165 0.655944 0
M  V30 1327 H 131.573 -2.92254 0.650224 0
M  V30 1328 H 129.119 -1.40532 0.314138 0
M  V30 1329 H 131.072 -3.90698 -1.57901 0
M  V30 1330 H 129.796 -2.69355 -1.84703 0
M  V30 1331 H 128.455 -3.66564 0.0510292 0
M  V30 1332 H 128.103 -4.47984 -2.28734 0
M  V30 1333 H 127.803 -5.77238 -1.09865 0
M  V30 1334 H 129.327 -5.75833 -2.03098 0
M  V30 1335 H 130.741 -5.72796 0.240257 0
M  V30 1336 H 129.138 -5.91559 1.00888 0
M  V30 1337 H 130.208 -4.60144 1.52957 0
M  V30 1338 N 131.551 -0.354651 -1.53558 0
M  V30 1339 C 132.779 0.239515 -2.05509 0
M  V30 1340 C 133.194 1.4333 -1.2289 0
M  V30 1341 O 132.551 1.80538 -0.266899 0
M  V30 1342 C 132.602 0.643719 -3.55723 0
M  V30 1343 O 132.323 -0.502602 -4.35207 0
M  V30 1344 C 133.824 1.29743 -4.23889 0
M  V30 1345 H 131.044 0.0442697 -0.669538 0
M  V30 1346 H 133.588 -0.509856 -1.98042 0
M  V30 1347 H 131.743 1.34302 -3.63376 0
M  V30 1348 H 132.157 -0.178172 -5.24197 0
M  V30 1349 H 133.631 1.53091 -5.30346 0
M  V30 1350 H 134.108 2.25441 -3.76926 0
M  V30 1351 H 134.714 0.639865 -4.20459 0
M  V30 1352 N 133.029 1.57378 -0.0835403 0
M  V30 1353 C 133.959 2.1641 0.87686 0
M  V30 1354 C 134.94 1.09429 1.30228 0
M  V30 1355 O 136.125 1.37516 1.37124 0
M  V30 1356 C 133.255 2.73517 2.14022 0
M  V30 1357 C 132.209 3.85769 1.85381 0
M  V30 1358 C 131.535 4.29529 3.18448 0
M  V30 1359 C 132.835 5.09486 1.14984 0
M  V30 1360 H 134.529 2.96914 0.385059 0
M  V30 1361 H 132.075 1.42823 0.18377 0
M  V30 1362 H 134.028 3.13463 2.81636 0
M  V30 1363 H 132.752 1.90252 2.65465 0
M  V30 1364 H 131.411 3.46345 1.20169 0
M  V30 1365 H 131.059 3.43169 3.67755 0
M  V30 1366 H 130.759 5.05204 3.00071 0
M  V30 1367 H 132.283 4.72099 3.8724 0
M  V30 1368 H 133.697 5.46674 1.72687 0
M  V30 1369 H 132.094 5.90515 1.06826 0
M  V30 1370 H 133.164 4.84724 0.130749 0
M  V30 1371 N 134.507 -0.190092 1.56449 0
M  V30 1372 C 135.755 -0.907908 1.80559 0
M  V30 1373 C 136.076 -1.83583 0.657438 0
M  V30 1374 O 135.346 -1.93203 -0.323924 0
M  V30 1375 H 133.926 -0.338247 0.666032 0
M  V30 1376 H 136.588 -0.194403 1.93928 0
M  V30 1377 H 135.684 -1.49604 2.73907 0
M  V30 1378 N 135.985 -1.50799 -0.457987 0
M  V30 1379 C 137.213 -1.66218 -1.23203 0
M  V30 1380 C 137.628 -0.350894 -1.85511 0
M  V30 1381 O 136.985 0.668546 -1.69814 0
M  V30 1382 C 137.036 -2.76291 -2.33121 0
M  V30 1383 O 136.757 -4.02338 -1.73366 0
M  V30 1384 C 138.258 -3.028 -3.2377 0
M  V30 1385 H 135.478 -0.558361 -0.372121 0
M  V30 1386 H 138.022 -1.97099 -0.545179 0
M  V30 1387 H 136.177 -2.48068 -2.97558 0
M  V30 1388 H 136.591 -4.63312 -2.4585 0
M  V30 1389 H 138.065 -3.8345 -3.97077 0
M  V30 1390 H 138.542 -2.14385 -3.83322 0
M  V30 1391 H 139.148 -3.32604 -2.65056 0
M  V30 1392 N 137.463 0.71206 -1.40597 0
M  V30 1393 C 138.71 1.47197 -1.39065 0
M  V30 1394 C 139.038 1.94499 0.00583891 0
M  V30 1395 O 138.293 1.68752 0.99102 0
M  V30 1396 C 138.592 2.71039 -2.32965 0
M  V30 1397 C 138.258 2.42484 -3.80148 0
M  V30 1398 C 136.92 2.34406 -4.20247 0
M  V30 1399 C 139.272 2.18598 -4.73143 0
M  V30 1400 C 136.6 2.00516 -5.51371 0
M  V30 1401 C 138.952 1.8622 -6.0457 0
M  V30 1402 C 137.616 1.76626 -6.43708 0
M  V30 1403 H 136.886 0.538634 -0.508876 0
M  V30 1404 H 139.533 0.815325 -1.73276 0
M  V30 1405 H 137.838 3.41558 -1.91951 0
M  V30 1406 H 139.535 3.29138 -2.29061 0
M  V30 1407 H 136.125 2.49659 -3.4838 0
M  V30 1408 H 140.309 2.23793 -4.42979 0
M  V30 1409 H 135.565 1.91628 -5.80593 0
M  V30 1410 H 139.739 1.66752 -6.76141 0
M  V30 1411 H 137.366 1.50133 -7.45228 0
M  V30 1412 N 138.941 1.26152 0.944643 0
M  V30 1413 C 139.871 1.09902 2.06019 0
M  V30 1414 C 140.852 0.00519538 1.70099 0
M  V30 1415 O 142.037 0.176583 1.93396 0
M  V30 1416 C 139.167 0.727562 3.39594 0
M  V30 1417 C 138.121 1.77274 3.89561 0
M  V30 1418 C 137.447 1.25569 5.19747 0
M  V30 1419 C 138.747 3.17357 4.14827 0
M  V30 1420 H 140.441 2.03217 2.19871 0
M  V30 1421 H 137.987 0.978452 1.05652 0
M  V30 1422 H 139.94 0.600777 4.17095 0
M  V30 1423 H 138.664 -0.241287 3.25707 0
M  V30 1424 H 137.323 1.88814 3.14237 0
M  V30 1425 H 136.971 0.276783 5.02238 0
M  V30 1426 H 136.671 1.95433 5.54148 0
M  V30 1427 H 138.195 1.1415 5.99835 0
M  V30 1428 H 139.609 3.08914 4.82954 0
M  V30 1429 H 138.006 3.84781 4.60504 0
M  V30 1430 H 139.076 3.63673 3.20734 0
M  V30 1431 N 140.419 -1.14872 1.07899 0
M  V30 1432 C 141.665 -1.86064 0.806725 0
M  V30 1433 C 141.998 -1.82434 -0.665706 0
M  V30 1434 O 141.273 -1.25138 -1.48899 0
M  V30 1435 C 141.556 -3.34929 1.32267 0
M  V30 1436 C 141.409 -3.47161 2.86006 0
M  V30 1437 C 142.728 -4.29863 0.943717 0
M  V30 1438 H 139.847 -0.675591 0.294526 0
M  V30 1439 H 142.489 -1.34925 1.33773 0
M  V30 1440 H 140.639 -3.78611 0.870974 0
M  V30 1441 H 142.311 -3.12302 3.39507 0
M  V30 1442 H 140.554 -2.88539 3.23925 0
M  V30 1443 H 141.225 -4.51777 3.17177 0
M  V30 1444 H 143.701 -3.9417 1.33302 0
M  V30 1445 H 142.577 -5.32494 1.33198 0
M  V30 1446 H 142.838 -4.41846 -0.149796 0
M  V30 1447 N 141.898 -0.863906 -1.31812 0
M  V30 1448 C 143.146 -0.470904 -1.96537 0
M  V30 1449 C 143.467 0.978771 -1.68657 0
M  V30 1450 O 142.737 1.6853 -0.998717 0
M  V30 1451 H 141.317 -0.171148 -0.72713 0
M  V30 1452 H 143.979 -1.10236 -1.60729 0
M  V30 1453 H 143.075 -0.623616 -3.05806 0
M  V30 1454 N 143.376 1.44774 -0.622745 0
M  V30 1455 C 144.339 2.29069 0.0774015 0
M  V30 1456 C 145.339 1.4059 0.780461 0
M  V30 1457 O 146.529 1.62551 0.626322 0
M  V30 1458 C 143.661 3.21974 1.12006 0
M  V30 1459 H 144.854 2.92459 -0.663901 0
M  V30 1460 H 142.407 1.51548 -0.382486 0
M  V30 1461 H 143.142 2.63417 1.89162 0
M  V30 1462 H 142.927 3.87168 0.619951 0
M  V30 1463 H 144.417 3.85318 1.60995 0
M  V30 1464 N 144.854 0.36279 1.53368 0
M  V30 1465 C 145.817 -0.472679 2.24273 0
M  V30 1466 C 146.817 -1.012 1.24961 0
M  V30 1467 O 148.007 -0.898194 1.49259 0
M  V30 1468 C 145.139 -1.66039 2.97731 0
M  V30 1469 H 146.332 0.14773 2.99536 0
M  V30 1470 H 143.885 0.114434 1.55881 0
M  V30 1471 H 144.62 -2.31896 2.26704 0
M  V30 1472 H 144.405 -1.28066 3.70596 0
M  V30 1473 H 145.895 -2.25252 3.51641 0
M  V30 1474 N 146.332 -1.57332 0.0918853 0
M  V30 1475 C 147.262 -2.16872 -0.865371 0
M  V30 1476 C 148.243 -1.10118 -1.29646 0
M  V30 1477 O 149.428 -1.38242 -1.36392 0
M  V30 1478 C 146.558 -2.74649 -2.12569 0
M  V30 1479 C 145.512 -3.86747 -1.83333 0
M  V30 1480 C 144.838 -4.31212 -3.16166 0
M  V30 1481 C 146.138 -5.10089 -1.1228 0
M  V30 1482 H 147.832 -2.97114 -0.369307 0
M  V30 1483 H 145.378 -1.42918 -0.176194 0
M  V30 1484 H 147.331 -3.14952 -2.7997 0
M  V30 1485 H 146.055 -1.91657 -2.64452 0
M  V30 1486 H 144.714 -3.46978 -1.18331 0
M  V30 1487 H 144.362 -3.45115 -3.6593 0
M  V30 1488 H 144.062 -5.06788 -2.97388 0
M  V30 1489 H 145.586 -4.74146 -3.84731 0
M  V30 1490 H 147 -5.47582 -1.69785 0
M  V30 1491 H 145.397 -5.91073 -1.03693 0
M  V30 1492 H 146.467 -4.84786 -0.105041 0
M  V30 1493 N 147.81 0.181792 -1.56548 0
M  V30 1494 C 148.773 1.20894 -1.94724 0
M  V30 1495 C 149.773 1.37738 -0.829747 0
M  V30 1496 O 150.963 1.35323 -1.09697 0
M  V30 1497 C 148.095 2.57593 -2.23291 0
M  V30 1498 H 149.288 0.882275 -2.86629 0
M  V30 1499 H 146.841 0.423838 -1.50444 0
M  V30 1500 H 147.576 2.95291 -1.34067 0
M  V30 1501 H 147.361 2.46735 -3.04736 0
M  V30 1502 H 148.851 3.31637 -2.53785 0
M  V30 1503 N 149.288 1.51039 0.449983 0
M  V30 1504 C 150.251 1.70863 1.5277 0
M  V30 1505 C 151.251 0.578846 1.5002 0
M  V30 1506 O 152.441 0.846213 1.52266 0
M  V30 1507 C 149.573 1.75341 2.9235 0
M  V30 1508 H 150.766 2.67034 1.36502 0
M  V30 1509 H 148.319 1.40838 0.677812 0
M  V30 1510 H 149.054 0.809383 3.14037 0
M  V30 1511 H 148.839 2.57436 2.95752 0
M  V30 1512 H 150.329 1.92559 3.70555 0
M  V30 1513 N 150.766 -0.704594 1.40972 0
M  V30 1514 C 152.014 -1.46169 1.39568 0
M  V30 1515 C 152.335 -1.95 0.00253745 0
M  V30 1516 O 151.605 -1.71095 -0.954114 0
M  V30 1517 H 150.185 -0.542326 0.513704 0
M  V30 1518 H 152.847 -0.834553 1.76128 0
M  V30 1519 H 151.943 -2.32922 2.07735 0
M  V30 1520 N 152.244 -1.26651 -0.937939 0
M  V30 1521 C 153.174 -1.10993 -2.05433 0
M  V30 1522 C 154.155 -0.0142161 -1.70094 0
M  V30 1523 O 155.34 -0.186837 -1.93299 0
M  V30 1524 C 152.47 -0.745561 -3.39203 0
M  V30 1525 C 151.424 -1.79337 -3.88616 0
M  V30 1526 C 150.75 -1.28324 -5.19073 0
M  V30 1527 C 152.05 -3.19553 -4.13138 0
M  V30 1528 H 153.744 -2.0438 -2.1879 0
M  V30 1529 H 151.29 -0.984041 -1.05131 0
M  V30 1530 H 153.243 -0.622888 -4.16771 0
M  V30 1531 H 151.967 0.22401 -3.25831 0
M  V30 1532 H 150.626 -1.90477 -3.13231 0
M  V30 1533 H 150.274 -0.303414 -5.02084 0
M  V30 1534 H 149.974 -1.98369 -5.53103 0
M  V30 1535 H 151.498 -1.1733 -5.99221 0
M  V30 1536 H 152.912 -3.11471 -4.81309 0
M  V30 1537 H 151.309 -3.87218 -4.58457 0
M  V30 1538 H 152.379 -3.65368 -3.18801 0
M  V30 1539 N 153.722 1.14298 -1.08507 0
M  V30 1540 C 154.652 2.21542 -0.737646 0
M  V30 1541 C 155.633 1.67773 0.280377 0
M  V30 1542 O 156.818 1.93616 0.150521 0
M  V30 1543 C 153.948 3.46988 -0.147259 0
M  V30 1544 C 152.902 4.13789 -1.09374 0
M  V30 1545 C 152.228 5.33449 -0.365524 0
M  V30 1546 C 153.528 4.62208 -2.4323 0
M  V30 1547 H 155.222 2.5086 -1.6343 0
M  V30 1548 H 152.768 1.20576 -0.787243 0
M  V30 1549 H 154.721 4.21262 0.107808 0
M  V30 1550 H 153.445 3.17037 0.784538 0
M  V30 1551 H 152.104 3.4147 -1.33393 0
M  V30 1552 H 151.752 4.99759 0.57011 0
M  V30 1553 H 151.452 5.79088 -0.996512 0
M  V30 1554 H 152.976 6.10485 -0.118534 0
M  V30 1555 H 154.39 5.27952 -2.23472 0
M  V30 1556 H 152.787 5.18553 -3.02031 0
M  V30 1557 H 153.857 3.77224 -3.04681 0
M  V30 1558 N 155.201 0.870884 1.31352 0
M  V30 1559 C 156.447 0.492314 1.97352 0
M  V30 1560 C 156.802 -0.945174 1.67583 0
M  V30 1561 O 156.095 -1.65674 0.962423 0
M  V30 1562 C 156.289 0.687157 3.50732 0
M  V30 1563 C 156.118 2.14203 3.95407 0
M  V30 1564 C 154.888 2.78382 4.21701 0
M  V30 1565 C 157.086 3.1144 4.09279 0
M  V30 1566 N 155.068 4.14611 4.52737 0
M  V30 1567 C 156.439 4.32702 4.44037 0
M  V30 1568 C 158.494 3.07418 3.91661 0
M  V30 1569 C 157.197 5.50463 4.63015 0
M  V30 1570 C 159.223 4.24438 4.11833 0
M  V30 1571 C 158.585 5.44463 4.46923 0
M  V30 1572 H 154.684 0.229206 0.747655 0
M  V30 1573 H 157.268 1.12568 1.5886 0
M  V30 1574 H 155.439 0.083384 3.8831 0
M  V30 1575 H 157.171 0.276883 4.03752 0
M  V30 1576 H 153.926 2.29326 4.14375 0
M  V30 1577 H 154.35 4.84928 4.72413 0
M  V30 1578 H 158.992 2.15732 3.6362 0
M  V30 1579 H 156.71 6.42666 4.89904 0
M  V30 1580 H 160.296 4.2278 3.99685 0
M  V30 1581 H 159.176 6.33504 4.62214 0
M  V30 1582 N 156.679 -1.44442 0.630414 0
M  V30 1583 C 157.626 -2.30678 -0.0749355 0
M  V30 1584 C 158.596 -1.4344 -0.837502 0
M  V30 1585 O 159.781 -1.72343 -0.818684 0
M  V30 1586 C 156.921 -3.28706 -1.05103 0
M  V30 1587 C 156.034 -4.31046 -0.286954 0
M  V30 1588 C 155.169 -5.16167 -1.2548 0
M  V30 1589 C 154.208 -6.10216 -0.479843 0
M  V30 1590 N 153.345 -6.88039 -1.39811 0
M  V30 1591 H 158.185 -2.90454 0.666386 0
M  V30 1592 H 155.722 -1.43107 0.340404 0
M  V30 1593 H 157.68 -3.84027 -1.63031 0
M  V30 1594 H 156.31 -2.70632 -1.75949 0
M  V30 1595 H 155.362 -3.78203 0.408243 0
M  V30 1596 H 156.674 -4.97794 0.316657 0
M  V30 1597 H 155.828 -5.76002 -1.90544 0
M  V30 1598 H 154.567 -4.49491 -1.89233 0
M  V30 1599 H 153.572 -5.49491 0.184295 0
M  V30 1600 H 154.797 -6.78928 0.152965 0
M  V30 1601 H 152.743 -6.24032 -2.02287 0
M  V30 1602 H 152.66 -7.51223 -0.848508 0
M  V30 1603 H 153.928 -7.52397 -2.03762 0
M  V30 1604 N 158.157 -0.370918 -1.53173 0
M  V30 1605 C 159.404 0.217102 -2.01333 0
M  V30 1606 C 159.732 1.48338 -1.25802 0
M  V30 1607 O 158.987 1.92698 -0.34146 0
M  V30 1608 C 159.286 0.549696 -3.53147 0
M  V30 1609 C 158.952 -0.622872 -4.46577 0
M  V30 1610 C 157.614 -0.944595 -4.71838 0
M  V30 1611 C 159.966 -1.40819 -5.01816 0
M  V30 1612 C 157.294 -2.05351 -5.49589 0
M  V30 1613 C 159.646 -2.50757 -5.80778 0
M  V30 1614 C 158.31 -2.83458 -6.04324 0
M  V30 1615 H 157.58 0.0794431 -0.736729 0
M  V30 1616 H 160.227 -0.504481 -1.84736 0
M  V30 1617 H 158.532 1.35237 -3.6772 0
M  V30 1618 H 160.229 1.017 -3.87889 0
M  V30 1619 H 156.819 -0.36209 -4.27068 0
M  V30 1620 H 161.003 -1.17289 -4.82242 0
M  V30 1621 H 156.259 -2.3108 -5.6605 0
M  V30 1622 H 160.433 -3.12022 -6.22588 0
M  V30 1623 H 158.06 -3.69508 -6.64355 0
M  V30 1624 N 159.635 1.57281 -0.100228 0
M  V30 1625 C 160.568 2.09976 0.893612 0
M  V30 1626 C 161.546 1.01155 1.27304 0
M  V30 1627 O 162.73 1.28687 1.37739 0
M  V30 1628 C 159.857 2.58098 2.19324 0
M  V30 1629 C 158.903 3.78626 1.96328 0
M  V30 1630 S 159.736 5.21959 1.19662 0
M  V30 1631 C 160.892 5.73435 2.50844 0
M  V30 1632 H 161.125 2.93946 0.44534 0
M  V30 1633 H 158.658 1.53985 0.113167 0
M  V30 1634 H 160.616 2.8648 2.94005 0
M  V30 1635 H 159.277 1.74344 2.61272 0
M  V30 1636 H 158.47 4.10382 2.92579 0
M  V30 1637 H 158.072 3.50763 1.29775 0
M  V30 1638 H 160.364 5.82015 3.46792 0
M  V30 1639 H 161.307 6.7185 2.23659 0
M  V30 1640 H 161.715 5.01395 2.59352 0
M  V30 1641 N 161.113 -0.173488 1.56642 0
M  V30 1642 C 162.361 -0.888706 1.81512 0
M  V30 1643 C 162.682 -1.82875 0.676872 0
M  V30 1644 O 161.952 -1.93536 -0.303414 0
M  V30 1645 H 160.532 -0.331164 0.669582 0
M  V30 1646 H 163.194 -0.173823 1.94123 0
M  V30 1647 H 162.29 -1.46691 2.75478 0
M  V30 1648 N 162.591 -1.51276 -0.441967 0
M  V30 1649 C 163.816 -1.67799 -1.21895 0
M  V30 1650 C 164.241 -0.372864 -1.84367 0
M  V30 1651 O 163.599 0.666501 -1.68604 0
M  V30 1652 C 163.647 -2.79199 -2.28211 0
M  V30 1653 O 162.751 -2.42479 -3.33583 0
M  V30 1654 H 162.092 -0.559649 -0.357336 0
M  V30 1655 H 164.622 -1.97815 -0.522522 0
M  V30 1656 H 164.632 -3.03146 -2.73069 0
M  V30 1657 H 163.307 -3.73906 -1.82118 0
M  V30 1658 H 161.884 -2.29087 -2.94234 0
M  V30 1659 N 164.069 0.697108 -1.41344 0
M  V30 1660 C 165.016 1.81106 -1.43071 0
M  V30 1661 C 165.986 1.63632 -0.285275 0
M  V30 1662 O 167.171 1.84504 -0.486091 0
M  V30 1663 C 164.311 3.18975 -1.31715 0
M  V30 1664 C 163.424 3.47892 -2.56115 0
M  V30 1665 C 162.559 4.75367 -2.37064 0
M  V30 1666 C 161.598 4.97247 -3.56948 0
M  V30 1667 N 160.735 6.15947 -3.36977 0
M  V30 1668 H 165.575 1.78965 -2.38276 0
M  V30 1669 H 163.112 0.873975 -1.18322 0
M  V30 1670 H 165.07 3.98615 -1.23133 0
M  V30 1671 H 163.7 3.20297 -0.401183 0
M  V30 1672 H 162.752 2.62669 -2.75153 0
M  V30 1673 H 164.064 3.59962 -3.45295 0
M  V30 1674 H 163.218 5.63059 -2.25941 0
M  V30 1675 H 161.957 4.65541 -1.45338 0
M  V30 1676 H 160.962 4.08004 -3.68527 0
M  V30 1677 H 162.187 5.08934 -4.49626 0
M  V30 1678 H 160.133 6.07336 -2.47949 0
M  V30 1679 H 160.05 6.28777 -4.19732 0
M  V30 1680 H 161.318 7.06377 -3.29623 0
M  V30 1681 N 165.547 1.27147 0.931209 0
M  V30 1682 C 166.787 1.14511 1.69312 0
M  V30 1683 C 167.151 -0.304638 1.89568 0
M  V30 1684 O 168.352 -0.553343 2.63043 0
M  V30 1685 C 166.623 1.90349 3.02493 0
M  V30 1686 S 168.182 1.93884 3.93642 0
M  V30 1687 H 165 0.408858 0.581684 0
M  V30 1688 H 167.602 1.61006 1.10893 0
M  V30 1689 H 166.306 2.94877 2.85439 0
M  V30 1690 H 165.837 1.44333 3.65966 0
M  V30 1691 H 167.852 1.03273 4.85334 0
M  V30 1692 N 167.025 -1.13721 1.09112 0
M  V30 1693 C 168.25 -1.89314 0.847053 0
M  V30 1694 C 168.675 -1.78416 -0.595774 0
M  V30 1695 O 168.033 -1.12942 -1.41823 0
M  V30 1696 C 168.081 -3.3701 1.28284 0
M  V30 1697 O 167.185 -4.10054 0.439267 0
M  V30 1698 H 166.526 -0.588745 0.307044 0
M  V30 1699 H 169.056 -1.43902 1.45442 0
M  V30 1700 H 169.066 -3.87834 1.26683 0
M  V30 1701 H 167.741 -3.4426 2.33363 0
M  V30 1702 H 166.318 -3.69266 0.519312 0
M  V30 1703 N 168.503 -0.877838 -1.30888 0
M  V30 1704 C 169.451 -0.328662 -2.30266 0
M  V30 1705 C 170.445 0.560496 -1.59859 0
M  V30 1706 O 171.651 0.445722 -1.74394 0
M  V30 1707 H 168.026 -0.0876142 -0.746879 0
M  V30 1708 H 169.997 -1.18061 -2.74051 0
M  V30 1709 C 168.746 0.448071 -3.44801 0
M  V30 1710 H 168.069 -0.226859 -3.99156 0
M  V30 1711 H 169.509 0.797541 -4.16432 0
M  V30 1712 C 167.968 1.64239 -2.94155 0
M  V30 1713 O 168.498 2.74175 -2.93583 0
M  V30 1714 N 166.704 1.47716 -2.50256 0
M  V30 1715 H 166.251 0.582821 -2.5092 0
M  V30 1716 H 166.209 2.27765 -2.16727 0
M  V30 1717 N 169.982 1.44106 -0.638065 0
M  V30 1718 C 171.207 2.0685 -0.150916 0
M  V30 1719 C 171.632 1.47417 1.16833 0
M  V30 1720 O 170.99 0.578264 1.71831 0
M  V30 1721 C 171.038 3.60555 -0.05708 0
M  V30 1722 O 170.142 4.00465 0.984972 0
M  V30 1723 H 169.483 0.658151 -0.0879399 0
M  V30 1724 H 172.013 1.84865 -0.876707 0
M  V30 1725 H 172.023 4.07789 0.131232 0
M  V30 1726 H 170.698 4.03193 -1.02021 0
M  V30 1727 H 169.275 3.64849 0.770672 0
M  V30 1728 N 171.46 0.379036 1.52974 0
M  V30 1729 C 172.708 -0.206014 2.01047 0
M  V30 1730 C 173.029 -1.48175 1.26765 0
M  V30 1731 O 172.299 -1.92085 0.384743 0
M  V30 1732 H 170.879 -0.0791184 0.742798 0
M  V30 1733 H 173.541 0.508366 1.88153 0
M  V30 1734 H 172.637 -0.423501 3.09213 0
M  V30 1735 N 172.938 -1.57226 0.108567 0
M  V30 1736 C 174.187 -1.94008 -0.551703 0
M  V30 1737 C 174.5 -0.993442 -1.68494 0
M  V30 1738 O 175.706 -1.25551 -2.40726 0
M  V30 1739 C 174.162 -3.44763 -1.03279 0
M  V30 1740 C 173.77 -4.47943 0.0714193 0
M  V30 1741 C 175.514 -3.90483 -1.66503 0
M  V30 1742 C 173.421 -5.89865 -0.425779 0
M  V30 1743 H 172.351 -0.724206 -0.209863 0
M  V30 1744 H 175.002 -1.82547 0.186741 0
M  V30 1745 H 173.384 -3.51422 -1.82533 0
M  V30 1746 H 174.558 -4.52942 0.847365 0
M  V30 1747 H 172.873 -4.11913 0.609669 0
M  V30 1748 H 175.47 -4.93925 -2.04798 0
M  V30 1749 H 175.813 -3.29877 -2.53942 0
M  V30 1750 H 176.346 -3.86581 -0.938074 0
M  V30 1751 H 173.085 -6.54202 0.412316 0
M  V30 1752 H 172.605 -5.88309 -1.16843 0
M  V30 1753 H 174.284 -6.40844 -0.890397 0
M  V30 1754 N 174.416 0.165178 -1.56732 0
M  V30 1755 C 175.326 1.22423 -2.00125 0
M  V30 1756 C 176.342 1.48084 -0.913619 0
M  V30 1757 O 177.518 1.60112 -1.22172 0
M  V30 1758 C 174.583 2.54197 -2.35764 0
M  V30 1759 C 173.644 2.36343 -3.58386 0
M  V30 1760 C 172.877 3.61834 -3.92316 0
M  V30 1761 O 173.1 4.67267 -3.27135 0
M  V30 1762 O 172.034 3.55579 -4.85641 0
M  V30 1763 H 175.86 0.885886 -2.90492 0
M  V30 1764 H 173.445 0.372518 -1.44681 0
M  V30 1765 H 175.327 3.3192 -2.59629 0
M  V30 1766 H 174.002 2.87598 -1.48557 0
M  V30 1767 H 172.909 1.56632 -3.39731 0
M  V30 1768 H 174.242 2.07865 -4.46154 0
M  V30 1769 N 175.894 1.51508 0.433938 0
M  V30 1770 C 177.134 1.66006 1.19253 0
M  V30 1771 C 177.498 0.369868 1.88404 0
M  V30 1772 O 178.699 0.39066 2.65946 0
M  V30 1773 C 176.97 2.83229 2.17981 0
M  V30 1774 S 178.529 3.18075 3.02281 0
M  V30 1775 H 175.347 0.584821 0.404358 0
M  V30 1776 H 177.949 1.89425 0.48357 0
M  V30 1777 H 176.653 3.75407 1.65824 0
M  V30 1778 H 176.184 2.6201 2.93453 0
M  V30 1779 H 178.199 2.64772 4.19655 0
M  V30 1780 N 177.372 -0.689602 1.41712 0
M  V30 1781 C 178.649 -1.44457 1.31877 0
M  V30 1782 C 179.029 -2.11039 -0.0508537 0
M  V30 1783 O 178.377 -2.02138 -1.06547 0
M  V30 1784 C 178.587 -2.45913 2.47645 0
M  V30 1785 C 179.935 -3.10991 2.89084 0
M  V30 1786 O 180.959 -2.56238 2.47428 0
M  V30 1787 O 179.818 -4.10174 3.61137 0
M  V30 1788 H 176.912 -0.64362 0.519309 0
M  V30 1789 H 179.458 -0.719576 1.53689 0
M  V30 1790 H 178.23 -1.95409 3.39015 0
M  V30 1791 H 177.853 -3.25913 2.27742 0
M  V30 1792 N 178.85 -1.27639 -0.924453 0
M  V30 1793 C 180.075 -1.17101 -1.71179 0
M  V30 1794 C 180.5 0.268134 -1.86179 0
M  V30 1795 O 179.858 1.19415 -1.36418 0
M  V30 1796 C 179.906 -1.86313 -3.08739 0
M  V30 1797 O 179.01 -1.16331 -3.95652 0
M  V30 1798 H 178.351 -0.407091 -0.524569 0
M  V30 1799 H 180.881 -1.68767 -1.15666 0
M  V30 1800 H 180.891 -1.938 -3.59034 0
M  V30 1801 H 179.566 -2.91001 -2.97138 0
M  V30 1802 H 178.143 -1.16935 -3.54091 0
M  V30 1803 N 180.328 1.1314 -1.09713 0
M  V30 1804 C 181.553 1.88862 -0.857081 0
M  V30 1805 C 181.978 1.78729 0.586304 0
M  V30 1806 O 181.336 1.13692 1.41222 0
M  V30 1807 C 181.384 3.36325 -1.30069 0
M  V30 1808 O 180.488 4.09815 -0.461007 0
M  V30 1809 H 179.829 0.587108 -0.310162 0
M  V30 1810 H 182.359 1.43129 -1.46203 0
M  V30 1811 H 182.369 3.87157 -1.28738 0
M  V30 1812 H 181.044 3.43017 -2.35185 0
M  V30 1813 H 179.621 3.68986 -0.538888 0
M  V30 1814 N 181.806 0.884767 1.30421 0
M  V30 1815 C 183.054 0.502112 1.95763 0
M  V30 1816 C 183.375 -0.951815 1.70192 0
M  V30 1817 O 182.645 -1.6692 1.0254 0
M  V30 1818 H 181.225 0.182694 0.724315 0
M  V30 1819 H 183.887 1.1278 1.58955 0
M  V30 1820 H 182.983 0.672188 3.04775 0
M  V30 1821 N 183.284 -1.43765 0.645699 0
M  V30 1822 C 184.512 -2.06253 0.163556 0
M  V30 1823 C 184.927 -1.48352 -1.16778 0
M  V30 1824 O 184.284 -0.611932 -1.71935 0
M  V30 1825 C 184.335 -3.61453 0.0583186 0
M  V30 1826 O 184.056 -4.172 1.33702 0
M  V30 1827 C 185.557 -4.41002 -0.450795 0
M  V30 1828 H 182.777 -0.665413 0.0864077 0
M  V30 1829 H 185.321 -1.84396 0.884222 0
M  V30 1830 H 183.476 -3.82522 -0.612865 0
M  V30 1831 H 183.89 -5.10791 1.19131 0
M  V30 1832 H 185.364 -5.49966 -0.473403 0
M  V30 1833 H 185.841 -4.13488 -1.48068 0
M  V30 1834 H 186.447 -4.24886 0.187637 0
M  V30 1835 N 184.763 -0.387143 -1.52771 0
M  V30 1836 C 186.003 0.195537 -2.03463 0
M  V30 1837 C 186.367 1.44222 -1.26744 0
M  V30 1838 O 187.568 2.10192 -1.67549 0
M  V30 1839 C 185.839 0.459097 -3.54439 0
M  V30 1840 S 187.398 1.01237 -4.26962 0
M  V30 1841 H 184.216 0.0552675 -0.708849 0
M  V30 1842 H 186.818 -0.534992 -1.88037 0
M  V30 1843 H 185.522 -0.455382 -4.07866 0
M  V30 1844 H 185.053 1.21811 -3.74066 0
M  V30 1845 H 187.068 2.29492 -4.39941 0
M  V30 1846 N 186.241 1.57166 -0.116904 0
M  V30 1847 C 187.49 1.94298 0.541407 0
M  V30 1848 C 187.803 1.00236 1.67964 0
M  V30 1849 O 189.009 1.26826 2.40057 0
M  V30 1850 C 187.465 3.45306 1.01449 0
M  V30 1851 C 187.073 4.47899 -0.0951738 0
M  V30 1852 C 188.817 3.91361 1.6443 0
M  V30 1853 C 186.724 5.90083 0.394491 0
M  V30 1854 H 185.654 0.725308 0.206019 0
M  V30 1855 H 188.305 1.82446 -0.196419 0
M  V30 1856 H 186.687 3.52385 1.80667 0
M  V30 1857 H 187.861 4.52486 -0.871374 0
M  V30 1858 H 186.176 4.11583 -0.631505 0
M  V30 1859 H 188.773 4.95004 2.02176 0
M  V30 1860 H 189.116 3.3122 2.52189 0
M  V30 1861 H 189.649 3.87073 0.917559 0
M  V30 1862 H 186.388 6.53974 -0.447004 0
M  V30 1863 H 185.908 5.88921 1.13722 0
M  V30 1864 H 187.587 6.41307 0.856399 0
M  V30 1865 N 187.719 -0.156864 1.56817 0
M  V30 1866 C 188.667 -1.21319 1.98455 0
M  V30 1867 C 189.661 -1.45025 0.875444 0
M  V30 1868 O 190.867 -1.45435 1.0606 0
M  V30 1869 H 187.242 -0.408142 0.631605 0
M  V30 1870 H 189.213 -0.835244 2.86472 0
M  V30 1871 C 187.962 -2.54148 2.37285 0
M  V30 1872 H 187.285 -2.36733 3.22176 0
M  V30 1873 H 188.725 -3.26712 2.70251 0
M  V30 1874 C 187.184 -3.13967 1.22173 0
M  V30 1875 O 187.714 -3.98357 0.517149 0
M  V30 1876 N 185.92 -2.7327 0.988536 0
M  V30 1877 H 185.467 -2.04744 1.56326 0
M  V30 1878 H 185.425 -3.13628 0.220209 0
M  V30 1879 N 189.197 -1.51736 -0.425897 0
M  V30 1880 C 190.608 -1.5732 -1.00536 0
M  V30 1881 C 190.959 -0.403537 -1.92005 0
M  V30 1882 O 190.084 0.478256 -2.11049 0
M  V30 1883 C 190.679 -2.85119 -1.8301 0
M  V30 1884 C 189.238 -2.93236 -2.35987 0
M  V30 1885 C 188.385 -2.52098 -1.15508 0
M  V30 1886 H 191.336 -1.57348 -0.206739 0
M  V30 1887 H 191.357 -2.69526 -2.68581 0
M  V30 1888 H 190.869 -3.7023 -1.16411 0
M  V30 1889 H 188.97 -2.12581 -3.06007 0
M  V30 1890 H 189.083 -3.9713 -2.68001 0
M  V30 1891 H 187.447 -2.05558 -1.50393 0
M  V30 1892 H 188.23 -3.39565 -0.505014 0
M  V30 1893 N 190.675 0.682077 -1.42076 0
M  V30 1894 C 191.9 1.47558 -1.45744 0
M  V30 1895 C 192.325 1.87977 -0.0680981 0
M  V30 1896 O 191.683 1.55522 0.9318 0
M  V30 1897 C 191.731 2.70575 -2.38373 0
M  V30 1898 O 190.835 3.68573 -1.85007 0
M  V30 1899 H 190.176 0.443585 -0.494093 0
M  V30 1900 H 192.706 0.837238 -1.86686 0
M  V30 1901 H 192.716 3.18729 -2.54707 0
M  V30 1902 H 191.391 2.40495 -3.39315 0
M  V30 1903 H 189.968 3.2757 -1.78192 0
M  V30 1904 N 192.153 1.28127 0.917671 0
M  V30 1905 C 193.101 1.11569 2.04096 0
M  V30 1906 C 194.095 0.0360242 1.69362 0
M  V30 1907 O 195.301 0.194501 1.78946 0
M  V30 1908 H 191.676 0.344097 0.668656 0
M  V30 1909 H 193.647 2.06711 2.15205 0
M  V30 1910 C 192.396 0.790197 3.38602 0
M  V30 1911 H 191.719 1.61293 3.6582 0
M  V30 1912 H 193.159 0.714271 4.1794 0
M  V30 1913 C 191.618 -0.505897 3.3308 0
M  V30 1914 O 192.148 -1.53736 3.71117 0
M  V30 1915 N 190.354 -0.505193 2.86175 0
M  V30 1916 H 189.901 0.334621 2.55417 0
M  V30 1917 H 189.859 -1.37243 2.82863 0
M  V30 1918 N 193.631 -1.12557 1.10312 0
M  V30 1919 C 194.877 -1.84515 0.855901 0
M  V30 1920 C 195.232 -1.82409 -0.611936 0
M  V30 1921 O 194.525 -1.25778 -1.44535 0
M  V30 1922 C 194.719 -3.31462 1.33669 0
M  V30 1923 C 194.548 -3.47879 2.84974 0
M  V30 1924 C 193.318 -3.61589 3.52961 0
M  V30 1925 C 195.516 -3.43152 3.83081 0
M  V30 1926 N 193.498 -3.66359 4.926 0
M  V30 1927 C 194.869 -3.54401 5.08724 0
M  V30 1928 C 196.924 -3.2661 3.75807 0
M  V30 1929 C 195.627 -3.50815 6.2795 0
M  V30 1930 C 197.653 -3.24335 4.94531 0
M  V30 1931 C 197.015 -3.36144 6.19021 0
M  V30 1932 H 193.114 -0.690967 0.366182 0
M  V30 1933 H 195.698 -1.34763 1.40524 0
M  V30 1934 H 193.869 -3.7976 0.814686 0
M  V30 1935 H 195.601 -3.91272 1.03385 0
M  V30 1936 H 192.356 -3.63652 3.03404 0
M  V30 1937 H 192.78 -3.72411 5.65366 0
M  V30 1938 H 197.422 -3.16375 2.80476 0
M  V30 1939 H 195.14 -3.5982 7.23571 0
M  V30 1940 H 198.726 -3.12719 4.9061 0
M  V30 1941 H 197.606 -3.34357 7.09348 0
M  V30 1942 N 195.109 -0.891671 -1.2995 0
M  V30 1943 C 196.349 -0.520296 -1.97667 0
M  V30 1944 C 196.713 0.914797 -1.68806 0
M  V30 1945 O 197.914 1.39263 -2.29911 0
M  V30 1946 C 196.185 -0.795222 -3.48441 0
M  V30 1947 S 197.744 -0.526953 -4.35624 0
M  V30 1948 H 194.562 -0.19333 -0.684211 0
M  V30 1949 H 197.164 -1.15238 -1.57926 0
M  V30 1950 H 195.868 -1.83805 -3.66938 0
M  V30 1951 H 195.399 -0.15095 -3.9311 0
M  V30 1952 H 197.414 0.631533 -4.92165 0
M  V30 1953 N 196.587 1.43421 -0.653314 0
M  V30 1954 C 197.864 1.95361 -0.0966581 0
M  V30 1955 C 198.244 1.59461 1.38331 0
M  V30 1956 O 197.592 0.879777 2.10884 0
M  V30 1957 C 197.802 3.47311 -0.342988 0
M  V30 1958 C 199.15 4.23875 -0.24798 0
M  V30 1959 O 200.174 3.55133 -0.275553 0
M  V30 1960 O 199.033 5.4623 -0.171771 0
M  V30 1961 H 196.127 0.826945 0.00956291 0
M  V30 1962 H 198.673 1.5336 -0.726558 0
M  V30 1963 H 197.445 3.66569 -1.36906 0
M  V30 1964 H 197.068 3.9631 0.319975 0
M  V30 1965 N 198.065 0.39524 1.52563 0
M  V30 1966 C 199.313 -0.184678 2.01254 0
M  V30 1967 C 199.634 -1.46822 1.28329 0
M  V30 1968 O 198.904 -1.91666 0.405094 0
M  V30 1969 H 197.484 -0.0712355 0.743596 0
M  V30 1970 H 200.146 0.528293 1.87603 0
M  V30 1971 H 199.242 -0.390681 3.09645 0
M  V30 1972 N 199.544 -1.57102 0.125237 0
M  V30 1973 C 200.79 -1.95697 -0.532035 0
M  V30 1974 C 201.123 -1.009 -1.6593 0
M  V30 1975 O 200.398 -0.047347 -1.94442 0
M  V30 1976 C 200.681 -3.44181 -1.05884 0
M  V30 1977 C 200.534 -4.49752 0.0654392 0
M  V30 1978 C 201.853 -3.94655 -1.9477 0
M  V30 1979 H 198.972 -0.711571 -0.191925 0
M  V30 1980 H 201.614 -1.88923 0.20206 0
M  V30 1981 H 199.764 -3.50085 -1.68442 0
M  V30 1982 H 201.436 -4.55943 0.700982 0
M  V30 1983 H 199.679 -4.27653 0.727709 0
M  V30 1984 H 200.35 -5.50924 -0.344505 0
M  V30 1985 H 202.826 -3.91094 -1.42074 0
M  V30 1986 H 201.702 -4.99057 -2.28546 0
M  V30 1987 H 201.963 -3.35718 -2.87656 0
M  V30 1988 N 201.022 0.148545 -1.56898 0
M  V30 1989 C 202.247 0.880385 -1.87787 0
M  V30 1990 C 202.672 1.74018 -0.714093 0
M  V30 1991 O 202.03 1.78153 0.336343 0
M  V30 1992 C 202.078 1.71422 -3.17249 0
M  V30 1993 O 201.182 2.8183 -3.01074 0
M  V30 1994 H 200.523 0.245301 -0.617028 0
M  V30 1995 H 203.053 0.139826 -2.04122 0
M  V30 1996 H 203.063 2.10954 -3.49231 0
M  V30 1997 H 201.738 1.08284 -4.01556 0
M  V30 1998 H 200.315 2.45715 -2.80497 0
M  V30 1999 N 202.5 1.5196 0.417844 0
M  V30 2000 C 203.45 1.7106 1.5074 0
M  V30 2001 C 204.434 0.564487 1.50673 0
M  V30 2002 O 205.626 0.821206 1.56797 0
M  V30 2003 C 202.755 1.85677 2.88754 0
M  V30 2004 C 201.841 3.06133 2.93502 0
M  V30 2005 N 202.232 4.28987 2.67962 0
M  V30 2006 C 200.53 3.05787 3.24669 0
M  V30 2007 C 201.231 5.10395 2.79055 0
M  V30 2008 N 200.207 4.45455 3.11561 0
M  V30 2009 H 204.009 2.63696 1.29775 0
M  V30 2010 H 201.523 1.49873 0.625436 0
M  V30 2011 H 203.52 1.97475 3.67164 0
M  V30 2012 H 202.18 0.942348 3.10725 0
M  V30 2013 H 203.191 4.57607 2.4252 0
M  V30 2014 H 199.868 2.2405 3.52289 0
M  V30 2015 H 201.258 6.18247 2.63097 0
M  V30 2016 N 203.978 -0.674533 1.42435 0
M  V30 2017 C 205.218 -1.4466 1.44405 0
M  V30 2018 C 205.582 -1.91911 0.0585784 0
M  V30 2019 O 206.783 -2.68759 -0.0469991 0
M  V30 2020 C 205.054 -2.61136 2.44013 0
M  V30 2021 S 206.613 -3.49981 2.64687 0
M  V30 2022 H 203.431 -0.494074 0.511284 0
M  V30 2023 H 206.033 -0.785162 1.7904 0
M  V30 2024 H 204.737 -2.24662 3.43446 0
M  V30 2025 H 204.268 -3.32153 2.10803 0
M  V30 2026 H 206.283 -4.57124 1.93007 0
M  V30 2027 N 205.456 -1.28612 -0.910864 0
M  V30 2028 C 206.867 -1.14406 -1.47541 0
M  V30 2029 C 207.218 0.264901 -1.94403 0
M  V30 2030 O 206.343 1.15942 -1.82719 0
M  V30 2031 C 206.938 -2.07073 -2.68153 0
M  V30 2032 C 205.497 -1.96923 -3.20778 0
M  V30 2033 C 204.644 -1.98646 -1.93481 0
M  V30 2034 H 207.595 -1.41259 -0.723291 0
M  V30 2035 H 207.616 -1.63642 -3.43514 0
M  V30 2036 H 207.128 -3.09611 -2.34015 0
M  V30 2037 H 205.229 -0.97433 -3.59635 0
M  V30 2038 H 205.342 -2.84026 -3.85832 0
M  V30 2039 H 203.706 -1.43093 -2.10705 0
M  V30 2040 H 204.489 -3.02868 -1.61634 0
M  V30 2041 N 206.934 1.1197 -1.10907 0
M  V30 2042 C 208.182 1.83225 -0.852819 0
M  V30 2043 C 208.503 1.84769 0.623341 0
M  V30 2044 O 207.773 1.3143 1.45269 0
M  V30 2045 H 206.353 0.67849 -0.312507 0
M  V30 2046 H 209.015 1.3556 -1.40033 0
M  V30 2047 H 208.111 2.87265 -1.22005 0
M  V30 2048 N 208.412 0.89855 1.29475 0
M  V30 2049 C 209.66 0.522847 1.9522 0
M  V30 2050 C 209.981 -0.93371 1.71192 0
M  V30 2051 O 209.251 -1.65823 1.04305 0
M  V30 2052 H 207.831 0.190366 0.722336 0
M  V30 2053 H 210.493 1.14459 1.5775 0
M  V30 2054 H 209.589 0.704476 3.04045 0
M  V30 2055 N 209.89 -1.43072 0.660911 0
M  V30 2056 C 210.8 -2.34585 -0.0264163 0
M  V30 2057 C 211.816 -1.54316 -0.803898 0
M  V30 2058 O 212.992 -1.86939 -0.749391 0
M  V30 2059 C 210.057 -3.32689 -0.975639 0
M  V30 2060 C 209.118 -4.2886 -0.194236 0
M  V30 2061 C 208.351 -5.22278 -1.09825 0
M  V30 2062 O 208.574 -5.20299 -2.33763 0
M  V30 2063 O 207.508 -5.99228 -0.566513 0
M  V30 2064 H 211.334 -2.94869 0.727034 0
M  V30 2065 H 208.919 -1.43342 0.42111 0
M  V30 2066 H 210.801 -3.92995 -1.52094 0
M  V30 2067 H 209.476 -2.74898 -1.70918 0
M  V30 2068 H 208.383 -3.72011 0.394835 0
M  V30 2069 H 209.716 -4.89655 0.499899 0
M  V30 2070 N 211.368 -0.403325 -1.52352 0
M  V30 2071 C 212.645 0.232611 -1.94212 0
M  V30 2072 C 213.025 1.63133 -1.33981 0
M  V30 2073 O 212.373 2.22659 -0.513344 0
M  V30 2074 C 212.583 0.244811 -3.4814 0
M  V30 2075 C 213.931 0.46698 -4.22024 0
M  V30 2076 O 214.955 0.324419 -3.5472 0
M  V30 2077 O 213.814 0.74747 -5.41364 0
M  V30 2078 H 210.908 0.148223 -0.813609 0
M  V30 2079 H 213.454 -0.458848 -1.63379 0
M  V30 2080 H 212.226 -0.734378 -3.84347 0
M  V30 2081 H 211.849 0.980611 -3.85318 0
M  V30 2082 N 212.846 1.57033 -0.133567 0
M  V30 2083 C 213.756 2.19632 0.824564 0
M  V30 2084 C 214.772 1.17666 1.28182 0
M  V30 2085 O 215.948 1.50193 1.3418 0
M  V30 2086 C 213.013 2.79499 2.05137 0
M  V30 2087 C 212.074 3.96548 1.64464 0
M  V30 2088 C 211.307 4.5355 2.81297 0
M  V30 2089 O 211.53 4.09438 3.97136 0
M  V30 2090 O 210.464 5.44018 2.57542 0
M  V30 2091 H 214.29 3.01991 0.321766 0
M  V30 2092 H 211.875 1.49112 0.0927889 0
M  V30 2093 H 213.757 3.17602 2.7696 0
M  V30 2094 H 212.432 2.00162 2.54395 0
M  V30 2095 H 211.339 3.63186 0.897048 0
M  V30 2096 H 212.672 4.77364 1.19934 0
M  V30 2097 N 214.325 -0.140222 1.56975 0
M  V30 2098 C 215.273 -1.19207 1.99731 0
M  V30 2099 C 216.267 -1.44089 0.890777 0
M  V30 2100 O 217.473 -1.44301 1.07597 0
M  V30 2101 H 213.848 -0.40142 0.635898 0
M  V30 2102 H 215.819 -0.804813 2.87342 0
M  V30 2103 C 214.568 -2.51617 2.39967 0
M  V30 2104 H 213.891 -2.33303 3.24669 0
M  V30 2105 H 215.331 -3.23827 2.73701 0
M  V30 2106 C 213.79 -3.12654 1.25496 0
M  V30 2107 O 214.32 -3.97786 0.559371 0
M  V30 2108 N 212.526 -2.72206 1.01746 0
M  V30 2109 H 212.073 -2.03074 1.58489 0
M  V30 2110 H 212.031 -3.13377 0.253461 0
M  V30 2111 N 215.803 -1.52179 -0.40978 0
M  V30 2112 C 217.219 -1.40968 -0.74835 0
M  V30 2113 C 217.419 -0.513657 -1.94843 0
M  V30 2114 O 216.475 0.0208026 -2.52491 0
M  V30 2115 C 217.788 -2.83483 -1.0029 0
M  V30 2116 C 219.336 -2.92821 -1.10565 0
M  V30 2117 C 219.811 -4.36303 -1.39296 0
M  V30 2118 N 221.302 -4.39535 -1.46162 0
M  V30 2119 C 222.037 -5.47614 -1.70018 0
M  V30 2120 N 221.533 -6.65812 -1.91483 0
M  V30 2121 N 223.326 -5.35129 -1.72027 0
M  V30 2122 H 215.477 -2.0897 0.380186 0
M  V30 2123 H 217.74 -0.94185 0.107805 0
M  V30 2124 H 217.446 -3.51168 -0.193461 0
M  V30 2125 H 217.32 -3.24487 -1.92323 0
M  V30 2126 H 219.707 -2.25318 -1.90568 0
M  V30 2127 H 219.788 -2.55276 -0.16369 0
M  V30 2128 H 219.432 -5.04366 -0.598109 0
M  V30 2129 H 219.362 -4.71385 -2.34743 0
M  V30 2130 H 221.853 -3.54332 -1.31367 0
M  V30 2131 H 222.166 -7.43964 -2.09134 0
M  V30 2132 H 220.511 -6.68879 -1.88749 0
M  V30 2133 H 223.702 -4.41764 -1.54796 0
M  V30 2134 H 223.875 -6.19433 -1.9028 0
M  V30 2135 N 217.281 0.66697 -1.42791 0
M  V30 2136 C 218.521 1.43892 -1.4517 0
M  V30 2137 C 218.885 1.91877 -0.0687551 0
M  V30 2138 O 220.086 2.6878 0.0327455 0
M  V30 2139 C 218.357 2.59839 -2.45395 0
M  V30 2140 S 219.916 3.48572 -2.66539 0
M  V30 2141 H 216.734 0.491356 -0.513897 0
M  V30 2142 H 219.336 0.775656 -1.79454 0
M  V30 2143 H 218.04 2.22838 -3.44632 0
M  V30 2144 H 217.571 3.3103 -2.12562 0
M  V30 2145 H 219.586 4.56094 -1.95429 0
M  V30 2146 N 218.759 1.29093 0.90403 0
M  V30 2147 C 220.005 1.16986 1.65656 0
M  V30 2148 C 220.338 -0.278925 1.92186 0
M  V30 2149 O 219.613 -1.2019 1.5292 0
M  V30 2150 C 219.896 1.97908 3.0084 0
M  V30 2151 C 219.749 3.50903 2.81403 0
M  V30 2152 C 221.068 1.80208 4.01513 0
M  V30 2153 H 218.187 0.426346 0.601164 0
M  V30 2154 H 220.829 1.58518 1.04747 0
M  V30 2155 H 218.979 1.62616 3.52829 0
M  V30 2156 H 220.651 3.96153 2.36348 0
M  V30 2157 H 218.894 3.76045 2.1627 0
M  V30 2158 H 219.565 4.02791 3.77443 0
M  V30 2159 H 222.041 2.11025 3.58619 0
M  V30 2160 H 220.917 2.39184 4.94047 0
M  V30 2161 H 221.178 0.756119 4.35586 0
M  V30 2162 N 220.237 -1.11381 1.11499 0
M  V30 2163 C 221.653 -1.35143 0.849031 0
M  V30 2164 C 221.853 -1.94515 -0.525938 0
M  V30 2165 O 220.909 -2.1785 -1.27662 0
M  V30 2166 C 222.222 -2.28249 1.95762 0
M  V30 2167 C 223.77 -2.41812 1.98736 0
M  V30 2168 C 224.245 -3.3824 3.088 0
M  V30 2169 N 225.736 -3.45803 3.08179 0
M  V30 2170 C 226.471 -4.20358 3.89982 0
M  V30 2171 N 225.967 -4.97884 4.8175 0
M  V30 2172 N 227.76 -4.15877 3.78157 0
M  V30 2173 H 219.911 -0.712062 2.00109 0
M  V30 2174 H 222.174 -0.376025 0.870235 0
M  V30 2175 H 221.88 -1.91817 2.94787 0
M  V30 2176 H 221.754 -3.28473 1.85433 0
M  V30 2177 H 224.141 -2.77518 1.00338 0
M  V30 2178 H 224.222 -1.41437 2.13141 0
M  V30 2179 H 223.866 -3.03261 4.07425 0
M  V30 2180 H 223.796 -4.38471 2.91635 0
M  V30 2181 H 226.287 -2.90506 2.41691 0
M  V30 2182 H 226.6 -5.52142 5.40702 0
M  V30 2183 H 224.945 -4.97043 4.85771 0
M  V30 2184 H 228.136 -3.544 3.05808 0
M  V30 2185 H 228.309 -4.73723 4.42143 0
M  V30 2186 N 221.715 -0.905404 -1.28997 0
M  V30 2187 C 222.645 -0.404212 -2.29975 0
M  V30 2188 C 223.626 0.523784 -1.61835 0
M  V30 2189 O 224.811 0.433298 -1.89304 0
M  V30 2190 C 221.941 0.364042 -3.45387 0
M  V30 2191 C 220.895 -0.474048 -4.25367 0
M  V30 2192 C 220.221 0.422045 -5.33032 0
M  V30 2193 C 221.521 -1.72696 -4.92923 0
M  V30 2194 H 223.215 -1.24807 -2.72146 0
M  V30 2195 H 220.761 -0.601585 -1.30832 0
M  V30 2196 H 222.714 0.725447 -4.15109 0
M  V30 2197 H 221.438 1.24174 -3.02074 0
M  V30 2198 H 220.097 -0.81786 -3.57361 0
M  V30 2199 H 219.745 1.29804 -4.85963 0
M  V30 2200 H 219.445 -0.135057 -5.87445 0
M  V30 2201 H 220.969 0.779517 -6.05604 0
M  V30 2202 H 222.383 -1.43495 -5.55051 0
M  V30 2203 H 220.78 -2.22582 -5.57295 0
M  V30 2204 H 221.85 -2.45964 -4.17887 0
M  V30 2205 N 223.193 1.4272 -0.668489 0
M  V30 2206 C 224.423 2.05668 -0.196063 0
M  V30 2207 C 224.831 1.5028 1.14946 0
M  V30 2208 O 224.174 0.6348 1.72383 0
M  V30 2209 C 224.236 3.59469 -0.0468879 0
M  V30 2210 C 223.9 4.37518 -1.32012 0
M  V30 2211 C 224.897 4.68584 -2.25222 0
M  V30 2212 C 222.582 4.77266 -1.56596 0
M  V30 2213 C 224.576 5.38326 -3.41297 0
M  V30 2214 C 222.263 5.4675 -2.72962 0
M  V30 2215 C 223.261 5.77204 -3.65137 0
M  V30 2216 O 222.949 6.45264 -4.79468 0
M  V30 2217 H 222.681 0.669382 -0.0943599 0
M  V30 2218 H 225.235 1.83954 -0.913788 0
M  V30 2219 H 223.465 3.79817 0.726357 0
M  V30 2220 H 225.154 4.04071 0.384852 0
M  V30 2221 H 225.92 4.38382 -2.07477 0
M  V30 2222 H 221.799 4.52959 -0.857249 0
M  V30 2223 H 225.343 5.62014 -4.13263 0
M  V30 2224 H 221.24 5.76369 -2.90635 0
M  V30 2225 H 222.008 6.63753 -4.78931 0
M  V30 2226 N 224.671 0.411399 1.52136 0
M  V30 2227 C 225.919 -0.163322 2.01439 0
M  V30 2228 C 226.24 -1.45453 1.29879 0
M  V30 2229 O 225.51 -1.91225 0.4254 0
M  V30 2230 H 224.09 -0.0633447 0.744309 0
M  V30 2231 H 226.752 0.548161 1.87033 0
M  V30 2232 H 225.848 -0.357817 3.10042 0
M  V30 2233 N 226.149 -1.5696 0.141893 0
M  V30 2234 C 227.56 -1.82797 -0.379776 0
M  V30 2235 C 227.911 -1.06033 -1.6508 0
M  V30 2236 O 227.036 -0.304011 -2.14254 0
M  V30 2237 C 227.631 -3.31578 -0.695802 0
M  V30 2238 C 226.19 -3.58014 -1.16201 0
M  V30 2239 C 225.337 -2.76699 -0.182455 0
M  V30 2240 H 228.288 -1.54406 0.366675 0
M  V30 2241 H 228.309 -3.47454 -1.55099 0
M  V30 2242 H 227.821 -3.87421 0.229449 0
M  V30 2243 H 225.922 -3.07553 -2.10338 0
M  V30 2244 H 226.035 -4.66501 -1.09151 0
M  V30 2245 H 224.399 -2.45618 -0.674072 0
M  V30 2246 H 225.182 -3.35311 0.736297 0
M  V30 2247 N 227.627 0.131896 -1.57047 0
M  V30 2248 C 228.575 1.18146 -2.0036 0
M  V30 2249 C 229.569 1.43614 -0.898406 0
M  V30 2250 O 230.775 1.43729 -1.08361 0
M  V30 2251 H 227.15 0.398042 -0.638018 0
M  V30 2252 H 229.121 0.789564 -2.87765 0
M  V30 2253 C 227.87 2.50341 -2.41298 0
M  V30 2254 H 227.193 2.31578 -3.25902 0
M  V30 2255 H 228.633 3.22371 -2.75414 0
M  V30 2256 C 227.092 3.11984 -1.27153 0
M  V30 2257 O 227.622 3.97484 -0.580459 0
M  V30 2258 N 225.828 2.71662 -1.03189 0
M  V30 2259 H 225.375 2.02231 -1.59564 0
M  V30 2260 H 225.333 3.13238 -0.270077 0
M  V30 2261 N 229.106 1.52395 0.401703 0
M  V30 2262 C 230.353 1.66817 1.14796 0
M  V30 2263 C 230.681 0.401772 1.90305 0
M  V30 2264 O 229.936 -0.615487 1.85769 0
M  V30 2265 C 230.235 2.84578 2.16217 0
M  V30 2266 C 229.901 4.22513 1.5746 0
M  V30 2267 C 228.563 4.60029 1.41161 0
M  V30 2268 C 230.915 5.0844 1.14622 0
M  V30 2269 C 228.243 5.81144 0.80552 0
M  V30 2270 C 230.595 6.30167 0.55428 0
M  V30 2271 C 229.259 6.66426 0.378482 0
M  V30 2272 H 228.529 0.610428 0.420069 0
M  V30 2273 H 231.176 1.86512 0.434212 0
M  V30 2274 H 229.481 2.59248 2.93764 0
M  V30 2275 H 231.178 2.92933 2.73845 0
M  V30 2276 H 227.768 3.92953 1.71132 0
M  V30 2277 H 231.952 4.80034 1.26021 0
M  V30 2278 H 227.208 6.07855 0.657399 0
M  V30 2279 H 231.382 6.96071 0.213983 0
M  V30 2280 H 229.009 7.60143 -0.0932606 0
M  V30 2281 N 230.584 -0.659388 1.43143 0
M  V30 2282 C 231.833 -1.41518 1.43721 0
M  V30 2283 C 232.146 -1.95499 0.0628176 0
M  V30 2284 O 233.352 -2.71446 -0.0539683 0
M  V30 2285 C 231.808 -2.5608 2.52885 0
M  V30 2286 C 231.416 -2.08733 3.96402 0
M  V30 2287 C 233.16 -3.3349 2.62649 0
M  V30 2288 C 231.067 -3.20469 4.97045 0
M  V30 2289 H 229.997 -0.531705 0.534608 0
M  V30 2290 H 232.648 -0.712343 1.69109 0
M  V30 2291 H 231.03 -3.28805 2.20688 0
M  V30 2292 H 232.204 -1.43059 4.3803 0
M  V30 2293 H 230.519 -1.44219 3.90627 0
M  V30 2294 H 233.116 -4.16734 3.35017 0
M  V30 2295 H 233.459 -3.8111 1.67513 0
M  V30 2296 H 233.992 -2.67842 2.94118 0
M  V30 2297 H 230.731 -2.77824 5.93712 0
M  V30 2298 H 230.251 -3.84874 4.60034 0
M  V30 2299 H 231.93 -3.85698 5.19467 0
M  V30 2300 N 232.062 -1.29571 -0.897171 0
M  V30 2301 C 232.992 -1.17473 -2.01798 0
M  V30 2302 C 233.973 -0.068323 -1.69963 0
M  V30 2303 O 235.158 -0.248239 -1.92607 0
M  V30 2304 C 232.288 -0.853099 -3.36659 0
M  V30 2305 C 231.242 -1.9161 -3.82713 0
M  V30 2306 C 230.568 -1.44773 -5.14728 0
M  V30 2307 C 231.868 -3.32535 -4.02763 0
M  V30 2308 H 233.562 -2.11237 -2.12177 0
M  V30 2309 H 231.108 -1.01699 -1.01948 0
M  V30 2310 H 233.061 -0.755165 -4.14578 0
M  V30 2311 H 231.785 0.120236 -3.26379 0
M  V30 2312 H 230.444 -2.00346 -3.07013 0
M  V30 2313 H 230.092 -0.462995 -5.00865 0
M  V30 2314 H 229.792 -2.15865 -5.46513 0
M  V30 2315 H 231.316 -1.36334 -5.95185 0
M  V30 2316 H 232.73 -3.26626 -4.71156 0
M  V30 2317 H 231.127 -4.01607 -4.45905 0
M  V30 2318 H 232.197 -3.75326 -3.07016 0
M  V30 2319 N 233.54 1.10788 -1.12088 0
M  V30 2320 C 234.472 2.16816 -0.743213 0
M  V30 2321 C 235.485 1.6119 0.228412 0
M  V30 2322 O 236.674 1.78497 0.0102931 0
M  V30 2323 C 233.774 3.38809 -0.0787313 0
M  V30 2324 C 232.947 4.23885 -1.0789 0
M  V30 2325 C 232.006 5.24334 -0.442713 0
M  V30 2326 O 231.032 5.58497 -1.09864 0
M  V30 2327 N 232.234 5.75079 0.791457 0
M  V30 2328 H 234.999 2.49825 -1.65552 0
M  V30 2329 H 232.56 1.26373 -1.012 0
M  V30 2330 H 234.552 4.03107 0.358766 0
M  V30 2331 H 233.122 3.03805 0.736275 0
M  V30 2332 H 232.342 3.55939 -1.69414 0
M  V30 2333 H 233.63 4.77562 -1.75533 0
M  V30 2334 H 233.028 5.49517 1.3434 0
M  V30 2335 H 231.585 6.4118 1.17183 0
M  V30 2336 N 235.018 0.912232 1.28515 0
M  V30 2337 C 236.264 0.545405 1.95328 0
M  V30 2338 C 236.597 -0.908313 1.71649 0
M  V30 2339 O 235.872 -1.64575 1.03659 0
M  V30 2340 C 236.155 0.853483 3.4984 0
M  V30 2341 C 236.008 2.35982 3.82926 0
M  V30 2342 C 237.327 0.348589 4.38717 0
M  V30 2343 H 234.446 0.199626 0.709449 0
M  V30 2344 H 237.088 1.1412 1.5191 0
M  V30 2345 H 235.238 0.34643 3.86952 0
M  V30 2346 H 236.91 2.93738 3.55691 0
M  V30 2347 H 235.153 2.81543 3.30024 0
M  V30 2348 H 235.824 2.52593 4.90816 0
M  V30 2349 H 238.3 0.78294 4.08668 0
M  V30 2350 H 237.176 0.593242 5.45685 0
M  V30 2351 H 237.437 -0.751049 4.35674 0
M  V30 2352 N 236.496 -1.42363 0.676048 0
M  V30 2353 C 237.726 -2.05561 0.206967 0
M  V30 2354 C 238.134 -1.50887 -1.14148 0
M  V30 2355 O 237.477 -0.643933 -1.72044 0
M  V30 2356 C 237.539 -3.5944 0.0659508 0
M  V30 2357 C 237.203 -4.36812 1.34331 0
M  V30 2358 C 238.2 -4.67383 2.27704 0
M  V30 2359 C 235.885 -4.76429 1.59125 0
M  V30 2360 C 237.879 -5.36509 3.44147 0
M  V30 2361 C 235.566 -5.45294 2.75857 0
M  V30 2362 C 236.564 -5.75259 3.68193 0
M  V30 2363 O 236.252 -6.42712 4.82883 0
M  V30 2364 H 235.984 -0.668872 0.0979084 0
M  V30 2365 H 238.538 -1.83467 0.923531 0
M  V30 2366 H 236.768 -3.80197 -0.706204 0
M  V30 2367 H 238.457 -4.0427 -0.363418 0
M  V30 2368 H 239.223 -4.37275 2.09799 0
M  V30 2369 H 235.102 -4.52498 0.881258 0
M  V30 2370 H 238.646 -5.59814 4.16238 0
M  V30 2371 H 234.543 -5.7482 2.93688 0
M  V30 2372 H 235.311 -6.61204 4.82444 0
M  V30 2373 N 237.974 -0.419461 -1.51915 0
M  V30 2374 C 239.199 0.154572 -2.06823 0
M  V30 2375 C 239.624 1.3722 -1.28656 0
M  V30 2376 O 238.982 1.78461 -0.319583 0
M  V30 2377 C 239.03 0.473172 -3.57482 0
M  V30 2378 O 238.134 1.56255 -3.81652 0
M  V30 2379 H 237.475 0.0096924 -0.663929 0
M  V30 2380 H 240.005 -0.595642 -1.95738 0
M  V30 2381 H 240.015 0.728825 -4.01438 0
M  V30 2382 H 238.69 -0.416873 -4.13805 0
M  V30 2383 H 237.267 1.29825 -3.49571 0
M  V30 2384 N 239.452 1.56882 -0.150215 0
M  V30 2385 C 240.677 2.01027 0.510184 0
M  V30 2386 C 241.102 1.02966 1.57415 0
M  V30 2387 O 240.46 0.00590158 1.81299 0
M  V30 2388 C 240.508 3.43899 1.08472 0
M  V30 2389 O 239.612 3.4885 2.19948 0
M  V30 2390 H 238.953 0.652233 0.124451 0
M  V30 2391 H 241.483 2.03093 -0.247894 0
M  V30 2392 H 241.493 3.82766 1.41259 0
M  V30 2393 H 240.168 4.14776 0.305582 0
M  V30 2394 H 238.745 3.21827 1.88366 0
M  V30 2395 N 240.93 -0.123565 1.57115 0
M  V30 2396 C 241.862 -1.17739 1.96648 0
M  V30 2397 C 242.875 -1.37906 0.865201 0
M  V30 2398 O 244.064 -1.37062 1.14351 0
M  V30 2399 C 241.164 -2.53821 2.24562 0
M  V30 2400 C 240.337 -2.54317 3.55867 0
M  V30 2401 C 239.396 -3.72112 3.72047 0
M  V30 2402 O 238.422 -3.55907 4.44206 0
M  V30 2403 N 239.624 -4.90498 3.10471 0
M  V30 2404 H 242.389 -0.841147 2.87654 0
M  V30 2405 H 239.95 -0.31289 1.58848 0
M  V30 2406 H 241.942 -3.31175 2.32606 0
M  V30 2407 H 240.512 -2.79645 1.39705 0
M  V30 2408 H 239.732 -1.62711 3.59053 0
M  V30 2409 H 241.02 -2.51701 4.42181 0
M  V30 2410 H 240.418 -5.06567 2.51806 0
M  V30 2411 H 238.975 -5.65544 3.24043 0
M  V30 2412 N 242.408 -1.52605 -0.393616 0
M  V30 2413 C 243.824 -1.41753 -0.733357 0
M  V30 2414 C 244.024 -0.534293 -1.94287 0
M  V30 2415 O 243.08 -0.0059787 -2.52499 0
M  V30 2416 C 244.393 -2.84531 -0.972772 0
M  V30 2417 C 245.941 -2.93978 -1.07453 0
M  V30 2418 C 246.416 -4.37756 -1.3466 0
M  V30 2419 N 247.907 -4.4106 -1.41492 0
M  V30 2420 C 248.642 -5.49387 -1.642 0
M  V30 2421 N 248.138 -6.67806 -1.8441 0
M  V30 2422 N 249.931 -5.36923 -1.66342 0
M  V30 2423 H 242.082 -2.08555 0.402328 0
M  V30 2424 H 244.345 -0.940654 0.117789 0
M  V30 2425 H 244.051 -3.51353 -0.156204 0
M  V30 2426 H 243.925 -3.26508 -1.88871 0
M  V30 2427 H 246.312 -2.27326 -1.88167 0
M  V30 2428 H 246.393 -2.55435 -0.136605 0
M  V30 2429 H 246.037 -5.04972 -0.544581 0
M  V30 2430 H 245.967 -4.73848 -2.2973 0
M  V30 2431 H 248.458 -3.55705 -1.27601 0
M  V30 2432 H 248.771 -7.46141 -2.01231 0
M  V30 2433 H 247.116 -6.70843 -1.81644 0
M  V30 2434 H 250.307 -4.43381 -1.50102 0
M  V30 2435 H 250.48 -6.21416 -1.837 0
M  V30 2436 N 243.887 0.651787 -1.4349 0
M  V30 2437 C 244.834 1.76462 -1.4876 0
M  V30 2438 C 245.804 1.62641 -0.337189 0
M  V30 2439 O 246.989 1.82864 -0.544544 0
M  V30 2440 C 244.129 3.14623 -1.41796 0
M  V30 2441 C 243.242 3.39568 -2.67053 0
M  V30 2442 C 242.377 4.67585 -2.52068 0
M  V30 2443 C 241.416 4.85639 -3.72587 0
M  V30 2444 N 240.553 6.04915 -3.56402 0
M  V30 2445 H 245.393 1.71293 -2.43849 0
M  V30 2446 H 242.93 0.835889 -1.21043 0
M  V30 2447 H 244.888 3.94496 -1.35753 0
M  V30 2448 H 243.518 3.18859 -0.50288 0
M  V30 2449 H 242.57 2.53783 -2.8337 0
M  V30 2450 H 243.882 3.48795 -3.56572 0
M  V30 2451 H 243.036 5.55586 -2.4374 0
M  V30 2452 H 241.775 4.60681 -1.60075 0
M  V30 2453 H 240.78 3.96073 -3.81321 0
M  V30 2454 H 242.005 4.94372 -4.65589 0
M  V30 2455 H 239.951 5.9914 -2.67146 0
M  V30 2456 H 239.868 6.15106 -4.39524 0
M  V30 2457 H 241.136 6.95533 -3.51929 0
M  V30 2458 N 245.365 1.30045 0.890287 0
M  V30 2459 C 246.59 1.21598 1.68014 0
M  V30 2460 C 247.015 -0.218678 1.86825 0
M  V30 2461 O 246.373 -1.15756 1.39536 0
M  V30 2462 C 246.421 1.94434 3.03691 0
M  V30 2463 O 245.525 1.2678 3.92429 0
M  V30 2464 H 244.866 0.420856 0.513592 0
M  V30 2465 H 247.396 1.71775 1.11151 0
M  V30 2466 H 247.406 2.03251 3.5377 0
M  V30 2467 H 246.081 2.98777 2.89318 0
M  V30 2468 H 244.658 1.26282 3.50866 0
M  V30 2469 N 246.843 -1.10192 1.12674 0
M  V30 2470 C 248.089 -1.82658 0.894847 0
M  V30 2471 C 248.444 -1.83666 -0.573107 0
M  V30 2472 O 247.737 -1.28816 -1.41835 0
M  V30 2473 C 247.931 -3.28552 1.4067 0
M  V30 2474 C 247.76 -3.41756 2.92289 0
M  V30 2475 C 246.53 -3.54021 3.60551 0
M  V30 2476 C 248.728 -3.34949 3.90274 0
M  V30 2477 N 246.71 -3.55827 5.0026 0
M  V30 2478 C 248.081 -3.43531 5.16127 0
M  V30 2479 C 250.136 -3.18565 3.8265 0
M  V30 2480 C 248.839 -3.37416 6.3525 0
M  V30 2481 C 250.865 -3.13772 5.01299 0
M  V30 2482 C 250.227 -3.22938 6.26012 0
M  V30 2483 H 246.326 -0.683044 0.380756 0
M  V30 2484 H 248.91 -1.31752 1.43351 0
M  V30 2485 H 247.081 -3.77946 0.895055 0
M  V30 2486 H 248.813 -3.88991 1.11661 0
M  V30 2487 H 245.568 -3.57135 3.1105 0
M  V30 2488 H 245.992 -3.60335 5.73138 0
M  V30 2489 H 250.634 -3.10354 2.87124 0
M  V30 2490 H 248.352 -3.44391 7.3104 0
M  V30 2491 H 251.938 -3.02242 4.97133 0
M  V30 2492 H 250.818 -3.19235 7.16281 0
M  V30 2493 N 248.321 -0.919034 -1.28029 0
M  V30 2494 C 249.271 -0.382574 -2.24767 0
M  V30 2495 C 250.255 0.508286 -1.52661 0
M  V30 2496 O 251.447 0.347145 -1.73562 0
M  V30 2497 C 248.576 0.371432 -3.41285 0
M  V30 2498 C 247.662 -0.535449 -4.20706 0
M  V30 2499 N 248.053 -1.65141 -4.78082 0
M  V30 2500 C 246.351 -0.336824 -4.44726 0
M  V30 2501 C 247.052 -2.21475 -5.37888 0
M  V30 2502 N 246.028 -1.50537 -5.22341 0
M  V30 2503 H 249.83 -1.23477 -2.66703 0
M  V30 2504 H 247.344 -0.772299 -1.42861 0
M  V30 2505 H 249.341 0.772638 -4.09678 0
M  V30 2506 H 248.001 1.22066 -3.00882 0
M  V30 2507 H 249.012 -2.03392 -4.7629 0
M  V30 2508 H 245.689 0.47246 -4.14818 0
M  V30 2509 H 247.079 -3.15379 -5.93284 0
M  V30 2510 N 249.799 1.42003 -0.683588 0
M  V30 2511 C 251.21 1.84501 -0.285736 0
M  V30 2512 C 251.561 1.57213 1.17382 0
M  V30 2513 O 250.686 1.03642 1.89966 0
M  V30 2514 C 251.281 3.34912 -0.511821 0
M  V30 2515 C 249.84 3.76025 -0.168005 0
M  V30 2516 C 248.987 2.6551 -0.799983 0
M  V30 2517 H 251.938 1.31724 -0.885119 0
M  V30 2518 H 251.959 3.79784 0.233292 0
M  V30 2519 H 251.471 3.54741 -1.57418 0
M  V30 2520 H 249.572 3.61801 0.890567 0
M  V30 2521 H 249.685 4.75141 -0.614661 0
M  V30 2522 H 248.049 2.53654 -0.230568 0
M  V30 2523 H 248.832 2.8816 -1.86597 0
M  V30 2524 N 251.277 0.427512 1.51691 0
M  V30 2525 C 252.523 -0.142439 2.02299 0
M  V30 2526 C 252.856 -1.43214 1.31162 0
M  V30 2527 O 252.131 -1.89833 0.423511 0
M  V30 2528 C 252.414 -0.371301 3.58181 0
M  V30 2529 C 252.267 0.936358 4.39946 0
M  V30 2530 C 253.586 -1.14542 4.24933 0
M  V30 2531 H 250.705 -0.0502937 0.735282 0
M  V30 2532 H 253.347 0.564584 1.81418 0
M  V30 2533 H 251.497 -0.973559 3.76104 0
M  V30 2534 H 253.169 1.57184 4.33694 0
M  V30 2535 H 251.412 1.5432 4.05423 0
M  V30 2536 H 252.083 0.730388 5.47147 0
M  V30 2537 H 254.559 -0.635362 4.11221 0
M  V30 2538 H 253.435 -1.27431 5.33903 0
M  V30 2539 H 253.696 -2.17093 3.85127 0
M  V30 2540 N 252.755 -1.56801 0.158532 0
M  V30 2541 C 253.995 -1.98383 -0.49229 0
M  V30 2542 C 254.359 -1.04184 -1.61275 0
M  V30 2543 O 255.56 -1.34856 -2.32524 0
M  V30 2544 C 253.831 -3.4385 -0.974766 0
M  V30 2545 S 255.39 -4.07459 -1.62857 0
M  V30 2546 H 252.208 -0.693041 -0.158794 0
M  V30 2547 H 254.81 -1.93856 0.252974 0
M  V30 2548 H 253.514 -4.10131 -0.148688 0
M  V30 2549 H 253.045 -3.52115 -1.75438 0
M  V30 2550 H 255.06 -4.01458 -2.91627 0
M  V30 2551 N 254.233 0.115231 -1.57178 0
M  V30 2552 C 255.165 1.16694 -1.97269 0
M  V30 2553 C 256.178 1.37445 -0.872502 0
M  V30 2554 O 257.367 1.36454 -1.15077 0
M  V30 2555 C 254.467 2.52627 -2.25905 0
M  V30 2556 C 253.64 2.52427 -3.57211 0
M  V30 2557 C 252.699 3.70134 -3.74016 0
M  V30 2558 O 251.725 3.53546 -4.46087 0
M  V30 2559 N 252.927 4.88844 -3.13068 0
M  V30 2560 H 255.692 0.82588 -2.88096 0
M  V30 2561 H 253.253 0.304461 -1.59011 0
M  V30 2562 H 255.245 3.29937 -2.34359 0
M  V30 2563 H 253.815 2.789 -1.41186 0
M  V30 2564 H 253.035 1.60805 -3.5991 0
M  V30 2565 H 254.323 2.49353 -4.43509 0
M  V30 2566 H 253.721 5.05225 -2.54489 0
M  V30 2567 H 252.278 5.63817 -3.27037 0
M  V30 2568 N 255.711 1.52812 0.385517 0
M  V30 2569 C 256.988 1.5861 1.14465 0
M  V30 2570 C 257.368 0.381402 2.07626 0
M  V30 2571 O 256.716 -0.629999 2.19643 0
M  V30 2572 C 256.926 2.92664 1.90128 0
M  V30 2573 C 258.274 3.46526 2.45367 0
M  V30 2574 O 259.298 2.94562 2.0028 0
M  V30 2575 O 258.157 4.37323 3.27736 0
M  V30 2576 H 255.251 0.639855 0.523941 0
M  V30 2577 H 257.797 1.65149 0.390389 0
M  V30 2578 H 256.569 3.71788 1.22022 0
M  V30 2579 H 256.192 2.89527 2.72507 0
M  V30 2580 N 257.189 -0.644168 1.43834 0
M  V30 2581 C 258.466 -1.40188 1.36406 0
M  V30 2582 C 258.846 -2.11094 0.0163124 0
M  V30 2583 O 258.194 -2.05426 -1.00062 0
M  V30 2584 C 258.404 -2.3791 2.55343 0
M  V30 2585 C 259.752 -3.01637 2.98832 0
M  V30 2586 O 260.776 -2.48237 2.55455 0
M  V30 2587 O 259.635 -3.98477 3.74003 0
M  V30 2588 H 256.729 -0.626773 0.539523 0
M  V30 2589 H 259.275 -0.670317 1.559 0
M  V30 2590 H 258.047 -1.84525 3.4506 0
M  V30 2591 H 257.67 -3.18503 2.37995 0
M  V30 2592 N 258.668 -1.30515 -0.883378 0
M  V30 2593 C 259.914 -1.20617 -1.63778 0
M  V30 2594 C 260.269 0.236469 -1.90941 0
M  V30 2595 O 259.562 1.16596 -1.52039 0
M  V30 2596 C 259.756 -1.96994 -2.98209 0
M  V30 2597 C 259.585 -3.48537 -2.84169 0
M  V30 2598 C 258.355 -4.17893 -2.84067 0
M  V30 2599 C 260.553 -4.43738 -2.60001 0
M  V30 2600 N 258.535 -5.55685 -2.60936 0
M  V30 2601 C 259.906 -5.69105 -2.46007 0
M  V30 2602 C 261.961 -4.33316 -2.45239 0
M  V30 2603 C 260.664 -6.8523 -2.18752 0
M  V30 2604 C 262.69 -5.4921 -2.19369 0
M  V30 2605 C 262.052 -6.73558 -2.06153 0
M  V30 2606 H 258.151 -0.496434 -0.604216 0
M  V30 2607 H 260.735 -1.64544 -1.04083 0
M  V30 2608 H 258.906 -1.55455 -3.55933 0
M  V30 2609 H 260.638 -1.79225 -3.62851 0
M  V30 2610 H 257.393 -3.69739 -2.95956 0
M  V30 2611 H 257.817 -6.28199 -2.52378 0
M  V30 2612 H 262.459 -3.37856 -2.54191 0
M  V30 2613 H 260.177 -7.80729 -2.08537 0
M  V30 2614 H 263.763 -5.43054 -2.08766 0
M  V30 2615 H 262.643 -7.61721 -1.86416 0
M  V30 2616 N 260.146 1.09593 -1.13257 0
M  V30 2617 C 261.094 2.18271 -0.803783 0
M  V30 2618 C 262.088 1.68054 0.213148 0
M  V30 2619 O 263.294 1.79862 0.0704699 0
M  V30 2620 H 259.669 0.711949 -0.242143 0
M  V30 2621 H 261.64 2.43235 -1.72856 0
M  V30 2622 C 260.389 3.46536 -0.28424 0
M  V30 2623 H 259.712 3.85545 -1.05807 0
M  V30 2624 H 261.152 4.23899 -0.0925945 0
M  V30 2625 C 259.611 3.22036 0.989684 0
M  V30 2626 O 260.141 3.44509 2.06584 0
M  V30 2627 N 258.347 2.7565 0.920086 0
M  V30 2628 H 257.894 2.57562 0.0442019 0
M  V30 2629 H 257.852 2.59635 1.77306 0
M  V30 2630 N 261.624 0.925811 1.2754 0
M  V30 2631 C 262.534 0.428993 2.30644 0
M  V30 2632 C 263.55 -0.489387 1.66976 0
M  V30 2633 O 264.726 -0.372653 1.97922 0
M  V30 2634 C 261.791 -0.311967 3.45294 0
M  V30 2635 C 260.852 0.641098 4.24486 0
M  V30 2636 C 260.085 -0.0645955 5.33661 0
M  V30 2637 O 260.308 -1.28429 5.55754 0
M  V30 2638 O 259.242 0.606265 5.98839 0
M  V30 2639 H 263.068 1.28504 2.75173 0
M  V30 2640 H 260.653 0.691086 1.32455 0
M  V30 2641 H 262.535 -0.729972 4.15029 0
M  V30 2642 H 261.21 -1.14365 3.02824 0
M  V30 2643 H 260.117 1.10874 3.57292 0
M  V30 2644 H 261.45 1.43995 4.70666 0
M  V30 2645 N 263.102 -1.41638 0.69111 0
M  V30 2646 C 264.05 -2.32597 0.0115199 0
M  V30 2647 C 265.044 -1.5072 -0.773296 0
M  V30 2648 O 266.25 -1.66685 -0.67942 0
M  V30 2649 H 262.625 -0.751849 -0.0150746 0
M  V30 2650 H 264.596 -2.87593 0.795791 0
M  V30 2651 C 263.345 -3.35467 -0.914172 0
M  V30 2652 H 262.668 -3.9852 -0.319687 0
M  V30 2653 H 264.108 -4.01662 -1.35808 0
M  V30 2654 C 262.567 -2.69004 -2.02826 0
M  V30 2655 O 263.097 -2.53444 -3.11655 0
M  V30 2656 N 261.303 -2.2777 -1.80469 0
M  V30 2657 H 260.85 -2.40626 -0.919615 0
M  V30 2658 H 260.808 -1.83635 -2.55197 0
M  V30 2659 N 264.58 -0.43555 -1.51462 0
M  V30 2660 C 265.81 0.130053 -2.0619 0
M  V30 2661 C 266.218 1.37164 -1.30317 0
M  V30 2662 O 265.561 1.80225 -0.355598 0
M  V30 2663 C 265.623 0.519418 -3.55728 0
M  V30 2664 C 265.287 -0.615119 -4.52841 0
M  V30 2665 C 266.284 -1.48671 -4.9819 0
M  V30 2666 C 263.969 -0.795341 -4.95963 0
M  V30 2667 C 265.963 -2.52324 -5.8533 0
M  V30 2668 C 263.65 -1.83514 -5.82894 0
M  V30 2669 C 264.648 -2.69748 -6.27475 0
M  V30 2670 O 264.336 -3.71944 -7.1268 0
M  V30 2671 H 264.068 0.0121612 -0.675891 0
M  V30 2672 H 266.622 -0.6129 -1.96043 0
M  V30 2673 H 264.852 1.31505 -3.63653 0
M  V30 2674 H 266.541 1.01597 -3.92979 0
M  V30 2675 H 267.307 -1.359 -4.65571 0
M  V30 2676 H 263.186 -0.133713 -4.60806 0
M  V30 2677 H 266.73 -3.19665 -6.20048 0
M  V30 2678 H 262.627 -1.96306 -6.14926 0
M  V30 2679 H 263.395 -3.68503 -7.30854 0
M  V30 2680 N 266.058 1.56714 -0.166846 0
M  V30 2681 C 267.306 1.96358 0.478305 0
M  V30 2682 C 267.627 1.0537 1.6408 0
M  V30 2683 O 266.897 0.119154 1.95537 0
M  V30 2684 H 265.477 0.725065 0.179692 0
M  V30 2685 H 268.139 1.93329 -0.246985 0
M  V30 2686 H 267.235 3.00547 0.841292 0
M  V30 2687 N 267.536 -0.106894 1.57237 0
M  V30 2688 C 268.952 -0.46078 1.52804 0
M  V30 2689 C 269.152 -1.81184 0.881746 0
M  V30 2690 O 268.208 -2.48102 0.469224 0
M  V30 2691 C 269.521 -0.434127 2.9755 0
M  V30 2692 C 271.069 -0.516821 3.08704 0
M  V30 2693 C 271.544 -0.520436 4.55033 0
M  V30 2694 N 273.035 -0.58153 4.59535 0
M  V30 2695 C 273.77 -0.605973 5.70189 0
M  V30 2696 N 273.266 -0.587331 6.90306 0
M  V30 2697 N 275.059 -0.649895 5.5833 0
M  V30 2698 H 267.21 0.778203 1.9763 0
M  V30 2699 H 269.473 0.288403 0.903066 0
M  V30 2700 H 269.179 0.491197 3.48253 0
M  V30 2701 H 269.053 -1.25748 3.55622 0
M  V30 2702 H 271.44 -1.43256 2.57995 0
M  V30 2703 H 271.521 0.334449 2.53604 0
M  V30 2704 H 271.165 0.391313 5.0639 0
M  V30 2705 H 271.095 -1.38876 5.07958 0
M  V30 2706 H 273.586 -0.60161 3.73081 0
M  V30 2707 H 273.899 -0.60894 7.70397 0
M  V30 2708 H 272.244 -0.554564 6.92784 0
M  V30 2709 H 275.435 -0.661907 4.63397 0
M  V30 2710 H 275.608 -0.665476 6.44574 0
M  V30 2711 N 269.014 -1.53014 -0.377408 0
M  V30 2712 C 269.977 -1.77957 -1.44444 0
M  V30 2713 C 270.977 -0.649763 -1.47087 0
M  V30 2714 O 272.167 -0.917897 -1.48055 0
M  V30 2715 C 269.299 -1.89089 -2.83651 0
M  V30 2716 H 270.492 -2.73243 -1.23606 0
M  V30 2717 H 268.045 -1.43912 -0.609844 0
M  V30 2718 H 268.78 -0.958293 -3.09818 0
M  V30 2719 H 268.565 -2.71254 -2.83132 0
M  V30 2720 H 270.055 -2.1002 -3.60945 0
M  V30 2721 N 270.492 0.636531 -1.44174 0
M  V30 2722 C 271.455 1.73063 -1.50273 0
M  V30 2723 C 272.455 1.56113 -0.385397 0
M  V30 2724 O 273.645 1.61707 -0.64781 0
M  V30 2725 C 270.777 3.12096 -1.37145 0
M  V30 2726 H 271.97 1.69031 -2.47727 0
M  V30 2727 H 269.523 0.849706 -1.31186 0
M  V30 2728 H 270.258 3.21728 -0.407636 0
M  V30 2729 H 270.043 3.25805 -2.18159 0
M  V30 2730 H 271.533 3.91846 -1.44382 0
M  V30 2731 N 271.97 1.30982 0.876444 0
M  V30 2732 C 273.21 1.21589 1.64303 0
M  V30 2733 C 273.574 -0.223962 1.90689 0
M  V30 2734 O 274.775 -0.44128 2.65153 0
M  V30 2735 C 273.046 2.03007 2.94148 0
M  V30 2736 S 274.605 2.10405 3.85065 0
M  V30 2737 H 271.423 0.433161 0.563819 0
M  V30 2738 H 274.025 1.65565 1.03964 0
M  V30 2739 H 272.729 3.06719 2.72675 0
M  V30 2740 H 272.26 1.59725 3.59515 0
M  V30 2741 H 274.275 1.23765 4.80517 0
M  V30 2742 N 273.449 -1.08991 1.13837 0
M  V30 2743 C 274.865 -1.33312 0.877506 0
M  V30 2744 C 275.065 -1.95587 -0.48456 0
M  V30 2745 O 274.121 -2.20509 -1.23013 0
M  V30 2746 C 275.434 -2.24045 2.0056 0
M  V30 2747 C 276.982 -2.37542 2.03821 0
M  V30 2748 C 277.457 -3.31614 3.15905 0
M  V30 2749 N 278.948 -3.39189 3.15445 0
M  V30 2750 C 279.683 -4.11992 3.98811 0
M  V30 2751 N 279.179 -4.87553 4.92203 0
M  V30 2752 N 280.972 -4.07762 3.86894 0
M  V30 2753 H 273.123 -0.669456 2.01574 0
M  V30 2754 H 275.386 -0.357482 0.878015 0
M  V30 2755 H 275.092 -1.85521 2.98789 0
M  V30 2756 H 274.966 -3.24466 1.92359 0
M  V30 2757 H 277.353 -2.75327 1.06202 0
M  V30 2758 H 277.434 -1.36884 2.16093 0
M  V30 2759 H 277.078 -2.94551 4.13766 0
M  V30 2760 H 277.008 -4.32186 3.0087 0
M  V30 2761 H 279.499 -2.85314 2.47799 0
M  V30 2762 H 279.812 -5.40549 5.52292 0
M  V30 2763 H 278.157 -4.86627 4.96205 0
M  V30 2764 H 281.348 -3.47833 3.13257 0
M  V30 2765 H 281.521 -4.64238 4.52092 0
M  V30 2766 N 274.927 -0.932562 -1.27047 0
M  V30 2767 C 276.204 -0.49377 -1.89265 0
M  V30 2768 C 276.584 1.02833 -1.8436 0
M  V30 2769 O 275.932 1.88461 -1.29209 0
M  V30 2770 C 276.142 -1.04536 -3.32976 0
M  V30 2771 C 277.49 -1.10879 -4.09867 0
M  V30 2772 O 278.514 -0.995327 -3.42011 0
M  V30 2773 O 277.373 -1.28417 -5.31198 0
M  V30 2774 H 274.467 -0.159596 -0.811454 0
M  V30 2775 H 277.013 -1.02457 -1.3528 0
M  V30 2776 H 275.785 -2.08913 -3.30864 0
M  V30 2777 H 275.408 -0.496494 -3.94488 0
M  V30 2778 N 276.405 1.4127 -0.698611 0
M  V30 2779 C 277.338 2.28195 0.0153898 0
M  V30 2780 C 278.316 1.42402 0.784883 0
M  V30 2781 O 279.5 1.71828 0.775067 0
M  V30 2782 C 276.627 3.22685 1.02918 0
M  V30 2783 C 275.673 4.25041 0.352501 0
M  V30 2784 S 276.506 5.27757 -0.907322 0
M  V30 2785 C 277.662 6.25812 0.104796 0
M  V30 2786 H 277.895 2.88403 -0.721858 0
M  V30 2787 H 275.428 1.46452 -0.488996 0
M  V30 2788 H 277.386 3.77655 1.60893 0
M  V30 2789 H 276.047 2.61566 1.73902 0
M  V30 2790 H 275.24 4.91437 1.11828 0
M  V30 2791 H 274.842 3.73682 -0.154254 0
M  V30 2792 H 277.134 6.70705 0.957103 0
M  V30 2793 H 278.077 7.06149 -0.525323 0
M  V30 2794 H 278.485 5.62615 0.460931 0
M  V30 2795 N 277.883 0.443576 1.51229 0
M  V30 2796 C 279.131 -0.120557 2.0174 0
M  V30 2797 C 279.452 -1.42665 1.32935 0
M  V30 2798 O 278.722 -1.9028 0.465866 0
M  V30 2799 H 277.302 -0.0475426 0.745486 0
M  V30 2800 H 279.964 0.587711 1.85828 0
M  V30 2801 H 279.06 -0.291972 3.10731 0
M  V30 2802 N 279.361 -1.56624 0.175154 0
M  V30 2803 C 280.591 -2.01082 -0.474283 0
M  V30 2804 C 280.999 -1.05447 -1.57091 0
M  V30 2805 O 280.342 -0.0480595 -1.83637 0
M  V30 2806 C 280.404 -3.41963 -1.10911 0
M  V30 2807 C 280.068 -4.56742 -0.153666 0
M  V30 2808 C 281.065 -5.16076 0.629448 0
M  V30 2809 C 278.75 -5.02277 -0.0483776 0
M  V30 2810 C 280.744 -6.19377 1.50501 0
M  V30 2811 C 278.431 -6.05427 0.830768 0
M  V30 2812 C 279.429 -6.63849 1.60605 0
M  V30 2813 O 279.117 -7.64998 2.47049 0
M  V30 2814 H 278.849 -0.664261 -0.125432 0
M  V30 2815 H 281.403 -2.03549 0.275163 0
M  V30 2816 H 279.633 -3.36422 -1.90676 0
M  V30 2817 H 281.322 -3.70352 -1.66114 0
M  V30 2818 H 282.088 -4.81776 0.558297 0
M  V30 2819 H 277.967 -4.56513 -0.641611 0
M  V30 2820 H 281.511 -6.64906 2.1106 0
M  V30 2821 H 277.408 -6.39151 0.903107 0
M  V30 2822 H 278.176 -7.82336 2.40607 0
M  V30 2823 N 280.839 0.0985539 -1.57292 0
M  V30 2824 C 281.786 1.11981 -2.01814 0
M  V30 2825 C 282.756 1.39999 -0.89384 0
M  V30 2826 O 283.941 1.5152 -1.15958 0
M  V30 2827 C 281.081 2.43577 -2.44467 0
M  V30 2828 C 280.194 2.2232 -3.70402 0
M  V30 2829 C 279.329 3.4729 -4.01949 0
M  V30 2830 C 278.368 3.2128 -5.21005 0
M  V30 2831 N 277.505 4.38507 -5.48321 0
M  V30 2832 H 282.345 0.733149 -2.88841 0
M  V30 2833 H 279.882 0.350482 -1.42864 0
M  V30 2834 H 281.84 3.20373 -2.6724 0
M  V30 2835 H 280.47 2.80097 -1.60455 0
M  V30 2836 H 279.522 1.36343 -3.55126 0
M  V30 2837 H 280.834 1.99089 -4.57345 0
M  V30 2838 H 279.988 4.32495 -4.25479 0
M  V30 2839 H 278.727 3.73572 -3.13521 0
M  V30 2840 H 277.732 2.34468 -4.97298 0
M  V30 2841 H 278.957 2.96348 -6.11028 0
M  V30 2842 H 276.903 4.64871 -4.62851 0
M  V30 2843 H 276.82 4.18455 -6.29628 0
M  V30 2844 H 278.088 5.24787 -5.76385 0
M  V30 2845 N 282.317 1.53212 0.369288 0
M  V30 2846 C 283.265 1.80054 1.47253 0
M  V30 2847 C 284.259 0.669456 1.55611 0
M  V30 2848 O 285.465 0.852328 1.58541 0
M  V30 2849 H 281.84 0.570034 0.490475 0
M  V30 2850 H 283.811 2.72403 1.21817 0
M  V30 2851 C 282.56 2.00403 2.84137 0
M  V30 2852 H 281.883 2.86876 2.78464 0
M  V30 2853 H 283.323 2.23164 3.60519 0
M  V30 2854 C 281.782 0.782081 3.27697 0
M  V30 2855 O 282.312 -0.0310205 4.01688 0
M  V30 2856 N 280.518 0.606573 2.84199 0
M  V30 2857 H 280.065 1.26939 2.24152 0
M  V30 2858 H 280.023 -0.20962 3.137 0
M  V30 2859 N 283.795 -0.628877 1.44509 0
M  V30 2860 C 284.743 -1.76193 1.51852 0
M  V30 2861 C 285.737 -1.64849 0.390042 0
M  V30 2862 O 286.943 -1.709 0.565082 0
M  V30 2863 H 283.318 -0.581728 0.476547 0
M  V30 2864 H 285.289 -1.67123 2.47209 0
M  V30 2865 C 284.038 -3.14533 1.48204 0
M  V30 2866 H 283.361 -3.23911 2.34354 0
M  V30 2867 H 284.801 -3.93701 1.57402 0
M  V30 2868 C 283.26 -3.36287 0.203142 0
M  V30 2869 O 283.79 -3.9509 -0.725745 0
M  V30 2870 N 281.996 -2.90408 0.105563 0
M  V30 2871 H 281.543 -2.42739 0.862301 0
M  V30 2872 H 281.501 -3.05339 -0.749371 0
M  V30 2873 N 285.273 -1.31445 -0.869486 0
M  V30 2874 C 286.52 -1.21158 -1.62256 0
M  V30 2875 C 286.848 0.230155 -1.93133 0
M  V30 2876 O 286.103 1.17906 -1.56194 0
M  V30 2877 C 286.402 -2.00145 -2.96102 0
M  V30 2878 C 286.068 -3.4964 -2.84715 0
M  V30 2879 C 284.73 -3.90403 -2.81317 0
M  V30 2880 C 287.082 -4.44769 -2.71716 0
M  V30 2881 C 284.41 -5.24561 -2.62778 0
M  V30 2882 C 286.762 -5.79054 -2.54714 0
M  V30 2883 C 285.426 -6.19037 -2.49699 0
M  V30 2884 H 284.696 -0.443348 -0.593737 0
M  V30 2885 H 287.343 -1.62715 -1.00976 0
M  V30 2886 H 285.648 -1.5127 -3.6142 0
M  V30 2887 H 287.345 -1.89566 -3.53363 0
M  V30 2888 H 283.935 -3.17256 -2.88178 0
M  V30 2889 H 288.119 -4.14208 -2.73397 0
M  V30 2890 H 283.375 -5.54613 -2.57321 0
M  V30 2891 H 287.549 -6.52393 -2.43632 0
M  V30 2892 H 285.176 -7.22935 -2.35093 0
M  V30 2893 N 286.751 1.08385 -1.14413 0
M  V30 2894 C 287.981 1.8425 -0.934644 0
M  V30 2895 C 288.389 1.81907 0.520234 0
M  V30 2896 O 287.732 1.22126 1.37226 0
M  V30 2897 C 287.794 3.32853 -1.35828 0
M  V30 2898 C 287.458 3.5893 -2.82875 0
M  V30 2899 C 288.455 3.53756 -3.80989 0
M  V30 2900 C 286.14 3.86934 -3.20293 0
M  V30 2901 C 288.134 3.76216 -5.14529 0
M  V30 2902 C 285.821 4.09047 -4.54008 0
M  V30 2903 C 286.819 4.03682 -5.50936 0
M  V30 2904 O 286.507 4.25214 -6.82238 0
M  V30 2905 H 286.239 0.588502 -0.332628 0
M  V30 2906 H 288.793 1.37792 -1.52324 0
M  V30 2907 H 287.023 3.8007 -0.713019 0
M  V30 2908 H 288.712 3.90154 -1.11957 0
M  V30 2909 H 289.478 3.32135 -3.53428 0
M  V30 2910 H 285.357 3.9023 -2.45442 0
M  V30 2911 H 288.901 3.71943 -5.90173 0
M  V30 2912 H 284.798 4.30151 -4.8129 0
M  V30 2913 H 285.566 4.42619 -6.88499 0
M  V30 2914 N 288.23 0.939286 1.26551 0
M  V30 2915 C 289.455 0.602008 1.98471 0
M  V30 2916 C 289.88 -0.815624 1.69497 0
M  V30 2917 O 289.238 -1.54912 0.941905 0
M  V30 2918 C 289.286 0.848407 3.50477 0
M  V30 2919 O 288.39 -0.0804009 4.12322 0
M  V30 2920 H 287.731 0.23049 0.622712 0
M  V30 2921 H 290.261 1.2617 1.61066 0
M  V30 2922 H 290.271 0.768553 4.00696 0
M  V30 2923 H 288.946 1.88171 3.70897 0
M  V30 2924 H 287.523 0.0503508 3.72866 0
M  V30 2925 N 289.708 -1.40897 0.706093 0
M  V30 2926 C 290.933 -2.05895 0.249435 0
M  V30 2927 C 291.358 -1.52823 -1.09666 0
M  V30 2928 O 290.716 -0.659589 -1.68876 0
M  V30 2929 C 290.764 -3.59872 0.22904 0
M  V30 2930 O 289.868 -4.04708 -0.792784 0
M  V30 2931 H 289.209 -0.653206 0.119241 0
M  V30 2932 H 291.739 -1.80471 0.96391 0
M  V30 2933 H 291.749 -4.07951 0.0634791 0
M  V30 2934 H 290.424 -3.97866 1.21141 0
M  V30 2935 H 289.001 -3.68111 -0.59572 0
M  V30 2936 N 291.186 -0.45159 -1.50991 0
M  V30 2937 C 292.118 0.388634 -2.25881 0
M  V30 2938 C 293.131 0.974041 -1.30446 0
M  V30 2939 O 294.32 0.865758 -1.56099 0
M  V30 2940 C 291.42 1.5571 -3.01011 0
M  V30 2941 C 290.593 1.08801 -4.23652 0
M  V30 2942 C 289.652 2.12825 -4.8124 0
M  V30 2943 O 288.678 1.71678 -5.42693 0
M  V30 2944 N 289.88 3.45453 -4.66522 0
M  V30 2945 H 292.645 -0.25329 -2.98628 0
M  V30 2946 H 290.206 -0.281268 -1.59438 0
M  V30 2947 H 292.198 2.24952 -3.3642 0
M  V30 2948 H 290.768 2.10409 -2.31186 0
M  V30 2949 H 289.988 0.22215 -3.93574 0
M  V30 2950 H 291.276 0.752213 -5.03209 0
M  V30 2951 H 290.674 3.81605 -4.17605 0
M  V30 2952 H 289.231 4.10549 -5.06254 0
M  V30 2953 N 292.664 1.56529 -0.183458 0
M  V30 2954 C 293.912 1.96855 0.457452 0
M  V30 2955 C 294.233 1.07104 1.62953 0
M  V30 2956 O 293.503 0.139887 1.954 0
M  V30 2957 H 292.083 0.72693 0.171992 0
M  V30 2958 H 294.745 1.93056 -0.267476 0
M  V30 2959 H 293.841 3.01423 0.809368 0
M  V30 2960 N 294.142 -0.090211 1.57342 0
M  V30 2961 C 295.391 -0.791531 1.8552 0
M  V30 2962 C 295.704 -1.79659 0.773441 0
M  V30 2963 O 296.91 -2.54616 0.942497 0
M  V30 2964 C 295.366 -1.45856 3.2902 0
M  V30 2965 C 294.974 -0.493017 4.45279 0
M  V30 2966 C 296.718 -2.14332 3.66418 0
M  V30 2967 C 294.625 -1.16491 5.79814 0
M  V30 2968 H 293.555 -0.299356 0.692027 0
M  V30 2969 H 296.206 -0.0445343 1.83446 0
M  V30 2970 H 294.588 -2.25318 3.2565 0
M  V30 2971 H 295.762 0.270464 4.60006 0
M  V30 2972 H 294.077 0.0863061 4.16311 0
M  V30 2973 H 296.674 -2.65344 4.64216 0
M  V30 2974 H 297.017 -2.93447 2.95287 0
M  V30 2975 H 297.55 -1.41724 3.71698 0
M  V30 2976 H 294.289 -0.41447 6.54188 0
M  V30 2977 H 293.809 -1.8997 5.68921 0
M  V30 2978 H 295.488 -1.69001 6.24538 0
M  V30 2979 N 295.62 -1.53406 -0.361157 0
M  V30 2980 C 296.866 -1.70054 -1.10496 0
M  V30 2981 C 297.199 -0.453278 -1.88836 0
M  V30 2982 O 296.474 0.5495 -1.86576 0
M  V30 2983 C 296.757 -2.95317 -2.06058 0
M  V30 2984 C 296.61 -4.3021 -1.31298 0
M  V30 2985 C 297.929 -3.16193 -3.06121 0
M  V30 2986 H 295.048 -0.618799 -0.400321 0
M  V30 2987 H 297.69 -1.86052 -0.385318 0
M  V30 2988 H 295.84 -2.81809 -2.67425 0
M  V30 2989 H 297.512 -4.55538 -0.726807 0
M  V30 2990 H 295.755 -4.29421 -0.614853 0
M  V30 2991 H 296.426 -5.14 -2.01265 0
M  V30 2992 H 298.902 -3.28916 -2.5486 0
M  V30 2993 H 297.778 -4.05266 -3.70204 0
M  V30 2994 H 298.039 -2.31676 -3.76535 0
M  V30 2995 N 297.098 0.621204 -1.44841 0
M  V30 2996 C 298.375 1.38 -1.38619 0
M  V30 2997 C 298.755 2.11041 -0.0498935 0
M  V30 2998 O 298.103 2.06992 0.967816 0
M  V30 2999 C 298.313 2.33817 -2.59096 0
M  V30 3000 C 299.661 2.96844 -3.03593 0
M  V30 3001 O 300.685 2.44141 -2.59371 0
M  V30 3002 O 299.544 3.92476 -3.80296 0
M  V30 3003 H 296.638 0.61811 -0.549426 0
M  V30 3004 H 299.184 0.645429 -1.56947 0
M  V30 3005 H 297.956 1.79012 -3.47952 0
M  V30 3006 H 297.579 3.14676 -2.43032 0
M  V30 3007 N 298.576 1.31904 0.862503 0
M  V30 3008 C 299.853 1.12644 1.59908 0
M  V30 3009 C 300.233 -0.316104 2.0872 0
M  V30 3010 O 299.581 -1.31145 1.87118 0
M  V30 3011 C 299.791 2.1472 2.7513 0
M  V30 3012 C 301.139 2.47637 3.44907 0
M  V30 3013 O 302.163 2.13205 2.85346 0
M  V30 3014 O 301.022 3.06632 4.52371 0
M  V30 3015 H 298.116 0.43416 0.703871 0
M  V30 3016 H 300.662 1.43408 0.907314 0
M  V30 3017 H 299.434 3.1172 2.3653 0
M  V30 3018 H 299.057 1.84905 3.51989 0
M  V30 3019 N 300.054 -1.07777 1.14986 0
M  V30 3020 C 301.279 -1.84558 0.946213 0
M  V30 3021 C 301.704 -1.81323 -0.500362 0
M  V30 3022 O 301.062 -1.20301 -1.35637 0
M  V30 3023 C 301.11 -3.29736 1.45968 0
M  V30 3024 O 300.214 -4.07149 0.65601 0
M  V30 3025 H 299.555 -0.571641 0.33782 0
M  V30 3026 H 302.085 -1.35991 1.52865 0
M  V30 3027 H 302.095 -3.80574 1.47063 0
M  V30 3028 H 300.77 -3.31406 2.51283 0
M  V30 3029 H 299.347 -3.65994 0.714322 0
M  V30 3030 N 301.532 -0.945985 -1.26051 0
M  V30 3031 C 302.78 -0.594941 -1.93145 0
M  V30 3032 C 303.101 0.86953 -1.7454 0
M  V30 3033 O 302.371 1.61838 -1.10387 0
M  V30 3034 H 300.951 -0.217044 -0.714773 0
M  V30 3035 H 303.613 -1.20235 -1.53393 0
M  V30 3036 H 302.709 -0.816835 -3.01221 0
M  V30 3037 N 303.011 1.40521 -0.713556 0
M  V30 3038 C 304.236 2.05759 -0.26035 0
M  V30 3039 C 304.661 1.53403 1.08854 0
M  V30 3040 O 304.019 0.668535 1.68524 0
M  V30 3041 C 304.067 3.59745 -0.248122 0
M  V30 3042 O 303.171 4.05123 0.77131 0
M  V30 3043 H 302.512 0.652564 -0.122703 0
M  V30 3044 H 305.042 1.79958 -0.973467 0
M  V30 3045 H 305.052 4.07911 -0.0851129 0
M  V30 3046 H 303.727 3.97218 -1.2325 0
M  V30 3047 H 302.304 3.68422 0.57619 0
M  V30 3048 N 304.489 0.459591 1.5075 0
M  V30 3049 C 305.717 -0.0973749 2.06671 0
M  V30 3050 C 306.132 -1.34524 1.32472 0
M  V30 3051 O 305.489 -1.7827 0.390634 0
M  V30 3052 C 305.54 -0.39714 3.59312 0
M  V30 3053 O 305.261 0.801214 4.30711 0
M  V30 3054 C 306.762 -1.00234 4.31819 0
M  V30 3055 H 303.982 0.00195854 0.670997 0
M  V30 3056 H 306.526 0.645072 1.94059 0
M  V30 3057 H 304.681 -1.08951 3.71764 0
M  V30 3058 H 305.095 0.538857 5.21725 0
M  V30 3059 H 306.569 -1.16193 5.39632 0
M  V30 3060 H 307.046 -1.98939 3.91561 0
M  V30 3061 H 307.652 -0.348699 4.23868 0
M  V30 3062 N 305.967 -1.56429 0.191757 0
M  V30 3063 C 307.192 -2.02309 -0.456706 0
M  V30 3064 C 307.617 -1.07103 -1.5463 0
M  V30 3065 O 306.975 -0.0539677 -1.8122 0
M  V30 3066 C 307.023 -3.46654 -0.993159 0
M  V30 3067 O 306.127 -3.54559 -2.10622 0
M  V30 3068 H 305.468 -0.655303 -0.107114 0
M  V30 3069 H 307.998 -2.02364 0.301653 0
M  V30 3070 H 308.008 -3.86377 -1.31061 0
M  V30 3071 H 306.683 -4.1544 -0.195504 0
M  V30 3072 H 305.26 -3.26708 -1.79767 0
M  V30 3073 N 307.445 0.0818655 -1.57387 0
M  V30 3074 C 308.692 0.782914 -1.86753 0
M  V30 3075 C 309.02 1.78082 -0.782118 0
M  V30 3076 O 308.275 1.94426 0.22295 0
M  V30 3077 C 308.574 1.53513 -3.22752 0
M  V30 3078 C 308.24 0.678134 -4.45771 0
M  V30 3079 C 306.902 0.441929 -4.79166 0
M  V30 3080 C 309.254 0.0832243 -5.21134 0
M  V30 3081 C 306.582 -0.398833 -5.85343 0
M  V30 3082 C 308.934 -0.744935 -6.28199 0
M  V30 3083 C 307.598 -0.991107 -6.60101 0
M  V30 3084 H 306.868 0.286489 -0.683378 0
M  V30 3085 H 309.515 0.0439808 -1.91449 0
M  V30 3086 H 307.82 2.34599 -3.138 0
M  V30 3087 H 309.517 2.08218 -3.42705 0
M  V30 3088 H 306.107 0.872357 -4.19628 0
M  V30 3089 H 310.291 0.252847 -4.95655 0
M  V30 3090 H 305.547 -0.598405 -6.08465 0
M  V30 3091 H 309.721 -1.21271 -6.8576 0
M  V30 3092 H 307.348 -1.64437 -7.42202 0
M  V30 3093 N 308.923 1.53595 0.353017 0
M  V30 3094 C 309.856 1.7572 1.45594 0
M  V30 3095 C 310.834 0.605961 1.50887 0
M  V30 3096 O 312.018 0.840023 1.68748 0
M  V30 3097 C 309.145 1.84732 2.83887 0
M  V30 3098 C 308.191 3.06808 2.96262 0
M  V30 3099 S 309.024 4.66065 2.63711 0
M  V30 3100 C 310.18 4.77943 4.04131 0
M  V30 3101 H 310.413 2.68994 1.26608 0
M  V30 3102 H 307.946 1.44343 0.548117 0
M  V30 3103 H 309.904 1.9061 3.63563 0
M  V30 3104 H 308.565 0.92488 3.00175 0
M  V30 3105 H 307.758 3.09761 3.97573 0
M  V30 3106 H 307.36 2.99108 2.24523 0
M  V30 3107 H 309.652 4.5877 4.98534 0
M  V30 3108 H 310.595 5.80022 4.06177 0
M  V30 3109 H 311.003 4.06472 3.91715 0
M  V30 3110 N 310.401 -0.613514 1.45168 0
M  V30 3111 C 311.348 -1.72456 1.53387 0
M  V30 3112 C 312.318 -1.6169 0.380191 0
M  V30 3113 O 313.503 -1.81356 0.592836 0
M  V30 3114 C 310.643 -3.10753 1.50088 0
M  V30 3115 C 309.756 -3.32368 2.75963 0
M  V30 3116 C 308.891 -4.60737 2.64376 0
M  V30 3117 C 307.93 -4.7559 3.85332 0
M  V30 3118 N 307.067 -5.95253 3.72315 0
M  V30 3119 H 311.907 -1.64768 2.48305 0
M  V30 3120 H 309.444 -0.803503 1.23216 0
M  V30 3121 H 311.402 -3.90758 1.46164 0
M  V30 3122 H 310.032 -3.17413 0.587243 0
M  V30 3123 H 309.084 -2.4618 2.89999 0
M  V30 3124 H 310.396 -3.39218 3.65695 0
M  V30 3125 H 309.55 -5.48928 2.58385 0
M  V30 3126 H 308.289 -4.56275 1.72233 0
M  V30 3127 H 307.294 -3.85824 3.91688 0
M  V30 3128 H 308.519 -4.81854 4.78533 0
M  V30 3129 H 306.465 -5.91847 2.82937 0
M  V30 3130 H 306.382 -6.03236 4.55677 0
M  V30 3131 H 307.65 -6.85958 3.70246 0
M  V30 3132 N 311.879 -1.3236 -0.855495 0
M  V30 3133 C 312.809 -1.23833 -1.97958 0
M  V30 3134 C 313.79 -0.122361 -1.69659 0
M  V30 3135 O 314.975 -0.30939 -1.9172 0
M  V30 3136 C 312.105 -0.959772 -3.33775 0
M  V30 3137 C 311.059 -2.03689 -3.76424 0
M  V30 3138 C 310.385 -1.61075 -5.09862 0
M  V30 3139 C 311.685 -3.4518 -3.9198 0
M  V30 3140 H 313.379 -2.1788 -2.0535 0
M  V30 3141 H 310.925 -1.04891 -0.986605 0
M  V30 3142 H 312.878 -0.886678 -4.11966 0
M  V30 3143 H 311.602 0.0163404 -3.26596 0
M  V30 3144 H 310.261 -2.10012 -3.00484 0
M  V30 3145 H 309.909 -0.622107 -4.99138 0
M  V30 3146 H 309.609 -2.33143 -5.39368 0
M  V30 3147 H 311.133 -1.55201 -5.90546 0
M  V30 3148 H 312.547 -3.4145 -4.60526 0
M  V30 3149 H 310.944 -4.1559 -4.32903 0
M  V30 3150 H 312.014 -3.84903 -2.94919 0
M  V30 3151 N 313.357 1.07166 -1.15556 0
M  V30 3152 C 314.305 2.16517 -0.8499 0
M  V30 3153 C 315.299 1.68468 0.177454 0
M  V30 3154 O 316.505 1.79971 0.0323026 0
M  V30 3155 H 312.88 0.706652 -0.25719 0
M  V30 3156 H 314.851 2.39514 -1.77976 0
M  V30 3157 C 313.6 3.45855 -0.357682 0
M  V30 3158 H 312.923 3.83214 -1.13961 0
M  V30 3159 H 314.363 4.23607 -0.182489 0
M  V30 3160 C 312.822 3.24062 0.921152 0
M  V30 3161 O 313.352 3.48813 1.9923 0
M  V30 3162 N 311.558 2.77539 0.86141 0
M  V30 3163 H 311.105 2.57598 -0.0104408 0
M  V30 3164 H 311.063 2.63337 1.71758 0
M  V30 3165 N 314.835 0.952656 1.25548 0
M  V30 3166 C 316.063 0.623496 1.97282 0
M  V30 3167 C 316.478 -0.803987 1.70826 0
M  V30 3168 O 315.835 -1.53755 0.983147 0
M  V30 3169 C 315.886 0.870209 3.5087 0
M  V30 3170 O 315.607 2.24156 3.76412 0
M  V30 3171 C 317.108 0.553164 4.39835 0
M  V30 3172 H 314.328 0.233931 0.628902 0
M  V30 3173 H 316.872 1.27649 1.59768 0
M  V30 3174 H 315.027 0.263652 3.86502 0
M  V30 3175 H 315.441 2.31021 4.70882 0
M  V30 3176 H 316.915 0.776342 5.46513 0
M  V30 3177 H 317.392 -0.512215 4.36203 0
M  V30 3178 H 317.998 1.13896 4.09766 0
M  V30 3179 N 316.313 -1.40141 0.720998 0
M  V30 3180 C 317.538 -2.05618 0.271258 0
M  V30 3181 C 317.963 -1.53978 -1.08039 0
M  V30 3182 O 317.321 -0.677463 -1.68167 0
M  V30 3183 C 317.369 -3.59609 0.267197 0
M  V30 3184 O 316.473 -4.05526 -0.749814 0
M  V30 3185 H 315.814 -0.651904 0.126162 0
M  V30 3186 H 318.344 -1.79439 0.982997 0
M  V30 3187 H 318.354 -4.0786 0.106744 0
M  V30 3188 H 317.029 -3.96559 1.25354 0
M  V30 3189 H 315.606 -3.68722 -0.556644 0
M  V30 3190 N 317.792 -0.46758 -1.50504 0
M  V30 3191 C 318.755 0.317059 -2.26996 0
M  V30 3192 C 319.755 0.923513 -1.31635 0
M  V30 3193 O 320.945 0.793239 -1.55091 0
M  V30 3194 C 318.077 1.45134 -3.08462 0
M  V30 3195 H 319.27 -0.353723 -2.97807 0
M  V30 3196 H 316.823 -0.221545 -1.54722 0
M  V30 3197 H 317.558 2.15728 -2.4214 0
M  V30 3198 H 317.343 1.02232 -3.78538 0
M  V30 3199 H 318.833 2.00493 -3.66323 0
M  V30 3200 N 319.27 1.56325 -0.20005 0
M  V30 3201 C 320.518 1.97329 0.436547 0
M  V30 3202 C 320.839 1.08826 1.61808 0
M  V30 3203 O 320.109 0.160604 1.95241 0
M  V30 3204 H 318.689 0.728714 0.164272 0
M  V30 3205 H 321.351 1.92761 -0.287937 0
M  V30 3206 H 320.447 3.02264 0.777353 0
M  V30 3207 N 320.748 -0.0735177 1.57428 0
M  V30 3208 C 321.696 -1.10628 2.04607 0
M  V30 3209 C 322.69 -1.40181 0.951088 0
M  V30 3210 O 323.896 -1.39608 1.1362 0
M  V30 3211 H 320.271 -0.374088 0.652351 0
M  V30 3212 H 322.242 -0.682218 2.90497 0
M  V30 3213 C 320.991 -2.41212 2.50423 0
M  V30 3214 H 320.314 -2.19322 3.34272 0
M  V30 3215 H 321.754 -3.11927 2.87189 0
M  V30 3216 C 320.213 -3.0705 1.38644 0
M  V30 3217 O 320.743 -3.95056 0.727582 0
M  V30 3218 N 318.949 -2.67645 1.132 0
M  V30 3219 H 318.496 -1.96169 1.66959 0
M  V30 3220 H 318.454 -3.1202 0.386147 0
M  V30 3221 N 322.226 -1.5378 -0.344866 0
M  V30 3222 C 323.472 -1.71216 -1.08687 0
M  V30 3223 C 323.805 -0.473281 -1.88345 0
M  V30 3224 O 323.08 0.52968 -1.87149 0
M  V30 3225 C 323.363 -2.97486 -2.02914 0
M  V30 3226 C 323.216 -4.31579 -1.26727 0
M  V30 3227 C 324.535 -3.19422 -3.0275 0
M  V30 3228 H 321.654 -0.62301 -0.393735 0
M  V30 3229 H 324.296 -1.8645 -0.365563 0
M  V30 3230 H 322.446 -2.84629 -2.64421 0
M  V30 3231 H 324.118 -4.56284 -0.67845 0
M  V30 3232 H 322.361 -4.30049 -0.569273 0
M  V30 3233 H 323.032 -5.16106 -1.95803 0
M  V30 3234 H 325.508 -3.316 -2.51357 0
M  V30 3235 H 324.384 -4.09169 -3.65885 0
M  V30 3236 H 324.645 -2.35656 -3.74057 0
M  V30 3237 N 323.704 0.605807 -1.45491 0
M  V30 3238 C 324.981 1.36522 -1.40075 0
M  V30 3239 C 325.361 2.10976 -0.0722744 0
M  V30 3240 O 324.709 2.08007 0.945808 0
M  V30 3241 C 324.919 2.31056 -2.61561 0
M  V30 3242 C 326.267 2.93608 -3.06724 0
M  V30 3243 O 327.291 2.41376 -2.61946 0
M  V30 3244 O 326.15 3.88421 -3.84437 0
M  V30 3245 H 323.244 0.612248 -0.555951 0
M  V30 3246 H 325.79 0.628747 -1.57623 0
M  V30 3247 H 324.562 1.75311 -3.49831 0
M  V30 3248 H 324.185 3.12081 -2.46356 0
M  V30 3249 N 325.182 1.32811 0.848464 0
M  V30 3250 C 326.431 1.23075 1.59798 0
M  V30 3251 C 326.744 -0.204419 1.94529 0
M  V30 3252 O 327.95 -0.423701 2.68173 0
M  V30 3253 C 326.406 2.15594 2.88179 0
M  V30 3254 C 326.014 3.64228 2.60849 0
M  V30 3255 C 327.758 2.14709 3.66197 0
M  V30 3256 C 325.665 4.48689 3.85269 0
M  V30 3257 H 324.595 0.457091 0.599653 0
M  V30 3258 H 327.246 1.57813 0.936342 0
M  V30 3259 H 325.628 1.73778 3.55833 0
M  V30 3260 H 326.802 4.14424 2.01467 0
M  V30 3261 H 325.117 3.67306 1.96151 0
M  V30 3262 H 327.714 2.75046 4.58534 0
M  V30 3263 H 328.057 1.13966 4.00397 0
M  V30 3264 H 328.59 2.54837 3.05455 0
M  V30 3265 H 325.329 5.5027 3.56207 0
M  V30 3266 H 324.849 4.03241 4.44024 0
M  V30 3267 H 326.528 4.62006 4.52946 0
M  V30 3268 N 326.66 -1.06551 1.16123 0
M  V30 3269 C 327.89 -1.8274 0.963838 0
M  V30 3270 C 328.298 -1.82712 -0.491228 0
M  V30 3271 O 327.641 -1.24294 -1.35265 0
M  V30 3272 C 327.703 -3.3065 1.41106 0
M  V30 3273 C 327.367 -3.54384 2.88549 0
M  V30 3274 C 328.364 -3.4765 3.86569 0
M  V30 3275 C 326.049 -3.81789 3.26408 0
M  V30 3276 C 328.043 -3.67982 5.2045 0
M  V30 3277 C 325.73 -4.01772 4.60459 0
M  V30 3278 C 326.728 -3.94866 5.57288 0
M  V30 3279 O 326.416 -4.14306 6.88916 0
M  V30 3280 H 326.148 -0.583136 0.341948 0
M  V30 3281 H 328.702 -1.35351 1.54497 0
M  V30 3282 H 326.932 -3.78887 0.773394 0
M  V30 3283 H 328.621 -3.88324 1.1815 0
M  V30 3284 H 329.387 -3.2647 3.58667 0
M  V30 3285 H 325.266 -3.86276 2.51619 0
M  V30 3286 H 328.81 -3.62507 5.96015 0
M  V30 3287 H 324.707 -4.2244 4.88072 0
M  V30 3288 H 325.475 -4.31609 6.95454 0
M  V30 3289 N 328.138 -0.959301 -1.25041 0
M  V30 3290 C 329.085 -0.482057 -2.2571 0
M  V30 3291 C 330.055 0.467939 -1.59372 0
M  V30 3292 O 331.24 0.380159 -1.86974 0
M  V30 3293 C 328.38 0.229623 -3.44335 0
M  V30 3294 C 327.493 -0.758156 -4.25295 0
M  V30 3295 C 326.628 -0.0234403 -5.31195 0
M  V30 3296 C 325.667 -1.00184 -6.03846 0
M  V30 3297 N 324.804 -0.29769 -7.01469 0
M  V30 3298 H 329.644 -1.34538 -2.65901 0
M  V30 3299 H 327.181 -0.674592 -1.3072 0
M  V30 3300 H 329.139 0.658856 -4.11965 0
M  V30 3301 H 327.769 1.05696 -3.05005 0
M  V30 3302 H 326.821 -1.30586 -3.57284 0
M  V30 3303 H 328.133 -1.50458 -4.75567 0
M  V30 3304 H 327.287 0.464201 -6.04922 0
M  V30 3305 H 326.026 0.755741 -4.81809 0
M  V30 3306 H 325.031 -1.50044 -5.2893 0
M  V30 3307 H 326.256 -1.78133 -6.55321 0
M  V30 3308 H 324.202 0.462668 -6.54366 0
M  V30 3309 H 324.119 -0.983128 -7.4958 0
M  V30 3310 H 325.387 0.16826 -7.79318 0
M  V30 3311 N 329.616 1.39756 -0.72842 0
M  V30 3312 C 330.563 2.30647 -0.0841519 0
M  V30 3313 C 331.533 1.48869 0.7367 0
M  V30 3314 O 332.718 1.77574 0.698015 0
M  V30 3315 C 329.858 3.35165 0.822091 0
M  V30 3316 C 328.971 4.31999 -0.0106663 0
M  V30 3317 C 328.106 5.23585 0.896241 0
M  V30 3318 C 327.145 6.12072 0.0583381 0
M  V30 3319 N 326.282 6.96035 0.920818 0
M  V30 3320 H 331.122 2.85173 -0.864891 0
M  V30 3321 H 328.659 1.40422 -0.438179 0
M  V30 3322 H 330.617 3.94345 1.36189 0
M  V30 3323 H 329.247 2.8211 1.56888 0
M  V30 3324 H 328.299 3.74492 -0.66781 0
M  V30 3325 H 329.611 4.9443 -0.658825 0
M  V30 3326 H 328.765 5.87759 1.50412 0
M  V30 3327 H 327.504 4.61459 1.57819 0
M  V30 3328 H 326.509 5.46916 -0.562389 0
M  V30 3329 H 327.734 6.76261 -0.6203 0
M  V30 3330 H 325.68 6.36485 1.58818 0
M  V30 3331 H 325.597 7.55284 0.32899 0
M  V30 3332 H 326.865 7.64646 1.51447 0
M  V30 3333 N 331.094 0.475555 1.50254 0
M  V30 3334 C 332.024 -0.30611 2.31485 0
M  V30 3335 C 333.005 -0.986228 1.38591 0
M  V30 3336 O 334.19 -0.982541 1.67511 0
M  V30 3337 C 331.32 -1.38588 3.1845 0
M  V30 3338 C 330.274 -0.827115 4.19932 0
M  V30 3339 C 329.6 -2.00551 4.95665 0
M  V30 3340 C 330.9 0.16463 5.2204 0
M  V30 3341 H 332.594 0.371866 2.97082 0
M  V30 3342 H 330.14 0.180282 1.42867 0
M  V30 3343 H 332.093 -1.94023 3.74076 0
M  V30 3344 H 330.817 -2.09269 2.50747 0
M  V30 3345 H 329.476 -0.294702 3.65414 0
M  V30 3346 H 329.124 -2.6994 4.2443 0
M  V30 3347 H 328.824 -1.63784 5.64313 0
M  V30 3348 H 330.348 -2.56468 5.54127 0
M  V30 3349 H 331.762 -0.300699 5.72511 0
M  V30 3350 H 330.159 0.446813 5.98434 0
M  V30 3351 H 331.229 1.08905 4.72512 0
M  V30 3352 N 332.573 -1.56217 0.208337 0
M  V30 3353 C 333.803 -2.02043 -0.431523 0
M  V30 3354 C 334.211 -1.08755 -1.54819 0
M  V30 3355 O 333.554 -0.0870009 -1.83494 0
M  V30 3356 C 333.616 -3.44239 -1.03633 0
M  V30 3357 C 333.28 -4.56965 -0.0567502 0
M  V30 3358 C 334.277 -5.14624 0.738773 0
M  V30 3359 C 331.962 -5.02266 0.0581736 0
M  V30 3360 C 333.956 -6.16045 1.63605 0
M  V30 3361 C 331.643 -6.03528 0.959001 0
M  V30 3362 C 332.641 -6.60293 1.7465 0
M  V30 3363 O 332.329 -7.59586 2.6322 0
M  V30 3364 H 332.061 -0.666772 -0.111313 0
M  V30 3365 H 334.615 -2.02919 0.318277 0
M  V30 3366 H 332.845 -3.40391 -1.83497 0
M  V30 3367 H 334.534 -3.73793 -1.58221 0
M  V30 3368 H 335.3 -4.80483 0.660364 0
M  V30 3369 H 331.179 -4.57771 -0.544633 0
M  V30 3370 H 334.723 -6.60279 2.25116 0
M  V30 3371 H 330.62 -6.37092 1.03848 0
M  V30 3372 H 331.388 -7.77057 2.57148 0
M  V30 3373 N 334.051 0.0651679 -1.57465 0
M  V30 3374 C 335.001 1.0838 -2.00594 0
M  V30 3375 C 335.985 1.34106 -0.889071 0
M  V30 3376 O 337.177 1.34295 -1.15299 0
M  V30 3377 C 334.306 2.39565 -2.45894 0
M  V30 3378 C 333.392 2.17085 -3.64328 0
M  V30 3379 N 333.783 1.64553 -4.78285 0
M  V30 3380 C 332.081 2.4753 -3.71006 0
M  V30 3381 C 332.782 1.57042 -5.60101 0
M  V30 3382 N 331.758 2.03328 -5.04141 0
M  V30 3383 H 335.56 0.671062 -2.86136 0
M  V30 3384 H 333.074 0.27213 -1.60104 0
M  V30 3385 H 335.071 3.13308 -2.75034 0
M  V30 3386 H 333.731 2.81549 -1.61741 0
M  V30 3387 H 334.742 1.33323 -5.00445 0
M  V30 3388 H 331.419 2.92835 -2.9758 0
M  V30 3389 H 332.809 1.17223 -6.61595 0
M  V30 3390 N 335.529 1.53961 0.336706 0
M  V30 3391 C 336.754 1.75797 1.10046 0
M  V30 3392 C 337.179 0.498985 1.81361 0
M  V30 3393 O 336.537 -0.548769 1.72795 0
M  V30 3394 C 336.585 2.94257 2.08436 0
M  V30 3395 O 335.689 2.64883 3.16087 0
M  V30 3396 H 335.03 0.582936 0.317934 0
M  V30 3397 H 337.56 2.00945 0.38501 0
M  V30 3398 H 337.57 3.21237 2.51537 0
M  V30 3399 H 336.245 3.85564 1.55927 0
M  V30 3400 H 334.822 2.48812 2.77753 0
M  V30 3401 N 337.007 -0.598083 1.45811 0
M  V30 3402 C 338.284 -1.35777 1.40797 0
M  V30 3403 C 338.664 -2.10935 0.083462 0
M  V30 3404 O 338.012 -2.08505 -0.934763 0
M  V30 3405 C 338.222 -2.29666 2.62783 0
M  V30 3406 C 339.57 -2.91977 3.08277 0
M  V30 3407 O 340.594 -2.39984 2.63223 0
M  V30 3408 O 339.453 -3.86376 3.86491 0
M  V30 3409 H 336.547 -0.609291 0.55919 0
M  V30 3410 H 339.093 -0.620379 1.57954 0
M  V30 3411 H 337.865 -1.73454 3.50756 0
M  V30 3412 H 337.488 -3.1077 2.48008 0
M  V30 3413 N 338.485 -1.33259 -0.841409 0
M  V30 3414 C 339.448 -1.23221 -1.9326 0
M  V30 3415 C 340.448 -0.151895 -1.60081 0
M  V30 3416 O 341.638 -0.403246 -1.69468 0
M  V30 3417 C 338.77 -0.898123 -3.28856 0
M  V30 3418 H 339.963 -2.2021 -2.03587 0
M  V30 3419 H 337.516 -1.17281 -1.03319 0
M  V30 3420 H 338.251 0.0693841 -3.24226 0
M  V30 3421 H 338.036 -1.67934 -3.54317 0
M  V30 3422 H 339.526 -0.852563 -4.08805 0
M  V30 3423 N 339.963 1.05934 -1.16686 0
M  V30 3424 C 341.203 1.80382 -0.961345 0
M  V30 3425 C 341.567 1.85331 0.501643 0
M  V30 3426 O 342.768 2.55795 0.825986 0
M  V30 3427 C 341.039 3.20777 -1.57596 0
M  V30 3428 S 342.598 4.11795 -1.51559 0
M  V30 3429 H 339.416 0.621332 -0.345641 0
M  V30 3430 H 342.018 1.27157 -1.48497 0
M  V30 3431 H 340.722 3.14773 -2.63337 0
M  V30 3432 H 340.253 3.79078 -1.05182 0
M  V30 3433 H 342.268 4.93485 -0.518374 0
M  V30 3434 N 341.441 0.965919 1.2453 0
M  V30 3435 C 342.666 0.643971 1.97149 0
M  V30 3436 C 343.091 -0.779487 1.71189 0
M  V30 3437 O 342.449 -1.5288 0.974553 0
M  V30 3438 C 342.497 0.922557 3.48599 0
M  V30 3439 O 341.601 0.00707672 4.12399 0
M  V30 3440 H 340.942 0.243647 0.617683 0
M  V30 3441 H 343.472 1.29558 1.58353 0
M  V30 3442 H 343.482 0.853373 3.98976 0
M  V30 3443 H 342.157 1.95996 3.66822 0
M  V30 3444 H 340.734 0.12943 3.72675 0
M  V30 3445 N 342.919 -1.39368 0.735821 0
M  V30 3446 C 344.144 -2.05319 0.293052 0
M  V30 3447 C 344.569 -1.55115 -1.064 0
M  V30 3448 O 343.927 -0.695261 -1.67439 0
M  V30 3449 C 343.975 -3.59305 0.305323 0
M  V30 3450 O 343.079 -4.06299 -0.706761 0
M  V30 3451 H 342.42 -0.650529 0.13307 0
M  V30 3452 H 344.95 -1.78386 1.00197 0
M  V30 3453 H 344.96 -4.07724 0.149997 0
M  V30 3454 H 343.635 -3.95207 1.29553 0
M  V30 3455 H 342.212 -3.69292 -0.517504 0
M  V30 3456 N 344.397 -0.483516 -1.5 0
M  V30 3457 C 345.344 0.304164 -2.28787 0
M  V30 3458 C 346.314 0.976114 -1.34392 0
M  V30 3459 O 347.499 0.986156 -1.63339 0
M  V30 3460 C 344.639 1.37298 -3.16612 0
M  V30 3461 C 343.752 0.714561 -4.26049 0
M  V30 3462 C 342.887 1.76232 -5.01114 0
M  V30 3463 C 341.926 1.08483 -6.0241 0
M  V30 3464 N 341.063 2.076 -6.70706 0
M  V30 3465 H 345.903 -0.373981 -2.95644 0
M  V30 3466 H 343.44 -0.196275 -1.45785 0
M  V30 3467 H 345.398 2.00445 -3.65893 0
M  V30 3468 H 344.028 2.02012 -2.51776 0
M  V30 3469 H 343.08 -0.0297798 -3.80388 0
M  V30 3470 H 344.392 0.180383 -4.98474 0
M  V30 3471 H 343.546 2.46929 -5.54176 0
M  V30 3472 H 342.285 2.33033 -4.28424 0
M  V30 3473 H 341.29 0.363545 -5.48597 0
M  V30 3474 H 342.515 0.523551 -6.77079 0
M  V30 3475 H 340.461 2.63394 -6.00799 0
M  V30 3476 H 340.378 1.59201 -7.39047 0
M  V30 3477 H 341.646 2.77639 -7.2838 0
M  V30 3478 N 345.875 1.56104 -0.216619 0
M  V30 3479 C 346.838 2.18819 0.681962 0
M  V30 3480 C 347.838 1.14866 1.12528 0
M  V30 3481 O 349.028 1.40128 1.03488 0
M  V30 3482 C 346.16 2.80756 1.93362 0
M  V30 3483 H 347.353 2.99595 0.135254 0
M  V30 3484 H 344.906 1.56265 0.0330003 0
M  V30 3485 H 345.641 2.03837 2.52232 0
M  V30 3486 H 345.426 3.56876 1.62426 0
M  V30 3487 H 346.916 3.28844 2.57393 0
M  V30 3488 N 347.353 -0.0568162 1.57498 0
M  V30 3489 C 348.599 -0.75422 1.88253 0
M  V30 3490 C 348.932 -1.76461 0.810865 0
M  V30 3491 O 348.207 -1.93691 -0.177259 0
M  V30 3492 C 348.49 -1.44878 3.2967 0
M  V30 3493 C 348.343 -0.453789 4.47505 0
M  V30 3494 C 349.662 -2.38994 3.69554 0
M  V30 3495 H 346.781 -0.272724 0.684683 0
M  V30 3496 H 349.423 -0.0172113 1.89992 0
M  V30 3497 H 347.573 -2.077 3.28318 0
M  V30 3498 H 349.245 0.170371 4.60985 0
M  V30 3499 H 347.488 0.229552 4.33192 0
M  V30 3500 H 348.159 -0.977699 5.43273 0
M  V30 3501 H 350.635 -1.86239 3.72095 0
M  V30 3502 H 349.511 -2.84587 4.69363 0
M  V30 3503 H 349.772 -3.24461 3.00296 0
M  V30 3504 N 348.832 -1.54138 -0.328536 0
M  V30 3505 C 350.078 -1.7236 -1.06865 0
M  V30 3506 C 350.411 -0.493231 -1.87832 0
M  V30 3507 O 349.686 0.5098 -1.877 0
M  V30 3508 C 349.969 -2.99621 -1.99747 0
M  V30 3509 C 349.822 -4.32899 -1.22143 0
M  V30 3510 C 351.141 -3.22615 -2.99345 0
M  V30 3511 H 348.26 -0.627151 -0.387105 0
M  V30 3512 H 350.902 -1.86827 -0.345767 0
M  V30 3513 H 349.052 -2.87418 -2.61387 0
M  V30 3514 H 350.724 -4.56978 -0.630017 0
M  V30 3515 H 348.967 -4.30628 -0.523628 0
M  V30 3516 H 349.638 -5.18154 -1.90318 0
M  V30 3517 H 352.114 -3.34248 -2.47826 0
M  V30 3518 H 350.99 -4.13027 -3.61524 0
M  V30 3519 H 351.251 -2.3961 -3.71536 0
M  V30 3520 N 350.31 0.590341 -1.46126 0
M  V30 3521 C 351.535 1.37991 -1.54833 0
M  V30 3522 C 351.96 1.87163 -0.187506 0
M  V30 3523 O 351.318 1.61133 0.831008 0
M  V30 3524 C 351.366 2.54867 -2.55098 0
M  V30 3525 O 350.47 3.56061 -2.08073 0
M  V30 3526 H 349.811 0.411265 -0.521303 0
M  V30 3527 H 352.341 0.716819 -1.91632 0
M  V30 3528 H 352.351 3.01886 -2.74461 0
M  V30 3529 H 351.026 2.18429 -3.53923 0
M  V30 3530 H 349.603 3.15574 -1.98664 0
M  V30 3531 N 351.788 1.33704 0.83433 0
M  V30 3532 C 352.718 1.26967 1.95963 0
M  V30 3533 C 353.699 0.149337 1.69443 0
M  V30 3534 O 354.884 0.339852 1.91203 0
M  V30 3535 C 352.014 1.01275 3.32206 0
M  V30 3536 C 350.968 2.09652 3.73136 0
M  V30 3537 C 350.294 1.69166 5.07235 0
M  V30 3538 C 351.594 3.51372 3.86439 0
M  V30 3539 H 353.288 2.2112 2.01857 0
M  V30 3540 H 350.834 1.06447 0.969793 0
M  V30 3541 H 352.787 0.952106 4.10503 0
M  V30 3542 H 351.511 0.0356203 3.26581 0
M  V30 3543 H 350.17 2.14766 2.97104 0
M  V30 3544 H 349.818 0.701437 4.98085 0
M  V30 3545 H 349.518 2.41694 5.35591 0
M  V30 3546 H 351.042 1.64576 5.88003 0
M  V30 3547 H 352.456 3.48734 4.55036 0
M  V30 3548 H 350.853 4.22425 4.26236 0
M  V30 3549 H 351.923 3.89546 2.88759 0
M  V30 3550 N 353.266 -1.05314 1.17247 0
M  V30 3551 C 354.682 -1.30452 0.919473 0
M  V30 3552 C 354.882 -1.9703 -0.42209 0
M  V30 3553 O 353.938 -2.24311 -1.15935 0
M  V30 3554 C 355.251 -2.17551 2.07586 0
M  V30 3555 C 356.799 -2.30937 2.11275 0
M  V30 3556 C 357.274 -3.21396 3.26296 0
M  V30 3557 N 358.765 -3.28981 3.26076 0
M  V30 3558 C 359.5 -3.99095 4.11716 0
M  V30 3559 N 358.996 -4.71648 5.07465 0
M  V30 3560 N 360.789 -3.95247 3.9967 0
M  V30 3561 H 352.94 -0.604988 2.03602 0
M  V30 3562 H 355.203 -0.329368 0.888944 0
M  V30 3563 H 354.909 -1.75921 3.0454 0
M  V30 3564 H 354.783 -3.18182 2.02584 0
M  V30 3565 H 357.17 -2.71809 1.14907 0
M  V30 3566 H 357.251 -1.2994 2.20339 0
M  V30 3567 H 356.895 -2.81238 4.22927 0
M  V30 3568 H 356.825 -4.22395 3.14467 0
M  V30 3569 H 359.316 -2.77286 2.5675 0
M  V30 3570 H 359.629 -5.22705 5.6921 0
M  V30 3571 H 357.974 -4.70594 5.11435 0
M  V30 3572 H 361.165 -3.37691 3.24164 0
M  V30 3573 H 361.338 -4.4962 4.66632 0
M  V30 3574 N 354.744 -0.972509 -1.24016 0
M  V30 3575 C 355.984 -0.644951 -1.93958 0
M  V30 3576 C 356.348 0.80559 -1.74282 0
M  V30 3577 O 357.549 1.2436 -2.38302 0
M  V30 3578 C 355.82 -1.01521 -3.42678 0
M  V30 3579 S 357.379 -0.802927 -4.31391 0
M  V30 3580 H 354.197 -0.236452 -0.670531 0
M  V30 3581 H 356.799 -1.25048 -1.50277 0
M  V30 3582 H 355.503 -2.06769 -3.54506 0
M  V30 3583 H 355.034 -0.400648 -3.91355 0
M  V30 3584 H 357.049 0.317256 -4.95185 0
M  V30 3585 N 356.222 1.38976 -0.743202 0
M  V30 3586 C 357.471 1.99581 -0.291592 0
M  V30 3587 C 357.784 1.59656 1.13001 0
M  V30 3588 O 358.99 2.13157 1.68156 0
M  V30 3589 C 357.446 3.56813 -0.470391 0
M  V30 3590 C 357.054 4.05695 -1.90041 0
M  V30 3591 C 358.798 4.24423 -0.0809709 0
M  V30 3592 C 356.705 5.5553 -2.02832 0
M  V30 3593 H 355.635 0.746615 -0.105272 0
M  V30 3594 H 358.286 1.58872 -0.918258 0
M  V30 3595 H 356.668 3.95359 0.225299 0
M  V30 3596 H 357.842 3.78464 -2.62872 0
M  V30 3597 H 356.157 3.50775 -2.24379 0
M  V30 3598 H 358.754 5.34474 -0.155445 0
M  V30 3599 H 359.097 4.04962 0.96497 0
M  V30 3600 H 359.63 3.9108 -0.728124 0
M  V30 3601 H 356.369 5.79881 -3.05643 0
M  V30 3602 H 355.889 5.84537 -1.34448 0
M  V30 3603 H 357.568 6.21069 -1.81335 0
M  V30 3604 N 357.7 0.491464 1.49741 0
M  V30 3605 C 358.663 -0.280906 2.27472 0
M  V30 3606 C 359.663 -0.902454 1.33088 0
M  V30 3607 O 360.853 -0.768465 1.56334 0
M  V30 3608 C 357.985 -1.40209 3.10732 0
M  V30 3609 H 359.178 0.401056 2.97206 0
M  V30 3610 H 356.731 0.246131 1.5435 0
M  V30 3611 H 357.466 -2.11849 2.45541 0
M  V30 3612 H 357.251 -0.961969 3.80117 0
M  V30 3613 H 358.741 -1.9464 3.69466 0
M  V30 3614 N 359.178 -1.55987 0.224894 0
M  V30 3615 C 360.418 -2.00293 -0.407706 0
M  V30 3616 C 360.782 -1.1093 -1.56711 0
M  V30 3617 O 361.983 -1.44597 -2.26595 0
M  V30 3618 C 360.254 -3.47675 -0.82805 0
M  V30 3619 S 361.813 -4.14 -1.45429 0
M  V30 3620 H 358.631 -0.699152 -0.129256 0
M  V30 3621 H 361.233 -1.92609 0.334967 0
M  V30 3622 H 359.937 -4.10392 0.0253964 0
M  V30 3623 H 359.468 -3.59239 -1.60345 0
M  V30 3624 H 361.483 -4.13465 -2.74337 0
M  V30 3625 N 360.656 0.0484629 -1.57525 0
M  V30 3626 C 361.904 0.741657 -1.88 0
M  V30 3627 C 362.225 1.76918 -0.820054 0
M  V30 3628 O 361.495 1.95335 0.148661 0
M  V30 3629 H 360.075 0.276908 -0.69378 0
M  V30 3630 H 362.737 0.019013 -1.94891 0
M  V30 3631 H 361.833 1.24336 -2.86264 0
M  V30 3632 N 362.134 1.5431 0.320358 0
M  V30 3633 C 363.38 1.72924 1.05949 0
M  V30 3634 C 363.713 0.503185 1.87568 0
M  V30 3635 O 362.988 -0.499839 1.87968 0
M  V30 3636 C 363.271 3.00676 1.98156 0
M  V30 3637 C 363.124 4.3354 1.19845 0
M  V30 3638 C 364.443 3.24198 2.9763 0
M  V30 3639 H 361.562 0.629195 0.383774 0
M  V30 3640 H 364.204 1.87008 0.335854 0
M  V30 3641 H 362.354 2.888 2.59859 0
M  V30 3642 H 364.026 4.57305 0.605773 0
M  V30 3643 H 362.269 4.309 0.500784 0
M  V30 3644 H 362.94 5.19156 1.87567 0
M  V30 3645 H 365.416 3.35557 2.4605 0
M  V30 3646 H 364.292 4.14938 3.59329 0
M  V30 3647 H 364.553 2.41577 3.7026 0
M  V30 3648 N 363.613 -0.582584 1.46437 0
M  V30 3649 C 364.561 -1.71272 1.5738 0
M  V30 3650 C 365.555 -1.63524 0.44229 0
M  V30 3651 O 366.761 -1.69016 0.619166 0
M  V30 3652 H 363.136 -0.566273 0.494813 0
M  V30 3653 H 365.107 -1.59174 2.52401 0
M  V30 3654 C 363.856 -3.09658 1.58136 0
M  V30 3655 H 363.179 -3.16291 2.44541 0
M  V30 3656 H 364.619 -3.88494 1.69847 0
M  V30 3657 C 363.078 -3.3547 0.310026 0
M  V30 3658 O 363.608 -3.97199 -0.599683 0
M  V30 3659 N 361.814 -2.89925 0.197901 0
M  V30 3660 H 361.361 -2.39873 0.93909 0
M  V30 3661 H 361.319 -3.07568 -0.65185 0
M  V30 3662 N 365.091 -1.34144 -0.827227 0
M  V30 3663 C 366.021 -1.28005 -1.95287 0
M  V30 3664 C 367.002 -0.158321 -1.69362 0
M  V30 3665 O 368.187 -0.349987 -1.9102 0
M  V30 3666 C 365.317 -1.03036 -3.31664 0
M  V30 3667 C 364.271 -2.11628 -3.72019 0
M  V30 3668 C 363.597 -1.71854 -5.0633 0
M  V30 3669 C 364.897 -3.53417 -3.8457 0
M  V30 3670 H 366.591 -2.22187 -2.00682 0
M  V30 3671 H 364.137 -1.0696 -0.964135 0
M  V30 3672 H 366.09 -0.973863 -4.09993 0
M  V30 3673 H 364.814 -0.0529391 -3.26557 0
M  V30 3674 H 363.473 -2.16339 -2.95961 0
M  V30 3675 H 363.121 -0.727841 -4.97706 0
M  V30 3676 H 362.821 -2.44531 -5.34302 0
M  V30 3677 H 364.345 -1.67692 -5.87122 0
M  V30 3678 H 365.759 -3.51142 -4.5318 0
M  V30 3679 H 364.156 -4.24679 -4.2399 0
M  V30 3680 H 365.226 -3.91072 -2.86689 0
M  V30 3681 N 366.569 1.04691 -1.17803 0
M  V30 3682 C 367.517 2.14665 -0.895635 0
M  V30 3683 C 368.511 1.68806 0.141679 0
M  V30 3684 O 369.717 1.79999 -0.00587914 0
M  V30 3685 H 366.092 0.701038 -0.272121 0
M  V30 3686 H 368.063 2.35685 -1.83017 0
M  V30 3687 C 366.812 3.45019 -0.430962 0
M  V30 3688 H 366.135 3.8071 -1.22064 0
M  V30 3689 H 367.575 4.23125 -0.272301 0
M  V30 3690 C 366.034 3.25943 0.852207 0
M  V30 3691 O 366.564 3.5296 1.91786 0
M  V30 3692 N 364.77 2.79304 0.802346 0
M  V30 3693 H 364.317 2.57518 -0.0650788 0
M  V30 3694 H 364.275 2.66921 1.66134 0
M  V30 3695 N 368.047 0.979072 1.23499 0
M  V30 3696 C 369.272 0.664845 1.96455 0
M  V30 3697 C 369.697 -0.761287 1.72006 0
M  V30 3698 O 369.055 -1.51837 0.990713 0
M  V30 3699 C 369.103 0.959479 3.47601 0
M  V30 3700 O 368.207 0.0508168 4.12369 0
M  V30 3701 H 367.548 0.250185 0.615064 0
M  V30 3702 H 370.078 1.31231 1.5697 0
M  V30 3703 H 370.088 0.895642 3.98048 0
M  V30 3704 H 368.763 1.99876 3.64723 0
M  V30 3705 H 367.34 0.16895 3.72517 0
M  V30 3706 N 369.525 -1.3858 0.750561 0
M  V30 3707 C 370.75 -2.04997 0.314812 0
M  V30 3708 C 371.175 -1.56235 -1.04749 0
M  V30 3709 O 370.533 -0.712981 -1.66692 0
M  V30 3710 C 370.581 -3.58961 0.343415 0
M  V30 3711 O 369.685 -4.07025 -0.663628 0
M  V30 3712 H 369.026 -0.649081 0.139962 0
M  V30 3713 H 371.556 -1.77313 1.02084 0
M  V30 3714 H 371.566 -4.07542 0.193233 0
M  V30 3715 H 370.241 -3.93811 1.33738 0
M  V30 3716 H 368.818 -3.6982 -0.478307 0
M  V30 3717 N 371.003 -0.499398 -1.49478 0
M  V30 3718 C 372.419 -0.155261 -1.58843 0
M  V30 3719 C 372.619 1.34008 -1.50479 0
M  V30 3720 O 371.675 2.11589 -1.37791 0
M  V30 3721 C 372.988 -0.730636 -2.91689 0
M  V30 3722 C 374.536 -0.696599 -3.0515 0
M  V30 3723 C 375.011 -1.25001 -4.40612 0
M  V30 3724 N 376.502 -1.21064 -4.47099 0
M  V30 3725 C 377.237 -1.60905 -5.50361 0
M  V30 3726 N 376.733 -2.08331 -6.60735 0
M  V30 3727 N 378.526 -1.52331 -5.41065 0
M  V30 3728 H 370.677 -1.47162 -1.53158 0
M  V30 3729 H 372.94 -0.610309 -0.725415 0
M  V30 3730 H 372.646 -1.77928 -3.03372 0
M  V30 3731 H 372.52 -0.190161 -3.7672 0
M  V30 3732 H 374.907 0.343204 -2.93097 0
M  V30 3733 H 374.988 -1.2742 -2.21806 0
M  V30 3734 H 374.632 -2.28859 -4.53416 0
M  V30 3735 H 374.562 -0.64836 -5.22593 0
M  V30 3736 H 377.053 -0.863128 -3.67911 0
M  V30 3737 H 377.366 -2.36805 -7.35624 0
M  V30 3738 H 375.711 -2.12304 -6.6178 0
M  V30 3739 H 378.902 -1.151 -4.53729 0
M  V30 3740 H 379.075 -1.83704 -6.21415 0
M  V30 3741 N 372.481 1.55866 -0.233164 0
M  V30 3742 C 373.413 2.18099 0.704668 0
M  V30 3743 C 374.426 1.15334 1.14899 0
M  V30 3744 O 375.615 1.42262 1.07814 0
M  V30 3745 C 372.715 2.7592 1.96777 0
M  V30 3746 C 371.888 4.03969 1.67713 0
M  V30 3747 C 370.947 4.46242 2.78845 0
M  V30 3748 O 369.973 5.12903 2.46818 0
M  V30 3749 N 371.175 4.12886 4.08051 0
M  V30 3750 H 373.94 2.99205 0.172258 0
M  V30 3751 H 371.501 1.61815 -0.0525945 0
M  V30 3752 H 373.493 3.01165 2.70337 0
M  V30 3753 H 372.063 1.99051 2.41034 0
M  V30 3754 H 371.283 3.86459 0.777391 0
M  V30 3755 H 372.571 4.8748 1.4574 0
M  V30 3756 H 371.969 3.59342 4.3691 0
M  V30 3757 H 370.526 4.42997 4.78118 0
M  V30 3758 N 373.959 -0.0401083 1.57549 0
M  V30 3759 C 375.184 -0.748931 1.93406 0
M  V30 3760 C 375.609 -1.68686 0.832274 0
M  V30 3761 O 374.967 -1.80047 -0.212818 0
M  V30 3762 C 375.015 -1.4916 3.28304 0
M  V30 3763 O 374.119 -2.6042 3.19774 0
M  V30 3764 H 373.46 -0.202212 0.63246 0
M  V30 3765 H 375.99 0.00112086 2.046 0
M  V30 3766 H 376 -1.86395 3.62934 0
M  V30 3767 H 374.675 -0.80364 4.08062 0
M  V30 3768 H 373.252 -2.25808 2.96758 0
M  V30 3769 N 375.437 -1.54477 -0.31217 0
M  V30 3770 C 376.853 -1.45442 -0.657185 0
M  V30 3771 C 377.053 -0.63653 -1.91182 0
M  V30 3772 O 376.109 -0.139815 -2.52113 0
M  V30 3773 C 377.422 -2.89287 -0.82058 0
M  V30 3774 C 378.97 -2.9926 -0.917188 0
M  V30 3775 C 379.445 -4.44279 -1.11267 0
M  V30 3776 N 380.936 -4.4794 -1.17914 0
M  V30 3777 C 381.671 -5.57318 -1.34848 0
M  V30 3778 N 381.167 -6.76642 -1.48752 0
M  V30 3779 N 382.96 -5.44986 -1.37647 0
M  V30 3780 H 375.111 -2.06129 0.512313 0
M  V30 3781 H 377.374 -0.933088 0.167485 0
M  V30 3782 H 377.08 -3.51687 0.0302604 0
M  V30 3783 H 376.954 -3.36061 -1.71298 0
M  V30 3784 H 379.341 -2.36981 -1.75852 0
M  V30 3785 H 379.422 -2.558 -0.00101257 0
M  V30 3786 H 379.066 -5.07149 -0.27614 0
M  V30 3787 H 378.996 -4.85359 -2.04289 0
M  V30 3788 H 381.487 -3.61969 -1.08567 0
M  V30 3789 H 381.8 -7.55758 -1.61397 0
M  V30 3790 H 380.145 -6.79529 -1.45828 0
M  V30 3791 H 383.336 -4.50715 -1.26388 0
M  V30 3792 H 383.509 -6.3028 -1.50501 0
M  V30 3793 N 376.915 0.57481 -1.46744 0
M  V30 3794 C 378.164 1.32898 -1.51727 0
M  V30 3795 C 378.477 1.948 -0.176692 0
M  V30 3796 O 379.683 2.71299 -0.104385 0
M  V30 3797 C 378.139 2.40901 -2.67385 0
M  V30 3798 C 377.747 1.85266 -4.07898 0
M  V30 3799 C 379.491 3.17609 -2.81646 0
M  V30 3800 C 377.398 2.90945 -5.14883 0
M  V30 3801 H 376.328 0.499631 -0.564699 0
M  V30 3802 H 378.979 0.612536 -1.72975 0
M  V30 3803 H 377.361 3.15379 -2.39483 0
M  V30 3804 H 378.535 1.17278 -4.45626 0
M  V30 3805 H 376.85 1.21199 -3.98371 0
M  V30 3806 H 379.447 3.96493 -3.58744 0
M  V30 3807 H 379.79 3.70696 -1.89448 0
M  V30 3808 H 380.323 2.50239 -3.09233 0
M  V30 3809 H 377.062 2.42736 -6.089 0
M  V30 3810 H 376.582 3.57398 -4.81691 0
M  V30 3811 H 378.261 3.54755 -5.41071 0
M  V30 3812 N 378.394 1.34581 0.820102 0
M  V30 3813 C 379.64 1.27285 1.57881 0
M  V30 3814 C 379.973 -0.156137 1.93571 0
M  V30 3815 O 379.248 -1.10222 1.60254 0
M  V30 3816 C 379.531 2.16639 2.87645 0
M  V30 3817 C 379.384 3.68088 2.58517 0
M  V30 3818 C 380.703 2.05378 3.8924 0
M  V30 3819 H 377.822 0.463714 0.572833 0
M  V30 3820 H 380.464 1.64859 0.944539 0
M  V30 3821 H 378.614 1.84725 3.41773 0
M  V30 3822 H 380.286 4.10382 2.10676 0
M  V30 3823 H 378.529 3.89038 1.91917 0
M  V30 3824 H 379.2 4.2598 3.51063 0
M  V30 3825 H 381.676 2.33404 3.44473 0
M  V30 3826 H 380.552 2.7012 4.77835 0
M  V30 3827 H 380.813 1.0316 4.29896 0
M  V30 3828 N 379.872 -1.04064 1.18357 0
M  V30 3829 C 381.12 -1.76915 0.977013 0
M  V30 3830 C 381.441 -1.88624 -0.494577 0
M  V30 3831 O 380.711 -1.41125 -1.3587 0
M  V30 3832 H 379.291 -0.65535 0.358504 0
M  V30 3833 H 381.953 -1.25592 1.49039 0
M  V30 3834 H 381.049 -2.78178 1.41504 0
M  V30 3835 N 381.35 -0.985608 -1.22978 0
M  V30 3836 C 382.598 -0.656087 -1.91154 0
M  V30 3837 C 382.919 0.813561 -1.77218 0
M  V30 3838 O 382.189 1.58244 -1.1548 0
M  V30 3839 H 380.769 -0.239674 -0.707506 0
M  V30 3840 H 383.431 -1.25054 -1.49491 0
M  V30 3841 H 382.527 -0.912253 -2.9847 0
M  V30 3842 N 382.828 1.3818 -0.7579 0
M  V30 3843 C 383.738 2.3421 -0.135247 0
M  V30 3844 C 384.754 1.59487 0.695683 0
M  V30 3845 O 385.93 1.91657 0.618832 0
M  V30 3846 C 382.995 3.3862 0.744139 0
M  V30 3847 C 382.056 4.2918 -0.101658 0
M  V30 3848 C 381.289 5.28603 0.735851 0
M  V30 3849 O 381.512 5.35166 1.97366 0
M  V30 3850 O 380.446 6.01707 0.152372 0
M  V30 3851 H 384.272 2.8916 -0.928436 0
M  V30 3852 H 381.857 1.40101 -0.518855 0
M  V30 3853 H 383.739 4.02539 1.2466 0
M  V30 3854 H 382.414 2.86019 1.51575 0
M  V30 3855 H 381.321 3.68407 -0.650167 0
M  V30 3856 H 382.654 4.85048 -0.836024 0
M  V30 3857 N 384.306 0.507319 1.49211 0
M  V30 3858 C 385.531 -0.033725 2.07373 0
M  V30 3859 C 385.956 -1.29485 1.36437 0
M  V30 3860 O 385.314 -1.76294 0.423087 0
M  V30 3861 C 385.362 -0.263945 3.59633 0
M  V30 3862 O 384.466 -1.33737 3.90113 0
M  V30 3863 H 383.807 0.0290331 0.663365 0
M  V30 3864 H 386.337 0.708749 1.91932 0
M  V30 3865 H 386.347 -0.493536 4.05004 0
M  V30 3866 H 385.022 0.657424 4.10671 0
M  V30 3867 H 383.599 -1.09224 3.56545 0
M  V30 3868 N 385.784 -1.5574 0.241426 0
M  V30 3869 C 386.747 -2.19877 -0.647063 0
M  V30 3870 C 387.747 -1.16642 -1.10686 0
M  V30 3871 O 388.937 -1.41757 -1.01245 0
M  V30 3872 C 386.069 -2.83797 -1.88871 0
M  V30 3873 H 387.262 -2.99772 -0.087574 0
M  V30 3874 H 384.815 -1.56298 -0.00813574 0
M  V30 3875 H 385.55 -2.07824 -2.48957 0
M  V30 3876 H 385.335 -3.59414 -1.56728 0
M  V30 3877 H 386.825 -3.32898 -2.52129 0
M  V30 3878 N 387.262 0.0317525 -1.57568 0
M  V30 3879 C 388.192 1.03274 -2.0942 0
M  V30 3880 C 389.173 1.3788 -0.996143 0
M  V30 3881 O 390.358 1.46811 -1.27122 0
M  V30 3882 C 387.488 2.33448 -2.57137 0
M  V30 3883 C 386.442 2.13091 -3.71182 0
M  V30 3884 C 385.768 3.49001 -4.05095 0
M  V30 3885 C 387.068 1.51928 -4.99715 0
M  V30 3886 H 388.762 0.60112 -2.93303 0
M  V30 3887 H 386.308 0.287705 -1.41097 0
M  V30 3888 H 388.261 3.03802 -2.92032 0
M  V30 3889 H 386.985 2.78665 -1.70333 0
M  V30 3890 H 385.644 1.45171 -3.36632 0
M  V30 3891 H 385.292 3.91862 -3.15362 0
M  V30 3892 H 384.992 3.36207 -4.81911 0
M  V30 3893 H 386.516 4.20721 -4.42522 0
M  V30 3894 H 387.93 2.12196 -5.32584 0
M  V30 3895 H 386.327 1.49716 -5.81124 0
M  V30 3896 H 387.397 0.484811 -4.8247 0
M  V30 3897 N 388.74 1.54641 0.303973 0
M  V30 3898 C 390.151 1.64811 0.877163 0
M  V30 3899 C 390.502 0.554838 1.88191 0
M  V30 3900 O 389.627 -0.309033 2.14182 0
M  V30 3901 C 390.222 2.9876 1.59775 0
M  V30 3902 C 388.781 3.11061 2.11938 0
M  V30 3903 C 387.928 2.60479 0.951097 0
M  V30 3904 H 390.879 1.58493 0.0810486 0
M  V30 3905 H 390.9 2.90017 2.46314 0
M  V30 3906 H 390.412 3.7831 0.866226 0
M  V30 3907 H 388.513 2.36225 2.88146 0
M  V30 3908 H 388.626 4.17171 2.35595 0
M  V30 3909 H 386.99 2.16859 1.33583 0
M  V30 3910 H 387.773 3.42504 0.233581 0
M  V30 3911 N 390.218 -0.567019 1.47046 0
M  V30 3912 C 391.466 -1.322 1.52864 0
M  V30 3913 C 391.787 -1.94088 0.188388 0
M  V30 3914 O 391.057 -1.7941 -0.786693 0
M  V30 3915 H 389.637 -0.490894 0.563056 0
M  V30 3916 H 392.299 -0.662879 1.83281 0
M  V30 3917 H 391.395 -2.12062 2.2899 0
M  V30 3918 N 391.696 -1.35014 -0.812953 0
M  V30 3919 C 392.659 -1.27292 -1.90602 0
M  V30 3920 C 393.659 -0.185817 -1.59723 0
M  V30 3921 O 394.849 -0.439102 -1.68575 0
M  V30 3922 C 391.981 -0.967676 -3.26877 0
M  V30 3923 H 393.174 -2.24479 -1.9887 0
M  V30 3924 H 390.727 -1.19446 -1.00808 0
M  V30 3925 H 391.462 0.0005954 -3.243 0
M  V30 3926 H 391.247 -1.75412 -3.50675 0
M  V30 3927 H 392.737 -0.939085 -4.06904 0
M  V30 3928 N 393.175 1.03435 -1.18907 0
M  V30 3929 C 394.421 1.7713 -0.99982 0
M  V30 3930 C 394.776 1.86695 0.465049 0
M  V30 3931 O 394.069 1.36866 1.34083 0
M  V30 3932 C 394.263 3.19792 -1.59586 0
M  V30 3933 C 394.092 3.24134 -3.11717 0
M  V30 3934 C 392.862 3.32398 -3.80578 0
M  V30 3935 C 395.06 3.11625 -4.09138 0
M  V30 3936 N 393.042 3.26055 -5.20155 0
M  V30 3937 C 394.413 3.12855 -5.35277 0
M  V30 3938 C 396.468 2.95713 -4.00572 0
M  V30 3939 C 395.171 2.99805 -6.53842 0
M  V30 3940 C 397.197 2.84011 -5.1874 0
M  V30 3941 C 396.559 2.8589 -6.43775 0
M  V30 3942 H 392.658 0.659683 -0.419931 0
M  V30 3943 H 395.242 1.2317 -1.50789 0
M  V30 3944 H 393.413 3.72085 -1.11389 0
M  V30 3945 H 395.145 3.81819 -1.3415 0
M  V30 3946 H 391.9 3.38392 -3.31342 0
M  V30 3947 H 392.324 3.26307 -5.93172 0
M  V30 3948 H 396.966 2.93086 -3.0473 0
M  V30 3949 H 394.684 3.01184 -7.49876 0
M  V30 3950 H 398.27 2.72744 -5.13909 0
M  V30 3951 H 397.15 2.76931 -7.33675 0
M  V30 3952 N 394.653 0.992116 1.22453 0
M  V30 3953 C 396.064 0.702776 1.72968 0
M  V30 3954 C 396.415 -0.780399 1.80012 0
M  V30 3955 O 395.54 -1.61007 1.44589 0
M  V30 3956 C 396.135 1.26903 3.14135 0
M  V30 3957 C 394.694 1.02909 3.62059 0
M  V30 3958 C 393.841 1.38969 2.39964 0
M  V30 3959 H 396.792 1.16457 1.07812 0
M  V30 3960 H 396.813 0.647223 3.74955 0
M  V30 3961 H 396.325 2.34851 3.08977 0
M  V30 3962 H 394.426 -0.0337979 3.72585 0
M  V30 3963 H 394.539 1.69191 4.48231 0
M  V30 3964 H 392.903 0.808279 2.41535 0
M  V30 3965 H 393.686 2.4792 2.37467 0
M  V30 3966 N 396.131 -1.37776 0.765217 0
M  V30 3967 C 397.377 -2.00604 0.336066 0
M  V30 3968 C 397.732 -1.59657 -1.07366 0
M  V30 3969 O 397.025 -0.829565 -1.7271 0
M  V30 3970 C 397.219 -3.5504 0.410053 0
M  V30 3971 C 397.048 -4.10985 1.82542 0
M  V30 3972 C 395.818 -4.42229 2.44461 0
M  V30 3973 C 398.016 -4.32438 2.78392 0
M  V30 3974 N 395.998 -4.8385 3.77839 0
M  V30 3975 C 397.369 -4.76596 3.96556 0
M  V30 3976 C 399.424 -4.14559 2.75764 0
M  V30 3977 C 398.127 -5.04748 5.12466 0
M  V30 3978 C 400.153 -4.43843 3.90842 0
M  V30 3979 C 399.515 -4.88235 5.07746 0
M  V30 3980 H 395.614 -0.763325 0.169881 0
M  V30 3981 H 398.198 -1.67197 0.997656 0
M  V30 3982 H 396.369 -3.87769 -0.221325 0
M  V30 3983 H 398.101 -4.0468 -0.0405285 0
M  V30 3984 H 394.856 -4.31079 1.96131 0
M  V30 3985 H 395.28 -5.08979 4.46396 0
M  V30 3986 H 399.922 -3.79415 1.86558 0
M  V30 3987 H 397.64 -5.38783 6.02277 0
M  V30 3988 H 401.226 -4.31603 3.90141 0
M  V30 3989 H 400.106 -5.10461 5.95315 0
M  V30 3990 N 397.609 -0.515225 -1.4894 0
M  V30 3991 C 398.541 0.292481 -2.27326 0
M  V30 3992 C 399.554 0.917838 -1.3446 0
M  V30 3993 O 400.743 0.798772 -1.5963 0
M  V30 3994 C 397.843 1.42803 -3.07344 0
M  V30 3995 C 397.016 0.907347 -4.27885 0
M  V30 3996 C 396.075 1.92222 -4.89834 0
M  V30 3997 O 395.101 1.48506 -5.49486 0
M  V30 3998 N 396.303 3.25355 -4.80754 0
M  V30 3999 H 399.068 -0.379721 -2.97285 0
M  V30 4000 H 396.629 -0.348638 -1.58102 0
M  V30 4001 H 398.621 2.10481 -3.45658 0
M  V30 4002 H 397.191 2.00414 -2.39902 0
M  V30 4003 H 396.411 0.0550218 -3.94162 0
M  V30 4004 H 397.699 0.538108 -5.05946 0
M  V30 4005 H 397.097 3.6355 -4.33414 0
M  V30 4006 H 395.654 3.88707 -5.23211 0
M  V30 4007 N 399.087 1.5561 -0.249682 0
M  V30 4008 C 400.333 1.99306 0.374841 0
M  V30 4009 C 400.666 1.13767 1.57387 0
M  V30 4010 O 399.941 0.201711 1.93451 0
M  V30 4011 C 400.224 3.51507 0.781986 0
M  V30 4012 C 400.077 4.4781 -0.422629 0
M  V30 4013 C 401.396 4.08884 1.62793 0
M  V30 4014 H 398.515 0.724572 0.134773 0
M  V30 4015 H 401.157 1.86719 -0.351549 0
M  V30 4016 H 399.307 3.62363 1.4009 0
M  V30 4017 H 400.979 4.48931 -1.06108 0
M  V30 4018 H 399.222 4.20518 -1.06524 0
M  V30 4019 H 399.893 5.51919 -0.0943766 0
M  V30 4020 H 402.369 4.01147 1.10547 0
M  V30 4021 H 401.245 5.1564 1.88166 0
M  V30 4022 H 401.506 3.57515 2.60068 0
M  V30 4023 N 400.565 -0.0233959 1.57583 0
M  V30 4024 C 401.79 -0.728376 1.94189 0
M  V30 4025 C 402.215 -1.67793 0.850119 0
M  V30 4026 O 401.573 -1.80262 -0.19371 0
M  V30 4027 C 401.621 -1.45669 3.29868 0
M  V30 4028 O 400.725 -2.57013 3.22518 0
M  V30 4029 H 400.066 -0.195493 0.63457 0
M  V30 4030 H 402.596 0.0228214 2.04587 0
M  V30 4031 H 402.606 -1.82535 3.6489 0
M  V30 4032 H 401.281 -0.760314 4.08891 0
M  V30 4033 H 399.858 -2.22648 2.99136 0
M  V30 4034 N 402.043 -1.548 -0.295768 0
M  V30 4035 C 402.973 -1.89115 -1.36959 0
M  V30 4036 C 403.954 -0.75059 -1.52644 0
M  V30 4037 O 405.139 -1.00678 -1.66065 0
M  V30 4038 C 402.269 -2.14307 -2.73295 0
M  V30 4039 C 401.223 -3.30151 -2.72368 0
M  V30 4040 C 400.549 -3.40772 -4.12042 0
M  V30 4041 C 401.849 -4.67126 -2.33646 0
M  V30 4042 H 403.543 -2.79053 -1.08488 0
M  V30 4043 H 401.089 -1.34266 -0.520443 0
M  V30 4044 H 403.042 -2.36898 -3.48507 0
M  V30 4045 H 401.766 -1.21145 -3.03301 0
M  V30 4046 H 400.425 -3.0749 -1.99613 0
M  V30 4047 H 400.073 -2.45117 -4.39234 0
M  V30 4048 H 399.773 -4.18645 -4.12322 0
M  V30 4049 H 401.297 -3.6563 -4.89027 0
M  V30 4050 H 402.711 -4.89414 -2.98575 0
M  V30 4051 H 401.108 -5.47751 -2.45129 0
M  V30 4052 H 402.178 -4.67489 -1.28772 0
M  V30 4053 N 403.521 0.559213 -1.47345 0
M  V30 4054 C 404.471 1.66192 -1.5609 0
M  V30 4055 C 405.455 1.55323 -0.419957 0
M  V30 4056 O 406.647 1.63839 -0.669762 0
M  V30 4057 C 403.776 3.0497 -1.57634 0
M  V30 4058 C 402.862 3.2105 -2.77106 0
M  V30 4059 N 403.253 3.07203 -4.01821 0
M  V30 4060 C 401.551 3.52046 -2.73825 0
M  V30 4061 C 402.252 3.25919 -4.81821 0
M  V30 4062 N 401.228 3.52161 -4.14106 0
M  V30 4063 H 405.03 1.54052 -2.5029 0
M  V30 4064 H 402.544 0.763914 -1.43311 0
M  V30 4065 H 404.541 3.84142 -1.61989 0
M  V30 4066 H 403.201 3.18224 -0.645281 0
M  V30 4067 H 404.212 2.84572 -4.32711 0
M  V30 4068 H 400.889 3.71839 -1.89848 0
M  V30 4069 H 402.279 3.20198 -5.90697 0
M  V30 4070 N 404.999 1.35443 0.805782 0
M  V30 4071 C 406.245 1.28952 1.56522 0
M  V30 4072 C 406.578 -0.135597 1.93726 0
M  V30 4073 O 405.853 -1.08516 1.61414 0
M  V30 4074 C 406.136 2.19678 2.85331 0
M  V30 4075 C 405.989 3.7081 2.54598 0
M  V30 4076 C 407.308 2.09495 3.8704 0
M  V30 4077 H 404.427 0.469764 0.567883 0
M  V30 4078 H 407.069 1.65851 0.927001 0
M  V30 4079 H 405.219 1.8834 3.39795 0
M  V30 4080 H 406.891 4.12593 2.06312 0
M  V30 4081 H 405.134 3.91051 1.8778 0
M  V30 4082 H 405.805 4.29679 3.46525 0
M  V30 4083 H 408.281 2.37045 3.41978 0
M  V30 4084 H 407.157 2.75173 4.74943 0
M  V30 4085 H 407.418 1.07714 4.28777 0
M  V30 4086 N 406.477 -1.02803 1.19454 0
M  V30 4087 C 407.409 -2.11181 0.890807 0
M  V30 4088 C 408.422 -1.6238 -0.116829 0
M  V30 4089 O 409.611 -1.78144 0.112694 0
M  V30 4090 C 406.711 -3.37461 0.311942 0
M  V30 4091 C 405.884 -4.15446 1.36834 0
M  V30 4092 C 404.943 -5.20039 0.802864 0
M  V30 4093 O 403.969 -5.49602 1.48077 0
M  V30 4094 N 405.171 -5.79165 -0.393417 0
M  V30 4095 H 407.936 -2.37827 1.82369 0
M  V30 4096 H 405.497 -1.19101 1.09666 0
M  V30 4097 H 407.489 -4.0462 -0.0802225 0
M  V30 4098 H 406.059 -3.08156 -0.52524 0
M  V30 4099 H 405.279 -3.43423 1.93531 0
M  V30 4100 H 406.567 -4.64335 2.08015 0
M  V30 4101 H 405.965 -5.57466 -0.961658 0
M  V30 4102 H 404.522 -6.47729 -0.727351 0
M  V30 4103 N 407.956 -0.998596 -1.21925 0
M  V30 4104 C 408.904 -0.546641 -2.26085 0
M  V30 4105 C 409.898 0.405576 -1.64473 0
M  V30 4106 O 411.104 0.277471 -1.77849 0
M  V30 4107 H 407.479 -0.158403 -0.735127 0
M  V30 4108 H 409.45 -1.43645 -2.61551 0
M  V30 4109 C 408.199 0.117388 -3.47502 0
M  V30 4110 H 407.522 -0.606277 -3.95176 0
M  V30 4111 H 408.962 0.396993 -4.22137 0
M  V30 4112 C 407.421 1.35455 -3.0847 0
M  V30 4113 O 407.951 2.44944 -3.18379 0
M  V30 4114 N 406.157 1.23191 -2.63196 0
M  V30 4115 H 405.704 0.341006 -2.55333 0
M  V30 4116 H 405.662 2.06071 -2.37449 0
M  V30 4117 N 409.434 1.37368 -0.772513 0
M  V30 4118 C 410.68 1.99969 -0.337681 0
M  V30 4119 C 411.013 1.61184 1.08321 0
M  V30 4120 O 410.288 0.858395 1.74533 0
M  V30 4121 C 410.571 3.56858 -0.482121 0
M  V30 4122 C 410.424 4.0555 -1.94549 0
M  V30 4123 C 411.743 4.39955 0.113143 0
M  V30 4124 H 408.862 0.726464 -0.124171 0
M  V30 4125 H 411.504 1.63034 -0.975699 0
M  V30 4126 H 409.654 3.88452 0.0610361 0
M  V30 4127 H 411.326 3.84518 -2.54841 0
M  V30 4128 H 409.569 3.57715 -2.45403 0
M  V30 4129 H 410.24 5.14587 -1.9976 0
M  V30 4130 H 412.716 4.14623 -0.35031 0
M  V30 4131 H 411.592 5.48897 -0.0180514 0
M  V30 4132 H 411.853 4.25403 1.20354 0
M  V30 4133 N 410.912 0.523116 1.48665 0
M  V30 4134 C 411.862 -0.263106 2.26477 0
M  V30 4135 C 412.846 -0.916005 1.32281 0
M  V30 4136 O 414.038 -0.819946 1.56863 0
M  V30 4137 C 411.167 -1.31361 3.17174 0
M  V30 4138 C 410.253 -0.665849 4.1884 0
M  V30 4139 N 410.644 0.244434 5.05209 0
M  V30 4140 C 408.942 -0.923863 4.36326 0
M  V30 4141 C 409.643 0.617443 5.78414 0
M  V30 4142 N 408.619 -0.0198686 5.43596 0
M  V30 4143 H 412.421 0.437295 2.90629 0
M  V30 4144 H 409.935 0.340675 1.58787 0
M  V30 4145 H 411.932 -1.89052 3.71571 0
M  V30 4146 H 410.592 -2.01546 2.54576 0
M  V30 4147 H 411.603 0.616621 5.14216 0
M  V30 4148 H 408.28 -1.6168 3.84923 0
M  V30 4149 H 409.67 1.36346 6.57921 0
M  V30 4150 N 412.39 -1.55475 0.257931 0
M  V30 4151 C 413.636 -1.99502 -0.364266 0
M  V30 4152 C 413.969 -1.146 -1.56782 0
M  V30 4153 O 413.244 -0.211968 -1.93342 0
M  V30 4154 C 413.527 -3.51917 -0.763333 0
M  V30 4155 C 413.38 -4.4758 0.446371 0
M  V30 4156 C 414.699 -4.09742 -1.60623 0
M  V30 4157 H 411.818 -0.725277 -0.130929 0
M  V30 4158 H 414.46 -1.8653 0.361446 0
M  V30 4159 H 412.61 -3.63101 -1.38166 0
M  V30 4160 H 414.282 -4.48362 1.08487 0
M  V30 4161 H 412.525 -4.19947 1.08753 0
M  V30 4162 H 413.196 -5.51862 0.123645 0
M  V30 4163 H 415.672 -4.01727 -1.08418 0
M  V30 4164 H 414.548 -5.16631 -1.85429 0
M  V30 4165 H 414.809 -3.58889 -2.58169 0
M  V30 4166 N 413.868 0.0150385 -1.57593 0
M  V30 4167 C 415.108 0.70768 -1.91758 0
M  V30 4168 C 415.472 1.71764 -0.857974 0
M  V30 4169 O 416.673 2.45956 -1.0844 0
M  V30 4170 C 414.944 1.34736 -3.3103 0
M  V30 4171 S 416.503 2.06721 -3.87056 0
M  V30 4172 H 413.321 0.234119 -0.671349 0
M  V30 4173 H 415.923 -0.0380373 -1.95463 0
M  V30 4174 H 414.627 0.59926 -4.06001 0
M  V30 4175 H 414.158 2.13133 -3.30663 0
M  V30 4176 H 416.173 3.34047 -3.66915 0
M  V30 4177 N 415.346 1.54954 0.287554 0
M  V30 4178 C 416.594 1.74528 1.01904 0
M  V30 4179 C 416.915 0.541349 1.87335 0
M  V30 4180 O 416.185 -0.444108 1.908 0
M  V30 4181 H 414.765 0.643576 0.379235 0
M  V30 4182 H 417.427 1.92333 0.315294 0
M  V30 4183 H 416.523 2.64015 1.6644 0
M  V30 4184 N 416.824 -0.551391 1.4764 0
M  V30 4185 C 418.072 -1.30572 1.54258 0
M  V30 4186 C 418.393 -1.93877 0.208963 0
M  V30 4187 O 417.663 -1.80234 -0.767619 0
M  V30 4188 H 416.243 -0.484894 0.568231 0
M  V30 4189 H 418.905 -0.643402 1.83974 0
M  V30 4190 H 418.001 -2.09621 2.31226 0
M  V30 4191 N 418.302 -1.35869 -0.798587 0
M  V30 4192 C 419.527 -1.32883 -1.59238 0
M  V30 4193 C 419.952 0.0894587 -1.87887 0
M  V30 4194 O 419.31 1.05869 -1.47178 0
M  V30 4195 C 419.358 -2.14892 -2.89575 0
M  V30 4196 O 418.462 -1.53512 -3.82763 0
M  V30 4197 H 417.803 -0.455236 -0.48338 0
M  V30 4198 H 420.333 -1.79024 -0.990539 0
M  V30 4199 H 420.343 -2.27139 -3.38928 0
M  V30 4200 H 419.018 -3.17998 -2.68049 0
M  V30 4201 H 417.595 -1.50153 -3.41334 0
M  V30 4202 N 419.78 1.02168 -1.19998 0
M  V30 4203 C 421.029 1.75091 -1.0013 0
M  V30 4204 C 421.342 1.89923 0.467835 0
M  V30 4205 O 422.548 2.59888 0.785515 0
M  V30 4206 C 421.004 3.14892 -1.74273 0
M  V30 4207 C 420.612 3.0809 -3.25245 0
M  V30 4208 C 422.356 3.9206 -1.62755 0
M  V30 4209 C 420.263 4.42867 -3.91948 0
M  V30 4210 H 419.193 0.656394 -0.37103 0
M  V30 4211 H 421.844 1.14284 -1.43567 0
M  V30 4212 H 420.226 3.7621 -1.2362 0
M  V30 4213 H 421.4 2.5611 -3.83072 0
M  V30 4214 H 419.715 2.44416 -3.3712 0
M  V30 4215 H 422.312 4.91764 -2.09934 0
M  V30 4216 H 422.655 4.12199 -0.582894 0
M  V30 4217 H 423.188 3.37359 -2.10793 0
M  V30 4218 H 419.927 4.27931 -4.96543 0
M  V30 4219 H 419.447 4.94874 -3.3891 0
M  V30 4220 H 421.126 5.11728 -3.95909 0
M  V30 4221 N 421.258 1.00505 1.21394 0
M  V30 4222 C 422.507 0.683159 1.89778 0
M  V30 4223 C 422.82 -0.789471 1.7896 0
M  V30 4224 O 424.026 -1.22344 2.42372 0
M  V30 4225 C 422.482 1.17146 3.40301 0
M  V30 4226 C 422.09 2.67017 3.5973 0
M  V30 4227 C 423.834 0.924461 4.14311 0
M  V30 4228 C 421.741 3.09387 5.04017 0
M  V30 4229 H 420.671 0.25183 0.710702 0
M  V30 4230 H 423.322 1.21622 1.37406 0
M  V30 4231 H 421.704 0.566451 3.91928 0
M  V30 4232 H 422.878 3.32968 3.18542 0
M  V30 4233 H 421.193 2.89732 2.99073 0
M  V30 4234 H 423.79 1.21658 5.20676 0
M  V30 4235 H 424.133 -0.139286 4.16067 0
M  V30 4236 H 424.666 1.49226 3.6875 0
M  V30 4237 H 421.405 4.14989 5.07409 0
M  V30 4238 H 420.925 2.48149 5.46061 0
M  V30 4239 H 422.604 3.01371 5.72525 0
M  V30 4240 N 422.737 -1.36956 0.779787 0
M  V30 4241 C 423.965 -2.03755 0.359398 0
M  V30 4242 C 424.38 -1.58807 -1.02106 0
M  V30 4243 O 423.737 -0.773024 -1.6532 0
M  V30 4244 C 423.788 -3.59251 0.402568 0
M  V30 4245 O 423.509 -4.02557 1.72858 0
M  V30 4246 C 425.01 -4.43291 -0.0284068 0
M  V30 4247 H 422.23 -0.654148 0.149437 0
M  V30 4248 H 424.774 -1.75128 1.05595 0
M  V30 4249 H 422.929 -3.86621 -0.245478 0
M  V30 4250 H 423.343 -4.97111 1.67275 0
M  V30 4251 H 424.817 -5.51975 0.0529466 0
M  V30 4252 H 425.294 -4.25719 -1.07982 0
M  V30 4253 H 425.9 -4.21163 0.591758 0
M  V30 4254 N 424.215 -0.530993 -1.48385 0
M  V30 4255 C 425.626 -0.0907905 -1.86479 0
M  V30 4256 C 425.977 1.33213 -1.44044 0
M  V30 4257 O 425.102 1.99783 -0.831615 0
M  V30 4258 C 425.697 -0.157987 -3.38431 0
M  V30 4259 C 424.256 0.227026 -3.75715 0
M  V30 4260 C 423.403 -0.5173 -2.72432 0
M  V30 4261 H 426.354 -0.742186 -1.40276 0
M  V30 4262 H 426.375 0.630053 -3.75247 0
M  V30 4263 H 425.887 -1.19372 -3.69286 0
M  V30 4264 H 423.988 1.26486 -3.50474 0
M  V30 4265 H 424.101 -0.113288 -4.78966 0
M  V30 4266 H 422.465 0.0365527 -2.54674 0
M  V30 4267 H 423.248 -1.55368 -3.0613 0
M  V30 4268 N 425.693 1.55336 -0.266172 0
M  V30 4269 C 426.603 2.2583 0.635458 0
M  V30 4270 C 427.619 1.28106 1.17749 0
M  V30 4271 O 428.795 1.61024 1.20968 0
M  V30 4272 C 425.86 2.95879 1.80712 0
M  V30 4273 C 424.921 4.09059 1.30265 0
M  V30 4274 C 424.154 4.75759 2.41846 0
M  V30 4275 O 424.377 4.41622 3.61007 0
M  V30 4276 O 423.311 5.63888 2.1051 0
M  V30 4277 H 427.137 3.03631 0.0646693 0
M  V30 4278 H 424.722 1.49361 -0.0339177 0
M  V30 4279 H 426.604 3.39932 2.49047 0
M  V30 4280 H 425.279 2.21002 2.36516 0
M  V30 4281 H 424.186 3.69482 0.586019 0
M  V30 4282 H 425.519 4.85811 0.790458 0
M  V30 4283 N 427.171 -0.0066808 1.57599 0
M  V30 4284 C 428.417 -0.68835 1.91398 0
M  V30 4285 C 428.772 -1.7175 0.86716 0
M  V30 4286 O 428.065 -1.91215 -0.121475 0
M  V30 4287 C 428.259 -1.37939 3.29708 0
M  V30 4288 C 428.088 -0.418689 4.47747 0
M  V30 4289 C 426.858 -0.031526 5.0529 0
M  V30 4290 C 429.056 0.312301 5.13351 0
M  V30 4291 N 427.038 0.928088 6.06844 0
M  V30 4292 C 428.409 1.12682 6.09674 0
M  V30 4293 C 430.464 0.376853 4.96472 0
M  V30 4294 C 429.167 2 6.90936 0
M  V30 4295 C 431.193 1.23723 5.78314 0
M  V30 4296 C 430.555 2.03962 6.74225 0
M  V30 4297 H 426.654 -0.225292 0.748844 0
M  V30 4298 H 429.238 0.0520973 1.9463 0
M  V30 4299 H 427.409 -2.09017 3.27363 0
M  V30 4300 H 429.141 -2.01522 3.50957 0
M  V30 4301 H 425.896 -0.398485 4.71921 0
M  V30 4302 H 426.32 1.40307 6.62301 0
M  V30 4303 H 430.962 -0.22921 4.22178 0
M  V30 4304 H 428.68 2.61676 7.64559 0
M  V30 4305 H 432.266 1.291 5.67296 0
M  V30 4306 H 431.146 2.69461 7.36451 0
M  V30 4307 N 428.649 -1.55105 -0.279332 0
M  V30 4308 C 429.898 -1.74618 -1.00952 0
M  V30 4309 C 430.211 -0.551096 -1.87676 0
M  V30 4310 O 431.417 -0.628507 -2.64125 0
M  V30 4311 C 429.873 -3.09025 -1.84476 0
M  V30 4312 C 429.481 -4.36081 -1.0265 0
M  V30 4313 C 431.225 -3.37891 -2.56963 0
M  V30 4314 C 429.132 -5.6153 -1.85576 0
M  V30 4315 H 428.062 -0.650868 -0.38064 0
M  V30 4316 H 430.713 -1.81569 -0.265475 0
M  V30 4317 H 429.095 -2.96095 -2.62952 0
M  V30 4318 H 430.269 -4.59909 -0.286354 0
M  V30 4319 H 428.584 -4.14312 -0.416464 0
M  V30 4320 H 431.181 -4.28822 -3.19399 0
M  V30 4321 H 431.524 -2.57737 -3.26921 0
M  V30 4322 H 432.057 -3.5189 -1.85522 0
M  V30 4323 H 428.796 -6.44413 -1.2005 0
M  V30 4324 H 428.316 -5.41854 -2.57204 0
M  V30 4325 H 429.995 -5.99594 -2.43096 0
M  V30 4326 N 430.127 0.543554 -1.4793 0
M  V30 4327 C 431.373 1.30201 -1.55485 0
M  V30 4328 C 431.706 1.92925 -0.222201 0
M  V30 4329 O 430.981 1.78586 0.77053 0
M  V30 4330 C 431.264 2.40174 -2.68307 0
M  V30 4331 C 431.117 1.8223 -4.11233 0
M  V30 4332 C 432.436 3.42024 -2.76961 0
M  V30 4333 H 429.555 0.472036 -0.565996 0
M  V30 4334 H 432.197 0.606914 -1.80046 0
M  V30 4335 H 430.347 2.99463 -2.47495 0
M  V30 4336 H 432.019 1.27096 -4.43446 0
M  V30 4337 H 430.262 1.12832 -4.18869 0
M  V30 4338 H 430.933 2.61793 -4.85972 0
M  V30 4339 H 433.409 2.92672 -2.95774 0
M  V30 4340 H 432.285 4.16383 -3.57654 0
M  V30 4341 H 432.546 4.0173 -1.84568 0
M  V30 4342 N 431.605 1.3629 0.791371 0
M  V30 4343 C 432.833 1.33562 1.58016 0
M  V30 4344 C 433.248 -0.0835616 1.88615 0
M  V30 4345 O 432.605 -1.0399 1.49974 0
M  V30 4346 C 432.656 2.15517 2.90232 0
M  V30 4347 O 432.377 3.51902 2.60953 0
M  V30 4348 C 433.878 2.20546 3.84544 0
M  V30 4349 H 431.098 0.458226 0.490173 0
M  V30 4350 H 433.642 1.79361 0.982345 0
M  V30 4351 H 431.797 1.73278 3.46487 0
M  V30 4352 H 432.211 3.94644 3.4548 0
M  V30 4353 H 433.685 2.82252 4.74382 0
M  V30 4354 H 434.162 1.20838 4.2225 0
M  V30 4355 H 434.768 2.63013 3.34222 0
M  V30 4356 N 433.083 -1.0153 1.20538 0
M  V30 4357 C 434.046 -2.0826 0.957098 0
M  V30 4358 C 435.046 -1.60657 -0.0678655 0
M  V30 4359 O 436.236 -1.73385 0.168332 0
M  V30 4360 C 433.368 -3.38033 0.441188 0
M  V30 4361 H 434.561 -2.31719 1.90384 0
M  V30 4362 H 432.114 -1.1835 1.02093 0
M  V30 4363 H 432.849 -3.20249 -0.510961 0
M  V30 4364 H 432.634 -3.73911 1.18038 0
M  V30 4365 H 434.124 -4.16613 0.287009 0
M  V30 4366 N 434.561 -1.01147 -1.20859 0
M  V30 4367 C 435.524 -0.582224 -2.21682 0
M  V30 4368 C 436.524 0.344887 -1.57058 0
M  V30 4369 O 437.714 0.134281 -1.73682 0
M  V30 4370 C 434.846 0.150496 -3.40568 0
M  V30 4371 H 436.039 -1.47408 -2.61172 0
M  V30 4372 H 433.592 -0.800695 -1.34233 0
M  V30 4373 H 434.327 1.0575 -3.06574 0
M  V30 4374 H 434.112 -0.515444 -3.88697 0
M  V30 4375 H 435.602 0.438344 -4.15293 0
M  V30 4376 N 436.039 1.36541 -0.78704 0
M  V30 4377 C 436.989 2.27459 -0.156957 0
M  V30 4378 C 437.973 1.46843 0.657709 0
M  V30 4379 O 439.165 1.69245 0.518173 0
M  V30 4380 C 436.294 3.35893 0.709278 0
M  V30 4381 C 435.38 4.23947 -0.114049 0
M  V30 4382 N 435.771 4.92145 -1.16736 0
M  V30 4383 C 434.069 4.4587 0.107497 0
M  V30 4384 C 434.77 5.57261 -1.66837 0
M  V30 4385 N 433.746 5.3473 -0.977992 0
M  V30 4386 H 437.548 2.77669 -0.963185 0
M  V30 4387 H 435.062 1.49839 -0.62627 0
M  V30 4388 H 437.059 3.99953 1.17656 0
M  V30 4389 H 435.719 2.87238 1.51408 0
M  V30 4390 H 436.73 4.94169 -1.54976 0
M  V30 4391 H 433.407 4.08056 0.882994 0
M  V30 4392 H 434.797 6.21728 -2.54762 0
M  V30 4393 N 437.518 0.538854 1.48102 0
M  V30 4394 C 438.758 0.0101209 2.04397 0
M  V30 4395 C 439.122 -1.30741 1.40609 0
M  V30 4396 O 440.323 -1.92272 1.87843 0
M  V30 4397 C 438.594 -0.100232 3.57259 0
M  V30 4398 S 440.153 -0.577746 4.3498 0
M  V30 4399 H 436.971 0.0163171 0.710813 0
M  V30 4400 H 439.573 0.721429 1.81702 0
M  V30 4401 H 438.277 0.863351 4.01216 0
M  V30 4402 H 437.808 -0.835651 3.84422 0
M  V30 4403 H 439.823 -1.84073 4.60794 0
M  V30 4404 N 438.996 -1.55193 0.274407 0
M  V30 4405 C 440.242 -1.99877 -0.343086 0
M  V30 4406 C 440.575 -1.16256 -1.55558 0
M  V30 4407 O 439.85 -0.232462 -1.93106 0
M  V30 4408 C 440.133 -3.52706 -0.725965 0
M  V30 4409 C 439.986 -4.47081 0.493818 0
M  V30 4410 C 441.305 -4.11422 -1.56268 0
M  V30 4411 H 438.424 -0.726625 -0.123229 0
M  V30 4412 H 441.066 -1.86136 0.38121 0
M  V30 4413 H 439.216 -3.64546 -1.34307 0
M  V30 4414 H 440.888 -4.47186 1.13237 0
M  V30 4415 H 439.131 -4.1877 1.13201 0
M  V30 4416 H 439.802 -5.51699 0.18217 0
M  V30 4417 H 442.278 -4.02855 -1.04151 0
M  V30 4418 H 441.154 -5.18568 -1.79939 0
M  V30 4419 H 441.415 -3.61607 -2.54348 0
M  V30 4420 N 440.474 -0.00167713 -1.576 0
M  V30 4421 C 441.384 1.00548 -2.1196 0
M  V30 4422 C 442.4 1.3758 -1.06526 0
M  V30 4423 O 443.576 1.46278 -1.38436 0
M  V30 4424 C 440.641 2.27809 -2.6135 0
M  V30 4425 C 439.702 1.97074 -3.81393 0
M  V30 4426 C 438.935 3.18267 -4.28417 0
M  V30 4427 O 439.158 4.30009 -3.74765 0
M  V30 4428 O 438.092 3.02167 -5.20556 0
M  V30 4429 H 441.918 0.573373 -2.98238 0
M  V30 4430 H 439.503 0.217255 -1.47812 0
M  V30 4431 H 441.385 3.02568 -2.93309 0
M  V30 4432 H 440.06 2.70254 -1.78169 0
M  V30 4433 H 438.967 1.19785 -3.54404 0
M  V30 4434 H 440.3 1.59464 -4.65652 0
M  V30 4435 N 441.952 1.55251 0.271103 0
M  V30 4436 C 442.899 1.88261 1.33516 0
M  V30 4437 C 443.869 0.734296 1.48988 0
M  V30 4438 O 445.054 0.985741 1.63364 0
M  V30 4439 C 442.194 2.16168 2.69008 0
M  V30 4440 C 441.307 3.43678 2.61743 0
M  V30 4441 C 440.442 3.61276 3.89427 0
M  V30 4442 C 439.481 4.82472 3.7668 0
M  V30 4443 N 438.618 4.96717 4.96202 0
M  V30 4444 H 443.458 2.79015 1.04665 0
M  V30 4445 H 440.995 1.38137 0.505618 0
M  V30 4446 H 442.953 2.30349 3.47844 0
M  V30 4447 H 441.583 1.28646 2.96057 0
M  V30 4448 H 440.635 3.37959 1.74607 0
M  V30 4449 H 441.947 4.3265 2.48224 0
M  V30 4450 H 441.101 3.75284 4.76704 0
M  V30 4451 H 439.84 2.70492 4.05814 0
M  V30 4452 H 438.845 4.68465 2.87786 0
M  V30 4453 H 440.07 5.74692 3.61809 0
M  V30 4454 H 438.016 4.08865 5.12997 0
M  V30 4455 H 437.933 5.79738 4.85222 0
M  V30 4456 H 439.201 5.15113 5.85046 0
M  V30 4457 N 443.43 -0.535701 1.48216 0
M  V30 4458 C 444.841 -1.11769 1.49548 0
M  V30 4459 C 445.192 -1.94442 0.26207 0
M  V30 4460 O 444.317 -2.06987 -0.631287 0
M  V30 4461 C 444.912 -2.03367 2.70975 0
M  V30 4462 C 443.471 -2.56795 2.75196 0
M  V30 4463 C 442.618 -1.33631 2.42977 0
M  V30 4464 H 445.569 -0.321232 1.55415 0
M  V30 4465 H 445.59 -2.87569 2.49167 0
M  V30 4466 H 445.102 -1.43169 3.60727 0
M  V30 4467 H 443.203 -3.20731 1.89638 0
M  V30 4468 H 443.316 -2.9632 3.76472 0
M  V30 4469 H 441.68 -1.6502 1.94012 0
M  V30 4470 H 442.463 -0.75194 3.34964 0
M  V30 4471 N 444.908 -1.36708 -0.784132 0
M  V30 4472 C 445.838 -1.34153 -1.91116 0
M  V30 4473 C 446.819 -0.212121 -1.68772 0
M  V30 4474 O 448.004 -0.410581 -1.8981 0
M  V30 4475 C 445.134 -1.13535 -3.28218 0
M  V30 4476 C 444.088 -2.23356 -3.65097 0
M  V30 4477 C 443.414 -1.87875 -5.00607 0
M  V30 4478 C 444.714 -3.65473 -3.73131 0
M  V30 4479 H 446.408 -2.28459 -1.93512 0
M  V30 4480 H 443.954 -1.09973 -0.929618 0
M  V30 4481 H 445.907 -1.10381 -4.06687 0
M  V30 4482 H 444.631 -0.156804 -3.26223 0
M  V30 4483 H 443.29 -2.25645 -2.88929 0
M  V30 4484 H 442.938 -0.885814 -4.95139 0
M  V30 4485 H 442.638 -2.61406 -5.26252 0
M  V30 4486 H 444.162 -1.86286 -5.81489 0
M  V30 4487 H 445.576 -3.65382 -4.41779 0
M  V30 4488 H 443.973 -4.37953 -4.10265 0
M  V30 4489 H 445.043 -3.99995 -2.74102 0
M  V30 4490 N 446.386 1.0089 -1.21074 0
M  V30 4491 C 447.334 2.11707 -0.963476 0
M  V30 4492 C 448.328 1.69172 0.0879032 0
M  V30 4493 O 449.534 1.79889 -0.0631415 0
M  V30 4494 H 445.909 0.692026 -0.294287 0
M  V30 4495 H 447.88 2.29743 -1.90422 0
M  V30 4496 C 446.629 3.43473 -0.540509 0
M  V30 4497 H 445.952 3.76634 -1.34114 0
M  V30 4498 H 447.392 4.22044 -0.406777 0
M  V30 4499 C 445.851 3.2849 0.748079 0
M  V30 4500 O 446.381 3.58883 1.8046 0
M  V30 4501 N 444.587 2.81715 0.713081 0
M  V30 4502 H 444.134 2.5718 -0.146973 0
M  V30 4503 H 444.092 2.72071 1.57558 0
M  V30 4504 N 447.864 1.01787 1.20321 0
M  V30 4505 C 448.812 0.58254 2.25187 0
M  V30 4506 C 449.806 -0.379359 1.65098 0
M  V30 4507 O 451.012 -0.249142 1.78267 0
M  V30 4508 H 447.387 0.170078 0.732514 0
M  V30 4509 H 449.358 1.47788 2.59232 0
M  V30 4510 C 448.107 -0.0620885 3.47645 0
M  V30 4511 H 447.43 0.669069 3.94162 0
M  V30 4512 H 448.87 -0.329784 4.22716 0
M  V30 4513 C 447.329 -1.3053 3.10586 0
M  V30 4514 O 447.859 -2.39848 3.22236 0
M  V30 4515 N 446.065 -1.18988 2.65123 0
M  V30 4516 H 445.612 -0.300341 2.55843 0
M  V30 4517 H 445.57 -2.02267 2.40698 0
M  V30 4518 N 449.342 -1.36122 0.79427 0
M  V30 4519 C 450.753 -1.81646 0.431446 0
M  V30 4520 C 451.104 -1.66043 -1.04518 0
M  V30 4521 O 450.229 -1.1841 -1.8113 0
M  V30 4522 C 450.824 -3.29785 0.776341 0
M  V30 4523 C 449.383 -3.73501 0.466282 0
M  V30 4524 C 448.53 -2.58313 1.00844 0
M  V30 4525 H 451.481 -1.24274 0.986995 0
M  V30 4526 H 451.502 -3.80437 0.0692413 0
M  V30 4527 H 451.014 -3.4111 1.8511 0
M  V30 4528 H 449.115 -3.67733 -0.600245 0
M  V30 4529 H 449.228 -4.68754 0.990288 0
M  V30 4530 H 447.592 -2.5102 0.431406 0
M  V30 4531 H 448.375 -2.72421 2.08906 0
M  V30 4532 N 450.82 -0.546701 -1.47814 0
M  V30 4533 C 452.066 -0.0269594 -2.03382 0
M  V30 4534 C 452.421 1.30406 -1.41464 0
M  V30 4535 O 451.714 1.8332 -0.557151 0
M  V30 4536 C 451.908 0.134869 -3.57145 0
M  V30 4537 C 451.737 -1.17891 -4.33972 0
M  V30 4538 C 450.507 -1.74336 -4.74273 0
M  V30 4539 C 452.705 -2.09361 -4.69758 0
M  V30 4540 N 450.687 -2.99829 -5.35701 0
M  V30 4541 C 452.058 -3.19431 -5.31379 0
M  V30 4542 C 454.113 -2.09484 -4.51687 0
M  V30 4543 C 452.816 -4.2971 -5.76838 0
M  V30 4544 C 454.842 -3.18767 -4.98138 0
M  V30 4545 C 454.204 -4.27557 -5.59799 0
M  V30 4546 H 450.303 -0.0517733 -0.780284 0
M  V30 4547 H 452.887 -0.731673 -1.80429 0
M  V30 4548 H 451.058 0.80869 -3.79888 0
M  V30 4549 H 452.79 0.655726 -3.99352 0
M  V30 4550 H 449.545 -1.28265 -4.559 0
M  V30 4551 H 449.969 -3.63765 -5.70968 0
M  V30 4552 H 454.611 -1.26663 -4.03381 0
M  V30 4553 H 452.329 -5.13297 -6.24141 0
M  V30 4554 H 455.915 -3.19937 -4.85934 0
M  V30 4555 H 454.795 -5.10725 -5.95088 0
M  V30 4556 N 452.299 1.55045 -0.282633 0
M  V30 4557 C 453.249 2.19514 0.616249 0
M  V30 4558 C 454.233 1.16216 1.11277 0
M  V30 4559 O 455.425 1.42004 1.05659 0
M  V30 4560 C 452.554 2.92548 1.7964 0
M  V30 4561 C 451.64 4.03142 1.31671 0
M  V30 4562 N 452.031 5.0276 0.553695 0
M  V30 4563 C 450.329 4.1635 1.59903 0
M  V30 4564 C 451.03 5.80923 0.30054 0
M  V30 4565 N 450.006 5.3651 0.875116 0
M  V30 4566 H 453.808 2.93889 0.0255363 0
M  V30 4567 H 451.322 1.62169 -0.0865362 0
M  V30 4568 H 453.319 3.37188 2.45173 0
M  V30 4569 H 451.979 2.19685 2.39099 0
M  V30 4570 H 452.99 5.17512 0.20032 0
M  V30 4571 H 449.667 3.54682 2.20243 0
M  V30 4572 H 451.057 6.7118 -0.311053 0
M  V30 4573 N 453.777 0.010035 1.57597 0
M  V30 4574 C 455.023 -0.668011 1.92118 0
M  V30 4575 C 455.378 -1.70821 0.885328 0
M  V30 4576 O 454.671 -1.91333 -0.101187 0
M  V30 4577 C 454.865 -1.34434 3.31153 0
M  V30 4578 C 454.694 -0.371176 4.48166 0
M  V30 4579 C 453.464 0.0220686 5.05295 0
M  V30 4580 C 455.662 0.366731 5.12991 0
M  V30 4581 N 453.644 0.9924 6.05826 0
M  V30 4582 C 455.015 1.19142 6.08445 0
M  V30 4583 C 457.07 0.429489 4.96044 0
M  V30 4584 C 455.773 2.07317 6.88776 0
M  V30 4585 C 457.799 1.2985 5.76969 0
M  V30 4586 C 457.161 2.11101 6.72023 0
M  V30 4587 H 453.26 -0.217337 0.751192 0
M  V30 4588 H 455.844 0.0727375 1.94564 0
M  V30 4589 H 454.015 -2.05533 3.29561 0
M  V30 4590 H 455.747 -1.97789 3.53075 0
M  V30 4591 H 452.502 -0.348409 4.72317 0
M  V30 4592 H 452.926 1.47324 6.60776 0
M  V30 4593 H 457.568 -0.18442 4.22398 0
M  V30 4594 H 455.286 2.69771 7.61741 0
M  V30 4595 H 458.872 1.3511 5.65894 0
M  V30 4596 H 457.752 2.77257 7.33552 0
M  V30 4597 N 455.255 -1.55392 -0.262866 0
M  V30 4598 C 456.483 -1.80513 -1.01108 0
M  V30 4599 C 456.898 -0.583533 -1.79556 0
M  V30 4600 O 456.255 0.447585 -1.76926 0
M  V30 4601 C 456.306 -3.03648 -1.96164 0
M  V30 4602 O 456.027 -4.2109 -1.20893 0
M  V30 4603 C 457.528 -3.41448 -2.82715 0
M  V30 4604 H 454.748 -0.601079 -0.298236 0
M  V30 4605 H 457.292 -2.02425 -0.290582 0
M  V30 4606 H 455.447 -2.83832 -2.63663 0
M  V30 4607 H 455.861 -4.90771 -1.85051 0
M  V30 4608 H 457.335 -4.30751 -3.45192 0
M  V30 4609 H 457.812 -2.61308 -3.53008 0
M  V30 4610 H 458.418 -3.63559 -2.20693 0
M  V30 4611 N 456.733 0.527833 -1.48498 0
M  V30 4612 C 457.696 1.61439 -1.62696 0
M  V30 4613 C 458.696 1.52824 -0.500136 0
M  V30 4614 O 459.886 1.56456 -0.765976 0
M  V30 4615 C 457.018 3.01063 -1.59918 0
M  V30 4616 H 458.211 1.50189 -2.59583 0
M  V30 4617 H 455.764 0.750055 -1.37127 0
M  V30 4618 H 456.499 3.17818 -0.645163 0
M  V30 4619 H 456.284 3.08725 -2.41726 0
M  V30 4620 H 457.774 3.80057 -1.73051 0
M  V30 4621 N 458.211 1.37122 0.776871 0
M  V30 4622 C 459.458 1.32047 1.53524 0
M  V30 4623 C 459.786 -0.0965631 1.9426 0
M  V30 4624 O 459.041 -1.06866 1.63945 0
M  V30 4625 C 459.34 2.20068 2.81611 0
M  V30 4626 C 459.006 3.68423 2.59953 0
M  V30 4627 C 457.668 4.08854 2.53755 0
M  V30 4628 C 460.02 4.62431 2.40431 0
M  V30 4629 C 457.348 5.41417 2.26018 0
M  V30 4630 C 459.7 5.95225 2.14219 0
M  V30 4631 C 458.364 6.34767 2.06462 0
M  V30 4632 H 457.634 0.483196 0.561785 0
M  V30 4633 H 460.281 1.69284 0.895268 0
M  V30 4634 H 458.586 1.75809 3.50141 0
M  V30 4635 H 460.283 2.13458 3.39465 0
M  V30 4636 H 456.873 3.36354 2.65638 0
M  V30 4637 H 461.057 4.32057 2.44213 0
M  V30 4638 H 456.313 5.71022 2.18504 0
M  V30 4639 H 460.487 6.67626 1.98112 0
M  V30 4640 H 458.114 7.37413 1.84733 0
M  V30 4641 N 459.689 -1.00246 1.21608 0
M  V30 4642 C 460.652 -2.07233 0.979133 0
M  V30 4643 C 461.652 -1.6072 -0.0508219 0
M  V30 4644 O 462.842 -1.73196 0.186712 0
M  V30 4645 C 459.974 -3.37546 0.477016 0
M  V30 4646 H 461.167 -2.29687 1.92831 0
M  V30 4647 H 458.72 -1.17261 1.03342 0
M  V30 4648 H 459.455 -3.20773 -0.476966 0
M  V30 4649 H 459.24 -3.72638 1.21997 0
M  V30 4650 H 460.73 -4.16285 0.331181 0
M  V30 4651 N 461.167 -1.02423 -1.1978 0
M  V30 4652 C 462.415 -0.716569 -1.8897 0
M  V30 4653 C 462.736 0.756769 -1.79716 0
M  V30 4654 O 462.006 1.5449 -1.20456 0
M  V30 4655 H 460.586 -0.262062 -0.699523 0
M  V30 4656 H 463.248 -1.29747 -1.45436 0
M  V30 4657 H 462.344 -1.00675 -2.95417 0
M  V30 4658 N 462.645 1.35699 -0.801477 0
M  V30 4659 C 463.894 1.98165 -0.375979 0
M  V30 4660 C 464.207 1.64306 1.06127 0
M  V30 4661 O 465.413 2.20097 1.58964 0
M  V30 4662 C 463.869 3.54497 -0.621305 0
M  V30 4663 C 463.477 3.9727 -2.07076 0
M  V30 4664 C 465.221 4.23697 -0.26091 0
M  V30 4665 C 463.128 5.46427 -2.26211 0
M  V30 4666 H 462.058 0.741478 -0.136844 0
M  V30 4667 H 464.709 1.54834 -0.984814 0
M  V30 4668 H 463.091 3.95958 0.0574112 0
M  V30 4669 H 464.265 3.66974 -2.78687 0
M  V30 4670 H 462.58 3.40943 -2.39054 0
M  V30 4671 H 465.177 5.33334 -0.381994 0
M  V30 4672 H 465.52 4.0869 0.792344 0
M  V30 4673 H 466.053 3.87639 -0.893339 0
M  V30 4674 H 462.792 5.66396 -3.29963 0
M  V30 4675 H 462.312 5.78309 -1.59119 0
M  V30 4676 H 463.991 6.12819 -2.07513 0
M  V30 4677 N 464.123 0.554532 1.47522 0
M  V30 4678 C 465.053 -0.182974 2.32782 0
M  V30 4679 C 466.034 -0.911377 1.43624 0
M  V30 4680 O 467.219 -0.892366 1.72483 0
M  V30 4681 C 464.349 -1.21513 3.25349 0
M  V30 4682 C 463.303 -0.603355 4.23726 0
M  V30 4683 C 462.629 -1.73995 5.05598 0
M  V30 4684 C 463.929 0.441121 5.20434 0
M  V30 4685 H 465.623 0.52882 2.94693 0
M  V30 4686 H 463.169 0.255759 1.41711 0
M  V30 4687 H 465.122 -1.73922 3.83835 0
M  V30 4688 H 463.846 -1.95683 2.61487 0
M  V30 4689 H 462.505 -0.10059 3.66462 0
M  V30 4690 H 462.153 -2.47063 4.38143 0
M  V30 4691 H 461.853 -1.3364 5.72201 0
M  V30 4692 H 463.377 -2.26735 5.66942 0
M  V30 4693 H 464.791 0.00319931 5.733 0
M  V30 4694 H 463.188 0.763402 5.95224 0
M  V30 4695 H 464.258 1.33799 4.66075 0
M  V30 4696 N 465.601 -1.54893 0.290851 0
M  V30 4697 C 467.017 -1.59476 -0.0628432 0
M  V30 4698 C 467.217 -1.30795 -1.5328 0
M  V30 4699 O 466.273 -1.07644 -2.28406 0
M  V30 4700 C 467.586 -2.98928 0.325962 0
M  V30 4701 C 469.134 -3.11799 0.273882 0
M  V30 4702 C 469.609 -4.53544 0.637359 0
M  V30 4703 N 471.1 -4.59433 0.589507 0
M  V30 4704 C 471.835 -5.67164 0.84335 0
M  V30 4705 N 471.331 -6.82975 1.16263 0
M  V30 4706 N 473.124 -5.56786 0.771091 0
M  V30 4707 H 465.275 -1.71798 1.24896 0
M  V30 4708 H 467.538 -0.801879 0.505663 0
M  V30 4709 H 467.244 -3.24805 1.34887 0
M  V30 4710 H 467.118 -3.75793 -0.325441 0
M  V30 4711 H 469.505 -2.85677 -0.739765 0
M  V30 4712 H 469.586 -2.37112 0.959766 0
M  V30 4713 H 469.23 -4.80394 1.64877 0
M  V30 4714 H 469.16 -5.26553 -0.0704866 0
M  V30 4715 H 471.651 -3.76245 0.353252 0
M  V30 4716 H 471.964 -7.61048 1.34257 0
M  V30 4717 H 470.309 -6.84552 1.20057 0
M  V30 4718 H 473.5 -4.65187 0.521383 0
M  V30 4719 H 473.673 -6.40664 0.972295 0
M  V30 4720 N 467.08 -0.0183926 -1.57589 0
M  V30 4721 C 468.012 0.995557 -2.06449 0
M  V30 4722 C 469.025 1.29556 -0.985849 0
M  V30 4723 O 470.214 1.2621 -1.26227 0
M  V30 4724 C 467.314 2.32572 -2.46502 0
M  V30 4725 C 466.487 2.21245 -3.77319 0
M  V30 4726 C 465.546 3.37104 -4.04039 0
M  V30 4727 O 464.572 3.14468 -4.74445 0
M  V30 4728 N 465.774 4.60553 -3.53372 0
M  V30 4729 H 468.539 0.578746 -2.94059 0
M  V30 4730 H 466.1 0.168603 -1.6102 0
M  V30 4731 H 468.092 3.08887 -2.61478 0
M  V30 4732 H 466.662 2.65931 -1.64315 0
M  V30 4733 H 465.882 1.29723 -3.72244 0
M  V30 4734 H 467.17 2.10868 -4.63047 0
M  V30 4735 H 466.568 4.81839 -2.96391 0
M  V30 4736 H 465.125 5.34072 -3.73644 0
M  V30 4737 N 468.558 1.5553 0.254621 0
M  V30 4738 C 469.783 1.81383 1.00573 0
M  V30 4739 C 470.208 0.594419 1.78461 0
M  V30 4740 O 469.566 -0.456403 1.75461 0
M  V30 4741 C 469.614 3.04892 1.92545 0
M  V30 4742 O 468.718 2.81266 3.01601 0
M  V30 4743 H 468.059 0.598969 0.286587 0
M  V30 4744 H 470.589 2.02703 0.277952 0
M  V30 4745 H 470.599 3.34119 2.34155 0
M  V30 4746 H 469.274 3.93287 1.3527 0
M  V30 4747 H 467.851 2.63185 2.64174 0
M  V30 4748 N 470.036 -0.519951 1.48776 0
M  V30 4749 C 471.283 -1.27522 1.57303 0
M  V30 4750 C 471.611 -1.92869 0.251328 0
M  V30 4751 O 470.866 -1.80372 -0.759243 0
M  V30 4752 C 471.165 -2.37864 2.6675 0
M  V30 4753 C 470.831 -1.90103 4.08867 0
M  V30 4754 C 469.493 -1.76795 4.47546 0
M  V30 4755 C 471.845 -1.54133 4.97888 0
M  V30 4756 C 469.173 -1.25868 5.73039 0
M  V30 4757 C 471.525 -1.04665 6.23881 0
M  V30 4758 C 470.189 -0.899823 6.61407 0
M  V30 4759 H 469.459 -0.466636 0.575614 0
M  V30 4760 H 472.106 -0.579109 1.82534 0
M  V30 4761 H 470.411 -3.13186 2.35418 0
M  V30 4762 H 472.108 -2.95969 2.70561 0
M  V30 4763 H 468.698 -2.01414 3.78326 0
M  V30 4764 H 472.882 -1.6327 4.68675 0
M  V30 4765 H 468.138 -1.13196 6.0083 0
M  V30 4766 H 472.312 -0.759074 6.92251 0
M  V30 4767 H 469.939 -0.503011 7.58534 0
M  V30 4768 N 471.514 -1.37532 -0.769588 0
M  V30 4769 C 472.447 -1.27839 -1.8903 0
M  V30 4770 C 473.425 -0.158504 -1.61826 0
M  V30 4771 O 474.609 -0.333086 -1.85534 0
M  V30 4772 C 471.736 -0.977072 -3.24301 0
M  V30 4773 C 470.782 -2.11414 -3.70414 0
M  V30 4774 S 471.615 -3.73409 -3.83831 0
M  V30 4775 C 472.771 -3.45432 -5.21946 0
M  V30 4776 H 473.004 -2.22694 -1.96963 0
M  V30 4777 H 470.537 -1.2318 -0.930914 0
M  V30 4778 H 472.495 -0.810049 -4.02428 0
M  V30 4779 H 471.156 -0.0459701 -3.14066 0
M  V30 4780 H 470.349 -1.85837 -4.68488 0
M  V30 4781 H 469.951 -2.24141 -2.99394 0
M  V30 4782 H 472.243 -3.00554 -6.07185 0
M  V30 4783 H 473.186 -4.42841 -5.52537 0
M  V30 4784 H 473.594 -2.80311 -4.89986 0
M  V30 4785 N 472.992 0.995999 -1.22138 0
M  V30 4786 C 474.239 1.7351 -1.04406 0
M  V30 4787 C 474.567 1.89884 0.421244 0
M  V30 4788 O 473.822 1.43683 1.32867 0
M  V30 4789 C 474.121 3.14553 -1.6968 0
M  V30 4790 C 473.787 3.18102 -3.19565 0
M  V30 4791 C 472.449 3.18778 -3.60464 0
M  V30 4792 C 474.801 3.14636 -4.15516 0
M  V30 4793 C 472.129 3.13684 -4.95801 0
M  V30 4794 C 474.481 3.11084 -5.50826 0
M  V30 4795 C 473.145 3.10074 -5.91109 0
M  V30 4796 H 472.415 0.634916 -0.38205 0
M  V30 4797 H 475.062 1.1667 -1.51857 0
M  V30 4798 H 473.367 3.74682 -1.14546 0
M  V30 4799 H 475.064 3.70477 -1.53454 0
M  V30 4800 H 471.654 3.18324 -2.86998 0
M  V30 4801 H 475.838 3.13266 -3.84939 0
M  V30 4802 H 471.094 3.11245 -5.26247 0
M  V30 4803 H 475.268 3.07357 -6.24904 0
M  V30 4804 H 472.895 3.05882 -6.95946 0
M  V30 4805 N 474.47 1.03057 1.19235 0
M  V30 4806 C 475.7 0.746613 1.92638 0
M  V30 4807 C 476.108 -0.698708 1.75826 0
M  V30 4808 O 475.451 -1.487 1.07861 0
M  V30 4809 C 475.513 1.02024 3.44719 0
M  V30 4810 C 475.177 2.45745 3.85303 0
M  V30 4811 C 476.174 3.43887 3.8992 0
M  V30 4812 C 473.859 2.8019 4.16892 0
M  V30 4813 C 475.853 4.74529 4.2556 0
M  V30 4814 C 473.54 4.1104 4.52205 0
M  V30 4815 C 474.538 5.0802 4.56513 0
M  V30 4816 O 474.226 6.36527 4.91008 0
M  V30 4817 H 473.958 0.272401 0.618687 0
M  V30 4818 H 476.512 1.37853 1.52269 0
M  V30 4819 H 474.742 0.331184 3.85279 0
M  V30 4820 H 476.431 0.725677 3.9936 0
M  V30 4821 H 477.197 3.18614 3.65664 0
M  V30 4822 H 473.076 2.05382 4.12722 0
M  V30 4823 H 476.62 5.50222 4.28838 0
M  V30 4824 H 472.517 4.36086 4.7592 0
M  V30 4825 H 473.285 6.41025 5.08949 0
M  V30 4826 N 475.948 -1.35272 0.808662 0
M  V30 4827 C 477.196 -1.98316 0.389233 0
M  V30 4828 C 477.517 -1.64465 -1.04767 0
M  V30 4829 O 476.787 -0.928175 -1.72516 0
M  V30 4830 H 475.367 -0.733585 0.140935 0
M  V30 4831 H 478.029 -1.6515 1.03496 0
M  V30 4832 H 477.125 -3.08123 0.496631 0
M  V30 4833 N 477.426 -0.562348 -1.47226 0
M  V30 4834 C 478.389 0.172056 -2.28553 0
M  V30 4835 C 479.389 0.837928 -1.37242 0
M  V30 4836 O 480.579 0.693001 -1.59822 0
M  V30 4837 C 477.711 1.25223 -3.17068 0
M  V30 4838 H 478.904 -0.542401 -2.94954 0
M  V30 4839 H 476.457 -0.319493 -1.53 0
M  V30 4840 H 477.192 1.99892 -2.55369 0
M  V30 4841 H 476.977 0.779515 -3.84273 0
M  V30 4842 H 478.467 1.76791 -3.78332 0
M  V30 4843 N 478.904 1.54736 -0.299062 0
M  V30 4844 C 480.152 1.99706 0.31017 0
M  V30 4845 C 480.473 1.18896 1.54559 0
M  V30 4846 O 479.743 0.284445 1.93824 0
M  V30 4847 H 478.323 0.737686 0.117596 0
M  V30 4848 H 480.985 1.9054 -0.409943 0
M  V30 4849 H 480.081 3.06596 0.58355 0
M  V30 4850 N 480.382 0.0267497 1.57577 0
M  V30 4851 C 481.612 -0.6617 1.95717 0
M  V30 4852 C 482.02 -1.66331 0.901706 0
M  V30 4853 O 481.363 -1.83273 -0.125241 0
M  V30 4854 C 481.425 -1.42649 3.29987 0
M  V30 4855 C 481.089 -0.583482 4.5326 0
M  V30 4856 C 482.086 0.140221 5.19711 0
M  V30 4857 C 479.771 -0.521581 4.99585 0
M  V30 4858 C 481.765 0.914523 6.30805 0
M  V30 4859 C 479.452 0.256428 6.10562 0
M  V30 4860 C 480.45 0.973189 6.76031 0
M  V30 4861 O 480.138 1.73845 7.84878 0
M  V30 4862 H 479.87 -0.187483 0.649481 0
M  V30 4863 H 482.424 0.0820847 2.05236 0
M  V30 4864 H 480.654 -2.21536 3.16952 0
M  V30 4865 H 482.343 -2.00282 3.53047 0
M  V30 4866 H 483.109 0.101716 4.84893 0
M  V30 4867 H 478.988 -1.06904 4.48433 0
M  V30 4868 H 482.532 1.4745 6.81839 0
M  V30 4869 H 478.429 0.296657 6.44818 0
M  V30 4870 H 479.197 1.65797 8.01532 0
M  V30 4871 N 481.861 -1.55662 -0.24637 0
M  V30 4872 C 482.793 -1.86811 -1.32794 0
M  V30 4873 C 483.806 -0.754413 -1.44265 0
M  V30 4874 O 484.995 -1.03253 -1.45606 0
M  V30 4875 C 482.095 -2.0397 -2.70646 0
M  V30 4876 C 481.268 -3.34832 -2.81436 0
M  V30 4877 C 480.327 -3.41727 -4.00136 0
M  V30 4878 O 479.353 -4.14934 -3.89639 0
M  V30 4879 N 480.555 -2.71058 -5.1333 0
M  V30 4880 H 483.32 -2.80174 -1.06409 0
M  V30 4881 H 480.881 -1.55906 -0.43647 0
M  V30 4882 H 482.873 -2.05924 -3.48393 0
M  V30 4883 H 481.443 -1.1735 -2.89738 0
M  V30 4884 H 480.663 -3.4519 -1.90361 0
M  V30 4885 H 481.951 -4.21085 -2.85595 0
M  V30 4886 H 481.349 -2.11314 -5.2475 0
M  V30 4887 H 479.906 -2.78704 -5.89209 0
M  V30 4888 N 483.339 0.512053 -1.4905 0
M  V30 4889 C 484.585 1.26874 -1.58212 0
M  V30 4890 C 484.918 1.9241 -0.263073 0
M  V30 4891 O 484.193 1.80181 0.732476 0
M  V30 4892 C 484.476 2.34428 -2.73341 0
M  V30 4893 C 484.329 1.73466 -4.15006 0
M  V30 4894 C 485.648 3.36073 -2.84154 0
M  V30 4895 H 482.767 0.459924 -0.575881 0
M  V30 4896 H 485.409 0.568587 -1.81293 0
M  V30 4897 H 483.559 2.94146 -2.53792 0
M  V30 4898 H 485.231 1.17661 -4.46042 0
M  V30 4899 H 483.474 1.03921 -4.21168 0
M  V30 4900 H 484.145 2.51426 -4.91415 0
M  V30 4901 H 486.621 2.86332 -3.01916 0
M  V30 4902 H 485.497 4.08703 -3.66406 0
M  V30 4903 H 485.758 3.97725 -1.93048 0
M  V30 4904 N 484.817 1.37938 0.762283 0
M  V30 4905 C 485.727 1.36681 1.90671 0
M  V30 4906 C 486.743 0.265078 1.71969 0
M  V30 4907 O 487.919 0.502055 1.95042 0
M  V30 4908 C 484.984 1.18211 3.25925 0
M  V30 4909 C 484.045 2.3811 3.57214 0
M  V30 4910 C 483.278 2.20512 4.86014 0
M  V30 4911 O 483.501 1.19429 5.57757 0
M  V30 4912 O 482.435 3.08911 5.16583 0
M  V30 4913 H 486.261 2.33091 1.94685 0
M  V30 4914 H 483.846 1.18767 0.906356 0
M  V30 4915 H 485.728 1.09937 4.06807 0
M  V30 4916 H 484.403 0.248807 3.22742 0
M  V30 4917 H 483.31 2.51958 2.76529 0
M  V30 4918 H 484.643 3.30041 3.65149 0
M  V30 4919 N 486.295 -0.989507 1.22664 0
M  V30 4920 C 487.242 -2.08024 0.999733 0
M  V30 4921 C 488.212 -1.65909 -0.0797047 0
M  V30 4922 O 489.397 -1.90669 0.0705715 0
M  V30 4923 C 486.537 -3.40067 0.587234 0
M  V30 4924 C 485.65 -3.95505 1.73781 0
M  V30 4925 C 484.785 -5.15722 1.27297 0
M  V30 4926 C 483.824 -5.63305 2.39488 0
M  V30 4927 N 482.961 -6.74758 1.94026 0
M  V30 4928 H 487.801 -2.26768 1.9334 0
M  V30 4929 H 485.338 -1.11171 0.963297 0
M  V30 4930 H 487.296 -4.15899 0.329227 0
M  V30 4931 H 485.926 -3.21314 -0.309426 0
M  V30 4932 H 484.978 -3.16513 2.11006 0
M  V30 4933 H 486.29 -4.26797 2.58158 0
M  V30 4934 H 485.444 -5.98854 0.972546 0
M  V30 4935 H 484.183 -4.86061 0.399445 0
M  V30 4936 H 483.188 -4.78759 2.70315 0
M  V30 4937 H 484.413 -5.94988 3.27362 0
M  V30 4938 H 482.359 -6.46874 1.09041 0
M  V30 4939 H 482.276 -7.05386 2.71968 0
M  V30 4940 H 483.544 -7.61387 1.67062 0
M  V30 4941 N 487.773 -1.03688 -1.18687 0
M  V30 4942 C 489.019 -0.739123 -1.88851 0
M  V30 4943 C 489.352 0.731042 -1.79915 0
M  V30 4944 O 488.627 1.53313 -1.19688 0
M  V30 4945 C 488.91 -1.20106 -3.3948 0
M  V30 4946 C 488.763 -2.73304 -3.57246 0
M  V30 4947 C 490.082 -0.788134 -4.32986 0
M  V30 4948 H 487.201 -0.269978 -0.68577 0
M  V30 4949 H 489.843 -1.28822 -1.3966 0
M  V30 4950 H 487.993 -0.733915 -3.81505 0
M  V30 4951 H 489.665 -3.28027 -3.24339 0
M  V30 4952 H 487.908 -3.13313 -3.00029 0
M  V30 4953 H 488.579 -3.00684 -4.62918 0
M  V30 4954 H 491.055 -1.19005 -3.98719 0
M  V30 4955 H 489.931 -1.13915 -5.36949 0
M  V30 4956 H 490.192 0.308988 -4.41019 0
M  V30 4957 N 489.251 1.34841 -0.815825 0
M  V30 4958 C 490.5 1.97755 -0.396976 0
M  V30 4959 C 490.813 1.65422 1.04379 0
M  V30 4960 O 492.019 2.21771 1.5662 0
M  V30 4961 C 490.475 3.53818 -0.658869 0
M  V30 4962 C 490.083 3.95051 -2.11278 0
M  V30 4963 C 491.827 4.23397 -0.305834 0
M  V30 4964 C 489.734 5.43997 -2.31994 0
M  V30 4965 H 488.664 0.739985 -0.1447 0
M  V30 4966 H 491.315 1.53781 -1.00118 0
M  V30 4967 H 489.697 3.95997 0.0154112 0
M  V30 4968 H 490.871 3.63998 -2.82564 0
M  V30 4969 H 489.186 3.38388 -2.42657 0
M  V30 4970 H 491.783 5.32899 -0.43854 0
M  V30 4971 H 492.126 4.09508 0.748952 0
M  V30 4972 H 492.659 3.8667 -0.934403 0
M  V30 4973 H 489.398 5.62865 -3.35952 0
M  V30 4974 H 488.918 5.76589 -1.65244 0
M  V30 4975 H 490.597 6.10584 -2.14001 0
M  V30 4976 N 490.729 0.570148 1.46925 0
M  V30 4977 C 491.954 0.0542592 2.07329 0
M  V30 4978 C 492.379 -1.23582 1.41806 0
M  V30 4979 O 491.737 -1.74341 0.497479 0
M  V30 4980 C 491.785 -0.111175 3.60429 0
M  V30 4981 O 490.889 -1.17071 3.95434 0
M  V30 4982 H 490.23 0.0571425 0.661537 0
M  V30 4983 H 492.76 0.789516 1.88753 0
M  V30 4984 H 492.77 -0.321315 4.06733 0
M  V30 4985 H 491.445 0.831012 4.07513 0
M  V30 4986 H 490.022 -0.940029 3.60857 0
M  V30 4987 N 492.207 -1.54576 0.307264 0
M  V30 4988 C 493.157 -2.20467 -0.581249 0
M  V30 4989 C 494.141 -1.17972 -1.09414 0
M  V30 4990 O 495.333 -1.43667 -1.03387 0
M  V30 4991 C 492.462 -2.95369 -1.74963 0
M  V30 4992 C 491.548 -4.05186 -1.25241 0
M  V30 4993 N 491.939 -5.03577 -0.47364 0
M  V30 4994 C 490.237 -4.18841 -1.53259 0
M  V30 4995 C 490.938 -5.81328 -0.208083 0
M  V30 4996 N 489.914 -5.37834 -0.789651 0
M  V30 4997 H 493.716 -2.93892 0.0212221 0
M  V30 4998 H 491.23 -1.62011 0.112325 0
M  V30 4999 H 493.227 -3.41046 -2.39777 0
M  V30 5000 H 491.887 -2.23461 -2.35574 0
M  V30 5001 H 492.898 -5.17766 -0.117963 0
M  V30 5002 H 489.575 -3.58141 -2.14573 0
M  V30 5003 H 490.965 -6.706 0.417793 0
M  V30 5004 N 493.685 -0.035106 -1.57561 0
M  V30 5005 C 495.096 0.502885 -1.798 0
M  V30 5006 C 495.447 1.71892 -0.945921 0
M  V30 5007 O 494.572 2.15822 -0.157991 0
M  V30 5008 C 495.167 0.919097 -3.26095 0
M  V30 5009 C 493.726 1.40216 -3.49308 0
M  V30 5010 C 492.873 0.369709 -2.74824 0
M  V30 5011 H 495.824 -0.261102 -1.56537 0
M  V30 5012 H 495.845 1.78308 -3.36135 0
M  V30 5013 H 495.357 0.0338526 -3.88085 0
M  V30 5014 H 493.458 2.30714 -2.92578 0
M  V30 5015 H 493.571 1.40541 -4.58023 0
M  V30 5016 H 491.935 0.839113 -2.40481 0
M  V30 5017 H 492.718 -0.507173 -3.39533 0
M  V30 5018 N 495.163 1.55791 0.238111 0
M  V30 5019 C 496.111 1.91885 1.31464 0
M  V30 5020 C 497.105 0.798929 1.49377 0
M  V30 5021 O 498.311 0.983626 1.50747 0
M  V30 5022 H 494.686 0.609551 0.440399 0
M  V30 5023 H 496.657 2.81747 0.982925 0
M  V30 5024 C 495.406 2.23763 2.6613 0
M  V30 5025 H 494.729 3.09444 2.53149 0
M  V30 5026 H 496.169 2.52915 3.40309 0
M  V30 5027 C 494.628 1.05699 3.1989 0
M  V30 5028 O 495.158 0.309524 4.00506 0
M  V30 5029 N 493.364 0.845251 2.78036 0
M  V30 5030 H 492.911 1.4548 2.12588 0
M  V30 5031 H 492.869 0.0569973 3.14348 0
M  V30 5032 N 496.642 -0.504142 1.49319 0
M  V30 5033 C 497.872 -1.28071 1.62116 0
M  V30 5034 C 498.28 -1.86955 0.290566 0
M  V30 5035 O 497.623 -1.68415 -0.733616 0
M  V30 5036 C 497.685 -2.4521 2.62893 0
M  V30 5037 C 497.349 -2.07218 4.0732 0
M  V30 5038 C 498.346 -1.61375 4.94221 0
M  V30 5039 C 496.031 -2.16949 4.53033 0
M  V30 5040 C 498.025 -1.25763 6.2487 0
M  V30 5041 C 495.712 -1.80949 5.83696 0
M  V30 5042 C 496.71 -1.3543 6.69438 0
M  V30 5043 O 496.398 -0.99915 7.97667 0
M  V30 5044 H 496.13 -0.394763 0.54876 0
M  V30 5045 H 498.684 -0.612118 1.96067 0
M  V30 5046 H 496.914 -3.15134 2.24115 0
M  V30 5047 H 498.603 -3.0724 2.65252 0
M  V30 5048 H 499.369 -1.53306 4.60133 0
M  V30 5049 H 495.248 -2.5133 3.86463 0
M  V30 5050 H 498.792 -0.901631 6.91749 0
M  V30 5051 H 494.689 -1.88667 6.17313 0
M  V30 5052 H 495.457 -1.13089 8.1065 0
M  V30 5053 N 498.12 -1.38341 -0.754957 0
M  V30 5054 C 499.397 -1.24995 -1.50451 0
M  V30 5055 C 499.777 0.149244 -2.10572 0
M  V30 5056 O 499.125 1.15861 -1.96948 0
M  V30 5057 C 499.335 -2.35904 -2.57197 0
M  V30 5058 C 500.683 -2.74262 -3.24138 0
M  V30 5059 O 501.707 -2.35205 -2.67501 0
M  V30 5060 O 500.566 -3.4161 -4.26574 0
M  V30 5061 H 497.66 -0.48872 -0.667144 0
M  V30 5062 H 500.206 -1.50165 -0.790486 0
M  V30 5063 H 498.978 -3.2953 -2.11011 0
M  V30 5064 H 498.601 -2.12291 -3.36182 0
M  V30 5065 N 499.598 0.982988 -1.23187 0
M  V30 5066 C 500.823 1.76455 -1.08988 0
M  V30 5067 C 501.248 1.84726 0.354691 0
M  V30 5068 O 500.606 1.30699 1.25649 0
M  V30 5069 C 500.654 3.17094 -1.71708 0
M  V30 5070 O 499.758 4.00648 -0.977477 0
M  V30 5071 H 499.099 0.542988 -0.382177 0
M  V30 5072 H 501.629 1.23413 -1.63188 0
M  V30 5073 H 501.639 3.67684 -1.76841 0
M  V30 5074 H 500.314 3.10389 -2.76823 0
M  V30 5075 H 498.891 3.59161 -1.0029 0
M  V30 5076 N 501.076 1.04316 1.18135 0
M  V30 5077 C 502.023 0.636398 2.21853 0
M  V30 5078 C 502.993 -0.357039 1.62217 0
M  V30 5079 O 504.178 -0.250453 1.89149 0
M  V30 5080 C 501.318 0.00812779 3.45099 0
M  V30 5081 C 500.431 1.04933 4.19062 0
M  V30 5082 C 499.566 0.389313 5.29771 0
M  V30 5083 C 498.605 1.41544 5.9551 0
M  V30 5084 N 497.742 0.78021 6.97751 0
M  V30 5085 H 502.582 1.52536 2.56002 0
M  V30 5086 H 500.119 0.76304 1.25762 0
M  V30 5087 H 502.077 -0.373497 4.15525 0
M  V30 5088 H 500.707 -0.844336 3.11562 0
M  V30 5089 H 499.759 1.54888 3.47439 0
M  V30 5090 H 501.071 1.82862 4.64072 0
M  V30 5091 H 500.225 -0.0463805 6.06682 0
M  V30 5092 H 498.964 -0.422038 4.8587 0
M  V30 5093 H 497.969 1.86124 5.17337 0
M  V30 5094 H 499.194 2.22854 6.41493 0
M  V30 5095 H 497.14 -0.0107899 6.55999 0
M  V30 5096 H 497.057 1.49716 7.41027 0
M  V30 5097 H 498.325 0.368996 7.78626 0
M  V30 5098 N 502.554 -1.34406 0.822964 0
M  V30 5099 C 503.782 -2.02508 0.424039 0
M  V30 5100 C 504.197 -1.61975 -0.970022 0
M  V30 5101 O 503.554 -0.825228 -1.62777 0
M  V30 5102 C 503.605 -3.57789 0.516657 0
M  V30 5103 O 503.326 -3.96853 1.85577 0
M  V30 5104 C 504.827 -4.43157 0.112637 0
M  V30 5105 H 502.047 -0.649063 0.170173 0
M  V30 5106 H 504.591 -1.7168 1.11113 0
M  V30 5107 H 502.746 -3.87207 -0.122353 0
M  V30 5108 H 503.16 -4.91538 1.83005 0
M  V30 5109 H 504.634 -5.51527 0.228526 0
M  V30 5110 H 505.111 -4.28939 -0.943837 0
M  V30 5111 H 505.717 -4.19067 0.725449 0
M  V30 5112 N 504.032 -0.577932 -1.46621 0
M  V30 5113 C 504.979 0.158048 -2.30258 0
M  V30 5114 C 505.949 0.888669 -1.40328 0
M  V30 5115 O 507.134 0.880283 -1.6928 0
M  V30 5116 C 504.274 1.16884 -3.24703 0
M  V30 5117 C 503.387 0.442163 -4.29731 0
M  V30 5118 C 502.522 1.44007 -5.11308 0
M  V30 5119 C 501.561 0.69952 -6.0809 0
M  V30 5120 N 500.698 1.64525 -6.82551 0
M  V30 5121 H 505.538 -0.561242 -2.92667 0
M  V30 5122 H 503.075 -0.288591 -1.44241 0
M  V30 5123 H 505.033 1.7677 -3.779 0
M  V30 5124 H 503.663 1.85591 -2.64113 0
M  V30 5125 H 502.715 -0.271632 -3.79429 0
M  V30 5126 H 504.027 -0.136992 -4.98612 0
M  V30 5127 H 503.181 2.11186 -5.68758 0
M  V30 5128 H 501.92 2.05315 -4.42377 0
M  V30 5129 H 500.925 0.0139217 -5.49798 0
M  V30 5130 H 502.15 0.091894 -6.79038 0
M  V30 5131 H 500.096 2.24653 -6.16334 0
M  V30 5132 H 500.013 1.11878 -7.47676 0
M  V30 5133 H 501.281 2.30754 -7.44562 0
M  V30 5134 N 505.51 1.54411 -0.315457 0
M  V30 5135 C 506.458 2.25514 0.569771 0
M  V30 5136 C 507.452 1.2663 1.12522 0
M  V30 5137 O 508.658 1.44434 1.07419 0
M  V30 5138 H 505.033 0.724257 0.202376 0
M  V30 5139 H 507.004 2.98354 -0.0522895 0
M  V30 5140 C 505.753 3.02004 1.72305 0
M  V30 5141 H 505.076 3.77906 1.30488 0
M  V30 5142 H 506.516 3.55014 2.31821 0
M  V30 5143 C 504.975 2.09822 2.63583 0
M  V30 5144 O 505.505 1.67574 3.65078 0
M  V30 5145 N 503.711 1.75478 2.31637 0
M  V30 5146 H 503.258 2.10032 1.49145 0
M  V30 5147 H 503.216 1.14079 2.92973 0
M  V30 5148 N 506.988 0.0434614 1.5754 0
M  V30 5149 C 507.936 -0.951465 2.1225 0
M  V30 5150 C 508.93 -1.3274 1.05245 0
M  V30 5151 O 510.136 -1.30795 1.23663 0
M  V30 5152 H 506.511 -0.324667 0.678303 0
M  V30 5153 H 508.482 -0.464855 2.94757 0
M  V30 5154 C 507.231 -2.21972 2.67626 0
M  V30 5155 H 506.554 -1.93923 3.4962 0
M  V30 5156 H 507.994 -2.89765 3.09536 0
M  V30 5157 C 506.453 -2.95919 1.61038 0
M  V30 5158 O 506.983 -3.8857 1.01862 0
M  V30 5159 N 505.189 -2.58511 1.32741 0
M  V30 5160 H 504.736 -1.83244 1.81051 0
M  V30 5161 H 504.694 -3.08296 0.616531 0
M  V30 5162 N 508.466 -1.55915 -0.229846 0
M  V30 5163 C 509.743 -1.6932 -0.979295 0
M  V30 5164 C 510.123 -0.588321 -2.02736 0
M  V30 5165 O 509.471 0.40586 -2.24867 0
M  V30 5166 C 509.681 -3.10305 -1.59724 0
M  V30 5167 C 511.029 -3.6945 -2.09264 0
M  V30 5168 O 512.053 -3.13214 -1.69633 0
M  V30 5169 O 510.912 -4.68072 -2.82082 0
M  V30 5170 H 508.006 -0.689314 -0.456919 0
M  V30 5171 H 510.552 -1.68238 -0.222283 0
M  V30 5172 H 509.324 -3.82177 -0.840039 0
M  V30 5173 H 508.947 -3.1547 -2.42001 0
M  V30 5174 N 509.944 0.496216 -1.49584 0
M  V30 5175 C 511.193 1.24668 -1.58558 0
M  V30 5176 C 511.506 1.9359 -0.279703 0
M  V30 5177 O 512.712 2.70365 -0.248048 0
M  V30 5178 C 511.168 2.26388 -2.79779 0
M  V30 5179 C 510.776 1.63384 -4.17145 0
M  V30 5180 C 512.52 3.02233 -2.98086 0
M  V30 5181 C 510.427 2.63243 -5.29582 0
M  V30 5182 H 509.357 0.468995 -0.590389 0
M  V30 5183 H 512.008 0.519985 -1.75978 0
M  V30 5184 H 510.39 3.02241 -2.55863 0
M  V30 5185 H 511.564 0.93491 -4.51216 0
M  V30 5186 H 509.879 0.999121 -4.04236 0
M  V30 5187 H 512.476 3.76919 -3.79257 0
M  V30 5188 H 512.819 3.60132 -2.08831 0
M  V30 5189 H 513.352 2.33495 -3.22063 0
M  V30 5190 H 510.091 2.10119 -6.20911 0
M  V30 5191 H 509.611 3.31363 -4.99959 0
M  V30 5192 H 511.29 3.25575 -5.59115 0
M  V30 5193 N 511.423 1.38739 0.74761 0
M  V30 5194 C 512.386 1.36241 1.84312 0
M  V30 5195 C 513.386 0.261811 1.58654 0
M  V30 5196 O 514.576 0.519031 1.66288 0
M  V30 5197 C 511.708 1.12253 3.21888 0
M  V30 5198 H 512.901 2.33712 1.87933 0
M  V30 5199 H 510.454 1.2412 0.949946 0
M  V30 5200 H 511.189 0.154133 3.23934 0
M  V30 5201 H 510.974 1.91943 3.41907 0
M  V30 5202 H 512.464 1.13215 4.0196 0
M  V30 5203 N 512.901 -0.976442 1.23707 0
M  V30 5204 C 513.831 -2.08749 1.04624 0
M  V30 5205 C 514.812 -1.70057 -0.0380956 0
M  V30 5206 O 515.997 -1.93782 0.127308 0
M  V30 5207 C 513.127 -3.41335 0.640902 0
M  V30 5208 C 512.081 -3.93947 1.67302 0
M  V30 5209 C 511.407 -5.22774 1.12301 0
M  V30 5210 C 512.707 -4.22769 3.06697 0
M  V30 5211 H 514.401 -2.24972 1.97555 0
M  V30 5212 H 511.947 -1.08108 0.951247 0
M  V30 5213 H 513.9 -4.18489 0.494434 0
M  V30 5214 H 512.624 -3.24988 -0.324099 0
M  V30 5215 H 511.283 -3.18941 1.80755 0
M  V30 5216 H 510.931 -5.0278 0.148877 0
M  V30 5217 H 510.631 -5.58942 1.81267 0
M  V30 5218 H 512.155 -6.02546 0.988479 0
M  V30 5219 H 513.569 -4.90659 2.96524 0
M  V30 5220 H 511.966 -4.70147 3.72937 0
M  V30 5221 H 513.036 -3.29885 3.55392 0
M  V30 5222 N 514.379 -1.04941 -1.1758 0
M  V30 5223 C 515.312 -0.592518 -2.20373 0
M  V30 5224 C 516.29 0.377561 -1.58156 0
M  V30 5225 O 517.474 0.28978 -1.86259 0
M  V30 5226 C 514.601 0.133215 -3.38438 0
M  V30 5227 C 513.647 -0.791484 -4.19092 0
M  V30 5228 S 514.48 -2.27925 -4.84572 0
M  V30 5229 C 515.636 -1.56462 -6.06028 0
M  V30 5230 H 515.869 -1.46342 -2.58788 0
M  V30 5231 H 513.402 -0.861148 -1.28155 0
M  V30 5232 H 515.36 0.545746 -4.06856 0
M  V30 5233 H 514.021 0.980124 -2.98416 0
M  V30 5234 H 513.214 -0.230039 -5.03475 0
M  V30 5235 H 512.816 -1.14326 -3.56098 0
M  V30 5236 H 515.108 -0.862539 -6.71987 0
M  V30 5237 H 516.051 -2.38583 -6.66696 0
M  V30 5238 H 516.459 -1.05313 -5.5459 0
M  V30 5239 N 515.857 1.33968 -0.830081 0
M  V30 5240 C 516.804 2.29387 -0.255008 0
M  V30 5241 C 517.774 1.53923 0.624243 0
M  V30 5242 O 518.959 1.82262 0.564372 0
M  V30 5243 C 516.099 3.4034 0.571209 0
M  V30 5244 C 515.212 4.30729 -0.331083 0
M  V30 5245 C 514.347 5.2879 0.505389 0
M  V30 5246 C 513.386 6.10819 -0.395843 0
M  V30 5247 N 512.523 7.00948 0.401979 0
M  V30 5248 H 517.363 2.77972 -1.07404 0
M  V30 5249 H 514.9 1.36785 -0.541133 0
M  V30 5250 H 516.858 4.03361 1.06562 0
M  V30 5251 H 515.488 2.9297 1.35529 0
M  V30 5252 H 514.54 3.68507 -0.943759 0
M  V30 5253 H 515.852 4.88181 -1.02377 0
M  V30 5254 H 515.006 5.97297 1.06399 0
M  V30 5255 H 513.745 4.71894 1.23155 0
M  V30 5256 H 512.75 5.41238 -0.966529 0
M  V30 5257 H 513.975 6.69797 -1.12023 0
M  V30 5258 H 511.921 6.46512 1.11168 0
M  V30 5259 H 511.838 7.55643 -0.232167 0
M  V30 5260 H 513.106 7.73774 0.943102 0
M  V30 5261 N 517.335 0.585699 1.46312 0
M  V30 5262 C 518.265 -0.133556 2.33118 0
M  V30 5263 C 519.246 -0.880707 1.45525 0
M  V30 5264 O 520.431 -0.855579 1.74337 0
M  V30 5265 C 517.561 -1.14585 3.27853 0
M  V30 5266 C 516.515 -0.513341 4.2491 0
M  V30 5267 C 515.841 -1.63231 5.09175 0
M  V30 5268 C 517.141 0.551413 5.19381 0
M  V30 5269 H 518.835 0.59121 2.93505 0
M  V30 5270 H 516.381 0.285761 1.41136 0
M  V30 5271 H 518.334 -1.65741 3.87438 0
M  V30 5272 H 517.058 -1.90093 2.65579 0
M  V30 5273 H 515.717 -0.0228349 3.66593 0
M  V30 5274 H 515.365 -2.37713 4.43285 0
M  V30 5275 H 515.065 -1.21473 5.74907 0
M  V30 5276 H 516.589 -2.14658 5.71624 0
M  V30 5277 H 518.003 0.124804 5.73164 0
M  V30 5278 H 516.4 0.889486 5.93471 0
M  V30 5279 H 517.47 1.43655 4.63132 0
M  V30 5280 N 518.813 -1.54241 0.323641 0
M  V30 5281 C 519.745 -2.21836 -0.576311 0
M  V30 5282 C 520.758 -1.21837 -1.07979 0
M  V30 5283 O 521.947 -1.48306 -0.99336 0
M  V30 5284 C 519.047 -2.86923 -1.80356 0
M  V30 5285 C 518.22 -4.1306 -1.43875 0
M  V30 5286 C 517.279 -4.6174 -2.52353 0
M  V30 5287 O 516.305 -5.26421 -2.16494 0
M  V30 5288 N 517.507 -4.35974 -3.83284 0
M  V30 5289 H 520.272 -2.997 0.00247987 0
M  V30 5290 H 517.833 -1.61233 0.146848 0
M  V30 5291 H 519.825 -3.16414 -2.52318 0
M  V30 5292 H 518.395 -2.12765 -2.29019 0
M  V30 5293 H 517.615 -3.90334 -0.550752 0
M  V30 5294 H 518.903 -4.95148 -1.17071 0
M  V30 5295 H 518.301 -3.84203 -4.15216 0
M  V30 5296 H 516.858 -4.70119 -4.51477 0
M  V30 5297 N 520.291 -0.0518155 -1.57515 0
M  V30 5298 C 521.238 0.922352 -2.11569 0
M  V30 5299 C 522.208 1.30842 -1.02321 0
M  V30 5300 O 523.393 1.39778 -1.29872 0
M  V30 5301 C 520.533 2.19167 -2.6657 0
M  V30 5302 C 519.646 1.86003 -3.89906 0
M  V30 5303 C 518.781 3.07398 -4.33221 0
M  V30 5304 C 517.82 2.70158 -5.49255 0
M  V30 5305 N 516.957 3.84248 -5.8762 0
M  V30 5306 H 521.797 0.454506 -2.94514 0
M  V30 5307 H 519.334 0.212718 -1.45554 0
M  V30 5308 H 521.292 2.93443 -2.96559 0
M  V30 5309 H 519.922 2.63528 -1.86421 0
M  V30 5310 H 518.974 1.01874 -3.66505 0
M  V30 5311 H 520.286 1.54592 -4.74239 0
M  V30 5312 H 519.44 3.89972 -4.64765 0
M  V30 5313 H 518.179 3.41988 -3.477 0
M  V30 5314 H 517.184 1.86001 -5.17382 0
M  V30 5315 H 518.409 2.36759 -6.36492 0
M  V30 5316 H 516.355 4.18638 -5.05053 0
M  V30 5317 H 516.272 3.56538 -6.66646 0
M  V30 5318 H 517.54 4.6746 -6.2378 0
M  V30 5319 N 521.769 1.56035 0.221574 0
M  V30 5320 C 523.18 1.69229 0.788567 0
M  V30 5321 C 523.531 0.653814 1.84986 0
M  V30 5322 O 522.656 -0.195065 2.15519 0
M  V30 5323 C 523.251 3.06809 1.43713 0
M  V30 5324 C 521.81 3.21858 1.95152 0
M  V30 5325 C 520.957 2.65155 0.811685 0
M  V30 5326 H 523.908 1.587 -0.00307894 0
M  V30 5327 H 523.929 3.02666 2.30594 0
M  V30 5328 H 523.441 3.82369 0.664475 0
M  V30 5329 H 521.542 2.51167 2.7522 0
M  V30 5330 H 521.655 4.29073 2.1315 0
M  V30 5331 H 520.019 2.23635 1.21899 0
M  V30 5332 H 520.802 3.43261 0.0516987 0
M  V30 5333 N 523.247 -0.488276 1.49845 0
M  V30 5334 C 524.177 -1.59675 1.70371 0
M  V30 5335 C 525.158 -1.60878 0.552473 0
M  V30 5336 O 526.343 -1.77417 0.78973 0
M  V30 5337 C 523.473 -2.98098 1.782 0
M  V30 5338 C 522.427 -3.11761 2.93239 0
M  V30 5339 C 521.753 -4.51661 2.86193 0
M  V30 5340 C 523.053 -2.90589 4.33999 0
M  V30 5341 H 524.747 -1.42752 2.63177 0
M  V30 5342 H 522.293 -0.685317 1.26647 0
M  V30 5343 H 524.246 -3.75555 1.91144 0
M  V30 5344 H 522.97 -3.16138 0.820018 0
M  V30 5345 H 521.629 -2.36732 2.79917 0
M  V30 5346 H 521.277 -4.66595 1.87877 0
M  V30 5347 H 520.977 -4.61742 3.63412 0
M  V30 5348 H 522.501 -5.31162 3.01163 0
M  V30 5349 H 523.915 -3.57807 4.47936 0
M  V30 5350 H 522.312 -3.1213 5.12538 0
M  V30 5351 H 523.382 -1.86595 4.4756 0
M  V30 5352 N 524.725 -1.39134 -0.740242 0
M  V30 5353 C 525.953 -1.39334 -1.5295 0
M  V30 5354 C 526.368 0.0135008 -1.88795 0
M  V30 5355 O 525.725 0.983524 -1.5373 0
M  V30 5356 C 525.776 -2.2614 -2.82034 0
M  V30 5357 O 525.497 -3.61345 -2.47712 0
M  V30 5358 C 526.998 -2.34666 -3.76094 0
M  V30 5359 H 524.218 -0.476103 -0.472828 0
M  V30 5360 H 526.762 -1.82883 -0.9151 0
M  V30 5361 H 524.917 -1.86018 -3.39818 0
M  V30 5362 H 525.331 -4.07194 -3.30595 0
M  V30 5363 H 526.805 -2.99663 -4.63579 0
M  V30 5364 H 527.282 -1.36426 -4.17474 0
M  V30 5365 H 527.888 -2.75236 -3.2423 0
M  V30 5366 N 526.204 0.969867 -1.24223 0
M  V30 5367 C 527.451 1.71256 -1.08063 0
M  V30 5368 C 527.779 1.90734 0.380872 0
M  V30 5369 O 527.034 1.46469 1.29789 0
M  V30 5370 C 527.333 3.10883 -1.76314 0
M  V30 5371 C 526.999 3.11252 -3.26241 0
M  V30 5372 C 525.661 3.1106 -3.67144 0
M  V30 5373 C 528.013 3.05751 -4.22097 0
M  V30 5374 C 525.341 3.03097 -5.02344 0
M  V30 5375 C 527.693 2.9933 -5.57301 0
M  V30 5376 C 526.357 2.97466 -5.97554 0
M  V30 5377 H 525.627 0.62667 -0.395431 0
M  V30 5378 H 528.274 1.13422 -1.54297 0
M  V30 5379 H 526.579 3.72168 -1.22468 0
M  V30 5380 H 528.276 3.67138 -1.61277 0
M  V30 5381 H 524.866 3.12165 -2.93685 0
M  V30 5382 H 529.05 3.05031 -3.91497 0
M  V30 5383 H 524.306 3.00013 -5.32731 0
M  V30 5384 H 528.48 2.94033 -6.31283 0
M  V30 5385 H 526.107 2.91051 -7.02277 0
M  V30 5386 N 527.682 1.05563 1.17022 0
M  V30 5387 C 528.63 0.653887 2.2322 0
M  V30 5388 C 529.624 -0.326642 1.66221 0
M  V30 5389 O 530.83 -0.192301 1.7897 0
M  V30 5390 H 527.205 0.193297 0.726733 0
M  V30 5391 H 529.176 1.5596 2.54399 0
M  V30 5392 C 527.925 0.0485434 3.47666 0
M  V30 5393 H 527.248 0.79413 3.91834 0
M  V30 5394 H 528.688 -0.195133 4.23551 0
M  V30 5395 C 527.147 -1.20583 3.14581 0
M  V30 5396 O 527.677 -2.29475 3.29703 0
M  V30 5397 N 525.883 -1.10493 2.68774 0
M  V30 5398 H 525.43 -0.218795 2.56669 0
M  V30 5399 H 525.388 -1.94507 2.47011 0
M  V30 5400 N 529.16 -1.33526 0.837174 0
M  V30 5401 C 530.437 -1.92369 0.354065 0
M  V30 5402 C 530.817 -1.76348 -1.16038 0
M  V30 5403 O 530.165 -1.15083 -1.97403 0
M  V30 5404 C 530.375 -3.39728 0.799101 0
M  V30 5405 C 531.723 -4.16877 0.806139 0
M  V30 5406 O 532.747 -3.48373 0.742597 0
M  V30 5407 O 531.606 -5.39166 0.892345 0
M  V30 5408 H 528.7 -0.820952 0.0998378 0
M  V30 5409 H 531.246 -1.42409 0.922913 0
M  V30 5410 H 530.018 -3.45254 1.84162 0
M  V30 5411 H 529.641 -3.97062 0.206731 0
M  V30 5412 N 530.638 -0.59345 -1.46 0
M  V30 5413 C 531.568 0.121192 -2.33185 0
M  V30 5414 C 532.549 0.872977 -1.4599 0
M  V30 5415 O 533.734 0.846321 -1.74789 0
M  V30 5416 C 530.864 1.12844 -3.28456 0
M  V30 5417 C 529.818 0.4908 -4.25177 0
M  V30 5418 C 529.144 1.60529 -5.10034 0
M  V30 5419 C 530.444 -0.578949 -5.19081 0
M  V30 5420 H 532.138 -0.606767 -2.93187 0
M  V30 5421 H 529.684 -0.293242 -1.40983 0
M  V30 5422 H 531.637 1.63684 -3.88311 0
M  V30 5423 H 530.361 1.88681 -2.66584 0
M  V30 5424 H 529.02 0.00339328 -3.666 0
M  V30 5425 H 528.668 2.35359 -4.44539 0
M  V30 5426 H 528.368 1.18422 -5.75543 0
M  V30 5427 H 529.892 2.11623 -5.72755 0
M  V30 5428 H 531.306 -0.155199 -5.7309 0
M  V30 5429 H 529.703 -0.920947 -5.92991 0
M  V30 5430 H 530.773 -1.46109 -4.62364 0
M  V30 5431 N 532.116 1.54067 -0.331816 0
M  V30 5432 C 533.362 2.01012 0.268667 0
M  V30 5433 C 533.695 1.2195 1.51136 0
M  V30 5434 O 532.97 0.303972 1.9211 0
M  V30 5435 C 533.253 3.55158 0.59456 0
M  V30 5436 C 533.106 4.4494 -0.659409 0
M  V30 5437 C 534.425 4.16939 1.4089 0
M  V30 5438 H 531.544 0.730698 0.0961756 0
M  V30 5439 H 534.186 1.84593 -0.450031 0
M  V30 5440 H 532.336 3.6928 1.20685 0
M  V30 5441 H 534.008 4.42675 -1.29756 0
M  V30 5442 H 532.251 4.1428 -1.28665 0
M  V30 5443 H 532.922 5.50643 -0.386804 0
M  V30 5444 H 535.398 4.06443 0.891272 0
M  V30 5445 H 534.274 5.24889 1.60569 0
M  V30 5446 H 534.535 3.70798 2.40752 0
M  V30 5447 N 533.594 0.0601682 1.57485 0
M  V30 5448 C 534.541 -0.91112 2.12055 0
M  V30 5449 C 535.511 -1.30298 1.03013 0
M  V30 5450 O 536.696 -1.39087 1.30612 0
M  V30 5451 C 533.836 -2.1775 2.67729 0
M  V30 5452 C 532.949 -1.83933 3.90887 0
M  V30 5453 C 532.084 -3.05096 4.34845 0
M  V30 5454 C 531.123 -2.67241 5.5068 0
M  V30 5455 N 530.26 -3.81127 5.8965 0
M  V30 5456 H 535.1 -0.43888 2.9475 0
M  V30 5457 H 532.637 -0.204995 1.45665 0
M  V30 5458 H 534.595 -2.91866 2.98111 0
M  V30 5459 H 533.225 -2.62535 1.87816 0
M  V30 5460 H 532.277 -0.999287 3.6704 0
M  V30 5461 H 533.589 -1.52074 4.75052 0
M  V30 5462 H 532.743 -3.87502 4.66827 0
M  V30 5463 H 531.482 -3.40139 3.49509 0
M  V30 5464 H 530.487 -1.83254 5.18361 0
M  V30 5465 H 531.712 -2.3338 6.37738 0
M  V30 5466 H 529.658 -4.15954 5.07266 0
M  V30 5467 H 529.575 -3.52997 6.68528 0
M  V30 5468 H 530.843 -4.64145 6.2625 0
M  V30 5469 N 535.072 -1.5615 -0.213296 0
M  V30 5470 C 536.483 -1.69645 -0.779582 0
M  V30 5471 C 536.834 -0.663615 -1.84636 0
M  V30 5472 O 535.959 0.183633 -2.15619 0
M  V30 5473 C 536.554 -3.07567 -1.42084 0
M  V30 5474 C 535.113 -3.22889 -1.93442 0
M  V30 5475 C 534.26 -2.65581 -0.797612 0
M  V30 5476 H 537.211 -1.58696 0.0114951 0
M  V30 5477 H 537.232 -3.03884 -2.28986 0
M  V30 5478 H 536.744 -3.82716 -0.644187 0
M  V30 5479 H 534.845 -2.52623 -2.73884 0
M  V30 5480 H 534.958 -4.30197 -2.10872 0
M  V30 5481 H 533.322 -2.24278 -1.20712 0
M  V30 5482 H 534.105 -3.43284 -0.033494 0
M  V30 5483 N 536.55 0.480323 -1.50102 0
M  V30 5484 C 537.796 1.23489 -1.60867 0
M  V30 5485 C 538.129 1.91809 -0.303827 0
M  V30 5486 O 537.404 1.81694 0.694092 0
M  V30 5487 C 537.687 2.28578 -2.78252 0
M  V30 5488 C 537.54 1.64624 -4.18592 0
M  V30 5489 C 538.859 3.2997 -2.91218 0
M  V30 5490 H 535.978 0.447605 -0.585507 0
M  V30 5491 H 538.62 0.530005 -1.82458 0
M  V30 5492 H 536.77 2.88697 -2.59974 0
M  V30 5493 H 538.442 1.08173 -4.48438 0
M  V30 5494 H 536.685 0.949645 -4.23278 0
M  V30 5495 H 537.356 2.40946 -4.96638 0
M  V30 5496 H 539.832 2.79864 -3.07921 0
M  V30 5497 H 538.708 4.00839 -3.74993 0
M  V30 5498 H 538.969 3.93541 -2.0144 0
M  V30 5499 N 538.028 1.39524 0.732853 0
M  V30 5500 C 539.268 1.383 1.50508 0
M  V30 5501 C 539.632 -0.0208271 1.91989 0
M  V30 5502 O 540.833 -0.158091 2.68335 0
M  V30 5503 C 539.104 2.33007 2.71003 0
M  V30 5504 S 540.663 2.49989 3.60626 0
M  V30 5505 H 537.481 0.490417 0.514794 0
M  V30 5506 H 540.083 1.75641 0.858524 0
M  V30 5507 H 538.787 3.33862 2.38672 0
M  V30 5508 H 538.318 1.96889 3.40585 0
M  V30 5509 H 540.333 1.7394 4.64714 0
M  V30 5510 N 539.506 -0.963266 1.24736 0
M  V30 5511 C 540.436 -2.07628 1.06832 0
M  V30 5512 C 541.417 -1.70088 -0.0200566 0
M  V30 5513 O 542.602 -1.93636 0.147854 0
M  V30 5514 C 539.732 -3.40636 0.677069 0
M  V30 5515 C 538.686 -3.9215 1.71471 0
M  V30 5516 C 538.012 -5.21553 1.1784 0
M  V30 5517 C 539.312 -4.19493 3.11164 0
M  V30 5518 H 541.006 -2.22864 1.9993 0
M  V30 5519 H 538.552 -1.07093 0.96266 0
M  V30 5520 H 540.505 -4.17941 0.538792 0
M  V30 5521 H 539.229 -3.25313 -0.289612 0
M  V30 5522 H 537.888 -3.17005 1.84128 0
M  V30 5523 H 537.536 -5.02593 0.202195 0
M  V30 5524 H 537.236 -5.56988 1.87185 0
M  V30 5525 H 538.76 -6.01463 1.05233 0
M  V30 5526 H 540.174 -4.87487 3.01711 0
M  V30 5527 H 538.571 -4.66165 3.77902 0
M  V30 5528 H 539.641 -3.26097 3.58871 0
M  V30 5529 N 540.985 -1.06182 -1.16461 0
M  V30 5530 C 542.396 -0.802426 -1.68576 0
M  V30 5531 C 542.747 0.67412 -1.84255 0
M  V30 5532 O 541.872 1.52303 -1.5373 0
M  V30 5533 C 542.467 -1.45002 -3.06202 0
M  V30 5534 C 541.026 -1.23843 -3.55443 0
M  V30 5535 C 540.173 -1.52724 -2.31454 0
M  V30 5536 H 543.124 -1.22545 -1.00839 0
M  V30 5537 H 543.145 -0.864731 -3.70544 0
M  V30 5538 H 542.657 -2.52466 -2.94759 0
M  V30 5539 H 540.758 -0.183487 -3.72148 0
M  V30 5540 H 540.871 -1.95036 -4.37604 0
M  V30 5541 H 539.235 -0.947726 -2.36411 0
M  V30 5542 H 540.018 -2.61343 -2.22609 0
M  V30 5543 N 542.463 1.3308 -0.844243 0
M  V30 5544 C 543.411 2.31028 -0.269954 0
M  V30 5545 C 544.405 1.58381 0.600997 0
M  V30 5546 O 545.611 1.73203 0.48996 0
M  V30 5547 H 541.986 0.748866 -0.0685782 0
M  V30 5548 H 543.957 2.76967 -1.11049 0
M  V30 5549 C 542.706 3.43549 0.535676 0
M  V30 5550 H 542.029 3.99604 -0.125202 0
M  V30 5551 H 543.469 4.14267 0.903262 0
M  V30 5552 C 541.928 2.8988 1.71672 0
M  V30 5553 O 542.458 2.86511 2.81557 0
M  V30 5554 N 540.664 2.46416 1.54037 0
M  V30 5555 H 540.211 2.49356 0.64649 0
M  V30 5556 H 540.169 2.1086 2.33207 0
M  V30 5557 N 543.941 0.601185 1.45683 0
M  V30 5558 C 545.352 0.179659 1.85834 0
M  V30 5559 C 545.703 -1.26189 1.50236 0
M  V30 5560 O 544.828 -1.95587 0.925987 0
M  V30 5561 C 545.423 0.319277 3.37292 0
M  V30 5562 C 543.982 -0.0475092 3.7637 0
M  V30 5563 C 543.129 0.646692 2.69654 0
M  V30 5564 H 546.08 0.808268 1.36575 0
M  V30 5565 H 546.101 -0.4503 3.77826 0
M  V30 5566 H 545.613 1.36855 3.6317 0
M  V30 5567 H 543.714 -1.0962 3.5611 0
M  V30 5568 H 543.827 0.34168 4.7788 0
M  V30 5569 H 542.191 0.0849971 2.54558 0
M  V30 5570 H 542.974 1.69797 2.98369 0
M  V30 5571 N 545.419 -1.53889 0.339982 0
M  V30 5572 C 546.667 -2.00458 -0.257112 0
M  V30 5573 C 546.988 -1.22953 -1.51353 0
M  V30 5574 O 546.258 -0.335734 -1.93002 0
M  V30 5575 H 544.838 -0.740544 -0.0979965 0
M  V30 5576 H 547.5 -1.89386 0.460317 0
M  V30 5577 H 546.596 -3.08035 -0.502057 0
M  V30 5578 N 546.897 -0.0685191 -1.57451 0
M  V30 5579 C 547.83 0.935736 -2.08133 0
M  V30 5580 C 548.808 1.29317 -0.985698 0
M  V30 5581 O 549.992 1.40304 -1.25886 0
M  V30 5582 C 547.119 2.2448 -2.53627 0
M  V30 5583 C 546.165 2.03917 -3.74593 0
M  V30 5584 S 546.998 1.30154 -5.19442 0
M  V30 5585 C 548.154 2.62346 -5.68265 0
M  V30 5586 H 548.387 0.504473 -2.92989 0
M  V30 5587 H 545.92 0.144169 -1.53725 0
M  V30 5588 H 547.878 2.99718 -2.80499 0
M  V30 5589 H 546.539 2.64731 -1.69045 0
M  V30 5590 H 545.732 3.00788 -4.04404 0
M  V30 5591 H 545.334 1.36815 -3.48077 0
M  V30 5592 H 547.626 3.58448 -5.7491 0
M  V30 5593 H 548.569 2.3715 -6.67207 0
M  V30 5594 H 548.977 2.69401 -4.96068 0
M  V30 5595 N 548.375 1.56261 0.205012 0
M  V30 5596 C 549.308 1.88797 1.28183 0
M  V30 5597 C 550.286 0.747018 1.44424 0
M  V30 5598 O 551.47 0.997039 1.59973 0
M  V30 5599 C 548.597 2.10949 2.64987 0
M  V30 5600 C 547.643 3.33649 2.6567 0
M  V30 5601 S 548.476 4.89078 2.18088 0
M  V30 5602 C 549.632 5.14286 3.56736 0
M  V30 5603 H 549.865 2.79837 1.00393 0
M  V30 5604 H 547.398 1.48911 0.408042 0
M  V30 5605 H 549.356 2.24395 3.4374 0
M  V30 5606 H 548.017 1.20678 2.89993 0
M  V30 5607 H 547.21 3.46245 3.66239 0
M  V30 5608 H 546.812 3.19146 1.94992 0
M  V30 5609 H 549.104 5.04198 4.52537 0
M  V30 5610 H 550.047 6.16096 3.49043 0
M  V30 5611 H 550.455 4.41957 3.51189 0
M  V30 5612 N 549.853 -0.472356 1.50355 0
M  V30 5613 C 550.783 -1.57859 1.72055 0
M  V30 5614 C 551.764 -1.60283 0.569505 0
M  V30 5615 O 552.949 -1.7657 0.808503 0
M  V30 5616 C 550.079 -2.96191 1.81351 0
M  V30 5617 C 549.033 -3.08633 2.96529 0
M  V30 5618 C 548.359 -4.486 2.90968 0
M  V30 5619 C 549.659 -2.85969 4.37057 0
M  V30 5620 H 551.353 -1.39953 2.64676 0
M  V30 5621 H 548.899 -0.671846 1.27367 0
M  V30 5622 H 550.852 -3.73507 1.95117 0
M  V30 5623 H 549.576 -3.15251 0.853502 0
M  V30 5624 H 548.235 -2.33749 2.82413 0
M  V30 5625 H 547.883 -4.64577 1.92815 0
M  V30 5626 H 547.583 -4.57861 3.68289 0
M  V30 5627 H 549.107 -5.27938 3.0678 0
M  V30 5628 H 550.521 -3.53036 4.51706 0
M  V30 5629 H 548.918 -3.06677 5.15819 0
M  V30 5630 H 549.988 -1.81838 4.49514 0
M  V30 5631 N 551.331 -1.39911 -0.725443 0
M  V30 5632 C 552.263 -1.35301 -1.85003 0
M  V30 5633 C 553.276 -0.260102 -1.60709 0
M  V30 5634 O 554.465 -0.519749 -1.70766 0
M  V30 5635 C 551.565 -1.08039 -3.21218 0
M  V30 5636 C 550.738 -2.28793 -3.7279 0
M  V30 5637 C 549.797 -1.97841 -4.87591 0
M  V30 5638 O 548.823 -2.70616 -5.00755 0
M  V30 5639 N 550.025 -0.950367 -5.72668 0
M  V30 5640 H 552.79 -2.32218 -1.89459 0
M  V30 5641 H 550.351 -1.34137 -0.90658 0
M  V30 5642 H 552.343 -0.853354 -3.95601 0
M  V30 5643 H 550.913 -0.198229 -3.11971 0
M  V30 5644 H 550.133 -2.67388 -2.8965 0
M  V30 5645 H 551.421 -3.09317 -4.03981 0
M  V30 5646 H 550.819 -0.347436 -5.64632 0
M  V30 5647 H 549.376 -0.783232 -6.47077 0
M  V30 5648 N 552.809 0.956637 -1.25245 0
M  V30 5649 C 554.22 1.51569 -1.09012 0
M  V30 5650 C 554.571 1.93322 0.334813 0
M  V30 5651 O 553.696 1.78421 1.22454 0
M  V30 5652 C 554.291 2.75444 -1.97271 0
M  V30 5653 C 552.85 3.27669 -1.8523 0
M  V30 5654 C 551.997 2.00517 -1.91542 0
M  V30 5655 H 554.948 0.773746 -1.3856 0
M  V30 5656 H 554.969 3.4919 -1.51151 0
M  V30 5657 H 554.481 2.45024 -3.00973 0
M  V30 5658 H 552.582 3.62914 -0.844045 0
M  V30 5659 H 552.695 3.9582 -2.69932 0
M  V30 5660 H 551.059 2.15727 -1.35404 0
M  V30 5661 H 551.842 1.72448 -2.96844 0
M  V30 5662 N 554.287 1.06798 1.15896 0
M  V30 5663 C 555.197 0.694564 2.24083 0
M  V30 5664 C 556.213 -0.291687 1.71538 0
M  V30 5665 O 557.389 -0.139723 2.00915 0
M  V30 5666 C 554.454 0.0921014 3.46578 0
M  V30 5667 C 553.515 1.13087 4.14137 0
M  V30 5668 C 552.748 0.557064 5.30785 0
M  V30 5669 O 552.971 -0.628623 5.66925 0
M  V30 5670 O 551.905 1.29924 5.8771 0
M  V30 5671 H 555.731 1.59663 2.58344 0
M  V30 5672 H 553.316 0.840575 1.2351 0
M  V30 5673 H 555.198 -0.241884 4.20705 0
M  V30 5674 H 553.873 -0.78337 3.14078 0
M  V30 5675 H 552.78 1.51712 3.41957 0
M  V30 5676 H 554.113 1.97805 4.50704 0
M  V30 5677 N 555.766 -1.3263 0.851289 0
M  V30 5678 C 556.698 -2.27824 0.250757 0
M  V30 5679 C 557.711 -1.52285 -0.575598 0
M  V30 5680 O 558.9 -1.73946 -0.400638 0
M  V30 5681 C 556 -3.3232 -0.664571 0
M  V30 5682 C 555.173 -4.37221 0.125187 0
M  V30 5683 C 554.232 -5.21314 -0.715385 0
M  V30 5684 O 553.258 -5.69002 -0.150111 0
M  V30 5685 N 554.46 -5.43823 -2.03069 0
M  V30 5686 H 557.225 -2.79997 1.06873 0
M  V30 5687 H 554.786 -1.45455 0.710943 0
M  V30 5688 H 556.778 -3.85486 -1.23216 0
M  V30 5689 H 555.348 -2.80331 -1.38323 0
M  V30 5690 H 554.568 -3.84384 0.874199 0
M  V30 5691 H 555.856 -5.04399 0.667774 0
M  V30 5692 H 555.254 -5.06803 -2.51332 0
M  V30 5693 H 553.811 -5.99998 -2.54648 0
M  V30 5694 N 557.244 -0.608902 -1.45362 0
M  V30 5695 C 558.174 0.0964526 -2.33301 0
M  V30 5696 C 559.155 0.857444 -1.46908 0
M  V30 5697 O 560.34 0.827735 -1.75676 0
M  V30 5698 C 557.47 1.09354 -3.29635 0
M  V30 5699 C 556.424 0.445676 -4.25673 0
M  V30 5700 C 555.75 1.5511 -5.11708 0
M  V30 5701 C 557.05 -0.633972 -5.18438 0
M  V30 5702 H 558.744 -0.637829 -2.92527 0
M  V30 5703 H 556.29 -0.308178 -1.40664 0
M  V30 5704 H 558.243 1.59556 -3.90025 0
M  V30 5705 H 556.967 1.85843 -2.6857 0
M  V30 5706 H 555.626 -0.0354897 -3.66583 0
M  V30 5707 H 555.274 2.30631 -4.4701 0
M  V30 5708 H 554.974 1.12311 -5.76767 0
M  V30 5709 H 556.498 2.05537 -5.74967 0
M  V30 5710 H 557.912 -0.215974 -5.72893 0
M  V30 5711 H 556.309 -0.983789 -5.91981 0
M  V30 5712 H 557.379 -1.51005 -4.60788 0
M  V30 5713 N 558.722 1.53707 -0.348139 0
M  V30 5714 C 559.962 2.02899 0.247254 0
M  V30 5715 C 560.326 1.23033 1.47401 0
M  V30 5716 O 561.527 1.62146 2.14388 0
M  V30 5717 C 559.798 3.53156 0.549151 0
M  V30 5718 S 561.357 4.24247 1.1207 0
M  V30 5719 H 558.175 0.707213 0.0732894 0
M  V30 5720 H 560.777 1.89338 -0.486965 0
M  V30 5721 H 559.481 4.08893 -0.351435 0
M  V30 5722 H 559.012 3.70845 1.31291 0
M  V30 5723 H 561.027 4.33958 2.40613 0
M  V30 5724 N 560.2 0.0768682 1.57412 0
M  V30 5725 C 561.446 -0.585926 1.94778 0
M  V30 5726 C 561.801 -1.66912 0.956982 0
M  V30 5727 O 561.094 -1.9159 -0.0199454 0
M  V30 5728 C 561.288 -1.20268 3.36557 0
M  V30 5729 C 561.117 -0.18076 4.49337 0
M  V30 5730 C 559.887 0.236362 5.04747 0
M  V30 5731 C 562.085 0.583978 5.10974 0
M  V30 5732 N 560.067 1.24846 6.01071 0
M  V30 5733 C 561.438 1.44841 6.02844 0
M  V30 5734 C 563.493 0.639492 4.93776 0
M  V30 5735 C 562.196 2.36343 6.79363 0
M  V30 5736 C 564.222 1.54204 5.70942 0
M  V30 5737 C 563.584 2.39414 6.62465 0
M  V30 5738 H 559.683 -0.185281 0.759734 0
M  V30 5739 H 562.267 0.155193 1.9408 0
M  V30 5740 H 560.438 -1.9137 3.37982 0
M  V30 5741 H 562.17 -1.82636 3.61146 0
M  V30 5742 H 558.925 -0.14777 4.73369 0
M  V30 5743 H 559.349 1.75217 6.53933 0
M  V30 5744 H 563.991 -0.00510074 4.228 0
M  V30 5745 H 561.709 3.01836 7.49614 0
M  V30 5746 H 565.295 1.5899 5.59655 0
M  V30 5747 H 564.175 3.0812 7.21132 0
M  V30 5748 N 561.678 -1.56367 -0.196722 0
M  V30 5749 C 562.927 -1.79724 -0.915539 0
M  V30 5750 C 563.24 -0.649804 -1.84491 0
M  V30 5751 O 564.446 -0.767631 -2.60422 0
M  V30 5752 C 562.902 -3.18369 -1.67836 0
M  V30 5753 C 562.51 -4.4091 -0.793897 0
M  V30 5754 C 564.254 -3.51037 -2.38691 0
M  V30 5755 C 562.161 -5.70577 -1.55549 0
M  V30 5756 H 561.091 -0.67013 -0.345604 0
M  V30 5757 H 563.742 -1.82721 -0.168856 0
M  V30 5758 H 562.124 -3.09617 -2.46887 0
M  V30 5759 H 563.298 -4.60781 -0.042163 0
M  V30 5760 H 561.613 -4.15937 -0.19626 0
M  V30 5761 H 564.21 -4.4515 -2.96219 0
M  V30 5762 H 564.553 -2.74704 -3.12799 0
M  V30 5763 H 565.086 -3.61229 -1.66608 0
M  V30 5764 H 561.825 -6.49871 -0.857226 0
M  V30 5765 H 561.345 -5.54726 -2.2812 0
M  V30 5766 H 563.024 -6.11637 -2.10971 0
M  V30 5767 N 563.156 0.464375 -1.50603 0
M  V30 5768 C 564.381 1.24372 -1.65971 0
M  V30 5769 C 564.806 1.84901 -0.345453 0
M  V30 5770 O 564.164 1.67596 0.691457 0
M  V30 5771 C 564.212 2.32331 -2.7578 0
M  V30 5772 O 563.316 3.37146 -2.375 0
M  V30 5773 H 562.657 0.365604 -0.554283 0
M  V30 5774 H 565.187 0.55183 -1.97018 0
M  V30 5775 H 565.197 2.77539 -2.99059 0
M  V30 5776 H 563.872 1.87648 -3.71162 0
M  V30 5777 H 562.449 2.97602 -2.24694 0
M  V30 5778 N 564.634 1.40294 0.718013 0
M  V30 5779 C 565.882 1.38167 1.47494 0
M  V30 5780 C 566.203 -0.01607 1.94993 0
M  V30 5781 O 565.473 -0.970396 1.70177 0
M  V30 5782 H 564.053 0.508505 0.547203 0
M  V30 5783 H 566.715 1.75324 0.851322 0
M  V30 5784 H 565.811 2.05503 2.34894 0
M  V30 5785 N 566.112 -0.949982 1.2575 0
M  V30 5786 C 567.358 -1.69822 1.11947 0
M  V30 5787 C 567.713 -1.89455 -0.335334 0
M  V30 5788 O 567.006 -1.45778 -1.24336 0
M  V30 5789 C 567.2 -3.08039 1.81237 0
M  V30 5790 C 567.029 -3.0189 3.33305 0
M  V30 5791 C 565.799 -3.05391 4.02573 0
M  V30 5792 C 567.997 -2.827 4.29634 0
M  V30 5793 N 565.979 -2.89449 5.4138 0
M  V30 5794 C 567.35 -2.75237 5.55558 0
M  V30 5795 C 569.405 -2.67416 4.19992 0
M  V30 5796 C 568.108 -2.54051 6.72942 0
M  V30 5797 C 570.134 -2.47602 5.37073 0
M  V30 5798 C 569.496 -2.40863 6.6194 0
M  V30 5799 H 565.595 -0.629188 0.464378 0
M  V30 5800 H 568.179 -1.1249 1.58916 0
M  V30 5801 H 566.35 -3.63528 1.36756 0
M  V30 5802 H 568.082 -3.71671 1.60134 0
M  V30 5803 H 564.837 -3.14763 3.53866 0
M  V30 5804 H 565.261 -2.84669 6.14241 0
M  V30 5805 H 569.903 -2.71398 3.24196 0
M  V30 5806 H 567.621 -2.48811 7.68842 0
M  V30 5807 H 571.207 -2.36694 5.31477 0
M  V30 5808 H 570.087 -2.25732 7.51009 0
M  V30 5809 N 567.59 -1.07411 -1.15328 0
M  V30 5810 C 568.838 -0.796073 -1.85761 0
M  V30 5811 C 569.159 0.679864 -1.82764 0
M  V30 5812 O 568.429 1.49242 -1.269 0
M  V30 5813 H 567.009 -0.291495 -0.687779 0
M  V30 5814 H 569.671 -1.35799 -1.39802 0
M  V30 5815 H 568.767 -1.13114 -2.90881 0
M  V30 5816 N 569.068 1.32177 -0.85831 0
M  V30 5817 C 570.031 2.27086 -0.310588 0
M  V30 5818 C 571.031 1.51751 0.531806 0
M  V30 5819 O 572.221 1.70794 0.34279 0
M  V30 5820 C 569.353 3.36266 0.560179 0
M  V30 5821 H 570.546 2.77045 -1.1483 0
M  V30 5822 H 568.099 1.42911 -0.632942 0
M  V30 5823 H 568.834 2.9158 1.41956 0
M  V30 5824 H 568.619 3.92077 -0.0428473 0
M  V30 5825 H 570.109 4.06974 0.936056 0
M  V30 5826 N 570.547 0.616602 1.45037 0
M  V30 5827 C 571.775 0.121968 2.0654 0
M  V30 5828 C 572.19 -1.19743 1.45969 0
M  V30 5829 O 571.547 -1.73133 0.577168 0
M  V30 5830 C 571.598 -0.0145171 3.61497 0
M  V30 5831 O 571.319 1.25269 4.19809 0
M  V30 5832 C 572.82 -0.539555 4.40004 0
M  V30 5833 H 570.04 0.0729837 0.667019 0
M  V30 5834 H 572.584 0.846891 1.8614 0
M  V30 5835 H 570.739 -0.689809 3.81209 0
M  V30 5836 H 571.153 1.08816 5.13088 0
M  V30 5837 H 572.627 -0.584112 5.48901 0
M  V30 5838 H 573.104 -1.56368 4.10421 0
M  V30 5839 H 573.71 0.101995 4.25178 0
M  V30 5840 N 572.025 -1.5352 0.356285 0
M  V30 5841 C 572.935 -2.29151 -0.502712 0
M  V30 5842 C 573.951 -1.34753 -1.1008 0
M  V30 5843 O 575.127 -1.67803 -1.11374 0
M  V30 5844 C 572.192 -3.05911 -1.63154 0
M  V30 5845 C 571.253 -4.15958 -1.06194 0
M  V30 5846 C 570.486 -4.8905 -2.13696 0
M  V30 5847 O 570.709 -4.61919 -3.34645 0
M  V30 5848 O 569.643 -5.75202 -1.77275 0
M  V30 5849 H 573.469 -3.03492 0.112466 0
M  V30 5850 H 571.054 -1.4891 0.120942 0
M  V30 5851 H 572.936 -3.53874 -2.28804 0
M  V30 5852 H 571.611 -2.34415 -2.23229 0
M  V30 5853 H 570.518 -3.7227 -0.369603 0
M  V30 5854 H 571.851 -4.89593 -0.505872 0
M  V30 5855 N 573.503 -0.0852151 -1.57369 0
M  V30 5856 C 574.413 0.891712 -2.16992 0
M  V30 5857 C 575.429 1.3174 -1.13669 0
M  V30 5858 O 576.605 1.38735 -1.45995 0
M  V30 5859 C 573.67 2.13635 -2.73059 0
M  V30 5860 C 572.731 1.7658 -3.91303 0
M  V30 5861 C 571.964 2.95111 -4.44686 0
M  V30 5862 O 572.187 4.09539 -3.97032 0
M  V30 5863 O 571.121 2.74149 -5.35841 0
M  V30 5864 H 574.947 0.414477 -3.00858 0
M  V30 5865 H 572.532 0.138598 -1.48756 0
M  V30 5866 H 574.414 2.86595 -3.08935 0
M  V30 5867 H 573.089 2.6043 -1.92244 0
M  V30 5868 H 571.996 1.00831 -3.60255 0
M  V30 5869 H 573.329 1.34557 -4.7345 0
M  V30 5870 N 574.981 1.5647 0.188427 0
M  V30 5871 C 575.928 1.95073 1.23349 0
M  V30 5872 C 576.898 0.812238 1.44886 0
M  V30 5873 O 578.083 1.07095 1.57909 0
M  V30 5874 C 575.223 2.30124 2.57171 0
M  V30 5875 C 574.336 3.57069 2.43157 0
M  V30 5876 C 573.471 3.81411 3.69729 0
M  V30 5877 C 572.51 5.0176 3.50575 0
M  V30 5878 N 571.647 5.22321 4.69175 0
M  V30 5879 H 576.487 2.84171 0.89728 0
M  V30 5880 H 574.024 1.40623 0.431683 0
M  V30 5881 H 575.982 2.48463 3.35145 0
M  V30 5882 H 574.612 1.44159 2.88822 0
M  V30 5883 H 573.664 3.4674 1.56447 0
M  V30 5884 H 574.976 4.452 2.24942 0
M  V30 5885 H 574.13 4.00026 4.56141 0
M  V30 5886 H 572.869 2.91624 3.90905 0
M  V30 5887 H 571.874 4.83061 2.62549 0
M  V30 5888 H 573.099 5.93063 3.30837 0
M  V30 5889 H 571.045 4.35483 4.90602 0
M  V30 5890 H 570.962 6.04643 4.53809 0
M  V30 5891 H 572.23 5.45401 5.56919 0
M  V30 5892 N 576.459 -0.456382 1.50847 0
M  V30 5893 C 577.707 -1.20497 1.62249 0
M  V30 5894 C 578.028 -1.92156 0.331839 0
M  V30 5895 O 577.298 -1.84751 -0.651443 0
M  V30 5896 H 575.878 -0.447775 0.597918 0
M  V30 5897 H 578.54 -0.525099 1.87693 0
M  V30 5898 H 577.636 -1.94492 2.44089 0
M  V30 5899 N 577.937 -1.40673 -0.710563 0
M  V30 5900 C 578.884 -1.41336 -1.82463 0
M  V30 5901 C 579.854 -0.269648 -1.63897 0
M  V30 5902 O 581.039 -0.468463 -1.8496 0
M  V30 5903 C 578.179 -1.28665 -3.20218 0
M  V30 5904 C 577.292 -2.52784 -3.5032 0
M  V30 5905 C 576.427 -2.32517 -4.77608 0
M  V30 5906 C 575.466 -3.52187 -5.0063 0
M  V30 5907 N 574.603 -3.31084 -6.19135 0
M  V30 5908 H 579.443 -2.36558 -1.8123 0
M  V30 5909 H 576.98 -1.17483 -0.885226 0
M  V30 5910 H 578.938 -1.19324 -3.99772 0
M  V30 5911 H 577.568 -0.370602 -3.20666 0
M  V30 5912 H 576.62 -2.72634 -2.65283 0
M  V30 5913 H 577.932 -3.41845 -3.63241 0
M  V30 5914 H 577.086 -2.20558 -5.65189 0
M  V30 5915 H 575.825 -1.40889 -4.66906 0
M  V30 5916 H 574.83 -3.64617 -4.11502 0
M  V30 5917 H 576.055 -4.44749 -5.13201 0
M  V30 5918 H 574.001 -2.42143 -6.09674 0
M  V30 5919 H 573.918 -4.13713 -6.32754 0
M  V30 5920 H 575.186 -3.22868 -7.0949 0
M  V30 5921 N 579.415 0.9433 -1.26252 0
M  V30 5922 C 580.643 1.72367 -1.14443 0
M  V30 5923 C 581.058 1.86392 0.300572 0
M  V30 5924 O 580.415 1.36978 1.20596 0
M  V30 5925 C 580.466 3.13155 -1.806 0
M  V30 5926 O 580.187 2.99803 -3.19452 0
M  V30 5927 C 581.688 4.07417 -1.74717 0
M  V30 5928 H 578.908 0.539758 -0.398626 0
M  V30 5929 H 581.452 1.18268 -1.66832 0
M  V30 5930 H 579.607 3.64162 -1.32154 0
M  V30 5931 H 580.021 3.88697 -3.52158 0
M  V30 5932 H 581.495 5.03773 -2.25647 0
M  V30 5933 H 581.972 4.3337 -0.713244 0
M  V30 5934 H 582.578 3.6233 -2.22704 0
M  V30 5935 N 580.893 1.08022 1.14757 0
M  V30 5936 C 582.118 0.82895 1.90114 0
M  V30 5937 C 582.543 -0.612772 1.77839 0
M  V30 5938 O 581.901 -1.42895 1.11583 0
M  V30 5939 C 581.949 1.25062 3.38219 0
M  V30 5940 O 581.053 0.400119 4.10454 0
M  V30 5941 H 580.394 0.301412 0.591648 0
M  V30 5942 H 582.924 1.44062 1.45284 0
M  V30 5943 H 582.934 1.22977 3.89025 0
M  V30 5944 H 581.609 2.30067 3.46471 0
M  V30 5945 H 580.186 0.484052 3.69745 0
M  V30 5946 N 582.371 -1.3172 0.865308 0
M  V30 5947 C 583.281 -2.32394 0.320935 0
M  V30 5948 C 584.297 -1.64511 -0.566746 0
M  V30 5949 O 585.473 -1.95969 -0.464575 0
M  V30 5950 C 582.538 -3.43462 -0.472701 0
M  V30 5951 C 581.599 -4.27015 0.442385 0
M  V30 5952 C 580.832 -5.32779 -0.313469 0
M  V30 5953 O 581.055 -5.49158 -1.54214 0
M  V30 5954 O 579.989 -6.01015 0.326257 0
M  V30 5955 H 583.815 -2.80868 1.15528 0
M  V30 5956 H 581.4 -1.35535 0.628545 0
M  V30 5957 H 583.282 -4.11172 -0.922781 0
M  V30 5958 H 581.957 -2.97159 -1.28367 0
M  V30 5959 H 580.864 -3.62075 0.940866 0
M  V30 5960 H 582.197 -4.76871 1.21882 0
M  V30 5961 N 583.85 -0.624285 -1.44708 0
M  V30 5962 C 585.096 -0.126237 -2.02407 0
M  V30 5963 C 585.428 1.24618 -1.48943 0
M  V30 5964 O 584.704 1.82569 -0.670742 0
M  V30 5965 C 584.986 -0.105449 -3.59946 0
M  V30 5966 C 584.84 -1.50972 -4.23707 0
M  V30 5967 C 586.159 0.573629 -4.36346 0
M  V30 5968 H 583.278 -0.0473472 -0.735478 0
M  V30 5969 H 585.92 -0.799452 -1.72362 0
M  V30 5970 H 584.07 0.46783 -3.85673 0
M  V30 5971 H 585.742 -2.13136 -4.0911 0
M  V30 5972 H 583.985 -2.0656 -3.81465 0
M  V30 5973 H 584.656 -1.44727 -5.32689 0
M  V30 5974 H 587.132 0.0861787 -4.16011 0
M  V30 5975 H 586.008 0.557338 -5.46063 0
M  V30 5976 H 586.269 1.64276 -4.10446 0
M  V30 5977 N 585.328 1.53329 -0.364422 0
M  V30 5978 C 586.258 2.28627 0.474543 0
M  V30 5979 C 587.239 1.31009 1.08492 0
M  V30 5980 O 588.424 1.59878 1.10239 0
M  V30 5981 C 585.554 3.07465 1.61501 0
M  V30 5982 C 584.508 4.1276 1.13194 0
M  V30 5983 C 583.834 4.79674 2.36255 0
M  V30 5984 C 585.134 5.21847 0.217507 0
M  V30 5985 H 586.828 2.99005 -0.153656 0
M  V30 5986 H 584.374 1.43803 -0.0753406 0
M  V30 5987 H 586.327 3.58889 2.20855 0
M  V30 5988 H 585.051 2.34775 2.27042 0
M  V30 5989 H 583.71 3.62281 0.56109 0
M  V30 5990 H 583.358 4.03557 3.00251 0
M  V30 5991 H 583.058 5.50827 2.04606 0
M  V30 5992 H 584.582 5.33892 2.96297 0
M  V30 5993 H 585.996 5.6878 0.718493 0
M  V30 5994 H 584.393 6.00099 -0.00806408 0
M  V30 5995 H 585.463 4.7921 -0.740653 0
M  V30 5996 N 586.806 0.0935595 1.57322 0
M  V30 5997 C 587.754 -0.883457 2.15169 0
M  V30 5998 C 588.748 -1.29324 1.09415 0
M  V30 5999 O 589.954 -1.26795 1.27762 0
M  V30 6000 H 586.329 -0.302923 0.688289 0
M  V30 6001 H 588.3 -0.370845 2.96087 0
M  V30 6002 C 587.049 -2.13345 2.74552 0
M  V30 6003 H 586.372 -1.82702 3.55612 0
M  V30 6004 H 587.812 -2.7977 3.18598 0
M  V30 6005 C 586.271 -2.90646 1.70371 0
M  V30 6006 O 586.801 -3.85133 1.14173 0
M  V30 6007 N 585.007 -2.54157 1.40899 0
M  V30 6008 H 584.554 -1.77391 1.86789 0
M  V30 6009 H 584.512 -3.06178 0.714301 0
M  V30 6010 N 588.284 -1.56567 -0.180126 0
M  V30 6011 C 589.247 -1.94852 -1.20686 0
M  V30 6012 C 590.247 -0.831212 -1.3765 0
M  V30 6013 O 591.437 -1.09841 -1.35206 0
M  V30 6014 C 588.569 -2.23565 -2.57355 0
M  V30 6015 H 589.762 -2.86722 -0.879225 0
M  V30 6016 H 587.315 -1.50489 -0.422237 0
M  V30 6017 H 588.05 -1.34381 -2.95148 0
M  V30 6018 H 587.835 -3.04999 -2.46411 0
M  V30 6019 H 589.325 -2.54137 -3.31367 0
M  V30 6020 N 589.762 0.448376 -1.51087 0
M  V30 6021 C 590.725 1.52588 -1.71025 0
M  V30 6022 C 591.725 1.49958 -0.580442 0
M  V30 6023 O 592.915 1.52176 -0.847833 0
M  V30 6024 C 590.047 2.92163 -1.75652 0
M  V30 6025 H 591.24 1.36218 -2.67179 0
M  V30 6026 H 588.793 0.676313 -1.4091 0
M  V30 6027 H 589.528 3.13951 -0.812724 0
M  V30 6028 H 589.313 2.95478 -2.57751 0
M  V30 6029 H 590.803 3.70349 -1.92953 0
M  V30 6030 N 591.24 1.41047 0.703093 0
M  V30 6031 C 592.187 1.42302 1.81711 0
M  V30 6032 C 593.157 0.278336 1.63751 0
M  V30 6033 O 594.342 0.478266 1.84709 0
M  V30 6034 C 591.482 1.30362 3.19531 0
M  V30 6035 C 590.595 2.54638 3.48975 0
M  V30 6036 C 589.73 2.35047 4.76368 0
M  V30 6037 C 588.769 3.54837 4.98756 0
M  V30 6038 N 587.906 3.34363 6.1737 0
M  V30 6039 H 592.746 2.37516 1.79973 0
M  V30 6040 H 590.283 1.1795 0.878983 0
M  V30 6041 H 592.241 1.21443 3.99134 0
M  V30 6042 H 590.871 0.387602 3.20464 0
M  V30 6043 H 589.923 2.74037 2.63833 0
M  V30 6044 H 591.235 3.43766 3.61423 0
M  V30 6045 H 590.389 2.23552 5.64012 0
M  V30 6046 H 589.128 1.43363 4.66153 0
M  V30 6047 H 588.133 3.66795 4.09563 0
M  V30 6048 H 589.358 4.47464 5.10835 0
M  V30 6049 H 587.304 2.45373 6.08382 0
M  V30 6050 H 587.221 4.17063 6.30551 0
M  V30 6051 H 588.489 3.26626 7.07768 0
M  V30 6052 N 592.718 -0.936591 1.26751 0
M  V30 6053 C 593.964 -1.6858 1.12733 0
M  V30 6054 C 594.297 -1.91414 -0.327745 0
M  V30 6055 O 593.572 -1.49812 -1.24043 0
M  V30 6056 C 593.855 -3.05779 1.90187 0
M  V30 6057 C 593.708 -2.90242 3.43627 0
M  V30 6058 C 595.027 -4.0597 1.69931 0
M  V30 6059 H 592.146 -0.61182 0.410908 0
M  V30 6060 H 594.788 -1.08747 1.55801 0
M  V30 6061 H 592.938 -3.56853 1.53584 0
M  V30 6062 H 594.61 -2.46354 3.9001 0
M  V30 6063 H 592.853 -2.2577 3.70419 0
M  V30 6064 H 593.524 -3.87572 3.93055 0
M  V30 6065 H 596 -3.63874 2.0183 0
M  V30 6066 H 594.876 -4.99974 2.26534 0
M  V30 6067 H 595.137 -4.37369 0.64502 0
M  V30 6068 N 594.196 -1.08629 -1.14182 0
M  V30 6069 C 595.126 -0.740003 -2.21464 0
M  V30 6070 C 596.107 0.278591 -1.67803 0
M  V30 6071 O 597.292 0.148461 -1.93632 0
M  V30 6072 C 594.422 -0.150952 -3.46972 0
M  V30 6073 C 593.376 -1.09815 -4.13672 0
M  V30 6074 C 592.702 -0.3712 -5.3341 0
M  V30 6075 C 594.002 -2.43722 -4.61949 0
M  V30 6076 H 595.696 -1.63697 -2.50686 0
M  V30 6077 H 593.242 -0.788526 -1.20492 0
M  V30 6078 H 595.195 0.103325 -4.21273 0
M  V30 6079 H 593.919 0.781164 -3.1712 0
M  V30 6080 H 592.578 -1.33756 -3.41328 0
M  V30 6081 H 592.226 0.564792 -4.99819 0
M  V30 6082 H 591.926 -1.00267 -5.78982 0
M  V30 6083 H 593.45 -0.12503 -6.10472 0
M  V30 6084 H 594.864 -2.24034 -5.27714 0
M  V30 6085 H 593.261 -3.02582 -5.18232 0
M  V30 6086 H 594.331 -3.05082 -3.76899 0
M  V30 6087 N 595.674 1.31259 -0.872281 0
M  V30 6088 C 596.604 2.30929 -0.345554 0
M  V30 6089 C 597.585 1.60449 0.5648 0
M  V30 6090 O 598.77 1.8814 0.481335 0
M  V30 6091 C 595.9 3.44348 0.451823 0
M  V30 6092 C 594.854 4.26435 -0.365641 0
M  V30 6093 C 594.18 5.31785 0.557562 0
M  V30 6094 C 595.48 4.97159 -1.60095 0
M  V30 6095 H 597.174 2.75234 -1.17841 0
M  V30 6096 H 594.72 1.3232 -0.568094 0
M  V30 6097 H 596.673 4.13128 0.830854 0
M  V30 6098 H 595.397 2.98816 1.31821 0
M  V30 6099 H 594.056 3.59326 -0.726649 0
M  V30 6100 H 593.704 4.82502 1.4213 0
M  V30 6101 H 593.404 5.87598 0.0144878 0
M  V30 6102 H 594.928 6.03424 0.933387 0
M  V30 6103 H 596.342 5.58523 -1.29323 0
M  V30 6104 H 594.739 5.62779 -2.08327 0
M  V30 6105 H 595.809 4.24012 -2.35249 0
M  V30 6106 N 597.152 0.631951 1.44375 0
M  V30 6107 C 598.401 0.134214 2.01253 0
M  V30 6108 C 598.714 -1.25171 1.50305 0
M  V30 6109 O 599.92 -1.8435 1.99317 0
M  V30 6110 C 598.376 0.189187 3.59402 0
M  V30 6111 C 597.984 1.57647 4.19346 0
M  V30 6112 C 599.728 -0.252044 4.23751 0
M  V30 6113 C 597.635 1.58651 5.69722 0
M  V30 6114 H 596.565 0.0464101 0.75257 0
M  V30 6115 H 599.216 0.790868 1.65582 0
M  V30 6116 H 597.598 -0.534584 3.92375 0
M  V30 6117 H 598.772 2.32389 3.97909 0
M  V30 6118 H 597.087 1.96186 3.67288 0
M  V30 6119 H 599.684 -0.264084 5.34047 0
M  V30 6120 H 600.027 -1.27951 3.96149 0
M  V30 6121 H 600.56 0.41926 3.95584 0
M  V30 6122 H 597.299 2.59237 6.0206 0
M  V30 6123 H 596.819 0.882039 5.93279 0
M  V30 6124 H 598.498 1.32082 6.33375 0
M  V30 6125 N 598.631 -1.53133 0.372548 0
M  V30 6126 C 599.541 -2.29671 -0.478379 0
M  V30 6127 C 600.557 -1.35913 -1.08644 0
M  V30 6128 O 601.733 -1.68975 -1.09588 0
M  V30 6129 C 598.798 -3.07625 -1.599 0
M  V30 6130 C 597.859 -4.17061 -1.01776 0
M  V30 6131 C 597.092 -4.91289 -2.08497 0
M  V30 6132 O 597.315 -4.65442 -3.29727 0
M  V30 6133 O 596.249 -5.7705 -1.71164 0
M  V30 6134 H 600.075 -3.03355 0.144649 0
M  V30 6135 H 597.66 -1.48773 0.136729 0
M  V30 6136 H 599.542 -3.56281 -2.25038 0
M  V30 6137 H 598.217 -2.3677 -2.2073 0
M  V30 6138 H 597.124 -3.72641 -0.330098 0
M  V30 6139 H 598.457 -4.90102 -0.453915 0
M  V30 6140 N 600.109 -0.101901 -1.5727 0
M  V30 6141 C 601.337 0.568392 -1.98939 0
M  V30 6142 C 601.752 1.61301 -0.981194 0
M  V30 6143 O 601.109 1.82478 0.0282869 0
M  V30 6144 C 601.16 1.20997 -3.40649 0
M  V30 6145 O 600.881 0.207129 -4.3761 0
M  V30 6146 C 602.382 1.96523 -3.97358 0
M  V30 6147 H 599.602 0.15186 -0.65359 0
M  V30 6148 H 602.146 -0.183198 -2.03678 0
M  V30 6149 H 600.301 1.91245 -3.36904 0
M  V30 6150 H 600.715 0.671071 -5.20189 0
M  V30 6151 H 602.189 2.36764 -4.98645 0
M  V30 6152 H 602.666 2.83376 -3.35552 0
M  V30 6153 H 603.272 1.31076 -4.04598 0
M  V30 6154 N 601.587 1.56661 0.17182 0
M  V30 6155 C 602.519 1.92934 1.2373 0
M  V30 6156 C 603.532 0.822385 1.40502 0
M  V30 6157 O 604.721 1.10083 1.40514 0
M  V30 6158 C 601.821 2.16651 2.60607 0
M  V30 6159 C 600.994 3.47878 2.6514 0
M  V30 6160 C 600.053 3.60429 3.83377 0
M  V30 6161 O 599.079 4.33051 3.69398 0
M  V30 6162 N 600.281 2.95241 4.99813 0
M  V30 6163 H 603.046 2.84931 0.929205 0
M  V30 6164 H 600.607 1.5781 0.361588 0
M  V30 6165 H 602.599 2.22312 3.38171 0
M  V30 6166 H 601.169 1.3104 2.83809 0
M  V30 6167 H 600.389 3.53879 1.73675 0
M  V30 6168 H 601.677 4.34232 2.6518 0
M  V30 6169 H 601.075 2.3611 5.14071 0
M  V30 6170 H 599.632 3.06499 5.75241 0
M  V30 6171 N 603.065 -0.440357 1.51323 0
M  V30 6172 C 604.481 -0.7766 1.39431 0
M  V30 6173 C 604.681 -1.95838 0.474296 0
M  V30 6174 O 603.737 -2.52398 -0.0716692 0
M  V30 6175 C 605.05 -1.05981 2.81405 0
M  V30 6176 C 606.598 -1.16442 2.90534 0
M  V30 6177 C 607.073 -1.48058 4.33408 0
M  V30 6178 N 608.564 -1.54988 4.36501 0
M  V30 6179 C 609.299 -1.81017 5.44078 0
M  V30 6180 N 608.795 -2.04858 6.61819 0
M  V30 6181 N 610.588 -1.82774 5.31554 0
M  V30 6182 H 602.739 0.338006 2.09693 0
M  V30 6183 H 605.002 0.0888072 0.943831 0
M  V30 6184 H 604.708 -0.264173 3.50706 0
M  V30 6185 H 604.582 -1.98822 3.20546 0
M  V30 6186 H 606.969 -1.95068 2.21432 0
M  V30 6187 H 607.05 -0.215088 2.54894 0
M  V30 6188 H 606.694 -0.699605 5.03059 0
M  V30 6189 H 606.624 -2.44192 4.66559 0
M  V30 6190 H 609.115 -1.38479 3.51613 0
M  V30 6191 H 609.428 -2.2408 7.396 0
M  V30 6192 H 607.773 -2.02187 6.6494 0
M  V30 6193 H 610.964 -1.63665 4.38556 0
M  V30 6194 H 611.137 -2.02722 6.15474 0
M  V30 6195 N 604.543 -1.41418 -0.695603 0
M  V30 6196 C 605.783 -1.42241 -1.46788 0
M  V30 6197 C 606.147 -0.0300827 -1.91976 0
M  V30 6198 O 607.348 0.0868914 -2.6866 0
M  V30 6199 C 605.619 -2.4011 -2.6473 0
M  V30 6200 S 607.178 -2.59462 -3.53871 0
M  V30 6201 H 603.996 -0.503893 -0.50161 0
M  V30 6202 H 606.598 -1.77855 -0.811654 0
M  V30 6203 H 605.302 -3.40073 -2.29736 0
M  V30 6204 H 604.833 -2.05849 -3.35246 0
M  V30 6205 H 606.848 -1.862 -4.59939 0
M  V30 6206 N 606.021 0.929856 -1.27246 0
M  V30 6207 C 606.969 2.05151 -1.09616 0
M  V30 6208 C 607.963 1.69388 -0.0198617 0
M  V30 6209 O 609.169 1.79124 -0.177417 0
M  V30 6210 H 605.544 0.671909 -0.337701 0
M  V30 6211 H 607.515 2.17168 -2.04648 0
M  V30 6212 C 606.264 3.3934 -0.757851 0
M  V30 6213 H 605.587 3.67343 -1.57795 0
M  V30 6214 H 607.027 4.18603 -0.674358 0
M  V30 6215 C 605.486 3.32582 0.537658 0
M  V30 6216 O 606.016 3.69633 1.57271 0
M  V30 6217 N 604.222 2.8568 0.532478 0
M  V30 6218 H 603.769 2.55725 -0.310233 0
M  V30 6219 H 603.727 2.81541 1.39936 0
M  V30 6220 N 607.499 1.09233 1.13605 0
M  V30 6221 C 608.724 0.849067 1.89224 0
M  V30 6222 C 609.149 -0.593875 1.78479 0
M  V30 6223 O 608.507 -1.41703 1.13092 0
M  V30 6224 C 608.555 1.28642 3.36873 0
M  V30 6225 O 607.659 0.44363 4.10007 0
M  V30 6226 H 607 0.30767 0.588417 0
M  V30 6227 H 609.53 1.45595 1.43748 0
M  V30 6228 H 609.54 1.27096 3.87699 0
M  V30 6229 H 608.215 2.33729 3.44011 0
M  V30 6230 H 606.792 0.523241 3.69211 0
M  V30 6231 N 608.977 -1.30795 0.87923 0
M  V30 6232 C 610.393 -1.48981 0.57243 0
M  V30 6233 C 610.593 -1.80719 -0.891236 0
M  V30 6234 O 609.649 -1.89136 -1.67283 0
M  V30 6235 C 610.962 -2.61721 1.48063 0
M  V30 6236 C 612.51 -2.75603 1.48365 0
M  V30 6237 C 612.985 -3.91449 2.37763 0
M  V30 6238 N 614.476 -3.98751 2.35695 0
M  V30 6239 C 615.211 -4.87684 3.01583 0
M  V30 6240 N 614.707 -5.81454 3.76674 0
M  V30 6241 N 616.5 -4.81005 2.90844 0
M  V30 6242 H 608.651 -1.08465 1.82617 0
M  V30 6243 H 610.914 -0.536813 0.781368 0
M  V30 6244 H 610.62 -2.45073 2.52254 0
M  V30 6245 H 610.494 -3.58071 1.18596 0
M  V30 6246 H 612.881 -2.9166 0.44927 0
M  V30 6247 H 612.962 -1.79891 1.81859 0
M  V30 6248 H 612.606 -3.76149 3.41283 0
M  V30 6249 H 612.536 -4.86487 2.01589 0
M  V30 6250 H 615.027 -3.31668 1.81121 0
M  V30 6251 H 615.34 -6.46063 4.24054 0
M  V30 6252 H 613.685 -5.81403 3.80782 0
M  V30 6253 H 616.876 -4.06728 2.31711 0
M  V30 6254 H 617.049 -5.50107 3.42471 0
M  V30 6255 N 610.455 -0.639598 -1.44038 0
M  V30 6256 C 611.685 -0.154586 -2.06021 0
M  V30 6257 C 612.093 1.17951 -1.47933 0
M  V30 6258 O 611.436 1.73627 -0.59994 0
M  V30 6259 C 611.498 0.0255459 -3.59491 0
M  V30 6260 C 611.162 -1.2317 -4.40089 0
M  V30 6261 C 612.159 -2.15735 -4.73027 0
M  V30 6262 C 609.844 -1.46949 -4.80324 0
M  V30 6263 C 611.838 -3.30382 -5.45093 0
M  V30 6264 C 609.525 -2.61891 -5.52138 0
M  V30 6265 C 610.523 -3.53433 -5.84443 0
M  V30 6266 O 610.211 -4.6637 -6.54793 0
M  V30 6267 H 609.943 -0.0808543 -0.671147 0
M  V30 6268 H 612.497 -0.876541 -1.85758 0
M  V30 6269 H 610.727 0.802733 -3.78276 0
M  V30 6270 H 612.416 0.466184 -4.03214 0
M  V30 6271 H 613.182 -1.98602 -4.42473 0
M  V30 6272 H 609.061 -0.765815 -4.54595 0
M  V30 6273 H 612.605 -4.01856 -5.70226 0
M  V30 6274 H 608.502 -2.78964 -5.82108 0
M  V30 6275 H 609.27 -4.6546 -6.73267 0
M  V30 6276 N 611.933 1.52934 -0.380664 0
M  V30 6277 C 613.179 2.01765 0.20458 0
M  V30 6278 C 613.512 1.26696 1.47179 0
M  V30 6279 O 612.787 0.364936 1.91046 0
M  V30 6280 C 613.07 3.56869 0.481269 0
M  V30 6281 C 612.923 4.42617 -0.800629 0
M  V30 6282 C 614.242 4.2121 1.27554 0
M  V30 6283 H 611.361 0.733388 0.0728803 0
M  V30 6284 H 614.003 1.83068 -0.50853 0
M  V30 6285 H 612.153 3.72932 1.08875 0
M  V30 6286 H 613.825 4.38323 -1.43773 0
M  V30 6287 H 612.068 4.09977 -1.4178 0
M  V30 6288 H 612.739 5.49134 -0.561791 0
M  V30 6289 H 615.215 4.09072 0.761514 0
M  V30 6290 H 614.091 5.29732 1.43788 0
M  V30 6291 H 614.352 3.78269 2.28833 0
M  V30 6292 N 613.412 0.11024 1.57214 0
M  V30 6293 C 614.642 -0.557025 1.98949 0
M  V30 6294 C 615.05 -1.61317 0.988606 0
M  V30 6295 O 614.393 -1.83679 -0.0279159 0
M  V30 6296 C 614.455 -1.24956 3.37085 0
M  V30 6297 C 614.119 -0.342398 4.55716 0
M  V30 6298 C 615.116 0.415511 5.18237 0
M  V30 6299 C 612.801 -0.256029 5.01647 0
M  V30 6300 C 614.795 1.24761 6.25071 0
M  V30 6301 C 612.482 0.579713 6.08344 0
M  V30 6302 C 613.48 1.33017 6.69922 0
M  V30 6303 O 613.168 2.15205 7.74559 0
M  V30 6304 H 612.9 -0.152792 0.658506 0
M  V30 6305 H 615.454 0.19076 2.04512 0
M  V30 6306 H 613.684 -2.04424 3.2825 0
M  V30 6307 H 615.373 -1.81286 3.63167 0
M  V30 6308 H 616.139 0.358605 4.83672 0
M  V30 6309 H 612.018 -0.829831 4.5347 0
M  V30 6310 H 615.562 1.83386 6.73064 0
M  V30 6311 H 611.459 0.638044 6.42339 0
M  V30 6312 H 612.227 2.08052 7.91617 0
M  V30 6313 N 614.89 -1.56749 -0.16351 0
M  V30 6314 C 616.167 -1.73321 -0.906599 0
M  V30 6315 C 616.547 -0.673779 -2.00059 0
M  V30 6316 O 615.895 0.310121 -2.26386 0
M  V30 6317 C 616.105 -3.168 -1.46419 0
M  V30 6318 C 617.453 -3.77993 -1.93407 0
M  V30 6319 O 618.477 -3.20127 -1.56196 0
M  V30 6320 O 617.336 -4.79615 -2.61976 0
M  V30 6321 H 614.43 -0.708073 -0.427272 0
M  V30 6322 H 616.976 -1.69029 -0.150727 0
M  V30 6323 H 615.748 -3.85396 -0.677189 0
M  V30 6324 H 615.371 -3.2545 -2.28403 0
M  V30 6325 N 616.368 0.432326 -1.51554 0
M  V30 6326 C 617.316 1.54572 -1.73811 0
M  V30 6327 C 618.31 1.58246 -0.604539 0
M  V30 6328 O 619.516 1.6193 -0.786041 0
M  V30 6329 H 615.891 0.513626 -0.549265 0
M  V30 6330 H 617.862 1.32977 -2.67132 0
M  V30 6331 C 616.611 2.92181 -1.88483 0
M  V30 6332 H 615.934 2.90088 -2.75116 0
M  V30 6333 H 617.374 3.69439 -2.08065 0
M  V30 6334 C 615.833 3.3065 -0.645909 0
M  V30 6335 O 616.363 4.01216 0.197093 0
M  V30 6336 N 614.569 2.86464 -0.488538 0
M  V30 6337 H 614.116 2.29209 -1.17562 0
M  V30 6338 H 614.074 3.12565 0.339156 0
M  V30 6339 N 617.846 1.41785 0.688094 0
M  V30 6340 C 618.776 1.47 1.8142 0
M  V30 6341 C 619.757 0.327881 1.6691 0
M  V30 6342 O 620.942 0.540362 1.86531 0
M  V30 6343 C 618.072 1.35876 3.19617 0
M  V30 6344 C 617.026 2.47976 3.48844 0
M  V30 6345 C 616.352 2.21915 4.86475 0
M  V30 6346 C 617.652 3.90309 3.47068 0
M  V30 6347 H 619.346 2.41247 1.77314 0
M  V30 6348 H 616.892 1.16116 0.851651 0
M  V30 6349 H 618.845 1.38134 3.98117 0
M  V30 6350 H 617.569 0.38116 3.24368 0
M  V30 6351 H 616.228 2.45013 2.72698 0
M  V30 6352 H 615.876 1.2248 4.8786 0
M  V30 6353 H 615.576 2.97037 5.06994 0
M  V30 6354 H 617.1 2.25901 5.67275 0
M  V30 6355 H 618.514 3.94947 4.1556 0
M  V30 6356 H 616.911 4.65175 3.7912 0
M  V30 6357 H 617.981 4.17927 2.45896 0
M  V30 6358 N 619.324 -0.923095 1.27737 0
M  V30 6359 C 620.573 -1.66581 1.13727 0
M  V30 6360 C 620.886 -1.9304 -0.315433 0
M  V30 6361 O 622.092 -2.65309 -0.57651 0
M  V30 6362 C 620.548 -3.00047 1.98745 0
M  V30 6363 C 620.156 -2.8127 3.48699 0
M  V30 6364 C 621.9 -3.77887 1.93395 0
M  V30 6365 C 619.807 -4.1032 4.25901 0
M  V30 6366 H 618.737 -0.624834 0.422017 0
M  V30 6367 H 621.388 -1.02514 1.52194 0
M  V30 6368 H 619.77 -3.65197 1.53125 0
M  V30 6369 H 620.944 -2.24859 4.02213 0
M  V30 6370 H 619.259 -2.16854 3.55476 0
M  V30 6371 H 621.856 -4.73526 2.48348 0
M  V30 6372 H 622.199 -4.06264 0.908605 0
M  V30 6373 H 622.732 -3.19541 2.36935 0
M  V30 6374 H 619.471 -3.8712 5.28978 0
M  V30 6375 H 618.991 -4.66377 3.77163 0
M  V30 6376 H 620.67 -4.78648 4.35321 0
M  V30 6377 N 620.802 -1.09834 -1.13024 0
M  V30 6378 C 622.03 -0.858902 -1.8823 0
M  V30 6379 C 622.445 0.590164 -1.79339 0
M  V30 6380 O 621.802 1.4065 -1.16292 0
M  V30 6381 C 621.853 -1.29066 -3.37675 0
M  V30 6382 O 621.574 -2.6829 -3.46341 0
M  V30 6383 C 623.075 -1.08421 -4.29837 0
M  V30 6384 H 620.295 -0.308713 -0.595766 0
M  V30 6385 H 622.839 -1.4614 -1.4305 0
M  V30 6386 H 620.994 -0.731961 -3.80422 0
M  V30 6387 H 621.408 -2.86598 -4.39274 0
M  V30 6388 H 622.882 -1.43553 -5.33007 0
M  V30 6389 H 623.359 -0.0223315 -4.39194 0
M  V30 6390 H 623.965 -1.62907 -3.92863 0
M  V30 6391 N 622.28 1.30327 -0.886154 0
M  V30 6392 C 623.691 1.78243 -0.555554 0
M  V30 6393 C 624.042 1.72849 0.928314 0
M  V30 6394 O 623.167 1.30607 1.72542 0
M  V30 6395 C 623.762 3.23654 -1.00168 0
M  V30 6396 C 622.321 3.69401 -0.722471 0
M  V30 6397 C 621.468 2.50753 -1.18399 0
M  V30 6398 H 624.419 1.1718 -1.07026 0
M  V30 6399 H 624.44 3.79056 -0.331152 0
M  V30 6400 H 623.952 3.27548 -2.08169 0
M  V30 6401 H 622.053 3.70995 0.345496 0
M  V30 6402 H 622.166 4.60818 -1.31085 0
M  V30 6403 H 620.53 2.47452 -0.603303 0
M  V30 6404 H 621.313 2.57383 -2.27176 0
M  V30 6405 N 623.758 0.647228 1.43697 0
M  V30 6406 C 624.721 -0.0385101 2.29168 0
M  V30 6407 C 625.721 -0.756487 1.41894 0
M  V30 6408 O 626.911 -0.598641 1.63591 0
M  V30 6409 C 624.043 -1.06524 3.23829 0
M  V30 6410 H 625.236 0.713445 2.9129 0
M  V30 6411 H 622.789 0.408153 1.50877 0
M  V30 6412 H 623.524 -1.84664 2.66589 0
M  V30 6413 H 623.309 -0.554147 3.88164 0
M  V30 6414 H 624.799 -1.54432 3.87996 0
M  V30 6415 N 625.236 -1.5273 0.388769 0
M  V30 6416 C 626.169 -2.22861 -0.490752 0
M  V30 6417 C 627.147 -1.22912 -1.06449 0
M  V30 6418 O 628.331 -1.51896 -1.11624 0
M  V30 6419 C 625.458 -2.94141 -1.67925 0
M  V30 6420 C 624.504 -4.08355 -1.23081 0
M  V30 6421 S 625.337 -5.35077 -0.212786 0
M  V30 6422 C 626.493 -6.09879 -1.40708 0
M  V30 6423 H 626.726 -2.97115 0.104787 0
M  V30 6424 H 624.259 -1.53428 0.172956 0
M  V30 6425 H 626.217 -3.35818 -2.36085 0
M  V30 6426 H 624.878 -2.19568 -2.24608 0
M  V30 6427 H 624.071 -4.57328 -2.11818 0
M  V30 6428 H 623.673 -3.68688 -0.628121 0
M  V30 6429 H 625.965 -6.36018 -2.33424 0
M  V30 6430 H 626.908 -7.01586 -0.958271 0
M  V30 6431 H 627.316 -5.40646 -1.62364 0
M  V30 6432 N 626.714 -0.118576 -1.57153 0
M  V30 6433 C 627.963 0.539339 -1.94355 0
M  V30 6434 C 628.276 1.67858 -1.00415 0
M  V30 6435 O 629.482 2.39922 -1.27081 0
M  V30 6436 C 627.938 1.01082 -3.45414 0
M  V30 6437 C 627.546 -0.0999402 -4.47889 0
M  V30 6438 C 629.29 1.64013 -3.91535 0
M  V30 6439 C 627.197 0.388212 -5.90124 0
M  V30 6440 H 626.127 0.205247 -0.725527 0
M  V30 6441 H 628.778 -0.19836 -1.82425 0
M  V30 6442 H 627.16 1.80292 -3.52577 0
M  V30 6443 H 628.334 -0.876189 -4.52393 0
M  V30 6444 H 626.649 -0.635885 -4.11516 0
M  V30 6445 H 629.246 2.01649 -4.95219 0
M  V30 6446 H 629.589 2.51836 -3.31488 0
M  V30 6447 H 630.122 0.913439 -3.87171 0
M  V30 6448 H 626.861 -0.453963 -6.53926 0
M  V30 6449 H 626.381 1.13095 -5.89041 0
M  V30 6450 H 628.06 0.849574 -6.41398 0
M  V30 6451 N 628.193 1.56834 0.155195 0
M  V30 6452 C 629.433 1.84701 0.875488 0
M  V30 6453 C 629.797 0.701747 1.78716 0
M  V30 6454 O 630.998 0.861263 2.54629 0
M  V30 6455 C 629.269 3.1773 1.63654 0
M  V30 6456 S 630.828 3.67128 2.40338 0
M  V30 6457 H 627.646 0.647856 0.292923 0
M  V30 6458 H 630.248 1.95026 0.136024 0
M  V30 6459 H 628.952 3.99059 0.958117 0
M  V30 6460 H 628.483 3.10388 2.41708 0
M  V30 6461 H 630.498 3.35739 3.65368 0
M  V30 6462 N 629.671 -0.424282 1.51781 0
M  V30 6463 C 630.634 -1.49848 1.73431 0
M  V30 6464 C 631.634 -1.49016 0.604225 0
M  V30 6465 O 632.824 -1.50808 0.871935 0
M  V30 6466 C 629.956 -2.89332 1.80277 0
M  V30 6467 H 631.149 -1.3195 2.69312 0
M  V30 6468 H 628.702 -0.653809 1.41968 0
M  V30 6469 H 629.437 -3.12618 0.862568 0
M  V30 6470 H 629.222 -2.9134 2.62419 0
M  V30 6471 H 630.712 -3.67233 1.98821 0
M  V30 6472 N 631.149 -1.42148 -0.680565 0
M  V30 6473 C 632.397 -1.42029 -1.43779 0
M  V30 6474 C 632.718 -0.0356347 -1.94967 0
M  V30 6475 O 631.988 0.924936 -1.7269 0
M  V30 6476 H 630.568 -0.522835 -0.533529 0
M  V30 6477 H 633.23 -1.7752 -0.804538 0
M  V30 6478 H 632.326 -2.11658 -2.29363 0
M  V30 6479 N 632.627 0.916307 -1.28225 0
M  V30 6480 C 633.874 1.66518 -1.1523 0
M  V30 6481 C 634.202 1.92178 0.299632 0
M  V30 6482 O 633.457 1.51842 1.2346 0
M  V30 6483 C 633.756 3.03125 -1.8934 0
M  V30 6484 C 633.422 2.97135 -3.39148 0
M  V30 6485 C 632.084 2.95208 -3.80007 0
M  V30 6486 C 634.436 2.87574 -4.34685 0
M  V30 6487 C 631.764 2.81518 -5.14747 0
M  V30 6488 C 634.116 2.75424 -5.69495 0
M  V30 6489 C 632.78 2.71854 -6.09632 0
M  V30 6490 H 632.05 0.609334 -0.421655 0
M  V30 6491 H 634.697 1.06776 -1.58969 0
M  V30 6492 H 633.002 3.66639 -1.38143 0
M  V30 6493 H 634.699 3.59968 -1.76704 0
M  V30 6494 H 631.289 2.99428 -3.06661 0
M  V30 6495 H 635.473 2.88152 -4.04082 0
M  V30 6496 H 630.729 2.77148 -5.44976 0
M  V30 6497 H 634.903 2.66993 -6.43185 0
M  V30 6498 H 632.53 2.61003 -7.1399 0
M  V30 6499 N 634.105 1.10431 1.1244 0
M  V30 6500 C 635.035 0.775143 2.20258 0
M  V30 6501 C 636.016 -0.25186 1.68225 0
M  V30 6502 O 637.201 -0.117637 1.93843 0
M  V30 6503 C 634.331 0.206133 3.46688 0
M  V30 6504 C 633.285 1.16382 4.11873 0
M  V30 6505 C 632.611 0.456014 5.32752 0
M  V30 6506 C 633.911 2.5104 4.58013 0
M  V30 6507 H 635.605 1.67665 2.4805 0
M  V30 6508 H 633.151 0.807595 1.19222 0
M  V30 6509 H 635.104 -0.036291 4.21384 0
M  V30 6510 H 633.828 -0.730614 3.18323 0
M  V30 6511 H 632.487 1.39169 3.39157 0
M  V30 6512 H 632.135 -0.485203 5.00654 0
M  V30 6513 H 631.835 1.09466 5.77314 0
M  V30 6514 H 633.359 0.222135 6.10196 0
M  V30 6515 H 634.773 2.32401 5.24083 0
M  V30 6516 H 633.17 3.10789 5.13352 0
M  V30 6517 H 634.24 3.11039 3.71998 0
M  V30 6518 N 635.583 -1.29855 0.893053 0
M  V30 6519 C 636.515 -2.26911 0.32311 0
M  V30 6520 C 637.528 -1.54039 -0.526858 0
M  V30 6521 O 638.717 -1.75132 -0.345095 0
M  V30 6522 C 635.817 -3.34266 -0.558509 0
M  V30 6523 C 634.99 -4.36601 0.264222 0
M  V30 6524 C 634.049 -5.23326 -0.549171 0
M  V30 6525 O 633.075 -5.69192 0.0309883 0
M  V30 6526 N 634.277 -5.50008 -1.85664 0
M  V30 6527 H 637.042 -2.76455 1.15726 0
M  V30 6528 H 634.603 -1.4312 0.756859 0
M  V30 6529 H 636.595 -3.89211 -1.1089 0
M  V30 6530 H 635.165 -2.8459 -1.29334 0
M  V30 6531 H 634.385 -3.81409 0.996046 0
M  V30 6532 H 635.673 -5.02019 0.827906 0
M  V30 6533 H 635.071 -5.14542 -2.35081 0
M  V30 6534 H 633.628 -6.07796 -2.35431 0
M  V30 6535 N 637.061 -0.65484 -1.43351 0
M  V30 6536 C 638.309 -0.168559 -2.01396 0
M  V30 6537 C 638.63 1.22235 -1.51933 0
M  V30 6538 O 637.9 1.81685 -0.732627 0
M  V30 6539 H 636.48 -0.0593244 -0.744641 0
M  V30 6540 H 639.142 -0.846871 -1.75539 0
M  V30 6541 H 638.238 -0.154428 -3.11718 0
M  V30 6542 N 638.539 1.52521 -0.396863 0
M  V30 6543 C 639.487 2.28217 0.44943 0
M  V30 6544 C 640.481 1.32416 1.05652 0
M  V30 6545 O 641.687 1.49925 0.996124 0
M  V30 6546 H 638.062 0.733966 0.1637 0
M  V30 6547 H 640.033 2.97658 -0.210367 0
M  V30 6548 C 638.782 3.10713 1.56054 0
M  V30 6549 H 638.105 3.84291 1.10273 0
M  V30 6550 H 639.545 3.66803 2.12677 0
M  V30 6551 C 638.004 2.23499 2.52091 0
M  V30 6552 O 638.534 1.8669 3.55682 0
M  V30 6553 N 636.74 1.8751 2.2201 0
M  V30 6554 H 636.287 2.17643 1.37802 0
M  V30 6555 H 636.245 1.29448 2.86514 0
M  V30 6556 N 640.017 0.126909 1.57088 0
M  V30 6557 C 641.263 -0.529952 1.95753 0
M  V30 6558 C 641.596 -1.65823 1.01077 0
M  V30 6559 O 640.871 -1.94437 0.0494162 0
M  V30 6560 C 641.154 -1.05517 3.44294 0
M  V30 6561 C 641.007 0.0702253 4.49745 0
M  V30 6562 C 642.326 -1.9435 3.94862 0
M  V30 6563 H 639.445 -0.191168 0.711775 0
M  V30 6564 H 642.087 0.204071 1.88901 0
M  V30 6565 H 640.237 -1.68069 3.50264 0
M  V30 6566 H 641.909 0.705834 4.55868 0
M  V30 6567 H 640.152 0.732259 4.27575 0
M  V30 6568 H 640.823 -0.338642 5.5096 0
M  V30 6569 H 643.299 -1.41658 3.91244 0
M  V30 6570 H 642.175 -2.28015 4.993 0
M  V30 6571 H 642.436 -2.87299 3.36024 0
M  V30 6572 N 641.495 -1.56914 -0.146875 0
M  V30 6573 C 642.772 -1.74273 -0.888165 0
M  V30 6574 C 643.152 -0.69496 -1.99333 0
M  V30 6575 O 642.5 0.286093 -2.26702 0
M  V30 6576 C 642.71 -3.18336 -1.43051 0
M  V30 6577 C 644.058 -3.80024 -1.89387 0
M  V30 6578 O 645.082 -3.21765 -1.52792 0
M  V30 6579 O 643.941 -4.82367 -2.56874 0
M  V30 6580 H 641.035 -0.712565 -0.419738 0
M  V30 6581 H 643.581 -1.6918 -0.132791 0
M  V30 6582 H 642.353 -3.86092 -0.636274 0
M  V30 6583 H 641.976 -3.27854 -2.24938 0
M  V30 6584 N 642.974 0.416227 -1.52004 0
M  V30 6585 C 644.199 1.19029 -1.69843 0
M  V30 6586 C 644.624 1.83708 -0.404103 0
M  V30 6587 O 643.982 1.69711 0.637787 0
M  V30 6588 C 644.03 2.23439 -2.83032 0
M  V30 6589 O 643.134 3.29419 -2.48106 0
M  V30 6590 H 642.475 0.347785 -0.565634 0
M  V30 6591 H 645.005 0.488871 -1.98674 0
M  V30 6592 H 645.015 2.67884 -3.07737 0
M  V30 6593 H 643.69 1.75745 -3.76944 0
M  V30 6594 H 642.267 2.90303 -2.34048 0
M  V30 6595 N 644.452 1.42507 0.673017 0
M  V30 6596 C 645.692 1.44559 1.44507 0
M  V30 6597 C 646.056 0.0606206 1.91904 0
M  V30 6598 O 647.257 -0.044139 2.68764 0
M  V30 6599 C 645.528 2.44291 2.60877 0
M  V30 6600 S 647.087 2.65059 3.49699 0
M  V30 6601 H 643.905 0.51181 0.49353 0
M  V30 6602 H 646.507 1.79124 0.783256 0
M  V30 6603 H 645.211 3.43685 2.24297 0
M  V30 6604 H 644.742 2.11157 3.31928 0
M  V30 6605 H 646.757 1.93494 4.56919 0
M  V30 6606 N 645.93 -0.909495 1.28709 0
M  V30 6607 C 646.862 -2.01729 1.08804 0
M  V30 6608 C 647.875 -1.62755 0.0384739 0
M  V30 6609 O 649.064 -1.76259 0.281977 0
M  V30 6610 C 646.164 -3.32952 0.63217 0
M  V30 6611 C 645.337 -4.00512 1.75809 0
M  V30 6612 C 644.396 -5.10019 1.29488 0
M  V30 6613 O 643.422 -5.32986 1.99787 0
M  V30 6614 N 644.624 -5.80278 0.1604 0
M  V30 6615 H 647.389 -2.19362 2.04207 0
M  V30 6616 H 644.95 -1.08106 1.20518 0
M  V30 6617 H 646.942 -4.03543 0.305802 0
M  V30 6618 H 645.512 -3.11759 -0.229134 0
M  V30 6619 H 644.732 -3.23413 2.25383 0
M  V30 6620 H 646.02 -4.42395 2.51325 0
M  V30 6621 H 645.418 -5.64094 -0.425937 0
M  V30 6622 H 643.975 -6.51713 -0.106663 0
M  V30 6623 N 647.408 -1.11026 -1.11852 0
M  V30 6624 C 648.656 -0.854769 -1.83134 0
M  V30 6625 C 648.977 0.621375 -1.84835 0
M  V30 6626 O 648.247 1.45129 -1.31584 0
M  V30 6627 H 646.827 -0.313229 -0.678157 0
M  V30 6628 H 649.489 -1.40178 -1.35411 0
M  V30 6629 H 648.585 -1.22311 -2.87135 0
M  V30 6630 N 648.886 1.2938 -0.899927 0
M  V30 6631 C 650.163 1.9046 -0.445443 0
M  V30 6632 C 650.543 1.81683 1.07492 0
M  V30 6633 O 649.891 1.24371 1.91688 0
M  V30 6634 C 650.101 3.35529 -0.960279 0
M  V30 6635 C 651.449 4.12556 -1.00412 0
M  V30 6636 O 652.473 3.44434 -0.907965 0
M  V30 6637 O 651.332 5.34294 -1.14857 0
M  V30 6638 H 648.426 0.815253 -0.138893 0
M  V30 6639 H 650.972 1.37844 -0.989808 0
M  V30 6640 H 649.744 3.36074 -2.00425 0
M  V30 6641 H 649.367 3.95624 -0.395939 0
M  V30 6642 N 650.364 0.662433 1.43002 0
M  V30 6643 C 651.589 0.186003 2.06564 0
M  V30 6644 C 652.014 -1.14314 1.49379 0
M  V30 6645 O 651.372 -1.70824 0.607346 0
M  V30 6646 C 651.42 0.118269 3.60406 0
M  V30 6647 O 650.524 -0.916859 4.02079 0
M  V30 6648 H 649.865 0.0990981 0.656563 0
M  V30 6649 H 652.395 0.907958 1.8335 0
M  V30 6650 H 652.405 -0.0619981 4.07953 0
M  V30 6651 H 651.08 1.08849 4.01403 0
M  V30 6652 H 649.657 -0.708635 3.66105 0
M  V30 6653 N 651.842 -1.52309 0.404946 0
M  V30 6654 C 653.09 -2.01368 -0.17186 0
M  V30 6655 C 653.411 -1.29261 -1.46002 0
M  V30 6656 O 652.681 -0.41729 -1.91404 0
M  V30 6657 H 651.261 -0.744034 -0.0664993 0
M  V30 6658 H 653.923 -1.87263 0.540228 0
M  V30 6659 H 653.019 -3.09888 -0.370957 0
M  V30 6660 N 653.32 -0.135238 -1.57019 0
M  V30 6661 C 654.568 0.51777 -1.95355 0
M  V30 6662 C 654.889 1.6617 -1.02042 0
M  V30 6663 O 654.159 1.95738 -0.0797343 0
M  V30 6664 H 652.739 0.194264 -0.721298 0
M  V30 6665 H 655.401 -0.207983 -1.93787 0
M  V30 6666 H 654.497 0.901675 -2.98791 0
M  V30 6667 N 654.798 1.5699 0.138552 0
M  V30 6668 C 656.209 1.73171 0.697754 0
M  V30 6669 C 656.56 0.750952 1.8126 0
M  V30 6670 O 655.685 -0.080549 2.1625 0
M  V30 6671 C 656.28 3.13996 1.27248 0
M  V30 6672 C 654.839 3.3175 1.77816 0
M  V30 6673 C 653.986 2.69084 0.669991 0
M  V30 6674 H 656.937 1.5846 -0.0871979 0
M  V30 6675 H 656.958 3.14463 2.14227 0
M  V30 6676 H 656.47 3.85354 0.460855 0
M  V30 6677 H 654.571 2.65403 2.61519 0
M  V30 6678 H 654.684 4.39768 1.90107 0
M  V30 6679 H 653.048 2.29782 1.09874 0
M  V30 6680 H 653.831 3.43053 -0.130329 0
M  V30 6681 N 656.276 -0.40816 1.52223 0
M  V30 6682 C 657.206 -1.5042 1.78595 0
M  V30 6683 C 658.187 -1.57723 0.636974 0
M  V30 6684 O 659.372 -1.72982 0.882664 0
M  V30 6685 C 656.502 -2.88232 1.93751 0
M  V30 6686 C 655.456 -2.95779 3.09352 0
M  V30 6687 C 654.782 -4.35855 3.09732 0
M  V30 6688 C 656.082 -2.67175 4.48793 0
M  V30 6689 H 657.776 -1.28601 2.70374 0
M  V30 6690 H 655.322 -0.617221 1.30101 0
M  V30 6691 H 657.275 -3.64895 2.10783 0
M  V30 6692 H 655.999 -3.11347 0.986443 0
M  V30 6693 H 654.658 -2.21561 2.92072 0
M  V30 6694 H 654.306 -4.55981 2.12346 0
M  V30 6695 H 654.006 -4.41829 3.87377 0
M  V30 6696 H 655.53 -5.14451 3.28895 0
M  V30 6697 H 656.944 -3.3356 4.66273 0
M  V30 6698 H 655.341 -2.84523 5.28362 0
M  V30 6699 H 656.411 -1.62609 4.56822 0
M  V30 6700 N 657.755 -1.42862 -0.66545 0
M  V30 6701 C 659.001 -1.44043 -1.42757 0
M  V30 6702 C 659.334 -0.0599629 -1.94107 0
M  V30 6703 O 658.609 0.917286 -1.71511 0
M  V30 6704 C 658.892 -2.47266 -2.61786 0
M  V30 6705 C 658.745 -3.94539 -2.16007 0
M  V30 6706 C 660.064 -2.47365 -3.64003 0
M  V30 6707 H 657.183 -0.524506 -0.517748 0
M  V30 6708 H 659.825 -1.74335 -0.755466 0
M  V30 6709 H 657.975 -2.21565 -3.19126 0
M  V30 6710 H 659.647 -4.31254 -1.63762 0
M  V30 6711 H 657.89 -4.07957 -1.47491 0
M  V30 6712 H 658.561 -4.62357 -3.01546 0
M  V30 6713 H 661.037 -2.70243 -3.16399 0
M  V30 6714 H 659.913 -3.21552 -4.44854 0
M  V30 6715 H 660.174 -1.50299 -4.15767 0
M  V30 6716 N 659.233 0.902656 -1.29189 0
M  V30 6717 C 660.461 1.68639 -1.19869 0
M  V30 6718 C 660.876 1.87254 0.241121 0
M  V30 6719 O 660.233 1.40745 1.16177 0
M  V30 6720 C 660.284 3.07251 -1.90471 0
M  V30 6721 O 660.005 2.89488 -3.28829 0
M  V30 6722 C 661.506 4.01653 -1.8759 0
M  V30 6723 H 658.726 0.526802 -0.415596 0
M  V30 6724 H 661.27 1.12901 -1.7051 0
M  V30 6725 H 659.425 3.59774 -1.43672 0
M  V30 6726 H 659.839 3.77296 -3.64346 0
M  V30 6727 H 661.313 4.96339 -2.4156 0
M  V30 6728 H 661.79 4.30881 -0.850756 0
M  V30 6729 H 662.396 3.55061 -2.34119 0
M  V30 6730 N 660.711 1.11618 1.11262 0
M  V30 6731 C 661.936 0.889013 1.8738 0
M  V30 6732 C 662.361 -0.555884 1.79698 0
M  V30 6733 O 661.719 -1.39272 1.16073 0
M  V30 6734 C 661.767 1.35759 3.34069 0
M  V30 6735 O 660.871 0.530499 4.08974 0
M  V30 6736 H 660.212 0.320082 0.581759 0
M  V30 6737 H 662.742 1.48611 1.40627 0
M  V30 6738 H 662.752 1.35291 3.84916 0
M  V30 6739 H 661.427 2.40973 3.38976 0
M  V30 6740 H 660.004 0.601439 3.68018 0
M  V30 6741 N 662.189 -1.289 0.906776 0
M  V30 6742 C 663.136 -2.2751 0.388313 0
M  V30 6743 C 664.106 -1.57301 -0.533439 0
M  V30 6744 O 665.291 -1.85243 -0.457148 0
M  V30 6745 C 662.431 -3.43091 -0.37181 0
M  V30 6746 C 661.544 -4.28066 0.581647 0
M  V30 6747 C 660.679 -5.30837 -0.19623 0
M  V30 6748 C 659.718 -6.07472 0.751294 0
M  V30 6749 N 658.855 -7.021 0.00737727 0
M  V30 6750 H 663.695 -2.71237 1.23428 0
M  V30 6751 H 661.232 -1.33397 0.619962 0
M  V30 6752 H 663.19 -4.08888 -0.828641 0
M  V30 6753 H 661.82 -3.00374 -1.18218 0
M  V30 6754 H 660.872 -3.62378 1.157 0
M  V30 6755 H 662.184 -4.81382 1.30665 0
M  V30 6756 H 661.338 -6.02485 -0.71394 0
M  V30 6757 H 660.077 -4.78272 -0.954324 0
M  V30 6758 H 659.082 -5.34682 1.28044 0
M  V30 6759 H 660.307 -6.62126 1.50883 0
M  V30 6760 H 658.253 -6.51894 -0.732854 0
M  V30 6761 H 658.17 -7.53004 0.672334 0
M  V30 6762 H 659.438 -7.77956 -0.490365 0
M  V30 6763 N 663.667 -0.670007 -1.42649 0
M  V30 6764 C 664.615 0.0230106 -2.32589 0
M  V30 6765 C 665.609 0.795585 -1.49555 0
M  V30 6766 O 666.815 0.70409 -1.65658 0
M  V30 6767 H 663.19 0.0262342 -0.751542 0
M  V30 6768 H 665.161 -0.753009 -2.88743 0
M  V30 6769 C 663.91 0.963872 -3.34073 0
M  V30 6770 H 663.233 0.378813 -3.98001 0
M  V30 6771 H 664.673 1.41755 -3.99602 0
M  V30 6772 C 663.132 2.06797 -2.65964 0
M  V30 6773 O 663.662 3.15383 -2.48789 0
M  V30 6774 N 661.868 1.83831 -2.25066 0
M  V30 6775 H 661.415 0.955235 -2.39234 0
M  V30 6776 H 661.373 2.57895 -1.79827 0
M  V30 6777 N 665.145 1.52092 -0.413018 0
M  V30 6778 C 666.093 2.28681 0.425199 0
M  V30 6779 C 667.087 1.3353 1.04241 0
M  V30 6780 O 668.293 1.50973 0.980166 0
M  V30 6781 H 664.668 0.735661 0.155906 0
M  V30 6782 H 666.639 2.97418 -0.241926 0
M  V30 6783 C 665.388 3.1235 1.5275 0
M  V30 6784 H 664.711 3.85439 1.06191 0
M  V30 6785 H 666.151 3.69038 2.08774 0
M  V30 6786 C 664.61 2.26161 2.49706 0
M  V30 6787 O 665.14 1.90452 3.53682 0
M  V30 6788 N 663.346 1.89854 2.20008 0
M  V30 6789 H 662.893 2.19092 1.35486 0
M  V30 6790 H 662.851 1.3248 2.85125 0
M  V30 6791 N 666.623 0.143563 1.56945 0
M  V30 6792 C 667.872 -0.50835 1.95189 0
M  V30 6793 C 668.185 -1.66239 1.03073 0
M  V30 6794 O 669.391 -2.3787 1.30882 0
M  V30 6795 C 667.847 -0.955735 3.46978 0
M  V30 6796 C 667.455 0.171183 4.47673 0
M  V30 6797 C 669.199 -1.57763 3.94095 0
M  V30 6798 C 667.106 -0.294279 5.90667 0
M  V30 6799 H 666.036 -0.193679 0.728701 0
M  V30 6800 H 668.687 0.227357 1.82086 0
M  V30 6801 H 667.069 -1.7466 3.55401 0
M  V30 6802 H 668.243 0.948049 4.50942 0
M  V30 6803 H 666.558 0.701273 4.10452 0
M  V30 6804 H 669.155 -1.93745 4.98364 0
M  V30 6805 H 669.498 -2.46531 3.35452 0
M  V30 6806 H 670.031 -0.851728 3.88575 0
M  V30 6807 H 666.77 0.557939 6.53121 0
M  V30 6808 H 666.29 -1.0371 5.90766 0
M  V30 6809 H 667.969 -0.747426 6.42668 0
M  V30 6810 N 668.101 -1.57061 -0.130224 0
M  V30 6811 C 669.347 -1.85412 -0.836295 0
M  V30 6812 C 669.702 -0.729831 -1.7802 0
M  V30 6813 O 668.995 0.271021 -1.89673 0
M  V30 6814 C 669.189 -3.17878 -1.63365 0
M  V30 6815 C 669.018 -4.43086 -0.768453 0
M  V30 6816 C 667.788 -5.03488 -0.427598 0
M  V30 6817 C 669.986 -5.14219 -0.0911495 0
M  V30 6818 N 667.968 -6.12253 0.449439 0
M  V30 6819 C 669.339 -6.16632 0.645341 0
M  V30 6820 C 671.394 -4.97898 -0.0135625 0
M  V30 6821 C 670.097 -7.0449 1.45212 0
M  V30 6822 C 672.123 -5.86234 0.780001 0
M  V30 6823 C 671.485 -6.88141 1.50472 0
M  V30 6824 H 667.584 -0.728875 -0.283311 0
M  V30 6825 H 670.168 -1.9444 -0.100662 0
M  V30 6826 H 668.339 -3.09967 -2.3404 0
M  V30 6827 H 670.071 -3.34076 -2.28419 0
M  V30 6828 H 666.826 -4.67344 -0.767264 0
M  V30 6829 H 667.25 -6.71263 0.879476 0
M  V30 6830 H 671.892 -4.19082 -0.559511 0
M  V30 6831 H 669.61 -7.82722 2.00926 0
M  V30 6832 H 673.196 -5.75671 0.842246 0
M  V30 6833 H 672.076 -7.55311 2.1089 0
M  V30 6834 N 669.579 0.400081 -1.52437 0
M  V30 6835 C 670.825 1.14456 -1.68141 0
M  V30 6836 C 671.18 1.87965 -0.410722 0
M  V30 6837 O 670.473 1.82121 0.595195 0
M  V30 6838 C 670.667 2.15914 -2.84808 0
M  V30 6839 C 670.496 1.5237 -4.231 0
M  V30 6840 C 669.266 1.29252 -4.8849 0
M  V30 6841 C 671.464 0.979722 -5.04882 0
M  V30 6842 N 669.446 0.616955 -6.10792 0
M  V30 6843 C 670.817 0.43159 -6.18496 0
M  V30 6844 C 672.872 0.875059 -4.9015 0
M  V30 6845 C 671.575 -0.210958 -7.18991 0
M  V30 6846 C 673.601 0.246351 -5.90887 0
M  V30 6847 C 672.963 -0.291062 -7.03798 0
M  V30 6848 H 669.062 0.405181 -0.668844 0
M  V30 6849 H 671.646 0.435655 -1.89763 0
M  V30 6850 H 669.817 2.84154 -2.64785 0
M  V30 6851 H 671.549 2.8279 -2.89503 0
M  V30 6852 H 668.304 1.56451 -4.47012 0
M  V30 6853 H 668.728 0.295536 -6.76355 0
M  V30 6854 H 673.37 1.27636 -4.03074 0
M  V30 6855 H 671.088 -0.6243 -8.05685 0
M  V30 6856 H 674.674 0.166765 -5.81561 0
M  V30 6857 H 673.554 -0.76988 -7.80412 0
M  V30 6858 N 671.057 1.43213 0.657864 0
M  V30 6859 C 671.987 1.50815 1.78262 0
M  V30 6860 C 672.968 0.363211 1.66177 0
M  V30 6861 O 674.153 0.579806 1.85343 0
M  V30 6862 C 671.283 1.42625 3.16663 0
M  V30 6863 C 670.237 2.5532 3.43505 0
M  V30 6864 C 669.563 2.32184 4.81658 0
M  V30 6865 C 670.863 3.97583 3.38711 0
M  V30 6866 H 672.557 2.44954 1.72157 0
M  V30 6867 H 670.103 1.17896 0.82683 0
M  V30 6868 H 672.056 1.46548 3.95097 0
M  V30 6869 H 670.78 0.449877 3.23487 0
M  V30 6870 H 669.439 2.50742 2.6744 0
M  V30 6871 H 669.087 1.32801 4.85153 0
M  V30 6872 H 668.787 3.07724 5.00579 0
M  V30 6873 H 670.311 2.37883 5.62356 0
M  V30 6874 H 671.725 4.03673 4.07089 0
M  V30 6875 H 670.122 4.73112 3.69168 0
M  V30 6876 H 671.192 4.23049 2.36976 0
M  V30 6877 N 672.536 -0.895792 1.29666 0
M  V30 6878 C 673.785 -1.64131 1.17234 0
M  V30 6879 C 674.098 -1.93665 -0.274416 0
M  V30 6880 O 675.304 -2.66472 -0.520105 0
M  V30 6881 C 673.76 -2.95764 2.05065 0
M  V30 6882 C 673.368 -2.7381 3.54587 0
M  V30 6883 C 675.112 -3.737 2.01367 0
M  V30 6884 C 673.019 -4.01194 4.34508 0
M  V30 6885 H 671.949 -0.615742 0.435175 0
M  V30 6886 H 674.6 -0.992626 1.54335 0
M  V30 6887 H 672.982 -3.61867 1.60837 0
M  V30 6888 H 674.156 -2.16277 4.06892 0
M  V30 6889 H 672.471 -2.09265 3.59996 0
M  V30 6890 H 675.068 -4.68152 2.58337 0
M  V30 6891 H 675.411 -4.04245 0.994575 0
M  V30 6892 H 675.944 -3.14444 2.43659 0
M  V30 6893 H 672.683 -3.75813 5.37071 0
M  V30 6894 H 672.203 -4.58272 3.86971 0
M  V30 6895 H 673.882 -4.69307 4.45376 0
M  V30 6896 N 674.014 -1.12206 -1.10668 0
M  V30 6897 C 675.262 -0.874144 -1.82217 0
M  V30 6898 C 675.583 0.601736 -1.85484 0
M  V30 6899 O 674.853 1.43725 -1.33116 0
M  V30 6900 H 673.433 -0.320404 -0.674797 0
M  V30 6901 H 676.095 -1.41606 -1.33917 0
M  V30 6902 H 675.191 -1.25349 -2.85822 0
M  V30 6903 N 675.492 1.28418 -0.913599 0
M  V30 6904 C 676.769 1.89977 -0.465619 0
M  V30 6905 C 677.149 1.82813 1.05559 0
M  V30 6906 O 676.497 1.26397 1.90358 0
M  V30 6907 C 676.707 3.34492 -0.995813 0
M  V30 6908 C 678.055 4.11468 -1.04782 0
M  V30 6909 O 679.079 3.43451 -0.944445 0
M  V30 6910 O 677.938 5.33046 -1.20518 0
M  V30 6911 H 675.032 0.813734 -0.147532 0
M  V30 6912 H 677.578 1.36786 -1.00437 0
M  V30 6913 H 676.35 3.33929 -2.03978 0
M  V30 6914 H 675.973 3.95181 -0.437878 0
M  V30 6915 N 676.97 0.677563 1.42291 0
M  V30 6916 C 678.198 0.209459 2.05837 0
M  V30 6917 C 678.613 -1.13444 1.50917 0
M  V30 6918 O 677.97 -1.70529 0.65008 0
M  V30 6919 C 678.021 0.138819 3.61233 0
M  V30 6920 O 677.742 1.42962 4.14118 0
M  V30 6921 C 679.243 -0.352449 4.41897 0
M  V30 6922 H 676.463 0.101209 0.663323 0
M  V30 6923 H 679.007 0.925077 1.8238 0
M  V30 6924 H 677.162 -0.527505 3.83792 0
M  V30 6925 H 677.576 1.3048 5.08011 0
M  V30 6926 H 679.05 -0.350778 5.50884 0
M  V30 6927 H 679.527 -1.3882 4.16684 0
M  V30 6928 H 680.133 0.282236 4.24362 0
M  V30 6929 N 678.448 -1.51871 0.421078 0
M  V30 6930 C 679.673 -2.0684 -0.152371 0
M  V30 6931 C 680.098 -1.28802 -1.37083 0
M  V30 6932 O 679.456 -0.321482 -1.78427 0
M  V30 6933 C 679.504 -3.57532 -0.469368 0
M  V30 6934 O 678.608 -3.81818 -1.55848 0
M  V30 6935 H 677.949 -0.663939 -0.00898586 0
M  V30 6936 H 680.479 -1.95674 0.597724 0
M  V30 6937 H 680.489 -4.01515 -0.724553 0
M  V30 6938 H 679.164 -4.13761 0.421276 0
M  V30 6939 H 677.741 -3.49709 -1.29453 0
M  V30 6940 N 679.926 -0.151884 -1.56866 0
M  V30 6941 C 681.172 0.492327 -1.97352 0
M  V30 6942 C 681.527 1.62156 -1.03553 0
M  V30 6943 O 680.82 1.91467 -0.0714872 0
M  V30 6944 C 681.014 1.04074 -3.41911 0
M  V30 6945 C 680.843 -0.0338306 -4.49687 0
M  V30 6946 C 679.613 -0.476914 -5.03044 0
M  V30 6947 C 681.811 -0.827105 -5.07606 0
M  V30 6948 N 679.793 -1.53382 -5.9443 0
M  V30 6949 C 681.164 -1.73439 -5.95247 0
M  V30 6950 C 683.219 -0.874351 -4.90163 0
M  V30 6951 C 681.922 -2.68488 -6.67313 0
M  V30 6952 C 683.948 -1.81269 -5.62935 0
M  V30 6953 C 683.31 -2.70749 -6.50288 0
M  V30 6954 H 679.409 0.148822 -0.767708 0
M  V30 6955 H 681.993 -0.247615 -1.93119 0
M  V30 6956 H 680.164 1.75027 -3.46728 0
M  V30 6957 H 681.896 1.65197 -3.69448 0
M  V30 6958 H 678.651 -0.0782493 -4.73535 0
M  V30 6959 H 679.075 -2.06217 -6.44828 0
M  V30 6960 H 683.717 -0.196628 -4.22343 0
M  V30 6961 H 681.435 -3.37257 -7.34359 0
M  V30 6962 H 685.021 -1.85511 -5.51432 0
M  V30 6963 H 683.901 -3.42175 -7.0561 0
M  V30 6964 N 681.404 1.57128 0.121893 0
M  V30 6965 C 682.652 1.84335 0.828548 0
M  V30 6966 C 682.973 0.736632 1.80551 0
M  V30 6967 O 682.243 -0.23962 1.94429 0
M  V30 6968 H 680.823 0.680108 0.30897 0
M  V30 6969 H 683.485 1.9459 0.109906 0
M  V30 6970 H 682.581 2.80152 1.37554 0
M  V30 6971 N 682.882 -0.391992 1.52647 0
M  V30 6972 C 684.107 -1.16312 1.71716 0
M  V30 6973 C 684.532 -1.83042 0.433279 0
M  V30 6974 O 683.89 -1.70705 -0.610707 0
M  V30 6975 C 683.938 -2.18908 2.86551 0
M  V30 6976 O 683.042 -3.2543 2.53316 0
M  V30 6977 H 682.383 -0.338743 0.571095 0
M  V30 6978 H 684.913 -0.457202 1.99426 0
M  V30 6979 H 684.923 -2.62954 3.1196 0
M  V30 6980 H 683.598 -1.69726 3.79692 0
M  V30 6981 H 682.175 -2.86543 2.38637 0
M  V30 6982 N 684.36 -1.4356 -0.65026 0
M  V30 6983 C 685.608 -1.45046 -1.40734 0
M  V30 6984 C 685.929 -0.0769822 -1.94848 0
M  V30 6985 O 685.199 0.888098 -1.74613 0
M  V30 6986 H 683.779 -0.534034 -0.522318 0
M  V30 6987 H 686.441 -1.79186 -0.766703 0
M  V30 6988 H 685.537 -2.16476 -2.24822 0
M  V30 6989 N 685.838 0.888903 -1.30139 0
M  V30 6990 C 687.078 1.65456 -1.20015 0
M  V30 6991 C 687.442 1.90467 0.242148 0
M  V30 6992 O 688.643 2.6472 0.466561 0
M  V30 6993 C 686.914 2.96071 -2.00191 0
M  V30 6994 S 688.473 3.87055 -2.06721 0
M  V30 6995 H 685.291 0.567927 -0.427761 0
M  V30 6996 H 687.893 1.05539 -1.64565 0
M  V30 6997 H 686.597 2.7559 -3.04103 0
M  V30 6998 H 686.128 3.61023 -1.56288 0
M  V30 6999 H 688.143 4.81676 -1.19174 0
M  V30 7000 N 687.317 1.12792 1.10072 0
M  V30 7001 C 688.28 0.802264 2.14701 0
M  V30 7002 C 689.28 -0.18515 1.59731 0
M  V30 7003 O 690.47 0.041109 1.74151 0
M  V30 7004 C 687.602 0.19285 3.40354 0
M  V30 7005 H 688.795 1.72932 2.45019 0
M  V30 7006 H 686.348 0.931662 1.25498 0
M  V30 7007 H 687.083 -0.743748 3.15656 0
M  V30 7008 H 686.868 0.903827 3.81541 0
M  V30 7009 H 688.358 -0.0183704 4.17596 0
M  V30 7010 N 688.795 -1.27931 0.920396 0
M  V30 7011 C 689.742 -2.27085 0.412422 0
M  V30 7012 C 690.712 -1.57858 -0.516725 0
M  V30 7013 O 691.897 -1.85717 -0.437475 0
M  V30 7014 C 689.037 -3.43466 -0.335399 0
M  V30 7015 C 688.15 -4.27425 0.627017 0
M  V30 7016 C 687.285 -5.31016 -0.139916 0
M  V30 7017 C 686.324 -6.06641 0.815683 0
M  V30 7018 N 685.461 -7.02052 0.0818439 0
M  V30 7019 H 690.301 -2.69913 1.26298 0
M  V30 7020 H 687.838 -1.32732 0.634076 0
M  V30 7021 H 689.796 -4.09744 -0.785226 0
M  V30 7022 H 688.426 -3.01611 -1.15025 0
M  V30 7023 H 687.478 -3.6113 1.19537 0
M  V30 7024 H 688.79 -4.79969 1.35763 0
M  V30 7025 H 687.944 -6.03208 -0.649998 0
M  V30 7026 H 686.683 -4.79257 -0.903543 0
M  V30 7027 H 685.688 -5.33294 1.33708 0
M  V30 7028 H 686.913 -6.60489 1.57897 0
M  V30 7029 H 684.859 -6.52634 -0.663671 0
M  V30 7030 H 684.776 -7.52249 0.752163 0
M  V30 7031 H 686.044 -7.78432 -0.407825 0
M  V30 7032 N 690.273 -0.685099 -1.4193 0
M  V30 7033 C 691.236 -0.0222632 -2.29189 0
M  V30 7034 C 692.236 0.7186 -1.4385 0
M  V30 7035 O 693.426 0.555058 -1.6512 0
M  V30 7036 C 690.558 0.979013 -3.2654 0
M  V30 7037 H 691.751 -0.790424 -2.89296 0
M  V30 7038 H 689.304 -0.448012 -1.49742 0
M  V30 7039 H 690.039 1.77531 -2.71392 0
M  V30 7040 H 689.824 0.451037 -3.89497 0
M  V30 7041 H 691.314 1.44091 -3.91954 0
M  V30 7042 N 691.751 1.51645 -0.429126 0
M  V30 7043 C 692.981 2.06133 0.138793 0
M  V30 7044 C 693.389 1.29735 1.37716 0
M  V30 7045 O 692.732 0.347955 1.80375 0
M  V30 7046 C 692.794 3.55504 0.534493 0
M  V30 7047 C 692.458 4.53098 -0.595917 0
M  V30 7048 C 693.455 4.98815 -1.46558 0
M  V30 7049 C 691.14 4.96296 -0.774309 0
M  V30 7050 C 693.134 5.86394 -2.4984 0
M  V30 7051 C 690.821 5.83667 -1.81042 0
M  V30 7052 C 691.819 6.28613 -2.67086 0
M  V30 7053 O 691.507 7.14251 -3.68919 0
M  V30 7054 H 691.239 0.675833 0.0150263 0
M  V30 7055 H 693.793 1.96301 -0.604584 0
M  V30 7056 H 692.023 3.63092 1.33045 0
M  V30 7057 H 693.712 3.92545 1.03262 0
M  V30 7058 H 694.478 4.66143 -1.33925 0
M  V30 7059 H 690.357 4.60859 -0.114178 0
M  V30 7060 H 693.901 6.21398 -3.17034 0
M  V30 7061 H 689.798 6.15753 -1.93698 0
M  V30 7062 H 690.566 7.3241 -3.65402 0
M  V30 7063 N 693.229 0.160201 1.56784 0
M  V30 7064 C 694.645 -0.196089 1.58391 0
M  V30 7065 C 694.845 -1.63689 1.17508 0
M  V30 7066 O 693.901 -2.36613 0.881506 0
M  V30 7067 C 695.214 0.0746449 3.00607 0
M  V30 7068 C 696.762 0.0119762 3.12998 0
M  V30 7069 C 697.237 0.255551 4.57286 0
M  V30 7070 N 698.728 0.202938 4.62755 0
M  V30 7071 C 699.463 0.365731 5.72232 0
M  V30 7072 N 698.959 0.586972 6.90309 0
M  V30 7073 N 700.752 0.302411 5.61286 0
M  V30 7074 H 692.903 1.1008 1.81648 0
M  V30 7075 H 695.166 0.436779 0.841384 0
M  V30 7076 H 694.872 1.07231 3.34954 0
M  V30 7077 H 694.746 -0.638802 3.71751 0
M  V30 7078 H 697.133 -0.976254 2.78484 0
M  V30 7079 H 697.214 0.75796 2.44313 0
M  V30 7080 H 696.858 1.24094 4.92507 0
M  V30 7081 H 696.788 -0.510912 5.24116 0
M  V30 7082 H 699.279 0.0371328 3.77882 0
M  V30 7083 H 699.592 0.700941 7.69615 0
M  V30 7084 H 697.937 0.623453 6.92198 0
M  V30 7085 H 701.128 0.130238 4.67919 0
M  V30 7086 H 701.301 0.432712 6.46554 0
M  V30 7087 N 694.707 -1.5719 -0.113559 0
M  V30 7088 C 696.118 -1.74259 -0.670116 0
M  V30 7089 C 696.469 -0.779694 -1.80042 0
M  V30 7090 O 695.594 0.0461353 -2.16351 0
M  V30 7091 C 696.189 -3.15981 -1.22236 0
M  V30 7092 C 694.748 -3.34537 -1.72516 0
M  V30 7093 C 693.895 -2.70116 -0.627098 0
M  V30 7094 H 696.846 -1.58301 0.112396 0
M  V30 7095 H 696.867 -3.17832 -2.09197 0
M  V30 7096 H 696.379 -3.86038 -0.39949 0
M  V30 7097 H 694.48 -2.6953 -2.57263 0
M  V30 7098 H 694.593 -4.42737 -1.83086 0
M  V30 7099 H 692.957 -2.31501 -1.06204 0
M  V30 7100 H 693.74 -3.42802 0.184889 0
M  V30 7101 N 696.185 0.383891 -1.52853 0
M  V30 7102 C 697.433 1.12619 -1.67814 0
M  V30 7103 C 697.754 1.90354 -0.423141 0
M  V30 7104 O 697.024 1.87649 0.562554 0
M  V30 7105 H 695.604 0.418738 -0.618601 0
M  V30 7106 H 698.266 0.43495 -1.89985 0
M  V30 7107 H 697.362 1.82624 -2.5309 0
M  V30 7108 N 697.663 1.43903 0.642637 0
M  V30 7109 C 698.909 1.46296 1.40447 0
M  V30 7110 C 699.242 0.0908361 1.93987 0
M  V30 7111 O 698.517 -0.889884 1.72949 0
M  V30 7112 C 698.8 2.51399 2.57819 0
M  V30 7113 C 698.653 3.97926 2.09702 0
M  V30 7114 C 699.972 2.53125 3.60022 0
M  V30 7115 H 697.091 0.532676 0.509338 0
M  V30 7116 H 699.733 1.75515 0.727635 0
M  V30 7117 H 697.883 2.26614 3.1556 0
M  V30 7118 H 699.555 4.33804 1.5688 0
M  V30 7119 H 697.798 4.10252 1.40982 0
M  V30 7120 H 698.469 4.67096 2.94152 0
M  V30 7121 H 700.945 2.75242 3.12059 0
M  V30 7122 H 699.821 3.28589 4.39682 0
M  V30 7123 H 700.082 1.56895 4.13324 0
M  V30 7124 N 699.141 -0.881989 1.30609 0
M  V30 7125 C 700.371 -1.66469 1.22359 0
M  V30 7126 C 700.779 -1.87969 -0.215507 0
M  V30 7127 O 700.122 -1.42938 -1.15388 0
M  V30 7128 C 700.184 -3.06135 1.88472 0
M  V30 7129 C 699.848 -3.07795 3.37804 0
M  V30 7130 C 700.845 -2.86633 4.33749 0
M  V30 7131 C 698.53 -3.29297 3.793 0
M  V30 7132 C 700.524 -2.86934 5.69164 0
M  V30 7133 C 698.211 -3.29228 5.14832 0
M  V30 7134 C 699.209 -3.08071 6.09574 0
M  V30 7135 O 698.897 -3.07824 7.4263 0
M  V30 7136 H 698.629 -0.526129 0.424458 0
M  V30 7137 H 701.183 -1.11004 1.72821 0
M  V30 7138 H 699.413 -3.63276 1.32543 0
M  V30 7139 H 701.102 -3.66571 1.74301 0
M  V30 7140 H 701.868 -2.69814 4.0302 0
M  V30 7141 H 697.747 -3.44799 3.05998 0
M  V30 7142 H 701.291 -2.70339 6.43088 0
M  V30 7143 H 697.188 -3.45583 5.452 0
M  V30 7144 H 697.956 -3.2397 7.51656 0
M  V30 7145 N 700.619 -1.13374 -1.09472 0
M  V30 7146 C 701.867 -0.893422 -1.8128 0
M  V30 7147 C 702.188 0.582029 -1.86111 0
M  V30 7148 O 701.458 1.42305 -1.34633 0
M  V30 7149 H 700.038 -0.327543 -0.67136 0
M  V30 7150 H 702.7 -1.43018 -1.32408 0
M  V30 7151 H 701.796 -1.28374 -2.84476 0
M  V30 7152 N 702.098 1.27442 -0.927168 0
M  V30 7153 C 703.046 2.28844 -0.416333 0
M  V30 7154 C 704.04 1.61882 0.499057 0
M  V30 7155 O 705.246 1.75969 0.378817 0
M  V30 7156 H 701.621 0.742989 -0.116065 0
M  V30 7157 H 703.592 2.69344 -1.28438 0
M  V30 7158 C 702.341 3.4626 0.316107 0
M  V30 7159 H 701.664 3.97999 -0.379082 0
M  V30 7160 H 703.104 4.19173 0.637975 0
M  V30 7161 C 701.563 3.00211 1.5289 0
M  V30 7162 O 702.093 3.03837 2.62766 0
M  V30 7163 N 700.299 2.55713 1.38054 0
M  V30 7164 H 699.846 2.52962 0.4866 0
M  V30 7165 H 699.804 2.25264 2.19325 0
M  V30 7166 N 703.576 0.692616 1.41565 0
M  V30 7167 C 704.822 0.222664 2.01574 0
M  V30 7168 C 705.155 -1.1737 1.54719 0
M  V30 7169 O 704.43 -1.79161 0.757084 0
M  V30 7170 C 704.713 0.277064 3.59033 0
M  V30 7171 C 704.566 1.71016 4.16021 0
M  V30 7172 C 705.885 -0.36479 4.38586 0
M  V30 7173 H 703.004 0.0823839 0.732381 0
M  V30 7174 H 705.646 0.880778 1.68352 0
M  V30 7175 H 703.796 -0.283288 3.87466 0
M  V30 7176 H 705.468 2.32413 3.98475 0
M  V30 7177 H 703.711 2.24525 3.71175 0
M  V30 7178 H 704.382 1.69978 5.25178 0
M  V30 7179 H 706.858 0.112404 4.15948 0
M  V30 7180 H 705.734 -0.296169 5.481 0
M  V30 7181 H 705.995 -1.44506 4.17816 0
M  V30 7182 N 705.054 -1.51416 0.437162 0
M  V30 7183 C 705.987 -2.24309 -0.419602 0
M  V30 7184 C 706.965 -1.26236 -1.02485 0
M  V30 7185 O 708.149 -1.5537 -1.06735 0
M  V30 7186 C 705.276 -2.99335 -1.58482 0
M  V30 7187 C 704.322 -4.12064 -1.10027 0
M  V30 7188 S 705.155 -5.35483 -0.0424476 0
M  V30 7189 C 706.311 -6.14047 -1.21234 0
M  V30 7190 H 706.544 -2.96632 0.199259 0
M  V30 7191 H 704.077 -1.528 0.22168 0
M  V30 7192 H 706.035 -3.43159 -2.25282 0
M  V30 7193 H 704.696 -2.26602 -2.17509 0
M  V30 7194 H 703.889 -4.63836 -1.97161 0
M  V30 7195 H 703.491 -3.70499 -0.510507 0
M  V30 7196 H 705.783 -6.43123 -2.13072 0
M  V30 7197 H 706.726 -7.04279 -0.734582 0
M  V30 7198 H 707.134 -5.45538 -1.45082 0
M  V30 7199 N 706.532 -0.168513 -1.56696 0
M  V30 7200 C 707.778 0.477865 -1.9709 0
M  V30 7201 C 708.111 1.63084 -1.05438 0
M  V30 7202 O 707.386 1.94238 -0.10095 0
M  V30 7203 C 707.669 0.963521 -3.4697 0
M  V30 7204 C 707.522 -0.189443 -4.49401 0
M  V30 7205 C 708.841 1.83813 -3.99876 0
M  V30 7206 H 705.96 0.172229 -0.716593 0
M  V30 7207 H 708.602 -0.254083 -1.88293 0
M  V30 7208 H 706.752 1.58724 -3.54597 0
M  V30 7209 H 708.424 -0.826451 -4.53836 0
M  V30 7210 H 706.667 -0.845366 -4.25483 0
M  V30 7211 H 707.338 0.192446 -5.51664 0
M  V30 7212 H 709.814 1.31235 -3.94863 0
M  V30 7213 H 708.69 2.14697 -5.0517 0
M  V30 7214 H 708.951 2.78289 -3.43523 0
M  V30 7215 N 708.01 1.57248 0.105221 0
M  V30 7216 C 709.257 1.8557 0.810552 0
M  V30 7217 C 709.585 0.755595 1.79223 0
M  V30 7218 O 708.84 -0.251788 1.94073 0
M  V30 7219 C 709.139 3.20437 1.58287 0
M  V30 7220 C 708.805 4.44716 0.744235 0
M  V30 7221 C 707.467 4.78458 0.513013 0
M  V30 7222 C 709.819 5.20953 0.160578 0
M  V30 7223 C 707.147 5.8587 -0.311894 0
M  V30 7224 C 709.499 6.29235 -0.651596 0
M  V30 7225 C 708.163 6.615 -0.893005 0
M  V30 7226 H 707.433 0.67905 0.296602 0
M  V30 7227 H 710.08 1.91363 0.0723968 0
M  V30 7228 H 708.385 3.10283 2.39232 0
M  V30 7229 H 710.082 3.39576 2.13282 0
M  V30 7230 H 706.672 4.18287 0.934555 0
M  V30 7231 H 710.856 4.95226 0.3264 0
M  V30 7232 H 706.112 6.09286 -0.508012 0
M  V30 7233 H 710.286 6.87484 -1.11077 0
M  V30 7234 H 707.913 7.44562 -1.53401 0
M  V30 7235 N 709.488 -0.375779 1.53054 0
M  V30 7236 C 710.716 -1.14036 1.72637 0
M  V30 7237 C 711.131 -1.83342 0.450687 0
M  V30 7238 O 710.488 -1.7318 -0.575749 0
M  V30 7239 C 710.539 -2.17841 2.88492 0
M  V30 7240 O 710.26 -1.51358 4.11123 0
M  V30 7241 C 711.761 -3.06924 3.19863 0
M  V30 7242 H 708.981 -0.341386 0.577665 0
M  V30 7243 H 711.525 -0.437809 1.99759 0
M  V30 7244 H 709.68 -2.8371 2.63794 0
M  V30 7245 H 710.094 -2.20439 4.75928 0
M  V30 7246 H 711.568 -3.75763 4.04359 0
M  V30 7247 H 712.045 -3.71169 2.34798 0
M  V30 7248 H 712.651 -2.46684 3.46449 0
M  V30 7249 N 710.966 -1.44241 -0.634997 0
M  V30 7250 C 712.243 -1.37296 -1.39317 0
M  V30 7251 C 712.623 -0.0297532 -2.11079 0
M  V30 7252 O 711.971 0.987524 -2.06059 0
M  V30 7253 C 712.181 -2.56853 -2.36279 0
M  V30 7254 C 713.529 -3.00747 -2.99728 0
M  V30 7255 O 714.553 -2.5703 -2.46605 0
M  V30 7256 O 713.412 -3.76533 -3.96087 0
M  V30 7257 H 710.506 -0.543503 -0.623325 0
M  V30 7258 H 713.052 -1.56324 -0.660376 0
M  V30 7259 H 711.824 -3.46228 -1.82324 0
M  V30 7260 H 711.447 -2.40019 -3.16981 0
M  V30 7261 N 712.444 0.87505 -1.31075 0
M  V30 7262 C 713.69 1.63006 -1.21657 0
M  V30 7263 C 714.045 1.91088 0.224306 0
M  V30 7264 O 713.338 1.52779 1.15625 0
M  V30 7265 C 713.532 2.96948 -1.98888 0
M  V30 7266 C 713.361 2.81944 -3.50339 0
M  V30 7267 C 712.131 2.814 -4.19693 0
M  V30 7268 C 714.329 2.57171 -4.45385 0
M  V30 7269 N 712.311 2.57392 -5.57335 0
M  V30 7270 C 713.682 2.42379 -5.7066 0
M  V30 7271 C 715.737 2.42474 -4.34868 0
M  V30 7272 C 714.44 2.14385 -6.86609 0
M  V30 7273 C 716.466 2.15868 -5.50595 0
M  V30 7274 C 715.828 2.0186 -6.74857 0
M  V30 7275 H 711.927 0.601043 -0.500271 0
M  V30 7276 H 714.511 1.03033 -1.65204 0
M  V30 7277 H 712.682 3.54936 -1.57718 0
M  V30 7278 H 714.414 3.61702 -1.81531 0
M  V30 7279 H 711.169 2.93596 -3.71616 0
M  V30 7280 H 711.593 2.48373 -6.29794 0
M  V30 7281 H 716.235 2.52035 -3.39468 0
M  V30 7282 H 713.953 2.03562 -7.82041 0
M  V30 7283 H 717.539 2.05304 -5.44372 0
M  V30 7284 H 716.419 1.81562 -7.62892 0
M  V30 7285 N 713.922 1.13953 1.08869 0
M  V30 7286 C 715.171 0.899431 1.80536 0
M  V30 7287 C 715.484 -0.575781 1.86933 0
M  V30 7288 O 716.69 -0.932988 2.54966 0
M  V30 7289 C 715.146 1.55963 3.24351 0
M  V30 7290 C 714.754 3.07077 3.26202 0
M  V30 7291 C 716.498 1.40046 4.00733 0
M  V30 7292 C 714.405 3.65955 4.64576 0
M  V30 7293 H 713.335 0.332849 0.676556 0
M  V30 7294 H 715.986 1.3679 1.22314 0
M  V30 7295 H 714.368 1.01883 3.82669 0
M  V30 7296 H 715.542 3.67785 2.77617 0
M  V30 7297 H 713.857 3.22576 2.63312 0
M  V30 7298 H 716.454 1.81441 5.02974 0
M  V30 7299 H 716.797 0.345993 4.1486 0
M  V30 7300 H 717.33 1.91137 3.48872 0
M  V30 7301 H 714.069 4.71234 4.55652 0
M  V30 7302 H 713.589 3.10027 5.13462 0
M  V30 7303 H 715.268 3.65968 5.33551 0
M  V30 7304 N 715.4 -1.26948 0.933913 0
M  V30 7305 C 716.63 -1.97898 0.593279 0
M  V30 7306 C 717.038 -1.69806 -0.834412 0
M  V30 7307 O 716.381 -0.958704 -1.56699 0
M  V30 7308 C 716.443 -3.51657 0.746825 0
M  V30 7309 C 716.107 -4.03384 2.14779 0
M  V30 7310 C 717.104 -4.15682 3.12257 0
M  V30 7311 C 714.789 -4.37577 2.46641 0
M  V30 7312 C 716.783 -4.61455 4.39702 0
M  V30 7313 C 714.47 -4.8304 3.7432 0
M  V30 7314 C 715.468 -4.94939 4.70664 0
M  V30 7315 O 715.156 -5.39403 5.96071 0
M  V30 7316 H 714.888 -0.63814 0.223055 0
M  V30 7317 H 717.442 -1.62608 1.2549 0
M  V30 7318 H 715.672 -3.8669 0.0280889 0
M  V30 7319 H 717.361 -4.03821 0.410328 0
M  V30 7320 H 718.127 -3.89519 2.88964 0
M  V30 7321 H 714.006 -4.27554 1.72391 0
M  V30 7322 H 717.55 -4.70658 5.14905 0
M  V30 7323 H 713.447 -5.08646 3.97429 0
M  V30 7324 H 714.215 -5.57641 5.99148 0
M  V30 7325 N 716.879 -0.700114 -1.41195 0
M  V30 7326 C 718.295 -0.372114 -1.55201 0
M  V30 7327 C 718.495 1.12053 -1.6747 0
M  V30 7328 O 717.551 1.90642 -1.65566 0
M  V30 7329 C 718.864 -1.12462 -2.78878 0
M  V30 7330 C 720.412 -1.10941 -2.92679 0
M  V30 7331 C 720.887 -1.84376 -4.19249 0
M  V30 7332 N 722.378 -1.81368 -4.26216 0
M  V30 7333 C 723.113 -2.35024 -5.23021 0
M  V30 7334 N 722.609 -2.9717 -6.25829 0
M  V30 7335 N 724.402 -2.25254 -5.14992 0
M  V30 7336 H 716.553 -1.66816 -1.31477 0
M  V30 7337 H 718.816 -0.704223 -0.634644 0
M  V30 7338 H 718.522 -2.17937 -2.76037 0
M  V30 7339 H 718.396 -0.706152 -3.70531 0
M  V30 7340 H 720.783 -0.062911 -2.95033 0
M  V30 7341 H 720.864 -1.56698 -2.02187 0
M  V30 7342 H 720.508 -2.89008 -4.17656 0
M  V30 7343 H 720.438 -1.3605 -5.08722 0
M  V30 7344 H 722.929 -1.36062 -3.52556 0
M  V30 7345 H 723.242 -3.35668 -6.96094 0
M  V30 7346 H 721.587 -3.01249 -6.26318 0
M  V30 7347 H 724.778 -1.76372 -4.33602 0
M  V30 7348 H 724.951 -2.67373 -5.90268 0
M  V30 7349 N 718.357 1.51182 -0.445186 0
M  V30 7350 C 719.289 2.25714 0.398206 0
M  V30 7351 C 720.302 1.30032 0.979562 0
M  V30 7352 O 721.491 1.55731 0.872368 0
M  V30 7353 C 718.591 3.00348 1.56985 0
M  V30 7354 C 717.764 4.23187 1.10596 0
M  V30 7355 C 716.823 4.80334 2.14863 0
M  V30 7356 O 715.849 5.4196 1.73977 0
M  V30 7357 N 717.051 4.65053 3.47427 0
M  V30 7358 H 719.816 2.98732 -0.240629 0
M  V30 7359 H 717.377 1.59556 -0.274507 0
M  V30 7360 H 719.369 3.35464 2.26376 0
M  V30 7361 H 717.939 2.30291 2.11387 0
M  V30 7362 H 717.159 3.93476 0.238832 0
M  V30 7363 H 718.447 5.02886 0.773537 0
M  V30 7364 H 717.845 4.15984 3.83372 0
M  V30 7365 H 716.402 5.04509 4.12691 0
M  V30 7366 N 719.835 0.176821 1.56605 0
M  V30 7367 C 720.768 -0.790135 2.14084 0
M  V30 7368 C 721.746 -1.22219 1.07244 0
M  V30 7369 O 722.93 -1.31298 1.35252 0
M  V30 7370 C 720.057 -2.06475 2.68488 0
M  V30 7371 C 719.103 -1.77628 3.87751 0
M  V30 7372 S 719.936 -0.940612 5.27174 0
M  V30 7373 C 721.092 -2.22577 5.84988 0
M  V30 7374 H 721.325 -0.30144 2.95768 0
M  V30 7375 H 718.858 -0.0379279 1.54353 0
M  V30 7376 H 720.816 -2.79683 3.00479 0
M  V30 7377 H 719.477 -2.52457 1.8688 0
M  V30 7378 H 718.67 -2.72215 4.24164 0
M  V30 7379 H 718.272 -1.12512 3.56675 0
M  V30 7380 H 720.564 -3.17992 5.98237 0
M  V30 7381 H 721.507 -1.90624 6.81959 0
M  V30 7382 H 721.915 -2.34588 5.13448 0
M  V30 7383 N 721.313 -1.57302 -0.09688 0
M  V30 7384 C 722.729 -1.53094 -0.451041 0
M  V30 7385 C 722.929 -0.893265 -1.80618 0
M  V30 7386 O 721.985 -0.485013 -2.47798 0
M  V30 7387 C 723.298 -2.9782 -0.415172 0
M  V30 7388 C 724.846 -3.09026 -0.497155 0
M  V30 7389 C 725.321 -4.55356 -0.491452 0
M  V30 7390 N 726.812 -4.59896 -0.552258 0
M  V30 7391 C 727.547 -5.70563 -0.569654 0
M  V30 7392 N 727.043 -6.90666 -0.543365 0
M  V30 7393 N 728.836 -5.58733 -0.614331 0
M  V30 7394 H 720.987 -1.97131 0.790771 0
M  V30 7395 H 723.25 -0.901211 0.294147 0
M  V30 7396 H 722.956 -3.47933 0.513362 0
M  V30 7397 H 722.83 -3.56416 -1.23481 0
M  V30 7398 H 725.217 -2.58902 -1.41611 0
M  V30 7399 H 725.298 -2.53386 0.35059 0
M  V30 7400 H 724.942 -5.06131 0.423549 0
M  V30 7401 H 724.872 -5.08832 -1.35639 0
M  V30 7402 H 727.363 -3.73456 -0.577842 0
M  V30 7403 H 727.676 -7.70769 -0.559873 0
M  V30 7404 H 726.021 -6.93123 -0.510441 0
M  V30 7405 H 729.212 -4.63809 -0.632387 0
M  V30 7406 H 729.385 -6.44984 -0.62442 0
M  V30 7407 N 722.791 0.367657 -1.53252 0
M  V30 7408 C 723.754 1.43308 -1.78873 0
M  V30 7409 C 724.754 1.46671 -0.659115 0
M  V30 7410 O 725.944 1.47468 -0.927306 0
M  V30 7411 C 723.076 2.82442 -1.90892 0
M  V30 7412 H 724.269 1.21864 -2.74024 0
M  V30 7413 H 721.822 0.600668 -1.44297 0
M  V30 7414 H 722.557 3.09202 -0.978 0
M  V30 7415 H 722.342 2.81399 -2.73051 0
M  V30 7416 H 723.832 3.59601 -2.12314 0
M  V30 7417 N 724.269 1.44576 0.627338 0
M  V30 7418 C 725.546 1.38033 1.38586 0
M  V30 7419 C 725.926 0.0409468 2.1106 0
M  V30 7420 O 725.274 -0.976582 2.0658 0
M  V30 7421 C 725.484 2.58102 2.34913 0
M  V30 7422 C 726.832 3.02332 2.98129 0
M  V30 7423 O 727.856 2.58334 2.45238 0
M  V30 7424 O 726.715 3.78628 3.94085 0
M  V30 7425 H 723.809 0.546801 0.620434 0
M  V30 7426 H 726.355 1.56672 0.652077 0
M  V30 7427 H 725.127 3.4719 1.80485 0
M  V30 7428 H 724.75 2.41696 3.15703 0
M  V30 7429 N 725.747 -0.868086 1.31537 0
M  V30 7430 C 726.995 -1.61807 1.21091 0
M  V30 7431 C 727.316 -1.93631 -0.230623 0
M  V30 7432 O 726.586 -1.5846 -1.15183 0
M  V30 7433 H 725.166 -0.599854 0.445178 0
M  V30 7434 H 727.828 -1.03915 1.64887 0
M  V30 7435 H 726.924 -2.56088 1.78396 0
M  V30 7436 O 727.264 -1.26432 -1.00485 0
M  V30 7437 H 727.955 -1.05382 -1.62525 0
M  V30 END ATOM
M  V30 BEGIN BOND
M  V30 END BOND
M  V30 END CTAB
M  END
$$$$
