drugbank_target|O15382 Branched-chain-amino-acid aminotransferase, mitochondrial (DB00114; DB00142; DB00149; DB00167; DB02142; DB02635; DB04074)
 OpenBabel12092119383D

  0  0  0     0  0            999 V3000
M  V30 BEGIN CTAB
M  V30 COUNTS 6281 6365 0 0 0
M  V30 BEGIN ATOM
M  V30 1 H -0.908 1.98254 -0.117106 0
M  V30 2 N 0 1.576 0 0
M  V30 3 C 0.933 2.03868 1.02534 0
M  V30 4 C 1.911 0.928543 1.3348 0
M  V30 5 O 3.095 1.19667 1.45644 0
M  V30 6 C 0.222 2.43627 2.35294 0
M  V30 7 C -0.732 3.65373 2.2001 0
M  V30 8 S 0.101 5.13292 1.52614 0
M  V30 9 C 1.257 5.56322 2.86805 0
M  V30 10 H 1.49 2.90518 0.631377 0
M  V30 11 H -0.977 1.52953 0.210867 0
M  V30 12 H 0.981 2.67203 3.11629 0
M  V30 13 H -0.358 1.57376 2.7183 0
M  V30 14 H -1.165 3.90944 3.18086 0
M  V30 15 H -1.563 3.418 1.51819 0
M  V30 16 H 0.729 5.58782 3.83104 0
M  V30 17 H 1.672 6.56266 2.65933 0
M  V30 18 H 2.08 4.83886 2.90714 0
M  V30 19 N 1.4781 -0.272755 1.55222 0
M  V30 20 C 2.4411 -1.32041 1.87344 0
M  V30 21 C 3.4411 -1.42342 0.74803 0
M  V30 22 O 4.6311 -1.41488 1.0162 0
M  V30 23 C 1.7631 -2.70173 2.07893 0
M  V30 24 H 2.9561 -1.04789 2.80997 0
M  V30 25 H 0.5091 -0.51083 1.47717 0
M  V30 26 H 1.2441 -3.02605 1.16622 0
M  V30 27 H 1.0291 -2.64082 2.89833 0
M  V30 28 H 2.5191 -3.45869 2.34017 0
M  V30 29 N 2.9562 -1.48159 -0.537278 0
M  V30 30 C 3.9192 -1.61665 -1.62472 0
M  V30 31 C 4.9192 -0.490395 -1.5314 0
M  V30 32 O 6.1092 -0.755998 -1.5694 0
M  V30 33 C 3.2412 -1.57997 -3.02076 0
M  V30 34 H 4.4342 -2.58621 -1.51839 0
M  V30 35 H 1.9872 -1.36647 -0.758771 0
M  V30 36 H 2.7222 -0.624913 -3.18222 0
M  V30 37 H 2.5072 -2.39755 -3.10258 0
M  V30 38 H 3.9972 -1.70627 -3.81151 0
M  V30 39 N 4.4343 0.785586 -1.36625 0
M  V30 40 C 5.3973 1.87999 -1.31107 0
M  V30 41 C 6.3973 1.59316 -0.217959 0
M  V30 42 O 7.5873 1.67656 -0.472977 0
M  V30 43 C 4.7193 3.24861 -1.03334 0
M  V30 44 H 5.9123 1.94307 -2.2844 0
M  V30 45 H 3.4653 0.983813 -1.21453 0
M  V30 46 H 4.2003 3.24235 -0.0647432 0
M  V30 47 H 3.9853 3.4707 -1.82441 0
M  V30 48 H 5.4753 4.04929 -1.02088 0
M  V30 49 N 5.9124 1.20967 1.01018 0
M  V30 50 C 6.8754 0.965918 2.07853 0
M  V30 51 C 7.8754 -0.0610545 1.60684 0
M  V30 52 O 9.0654 0.175681 1.73312 0
M  V30 53 C 6.1974 0.455513 3.37843 0
M  V30 54 H 7.3904 1.91365 2.3091 0
M  V30 55 H 4.9434 1.02594 1.17916 0
M  V30 56 H 5.6784 -0.497381 3.20463 0
M  V30 57 H 5.4634 1.19622 3.73407 0
M  V30 58 H 6.9534 0.304667 4.16487 0
M  V30 59 N 7.3905 -1.2043 1.01659 0
M  V30 60 C 8.3205 -2.25466 0.607226 0
M  V30 61 C 9.3015 -1.65853 -0.377716 0
M  V30 62 O 10.4865 -1.92409 -0.263149 0
M  V30 63 C 7.6165 -3.47256 -0.0552949 0
M  V30 64 C 6.5705 -4.19462 0.850632 0
M  V30 65 C 5.8965 -5.34673 0.0538859 0
M  V30 66 C 7.1965 -4.75603 2.15868 0
M  V30 67 H 8.8905 -2.59962 1.48526 0
M  V30 68 H 6.4365 -1.2496 0.715605 0
M  V30 69 H 8.3895 -4.19917 -0.353233 0
M  V30 70 H 7.1135 -3.11924 -0.968045 0
M  V30 71 H 5.7725 -3.48667 1.13257 0
M  V30 72 H 5.4205 -4.95585 -0.860514 0
M  V30 73 H 5.1205 -5.83913 0.657192 0
M  V30 74 H 6.6445 -6.10138 -0.237598 0
M  V30 75 H 8.0585 -5.40083 1.92311 0
M  V30 76 H 6.4555 -5.3528 2.71284 0
M  V30 77 H 7.5255 -3.94346 2.82169 0
M  V30 78 N 8.8686 -0.792821 -1.36206 0
M  V30 79 C 10.1166 -0.366062 -1.98757 0
M  V30 80 C 10.4376 1.0668 -1.63231 0
M  V30 81 O 9.7076 1.73587 -0.907978 0
M  V30 82 H 8.2876 -0.132364 -0.735179 0
M  V30 83 H 10.9496 -1.01562 -1.66347 0
M  V30 84 H 10.0456 -0.460638 -3.08682 0
M  V30 85 N 10.3467 1.47872 -0.545128 0
M  V30 86 C 11.2787 2.27869 0.246621 0
M  V30 87 C 12.2917 1.36282 0.890561 0
M  V30 88 O 13.4807 1.61207 0.766449 0
M  V30 89 C 10.5807 3.10159 1.36582 0
M  V30 90 C 9.7537 4.29627 0.820954 0
M  V30 91 C 8.8127 4.93607 1.82314 0
M  V30 92 O 7.8387 5.52366 1.37406 0
M  V30 93 N 9.0407 4.87211 3.15603 0
M  V30 94 H 11.8057 2.96459 -0.439539 0
M  V30 95 H 9.3667 1.57367 -0.380421 0
M  V30 96 H 11.3587 3.49829 2.03474 0
M  V30 97 H 9.9287 2.43891 1.9554 0
M  V30 98 H 9.1487 3.94192 -0.0244032 0
M  V30 99 H 10.4367 5.06928 0.436063 0
M  V30 100 H 9.8347 4.40651 3.54744 0
M  V30 101 H 8.3917 5.30937 3.78087 0
M  V30 102 N 11.8248 0.280983 1.55075 0
M  V30 103 C 13.0738 -0.334784 1.98902 0
M  V30 104 C 13.3868 -1.56534 1.17288 0
M  V30 105 O 14.5928 -2.25443 1.51287 0
M  V30 106 C 13.0488 -0.646994 3.54037 0
M  V30 107 C 12.6568 0.564085 4.44435 0
M  V30 108 C 14.4008 -1.22506 4.06439 0
M  V30 109 C 12.3078 0.226137 5.90967 0
M  V30 110 H 11.2378 -0.128866 0.742906 0
M  V30 111 H 13.8888 0.386556 1.79382 0
M  V30 112 H 12.2708 -1.42739 3.6938 0
M  V30 113 H 13.4448 1.34082 4.40861 0
M  V30 114 H 11.7598 1.0594 4.02698 0
M  V30 115 H 14.3568 -1.49182 5.13468 0
M  V30 116 H 14.6998 -2.16085 3.55827 0
M  V30 117 H 15.2328 -0.50682 3.94558 0
M  V30 118 H 11.9718 1.12996 6.45687 0
M  V30 119 H 11.4918 -0.513717 5.97596 0
M  V30 120 H 13.1708 -0.179539 6.46751 0
M  V30 121 N 13.3029 -1.57598 0.00835791 0
M  V30 122 C 14.5489 -1.92046 -0.670055 0
M  V30 123 C 14.9039 -0.88351 -1.70915 0
M  V30 124 O 14.1969 0.103223 -1.91322 0
M  V30 125 C 14.3909 -3.3101 -1.34787 0
M  V30 126 C 14.2199 -4.48126 -0.375945 0
M  V30 127 C 12.9899 -5.05297 0.0166914 0
M  V30 128 C 15.1879 -5.1303 0.361272 0
M  V30 129 N 13.1699 -6.05931 0.985952 0
M  V30 130 C 14.5409 -6.08571 1.18495 0
M  V30 131 C 16.5959 -4.9609 0.42421 0
M  V30 132 C 15.2989 -6.88996 2.06584 0
M  V30 133 C 17.3249 -5.77107 1.29236 0
M  V30 134 C 16.6869 -6.72248 2.10386 0
M  V30 135 H 12.7859 -0.75096 -0.218136 0
M  V30 136 H 15.3699 -1.94572 0.0706669 0
M  V30 137 H 13.5409 -3.29342 -2.05884 0
M  V30 138 H 15.2729 -3.52864 -1.98164 0
M  V30 139 H 12.0279 -4.72279 -0.353435 0
M  V30 140 H 12.4519 -6.60932 1.4662 0
M  V30 141 H 17.0939 -4.22378 -0.188915 0
M  V30 142 H 14.8119 -7.62028 2.6896 0
M  V30 143 H 18.3979 -5.66038 1.34508 0
M  V30 144 H 17.2779 -7.33846 2.76476 0
M  V30 145 N 14.781 0.264519 -1.55364 0
M  V30 146 C 15.744 1.31046 -1.88042 0
M  V30 147 C 16.744 1.41943 -0.755569 0
M  V30 148 O 17.934 1.40947 -1.02369 0
M  V30 149 C 15.066 2.69067 -2.09323 0
M  V30 150 H 16.259 1.03297 -2.81549 0
M  V30 151 H 13.812 0.502989 -1.47986 0
M  V30 152 H 14.547 3.01982 -1.18226 0
M  V30 153 H 14.332 2.62542 -2.91229 0
M  V30 154 H 15.822 3.44623 -2.35848 0
M  V30 155 N 16.2591 1.48442 0.529413 0
M  V30 156 C 17.6751 1.34575 0.858004 0
M  V30 157 C 17.8751 0.3572 1.98309 0
M  V30 158 O 16.9311 -0.221379 2.51528 0
M  V30 159 C 18.2441 2.74617 1.22499 0
M  V30 160 C 19.7921 2.83109 1.33484 0
M  V30 161 C 20.2671 4.23854 1.73526 0
M  V30 162 N 21.7581 4.2653 1.80628 0
M  V30 163 C 22.4931 5.32372 2.12997 0
M  V30 164 N 21.9891 6.48491 2.43786 0
M  V30 165 N 23.7821 5.19766 2.14008 0
M  V30 166 H 15.9331 2.1133 -0.212925 0
M  V30 167 H 18.1961 0.947439 -0.0326199 0
M  V30 168 H 17.9021 3.4852 0.471905 0
M  V30 169 H 17.7761 3.08177 2.17501 0
M  V30 170 H 20.1631 2.09462 2.0787 0
M  V30 171 H 20.2441 2.53168 0.366027 0
M  V30 172 H 19.8881 4.98018 0.997013 0
M  V30 173 H 19.8181 4.5124 2.71459 0
M  V30 174 H 22.3091 3.42772 1.59108 0
M  V30 175 H 22.6221 7.24993 2.67592 0
M  V30 176 H 20.9671 6.51765 2.41304 0
M  V30 177 H 24.1581 4.28066 1.89412 0
M  V30 178 H 24.3311 6.02354 2.38902 0
M  V30 179 N 17.7372 -0.778329 1.37039 0
M  V30 180 C 18.6842 -1.89139 1.32269 0
M  V30 181 C 19.6542 -1.65017 0.189387 0
M  V30 182 O 20.8392 -1.87024 0.377693 0
M  V30 183 C 17.9792 -3.26112 1.12894 0
M  V30 184 C 17.0922 -3.62233 2.35396 0
M  V30 185 C 16.2272 -4.8838 2.08946 0
M  V30 186 C 15.2662 -5.17212 3.2735 0
M  V30 187 N 14.4032 -6.34546 3.00492 0
M  V30 188 H 19.2432 -1.92552 2.27437 0
M  V30 189 H 16.7802 -0.941473 1.13025 0
M  V30 190 H 18.7382 -4.05116 0.996835 0
M  V30 191 H 17.3682 -3.22091 0.213758 0
M  V30 192 H 16.4202 -2.78265 2.5937 0
M  V30 193 H 17.7322 -3.79481 3.23721 0
M  V30 194 H 16.8862 -5.75274 1.92729 0
M  V30 195 H 15.6252 -4.73222 1.17949 0
M  V30 196 H 14.6302 -4.28796 3.44113 0
M  V30 197 H 15.8552 -5.34283 4.19188 0
M  V30 198 H 13.8012 -6.20759 2.12118 0
M  V30 199 H 13.7182 -6.52179 3.82358 0
M  V30 200 H 14.9862 -7.24394 2.87879 0
M  V30 201 N 19.2153 -1.21501 -1.00376 0
M  V30 202 C 20.1453 -0.999478 -2.11028 0
M  V30 203 C 21.1263 0.0759671 -1.6993 0
M  V30 204 O 22.3113 -0.0841106 -1.94018 0
M  V30 205 C 19.4413 -0.564709 -3.42678 0
M  V30 206 C 18.3953 -1.58486 -3.97576 0
M  V30 207 C 17.7213 -1.00628 -5.25146 0
M  V30 208 C 19.0213 -2.97204 -4.29496 0
M  V30 209 H 20.7153 -1.92495 -2.29317 0
M  V30 210 H 18.2613 -0.92693 -1.102 0
M  V30 211 H 20.2143 -0.401091 -4.19487 0
M  V30 212 H 18.9383 0.396411 -3.24185 0
M  V30 213 H 17.5973 -1.73606 -3.22888 0
M  V30 214 H 17.2453 -0.0368439 -5.02987 0
M  V30 215 H 16.9453 -1.68771 -5.62841 0
M  V30 216 H 18.4693 -0.854015 -6.04598 0
M  V30 217 H 19.8833 -2.8552 -4.97143 0
M  V30 218 H 18.2803 -3.62372 -4.78338 0
M  V30 219 H 19.3503 -3.47956 -3.3772 0
M  V30 220 N 20.6934 1.19889 -1.02296 0
M  V30 221 C 21.6234 2.25141 -0.619174 0
M  V30 222 C 22.6044 1.66051 0.368915 0
M  V30 223 O 23.7894 1.92546 0.252941 0
M  V30 224 C 20.9194 3.4728 0.0368783 0
M  V30 225 C 19.8734 4.19005 -0.872865 0
M  V30 226 C 19.1994 5.34637 -0.0822402 0
M  V30 227 C 20.4994 4.74452 -2.18387 0
M  V30 228 H 22.1934 2.59171 -1.49903 0
M  V30 229 H 19.7394 1.24579 -0.722222 0
M  V30 230 H 21.6924 4.20098 0.330958 0
M  V30 231 H 20.4164 3.12433 0.95149 0
M  V30 232 H 19.0754 3.48061 -1.15105 0
M  V30 233 H 18.7234 4.96034 0.83422 0
M  V30 234 H 18.4234 5.83557 -0.688149 0
M  V30 235 H 19.9474 6.10255 0.205238 0
M  V30 236 H 21.3614 5.39055 -1.95172 0
M  V30 237 H 19.7584 5.33834 -2.74119 0
M  V30 238 H 20.8284 3.92844 -2.84257 0
M  V30 239 N 22.1715 0.800033 1.35784 0
M  V30 240 C 23.3965 0.388511 2.03729 0
M  V30 241 C 23.8215 -0.990481 1.5991 0
M  V30 242 O 23.1795 -1.64013 0.772612 0
M  V30 243 C 23.2275 0.4726 3.5749 0
M  V30 244 O 22.3315 -0.51646 4.09153 0
M  V30 245 H 21.6725 0.163271 0.643614 0
M  V30 246 H 24.2025 1.0841 1.73518 0
M  V30 247 H 24.2125 0.34003 4.06581 0
M  V30 248 H 22.8875 1.47848 3.88734 0
M  V30 249 H 21.4645 -0.344673 3.71304 0
M  V30 250 N 23.6496 -1.47581 0.552962 0
M  V30 251 C 24.8956 -2.02782 0.0273648 0
M  V30 252 C 25.2286 -1.42687 -1.31734 0
M  V30 253 O 24.5036 -0.580897 -1.85623 0
M  V30 254 C 24.7866 -3.60031 -0.0702371 0
M  V30 255 C 24.6396 -4.30566 1.30126 0
M  V30 256 C 25.9586 -4.33028 -0.785771 0
M  V30 257 H 23.0776 -0.736912 0.0114185 0
M  V30 258 H 25.7196 -1.76056 0.714432 0
M  V30 259 H 23.8696 -3.82932 -0.655382 0
M  V30 260 H 25.5416 -4.19018 1.92929 0
M  V30 261 H 23.7846 -3.91086 1.87709 0
M  V30 262 H 24.4556 -5.39114 1.18573 0
M  V30 263 H 26.9316 -4.15095 -0.288982 0
M  V30 264 H 25.8076 -5.42695 -0.823013 0
M  V30 265 H 26.0686 -4.01945 -1.841 0
M  V30 266 N 25.1277 -0.289203 -1.54924 0
M  V30 267 C 26.5387 0.205791 -1.85562 0
M  V30 268 C 26.8897 1.54351 -1.2112 0
M  V30 269 O 26.0147 2.10435 -0.504601 0
M  V30 270 C 26.6097 0.380177 -3.3666 0
M  V30 271 C 25.1687 0.819395 -3.67373 0
M  V30 272 C 24.3157 -0.079159 -2.77187 0
M  V30 273 H 27.2667 -0.510577 -1.50262 0
M  V30 274 H 27.2877 1.21659 -3.60526 0
M  V30 275 H 26.7997 -0.593589 -3.83534 0
M  V30 276 H 24.9007 1.80413 -3.26009 0
M  V30 277 H 25.0137 0.646957 -4.74712 0
M  V30 278 H 23.3777 0.439565 -2.50878 0
M  V30 279 H 24.1607 -1.04906 -3.26878 0
M  V30 280 N 26.6058 1.57591 -0.0167156 0
M  V30 281 C 27.8518 1.92399 0.659861 0
M  V30 282 C 28.2068 0.892561 1.70444 0
M  V30 283 O 27.4998 -0.0930755 1.91374 0
M  V30 284 C 27.6938 3.3172 1.33029 0
M  V30 285 C 27.5228 4.48319 0.352174 0
M  V30 286 C 26.2928 5.05281 -0.0434883 0
M  V30 287 C 28.4908 5.12831 -0.388474 0
M  V30 288 N 26.4728 6.05399 -1.01807 0
M  V30 289 C 27.8438 6.07934 -1.2172 0
M  V30 290 C 29.8988 4.95858 -0.450513 0
M  V30 291 C 28.6018 6.87891 -2.10235 0
M  V30 292 C 30.6278 5.76413 -1.32295 0
M  V30 293 C 29.9898 6.71123 -2.13948 0
M  V30 294 H 26.0888 0.752106 0.21415 0
M  V30 295 H 28.6728 1.94532 -0.0809846 0
M  V30 296 H 26.8438 3.3043 2.04134 0
M  V30 297 H 28.5758 3.5391 1.9629 0
M  V30 298 H 25.3308 4.7246 0.328384 0
M  V30 299 H 25.7548 6.60145 -1.50123 0
M  V30 300 H 30.3968 4.22472 0.166512 0
M  V30 301 H 28.1148 7.60591 -2.72997 0
M  V30 302 H 31.7008 5.65317 -1.37508 0
M  V30 303 H 30.5808 7.3237 -2.80364 0
M  V30 304 N 28.0839 -0.256276 1.55502 0
M  V30 305 C 29.0139 -1.32102 1.92539 0
M  V30 306 C 29.9949 -1.50684 0.789194 0
M  V30 307 O 31.1799 -1.63449 1.04872 0
M  V30 308 C 28.3099 -2.67752 2.21192 0
M  V30 309 C 27.2639 -2.63878 3.36975 0
M  V30 310 C 26.5899 -4.03236 3.51147 0
M  V30 311 C 27.8899 -2.21682 4.72921 0
M  V30 312 H 29.5839 -1.01351 2.81724 0
M  V30 313 H 27.1299 -0.486105 1.35547 0
M  V30 314 H 29.0829 -3.42365 2.45691 0
M  V30 315 H 27.8069 -3.0012 1.28824 0
M  V30 316 H 26.4659 -1.91722 3.12471 0
M  V30 317 H 26.1139 -4.32854 2.56216 0
M  V30 318 H 25.8139 -4.01535 4.29003 0
M  V30 319 H 27.3379 -4.79563 3.77957 0
M  V30 320 H 28.7519 -2.86023 4.96854 0
M  V30 321 H 27.1489 -2.3111 5.53812 0
M  V30 322 H 28.2189 -1.16833 4.70615 0
M  V30 323 N 29.562 -1.4872 -0.521534 0
M  V30 324 C 30.492 -1.66771 -1.63431 0
M  V30 325 C 31.473 -0.516499 -1.62069 0
M  V30 326 O 32.658 -0.750013 -1.79132 0
M  V30 327 C 29.788 -1.71515 -3.01993 0
M  V30 328 C 28.742 -2.86222 -3.18216 0
M  V30 329 C 28.068 -2.76061 -4.57924 0
M  V30 330 C 29.368 -4.27419 -3.00184 0
M  V30 331 H 31.062 -2.59932 -1.48579 0
M  V30 332 H 28.608 -1.25089 -0.713358 0
M  V30 333 H 30.561 -1.82731 -3.7972 0
M  V30 334 H 29.285 -0.749393 -3.17886 0
M  V30 335 H 27.944 -2.74575 -2.42908 0
M  V30 336 H 27.592 -1.77437 -4.70665 0
M  V30 337 H 27.292 -3.53037 -4.69722 0
M  V30 338 H 28.816 -2.89256 -5.37739 0
M  V30 339 H 30.23 -4.39855 -3.67697 0
M  V30 340 H 28.627 -5.05458 -3.2347 0
M  V30 341 H 29.697 -4.43293 -1.96518 0
M  V30 342 N 31.0401 0.771051 -1.3745 0
M  V30 343 C 32.2801 1.54264 -1.34096 0
M  V30 344 C 32.6441 1.91858 0.0737639 0
M  V30 345 O 33.8451 2.67797 0.23203 0
M  V30 346 C 32.1161 2.77326 -2.25445 0
M  V30 347 S 33.6751 3.67383 -2.39948 0
M  V30 348 H 30.4931 0.528122 -0.476034 0
M  V30 349 H 33.0951 0.906633 -1.73206 0
M  V30 350 H 31.7991 2.47788 -3.27153 0
M  V30 351 H 31.3301 3.45886 -1.87421 0
M  V30 352 H 33.3451 4.69334 -1.61059 0
M  V30 353 N 32.5182 1.22032 0.997298 0
M  V30 354 C 33.7662 1.04016 1.73278 0
M  V30 355 C 34.0872 -0.426255 1.90284 0
M  V30 356 O 33.3572 -1.30694 1.45931 0
M  V30 357 H 31.9372 0.381897 0.642 0
M  V30 358 H 34.5992 1.5347 1.20137 0
M  V30 359 H 33.6952 1.51441 2.72896 0
M  V30 360 N 33.9963 -1.19345 1.0293 0
M  V30 361 C 35.4073 -1.70725 0.755633 0
M  V30 362 C 35.7583 -1.82326 -0.724676 0
M  V30 363 O 34.8833 -1.49471 -1.56484 0
M  V30 364 C 35.4783 -3.10084 1.36503 0
M  V30 365 C 34.0373 -3.58723 1.13994 0
M  V30 366 C 33.1843 -2.35577 1.46283 0
M  V30 367 H 36.1353 -1.0418 1.19718 0
M  V30 368 H 36.1563 -3.72787 0.762217 0
M  V30 369 H 35.6683 -3.01609 2.44241 0
M  V30 370 H 33.7693 -3.72512 0.0807901 0
M  V30 371 H 33.8823 -4.42816 1.82894 0
M  V30 372 H 32.2463 -2.38935 0.88217 0
M  V30 373 H 33.0293 -2.29731 2.55105 0
M  V30 374 N 35.4744 -0.807222 -1.35358 0
M  V30 375 C 36.8904 -0.491038 -1.51858 0
M  V30 376 C 37.0904 0.987648 -1.75635 0
M  V30 377 O 36.1464 1.77265 -1.79815 0
M  V30 378 C 37.4594 -1.33695 -2.69344 0
M  V30 379 C 39.0074 -1.33246 -2.83222 0
M  V30 380 C 39.4824 -2.1625 -4.03733 0
M  V30 381 N 40.9734 -2.1379 -4.10911 0
M  V30 382 C 41.7084 -2.74772 -5.03277 0
M  V30 383 N 41.2044 -3.44684 -6.0097 0
M  V30 384 N 42.9974 -2.6441 -4.96028 0
M  V30 385 H 35.1484 -1.76485 -1.18181 0
M  V30 386 H 37.4114 -0.751199 -0.578276 0
M  V30 387 H 37.1174 -2.38634 -2.58354 0
M  V30 388 H 36.9914 -0.990618 -3.6396 0
M  V30 389 H 39.3784 -0.290911 -2.93663 0
M  V30 390 H 39.4594 -1.71866 -1.89461 0
M  V30 391 H 39.1034 -3.20445 -3.94052 0
M  V30 392 H 39.0334 -1.74989 -4.96675 0
M  V30 393 H 41.5244 -1.62923 -3.40976 0
M  V30 394 H 41.8374 -3.88501 -6.68047 0
M  V30 395 H 40.1824 -3.48788 -6.01142 0
M  V30 396 H 43.3734 -2.0938 -4.18662 0
M  V30 397 H 43.5464 -3.12225 -5.6782 0
M  V30 398 N 36.9525 1.47285 -0.560781 0
M  V30 399 C 38.3685 1.58065 -0.22081 0
M  V30 400 C 38.5685 1.55892 1.27671 0
M  V30 401 O 37.6245 1.46422 2.0571 0
M  V30 402 C 38.9375 2.88418 -0.850625 0
M  V30 403 C 40.4855 3.02009 -0.822184 0
M  V30 404 C 40.9605 4.35066 -1.43113 0
M  V30 405 N 42.4515 4.41711 -1.39448 0
M  V30 406 C 43.1865 5.43237 -1.83525 0
M  V30 407 N 42.6825 6.51555 -2.35474 0
M  V30 408 N 44.4755 5.34304 -1.74574 0
M  V30 409 H 36.6265 1.46941 -1.53369 0
M  V30 410 H 38.8895 0.699558 -0.639783 0
M  V30 411 H 38.5955 2.95755 -1.9032 0
M  V30 412 H 38.4695 3.75612 -0.345773 0
M  V30 413 H 40.8565 2.94266 0.221714 0
M  V30 414 H 40.9375 2.16347 -1.36483 0
M  V30 415 H 40.5815 4.43565 -2.47412 0
M  V30 416 H 40.5115 5.19465 -0.863899 0
M  V30 417 H 43.0025 3.64027 -1.01452 0
M  V30 418 H 43.3155 7.25203 -2.67021 0
M  V30 419 H 41.6605 6.52435 -2.39487 0
M  V30 420 H 44.8515 4.48581 -1.33763 0
M  V30 421 H 45.0245 6.13288 -2.09242 0
M  V30 422 N 38.4306 0.297415 1.54768 0
M  V30 423 C 39.6606 -0.315165 2.04182 0
M  V30 424 C 40.0686 -1.4834 1.17439 0
M  V30 425 O 39.4116 -1.82695 0.191891 0
M  V30 426 C 39.4736 -0.837583 3.49607 0
M  V30 427 C 39.1376 0.204912 4.5654 0
M  V30 428 C 40.1346 1.03214 5.09552 0
M  V30 429 C 37.8196 0.345578 5.0111 0
M  V30 430 C 39.8136 1.986 6.05671 0
M  V30 431 C 37.5006 1.30289 5.97049 0
M  V30 432 C 38.4986 2.12159 6.49213 0
M  V30 433 O 38.1866 3.06268 7.43273 0
M  V30 434 H 37.9186 -0.0729646 0.672051 0
M  V30 435 H 40.4726 0.433907 2.00765 0
M  V30 436 H 38.7026 -1.63712 3.50336 0
M  V30 437 H 40.3916 -1.36566 3.82236 0
M  V30 438 H 41.1576 0.934312 4.75916 0
M  V30 439 H 37.0366 -0.28171 4.60138 0
M  V30 440 H 40.5806 2.62542 6.46311 0
M  V30 441 H 36.4776 1.40145 6.30103 0
M  V30 442 H 37.2456 3.01205 7.61064 0
M  V30 443 N 39.9087 -1.5758 0.0250728 0
M  V30 444 C 40.8717 -2.08896 -0.943139 0
M  V30 445 C 41.8717 -1.00321 -1.25668 0
M  V30 446 O 43.0617 -1.26495 -1.19769 0
M  V30 447 C 40.1937 -2.55143 -2.26086 0
M  V30 448 H 41.3867 -2.95723 -0.498775 0
M  V30 449 H 38.9397 -1.54703 -0.222888 0
M  V30 450 H 39.6747 -1.71633 -2.75159 0
M  V30 451 H 39.4597 -3.34461 -2.04641 0
M  V30 452 H 40.9497 -2.95083 -2.95492 0
M  V30 453 N 41.3868 0.248026 -1.55636 0
M  V30 454 C 42.6118 0.998028 -1.81808 0
M  V30 455 C 43.0368 1.78207 -0.601979 0
M  V30 456 O 42.3948 1.75653 0.448961 0
M  V30 457 C 42.4428 1.9125 -3.05705 0
M  V30 458 O 41.5468 3.00406 -2.82542 0
M  V30 459 H 40.8878 0.284045 -0.600179 0
M  V30 460 H 43.4178 0.269357 -2.02819 0
M  V30 461 H 43.4278 2.32737 -3.35108 0
M  V30 462 H 42.1028 1.33602 -3.93857 0
M  V30 463 H 40.6798 2.63056 -2.64303 0
M  V30 464 N 42.8649 1.48995 0.513639 0
M  V30 465 C 44.0899 1.61792 1.29762 0
M  V30 466 C 44.5149 0.284475 1.85936 0
M  V30 467 O 43.8729 -0.746185 1.65232 0
M  V30 468 C 43.9209 2.67993 2.41272 0
M  V30 469 O 43.0249 2.26287 3.44772 0
M  V30 470 H 42.3659 0.541963 0.38363 0
M  V30 471 H 44.8959 1.95097 0.616307 0
M  V30 472 H 44.9059 2.89772 2.87221 0
M  V30 473 H 43.5809 3.64791 1.9975 0
M  V30 474 H 42.1579 2.14788 3.04829 0
M  V30 475 N 44.343 -0.763751 1.37857 0
M  V30 476 C 45.568 -1.55805 1.36893 0
M  V30 477 C 45.993 -1.88054 -0.0416135 0
M  V30 478 O 45.351 -1.49825 -1.02089 0
M  V30 479 C 45.399 -2.84012 2.22192 0
M  V30 480 O 44.503 -3.78732 1.63204 0
M  V30 481 H 43.844 -0.471638 0.46739 0
M  V30 482 H 46.374 -0.944657 1.81487 0
M  V30 483 H 46.384 -3.33037 2.35691 0
M  V30 484 H 45.059 -2.59869 3.24716 0
M  V30 485 H 43.636 -3.37402 1.58791 0
M  V30 486 N 45.8211 -1.22559 -0.990812 0
M  V30 487 C 47.0681 -1.05141 -1.73065 0
M  V30 488 C 47.3961 0.413191 -1.9006 0
M  V30 489 O 46.6511 1.32257 -1.44245 0
M  V30 490 C 46.9501 -1.71011 -3.13831 0
M  V30 491 C 46.6161 -3.20911 -3.16745 0
M  V30 492 C 45.2781 -3.61812 -3.17247 0
M  V30 493 C 47.6301 -4.16846 -3.12872 0
M  V30 494 C 44.9581 -4.97127 -3.1158 0
M  V30 495 C 47.3101 -5.5214 -3.08746 0
M  V30 496 C 45.9741 -5.92419 -3.07565 0
M  V30 497 H 45.2441 -0.384738 -0.633291 0
M  V30 498 H 47.8911 -1.5235 -1.16025 0
M  V30 499 H 46.1961 -1.16133 -3.74193 0
M  V30 500 H 47.8931 -1.55023 -3.69823 0
M  V30 501 H 44.4831 -2.88344 -3.17105 0
M  V30 502 H 48.6671 -3.86263 -3.11632 0
M  V30 503 H 43.9231 -5.27562 -3.09012 0
M  V30 504 H 48.0971 -6.26201 -3.04705 0
M  V30 505 H 45.7241 -6.97236 -3.02929 0
M  V30 506 N 47.2992 1.18797 -1.03562 0
M  V30 507 C 48.2462 2.22253 -0.622259 0
M  V30 508 C 49.2162 1.61987 0.36736 0
M  V30 509 O 50.4012 1.88986 0.262492 0
M  V30 510 C 47.5412 3.45097 0.0138462 0
M  V30 511 C 46.6542 4.19722 -1.02263 0
M  V30 512 C 45.7892 5.30009 -0.355573 0
M  V30 513 C 44.8282 5.96399 -1.37749 0
M  V30 514 N 43.9652 6.98234 -0.735766 0
M  V30 515 H 48.8052 2.56968 -1.50903 0
M  V30 516 H 46.3422 1.26245 -0.755017 0
M  V30 517 H 48.3002 4.15279 0.399948 0
M  V30 518 H 46.9302 3.11018 0.864158 0
M  V30 519 H 45.9822 3.48418 -1.52673 0
M  V30 520 H 47.2942 4.65227 -1.79903 0
M  V30 521 H 46.4482 6.0664 0.0850095 0
M  V30 522 H 45.1872 4.85592 0.452967 0
M  V30 523 H 44.1922 5.18512 -1.82826 0
M  V30 524 H 45.4172 6.42899 -2.18764 0
M  V30 525 H 43.3632 6.55979 0.0525597 0
M  V30 526 H 43.2802 7.41965 -1.44995 0
M  V30 527 H 44.5482 7.78845 -0.31941 0
M  V30 528 N 48.7773 0.814389 1.34928 0
M  V30 529 C 49.7403 0.235759 2.27984 0
M  V30 530 C 50.7403 -0.581412 1.49921 0
M  V30 531 O 51.9303 -0.398758 1.69575 0
M  V30 532 C 49.0623 -0.670433 3.34242 0
M  V30 533 H 50.2553 1.05659 2.80671 0
M  V30 534 H 47.8083 0.585614 1.44915 0
M  V30 535 H 48.5433 -1.51466 2.86755 0
M  V30 536 H 48.3283 -0.0860822 3.92005 0
M  V30 537 H 49.8183 -1.06935 4.03676 0
M  V30 538 N 50.2554 -1.46986 0.568584 0
M  V30 539 C 51.2184 -2.28624 -0.162366 0
M  V30 540 C 52.2184 -1.37596 -0.832103 0
M  V30 541 O 53.4084 -1.60115 -0.68622 0
M  V30 542 C 50.5404 -3.17596 -1.23878 0
M  V30 543 H 51.7334 -2.94722 0.554899 0
M  V30 544 H 49.2864 -1.52863 0.325976 0
M  V30 545 H 50.0214 -2.56214 -1.98808 0
M  V30 546 H 49.8064 -3.846 -0.763219 0
M  V30 547 H 51.2964 -3.79078 -1.75185 0
M  V30 548 N 51.7335 -0.305618 -1.54608 0
M  V30 549 C 53.0105 0.355652 -1.92339 0
M  V30 550 C 53.3905 1.71324 -1.23335 0
M  V30 551 O 52.7385 2.25473 -0.370702 0
M  V30 552 C 52.9485 0.46572 -3.45879 0
M  V30 553 C 54.2965 0.734426 -4.182 0
M  V30 554 O 55.3205 0.54935 -3.51938 0
M  V30 555 O 54.1795 1.09024 -5.35515 0
M  V30 556 H 51.2735 0.199666 -0.802535 0
M  V30 557 H 53.8195 -0.354017 -1.65966 0
M  V30 558 H 52.5915 -0.488461 -3.88239 0
M  V30 559 H 52.2145 1.22367 -3.78301 0
M  V30 560 N 53.2116 1.57565 -0.0334293 0
M  V30 561 C 54.1416 2.13511 0.945265 0
M  V30 562 C 55.1226 1.05231 1.33643 0
M  V30 563 O 56.3076 1.33084 1.41429 0
M  V30 564 C 53.4376 2.6657 2.22616 0
M  V30 565 C 52.3916 3.79676 1.97561 0
M  V30 566 C 51.7176 4.1918 3.31952 0
M  V30 567 C 53.0176 5.0557 1.31135 0
M  V30 568 H 54.7116 2.95538 0.479325 0
M  V30 569 H 52.2576 1.42166 0.229115 0
M  V30 570 H 54.2106 3.04344 2.91466 0
M  V30 571 H 52.9346 1.8171 2.71384 0
M  V30 572 H 51.5936 3.42347 1.31127 0
M  V30 573 H 51.2416 3.31296 3.78487 0
M  V30 574 H 50.9416 4.95402 3.15992 0
M  V30 575 H 52.4656 4.59541 4.02063 0
M  V30 576 H 53.8796 5.40903 1.89992 0
M  V30 577 H 52.2766 5.86818 1.25559 0
M  V30 578 H 53.3466 4.84062 0.284894 0
M  V30 579 N 54.6897 -0.239769 1.55765 0
M  V30 580 C 55.6217 -1.32001 1.87372 0
M  V30 581 C 56.6347 -1.43944 0.760522 0
M  V30 582 O 57.8237 -1.45167 1.0387 0
M  V30 583 C 54.9237 -2.69779 2.05115 0
M  V30 584 C 54.0967 -2.80014 3.36022 0
M  V30 585 C 53.1557 -3.98684 3.4342 0
M  V30 586 O 52.1817 -3.87877 4.16582 0
M  V30 587 N 53.3837 -5.12176 2.73232 0
M  V30 588 H 56.1487 -1.0522 2.80622 0
M  V30 589 H 53.7097 -0.429857 1.56089 0
M  V30 590 H 55.7017 -3.47517 2.07399 0
M  V30 591 H 54.2717 -2.89237 1.18577 0
M  V30 592 H 53.4917 -1.88896 3.45994 0
M  V30 593 H 54.7797 -2.83808 4.22292 0
M  V30 594 H 54.1777 -5.2385 2.13536 0
M  V30 595 H 52.7347 -5.88022 2.81199 0
M  V30 596 N 56.1678 -1.49265 -0.50573 0
M  V30 597 C 57.0978 -1.68495 -1.61653 0
M  V30 598 C 58.0788 -0.53366 -1.61512 0
M  V30 599 O 59.2638 -0.76897 -1.78327 0
M  V30 600 C 56.3938 -1.74709 -3.00157 0
M  V30 601 C 55.3478 -2.89581 -3.15162 0
M  V30 602 C 54.6738 -2.80903 -4.5497 0
M  V30 603 C 55.9738 -4.30578 -2.95634 0
M  V30 604 H 57.6678 -2.61493 -1.45814 0
M  V30 605 H 55.2138 -1.25838 -0.70005 0
M  V30 606 H 57.1668 -1.86748 -3.77761 0
M  V30 607 H 55.8908 -0.783067 -3.17074 0
M  V30 608 H 54.5498 -2.77136 -2.39982 0
M  V30 609 H 54.1978 -1.82419 -4.68756 0
M  V30 610 H 53.8978 -3.57999 -4.65951 0
M  V30 611 H 55.4218 -2.94944 -5.34641 0
M  V30 612 H 56.8358 -4.4373 -3.63011 0
M  V30 613 H 55.2328 -5.0886 -3.18091 0
M  V30 614 H 56.3028 -4.45352 -1.91806 0
M  V30 615 N 57.6459 0.756429 -1.3826 0
M  V30 616 C 58.5559 1.9009 -1.37488 0
M  V30 617 C 59.5719 1.71855 -0.272366 0
M  V30 618 O 60.7479 1.94827 -0.510318 0
M  V30 619 C 57.8129 3.25421 -1.19592 0
M  V30 620 C 56.8739 3.56202 -2.39622 0
M  V30 621 C 56.1069 4.85075 -2.2257 0
M  V30 622 O 56.3299 5.57246 -1.21793 0
M  V30 623 O 55.2639 5.15269 -3.11098 0
M  V30 624 H 59.0899 1.93695 -2.33914 0
M  V30 625 H 56.6749 0.901313 -1.1915 0
M  V30 626 H 58.5569 4.06337 -1.11661 0
M  V30 627 H 57.2319 3.22634 -0.262486 0
M  V30 628 H 56.1389 2.75458 -2.53128 0
M  V30 629 H 57.4719 3.63747 -3.31586 0
M  V30 630 N 59.124 1.23083 0.984299 0
M  V30 631 C 60.057 0.951786 2.07404 0
M  V30 632 C 61.035 -0.10848 1.62238 0
M  V30 633 O 62.219 0.0249467 1.88483 0
M  V30 634 C 59.346 0.433142 3.35919 0
M  V30 635 C 58.392 1.47941 4.0002 0
M  V30 636 S 59.225 3.05556 4.39768 0
M  V30 637 C 60.381 2.55351 5.71442 0
M  V30 638 H 60.614 1.87456 2.30754 0
M  V30 639 H 58.147 1.06284 1.11996 0
M  V30 640 H 60.105 0.140506 4.10259 0
M  V30 641 H 58.766 -0.468656 3.10584 0
M  V30 642 H 57.959 1.06658 4.92585 0
M  V30 643 H 57.561 1.7212 3.3204 0
M  V30 644 H 59.853 1.97128 6.48187 0
M  V30 645 H 60.796 3.46441 6.17563 0
M  V30 646 H 61.204 1.96339 5.29255 0
M  V30 647 N 60.6021 -1.18246 1.0419 0
M  V30 648 C 61.8301 -1.92195 0.766072 0
M  V30 649 C 62.2451 -1.76247 -0.676933 0
M  V30 650 O 61.6021 -1.09293 -1.46155 0
M  V30 651 C 61.6531 -3.43568 1.12442 0
M  V30 652 O 61.3741 -3.59015 2.51078 0
M  V30 653 C 62.8751 -4.34613 0.873275 0
M  V30 654 H 60.0951 -0.610114 0.279288 0
M  V30 655 H 62.6391 -1.50007 1.38989 0
M  V30 656 H 60.7941 -3.8354 0.545542 0
M  V30 657 H 61.2081 -4.5273 2.64831 0
M  V30 658 H 62.6821 -5.39374 1.17385 0
M  V30 659 H 63.1591 -4.38781 -0.191909 0
M  V30 660 H 63.7651 -4.00341 1.43551 0
M  V30 661 N 62.0802 -0.821533 -1.34494 0
M  V30 662 C 63.0122 -0.199946 -2.28326 0
M  V30 663 C 64.0252 0.609377 -1.50965 0
M  V30 664 O 65.2142 0.439285 -1.7301 0
M  V30 665 C 62.3142 0.738431 -3.30757 0
M  V30 666 C 61.4872 -0.0277632 -4.37391 0
M  V30 667 C 60.5462 0.831332 -5.19591 0
M  V30 668 O 59.5722 0.276822 -5.68526 0
M  V30 669 N 60.7742 2.15132 -5.39165 0
M  V30 670 H 63.5392 -1.00609 -2.82308 0
M  V30 671 H 61.1002 -0.678366 -1.47003 0
M  V30 672 H 63.0922 1.31773 -3.82646 0
M  V30 673 H 61.6622 1.44533 -2.7718 0
M  V30 674 H 60.8822 -0.788359 -3.86236 0
M  V30 675 H 62.1702 -0.555251 -5.05761 0
M  V30 676 H 61.5682 2.62559 -5.01078 0
M  V30 677 H 60.1252 2.6795 -5.94177 0
M  V30 678 N 63.5583 1.46682 -0.576371 0
M  V30 679 C 64.5053 2.30241 0.160499 0
M  V30 680 C 65.4753 1.40233 0.890162 0
M  V30 681 O 66.6603 1.69186 0.882084 0
M  V30 682 C 63.8003 3.24578 1.1723 0
M  V30 683 C 62.9133 4.29684 0.446736 0
M  V30 684 C 62.0483 5.11154 1.44551 0
M  V30 685 C 61.0873 6.08015 0.70599 0
M  V30 686 N 60.2243 6.82376 1.65251 0
M  V30 687 H 65.0643 2.92727 -0.558127 0
M  V30 688 H 62.6013 1.44272 -0.287056 0
M  V30 689 H 64.5593 3.77711 1.77172 0
M  V30 690 H 63.1893 2.63916 1.85872 0
M  V30 691 H 62.2413 3.79458 -0.267594 0
M  V30 692 H 63.5533 4.98626 -0.131686 0
M  V30 693 H 62.7073 5.68533 2.11791 0
M  V30 694 H 61.4463 4.42158 2.05786 0
M  V30 695 H 60.4513 5.49796 0.0197725 0
M  V30 696 H 61.6763 6.79028 0.09912 0
M  V30 697 H 59.6223 6.16094 2.25308 0
M  V30 698 H 59.5393 7.47556 1.12673 0
M  V30 699 H 60.8073 7.44316 2.31546 0
M  V30 700 N 65.0364 0.313813 1.54444 0
M  V30 701 C 66.4474 -0.176243 1.85866 0
M  V30 702 C 66.7984 -1.52405 1.23561 0
M  V30 703 O 65.9234 -2.09605 0.538016 0
M  V30 704 C 66.5184 -0.32657 3.37222 0
M  V30 705 C 65.0774 -0.760846 3.6863 0
M  V30 706 C 64.2244 0.123247 2.77026 0
M  V30 707 H 67.1754 0.534418 1.49431 0
M  V30 708 H 67.1964 -1.15908 3.62416 0
M  V30 709 H 66.7084 0.654531 3.82541 0
M  V30 710 H 64.8094 -1.75204 3.28838 0
M  V30 711 H 64.9224 -0.571353 4.75681 0
M  V30 712 H 63.2864 -0.399597 2.51546 0
M  V30 713 H 64.0694 1.10094 3.25168 0
M  V30 714 N 66.5145 -1.57545 0.0417849 0
M  V30 715 C 67.4645 -2.07483 -0.945247 0
M  V30 716 C 68.4485 -0.977983 -1.27767 0
M  V30 717 O 69.6405 -1.24142 -1.26166 0
M  V30 718 C 66.7695 -2.61576 -2.22335 0
M  V30 719 C 65.8555 -3.78213 -1.91874 0
M  V30 720 N 66.2465 -4.88344 -1.31733 0
M  V30 721 C 64.5445 -3.8694 -2.21796 0
M  V30 722 C 65.2455 -5.69462 -1.1869 0
M  V30 723 N 64.2215 -5.16771 -1.68666 0
M  V30 724 H 68.0235 -2.90029 -0.475441 0
M  V30 725 H 65.5375 -1.61581 -0.162911 0
M  V30 726 H 67.5345 -2.95651 -2.93932 0
M  V30 727 H 66.1945 -1.80465 -2.69931 0
M  V30 728 H 67.2055 -5.08335 -0.990729 0
M  V30 729 H 63.8825 -3.16757 -2.71977 0
M  V30 730 H 65.2725 -6.68023 -0.720793 0
M  V30 731 N 67.9926 0.231505 -1.5589 0
M  V30 732 C 68.9396 1.28682 -1.91598 0
M  V30 733 C 69.9096 1.47071 -0.771974 0
M  V30 734 O 71.0946 1.60802 -1.027 0
M  V30 735 C 68.2346 2.6342 -2.22944 0
M  V30 736 C 67.3476 2.52912 -3.50228 0
M  V30 737 C 66.4826 3.80106 -3.7107 0
M  V30 738 C 65.5216 3.64279 -4.91902 0
M  V30 739 N 64.6586 4.834 -5.09184 0
M  V30 740 H 69.4986 0.975305 -2.81588 0
M  V30 741 H 67.0356 0.470299 -1.39379 0
M  V30 742 H 68.9936 3.41869 -2.39126 0
M  V30 743 H 67.6236 2.92687 -1.36139 0
M  V30 744 H 66.6756 1.6595 -3.42294 0
M  V30 745 H 67.9876 2.37133 -4.38827 0
M  V30 746 H 67.1416 4.66999 -3.87295 0
M  V30 747 H 65.8806 3.98799 -2.80733 0
M  V30 748 H 64.8856 2.7577 -4.75637 0
M  V30 749 H 66.1106 3.47067 -5.83714 0
M  V30 750 H 64.0566 5.02425 -4.21788 0
M  V30 751 H 63.9736 4.70311 -5.91898 0
M  V30 752 H 65.2416 5.71747 -5.29835 0
M  V30 753 N 69.4707 1.49531 0.497807 0
M  V30 754 C 70.4177 1.66436 1.59899 0
M  V30 755 C 71.3877 0.505793 1.58212 0
M  V30 756 O 72.5727 0.733202 1.7615 0
M  V30 757 C 69.7127 1.7399 2.98029 0
M  V30 758 C 68.8257 3.01172 3.09708 0
M  V30 759 C 67.9607 2.99686 4.38591 0
M  V30 760 C 66.9997 4.21434 4.43914 0
M  V30 761 N 66.1367 4.1784 5.64229 0
M  V30 762 H 70.9767 2.60459 1.44793 0
M  V30 763 H 68.5137 1.29137 0.704423 0
M  V30 764 H 70.4717 1.76352 3.78095 0
M  V30 765 H 69.1017 0.834301 3.11832 0
M  V30 766 H 68.1537 3.08408 2.22685 0
M  V30 767 H 69.4657 3.91165 3.09502 0
M  V30 768 H 68.6197 3.00628 5.2698 0
M  V30 769 H 67.3587 2.07477 4.41367 0
M  V30 770 H 66.3637 4.20733 3.53926 0
M  V30 771 H 67.5887 5.14839 4.42851 0
M  V30 772 H 65.5347 3.28469 5.67841 0
M  V30 773 H 65.4517 5.01571 5.65652 0
M  V30 774 H 66.7197 4.22889 6.54817 0
M  V30 775 N 70.9488 -0.749086 1.3866 0
M  V30 776 C 72.3598 -1.32664 1.31366 0
M  V30 777 C 72.7108 -1.96179 -0.028484 0
M  V30 778 O 71.8358 -1.9537 -0.93057 0
M  V30 779 C 72.4308 -2.41219 2.37905 0
M  V30 780 C 70.9898 -2.94684 2.34176 0
M  V30 781 C 70.1368 -1.68108 2.20533 0
M  V30 782 H 73.0878 -0.547628 1.48952 0
M  V30 783 H 73.1088 -3.21268 2.0388 0
M  V30 784 H 72.6208 -1.94962 3.35576 0
M  V30 785 H 70.7218 -3.45258 1.401 0
M  V30 786 H 70.8348 -3.48757 3.2849 0
M  V30 787 H 69.1988 -1.91907 1.67463 0
M  V30 788 H 69.9818 -1.23923 3.20153 0
M  V30 789 N 72.4269 -1.23603 -0.977757 0
M  V30 790 C 73.6749 -1.06759 -1.71601 0
M  V30 791 C 73.9959 0.395929 -1.90938 0
M  V30 792 O 73.2659 1.28356 -1.47992 0
M  V30 793 H 71.8459 -0.392062 -0.635843 0
M  V30 794 H 74.5079 -1.55362 -1.1768 0
M  V30 795 H 73.6039 -1.55763 -2.70452 0
M  V30 796 N 73.905 1.17692 -1.04816 0
M  V30 797 C 75.316 1.69501 -0.782698 0
M  V30 798 C 75.667 1.83456 0.695577 0
M  V30 799 O 74.792 1.51942 1.54086 0
M  V30 800 C 75.387 3.07874 -1.41419 0
M  V30 801 C 73.946 3.56864 -1.19686 0
M  V30 802 C 73.093 2.3322 -1.50012 0
M  V30 803 H 76.044 1.02262 -1.2136 0
M  V30 804 H 76.065 3.71528 -0.821428 0
M  V30 805 H 75.577 2.97685 -2.49009 0
M  V30 806 H 73.678 3.72337 -0.140043 0
M  V30 807 H 73.791 4.39851 -1.89916 0
M  V30 808 H 72.155 2.37501 -0.920071 0
M  V30 809 H 72.938 2.25644 -2.58727 0
M  V30 810 N 75.3831 0.828654 1.34056 0
M  V30 811 C 76.6311 0.41863 1.97717 0
M  V30 812 C 76.9521 -1.02314 1.66002 0
M  V30 813 O 76.2221 -1.71119 0.953683 0
M  V30 814 H 74.8021 0.151809 0.731412 0
M  V30 815 H 77.4641 1.05936 1.63596 0
M  V30 816 H 76.5601 0.542318 3.07352 0
M  V30 817 N 76.8612 -1.46375 0.584142 0
M  V30 818 C 77.7712 -2.34115 -0.150728 0
M  V30 819 C 78.7872 -1.49838 -0.884567 0
M  V30 820 O 79.9632 -1.82704 -0.847429 0
M  V30 821 C 77.0282 -3.2705 -1.15062 0
M  V30 822 C 76.0892 -4.27228 -0.421293 0
M  V30 823 C 75.3222 -5.15722 -1.37355 0
M  V30 824 O 75.5452 -5.07176 -2.61014 0
M  V30 825 O 74.4792 -5.95383 -0.883355 0
M  V30 826 H 78.3052 -2.98309 0.569708 0
M  V30 827 H 75.8902 -1.45373 0.344535 0
M  V30 828 H 77.7722 -3.84381 -1.72712 0
M  V30 829 H 76.4472 -2.65451 -1.8525 0
M  V30 830 H 75.3542 -3.7358 0.197085 0
M  V30 831 H 76.6872 -4.91616 0.239641 0
M  V30 832 N 78.3393 -0.321999 -1.54275 0
M  V30 833 C 79.7503 0.166384 -1.85957 0
M  V30 834 C 80.1013 1.51747 -1.24367 0
M  V30 835 O 79.2263 2.09317 -0.549124 0
M  V30 836 C 79.8213 0.308681 -3.37391 0
M  V30 837 C 78.3803 0.741286 -3.69028 0
M  V30 838 C 77.5273 -0.137937 -2.76957 0
M  V30 839 H 80.4783 -0.542335 -1.49146 0
M  V30 840 H 80.4993 1.13984 -3.63026 0
M  V30 841 H 80.0113 -0.674809 -3.82188 0
M  V30 842 H 78.1123 1.73458 -3.29762 0
M  V30 843 H 78.2253 0.546118 -4.75977 0
M  V30 844 H 76.5893 0.386251 -2.51754 0
M  V30 845 H 77.3723 -1.11816 -3.2458 0
M  V30 846 N 79.8174 1.5752 -0.0501392 0
M  V30 847 C 80.7474 2.14502 0.922566 0
M  V30 848 C 81.7284 1.06642 1.3252 0
M  V30 849 O 82.9134 1.34577 1.4001 0
M  V30 850 C 80.0434 2.68916 2.19776 0
M  V30 851 C 78.9974 3.8175 1.93523 0
M  V30 852 C 78.3234 4.22677 3.27487 0
M  V30 853 C 79.6234 5.06932 1.25765 0
M  V30 854 H 81.3174 2.9603 0.447952 0
M  V30 855 H 78.8634 1.42401 0.214024 0
M  V30 856 H 80.8164 3.07419 2.88222 0
M  V30 857 H 79.5404 1.84578 2.69441 0
M  V30 858 H 78.1994 3.43718 1.27489 0
M  V30 859 H 77.8474 3.35291 3.74952 0
M  V30 860 H 77.5474 4.98725 3.1072 0
M  V30 861 H 79.0714 4.63779 3.97166 0
M  V30 862 H 80.4854 5.42888 1.84244 0
M  V30 863 H 78.8824 5.88116 1.19328 0
M  V30 864 H 79.9524 4.84337 0.233536 0
M  V30 865 N 81.2955 -0.223234 1.56011 0
M  V30 866 C 82.5415 -0.949279 1.79211 0
M  V30 867 C 82.8745 -1.84054 0.619494 0
M  V30 868 O 82.1495 -1.90726 -0.381317 0
M  V30 869 C 82.4325 -1.78965 3.12479 0
M  V30 870 C 82.2855 -0.924997 4.40186 0
M  V30 871 C 83.6045 -2.76774 3.42175 0
M  V30 872 H 80.7235 -0.343676 0.651963 0
M  V30 873 H 83.3655 -0.218253 1.88742 0
M  V30 874 H 81.5155 -2.41291 3.04485 0
M  V30 875 H 83.1875 -0.318615 4.60198 0
M  V30 876 H 81.4305 -0.230344 4.33188 0
M  V30 877 H 82.1015 -1.54735 5.29869 0
M  V30 878 H 84.5775 -2.24584 3.50287 0
M  V30 879 H 83.4535 -3.32678 4.36597 0
M  V30 880 H 83.7145 -3.54429 2.64258 0
M  V30 881 N 82.7736 -1.49793 -0.48987 0
M  V30 882 C 84.0206 -1.59841 -1.24327 0
M  V30 883 C 84.3486 -0.290135 -1.92324 0
M  V30 884 O 83.6036 0.722749 -1.81865 0
M  V30 885 C 83.9026 -2.71488 -2.32441 0
M  V30 886 C 83.5686 -4.12614 -1.81826 0
M  V30 887 C 82.2306 -4.51017 -1.67742 0
M  V30 888 C 84.5826 -5.00892 -1.4407 0
M  V30 889 C 81.9106 -5.75459 -1.14297 0
M  V30 890 C 84.2626 -6.25863 -0.920742 0
M  V30 891 C 82.9266 -6.63086 -0.766383 0
M  V30 892 H 82.1966 -0.584899 -0.454944 0
M  V30 893 H 84.8436 -1.83663 -0.542215 0
M  V30 894 H 83.1486 -2.4168 -3.0838 0
M  V30 895 H 84.8456 -2.76469 -2.90458 0
M  V30 896 H 81.4356 -3.82307 -1.93751 0
M  V30 897 H 85.6196 -4.7187 -1.53794 0
M  V30 898 H 80.8756 -6.02989 -1.01068 0
M  V30 899 H 85.0496 -6.9364 -0.619448 0
M  V30 900 H 82.6766 -7.59393 -0.350083 0
M  V30 901 N 84.2517 0.741722 -1.39055 0
M  V30 902 C 85.4997 1.49818 -1.35643 0
M  V30 903 C 85.8207 1.94938 0.0491642 0
M  V30 904 O 85.0907 1.68505 0.999141 0
M  V30 905 H 83.6707 0.555755 -0.499144 0
M  V30 906 H 86.3327 0.880957 -1.73854 0
M  V30 907 H 85.4287 2.38348 -2.01486 0
M  V30 908 N 85.7298 1.2412 0.971189 0
M  V30 909 C 86.6768 1.0305 2.06517 0
M  V30 910 C 87.6468 -0.0550666 1.66009 0
M  V30 911 O 88.8318 0.0988688 1.90544 0
M  V30 912 C 85.9718 0.637653 3.39158 0
M  V30 913 C 85.0848 1.79633 3.92882 0
M  V30 914 C 84.2198 1.34939 5.13775 0
M  V30 915 C 83.2588 2.47823 5.59687 0
M  V30 916 N 82.3958 2.04022 6.71803 0
M  V30 917 H 87.2358 1.96685 2.23873 0
M  V30 918 H 84.7728 0.979694 1.09729 0
M  V30 919 H 86.7308 0.390931 4.15364 0
M  V30 920 H 85.3608 -0.261693 3.21737 0
M  V30 921 H 84.4128 2.15681 3.13346 0
M  V30 922 H 85.7248 2.64466 4.22918 0
M  V30 923 H 84.8788 1.06134 5.97345 0
M  V30 924 H 83.6178 0.471557 4.85415 0
M  V30 925 H 82.6228 2.77392 4.74693 0
M  V30 926 H 83.8478 3.36158 5.90063 0
M  V30 927 H 81.7938 1.18632 6.45184 0
M  V30 928 H 81.7108 2.82409 7.01271 0
M  V30 929 H 82.9788 1.78347 7.58823 0
M  V30 930 N 87.2079 -1.17134 1.05439 0
M  V30 931 C 88.4359 -1.91372 0.786414 0
M  V30 932 C 88.8509 -1.76955 -0.658202 0
M  V30 933 O 88.2079 -1.10838 -1.44987 0
M  V30 934 C 88.2589 -3.42356 1.1608 0
M  V30 935 O 87.9799 -3.56332 2.54871 0
M  V30 936 C 89.4809 -4.33663 0.919322 0
M  V30 937 H 86.7009 -0.607118 0.285743 0
M  V30 938 H 89.2449 -1.48525 1.40572 0
M  V30 939 H 87.3999 -3.82939 0.586191 0
M  V30 940 H 87.8139 -4.49896 2.69618 0
M  V30 941 H 89.2879 -5.38099 1.231 0
M  V30 942 H 89.7649 -4.38959 -0.145359 0
M  V30 943 H 90.3709 -3.98796 1.47789 0
M  V30 944 N 88.686 -0.835752 -1.33615 0
M  V30 945 C 89.933 -0.429959 -1.97883 0
M  V30 946 C 90.261 1.01006 -1.66217 0
M  V30 947 O 89.516 1.72047 -0.93265 0
M  V30 948 C 89.815 -0.593925 -3.52431 0
M  V30 949 C 89.481 -2.00158 -4.04039 0
M  V30 950 C 88.143 -2.38662 -4.17844 0
M  V30 951 C 90.495 -2.92117 -4.31644 0
M  V30 952 C 87.823 -3.68435 -4.56588 0
M  V30 953 C 90.175 -4.21368 -4.71838 0
M  V30 954 C 88.839 -4.59833 -4.83849 0
M  V30 955 H 88.109 -0.157333 -0.724104 0
M  V30 956 H 90.756 -1.06217 -1.59343 0
M  V30 957 H 89.061 0.121619 -3.91611 0
M  V30 958 H 90.758 -0.260282 -4.00154 0
M  V30 959 H 87.348 -1.69252 -3.93766 0
M  V30 960 H 91.532 -2.63608 -4.20505 0
M  V30 961 H 86.788 -3.98046 -4.64079 0
M  V30 962 H 90.962 -4.92703 -4.92155 0
M  V30 963 H 88.589 -5.60438 -5.13627 0
M  V30 964 N 90.1641 1.46063 -0.591896 0
M  V30 965 C 91.3921 2.06717 -0.0868936 0
M  V30 966 C 91.8071 1.43916 1.22203 0
M  V30 967 O 91.1641 0.547698 1.74088 0
M  V30 968 C 91.2151 3.6142 0.0758725 0
M  V30 969 O 90.9361 4.21874 -1.18126 0
M  V30 970 C 92.4371 4.39025 0.61416 0
M  V30 971 H 89.6571 0.668162 -0.0616518 0
M  V30 972 H 92.2011 1.8755 -0.815175 0
M  V30 973 H 90.3561 3.79983 0.754413 0
M  V30 974 H 90.7701 5.14861 -1.00092 0
M  V30 975 H 92.2441 5.4783 0.677193 0
M  V30 976 H 92.7211 4.07708 1.63312 0
M  V30 977 H 93.3271 4.2529 -0.0298142 0
M  V30 978 N 91.6422 0.330177 1.54103 0
M  V30 979 C 92.9192 -0.325007 1.92881 0
M  V30 980 C 93.2992 -1.6934 1.26045 0
M  V30 981 O 92.6472 -2.24855 0.406526 0
M  V30 982 C 92.8572 -0.410634 3.46576 0
M  V30 983 C 94.2052 -0.667801 4.19316 0
M  V30 984 O 95.2292 -0.49329 3.52768 0
M  V30 985 O 94.0882 -1.00491 5.37181 0
M  V30 986 H 91.1822 -0.186873 0.80561 0
M  V30 987 H 93.7282 0.380376 1.65382 0
M  V30 988 H 92.5002 0.550164 3.87413 0
M  V30 989 H 92.1232 -1.16333 3.802 0
M  V30 990 N 93.1203 -1.57491 0.0584922 0
M  V30 991 C 94.0703 -2.08474 -0.923188 0
M  V30 992 C 95.0543 -0.991479 -1.26722 0
M  V30 993 O 96.2463 -1.25473 -1.24842 0
M  V30 994 C 93.3753 -2.6392 -2.19548 0
M  V30 995 C 92.4613 -3.80227 -1.87852 0
M  V30 996 N 92.8523 -4.89714 -1.26546 0
M  V30 997 C 91.1503 -3.89271 -2.17679 0
M  V30 998 C 91.8513 -5.70689 -1.12644 0
M  V30 999 N 90.8273 -5.18531 -1.63176 0
M  V30 1000 H 94.6293 -2.90517 -0.444653 0
M  V30 1001 H 92.1433 -1.61745 -0.145764 0
M  V30 1002 H 94.1403 -2.98752 -2.9078 0
M  V30 1003 H 92.8003 -1.83318 -2.68001 0
M  V30 1004 H 93.8113 -5.09358 -0.936757 0
M  V30 1005 H 90.4883 -3.19623 -2.68602 0
M  V30 1006 H 91.8783 -6.6875 -0.6499 0
M  V30 1007 N 94.5984 0.214957 -1.56127 0
M  V30 1008 C 95.5314 1.29382 -1.87977 0
M  V30 1009 C 96.5094 1.44897 -0.737807 0
M  V30 1010 O 97.6934 1.60605 -0.986833 0
M  V30 1011 C 94.8204 2.66325 -2.09258 0
M  V30 1012 C 93.8664 2.67789 -3.31951 0
M  V30 1013 S 94.6994 2.21198 -4.8768 0
M  V30 1014 C 95.8554 3.60003 -5.12004 0
M  V30 1015 H 96.0884 1.02173 -2.79192 0
M  V30 1016 H 93.6214 0.417516 -1.48648 0
M  V30 1017 H 95.5794 3.45162 -2.22201 0
M  V30 1018 H 94.2404 2.90755 -1.18829 0
M  V30 1019 H 93.4334 3.68436 -3.43906 0
M  V30 1020 H 93.0354 1.9702 -3.17898 0
M  V30 1021 H 95.3274 4.55739 -5.01307 0
M  V30 1022 H 96.2704 3.52959 -6.13861 0
M  V30 1023 H 96.6784 3.53996 -4.39712 0
M  V30 1024 N 96.0765 1.50051 0.48192 0
M  V30 1025 C 97.0065 1.71046 1.58951 0
M  V30 1026 C 97.9875 0.559288 1.60642 0
M  V30 1027 O 99.1725 0.797243 1.77081 0
M  V30 1028 C 96.3025 1.79462 2.97339 0
M  V30 1029 C 95.2565 2.94558 3.10515 0
M  V30 1030 C 94.5825 2.88105 4.50444 0
M  V30 1031 C 95.8825 4.35227 2.88747 0
M  V30 1032 H 97.5765 2.6378 1.41635 0
M  V30 1033 H 95.1225 1.26936 0.679942 0
M  V30 1034 H 97.0755 1.92734 3.74742 0
M  V30 1035 H 95.7995 0.833412 3.15788 0
M  V30 1036 H 94.4585 2.80918 2.35543 0
M  V30 1037 H 94.1065 1.89853 4.65795 0
M  V30 1038 H 93.8065 3.65366 4.60197 0
M  V30 1039 H 95.3305 3.03412 5.29881 0
M  V30 1040 H 96.7445 4.49449 3.55905 0
M  V30 1041 H 95.1415 5.13856 3.09955 0
M  V30 1042 H 96.2115 4.48347 1.84696 0
M  V30 1043 N 97.5546 -0.734337 1.39446 0
M  V30 1044 C 98.4876 -1.85715 1.32609 0
M  V30 1045 C 99.4656 -1.6137 0.199636 0
M  V30 1046 O 100.65 -1.84626 0.380195 0
M  V30 1047 C 97.7766 -3.21709 1.05929 0
M  V30 1048 C 96.8226 -3.64913 2.20773 0
M  V30 1049 S 97.6556 -3.74203 3.83056 0
M  V30 1050 C 98.8116 -5.12986 3.58603 0
M  V30 1051 H 99.0446 -1.91232 2.27635 0
M  V30 1052 H 96.5776 -0.899263 1.25509 0
M  V30 1053 H 98.5356 -4.00236 0.912203 0
M  V30 1054 H 97.1966 -3.13848 0.125883 0
M  V30 1055 H 96.3896 -4.63606 1.97699 0
M  V30 1056 H 95.9916 -2.93593 2.31688 0
M  V30 1057 H 98.2836 -5.99339 3.15909 0
M  V30 1058 H 99.2266 -5.41088 4.5676 0
M  V30 1059 H 99.6346 -4.82694 2.9269 0
M  V30 1060 N 99.0327 -1.24633 -0.964593 0
M  V30 1061 C 100.279 -1.08949 -1.71049 0
M  V30 1062 C 100.612 0.370302 -1.90637 0
M  V30 1063 O 99.8867 1.27349 -1.47011 0
M  V30 1064 C 100.17 -1.83329 -3.0994 0
M  V30 1065 C 100.023 -3.37077 -2.97824 0
M  V30 1066 C 101.342 -1.60846 -4.09654 0
M  V30 1067 H 98.4607 -0.397178 -0.620821 0
M  V30 1068 H 101.103 -1.5334 -1.12191 0
M  V30 1069 H 99.2527 -1.45597 -3.60186 0
M  V30 1070 H 100.925 -3.84425 -2.5498 0
M  V30 1071 H 99.1677 -3.65298 -2.33965 0
M  V30 1072 H 99.8387 -3.84324 -3.96231 0
M  V30 1073 H 102.315 -1.93674 -3.68279 0
M  V30 1074 H 101.191 -2.1534 -5.04896 0
M  V30 1075 H 101.452 -0.547434 -4.38698 0
M  V30 1076 N 100.511 1.16574 -1.06058 0
M  V30 1077 C 101.421 2.2452 -0.680282 0
M  V30 1078 C 102.437 1.71348 0.302604 0
M  V30 1079 O 103.613 2.00822 0.152513 0
M  V30 1080 C 100.678 3.46629 -0.0700315 0
M  V30 1081 C 99.7388 4.14849 -1.10448 0
M  V30 1082 C 98.9718 5.31129 -0.523256 0
M  V30 1083 O 99.1948 5.66514 0.664709 0
M  V30 1084 O 98.1288 5.88526 -1.26179 0
M  V30 1085 H 101.955 2.59355 -1.58015 0
M  V30 1086 H 99.5398 1.24043 -0.832694 0
M  V30 1087 H 101.422 4.20543 0.268667 0
M  V30 1088 H 100.097 3.13573 0.803353 0
M  V30 1089 H 99.0038 3.42916 -1.49532 0
M  V30 1090 H 100.337 4.51954 -1.94931 0
M  V30 1091 N 101.989 0.842826 1.3317 0
M  V30 1092 C 103.235 0.450342 1.98352 0
M  V30 1093 C 103.59 -0.980508 1.65541 0
M  V30 1094 O 102.883 -1.67678 0.927065 0
M  V30 1095 C 103.077 0.612607 3.52111 0
M  V30 1096 C 102.906 2.05768 3.99862 0
M  V30 1097 C 101.676 2.69374 4.27511 0
M  V30 1098 C 103.874 3.02688 4.15794 0
M  V30 1099 N 101.856 4.04915 4.61429 0
M  V30 1100 C 103.227 4.23186 4.53115 0
M  V30 1101 C 105.282 2.99041 3.98094 0
M  V30 1102 C 103.985 5.40518 4.74587 0
M  V30 1103 C 106.011 4.15607 4.20743 0
M  V30 1104 C 105.373 5.3486 4.58371 0
M  V30 1105 H 101.472 0.213296 0.752349 0
M  V30 1106 H 104.056 1.09173 1.61212 0
M  V30 1107 H 102.227 0.000998822 3.884 0
M  V30 1108 H 103.959 0.191179 4.04248 0
M  V30 1109 H 100.714 2.20485 4.19146 0
M  V30 1110 H 101.138 4.74798 4.82593 0
M  V30 1111 H 105.78 2.0797 3.68114 0
M  V30 1112 H 103.498 6.3213 5.03425 0
M  V30 1113 H 107.084 4.14207 4.08563 0
M  V30 1114 H 105.964 6.23558 4.75547 0
M  V30 1115 N 103.467 -1.45747 0.599634 0
M  V30 1116 C 104.415 -2.322 -0.136426 0
M  V30 1117 C 105.409 -1.45497 -0.867583 0
M  V30 1118 O 106.615 -1.62027 -0.78405 0
M  V30 1119 H 102.99 -0.749368 -0.0628588 0
M  V30 1120 H 104.961 -2.92072 0.611281 0
M  V30 1121 C 103.71 -3.28974 -1.12567 0
M  V30 1122 H 103.033 -3.9568 -0.572484 0
M  V30 1123 H 104.473 -3.92212 -1.61077 0
M  V30 1124 C 102.932 -2.55561 -2.19523 0
M  V30 1125 O 103.462 -2.33111 -3.27143 0
M  V30 1126 N 101.668 -2.15832 -1.94589 0
M  V30 1127 H 101.215 -2.3429 -1.07078 0
M  V30 1128 H 101.173 -1.67034 -2.66359 0
M  V30 1129 N 104.945 -0.338344 -1.53925 0
M  V30 1130 C 106.222 0.314774 -1.93051 0
M  V30 1131 C 106.602 1.68669 -1.26941 0
M  V30 1132 O 105.95 2.24636 -0.418445 0
M  V30 1133 C 106.16 0.392249 -3.46789 0
M  V30 1134 C 107.508 0.645554 -4.19664 0
M  V30 1135 O 108.532 0.474575 -3.53024 0
M  V30 1136 O 107.391 0.976408 -5.37707 0
M  V30 1137 H 104.485 0.182598 -0.80659 0
M  V30 1138 H 107.031 -0.389141 -1.65178 0
M  V30 1139 H 105.803 -0.570702 -3.87116 0
M  V30 1140 H 105.426 1.14316 -3.80812 0
M  V30 1141 N 106.423 1.57458 -0.0668435 0
M  V30 1142 C 107.37 2.12439 0.902122 0
M  V30 1143 C 108.34 1.03565 1.2986 0
M  V30 1144 O 109.525 1.312 1.38532 0
M  V30 1145 C 106.665 2.6865 2.16614 0
M  V30 1146 C 105.778 3.91663 1.82274 0
M  V30 1147 C 104.913 4.36134 3.0325 0
M  V30 1148 C 103.952 5.51808 2.64904 0
M  V30 1149 N 103.089 5.9126 3.78624 0
M  V30 1150 H 107.929 2.94934 0.426382 0
M  V30 1151 H 105.466 1.4575 0.198819 0
M  V30 1152 H 107.424 2.99346 2.90599 0
M  V30 1153 H 106.054 1.88928 2.61737 0
M  V30 1154 H 105.106 3.6746 0.983719 0
M  V30 1155 H 106.418 4.75693 1.50059 0
M  V30 1156 H 105.572 4.68465 3.85519 0
M  V30 1157 H 104.311 3.50948 3.38655 0
M  V30 1158 H 103.316 5.19133 1.81055 0
M  V30 1159 H 104.541 6.38722 2.30675 0
M  V30 1160 H 102.487 5.09024 4.138 0
M  V30 1161 H 102.404 6.70018 3.5016 0
M  V30 1162 H 103.672 6.28212 4.61486 0
M  V30 1163 N 107.901 -0.206675 1.56239 0
M  V30 1164 C 109.149 -0.927007 1.79586 0
M  V30 1165 C 109.47 -1.8427 0.637929 0
M  V30 1166 O 108.74 -1.92849 -0.344398 0
M  V30 1167 H 107.32 -0.345292 0.662407 0
M  V30 1168 H 109.982 -0.21496 1.93711 0
M  V30 1169 H 109.078 -1.52501 2.72305 0
M  V30 1170 N 109.379 -1.50304 -0.473955 0
M  V30 1171 C 110.625 -1.62358 -1.22521 0
M  V30 1172 C 110.98 -0.318555 -1.89745 0
M  V30 1173 O 110.273 0.683315 -1.79001 0
M  V30 1174 C 110.467 -2.73938 -2.29549 0
M  V30 1175 C 110.296 -4.15165 -1.72825 0
M  V30 1176 C 109.066 -4.81604 -1.52924 0
M  V30 1177 C 111.264 -4.99503 -1.22481 0
M  V30 1178 N 109.246 -6.07056 -0.91413 0
M  V30 1179 C 110.617 -6.15655 -0.732743 0
M  V30 1180 C 112.672 -4.85299 -1.11308 0
M  V30 1181 C 111.375 -7.19164 -0.139976 0
M  V30 1182 C 113.401 -5.88982 -0.534258 0
M  V30 1183 C 112.763 -7.0438 -0.0525562 0
M  V30 1184 H 108.862 -0.648286 -0.437321 0
M  V30 1185 H 111.446 -1.87413 -0.527692 0
M  V30 1186 H 109.617 -2.50611 -2.9673 0
M  V30 1187 H 111.349 -2.75366 -2.96573 0
M  V30 1188 H 108.104 -4.3885 -1.78067 0
M  V30 1189 H 108.528 -6.74108 -0.625071 0
M  V30 1190 H 113.17 -3.96369 -1.47144 0
M  V30 1191 H 110.888 -8.07771 0.230591 0
M  V30 1192 H 114.474 -5.80055 -0.450219 0
M  V30 1193 H 113.354 -7.83238 0.388324 0
M  V30 1194 N 110.857 0.726932 -1.39834 0
M  V30 1195 C 112.105 1.4837 -1.37225 0
M  V30 1196 C 112.426 1.94979 0.0284857 0
M  V30 1197 O 111.696 1.69555 0.981213 0
M  V30 1198 H 110.276 0.55043 -0.505011 0
M  V30 1199 H 112.938 0.862468 -1.74778 0
M  V30 1200 H 112.034 2.36198 -2.04003 0
M  V30 1201 N 112.336 1.25143 0.95797 0
M  V30 1202 C 113.268 1.01023 2.05735 0
M  V30 1203 C 114.281 -0.0236902 1.62783 0
M  V30 1204 O 115.47 0.21448 1.77207 0
M  V30 1205 C 112.57 0.504595 3.35122 0
M  V30 1206 C 111.743 1.6039 4.06932 0
M  V30 1207 C 110.802 1.09922 5.14591 0
M  V30 1208 O 109.828 1.79293 5.40225 0
M  V30 1209 N 111.03 -0.0612545 5.80468 0
M  V30 1210 H 113.795 1.95683 2.26998 0
M  V30 1211 H 111.356 1.16303 1.12629 0
M  V30 1212 H 113.348 0.151516 4.04416 0
M  V30 1213 H 111.918 -0.347989 3.10657 0
M  V30 1214 H 111.138 2.12872 3.31782 0
M  V30 1215 H 112.426 2.34252 4.51667 0
M  V30 1216 H 111.824 -0.640985 5.62057 0
M  V30 1217 H 110.381 -0.355395 6.5083 0
M  V30 1218 N 113.814 -1.1601 1.06675 0
M  V30 1219 C 115.225 -1.68235 0.809565 0
M  V30 1220 C 115.576 -1.8454 -0.666303 0
M  V30 1221 O 114.701 -1.54374 -1.5165 0
M  V30 1222 C 115.296 -3.05585 1.46299 0
M  V30 1223 C 113.855 -3.54915 1.25349 0
M  V30 1224 C 113.002 -2.30804 1.53703 0
M  V30 1225 H 115.953 -1.00318 1.22971 0
M  V30 1226 H 115.974 -3.70174 0.880431 0
M  V30 1227 H 115.486 -2.93686 2.53713 0
M  V30 1228 H 113.587 -3.72067 0.199261 0
M  V30 1229 H 113.7 -4.36774 1.9689 0
M  V30 1230 H 112.064 -2.36007 0.957739 0
M  V30 1231 H 112.847 -2.21499 2.62284 0
M  V30 1232 N 115.292 -0.849877 -1.32721 0
M  V30 1233 C 116.708 -0.539102 -1.50219 0
M  V30 1234 C 116.908 0.931271 -1.78689 0
M  V30 1235 O 115.964 1.71455 -1.85363 0
M  V30 1236 C 117.277 -1.42196 -2.64954 0
M  V30 1237 C 118.825 -1.42189 -2.78839 0
M  V30 1238 C 119.3 -2.28985 -3.96648 0
M  V30 1239 N 120.791 -2.26754 -4.03902 0
M  V30 1240 C 121.526 -2.90644 -4.94281 0
M  V30 1241 N 121.022 -3.63629 -5.897 0
M  V30 1242 N 122.815 -2.80057 -4.87365 0
M  V30 1243 H 114.966 -1.80156 -1.12506 0
M  V30 1244 H 117.229 -0.769217 -0.554085 0
M  V30 1245 H 116.935 -2.46733 -2.50631 0
M  V30 1246 H 116.809 -1.10591 -3.60624 0
M  V30 1247 H 119.196 -0.38419 -2.92588 0
M  V30 1248 H 119.277 -1.77807 -1.83898 0
M  V30 1249 H 118.921 -3.32819 -3.83658 0
M  V30 1250 H 118.851 -1.90702 -4.90857 0
M  V30 1251 H 121.342 -1.73688 -3.3562 0
M  V30 1252 H 121.655 -4.09558 -6.55349 0
M  V30 1253 H 120 -3.67737 -5.89741 0
M  V30 1254 H 123.191 -2.22593 -4.11789 0
M  V30 1255 H 123.364 -3.30132 -5.57599 0
M  V30 1256 N 116.77 1.45427 -0.607355 0
M  V30 1257 C 118.019 2.01452 -0.100036 0
M  V30 1258 C 118.332 1.48159 1.27704 0
M  V30 1259 O 119.538 1.96159 1.87707 0
M  V30 1260 C 117.994 3.59672 -0.128158 0
M  V30 1261 C 117.602 4.21962 -1.50507 0
M  V30 1262 C 119.346 4.23262 0.323932 0
M  V30 1263 C 117.253 5.72333 -1.48959 0
M  V30 1264 H 116.183 0.75325 -0.0336299 0
M  V30 1265 H 118.834 1.66901 -0.76265 0
M  V30 1266 H 117.216 3.91411 0.601105 0
M  V30 1267 H 118.39 4.01796 -2.25602 0
M  V30 1268 H 116.705 3.70565 -1.89923 0
M  V30 1269 H 119.302 5.33522 0.354691 0
M  V30 1270 H 119.645 3.93921 1.34656 0
M  V30 1271 H 120.178 3.96239 -0.352056 0
M  V30 1272 H 116.917 6.06373 -2.48981 0
M  V30 1273 H 116.437 5.94691 -0.781214 0
M  V30 1274 H 118.116 6.35525 -1.21313 0
M  V30 1275 N 118.248 0.346503 1.53744 0
M  V30 1276 C 119.18 -0.543316 2.22667 0
M  V30 1277 C 120.193 -1.06159 1.23427 0
M  V30 1278 O 121.382 -0.971235 1.49764 0
M  V30 1279 C 118.482 -1.76076 2.89569 0
M  V30 1280 C 117.655 -1.37727 4.15151 0
M  V30 1281 C 116.714 -2.45471 4.65436 0
M  V30 1282 O 115.74 -2.08655 5.29577 0
M  V30 1283 N 116.942 -3.7677 4.41616 0
M  V30 1284 H 119.707 0.0469703 2.99663 0
M  V30 1285 H 117.268 0.170766 1.60997 0
M  V30 1286 H 119.26 -2.47593 3.20125 0
M  V30 1287 H 117.83 -2.25835 2.16142 0
M  V30 1288 H 117.05 -0.492746 3.91108 0
M  V30 1289 H 118.338 -1.09708 4.96832 0
M  V30 1290 H 117.736 -4.09467 3.90325 0
M  V30 1291 H 116.293 -4.44448 4.7677 0
M  V30 1292 N 119.726 -1.57421 0.075193 0
M  V30 1293 C 121.137 -1.81021 -0.456964 0
M  V30 1294 C 121.488 -0.98936 -1.69429 0
M  V30 1295 O 120.613 -0.212865 -2.15351 0
M  V30 1296 C 121.208 -3.28329 -0.83581 0
M  V30 1297 C 119.767 -3.52764 -1.31281 0
M  V30 1298 C 118.914 -2.75676 -0.299648 0
M  V30 1299 H 121.865 -1.55822 0.300856 0
M  V30 1300 H 121.886 -3.40564 -1.69696 0
M  V30 1301 H 121.398 -3.88046 0.0649238 0
M  V30 1302 H 119.499 -2.98355 -2.23193 0
M  V30 1303 H 119.612 -4.61451 -1.28839 0
M  V30 1304 H 117.976 -2.42538 -0.777641 0
M  V30 1305 H 118.759 -3.38132 0.593417 0
M  V30 1306 N 121.204 0.198386 -1.56346 0
M  V30 1307 C 122.451 0.919286 -1.80431 0
M  V30 1308 C 122.779 1.83393 -0.647866 0
M  V30 1309 O 122.034 1.92236 0.366556 0
M  V30 1310 C 122.333 1.77031 -3.10475 0
M  V30 1311 C 121.999 1.00693 -4.39513 0
M  V30 1312 C 120.661 0.796145 -4.74568 0
M  V30 1313 C 123.013 0.469559 -5.19081 0
M  V30 1314 C 120.341 0.0364588 -5.86689 0
M  V30 1315 C 122.693 -0.2769 -6.31994 0
M  V30 1316 C 121.357 -0.49873 -6.65634 0
M  V30 1317 H 120.627 0.336391 -0.660244 0
M  V30 1318 H 123.274 0.185872 -1.90596 0
M  V30 1319 H 121.579 2.5723 -2.95533 0
M  V30 1320 H 123.276 2.33065 -3.26315 0
M  V30 1321 H 119.866 1.18122 -4.12001 0
M  V30 1322 H 124.05 0.619816 -4.92414 0
M  V30 1323 H 119.306 -0.145412 -6.11227 0
M  V30 1324 H 123.48 -0.700684 -6.92866 0
M  V30 1325 H 121.107 -1.0893 -7.52355 0
M  V30 1326 N 122.682 1.50554 0.465978 0
M  V30 1327 C 123.614 1.65949 1.58093 0
M  V30 1328 C 124.627 0.540827 1.53554 0
M  V30 1329 O 125.816 0.814187 1.5885 0
M  V30 1330 C 122.916 1.63261 2.96983 0
M  V30 1331 C 122.089 2.91245 3.26336 0
M  V30 1332 C 121.148 2.8113 4.44806 0
M  V30 1333 O 120.174 3.55086 4.44862 0
M  V30 1334 N 121.376 1.95032 5.46756 0
M  V30 1335 H 124.141 2.62122 1.45301 0
M  V30 1336 H 121.702 1.48082 0.65448 0
M  V30 1337 H 123.694 1.54101 3.74212 0
M  V30 1338 H 122.264 0.748032 3.03518 0
M  V30 1339 H 121.484 3.14493 2.37672 0
M  V30 1340 H 122.772 3.76022 3.42761 0
M  V30 1341 H 122.17 1.3427 5.49534 0
M  V30 1342 H 120.727 1.91772 6.2295 0
M  V30 1343 N 124.16 -0.719506 1.40217 0
M  V30 1344 C 125.108 -1.85493 1.40339 0
M  V30 1345 C 126.102 -1.66995 0.284415 0
M  V30 1346 O 127.308 -1.74148 0.455252 0
M  V30 1347 H 123.683 -0.610857 0.438586 0
M  V30 1348 H 125.654 -1.82506 2.36081 0
M  V30 1349 C 124.403 -3.23321 1.27901 0
M  V30 1350 H 123.726 -3.38159 2.1328 0
M  V30 1351 H 125.166 -4.02914 1.32045 0
M  V30 1352 C 123.625 -3.36898 -0.0111355 0
M  V30 1353 O 124.155 -3.89674 -0.975538 0
M  V30 1354 N 122.361 -2.90492 -0.0793393 0
M  V30 1355 H 121.908 -2.47731 0.706183 0
M  V30 1356 H 121.866 -2.99955 -0.942038 0
M  V30 1357 N 125.638 -1.25649 -0.95132 0
M  V30 1358 C 126.568 -1.08808 -2.06599 0
M  V30 1359 C 127.549 0.00382547 -1.701 0
M  V30 1360 O 128.734 -0.166325 -1.93486 0
M  V30 1361 C 125.864 -0.709542 -3.39975 0
M  V30 1362 C 124.818 -1.75206 -3.90496 0
M  V30 1363 C 124.144 -1.22811 -5.20405 0
M  V30 1364 C 125.444 -3.15153 -4.16504 0
M  V30 1365 H 127.138 -2.02048 -2.20946 0
M  V30 1366 H 124.684 -0.972835 -1.06169 0
M  V30 1367 H 126.637 -0.578649 -4.17408 0
M  V30 1368 H 125.361 0.258556 -3.25575 0
M  V30 1369 H 124.02 -1.87145 -3.15234 0
M  V30 1370 H 123.668 -0.250145 -5.02378 0
M  V30 1371 H 123.368 -1.92492 -5.55176 0
M  V30 1372 H 124.892 -1.10968 -6.00432 0
M  V30 1373 H 126.306 -3.06349 -4.84586 0
M  V30 1374 H 124.703 -3.82333 -4.62538 0
M  V30 1375 H 125.773 -3.61966 -3.22658 0
M  V30 1376 N 127.117 1.15442 -1.07289 0
M  V30 1377 C 128.345 1.90096 -0.81676 0
M  V30 1378 C 128.76 1.7798 0.629966 0
M  V30 1379 O 128.117 1.1313 1.43206 0
M  V30 1380 C 128.168 3.40466 -1.21512 0
M  V30 1381 O 127.889 3.52232 -2.60508 0
M  V30 1382 C 129.39 4.32145 -0.988198 0
M  V30 1383 H 126.61 0.602495 -0.295366 0
M  V30 1384 H 129.154 1.4627 -1.42918 0
M  V30 1385 H 127.309 3.81958 -0.647039 0
M  V30 1386 H 127.723 4.45549 -2.76742 0
M  V30 1387 H 129.197 5.36072 -1.31645 0
M  V30 1388 H 129.674 4.39135 0.0755063 0
M  V30 1389 H 130.28 3.96395 -1.54115 0
M  V30 1390 N 128.595 0.856903 1.32268 0
M  V30 1391 C 129.525 0.31858 2.31316 0
M  V30 1392 C 130.506 -0.583487 1.59779 0
M  V30 1393 O 131.691 -0.503259 1.87566 0
M  V30 1394 C 128.821 -0.491979 3.43798 0
M  V30 1395 C 127.775 0.315849 4.26833 0
M  V30 1396 C 127.101 -0.619586 5.31098 0
M  V30 1397 C 128.401 1.54282 4.98993 0
M  V30 1398 H 130.095 1.14621 2.76591 0
M  V30 1399 H 127.641 0.552613 1.32974 0
M  V30 1400 H 129.594 -0.879012 4.1213 0
M  V30 1401 H 128.318 -1.35299 2.97257 0
M  V30 1402 H 126.977 0.684664 3.6015 0
M  V30 1403 H 126.625 -1.47751 4.8081 0
M  V30 1404 H 126.325 -0.0830621 5.87541 0
M  V30 1405 H 127.849 -1.00375 6.02293 0
M  V30 1406 H 129.263 1.22796 5.59995 0
M  V30 1407 H 127.66 2.01745 5.65172 0
M  V30 1408 H 128.73 2.30285 4.26728 0
M  V30 1409 N 130.073 -1.45103 0.615059 0
M  V30 1410 C 131.023 -2.27679 -0.120966 0
M  V30 1411 C 132.007 -1.3775 -0.831491 0
M  V30 1412 O 133.199 -1.61683 -0.720249 0
M  V30 1413 C 130.328 -3.24767 -1.1127 0
M  V30 1414 C 129.414 -4.22184 -0.402627 0
M  V30 1415 N 129.805 -5.02692 0.559884 0
M  V30 1416 C 128.103 -4.4125 -0.649202 0
M  V30 1417 C 128.804 -5.73421 0.977942 0
M  V30 1418 N 127.78 -5.42657 0.320104 0
M  V30 1419 H 131.582 -2.87325 0.618181 0
M  V30 1420 H 129.096 -1.56345 0.439304 0
M  V30 1421 H 131.093 -3.82666 -1.65446 0
M  V30 1422 H 129.753 -2.66682 -1.85232 0
M  V30 1423 H 130.764 -5.09354 0.936976 0
M  V30 1424 H 127.441 -3.9428 -1.37293 0
M  V30 1425 H 128.831 -6.48107 1.77222 0
M  V30 1426 N 131.551 -0.354651 -1.53558 0
M  V30 1427 C 132.962 0.126902 -1.86268 0
M  V30 1428 C 133.313 1.49075 -1.27558 0
M  V30 1429 O 132.438 2.08105 -0.5934 0
M  V30 1430 C 133.033 0.237046 -3.3797 0
M  V30 1431 C 131.592 0.662842 -3.70518 0
M  V30 1432 C 130.739 -0.196652 -2.76602 0
M  V30 1433 H 133.69 -0.573849 -1.47962 0
M  V30 1434 H 133.711 1.06259 -3.65362 0
M  V30 1435 H 133.223 -0.755725 -3.80671 0
M  V30 1436 H 131.324 1.66424 -3.33367 0
M  V30 1437 H 131.437 0.445034 -4.77029 0
M  V30 1438 H 129.801 0.332763 -2.52517 0
M  V30 1439 H 130.584 -1.18676 -3.22135 0
M  V30 1440 N 133.029 1.57378 -0.0835403 0
M  V30 1441 C 133.992 2.12252 0.864959 0
M  V30 1442 C 134.992 1.04916 1.21858 0
M  V30 1443 O 136.182 1.30853 1.14991 0
M  V30 1444 C 133.314 2.63358 2.16461 0
M  V30 1445 H 134.507 2.97371 0.388676 0
M  V30 1446 H 132.06 1.55423 0.165317 0
M  V30 1447 H 132.795 1.81727 2.686 0
M  V30 1448 H 132.58 3.41826 1.92087 0
M  V30 1449 H 134.07 3.05847 2.84337 0
M  V30 1450 N 134.507 -0.190092 1.56449 0
M  V30 1451 C 135.732 -0.929864 1.85387 0
M  V30 1452 C 136.157 -1.7585 0.667704 0
M  V30 1453 O 135.515 -1.77198 -0.383459 0
M  V30 1454 C 135.563 -1.79773 3.12593 0
M  V30 1455 O 134.667 -2.89713 2.93496 0
M  V30 1456 H 134.008 -0.261574 0.610307 0
M  V30 1457 H 136.538 -0.193896 2.03679 0
M  V30 1458 H 136.548 -2.20139 3.43515 0
M  V30 1459 H 135.223 -1.18892 3.98544 0
M  V30 1460 H 133.8 -2.53065 2.73884 0
M  V30 1461 N 135.985 -1.50799 -0.457987 0
M  V30 1462 C 137.21 -1.66496 -1.23668 0
M  V30 1463 C 137.635 -0.353288 -1.84752 0
M  V30 1464 O 136.993 0.684346 -1.67888 0
M  V30 1465 C 137.041 -2.76763 -2.3116 0
M  V30 1466 O 136.145 -2.38928 -3.36136 0
M  V30 1467 H 135.486 -0.555828 -0.363252 0
M  V30 1468 H 138.016 -1.9725 -0.543474 0
M  V30 1469 H 138.026 -3.00232 -2.76269 0
M  V30 1470 H 136.701 -3.71954 -1.86073 0
M  V30 1471 H 135.278 -2.25953 -2.96647 0
M  V30 1472 N 137.463 0.71206 -1.40597 0
M  V30 1473 C 138.688 1.50617 -1.42581 0
M  V30 1474 C 139.113 1.88079 -0.0282102 0
M  V30 1475 O 138.471 1.53511 0.964579 0
M  V30 1476 C 138.519 2.7557 -2.3258 0
M  V30 1477 O 137.623 3.72414 -1.77148 0
M  V30 1478 H 136.964 0.453966 -0.484573 0
M  V30 1479 H 139.494 0.876649 -1.84868 0
M  V30 1480 H 139.504 3.2406 -2.47889 0
M  V30 1481 H 138.179 2.47639 -3.34138 0
M  V30 1482 H 136.756 3.31276 -1.71204 0
M  V30 1483 N 138.941 1.26152 0.944643 0
M  V30 1484 C 139.871 1.09902 2.06019 0
M  V30 1485 C 140.852 0.00519538 1.70099 0
M  V30 1486 O 142.037 0.176583 1.93396 0
M  V30 1487 C 139.167 0.727562 3.39594 0
M  V30 1488 C 138.121 1.77274 3.89561 0
M  V30 1489 C 137.447 1.25569 5.19747 0
M  V30 1490 C 138.747 3.17357 4.14827 0
M  V30 1491 H 140.441 2.03217 2.19871 0
M  V30 1492 H 137.987 0.978452 1.05652 0
M  V30 1493 H 139.94 0.600777 4.17095 0
M  V30 1494 H 138.664 -0.241287 3.25707 0
M  V30 1495 H 137.323 1.88814 3.14237 0
M  V30 1496 H 136.971 0.276783 5.02238 0
M  V30 1497 H 136.671 1.95433 5.54148 0
M  V30 1498 H 138.195 1.1415 5.99835 0
M  V30 1499 H 139.609 3.08914 4.82954 0
M  V30 1500 H 138.006 3.84781 4.60504 0
M  V30 1501 H 139.076 3.63673 3.20734 0
M  V30 1502 N 140.419 -1.14872 1.07899 0
M  V30 1503 C 141.369 -2.17809 0.674027 0
M  V30 1504 C 142.353 -1.58008 -0.303699 0
M  V30 1505 O 143.545 -1.76616 -0.11654 0
M  V30 1506 C 140.674 -3.43208 0.0793318 0
M  V30 1507 C 139.76 -4.10051 1.08253 0
M  V30 1508 N 140.151 -4.52296 2.2641 0
M  V30 1509 C 138.449 -4.36469 0.917124 0
M  V30 1510 C 139.15 -5.04199 2.901 0
M  V30 1511 N 138.126 -4.98088 2.17736 0
M  V30 1512 H 141.928 -2.48207 1.57386 0
M  V30 1513 H 139.442 -1.315 0.952976 0
M  V30 1514 H 141.439 -4.16272 -0.228719 0
M  V30 1515 H 140.099 -3.14291 -0.815551 0
M  V30 1516 H 141.11 -4.45504 2.64096 0
M  V30 1517 H 137.787 -4.17432 0.0756078 0
M  V30 1518 H 139.177 -5.46802 3.90458 0
M  V30 1519 N 141.898 -0.863906 -1.31812 0
M  V30 1520 C 143.128 -0.485406 -2.00817 0
M  V30 1521 C 143.536 0.925007 -1.65046 0
M  V30 1522 O 142.879 1.61653 -0.872574 0
M  V30 1523 C 142.941 -0.555589 -3.55181 0
M  V30 1524 C 142.605 -1.92654 -4.14407 0
M  V30 1525 C 143.602 -2.89324 -4.31958 0
M  V30 1526 C 141.287 -2.2262 -4.50273 0
M  V30 1527 C 143.281 -4.14108 -4.84555 0
M  V30 1528 C 140.968 -3.47654 -5.02573 0
M  V30 1529 C 141.966 -4.43214 -5.19664 0
M  V30 1530 O 141.654 -5.66033 -5.70843 0
M  V30 1531 H 141.386 -0.188224 -0.649267 0
M  V30 1532 H 143.94 -1.16514 -1.69156 0
M  V30 1533 H 142.17 0.181037 -3.86276 0
M  V30 1534 H 143.859 -0.19138 -4.05449 0
M  V30 1535 H 144.625 -2.6748 -4.04573 0
M  V30 1536 H 140.504 -1.4902 -4.3625 0
M  V30 1537 H 144.048 -4.88703 -4.9781 0
M  V30 1538 H 139.945 -3.69345 -5.29391 0
M  V30 1539 H 140.713 -5.6812 -5.89222 0
M  V30 1540 N 143.376 1.44774 -0.622745 0
M  V30 1541 C 144.601 2.06999 -0.128968 0
M  V30 1542 C 145.026 1.4617 1.1839 0
M  V30 1543 O 144.384 0.560007 1.72434 0
M  V30 1544 C 144.432 3.60595 -0.0188351 0
M  V30 1545 O 143.536 3.99398 1.02739 0
M  V30 1546 H 142.877 0.659047 -0.0809544 0
M  V30 1547 H 145.407 1.85784 -0.85705 0
M  V30 1548 H 145.417 4.07627 0.174476 0
M  V30 1549 H 144.092 4.04252 -0.977384 0
M  V30 1550 H 142.669 3.64011 0.809326 0
M  V30 1551 N 144.854 0.36279 1.53368 0
M  V30 1552 C 145.784 -0.476976 2.28576 0
M  V30 1553 C 146.765 -1.08631 1.30894 0
M  V30 1554 O 147.95 -1.10409 1.59761 0
M  V30 1555 C 145.08 -1.61828 3.07293 0
M  V30 1556 C 144.034 -1.13633 4.1264 0
M  V30 1557 C 143.36 -2.36766 4.79423 0
M  V30 1558 C 144.66 -0.223061 5.21823 0
M  V30 1559 H 146.354 0.150474 2.99022 0
M  V30 1560 H 143.9 0.0738103 1.43811 0
M  V30 1561 H 145.853 -2.21237 3.58653 0
M  V30 1562 H 144.577 -2.27292 2.34533 0
M  V30 1563 H 143.236 -0.564945 3.62221 0
M  V30 1564 H 142.884 -3.0068 4.03238 0
M  V30 1565 H 142.584 -2.05192 5.50609 0
M  V30 1566 H 144.108 -2.96865 5.33576 0
M  V30 1567 H 145.522 -0.724545 5.68703 0
M  V30 1568 H 143.919 0.001678 6.001 0
M  V30 1569 H 144.989 0.735553 4.79289 0
M  V30 1570 N 146.332 -1.57332 0.0918853 0
M  V30 1571 C 147.264 -2.10869 -0.898168 0
M  V30 1572 C 148.277 -1.04521 -1.24817 0
M  V30 1573 O 149.466 -1.31977 -1.20184 0
M  V30 1574 C 146.566 -2.57083 -2.2082 0
M  V30 1575 C 145.739 -3.87229 -2.03402 0
M  V30 1576 C 144.798 -4.19324 -3.17889 0
M  V30 1577 O 143.824 -4.88598 -2.91994 0
M  V30 1578 N 145.026 -3.74471 -4.43567 0
M  V30 1579 H 147.791 -2.96439 -0.440943 0
M  V30 1580 H 145.352 -1.61631 -0.0933064 0
M  V30 1581 H 147.344 -2.75602 -2.96354 0
M  V30 1582 H 145.914 -1.76541 -2.57977 0
M  V30 1583 H 145.134 -3.7789 -1.12218 0
M  V30 1584 H 146.422 -4.72379 -1.89038 0
M  V30 1585 H 145.82 -3.18546 -4.67488 0
M  V30 1586 H 144.377 -3.98151 -5.16061 0
M  V30 1587 N 147.81 0.181792 -1.56548 0
M  V30 1588 C 148.74 1.22765 -1.98623 0
M  V30 1589 C 149.721 1.46747 -0.860189 0
M  V30 1590 O 150.906 1.58259 -1.12551 0
M  V30 1591 C 148.036 2.56894 -2.33715 0
M  V30 1592 C 146.99 2.475 -3.49182 0
M  V30 1593 C 146.316 3.86023 -3.69986 0
M  V30 1594 C 147.616 1.98866 -4.82959 0
M  V30 1595 H 149.31 0.877942 -2.86239 0
M  V30 1596 H 146.856 0.42088 -1.37712 0
M  V30 1597 H 148.809 3.30253 -2.61746 0
M  V30 1598 H 147.533 2.93632 -1.42997 0
M  V30 1599 H 146.192 1.76596 -3.21262 0
M  V30 1600 H 145.84 4.20136 -2.76576 0
M  V30 1601 H 145.54 3.80609 -4.47672 0
M  V30 1602 H 147.064 4.60984 -4.00407 0
M  V30 1603 H 148.478 2.61992 -5.09934 0
M  V30 1604 H 146.875 2.04424 -5.64208 0
M  V30 1605 H 147.945 0.942465 -4.75653 0
M  V30 1606 N 149.288 1.51039 0.449983 0
M  V30 1607 C 150.535 1.63081 1.20045 0
M  V30 1608 C 150.863 0.341024 1.91487 0
M  V30 1609 O 150.118 -0.674276 1.83717 0
M  V30 1610 C 150.417 2.77556 2.25161 0
M  V30 1611 C 150.083 4.17289 1.70823 0
M  V30 1612 C 148.745 4.55305 1.55725 0
M  V30 1613 C 151.097 5.04536 1.3074 0
M  V30 1614 C 148.425 5.78287 0.989999 0
M  V30 1615 C 150.777 6.28085 0.754482 0
M  V30 1616 C 149.441 6.64885 0.590308 0
M  V30 1617 H 148.711 0.596755 0.439277 0
M  V30 1618 H 151.358 1.85037 0.49333 0
M  V30 1619 H 149.663 2.49771 3.01863 0
M  V30 1620 H 151.36 2.84073 2.83026 0
M  V30 1621 H 147.95 3.8731 1.83546 0
M  V30 1622 H 152.134 4.75782 1.41229 0
M  V30 1623 H 147.39 6.05456 0.850451 0
M  V30 1624 H 151.564 6.95038 0.435324 0
M  V30 1625 H 149.191 7.60055 0.14862 0
M  V30 1626 N 150.766 -0.704594 1.40972 0
M  V30 1627 C 151.676 -1.84856 1.44448 0
M  V30 1628 C 152.692 -1.70726 0.335961 0
M  V30 1629 O 153.868 -1.92799 0.582276 0
M  V30 1630 C 150.933 -3.20758 1.31587 0
M  V30 1631 C 149.994 -3.47063 2.52677 0
M  V30 1632 C 149.227 -4.76481 2.4042 0
M  V30 1633 O 149.45 -5.52341 1.42391 0
M  V30 1634 O 148.384 -5.03367 3.30007 0
M  V30 1635 H 152.21 -1.8488 2.40942 0
M  V30 1636 H 149.795 -0.85647 1.22413 0
M  V30 1637 H 151.677 -4.01913 1.26665 0
M  V30 1638 H 150.352 -3.21438 0.382049 0
M  V30 1639 H 149.259 -2.65873 2.63177 0
M  V30 1640 H 150.592 -3.5119 3.44858 0
M  V30 1641 N 152.244 -1.26651 -0.937939 0
M  V30 1642 C 153.492 -1.12165 -1.68118 0
M  V30 1643 C 153.813 0.334983 -1.92101 0
M  V30 1644 O 153.083 1.23583 -1.52 0
M  V30 1645 H 151.663 -0.412093 -0.623048 0
M  V30 1646 H 154.325 -1.59027 -1.12678 0
M  V30 1647 H 153.421 -1.64289 -2.6536 0
M  V30 1648 N 153.722 1.14298 -1.08507 0
M  V30 1649 C 154.655 2.18447 -0.660004 0
M  V30 1650 C 155.633 1.59242 0.328749 0
M  V30 1651 O 156.817 1.87062 0.232367 0
M  V30 1652 C 153.944 3.38688 0.0290807 0
M  V30 1653 C 152.99 4.1646 -0.919982 0
M  V30 1654 S 153.823 4.77334 -2.42718 0
M  V30 1655 C 154.979 6.00931 -1.75024 0
M  V30 1656 H 155.212 2.54166 -1.54231 0
M  V30 1657 H 152.745 1.25446 -0.900149 0
M  V30 1658 H 154.703 4.08342 0.420378 0
M  V30 1659 H 153.364 3.01289 0.887895 0
M  V30 1660 H 152.557 5.02529 -0.384751 0
M  V30 1661 H 152.159 3.52414 -1.25223 0
M  V30 1662 H 154.451 6.69017 -1.06877 0
M  V30 1663 H 155.394 6.59044 -2.58971 0
M  V30 1664 H 155.802 5.51089 -1.22317 0
M  V30 1665 N 155.201 0.870884 1.31352 0
M  V30 1666 C 156.148 0.325425 2.28494 0
M  V30 1667 C 157.118 -0.576615 1.5577 0
M  V30 1668 O 158.303 -0.508059 1.83911 0
M  V30 1669 C 155.443 -0.466283 3.41935 0
M  V30 1670 C 154.556 0.463378 4.29508 0
M  V30 1671 C 153.691 -0.342544 5.30094 0
M  V30 1672 C 152.73 0.583486 6.09313 0
M  V30 1673 N 151.867 -0.186244 7.01853 0
M  V30 1674 H 156.707 1.15901 2.74538 0
M  V30 1675 H 154.244 0.58294 1.35056 0
M  V30 1676 H 156.202 -0.941085 4.06447 0
M  V30 1677 H 154.832 -1.26456 2.97 0
M  V30 1678 H 153.884 1.05663 3.65431 0
M  V30 1679 H 155.196 1.1734 4.84802 0
M  V30 1680 H 154.35 -0.879816 6.00287 0
M  V30 1681 H 153.089 -1.08585 4.75458 0
M  V30 1682 H 152.094 1.13251 5.3801 0
M  V30 1683 H 153.319 1.32566 6.66035 0
M  V30 1684 H 151.265 -0.912348 6.49625 0
M  V30 1685 H 151.182 0.464422 7.54572 0
M  V30 1686 H 152.45 -0.704716 7.76308 0
M  V30 1687 N 156.679 -1.44442 0.630414 0
M  V30 1688 C 157.642 -2.29107 -0.0652523 0
M  V30 1689 C 158.642 -1.41002 -0.772995 0
M  V30 1690 O 159.832 -1.62881 -0.617692 0
M  V30 1691 C 156.964 -3.22564 -1.10296 0
M  V30 1692 H 158.157 -2.92103 0.679401 0
M  V30 1693 H 155.71 -1.51343 0.390517 0
M  V30 1694 H 156.445 -2.64416 -1.87762 0
M  V30 1695 H 156.23 -3.87491 -0.59941 0
M  V30 1696 H 157.72 -3.86167 -1.5895 0
M  V30 1697 N 158.157 -0.370918 -1.53173 0
M  V30 1698 C 159.404 0.217102 -2.01333 0
M  V30 1699 C 159.732 1.48338 -1.25802 0
M  V30 1700 O 158.987 1.92698 -0.34146 0
M  V30 1701 C 159.286 0.549696 -3.53147 0
M  V30 1702 C 158.952 -0.622872 -4.46577 0
M  V30 1703 C 157.614 -0.944595 -4.71838 0
M  V30 1704 C 159.966 -1.40819 -5.01816 0
M  V30 1705 C 157.294 -2.05351 -5.49589 0
M  V30 1706 C 159.646 -2.50757 -5.80778 0
M  V30 1707 C 158.31 -2.83458 -6.04324 0
M  V30 1708 H 157.58 0.0794431 -0.736729 0
M  V30 1709 H 160.227 -0.504481 -1.84736 0
M  V30 1710 H 158.532 1.35237 -3.6772 0
M  V30 1711 H 160.229 1.017 -3.87889 0
M  V30 1712 H 156.819 -0.36209 -4.27068 0
M  V30 1713 H 161.003 -1.17289 -4.82242 0
M  V30 1714 H 156.259 -2.3108 -5.6605 0
M  V30 1715 H 160.433 -3.12022 -6.22588 0
M  V30 1716 H 158.06 -3.69508 -6.64355 0
M  V30 1717 N 159.635 1.57281 -0.100228 0
M  V30 1718 C 160.582 2.14305 0.856858 0
M  V30 1719 C 161.552 1.06296 1.27634 0
M  V30 1720 O 162.737 1.34109 1.35718 0
M  V30 1721 C 159.877 2.73184 2.10866 0
M  V30 1722 C 158.99 3.95442 1.73925 0
M  V30 1723 C 158.125 4.42468 2.93931 0
M  V30 1724 C 157.164 5.57303 2.5314 0
M  V30 1725 N 156.301 5.99158 3.65997 0
M  V30 1726 H 161.141 2.95772 0.363726 0
M  V30 1727 H 158.678 1.46139 0.167858 0
M  V30 1728 H 160.636 3.05442 2.84185 0
M  V30 1729 H 159.266 1.94437 2.57671 0
M  V30 1730 H 158.318 3.69464 0.905554 0
M  V30 1731 H 159.63 4.78769 1.39935 0
M  V30 1732 H 158.784 4.76537 3.75496 0
M  V30 1733 H 157.523 3.58052 3.31134 0
M  V30 1734 H 156.528 5.22857 1.70003 0
M  V30 1735 H 157.753 6.43471 2.17075 0
M  V30 1736 H 155.699 5.17687 4.02909 0
M  V30 1737 H 155.616 6.77295 3.35869 0
M  V30 1738 H 156.884 6.3786 4.48057 0
M  V30 1739 N 161.113 -0.173488 1.56642 0
M  V30 1740 C 162.361 -0.888706 1.81512 0
M  V30 1741 C 162.682 -1.82875 0.676872 0
M  V30 1742 O 161.952 -1.93536 -0.303414 0
M  V30 1743 H 160.532 -0.331164 0.669582 0
M  V30 1744 H 163.194 -0.173823 1.94123 0
M  V30 1745 H 162.29 -1.46691 2.75478 0
M  V30 1746 N 162.591 -1.51276 -0.441967 0
M  V30 1747 C 163.538 -1.72256 -1.53612 0
M  V30 1748 C 164.508 -0.564164 -1.56225 0
M  V30 1749 O 165.693 -0.798074 -1.73307 0
M  V30 1750 C 162.833 -1.84932 -2.91366 0
M  V30 1751 C 161.946 -3.12459 -2.98317 0
M  V30 1752 C 161.081 -3.15758 -4.27166 0
M  V30 1753 C 160.12 -4.37619 -4.27967 0
M  V30 1754 N 159.257 -4.38493 -5.48333 0
M  V30 1755 H 164.097 -2.65654 -1.35026 0
M  V30 1756 H 161.634 -1.31662 -0.656009 0
M  V30 1757 H 163.592 -1.90263 -3.7129 0
M  V30 1758 H 162.222 -0.949461 -3.08521 0
M  V30 1759 H 161.274 -3.1646 -2.11086 0
M  V30 1760 H 162.586 -4.02382 -2.94771 0
M  V30 1761 H 161.74 -3.19979 -5.15459 0
M  V30 1762 H 160.479 -2.23715 -4.33362 0
M  V30 1763 H 159.484 -4.33579 -3.38067 0
M  V30 1764 H 160.709 -5.30921 -4.23438 0
M  V30 1765 H 158.655 -3.49318 -5.55259 0
M  V30 1766 H 158.572 -5.22219 -5.46647 0
M  V30 1767 H 159.84 -4.469 -6.38671 0
M  V30 1768 N 164.069 0.697108 -1.41344 0
M  V30 1769 C 165.346 1.45154 -1.31109 0
M  V30 1770 C 165.726 2.11009 0.0620449 0
M  V30 1771 O 165.074 2.01571 1.07618 0
M  V30 1772 C 165.284 2.47223 -2.46337 0
M  V30 1773 C 166.632 3.1252 -2.87431 0
M  V30 1774 O 167.656 2.57547 -2.46065 0
M  V30 1775 O 166.515 4.12083 -3.58957 0
M  V30 1776 H 163.609 0.646365 -0.515889 0
M  V30 1777 H 166.155 0.727716 -1.53305 0
M  V30 1778 H 164.927 1.97204 -3.37974 0
M  V30 1779 H 164.55 3.27116 -2.2601 0
M  V30 1780 N 165.547 1.27147 0.931209 0
M  V30 1781 C 166.479 1.05364 2.03546 0
M  V30 1782 C 167.492 0.0108438 1.62796 0
M  V30 1783 O 168.681 0.25202 1.76712 0
M  V30 1784 C 165.781 0.575566 3.33977 0
M  V30 1785 C 164.954 1.68985 4.03439 0
M  V30 1786 C 164.013 1.20813 5.12143 0
M  V30 1787 O 163.039 1.90712 5.363 0
M  V30 1788 N 164.241 0.0618851 5.80467 0
M  V30 1789 H 167.006 2.00454 2.22796 0
M  V30 1790 H 164.567 1.18666 1.10136 0
M  V30 1791 H 166.559 0.237264 4.04004 0
M  V30 1792 H 165.129 -0.282016 3.11325 0
M  V30 1793 H 164.349 2.19861 3.27192 0
M  V30 1794 H 165.637 2.4378 4.46597 0
M  V30 1795 H 165.035 -0.521621 5.6329 0
M  V30 1796 H 163.592 -0.217264 6.51438 0
M  V30 1797 N 167.025 -1.13721 1.09112 0
M  V30 1798 C 167.957 -2.1871 0.685467 0
M  V30 1799 C 168.97 -1.60527 -0.271068 0
M  V30 1800 O 170.159 -1.78407 -0.0576148 0
M  V30 1801 C 167.259 -3.38898 -0.0111255 0
M  V30 1802 C 166.432 -4.26597 0.966131 0
M  V30 1803 C 165.491 -5.25324 0.303539 0
M  V30 1804 O 164.517 -5.61213 0.950177 0
M  V30 1805 N 165.719 -5.72779 -0.943651 0
M  V30 1806 H 168.484 -2.54126 1.58871 0
M  V30 1807 H 166.045 -1.29012 0.978143 0
M  V30 1808 H 168.037 -4.02014 -0.465517 0
M  V30 1809 H 166.607 -3.01747 -0.816565 0
M  V30 1810 H 165.827 -3.60306 1.59917 0
M  V30 1811 H 167.115 -4.82048 1.6281 0
M  V30 1812 H 166.513 -5.45762 -1.48862 0
M  V30 1813 H 165.07 -6.37847 -1.34142 0
M  V30 1814 N 168.503 -0.877838 -1.30888 0
M  V30 1815 C 169.749 -0.493426 -1.96706 0
M  V30 1816 C 170.082 0.953504 -1.6918 0
M  V30 1817 O 169.357 1.67266 -0.992594 0
M  V30 1818 C 169.64 -0.760429 -3.51979 0
M  V30 1819 C 169.493 -2.25747 -3.89048 0
M  V30 1820 C 170.812 -0.232148 -4.39487 0
M  V30 1821 H 167.931 -0.180746 -0.714493 0
M  V30 1822 H 170.573 -1.10052 -1.54882 0
M  V30 1823 H 168.723 -0.243715 -3.87735 0
M  V30 1824 H 170.395 -2.84204 -3.63354 0
M  V30 1825 H 168.638 -2.72694 -3.37373 0
M  V30 1826 H 169.309 -2.39491 -4.97341 0
M  V30 1827 H 171.785 -0.674314 -4.106 0
M  V30 1828 H 170.661 -0.448355 -5.47066 0
M  V30 1829 H 170.922 0.866297 -4.33529 0
M  V30 1830 N 169.982 1.44106 -0.638065 0
M  V30 1831 C 171.398 1.56672 -0.304286 0
M  V30 1832 C 171.598 1.6244 1.19228 0
M  V30 1833 O 170.654 1.57121 1.9766 0
M  V30 1834 C 171.967 2.83503 -1.00231 0
M  V30 1835 C 173.515 2.97226 -0.981116 0
M  V30 1836 C 173.99 4.26868 -1.65974 0
M  V30 1837 N 175.481 4.33698 -1.62666 0
M  V30 1838 C 176.216 5.32745 -2.12063 0
M  V30 1839 N 175.712 6.38157 -2.6968 0
M  V30 1840 N 177.505 5.24299 -2.02651 0
M  V30 1841 H 169.656 1.38605 -1.60942 0
M  V30 1842 H 171.919 0.664661 -0.675965 0
M  V30 1843 H 171.625 2.85251 -2.0573 0
M  V30 1844 H 171.499 3.73251 -0.54439 0
M  V30 1845 H 173.886 2.95027 0.0654188 0
M  V30 1846 H 173.967 2.08808 -1.47759 0
M  V30 1847 H 173.611 4.29826 -2.70576 0
M  V30 1848 H 173.541 5.14156 -1.13804 0
M  V30 1849 H 176.032 3.58138 -1.20606 0
M  V30 1850 H 176.345 7.10029 -3.05087 0
M  V30 1851 H 174.69 6.38823 -2.73734 0
M  V30 1852 H 177.881 4.4086 -1.57353 0
M  V30 1853 H 178.054 6.01334 -2.41457 0
M  V30 1854 N 171.46 0.379036 1.52974 0
M  V30 1855 C 172.39 -0.452706 2.29069 0
M  V30 1856 C 173.371 -1.07237 1.32039 0
M  V30 1857 O 174.556 -1.08708 1.60923 0
M  V30 1858 C 171.686 -1.5856 3.08992 0
M  V30 1859 C 170.64 -1.0925 4.13822 0
M  V30 1860 C 169.966 -2.31668 4.81907 0
M  V30 1861 C 171.266 -0.167702 5.22031 0
M  V30 1862 H 172.96 0.182181 2.98845 0
M  V30 1863 H 170.506 0.0890592 1.43724 0
M  V30 1864 H 172.459 -2.1742 3.6098 0
M  V30 1865 H 171.183 -2.24792 2.36931 0
M  V30 1866 H 169.842 -0.526494 3.628 0
M  V30 1867 H 169.49 -2.96386 4.06404 0
M  V30 1868 H 169.19 -1.9934 5.52754 0
M  V30 1869 H 170.714 -2.91189 5.36695 0
M  V30 1870 H 172.128 -0.664186 5.6944 0
M  V30 1871 H 170.525 0.0653265 6.00064 0
M  V30 1872 H 171.595 0.786347 4.78482 0
M  V30 1873 N 172.938 -1.57226 0.108567 0
M  V30 1874 C 174.185 -1.94833 -0.551943 0
M  V30 1875 C 174.513 -0.991204 -1.67348 0
M  V30 1876 O 173.768 -0.0131878 -1.95696 0
M  V30 1877 C 174.067 -3.38911 -1.13463 0
M  V30 1878 C 173.733 -4.50696 -0.135509 0
M  V30 1879 C 172.395 -4.80998 0.139252 0
M  V30 1880 C 174.747 -5.18333 0.545957 0
M  V30 1881 C 172.075 -5.76259 1.10194 0
M  V30 1882 C 174.427 -6.14627 1.49721 0
M  V30 1883 C 173.091 -6.43327 1.78006 0
M  V30 1884 H 172.361 -0.712944 -0.20197 0
M  V30 1885 H 175.008 -1.90582 0.18726 0
M  V30 1886 H 173.313 -3.39805 -1.95037 0
M  V30 1887 H 175.01 -3.65317 -1.65362 0
M  V30 1888 H 171.6 -4.27087 -0.359846 0
M  V30 1889 H 175.784 -4.95087 0.346842 0
M  V30 1890 H 171.04 -5.96804 1.32795 0
M  V30 1891 H 175.214 -6.66126 2.03099 0
M  V30 1892 H 172.841 -7.1695 2.52759 0
M  V30 1893 N 174.416 0.165178 -1.56732 0
M  V30 1894 C 175.832 0.517174 -1.50988 0
M  V30 1895 C 176.032 1.84331 -0.813894 0
M  V30 1896 O 175.088 2.49672 -0.37682 0
M  V30 1897 C 176.401 0.544261 -2.95733 0
M  V30 1898 C 177.949 0.631039 -3.06573 0
M  V30 1899 C 178.424 0.68896 -4.52788 0
M  V30 1900 N 179.915 0.751683 -4.5706 0
M  V30 1901 C 180.65 0.817177 -5.67547 0
M  V30 1902 N 180.146 0.843129 -6.8765 0
M  V30 1903 N 181.939 0.856668 -5.55534 0
M  V30 1904 H 174.09 -0.704318 -2.00382 0
M  V30 1905 H 176.353 -0.254687 -0.913148 0
M  V30 1906 H 176.059 -0.361607 -3.49836 0
M  V30 1907 H 175.933 1.3886 -3.5071 0
M  V30 1908 H 178.32 1.52733 -2.52501 0
M  V30 1909 H 178.401 -0.240095 -2.54671 0
M  V30 1910 H 178.045 -0.2031 -5.07494 0
M  V30 1911 H 177.975 1.57633 -5.02454 0
M  V30 1912 H 180.466 0.739661 -3.70591 0
M  V30 1913 H 180.779 0.894448 -7.67606 0
M  V30 1914 H 179.124 0.811304 -6.90248 0
M  V30 1915 H 182.315 0.833437 -4.60621 0
M  V30 1916 H 182.488 0.904247 -6.4166 0
M  V30 1917 N 175.894 1.51508 0.433938 0
M  V30 1918 C 177.305 1.56784 1.01369 0
M  V30 1919 C 177.656 0.393349 1.92217 0
M  V30 1920 O 176.781 -0.489441 2.10792 0
M  V30 1921 C 177.376 2.84144 1.8452 0
M  V30 1922 C 175.935 2.9198 2.37539 0
M  V30 1923 C 175.082 2.51482 1.16843 0
M  V30 1924 H 178.033 1.57236 0.215081 0
M  V30 1925 H 178.054 2.68098 2.70007 0
M  V30 1926 H 177.566 3.69607 1.18373 0
M  V30 1927 H 175.667 2.10955 3.0713 0
M  V30 1928 H 175.78 3.95704 2.70103 0
M  V30 1929 H 174.144 2.04758 1.51481 0
M  V30 1930 H 174.927 3.39293 0.523015 0
M  V30 1931 N 177.372 -0.689602 1.41712 0
M  V30 1932 C 178.618 -1.45041 1.42599 0
M  V30 1933 C 178.973 -1.92366 0.0363764 0
M  V30 1934 O 178.266 -1.67022 -0.938844 0
M  V30 1935 C 178.46 -2.67298 2.37247 0
M  V30 1936 C 178.289 -2.31935 3.85274 0
M  V30 1937 C 177.059 -2.2201 4.53916 0
M  V30 1938 C 179.257 -1.94526 4.76093 0
M  V30 1939 N 177.239 -1.79594 5.87043 0
M  V30 1940 C 178.61 -1.62915 5.98213 0
M  V30 1941 C 180.665 -1.81388 4.63684 0
M  V30 1942 C 179.368 -1.19486 7.09306 0
M  V30 1943 C 181.394 -1.39364 5.74745 0
M  V30 1944 C 180.756 -1.08668 6.95967 0
M  V30 1945 H 176.855 -0.527806 0.577014 0
M  V30 1946 H 179.439 -0.797266 1.77628 0
M  V30 1947 H 177.61 -3.30325 2.04304 0
M  V30 1948 H 179.342 -3.33806 2.28814 0
M  V30 1949 H 176.097 -2.406 4.07932 0
M  V30 1950 H 176.521 -1.60851 6.57614 0
M  V30 1951 H 181.163 -2.03772 3.70455 0
M  V30 1952 H 178.881 -0.958477 8.02396 0
M  V30 1953 H 182.467 -1.2974 5.6715 0
M  V30 1954 H 181.347 -0.766417 7.80446 0
M  V30 1955 N 178.85 -1.27639 -0.924453 0
M  V30 1956 C 179.78 -1.13166 -2.04244 0
M  V30 1957 C 180.761 -0.032256 -1.70069 0
M  V30 1958 O 181.946 -0.207328 -1.9309 0
M  V30 1959 C 179.076 -0.781496 -3.38393 0
M  V30 1960 C 178.03 -1.83449 -3.86692 0
M  V30 1961 C 177.356 -1.33822 -5.17683 0
M  V30 1962 C 178.656 -3.23917 -4.09726 0
M  V30 1963 H 180.35 -2.06689 -2.1661 0
M  V30 1964 H 177.896 -0.995136 -1.04082 0
M  V30 1965 H 179.849 -0.667057 -4.16087 0
M  V30 1966 H 178.573 0.189439 -3.2605 0
M  V30 1967 H 177.232 -1.93789 -3.11193 0
M  V30 1968 H 176.88 -0.35665 -5.01734 0
M  V30 1969 H 176.58 -2.04224 -5.50968 0
M  V30 1970 H 178.104 -1.23679 -5.97943 0
M  V30 1971 H 179.518 -3.16559 -4.77978 0
M  V30 1972 H 177.915 -3.92059 -4.54324 0
M  V30 1973 H 178.985 -3.68729 -3.14908 0
M  V30 1974 N 180.328 1.1314 -1.09713 0
M  V30 1975 C 181.276 2.20717 -0.733934 0
M  V30 1976 C 182.27 1.6729 0.266506 0
M  V30 1977 O 183.476 1.79547 0.127656 0
M  V30 1978 H 179.851 0.719292 -0.21937 0
M  V30 1979 H 181.822 2.48611 -1.6503 0
M  V30 1980 C 180.571 3.47265 -0.173849 0
M  V30 1981 H 179.894 3.88716 -0.934873 0
M  V30 1982 H 181.334 4.23979 0.0423126 0
M  V30 1983 C 179.793 3.18724 1.09164 0
M  V30 1984 O 180.323 3.37762 2.17439 0
M  V30 1985 N 178.529 2.72583 1.00732 0
M  V30 1986 H 178.076 2.57291 0.126121 0
M  V30 1987 H 178.034 2.53862 1.85476 0
M  V30 1988 N 181.806 0.884767 1.30421 0
M  V30 1989 C 182.739 0.295999 2.26272 0
M  V30 1990 C 183.717 -0.58332 1.51777 0
M  V30 1991 O 184.901 -0.53346 1.80794 0
M  V30 1992 C 182.028 -0.57944 3.33707 0
M  V30 1993 C 181.074 0.230525 4.25877 0
M  V30 1994 S 181.907 1.61867 5.1045 0
M  V30 1995 C 183.063 0.749756 6.21393 0
M  V30 1996 H 183.296 1.10848 2.75862 0
M  V30 1997 H 180.829 0.684178 1.38414 0
M  V30 1998 H 182.787 -1.07879 3.96071 0
M  V30 1999 H 181.448 -1.36601 2.82841 0
M  V30 2000 H 180.641 -0.437542 5.02097 0
M  V30 2001 H 180.243 0.662493 3.68086 0
M  V30 2002 H 182.535 -0.0333547 6.77492 0
M  V30 2003 H 183.478 1.48356 6.92384 0
M  V30 2004 H 183.886 0.310751 5.63644 0
M  V30 2005 N 183.284 -1.43765 0.645699 0
M  V30 2006 C 184.561 -1.9541 0.0862963 0
M  V30 2007 C 184.941 -1.58725 -1.39175 0
M  V30 2008 O 184.289 -0.868581 -2.11348 0
M  V30 2009 C 184.499 -3.47488 0.324565 0
M  V30 2010 C 185.847 -4.24001 0.225497 0
M  V30 2011 O 186.871 -3.55274 0.256715 0
M  V30 2012 O 185.73 -5.46313 0.142801 0
M  V30 2013 H 182.824 -0.826882 -0.0139483 0
M  V30 2014 H 185.37 -1.53743 0.718415 0
M  V30 2015 H 184.142 -3.67289 1.3496 0
M  V30 2016 H 183.765 -3.96135 -0.340987 0
M  V30 2017 N 184.763 -0.387143 -1.52771 0
M  V30 2018 C 186.179 -0.037007 -1.59557 0
M  V30 2019 C 186.379 1.44801 -1.40124 0
M  V30 2020 O 185.435 2.21227 -1.21716 0
M  V30 2021 C 186.748 -0.512256 -2.96305 0
M  V30 2022 C 188.296 -0.468328 -3.09476 0
M  V30 2023 C 188.771 -0.919731 -4.4867 0
M  V30 2024 N 190.262 -0.875656 -4.54848 0
M  V30 2025 C 190.997 -1.19637 -5.6078 0
M  V30 2026 N 190.493 -1.58745 -6.74368 0
M  V30 2027 N 192.286 -1.11776 -5.50874 0
M  V30 2028 H 184.437 -1.35395 -1.63652 0
M  V30 2029 H 186.7 -0.554818 -0.768688 0
M  V30 2030 H 186.406 -1.54935 -3.15734 0
M  V30 2031 H 186.28 0.089805 -3.77093 0
M  V30 2032 H 188.667 0.559671 -2.89744 0
M  V30 2033 H 188.748 -1.10616 -2.30646 0
M  V30 2034 H 188.392 -1.94595 -4.69143 0
M  V30 2035 H 188.322 -0.258927 -5.25963 0
M  V30 2036 H 190.813 -0.587843 -3.733 0
M  V30 2037 H 191.126 -1.81586 -7.51163 0
M  V30 2038 H 189.471 -1.6263 -6.75705 0
M  V30 2039 H 192.662 -0.811264 -4.61016 0
M  V30 2040 H 192.835 -1.37103 -6.3333 0
M  V30 2041 N 186.241 1.57166 -0.116904 0
M  V30 2042 C 187.174 2.10912 0.871291 0
M  V30 2043 C 188.152 1.025 1.26224 0
M  V30 2044 O 189.336 1.3014 1.36366 0
M  V30 2045 C 186.463 2.6041 2.16574 0
M  V30 2046 C 185.509 3.80687 1.92302 0
M  V30 2047 S 186.342 5.23199 1.14119 0
M  V30 2048 C 187.498 5.76064 2.44748 0
M  V30 2049 H 187.731 2.94401 0.414138 0
M  V30 2050 H 185.264 1.54096 0.096829 0
M  V30 2051 H 187.222 2.89583 2.9095 0
M  V30 2052 H 185.883 1.77106 2.59408 0
M  V30 2053 H 185.076 4.13462 2.8821 0
M  V30 2054 H 184.678 3.5212 1.26047 0
M  V30 2055 H 186.97 5.8566 3.406 0
M  V30 2056 H 187.913 6.74184 2.16521 0
M  V30 2057 H 188.321 5.04117 2.54019 0
M  V30 2058 N 187.719 -0.156864 1.56817 0
M  V30 2059 C 188.649 -1.19589 2.00551 0
M  V30 2060 C 189.63 -1.4536 0.883426 0
M  V30 2061 O 190.815 -1.56449 1.15054 0
M  V30 2062 C 187.945 -2.53143 2.37773 0
M  V30 2063 C 186.899 -2.41913 3.53075 0
M  V30 2064 C 186.225 -3.80088 3.76081 0
M  V30 2065 C 187.525 -1.91157 4.86062 0
M  V30 2066 H 189.219 -0.832293 2.87599 0
M  V30 2067 H 186.765 -0.398918 1.38364 0
M  V30 2068 H 188.718 -3.26047 2.66967 0
M  V30 2069 H 187.442 -2.91319 1.4765 0
M  V30 2070 H 186.101 -1.71462 3.24031 0
M  V30 2071 H 185.749 -4.15683 2.83225 0
M  V30 2072 H 185.449 -3.73439 4.53671 0
M  V30 2073 H 186.973 -4.54556 4.0769 0
M  V30 2074 H 188.387 -2.53846 5.14038 0
M  V30 2075 H 186.784 -1.95422 5.67389 0
M  V30 2076 H 187.854 -0.866673 4.77092 0
M  V30 2077 N 189.197 -1.51736 -0.425897 0
M  V30 2078 C 190.613 -1.40166 -0.76326 0
M  V30 2079 C 190.813 -0.492962 -1.95377 0
M  V30 2080 O 189.869 0.0475815 -2.52455 0
M  V30 2081 C 191.182 -2.82403 -1.03291 0
M  V30 2082 C 192.73 -2.91632 -1.13665 0
M  V30 2083 C 193.205 -4.34801 -1.43916 0
M  V30 2084 N 194.696 -4.3796 -1.50816 0
M  V30 2085 C 195.431 -5.4578 -1.75817 0
M  V30 2086 N 194.927 -6.63744 -1.98534 0
M  V30 2087 N 196.72 -5.33274 -1.77694 0
M  V30 2088 H 188.871 -2.09361 0.358 0
M  V30 2089 H 191.134 -0.942941 0.0978094 0
M  V30 2090 H 190.84 -3.50943 -0.230696 0
M  V30 2091 H 190.714 -3.22428 -1.95754 0
M  V30 2092 H 193.101 -2.23284 -1.92947 0
M  V30 2093 H 193.182 -2.55088 -0.190756 0
M  V30 2094 H 192.826 -5.03703 -0.65157 0
M  V30 2095 H 192.756 -4.68868 -2.39729 0
M  V30 2096 H 195.247 -3.52919 -1.35118 0
M  V30 2097 H 195.56 -7.41704 -2.17013 0
M  V30 2098 H 193.905 -6.66839 -1.95832 0
M  V30 2099 H 197.096 -4.40098 -1.59473 0
M  V30 2100 H 197.269 -6.1738 -1.9684 0
M  V30 2101 N 190.675 0.682077 -1.42076 0
M  V30 2102 C 191.9 1.47558 -1.45744 0
M  V30 2103 C 192.325 1.87977 -0.0680981 0
M  V30 2104 O 191.683 1.55522 0.9318 0
M  V30 2105 C 191.731 2.70575 -2.38373 0
M  V30 2106 O 190.835 3.68573 -1.85007 0
M  V30 2107 H 190.176 0.443585 -0.494093 0
M  V30 2108 H 192.706 0.837238 -1.86686 0
M  V30 2109 H 192.716 3.18729 -2.54707 0
M  V30 2110 H 191.391 2.40495 -3.39315 0
M  V30 2111 H 189.968 3.2757 -1.78192 0
M  V30 2112 N 192.153 1.28127 0.917671 0
M  V30 2113 C 193.116 1.11744 2.00115 0
M  V30 2114 C 194.116 0.0583052 1.60694 0
M  V30 2115 O 195.306 0.303755 1.71531 0
M  V30 2116 C 192.438 0.704862 3.33533 0
M  V30 2117 H 193.631 2.07966 2.16079 0
M  V30 2118 H 191.184 1.11058 1.09981 0
M  V30 2119 H 191.919 -0.258299 3.2327 0
M  V30 2120 H 191.704 1.4699 3.63505 0
M  V30 2121 H 193.194 0.612768 4.1308 0
M  V30 2122 N 193.631 -1.12557 1.10312 0
M  V30 2123 C 194.564 -2.1737 0.694674 0
M  V30 2124 C 195.542 -1.59745 -0.303373 0
M  V30 2125 O 196.726 -1.87408 -0.202578 0
M  V30 2126 C 193.853 -3.38691 0.0248052 0
M  V30 2127 C 192.899 -4.14943 0.986121 0
M  V30 2128 S 193.732 -4.73413 2.50281 0
M  V30 2129 C 194.888 -5.9807 1.84562 0
M  V30 2130 H 195.121 -2.5168 1.58255 0
M  V30 2131 H 192.654 -1.23998 0.919992 0
M  V30 2132 H 194.612 -4.08959 -0.355361 0
M  V30 2133 H 193.273 -3.02664 -0.839851 0
M  V30 2134 H 192.466 -5.01854 0.464651 0
M  V30 2135 H 192.068 -3.50377 1.30813 0
M  V30 2136 H 194.36 -6.67232 1.17507 0
M  V30 2137 H 195.303 -6.54841 2.69423 0
M  V30 2138 H 195.711 -5.49073 1.31069 0
M  V30 2139 N 195.109 -0.891671 -1.2995 0
M  V30 2140 C 196.525 -0.58662 -1.48428 0
M  V30 2141 C 196.725 0.873951 -1.81561 0
M  V30 2142 O 195.781 1.65471 -1.90724 0
M  V30 2143 C 197.094 -1.50553 -2.60296 0
M  V30 2144 C 198.642 -1.50988 -2.74175 0
M  V30 2145 C 199.117 -2.41488 -3.89163 0
M  V30 2146 N 200.608 -2.39489 -3.96483 0
M  V30 2147 C 201.343 -3.06223 -4.84784 0
M  V30 2148 N 200.839 -3.82206 -5.77833 0
M  V30 2149 N 202.632 -2.95421 -4.78208 0
M  V30 2150 H 194.783 -1.83644 -1.06718 0
M  V30 2151 H 197.046 -0.786455 -0.529332 0
M  V30 2152 H 196.752 -2.54581 -2.42654 0
M  V30 2153 H 196.626 -1.22008 -3.56923 0
M  V30 2154 H 199.013 -0.47708 -2.91218 0
M  V30 2155 H 199.094 -1.83567 -1.78148 0
M  V30 2156 H 198.738 -3.44857 -3.72876 0
M  V30 2157 H 198.668 -2.06222 -4.84541 0
M  V30 2158 H 201.159 -1.84278 -3.29924 0
M  V30 2159 H 201.472 -4.302 -6.41988 0
M  V30 2160 H 199.817 -3.86313 -5.77743 0
M  V30 2161 H 203.008 -2.35581 -4.04499 0
M  V30 2162 H 203.181 -3.47704 -5.46814 0
M  V30 2163 N 196.587 1.43421 -0.653314 0
M  V30 2164 C 197.517 2.33487 0.0246656 0
M  V30 2165 C 198.498 1.49475 0.811863 0
M  V30 2166 O 199.683 1.78139 0.773322 0
M  V30 2167 C 196.813 3.32841 0.99166 0
M  V30 2168 C 195.767 4.26842 0.314568 0
M  V30 2169 C 195.093 5.16236 1.39302 0
M  V30 2170 C 196.393 5.16243 -0.793095 0
M  V30 2171 H 198.087 2.90427 -0.727481 0
M  V30 2172 H 195.633 1.39649 -0.351287 0
M  V30 2173 H 197.586 3.94747 1.47487 0
M  V30 2174 H 196.31 2.74158 1.77497 0
M  V30 2175 H 194.969 3.663 -0.148199 0
M  V30 2176 H 194.617 4.53891 2.16776 0
M  V30 2177 H 194.317 5.79948 0.945223 0
M  V30 2178 H 195.841 5.81015 1.87759 0
M  V30 2179 H 197.255 5.71958 -0.392039 0
M  V30 2180 H 195.652 5.88676 -1.16536 0
M  V30 2181 H 196.722 4.55927 -1.65103 0
M  V30 2182 N 198.065 0.39524 1.52563 0
M  V30 2183 C 199.305 -0.184744 2.03563 0
M  V30 2184 C 199.669 -1.43548 1.27507 0
M  V30 2185 O 200.87 -2.093 1.68662 0
M  V30 2186 C 199.141 -0.440294 3.54678 0
M  V30 2187 S 200.7 -0.989712 4.27493 0
M  V30 2188 H 197.518 -0.0515075 0.709132 0
M  V30 2189 H 200.12 0.544957 1.87751 0
M  V30 2190 H 198.824 0.477005 4.07618 0
M  V30 2191 H 198.355 -1.19825 3.74707 0
M  V30 2192 H 200.37 -2.27155 4.41152 0
M  V30 2193 N 199.544 -1.57102 0.125237 0
M  V30 2194 C 200.474 -2.18659 -0.819174 0
M  V30 2195 C 201.455 -1.12843 -1.27281 0
M  V30 2196 O 202.64 -1.41104 -1.33429 0
M  V30 2197 C 199.77 -2.79096 -2.06695 0
M  V30 2198 C 198.724 -3.90548 -1.75088 0
M  V30 2199 C 198.05 -4.37821 -3.06948 0
M  V30 2200 C 199.35 -5.12356 -1.01435 0
M  V30 2201 H 201.044 -2.9783 -0.306202 0
M  V30 2202 H 198.59 -1.4326 -0.145839 0
M  V30 2203 H 200.543 -3.2082 -2.73226 0
M  V30 2204 H 199.267 -1.97223 -2.60328 0
M  V30 2205 H 197.926 -3.49409 -1.10944 0
M  V30 2206 H 197.574 -3.52799 -3.58527 0
M  V30 2207 H 197.274 -5.12982 -2.86571 0
M  V30 2208 H 198.798 -4.822 -3.74587 0
M  V30 2209 H 200.212 -5.5106 -1.58132 0
M  V30 2210 H 198.609 -5.9314 -0.911319 0
M  V30 2211 H 199.679 -4.849 -0.00218681 0
M  V30 2212 N 201.022 0.148545 -1.56898 0
M  V30 2213 C 202.433 0.708766 -1.72723 0
M  V30 2214 C 202.784 1.81734 -0.739395 0
M  V30 2215 O 201.909 2.16194 0.0943169 0
M  V30 2216 C 202.504 1.29245 -3.13179 0
M  V30 2217 C 201.063 1.79925 -3.30611 0
M  V30 2218 C 200.21 0.687111 -2.68652 0
M  V30 2219 H 203.161 -0.0771063 -1.58513 0
M  V30 2220 H 203.182 2.16224 -3.13093 0
M  V30 2221 H 202.694 0.485382 -3.85053 0
M  V30 2222 H 200.795 2.63203 -2.63732 0
M  V30 2223 H 200.908 1.92903 -4.38549 0
M  V30 2224 H 199.272 1.11335 -2.29078 0
M  V30 2225 H 200.055 -0.108483 -3.43129 0
M  V30 2226 N 202.5 1.5196 0.417844 0
M  V30 2227 C 203.725 1.69717 1.1921 0
M  V30 2228 C 204.15 0.402148 1.83751 0
M  V30 2229 O 203.508 -0.639593 1.69643 0
M  V30 2230 C 203.556 2.82794 2.2374 0
M  V30 2231 O 202.66 2.47756 3.29683 0
M  V30 2232 H 202.001 0.565263 0.348387 0
M  V30 2233 H 204.531 1.98621 0.490985 0
M  V30 2234 H 204.541 3.07452 2.68212 0
M  V30 2235 H 203.216 3.76756 1.76146 0
M  V30 2236 H 201.793 2.33739 2.90552 0
M  V30 2237 N 203.978 -0.674533 1.42435 0
M  V30 2238 C 205.225 -1.43459 1.42919 0
M  V30 2239 C 205.553 -1.94446 0.0457312 0
M  V30 2240 O 204.808 -1.7132 -0.94593 0
M  V30 2241 C 205.107 -2.64767 2.40069 0
M  V30 2242 C 204.773 -2.3232 3.86443 0
M  V30 2243 C 203.435 -2.23182 4.26314 0
M  V30 2244 C 205.787 -2.05977 4.78773 0
M  V30 2245 C 203.115 -1.85827 5.56494 0
M  V30 2246 C 205.467 -1.70125 6.09295 0
M  V30 2247 C 204.131 -1.59498 6.48164 0
M  V30 2248 H 203.401 -0.524952 0.522978 0
M  V30 2249 H 206.048 -0.769097 1.75377 0
M  V30 2250 H 204.353 -3.36349 2.00939 0
M  V30 2251 H 206.05 -3.22949 2.37707 0
M  V30 2252 H 202.64 -2.40334 3.54877 0
M  V30 2253 H 206.824 -2.11969 4.48757 0
M  V30 2254 H 202.08 -1.76168 5.8547 0
M  V30 2255 H 206.254 -1.48767 6.80324 0
M  V30 2256 H 203.881 -1.30322 7.48946 0
M  V30 2257 N 205.456 -1.28612 -0.910864 0
M  V30 2258 C 206.733 -1.06632 -1.63979 0
M  V30 2259 C 207.113 0.393351 -2.07403 0
M  V30 2260 O 206.461 1.37999 -1.82122 0
M  V30 2261 C 206.671 -2.0436 -2.8291 0
M  V30 2262 C 208.019 -2.34666 -3.5386 0
M  V30 2263 O 209.043 -2.02467 -2.93062 0
M  V30 2264 O 207.902 -2.89631 -4.63439 0
M  V30 2265 H 204.996 -0.407737 -0.7195 0
M  V30 2266 H 207.542 -1.39942 -0.959914 0
M  V30 2267 H 206.314 -3.02727 -2.47936 0
M  V30 2268 H 205.937 -1.71714 -3.58609 0
M  V30 2269 N 206.934 1.1197 -1.10907 0
M  V30 2270 C 207.881 2.17846 -0.762345 0
M  V30 2271 C 208.851 1.63995 0.263599 0
M  V30 2272 O 210.036 1.90273 0.141773 0
M  V30 2273 C 207.176 3.44487 -0.205651 0
M  V30 2274 C 206.289 4.12369 -1.28748 0
M  V30 2275 C 205.424 5.26674 -0.691919 0
M  V30 2276 C 204.463 5.86431 -1.75399 0
M  V30 2277 N 203.6 6.92142 -1.17833 0
M  V30 2278 H 208.44 2.46851 -1.6694 0
M  V30 2279 H 205.977 1.21188 -0.833776 0
M  V30 2280 H 207.935 4.16981 0.135037 0
M  V30 2281 H 206.565 3.15884 0.664613 0
M  V30 2282 H 205.617 3.38003 -1.74522 0
M  V30 2283 H 206.929 4.52844 -2.09125 0
M  V30 2284 H 206.083 6.05953 -0.300963 0
M  V30 2285 H 204.822 4.8749 0.143232 0
M  V30 2286 H 203.827 5.05835 -2.15432 0
M  V30 2287 H 205.052 6.27685 -2.59208 0
M  V30 2288 H 202.998 6.54985 -0.364725 0
M  V30 2289 H 202.915 7.31242 -1.91887 0
M  V30 2290 H 204.183 7.75237 -0.81408 0
M  V30 2291 N 208.412 0.89855 1.29475 0
M  V30 2292 C 209.342 0.39201 2.30186 0
M  V30 2293 C 210.323 -0.532359 1.61555 0
M  V30 2294 O 211.508 -0.443331 1.89072 0
M  V30 2295 C 208.638 -0.382353 3.45189 0
M  V30 2296 C 207.592 0.451483 4.25612 0
M  V30 2297 C 206.918 -0.450307 5.328 0
M  V30 2298 C 208.218 1.70079 4.93832 0
M  V30 2299 H 209.912 1.23362 2.72804 0
M  V30 2300 H 207.458 0.594638 1.31149 0
M  V30 2301 H 209.411 -0.747451 4.14718 0
M  V30 2302 H 208.135 -1.25774 3.01411 0
M  V30 2303 H 206.794 0.798897 3.57789 0
M  V30 2304 H 206.442 -1.32379 4.85268 0
M  V30 2305 H 206.142 0.103902 5.87508 0
M  V30 2306 H 207.666 -0.811623 6.05182 0
M  V30 2307 H 209.08 1.40549 5.55805 0
M  V30 2308 H 207.477 2.19623 5.58467 0
M  V30 2309 H 208.547 2.43744 4.19186 0
M  V30 2310 N 209.89 -1.43072 0.660911 0
M  V30 2311 C 210.8 -2.34585 -0.0264163 0
M  V30 2312 C 211.816 -1.54316 -0.803898 0
M  V30 2313 O 212.992 -1.86939 -0.749391 0
M  V30 2314 C 210.057 -3.32689 -0.975639 0
M  V30 2315 C 209.118 -4.2886 -0.194236 0
M  V30 2316 C 208.351 -5.22278 -1.09825 0
M  V30 2317 O 208.574 -5.20299 -2.33763 0
M  V30 2318 O 207.508 -5.99228 -0.566513 0
M  V30 2319 H 211.334 -2.94869 0.727034 0
M  V30 2320 H 208.919 -1.43342 0.42111 0
M  V30 2321 H 210.801 -3.92995 -1.52094 0
M  V30 2322 H 209.476 -2.74898 -1.70918 0
M  V30 2323 H 208.383 -3.72011 0.394835 0
M  V30 2324 H 209.716 -4.89655 0.499899 0
M  V30 2325 N 211.368 -0.403325 -1.52352 0
M  V30 2326 C 212.298 0.416205 -2.29761 0
M  V30 2327 C 213.279 1.05123 -1.33728 0
M  V30 2328 O 214.464 1.06134 -1.62632 0
M  V30 2329 C 211.594 1.53624 -3.11475 0
M  V30 2330 C 210.548 1.02653 -4.15507 0
M  V30 2331 C 209.874 2.23971 -4.85532 0
M  V30 2332 C 211.174 0.08463 -5.22231 0
M  V30 2333 H 212.868 -0.229701 -2.98518 0
M  V30 2334 H 210.414 -0.111913 -1.43564 0
M  V30 2335 H 212.367 2.1165 -3.64393 0
M  V30 2336 H 211.091 2.20994 -2.40477 0
M  V30 2337 H 209.75 0.46871 -3.63591 0
M  V30 2338 H 209.398 2.89883 -4.11068 0
M  V30 2339 H 209.098 1.90521 -5.55856 0
M  V30 2340 H 210.622 2.82614 -5.41259 0
M  V30 2341 H 212.036 0.573509 -5.70424 0
M  V30 2342 H 210.433 -0.160783 -5.99885 0
M  V30 2343 H 211.503 -0.86237 -4.7717 0
M  V30 2344 N 212.846 1.57033 -0.133567 0
M  V30 2345 C 213.776 2.1909 0.807567 0
M  V30 2346 C 214.757 1.13517 1.26681 0
M  V30 2347 O 215.942 1.41809 1.32679 0
M  V30 2348 C 213.072 2.80188 2.05212 0
M  V30 2349 C 212.026 3.91471 1.73015 0
M  V30 2350 C 211.352 4.39443 3.04622 0
M  V30 2351 C 212.652 5.12886 0.987168 0
M  V30 2352 H 214.346 2.97988 0.290403 0
M  V30 2353 H 211.892 1.43335 0.138239 0
M  V30 2354 H 213.845 3.22264 2.71521 0
M  V30 2355 H 212.569 1.98601 2.59278 0
M  V30 2356 H 211.228 3.49993 1.0909 0
M  V30 2357 H 210.876 3.54695 3.56651 0
M  V30 2358 H 210.576 5.14495 2.83847 0
M  V30 2359 H 212.1 4.8418 3.72024 0
M  V30 2360 H 213.514 5.51891 1.55208 0
M  V30 2361 H 211.911 5.93615 0.87985 0
M  V30 2362 H 212.981 4.84894 -0.0235286 0
M  V30 2363 N 214.325 -0.140222 1.56975 0
M  V30 2364 C 215.235 -1.19223 2.02047 0
M  V30 2365 C 216.251 -1.46612 0.937062 0
M  V30 2366 O 217.427 -1.58148 1.24704 0
M  V30 2367 C 214.492 -2.50414 2.39778 0
M  V30 2368 C 213.553 -2.30612 3.621 0
M  V30 2369 C 212.786 -3.55547 3.98023 0
M  V30 2370 O 213.009 -4.62004 3.34528 0
M  V30 2371 O 211.943 -3.47808 4.91237 0
M  V30 2372 H 215.769 -0.839559 2.91865 0
M  V30 2373 H 213.354 -0.349453 1.45256 0
M  V30 2374 H 215.236 -3.27747 2.64877 0
M  V30 2375 H 213.911 -2.85198 1.53114 0
M  V30 2376 H 212.818 -1.51207 3.4218 0
M  V30 2377 H 214.151 -2.00741 4.49404 0
M  V30 2378 N 215.803 -1.52179 -0.40978 0
M  V30 2379 C 217.043 -1.67882 -1.16597 0
M  V30 2380 C 217.407 -0.399795 -1.87791 0
M  V30 2381 O 218.608 -0.43292 -2.65291 0
M  V30 2382 C 216.879 -2.86662 -2.13448 0
M  V30 2383 S 218.438 -3.22843 -2.97183 0
M  V30 2384 H 215.256 -0.59118 -0.395002 0
M  V30 2385 H 217.858 -1.9017 -0.453373 0
M  V30 2386 H 216.562 -3.77998 -1.59831 0
M  V30 2387 H 216.093 -2.66645 -2.89247 0
M  V30 2388 H 218.108 -2.71415 -4.15389 0
M  V30 2389 N 217.281 0.66697 -1.42791 0
M  V30 2390 C 218.53 1.42278 -1.42968 0
M  V30 2391 C 218.843 1.9553 -0.0524489 0
M  V30 2392 O 220.049 2.71414 0.068363 0
M  V30 2393 C 218.505 2.57418 -2.51524 0
M  V30 2394 C 218.113 2.10832 -3.9529 0
M  V30 2395 C 219.857 3.34878 -2.60877 0
M  V30 2396 C 217.764 3.23101 -4.95338 0
M  V30 2397 H 216.694 0.534533 -0.531781 0
M  V30 2398 H 219.345 0.721302 -1.68729 0
M  V30 2399 H 217.727 3.29971 -2.18941 0
M  V30 2400 H 218.901 1.4538 -4.37266 0
M  V30 2401 H 217.216 1.46289 -3.89857 0
M  V30 2402 H 219.813 4.18505 -3.32802 0
M  V30 2403 H 220.156 3.81993 -1.6549 0
M  V30 2404 H 220.689 2.69398 -2.92693 0
M  V30 2405 H 217.428 2.80969 -5.9223 0
M  V30 2406 H 216.948 3.87309 -4.57987 0
M  V30 2407 H 218.627 3.88447 -5.17415 0
M  V30 2408 N 218.759 1.29093 0.90403 0
M  V30 2409 C 220.175 1.07011 1.1841 0
M  V30 2410 C 220.375 -0.181358 2.00682 0
M  V30 2411 O 219.431 -0.880331 2.36657 0
M  V30 2412 C 220.744 2.32311 1.90924 0
M  V30 2413 C 222.292 2.37587 2.03768 0
M  V30 2414 C 222.767 3.62679 2.79693 0
M  V30 2415 N 224.258 3.63376 2.87249 0
M  V30 2416 C 224.993 4.56848 3.46522 0
M  V30 2417 N 224.489 5.60648 4.06996 0
M  V30 2418 N 226.282 4.44426 3.44154 0
M  V30 2419 H 218.433 2.09412 0.354993 0
M  V30 2420 H 220.696 0.922181 0.219742 0
M  V30 2421 H 220.402 3.23536 1.37905 0
M  V30 2422 H 220.276 2.39483 2.91424 0
M  V30 2423 H 222.663 1.46853 2.55965 0
M  V30 2424 H 222.744 2.34403 1.02415 0
M  V30 2425 H 222.388 4.53762 2.28173 0
M  V30 2426 H 222.318 3.63119 3.81381 0
M  V30 2427 H 224.809 2.88321 2.44293 0
M  V30 2428 H 225.122 6.28101 4.50232 0
M  V30 2429 H 223.467 5.64463 4.05471 0
M  V30 2430 H 226.658 3.62529 2.96126 0
M  V30 2431 H 226.831 5.17457 3.90054 0
M  V30 2432 N 220.237 -1.11381 1.11499 0
M  V30 2433 C 221.653 -1.35143 0.849031 0
M  V30 2434 C 221.853 -1.94515 -0.525938 0
M  V30 2435 O 220.909 -2.1785 -1.27662 0
M  V30 2436 C 222.222 -2.28249 1.95762 0
M  V30 2437 C 223.77 -2.41812 1.98736 0
M  V30 2438 C 224.245 -3.3824 3.088 0
M  V30 2439 N 225.736 -3.45803 3.08179 0
M  V30 2440 C 226.471 -4.20358 3.89982 0
M  V30 2441 N 225.967 -4.97884 4.8175 0
M  V30 2442 N 227.76 -4.15877 3.78157 0
M  V30 2443 H 219.911 -0.712062 2.00109 0
M  V30 2444 H 222.174 -0.376025 0.870235 0
M  V30 2445 H 221.88 -1.91817 2.94787 0
M  V30 2446 H 221.754 -3.28473 1.85433 0
M  V30 2447 H 224.141 -2.77518 1.00338 0
M  V30 2448 H 224.222 -1.41437 2.13141 0
M  V30 2449 H 223.866 -3.03261 4.07425 0
M  V30 2450 H 223.796 -4.38471 2.91635 0
M  V30 2451 H 226.287 -2.90506 2.41691 0
M  V30 2452 H 226.6 -5.52142 5.40702 0
M  V30 2453 H 224.945 -4.97043 4.85771 0
M  V30 2454 H 228.136 -3.544 3.05808 0
M  V30 2455 H 228.309 -4.73723 4.42143 0
M  V30 2456 N 221.715 -0.905404 -1.28997 0
M  V30 2457 C 222.645 -0.404212 -2.29975 0
M  V30 2458 C 223.626 0.523784 -1.61835 0
M  V30 2459 O 224.811 0.433298 -1.89304 0
M  V30 2460 C 221.941 0.364042 -3.45387 0
M  V30 2461 C 220.895 -0.474048 -4.25367 0
M  V30 2462 C 220.221 0.422045 -5.33032 0
M  V30 2463 C 221.521 -1.72696 -4.92923 0
M  V30 2464 H 223.215 -1.24807 -2.72146 0
M  V30 2465 H 220.761 -0.601585 -1.30832 0
M  V30 2466 H 222.714 0.725447 -4.15109 0
M  V30 2467 H 221.438 1.24174 -3.02074 0
M  V30 2468 H 220.097 -0.81786 -3.57361 0
M  V30 2469 H 219.745 1.29804 -4.85963 0
M  V30 2470 H 219.445 -0.135057 -5.87445 0
M  V30 2471 H 220.969 0.779517 -6.05604 0
M  V30 2472 H 222.383 -1.43495 -5.55051 0
M  V30 2473 H 220.78 -2.22582 -5.57295 0
M  V30 2474 H 221.85 -2.45964 -4.17887 0
M  V30 2475 N 223.193 1.4272 -0.668489 0
M  V30 2476 C 224.442 2.00846 -0.185389 0
M  V30 2477 C 224.755 1.53442 1.21305 0
M  V30 2478 O 225.961 2.03944 1.79218 0
M  V30 2479 C 224.417 3.58805 -0.280591 0
M  V30 2480 C 224.025 4.15198 -1.68268 0
M  V30 2481 C 225.769 4.24255 0.14412 0
M  V30 2482 C 223.676 5.655 -1.73099 0
M  V30 2483 H 222.606 0.751145 -0.0655475 0
M  V30 2484 H 225.257 1.63516 -0.832752 0
M  V30 2485 H 223.639 3.93608 0.434553 0
M  V30 2486 H 224.813 3.91866 -2.42441 0
M  V30 2487 H 223.128 3.62176 -2.05469 0
M  V30 2488 H 225.725 5.34547 0.128086 0
M  V30 2489 H 226.068 3.99277 1.17827 0
M  V30 2490 H 226.601 3.94389 -0.519798 0
M  V30 2491 H 223.34 5.95268 -2.74475 0
M  V30 2492 H 222.86 5.90842 -1.03274 0
M  V30 2493 H 224.539 6.29808 -1.48158 0
M  V30 2494 N 224.671 0.411399 1.52136 0
M  V30 2495 C 225.581 -0.419774 2.30814 0
M  V30 2496 C 226.597 -1.0515 1.38634 0
M  V30 2497 O 227.773 -1.05252 1.71709 0
M  V30 2498 C 224.838 -1.52019 3.11594 0
M  V30 2499 C 223.899 -0.91129 4.19516 0
M  V30 2500 C 223.132 -1.95927 4.96436 0
M  V30 2501 O 223.355 -3.17775 4.73683 0
M  V30 2502 O 222.289 -1.56423 5.81219 0
M  V30 2503 H 226.115 0.221805 3.02889 0
M  V30 2504 H 223.7 0.174547 1.48377 0
M  V30 2505 H 225.582 -2.15898 3.61892 0
M  V30 2506 H 224.257 -2.14633 2.42311 0
M  V30 2507 H 223.164 -0.235157 3.7336 0
M  V30 2508 H 224.497 -0.32904 4.91099 0
M  V30 2509 N 226.149 -1.5696 0.141893 0
M  V30 2510 C 227.395 -1.9625 -0.511248 0
M  V30 2511 C 227.728 -1.02654 -1.64851 0
M  V30 2512 O 227.003 -0.0679676 -1.94381 0
M  V30 2513 C 227.286 -3.45285 -1.02227 0
M  V30 2514 C 227.139 -4.49658 0.113138 0
M  V30 2515 C 228.458 -3.96698 -1.90574 0
M  V30 2516 H 225.577 -0.713567 -0.184367 0
M  V30 2517 H 228.219 -1.88698 0.222087 0
M  V30 2518 H 226.369 -3.51852 -1.64719 0
M  V30 2519 H 228.041 -4.55174 0.749302 0
M  V30 2520 H 226.284 -4.26857 0.773026 0
M  V30 2521 H 226.955 -5.51258 -0.286053 0
M  V30 2522 H 229.431 -3.92578 -1.37918 0
M  V30 2523 H 228.307 -5.01453 -2.2324 0
M  V30 2524 H 228.568 -3.3875 -2.84079 0
M  V30 2525 N 227.627 0.131896 -1.57047 0
M  V30 2526 C 228.904 0.871495 -1.75112 0
M  V30 2527 C 229.284 1.9866 -0.713949 0
M  V30 2528 O 228.632 2.26965 0.264447 0
M  V30 2529 C 228.842 1.40007 -3.19686 0
M  V30 2530 C 230.19 1.85752 -3.81813 0
M  V30 2531 O 231.214 1.49715 -3.23209 0
M  V30 2532 O 230.073 2.5226 -4.84796 0
M  V30 2533 H 227.167 0.412919 -0.716538 0
M  V30 2534 H 229.713 0.116641 -1.69299 0
M  V30 2535 H 228.485 0.599404 -3.86682 0
M  V30 2536 H 228.108 2.218 -3.29986 0
M  V30 2537 N 229.106 1.52395 0.401703 0
M  V30 2538 C 230.053 1.76268 1.48991 0
M  V30 2539 C 231.023 0.605386 1.54675 0
M  V30 2540 O 232.208 0.843742 1.7113 0
M  V30 2541 C 229.348 1.92592 2.86361 0
M  V30 2542 C 228.461 3.20259 2.89928 0
M  V30 2543 C 227.596 3.26972 4.18644 0
M  V30 2544 C 226.635 4.48812 4.16214 0
M  V30 2545 N 225.772 4.52877 5.36514 0
M  V30 2546 H 230.612 2.6914 1.27935 0
M  V30 2547 H 228.149 1.33355 0.620871 0
M  V30 2548 H 230.107 2.0004 3.66115 0
M  V30 2549 H 228.737 1.03093 3.05895 0
M  V30 2550 H 227.789 3.21945 2.02621 0
M  V30 2551 H 229.101 4.10056 2.83999 0
M  V30 2552 H 228.255 3.33533 5.06794 0
M  V30 2553 H 226.994 2.35126 4.27278 0
M  V30 2554 H 225.999 4.4239 3.26453 0
M  V30 2555 H 227.224 5.41961 4.09213 0
M  V30 2556 H 225.17 3.63917 5.45802 0
M  V30 2557 H 225.087 5.36529 5.32609 0
M  V30 2558 H 226.355 4.63676 6.26597 0
M  V30 2559 N 230.584 -0.659388 1.43143 0
M  V30 2560 C 231.861 -1.41627 1.34912 0
M  V30 2561 C 232.241 -2.11099 -0.00607785 0
M  V30 2562 O 231.589 -2.04353 -1.02236 0
M  V30 2563 C 231.799 -2.40604 2.52805 0
M  V30 2564 C 233.147 -3.04789 2.95616 0
M  V30 2565 O 234.171 -2.50932 2.52807 0
M  V30 2566 O 233.03 -4.02421 3.69756 0
M  V30 2567 H 230.124 -0.63246 0.532844 0
M  V30 2568 H 232.67 -0.686814 1.5518 0
M  V30 2569 H 231.442 -1.88174 3.43083 0
M  V30 2570 H 231.065 -3.21009 2.34604 0
M  V30 2571 N 232.062 -1.29571 -0.897171 0
M  V30 2572 C 233.308 -1.18873 -1.65048 0
M  V30 2573 C 233.663 0.256707 -1.9068 0
M  V30 2574 O 232.956 1.18202 -1.50794 0
M  V30 2575 C 233.15 -1.9382 -3.00281 0
M  V30 2576 C 232.979 -3.45503 -2.8785 0
M  V30 2577 C 231.749 -4.14856 -2.88483 0
M  V30 2578 C 233.947 -4.40956 -2.64693 0
M  V30 2579 N 231.929 -5.52886 -2.66815 0
M  V30 2580 C 233.3 -5.66464 -2.5203 0
M  V30 2581 C 235.355 -4.3069 -2.49821 0
M  V30 2582 C 234.058 -6.82871 -2.26008 0
M  V30 2583 C 236.084 -5.46852 -2.25182 0
M  V30 2584 C 235.446 -6.71333 -2.13286 0
M  V30 2585 H 231.545 -0.489998 -0.609447 0
M  V30 2586 H 234.129 -1.63431 -1.05822 0
M  V30 2587 H 232.3 -1.51671 -3.57562 0
M  V30 2588 H 234.032 -1.75366 -3.64731 0
M  V30 2589 H 230.787 -3.66579 -2.99861 0
M  V30 2590 H 231.211 -6.25487 -2.59027 0
M  V30 2591 H 235.853 -3.35141 -2.5776 0
M  V30 2592 H 233.571 -7.78473 -2.16806 0
M  V30 2593 H 237.157 -5.40809 -2.14515 0
M  V30 2594 H 236.037 -7.59701 -1.94485 0
M  V30 2595 N 233.54 1.10788 -1.12088 0
M  V30 2596 C 234.786 1.82942 -0.875226 0
M  V30 2597 C 235.119 1.84779 0.597538 0
M  V30 2598 O 234.394 1.30578 1.44152 0
M  V30 2599 C 234.677 3.29789 -1.44606 0
M  V30 2600 C 234.53 3.36307 -2.98693 0
M  V30 2601 C 235.849 4.26064 -1.10261 0
M  V30 2602 H 232.968 0.664195 -0.319397 0
M  V30 2603 H 235.61 1.29867 -1.38689 0
M  V30 2604 H 233.76 3.75118 -1.01089 0
M  V30 2605 H 235.432 2.99487 -3.50864 0
M  V30 2606 H 233.675 2.76318 -3.34411 0
M  V30 2607 H 234.346 4.39694 -3.33726 0
M  V30 2608 H 236.822 3.88951 -1.4784 0
M  V30 2609 H 235.698 5.27183 -1.52869 0
M  V30 2610 H 235.959 4.42098 -0.0142953 0
M  V30 2611 N 235.018 0.912232 1.28515 0
M  V30 2612 C 236.429 0.591352 1.77087 0
M  V30 2613 C 236.78 -0.8933 1.74684 0
M  V30 2614 O 235.905 -1.69876 1.34056 0
M  V30 2615 C 236.5 1.06668 3.2157 0
M  V30 2616 C 235.059 0.79675 3.67871 0
M  V30 2617 C 234.206 1.23427 2.48316 0
M  V30 2618 H 237.157 1.09365 1.15 0
M  V30 2619 H 237.178 0.407455 3.78312 0
M  V30 2620 H 236.69 2.14726 3.23287 0
M  V30 2621 H 234.791 -0.270679 3.71616 0
M  V30 2622 H 234.904 1.40343 4.58084 0
M  V30 2623 H 233.268 0.653036 2.46186 0
M  V30 2624 H 234.051 2.32316 2.52753 0
M  V30 2625 N 236.496 -1.42363 0.676048 0
M  V30 2626 C 237.773 -1.95183 0.127726 0
M  V30 2627 C 238.153 -1.61641 -1.35777 0
M  V30 2628 O 237.501 -0.913216 -2.09458 0
M  V30 2629 C 237.711 -3.46721 0.398199 0
M  V30 2630 C 239.059 -4.23427 0.315383 0
M  V30 2631 O 240.083 -3.54649 0.332016 0
M  V30 2632 O 238.942 -5.45888 0.25865 0
M  V30 2633 H 236.036 -0.826992 0.00359427 0
M  V30 2634 H 238.582 -1.52184 0.750864 0
M  V30 2635 H 237.354 -3.64344 1.4272 0
M  V30 2636 H 236.977 -3.96769 -0.256885 0
M  V30 2637 N 237.974 -0.419461 -1.51915 0
M  V30 2638 C 238.937 0.389116 -2.25873 0
M  V30 2639 C 239.937 0.964924 -1.28631 0
M  V30 2640 O 241.127 0.842179 -1.52489 0
M  V30 2641 C 238.259 1.54874 -3.03689 0
M  V30 2642 H 239.452 -0.258799 -2.98781 0
M  V30 2643 H 237.005 -0.172209 -1.55348 0
M  V30 2644 H 237.74 2.23323 -2.35154 0
M  V30 2645 H 237.525 1.14223 -3.75094 0
M  V30 2646 H 239.015 2.12046 -3.59759 0
M  V30 2647 N 239.452 1.56882 -0.150215 0
M  V30 2648 C 240.415 2.1573 0.774157 0
M  V30 2649 C 241.415 1.0999 1.17298 0
M  V30 2650 O 242.605 1.35613 1.09338 0
M  V30 2651 C 239.737 2.72302 2.05096 0
M  V30 2652 H 240.93 2.98752 0.262201 0
M  V30 2653 H 238.483 1.55985 0.099248 0
M  V30 2654 H 239.218 1.92956 2.6065 0
M  V30 2655 H 239.003 3.49665 1.77416 0
M  V30 2656 H 240.493 3.17632 2.71109 0
M  V30 2657 N 240.93 -0.123565 1.57115 0
M  V30 2658 C 242.178 -0.83051 1.84247 0
M  V30 2659 C 242.499 -1.80629 0.73471 0
M  V30 2660 O 241.769 -1.94403 -0.241688 0
M  V30 2661 H 240.349 -0.309694 0.679778 0
M  V30 2662 H 243.011 -0.111976 1.94578 0
M  V30 2663 H 242.107 -1.37852 2.80006 0
M  V30 2664 N 242.408 -1.52605 -0.393616 0
M  V30 2665 C 243.636 -1.71294 -1.16043 0
M  V30 2666 C 244.051 -0.429259 -1.83855 0
M  V30 2667 O 243.408 0.595921 -1.72496 0
M  V30 2668 C 243.459 -2.8593 -2.21193 0
M  V30 2669 O 243.18 -4.09329 -1.56146 0
M  V30 2670 C 244.681 -3.16259 -3.10636 0
M  V30 2671 H 241.901 -0.573641 -0.348104 0
M  V30 2672 H 244.445 -1.99234 -0.461092 0
M  V30 2673 H 242.6 -2.60465 -2.86769 0
M  V30 2674 H 243.014 -4.73323 -2.25978 0
M  V30 2675 H 244.488 -3.99946 -3.80456 0
M  V30 2676 H 244.965 -2.3045 -3.73884 0
M  V30 2677 H 245.571 -3.43547 -2.50711 0
M  V30 2678 N 243.887 0.651787 -1.4349 0
M  V30 2679 C 245.112 1.44434 -1.48841 0
M  V30 2680 C 245.537 1.8779 -0.107955 0
M  V30 2681 O 244.895 1.57464 0.898602 0
M  V30 2682 C 244.943 2.65458 -2.44059 0
M  V30 2683 O 244.047 3.64566 -1.92784 0
M  V30 2684 H 243.388 0.433005 -0.503391 0
M  V30 2685 H 245.918 0.797451 -1.88419 0
M  V30 2686 H 245.928 3.13255 -2.6141 0
M  V30 2687 H 244.603 2.33244 -3.4434 0
M  V30 2688 H 243.18 3.23716 -1.851 0
M  V30 2689 N 245.365 1.30045 0.890287 0
M  V30 2690 C 246.295 1.18541 2.01172 0
M  V30 2691 C 247.276 0.0773356 1.69924 0
M  V30 2692 O 248.461 0.25845 1.92473 0
M  V30 2693 C 245.591 0.870941 3.36202 0
M  V30 2694 C 244.545 1.93637 3.81692 0
M  V30 2695 C 243.871 1.475 5.13953 0
M  V30 2696 C 245.171 3.34666 4.00994 0
M  V30 2697 H 246.865 2.12359 2.11054 0
M  V30 2698 H 244.411 1.02238 1.01407 0
M  V30 2699 H 246.364 0.777141 4.14172 0
M  V30 2700 H 245.088 -0.102926 3.26438 0
M  V30 2701 H 243.747 2.01972 3.05946 0
M  V30 2702 H 243.395 0.489551 5.00612 0
M  V30 2703 H 243.095 2.1876 5.4536 0
M  V30 2704 H 244.619 1.39489 5.94454 0
M  V30 2705 H 246.033 3.2912 4.69417 0
M  V30 2706 H 244.43 4.03966 4.43769 0
M  V30 2707 H 245.5 3.76949 3.05021 0
M  V30 2708 N 246.843 -1.10192 1.12674 0
M  V30 2709 C 248.073 -1.85713 0.905213 0
M  V30 2710 C 248.481 -1.81056 -0.549108 0
M  V30 2711 O 247.824 -1.19927 -1.39151 0
M  V30 2712 C 247.886 -3.34972 1.30516 0
M  V30 2713 C 247.55 -3.63385 2.77129 0
M  V30 2714 C 248.547 -3.59772 3.75313 0
M  V30 2715 C 246.232 -3.91981 3.14096 0
M  V30 2716 C 248.226 -3.84354 5.08479 0
M  V30 2717 C 245.913 -4.16218 4.47443 0
M  V30 2718 C 246.911 -4.12395 5.44444 0
M  V30 2719 O 246.599 -4.36014 6.75387 0
M  V30 2720 H 246.331 -0.593719 0.323223 0
M  V30 2721 H 248.885 -1.40198 1.50112 0
M  V30 2722 H 247.115 -3.81156 0.652463 0
M  V30 2723 H 248.804 -3.91886 1.05736 0
M  V30 2724 H 249.57 -3.37716 3.48099 0
M  V30 2725 H 245.449 -3.94085 2.39202 0
M  V30 2726 H 248.993 -3.81285 5.84181 0
M  V30 2727 H 244.89 -4.37754 4.74386 0
M  V30 2728 H 245.658 -4.53516 6.8137 0
M  V30 2729 N 248.321 -0.919034 -1.28029 0
M  V30 2730 C 249.567 -0.555757 -1.95036 0
M  V30 2731 C 249.9 0.899198 -1.72128 0
M  V30 2732 O 249.175 1.64023 -1.04531 0
M  V30 2733 C 249.458 -0.872024 -3.49382 0
M  V30 2734 C 249.311 -2.3801 -3.81669 0
M  V30 2735 C 250.63 -0.37185 -4.38526 0
M  V30 2736 H 247.749 -0.203386 -0.708381 0
M  V30 2737 H 250.391 -1.14924 -1.51303 0
M  V30 2738 H 248.541 -0.366946 -3.86763 0
M  V30 2739 H 250.213 -2.9562 -3.54128 0
M  V30 2740 H 248.456 -2.83289 -3.28526 0
M  V30 2741 H 249.127 -2.55192 -4.8947 0
M  V30 2742 H 251.603 -0.804602 -4.08247 0
M  V30 2743 H 250.479 -0.622173 -5.45362 0
M  V30 2744 H 250.74 0.727934 -4.36066 0
M  V30 2745 N 249.799 1.42003 -0.683588 0
M  V30 2746 C 251.215 1.55625 -0.353976 0
M  V30 2747 C 251.415 1.66151 1.14 0
M  V30 2748 O 250.471 1.63329 1.92561 0
M  V30 2749 C 251.784 2.80171 -1.092 0
M  V30 2750 C 253.332 2.93954 -1.07518 0
M  V30 2751 C 253.807 4.21372 -1.79471 0
M  V30 2752 N 255.298 4.28303 -1.76381 0
M  V30 2753 C 256.033 5.25729 -2.28904 0
M  V30 2754 N 255.529 6.29254 -2.89846 0
M  V30 2755 N 257.322 5.17586 -2.19228 0
M  V30 2756 H 249.473 1.33415 -1.6527 0
M  V30 2757 H 251.736 0.64282 -0.696769 0
M  V30 2758 H 251.442 2.78561 -2.14701 0
M  V30 2759 H 251.316 3.7133 -0.662862 0
M  V30 2760 H 253.703 2.95086 -0.028475 0
M  V30 2761 H 253.784 2.04002 -1.54328 0
M  V30 2762 H 253.428 4.21001 -2.84114 0
M  V30 2763 H 253.358 5.10275 -1.30104 0
M  V30 2764 H 255.849 3.54119 -1.31939 0
M  V30 2765 H 256.162 6.99964 -3.27522 0
M  V30 2766 H 254.507 6.29791 -2.93919 0
M  V30 2767 H 257.698 4.35631 -1.71299 0
M  V30 2768 H 257.871 5.93348 -2.60466 0
M  V30 2769 N 251.277 0.427512 1.51691 0
M  V30 2770 C 252.688 -0.0378867 1.86662 0
M  V30 2771 C 253.039 -1.42819 1.34525 0
M  V30 2772 O 252.164 -2.05037 0.692014 0
M  V30 2773 C 252.759 -0.0755266 3.38716 0
M  V30 2774 C 251.318 -0.485309 3.73258 0
M  V30 2775 C 250.465 0.328399 2.75349 0
M  V30 2776 H 253.416 0.64379 1.45055 0
M  V30 2777 H 253.437 -0.887056 3.70016 0
M  V30 2778 H 252.949 0.936487 3.76632 0
M  V30 2779 H 251.05 -1.50329 3.40928 0
M  V30 2780 H 251.163 -0.21693 4.78609 0
M  V30 2781 H 249.527 -0.211905 2.53817 0
M  V30 2782 H 250.31 1.3391 3.16106 0
M  V30 2783 N 252.755 -1.56801 0.158532 0
M  V30 2784 C 254.001 -1.96781 -0.490405 0
M  V30 2785 C 254.334 -1.04397 -1.63753 0
M  V30 2786 O 253.609 -0.0885805 -1.94298 0
M  V30 2787 C 253.892 -3.4635 -0.985594 0
M  V30 2788 C 253.745 -4.49512 0.160824 0
M  V30 2789 C 255.064 -3.98697 -1.86355 0
M  V30 2790 H 252.183 -0.715482 -0.176788 0
M  V30 2791 H 254.825 -1.88451 0.242088 0
M  V30 2792 H 252.975 -3.53579 -1.60978 0
M  V30 2793 H 254.647 -4.54353 0.797537 0
M  V30 2794 H 252.89 -4.26013 0.818256 0
M  V30 2795 H 253.561 -5.51531 -0.227569 0
M  V30 2796 H 256.037 -3.94019 -1.33746 0
M  V30 2797 H 254.913 -5.03792 -2.17909 0
M  V30 2798 H 255.174 -3.41744 -2.8047 0
M  V30 2799 N 254.233 0.115231 -1.57178 0
M  V30 2800 C 255.163 1.1423 -2.03651 0
M  V30 2801 C 256.144 1.42967 -0.921655 0
M  V30 2802 O 257.329 1.53343 -1.19162 0
M  V30 2803 C 254.459 2.4675 -2.44401 0
M  V30 2804 C 253.413 2.32467 -3.59365 0
M  V30 2805 C 252.739 3.69984 -3.86026 0
M  V30 2806 C 254.039 1.78203 -4.90959 0
M  V30 2807 H 255.733 0.755749 -2.89705 0
M  V30 2808 H 253.279 0.362093 -1.39373 0
M  V30 2809 H 255.232 3.18854 -2.75517 0
M  V30 2810 H 253.956 2.87302 -1.55322 0
M  V30 2811 H 252.615 1.62811 -3.28463 0
M  V30 2812 H 252.263 4.08028 -2.94147 0
M  V30 2813 H 251.963 3.61279 -4.63412 0
M  V30 2814 H 253.487 4.43587 -4.19599 0
M  V30 2815 H 254.901 2.40128 -5.20587 0
M  V30 2816 H 253.298 1.8031 -5.72371 0
M  V30 2817 H 254.368 0.739876 -4.79222 0
M  V30 2818 N 255.711 1.52812 0.385517 0
M  V30 2819 C 256.96 1.67249 1.12741 0
M  V30 2820 C 257.273 0.4205 1.91027 0
M  V30 2821 O 258.479 0.445064 2.67827 0
M  V30 2822 C 256.935 2.95583 2.05326 0
M  V30 2823 C 256.543 4.27974 1.32447 0
M  V30 2824 C 258.287 3.19386 2.7963 0
M  V30 2825 C 256.194 5.47412 2.23818 0
M  V30 2826 H 255.124 0.6231 0.424573 0
M  V30 2827 H 257.775 1.79309 0.389924 0
M  V30 2828 H 256.157 2.77277 2.82725 0
M  V30 2829 H 257.331 4.56844 0.602495 0
M  V30 2830 H 255.646 4.10459 0.700885 0
M  V30 2831 H 258.243 4.05801 3.48181 0
M  V30 2832 H 258.586 2.34604 3.43899 0
M  V30 2833 H 259.119 3.38274 2.09322 0
M  V30 2834 H 255.858 6.34612 1.64157 0
M  V30 2835 H 255.378 5.22849 2.93921 0
M  V30 2836 H 257.057 5.81423 2.83824 0
M  V30 2837 N 257.189 -0.644168 1.43834 0
M  V30 2838 C 258.437 -1.40117 1.45642 0
M  V30 2839 C 258.758 -1.94814 0.0852413 0
M  V30 2840 O 258.028 -1.74988 -0.880688 0
M  V30 2841 H 256.608 -0.52005 0.536243 0
M  V30 2842 H 259.27 -0.7591 1.7951 0
M  V30 2843 H 258.366 -2.23902 2.17427 0
M  V30 2844 N 258.668 -1.30515 -0.883378 0
M  V30 2845 C 259.616 -1.16941 -2.01066 0
M  V30 2846 C 260.61 -0.0809148 -1.69207 0
M  V30 2847 O 261.816 -0.241877 -1.78367 0
M  V30 2848 H 258.191 -0.361705 -0.659298 0
M  V30 2849 H 260.162 -2.12344 -2.09649 0
M  V30 2850 C 258.911 -0.879694 -3.36388 0
M  V30 2851 H 258.234 -1.70936 -3.61415 0
M  V30 2852 H 259.674 -0.82483 -4.159 0
M  V30 2853 C 258.133 0.417409 -3.34304 0
M  V30 2854 O 258.663 1.43843 -3.75063 0
M  V30 2855 N 256.869 0.429141 -2.87414 0
M  V30 2856 H 256.416 -0.402222 -2.5444 0
M  V30 2857 H 256.374 1.29696 -2.86403 0
M  V30 2858 N 260.146 1.09593 -1.13257 0
M  V30 2859 C 261.056 2.19739 -0.821691 0
M  V30 2860 C 262.072 1.72926 0.19302 0
M  V30 2861 O 263.248 2.01385 0.0244895 0
M  V30 2862 C 260.313 3.45482 -0.290333 0
M  V30 2863 C 259.374 4.06985 -1.36607 0
M  V30 2864 C 258.607 5.26726 -0.859975 0
M  V30 2865 O 258.83 5.69594 0.303082 0
M  V30 2866 O 257.764 5.7931 -1.63351 0
M  V30 2867 H 261.59 2.48781 -1.74189 0
M  V30 2868 H 259.175 1.18496 -0.909894 0
M  V30 2869 H 261.057 4.214 0.000674022 0
M  V30 2870 H 259.732 3.18047 0.602306 0
M  V30 2871 H 258.639 3.32712 -1.71037 0
M  V30 2872 H 259.972 4.38643 -2.23279 0
M  V30 2873 N 261.624 0.925811 1.2754 0
M  V30 2874 C 263.035 0.610102 1.7645 0
M  V30 2875 C 263.386 -0.874723 1.75622 0
M  V30 2876 O 262.511 -1.68444 1.35851 0
M  V30 2877 C 263.106 1.10073 3.20421 0
M  V30 2878 C 261.665 0.835723 3.67005 0
M  V30 2879 C 260.812 1.26054 2.46993 0
M  V30 2880 H 263.763 1.10579 1.13833 0
M  V30 2881 H 263.784 0.447557 3.77859 0
M  V30 2882 H 263.296 2.18143 3.20991 0
M  V30 2883 H 261.397 -0.231249 3.71882 0
M  V30 2884 H 261.51 1.45193 4.56569 0
M  V30 2885 H 259.874 0.679111 2.45479 0
M  V30 2886 H 260.657 2.34984 2.50275 0
M  V30 2887 N 263.102 -1.41638 0.69111 0
M  V30 2888 C 264.327 -2.06148 0.227583 0
M  V30 2889 C 264.752 -1.51652 -1.11281 0
M  V30 2890 O 264.11 -0.64164 -1.69566 0
M  V30 2891 C 264.158 -3.60095 0.190858 0
M  V30 2892 O 263.262 -4.03845 -0.835664 0
M  V30 2893 H 262.603 -0.654434 0.112306 0
M  V30 2894 H 265.133 -1.81484 0.944714 0
M  V30 2895 H 265.143 -4.07995 0.020207 0
M  V30 2896 H 263.818 -3.99129 1.16915 0
M  V30 2897 H 262.395 -3.67458 -0.63473 0
M  V30 2898 N 264.58 -0.43555 -1.51462 0
M  V30 2899 C 265.51 0.367376 -2.30592 0
M  V30 2900 C 266.491 1.02263 -1.35928 0
M  V30 2901 O 267.676 1.02661 -1.64847 0
M  V30 2902 C 264.806 1.46983 -3.14664 0
M  V30 2903 C 263.76 0.938161 -4.17591 0
M  V30 2904 C 263.086 2.13622 -4.90173 0
M  V30 2905 C 264.386 -0.0261621 -5.22293 0
M  V30 2906 H 266.08 -0.292969 -2.97963 0
M  V30 2907 H 263.626 -0.14234 -1.43295 0
M  V30 2908 H 265.579 2.03873 -3.688 0
M  V30 2909 H 264.303 2.15843 -2.4511 0
M  V30 2910 H 262.962 0.391481 -3.64504 0
M  V30 2911 H 262.61 2.81098 -4.17124 0
M  V30 2912 H 262.31 1.78688 -5.59772 0
M  V30 2913 H 263.834 2.7107 -5.47132 0
M  V30 2914 H 265.248 0.452384 -5.71512 0
M  V30 2915 H 263.645 -0.287992 -5.99409 0
M  V30 2916 H 264.715 -0.963391 -4.75233 0
M  V30 2917 N 266.058 1.56714 -0.166846 0
M  V30 2918 C 267.306 1.96358 0.478305 0
M  V30 2919 C 267.627 1.0537 1.6408 0
M  V30 2920 O 266.897 0.119154 1.95537 0
M  V30 2921 H 265.477 0.725065 0.179692 0
M  V30 2922 H 268.139 1.93329 -0.246985 0
M  V30 2923 H 267.235 3.00547 0.841292 0
M  V30 2924 N 267.536 -0.106894 1.57237 0
M  V30 2925 C 268.782 -0.81373 1.85759 0
M  V30 2926 C 269.115 -1.78952 0.754315 0
M  V30 2927 O 268.39 -1.93029 -0.23879 0
M  V30 2928 C 268.673 -1.55293 3.24894 0
M  V30 2929 C 268.526 -0.595929 4.45835 0
M  V30 2930 C 269.845 -2.5063 3.61763 0
M  V30 2931 H 266.964 -0.294369 0.67566 0
M  V30 2932 H 269.606 -0.0776472 1.89841 0
M  V30 2933 H 267.756 -2.1804 3.21544 0
M  V30 2934 H 269.428 0.0236262 4.61294 0
M  V30 2935 H 267.671 0.0916191 4.33703 0
M  V30 2936 H 268.342 -1.15004 5.39887 0
M  V30 2937 H 270.818 -1.97982 3.65981 0
M  V30 2938 H 269.694 -2.99376 4.60071 0
M  V30 2939 H 269.955 -3.3385 2.89821 0
M  V30 2940 N 269.014 -1.53014 -0.377408 0
M  V30 2941 C 270.239 -1.72818 -1.14668 0
M  V30 2942 C 270.664 -0.450725 -1.8262 0
M  V30 2943 O 270.022 0.59439 -1.7128 0
M  V30 2944 C 270.07 -2.88627 -2.16164 0
M  V30 2945 O 269.174 -2.56409 -3.22998 0
M  V30 2946 H 268.515 -0.574301 -0.333278 0
M  V30 2947 H 271.045 -1.99853 -0.438152 0
M  V30 2948 H 271.055 -3.14455 -2.59966 0
M  V30 2949 H 269.73 -3.81294 -1.66095 0
M  V30 2950 H 268.307 -2.4136 -2.84253 0
M  V30 2951 N 270.492 0.636531 -1.44174 0
M  V30 2952 C 271.424 1.7618 -1.46606 0
M  V30 2953 C 272.437 1.58768 -0.360091 0
M  V30 2954 O 273.626 1.67181 -0.625518 0
M  V30 2955 C 270.726 3.13833 -1.27915 0
M  V30 2956 C 269.899 3.57753 -2.51658 0
M  V30 2957 C 268.958 4.74265 -2.27945 0
M  V30 2958 O 267.984 4.82852 -3.01401 0
M  V30 2959 N 269.186 5.65604 -1.30662 0
M  V30 2960 H 271.951 1.74567 -2.43612 0
M  V30 2961 H 269.512 0.820924 -1.39544 0
M  V30 2962 H 271.504 3.8949 -1.09907 0
M  V30 2963 H 270.074 3.10121 -0.39293 0
M  V30 2964 H 269.294 2.72362 -2.84978 0
M  V30 2965 H 270.582 3.83847 -3.33974 0
M  V30 2966 H 269.98 5.61354 -0.699844 0
M  V30 2967 H 268.537 6.40913 -1.18634 0
M  V30 2968 N 271.97 1.30982 0.876444 0
M  V30 2969 C 273.381 1.18277 1.44456 0
M  V30 2970 C 273.732 -0.213265 1.95037 0
M  V30 2971 O 272.857 -1.11057 1.85729 0
M  V30 2972 C 273.452 2.1411 2.62569 0
M  V30 2973 C 272.011 2.05358 3.15444 0
M  V30 2974 C 271.158 2.03706 1.88146 0
M  V30 2975 H 274.109 1.43127 0.685584 0
M  V30 2976 H 274.13 1.72692 3.39054 0
M  V30 2977 H 273.642 3.15706 2.25724 0
M  V30 2978 H 271.743 1.06934 3.56926 0
M  V30 2979 H 271.856 2.94156 3.78166 0
M  V30 2980 H 270.22 1.48629 2.06837 0
M  V30 2981 H 271.003 3.07047 1.53547 0
M  V30 2982 N 273.449 -1.08991 1.13837 0
M  V30 2983 C 274.677 -1.85011 0.926202 0
M  V30 2984 C 275.092 -1.8135 -0.525127 0
M  V30 2985 O 274.449 -1.21287 -1.36366 0
M  V30 2986 C 274.5 -3.32802 1.41155 0
M  V30 2987 O 274.221 -3.36444 2.80601 0
M  V30 2988 C 275.722 -4.25649 1.23847 0
M  V30 2989 H 272.942 -0.584249 0.32999 0
M  V30 2990 H 275.486 -1.37688 1.51202 0
M  V30 2991 H 273.641 -3.77536 0.868631 0
M  V30 2992 H 274.055 -4.28657 3.02248 0
M  V30 2993 H 275.529 -5.27485 1.62675 0
M  V30 2994 H 276.006 -4.38828 0.18065 0
M  V30 2995 H 276.612 -3.86735 1.76964 0
M  V30 2996 N 274.927 -0.932562 -1.27047 0
M  V30 2997 C 276.343 -0.633544 -1.46487 0
M  V30 2998 C 276.543 0.815746 -1.84249 0
M  V30 2999 O 275.599 1.59319 -1.95892 0
M  V30 3000 C 276.912 -1.58758 -2.55375 0
M  V30 3001 C 278.46 -1.59634 -2.69232 0
M  V30 3002 C 278.935 -2.53747 -3.81283 0
M  V30 3003 N 280.426 -2.51982 -3.88664 0
M  V30 3004 C 281.161 -3.21491 -4.74796 0
M  V30 3005 N 280.657 -4.00395 -5.65381 0
M  V30 3006 N 282.45 -3.10485 -4.68568 0
M  V30 3007 H 274.601 -1.86946 -1.00821 0
M  V30 3008 H 276.864 -0.802897 -0.504044 0
M  V30 3009 H 276.57 -2.62172 -2.34432 0
M  V30 3010 H 276.444 -1.33301 -3.52861 0
M  V30 3011 H 278.831 -0.569488 -2.89553 0
M  V30 3012 H 278.912 -1.89142 -1.72218 0
M  V30 3013 H 278.556 -3.56545 -3.61715 0
M  V30 3014 H 278.486 -2.21532 -4.77735 0
M  V30 3015 H 280.977 -1.94681 -3.23895 0
M  V30 3016 H 281.29 -4.50406 -6.27976 0
M  V30 3017 H 279.635 -4.04498 -5.65161 0
M  V30 3018 H 282.826 -2.48331 -3.96799 0
M  V30 3019 H 282.999 -3.64925 -5.35475 0
M  V30 3020 N 276.405 1.4127 -0.698611 0
M  V30 3021 C 277.368 2.29158 -0.044132 0
M  V30 3022 C 278.368 1.44529 0.704841 0
M  V30 3023 O 279.558 1.65643 0.539276 0
M  V30 3024 C 276.69 3.27459 0.947809 0
M  V30 3025 H 277.883 2.88529 -0.817994 0
M  V30 3026 H 275.436 1.49307 -0.46228 0
M  V30 3027 H 276.171 2.73073 1.74933 0
M  V30 3028 H 275.956 3.8991 0.41385 0
M  V30 3029 H 277.446 3.93311 1.40344 0
M  V30 3030 N 277.883 0.443576 1.51229 0
M  V30 3031 C 278.813 -0.355142 2.30783 0
M  V30 3032 C 279.794 -1.0154 1.36468 0
M  V30 3033 O 280.979 -1.01785 1.65389 0
M  V30 3034 C 278.109 -1.45312 3.15439 0
M  V30 3035 C 277.063 -0.916002 4.18083 0
M  V30 3036 C 276.389 -2.1102 4.91299 0
M  V30 3037 C 277.689 0.0538602 5.22272 0
M  V30 3038 H 279.383 0.308767 2.97804 0
M  V30 3039 H 276.929 0.149937 1.43217 0
M  V30 3040 H 278.882 -2.01914 3.69876 0
M  V30 3041 H 277.606 -2.14541 2.46252 0
M  V30 3042 H 276.265 -0.372145 3.64706 0
M  V30 3043 H 275.913 -2.78882 4.18609 0
M  V30 3044 H 275.613 -1.75717 5.60712 0
M  V30 3045 H 277.137 -2.68164 5.48562 0
M  V30 3046 H 278.551 -0.422069 5.71744 0
M  V30 3047 H 276.948 0.319776 5.99247 0
M  V30 3048 H 278.018 0.98858 4.74716 0
M  V30 3049 N 279.361 -1.56624 0.175154 0
M  V30 3050 C 280.291 -2.21155 -0.749195 0
M  V30 3051 C 281.272 -1.16836 -1.23626 0
M  V30 3052 O 282.457 -1.45277 -1.28873 0
M  V30 3053 C 279.587 -2.8553 -1.97711 0
M  V30 3054 C 278.541 -3.95921 -1.62575 0
M  V30 3055 C 277.867 -4.47365 -2.92864 0
M  V30 3056 C 279.167 -5.15323 -0.850838 0
M  V30 3057 H 280.861 -2.98653 -0.211295 0
M  V30 3058 H 278.407 -1.43651 -0.100188 0
M  V30 3059 H 280.36 -3.2935 -2.62881 0
M  V30 3060 H 279.084 -2.05406 -2.53921 0
M  V30 3061 H 277.743 -3.52762 -0.997719 0
M  V30 3062 H 277.391 -3.64027 -3.47122 0
M  V30 3063 H 277.091 -5.21839 -2.70106 0
M  V30 3064 H 278.615 -4.93873 -3.59056 0
M  V30 3065 H 280.029 -5.55812 -1.40521 0
M  V30 3066 H 278.426 -5.95739 -0.722154 0
M  V30 3067 H 279.496 -4.84661 0.152082 0
M  V30 3068 N 280.839 0.0985539 -1.57292 0
M  V30 3069 C 282.086 0.802678 -1.85912 0
M  V30 3070 C 282.414 1.78901 -0.763186 0
M  V30 3071 O 281.669 1.94178 0.243559 0
M  V30 3072 C 281.968 1.56927 -3.21105 0
M  V30 3073 C 281.634 0.725376 -4.45027 0
M  V30 3074 C 280.296 0.492726 -4.78671 0
M  V30 3075 C 282.648 0.138493 -5.21016 0
M  V30 3076 C 279.976 -0.336727 -5.85733 0
M  V30 3077 C 282.328 -0.678264 -6.28953 0
M  V30 3078 C 280.992 -0.921039 -6.61115 0
M  V30 3079 H 280.262 0.293721 -0.680301 0
M  V30 3080 H 282.909 0.0642841 -1.91392 0
M  V30 3081 H 281.214 2.37914 -3.11294 0
M  V30 3082 H 282.911 2.11841 -3.40477 0
M  V30 3083 H 279.501 0.916815 -4.18679 0
M  V30 3084 H 283.685 0.305404 -4.95359 0
M  V30 3085 H 278.941 -0.533836 -6.09065 0
M  V30 3086 H 283.115 -1.1399 -6.87007 0
M  V30 3087 H 280.742 -1.56556 -7.43905 0
M  V30 3088 N 282.317 1.53212 0.369288 0
M  V30 3089 C 283.563 1.69466 1.11397 0
M  V30 3090 C 283.896 0.443257 1.89074 0
M  V30 3091 O 283.171 -0.559386 1.86282 0
M  V30 3092 C 283.454 2.9422 2.07621 0
M  V30 3093 C 283.307 4.29508 1.33577 0
M  V30 3094 C 284.626 3.14565 3.07794 0
M  V30 3095 H 281.745 0.616667 0.403597 0
M  V30 3096 H 284.387 1.85845 0.395179 0
M  V30 3097 H 282.537 2.80387 2.68916 0
M  V30 3098 H 284.209 4.55147 0.750955 0
M  V30 3099 H 282.452 4.29088 0.637618 0
M  V30 3100 H 283.123 5.12926 2.03989 0
M  V30 3101 H 285.599 3.2756 2.56601 0
M  V30 3102 H 284.475 4.03297 3.72348 0
M  V30 3103 H 284.736 2.29675 3.77759 0
M  V30 3104 N 283.795 -0.628877 1.44509 0
M  V30 3105 C 285.044 -1.38437 1.4669 0
M  V30 3106 C 285.357 -1.95322 0.104272 0
M  V30 3107 O 286.563 -2.715 0.00362163 0
M  V30 3108 C 285.019 -2.50659 2.5826 0
M  V30 3109 C 284.627 -2.00277 4.0074 0
M  V30 3110 C 286.371 -3.27844 2.69664 0
M  V30 3111 C 284.278 -3.09854 5.0373 0
M  V30 3112 H 283.208 -0.520245 0.545766 0
M  V30 3113 H 285.859 -0.676313 1.70582 0
M  V30 3114 H 284.241 -3.2405 2.27612 0
M  V30 3115 H 285.415 -1.33736 4.40966 0
M  V30 3116 H 283.73 -1.35901 3.93599 0
M  V30 3117 H 286.327 -4.09534 3.43781 0
M  V30 3118 H 286.67 -3.77471 1.75559 0
M  V30 3119 H 287.203 -2.61543 2.99733 0
M  V30 3120 H 283.942 -2.65168 5.99472 0
M  V30 3121 H 283.462 -3.7503 4.68095 0
M  V30 3122 H 285.141 -3.74592 5.27532 0
M  V30 3123 N 285.273 -1.31445 -0.869486 0
M  V30 3124 C 286.203 -1.21727 -1.99261 0
M  V30 3125 C 287.184 -0.104359 -1.6978 0
M  V30 3126 O 288.369 -0.289038 -1.92037 0
M  V30 3127 C 285.499 -0.924317 -3.34774 0
M  V30 3128 C 284.453 -1.99685 -3.78563 0
M  V30 3129 C 283.779 -1.55658 -5.11541 0
M  V30 3130 C 285.079 -3.41003 -3.95619 0
M  V30 3131 H 286.773 -2.1569 -2.07649 0
M  V30 3132 H 284.319 -1.03839 -0.997675 0
M  V30 3133 H 286.272 -0.842934 -4.12883 0
M  V30 3134 H 284.996 0.0509793 -3.2656 0
M  V30 3135 H 283.655 -2.06813 -3.02694 0
M  V30 3136 H 283.303 -0.569132 -4.9977 0
M  V30 3137 H 283.003 -2.27409 -5.41811 0
M  V30 3138 H 284.527 -1.48928 -5.92159 0
M  V30 3139 H 285.941 -3.36547 -4.64122 0
M  V30 3140 H 284.338 -4.10975 -4.37286 0
M  V30 3141 H 285.408 -3.81754 -2.98985 0
M  V30 3142 N 286.751 1.08385 -1.14413 0
M  V30 3143 C 287.991 1.8238 -0.922868 0
M  V30 3144 C 288.355 1.84225 0.540842 0
M  V30 3145 O 289.556 2.53985 0.880058 0
M  V30 3146 C 287.827 3.24048 -1.50757 0
M  V30 3147 S 289.386 4.14917 -1.4279 0
M  V30 3148 H 286.204 0.628524 -0.332384 0
M  V30 3149 H 288.806 1.30278 -1.45766 0
M  V30 3150 H 287.51 3.20288 -2.56601 0
M  V30 3151 H 287.041 3.81224 -0.971178 0
M  V30 3152 H 289.056 4.94473 -0.413582 0
M  V30 3153 N 288.23 0.939286 1.26551 0
M  V30 3154 C 289.641 0.628782 1.75793 0
M  V30 3155 C 289.992 -0.856046 1.7654 0
M  V30 3156 O 289.117 -1.66994 1.3763 0
M  V30 3157 C 289.712 1.13465 3.19235 0
M  V30 3158 C 288.271 0.874601 3.66098 0
M  V30 3159 C 287.418 1.28667 2.45642 0
M  V30 3160 H 290.369 1.1178 1.12654 0
M  V30 3161 H 290.39 0.487609 3.77363 0
M  V30 3162 H 289.902 2.21535 3.1866 0
M  V30 3163 H 288.003 -0.191793 3.72106 0
M  V30 3164 H 288.116 1.50028 4.55004 0
M  V30 3165 H 286.48 0.705109 2.44745 0
M  V30 3166 H 287.263 2.37625 2.47769 0
M  V30 3167 N 289.708 -1.40897 0.706093 0
M  V30 3168 C 290.954 -2.01352 0.241889 0
M  V30 3169 C 291.287 -1.55832 -1.15888 0
M  V30 3170 O 290.562 -0.774145 -1.7843 0
M  V30 3171 C 290.845 -3.58752 0.311311 0
M  V30 3172 C 290.698 -4.1437 1.74978 0
M  V30 3173 C 292.017 -4.38914 -0.322922 0
M  V30 3174 H 289.136 -0.731562 0.0893687 0
M  V30 3175 H 291.778 -1.67504 0.896802 0
M  V30 3176 H 289.928 -3.87718 -0.246302 0
M  V30 3177 H 291.6 -3.96239 2.36205 0
M  V30 3178 H 289.843 -3.69016 2.28057 0
M  V30 3179 H 290.514 -5.23532 1.74981 0
M  V30 3180 H 292.99 -4.15822 0.152089 0
M  V30 3181 H 291.866 -5.48358 -0.243855 0
M  V30 3182 H 292.127 -4.19176 -1.40513 0
M  V30 3183 N 291.186 -0.45159 -1.50991 0
M  V30 3184 C 292.434 0.109857 -2.01801 0
M  V30 3185 C 292.755 1.41958 -1.3369 0
M  V30 3186 O 292.025 1.9003 -0.475951 0
M  V30 3187 H 290.605 0.0435884 -0.745727 0
M  V30 3188 H 293.267 -0.597557 -1.85514 0
M  V30 3189 H 292.363 0.275489 -3.10882 0
M  V30 3190 N 292.664 1.56529 -0.183458 0
M  V30 3191 C 293.627 2.17324 0.728223 0
M  V30 3192 C 294.627 1.12453 1.14939 0
M  V30 3193 O 295.817 1.37902 1.06437 0
M  V30 3194 C 292.949 2.76591 1.99274 0
M  V30 3195 H 294.142 2.99241 0.198772 0
M  V30 3196 H 291.695 1.5616 0.0661391 0
M  V30 3197 H 292.43 1.98441 2.56499 0
M  V30 3198 H 292.215 3.5335 1.69959 0
M  V30 3199 H 293.705 3.23311 2.6431 0
M  V30 3200 N 294.142 -0.090211 1.57342 0
M  V30 3201 C 295.372 -0.805055 1.90269 0
M  V30 3202 C 295.78 -1.72561 0.775842 0
M  V30 3203 O 295.123 -1.81839 -0.260843 0
M  V30 3204 C 295.185 -1.66734 3.18497 0
M  V30 3205 C 294.849 -0.918092 4.47683 0
M  V30 3206 C 295.846 -0.245674 5.19319 0
M  V30 3207 C 293.531 -0.890724 4.94339 0
M  V30 3208 C 295.525 0.444088 6.35851 0
M  V30 3209 C 293.212 -0.197179 6.10782 0
M  V30 3210 C 294.21 0.469044 6.81388 0
M  V30 3211 O 293.898 1.15146 7.95611 0
M  V30 3212 H 293.63 -0.235143 0.633785 0
M  V30 3213 H 296.184 -0.0703805 2.05279 0
M  V30 3214 H 294.414 -2.44437 2.99646 0
M  V30 3215 H 296.103 -2.25919 3.37217 0
M  V30 3216 H 296.869 -0.258246 4.84312 0
M  V30 3217 H 292.748 -1.39873 4.39268 0
M  V30 3218 H 296.292 0.964667 6.90898 0
M  V30 3219 H 292.189 -0.18247 6.45242 0
M  V30 3220 H 292.957 1.05885 8.11622 0
M  V30 3221 N 295.62 -1.53406 -0.361157 0
M  V30 3222 C 296.867 -1.69802 -1.10333 0
M  V30 3223 C 297.195 -0.452087 -1.89173 0
M  V30 3224 O 296.45 0.566017 -1.87336 0
M  V30 3225 C 296.749 -2.90211 -2.08596 0
M  V30 3226 C 296.415 -4.26539 -1.46203 0
M  V30 3227 C 295.077 -4.6361 -1.28915 0
M  V30 3228 C 297.429 -5.113 -1.01101 0
M  V30 3229 C 294.757 -5.83075 -0.651157 0
M  V30 3230 C 297.109 -6.31415 -0.387007 0
M  V30 3231 C 295.773 -6.67195 -0.201657 0
M  V30 3232 H 295.043 -0.621351 -0.403737 0
M  V30 3233 H 297.69 -1.87598 -0.384609 0
M  V30 3234 H 295.995 -2.66946 -2.86788 0
M  V30 3235 H 297.692 -3.00091 -2.65982 0
M  V30 3236 H 294.282 -3.97352 -1.60653 0
M  V30 3237 H 298.466 -4.83206 -1.13249 0
M  V30 3238 H 293.722 -6.09385 -0.496006 0
M  V30 3239 H 297.896 -6.96394 -0.0293563 0
M  V30 3240 H 295.523 -7.59628 0.294766 0
M  V30 3241 N 297.098 0.621204 -1.44841 0
M  V30 3242 C 298.509 1.20298 -1.42777 0
M  V30 3243 C 298.86 1.95639 -0.148259 0
M  V30 3244 O 297.985 2.02955 0.750892 0
M  V30 3245 C 298.58 2.1882 -2.58657 0
M  V30 3246 C 297.139 2.72403 -2.59756 0
M  V30 3247 C 296.286 1.4757 -2.34773 0
M  V30 3248 H 299.237 0.411297 -1.53278 0
M  V30 3249 H 299.258 3.01607 -2.31977 0
M  V30 3250 H 298.77 1.63957 -3.51766 0
M  V30 3251 H 296.871 3.31242 -1.70615 0
M  V30 3252 H 296.984 3.17765 -3.58556 0
M  V30 3253 H 295.348 1.76051 -1.8406 0
M  V30 3254 H 296.131 0.945954 -3.3001 0
M  V30 3255 N 298.576 1.31904 0.862503 0
M  V30 3256 C 299.824 1.21776 1.61292 0
M  V30 3257 C 300.145 -0.222413 1.93727 0
M  V30 3258 O 299.415 -1.1451 1.58947 0
M  V30 3259 H 297.995 0.447717 0.597962 0
M  V30 3260 H 300.657 1.65326 1.03215 0
M  V30 3261 H 299.753 1.7948 2.5533 0
M  V30 3262 N 300.054 -1.07777 1.14986 0
M  V30 3263 C 301.302 -1.79934 0.920235 0
M  V30 3264 C 301.623 -1.86955 -0.554336 0
M  V30 3265 O 300.893 -1.36731 -1.40291 0
M  V30 3266 H 299.473 -0.666424 0.337473 0
M  V30 3267 H 302.135 -1.3027 1.44968 0
M  V30 3268 H 301.231 -2.82539 1.32583 0
M  V30 3269 N 301.532 -0.945985 -1.26051 0
M  V30 3270 C 302.757 -0.612525 -1.98149 0
M  V30 3271 C 303.182 0.806623 -1.69927 0
M  V30 3272 O 302.54 1.54411 -0.950108 0
M  V30 3273 C 302.588 -0.866981 -3.50023 0
M  V30 3274 O 301.692 0.0585333 -4.12358 0
M  V30 3275 H 301.033 -0.23379 -0.621481 0
M  V30 3276 H 303.563 -1.27023 -1.60395 0
M  V30 3277 H 303.573 -0.789792 -4.00283 0
M  V30 3278 H 302.248 -1.90135 -3.69894 0
M  V30 3279 H 300.825 -0.0701241 -3.72834 0
M  V30 3280 N 303.011 1.40521 -0.713556 0
M  V30 3281 C 304.257 2.01221 -0.252564 0
M  V30 3282 C 304.59 1.56444 1.1506 0
M  V30 3283 O 303.865 0.783597 1.78017 0
M  V30 3284 C 304.148 3.58582 -0.330332 0
M  V30 3285 C 304.001 4.13437 -1.77173 0
M  V30 3286 C 305.32 4.39079 0.299641 0
M  V30 3287 H 302.439 0.731077 -0.0932471 0
M  V30 3288 H 305.081 1.67026 -0.905673 0
M  V30 3289 H 303.231 3.87844 0.225737 0
M  V30 3290 H 304.903 3.9498 -2.38303 0
M  V30 3291 H 303.146 3.67801 -2.3001 0
M  V30 3292 H 303.817 5.22597 -1.77755 0
M  V30 3293 H 306.293 4.15735 -0.174139 0
M  V30 3294 H 305.169 5.4848 0.214771 0
M  V30 3295 H 305.43 4.19915 1.38288 0
M  V30 3296 N 304.489 0.459591 1.5075 0
M  V30 3297 C 305.717 -0.0973749 2.06671 0
M  V30 3298 C 306.132 -1.34524 1.32472 0
M  V30 3299 O 305.489 -1.7827 0.390634 0
M  V30 3300 C 305.54 -0.39714 3.59312 0
M  V30 3301 O 305.261 0.801214 4.30711 0
M  V30 3302 C 306.762 -1.00234 4.31819 0
M  V30 3303 H 303.982 0.00195854 0.670997 0
M  V30 3304 H 306.526 0.645072 1.94059 0
M  V30 3305 H 304.681 -1.08951 3.71764 0
M  V30 3306 H 305.095 0.538857 5.21725 0
M  V30 3307 H 306.569 -1.16193 5.39632 0
M  V30 3308 H 307.046 -1.98939 3.91561 0
M  V30 3309 H 307.652 -0.348699 4.23868 0
M  V30 3310 N 305.967 -1.56429 0.191757 0
M  V30 3311 C 307.378 -1.83912 -0.321428 0
M  V30 3312 C 307.729 -1.11231 -1.61623 0
M  V30 3313 O 306.854 -0.37202 -2.13178 0
M  V30 3314 C 307.449 -3.33624 -0.589961 0
M  V30 3315 C 306.008 -3.6153 -1.04753 0
M  V30 3316 C 305.155 -2.7714 -0.0943327 0
M  V30 3317 H 308.106 -1.53161 0.415612 0
M  V30 3318 H 308.127 -3.52213 -1.43966 0
M  V30 3319 H 307.639 -3.86495 0.352588 0
M  V30 3320 H 305.74 -3.14089 -2.00447 0
M  V30 3321 H 305.853 -4.69737 -0.942549 0
M  V30 3322 H 304.217 -2.47638 -0.595589 0
M  V30 3323 H 305 -3.32799 0.842601 0
M  V30 3324 N 307.445 0.0818655 -1.57387 0
M  V30 3325 C 308.691 0.784074 -1.8703 0
M  V30 3326 C 309.024 1.77729 -0.782689 0
M  V30 3327 O 308.299 1.93384 0.208051 0
M  V30 3328 C 308.582 1.50105 -3.27323 0
M  V30 3329 C 308.435 0.524925 -4.46727 0
M  V30 3330 C 309.754 2.44843 -3.65705 0
M  V30 3331 H 306.873 0.283582 -0.680257 0
M  V30 3332 H 309.515 0.0474352 -1.89941 0
M  V30 3333 H 307.665 2.12897 -3.24972 0
M  V30 3334 H 309.337 -0.0970111 -4.61198 0
M  V30 3335 H 307.58 -0.160606 -4.33503 0
M  V30 3336 H 308.251 1.064 -5.41648 0
M  V30 3337 H 310.727 1.92135 -3.69085 0
M  V30 3338 H 309.603 2.92018 -4.64776 0
M  V30 3339 H 309.864 3.29197 -2.95096 0
M  V30 3340 N 308.923 1.53595 0.353017 0
M  V30 3341 C 310.148 1.7462 1.11904 0
M  V30 3342 C 310.573 0.479721 1.8188 0
M  V30 3343 O 309.931 -0.567066 1.72204 0
M  V30 3344 C 309.979 2.92029 2.11545 0
M  V30 3345 O 309.083 2.61516 3.18878 0
M  V30 3346 H 308.424 0.579531 0.324099 0
M  V30 3347 H 310.954 2.00525 0.406301 0
M  V30 3348 H 310.964 3.18551 2.5493 0
M  V30 3349 H 309.639 3.83888 1.60008 0
M  V30 3350 H 308.216 2.45852 2.80377 0
M  V30 3351 N 310.401 -0.613514 1.45168 0
M  V30 3352 C 311.331 -1.7354 1.56225 0
M  V30 3353 C 312.312 -1.64981 0.41414 0
M  V30 3354 O 313.497 -1.83472 0.636526 0
M  V30 3355 C 310.627 -3.12128 1.52295 0
M  V30 3356 C 309.581 -3.35491 2.65762 0
M  V30 3357 C 308.907 -4.74291 2.46885 0
M  V30 3358 C 310.207 -3.26325 4.0781 0
M  V30 3359 H 311.901 -1.64543 2.50132 0
M  V30 3360 H 309.447 -0.790185 1.20383 0
M  V30 3361 H 311.4 -3.90404 1.58628 0
M  V30 3362 H 310.124 -3.2195 0.549139 0
M  V30 3363 H 308.783 -2.59603 2.58847 0
M  V30 3364 H 308.431 -4.80839 1.47657 0
M  V30 3365 H 308.131 -4.9088 3.22972 0
M  V30 3366 H 309.655 -5.54775 2.55063 0
M  V30 3367 H 311.069 -3.94483 4.16 0
M  V30 3368 H 309.466 -3.54445 4.8424 0
M  V30 3369 H 310.536 -2.23855 4.30136 0
M  V30 3370 N 311.879 -1.3236 -0.855495 0
M  V30 3371 C 312.809 -1.23833 -1.97958 0
M  V30 3372 C 313.79 -0.122361 -1.69659 0
M  V30 3373 O 314.975 -0.30939 -1.9172 0
M  V30 3374 C 312.105 -0.959772 -3.33775 0
M  V30 3375 C 311.059 -2.03689 -3.76424 0
M  V30 3376 C 310.385 -1.61075 -5.09862 0
M  V30 3377 C 311.685 -3.4518 -3.9198 0
M  V30 3378 H 313.379 -2.1788 -2.0535 0
M  V30 3379 H 310.925 -1.04891 -0.986605 0
M  V30 3380 H 312.878 -0.886678 -4.11966 0
M  V30 3381 H 311.602 0.0163404 -3.26596 0
M  V30 3382 H 310.261 -2.10012 -3.00484 0
M  V30 3383 H 309.909 -0.622107 -4.99138 0
M  V30 3384 H 309.609 -2.33143 -5.39368 0
M  V30 3385 H 311.133 -1.55201 -5.90546 0
M  V30 3386 H 312.547 -3.4145 -4.60526 0
M  V30 3387 H 310.944 -4.1559 -4.32903 0
M  V30 3388 H 312.014 -3.84903 -2.94919 0
M  V30 3389 N 313.357 1.07166 -1.15556 0
M  V30 3390 C 314.32 2.12589 -0.856644 0
M  V30 3391 C 315.32 1.6015 0.14444 0
M  V30 3392 O 316.51 1.7399 -0.0854163 0
M  V30 3393 C 313.642 3.39753 -0.279405 0
M  V30 3394 H 314.835 2.40539 -1.79112 0
M  V30 3395 H 312.388 1.23086 -0.963298 0
M  V30 3396 H 313.123 3.17447 0.663174 0
M  V30 3397 H 312.908 3.79117 -1.00063 0
M  V30 3398 H 314.398 4.17507 -0.0879113 0
M  V30 3399 N 314.835 0.952656 1.25548 0
M  V30 3400 C 316.112 0.523818 1.88456 0
M  V30 3401 C 316.492 -0.998871 1.85973 0
M  V30 3402 O 315.84 -1.86381 1.3219 0
M  V30 3403 C 316.05 1.0982 3.31271 0
M  V30 3404 C 317.398 1.17385 4.08051 0
M  V30 3405 O 318.422 1.04961 3.40384 0
M  V30 3406 O 317.281 1.36852 5.29088 0
M  V30 3407 H 314.375 0.172485 0.808813 0
M  V30 3408 H 316.921 1.04596 1.33633 0
M  V30 3409 H 315.693 2.1415 3.27499 0
M  V30 3410 H 315.316 0.559191 3.93648 0
M  V30 3411 N 316.313 -1.40141 0.720998 0
M  V30 3412 C 317.724 -1.83678 0.334553 0
M  V30 3413 C 318.075 -1.6027 -1.13173 0
M  V30 3414 O 317.2 -1.08643 -1.87152 0
M  V30 3415 C 317.795 -3.33437 0.600437 0
M  V30 3416 C 316.354 -3.75447 0.267642 0
M  V30 3417 C 315.501 -2.63296 0.870097 0
M  V30 3418 H 318.452 -1.29331 0.919732 0
M  V30 3419 H 318.473 -3.80269 -0.132517 0
M  V30 3420 H 317.985 -3.50442 1.66768 0
M  V30 3421 H 316.086 -3.64035 -0.794329 0
M  V30 3422 H 316.199 -4.73344 0.74042 0
M  V30 3423 H 314.563 -2.52954 0.297739 0
M  V30 3424 H 315.346 -2.83112 1.94172 0
M  V30 3425 N 317.792 -0.46758 -1.50504 0
M  V30 3426 C 318.755 0.317059 -2.26996 0
M  V30 3427 C 319.755 0.923513 -1.31635 0
M  V30 3428 O 320.945 0.793239 -1.55091 0
M  V30 3429 C 318.077 1.45134 -3.08462 0
M  V30 3430 H 319.27 -0.353723 -2.97807 0
M  V30 3431 H 316.823 -0.221545 -1.54722 0
M  V30 3432 H 317.558 2.15728 -2.4214 0
M  V30 3433 H 317.343 1.02232 -3.78538 0
M  V30 3434 H 318.833 2.00493 -3.66323 0
M  V30 3435 N 319.27 1.56325 -0.20005 0
M  V30 3436 C 320.517 1.97719 0.437411 0
M  V30 3437 C 320.845 1.08709 1.61284 0
M  V30 3438 O 320.1 0.127261 1.95286 0
M  V30 3439 C 320.399 3.4495 0.935103 0
M  V30 3440 C 320.065 4.5072 -0.12749 0
M  V30 3441 C 318.727 4.79368 -0.419451 0
M  V30 3442 C 321.079 5.14268 -0.847231 0
M  V30 3443 C 318.407 5.68854 -1.43604 0
M  V30 3444 C 320.759 6.04852 -1.85301 0
M  V30 3445 C 319.423 6.31855 -2.15211 0
M  V30 3446 H 318.693 0.723507 0.16006 0
M  V30 3447 H 321.34 1.89166 -0.298056 0
M  V30 3448 H 319.645 3.50599 1.74894 0
M  V30 3449 H 321.342 3.74337 1.43781 0
M  V30 3450 H 317.932 4.28458 0.11023 0
M  V30 3451 H 322.116 4.92222 -0.634901 0
M  V30 3452 H 317.372 5.88047 -1.67364 0
M  V30 3453 H 321.546 6.53152 -2.41591 0
M  V30 3454 H 319.173 7.00994 -2.94129 0
M  V30 3455 N 320.748 -0.0735177 1.57428 0
M  V30 3456 C 321.997 -0.771809 1.86349 0
M  V30 3457 C 322.31 -1.78828 0.792452 0
M  V30 3458 O 323.516 -2.53602 0.96945 0
M  V30 3459 C 321.972 -1.42358 3.30548 0
M  V30 3460 C 321.58 -0.445761 4.45777 0
M  V30 3461 C 323.324 -2.10434 3.6867 0
M  V30 3462 C 321.231 -1.10335 5.81016 0
M  V30 3463 H 320.161 -0.291999 0.695164 0
M  V30 3464 H 322.812 -0.0250749 1.83483 0
M  V30 3465 H 321.194 -2.21852 3.28021 0
M  V30 3466 H 322.368 0.319239 4.59693 0
M  V30 3467 H 320.683 0.130457 4.16196 0
M  V30 3468 H 323.28 -2.60405 4.67004 0
M  V30 3469 H 323.623 -2.90298 2.98383 0
M  V30 3470 H 324.156 -1.37773 3.7318 0
M  V30 3471 H 320.895 -0.345061 6.54591 0
M  V30 3472 H 320.415 -1.83925 5.70904 0
M  V30 3473 H 322.094 -1.62367 6.26295 0
M  V30 3474 N 322.226 -1.5378 -0.344866 0
M  V30 3475 C 323.642 -1.44015 -0.687888 0
M  V30 3476 C 323.842 -0.595834 -1.92489 0
M  V30 3477 O 322.898 -0.0863064 -2.52352 0
M  V30 3478 C 324.211 -2.87481 -0.881758 0
M  V30 3479 C 325.759 -2.97247 -0.980459 0
M  V30 3480 C 326.234 -4.41819 -1.20665 0
M  V30 3481 N 327.725 -4.45339 -1.27389 0
M  V30 3482 C 328.46 -5.54333 -1.46639 0
M  V30 3483 N 327.956 -6.73335 -1.63071 0
M  V30 3484 N 329.749 -5.41944 -1.49176 0
M  V30 3485 H 321.9 -2.07169 0.468475 0
M  V30 3486 H 324.163 -0.93643 0.147655 0
M  V30 3487 H 323.869 -3.51672 -0.0443444 0
M  V30 3488 H 323.743 -3.32352 -1.78388 0
M  V30 3489 H 326.13 -2.33197 -1.8084 0
M  V30 3490 H 326.211 -2.5574 -0.0552713 0
M  V30 3491 H 325.855 -5.06449 -0.383652 0
M  V30 3492 H 325.785 -4.80917 -2.14539 0
M  V30 3493 H 328.276 -3.59585 -1.1622 0
M  V30 3494 H 328.589 -7.52165 -1.77391 0
M  V30 3495 H 326.934 -6.76282 -1.60209 0
M  V30 3496 H 330.125 -4.47932 -1.3592 0
M  V30 3497 H 330.298 -6.26946 -1.63837 0
M  V30 3498 N 323.704 0.605807 -1.45491 0
M  V30 3499 C 324.667 1.69836 -1.5391 0
M  V30 3500 C 325.667 1.55261 -0.418424 0
M  V30 3501 O 326.857 1.60296 -0.681965 0
M  V30 3502 C 323.989 3.09117 -1.43734 0
M  V30 3503 H 325.182 1.63738 -2.51257 0
M  V30 3504 H 322.735 0.821689 -1.32959 0
M  V30 3505 H 323.47 3.20791 -0.475788 0
M  V30 3506 H 323.255 3.21104 -2.25021 0
M  V30 3507 H 324.745 3.88696 -1.52661 0
M  V30 3508 N 325.182 1.32811 0.848464 0
M  V30 3509 C 326.428 1.24917 1.60522 0
M  V30 3510 C 326.783 -0.185761 1.91501 0
M  V30 3511 O 326.076 -1.12524 1.55077 0
M  V30 3512 C 326.27 2.04831 2.92881 0
M  V30 3513 C 326.099 3.55949 2.74828 0
M  V30 3514 C 324.869 4.25277 2.72887 0
M  V30 3515 C 327.067 4.50476 2.48145 0
M  V30 3516 N 325.049 5.62408 2.46111 0
M  V30 3517 C 326.42 5.75427 2.30832 0
M  V30 3518 C 328.475 4.39665 2.33664 0
M  V30 3519 C 327.178 6.90789 2.00508 0
M  V30 3520 C 329.204 5.54833 2.04731 0
M  V30 3521 C 328.566 6.78787 1.88223 0
M  V30 3522 H 324.665 0.512279 0.590842 0
M  V30 3523 H 327.249 1.67246 0.996839 0
M  V30 3524 H 325.42 1.64837 3.51686 0
M  V30 3525 H 327.152 1.88782 3.57971 0
M  V30 3526 H 323.907 3.77456 2.86049 0
M  V30 3527 H 324.331 6.3467 2.35634 0
M  V30 3528 H 328.973 3.44477 2.45144 0
M  V30 3529 H 326.691 7.85984 1.87765 0
M  V30 3530 H 330.277 5.48398 1.94295 0
M  V30 3531 H 329.157 7.66396 1.66155 0
M  V30 3532 N 326.66 -1.06551 1.16123 0
M  V30 3533 C 327.906 -1.79567 0.94252 0
M  V30 3534 C 328.239 -1.86869 -0.528547 0
M  V30 3535 O 327.514 -1.35838 -1.39206 0
M  V30 3536 C 327.797 -3.24195 1.56747 0
M  V30 3537 C 327.65 -3.24989 3.10969 0
M  V30 3538 C 328.969 -4.21678 1.25998 0
M  V30 3539 H 326.088 -0.651883 0.343828 0
M  V30 3540 H 328.73 -1.2463 1.43413 0
M  V30 3541 H 326.88 -3.71107 1.14942 0
M  V30 3542 H 328.552 -2.86258 3.61737 0
M  V30 3543 H 326.795 -2.63716 3.44436 0
M  V30 3544 H 327.466 -4.27005 3.49815 0
M  V30 3545 H 329.942 -3.83196 1.62174 0
M  V30 3546 H 328.818 -5.21146 1.7233 0
M  V30 3547 H 329.079 -4.4174 0.178367 0
M  V30 3548 N 328.138 -0.959301 -1.25041 0
M  V30 3549 C 329.386 -0.615393 -1.92503 0
M  V30 3550 C 329.707 0.850969 -1.75452 0
M  V30 3551 O 328.977 1.60658 -1.12098 0
M  V30 3552 H 327.557 -0.224613 -0.712431 0
M  V30 3553 H 330.219 -1.21855 -1.5211 0
M  V30 3554 H 329.315 -0.848738 -3.00338 0
M  V30 3555 N 329.616 1.39756 -0.72842 0
M  V30 3556 C 330.864 2.00248 -0.272946 0
M  V30 3557 C 331.185 1.58077 1.14178 0
M  V30 3558 O 330.455 0.826014 1.77634 0
M  V30 3559 H 329.035 0.740554 -0.0979247 0
M  V30 3560 H 331.697 1.70903 -0.936912 0
M  V30 3561 H 330.793 3.10495 -0.316142 0
M  V30 3562 N 331.094 0.475555 1.50254 0
M  V30 3563 C 332.34 -0.0780073 2.0265 0
M  V30 3564 C 332.673 -1.38968 1.35652 0
M  V30 3565 O 331.948 -1.8839 0.483691 0
M  V30 3566 C 332.231 -0.257161 3.59181 0
M  V30 3567 C 332.084 1.07585 4.36744 0
M  V30 3568 C 333.403 -1.00965 4.28362 0
M  V30 3569 H 330.522 -0.0268758 0.73651 0
M  V30 3570 H 333.164 0.622015 1.7953 0
M  V30 3571 H 331.314 -0.853412 3.79011 0
M  V30 3572 H 332.986 1.70902 4.28474 0
M  V30 3573 H 331.229 1.6714 4.00308 0
M  V30 3574 H 331.9 0.904088 5.44546 0
M  V30 3575 H 334.376 -0.504214 4.13034 0
M  V30 3576 H 333.252 -1.10381 5.37687 0
M  V30 3577 H 333.513 -2.04731 3.91839 0
M  V30 3578 N 332.573 -1.56217 0.208337 0
M  V30 3579 C 333.821 -1.97558 -0.426076 0
M  V30 3580 C 334.142 -1.09683 -1.61229 0
M  V30 3581 O 333.412 -0.170956 -1.95153 0
M  V30 3582 H 331.992 -0.729575 -0.160405 0
M  V30 3583 H 334.654 -1.92606 0.298155 0
M  V30 3584 H 333.75 -3.02672 -0.761312 0
M  V30 3585 N 334.051 0.0651679 -1.57465 0
M  V30 3586 C 334.999 1.09542 -2.05191 0
M  V30 3587 C 335.993 1.39675 -0.958509 0
M  V30 3588 O 337.199 1.39003 -1.14359 0
M  V30 3589 H 333.574 0.370623 -0.654326 0
M  V30 3590 H 335.545 0.666802 -2.90854 0
M  V30 3591 C 334.294 2.39881 -2.51699 0
M  V30 3592 H 333.617 2.17547 -3.3543 0
M  V30 3593 H 335.057 3.104 -2.88839 0
M  V30 3594 C 333.516 3.0631 -1.40271 0
M  V30 3595 O 334.046 3.94664 -0.748523 0
M  V30 3596 N 332.252 2.67041 -1.14618 0
M  V30 3597 H 331.799 1.95281 -1.67997 0
M  V30 3598 H 331.757 3.1181 -0.402688 0
M  V30 3599 N 335.529 1.53961 0.336706 0
M  V30 3600 C 336.759 1.75229 1.09446 0
M  V30 3601 C 337.167 0.494602 1.82621 0
M  V30 3602 O 336.51 -0.543764 1.75468 0
M  V30 3603 C 336.572 2.88288 2.1478 0
M  V30 3604 C 336.236 4.27656 1.6112 0
M  V30 3605 C 337.233 5.08981 1.0599 0
M  V30 3606 C 334.918 4.74161 1.6576 0
M  V30 3607 C 336.912 6.34916 0.562129 0
M  V30 3608 C 334.599 6.00067 1.15595 0
M  V30 3609 C 335.597 6.80278 0.609147 0
M  V30 3610 O 335.285 8.03818 0.114999 0
M  V30 3611 H 335.017 0.588881 0.331956 0
M  V30 3612 H 337.571 2.01614 0.392566 0
M  V30 3613 H 335.801 2.57443 2.88548 0
M  V30 3614 H 337.49 2.97461 2.76174 0
M  V30 3615 H 338.256 4.74213 1.01722 0
M  V30 3616 H 334.135 4.11781 2.07261 0
M  V30 3617 H 337.679 6.9747 0.134668 0
M  V30 3618 H 333.576 6.3433 1.19566 0
M  V30 3619 H 334.344 8.18172 0.231651 0
M  V30 3620 N 337.007 -0.598083 1.45811 0
M  V30 3621 C 337.954 -1.7082 1.55207 0
M  V30 3622 C 338.924 -1.61278 0.39732 0
M  V30 3623 O 340.109 -1.80717 0.612038 0
M  V30 3624 C 337.249 -3.09144 1.53376 0
M  V30 3625 C 336.362 -3.29423 2.79472 0
M  V30 3626 C 335.497 -4.57907 2.69248 0
M  V30 3627 C 334.536 -4.71476 3.90354 0
M  V30 3628 N 333.673 -5.9127 3.78608 0
M  V30 3629 H 338.513 -1.62125 2.50039 0
M  V30 3630 H 336.05 -0.790389 1.24062 0
M  V30 3631 H 338.008 -3.89186 1.50301 0
M  V30 3632 H 336.638 -3.16773 0.620876 0
M  V30 3633 H 335.69 -2.43091 2.92594 0
M  V30 3634 H 337.002 -3.3532 3.69272 0
M  V30 3635 H 336.156 -5.46157 2.64192 0
M  V30 3636 H 334.895 -4.54423 1.77063 0
M  V30 3637 H 333.9 -3.81648 3.95759 0
M  V30 3638 H 335.125 -4.76751 4.83617 0
M  V30 3639 H 333.071 -5.88813 2.89199 0
M  V30 3640 H 332.988 -5.98369 4.6205 0
M  V30 3641 H 334.256 -6.81992 3.77501 0
M  V30 3642 N 338.485 -1.33259 -0.841409 0
M  V30 3643 C 339.415 -1.25926 -1.96634 0
M  V30 3644 C 340.396 -0.140349 -1.6952 0
M  V30 3645 O 341.581 -0.329707 -1.91381 0
M  V30 3646 C 338.711 -0.99512 -3.32738 0
M  V30 3647 C 337.665 -2.0767 -3.74242 0
M  V30 3648 C 336.991 -1.66474 -5.08125 0
M  V30 3649 C 338.291 -3.49318 -3.88297 0
M  V30 3650 H 339.985 -2.20046 -2.03027 0
M  V30 3651 H 337.531 -1.05931 -0.975425 0
M  V30 3652 H 339.484 -0.930323 -4.11002 0
M  V30 3653 H 338.208 -0.0183004 -3.26595 0
M  V30 3654 H 336.867 -2.13187 -2.98239 0
M  V30 3655 H 336.515 -0.675012 -4.9845 0
M  V30 3656 H 336.215 -2.3885 -5.36865 0
M  V30 3657 H 337.739 -1.61455 -5.88867 0
M  V30 3658 H 339.153 -3.46316 -4.56879 0
M  V30 3659 H 337.55 -4.20158 -4.28471 0
M  V30 3660 H 338.62 -3.8801 -2.9082 0
M  V30 3661 N 339.963 1.05934 -1.16686 0
M  V30 3662 C 341.211 1.78447 -0.948744 0
M  V30 3663 C 341.532 1.87813 0.524523 0
M  V30 3664 O 340.802 1.38945 1.38098 0
M  V30 3665 H 339.382 0.660971 -0.348033 0
M  V30 3666 H 342.044 1.27947 -1.47022 0
M  V30 3667 H 341.14 2.80394 -1.37061 0
M  V30 3668 N 341.441 0.965919 1.2453 0
M  V30 3669 C 342.689 0.625593 1.92174 0
M  V30 3670 C 343.01 -0.841652 1.75901 0
M  V30 3671 O 342.28 -1.60061 1.12948 0
M  V30 3672 H 340.86 0.228388 0.71123 0
M  V30 3673 H 343.522 1.2266 1.51461 0
M  V30 3674 H 342.618 0.864653 2.99884 0
M  V30 3675 N 342.919 -1.39368 0.735821 0
M  V30 3676 C 343.867 -2.32443 0.0855131 0
M  V30 3677 C 344.861 -1.53104 -0.724954 0
M  V30 3678 O 346.067 -1.68762 -0.626047 0
M  V30 3679 H 342.442 -0.751948 0.00885257 0
M  V30 3680 H 344.413 -2.84916 0.886883 0
M  V30 3681 C 343.162 -3.38206 -0.806983 0
M  V30 3682 H 342.485 -3.99335 -0.19274 0
M  V30 3683 H 343.925 -4.05779 -1.2296 0
M  V30 3684 C 342.384 -2.75321 -1.94165 0
M  V30 3685 O 342.914 -2.63231 -3.03435 0
M  V30 3686 N 341.12 -2.33396 -1.73132 0
M  V30 3687 H 340.667 -2.4343 -0.842596 0
M  V30 3688 H 340.625 -1.91661 -2.49225 0
M  V30 3689 N 344.397 -0.483516 -1.5 0
M  V30 3690 C 345.627 0.0643896 -2.065 0
M  V30 3691 C 346.035 1.32949 -1.34615 0
M  V30 3692 O 345.378 1.79003 -0.412756 0
M  V30 3693 C 345.44 0.405983 -3.572 0
M  V30 3694 C 345.104 -0.758875 -4.50655 0
M  V30 3695 C 346.101 -1.64445 -4.93208 0
M  V30 3696 C 343.786 -0.952725 -4.93182 0
M  V30 3697 C 345.78 -2.70818 -5.77006 0
M  V30 3698 C 343.467 -2.01966 -5.76761 0
M  V30 3699 C 344.465 -2.89574 -6.18576 0
M  V30 3700 O 344.153 -3.94429 -7.00486 0
M  V30 3701 H 343.885 -0.00934786 -0.675935 0
M  V30 3702 H 346.439 -0.674959 -1.93993 0
M  V30 3703 H 344.669 1.19869 -3.67652 0
M  V30 3704 H 346.358 0.890433 -3.96013 0
M  V30 3705 H 347.124 -1.50643 -4.61012 0
M  V30 3706 H 343.003 -0.280247 -4.60147 0
M  V30 3707 H 346.547 -3.3923 -6.09565 0
M  V30 3708 H 342.444 -2.1577 -6.0837 0
M  V30 3709 H 343.212 -3.91568 -7.1876 0
M  V30 3710 N 345.875 1.56104 -0.216619 0
M  V30 3711 C 347.123 1.97781 0.415593 0
M  V30 3712 C 347.444 1.10536 1.60645 0
M  V30 3713 O 346.714 0.181303 1.95059 0
M  V30 3714 H 345.294 0.730415 0.156534 0
M  V30 3715 H 347.956 1.92445 -0.308366 0
M  V30 3716 H 347.052 3.03072 0.74525 0
M  V30 3717 N 347.353 -0.0568162 1.57498 0
M  V30 3718 C 348.764 -0.606858 1.76562 0
M  V30 3719 C 349.115 -1.77114 0.844094 0
M  V30 3720 O 348.24 -2.16376 0.0318911 0
M  V30 3721 C 348.835 -1.10766 3.20182 0
M  V30 3722 C 347.394 -1.60344 3.40539 0
M  V30 3723 C 346.541 -0.529311 2.72201 0
M  V30 3724 H 349.492 0.169393 1.57793 0
M  V30 3725 H 349.513 -1.97602 3.25167 0
M  V30 3726 H 349.025 -0.26006 3.87228 0
M  V30 3727 H 347.126 -2.47379 2.78629 0
M  V30 3728 H 347.239 -1.67006 4.4905 0
M  V30 3729 H 345.603 -0.977893 2.35179 0
M  V30 3730 H 346.386 0.308352 3.41912 0
M  V30 3731 N 348.832 -1.54138 -0.328536 0
M  V30 3732 C 350.06 -1.76062 -1.08673 0
M  V30 3733 C 350.475 -0.506852 -1.81869 0
M  V30 3734 O 349.832 0.522223 -1.74869 0
M  V30 3735 C 349.883 -2.95054 -2.08866 0
M  V30 3736 O 349.604 -4.15583 -1.38644 0
M  V30 3737 C 351.105 -3.2915 -2.96943 0
M  V30 3738 H 348.325 -0.587889 -0.323461 0
M  V30 3739 H 350.869 -2.0101 -0.376175 0
M  V30 3740 H 349.024 -2.72394 -2.75464 0
M  V30 3741 H 349.438 -4.82481 -2.05699 0
M  V30 3742 H 350.912 -4.15723 -3.63151 0
M  V30 3743 H 351.389 -2.461 -3.63774 0
M  V30 3744 H 351.995 -3.53871 -2.35914 0
M  V30 3745 N 350.31 0.590341 -1.46126 0
M  V30 3746 C 351.556 1.35082 -1.51264 0
M  V30 3747 C 351.889 1.93534 -0.160711 0
M  V30 3748 O 351.164 1.76045 0.826956 0
M  V30 3749 C 351.447 2.48588 -2.6053 0
M  V30 3750 C 351.3 1.95221 -4.05227 0
M  V30 3751 C 352.619 3.50662 -2.6594 0
M  V30 3752 H 349.738 0.489803 -0.550692 0
M  V30 3753 H 352.38 0.663887 -1.78024 0
M  V30 3754 H 350.53 3.07186 -2.37843 0
M  V30 3755 H 352.202 1.41139 -4.39178 0
M  V30 3756 H 350.445 1.26101 -4.15068 0
M  V30 3757 H 351.116 2.77121 -4.77397 0
M  V30 3758 H 353.592 3.01934 -2.86313 0
M  V30 3759 H 352.468 4.27551 -3.44226 0
M  V30 3760 H 352.729 4.07399 -1.71694 0
M  V30 3761 N 351.788 1.33704 0.83433 0
M  V30 3762 C 352.718 1.26967 1.95963 0
M  V30 3763 C 353.699 0.149337 1.69443 0
M  V30 3764 O 354.884 0.339852 1.91203 0
M  V30 3765 C 352.014 1.01275 3.32206 0
M  V30 3766 C 350.968 2.09652 3.73136 0
M  V30 3767 C 350.294 1.69166 5.07235 0
M  V30 3768 C 351.594 3.51372 3.86439 0
M  V30 3769 H 353.288 2.2112 2.01857 0
M  V30 3770 H 350.834 1.06447 0.969793 0
M  V30 3771 H 352.787 0.952106 4.10503 0
M  V30 3772 H 351.511 0.0356203 3.26581 0
M  V30 3773 H 350.17 2.14766 2.97104 0
M  V30 3774 H 349.818 0.701437 4.98085 0
M  V30 3775 H 349.518 2.41694 5.35591 0
M  V30 3776 H 351.042 1.64576 5.88003 0
M  V30 3777 H 352.456 3.48734 4.55036 0
M  V30 3778 H 350.853 4.22425 4.26236 0
M  V30 3779 H 351.923 3.89546 2.88759 0
M  V30 3780 N 353.266 -1.05314 1.17247 0
M  V30 3781 C 354.512 -1.78557 0.961513 0
M  V30 3782 C 354.845 -1.87419 -0.508697 0
M  V30 3783 O 354.12 -1.37307 -1.37757 0
M  V30 3784 C 354.403 -3.22514 1.60176 0
M  V30 3785 C 354.256 -3.21673 3.14399 0
M  V30 3786 C 355.575 -4.20318 1.30463 0
M  V30 3787 H 352.694 -0.6482 0.350723 0
M  V30 3788 H 355.336 -1.23102 1.44727 0
M  V30 3789 H 353.486 -3.69867 1.18871 0
M  V30 3790 H 355.158 -2.82405 3.64753 0
M  V30 3791 H 353.401 -2.60048 3.47214 0
M  V30 3792 H 354.072 -4.23271 3.54324 0
M  V30 3793 H 356.548 -3.81454 1.66229 0
M  V30 3794 H 355.424 -5.19289 1.77848 0
M  V30 3795 H 355.685 -4.41526 0.22521 0
M  V30 3796 N 354.744 -0.972509 -1.24016 0
M  V30 3797 C 355.676 -0.464375 -2.24446 0
M  V30 3798 C 356.689 0.4295 -1.57032 0
M  V30 3799 O 357.878 0.234902 -1.76948 0
M  V30 3800 C 354.978 0.348385 -3.37105 0
M  V30 3801 C 354.151 -0.53673 -4.34094 0
M  V30 3802 C 353.21 0.220838 -5.25736 0
M  V30 3803 O 352.236 -0.386867 -5.67884 0
M  V30 3804 N 353.438 1.50907 -5.60542 0
M  V30 3805 H 356.203 -1.32788 -2.68677 0
M  V30 3806 H 353.764 -0.844877 -1.38107 0
M  V30 3807 H 355.756 0.863341 -3.95384 0
M  V30 3808 H 354.326 1.11285 -2.92121 0
M  V30 3809 H 353.546 -1.23261 -3.74433 0
M  V30 3810 H 354.834 -1.14022 -4.95859 0
M  V30 3811 H 354.232 2.02444 -5.28236 0
M  V30 3812 H 352.789 1.96962 -6.21329 0
M  V30 3813 N 356.222 1.38976 -0.743202 0
M  V30 3814 C 357.154 2.29096 -0.0689228 0
M  V30 3815 C 358.167 1.47229 0.694791 0
M  V30 3816 O 359.356 1.70212 0.537597 0
M  V30 3817 C 356.456 3.25988 0.926548 0
M  V30 3818 C 355.629 4.36833 0.222647 0
M  V30 3819 C 354.688 5.13981 1.12739 0
M  V30 3820 O 353.714 5.6601 0.601795 0
M  V30 3821 N 354.916 5.25966 2.45641 0
M  V30 3822 H 357.681 2.87604 -0.842846 0
M  V30 3823 H 355.242 1.50645 -0.593109 0
M  V30 3824 H 357.234 3.74476 1.5346 0
M  V30 3825 H 355.804 2.68453 1.60162 0
M  V30 3826 H 355.024 3.90116 -0.565983 0
M  V30 3827 H 356.312 5.0811 -0.264841 0
M  V30 3828 H 355.71 4.85228 2.9081 0
M  V30 3829 H 354.267 5.77865 3.01522 0
M  V30 3830 N 357.7 0.491464 1.49741 0
M  V30 3831 C 358.61 -0.296835 2.32715 0
M  V30 3832 C 359.626 -0.976536 1.44013 0
M  V30 3833 O 360.802 -0.960023 1.77047 0
M  V30 3834 C 357.867 -1.35288 3.19215 0
M  V30 3835 C 356.928 -0.687632 4.23757 0
M  V30 3836 C 356.161 -1.69336 5.06123 0
M  V30 3837 O 356.384 -2.92219 4.89861 0
M  V30 3838 O 355.318 -1.25394 5.88693 0
M  V30 3839 H 359.144 0.382048 3.01287 0
M  V30 3840 H 356.729 0.252953 1.47243 0
M  V30 3841 H 358.611 -1.96411 3.72828 0
M  V30 3842 H 357.286 -2.01487 2.53347 0
M  V30 3843 H 356.193 -0.0369159 3.74082 0
M  V30 3844 H 357.526 -0.0682566 4.92153 0
M  V30 3845 N 359.178 -1.55987 0.224894 0
M  V30 3846 C 360.141 -2.19178 -0.670348 0
M  V30 3847 C 361.141 -1.15461 -1.11917 0
M  V30 3848 O 362.331 -1.40675 -1.02743 0
M  V30 3849 C 359.463 -2.81777 -1.9187 0
M  V30 3850 H 360.656 -2.99662 -0.119364 0
M  V30 3851 H 358.209 -1.5628 -0.0247128 0
M  V30 3852 H 358.944 -2.05172 -2.51147 0
M  V30 3853 H 358.729 -3.57732 -1.60531 0
M  V30 3854 H 360.219 -3.30205 -2.55645 0
M  V30 3855 N 360.656 0.0484629 -1.57525 0
M  V30 3856 C 361.586 1.0549 -2.08313 0
M  V30 3857 C 362.567 1.38929 -0.981463 0
M  V30 3858 O 363.752 1.48151 -1.25558 0
M  V30 3859 C 360.882 2.36162 -2.54646 0
M  V30 3860 C 359.836 2.17016 -3.68901 0
M  V30 3861 C 359.162 3.53278 -4.01371 0
M  V30 3862 C 360.462 1.57219 -4.98076 0
M  V30 3863 H 362.156 0.632195 -2.92649 0
M  V30 3864 H 359.702 0.302654 -1.40784 0
M  V30 3865 H 361.655 3.06882 -2.88793 0
M  V30 3866 H 360.379 2.80456 -1.67368 0
M  V30 3867 H 359.038 1.48733 -3.35073 0
M  V30 3868 H 358.686 3.95185 -3.11188 0
M  V30 3869 H 358.386 3.41299 -4.78318 0
M  V30 3870 H 359.91 4.25391 -4.38035 0
M  V30 3871 H 361.324 2.17832 -5.30304 0
M  V30 3872 H 359.721 1.55871 -5.79503 0
M  V30 3873 H 360.791 0.535956 -4.81929 0
M  V30 3874 N 362.134 1.5431 0.320358 0
M  V30 3875 C 363.081 1.83918 1.39438 0
M  V30 3876 C 364.051 0.686525 1.51248 0
M  V30 3877 O 365.236 0.933269 1.66417 0
M  V30 3878 C 362.376 2.075 2.75749 0
M  V30 3879 C 361.489 3.35177 2.72544 0
M  V30 3880 C 360.624 3.48704 4.00723 0
M  V30 3881 C 359.663 4.70244 3.91838 0
M  V30 3882 N 358.8 4.80679 5.11754 0
M  V30 3883 H 363.64 2.75544 1.13489 0
M  V30 3884 H 361.177 1.36459 0.549309 0
M  V30 3885 H 363.135 2.19166 3.54996 0
M  V30 3886 H 361.765 1.19163 3 0
M  V30 3887 H 360.817 3.32233 1.85271 0
M  V30 3888 H 362.129 4.24534 2.61863 0
M  V30 3889 H 361.283 3.59928 4.88402 0
M  V30 3890 H 360.022 2.57445 4.14214 0
M  V30 3891 H 359.027 4.59072 3.02544 0
M  V30 3892 H 360.252 5.6289 3.7991 0
M  V30 3893 H 358.198 3.92337 5.25745 0
M  V30 3894 H 358.115 5.64007 5.0342 0
M  V30 3895 H 359.383 4.96239 6.01138 0
M  V30 3896 N 363.613 -0.582584 1.46437 0
M  V30 3897 C 365.029 -0.905962 1.31394 0
M  V30 3898 C 365.229 -1.99468 0.285476 0
M  V30 3899 O 364.285 -2.50566 -0.311914 0
M  V30 3900 C 365.598 -1.3232 2.70022 0
M  V30 3901 C 367.146 -1.43604 2.78113 0
M  V30 3902 C 367.621 -1.88694 4.17323 0
M  V30 3903 N 369.112 -1.95887 4.19741 0
M  V30 3904 C 369.847 -2.32051 5.24347 0
M  V30 3905 N 369.343 -2.67006 6.39281 0
M  V30 3906 N 371.136 -2.32606 5.11713 0
M  V30 3907 H 363.287 0.1366 2.1196 0
M  V30 3908 H 365.55 -0.00155736 0.947999 0
M  V30 3909 H 365.256 -0.597242 3.46592 0
M  V30 3910 H 365.13 -2.28469 3.00136 0
M  V30 3911 H 367.517 -2.15286 2.01832 0
M  V30 3912 H 367.598 -0.457059 2.51684 0
M  V30 3913 H 367.242 -1.1759 4.941 0
M  V30 3914 H 367.172 -2.8755 4.4116 0
M  V30 3915 H 369.663 -1.71362 3.36814 0
M  V30 3916 H 369.976 -2.93554 7.14875 0
M  V30 3917 H 368.321 -2.64644 6.42642 0
M  V30 3918 H 371.512 -2.04721 4.2096 0
M  V30 3919 H 371.685 -2.60462 5.93349 0
M  V30 3920 N 365.091 -1.34144 -0.827227 0
M  V30 3921 C 366.339 -1.26009 -1.58007 0
M  V30 3922 C 366.66 0.170971 -1.94249 0
M  V30 3923 O 365.93 1.10256 -1.61927 0
M  V30 3924 H 364.51 -0.463414 -0.585881 0
M  V30 3925 H 367.172 -1.68005 -0.987951 0
M  V30 3926 H 366.268 -1.86187 -2.50481 0
M  V30 3927 N 366.569 1.04691 -1.17803 0
M  V30 3928 C 367.809 1.79352 -0.980423 0
M  V30 3929 C 368.173 1.85853 0.481958 0
M  V30 3930 O 369.374 2.56656 0.798809 0
M  V30 3931 C 367.645 3.19088 -1.6099 0
M  V30 3932 S 369.204 4.10164 -1.55918 0
M  V30 3933 H 366.022 0.617631 -0.352211 0
M  V30 3934 H 368.624 1.25575 -1.49837 0
M  V30 3935 H 367.328 3.11962 -2.66661 0
M  V30 3936 H 366.859 3.77941 -1.09197 0
M  V30 3937 H 368.874 4.92907 -0.570685 0
M  V30 3938 N 368.047 0.979072 1.23499 0
M  V30 3939 C 368.957 0.526431 2.28617 0
M  V30 3940 C 369.973 -0.418126 1.68901 0
M  V30 3941 O 371.149 -0.288372 1.99325 0
M  V30 3942 C 368.214 -0.165235 3.46306 0
M  V30 3943 C 367.275 0.82056 4.21385 0
M  V30 3944 C 366.508 0.161807 5.33455 0
M  V30 3945 O 366.731 -1.04742 5.60701 0
M  V30 3946 O 365.665 0.859708 5.95729 0
M  V30 3947 H 369.491 1.4006 2.69475 0
M  V30 3948 H 367.076 0.746643 1.29405 0
M  V30 3949 H 368.958 -0.553287 4.17752 0
M  V30 3950 H 367.633 -1.01419 3.07402 0
M  V30 3951 H 366.54 1.25929 3.52268 0
M  V30 3952 H 367.873 1.63828 4.64135 0
M  V30 3953 N 369.525 -1.3858 0.750561 0
M  V30 3954 C 370.457 -2.29057 0.0810714 0
M  V30 3955 C 371.47 -1.47596 -0.686973 0
M  V30 3956 O 372.659 -1.70495 -0.528563 0
M  V30 3957 C 369.759 -3.26475 -0.909247 0
M  V30 3958 C 368.932 -4.36945 -0.199478 0
M  V30 3959 C 367.991 -5.14572 -1.10011 0
M  V30 3960 O 367.017 -5.66321 -0.57177 0
M  V30 3961 N 368.219 -5.27262 -2.42849 0
M  V30 3962 H 370.984 -2.87153 0.858087 0
M  V30 3963 H 368.545 -1.50328 0.60109 0
M  V30 3964 H 370.537 -3.75285 -1.51471 0
M  V30 3965 H 369.107 -2.69298 -1.58736 0
M  V30 3966 H 368.327 -3.8981 0.586664 0
M  V30 3967 H 369.615 -5.07963 0.291783 0
M  V30 3968 H 369.013 -4.86763 -2.88233 0
M  V30 3969 H 367.57 -5.79456 -2.98453 0
M  V30 3970 N 371.003 -0.499398 -1.49478 0
M  V30 3971 C 372.249 0.0457576 -2.02748 0
M  V30 3972 C 372.582 1.36793 -1.37846 0
M  V30 3973 O 371.857 1.87596 -0.513601 0
M  V30 3974 C 372.14 0.199986 -3.59544 0
M  V30 3975 C 371.993 -1.1452 -4.34977 0
M  V30 3976 C 373.312 0.94137 -4.29914 0
M  V30 3977 H 370.431 0.0151552 -0.736844 0
M  V30 3978 H 373.073 -0.650498 -1.78518 0
M  V30 3979 H 371.223 0.793007 -3.8032 0
M  V30 3980 H 372.895 -1.77697 -4.25701 0
M  V30 3981 H 371.138 -1.73488 -3.97598 0
M  V30 3982 H 371.809 -0.990607 -5.43039 0
M  V30 3983 H 374.285 0.43844 -4.13784 0
M  V30 3984 H 373.161 1.01812 -5.39375 0
M  V30 3985 H 373.422 1.98471 -3.95046 0
M  V30 3986 N 372.481 1.55866 -0.233164 0
M  V30 3987 C 373.411 2.23783 0.666599 0
M  V30 3988 C 374.392 1.21343 1.19205 0
M  V30 3989 O 375.577 1.4996 1.23392 0
M  V30 3990 C 372.707 2.92671 1.86978 0
M  V30 3991 C 371.661 4.01682 1.47768 0
M  V30 3992 C 370.987 4.57926 2.76058 0
M  V30 3993 C 372.287 5.18126 0.658993 0
M  V30 3994 H 373.981 2.99232 0.100306 0
M  V30 3995 H 371.527 1.43924 0.046804 0
M  V30 3996 H 373.48 3.3888 2.50476 0
M  V30 3997 H 372.204 2.14688 2.46123 0
M  V30 3998 H 370.863 3.56222 0.866106 0
M  V30 3999 H 370.511 3.76659 3.33372 0
M  V30 4000 H 370.211 5.31505 2.50552 0
M  V30 4001 H 371.735 5.06859 3.40479 0
M  V30 4002 H 373.149 5.60644 1.19795 0
M  V30 4003 H 371.546 5.98009 0.500552 0
M  V30 4004 H 372.616 4.83763 -0.331856 0
M  V30 4005 N 373.959 -0.0401083 1.57549 0
M  V30 4006 C 375.205 -0.728793 1.89895 0
M  V30 4007 C 375.56 -1.73551 0.830535 0
M  V30 4008 O 374.853 -1.90914 -0.162007 0
M  V30 4009 C 375.047 -1.44902 3.26708 0
M  V30 4010 C 374.876 -0.513568 4.46758 0
M  V30 4011 C 373.646 -0.138698 5.0511 0
M  V30 4012 C 375.844 0.203341 5.13898 0
M  V30 4013 N 373.826 0.799159 6.08676 0
M  V30 4014 C 375.197 0.997246 6.11927 0
M  V30 4015 C 377.252 0.271459 4.97159 0
M  V30 4016 C 375.955 1.85299 6.95023 0
M  V30 4017 C 377.981 1.11429 5.80808 0
M  V30 4018 C 377.343 1.89615 6.78399 0
M  V30 4019 H 373.442 -0.241125 0.743897 0
M  V30 4020 H 376.026 0.0108016 1.94697 0
M  V30 4021 H 374.197 -2.15914 3.22856 0
M  V30 4022 H 375.929 -2.08921 3.46603 0
M  V30 4023 H 372.684 -0.498496 4.70969 0
M  V30 4024 H 373.108 1.26227 6.65128 0
M  V30 4025 H 377.75 -0.318709 4.21597 0
M  V30 4026 H 375.468 2.454 7.69938 0
M  V30 4027 H 379.054 1.17038 5.69906 0
M  V30 4028 H 377.934 2.53779 7.42001 0
M  V30 4029 N 375.437 -1.54477 -0.31217 0
M  V30 4030 C 376.367 -1.87652 -1.38957 0
M  V30 4031 C 377.348 -0.734358 -1.53431 0
M  V30 4032 O 378.533 -0.98911 -1.67123 0
M  V30 4033 C 375.663 -2.11396 -2.75552 0
M  V30 4034 C 374.617 -3.27243 -2.75855 0
M  V30 4035 C 373.943 -3.36382 -4.15633 0
M  V30 4036 C 375.243 -4.64622 -2.38587 0
M  V30 4037 H 376.937 -2.77887 -1.11442 0
M  V30 4038 H 374.483 -1.33707 -0.534655 0
M  V30 4039 H 376.436 -2.33189 -3.51 0
M  V30 4040 H 375.16 -1.17921 -3.04569 0
M  V30 4041 H 373.819 -3.05356 -2.02863 0
M  V30 4042 H 373.467 -2.40445 -4.41809 0
M  V30 4043 H 373.167 -4.14249 -4.1674 0
M  V30 4044 H 374.691 -3.60422 -4.92877 0
M  V30 4045 H 376.105 -4.86219 -3.03749 0
M  V30 4046 H 374.502 -5.45121 -2.50925 0
M  V30 4047 H 375.572 -4.66097 -1.33723 0
M  V30 4048 N 376.915 0.57481 -1.46744 0
M  V30 4049 C 378.145 1.35659 -1.55821 0
M  V30 4050 C 378.553 1.88129 -0.201036 0
M  V30 4051 O 377.896 1.64723 0.813134 0
M  V30 4052 C 377.958 2.57473 -2.50894 0
M  V30 4053 C 377.622 2.26415 -3.9697 0
M  V30 4054 C 378.619 1.84771 -4.85958 0
M  V30 4055 C 376.304 2.38316 -4.42166 0
M  V30 4056 C 378.298 1.55434 -6.18158 0
M  V30 4057 C 375.985 2.08591 -5.74398 0
M  V30 4058 C 376.983 1.67216 -6.62214 0
M  V30 4059 O 376.671 1.37859 -7.91991 0
M  V30 4060 H 376.403 0.420496 -0.529301 0
M  V30 4061 H 378.957 0.704967 -1.92923 0
M  V30 4062 H 377.187 3.25468 -2.08824 0
M  V30 4063 H 378.876 3.19546 -2.50291 0
M  V30 4064 H 379.642 1.75085 -4.52295 0
M  V30 4065 H 375.521 2.69483 -3.74032 0
M  V30 4066 H 379.065 1.23065 -6.86659 0
M  V30 4067 H 374.962 2.17905 -6.07608 0
M  V30 4068 H 375.73 1.51638 -8.04331 0
M  V30 4069 N 378.394 1.34581 0.820102 0
M  V30 4070 C 379.642 1.26845 1.57336 0
M  V30 4071 C 379.963 -0.160667 1.94337 0
M  V30 4072 O 379.233 -1.09396 1.6251 0
M  V30 4073 H 377.813 0.466514 0.583415 0
M  V30 4074 H 380.475 1.68526 0.979027 0
M  V30 4075 H 379.571 1.87513 2.4949 0
M  V30 4076 N 379.872 -1.04064 1.18357 0
M  V30 4077 C 381.283 -1.58719 0.98312 0
M  V30 4078 C 381.634 -1.90556 -0.467193 0
M  V30 4079 O 380.759 -1.69561 -1.34454 0
M  V30 4080 C 381.354 -2.88379 1.77828 0
M  V30 4081 C 379.913 -3.3965 1.62218 0
M  V30 4082 C 379.06 -2.13235 1.77274 0
M  V30 4083 H 382.011 -0.867359 1.32901 0
M  V30 4084 H 382.032 -3.58773 1.26737 0
M  V30 4085 H 381.544 -2.65176 2.83379 0
M  V30 4086 H 379.645 -3.67866 0.592036 0
M  V30 4087 H 379.758 -4.13475 2.42023 0
M  V30 4088 H 378.122 -2.24542 1.20221 0
M  V30 4089 H 378.905 -1.92487 2.8426 0
M  V30 4090 N 381.35 -0.985608 -1.22978 0
M  V30 4091 C 382.627 -0.573599 -1.87001 0
M  V30 4092 C 383.007 0.949213 -1.88555 0
M  V30 4093 O 382.355 1.82811 -1.37086 0
M  V30 4094 C 382.565 -1.18564 -3.28243 0
M  V30 4095 C 383.913 -1.28163 -4.04796 0
M  V30 4096 O 384.937 -1.13949 -3.37482 0
M  V30 4097 O 383.796 -1.50832 -5.25273 0
M  V30 4098 H 380.89 -0.193868 -0.803955 0
M  V30 4099 H 383.436 -1.08102 -1.30813 0
M  V30 4100 H 382.208 -2.22758 -3.21706 0
M  V30 4101 H 381.831 -0.663363 -3.92027 0
M  V30 4102 N 382.828 1.3818 -0.7579 0
M  V30 4103 C 383.778 2.27741 -0.108674 0
M  V30 4104 C 384.762 1.45415 0.688709 0
M  V30 4105 O 385.954 1.68108 0.553956 0
M  V30 4106 C 383.083 3.34313 0.780367 0
M  V30 4107 C 382.169 4.24093 -0.0240977 0
M  V30 4108 N 382.56 4.9451 -1.06271 0
M  V30 4109 C 380.858 4.45542 0.202049 0
M  V30 4110 C 381.559 5.60675 -1.54979 0
M  V30 4111 N 380.535 5.36684 -0.864348 0
M  V30 4112 H 384.337 2.79649 -0.904071 0
M  V30 4113 H 381.851 1.51133 -0.594346 0
M  V30 4114 H 383.848 3.97368 1.26114 0
M  V30 4115 H 382.508 2.83962 1.57467 0
M  V30 4116 H 383.519 4.97345 -1.44459 0
M  V30 4117 H 380.196 4.06091 0.96935 0
M  V30 4118 H 381.586 6.26992 -2.41517 0
M  V30 4119 N 384.306 0.507319 1.49211 0
M  V30 4120 C 385.238 -0.304532 2.27168 0
M  V30 4121 C 386.251 -0.924956 1.33972 0
M  V30 4122 O 387.44 -0.807227 1.59205 0
M  V30 4123 C 384.54 -1.44431 3.06583 0
M  V30 4124 C 383.713 -0.930026 4.27398 0
M  V30 4125 C 382.772 -1.94817 4.88807 0
M  V30 4126 O 381.798 -1.51418 5.4869 0
M  V30 4127 N 383 -3.279 4.79022 0
M  V30 4128 H 385.765 0.36395 2.97482 0
M  V30 4129 H 383.326 0.340249 1.58284 0
M  V30 4130 H 385.318 -2.12311 3.44537 0
M  V30 4131 H 383.888 -2.01684 2.38835 0
M  V30 4132 H 383.108 -0.0759244 3.94127 0
M  V30 4133 H 384.396 -0.564932 5.05654 0
M  V30 4134 H 383.794 -3.65843 4.3148 0
M  V30 4135 H 382.351 -3.91476 5.21142 0
M  V30 4136 N 385.784 -1.5574 0.241426 0
M  V30 4137 C 386.714 -2.24133 -0.654722 0
M  V30 4138 C 387.695 -1.21974 -1.1856 0
M  V30 4139 O 388.88 -1.50612 -1.22595 0
M  V30 4140 C 386.01 -2.93659 -1.85423 0
M  V30 4141 C 384.964 -4.0246 -1.45636 0
M  V30 4142 C 384.29 -4.59383 -2.73626 0
M  V30 4143 C 385.59 -5.18468 -0.631506 0
M  V30 4144 H 387.284 -2.99281 -0.0844353 0
M  V30 4145 H 384.83 -1.43947 -0.0391707 0
M  V30 4146 H 386.783 -3.40203 -2.48676 0
M  V30 4147 H 385.507 -2.15991 -2.44981 0
M  V30 4148 H 384.166 -3.56676 -0.847202 0
M  V30 4149 H 383.814 -3.78422 -3.3137 0
M  V30 4150 H 383.514 -5.32826 -2.4773 0
M  V30 4151 H 385.038 -5.08658 -3.37786 0
M  V30 4152 H 386.452 -5.61272 -1.1682 0
M  V30 4153 H 384.849 -5.98266 -0.468831 0
M  V30 4154 H 385.919 -4.8358 0.357506 0
M  V30 4155 N 387.262 0.0317525 -1.57568 0
M  V30 4156 C 388.49 0.734949 -1.93407 0
M  V30 4157 C 388.905 1.69036 -0.84096 0
M  V30 4158 O 388.262 1.81582 0.182836 0
M  V30 4159 C 388.313 1.49432 -3.29169 0
M  V30 4160 O 388.034 0.577261 -4.3428 0
M  V30 4161 C 389.535 2.29492 -3.79273 0
M  V30 4162 H 386.755 0.206706 -0.638368 0
M  V30 4163 H 389.299 -0.00992046 -2.04498 0
M  V30 4164 H 387.454 2.1911 -3.19483 0
M  V30 4165 H 387.868 1.10952 -5.1263 0
M  V30 4166 H 389.342 2.78172 -4.76785 0
M  V30 4167 H 389.819 3.10794 -3.10328 0
M  V30 4168 H 390.425 1.64894 -3.92033 0
M  V30 4169 N 388.74 1.54641 0.303973 0
M  V30 4170 C 389.65 1.88439 1.39743 0
M  V30 4171 C 390.666 0.778239 1.55626 0
M  V30 4172 O 391.842 1.07442 1.70347 0
M  V30 4173 C 388.907 2.12212 2.74166 0
M  V30 4174 C 387.968 3.35936 2.67293 0
M  V30 4175 C 387.201 3.58566 3.95305 0
M  V30 4176 O 387.424 2.84263 4.9452 0
M  V30 4177 O 386.358 4.52078 3.97378 0
M  V30 4178 H 390.184 2.81458 1.14083 0
M  V30 4179 H 387.769 1.40793 0.499768 0
M  V30 4180 H 389.651 2.29067 3.53704 0
M  V30 4181 H 388.326 1.22379 2.99675 0
M  V30 4182 H 387.233 3.24448 1.86237 0
M  V30 4183 H 388.566 4.2589 2.46736 0
M  V30 4184 N 390.218 -0.567019 1.47046 0
M  V30 4185 C 391.464 -1.32658 1.53394 0
M  V30 4186 C 391.797 -1.93254 0.19148 0
M  V30 4187 O 391.072 -1.77338 -0.798844 0
M  V30 4188 C 391.355 -2.44412 2.64452 0
M  V30 4189 C 391.208 -1.88749 4.08282 0
M  V30 4190 C 392.527 -3.46387 2.71485 0
M  V30 4191 H 389.646 -0.48098 0.558415 0
M  V30 4192 H 392.288 -0.635481 1.79058 0
M  V30 4193 H 390.438 -3.03363 2.427 0
M  V30 4194 H 392.11 -1.34134 4.41368 0
M  V30 4195 H 390.353 -1.19481 4.17021 0
M  V30 4196 H 391.024 -2.69491 4.81745 0
M  V30 4197 H 393.5 -2.9734 2.91081 0
M  V30 4198 H 392.376 -4.2202 3.50985 0
M  V30 4199 H 392.637 -4.04616 1.78153 0
M  V30 4200 N 391.696 -1.35014 -0.812953 0
M  V30 4201 C 392.944 -1.27678 -1.56661 0
M  V30 4202 C 393.265 0.150359 -1.94419 0
M  V30 4203 O 392.535 1.08532 -1.63088 0
M  V30 4204 H 391.115 -0.469602 -0.580933 0
M  V30 4205 H 393.777 -1.69043 -0.970076 0
M  V30 4206 H 392.873 -1.88833 -2.48492 0
M  V30 4207 N 393.175 1.03435 -1.18907 0
M  V30 4208 C 394.403 1.80381 -1.01342 0
M  V30 4209 C 394.818 1.83649 0.438005 0
M  V30 4210 O 394.175 1.27655 1.30424 0
M  V30 4211 C 394.226 3.25689 -1.56873 0
M  V30 4212 O 393.947 3.22673 -2.96334 0
M  V30 4213 C 395.448 4.19255 -1.44014 0
M  V30 4214 H 392.668 0.56784 -0.35749 0
M  V30 4215 H 395.212 1.30317 -1.576 0
M  V30 4216 H 393.367 3.72962 -1.04777 0
M  V30 4217 H 393.781 4.13748 -3.22355 0
M  V30 4218 H 395.255 5.19123 -1.87657 0
M  V30 4219 H 395.732 4.37467 -0.389815 0
M  V30 4220 H 396.338 3.77851 -1.95214 0
M  V30 4221 N 394.653 0.992116 1.22453 0
M  V30 4222 C 395.586 0.486701 2.22949 0
M  V30 4223 C 396.564 -0.45259 1.56174 0
M  V30 4224 O 397.748 -0.378317 1.84665 0
M  V30 4225 C 394.875 -0.294537 3.37417 0
M  V30 4226 C 393.921 0.590628 4.22391 0
M  V30 4227 S 394.754 2.04546 4.94895 0
M  V30 4228 C 395.91 1.27369 6.12803 0
M  V30 4229 H 396.143 1.33828 2.65475 0
M  V30 4230 H 393.676 0.799023 1.32117 0
M  V30 4231 H 395.634 -0.739241 4.03789 0
M  V30 4232 H 394.295 -1.12139 2.934 0
M  V30 4233 H 393.488 -0.0104375 5.03999 0
M  V30 4234 H 393.09 0.972064 3.61147 0
M  V30 4235 H 395.382 0.540943 6.75337 0
M  V30 4236 H 396.325 2.06502 6.7732 0
M  V30 4237 H 396.733 0.787324 5.58983 0
M  V30 4238 N 396.131 -1.37776 0.765217 0
M  V30 4239 C 397.079 -2.32209 0.134798 0
M  V30 4240 C 398.073 -1.54607 -0.692315 0
M  V30 4241 O 399.279 -1.70052 -0.590109 0
M  V30 4242 H 395.654 -0.751591 0.0248005 0
M  V30 4243 H 397.625 -2.8297 0.947119 0
M  V30 4244 C 396.374 -3.39841 -0.735063 0
M  V30 4245 H 395.697 -3.99654 -0.107991 0
M  V30 4246 H 397.137 -4.08296 -1.14326 0
M  V30 4247 C 395.596 -2.79378 -1.88281 0
M  V30 4248 O 396.126 -2.69608 -2.97783 0
M  V30 4249 N 394.332 -2.37016 -1.68142 0
M  V30 4250 H 393.879 -2.45162 -0.790772 0
M  V30 4251 H 393.837 -1.96905 -2.45104 0
M  V30 4252 N 397.609 -0.515225 -1.4894 0
M  V30 4253 C 398.858 0.0261361 -2.01683 0
M  V30 4254 C 399.171 1.36719 -1.39883 0
M  V30 4255 O 400.377 1.99606 -1.84037 0
M  V30 4256 C 398.833 0.0970111 -3.59769 0
M  V30 4257 C 398.441 -1.23825 -4.30548 0
M  V30 4258 C 400.185 0.587981 -4.20408 0
M  V30 4259 C 398.092 -1.12877 -5.80528 0
M  V30 4260 H 397.022 0.0135398 -0.753878 0
M  V30 4261 H 399.673 -0.656787 -1.71343 0
M  V30 4262 H 398.055 0.844694 -3.86886 0
M  V30 4263 H 399.229 -2.00034 -4.15118 0
M  V30 4264 H 397.544 -1.66379 -3.81716 0
M  V30 4265 H 400.141 0.68763 -5.3026 0
M  V30 4266 H 400.484 1.59026 -3.84729 0
M  V30 4267 H 401.017 -0.103582 -3.97665 0
M  V30 4268 H 397.756 -2.10575 -6.20756 0
M  V30 4269 H 397.276 -0.407799 -5.98412 0
M  V30 4270 H 398.955 -0.813332 -6.41868 0
M  V30 4271 N 399.087 1.5561 -0.249682 0
M  V30 4272 C 400.334 1.99011 0.374287 0
M  V30 4273 C 400.662 1.13785 1.57744 0
M  V30 4274 O 399.917 0.189326 1.94782 0
M  V30 4275 C 400.216 3.4775 0.824887 0
M  V30 4276 C 399.882 4.50086 -0.270819 0
M  V30 4277 C 398.544 4.77791 -0.571746 0
M  V30 4278 C 400.896 5.11312 -1.01041 0
M  V30 4279 C 398.224 5.63997 -1.61629 0
M  V30 4280 C 400.576 5.98651 -2.0445 0
M  V30 4281 C 399.24 6.24688 -2.35204 0
M  V30 4282 H 398.51 0.728233 0.136961 0
M  V30 4283 H 401.157 1.88122 -0.358087 0
M  V30 4284 H 399.462 3.55985 1.63651 0
M  V30 4285 H 401.159 3.78721 1.31799 0
M  V30 4286 H 397.749 4.28592 -0.026136 0
M  V30 4287 H 401.933 4.89953 -0.791177 0
M  V30 4288 H 397.189 5.82425 -1.85988 0
M  V30 4289 H 401.363 6.45135 -2.62248 0
M  V30 4290 H 398.99 6.91281 -3.16282 0
M  V30 4291 N 400.565 -0.0233959 1.57583 0
M  V30 4292 C 401.811 -0.714119 1.89811 0
M  V30 4293 C 402.144 -1.74702 0.848113 0
M  V30 4294 O 401.419 -1.94023 -0.136135 0
M  V30 4295 C 401.702 -1.37853 3.32669 0
M  V30 4296 C 401.555 -0.358764 4.48367 0
M  V30 4297 C 402.874 -2.31101 3.7454 0
M  V30 4298 H 399.993 -0.25814 0.690314 0
M  V30 4299 H 402.635 0.0230927 1.89986 0
M  V30 4300 H 400.785 -2.00689 3.3265 0
M  V30 4301 H 402.457 0.268115 4.6052 0
M  V30 4302 H 400.7 0.321387 4.32608 0
M  V30 4303 H 401.371 -0.862242 5.45224 0
M  V30 4304 H 403.847 -1.78304 3.75961 0
M  V30 4305 H 402.723 -2.74567 4.75294 0
M  V30 4306 H 402.984 -3.18018 3.0711 0
M  V30 4307 N 402.043 -1.548 -0.295768 0
M  V30 4308 C 403.273 -1.78069 -1.04762 0
M  V30 4309 C 403.681 -0.542847 -1.81245 0
M  V30 4310 O 403.024 0.497051 -1.76848 0
M  V30 4311 C 403.086 -2.93881 -2.07061 0
M  V30 4312 C 402.75 -4.31777 -1.49725 0
M  V30 4313 C 403.747 -5.11613 -0.924581 0
M  V30 4314 C 401.432 -4.78389 -1.5313 0
M  V30 4315 C 403.426 -6.36184 -0.393594 0
M  V30 4316 C 401.113 -6.02921 -0.996447 0
M  V30 4317 C 402.111 -6.81654 -0.428569 0
M  V30 4318 O 401.799 -8.0384 0.0981593 0
M  V30 4319 H 401.531 -0.597475 -0.316226 0
M  V30 4320 H 404.085 -2.02584 -0.338973 0
M  V30 4321 H 402.315 -2.65003 -2.81621 0
M  V30 4322 H 404.004 -3.04679 -2.6819 0
M  V30 4323 H 404.77 -4.76743 -0.891136 0
M  V30 4324 H 400.649 -4.17132 -1.9627 0
M  V30 4325 H 404.193 -6.97582 0.0503014 0
M  V30 4326 H 400.09 -6.37277 -1.02706 0
M  V30 4327 H 400.858 -8.18499 -0.0146455 0
M  V30 4328 N 403.521 0.559213 -1.47345 0
M  V30 4329 C 404.767 1.31614 -1.55079 0
M  V30 4330 C 405.122 1.91257 -0.209422 0
M  V30 4331 O 404.415 1.74796 0.784656 0
M  V30 4332 C 404.609 2.44853 -2.6035 0
M  V30 4333 C 404.438 1.96305 -4.04591 0
M  V30 4334 C 403.208 1.8024 -4.72061 0
M  V30 4335 C 405.406 1.50872 -4.91673 0
M  V30 4336 N 403.388 1.26011 -6.00828 0
M  V30 4337 C 404.759 1.08395 -6.10451 0
M  V30 4338 C 406.814 1.38905 -4.78132 0
M  V30 4339 C 405.517 0.551399 -7.17183 0
M  V30 4340 C 407.543 0.870518 -5.84958 0
M  V30 4341 C 406.905 0.455661 -7.02925 0
M  V30 4342 H 403.004 0.473712 -0.62219 0
M  V30 4343 H 405.588 0.634103 -1.84085 0
M  V30 4344 H 403.759 3.10589 -2.33215 0
M  V30 4345 H 405.491 3.11849 -2.57938 0
M  V30 4346 H 402.246 2.02895 -4.27937 0
M  V30 4347 H 402.67 1.00991 -6.69425 0
M  V30 4348 H 407.312 1.69591 -3.87297 0
M  V30 4349 H 405.03 0.232159 -8.07766 0
M  V30 4350 H 408.616 0.781507 -5.76527 0
M  V30 4351 H 407.496 0.0606414 -7.84177 0
M  V30 4352 N 404.999 1.35443 0.805782 0
M  V30 4353 C 406.227 1.31878 1.59423 0
M  V30 4354 C 406.642 -0.103562 1.88516 0
M  V30 4355 O 405.999 -1.05575 1.48863 0
M  V30 4356 C 406.05 2.12426 2.92502 0
M  V30 4357 O 405.771 3.49115 2.6467 0
M  V30 4358 C 407.272 2.16455 3.86862 0
M  V30 4359 H 404.492 0.453002 0.495005 0
M  V30 4360 H 407.036 1.78309 1.00131 0
M  V30 4361 H 405.191 1.69593 3.48306 0
M  V30 4362 H 405.605 3.90957 3.49647 0
M  V30 4363 H 407.079 2.77204 4.77349 0
M  V30 4364 H 407.556 1.16352 4.23508 0
M  V30 4365 H 408.162 2.59453 3.36993 0
M  V30 4366 N 406.477 -1.02803 1.19454 0
M  V30 4367 C 407.427 -2.0945 0.900827 0
M  V30 4368 C 408.411 -1.60335 -0.134715 0
M  V30 4369 O 409.603 -1.76857 0.0710924 0
M  V30 4370 C 406.732 -3.4044 0.442229 0
M  V30 4371 C 405.818 -3.96286 1.51056 0
M  V30 4372 N 406.209 -4.25785 2.73021 0
M  V30 4373 C 404.507 -4.24307 1.37404 0
M  V30 4374 C 405.208 -4.70654 3.41848 0
M  V30 4375 N 404.184 -4.72238 2.69243 0
M  V30 4376 H 407.986 -2.3015 1.82779 0
M  V30 4377 H 405.5 -1.20672 1.08683 0
M  V30 4378 H 407.497 -4.16354 0.21326 0
M  V30 4379 H 406.157 -3.21159 -0.478238 0
M  V30 4380 H 407.168 -4.15041 3.09776 0
M  V30 4381 H 403.845 -4.14285 0.517103 0
M  V30 4382 H 405.235 -5.02392 4.46152 0
M  V30 4383 N 407.956 -0.998596 -1.21925 0
M  V30 4384 C 408.866 -0.562736 -2.27751 0
M  V30 4385 C 409.882 0.391203 -1.69545 0
M  V30 4386 O 411.058 0.256625 -1.99758 0
M  V30 4387 C 408.123 0.11012 -3.46525 0
M  V30 4388 C 407.184 -0.887495 -4.20026 0
M  V30 4389 C 406.417 -0.246654 -5.3313 0
M  V30 4390 O 406.64 0.958088 -5.62296 0
M  V30 4391 O 405.574 -0.954374 -5.94286 0
M  V30 4392 H 409.4 -1.44329 -2.67213 0
M  V30 4393 H 406.985 -0.767135 -1.28201 0
M  V30 4394 H 408.867 0.486756 -4.18579 0
M  V30 4395 H 407.542 0.965154 -3.08976 0
M  V30 4396 H 406.449 -1.31517 -3.5022 0
M  V30 4397 H 407.782 -1.71191 -4.6147 0
M  V30 4398 N 409.434 1.37368 -0.772513 0
M  V30 4399 C 410.711 1.93839 -0.26188 0
M  V30 4400 C 411.091 1.7061 1.24319 0
M  V30 4401 O 410.439 1.05534 2.02669 0
M  V30 4402 C 410.649 3.43154 -0.636102 0
M  V30 4403 C 411.997 4.20249 -0.606324 0
M  V30 4404 O 413.021 3.5152 -0.575538 0
M  V30 4405 O 411.88 5.42809 -0.634086 0
M  V30 4406 H 408.974 0.82478 -0.0605555 0
M  V30 4407 H 411.52 1.4665 -0.853917 0
M  V30 4408 H 410.292 3.53647 -1.6748 0
M  V30 4409 H 409.915 3.97596 -0.0170516 0
M  V30 4410 N 410.912 0.523116 1.48665 0
M  V30 4411 C 412.16 -0.0134497 2.02096 0
M  V30 4412 C 412.481 -1.35418 1.40311 0
M  V30 4413 O 411.751 -1.87543 0.566074 0
M  V30 4414 H 410.331 -0.00795915 0.746958 0
M  V30 4415 H 412.993 0.685388 1.82451 0
M  V30 4416 H 412.089 -0.126849 3.11842 0
M  V30 4417 N 412.39 -1.55475 0.257931 0
M  V30 4418 C 413.636 -1.99502 -0.364266 0
M  V30 4419 C 413.969 -1.146 -1.56782 0
M  V30 4420 O 413.244 -0.211968 -1.93342 0
M  V30 4421 C 413.527 -3.51917 -0.763333 0
M  V30 4422 C 413.38 -4.4758 0.446371 0
M  V30 4423 C 414.699 -4.09742 -1.60623 0
M  V30 4424 H 411.818 -0.725277 -0.130929 0
M  V30 4425 H 414.46 -1.8653 0.361446 0
M  V30 4426 H 412.61 -3.63101 -1.38166 0
M  V30 4427 H 414.282 -4.48362 1.08487 0
M  V30 4428 H 412.525 -4.19947 1.08753 0
M  V30 4429 H 413.196 -5.51862 0.123645 0
M  V30 4430 H 415.672 -4.01727 -1.08418 0
M  V30 4431 H 414.548 -5.16631 -1.85429 0
M  V30 4432 H 414.809 -3.58889 -2.58169 0
M  V30 4433 N 413.868 0.0150385 -1.57593 0
M  V30 4434 C 414.798 1.01047 -2.10503 0
M  V30 4435 C 415.779 1.36816 -1.01071 0
M  V30 4436 O 416.964 1.45455 -1.28672 0
M  V30 4437 C 414.094 2.30708 -2.59598 0
M  V30 4438 C 413.048 2.09142 -3.73421 0
M  V30 4439 C 412.374 3.44685 -4.08774 0
M  V30 4440 C 413.674 1.46619 -5.01298 0
M  V30 4441 H 415.368 0.569978 -2.93925 0
M  V30 4442 H 412.914 0.272724 -1.41394 0
M  V30 4443 H 414.867 3.00687 -2.95238 0
M  V30 4444 H 413.591 2.76843 -1.73279 0
M  V30 4445 H 412.25 1.41592 -3.38153 0
M  V30 4446 H 411.898 3.88495 -3.195 0
M  V30 4447 H 411.598 3.31077 -4.8545 0
M  V30 4448 H 413.122 4.16004 -4.4696 0
M  V30 4449 H 414.536 2.06535 -5.34805 0
M  V30 4450 H 412.933 1.43544 -5.82679 0
M  V30 4451 H 414.003 0.433611 -4.82957 0
M  V30 4452 N 415.346 1.54954 0.287554 0
M  V30 4453 C 416.256 1.8991 1.37736 0
M  V30 4454 C 417.272 0.794701 1.54792 0
M  V30 4455 O 418.448 1.09243 1.69198 0
M  V30 4456 C 415.513 2.15108 2.71899 0
M  V30 4457 C 414.574 3.38752 2.63715 0
M  V30 4458 C 413.807 3.62739 3.91479 0
M  V30 4459 O 414.03 2.89492 4.91478 0
M  V30 4460 O 412.964 4.56267 3.92561 0
M  V30 4461 H 416.79 2.82652 1.11092 0
M  V30 4462 H 414.375 1.41315 0.484807 0
M  V30 4463 H 416.257 2.32806 3.51254 0
M  V30 4464 H 414.932 1.25551 2.9836 0
M  V30 4465 H 413.839 3.26405 1.82786 0
M  V30 4466 H 415.172 4.28483 2.42205 0
M  V30 4467 N 416.824 -0.551391 1.4764 0
M  V30 4468 C 417.754 -1.66757 1.63445 0
M  V30 4469 C 418.735 -1.63077 0.483742 0
M  V30 4470 O 419.92 -1.80607 0.71377 0
M  V30 4471 C 417.05 -3.05387 1.65396 0
M  V30 4472 C 416.004 -3.23918 2.79752 0
M  V30 4473 C 415.33 -4.63393 2.66779 0
M  V30 4474 C 416.63 -3.08735 4.21284 0
M  V30 4475 H 418.324 -1.53786 2.56886 0
M  V30 4476 H 415.87 -0.738415 1.23626 0
M  V30 4477 H 417.823 -3.83325 1.75043 0
M  V30 4478 H 416.547 -3.19332 0.685195 0
M  V30 4479 H 415.206 -2.48391 2.69625 0
M  V30 4480 H 414.854 -4.74144 1.67918 0
M  V30 4481 H 414.554 -4.7674 3.43501 0
M  V30 4482 H 416.078 -5.43458 2.78364 0
M  V30 4483 H 417.492 -3.76484 4.32357 0
M  V30 4484 H 415.889 -3.33588 4.98838 0
M  V30 4485 H 416.959 -2.0541 4.39243 0
M  V30 4486 N 418.302 -1.35869 -0.798587 0
M  V30 4487 C 419.548 -1.2978 -1.55836 0
M  V30 4488 C 419.881 0.125322 -1.93795 0
M  V30 4489 O 419.156 1.07658 -1.61987 0
M  V30 4490 C 419.439 -2.21188 -2.84162 0
M  V30 4491 C 419.292 -3.72155 -2.52628 0
M  V30 4492 C 420.611 -2.11545 -3.85923 0
M  V30 4493 H 417.73 -0.472769 -0.565383 0
M  V30 4494 H 420.372 -1.66341 -0.918192 0
M  V30 4495 H 418.522 -1.90139 -3.38791 0
M  V30 4496 H 420.194 -4.13682 -2.04121 0
M  V30 4497 H 418.437 -3.92042 -1.85704 0
M  V30 4498 H 419.108 -4.31511 -3.44242 0
M  V30 4499 H 421.584 -2.38855 -3.40716 0
M  V30 4500 H 420.46 -2.77688 -4.73477 0
M  V30 4501 H 420.721 -1.09987 -4.282 0
M  V30 4502 N 419.78 1.02168 -1.19998 0
M  V30 4503 C 421.008 1.79296 -1.03249 0
M  V30 4504 C 421.423 1.84103 0.418502 0
M  V30 4505 O 420.78 1.29031 1.29063 0
M  V30 4506 C 420.831 3.24007 -1.60319 0
M  V30 4507 O 420.552 3.19512 -2.99739 0
M  V30 4508 C 422.053 4.17704 -1.48453 0
M  V30 4509 H 419.273 0.564016 -0.363493 0
M  V30 4510 H 421.817 1.28639 -1.58973 0
M  V30 4511 H 419.972 3.7183 -1.08727 0
M  V30 4512 H 420.386 4.10306 -3.26725 0
M  V30 4513 H 421.86 5.17104 -1.93153 0
M  V30 4514 H 422.337 4.37029 -0.436193 0
M  V30 4515 H 422.943 3.7576 -1.99211 0
M  V30 4516 N 421.258 1.00505 1.21394 0
M  V30 4517 C 422.669 0.721082 1.72213 0
M  V30 4518 C 423.02 -0.761263 1.80829 0
M  V30 4519 O 422.145 -1.59464 1.46288 0
M  V30 4520 C 422.74 1.30228 3.12772 0
M  V30 4521 C 421.299 1.06743 3.60947 0
M  V30 4522 C 420.446 1.41507 2.38477 0
M  V30 4523 H 423.397 1.17594 1.06571 0
M  V30 4524 H 423.418 0.686955 3.74247 0
M  V30 4525 H 422.93 2.38115 3.06468 0
M  V30 4526 H 421.031 0.00572162 3.726 0
M  V30 4527 H 421.144 1.73936 4.46411 0
M  V30 4528 H 419.508 0.833852 2.40664 0
M  V30 4529 H 420.291 2.50424 2.34824 0
M  V30 4530 N 422.737 -1.36956 0.779787 0
M  V30 4531 C 424.148 -1.82094 0.412156 0
M  V30 4532 C 424.499 -1.64926 -1.06273 0
M  V30 4533 O 423.624 -1.16483 -1.82375 0
M  V30 4534 C 424.219 -3.3059 0.741319 0
M  V30 4535 C 422.778 -3.73974 0.426641 0
M  V30 4536 C 421.925 -2.59368 0.980987 0
M  V30 4537 H 424.876 -1.25314 0.973758 0
M  V30 4538 H 424.897 -3.80489 0.028887 0
M  V30 4539 H 424.409 -3.43054 1.81482 0
M  V30 4540 H 422.51 -3.67076 -0.639215 0
M  V30 4541 H 422.623 -4.69778 0.940515 0
M  V30 4542 H 420.987 -2.51463 0.404757 0
M  V30 4543 H 421.77 -2.74621 2.06005 0
M  V30 4544 N 424.215 -0.530993 -1.48385 0
M  V30 4545 C 425.145 0.219985 -2.32461 0
M  V30 4546 C 426.126 0.934111 -1.42156 0
M  V30 4547 O 427.311 0.919694 -1.71042 0
M  V30 4548 C 424.441 1.26674 -3.23375 0
M  V30 4549 C 423.395 0.67069 -4.22712 0
M  V30 4550 C 422.721 1.82017 -5.02766 0
M  V30 4551 C 424.021 -0.358268 -5.2107 0
M  V30 4552 H 425.715 -0.48187 -2.95497 0
M  V30 4553 H 423.261 -0.233182 -1.42099 0
M  V30 4554 H 425.214 1.80006 -3.81019 0
M  V30 4555 H 423.938 1.99818 -2.58341 0
M  V30 4556 H 422.597 0.158878 -3.66256 0
M  V30 4557 H 422.245 2.54002 -4.34157 0
M  V30 4558 H 421.945 1.42727 -5.70003 0
M  V30 4559 H 423.469 2.35725 -5.63264 0
M  V30 4560 H 424.883 0.0880081 -5.73232 0
M  V30 4561 H 423.28 -0.66861 -5.96364 0
M  V30 4562 H 424.35 -1.26367 -4.68145 0
M  V30 4563 N 425.693 1.55336 -0.266172 0
M  V30 4564 C 426.641 2.23587 0.641228 0
M  V30 4565 C 427.635 1.22986 1.16494 0
M  V30 4566 O 428.841 1.40943 1.1196 0
M  V30 4567 H 425.216 0.717452 0.225315 0
M  V30 4568 H 427.187 2.9837 0.0426561 0
M  V30 4569 C 425.936 2.96369 1.81826 0
M  V30 4570 H 425.259 3.73563 1.42445 0
M  V30 4571 H 426.699 3.47459 2.42998 0
M  V30 4572 C 425.158 2.0133 2.70125 0
M  V30 4573 O 425.688 1.55875 3.70224 0
M  V30 4574 N 423.894 1.6802 2.37102 0
M  V30 4575 H 423.441 2.05181 1.55751 0
M  V30 4576 H 423.399 1.047 2.96454 0
M  V30 4577 N 427.171 -0.0066808 1.57599 0
M  V30 4578 C 428.419 -0.691552 1.899 0
M  V30 4579 C 428.74 -1.74682 0.866672 0
M  V30 4580 O 428.01 -1.95661 -0.0968189 0
M  V30 4581 H 426.59 -0.258416 0.700878 0
M  V30 4582 H 429.252 0.0326655 1.94873 0
M  V30 4583 H 428.348 -1.16702 2.8946 0
M  V30 4584 N 428.649 -1.55105 -0.279332 0
M  V30 4585 C 429.895 -1.75672 -1.01327 0
M  V30 4586 C 430.228 -0.552739 -1.86168 0
M  V30 4587 O 429.503 0.449827 -1.89227 0
M  V30 4588 C 429.786 -3.05825 -1.90114 0
M  V30 4589 C 429.639 -4.36565 -1.08309 0
M  V30 4590 C 430.958 -3.31975 -2.8893 0
M  V30 4591 H 428.077 -0.639149 -0.366957 0
M  V30 4592 H 430.719 -1.87833 -0.286154 0
M  V30 4593 H 428.869 -2.95588 -2.52111 0
M  V30 4594 H 430.541 -4.58751 -0.484314 0
M  V30 4595 H 428.784 -4.32076 -0.386362 0
M  V30 4596 H 429.455 -5.23946 -1.73737 0
M  V30 4597 H 431.931 -3.41963 -2.37067 0
M  V30 4598 H 430.807 -4.2432 -3.48201 0
M  V30 4599 H 431.068 -2.51309 -3.63725 0
M  V30 4600 N 430.127 0.543554 -1.4793 0
M  V30 4601 C 431.376 1.29649 -1.54512 0
M  V30 4602 C 431.689 1.94382 -0.217973 0
M  V30 4603 O 432.895 2.71017 -0.161908 0
M  V30 4604 C 431.351 2.35175 -2.72435 0
M  V30 4605 C 430.959 1.76572 -4.11736 0
M  V30 4606 C 432.703 3.11564 -2.8832 0
M  V30 4607 C 430.61 2.79958 -5.20939 0
M  V30 4608 H 429.54 0.487541 -0.57517 0
M  V30 4609 H 432.191 0.575708 -1.74235 0
M  V30 4610 H 430.573 3.10229 -2.46118 0
M  V30 4611 H 431.747 1.07799 -4.48013 0
M  V30 4612 H 430.062 1.12722 -4.00852 0
M  V30 4613 H 432.659 3.88794 -3.67074 0
M  V30 4614 H 433.002 3.66594 -1.97268 0
M  V30 4615 H 433.535 2.43623 -3.14472 0
M  V30 4616 H 430.274 2.29766 -6.13912 0
M  V30 4617 H 429.794 3.47101 -4.89164 0
M  V30 4618 H 431.473 3.43198 -5.48474 0
M  V30 4619 N 431.605 1.3629 0.791371 0
M  V30 4620 C 432.535 1.33137 1.91825 0
M  V30 4621 C 433.516 0.203168 1.68882 0
M  V30 4622 O 434.701 0.400509 1.90025 0
M  V30 4623 C 431.831 1.11793 3.28816 0
M  V30 4624 C 430.785 2.21417 3.66277 0
M  V30 4625 C 430.111 1.85218 5.01596 0
M  V30 4626 C 431.411 3.63489 3.75064 0
M  V30 4627 H 433.105 2.2743 1.9472 0
M  V30 4628 H 430.651 1.09479 0.935437 0
M  V30 4629 H 432.604 1.08222 4.07266 0
M  V30 4630 H 431.328 0.139501 3.26302 0
M  V30 4631 H 429.987 2.2411 2.90121 0
M  V30 4632 H 429.635 0.859544 4.95602 0
M  V30 4633 H 429.335 2.58611 5.27631 0
M  V30 4634 H 430.859 1.832 5.82469 0
M  V30 4635 H 432.273 3.63034 4.43711 0
M  V30 4636 H 430.67 4.35771 4.12582 0
M  V30 4637 H 431.74 3.98536 2.76219 0
M  V30 4638 N 433.083 -1.0153 1.20538 0
M  V30 4639 C 434.494 -1.56598 1.01657 0
M  V30 4640 C 434.845 -1.91505 -0.426668 0
M  V30 4641 O 433.97 -1.72375 -1.30827 0
M  V30 4642 C 434.565 -2.84542 1.83905 0
M  V30 4643 C 433.124 -3.36133 1.69386 0
M  V30 4644 C 432.271 -2.09427 1.81757 0
M  V30 4645 H 435.222 -0.838974 1.34711 0
M  V30 4646 H 435.243 -3.56004 1.34319 0
M  V30 4647 H 434.755 -2.59105 2.8894 0
M  V30 4648 H 432.856 -3.66528 0.669933 0
M  V30 4649 H 432.969 -4.08248 2.50739 0
M  V30 4650 H 431.333 -2.21941 1.24957 0
M  V30 4651 H 432.116 -1.86414 2.88279 0
M  V30 4652 N 434.561 -1.01147 -1.20859 0
M  V30 4653 C 435.809 -0.696486 -1.89719 0
M  V30 4654 C 436.13 0.775788 -1.78904 0
M  V30 4655 O 435.4 1.55759 -1.18811 0
M  V30 4656 H 433.98 -0.254628 -0.702263 0
M  V30 4657 H 436.642 -1.28197 -1.46804 0
M  V30 4658 H 435.738 -0.975357 -2.96468 0
M  V30 4659 N 436.039 1.36541 -0.78704 0
M  V30 4660 C 437.285 1.99599 -0.358872 0
M  V30 4661 C 437.618 1.62323 1.06606 0
M  V30 4662 O 436.893 0.876858 1.73613 0
M  V30 4663 C 437.176 3.56327 -0.519944 0
M  V30 4664 C 437.029 4.03464 -1.98839 0
M  V30 4665 C 438.348 4.4005 0.0664737 0
M  V30 4666 H 435.467 0.725107 -0.131869 0
M  V30 4667 H 438.109 1.6199 -0.992936 0
M  V30 4668 H 436.259 3.88495 0.0198321 0
M  V30 4669 H 437.931 3.81793 -2.58905 0
M  V30 4670 H 436.174 3.55092 -2.49183 0
M  V30 4671 H 436.845 5.12439 -2.05207 0
M  V30 4672 H 439.321 4.14228 -0.394267 0
M  V30 4673 H 438.197 5.48847 -0.0762682 0
M  V30 4674 H 438.458 4.26655 1.15835 0
M  V30 4675 N 437.518 0.538854 1.48102 0
M  V30 4676 C 438.764 0.00801365 2.02798 0
M  V30 4677 C 439.097 -1.3309 1.41424 0
M  V30 4678 O 438.372 -1.86169 0.563158 0
M  V30 4679 C 438.655 -0.104589 3.59948 0
M  V30 4680 C 438.508 1.26012 4.31788 0
M  V30 4681 C 439.827 -0.827055 4.32259 0
M  V30 4682 H 436.946 0.00438624 0.736987 0
M  V30 4683 H 439.588 0.6976 1.7673 0
M  V30 4684 H 437.738 -0.691893 3.82289 0
M  V30 4685 H 439.41 1.88922 4.2084 0
M  V30 4686 H 437.653 1.83968 3.92859 0
M  V30 4687 H 438.324 1.13424 5.40221 0
M  V30 4688 H 440.8 -0.328578 4.14801 0
M  V30 4689 H 439.676 -0.87476 5.41885 0
M  V30 4690 H 439.937 -1.87927 4.0017 0
M  V30 4691 N 438.996 -1.55193 0.274407 0
M  V30 4692 C 440.412 -1.59401 -0.0797543 0
M  V30 4693 C 440.612 -1.29162 -1.54659 0
M  V30 4694 O 439.668 -1.05215 -2.29534 0
M  V30 4695 C 440.981 -2.99257 0.294238 0
M  V30 4696 C 442.529 -3.12072 0.240796 0
M  V30 4697 C 443.004 -4.54194 0.589218 0
M  V30 4698 N 444.495 -4.60033 0.540744 0
M  V30 4699 C 445.23 -5.68027 0.783147 0
M  V30 4700 N 444.726 -6.8417 1.09013 0
M  V30 4701 N 446.519 -5.57572 0.711993 0
M  V30 4702 H 438.67 -1.73113 1.23067 0
M  V30 4703 H 440.933 -0.807197 0.497129 0
M  V30 4704 H 440.639 -3.26217 1.31435 0
M  V30 4705 H 440.513 -3.75427 -0.365281 0
M  V30 4706 H 442.9 -2.84877 -0.770024 0
M  V30 4707 H 442.981 -2.38117 0.934563 0
M  V30 4708 H 442.625 -4.82115 1.59772 0
M  V30 4709 H 442.555 -5.26448 -0.126331 0
M  V30 4710 H 445.046 -3.76599 0.313327 0
M  V30 4711 H 445.359 -7.6243 1.26178 0
M  V30 4712 H 443.704 -6.85787 1.12789 0
M  V30 4713 H 446.895 -4.65714 0.472014 0
M  V30 4714 H 447.068 -6.41659 0.90429 0
M  V30 4715 N 440.474 -0.00167713 -1.576 0
M  V30 4716 C 441.406 1.0174 -2.05382 0
M  V30 4717 C 442.419 1.30595 -0.972052 0
M  V30 4718 O 443.608 1.27542 -1.24882 0
M  V30 4719 C 440.708 2.35174 -2.44022 0
M  V30 4720 C 439.881 2.25234 -3.74951 0
M  V30 4721 C 438.94 3.4137 -4.00441 0
M  V30 4722 O 437.966 3.19483 -4.71083 0
M  V30 4723 N 439.168 4.64275 -3.48467 0
M  V30 4724 H 441.933 0.609902 -2.93428 0
M  V30 4725 H 439.494 0.185672 -1.60832 0
M  V30 4726 H 441.486 3.11643 -2.58187 0
M  V30 4727 H 440.056 2.67659 -1.61485 0
M  V30 4728 H 439.276 1.33664 -3.70847 0
M  V30 4729 H 440.564 2.15767 -4.60784 0
M  V30 4730 H 439.962 4.84955 -2.91264 0
M  V30 4731 H 438.519 5.38005 -3.67959 0
M  V30 4732 N 441.952 1.55251 0.271103 0
M  V30 4733 C 443.177 1.80306 1.02491 0
M  V30 4734 C 443.602 0.575457 1.79081 0
M  V30 4735 O 442.96 -0.474987 1.74967 0
M  V30 4736 C 443.008 3.02832 1.95768 0
M  V30 4737 O 442.112 2.78051 3.04568 0
M  V30 4738 H 441.453 0.595896 0.292923 0
M  V30 4739 H 443.983 2.02397 0.299436 0
M  V30 4740 H 443.993 3.31616 2.37686 0
M  V30 4741 H 442.668 3.9183 1.39434 0
M  V30 4742 H 441.245 2.60369 2.66951 0
M  V30 4743 N 443.43 -0.535701 1.48216 0
M  V30 4744 C 444.36 -1.65014 1.65204 0
M  V30 4745 C 445.341 -1.62554 0.501011 0
M  V30 4746 O 446.526 -1.7984 0.732886 0
M  V30 4747 C 443.656 -3.03616 1.68626 0
M  V30 4748 C 442.61 -3.20932 2.83172 0
M  V30 4749 C 441.936 -4.60537 2.71679 0
M  V30 4750 C 443.236 -3.04249 4.24535 0
M  V30 4751 H 444.93 -1.51053 2.58502 0
M  V30 4752 H 442.476 -0.725262 1.24402 0
M  V30 4753 H 444.429 -3.81446 1.79099 0
M  V30 4754 H 443.153 -3.18587 0.719026 0
M  V30 4755 H 441.812 -2.45517 2.72244 0
M  V30 4756 H 441.46 -4.72336 1.72937 0
M  V30 4757 H 441.16 -4.73069 3.48538 0
M  V30 4758 H 442.684 -5.40475 2.84112 0
M  V30 4759 H 444.098 -3.71877 4.36326 0
M  V30 4760 H 442.495 -3.28278 5.02348 0
M  V30 4761 H 443.565 -2.00739 4.41397 0
M  V30 4762 N 444.908 -1.36708 -0.784132 0
M  V30 4763 C 445.838 -1.34153 -1.91116 0
M  V30 4764 C 446.819 -0.212121 -1.68772 0
M  V30 4765 O 448.004 -0.410581 -1.8981 0
M  V30 4766 C 445.134 -1.13535 -3.28218 0
M  V30 4767 C 444.088 -2.23356 -3.65097 0
M  V30 4768 C 443.414 -1.87875 -5.00607 0
M  V30 4769 C 444.714 -3.65473 -3.73131 0
M  V30 4770 H 446.408 -2.28459 -1.93512 0
M  V30 4771 H 443.954 -1.09973 -0.929618 0
M  V30 4772 H 445.907 -1.10381 -4.06687 0
M  V30 4773 H 444.631 -0.156804 -3.26223 0
M  V30 4774 H 443.29 -2.25645 -2.88929 0
M  V30 4775 H 442.938 -0.885814 -4.95139 0
M  V30 4776 H 442.638 -2.61406 -5.26252 0
M  V30 4777 H 444.162 -1.86286 -5.81489 0
M  V30 4778 H 445.576 -3.65382 -4.41779 0
M  V30 4779 H 443.973 -4.37953 -4.10265 0
M  V30 4780 H 445.043 -3.99995 -2.74102 0
M  V30 4781 N 446.386 1.0089 -1.21074 0
M  V30 4782 C 447.663 1.71834 -0.934469 0
M  V30 4783 C 448.043 2.0368 0.554753 0
M  V30 4784 O 447.391 1.70742 1.51854 0
M  V30 4785 C 447.601 2.98061 -1.8155 0
M  V30 4786 C 448.949 3.7117 -2.06199 0
M  V30 4787 O 449.973 3.08034 -1.78867 0
M  V30 4788 O 448.832 4.84721 -2.52404 0
M  V30 4789 H 445.926 0.749253 -0.35007 0
M  V30 4790 H 448.472 1.06668 -1.31985 0
M  V30 4791 H 447.244 2.70908 -2.82355 0
M  V30 4792 H 446.867 3.70968 -1.43068 0
M  V30 4793 N 447.864 1.01787 1.20321 0
M  V30 4794 C 448.797 0.533882 2.21867 0
M  V30 4795 C 449.775 -0.419361 1.57099 0
M  V30 4796 O 450.959 -0.339062 1.85426 0
M  V30 4797 C 448.086 -0.222899 3.37966 0
M  V30 4798 C 447.132 0.680091 4.21043 0
M  V30 4799 S 447.965 2.14997 4.90445 0
M  V30 4800 C 449.121 1.40339 6.09964 0
M  V30 4801 H 449.354 1.39429 2.62577 0
M  V30 4802 H 446.887 0.826867 1.30393 0
M  V30 4803 H 448.845 -0.653425 4.05266 0
M  V30 4804 H 447.506 -1.0589 2.95713 0
M  V30 4805 H 446.699 0.0964704 5.03908 0
M  V30 4806 H 446.301 1.04845 3.59004 0
M  V30 4807 H 448.593 0.68407 6.74038 0
M  V30 4808 H 449.536 2.20823 6.72787 0
M  V30 4809 H 449.944 0.905716 5.57187 0
M  V30 4810 N 449.342 -1.36122 0.79427 0
M  V30 4811 C 450.305 -2.28309 0.201889 0
M  V30 4812 C 451.305 -1.49041 -0.603603 0
M  V30 4813 O 452.495 -1.68964 -0.423888 0
M  V30 4814 C 449.627 -3.3321 -0.719978 0
M  V30 4815 H 450.82 -2.82208 1.01481 0
M  V30 4816 H 448.373 -1.45768 0.564037 0
M  V30 4817 H 449.108 -2.84475 -1.55706 0
M  V30 4818 H 448.893 -3.91835 -0.144266 0
M  V30 4819 H 450.383 -4.02044 -1.12916 0
M  V30 4820 N 450.82 -0.546701 -1.47814 0
M  V30 4821 C 451.752 0.244196 -2.27895 0
M  V30 4822 C 452.765 0.88911 -1.36377 0
M  V30 4823 O 453.954 0.764733 -1.61289 0
M  V30 4824 C 451.054 1.36252 -3.10304 0
M  V30 4825 C 450.227 0.816382 -4.29714 0
M  V30 4826 C 449.286 1.81789 -4.93801 0
M  V30 4827 O 448.312 1.36818 -5.52512 0
M  V30 4828 N 449.514 3.15085 -4.87547 0
M  V30 4829 H 452.279 -0.442694 -2.96412 0
M  V30 4830 H 449.84 -0.382095 -1.57327 0
M  V30 4831 H 451.832 2.03102 -3.50045 0
M  V30 4832 H 450.402 1.95281 -2.44099 0
M  V30 4833 H 449.622 -0.0285981 -3.9419 0
M  V30 4834 H 450.91 0.430668 -5.06974 0
M  V30 4835 H 450.308 3.54275 -4.41028 0
M  V30 4836 H 448.865 3.77522 -5.31339 0
M  V30 4837 N 452.299 1.55045 -0.282633 0
M  V30 4838 C 453.527 2.04168 0.33512 0
M  V30 4839 C 453.942 1.16071 1.48906 0
M  V30 4840 O 453.299 0.182391 1.81586 0
M  V30 4841 C 453.35 3.52332 0.808957 0
M  V30 4842 O 453.071 4.37078 -0.299038 0
M  V30 4843 C 454.572 4.17375 1.49375 0
M  V30 4844 H 451.792 0.666744 0.0754543 0
M  V30 4845 H 454.336 2.00205 -0.416918 0
M  V30 4846 H 452.491 3.56715 1.51106 0
M  V30 4847 H 452.905 5.24458 0.0665514 0
M  V30 4848 H 454.379 5.22627 1.77664 0
M  V30 4849 H 454.856 3.65999 2.42778 0
M  V30 4850 H 455.462 4.17016 0.835305 0
M  V30 4851 N 453.777 0.010035 1.57597 0
M  V30 4852 C 455.023 -0.668011 1.92118 0
M  V30 4853 C 455.378 -1.70821 0.885328 0
M  V30 4854 O 454.671 -1.91333 -0.101187 0
M  V30 4855 C 454.865 -1.34434 3.31153 0
M  V30 4856 C 454.694 -0.371176 4.48166 0
M  V30 4857 C 453.464 0.0220686 5.05295 0
M  V30 4858 C 455.662 0.366731 5.12991 0
M  V30 4859 N 453.644 0.9924 6.05826 0
M  V30 4860 C 455.015 1.19142 6.08445 0
M  V30 4861 C 457.07 0.429489 4.96044 0
M  V30 4862 C 455.773 2.07317 6.88776 0
M  V30 4863 C 457.799 1.2985 5.76969 0
M  V30 4864 C 457.161 2.11101 6.72023 0
M  V30 4865 H 453.26 -0.217337 0.751192 0
M  V30 4866 H 455.844 0.0727375 1.94564 0
M  V30 4867 H 454.015 -2.05533 3.29561 0
M  V30 4868 H 455.747 -1.97789 3.53075 0
M  V30 4869 H 452.502 -0.348409 4.72317 0
M  V30 4870 H 452.926 1.47324 6.60776 0
M  V30 4871 H 457.568 -0.18442 4.22398 0
M  V30 4872 H 455.286 2.69771 7.61741 0
M  V30 4873 H 458.872 1.3511 5.65894 0
M  V30 4874 H 457.752 2.77257 7.33552 0
M  V30 4875 N 455.255 -1.55392 -0.262866 0
M  V30 4876 C 456.503 -1.76127 -0.991147 0
M  V30 4877 C 456.824 -0.571083 -1.8645 0
M  V30 4878 O 456.094 0.413698 -1.91482 0
M  V30 4879 H 454.674 -0.649528 -0.368948 0
M  V30 4880 H 457.336 -1.9281 -0.284655 0
M  V30 4881 H 456.432 -2.6663 -1.62219 0
M  V30 4882 N 456.733 0.527833 -1.48498 0
M  V30 4883 C 457.643 1.65907 -1.65867 0
M  V30 4884 C 458.659 1.6537 -0.541192 0
M  V30 4885 O 459.835 1.84282 -0.812534 0
M  V30 4886 C 456.9 3.02364 -1.69637 0
M  V30 4887 C 455.961 3.1374 -2.93028 0
M  V30 4888 C 455.194 4.43688 -2.96609 0
M  V30 4889 O 455.417 5.30913 -2.08538 0
M  V30 4890 O 454.351 4.59475 -3.88802 0
M  V30 4891 H 458.177 1.5419 -2.61647 0
M  V30 4892 H 455.762 0.701163 -1.31924 0
M  V30 4893 H 457.644 3.83515 -1.74625 0
M  V30 4894 H 456.319 3.14401 -0.770312 0
M  V30 4895 H 455.226 2.31877 -2.93571 0
M  V30 4896 H 456.559 3.06621 -3.85026 0
M  V30 4897 N 458.211 1.37122 0.776871 0
M  V30 4898 C 459.458 1.32047 1.53524 0
M  V30 4899 C 459.786 -0.0965631 1.9426 0
M  V30 4900 O 459.041 -1.06866 1.63945 0
M  V30 4901 C 459.34 2.20068 2.81611 0
M  V30 4902 C 459.006 3.68423 2.59953 0
M  V30 4903 C 457.668 4.08854 2.53755 0
M  V30 4904 C 460.02 4.62431 2.40431 0
M  V30 4905 C 457.348 5.41417 2.26018 0
M  V30 4906 C 459.7 5.95225 2.14219 0
M  V30 4907 C 458.364 6.34767 2.06462 0
M  V30 4908 H 457.634 0.483196 0.561785 0
M  V30 4909 H 460.281 1.69284 0.895268 0
M  V30 4910 H 458.586 1.75809 3.50141 0
M  V30 4911 H 460.283 2.13458 3.39465 0
M  V30 4912 H 456.873 3.36354 2.65638 0
M  V30 4913 H 461.057 4.32057 2.44213 0
M  V30 4914 H 456.313 5.71022 2.18504 0
M  V30 4915 H 460.487 6.67626 1.98112 0
M  V30 4916 H 458.114 7.37413 1.84733 0
M  V30 4917 N 459.689 -1.00246 1.21608 0
M  V30 4918 C 461.105 -1.26435 0.973975 0
M  V30 4919 C 461.305 -1.98642 -0.338143 0
M  V30 4920 O 460.361 -2.29026 -1.06317 0
M  V30 4921 C 461.674 -2.08551 2.16626 0
M  V30 4922 C 463.222 -2.21769 2.20879 0
M  V30 4923 C 463.697 -3.07267 3.39633 0
M  V30 4924 N 465.188 -3.14855 3.39736 0
M  V30 4925 C 465.923 -3.81274 4.28273 0
M  V30 4926 N 465.419 -4.497 5.27012 0
M  V30 4927 N 467.212 -3.7794 4.16074 0
M  V30 4928 H 459.363 -0.518089 2.05984 0
M  V30 4929 H 461.626 -0.291368 0.902113 0
M  V30 4930 H 461.332 -1.62847 3.11727 0
M  V30 4931 H 461.206 -3.09303 2.15897 0
M  V30 4932 H 463.593 -2.66691 1.26332 0
M  V30 4933 H 463.674 -1.20478 2.25652 0
M  V30 4934 H 463.318 -2.63047 4.34475 0
M  V30 4935 H 463.248 -4.08678 3.321 0
M  V30 4936 H 465.739 -2.66147 2.6828 0
M  V30 4937 H 466.052 -4.98092 5.90867 0
M  V30 4938 H 464.397 -4.48479 5.30935 0
M  V30 4939 H 467.588 -3.23638 3.38195 0
M  V30 4940 H 467.761 -4.29424 4.85282 0
M  V30 4941 N 461.167 -1.02423 -1.1978 0
M  V30 4942 C 462.413 -0.719051 -1.89625 0
M  V30 4943 C 462.746 0.750083 -1.7913 0
M  V30 4944 O 462.021 1.54574 -1.18056 0
M  V30 4945 C 462.304 -1.16499 -3.40735 0
M  V30 4946 C 462.157 -2.695 -3.60125 0
M  V30 4947 C 463.476 -0.742166 -4.33797 0
M  V30 4948 H 460.595 -0.26269 -0.688595 0
M  V30 4949 H 463.237 -1.27333 -1.41018 0
M  V30 4950 H 461.387 -0.69341 -3.82262 0
M  V30 4951 H 463.059 -3.24569 -3.278 0
M  V30 4952 H 461.302 -3.10113 -3.03336 0
M  V30 4953 H 461.973 -2.95757 -4.66081 0
M  V30 4954 H 464.449 -1.1477 -3.99959 0
M  V30 4955 H 463.325 -1.08213 -5.38127 0
M  V30 4956 H 463.586 0.355747 -4.40666 0
M  V30 4957 N 462.645 1.35699 -0.801477 0
M  V30 4958 C 463.891 1.99208 -0.380022 0
M  V30 4959 C 464.224 1.63445 1.04878 0
M  V30 4960 O 463.499 0.895223 1.72673 0
M  V30 4961 C 463.782 3.55755 -0.557708 0
M  V30 4962 C 463.635 4.01332 -2.03107 0
M  V30 4963 C 464.954 4.40096 0.0197968 0
M  V30 4964 H 462.073 0.723667 -0.139552 0
M  V30 4965 H 464.715 1.60928 -1.01006 0
M  V30 4966 H 462.865 3.88494 -0.0213741 0
M  V30 4967 H 464.537 3.79026 -2.62939 0
M  V30 4968 H 462.78 3.52429 -2.52936 0
M  V30 4969 H 463.451 5.10234 -2.1063 0
M  V30 4970 H 465.927 4.13786 -0.438179 0
M  V30 4971 H 464.803 5.48735 -0.134477 0
M  V30 4972 H 465.064 4.2786 1.11303 0
M  V30 4973 N 464.123 0.554532 1.47522 0
M  V30 4974 C 465.033 -0.197865 2.33764 0
M  V30 4975 C 466.049 -0.914576 1.48025 0
M  V30 4976 O 467.225 -0.884067 1.80959 0
M  V30 4977 C 464.29 -1.21628 3.24665 0
M  V30 4978 C 463.351 -0.507283 4.26292 0
M  V30 4979 C 462.584 -1.47718 5.1285 0
M  V30 4980 O 462.807 -2.7118 5.01814 0
M  V30 4981 O 461.741 -1.00313 5.93482 0
M  V30 4982 H 465.567 0.50949 2.99396 0
M  V30 4983 H 463.152 0.315176 1.46038 0
M  V30 4984 H 465.034 -1.80421 3.80823 0
M  V30 4985 H 463.709 -1.9056 2.61665 0
M  V30 4986 H 462.616 0.121778 3.73902 0
M  V30 4987 H 463.949 0.140544 4.91999 0
M  V30 4988 N 465.601 -1.54893 0.290851 0
M  V30 4989 C 467.017 -1.59476 -0.0628432 0
M  V30 4990 C 467.217 -1.30795 -1.5328 0
M  V30 4991 O 466.273 -1.07644 -2.28406 0
M  V30 4992 C 467.586 -2.98928 0.325962 0
M  V30 4993 C 469.134 -3.11799 0.273882 0
M  V30 4994 C 469.609 -4.53544 0.637359 0
M  V30 4995 N 471.1 -4.59433 0.589507 0
M  V30 4996 C 471.835 -5.67164 0.84335 0
M  V30 4997 N 471.331 -6.82975 1.16263 0
M  V30 4998 N 473.124 -5.56786 0.771091 0
M  V30 4999 H 465.275 -1.71798 1.24896 0
M  V30 5000 H 467.538 -0.801879 0.505663 0
M  V30 5001 H 467.244 -3.24805 1.34887 0
M  V30 5002 H 467.118 -3.75793 -0.325441 0
M  V30 5003 H 469.505 -2.85677 -0.739765 0
M  V30 5004 H 469.586 -2.37112 0.959766 0
M  V30 5005 H 469.23 -4.80394 1.64877 0
M  V30 5006 H 469.16 -5.26553 -0.0704866 0
M  V30 5007 H 471.651 -3.76245 0.353252 0
M  V30 5008 H 471.964 -7.61048 1.34257 0
M  V30 5009 H 470.309 -6.84552 1.20057 0
M  V30 5010 H 473.5 -4.65187 0.521383 0
M  V30 5011 H 473.673 -6.40664 0.972295 0
M  V30 5012 N 467.08 -0.0183926 -1.57589 0
M  V30 5013 C 468.308 0.673046 -1.95647 0
M  V30 5014 C 468.723 1.66275 -0.894312 0
M  V30 5015 O 468.08 1.82072 0.124975 0
M  V30 5016 C 468.131 1.38884 -3.33756 0
M  V30 5017 O 467.852 0.438806 -4.35897 0
M  V30 5018 C 469.353 2.1731 -3.86383 0
M  V30 5019 H 466.573 0.186292 -0.644621 0
M  V30 5020 H 469.117 -0.0749748 -2.04363 0
M  V30 5021 H 467.272 2.08835 -3.26293 0
M  V30 5022 H 467.686 0.945869 -5.15901 0
M  V30 5023 H 469.16 2.62863 -4.85394 0
M  V30 5024 H 469.637 3.00764 -3.20059 0
M  V30 5025 H 470.243 1.52339 -3.97081 0
M  V30 5026 N 468.558 1.5553 0.254621 0
M  V30 5027 C 469.807 1.76202 0.981612 0
M  V30 5028 C 470.12 0.580883 1.86776 0
M  V30 5029 O 471.326 0.670448 2.63092 0
M  V30 5030 C 469.782 3.11921 1.79537 0
M  V30 5031 C 469.39 4.37659 0.956991 0
M  V30 5032 C 471.134 3.41936 2.51555 0
M  V30 5033 C 469.041 5.64411 1.76619 0
M  V30 5034 H 467.971 0.656841 0.370237 0
M  V30 5035 H 470.622 1.81969 0.236556 0
M  V30 5036 H 469.004 3.00241 2.58208 0
M  V30 5037 H 470.178 4.60307 0.21315 0
M  V30 5038 H 468.493 4.14922 0.350497 0
M  V30 5039 H 471.09 4.33849 3.12536 0
M  V30 5040 H 471.433 2.62905 3.22779 0
M  V30 5041 H 471.966 3.54797 1.799 0
M  V30 5042 H 468.705 6.46241 1.09783 0
M  V30 5043 H 468.225 5.45877 2.48551 0
M  V30 5044 H 469.904 6.03386 2.33527 0
M  V30 5045 N 470.036 -0.519951 1.48776 0
M  V30 5046 C 471.264 -1.29971 1.60982 0
M  V30 5047 C 471.679 -1.86803 0.273885 0
M  V30 5048 O 471.036 -1.66904 -0.738193 0
M  V30 5049 C 471.087 -2.44346 2.66415 0
M  V30 5050 O 470.808 -1.89855 3.94825 0
M  V30 5051 C 472.309 -3.36014 2.89153 0
M  V30 5052 H 469.529 -0.394891 0.542496 0
M  V30 5053 H 472.073 -0.626214 1.94676 0
M  V30 5054 H 470.228 -3.07562 2.35552 0
M  V30 5055 H 470.642 -2.64798 4.5275 0
M  V30 5056 H 472.116 -4.12593 3.66703 0
M  V30 5057 H 472.593 -3.91859 1.98351 0
M  V30 5058 H 473.199 -2.78582 3.21359 0
M  V30 5059 N 471.514 -1.37532 -0.769588 0
M  V30 5060 C 472.447 -1.27839 -1.8903 0
M  V30 5061 C 473.425 -0.158504 -1.61826 0
M  V30 5062 O 474.609 -0.333086 -1.85534 0
M  V30 5063 C 471.736 -0.977072 -3.24301 0
M  V30 5064 C 470.782 -2.11414 -3.70414 0
M  V30 5065 S 471.615 -3.73409 -3.83831 0
M  V30 5066 C 472.771 -3.45432 -5.21946 0
M  V30 5067 H 473.004 -2.22694 -1.96963 0
M  V30 5068 H 470.537 -1.2318 -0.930914 0
M  V30 5069 H 472.495 -0.810049 -4.02428 0
M  V30 5070 H 471.156 -0.0459701 -3.14066 0
M  V30 5071 H 470.349 -1.85837 -4.68488 0
M  V30 5072 H 469.951 -2.24141 -2.99394 0
M  V30 5073 H 472.243 -3.00554 -6.07185 0
M  V30 5074 H 473.186 -4.42841 -5.52537 0
M  V30 5075 H 473.594 -2.80311 -4.89986 0
M  V30 5076 N 472.992 0.995999 -1.22138 0
M  V30 5077 C 473.939 2.08551 -0.988687 0
M  V30 5078 C 474.909 1.65864 0.0885021 0
M  V30 5079 O 476.094 1.90704 -0.0604589 0
M  V30 5080 C 473.234 3.40374 -0.569191 0
M  V30 5081 C 472.347 3.96421 -1.71681 0
M  V30 5082 C 471.482 5.1639 -1.2456 0
M  V30 5083 C 470.521 5.64567 -2.36497 0
M  V30 5084 N 469.658 6.75777 -1.90445 0
M  V30 5085 H 474.498 2.2779 -1.92135 0
M  V30 5086 H 472.035 1.1168 -0.957388 0
M  V30 5087 H 473.993 4.16068 -0.307166 0
M  V30 5088 H 472.623 3.21145 0.326462 0
M  V30 5089 H 471.675 3.17628 -2.09324 0
M  V30 5090 H 472.987 4.2816 -2.55891 0
M  V30 5091 H 472.141 5.99362 -0.940774 0
M  V30 5092 H 470.88 4.86266 -0.373662 0
M  V30 5093 H 469.885 4.80185 -2.67772 0
M  V30 5094 H 471.11 5.96716 -3.24202 0
M  V30 5095 H 469.056 6.47443 -1.05609 0
M  V30 5096 H 468.973 7.06818 -2.68223 0
M  V30 5097 H 470.241 7.62262 -1.63022 0
M  V30 5098 N 474.47 1.03057 1.19235 0
M  V30 5099 C 475.402 0.570932 2.21975 0
M  V30 5100 C 476.415 -0.354088 1.58903 0
M  V30 5101 O 477.604 -0.150211 1.77867 0
M  V30 5102 C 474.704 -0.187152 3.38383 0
M  V30 5103 C 473.877 0.743231 4.31039 0
M  V30 5104 C 472.936 0.0302493 5.26191 0
M  V30 5105 O 471.962 0.657371 5.65391 0
M  V30 5106 N 473.164 -1.23991 5.67104 0
M  V30 5107 H 475.929 1.45456 2.62036 0
M  V30 5108 H 473.49 0.909807 1.33918 0
M  V30 5109 H 475.482 -0.673715 3.99053 0
M  V30 5110 H 474.052 -0.972205 2.97098 0
M  V30 5111 H 473.272 1.40985 3.68126 0
M  V30 5112 H 474.56 1.3755 4.89854 0
M  V30 5113 H 473.958 -1.77011 5.37293 0
M  V30 5114 H 472.515 -1.67093 6.30018 0
M  V30 5115 N 475.948 -1.35272 0.808662 0
M  V30 5116 C 476.878 -2.32315 0.234981 0
M  V30 5117 C 477.859 -1.57572 -0.64071 0
M  V30 5118 O 479.044 -1.8563 -0.570551 0
M  V30 5119 C 476.174 -3.41801 -0.615601 0
M  V30 5120 C 475.128 -4.27694 0.161767 0
M  V30 5121 C 474.454 -5.28519 -0.810649 0
M  V30 5122 C 475.754 -5.04231 1.36193 0
M  V30 5123 H 477.448 -2.80543 1.04575 0
M  V30 5124 H 474.994 -1.3488 0.504315 0
M  V30 5125 H 476.947 -4.08693 -1.02702 0
M  V30 5126 H 475.671 -2.92186 -1.45928 0
M  V30 5127 H 474.33 -3.62384 0.554382 0
M  V30 5128 H 473.978 -4.75171 -1.64988 0
M  V30 5129 H 473.678 -5.8686 -0.294822 0
M  V30 5130 H 475.202 -5.98283 -1.22023 0
M  V30 5131 H 476.616 -5.64058 1.02528 0
M  V30 5132 H 475.013 -5.72077 1.81239 0
M  V30 5133 H 476.083 -4.34753 2.14751 0
M  V30 5134 N 477.426 -0.562348 -1.47226 0
M  V30 5135 C 478.356 0.170627 -2.32876 0
M  V30 5136 C 479.337 0.903748 -1.44106 0
M  V30 5137 O 480.522 0.883206 -1.72954 0
M  V30 5138 C 477.652 1.19786 -3.25989 0
M  V30 5139 C 476.606 0.580875 -4.2404 0
M  V30 5140 C 475.932 1.71311 -5.06514 0
M  V30 5141 C 477.232 -0.468714 -5.20193 0
M  V30 5142 H 478.926 -0.544441 -2.94408 0
M  V30 5143 H 476.472 -0.263271 -1.41573 0
M  V30 5144 H 478.425 1.71884 -3.84752 0
M  V30 5145 H 477.149 1.94294 -2.62521 0
M  V30 5146 H 475.808 0.0811538 -3.6651 0
M  V30 5147 H 475.456 2.44736 -4.39447 0
M  V30 5148 H 475.156 1.30604 -5.72902 0
M  V30 5149 H 476.68 2.23725 -5.68137 0
M  V30 5150 H 478.094 -0.0336028 -5.7329 0
M  V30 5151 H 476.491 -0.794957 -5.94811 0
M  V30 5152 H 477.561 -1.36269 -4.65359 0
M  V30 5153 N 478.904 1.54736 -0.299062 0
M  V30 5154 C 480.32 1.59507 0.0543849 0
M  V30 5155 C 480.52 1.31606 1.52585 0
M  V30 5156 O 479.576 1.08853 2.27832 0
M  V30 5157 C 480.889 2.98751 -0.34181 0
M  V30 5158 C 482.437 3.1165 -0.290414 0
M  V30 5159 C 482.912 4.53199 -0.661402 0
M  V30 5160 N 484.403 4.59114 -0.613863 0
M  V30 5161 C 485.138 5.66709 -0.873417 0
M  V30 5162 N 484.634 6.82349 -1.19884 0
M  V30 5163 N 486.427 5.56369 -0.800608 0
M  V30 5164 H 478.578 1.71133 -1.25806 0
M  V30 5165 H 480.841 0.799186 -0.509908 0
M  V30 5166 H 480.547 3.24085 -1.36608 0
M  V30 5167 H 480.421 3.75961 0.305508 0
M  V30 5168 H 482.808 2.86066 0.724605 0
M  V30 5169 H 482.889 2.366 -0.972327 0
M  V30 5170 H 482.533 4.79513 -1.67422 0
M  V30 5171 H 482.463 5.26583 0.0425612 0
M  V30 5172 H 484.954 3.76053 -0.3732 0
M  V30 5173 H 485.267 7.60326 -1.38291 0
M  V30 5174 H 483.612 6.83906 -1.23685 0
M  V30 5175 H 486.803 4.64904 -0.546045 0
M  V30 5176 H 486.976 6.40139 -1.00626 0
M  V30 5177 N 480.382 0.0267497 1.57577 0
M  V30 5178 C 481.345 -0.940916 2.08996 0
M  V30 5179 C 482.345 -1.25561 1.00455 0
M  V30 5180 O 483.535 -1.19634 1.26623 0
M  V30 5181 C 480.667 -2.25814 2.55384 0
M  V30 5182 H 481.86 -0.495628 2.95776 0
M  V30 5183 H 479.413 -0.221241 1.54726 0
M  V30 5184 H 480.148 -2.74976 1.71926 0
M  V30 5185 H 479.933 -2.04285 3.34679 0
M  V30 5186 H 481.423 -2.95178 2.95398 0
M  V30 5187 N 481.861 -1.55662 -0.24637 0
M  V30 5188 C 482.791 -1.93377 -1.30873 0
M  V30 5189 C 483.772 -0.798773 -1.50179 0
M  V30 5190 O 484.957 -1.0591 -1.62778 0
M  V30 5191 C 482.087 -2.22893 -2.66338 0
M  V30 5192 C 481.041 -3.38649 -2.61727 0
M  V30 5193 C 480.367 -3.53708 -4.00992 0
M  V30 5194 C 481.667 -4.74323 -2.18666 0
M  V30 5195 H 483.361 -2.82363 -0.995552 0
M  V30 5196 H 480.907 -1.35854 -0.477464 0
M  V30 5197 H 482.86 -2.47866 -3.40794 0
M  V30 5198 H 481.584 -1.30733 -2.99293 0
M  V30 5199 H 480.243 -3.13685 -1.89729 0
M  V30 5200 H 479.891 -2.58967 -4.31214 0
M  V30 5201 H 479.591 -4.31551 -3.98795 0
M  V30 5202 H 481.115 -3.81003 -4.77147 0
M  V30 5203 H 482.529 -4.98665 -2.82854 0
M  V30 5204 H 480.926 -5.55273 -2.27579 0
M  V30 5205 H 481.996 -4.71349 -1.13834 0
M  V30 5206 N 483.339 0.512053 -1.4905 0
M  V30 5207 C 484.249 1.64139 -1.67617 0
M  V30 5208 C 485.265 1.64786 -0.558701 0
M  V30 5209 O 486.441 1.8341 -0.832034 0
M  V30 5210 C 483.506 3.00548 -1.72835 0
M  V30 5211 C 482.567 3.10615 -2.96339 0
M  V30 5212 C 481.8 4.40517 -3.01298 0
M  V30 5213 O 482.023 5.28671 -2.14157 0
M  V30 5214 O 480.957 4.55325 -3.93653 0
M  V30 5215 H 484.783 1.51407 -2.63267 0
M  V30 5216 H 482.368 0.687131 -1.32661 0
M  V30 5217 H 484.25 3.81641 -1.78683 0
M  V30 5218 H 482.925 3.13566 -0.803616 0
M  V30 5219 H 481.832 2.2875 -2.96014 0
M  V30 5220 H 483.165 3.0252 -3.88256 0
M  V30 5221 N 484.817 1.37938 0.762283 0
M  V30 5222 C 485.727 1.36681 1.90671 0
M  V30 5223 C 486.743 0.265078 1.71969 0
M  V30 5224 O 487.919 0.502055 1.95042 0
M  V30 5225 C 484.984 1.18211 3.25925 0
M  V30 5226 C 484.045 2.3811 3.57214 0
M  V30 5227 C 483.278 2.20512 4.86014 0
M  V30 5228 O 483.501 1.19429 5.57757 0
M  V30 5229 O 482.435 3.08911 5.16583 0
M  V30 5230 H 486.261 2.33091 1.94685 0
M  V30 5231 H 483.846 1.18767 0.906356 0
M  V30 5232 H 485.728 1.09937 4.06807 0
M  V30 5233 H 484.403 0.248807 3.22742 0
M  V30 5234 H 483.31 2.51958 2.76529 0
M  V30 5235 H 484.643 3.30041 3.65149 0
M  V30 5236 N 486.295 -0.989507 1.22664 0
M  V30 5237 C 487.543 -1.72612 1.05117 0
M  V30 5238 C 487.864 -1.90552 -0.414131 0
M  V30 5239 O 487.134 -1.4676 -1.29762 0
M  V30 5240 H 485.714 -0.639555 0.385977 0
M  V30 5241 H 488.376 -1.19158 1.54232 0
M  V30 5242 H 487.472 -2.71926 1.53175 0
M  V30 5243 N 487.773 -1.03688 -1.18687 0
M  V30 5244 C 489.189 -0.755413 -1.4059 0
M  V30 5245 C 489.389 0.656659 -1.905 0
M  V30 5246 O 488.445 1.42144 -2.08689 0
M  V30 5247 C 489.758 -1.7983 -2.41001 0
M  V30 5248 C 491.306 -1.81877 -2.54735 0
M  V30 5249 C 491.781 -2.85148 -3.58406 0
M  V30 5250 N 493.272 -2.84015 -3.6591 0
M  V30 5251 C 494.007 -3.60573 -4.45841 0
M  V30 5252 N 493.503 -4.46871 -5.29413 0
M  V30 5253 N 495.296 -3.49079 -4.40568 0
M  V30 5254 H 487.447 -1.94818 -0.846148 0
M  V30 5255 H 489.71 -0.842727 -0.434184 0
M  V30 5256 H 489.416 -2.81097 -2.1137 0
M  V30 5257 H 489.29 -1.62727 -3.40294 0
M  V30 5258 H 491.677 -0.812836 -2.83685 0
M  V30 5259 H 491.758 -2.03057 -1.55568 0
M  V30 5260 H 491.402 -3.85918 -3.30197 0
M  V30 5261 H 491.332 -2.61224 -4.57241 0
M  V30 5262 H 493.823 -2.21431 -3.0623 0
M  V30 5263 H 494.136 -5.02007 -5.87545 0
M  V30 5264 H 492.481 -4.5094 -5.28846 0
M  V30 5265 H 495.672 -2.81066 -3.74325 0
M  V30 5266 H 495.845 -4.08994 -5.02621 0
M  V30 5267 N 489.251 1.34841 -0.815825 0
M  V30 5268 C 490.497 1.98793 -0.401129 0
M  V30 5269 C 490.83 1.64548 1.03139 0
M  V30 5270 O 490.105 0.913487 1.71714 0
M  V30 5271 C 490.388 3.55143 -0.595409 0
M  V30 5272 C 490.241 3.99155 -2.07352 0
M  V30 5273 C 491.56 4.40092 -0.0268823 0
M  V30 5274 H 488.679 0.722146 -0.14722 0
M  V30 5275 H 491.321 1.59847 -1.02707 0
M  V30 5276 H 489.471 3.8845 -0.0625779 0
M  V30 5277 H 491.143 3.76216 -2.66945 0
M  V30 5278 H 489.386 3.49726 -2.56659 0
M  V30 5279 H 490.057 5.07971 -2.1603 0
M  V30 5280 H 492.533 4.13298 -0.482042 0
M  V30 5281 H 491.409 5.48562 -0.19267 0
M  V30 5282 H 491.67 4.29016 1.06759 0
M  V30 5283 N 490.729 0.570148 1.46925 0
M  V30 5284 C 492.145 0.23087 1.57921 0
M  V30 5285 C 492.345 -1.26676 1.56702 0
M  V30 5286 O 491.401 -2.04774 1.47729 0
M  V30 5287 C 492.714 0.868973 2.8787 0
M  V30 5288 C 494.262 0.841397 3.01479 0
M  V30 5289 C 494.737 1.45881 4.34146 0
M  V30 5290 N 496.228 1.42258 4.40814 0
M  V30 5291 C 496.963 1.8698 5.42057 0
M  V30 5292 N 496.459 2.39618 6.50042 0
M  V30 5293 N 498.252 1.77972 5.33181 0
M  V30 5294 H 490.403 1.54301 1.45962 0
M  V30 5295 H 492.666 0.644224 0.69547 0
M  V30 5296 H 492.372 1.922 2.94537 0
M  V30 5297 H 492.246 0.369682 3.75384 0
M  V30 5298 H 494.633 -0.202973 2.94401 0
M  V30 5299 H 494.714 1.37858 2.15474 0
M  V30 5300 H 494.358 2.50231 4.4198 0
M  V30 5301 H 494.288 0.896958 5.18905 0
M  V30 5302 H 496.779 1.03768 3.63374 0
M  V30 5303 H 497.092 2.71633 7.23488 0
M  V30 5304 H 495.437 2.43636 6.50897 0
M  V30 5305 H 498.628 1.36617 4.4772 0
M  V30 5306 H 498.801 2.13143 6.11943 0
M  V30 5307 N 492.207 -1.54576 0.307264 0
M  V30 5308 C 493.117 -2.27435 -0.57536 0
M  V30 5309 C 494.133 -1.31183 -1.14311 0
M  V30 5310 O 495.309 -1.64175 -1.16656 0
M  V30 5311 C 492.374 -3.00566 -1.72803 0
M  V30 5312 C 491.435 -4.12369 -1.19373 0
M  V30 5313 C 490.668 -4.82003 -2.29147 0
M  V30 5314 O 490.891 -4.51038 -3.49171 0
M  V30 5315 O 489.825 -5.69271 -1.95485 0
M  V30 5316 H 493.651 -3.03696 0.0158558 0
M  V30 5317 H 491.236 -1.49219 0.0735064 0
M  V30 5318 H 493.118 -3.46416 -2.39946 0
M  V30 5319 H 491.793 -2.27195 -2.30574 0
M  V30 5320 H 490.7 -3.70905 -0.487851 0
M  V30 5321 H 492.033 -4.87736 -0.661376 0
M  V30 5322 N 493.685 -0.035106 -1.57561 0
M  V30 5323 C 494.931 0.64318 -1.92331 0
M  V30 5324 C 495.264 1.71434 -0.912368 0
M  V30 5325 O 494.539 1.94395 0.0640303 0
M  V30 5326 C 494.822 1.25411 -3.37556 0
M  V30 5327 C 494.675 0.192109 -4.4939 0
M  V30 5328 C 495.994 2.17041 -3.82859 0
M  V30 5329 H 493.113 0.232341 -0.699419 0
M  V30 5330 H 495.755 -0.0935889 -1.89769 0
M  V30 5331 H 493.905 1.88205 -3.39869 0
M  V30 5332 H 495.577 -0.438849 -4.59208 0
M  V30 5333 H 493.82 -0.481725 -4.31117 0
M  V30 5334 H 494.491 0.659292 -5.48049 0
M  V30 5335 H 496.967 1.64228 -3.8232 0
M  V30 5336 H 495.843 2.56738 -4.85157 0
M  V30 5337 H 496.104 3.06401 -3.18702 0
M  V30 5338 N 495.163 1.55791 0.238111 0
M  V30 5339 C 496.41 1.78033 0.964907 0
M  V30 5340 C 496.738 0.600984 1.84982 0
M  V30 5341 O 495.993 -0.41536 1.91241 0
M  V30 5342 C 496.292 3.05869 1.84875 0
M  V30 5343 C 495.958 4.36808 1.11846 0
M  V30 5344 C 494.62 4.72388 0.916662 0
M  V30 5345 C 496.972 5.17717 0.60151 0
M  V30 5346 C 494.3 5.86406 0.185756 0
M  V30 5347 C 496.652 6.32494 -0.115972 0
M  V30 5348 C 495.316 6.66688 -0.329168 0
M  V30 5349 H 494.586 0.651469 0.353085 0
M  V30 5350 H 497.233 1.90061 0.234318 0
M  V30 5351 H 495.538 2.88891 2.64668 0
M  V30 5352 H 497.235 3.20278 2.41294 0
M  V30 5353 H 493.825 4.08862 1.28569 0
M  V30 5354 H 498.009 4.90678 0.744932 0
M  V30 5355 H 493.265 6.11399 0.0101886 0
M  V30 5356 H 497.439 6.94425 -0.524127 0
M  V30 5357 H 495.066 7.54884 -0.897474 0
M  V30 5358 N 496.642 -0.504142 1.49319 0
M  V30 5359 C 497.89 -1.25598 1.58334 0
M  V30 5360 C 498.211 -1.93114 0.270538 0
M  V30 5361 O 497.481 -1.82585 -0.709891 0
M  V30 5362 H 496.061 -0.466571 0.58337 0
M  V30 5363 H 498.723 -0.584547 1.85928 0
M  V30 5364 H 497.819 -2.02159 2.37778 0
M  V30 5365 N 498.12 -1.38341 -0.754957 0
M  V30 5366 C 499.345 -1.37882 -1.5493 0
M  V30 5367 C 499.77 0.0296385 -1.88077 0
M  V30 5368 O 499.128 1.01133 -1.50472 0
M  V30 5369 C 499.176 -2.23996 -2.82592 0
M  V30 5370 O 498.28 -1.65612 -3.77686 0
M  V30 5371 H 497.621 -0.470384 -0.468652 0
M  V30 5372 H 500.151 -1.82084 -0.933082 0
M  V30 5373 H 500.161 -2.37806 -3.3153 0
M  V30 5374 H 498.836 -3.26365 -2.57796 0
M  V30 5375 H 497.413 -1.60936 -3.36384 0
M  V30 5376 N 499.598 0.982988 -1.23187 0
M  V30 5377 C 500.846 1.72052 -1.06031 0
M  V30 5378 C 501.167 1.90769 0.404019 0
M  V30 5379 O 500.437 1.47446 1.28982 0
M  V30 5380 H 499.017 0.637499 -0.389363 0
M  V30 5381 H 501.679 1.18338 -1.54862 0
M  V30 5382 H 500.775 2.7111 -1.54615 0
M  V30 5383 N 501.076 1.04316 1.18135 0
M  V30 5384 C 502.304 0.768117 1.92113 0
M  V30 5385 C 502.719 -0.675057 1.76319 0
M  V30 5386 O 502.076 -1.46038 1.09449 0
M  V30 5387 C 502.127 1.12808 3.43448 0
M  V30 5388 O 501.848 2.5146 3.58747 0
M  V30 5389 C 503.349 0.8779 4.3452 0
M  V30 5390 H 500.569 0.279937 0.609817 0
M  V30 5391 H 503.113 1.39149 1.49859 0
M  V30 5392 H 501.268 0.549623 3.83481 0
M  V30 5393 H 501.682 2.65313 4.52448 0
M  V30 5394 H 503.156 1.17959 5.39249 0
M  V30 5395 H 503.633 -0.187239 4.38801 0
M  V30 5396 H 504.239 1.43977 4.00188 0
M  V30 5397 N 502.554 -1.34406 0.822964 0
M  V30 5398 C 503.517 -2.2783 0.250271 0
M  V30 5399 C 504.517 -1.50288 -0.571854 0
M  V30 5400 O 505.707 -1.69825 -0.387952 0
M  V30 5401 C 502.839 -3.34663 -0.649137 0
M  V30 5402 H 504.032 -2.79992 1.07444 0
M  V30 5403 H 501.585 -1.44539 0.594829 0
M  V30 5404 H 502.32 -2.87714 -1.49637 0
M  V30 5405 H 502.105 -3.92052 -0.0611199 0
M  V30 5406 H 503.595 -4.04349 -1.04363 0
M  V30 5407 N 504.032 -0.577932 -1.46621 0
M  V30 5408 C 505.272 -0.0643097 -2.04299 0
M  V30 5409 C 505.636 1.26967 -1.44026 0
M  V30 5410 O 506.837 1.87224 -1.92875 0
M  V30 5411 C 505.108 0.00547588 -3.574 0
M  V30 5412 S 506.667 0.462216 -4.36359 0
M  V30 5413 H 503.485 -0.0351573 -0.71013 0
M  V30 5414 H 506.087 -0.76935 -1.79725 0
M  V30 5415 H 504.791 -0.969423 -3.98786 0
M  V30 5416 H 504.322 0.733435 -3.86503 0
M  V30 5417 H 506.337 1.71791 -4.65513 0
M  V30 5418 N 505.51 1.54411 -0.315457 0
M  V30 5419 C 506.442 2.21527 0.588067 0
M  V30 5420 C 507.455 1.21263 1.08624 0
M  V30 5421 O 508.644 1.47777 1.00121 0
M  V30 5422 C 505.744 2.85963 1.81875 0
M  V30 5423 C 504.917 4.12291 1.46063 0
M  V30 5424 C 503.976 4.60396 2.54799 0
M  V30 5425 O 503.002 5.25265 2.19283 0
M  V30 5426 N 504.204 4.33935 3.85591 0
M  V30 5427 H 506.969 2.99697 0.013414 0
M  V30 5428 H 504.53 1.61308 -0.138295 0
M  V30 5429 H 506.522 3.15071 2.53993 0
M  V30 5430 H 505.092 2.11548 2.30144 0
M  V30 5431 H 504.312 3.90036 0.571445 0
M  V30 5432 H 505.6 4.9452 1.19695 0
M  V30 5433 H 504.998 3.81996 4.17248 0
M  V30 5434 H 503.555 4.67718 4.53964 0
M  V30 5435 N 506.988 0.0434614 1.5754 0
M  V30 5436 C 508.234 -0.632971 1.92669 0
M  V30 5437 C 508.567 -1.70947 0.921446 0
M  V30 5438 O 507.842 -1.94426 -0.0537202 0
M  V30 5439 C 508.125 -1.23619 3.38216 0
M  V30 5440 C 507.978 -0.168274 4.49485 0
M  V30 5441 C 509.297 -2.15008 3.84005 0
M  V30 5442 H 506.416 -0.228629 0.700641 0
M  V30 5443 H 509.058 0.103651 1.89717 0
M  V30 5444 H 507.208 -1.864 3.40863 0
M  V30 5445 H 508.88 0.463196 4.58969 0
M  V30 5446 H 507.123 0.504581 4.30855 0
M  V30 5447 H 507.794 -0.630218 5.48391 0
M  V30 5448 H 510.27 -1.62198 3.83185 0
M  V30 5449 H 509.146 -2.54161 4.86511 0
M  V30 5450 H 509.407 -3.04707 3.20322 0
M  V30 5451 N 508.466 -1.55915 -0.229846 0
M  V30 5452 C 509.706 -1.80314 -0.962614 0
M  V30 5453 C 510.07 -0.61568 -1.81861 0
M  V30 5454 O 511.271 -0.738795 -2.58448 0
M  V30 5455 C 509.542 -3.0956 -1.78627 0
M  V30 5456 S 511.101 -3.55243 -2.57581 0
M  V30 5457 H 507.919 -0.633142 -0.323499 0
M  V30 5458 H 510.521 -1.94155 -0.228919 0
M  V30 5459 H 509.225 -3.94033 -1.14742 0
M  V30 5460 H 508.756 -2.98503 -2.56241 0
M  V30 5461 H 510.771 -3.17924 -3.80971 0
M  V30 5462 N 509.944 0.496216 -1.49584 0
M  V30 5463 C 511.355 1.07765 -1.52459 0
M  V30 5464 C 511.706 1.93679 -0.31353 0
M  V30 5465 O 510.831 2.08588 0.576186 0
M  V30 5466 C 511.426 1.96111 -2.76271 0
M  V30 5467 C 509.985 2.49409 -2.81908 0
M  V30 5468 C 509.132 1.27142 -2.46435 0
M  V30 5469 H 512.083 0.279914 -1.56212 0
M  V30 5470 H 512.104 2.80862 -2.56704 0
M  V30 5471 H 511.616 1.33555 -3.64396 0
M  V30 5472 H 509.717 3.1559 -1.98074 0
M  V30 5473 H 509.83 2.86234 -3.84196 0
M  V30 5474 H 508.194 1.59818 -1.98319 0
M  V30 5475 H 508.977 0.662866 -3.3684 0
M  V30 5476 N 511.423 1.38739 0.74761 0
M  V30 5477 C 512.669 1.35475 1.50912 0
M  V30 5478 C 513.002 -0.0533093 1.94127 0
M  V30 5479 O 512.277 -1.01572 1.65871 0
M  V30 5480 C 512.56 2.31582 2.75757 0
M  V30 5481 C 512.413 3.81274 2.38642 0
M  V30 5482 C 513.732 2.25722 3.77806 0
M  V30 5483 H 510.851 0.493427 0.547447 0
M  V30 5484 H 513.493 1.69634 0.855823 0
M  V30 5485 H 511.643 2.02582 3.31501 0
M  V30 5486 H 513.315 4.20972 1.88626 0
M  V30 5487 H 511.558 3.98664 1.71025 0
M  V30 5488 H 512.229 4.4399 3.27989 0
M  V30 5489 H 514.705 2.51336 3.31616 0
M  V30 5490 H 513.581 2.95069 4.62845 0
M  V30 5491 H 513.842 1.25803 4.23823 0
M  V30 5492 N 512.901 -0.976442 1.23707 0
M  V30 5493 C 513.851 -2.0544 0.988851 0
M  V30 5494 C 514.835 -1.60762 -0.0665901 0
M  V30 5495 O 516.027 -1.76396 0.14604 0
M  V30 5496 C 513.156 -3.38258 0.586223 0
M  V30 5497 C 512.242 -3.89523 1.67728 0
M  V30 5498 N 512.633 -4.13823 2.90834 0
M  V30 5499 C 510.931 -4.18097 1.55277 0
M  V30 5500 C 511.632 -4.55731 3.61502 0
M  V30 5501 N 510.608 -4.60394 2.8903 0
M  V30 5502 H 514.41 -2.22191 1.92376 0
M  V30 5503 H 511.924 -1.15954 1.13704 0
M  V30 5504 H 513.921 -4.15075 0.389658 0
M  V30 5505 H 512.581 -3.22898 -0.341594 0
M  V30 5506 H 513.592 -4.01529 3.271 0
M  V30 5507 H 510.269 -4.11719 0.692351 0
M  V30 5508 H 511.659 -4.83018 4.67059 0
M  V30 5509 N 514.379 -1.04941 -1.1758 0
M  V30 5510 C 515.795 -0.770282 -1.39781 0
M  V30 5511 C 515.995 0.636417 -1.91186 0
M  V30 5512 O 515.051 1.39923 -2.10185 0
M  V30 5513 C 516.364 -1.82376 -2.3908 0
M  V30 5514 C 517.912 -1.84569 -2.52791 0
M  V30 5515 C 518.387 -2.88933 -3.55361 0
M  V30 5516 N 519.878 -2.8788 -3.62877 0
M  V30 5517 C 520.613 -3.65282 -4.41992 0
M  V30 5518 N 520.109 -4.52461 -5.24643 0
M  V30 5519 N 521.902 -3.53732 -4.36841 0
M  V30 5520 H 514.053 -1.95705 -0.825438 0
M  V30 5521 H 516.316 -0.847284 -0.425222 0
M  V30 5522 H 516.022 -2.83323 -2.08376 0
M  V30 5523 H 515.896 -1.66327 -3.38549 0
M  V30 5524 H 518.283 -0.842879 -2.82807 0
M  V30 5525 H 518.364 -2.04696 -1.53406 0
M  V30 5526 H 518.008 -3.89398 -3.26085 0
M  V30 5527 H 517.938 -2.66059 -4.54445 0
M  V30 5528 H 520.429 -2.24666 -3.03864 0
M  V30 5529 H 520.742 -5.08211 -5.82187 0
M  V30 5530 H 519.087 -4.56524 -5.24033 0
M  V30 5531 H 522.278 -2.85021 -3.71323 0
M  V30 5532 H 522.451 -4.14302 -4.98255 0
M  V30 5533 N 515.857 1.33968 -0.830081 0
M  V30 5534 C 517.106 1.97323 -0.417928 0
M  V30 5535 C 517.419 1.6652 1.02618 0
M  V30 5536 O 518.625 2.2342 1.54259 0
M  V30 5537 C 517.081 3.53099 -0.696359 0
M  V30 5538 C 516.689 3.92788 -2.15457 0
M  V30 5539 C 518.433 4.23049 -0.350724 0
M  V30 5540 C 516.34 5.41506 -2.37751 0
M  V30 5541 H 515.27 0.738409 -0.152541 0
M  V30 5542 H 517.921 1.52711 -1.01744 0
M  V30 5543 H 516.303 3.95991 -0.0265904 0
M  V30 5544 H 517.477 3.6098 -2.86408 0
M  V30 5545 H 515.792 3.35795 -2.46232 0
M  V30 5546 H 518.389 5.32403 -0.495036 0
M  V30 5547 H 518.732 4.10279 0.705476 0
M  V30 5548 H 519.265 3.85657 -0.975362 0
M  V30 5549 H 516.004 5.5927 -3.41903 0
M  V30 5550 H 515.524 5.74804 -1.7135 0
M  V30 5551 H 517.203 6.0828 -2.20465 0
M  V30 5552 N 517.335 0.585699 1.46312 0
M  V30 5553 C 518.265 -0.133556 2.33118 0
M  V30 5554 C 519.246 -0.880707 1.45525 0
M  V30 5555 O 520.431 -0.855579 1.74337 0
M  V30 5556 C 517.561 -1.14585 3.27853 0
M  V30 5557 C 516.515 -0.513341 4.2491 0
M  V30 5558 C 515.841 -1.63231 5.09175 0
M  V30 5559 C 517.141 0.551413 5.19381 0
M  V30 5560 H 518.835 0.59121 2.93505 0
M  V30 5561 H 516.381 0.285761 1.41136 0
M  V30 5562 H 518.334 -1.65741 3.87438 0
M  V30 5563 H 517.058 -1.90093 2.65579 0
M  V30 5564 H 515.717 -0.0228349 3.66593 0
M  V30 5565 H 515.365 -2.37713 4.43285 0
M  V30 5566 H 515.065 -1.21473 5.74907 0
M  V30 5567 H 516.589 -2.14658 5.71624 0
M  V30 5568 H 518.003 0.124804 5.73164 0
M  V30 5569 H 516.4 0.889486 5.93471 0
M  V30 5570 H 517.47 1.43655 4.63132 0
M  V30 5571 N 518.813 -1.54241 0.323641 0
M  V30 5572 C 520.043 -2.04687 -0.280464 0
M  V30 5573 C 520.451 -1.19939 -1.46326 0
M  V30 5574 O 519.794 -0.222872 -1.82343 0
M  V30 5575 C 519.856 -3.50978 -0.778123 0
M  V30 5576 C 519.52 -4.56127 0.282371 0
M  V30 5577 C 520.517 -5.07726 1.11847 0
M  V30 5578 C 518.202 -5.00451 0.430582 0
M  V30 5579 C 520.196 -6.02212 2.08851 0
M  V30 5580 C 517.883 -5.94752 1.40404 0
M  V30 5581 C 518.881 -6.45519 2.23147 0
M  V30 5582 O 518.569 -7.37968 3.1884 0
M  V30 5583 H 518.301 -0.673192 -0.0615473 0
M  V30 5584 H 520.855 -1.99999 0.467921 0
M  V30 5585 H 519.085 -3.53064 -1.57742 0
M  V30 5586 H 520.774 -3.84499 -1.30058 0
M  V30 5587 H 521.54 -4.74261 1.01496 0
M  V30 5588 H 517.419 -4.6055 -0.203569 0
M  V30 5589 H 520.963 -6.41761 2.73474 0
M  V30 5590 H 516.86 -6.27633 1.5082 0
M  V30 5591 H 517.628 -7.55841 3.14079 0
M  V30 5592 N 520.291 -0.0518155 -1.57515 0
M  V30 5593 C 521.238 0.922352 -2.11569 0
M  V30 5594 C 522.208 1.30842 -1.02321 0
M  V30 5595 O 523.393 1.39778 -1.29872 0
M  V30 5596 C 520.533 2.19167 -2.6657 0
M  V30 5597 C 519.646 1.86003 -3.89906 0
M  V30 5598 C 518.781 3.07398 -4.33221 0
M  V30 5599 C 517.82 2.70158 -5.49255 0
M  V30 5600 N 516.957 3.84248 -5.8762 0
M  V30 5601 H 521.797 0.454506 -2.94514 0
M  V30 5602 H 519.334 0.212718 -1.45554 0
M  V30 5603 H 521.292 2.93443 -2.96559 0
M  V30 5604 H 519.922 2.63528 -1.86421 0
M  V30 5605 H 518.974 1.01874 -3.66505 0
M  V30 5606 H 520.286 1.54592 -4.74239 0
M  V30 5607 H 519.44 3.89972 -4.64765 0
M  V30 5608 H 518.179 3.41988 -3.477 0
M  V30 5609 H 517.184 1.86001 -5.17382 0
M  V30 5610 H 518.409 2.36759 -6.36492 0
M  V30 5611 H 516.355 4.18638 -5.05053 0
M  V30 5612 H 516.272 3.56538 -6.66646 0
M  V30 5613 H 517.54 4.6746 -6.2378 0
M  V30 5614 N 521.769 1.56035 0.221574 0
M  V30 5615 C 523.046 1.69837 0.970301 0
M  V30 5616 C 523.426 0.599065 2.02421 0
M  V30 5617 O 522.774 -0.393929 2.25079 0
M  V30 5618 C 522.984 3.11148 1.58076 0
M  V30 5619 C 524.332 3.70555 2.07302 0
M  V30 5620 O 525.356 3.14109 1.6797 0
M  V30 5621 O 524.215 4.69562 2.79596 0
M  V30 5622 H 521.309 0.691727 0.453257 0
M  V30 5623 H 523.855 1.68353 0.213358 0
M  V30 5624 H 522.627 3.82617 0.819759 0
M  V30 5625 H 522.25 3.16749 2.40324 0
M  V30 5626 N 523.247 -0.488276 1.49845 0
M  V30 5627 C 524.663 -0.820566 1.3689 0
M  V30 5628 C 524.863 -1.97248 0.411752 0
M  V30 5629 O 523.919 -2.52042 -0.151931 0
M  V30 5630 C 525.232 -1.1488 2.77891 0
M  V30 5631 C 526.78 -1.25626 2.86683 0
M  V30 5632 C 527.255 -1.61772 4.28479 0
M  V30 5633 N 528.746 -1.68797 4.31349 0
M  V30 5634 C 529.481 -1.98235 5.38043 0
M  V30 5635 N 528.977 -2.2581 6.54967 0
M  V30 5636 N 530.77 -1.99593 5.2547 0
M  V30 5637 H 522.921 0.271123 2.10662 0
M  V30 5638 H 525.184 0.058735 0.946179 0
M  V30 5639 H 524.89 -0.375614 3.49688 0
M  V30 5640 H 524.764 -2.08919 3.14058 0
M  V30 5641 H 527.151 -2.02014 2.15114 0
M  V30 5642 H 527.232 -0.296072 2.54081 0
M  V30 5643 H 526.876 -0.859295 5.00578 0
M  V30 5644 H 526.806 -2.58912 4.58554 0
M  V30 5645 H 529.297 -1.49595 3.4703 0
M  V30 5646 H 529.61 -2.47497 7.32096 0
M  V30 5647 H 527.955 -2.23239 6.58171 0
M  V30 5648 H 531.146 -1.77535 4.33127 0
M  V30 5649 H 531.319 -2.222 6.08713 0
M  V30 5650 N 524.725 -1.39134 -0.740242 0
M  V30 5651 C 525.673 -1.3757 -1.87556 0
M  V30 5652 C 526.667 -0.259593 -1.67399 0
M  V30 5653 O 527.873 -0.429349 -1.74804 0
M  V30 5654 H 524.248 -0.42947 -0.6173 0
M  V30 5655 H 526.219 -2.33345 -1.85991 0
M  V30 5656 C 524.968 -1.23087 -3.25184 0
M  V30 5657 H 524.291 -2.08237 -3.41288 0
M  V30 5658 H 525.731 -1.26049 -4.0483 0
M  V30 5659 C 524.19 0.0611471 -3.36845 0
M  V30 5660 O 524.72 1.03328 -3.88183 0
M  V30 5661 N 522.926 0.122454 -2.90342 0
M  V30 5662 H 522.473 -0.669329 -2.48752 0
M  V30 5663 H 522.431 0.986463 -2.98523 0
M  V30 5664 N 526.204 0.969867 -1.24223 0
M  V30 5665 C 527.134 2.08191 -1.05729 0
M  V30 5666 C 528.115 1.70075 0.0290765 0
M  V30 5667 O 529.3 1.93712 -0.137583 0
M  V30 5668 C 526.43 3.40991 -0.658995 0
M  V30 5669 C 525.384 3.93054 -1.69389 0
M  V30 5670 C 524.71 5.22171 -1.15072 0
M  V30 5671 C 526.01 4.21137 -3.08935 0
M  V30 5672 H 527.704 2.23921 -1.98746 0
M  V30 5673 H 525.25 1.07602 -0.956967 0
M  V30 5674 H 527.203 4.18221 -0.51662 0
M  V30 5675 H 525.927 3.25155 0.30686 0
M  V30 5676 H 524.586 3.17977 -1.82444 0
M  V30 5677 H 524.234 5.02694 -0.175539 0
M  V30 5678 H 523.934 5.57973 -1.84229 0
M  V30 5679 H 525.458 6.02013 -1.02042 0
M  V30 5680 H 526.872 4.8908 -2.99121 0
M  V30 5681 H 525.269 4.68163 -3.75425 0
M  V30 5682 H 526.339 3.27996 -3.57137 0
M  V30 5683 N 527.682 1.05563 1.17022 0
M  V30 5684 C 528.632 0.630007 2.19123 0
M  V30 5685 C 529.616 -0.335472 1.57364 0
M  V30 5686 O 530.808 -0.1521 1.76345 0
M  V30 5687 C 527.937 0.0101676 3.43298 0
M  V30 5688 C 527.023 0.999698 4.12149 0
M  V30 5689 N 527.414 2.17251 4.56766 0
M  V30 5690 C 525.712 0.829 4.38228 0
M  V30 5691 C 526.413 2.79883 5.09942 0
M  V30 5692 N 525.389 2.07656 5.02374 0
M  V30 5693 H 529.191 1.52353 2.51328 0
M  V30 5694 H 526.705 0.926288 1.33393 0
M  V30 5695 H 528.702 -0.312541 4.15727 0
M  V30 5696 H 527.362 -0.878707 3.12584 0
M  V30 5697 H 528.373 2.55067 4.50734 0
M  V30 5698 H 525.05 -0.00850974 4.17499 0
M  V30 5699 H 526.44 3.79362 5.54558 0
M  V30 5700 N 529.16 -1.33526 0.837174 0
M  V30 5701 C 530.409 -1.97098 0.428387 0
M  V30 5702 C 530.722 -1.67062 -1.01734 0
M  V30 5703 O 531.928 -2.24235 -1.53072 0
M  V30 5704 C 530.384 -3.52725 0.715075 0
M  V30 5705 C 529.992 -3.9164 2.17537 0
M  V30 5706 C 531.736 -4.22857 0.373154 0
M  V30 5707 C 529.643 -5.40237 2.40619 0
M  V30 5708 H 528.573 -0.737589 0.156455 0
M  V30 5709 H 531.224 -1.52169 1.02552 0
M  V30 5710 H 529.606 -3.95971 0.0475904 0
M  V30 5711 H 530.78 -3.59456 2.88319 0
M  V30 5712 H 529.095 -3.34485 2.4801 0
M  V30 5713 H 531.692 -5.32133 0.523264 0
M  V30 5714 H 532.035 -4.10647 -0.683708 0
M  V30 5715 H 532.568 -3.85135 0.995801 0
M  V30 5716 H 529.307 -5.57449 3.44864 0
M  V30 5717 H 528.827 -5.73887 1.74396 0
M  V30 5718 H 530.506 -6.07102 2.23688 0
M  V30 5719 N 530.638 -0.59345 -1.46 0
M  V30 5720 C 532.049 -0.169801 -1.85926 0
M  V30 5721 C 532.4 1.26984 -1.49565 0
M  V30 5722 O 531.525 1.96076 -0.915602 0
M  V30 5723 C 532.12 -0.301385 -3.37457 0
M  V30 5724 C 530.679 0.0674684 -3.7634 0
M  V30 5725 C 529.826 -0.632383 -2.69993 0
M  V30 5726 H 532.777 -0.801014 -1.37002 0
M  V30 5727 H 532.798 0.470331 -3.77582 0
M  V30 5728 H 532.31 -1.34927 -3.63891 0
M  V30 5729 H 530.411 1.11507 -3.55523 0
M  V30 5730 H 530.524 -0.316332 -4.78055 0
M  V30 5731 H 528.888 -0.0714961 -2.546 0
M  V30 5732 H 529.671 -1.68212 -2.99265 0
M  V30 5733 N 532.116 1.54067 -0.331816 0
M  V30 5734 C 533.344 2.05131 0.269996 0
M  V30 5735 C 533.759 1.20749 1.45138 0
M  V30 5736 O 533.116 0.240069 1.80914 0
M  V30 5737 C 533.167 3.54728 0.696456 0
M  V30 5738 O 532.888 4.35906 -0.43794 0
M  V30 5739 C 534.389 4.21916 1.36021 0
M  V30 5740 H 531.609 0.668807 0.0542042 0
M  V30 5741 H 534.153 1.98777 -0.4804 0
M  V30 5742 H 532.308 3.61342 1.39681 0
M  V30 5743 H 532.722 5.24404 -0.100334 0
M  V30 5744 H 534.196 5.28015 1.60947 0
M  V30 5745 H 534.673 3.73538 2.31011 0
M  V30 5746 H 535.279 4.19463 0.702212 0
M  V30 5747 N 533.594 0.0601682 1.57485 0
M  V30 5748 C 534.527 -0.94676 2.07634 0
M  V30 5749 C 535.505 -1.29837 0.978826 0
M  V30 5750 O 536.689 -1.40969 1.2514 0
M  V30 5751 C 533.816 -2.25822 2.52433 0
M  V30 5752 C 532.862 -2.05901 3.73507 0
M  V30 5753 S 533.695 -1.32907 5.18745 0
M  V30 5754 C 534.851 -2.65356 5.66866 0
M  V30 5755 H 535.084 -0.520003 2.92717 0
M  V30 5756 H 532.617 -0.152319 1.53647 0
M  V30 5757 H 534.575 -3.01201 2.78905 0
M  V30 5758 H 533.236 -2.65624 1.67639 0
M  V30 5759 H 532.429 -3.02929 4.02803 0
M  V30 5760 H 532.031 -1.38659 3.47347 0
M  V30 5761 H 534.323 -3.61492 5.73001 0
M  V30 5762 H 535.266 -2.40685 6.6594 0
M  V30 5763 H 535.674 -2.72028 4.94632 0
M  V30 5764 N 535.072 -1.5615 -0.213296 0
M  V30 5765 C 535.982 -1.96265 -1.28519 0
M  V30 5766 C 536.998 -0.86765 -1.50824 0
M  V30 5767 O 538.174 -1.17191 -1.63793 0
M  V30 5768 C 535.239 -2.27836 -2.61327 0
M  V30 5769 C 534.3 -3.50949 -2.47252 0
M  V30 5770 C 533.533 -3.81004 -3.73727 0
M  V30 5771 O 533.756 -3.12612 -4.77106 0
M  V30 5772 O 532.69 -4.74477 -3.70344 0
M  V30 5773 H 536.516 -2.87631 -0.974795 0
M  V30 5774 H 534.101 -1.43467 -0.416832 0
M  V30 5775 H 535.983 -2.49299 -3.39747 0
M  V30 5776 H 534.658 -1.39643 -2.9203 0
M  V30 5777 H 533.565 -3.34754 -1.67004 0
M  V30 5778 H 534.898 -4.39551 -2.21486 0
M  V30 5779 N 536.55 0.480323 -1.50102 0
M  V30 5780 C 537.498 1.60024 -1.68805 0
M  V30 5781 C 538.492 1.60089 -0.553888 0
M  V30 5782 O 539.698 1.64349 -0.734127 0
M  V30 5783 H 536.073 0.530841 -0.532646 0
M  V30 5784 H 538.044 1.41408 -2.62767 0
M  V30 5785 C 536.793 2.98029 -1.79092 0
M  V30 5786 H 536.116 2.98694 -2.65748 0
M  V30 5787 H 537.556 3.75871 -1.96206 0
M  V30 5788 C 536.015 3.32538 -0.540388 0
M  V30 5789 O 536.545 4.00386 0.324637 0
M  V30 5790 N 534.751 2.87873 -0.397154 0
M  V30 5791 H 534.298 2.32834 -1.1021 0
M  V30 5792 H 534.256 3.11328 0.438425 0
M  V30 5793 N 538.028 1.39524 0.732853 0
M  V30 5794 C 539.276 1.36594 1.48951 0
M  V30 5795 C 539.597 -0.0367507 1.94965 0
M  V30 5796 O 538.867 -0.988391 1.69138 0
M  V30 5797 H 537.447 0.502673 0.552566 0
M  V30 5798 H 540.109 1.74411 0.869869 0
M  V30 5799 H 539.205 2.03 2.3706 0
M  V30 5800 N 539.506 -0.963266 1.24736 0
M  V30 5801 C 540.917 -1.52145 1.08207 0
M  V30 5802 C 541.268 -1.93142 -0.345061 0
M  V30 5803 O 540.393 -1.77769 -1.23399 0
M  V30 5804 C 540.988 -2.76486 1.95808 0
M  V30 5805 C 539.547 -3.28646 1.8349 0
M  V30 5806 C 538.694 -2.01529 1.90476 0
M  V30 5807 H 541.645 -0.781083 1.38148 0
M  V30 5808 H 541.666 -3.49986 1.49297 0
M  V30 5809 H 541.178 -2.46617 2.99669 0
M  V30 5810 H 539.279 -3.63357 0.824787 0
M  V30 5811 H 539.392 -3.97246 2.67829 0
M  V30 5812 H 537.756 -2.16442 1.34258 0
M  V30 5813 H 538.539 -1.7402 2.95926 0
M  V30 5814 N 540.985 -1.06182 -1.16461 0
M  V30 5815 C 541.895 -0.682671 -2.24448 0
M  V30 5816 C 542.911 0.30078 -1.71381 0
M  V30 5817 O 544.087 0.150376 -2.00838 0
M  V30 5818 C 541.152 -0.0737202 -3.46622 0
M  V30 5819 C 540.213 -1.10889 -4.14731 0
M  V30 5820 C 539.446 -0.528908 -5.31073 0
M  V30 5821 O 539.669 0.65868 -5.66584 0
M  V30 5822 O 538.603 -1.26805 -5.88391 0
M  V30 5823 H 542.429 -1.58291 -2.59187 0
M  V30 5824 H 540.014 -0.834013 -1.23954 0
M  V30 5825 H 541.896 0.264192 -4.20571 0
M  V30 5826 H 540.571 0.800015 -3.13658 0
M  V30 5827 H 539.478 -1.49896 -3.42756 0
M  V30 5828 H 540.811 -1.95412 -4.51747 0
M  V30 5829 N 542.463 1.3308 -0.844243 0
M  V30 5830 C 543.393 2.3161 -0.296493 0
M  V30 5831 C 544.374 1.59215 0.598707 0
M  V30 5832 O 545.559 1.87077 0.521134 0
M  V30 5833 C 542.689 3.43313 0.524762 0
M  V30 5834 C 541.643 4.27115 -0.275106 0
M  V30 5835 C 540.969 5.30483 0.670236 0
M  V30 5836 C 542.269 5.00443 -1.49514 0
M  V30 5837 H 543.963 2.77672 -1.11976 0
M  V30 5838 H 541.509 1.33496 -0.539899 0
M  V30 5839 H 543.462 4.11273 0.918298 0
M  V30 5840 H 542.186 2.95952 1.3813 0
M  V30 5841 H 540.845 3.60787 -0.650267 0
M  V30 5842 H 540.493 4.79379 1.52332 0
M  V30 5843 H 540.193 5.87435 0.139123 0
M  V30 5844 H 541.717 6.01308 1.06117 0
M  V30 5845 H 543.131 5.61141 -1.17447 0
M  V30 5846 H 541.528 5.67071 -1.96343 0
M  V30 5847 H 542.598 4.28906 -2.26202 0
M  V30 5848 N 543.941 0.601185 1.45683 0
M  V30 5849 C 545.19 0.0914953 2.01492 0
M  V30 5850 C 545.503 -1.28331 1.47616 0
M  V30 5851 O 546.709 -1.88537 1.95362 0
M  V30 5852 C 545.165 0.11291 3.59723 0
M  V30 5853 C 544.773 1.48717 4.22596 0
M  V30 5854 C 546.517 -0.341871 4.23121 0
M  V30 5855 C 544.424 1.46531 5.7296 0
M  V30 5856 H 543.354 0.0304365 0.753385 0
M  V30 5857 H 546.005 0.755568 1.67223 0
M  V30 5858 H 544.387 -0.617692 3.91153 0
M  V30 5859 H 545.561 2.23897 4.02749 0
M  V30 5860 H 543.876 1.88351 3.71366 0
M  V30 5861 H 546.473 -0.377304 5.33367 0
M  V30 5862 H 546.816 -1.36325 3.93346 0
M  V30 5863 H 547.349 0.335256 3.96385 0
M  V30 5864 H 544.088 2.46408 6.07423 0
M  V30 5865 H 543.608 0.755997 5.95017 0
M  V30 5866 H 545.287 1.18618 6.36034 0
M  V30 5867 N 545.419 -1.53889 0.339982 0
M  V30 5868 C 546.349 -2.27843 -0.510856 0
M  V30 5869 C 547.33 -1.29267 -1.10563 0
M  V30 5870 O 548.515 -1.58104 -1.12768 0
M  V30 5871 C 545.645 -3.04857 -1.66372 0
M  V30 5872 C 544.599 -4.10907 -1.19746 0
M  V30 5873 C 543.925 -4.75855 -2.43857 0
M  V30 5874 C 545.225 -5.21435 -0.300501 0
M  V30 5875 H 546.919 -2.99212 0.106067 0
M  V30 5876 H 544.465 -1.43904 0.0524533 0
M  V30 5877 H 546.418 -3.5533 -2.26537 0
M  V30 5878 H 545.142 -2.31133 -2.30749 0
M  V30 5879 H 543.801 -3.61342 -0.618654 0
M  V30 5880 H 543.449 -3.9873 -3.06633 0
M  V30 5881 H 543.149 -5.47502 -2.13343 0
M  V30 5882 H 544.673 -5.2911 -3.04754 0
M  V30 5883 H 546.087 -5.67565 -0.80889 0
M  V30 5884 H 544.484 -6.00036 -0.0874076 0
M  V30 5885 H 545.554 -4.80328 0.664321 0
M  V30 5886 N 546.897 -0.0685191 -1.57451 0
M  V30 5887 C 548.313 0.288101 -1.56978 0
M  V30 5888 C 548.513 1.70262 -1.07765 0
M  V30 5889 O 547.569 2.4135 -0.742054 0
M  V30 5890 C 548.882 0.100745 -3.00531 0
M  V30 5891 C 550.43 0.170531 -3.12535 0
M  V30 5892 C 550.905 0.0114944 -4.57999 0
M  V30 5893 N 552.396 0.0672065 -4.63151 0
M  V30 5894 C 553.131 -0.0314813 -5.73391 0
M  V30 5895 N 552.627 -0.183503 -6.92557 0
M  V30 5896 N 554.42 0.0253489 -5.62094 0
M  V30 5897 H 546.571 -0.993026 -1.87757 0
M  V30 5898 H 548.834 -0.386981 -0.865419 0
M  V30 5899 H 548.54 -0.875197 -3.40636 0
M  V30 5900 H 548.414 0.854457 -3.67395 0
M  V30 5901 H 550.801 1.13696 -2.72318 0
M  V30 5902 H 550.882 -0.614229 -2.48316 0
M  V30 5903 H 550.526 -0.951684 -4.98904 0
M  V30 5904 H 550.456 0.815617 -5.20245 0
M  V30 5905 H 552.947 0.183246 -3.77455 0
M  V30 5906 H 553.26 -0.251041 -7.72392 0
M  V30 5907 H 551.605 -0.218822 -6.94655 0
M  V30 5908 H 554.796 0.142794 -4.67882 0
M  V30 5909 H 554.969 -0.0550166 -6.47977 0
M  V30 5910 N 548.375 1.56261 0.205012 0
M  V30 5911 C 549.622 1.8004 0.926927 0
M  V30 5912 C 549.95 0.640086 1.83666 0
M  V30 5913 O 549.205 -0.374702 1.92079 0
M  V30 5914 C 549.504 3.09722 1.78345 0
M  V30 5915 C 549.17 4.39082 1.02555 0
M  V30 5916 C 547.832 4.74226 0.816256 0
M  V30 5917 C 550.184 5.18877 0.491559 0
M  V30 5918 C 547.512 5.86668 0.0613287 0
M  V30 5919 C 549.864 6.32105 -0.250107 0
M  V30 5920 C 548.528 6.6584 -0.470508 0
M  V30 5921 H 547.798 0.658812 0.339187 0
M  V30 5922 H 550.445 1.90515 0.19395 0
M  V30 5923 H 548.75 2.9444 2.5848 0
M  V30 5924 H 550.447 3.25324 2.34446 0
M  V30 5925 H 547.037 4.11497 1.19868 0
M  V30 5926 H 551.221 4.92147 0.640684 0
M  V30 5927 H 546.477 6.11283 -0.119501 0
M  V30 5928 H 550.651 6.93157 -0.671307 0
M  V30 5929 H 548.278 7.5281 -1.05739 0
M  V30 5930 N 549.853 -0.472356 1.50355 0
M  V30 5931 C 550.785 -1.58795 1.65278 0
M  V30 5932 C 551.798 -1.53782 0.534313 0
M  V30 5933 O 552.987 -1.59193 0.807446 0
M  V30 5934 C 550.087 -2.97672 1.62001 0
M  V30 5935 C 549.26 -3.27568 2.89859 0
M  V30 5936 C 548.319 -4.45993 2.79242 0
M  V30 5937 O 547.345 -4.46364 3.53197 0
M  V30 5938 N 548.547 -5.47578 1.92713 0
M  V30 5939 H 551.312 -1.46411 2.61503 0
M  V30 5940 H 548.873 -0.660751 1.47803 0
M  V30 5941 H 550.865 -3.74862 1.52513 0
M  V30 5942 H 549.435 -3.03832 0.735159 0
M  V30 5943 H 548.655 -2.39003 3.13483 0
M  V30 5944 H 549.943 -3.44352 3.74565 0
M  V30 5945 H 549.341 -5.50099 1.31939 0
M  V30 5946 H 547.898 -6.23757 1.8913 0
M  V30 5947 N 551.331 -1.39911 -0.725443 0
M  V30 5948 C 552.278 -1.39393 -1.83952 0
M  V30 5949 C 553.248 -0.252249 -1.64173 0
M  V30 5950 O 554.433 -0.44882 -1.85446 0
M  V30 5951 C 551.573 -1.25262 -3.21564 0
M  V30 5952 C 550.686 -2.49054 -3.52982 0
M  V30 5953 C 549.821 -2.27439 -4.80047 0
M  V30 5954 C 548.86 -3.46857 -5.04338 0
M  V30 5955 N 547.997 -3.24499 -6.22611 0
M  V30 5956 H 552.837 -2.34622 -1.83729 0
M  V30 5957 H 550.374 -1.16537 -0.897636 0
M  V30 5958 H 552.332 -1.15077 -4.01015 0
M  V30 5959 H 550.962 -0.33657 -3.21041 0
M  V30 5960 H 550.014 -2.69805 -2.6816 0
M  V30 5961 H 551.326 -3.37973 -3.66846 0
M  V30 5962 H 550.48 -2.14551 -5.67497 0
M  V30 5963 H 549.219 -1.35929 -4.68374 0
M  V30 5964 H 548.224 -3.60232 -4.15346 0
M  V30 5965 H 549.449 -4.3928 -5.17889 0
M  V30 5966 H 547.395 -2.35663 -6.12208 0
M  V30 5967 H 547.312 -4.06978 -6.37106 0
M  V30 5968 H 548.58 -3.15325 -7.12875 0
M  V30 5969 N 552.809 0.956637 -1.25245 0
M  V30 5970 C 553.719 2.0868 -1.0719 0
M  V30 5971 C 554.735 1.73997 -0.00959074 0
M  V30 5972 O 555.911 2.00301 -0.210104 0
M  V30 5973 C 552.976 3.39754 -0.690526 0
M  V30 5974 C 552.037 3.88316 -1.83055 0
M  V30 5975 C 551.27 5.13134 -1.46728 0
M  V30 5976 O 551.493 5.6925 -0.362029 0
M  V30 5977 O 550.427 5.56356 -2.29677 0
M  V30 5978 H 554.253 2.26813 -2.01965 0
M  V30 5979 H 551.838 1.07098 -1.04165 0
M  V30 5980 H 553.72 4.18543 -0.489871 0
M  V30 5981 H 552.395 3.22896 0.227981 0
M  V30 5982 H 551.302 3.1054 -2.08604 0
M  V30 5983 H 552.635 4.09669 -2.72822 0
M  V30 5984 N 554.287 1.06798 1.15896 0
M  V30 5985 C 555.217 0.704677 2.22613 0
M  V30 5986 C 556.198 -0.305252 1.67339 0
M  V30 5987 O 557.383 -0.179247 1.93371 0
M  V30 5988 C 554.513 0.0957325 3.47168 0
M  V30 5989 C 553.467 1.0322 4.15367 0
M  V30 5990 C 552.793 0.286293 5.33933 0
M  V30 5991 C 554.093 2.36341 4.65768 0
M  V30 5992 H 555.787 1.59688 2.53259 0
M  V30 5993 H 553.333 0.769257 1.21731 0
M  V30 5994 H 555.286 -0.170333 4.21056 0
M  V30 5995 H 554.01 -0.831516 3.15838 0
M  V30 5996 H 552.669 1.28309 3.43413 0
M  V30 5997 H 552.317 -0.644237 4.98857 0
M  V30 5998 H 552.017 0.910436 5.80504 0
M  V30 5999 H 553.541 0.0278938 6.10594 0
M  V30 6000 H 554.955 2.1561 5.31211 0
M  V30 6001 H 553.352 2.94299 5.2298 0
M  V30 6002 H 554.422 2.99047 3.81705 0
M  V30 6003 N 555.766 -1.3263 0.851289 0
M  V30 6004 C 556.713 -2.28952 0.291469 0
M  V30 6005 C 557.683 -1.54897 -0.599676 0
M  V30 6006 O 558.868 -1.83137 -0.535305 0
M  V30 6007 C 556.008 -3.41206 -0.516992 0
M  V30 6008 C 555.121 -4.30148 0.399566 0
M  V30 6009 C 554.256 -5.29527 -0.4212 0
M  V30 6010 C 553.295 -6.10112 0.492969 0
M  V30 6011 N 552.432 -7.01499 -0.290414 0
M  V30 6012 H 557.272 -2.76228 1.11813 0
M  V30 6013 H 554.809 -1.35907 0.562826 0
M  V30 6014 H 556.767 -4.05005 -1.00132 0
M  V30 6015 H 555.397 -2.9509 -1.30851 0
M  V30 6016 H 554.449 -3.66959 1.00227 0
M  V30 6017 H 555.761 -4.8649 1.1013 0
M  V30 6018 H 554.915 -5.98914 -0.968832 0
M  V30 6019 H 553.654 -4.73794 -1.15632 0
M  V30 6020 H 552.659 -5.39632 1.05251 0
M  V30 6021 H 553.884 -6.6793 1.22664 0
M  V30 6022 H 551.83 -6.48199 -1.00868 0
M  V30 6023 H 551.747 -7.55178 0.352354 0
M  V30 6024 H 553.015 -7.75176 -0.819882 0
M  V30 6025 N 557.244 -0.608902 -1.45362 0
M  V30 6026 C 558.154 0.110969 -2.34337 0
M  V30 6027 C 559.17 0.859007 -1.51318 0
M  V30 6028 O 560.346 0.816296 -1.84116 0
M  V30 6029 C 557.411 1.09494 -3.28956 0
M  V30 6030 C 556.472 0.348718 -4.27881 0
M  V30 6031 C 555.705 1.28582 -5.17979 0
M  V30 6032 O 555.928 2.52369 -5.11533 0
M  V30 6033 O 554.862 0.782172 -5.96796 0
M  V30 6034 H 558.688 -0.620258 -2.97299 0
M  V30 6035 H 556.273 -0.36916 -1.44767 0
M  V30 6036 H 558.155 1.66163 -3.87257 0
M  V30 6037 H 556.83 1.80717 -2.68557 0
M  V30 6038 H 555.737 -0.260465 -3.73192 0
M  V30 6039 H 557.07 -0.323049 -4.91139 0
M  V30 6040 N 558.722 1.53707 -0.348139 0
M  V30 6041 C 559.971 2.0017 0.247992 0
M  V30 6042 C 560.284 1.23983 1.51286 0
M  V30 6043 O 561.49 1.60946 2.18652 0
M  V30 6044 C 559.946 3.56515 0.492459 0
M  V30 6045 C 559.554 4.41562 -0.756777 0
M  V30 6046 C 561.298 4.11381 1.0472 0
M  V30 6047 C 559.205 5.89426 -0.482856 0
M  V30 6048 H 558.135 0.747806 0.0964452 0
M  V30 6049 H 560.786 1.77532 -0.464179 0
M  V30 6050 H 559.168 3.75236 1.26545 0
M  V30 6051 H 560.342 4.34615 -1.53122 0
M  V30 6052 H 558.657 3.97711 -1.23348 0
M  V30 6053 H 561.254 5.19468 1.26717 0
M  V30 6054 H 561.597 3.64885 2.00411 0
M  V30 6055 H 562.13 3.96389 0.334801 0
M  V30 6056 H 558.869 6.40164 -1.40962 0
M  V30 6057 H 558.389 5.99264 0.253416 0
M  V30 6058 H 560.068 6.4692 -0.101816 0
M  V30 6059 N 560.2 0.0768682 1.57412 0
M  V30 6060 C 561.132 -0.918248 2.10002 0
M  V30 6061 C 562.145 -1.25808 1.03325 0
M  V30 6062 O 563.334 -1.21438 1.30824 0
M  V30 6063 C 560.434 -2.23263 2.54964 0
M  V30 6064 C 559.607 -2.07088 3.8527 0
M  V30 6065 C 558.666 -3.21876 4.16272 0
M  V30 6066 O 557.692 -2.96643 4.8579 0
M  V30 6067 N 558.894 -4.4712 3.70221 0
M  V30 6068 H 561.659 -0.469209 2.96004 0
M  V30 6069 H 559.22 -0.108725 1.61535 0
M  V30 6070 H 561.212 -2.9897 2.72762 0
M  V30 6071 H 559.782 -2.59649 1.74072 0
M  V30 6072 H 559.002 -1.15818 3.76802 0
M  V30 6073 H 560.29 -1.93537 4.70554 0
M  V30 6074 H 559.688 -4.70506 3.1407 0
M  V30 6075 H 558.245 -5.19837 3.93209 0
M  V30 6076 N 561.678 -1.56367 -0.196722 0
M  V30 6077 C 562.908 -1.84371 -0.932254 0
M  V30 6078 C 563.316 -0.657013 -1.77426 0
M  V30 6079 O 562.659 0.383576 -1.79651 0
M  V30 6080 C 562.721 -3.06454 -1.87952 0
M  V30 6081 C 562.385 -4.40425 -1.21962 0
M  V30 6082 C 563.382 -5.16457 -0.597343 0
M  V30 6083 C 561.067 -4.8716 -1.22396 0
M  V30 6084 C 563.061 -6.37399 0.0117913 0
M  V30 6085 C 560.748 -6.08038 -0.610995 0
M  V30 6086 C 561.746 -6.83 0.00580487 0
M  V30 6087 O 561.434 -8.01589 0.609173 0
M  V30 6088 H 561.166 -0.616377 -0.277589 0
M  V30 6089 H 563.72 -2.04329 -0.209452 0
M  V30 6090 H 561.95 -2.82377 -2.64197 0
M  V30 6091 H 563.639 -3.21118 -2.48271 0
M  V30 6092 H 564.405 -4.81445 -0.586142 0
M  V30 6093 H 560.284 -4.2877 -1.69345 0
M  V30 6094 H 563.828 -6.9585 0.493836 0
M  V30 6095 H 559.725 -6.42519 -0.619693 0
M  V30 6096 H 560.493 -8.16935 0.505919 0
M  V30 6097 N 563.156 0.464375 -1.50603 0
M  V30 6098 C 564.404 1.21356 -1.61608 0
M  V30 6099 C 564.725 1.92329 -0.321643 0
M  V30 6100 O 563.995 1.84403 0.661232 0
M  V30 6101 H 562.575 0.45094 -0.595535 0
M  V30 6102 H 565.237 0.535046 -1.87412 0
M  V30 6103 H 564.333 1.95783 -2.43054 0
M  V30 6104 N 564.634 1.40294 0.718013 0
M  V30 6105 C 565.883 1.37746 1.4734 0
M  V30 6106 C 566.196 -0.0180754 1.95592 0
M  V30 6107 O 567.402 -0.166166 2.70991 0
M  V30 6108 C 565.858 2.4208 2.66318 0
M  V30 6109 C 565.466 3.87432 2.24945 0
M  V30 6110 C 567.21 2.48635 3.44065 0
M  V30 6111 C 565.117 4.83368 3.40748 0
M  V30 6112 H 564.047 0.512165 0.553356 0
M  V30 6113 H 566.698 1.66019 0.781661 0
M  V30 6114 H 565.08 2.06903 3.3765 0
M  V30 6115 H 566.254 4.3174 1.6105 0
M  V30 6116 H 564.569 3.8433 1.60249 0
M  V30 6117 H 567.166 3.17499 4.30231 0
M  V30 6118 H 567.509 1.51611 3.87711 0
M  V30 6119 H 568.042 2.82791 2.79775 0
M  V30 6120 H 564.781 5.81716 3.02136 0
M  V30 6121 H 564.301 4.43726 4.03568 0
M  V30 6122 H 565.98 5.03074 4.06848 0
M  V30 6123 N 566.112 -0.949982 1.2575 0
M  V30 6124 C 567.528 -1.22191 1.02672 0
M  V30 6125 C 567.728 -1.99898 -0.253588 0
M  V30 6126 O 566.784 -2.33329 -0.965076 0
M  V30 6127 C 568.097 -1.99175 2.25277 0
M  V30 6128 C 569.645 -2.12201 2.30087 0
M  V30 6129 C 570.12 -2.92586 3.5236 0
M  V30 6130 N 571.611 -3.00163 3.52784 0
M  V30 6131 C 572.346 -3.62766 4.44059 0
M  V30 6132 N 571.842 -4.26943 5.45611 0
M  V30 6133 N 573.635 -3.59953 4.3173 0
M  V30 6134 H 565.786 -0.430258 2.07996 0
M  V30 6135 H 568.049 -0.252844 0.91366 0
M  V30 6136 H 567.755 -1.49479 3.18354 0
M  V30 6137 H 567.629 -2.99868 2.28821 0
M  V30 6138 H 570.016 -2.61093 1.3753 0
M  V30 6139 H 570.097 -1.10799 2.30559 0
M  V30 6140 H 569.741 -2.44383 4.45241 0
M  V30 6141 H 569.671 -3.94224 3.49134 0
M  V30 6142 H 572.162 -2.54529 2.79327 0
M  V30 6143 H 572.475 -4.72583 6.11461 0
M  V30 6144 H 570.82 -4.25557 5.49478 0
M  V30 6145 H 574.011 -3.09003 3.51617 0
M  V30 6146 H 574.184 -4.08455 5.03059 0
M  V30 6147 N 567.59 -1.07411 -1.15328 0
M  V30 6148 C 568.553 -0.698914 -2.18284 0
M  V30 6149 C 569.553 0.261149 -1.58665 0
M  V30 6150 O 570.743 0.0420277 -1.74149 0
M  V30 6151 C 567.875 -0.0302427 -3.40887 0
M  V30 6152 H 569.068 -1.61045 -2.52991 0
M  V30 6153 H 566.621 -0.870724 -1.298 0
M  V30 6154 H 567.356 0.893505 -3.11748 0
M  V30 6155 H 567.141 -0.720759 -3.85419 0
M  V30 6156 H 568.631 0.21759 -4.17033 0
M  V30 6157 N 569.068 1.32177 -0.85831 0
M  V30 6158 C 570.018 2.26307 -0.277307 0
M  V30 6159 C 571.002 1.50123 0.578946 0
M  V30 6160 O 572.194 1.71754 0.427731 0
M  V30 6161 C 569.323 3.39181 0.530232 0
M  V30 6162 C 568.409 4.22746 -0.338613 0
M  V30 6163 N 568.8 4.85265 -1.4266 0
M  V30 6164 C 567.098 4.45813 -0.129 0
M  V30 6165 C 567.799 5.47634 -1.96142 0
M  V30 6166 N 566.775 5.28794 -1.26007 0
M  V30 6167 H 570.577 2.72173 -1.10902 0
M  V30 6168 H 568.091 1.46308 -0.704816 0
M  V30 6169 H 570.088 4.05628 0.962904 0
M  V30 6170 H 568.748 2.9486 1.35969 0
M  V30 6171 H 569.759 4.85259 -1.80953 0
M  V30 6172 H 566.436 4.12163 0.665451 0
M  V30 6173 H 567.826 6.0735 -2.8736 0
M  V30 6174 N 570.547 0.616602 1.45037 0
M  V30 6175 C 571.457 -0.0985401 2.34393 0
M  V30 6176 C 572.473 -0.850971 1.51771 0
M  V30 6177 O 573.649 -0.806521 1.84546 0
M  V30 6178 C 570.714 -1.07748 3.29532 0
M  V30 6179 C 569.775 -0.326022 4.2806 0
M  V30 6180 C 569.008 -1.25833 5.18654 0
M  V30 6181 O 569.231 -2.49652 5.12864 0
M  V30 6182 O 568.165 -0.750512 5.97203 0
M  V30 6183 H 571.991 0.636016 2.96966 0
M  V30 6184 H 569.576 0.376832 1.44569 0
M  V30 6185 H 571.458 -1.64107 3.88133 0
M  V30 6186 H 570.133 -1.79291 2.69512 0
M  V30 6187 H 569.04 0.280253 3.73049 0
M  V30 6188 H 570.373 0.349091 4.9096 0
M  V30 6189 N 572.025 -1.5352 0.356285 0
M  V30 6190 C 573.271 -2.02104 -0.229271 0
M  V30 6191 C 573.626 -1.23923 -1.47176 0
M  V30 6192 O 572.919 -0.321957 -1.88876 0
M  V30 6193 C 573.113 -3.52607 -0.583369 0
M  V30 6194 C 572.942 -4.4536 0.623253 0
M  V30 6195 C 571.712 -4.92446 1.13248 0
M  V30 6196 C 573.91 -4.92375 1.48563 0
M  V30 6197 N 571.892 -5.69183 2.3001 0
M  V30 6198 C 573.263 -5.67362 2.50001 0
M  V30 6199 C 575.318 -4.74464 1.50959 0
M  V30 6200 C 574.021 -6.26341 3.5368 0
M  V30 6201 C 576.047 -5.34302 2.53526 0
M  V30 6202 C 575.409 -6.09166 3.53688 0
M  V30 6203 H 571.508 -0.780595 -0.0468602 0
M  V30 6204 H 574.092 -1.88204 0.49873 0
M  V30 6205 H 572.263 -3.66686 -1.28046 0
M  V30 6206 H 573.995 -3.87922 -1.15321 0
M  V30 6207 H 570.75 -4.6842 0.698562 0
M  V30 6208 H 571.174 -6.12216 2.88998 0
M  V30 6209 H 575.816 -4.16117 0.748785 0
M  V30 6210 H 573.534 -6.8379 4.30648 0
M  V30 6211 H 577.12 -5.22342 2.56223 0
M  V30 6212 H 576 -6.54644 4.31753 0
M  V30 6213 N 573.503 -0.0852151 -1.57369 0
M  V30 6214 C 574.436 0.913608 -2.09113 0
M  V30 6215 C 575.414 1.28264 -0.999358 0
M  V30 6216 O 576.598 1.3896 -1.27367 0
M  V30 6217 C 573.725 2.21777 -2.55993 0
M  V30 6218 C 572.771 1.99932 -3.76735 0
M  V30 6219 S 573.604 1.24637 -5.20794 0
M  V30 6220 C 574.76 2.56304 -5.71016 0
M  V30 6221 H 574.993 0.473369 -2.93507 0
M  V30 6222 H 572.526 0.127856 -1.5387 0
M  V30 6223 H 574.484 2.96726 -2.83662 0
M  V30 6224 H 573.145 2.62923 -1.71843 0
M  V30 6225 H 572.338 2.96482 -4.07571 0
M  V30 6226 H 571.94 1.33116 -3.49509 0
M  V30 6227 H 574.232 3.5233 -5.78679 0
M  V30 6228 H 575.175 2.3006 -6.69685 0
M  V30 6229 H 575.583 2.64125 -4.98897 0
M  V30 6230 N 574.981 1.5647 0.188427 0
M  V30 6231 C 576.228 1.81013 0.907779 0
M  V30 6232 C 576.556 0.65953 1.82977 0
M  V30 6233 O 575.811 -0.354308 1.92466 0
M  V30 6234 C 576.11 3.11596 1.7505 0
M  V30 6235 C 575.776 4.40145 0.978922 0
M  V30 6236 C 574.438 4.75066 0.765912 0
M  V30 6237 C 576.79 5.19369 0.436498 0
M  V30 6238 C 574.118 5.867 -0.00089868 0
M  V30 6239 C 576.47 6.31805 -0.317136 0
M  V30 6240 C 575.134 6.65303 -0.541103 0
M  V30 6241 H 574.404 0.662373 0.33218 0
M  V30 6242 H 577.051 1.9071 0.173732 0
M  V30 6243 H 575.356 2.97165 2.55343 0
M  V30 6244 H 577.053 3.27793 2.30983 0
M  V30 6245 H 573.643 4.12745 1.15497 0
M  V30 6246 H 577.827 4.92799 0.588449 0
M  V30 6247 H 573.083 6.11122 -0.184329 0
M  V30 6248 H 577.257 6.92406 -0.744788 0
M  V30 6249 H 574.884 7.51646 -1.13718 0
M  V30 6250 N 576.459 -0.456382 1.50847 0
M  V30 6251 C 577.87 -1.03685 1.55262 0
M  V30 6252 C 578.221 -1.92779 0.364771 0
M  V30 6253 O 577.346 -2.10043 -0.52068 0
M  V30 6254 C 577.941 -1.88718 2.81374 0
M  V30 6255 C 576.5 -2.41847 2.88422 0
M  V30 6256 C 575.647 -1.20564 2.49719 0
M  V30 6257 H 578.598 -0.238399 1.56899 0
M  V30 6258 H 578.619 -2.73957 2.6406 0
M  V30 6259 H 578.131 -1.23847 3.67809 0
M  V30 6260 H 576.232 -3.10228 2.06372 0
M  V30 6261 H 576.345 -2.75947 3.9165 0
M  V30 6262 H 574.709 -1.54504 2.02486 0
M  V30 6263 H 575.492 -0.573326 3.38479 0
M  V30 6264 N 577.937 -1.40673 -0.710563 0
M  V30 6265 C 579.183 -1.39428 -1.47267 0
M  V30 6266 C 579.516 0.00182129 -1.942 0
M  V30 6267 O 578.791 0.971387 -1.68506 0
M  V30 6268 C 579.074 -2.38812 -2.6952 0
M  V30 6269 C 578.927 -3.87467 -2.28449 0
M  V30 6270 C 580.246 -2.3566 -3.71689 0
M  V30 6271 H 577.365 -0.507768 -0.534173 0
M  V30 6272 H 580.007 -1.71843 -0.810547 0
M  V30 6273 H 578.157 -2.113 -3.26013 0
M  V30 6274 H 579.829 -4.25825 -1.77399 0
M  V30 6275 H 578.072 -4.03058 -1.60395 0
M  V30 6276 H 578.743 -4.5253 -3.16103 0
M  V30 6277 H 581.219 -2.6004 -3.24836 0
M  V30 6278 H 580.095 -3.07237 -4.54859 0
M  V30 6279 H 580.356 -1.36996 -4.20339 0
M  V30 6280 O 579.454 0.8523 -1.37179 0
M  V30 6281 H 580.145 1.49284 -1.23425 0
M  V30 END ATOM
M  V30 BEGIN BOND
M  V30 END BOND
M  V30 END CTAB
M  END
$$$$
