drugbank_target|O15350 Tumor protein p73 (DB01593; DB14487; DB14533; DB14548)
 OpenBabel12092121063D

  0  0  0     0  0            999 V3000
M  V30 BEGIN CTAB
M  V30 COUNTS 9633 9761 0 0 0
M  V30 BEGIN ATOM
M  V30 1 H -0.908 1.98254 -0.117106 0
M  V30 2 N 0 1.576 0 0
M  V30 3 C 0.933 2.03868 1.02534 0
M  V30 4 C 1.911 0.928543 1.3348 0
M  V30 5 O 3.095 1.19667 1.45644 0
M  V30 6 C 0.222 2.43627 2.35294 0
M  V30 7 C -0.732 3.65373 2.2001 0
M  V30 8 S 0.101 5.13292 1.52614 0
M  V30 9 C 1.257 5.56322 2.86805 0
M  V30 10 H 1.49 2.90518 0.631377 0
M  V30 11 H -0.977 1.52953 0.210867 0
M  V30 12 H 0.981 2.67203 3.11629 0
M  V30 13 H -0.358 1.57376 2.7183 0
M  V30 14 H -1.165 3.90944 3.18086 0
M  V30 15 H -1.563 3.418 1.51819 0
M  V30 16 H 0.729 5.58782 3.83104 0
M  V30 17 H 1.672 6.56266 2.65933 0
M  V30 18 H 2.08 4.83886 2.90714 0
M  V30 19 N 1.4781 -0.272755 1.55222 0
M  V30 20 C 2.4411 -1.32041 1.87344 0
M  V30 21 C 3.4411 -1.42342 0.74803 0
M  V30 22 O 4.6311 -1.41488 1.0162 0
M  V30 23 C 1.7631 -2.70173 2.07893 0
M  V30 24 H 2.9561 -1.04789 2.80997 0
M  V30 25 H 0.5091 -0.51083 1.47717 0
M  V30 26 H 1.2441 -3.02605 1.16622 0
M  V30 27 H 1.0291 -2.64082 2.89833 0
M  V30 28 H 2.5191 -3.45869 2.34017 0
M  V30 29 N 2.9562 -1.48159 -0.537278 0
M  V30 30 C 3.8882 -1.58218 -1.65831 0
M  V30 31 C 4.9012 -0.466948 -1.5596 0
M  V30 32 O 6.0902 -0.73747 -1.62553 0
M  V30 33 C 3.1902 -1.48906 -3.04434 0
M  V30 34 C 2.3632 -2.75343 -3.3986 0
M  V30 35 C 1.4222 -2.59588 -4.57712 0
M  V30 36 O 0.4482 -3.33457 -4.61297 0
M  V30 37 N 1.6502 -1.68724 -5.55439 0
M  V30 38 H 4.4152 -2.54891 -1.57641 0
M  V30 39 H 1.9762 -1.4479 -0.724386 0
M  V30 40 H 3.9682 -1.36072 -3.81139 0
M  V30 41 H 2.5382 -0.602368 -3.06741 0
M  V30 42 H 1.7582 -3.02795 -2.52406 0
M  V30 43 H 3.0462 -3.5924 -3.60311 0
M  V30 44 H 2.4442 -1.07898 -5.55315 0
M  V30 45 H 1.0012 -1.61832 -6.3139 0
M  V30 46 N 4.4343 0.785586 -1.36625 0
M  V30 47 C 5.6593 1.57963 -1.34397 0
M  V30 48 C 6.0843 1.87964 0.071526 0
M  V30 49 O 5.4423 1.48182 1.0446 0
M  V30 50 C 5.4903 2.87511 -2.17646 0
M  V30 51 O 4.5943 3.81281 -1.57158 0
M  V30 52 H 3.9353 0.479014 -0.459828 0
M  V30 53 H 6.4653 0.973411 -1.79961 0
M  V30 54 H 6.4753 3.36745 -2.30362 0
M  V30 55 H 5.1503 2.65002 -3.20541 0
M  V30 56 H 3.7273 3.39885 -1.53403 0
M  V30 57 N 5.9124 1.20967 1.01018 0
M  V30 58 C 7.1404 1.04956 1.78303 0
M  V30 59 C 7.5554 -0.400915 1.84494 0
M  V30 60 O 6.9124 -1.27826 1.30257 0
M  V30 61 C 6.9634 1.63403 3.22462 0
M  V30 62 O 6.6844 3.02775 3.16637 0
M  V30 63 C 8.1854 1.52432 4.16268 0
M  V30 64 H 5.4054 0.368858 0.560522 0
M  V30 65 H 7.9494 1.60193 1.27116 0
M  V30 66 H 6.1044 1.1227 3.70775 0
M  V30 67 H 6.5184 3.30626 4.07169 0
M  V30 68 H 7.9924 1.98078 5.15237 0
M  V30 69 H 8.4694 0.477875 4.36592 0
M  V30 70 H 9.0754 2.02787 3.73841 0
M  V30 71 N 7.3905 -1.2043 1.01659 0
M  V30 72 C 8.3535 -2.21433 0.591616 0
M  V30 73 C 9.3535 -1.57203 -0.338226 0
M  V30 74 O 10.5435 -1.73737 -0.126918 0
M  V30 75 C 7.6755 -3.40628 -0.136058 0
M  V30 76 H 8.8685 -2.60545 1.48514 0
M  V30 77 H 6.4215 -1.33893 0.806379 0
M  V30 78 H 7.1565 -3.07019 -1.04449 0
M  V30 79 H 6.9415 -3.88475 0.531917 0
M  V30 80 H 8.4315 -4.15475 -0.420735 0
M  V30 81 N 8.8686 -0.792821 -1.36206 0
M  V30 82 C 10.0966 -0.378825 -2.03402 0
M  V30 83 C 10.5116 1.00586 -1.59774 0
M  V30 84 O 9.8686 1.64574 -0.788764 0
M  V30 85 C 9.9196 -0.43683 -3.58851 0
M  V30 86 O 9.6406 -1.76691 -4.00889 0
M  V30 87 C 11.1416 -0.0138943 -4.43298 0
M  V30 88 H 8.3616 -0.155673 -0.652692 0
M  V30 89 H 10.9056 -1.07261 -1.74113 0
M  V30 90 H 9.0606 0.208575 -3.86838 0
M  V30 91 H 9.4746 -1.72011 -4.95492 0
M  V30 92 H 10.9486 -0.105615 -5.51899 0
M  V30 93 H 11.4256 1.03915 -4.2673 0
M  V30 94 H 12.0316 -0.63192 -4.20579 0
M  V30 95 N 10.3467 1.47872 -0.545128 0
M  V30 96 C 11.5717 2.07391 -0.0190611 0
M  V30 97 C 11.9967 1.39688 1.25971 0
M  V30 98 O 11.3547 0.467816 1.7516 0
M  V30 99 C 11.4027 3.60188 0.172335 0
M  V30 100 O 10.5067 3.9339 1.23766 0
M  V30 101 H 9.8477 0.662411 -0.0459059 0
M  V30 102 H 12.3777 1.90066 -0.757365 0
M  V30 103 H 12.3877 4.06129 0.390305 0
M  V30 104 H 11.0627 4.08865 -0.761725 0
M  V30 105 H 9.6397 3.5921 1.00114 0
M  V30 106 N 11.8248 0.280983 1.55075 0
M  V30 107 C 13.2358 -0.215629 1.85451 0
M  V30 108 C 13.5868 -1.54991 1.203 0
M  V30 109 O 12.7118 -2.10699 0.493435 0
M  V30 110 C 13.3068 -0.398026 3.36454 0
M  V30 111 C 11.8658 -0.838866 3.66933 0
M  V30 112 C 11.0128 0.064458 2.77225 0
M  V30 113 H 13.9638 0.502601 1.50531 0
M  V30 114 H 13.9848 -1.23569 3.59876 0
M  V30 115 H 13.4968 0.573241 3.83843 0
M  V30 116 H 11.5978 -1.8214 3.25048 0
M  V30 117 H 11.7108 -0.672123 4.74362 0
M  V30 118 H 10.0748 -0.452863 2.50642 0
M  V30 119 H 10.8578 1.03172 3.2743 0
M  V30 120 N 13.3029 -1.57598 0.00835791 0
M  V30 121 C 14.5799 -1.82172 -0.712235 0
M  V30 122 C 14.9599 -0.887873 -1.9152 0
M  V30 123 O 14.3079 0.06146 -2.28417 0
M  V30 124 C 14.5179 -3.30875 -1.11008 0
M  V30 125 C 15.8659 -3.96826 -1.51044 0
M  V30 126 O 16.8899 -3.35248 -1.20364 0
M  V30 127 O 15.7489 -5.05318 -2.08125 0
M  V30 128 H 12.8429 -0.750435 -0.347529 0
M  V30 129 H 15.3889 -1.69665 0.0344523 0
M  V30 130 H 14.1609 -3.90481 -0.252982 0
M  V30 131 H 13.7839 -3.48412 -1.9156 0
M  V30 132 N 14.781 0.264519 -1.55364 0
M  V30 133 C 16.029 0.993021 -1.76021 0
M  V30 134 C 16.35 1.86511 -0.569099 0
M  V30 135 O 15.62 1.91438 0.415735 0
M  V30 136 H 14.2 0.369639 -0.649135 0
M  V30 137 H 16.862 0.286707 -1.9278 0
M  V30 138 H 15.958 1.62502 -2.66457 0
M  V30 139 N 16.2591 1.48442 0.529413 0
M  V30 140 C 17.5071 1.56179 1.28267 0
M  V30 141 C 17.8281 0.237721 1.93546 0
M  V30 142 O 17.0981 -0.740779 1.81354 0
M  V30 143 H 15.6781 0.575367 0.476405 0
M  V30 144 H 18.3401 1.84909 0.61602 0
M  V30 145 H 17.4361 2.34312 2.06165 0
M  V30 146 N 17.7372 -0.778329 1.37039 0
M  V30 147 C 18.9652 -1.56734 1.35063 0
M  V30 148 C 19.3802 -1.88686 -0.0655597 0
M  V30 149 O 18.7372 -1.5096 -1.02554 0
M  V30 150 C 18.7882 -2.88163 2.18276 0
M  V30 151 O 18.5092 -2.57583 3.54376 0
M  V30 152 C 20.0102 -3.82422 2.24206 0
M  V30 153 H 17.2302 -0.485778 0.462883 0
M  V30 154 H 19.7742 -0.965185 1.8029 0
M  V30 155 H 17.9292 -3.44818 1.76576 0
M  V30 156 H 18.3432 -3.41699 3.97922 0
M  V30 157 H 19.8172 -4.71667 2.86765 0
M  V30 158 H 20.2942 -4.21078 1.24861 0
M  V30 159 H 20.9002 -3.31697 2.6619 0
M  V30 160 N 19.2153 -1.21501 -1.00376 0
M  V30 161 C 20.4433 -1.059 -1.77744 0
M  V30 162 C 20.8583 0.391125 -1.84704 0
M  V30 163 O 20.2153 1.27133 -1.30933 0
M  V30 164 C 20.2663 -1.65111 -3.21591 0
M  V30 165 O 19.9873 -3.0445 -3.15027 0
M  V30 166 C 21.4883 -1.54637 -4.15454 0
M  V30 167 H 18.7083 -0.371825 -0.558558 0
M  V30 168 H 21.2523 -1.60865 -1.26264 0
M  V30 169 H 19.4073 -1.14235 -3.70175 0
M  V30 170 H 19.8213 -3.3278 -4.0541 0
M  V30 171 H 21.2953 -2.00808 -5.14179 0
M  V30 172 H 21.7723 -0.501022 -4.36333 0
M  V30 173 H 22.3783 -2.04767 -3.72761 0
M  V30 174 N 20.6934 1.19889 -1.02296 0
M  V30 175 C 21.9404 1.8942 -0.715972 0
M  V30 176 C 22.2684 1.79251 0.754944 0
M  V30 177 O 21.5234 1.17526 1.56481 0
M  V30 178 C 21.8224 3.39883 -1.10518 0
M  V30 179 C 21.4884 3.70254 -2.57337 0
M  V30 180 C 20.1504 3.78254 -2.97452 0
M  V30 181 C 22.5024 3.84052 -3.52354 0
M  V30 182 C 19.8304 3.97514 -4.31509 0
M  V30 183 C 22.1824 4.04824 -4.86108 0
M  V30 184 C 20.8464 4.11054 -5.25919 0
M  V30 185 H 20.1164 0.693138 -0.261993 0
M  V30 186 H 22.7634 1.42012 -1.28472 0
M  V30 187 H 21.0684 3.8915 -0.454953 0
M  V30 188 H 22.7654 3.9199 -0.845261 0
M  V30 189 H 19.3554 3.64632 -2.25258 0
M  V30 190 H 23.5394 3.77221 -3.22518 0
M  V30 191 H 18.7954 4.00574 -4.61898 0
M  V30 192 H 22.9694 4.14442 -5.59653 0
M  V30 193 H 20.5964 4.2573 -6.29808 0
M  V30 194 N 22.1715 0.800033 1.35784 0
M  V30 195 C 23.0815 0.207204 2.33683 0
M  V30 196 C 24.0975 -0.64631 1.61551 0
M  V30 197 O 25.2735 -0.559604 1.93469 0
M  V30 198 C 22.3385 -0.639659 3.40748 0
M  V30 199 C 21.3995 0.233585 4.28664 0
M  V30 200 C 20.6325 -0.572954 5.30616 0
M  V30 201 O 20.8555 -1.80816 5.40982 0
M  V30 202 O 19.7895 0.0327285 6.01891 0
M  V30 203 H 23.6155 1.01692 2.86169 0
M  V30 204 H 21.2005 0.561691 1.38439 0
M  V30 205 H 23.0825 -1.12223 4.06182 0
M  V30 206 H 21.7575 -1.42708 2.90544 0
M  V30 207 H 20.6645 0.763147 3.66233 0
M  V30 208 H 21.9975 0.984784 4.82248 0
M  V30 209 N 23.6496 -1.47581 0.552962 0
M  V30 210 C 24.5996 -2.26961 -0.217423 0
M  V30 211 C 25.5836 -1.34099 -0.889168 0
M  V30 212 O 26.7756 -1.58483 -0.788176 0
M  V30 213 C 23.9046 -3.19756 -1.24944 0
M  V30 214 C 22.9906 -4.20097 -0.581327 0
M  V30 215 N 23.3816 -5.04614 0.346171 0
M  V30 216 C 21.6796 -4.38099 -0.835767 0
M  V30 217 C 22.3806 -5.77052 0.733854 0
M  V30 218 N 21.3566 -5.43526 0.0896567 0
M  V30 219 H 25.1586 -2.89688 0.495761 0
M  V30 220 H 22.6726 -1.58068 0.372597 0
M  V30 221 H 24.6696 -3.75305 -1.81527 0
M  V30 222 H 23.3296 -2.58585 -1.96376 0
M  V30 223 H 24.3406 -5.12869 0.720098 0
M  V30 224 H 21.0176 -3.88102 -1.53892 0
M  V30 225 H 22.4076 -6.5504 1.49574 0
M  V30 226 N 25.1277 -0.289203 -1.54924 0
M  V30 227 C 26.0577 0.58549 -2.2604 0
M  V30 228 C 27.0387 1.14753 -1.25562 0
M  V30 229 O 28.2237 1.17906 -1.54311 0
M  V30 230 C 25.3537 1.76305 -2.99222 0
M  V30 231 C 24.3077 1.33191 -4.06748 0
M  V30 232 C 23.6337 2.5937 -4.6758 0
M  V30 233 C 24.9337 0.471775 -5.20165 0
M  V30 234 H 26.6277 -0.00763532 -2.99399 0
M  V30 235 H 24.1737 -0.00511229 -1.43999 0
M  V30 236 H 26.1267 2.38097 -3.47689 0
M  V30 237 H 24.8507 2.38223 -2.23422 0
M  V30 238 H 23.5097 0.737121 -3.59113 0
M  V30 239 H 23.1577 3.19576 -3.88433 0
M  V30 240 H 22.8577 2.31228 -5.40192 0
M  V30 241 H 24.3817 3.21985 -5.18804 0
M  V30 242 H 25.7957 0.995056 -5.64599 0
M  V30 243 H 24.1927 0.284639 -5.99425 0
M  V30 244 H 25.2627 -0.506041 -4.82252 0
M  V30 245 N 26.6058 1.57591 -0.0167156 0
M  V30 246 C 27.8518 1.92399 0.659861 0
M  V30 247 C 28.2068 0.892561 1.70444 0
M  V30 248 O 27.4998 -0.0930755 1.91374 0
M  V30 249 C 27.6938 3.3172 1.33029 0
M  V30 250 C 27.5228 4.48319 0.352174 0
M  V30 251 C 26.2928 5.05281 -0.0434883 0
M  V30 252 C 28.4908 5.12831 -0.388474 0
M  V30 253 N 26.4728 6.05399 -1.01807 0
M  V30 254 C 27.8438 6.07934 -1.2172 0
M  V30 255 C 29.8988 4.95858 -0.450513 0
M  V30 256 C 28.6018 6.87891 -2.10235 0
M  V30 257 C 30.6278 5.76413 -1.32295 0
M  V30 258 C 29.9898 6.71123 -2.13948 0
M  V30 259 H 26.0888 0.752106 0.21415 0
M  V30 260 H 28.6728 1.94532 -0.0809846 0
M  V30 261 H 26.8438 3.3043 2.04134 0
M  V30 262 H 28.5758 3.5391 1.9629 0
M  V30 263 H 25.3308 4.7246 0.328384 0
M  V30 264 H 25.7548 6.60145 -1.50123 0
M  V30 265 H 30.3968 4.22472 0.166512 0
M  V30 266 H 28.1148 7.60591 -2.72997 0
M  V30 267 H 31.7008 5.65317 -1.37508 0
M  V30 268 H 30.5808 7.3237 -2.80364 0
M  V30 269 N 28.0839 -0.256276 1.55502 0
M  V30 270 C 29.3089 -1.00766 1.81276 0
M  V30 271 C 29.7339 -1.78524 0.59252 0
M  V30 272 O 29.0919 -1.75413 -0.45827 0
M  V30 273 C 29.1399 -1.92869 3.04687 0
M  V30 274 O 28.2439 -3.019 2.80945 0
M  V30 275 H 27.5849 -0.287224 0.598664 0
M  V30 276 H 30.1149 -0.280109 2.02674 0
M  V30 277 H 30.1249 -2.34511 3.33869 0
M  V30 278 H 28.7999 -1.35689 3.93143 0
M  V30 279 H 27.3769 -2.64454 2.62904 0
M  V30 280 N 29.562 -1.4872 -0.521534 0
M  V30 281 C 30.787 -1.61101 -1.30618 0
M  V30 282 C 31.212 -0.274611 -1.86085 0
M  V30 283 O 30.57 0.754937 -1.64834 0
M  V30 284 C 30.618 -2.66709 -2.4269 0
M  V30 285 O 29.722 -2.24456 -3.45967 0
M  V30 286 H 29.063 -0.539921 -0.386499 0
M  V30 287 H 31.593 -1.94767 -0.626645 0
M  V30 288 H 31.603 -2.88245 -2.88754 0
M  V30 289 H 30.278 -3.63727 -2.01682 0
M  V30 290 H 28.855 -2.13168 -3.05964 0
M  V30 291 N 31.0401 0.771051 -1.3745 0
M  V30 292 C 31.9701 1.89827 -1.3597 0
M  V30 293 C 32.9511 1.68562 -0.228216 0
M  V30 294 O 34.1361 1.8941 -0.428675 0
M  V30 295 C 31.2661 3.2712 -1.16662 0
M  V30 296 C 30.2201 3.6295 -2.2683 0
M  V30 297 C 29.5461 4.98791 -1.92644 0
M  V30 298 C 30.8461 3.69627 -3.69017 0
M  V30 299 H 32.5401 1.91323 -2.30295 0
M  V30 300 H 30.0861 0.919082 -1.10855 0
M  V30 301 H 32.0391 4.05615 -1.14256 0
M  V30 302 H 30.7631 3.26059 -0.187926 0
M  V30 303 H 29.4221 2.86763 -2.28392 0
M  V30 304 H 29.0701 4.94271 -0.933021 0
M  V30 305 H 28.7701 5.23733 -2.66416 0
M  V30 306 H 30.2941 5.79685 -1.91826 0
M  V30 307 H 31.7081 4.38273 -3.69581 0
M  V30 308 H 30.1051 4.06067 -4.41848 0
M  V30 309 H 31.1751 2.70273 -4.02592 0
M  V30 310 N 32.5182 1.22032 0.997298 0
M  V30 311 C 33.4282 1.00271 2.12092 0
M  V30 312 C 34.4442 -0.047621 1.73935 0
M  V30 313 O 35.6202 0.144136 2.00884 0
M  V30 314 C 32.6852 0.578449 3.4184 0
M  V30 315 C 31.7462 1.70189 3.94125 0
M  V30 316 C 30.9792 1.29778 5.17681 0
M  V30 317 O 31.2022 0.174676 5.70132 0
M  V30 318 O 30.1362 2.11261 5.63607 0
M  V30 319 H 33.9622 1.94398 2.3333 0
M  V30 320 H 31.5472 1.00587 1.10465 0
M  V30 321 H 33.4292 0.351998 4.19927 0
M  V30 322 H 32.1042 -0.334019 3.21972 0
M  V30 323 H 31.0112 1.98282 3.1723 0
M  V30 324 H 32.3442 2.59206 4.18417 0
M  V30 325 N 33.9963 -1.19345 1.0293 0
M  V30 326 C 35.4073 -1.70725 0.755633 0
M  V30 327 C 35.7583 -1.82326 -0.724676 0
M  V30 328 O 34.8833 -1.49471 -1.56484 0
M  V30 329 C 35.4783 -3.10084 1.36503 0
M  V30 330 C 34.0373 -3.58723 1.13994 0
M  V30 331 C 33.1843 -2.35577 1.46283 0
M  V30 332 H 36.1353 -1.0418 1.19718 0
M  V30 333 H 36.1563 -3.72787 0.762217 0
M  V30 334 H 35.6683 -3.01609 2.44241 0
M  V30 335 H 33.7693 -3.72512 0.0807901 0
M  V30 336 H 33.8823 -4.42816 1.82894 0
M  V30 337 H 32.2463 -2.38935 0.88217 0
M  V30 338 H 33.0293 -2.29731 2.55105 0
M  V30 339 N 35.4744 -0.807222 -1.35358 0
M  V30 340 C 36.7514 -0.311126 -1.9311 0
M  V30 341 C 37.1314 1.19937 -1.73719 0
M  V30 342 O 36.4794 1.99918 -1.10657 0
M  V30 343 C 36.6894 -0.723226 -3.41424 0
M  V30 344 C 38.0374 -0.713078 -4.18569 0
M  V30 345 O 39.0614 -0.664811 -3.49941 0
M  V30 346 O 37.9204 -0.772022 -5.41019 0
M  V30 347 H 35.0144 -0.081526 -0.822972 0
M  V30 348 H 37.5604 -0.890962 -1.4443 0
M  V30 349 H 36.3324 -1.76426 -3.4927 0
M  V30 350 H 35.9554 -0.118232 -3.97424 0
M  V30 351 N 36.9525 1.47285 -0.560781 0
M  V30 352 C 38.1775 2.07359 -0.0410566 0
M  V30 353 C 38.6025 1.41017 1.24483 0
M  V30 354 O 37.9605 0.486368 1.74654 0
M  V30 355 C 38.0085 3.6035 0.134123 0
M  V30 356 O 37.1125 3.94681 1.19587 0
M  V30 357 H 36.4535 0.661887 -0.0529291 0
M  V30 358 H 38.9835 1.89252 -0.777482 0
M  V30 359 H 38.9935 4.0652 0.347207 0
M  V30 360 H 37.6685 4.08034 -0.805047 0
M  V30 361 H 36.2455 3.60251 0.962987 0
M  V30 362 N 38.4306 0.297415 1.54768 0
M  V30 363 C 39.6586 -0.315623 2.04478 0
M  V30 364 C 40.0736 -1.47792 1.17486 0
M  V30 365 O 39.4306 -1.81404 0.19971 0
M  V30 366 C 39.4816 -0.7753 3.53088 0
M  V30 367 O 39.2026 0.340732 4.36773 0
M  V30 368 C 40.7036 -1.45386 4.18781 0
M  V30 369 H 37.9236 -0.0690887 0.667434 0
M  V30 370 H 40.4676 0.436003 1.99798 0
M  V30 371 H 38.6226 -1.47696 3.58141 0
M  V30 372 H 39.0366 -0.0165035 5.24497 0
M  V30 373 H 40.5106 -1.72669 5.24299 0
M  V30 374 H 40.9876 -2.39275 3.68299 0
M  V30 375 H 41.5936 -0.795475 4.17795 0
M  V30 376 N 39.9087 -1.5758 0.0250728 0
M  V30 377 C 41.1387 -1.95646 -0.663783 0
M  V30 378 C 41.5467 -0.899935 -1.66427 0
M  V30 379 O 40.8897 0.127191 -1.83259 0
M  V30 380 C 40.9517 -3.29835 -1.43 0
M  V30 381 C 40.6157 -4.53197 -0.588305 0
M  V30 382 C 41.6127 -5.19726 0.13469 0
M  V30 383 C 39.2977 -4.99529 -0.526897 0
M  V30 384 C 41.2917 -6.30902 0.90781 0
M  V30 385 C 38.9787 -6.10589 0.24993 0
M  V30 386 C 39.9767 -6.76134 0.965994 0
M  V30 387 O 39.6647 -7.85062 1.7301 0
M  V30 388 H 39.3967 -0.649282 -0.188174 0
M  V30 389 H 41.9507 -2.05245 0.0799006 0
M  V30 390 H 40.1807 -3.16716 -2.21873 0
M  V30 391 H 41.8697 -3.52833 -2.00658 0
M  V30 392 H 42.6357 -4.84904 0.0965562 0
M  V30 393 H 38.5147 -4.48319 -1.07381 0
M  V30 394 H 42.0587 -6.81995 1.46724 0
M  V30 395 H 37.9557 -6.44849 0.289795 0
M  V30 396 H 38.7237 -8.01708 1.64944 0
M  V30 397 N 41.3868 0.248026 -1.55636 0
M  V30 398 C 42.6338 0.976224 -1.77415 0
M  V30 399 C 42.9618 1.85361 -0.589193 0
M  V30 400 O 42.2168 1.90973 0.427529 0
M  V30 401 C 42.5158 1.86819 -3.04686 0
M  V30 402 C 42.1818 1.14625 -4.36087 0
M  V30 403 C 40.8438 0.946723 -4.71795 0
M  V30 404 C 43.1958 0.634463 -5.17324 0
M  V30 405 C 40.5238 0.223091 -5.86276 0
M  V30 406 C 42.8758 -0.0756959 -6.32555 0
M  V30 407 C 41.5398 -0.286711 -6.66884 0
M  V30 408 H 40.8098 0.357226 -0.649208 0
M  V30 409 H 43.4568 0.246415 -1.89908 0
M  V30 410 H 41.7618 2.66502 -2.872 0
M  V30 411 H 43.4588 2.43329 -3.18735 0
M  V30 412 H 40.0488 1.3117 -4.08035 0
M  V30 413 H 44.2328 0.77616 -4.90193 0
M  V30 414 H 39.4888 0.0491185 -6.1138 0
M  V30 415 H 43.6628 -0.479899 -6.94745 0
M  V30 416 H 41.2898 -0.849389 -7.5544 0
M  V30 417 N 42.8649 1.48995 0.513639 0
M  V30 418 C 44.1419 1.48338 1.27495 0
M  V30 419 C 44.5219 0.204065 2.10111 0
M  V30 420 O 43.8699 -0.813881 2.13514 0
M  V30 421 C 44.0799 2.75498 2.14247 0
M  V30 422 C 45.4279 3.24484 2.73852 0
M  V30 423 O 46.4519 2.76528 2.24523 0
M  V30 424 O 45.3109 4.07974 3.6362 0
M  V30 425 H 42.4049 0.593149 0.576284 0
M  V30 426 H 44.9509 1.61246 0.528948 0
M  V30 427 H 43.7229 3.60109 1.53092 0
M  V30 428 H 43.3459 2.6539 2.96064 0
M  V30 429 N 44.343 -0.763751 1.37857 0
M  V30 430 C 45.273 -1.89103 1.36975 0
M  V30 431 C 46.254 -1.68439 0.237152 0
M  V30 432 O 47.439 -1.8918 0.438713 0
M  V30 433 C 44.569 -3.26496 1.18395 0
M  V30 434 C 43.523 -3.61741 2.28751 0
M  V30 435 C 42.849 -4.97762 1.95286 0
M  V30 436 C 44.149 -3.67665 3.70972 0
M  V30 437 H 45.843 -1.90099 2.31307 0
M  V30 438 H 43.389 -0.91319 1.11341 0
M  V30 439 H 45.342 -4.05003 1.16406 0
M  V30 440 H 44.066 -3.25955 0.205215 0
M  V30 441 H 42.725 -2.85547 2.29909 0
M  V30 442 H 42.373 -4.93769 0.959221 0
M  V30 443 H 42.073 -5.22313 2.69189 0
M  V30 444 H 43.597 -5.7866 1.94898 0
M  V30 445 H 45.011 -4.36307 3.719 0
M  V30 446 H 43.408 -4.03718 4.43995 0
M  V30 447 H 44.478 -2.68134 4.0402 0
M  V30 448 N 45.8211 -1.22559 -0.990812 0
M  V30 449 C 47.2321 -1.04791 -1.54518 0
M  V30 450 C 47.5831 0.387998 -1.92325 0
M  V30 451 O 46.7081 1.27328 -1.74976 0
M  V30 452 C 47.3031 -1.896 -2.80779 0
M  V30 453 C 45.8621 -1.76124 -3.32652 0
M  V30 454 C 45.0091 -1.8594 -2.05722 0
M  V30 455 H 47.9601 -1.36374 -0.811662 0
M  V30 456 H 47.9811 -1.41464 -3.53225 0
M  V30 457 H 47.4931 -2.94101 -2.53231 0
M  V30 458 H 45.5941 -0.743643 -3.65104 0
M  V30 459 H 45.7071 -2.58913 -4.03114 0
M  V30 460 H 44.0711 -1.29403 -2.19379 0
M  V30 461 H 44.8541 -2.91976 -1.80568 0
M  V30 462 N 47.2992 1.18797 -1.03562 0
M  V30 463 C 48.2312 2.21731 -0.580337 0
M  V30 464 C 49.2442 1.59051 0.347349 0
M  V30 465 O 50.4332 1.77929 0.142669 0
M  V30 466 C 47.5332 3.38459 0.172805 0
M  V30 467 C 46.7062 4.3072 -0.761496 0
M  V30 468 C 45.7652 5.26174 -0.0525547 0
M  V30 469 O 44.7912 5.65108 -0.681333 0
M  V30 470 N 45.9932 5.67624 1.21586 0
M  V30 471 H 48.7582 2.61417 -1.46565 0
M  V30 472 H 46.3192 1.33531 -0.915476 0
M  V30 473 H 48.3112 3.99335 0.656793 0
M  V30 474 H 46.8812 2.97507 0.959602 0
M  V30 475 H 46.1012 3.67525 -1.42544 0
M  V30 476 H 47.3892 4.89267 -1.39626 0
M  V30 477 H 46.7872 5.38038 1.74732 0
M  V30 478 H 45.3442 6.30721 1.64421 0
M  V30 479 N 48.7773 0.814389 1.34928 0
M  V30 480 C 50.0023 0.410097 2.03305 0
M  V30 481 C 50.4273 -0.973464 1.60951 0
M  V30 482 O 49.7853 -1.63185 0.789964 0
M  V30 483 C 49.8333 0.51049 3.56968 0
M  V30 484 O 48.9373 -0.473035 4.09678 0
M  V30 485 H 48.2783 0.170088 0.641846 0
M  V30 486 H 50.8083 1.10244 1.72358 0
M  V30 487 H 50.8183 0.383135 4.06197 0
M  V30 488 H 49.4933 1.51963 3.87144 0
M  V30 489 H 48.0703 -0.305272 3.71648 0
M  V30 490 N 50.2554 -1.46986 0.568584 0
M  V30 491 C 51.4804 -2.07335 0.0520528 0
M  V30 492 C 51.9054 -1.41675 -1.23733 0
M  V30 493 O 51.2634 -0.495623 -1.74394 0
M  V30 494 C 51.3114 -3.60417 -0.11501 0
M  V30 495 O 50.4154 -3.95309 -1.17492 0
M  V30 496 H 49.7564 -0.661597 0.0564385 0
M  V30 497 H 52.2864 -1.88837 0.787507 0
M  V30 498 H 52.2964 -4.06698 -0.325644 0
M  V30 499 H 50.9714 -4.07601 0.826675 0
M  V30 500 H 49.5484 -3.60757 -0.943869 0
M  V30 501 N 51.7335 -0.305618 -1.54608 0
M  V30 502 C 53.1495 0.0476228 -1.59529 0
M  V30 503 C 53.3495 1.52025 -1.32252 0
M  V30 504 O 52.4055 2.27368 -1.09818 0
M  V30 505 C 53.7185 -0.354471 -2.98603 0
M  V30 506 C 55.2665 -0.303622 -3.11524 0
M  V30 507 C 55.7415 -0.680608 -4.52915 0
M  V30 508 N 57.2325 -0.63332 -4.5885 0
M  V30 509 C 57.9675 -0.897432 -5.66334 0
M  V30 510 N 57.4635 -1.22775 -6.81834 0
M  V30 511 N 59.2565 -0.824186 -5.56025 0
M  V30 512 H 51.4075 -1.2653 -1.70599 0
M  V30 513 H 53.6705 -0.513291 -0.797017 0
M  V30 514 H 53.3765 -1.3798 -3.23503 0
M  V30 515 H 53.2505 0.289568 -3.76087 0
M  V30 516 H 55.6375 0.712472 -2.8637 0
M  V30 517 H 55.7185 -0.982348 -2.36185 0
M  V30 518 H 55.3625 -1.69453 -4.78799 0
M  V30 519 H 55.2925 0.0202385 -5.26596 0
M  V30 520 H 57.7835 -0.389138 -3.75891 0
M  V30 521 H 58.0965 -1.41513 -7.59733 0
M  V30 522 H 56.4415 -1.26583 -6.83375 0
M  V30 523 H 59.6325 -0.565748 -4.64669 0
M  V30 524 H 59.8055 -1.03338 -6.39707 0
M  V30 525 N 53.2116 1.57565 -0.0334293 0
M  V30 526 C 54.4596 1.91598 0.642999 0
M  V30 527 C 54.7806 0.910847 1.7242 0
M  V30 528 O 54.0506 -0.0469931 1.95844 0
M  V30 529 H 52.6306 0.707228 0.240496 0
M  V30 530 H 55.2926 1.94726 -0.0822488 0
M  V30 531 H 54.3886 2.92336 1.09298 0
M  V30 532 N 54.6897 -0.239769 1.55765 0
M  V30 533 C 55.6377 -1.31668 1.91745 0
M  V30 534 C 56.6317 -1.49462 0.797338 0
M  V30 535 O 57.8377 -1.50852 0.982021 0
M  V30 536 H 54.2127 -0.441048 0.609082 0
M  V30 537 H 56.1837 -0.985923 2.81642 0
M  V30 538 C 54.9327 -2.66368 2.2348 0
M  V30 539 H 54.2557 -2.53478 3.09175 0
M  V30 540 H 55.6957 -3.40578 2.52553 0
M  V30 541 C 54.1547 -3.20002 1.05359 0
M  V30 542 O 54.6847 -4.00538 0.305261 0
M  V30 543 N 52.8907 -2.78126 0.842292 0
M  V30 544 H 52.4377 -2.12742 1.45253 0
M  V30 545 H 52.3957 -3.14354 0.053652 0
M  V30 546 N 56.1678 -1.49265 -0.50573 0
M  V30 547 C 57.1158 -1.66065 -1.62866 0
M  V30 548 C 58.1098 -0.526636 -1.61006 0
M  V30 549 O 59.3158 -0.706126 -1.65571 0
M  V30 550 H 55.6908 -0.52356 -0.539805 0
M  V30 551 H 57.6618 -2.60329 -1.45848 0
M  V30 552 C 56.4108 -1.74008 -3.01026 0
M  V30 553 H 55.7338 -2.6064 -3.03161 0
M  V30 554 H 57.1738 -1.89798 -3.79147 0
M  V30 555 C 55.6328 -0.483868 -3.33407 0
M  V30 556 O 56.1628 0.392548 -3.99777 0
M  V30 557 N 54.3688 -0.348236 -2.88506 0
M  V30 558 H 53.9158 -1.06242 -2.34671 0
M  V30 559 H 53.8738 0.491204 -3.10539 0
M  V30 560 N 57.6459 0.756429 -1.3826 0
M  V30 561 C 58.5559 1.9009 -1.37488 0
M  V30 562 C 59.5719 1.71855 -0.272366 0
M  V30 563 O 60.7479 1.94827 -0.510318 0
M  V30 564 C 57.8129 3.25421 -1.19592 0
M  V30 565 C 56.8739 3.56202 -2.39622 0
M  V30 566 C 56.1069 4.85075 -2.2257 0
M  V30 567 O 56.3299 5.57246 -1.21793 0
M  V30 568 O 55.2639 5.15269 -3.11098 0
M  V30 569 H 59.0899 1.93695 -2.33914 0
M  V30 570 H 56.6749 0.901313 -1.1915 0
M  V30 571 H 58.5569 4.06337 -1.11661 0
M  V30 572 H 57.2319 3.22634 -0.262486 0
M  V30 573 H 56.1389 2.75458 -2.53128 0
M  V30 574 H 57.4719 3.63747 -3.31586 0
M  V30 575 N 59.124 1.23083 0.984299 0
M  V30 576 C 60.37 1.06214 1.72761 0
M  V30 577 C 60.703 -0.400584 1.90024 0
M  V30 578 O 59.978 -1.29672 1.44967 0
M  V30 579 C 60.261 1.78375 3.12817 0
M  V30 580 C 60.114 3.32296 3.03149 0
M  V30 581 C 61.433 1.54309 4.12161 0
M  V30 582 H 58.552 0.387251 0.627061 0
M  V30 583 H 61.194 1.51536 1.14616 0
M  V30 584 H 59.344 1.39848 3.62457 0
M  V30 585 H 61.016 3.8032 2.61064 0
M  V30 586 H 59.259 3.6153 2.39747 0
M  V30 587 H 59.93 3.77972 4.02295 0
M  V30 588 H 62.406 1.87791 3.71314 0
M  V30 589 H 61.282 2.07281 5.08258 0
M  V30 590 H 61.543 0.477572 4.39513 0
M  V30 591 N 60.6021 -1.18246 1.0419 0
M  V30 592 C 61.8481 -1.88536 0.747122 0
M  V30 593 C 62.1811 -1.80223 -0.723409 0
M  V30 594 O 61.4561 -1.20337 -1.52804 0
M  V30 595 C 61.7391 -3.38968 1.21544 0
M  V30 596 C 61.5921 -3.56084 2.74816 0
M  V30 597 C 62.9111 -4.32648 0.806482 0
M  V30 598 H 60.0301 -0.684619 0.272883 0
M  V30 599 H 62.6721 -1.39113 1.29413 0
M  V30 600 H 60.8221 -3.8119 0.750081 0
M  V30 601 H 62.4941 -3.22946 3.29399 0
M  V30 602 H 60.7371 -2.98699 3.14582 0
M  V30 603 H 61.4081 -4.61639 3.02644 0
M  V30 604 H 63.8841 -3.98211 1.20695 0
M  V30 605 H 62.7601 -5.36462 1.1619 0
M  V30 606 H 63.0211 -4.41146 -0.29029 0
M  V30 607 N 62.0802 -0.821533 -1.34494 0
M  V30 608 C 63.3282 -0.408139 -1.97936 0
M  V30 609 C 63.6492 1.03193 -1.65457 0
M  V30 610 O 62.9192 1.71622 -0.944595 0
M  V30 611 H 61.4992 -0.147928 -0.732206 0
M  V30 612 H 64.1612 -1.05067 -1.64155 0
M  V30 613 H 63.2572 -0.52601 -3.07635 0
M  V30 614 N 63.5583 1.46682 -0.576371 0
M  V30 615 C 64.8063 2.02013 -0.0594163 0
M  V30 616 C 65.1273 1.45101 1.30271 0
M  V30 617 O 64.3973 0.633317 1.8538 0
M  V30 618 H 62.9773 0.746759 -0.0189745 0
M  V30 619 H 65.6393 1.79862 -0.750717 0
M  V30 620 H 64.7353 3.12097 0.014345 0
M  V30 621 N 65.0364 0.313813 1.54444 0
M  V30 622 C 66.2644 -0.293918 2.04802 0
M  V30 623 C 66.6794 -1.46537 1.19047 0
M  V30 624 O 66.0364 -1.81182 0.218939 0
M  V30 625 C 66.0874 -0.737806 3.53891 0
M  V30 626 O 65.8084 0.387038 4.36387 0
M  V30 627 C 67.3094 -1.40936 4.203 0
M  V30 628 H 64.5294 -0.0620057 0.668129 0
M  V30 629 H 67.0734 0.457169 1.99324 0
M  V30 630 H 65.2284 -1.43889 3.59687 0
M  V30 631 H 65.6424 0.0391274 5.24485 0
M  V30 632 H 67.1164 -1.67099 5.26101 0
M  V30 633 H 67.5934 -2.35355 3.70816 0
M  V30 634 H 68.1994 -0.751117 4.18615 0
M  V30 635 N 66.5145 -1.57545 0.0417849 0
M  V30 636 C 67.7915 -1.83642 -0.673433 0
M  V30 637 C 68.1715 -0.928298 -1.89594 0
M  V30 638 O 67.5195 0.0129955 -2.28496 0
M  V30 639 C 67.7295 -3.33155 -1.03964 0
M  V30 640 C 69.0775 -3.99941 -1.42592 0
M  V30 641 O 70.1015 -3.37725 -1.13226 0
M  V30 642 O 68.9605 -5.09619 -1.9736 0
M  V30 643 H 66.0545 -0.757638 -0.331533 0
M  V30 644 H 68.6005 -1.69554 0.070433 0
M  V30 645 H 67.3725 -3.9093 -0.170098 0
M  V30 646 H 66.9955 -3.52396 -1.84126 0
M  V30 647 N 67.9926 0.231505 -1.5589 0
M  V30 648 C 69.2176 0.978689 -1.82856 0
M  V30 649 C 69.6426 1.77559 -0.620846 0
M  V30 650 O 69.0006 1.76119 0.430305 0
M  V30 651 C 69.0486 1.87997 -3.07716 0
M  V30 652 O 68.1526 2.97393 -2.85712 0
M  V30 653 H 67.4936 0.277663 -0.603158 0
M  V30 654 H 70.0236 0.24783 -2.03093 0
M  V30 655 H 70.0336 2.2917 -3.37558 0
M  V30 656 H 68.7086 1.29417 -3.95252 0
M  V30 657 H 67.2856 2.60238 -2.67078 0
M  V30 658 N 69.4707 1.49531 0.497807 0
M  V30 659 C 70.6957 1.63159 1.28039 0
M  V30 660 C 71.1207 0.30418 1.85624 0
M  V30 661 O 70.4787 -0.728618 1.66015 0
M  V30 662 C 70.5267 2.70537 2.38416 0
M  V30 663 O 69.6307 2.29931 3.42353 0
M  V30 664 H 68.9717 0.546001 0.377861 0
M  V30 665 H 71.5017 1.9574 0.59558 0
M  V30 666 H 71.5117 2.92802 2.84132 0
M  V30 667 H 70.1867 3.6689 1.95869 0
M  V30 668 H 68.7637 2.18009 3.02533 0
M  V30 669 N 70.9488 -0.749086 1.3866 0
M  V30 670 C 71.8818 -1.87111 1.30631 0
M  V30 671 C 72.8598 -1.61572 0.18251 0
M  V30 672 O 74.0438 -1.85019 0.360592 0
M  V30 673 C 71.1708 -3.22815 1.02511 0
M  V30 674 C 70.2168 -3.67234 2.1689 0
M  V30 675 S 71.0498 -3.78245 3.79066 0
M  V30 676 C 72.2058 -5.16761 3.53142 0
M  V30 677 H 72.4388 -1.93636 2.25594 0
M  V30 678 H 69.9718 -0.912525 1.24549 0
M  V30 679 H 71.9298 -4.01181 0.869701 0
M  V30 680 H 70.5908 -3.13964 0.0925884 0
M  V30 681 H 69.7838 -4.65677 1.92771 0
M  V30 682 H 69.3858 -2.96034 2.28561 0
M  V30 683 H 71.6778 -6.02656 3.09534 0
M  V30 684 H 72.6208 -5.45902 4.50995 0
M  V30 685 H 73.0288 -4.85771 2.87554 0
M  V30 686 N 72.4269 -1.23603 -0.977757 0
M  V30 687 C 73.7039 -0.977897 -1.69401 0
M  V30 688 C 74.0839 0.502738 -2.05026 0
M  V30 689 O 73.4319 1.47459 -1.74551 0
M  V30 690 C 73.6419 -1.89077 -2.93345 0
M  V30 691 C 74.9899 -2.15579 -3.65802 0
M  V30 692 O 76.0139 -1.86648 -3.03383 0
M  V30 693 O 74.8729 -2.64658 -4.78141 0
M  V30 694 H 71.9669 -0.369025 -0.740101 0
M  V30 695 H 74.5129 -1.34657 -1.03274 0
M  V30 696 H 73.2849 -2.89158 -2.63634 0
M  V30 697 H 72.9079 -1.52463 -3.67207 0
M  V30 698 N 73.905 1.17692 -1.04816 0
M  V30 699 C 75.151 1.88137 -0.75711 0
M  V30 700 C 75.484 1.80604 0.713841 0
M  V30 701 O 74.759 1.21146 1.52164 0
M  V30 702 C 75.042 3.38318 -1.2334 0
M  V30 703 C 74.895 3.54622 -2.76701 0
M  V30 704 C 76.214 4.32214 -0.829415 0
M  V30 705 H 73.333 0.683163 -0.27651 0
M  V30 706 H 75.975 1.38424 -1.30149 0
M  V30 707 H 74.125 3.80787 -0.770286 0
M  V30 708 H 75.797 3.21194 -3.31107 0
M  V30 709 H 74.04 2.97026 -3.16161 0
M  V30 710 H 74.711 4.60028 -3.05088 0
M  V30 711 H 77.187 3.97565 -1.22805 0
M  V30 712 H 76.063 5.35838 -1.19033 0
M  V30 713 H 76.324 4.41294 0.266891 0
M  V30 714 N 75.3831 0.828654 1.34056 0
M  V30 715 C 76.6301 0.419458 1.98108 0
M  V30 716 C 76.9581 -1.01886 1.65679 0
M  V30 717 O 76.2131 -1.72539 0.923512 0
M  V30 718 C 76.5121 0.575226 3.52741 0
M  V30 719 C 76.1781 1.98012 4.05095 0
M  V30 720 C 74.8401 2.36442 4.19104 0
M  V30 721 C 77.1921 2.89824 4.33188 0
M  V30 722 C 74.5201 3.66009 4.58535 0
M  V30 723 C 76.8721 4.1886 4.74066 0
M  V30 724 C 75.5361 4.5726 4.86281 0
M  V30 725 H 74.8061 0.153491 0.724929 0
M  V30 726 H 77.4531 1.05371 1.59904 0
M  V30 727 H 75.7581 -0.142385 3.91541 0
M  V30 728 H 77.4551 0.239057 4.00287 0
M  V30 729 H 74.0451 1.67162 3.94658 0
M  V30 730 H 78.2291 2.61375 4.21897 0
M  V30 731 H 73.4851 3.95579 4.66184 0
M  V30 732 H 77.6591 4.90086 4.94761 0
M  V30 733 H 75.2861 5.57707 5.16592 0
M  V30 734 N 76.8612 -1.46375 0.584142 0
M  V30 735 C 77.8112 -2.27371 -0.169232 0
M  V30 736 C 78.7952 -1.35955 -0.860523 0
M  V30 737 O 79.9872 -1.60119 -0.754382 0
M  V30 738 C 77.1162 -3.22334 -1.18134 0
M  V30 739 C 76.2022 -4.21235 -0.492088 0
M  V30 740 N 76.5932 -5.03766 0.453129 0
M  V30 741 C 74.8912 -4.39773 -0.742652 0
M  V30 742 C 75.5922 -5.75366 0.85609 0
M  V30 743 N 74.5682 -5.43214 0.204926 0
M  V30 744 H 78.3702 -2.88572 0.557097 0
M  V30 745 H 75.8842 -1.57242 0.406042 0
M  V30 746 H 77.8812 -3.79071 -1.73525 0
M  V30 747 H 76.5412 -2.62693 -1.90847 0
M  V30 748 H 77.5522 -5.11227 0.828723 0
M  V30 749 H 74.2292 -3.91279 -1.45625 0
M  V30 750 H 75.6192 -6.5172 1.63434 0
M  V30 751 N 78.3393 -0.321999 -1.54275 0
M  V30 752 C 79.2693 0.537411 -2.27231 0
M  V30 753 C 80.2503 1.12064 -1.27968 0
M  V30 754 O 81.4353 1.14606 -1.56777 0
M  V30 755 C 78.5653 1.69919 -3.02894 0
M  V30 756 C 77.5193 1.24534 -4.09482 0
M  V30 757 C 76.8453 2.49394 -4.72977 0
M  V30 758 C 78.1453 0.361335 -5.21049 0
M  V30 759 H 79.8393 -0.0711406 -2.99315 0
M  V30 760 H 77.3853 -0.0356555 -1.43956 0
M  V30 761 H 79.3383 2.30668 -3.52662 0
M  V30 762 H 78.0623 2.33431 -2.28424 0
M  V30 763 H 76.7213 0.660782 -3.60596 0
M  V30 764 H 76.3693 3.11265 -3.95124 0
M  V30 765 H 76.0693 2.19718 -5.44975 0
M  V30 766 H 77.5933 3.10908 -5.25517 0
M  V30 767 H 79.0073 0.875072 -5.66582 0
M  V30 768 H 77.4043 0.157428 -5.99893 0
M  V30 769 H 78.4743 -0.60822 -4.8107 0
M  V30 770 N 79.8174 1.5752 -0.0501392 0
M  V30 771 C 80.7274 2.14952 0.939827 0
M  V30 772 C 81.7434 1.10706 1.34239 0
M  V30 773 O 82.9194 1.42869 1.41952 0
M  V30 774 C 79.9844 2.68232 2.19665 0
M  V30 775 C 79.0454 3.87272 1.85253 0
M  V30 776 C 78.2784 4.38002 3.04943 0
M  V30 777 O 78.5014 3.87811 4.18281 0
M  V30 778 O 77.4354 5.29602 2.86017 0
M  V30 779 H 81.2614 2.9986 0.481392 0
M  V30 780 H 78.8464 1.4841 0.171699 0
M  V30 781 H 80.7284 3.02475 2.93406 0
M  V30 782 H 79.4034 1.86395 2.64648 0
M  V30 783 H 78.3104 3.5792 1.0883 0
M  V30 784 H 79.6434 4.70336 1.4507 0
M  V30 785 N 81.2955 -0.223234 1.56011 0
M  V30 786 C 82.5435 -0.946003 1.78592 0
M  V30 787 C 82.8645 -1.84936 0.618349 0
M  V30 788 O 82.1345 -1.92473 -0.364833 0
M  V30 789 H 80.7145 -0.352298 0.658707 0
M  V30 790 H 83.3765 -0.235494 1.93472 0
M  V30 791 H 82.4725 -1.55381 2.70672 0
M  V30 792 N 82.7736 -1.49793 -0.48987 0
M  V30 793 C 83.7066 -1.61898 -1.60823 0
M  V30 794 C 84.6846 -0.467651 -1.5573 0
M  V30 795 O 85.8686 -0.684682 -1.75626 0
M  V30 796 C 82.9956 -1.58422 -2.99366 0
M  V30 797 C 82.0416 -2.78889 -3.22682 0
M  V30 798 S 82.8746 -4.40429 -3.04602 0
M  V30 799 C 84.0306 -4.39617 -4.4552 0
M  V30 800 H 84.2636 -2.56502 -1.50312 0
M  V30 801 H 81.7966 -1.38822 -0.675849 0
M  V30 802 H 83.7546 -1.57103 -3.79248 0
M  V30 803 H 82.4156 -0.650866 -3.07283 0
M  V30 804 H 81.6086 -2.72708 -4.23847 0
M  V30 805 H 81.2106 -2.77678 -2.50541 0
M  V30 806 H 83.5026 -4.12022 -5.37814 0
M  V30 807 H 84.4456 -5.41097 -4.56749 0
M  V30 808 H 84.8536 -3.69554 -4.2672 0
M  V30 809 N 84.2517 0.741722 -1.39055 0
M  V30 810 C 85.4797 1.53098 -1.39171 0
M  V30 811 C 85.8947 1.88794 0.0155099 0
M  V30 812 O 85.2517 1.53626 0.985159 0
M  V30 813 C 85.3027 2.82274 -2.2584 0
M  V30 814 O 85.0237 2.48097 -3.61081 0
M  V30 815 C 86.5247 3.76343 -2.34266 0
M  V30 816 H 83.7447 0.473335 -0.4756 0
M  V30 817 H 86.2887 0.917045 -1.82785 0
M  V30 818 H 84.4437 3.40015 -1.85656 0
M  V30 819 H 84.8577 3.31029 -4.06842 0
M  V30 820 H 86.3317 4.63898 -2.9917 0
M  V30 821 H 86.8087 4.17619 -1.35982 0
M  V30 822 H 87.4147 3.24523 -2.74891 0
M  V30 823 N 85.7298 1.2412 0.971189 0
M  V30 824 C 86.9578 1.10575 1.74874 0
M  V30 825 C 87.3728 -0.342017 1.85676 0
M  V30 826 O 86.7298 -1.23617 1.34258 0
M  V30 827 C 86.7808 1.73579 3.171 0
M  V30 828 O 86.5018 3.12695 3.06844 0
M  V30 829 C 88.0028 1.65598 4.11208 0
M  V30 830 H 85.2228 0.386504 0.548503 0
M  V30 831 H 87.7668 1.64156 1.21955 0
M  V30 832 H 85.9218 1.24009 3.67016 0
M  V30 833 H 86.3358 3.43412 3.96445 0
M  V30 834 H 87.8098 2.1437 5.08674 0
M  V30 835 H 88.2868 0.616532 4.34851 0
M  V30 836 H 88.8928 2.14578 3.67201 0
M  V30 837 N 87.2079 -1.17134 1.05439 0
M  V30 838 C 88.4329 -1.91913 0.786396 0
M  V30 839 C 88.8579 -1.7643 -0.652234 0
M  V30 840 O 88.2159 -1.08372 -1.45345 0
M  V30 841 C 88.2639 -3.40921 1.17497 0
M  V30 842 O 87.3679 -4.11244 0.308589 0
M  V30 843 H 86.7089 -0.598215 0.288158 0
M  V30 844 H 89.2389 -1.48457 1.4079 0
M  V30 845 H 89.2489 -3.91668 1.14281 0
M  V30 846 H 87.9239 -3.5151 2.22292 0
M  V30 847 H 86.5009 -3.70731 0.40157 0
M  V30 848 N 88.686 -0.835752 -1.33615 0
M  V30 849 C 89.932 -0.430596 -1.98176 0
M  V30 850 C 90.265 1.00684 -1.66061 0
M  V30 851 O 89.54 1.70339 -0.938877 0
M  V30 852 C 89.823 -0.648065 -3.5422 0
M  V30 853 C 89.676 -2.13255 -3.96033 0
M  V30 854 C 90.995 -0.0922113 -4.40003 0
M  V30 855 H 88.114 -0.157924 -0.719881 0
M  V30 856 H 90.756 -1.05069 -1.58305 0
M  V30 857 H 88.906 -0.120237 -3.88314 0
M  V30 858 H 90.578 -2.725 -3.72211 0
M  V30 859 H 88.821 -2.61823 -3.45878 0
M  V30 860 H 89.492 -2.23547 -5.04708 0
M  V30 861 H 91.968 -0.543343 -4.12537 0
M  V30 862 H 90.844 -0.274083 -5.48215 0
M  V30 863 H 91.105 1.00378 -4.30554 0
M  V30 864 N 90.1641 1.46063 -0.591896 0
M  V30 865 C 91.0971 2.27452 0.184617 0
M  V30 866 C 92.0751 1.36188 0.888351 0
M  V30 867 O 93.2591 1.65606 0.90039 0
M  V30 868 C 90.3861 3.14162 1.26571 0
M  V30 869 C 89.4321 4.21255 0.666814 0
M  V30 870 S 90.2651 5.33034 -0.513345 0
M  V30 871 C 91.4211 6.23311 0.56872 0
M  V30 872 H 91.6541 2.92963 -0.505939 0
M  V30 873 H 89.1871 1.49676 -0.379014 0
M  V30 874 H 91.1451 3.6468 1.88463 0
M  V30 875 H 89.8061 2.47946 1.92826 0
M  V30 876 H 88.9991 4.81788 1.47974 0
M  V30 877 H 88.6011 3.73797 0.123359 0
M  V30 878 H 90.8931 6.61758 1.45198 0
M  V30 879 H 91.8361 7.081 -7.23824e-05 0
M  V30 880 H 92.2441 5.57646 0.876996 0
M  V30 881 N 91.6422 0.330177 1.54103 0
M  V30 882 C 92.6052 -0.520144 2.2322 0
M  V30 883 C 93.6052 -1.03828 1.22786 0
M  V30 884 O 94.7952 -0.929652 1.4732 0
M  V30 885 C 91.9272 -1.72317 2.94142 0
M  V30 886 H 93.1202 0.0841605 2.99782 0
M  V30 887 H 90.6732 0.0813433 1.56088 0
M  V30 888 H 91.4082 -2.36653 2.21734 0
M  V30 889 H 91.1932 -1.35898 3.67796 0
M  V30 890 H 92.6832 -2.3266 3.46784 0
M  V30 891 N 93.1203 -1.57491 0.0584922 0
M  V30 892 C 94.0523 -2.08916 -0.942694 0
M  V30 893 C 95.0653 -1.0185 -1.27006 0
M  V30 894 O 96.2543 -1.29398 -1.22957 0
M  V30 895 C 93.3543 -2.52341 -2.26224 0
M  V30 896 C 92.5273 -3.82827 -2.1157 0
M  V30 897 C 91.5863 -4.12487 -3.26712 0
M  V30 898 O 90.6123 -4.82295 -3.02292 0
M  V30 899 N 91.8143 -3.64978 -4.5141 0
M  V30 900 H 94.5793 -2.95437 -0.503722 0
M  V30 901 H 92.1403 -1.61397 -0.12757 0
M  V30 902 H 94.1323 -2.69254 -3.02133 0
M  V30 903 H 92.7023 -1.7103 -2.61663 0
M  V30 904 H 91.9223 -3.75425 -1.20208 0
M  V30 905 H 93.2103 -4.68263 -1.99015 0
M  V30 906 H 92.6083 -3.08558 -4.7414 0
M  V30 907 H 91.1653 -3.87115 -5.2439 0
M  V30 908 N 94.5984 0.214957 -1.56127 0
M  V30 909 C 95.8454 0.938372 -1.79446 0
M  V30 910 C 96.1734 1.8407 -0.628378 0
M  V30 911 O 95.4284 1.91837 0.386925 0
M  V30 912 C 95.7274 1.80314 -3.0858 0
M  V30 913 C 95.3934 1.05349 -4.3842 0
M  V30 914 C 94.0554 0.846435 -4.73697 0
M  V30 915 C 96.4074 0.524588 -5.18553 0
M  V30 916 C 93.7354 0.098683 -5.86617 0
M  V30 917 C 96.0874 -0.209853 -6.32252 0
M  V30 918 C 94.7514 -0.428102 -6.66126 0
M  V30 919 H 94.0214 0.343375 -0.656639 0
M  V30 920 H 96.6684 0.206077 -1.90388 0
M  V30 921 H 94.9734 2.6035 -2.92789 0
M  V30 922 H 96.6704 2.36513 -3.23825 0
M  V30 923 H 93.2604 1.22486 -4.10725 0
M  V30 924 H 97.4444 0.672008 -4.91729 0
M  V30 925 H 92.7004 -0.0805753 -6.11347 0
M  V30 926 H 96.8744 -0.627157 -6.9357 0
M  V30 927 H 94.5014 -1.00944 -7.53468 0
M  V30 928 N 96.0765 1.50051 0.48192 0
M  V30 929 C 97.0245 1.68635 1.60203 0
M  V30 930 C 98.0185 0.552184 1.60148 0
M  V30 931 O 99.2245 0.732377 1.64427 0
M  V30 932 H 95.5995 0.532081 0.531407 0
M  V30 933 H 97.5705 2.62616 1.41688 0
M  V30 934 C 96.3195 1.78775 2.9822 0
M  V30 935 H 95.6425 2.6543 2.98976 0
M  V30 936 H 97.0825 1.95806 3.7608 0
M  V30 937 C 95.5415 0.536849 3.32595 0
M  V30 938 O 96.0715 -0.328897 4.00351 0
M  V30 939 N 94.2775 0.394091 2.87915 0
M  V30 940 H 93.8245 1.09962 2.32951 0
M  V30 941 H 93.7825 -0.441737 3.11281 0
M  V30 942 N 97.5546 -0.734337 1.39446 0
M  V30 943 C 98.4846 -1.86155 1.40955 0
M  V30 944 C 99.4656 -1.67898 0.272827 0
M  V30 945 O 100.651 -1.88207 0.478743 0
M  V30 946 C 97.7806 -3.23912 1.25294 0
M  V30 947 C 96.7346 -3.56808 2.36373 0
M  V30 948 C 96.0606 -4.93508 2.058 0
M  V30 949 C 97.3606 -3.59713 3.78687 0
M  V30 950 H 99.0546 -1.8515 2.35287 0
M  V30 951 H 96.6006 -0.889367 1.13253 0
M  V30 952 H 98.5536 -4.02443 1.2497 0
M  V30 953 H 97.2776 -3.25446 0.274308 0
M  V30 954 H 95.9366 -2.80606 2.35914 0
M  V30 955 H 95.5846 -4.91623 1.06374 0
M  V30 956 H 95.2846 -5.16486 2.80208 0
M  V30 957 H 96.8086 -5.74396 2.07128 0
M  V30 958 H 98.2226 -4.2832 3.81071 0
M  V30 959 H 96.6196 -3.94209 4.52459 0
M  V30 960 H 97.6896 -2.59504 4.09617 0
M  V30 961 N 99.0327 -1.24633 -0.964593 0
M  V30 962 C 99.9627 -1.06611 -2.07741 0
M  V30 963 C 100.944 0.0218666 -1.70086 0
M  V30 964 O 102.129 -0.145793 -1.93652 0
M  V30 965 C 99.2587 -0.673444 -3.40708 0
M  V30 966 C 98.2127 -1.71054 -3.92332 0
M  V30 967 C 97.5387 -1.17285 -5.21678 0
M  V30 968 C 98.8387 -3.10718 -4.19824 0
M  V30 969 H 100.533 -1.99693 -2.23076 0
M  V30 970 H 98.0787 -0.96152 -1.07195 0
M  V30 971 H 100.032 -0.534345 -4.17998 0
M  V30 972 H 98.7557 0.293073 -3.25282 0
M  V30 973 H 97.4147 -1.83791 -3.17201 0
M  V30 974 H 97.0627 -0.196847 -5.02615 0
M  V30 975 H 96.7627 -1.86592 -5.57187 0
M  V30 976 H 98.2867 -1.04593 -6.01575 0
M  V30 977 H 99.7007 -3.01192 -4.87808 0
M  V30 978 H 98.0977 -3.77406 -4.66567 0
M  V30 979 H 99.1677 -3.58524 -3.26479 0
M  V30 980 N 100.511 1.16574 -1.06058 0
M  V30 981 C 101.736 1.91493 -0.796562 0
M  V30 982 C 102.161 1.76773 0.642868 0
M  V30 983 O 101.519 1.09142 1.44768 0
M  V30 984 C 101.567 3.40293 -1.19303 0
M  V30 985 O 100.671 4.11074 -0.330394 0
M  V30 986 H 100.012 0.596678 -0.291326 0
M  V30 987 H 102.542 1.47708 -1.41575 0
M  V30 988 H 102.552 3.91057 -1.16356 0
M  V30 989 H 101.227 3.50326 -2.24153 0
M  V30 990 H 99.8038 3.70513 -0.421225 0
M  V30 991 N 101.989 0.842826 1.3317 0
M  V30 992 C 103.214 0.453129 2.02389 0
M  V30 993 C 103.639 -0.939105 1.6298 0
M  V30 994 O 102.997 -1.61472 0.8244 0
M  V30 995 C 103.045 0.586094 3.55805 0
M  V30 996 O 102.149 -0.386029 4.10589 0
M  V30 997 H 101.49 0.183664 0.638094 0
M  V30 998 H 104.02 1.13875 1.69981 0
M  V30 999 H 104.03 0.469209 4.05293 0
M  V30 1000 H 102.705 1.6014 3.83833 0
M  V30 1001 H 101.282 -0.226371 3.72212 0
M  V30 1002 N 103.467 -1.45747 0.599634 0
M  V30 1003 C 104.695 -2.06668 0.0978551 0
M  V30 1004 C 105.11 -1.44562 -1.21439 0
M  V30 1005 O 104.467 -0.556923 -1.73795 0
M  V30 1006 C 104.518 -3.61456 -0.0567044 0
M  V30 1007 O 104.239 -4.21242 1.20361 0
M  V30 1008 C 105.74 -4.39345 -0.590869 0
M  V30 1009 H 102.96 -0.667825 0.0651943 0
M  V30 1010 H 105.504 -1.87115 0.82511 0
M  V30 1011 H 103.659 -3.80378 -0.734251 0
M  V30 1012 H 104.073 -5.14323 1.02821 0
M  V30 1013 H 105.547 -5.48182 -0.648131 0
M  V30 1014 H 106.024 -4.08568 -1.61147 0
M  V30 1015 H 106.63 -4.25268 0.0523679 0
M  V30 1016 N 104.945 -0.338344 -1.53925 0
M  V30 1017 C 105.878 0.563758 -2.21127 0
M  V30 1018 C 106.856 1.10433 -1.19345 0
M  V30 1019 O 108.04 1.16557 -1.48144 0
M  V30 1020 C 105.167 1.77505 -2.88461 0
M  V30 1021 C 104.213 1.3644 -4.04087 0
M  V30 1022 S 105.046 0.388593 -5.34088 0
M  V30 1023 C 106.202 1.60683 -6.04923 0
M  V30 1024 H 106.435 -0.00704546 -2.97299 0
M  V30 1025 H 103.968 -0.122418 -1.53914 0
M  V30 1026 H 105.926 2.46999 -3.27875 0
M  V30 1027 H 104.587 2.31706 -2.12064 0
M  V30 1028 H 103.78 2.26739 -4.50117 0
M  V30 1029 H 103.382 0.748998 -3.66423 0
M  V30 1030 H 105.674 2.54209 -6.28 0
M  V30 1031 H 106.617 1.18842 -6.98056 0
M  V30 1032 H 107.025 1.80052 -5.35015 0
M  V30 1033 N 106.423 1.57458 -0.0668435 0
M  V30 1034 C 107.7 1.8469 0.644132 0
M  V30 1035 C 108.08 0.958343 1.88093 0
M  V30 1036 O 107.428 0.0233579 2.28488 0
M  V30 1037 C 107.638 3.34767 0.986509 0
M  V30 1038 C 108.986 4.02159 1.36212 0
M  V30 1039 O 110.01 3.39484 1.07839 0
M  V30 1040 O 108.869 5.12694 1.89227 0
M  V30 1041 H 105.963 0.762816 0.319437 0
M  V30 1042 H 108.509 1.6942 -0.0973986 0
M  V30 1043 H 107.281 3.91151 0.107883 0
M  V30 1044 H 106.904 3.55281 1.78497 0
M  V30 1045 N 107.901 -0.206675 1.56239 0
M  V30 1046 C 108.833 -1.27997 1.9013 0
M  V30 1047 C 109.846 -1.42299 0.790883 0
M  V30 1048 O 111.035 -1.42931 1.06925 0
M  V30 1049 C 108.135 -2.65368 2.10792 0
M  V30 1050 C 107.308 -2.72824 3.41886 0
M  V30 1051 C 106.367 -3.9131 3.51799 0
M  V30 1052 O 105.393 -3.78953 4.24716 0
M  V30 1053 N 106.595 -5.06265 2.84035 0
M  V30 1054 H 109.36 -0.992444 2.82791 0
M  V30 1055 H 106.921 -0.396652 1.56966 0
M  V30 1056 H 108.913 -3.43039 2.14724 0
M  V30 1057 H 107.483 -2.86657 1.24685 0
M  V30 1058 H 106.703 -1.81515 3.49923 0
M  V30 1059 H 107.991 -2.74786 4.28217 0
M  V30 1060 H 107.389 -5.19203 2.246 0
M  V30 1061 H 105.946 -5.81925 2.93609 0
M  V30 1062 N 109.379 -1.50304 -0.473955 0
M  V30 1063 C 110.312 -1.63595 -1.59097 0
M  V30 1064 C 111.29 -0.484142 -1.55225 0
M  V30 1065 O 112.474 -0.703271 -1.7489 0
M  V30 1066 C 109.601 -1.61589 -2.97669 0
M  V30 1067 C 108.647 -2.82295 -3.19705 0
M  V30 1068 S 109.48 -4.43635 -2.99913 0
M  V30 1069 C 110.636 -4.44317 -4.40832 0
M  V30 1070 H 110.869 -2.58082 -1.47583 0
M  V30 1071 H 108.402 -1.39531 -0.661087 0
M  V30 1072 H 110.36 -1.61116 -3.7756 0
M  V30 1073 H 109.021 -0.683421 -3.06575 0
M  V30 1074 H 108.214 -2.77188 -4.20931 0
M  V30 1075 H 107.816 -2.8032 -2.47582 0
M  V30 1076 H 110.108 -4.17703 -5.33414 0
M  V30 1077 H 111.051 -5.45911 -4.50984 0
M  V30 1078 H 111.459 -3.74059 -4.22777 0
M  V30 1079 N 110.857 0.726932 -1.39834 0
M  V30 1080 C 112.082 1.52121 -1.40976 0
M  V30 1081 C 112.507 1.88098 -0.00826029 0
M  V30 1082 O 111.865 1.52479 0.980807 0
M  V30 1083 C 111.913 2.78021 -2.29644 0
M  V30 1084 O 111.017 3.74272 -1.73188 0
M  V30 1085 H 110.358 0.45908 -0.479731 0
M  V30 1086 H 112.888 0.896207 -1.83927 0
M  V30 1087 H 112.898 3.26671 -2.44438 0
M  V30 1088 H 111.573 2.51169 -3.31492 0
M  V30 1089 H 110.15 3.33073 -1.6768 0
M  V30 1090 N 112.336 1.25143 0.95797 0
M  V30 1091 C 113.561 1.12521 1.74223 0
M  V30 1092 C 113.986 -0.317402 1.85403 0
M  V30 1093 O 113.344 -1.2299 1.33204 0
M  V30 1094 C 113.392 1.78062 3.1357 0
M  V30 1095 O 112.496 1.058 3.98598 0
M  V30 1096 H 111.837 0.39304 0.535178 0
M  V30 1097 H 114.367 1.65641 1.201 0
M  V30 1098 H 114.377 1.84213 3.64046 0
M  V30 1099 H 113.052 2.83021 3.04749 0
M  V30 1100 H 111.629 1.07506 3.57067 0
M  V30 1101 N 113.814 -1.1601 1.06675 0
M  V30 1102 C 115.23 -1.38622 0.790948 0
M  V30 1103 C 115.43 -1.92109 -0.607965 0
M  V30 1104 O 114.486 -2.12239 -1.36787 0
M  V30 1105 C 115.799 -2.36347 1.85905 0
M  V30 1106 C 117.347 -2.50023 1.88301 0
M  V30 1107 C 117.822 -3.51033 2.94176 0
M  V30 1108 N 119.313 -3.58563 2.93235 0
M  V30 1109 C 120.048 -4.36521 3.71803 0
M  V30 1110 N 119.544 -5.17869 4.602 0
M  V30 1111 N 121.337 -4.31541 3.60178 0
M  V30 1112 H 113.488 -0.796294 1.96908 0
M  V30 1113 H 115.751 -0.412597 0.853503 0
M  V30 1114 H 115.457 -2.04147 2.86386 0
M  V30 1115 H 115.331 -3.36042 1.71334 0
M  V30 1116 H 117.718 -2.81524 0.884769 0
M  V30 1117 H 117.799 -1.5035 2.06951 0
M  V30 1118 H 117.443 -3.20268 3.94196 0
M  V30 1119 H 117.373 -4.50445 2.72776 0
M  V30 1120 H 119.864 -3.00496 2.29152 0
M  V30 1121 H 120.177 -5.74578 5.16797 0
M  V30 1122 H 118.522 -5.17199 4.64253 0
M  V30 1123 H 121.713 -3.67051 2.90502 0
M  V30 1124 H 121.886 -4.9205 4.21653 0
M  V30 1125 N 115.292 -0.849877 -1.32721 0
M  V30 1126 C 116.255 -0.296122 -2.27279 0
M  V30 1127 C 117.255 0.541458 -1.5141 0
M  V30 1128 O 118.445 0.353658 -1.70572 0
M  V30 1129 C 115.577 0.581579 -3.35902 0
M  V30 1130 H 116.77 -1.13064 -2.77771 0
M  V30 1131 H 114.323 -0.62383 -1.43311 0
M  V30 1132 H 115.058 1.43809 -2.9067 0
M  V30 1133 H 114.843 -0.0178814 -3.92096 0
M  V30 1134 H 116.333 0.961951 -4.0637 0
M  V30 1135 N 116.77 1.45427 -0.607355 0
M  V30 1136 C 117.733 2.28974 0.101693 0
M  V30 1137 C 118.733 1.39754 0.795329 0
M  V30 1138 O 119.923 1.61878 0.643527 0
M  V30 1139 C 117.055 3.20768 1.15414 0
M  V30 1140 H 118.248 2.93147 -0.632844 0
M  V30 1141 H 115.801 1.51945 -0.366391 0
M  V30 1142 H 116.536 2.61395 1.91945 0
M  V30 1143 H 116.321 3.86489 0.66098 0
M  V30 1144 H 117.811 3.83589 1.65073 0
M  V30 1145 N 118.248 0.346503 1.53744 0
M  V30 1146 C 119.473 -0.253074 2.0585 0
M  V30 1147 C 119.898 -1.43202 1.21962 0
M  V30 1148 O 119.256 -1.79783 0.234073 0
M  V30 1149 C 119.304 -0.643193 3.54817 0
M  V30 1150 O 118.408 -1.74286 3.73762 0
M  V30 1151 H 117.749 -0.0413583 0.662711 0
M  V30 1152 H 120.279 0.501574 1.98357 0
M  V30 1153 H 120.289 -0.919526 3.97503 0
M  V30 1154 H 118.964 0.218966 4.15323 0
M  V30 1155 H 117.541 -1.46356 3.42979 0
M  V30 1156 N 119.726 -1.57421 0.075193 0
M  V30 1157 C 120.689 -2.11791 -0.876203 0
M  V30 1158 C 121.689 -1.04268 -1.22412 0
M  V30 1159 O 122.879 -1.30242 -1.15684 0
M  V30 1160 C 120.011 -2.62207 -2.17854 0
M  V30 1161 H 121.204 -2.9716 -0.40444 0
M  V30 1162 H 118.757 -1.55333 -0.173557 0
M  V30 1163 H 119.492 -1.803 -2.6956 0
M  V30 1164 H 119.277 -3.40802 -1.93897 0
M  V30 1165 H 120.767 -3.04335 -2.85955 0
M  V30 1166 N 121.204 0.198386 -1.56346 0
M  V30 1167 C 122.429 0.939682 -1.84891 0
M  V30 1168 C 122.854 1.76202 -0.658369 0
M  V30 1169 O 122.212 1.76993 0.392851 0
M  V30 1170 C 122.26 1.81428 -3.11635 0
M  V30 1171 O 121.364 2.91265 -2.91956 0
M  V30 1172 H 120.705 0.264807 -0.608912 0
M  V30 1173 H 123.235 0.204695 -2.03573 0
M  V30 1174 H 123.245 2.21958 -3.42343 0
M  V30 1175 H 121.92 1.21004 -3.97908 0
M  V30 1176 H 120.497 2.54514 -2.72538 0
M  V30 1177 N 122.682 1.50554 0.465978 0
M  V30 1178 C 124.093 1.54599 1.04671 0
M  V30 1179 C 124.444 0.352488 1.93008 0
M  V30 1180 O 123.569 -0.534044 2.09707 0
M  V30 1181 C 124.164 2.80166 1.90505 0
M  V30 1182 C 122.723 2.86876 2.43678 0
M  V30 1183 C 121.87 2.48947 1.22151 0
M  V30 1184 H 124.821 1.56744 0.248384 0
M  V30 1185 H 124.842 2.62311 2.75633 0
M  V30 1186 H 124.354 3.67013 1.26186 0
M  V30 1187 H 122.455 2.04393 3.11536 0
M  V30 1188 H 122.568 3.89885 2.78436 0
M  V30 1189 H 120.932 2.01498 1.5579 0
M  V30 1190 H 121.715 3.38107 0.594866 0
M  V30 1191 N 124.16 -0.719506 1.40217 0
M  V30 1192 C 125.39 -1.50646 1.41384 0
M  V30 1193 C 125.798 -1.89197 0.0107743 0
M  V30 1194 O 125.141 -1.55709 -0.974708 0
M  V30 1195 C 125.203 -2.81405 2.23722 0
M  V30 1196 C 124.867 -2.65199 3.72181 0
M  V30 1197 C 125.864 -2.32717 4.64907 0
M  V30 1198 C 123.549 -2.81586 4.1595 0
M  V30 1199 C 125.543 -2.16827 5.99387 0
M  V30 1200 C 123.23 -2.65313 5.50502 0
M  V30 1201 C 124.228 -2.32981 6.42035 0
M  V30 1202 O 123.916 -2.16827 7.74107 0
M  V30 1203 H 123.648 -0.471606 0.484318 0
M  V30 1204 H 126.202 -0.895456 1.84853 0
M  V30 1205 H 124.432 -3.44823 1.75026 0
M  V30 1206 H 126.121 -3.43102 2.16878 0
M  V30 1207 H 126.887 -2.19694 4.32388 0
M  V30 1208 H 122.766 -3.0574 3.45027 0
M  V30 1209 H 126.31 -1.91513 6.70797 0
M  V30 1210 H 122.207 -2.7792 5.82607 0
M  V30 1211 H 122.975 -2.31778 7.84998 0
M  V30 1212 N 125.638 -1.25649 -0.95132 0
M  V30 1213 C 126.866 -1.13343 -1.73092 0
M  V30 1214 C 127.281 0.312434 -1.86197 0
M  V30 1215 O 126.638 1.21465 -1.36207 0
M  V30 1216 C 126.689 -1.78602 -3.14299 0
M  V30 1217 O 126.41 -3.17537 -3.01831 0
M  V30 1218 C 127.911 -1.72119 -4.08522 0
M  V30 1219 H 125.131 -0.395181 -0.542285 0
M  V30 1220 H 127.675 -1.66076 -1.19328 0
M  V30 1221 H 125.83 -1.29832 -3.64996 0
M  V30 1222 H 126.244 -3.49676 -3.90931 0
M  V30 1223 H 127.718 -2.22435 -5.052 0
M  V30 1224 H 128.195 -0.685635 -4.33815 0
M  V30 1225 H 128.801 -2.20393 -3.63741 0
M  V30 1226 N 127.117 1.15442 -1.07289 0
M  V30 1227 C 128.528 1.67803 -0.818475 0
M  V30 1228 C 128.879 1.8489 0.656507 0
M  V30 1229 O 128.004 1.55176 1.50829 0
M  V30 1230 C 128.599 3.04805 -1.47917 0
M  V30 1231 C 127.158 3.54245 -1.27229 0
M  V30 1232 C 126.305 2.29986 -1.54925 0
M  V30 1233 H 129.256 0.996646 -1.23502 0
M  V30 1234 H 129.277 3.69702 -0.90005 0
M  V30 1235 H 128.789 2.92336 -2.55267 0
M  V30 1236 H 126.89 3.71956 -0.21899 0
M  V30 1237 H 127.003 4.35723 -1.99203 0
M  V30 1238 H 125.367 2.35496 -0.970242 0
M  V30 1239 H 126.15 2.20105 -2.63455 0
M  V30 1240 N 128.595 0.856903 1.32268 0
M  V30 1241 C 129.505 0.306131 2.32594 0
M  V30 1242 C 130.521 -0.577209 1.64147 0
M  V30 1243 O 131.697 -0.477043 1.95669 0
M  V30 1244 C 128.762 -0.494561 3.43154 0
M  V30 1245 C 127.823 0.415186 4.27288 0
M  V30 1246 C 127.056 -0.347387 5.32568 0
M  V30 1247 O 127.279 -1.57708 5.48165 0
M  V30 1248 O 126.213 0.287982 6.01211 0
M  V30 1249 H 130.039 1.13737 2.81598 0
M  V30 1250 H 127.624 0.619902 1.35932 0
M  V30 1251 H 129.506 -0.948944 4.10576 0
M  V30 1252 H 128.181 -1.30257 2.96336 0
M  V30 1253 H 127.088 0.917793 3.62667 0
M  V30 1254 H 128.421 1.18844 4.77637 0
M  V30 1255 N 130.073 -1.45103 0.615059 0
M  V30 1256 C 131.023 -2.27679 -0.120966 0
M  V30 1257 C 132.007 -1.3775 -0.831491 0
M  V30 1258 O 133.199 -1.61683 -0.720249 0
M  V30 1259 C 130.328 -3.24767 -1.1127 0
M  V30 1260 C 129.414 -4.22184 -0.402627 0
M  V30 1261 N 129.805 -5.02692 0.559884 0
M  V30 1262 C 128.103 -4.4125 -0.649202 0
M  V30 1263 C 128.804 -5.73421 0.977942 0
M  V30 1264 N 127.78 -5.42657 0.320104 0
M  V30 1265 H 131.582 -2.87325 0.618181 0
M  V30 1266 H 129.096 -1.56345 0.439304 0
M  V30 1267 H 131.093 -3.82666 -1.65446 0
M  V30 1268 H 129.753 -2.66682 -1.85232 0
M  V30 1269 H 130.764 -5.09354 0.936976 0
M  V30 1270 H 127.441 -3.9428 -1.37293 0
M  V30 1271 H 128.831 -6.48107 1.77222 0
M  V30 1272 N 131.551 -0.354651 -1.53558 0
M  V30 1273 C 132.514 0.484566 -2.24019 0
M  V30 1274 C 133.514 1.01861 -1.24422 0
M  V30 1275 O 134.704 0.906097 -1.4878 0
M  V30 1276 C 131.836 1.67615 -2.96847 0
M  V30 1277 H 133.029 -0.131843 -2.9961 0
M  V30 1278 H 130.582 -0.106165 -1.55939 0
M  V30 1279 H 131.317 2.33095 -2.25471 0
M  V30 1280 H 131.102 1.30029 -3.69912 0
M  V30 1281 H 132.592 2.27114 -3.50441 0
M  V30 1282 N 133.029 1.57378 -0.0835403 0
M  V30 1283 C 133.992 2.12252 0.864959 0
M  V30 1284 C 134.992 1.04916 1.21858 0
M  V30 1285 O 136.182 1.30853 1.14991 0
M  V30 1286 C 133.314 2.63358 2.16461 0
M  V30 1287 H 134.507 2.97371 0.388676 0
M  V30 1288 H 132.06 1.55423 0.165317 0
M  V30 1289 H 132.795 1.81727 2.686 0
M  V30 1290 H 132.58 3.41826 1.92087 0
M  V30 1291 H 134.07 3.05847 2.84337 0
M  V30 1292 N 134.507 -0.190092 1.56449 0
M  V30 1293 C 135.732 -0.929864 1.85387 0
M  V30 1294 C 136.157 -1.7585 0.667704 0
M  V30 1295 O 135.515 -1.77198 -0.383459 0
M  V30 1296 C 135.563 -1.79773 3.12593 0
M  V30 1297 O 134.667 -2.89713 2.93496 0
M  V30 1298 H 134.008 -0.261574 0.610307 0
M  V30 1299 H 136.538 -0.193896 2.03679 0
M  V30 1300 H 136.548 -2.20139 3.43515 0
M  V30 1301 H 135.223 -1.18892 3.98544 0
M  V30 1302 H 133.8 -2.53065 2.73884 0
M  V30 1303 N 135.985 -1.50799 -0.457987 0
M  V30 1304 C 137.231 -1.62683 -1.21088 0
M  V30 1305 C 137.564 -0.332268 -1.91336 0
M  V30 1306 O 136.839 0.667043 -1.82704 0
M  V30 1307 C 137.122 -2.81615 -2.24422 0
M  V30 1308 C 136.975 -4.20989 -1.58392 0
M  V30 1309 C 138.294 -2.96085 -3.2561 0
M  V30 1310 H 135.413 -0.592087 -0.438864 0
M  V30 1311 H 138.055 -1.83225 -0.50286 0
M  V30 1312 H 136.205 -2.64231 -2.84806 0
M  V30 1313 H 137.877 -4.49994 -1.01504 0
M  V30 1314 H 136.12 -4.24641 -0.886704 0
M  V30 1315 H 136.791 -5.0016 -2.33547 0
M  V30 1316 H 139.267 -3.12042 -2.75262 0
M  V30 1317 H 138.143 -3.80902 -3.95228 0
M  V30 1318 H 138.404 -2.0726 -3.90507 0
M  V30 1319 N 137.463 0.71206 -1.40597 0
M  V30 1320 C 138.874 1.29135 -1.34837 0
M  V30 1321 C 139.225 1.96186 -0.0235395 0
M  V30 1322 O 138.35 1.97768 0.878444 0
M  V30 1323 C 138.945 2.34827 -2.44217 0
M  V30 1324 C 137.504 2.88371 -2.41907 0
M  V30 1325 C 136.651 1.62202 -2.24913 0
M  V30 1326 H 139.602 0.507944 -1.50352 0
M  V30 1327 H 139.623 3.15749 -2.12327 0
M  V30 1328 H 139.135 1.85996 -3.40627 0
M  V30 1329 H 137.236 3.41422 -1.49204 0
M  V30 1330 H 137.349 3.39925 -3.37621 0
M  V30 1331 H 135.713 1.874 -1.72492 0
M  V30 1332 H 136.496 1.15391 -3.23326 0
M  V30 1333 N 138.941 1.26152 0.944643 0
M  V30 1334 C 140.169 1.14259 1.72489 0
M  V30 1335 C 140.584 -0.302555 1.8636 0
M  V30 1336 O 139.941 -1.20741 1.36849 0
M  V30 1337 C 139.992 1.80266 3.13347 0
M  V30 1338 O 139.713 3.19133 3.00143 0
M  V30 1339 C 141.214 1.74283 4.07603 0
M  V30 1340 H 138.434 0.398051 0.540181 0
M  V30 1341 H 140.978 1.66706 1.18446 0
M  V30 1342 H 139.133 1.31766 3.64303 0
M  V30 1343 H 139.547 3.51744 3.89071 0
M  V30 1344 H 141.021 2.25111 5.04013 0
M  V30 1345 H 141.498 0.708631 4.33446 0
M  V30 1346 H 142.104 2.22319 3.62567 0
M  V30 1347 N 140.419 -1.14872 1.07899 0
M  V30 1348 C 141.369 -2.17809 0.674027 0
M  V30 1349 C 142.353 -1.58008 -0.303699 0
M  V30 1350 O 143.545 -1.76616 -0.11654 0
M  V30 1351 C 140.674 -3.43208 0.0793318 0
M  V30 1352 C 139.76 -4.10051 1.08253 0
M  V30 1353 N 140.151 -4.52296 2.2641 0
M  V30 1354 C 138.449 -4.36469 0.917124 0
M  V30 1355 C 139.15 -5.04199 2.901 0
M  V30 1356 N 138.126 -4.98088 2.17736 0
M  V30 1357 H 141.928 -2.48207 1.57386 0
M  V30 1358 H 139.442 -1.315 0.952976 0
M  V30 1359 H 141.439 -4.16272 -0.228719 0
M  V30 1360 H 140.099 -3.14291 -0.815551 0
M  V30 1361 H 141.11 -4.45504 2.64096 0
M  V30 1362 H 137.787 -4.17432 0.0756078 0
M  V30 1363 H 139.177 -5.46802 3.90458 0
M  V30 1364 N 141.898 -0.863906 -1.31812 0
M  V30 1365 C 143.123 -0.48527 -2.01643 0
M  V30 1366 C 143.548 0.913058 -1.64453 0
M  V30 1367 O 142.906 1.6014 -0.849985 0
M  V30 1368 C 142.954 -0.642625 -3.54828 0
M  V30 1369 O 142.058 0.320659 -4.11151 0
M  V30 1370 H 141.399 -0.193793 -0.635091 0
M  V30 1371 H 143.929 -1.16565 -1.68148 0
M  V30 1372 H 143.939 -0.533628 -4.04495 0
M  V30 1373 H 142.614 -1.66227 -3.81237 0
M  V30 1374 H 141.191 0.167126 -3.72525 0
M  V30 1375 N 143.376 1.44774 -0.622745 0
M  V30 1376 C 144.787 1.85546 -0.207226 0
M  V30 1377 C 145.138 1.52093 1.23944 0
M  V30 1378 O 144.263 0.95492 1.94191 0
M  V30 1379 C 144.858 3.36781 -0.369313 0
M  V30 1380 C 143.417 3.76399 -0.00836847 0
M  V30 1381 C 142.564 2.68664 -0.686651 0
M  V30 1382 H 145.515 1.3536 -0.828454 0
M  V30 1383 H 145.536 3.78453 0.394162 0
M  V30 1384 H 145.048 3.61098 -1.42231 0
M  V30 1385 H 143.149 3.57698 1.04322 0
M  V30 1386 H 143.262 4.7732 -0.412584 0
M  V30 1387 H 141.626 2.54404 -0.122777 0
M  V30 1388 H 142.409 2.95815 -1.74208 0
M  V30 1389 N 144.854 0.36279 1.53368 0
M  V30 1390 C 146.084 -0.228281 2.05335 0
M  V30 1391 C 146.492 -1.43226 1.23625 0
M  V30 1392 O 145.835 -1.81717 0.269206 0
M  V30 1393 C 145.897 -0.688549 3.52845 0
M  V30 1394 C 145.561 0.398362 4.5526 0
M  V30 1395 C 146.558 1.24732 5.04716 0
M  V30 1396 C 144.243 0.557805 4.99193 0
M  V30 1397 C 146.237 2.2411 5.96702 0
M  V30 1398 C 143.924 1.55495 5.90986 0
M  V30 1399 C 144.922 2.39503 6.39631 0
M  V30 1400 O 144.61 3.37517 7.29615 0
M  V30 1401 H 144.342 -0.044395 0.674541 0
M  V30 1402 H 146.896 0.518668 1.98744 0
M  V30 1403 H 145.126 -1.48706 3.56964 0
M  V30 1404 H 146.815 -1.20231 3.87685 0
M  V30 1405 H 147.581 1.13532 4.71525 0
M  V30 1406 H 143.46 -0.0862959 4.60919 0
M  V30 1407 H 147.004 2.89718 6.34594 0
M  V30 1408 H 142.901 1.66744 6.23592 0
M  V30 1409 H 143.669 3.33213 7.47604 0
M  V30 1410 N 146.332 -1.57332 0.0918853 0
M  V30 1411 C 147.295 -2.12708 -0.85369 0
M  V30 1412 C 148.295 -1.05561 -1.213 0
M  V30 1413 O 149.485 -1.31461 -1.14296 0
M  V30 1414 C 146.617 -2.64503 -2.15061 0
M  V30 1415 H 147.81 -2.97573 -0.3729 0
M  V30 1416 H 145.363 -1.55509 -0.157072 0
M  V30 1417 H 146.098 -1.83149 -2.67632 0
M  V30 1418 H 145.883 -3.4284 -1.90272 0
M  V30 1419 H 147.373 -3.07351 -2.82711 0
M  V30 1420 N 147.81 0.181792 -1.56548 0
M  V30 1421 C 148.742 1.24956 -1.92142 0
M  V30 1422 C 149.755 1.41022 -0.813422 0
M  V30 1423 O 150.944 1.41212 -1.09186 0
M  V30 1424 C 148.044 2.61981 -2.14987 0
M  V30 1425 C 147.217 2.6735 -3.46183 0
M  V30 1426 C 146.276 3.85664 -3.5798 0
M  V30 1427 O 145.302 3.72148 -4.30691 0
M  V30 1428 N 146.504 5.01683 -2.92053 0
M  V30 1429 H 149.269 0.947329 -2.84334 0
M  V30 1430 H 146.83 0.371629 -1.57577 0
M  V30 1431 H 148.822 3.3958 -2.20154 0
M  V30 1432 H 147.392 2.84637 -1.2923 0
M  V30 1433 H 146.612 1.75925 -3.52766 0
M  V30 1434 H 147.9 2.67939 -4.32534 0
M  V30 1435 H 147.298 5.15564 -2.32832 0
M  V30 1436 H 145.855 5.77181 -3.0283 0
M  V30 1437 N 149.288 1.51039 0.449983 0
M  V30 1438 C 150.699 1.557 1.03026 0
M  V30 1439 C 151.05 0.372939 1.92623 0
M  V30 1440 O 150.175 -0.511771 2.10261 0
M  V30 1441 C 150.77 2.82171 1.87523 0
M  V30 1442 C 149.329 2.89444 2.40622 0
M  V30 1443 C 148.476 2.50228 1.19504 0
M  V30 1444 H 151.427 1.56999 0.231745 0
M  V30 1445 H 151.448 2.65219 2.72835 0
M  V30 1446 H 150.96 3.68331 1.22286 0
M  V30 1447 H 149.061 2.07685 3.0935 0
M  V30 1448 H 149.174 3.92816 2.74285 0
M  V30 1449 H 147.538 2.03139 1.53644 0
M  V30 1450 H 148.321 3.38719 0.558972 0
M  V30 1451 N 150.766 -0.704594 1.40972 0
M  V30 1452 C 151.991 -1.49858 1.43378 0
M  V30 1453 C 152.416 -1.88061 0.038184 0
M  V30 1454 O 151.774 -1.5402 -0.956425 0
M  V30 1455 C 151.822 -2.74333 2.34038 0
M  V30 1456 O 150.926 -3.7147 1.7912 0
M  V30 1457 H 150.267 -0.45139 0.486974 0
M  V30 1458 H 152.797 -0.866832 1.8533 0
M  V30 1459 H 152.807 -3.22741 2.49604 0
M  V30 1460 H 151.482 -2.45863 3.35446 0
M  V30 1461 H 150.059 -3.30363 1.72958 0
M  V30 1462 N 152.244 -1.26651 -0.937939 0
M  V30 1463 C 153.469 -1.15279 -1.72411 0
M  V30 1464 C 153.894 0.287866 -1.85884 0
M  V30 1465 O 153.252 1.20855 -1.35143 0
M  V30 1466 C 153.3 -1.83028 -3.10698 0
M  V30 1467 O 152.404 -1.12128 -3.96864 0
M  V30 1468 H 151.745 -0.401504 -0.528858 0
M  V30 1469 H 154.275 -1.67531 -1.1745 0
M  V30 1470 H 154.285 -1.89981 -3.6107 0
M  V30 1471 H 152.96 -2.87833 -3.00208 0
M  V30 1472 H 151.537 -1.13173 -3.55312 0
M  V30 1473 N 153.722 1.14298 -1.08507 0
M  V30 1474 C 154.95 1.89219 -0.836876 0
M  V30 1475 C 155.365 1.78638 0.611054 0
M  V30 1476 O 154.722 1.14643 1.41998 0
M  V30 1477 C 154.773 3.39158 -1.25116 0
M  V30 1478 O 154.494 3.49449 -2.64229 0
M  V30 1479 C 155.995 4.31073 -1.03398 0
M  V30 1480 H 153.215 0.599328 -0.301739 0
M  V30 1481 H 155.759 1.44746 -1.44461 0
M  V30 1482 H 153.914 3.81251 -0.687514 0
M  V30 1483 H 154.328 4.42589 -2.81452 0
M  V30 1484 H 155.802 5.34646 -1.37323 0
M  V30 1485 H 156.279 4.3919 0.0289259 0
M  V30 1486 H 156.885 3.94738 -1.58311 0
M  V30 1487 N 155.201 0.870884 1.31352 0
M  V30 1488 C 156.448 0.482273 1.96673 0
M  V30 1489 C 156.776 -0.965638 1.68836 0
M  V30 1490 O 156.031 -1.69514 0.977937 0
M  V30 1491 C 156.33 0.687157 3.50732 0
M  V30 1492 C 155.996 2.108 3.9859 0
M  V30 1493 C 154.658 2.49656 4.1137 0
M  V30 1494 C 157.01 3.03459 4.23748 0
M  V30 1495 C 154.338 3.80412 4.46659 0
M  V30 1496 C 156.69 4.3373 4.60501 0
M  V30 1497 C 155.354 4.725 4.71487 0
M  V30 1498 H 154.624 0.176476 0.719679 0
M  V30 1499 H 157.271 1.10405 1.56471 0
M  V30 1500 H 155.576 -0.0177476 3.91796 0
M  V30 1501 H 157.273 0.366284 3.99324 0
M  V30 1502 H 153.863 1.79633 3.8914 0
M  V30 1503 H 158.047 2.74665 4.13368 0
M  V30 1504 H 153.303 4.1021 4.53362 0
M  V30 1505 H 157.477 5.05578 4.78919 0
M  V30 1506 H 155.104 5.73859 4.98588 0
M  V30 1507 N 156.679 -1.44442 0.630414 0
M  V30 1508 C 157.956 -1.9549 0.0655657 0
M  V30 1509 C 158.336 -1.5724 -1.40851 0
M  V30 1510 O 157.684 -0.846116 -2.12257 0
M  V30 1511 C 157.894 -3.47812 0.287691 0
M  V30 1512 C 159.242 -4.24216 0.180513 0
M  V30 1513 O 160.266 -3.55526 0.219019 0
M  V30 1514 O 159.125 -5.46434 0.0848493 0
M  V30 1515 H 156.219 -0.826688 -0.0227177 0
M  V30 1516 H 158.765 -1.54496 0.702068 0
M  V30 1517 H 157.537 -3.687 1.31056 0
M  V30 1518 H 157.16 -3.95751 -0.382984 0
M  V30 1519 N 158.157 -0.370918 -1.53173 0
M  V30 1520 C 159.385 0.217704 -2.05751 0
M  V30 1521 C 159.8 1.42018 -1.24404 0
M  V30 1522 O 159.157 1.80245 -0.286033 0
M  V30 1523 C 159.208 0.605954 -3.56385 0
M  V30 1524 O 158.929 -0.548734 -4.3465 0
M  V30 1525 C 160.43 1.2524 -4.25241 0
M  V30 1526 H 157.65 0.0371659 -0.66997 0
M  V30 1527 H 160.194 -0.530832 -1.9749 0
M  V30 1528 H 158.349 1.3044 -3.6478 0
M  V30 1529 H 158.763 -0.23376 -5.23979 0
M  V30 1530 H 160.237 1.47458 -5.3194 0
M  V30 1531 H 160.714 2.2143 -3.79296 0
M  V30 1532 H 161.32 0.595233 -4.21114 0
M  V30 1533 N 159.635 1.57281 -0.100228 0
M  V30 1534 C 160.568 2.09976 0.893612 0
M  V30 1535 C 161.546 1.01155 1.27304 0
M  V30 1536 O 162.73 1.28687 1.37739 0
M  V30 1537 C 159.857 2.58098 2.19324 0
M  V30 1538 C 158.903 3.78626 1.96328 0
M  V30 1539 S 159.736 5.21959 1.19662 0
M  V30 1540 C 160.892 5.73435 2.50844 0
M  V30 1541 H 161.125 2.93946 0.44534 0
M  V30 1542 H 158.658 1.53985 0.113167 0
M  V30 1543 H 160.616 2.8648 2.94005 0
M  V30 1544 H 159.277 1.74344 2.61272 0
M  V30 1545 H 158.47 4.10382 2.92579 0
M  V30 1546 H 158.072 3.50763 1.29775 0
M  V30 1547 H 160.364 5.82015 3.46792 0
M  V30 1548 H 161.307 6.7185 2.23659 0
M  V30 1549 H 161.715 5.01395 2.59352 0
M  V30 1550 N 161.113 -0.173488 1.56642 0
M  V30 1551 C 162.338 -0.910149 1.86363 0
M  V30 1552 C 162.763 -1.75132 0.686318 0
M  V30 1553 O 162.121 -1.77595 -0.364643 0
M  V30 1554 C 162.169 -1.76447 3.14482 0
M  V30 1555 O 161.273 -2.86584 2.96553 0
M  V30 1556 H 160.614 -0.255086 0.613047 0
M  V30 1557 H 163.144 -0.172283 2.03873 0
M  V30 1558 H 163.154 -2.16483 3.45831 0
M  V30 1559 H 161.829 -1.14658 3.99783 0
M  V30 1560 H 160.406 -2.50146 2.76553 0
M  V30 1561 N 162.591 -1.51276 -0.441967 0
M  V30 1562 C 164.002 -1.56244 -1.02199 0
M  V30 1563 C 164.353 -0.383149 -1.92422 0
M  V30 1564 O 163.478 0.500613 -2.1053 0
M  V30 1565 C 164.073 -2.83162 -1.86024 0
M  V30 1566 C 162.632 -2.90716 -2.39084 0
M  V30 1567 C 161.779 -2.50858 -1.18175 0
M  V30 1568 H 164.73 -1.5712 -0.223416 0
M  V30 1569 H 164.751 -2.66663 -2.71425 0
M  V30 1570 H 164.263 -3.68974 -1.20331 0
M  V30 1571 H 162.364 -2.09323 -3.08244 0
M  V30 1572 H 162.477 -3.94266 -2.72198 0
M  V30 1573 H 160.841 -2.03951 -1.52565 0
M  V30 1574 H 161.624 -3.3901 -0.541001 0
M  V30 1575 N 164.069 0.697108 -1.41344 0
M  V30 1576 C 165.032 1.79281 -1.42797 0
M  V30 1577 C 166.032 1.57607 -0.318837 0
M  V30 1578 O 167.222 1.64309 -0.578642 0
M  V30 1579 C 164.354 3.17632 -1.23785 0
M  V30 1580 H 165.547 1.79385 -2.40335 0
M  V30 1581 H 163.1 0.904582 -1.27464 0
M  V30 1582 H 163.835 3.23167 -0.270814 0
M  V30 1583 H 163.62 3.34765 -2.04144 0
M  V30 1584 H 165.11 3.97617 -1.27633 0
M  V30 1585 N 165.547 1.27147 0.931209 0
M  V30 1586 C 166.958 1.12044 1.49342 0
M  V30 1587 C 167.309 -0.295795 1.93957 0
M  V30 1588 O 166.434 -1.18835 1.80852 0
M  V30 1589 C 167.029 2.02781 2.71414 0
M  V30 1590 C 165.588 1.91794 3.2387 0
M  V30 1591 C 164.735 1.95543 1.96617 0
M  V30 1592 H 167.686 1.40091 0.745672 0
M  V30 1593 H 167.707 1.58156 3.46074 0
M  V30 1594 H 167.219 3.05848 2.38911 0
M  V30 1595 H 165.32 0.916992 3.6114 0
M  V30 1596 H 165.433 2.77852 3.90302 0
M  V30 1597 H 163.797 1.39722 2.12955 0
M  V30 1598 H 164.58 3.00259 1.66432 0
M  V30 1599 N 167.025 -1.13721 1.09112 0
M  V30 1600 C 168.271 -1.85198 0.826414 0
M  V30 1601 C 168.604 -1.83129 -0.646319 0
M  V30 1602 O 167.879 -1.2671 -1.47563 0
M  V30 1603 C 168.162 -3.33507 1.35812 0
M  V30 1604 C 168.015 -3.44108 2.89672 0
M  V30 1605 C 169.334 -4.28838 0.989256 0
M  V30 1606 H 166.453 -0.67243 0.301675 0
M  V30 1607 H 169.095 -1.33499 1.35197 0
M  V30 1608 H 167.245 -3.77666 0.911082 0
M  V30 1609 H 168.917 -3.08684 3.428 0
M  V30 1610 H 167.16 -2.85087 3.26967 0
M  V30 1611 H 167.831 -4.48388 3.21951 0
M  V30 1612 H 170.307 -3.92734 1.37475 0
M  V30 1613 H 169.183 -5.31051 1.38838 0
M  V30 1614 H 169.444 -4.4198 -0.102924 0
M  V30 1615 N 168.503 -0.877838 -1.30888 0
M  V30 1616 C 169.752 -0.488793 -1.95688 0
M  V30 1617 C 170.065 0.965485 -1.70111 0
M  V30 1618 O 171.271 1.46104 -2.28836 0
M  V30 1619 C 169.727 -0.823201 -3.50359 0
M  V30 1620 C 169.335 -2.29477 -3.84765 0
M  V30 1621 C 171.079 -0.503009 -4.21509 0
M  V30 1622 C 168.986 -2.57118 -5.32583 0
M  V30 1623 H 167.916 -0.179062 -0.732429 0
M  V30 1624 H 170.567 -1.07183 -1.48943 0
M  V30 1625 H 168.949 -0.169331 -3.95638 0
M  V30 1626 H 170.123 -2.99236 -3.5042 0
M  V30 1627 H 168.438 -2.58178 -3.267 0
M  V30 1628 H 171.035 -0.68665 -5.30273 0
M  V30 1629 H 171.378 0.557109 -4.12555 0
M  V30 1630 H 171.911 -1.11376 -3.8189 0
M  V30 1631 H 168.65 -3.61843 -5.4658 0
M  V30 1632 H 168.17 -1.91961 -5.68253 0
M  V30 1633 H 169.849 -2.42251 -5.99936 0
M  V30 1634 N 169.982 1.44106 -0.638065 0
M  V30 1635 C 171.393 1.85316 -0.226894 0
M  V30 1636 C 171.744 1.53399 1.22324 0
M  V30 1637 O 170.869 0.975463 1.93167 0
M  V30 1638 C 171.464 3.3637 -0.405013 0
M  V30 1639 C 170.023 3.76369 -0.0482902 0
M  V30 1640 C 169.17 2.67921 -0.715108 0
M  V30 1641 H 172.121 1.34474 -0.842764 0
M  V30 1642 H 172.142 3.7885 0.354 0
M  V30 1643 H 171.654 3.59569 -1.46053 0
M  V30 1644 H 169.755 3.58784 1.00522 0
M  V30 1645 H 169.868 4.76856 -0.463187 0
M  V30 1646 H 168.232 2.54259 -0.149753 0
M  V30 1647 H 169.015 2.93951 -1.77335 0
M  V30 1648 N 171.46 0.379036 1.52974 0
M  V30 1649 C 172.685 -0.209353 2.06341 0
M  V30 1650 C 173.11 -1.40583 1.24972 0
M  V30 1651 O 172.468 -1.79246 0.272155 0
M  V30 1652 C 172.516 -0.567786 3.56102 0
M  V30 1653 O 171.62 -1.66318 3.77375 0
M  V30 1654 H 170.961 -0.0272919 0.663439 0
M  V30 1655 H 173.491 0.543536 1.97248 0
M  V30 1656 H 173.501 -0.835003 3.99364 0
M  V30 1657 H 172.176 0.307013 4.14765 0
M  V30 1658 H 170.753 -1.39048 3.46006 0
M  V30 1659 N 172.938 -1.57226 0.108567 0
M  V30 1660 C 173.886 -2.16002 -0.862885 0
M  V30 1661 C 174.88 -1.10644 -1.28274 0
M  V30 1662 O 176.086 -1.28966 -1.2557 0
M  V30 1663 H 172.461 -0.691148 -0.296342 0
M  V30 1664 H 174.432 -2.96427 -0.342575 0
M  V30 1665 C 173.181 -2.76576 -2.10716 0
M  V30 1666 H 172.504 -3.5734 -1.793 0
M  V30 1667 H 173.944 -3.21253 -2.76717 0
M  V30 1668 C 172.403 -1.73137 -2.89007 0
M  V30 1669 O 172.933 -1.17842 -3.84026 0
M  V30 1670 N 171.139 -1.43317 -2.52801 0
M  V30 1671 H 170.686 -1.88473 -1.75601 0
M  V30 1672 H 170.644 -0.743485 -3.05483 0
M  V30 1673 N 174.416 0.165178 -1.56732 0
M  V30 1674 C 175.644 0.896218 -1.86482 0
M  V30 1675 C 176.059 1.75555 -0.694675 0
M  V30 1676 O 175.416 1.79379 0.33607 0
M  V30 1677 C 175.467 1.76792 -3.1532 0
M  V30 1678 O 175.188 0.943239 -4.27825 0
M  V30 1679 C 176.689 2.6081 -3.58459 0
M  V30 1680 H 173.909 0.260064 -0.618553 0
M  V30 1681 H 176.453 0.163428 -2.03846 0
M  V30 1682 H 174.608 2.45398 -2.99764 0
M  V30 1683 H 175.022 1.53998 -5.01383 0
M  V30 1684 H 176.496 3.17579 -4.51495 0
M  V30 1685 H 176.973 3.35977 -2.82872 0
M  V30 1686 H 177.579 1.97526 -3.76648 0
M  V30 1687 N 175.894 1.51508 0.433938 0
M  V30 1688 C 177.171 1.54888 1.19453 0
M  V30 1689 C 177.551 0.315154 2.08734 0
M  V30 1690 O 176.899 -0.699558 2.17528 0
M  V30 1691 C 177.109 2.86467 1.99342 0
M  V30 1692 C 178.457 3.38545 2.56267 0
M  V30 1693 O 179.481 2.88041 2.0955 0
M  V30 1694 O 178.34 4.26675 3.41483 0
M  V30 1695 H 175.434 0.622863 0.544032 0
M  V30 1696 H 177.98 1.63823 0.442732 0
M  V30 1697 H 176.752 3.67718 1.33788 0
M  V30 1698 H 176.375 2.8071 2.8158 0
M  V30 1699 N 177.372 -0.689602 1.41712 0
M  V30 1700 C 178.602 -1.47613 1.44548 0
M  V30 1701 C 179.01 -1.89132 0.0509034 0
M  V30 1702 O 178.353 -1.57741 -0.94146 0
M  V30 1703 C 178.415 -2.76596 2.2964 0
M  V30 1704 C 178.079 -2.57245 3.77722 0
M  V30 1705 C 179.076 -2.22804 4.69739 0
M  V30 1706 C 176.761 -2.727 4.2183 0
M  V30 1707 C 178.755 -2.04064 6.03851 0
M  V30 1708 C 176.442 -2.53576 5.56006 0
M  V30 1709 C 177.44 -2.1931 6.46832 0
M  V30 1710 O 177.128 -2.00359 7.78532 0
M  V30 1711 H 176.86 -0.461227 0.494212 0
M  V30 1712 H 179.414 -0.856045 1.86711 0
M  V30 1713 H 177.644 -3.41033 1.82301 0
M  V30 1714 H 179.333 -3.38424 2.24107 0
M  V30 1715 H 180.099 -2.10473 4.36951 0
M  V30 1716 H 175.978 -2.98353 3.51435 0
M  V30 1717 H 179.522 -1.77241 6.74708 0
M  V30 1718 H 175.419 -2.65499 5.88371 0
M  V30 1719 H 176.187 -2.15075 7.89737 0
M  V30 1720 N 178.85 -1.27639 -0.924453 0
M  V30 1721 C 180.261 -1.12834 -1.48746 0
M  V30 1722 C 180.612 0.285505 -1.94112 0
M  V30 1723 O 179.737 1.17874 -1.81479 0
M  V30 1724 C 180.332 -2.04217 -2.70334 0
M  V30 1725 C 178.891 -1.93509 -3.22848 0
M  V30 1726 C 178.038 -1.96583 -1.95577 0
M  V30 1727 H 180.989 -1.40484 -0.738233 0
M  V30 1728 H 181.01 -1.59989 -3.4523 0
M  V30 1729 H 180.522 -3.07111 -2.37285 0
M  V30 1730 H 178.623 -0.936131 -3.60649 0
M  V30 1731 H 178.736 -2.79917 -3.88823 0
M  V30 1732 H 177.1 -1.4085 -2.12211 0
M  V30 1733 H 177.883 -3.01137 -1.64837 0
M  V30 1734 N 180.328 1.1314 -1.09713 0
M  V30 1735 C 181.576 1.84119 -0.833338 0
M  V30 1736 C 181.897 1.84097 0.642904 0
M  V30 1737 O 181.167 1.29881 1.46655 0
M  V30 1738 H 179.747 0.681766 -0.305293 0
M  V30 1739 H 182.409 1.37038 -1.38588 0
M  V30 1740 H 181.505 2.88543 -1.18951 0
M  V30 1741 N 181.806 0.884767 1.30421 0
M  V30 1742 C 183.217 0.553656 1.78302 0
M  V30 1743 C 183.568 -0.930153 1.7275 0
M  V30 1744 O 182.693 -1.72681 1.30423 0
M  V30 1745 C 183.288 0.998234 3.2376 0
M  V30 1746 C 181.847 0.71854 3.69478 0
M  V30 1747 C 180.994 1.18132 2.50879 0
M  V30 1748 H 183.945 1.06901 1.17294 0
M  V30 1749 H 183.966 0.327118 3.79091 0
M  V30 1750 H 183.478 2.0782 3.27769 0
M  V30 1751 H 181.579 -0.349444 3.70958 0
M  V30 1752 H 181.692 1.30595 4.60958 0
M  V30 1753 H 180.056 0.600669 2.47516 0
M  V30 1754 H 180.839 2.26902 2.57624 0
M  V30 1755 N 183.284 -1.43765 0.645699 0
M  V30 1756 C 184.234 -2.27884 -0.0726442 0
M  V30 1757 C 185.218 -1.39483 -0.802086 0
M  V30 1758 O 186.41 -1.63174 -0.685791 0
M  V30 1759 C 183.539 -3.27055 -1.04356 0
M  V30 1760 C 182.625 -4.22944 -0.312985 0
M  V30 1761 N 183.016 -5.01391 0.666386 0
M  V30 1762 C 181.314 -4.42528 -0.55546 0
M  V30 1763 C 182.015 -5.71217 1.09935 0
M  V30 1764 N 180.991 -5.41856 0.435137 0
M  V30 1765 H 184.793 -2.85949 0.678988 0
M  V30 1766 H 182.307 -1.55378 0.472368 0
M  V30 1767 H 184.304 -3.86089 -1.57292 0
M  V30 1768 H 182.964 -2.70551 -1.79534 0
M  V30 1769 H 183.975 -5.07252 1.04481 0
M  V30 1770 H 180.652 -3.97104 -1.28899 0
M  V30 1771 H 182.042 -6.44202 1.90929 0
M  V30 1772 N 184.763 -0.387143 -1.52771 0
M  V30 1773 C 185.713 0.465942 -2.23188 0
M  V30 1774 C 186.697 1.03138 -1.23496 0
M  V30 1775 O 187.889 0.957845 -1.48843 0
M  V30 1776 C 185.018 1.59384 -3.04059 0
M  V30 1777 C 184.104 1.04024 -4.11144 0
M  V30 1778 N 184.495 0.211416 -5.05358 0
M  V30 1779 C 182.793 1.31295 -4.26237 0
M  V30 1780 C 183.494 -0.0941698 -5.81624 0
M  V30 1781 N 182.47 0.509207 -5.4121 0
M  V30 1782 H 186.272 -0.173856 -2.93385 0
M  V30 1783 H 183.786 -0.19633 -1.61209 0
M  V30 1784 H 185.783 2.21738 -3.53041 0
M  V30 1785 H 184.443 2.23648 -2.35397 0
M  V30 1786 H 185.454 -0.151151 -5.17679 0
M  V30 1787 H 182.131 1.95679 -3.68803 0
M  V30 1788 H 183.521 -0.765572 -6.67524 0
M  V30 1789 N 186.241 1.57166 -0.116904 0
M  V30 1790 C 187.488 1.95123 0.541603 0
M  V30 1791 C 187.816 1.00006 1.6682 0
M  V30 1792 O 187.071 0.0235658 1.95686 0
M  V30 1793 C 187.37 3.39508 1.11664 0
M  V30 1794 C 187.036 4.50762 0.111606 0
M  V30 1795 C 185.698 4.80918 -0.164758 0
M  V30 1796 C 188.05 5.18036 -0.573438 0
M  V30 1797 C 185.378 5.75666 -1.13249 0
M  V30 1798 C 187.73 6.13824 -1.52978 0
M  V30 1799 C 186.394 6.42374 -1.81415 0
M  V30 1800 H 185.664 0.714005 0.198187 0
M  V30 1801 H 188.311 1.9048 -0.197365 0
M  V30 1802 H 186.616 3.40835 1.93232 0
M  V30 1803 H 188.313 3.66189 1.63422 0
M  V30 1804 H 184.903 4.27272 0.337192 0
M  V30 1805 H 189.087 4.94896 -0.373092 0
M  V30 1806 H 184.343 5.96092 -1.35958 0
M  V30 1807 H 188.517 6.65039 -2.06629 0
M  V30 1808 H 186.144 7.15599 -2.56557 0
M  V30 1809 N 187.719 -0.156864 1.56817 0
M  V30 1810 C 188.629 -1.2136 2.00771 0
M  V30 1811 C 189.645 -1.47598 0.921459 0
M  V30 1812 O 190.821 -1.59462 1.2302 0
M  V30 1813 C 187.886 -2.52943 2.37109 0
M  V30 1814 C 186.947 -2.34439 3.59634 0
M  V30 1815 C 186.18 -3.59748 3.94229 0
M  V30 1816 O 186.403 -4.65526 3.29609 0
M  V30 1817 O 185.337 -3.52998 4.8752 0
M  V30 1818 H 189.163 -0.870468 2.90958 0
M  V30 1819 H 186.748 -0.36484 1.44877 0
M  V30 1820 H 188.63 -3.30538 2.61386 0
M  V30 1821 H 187.305 -2.86806 1.5008 0
M  V30 1822 H 186.212 -1.54828 3.40557 0
M  V30 1823 H 187.545 -2.05496 4.4725 0
M  V30 1824 N 189.197 -1.51736 -0.425897 0
M  V30 1825 C 190.443 -1.65214 -1.1761 0
M  V30 1826 C 190.776 -0.372778 -1.90589 0
M  V30 1827 O 190.051 0.628139 -1.84078 0
M  V30 1828 C 190.334 -2.86312 -2.18398 0
M  V30 1829 C 190.187 -4.24254 -1.49426 0
M  V30 1830 C 191.506 -3.02925 -3.19256 0
M  V30 1831 H 188.625 -0.601263 -0.426206 0
M  V30 1832 H 191.267 -1.8425 -0.463882 0
M  V30 1833 H 189.417 -2.70213 -2.79137 0
M  V30 1834 H 191.089 -4.52046 -0.919362 0
M  V30 1835 H 189.332 -4.26426 -0.796432 0
M  V30 1836 H 190.003 -5.05001 -2.22885 0
M  V30 1837 H 192.479 -3.1781 -2.68581 0
M  V30 1838 H 191.355 -3.89199 -3.8706 0
M  V30 1839 H 191.616 -2.15497 -3.86023 0
M  V30 1840 N 190.675 0.682077 -1.42076 0
M  V30 1841 C 191.903 1.47057 -1.4554 0
M  V30 1842 C 192.318 1.8869 -0.0645779 0
M  V30 1843 O 191.675 1.57666 0.919115 0
M  V30 1844 C 191.726 2.72442 -2.37609 0
M  V30 1845 O 191.447 2.32559 -3.71279 0
M  V30 1846 C 192.948 3.66069 -2.50017 0
M  V30 1847 H 190.168 0.452737 -0.495248 0
M  V30 1848 H 192.712 0.838695 -1.8651 0
M  V30 1849 H 190.867 3.31835 -1.9991 0
M  V30 1850 H 191.281 3.13475 -4.20516 0
M  V30 1851 H 192.755 4.50792 -3.18576 0
M  V30 1852 H 193.232 4.11476 -1.53572 0
M  V30 1853 H 193.838 3.12572 -2.88407 0
M  V30 1854 N 192.153 1.28127 0.917671 0
M  V30 1855 C 193.4 1.15052 1.66641 0
M  V30 1856 C 193.728 -0.301677 1.92146 0
M  V30 1857 O 192.983 -1.23622 1.51711 0
M  V30 1858 C 193.282 1.89018 3.03327 0
M  V30 1859 C 192.948 3.38832 2.97496 0
M  V30 1860 C 191.61 3.79693 2.95613 0
M  V30 1861 C 193.962 4.34378 2.88036 0
M  V30 1862 C 191.29 5.14447 2.82066 0
M  V30 1863 C 193.642 5.69201 2.7603 0
M  V30 1864 C 192.306 6.09343 2.72502 0
M  V30 1865 H 191.576 0.421006 0.609783 0
M  V30 1866 H 194.223 1.58855 1.06945 0
M  V30 1867 H 192.528 1.37752 3.66785 0
M  V30 1868 H 194.225 1.76321 3.60156 0
M  V30 1869 H 190.815 3.06342 2.99754 0
M  V30 1870 H 194.999 4.03775 2.88581 0
M  V30 1871 H 190.255 5.44681 2.77728 0
M  V30 1872 H 194.429 6.42901 2.67678 0
M  V30 1873 H 192.056 7.13712 2.61762 0
M  V30 1874 N 193.631 -1.12557 1.10312 0
M  V30 1875 C 194.563 -2.17971 0.708625 0
M  V30 1876 C 195.576 -1.60806 -0.254027 0
M  V30 1877 O 196.765 -1.78458 -0.0386891 0
M  V30 1878 C 193.865 -3.38891 0.0248198 0
M  V30 1879 C 193.038 -4.25548 1.01132 0
M  V30 1880 C 192.097 -5.24972 0.35924 0
M  V30 1881 O 191.123 -5.60174 1.00965 0
M  V30 1882 N 192.325 -5.73747 -0.882847 0
M  V30 1883 H 195.09 -2.52427 1.61557 0
M  V30 1884 H 192.651 -1.27967 0.991771 0
M  V30 1885 H 194.643 -4.02485 -0.422852 0
M  V30 1886 H 193.213 -3.02596 -0.784514 0
M  V30 1887 H 192.433 -3.58589 1.6373 0
M  V30 1888 H 193.721 -4.80294 1.67914 0
M  V30 1889 H 193.119 -5.4731 -1.43065 0
M  V30 1890 H 191.676 -6.39234 -1.27369 0
M  V30 1891 N 195.109 -0.891671 -1.2995 0
M  V30 1892 C 196.041 -0.320695 -2.26945 0
M  V30 1893 C 197.054 0.528497 -1.53983 0
M  V30 1894 O 198.243 0.346959 -1.75096 0
M  V30 1895 C 195.343 0.562066 -3.34207 0
M  V30 1896 C 194.516 -0.259576 -4.36629 0
M  V30 1897 C 193.575 0.554739 -5.23268 0
M  V30 1898 O 192.601 -0.0249311 -5.69195 0
M  V30 1899 N 193.803 1.8625 -5.4981 0
M  V30 1900 H 196.568 -1.15432 -2.76578 0
M  V30 1901 H 194.129 -0.755336 -1.432 0
M  V30 1902 H 196.121 1.11304 -3.89093 0
M  V30 1903 H 194.691 1.29637 -2.84452 0
M  V30 1904 H 193.911 -0.991986 -3.81514 0
M  V30 1905 H 195.199 -0.822564 -5.02107 0
M  V30 1906 H 194.597 2.35628 -5.14292 0
M  V30 1907 H 193.154 2.36078 -6.07545 0
M  V30 1908 N 196.587 1.43421 -0.653314 0
M  V30 1909 C 197.812 2.06678 -0.172846 0
M  V30 1910 C 198.237 1.48648 1.15262 0
M  V30 1911 O 197.595 0.596457 1.71208 0
M  V30 1912 C 197.643 3.60474 -0.0953184 0
M  V30 1913 O 196.747 4.01487 0.942442 0
M  V30 1914 H 196.088 0.657181 -0.0949155 0
M  V30 1915 H 198.618 1.83925 -0.896265 0
M  V30 1916 H 198.628 4.07905 0.0879728 0
M  V30 1917 H 197.303 4.02088 -1.06291 0
M  V30 1918 H 195.88 3.65646 0.731932 0
M  V30 1919 N 198.065 0.39524 1.52563 0
M  V30 1920 C 199.29 -0.187456 2.06551 0
M  V30 1921 C 199.715 -1.39249 1.26457 0
M  V30 1922 O 199.073 -1.78947 0.291151 0
M  V30 1923 C 199.121 -0.529985 3.56684 0
M  V30 1924 O 198.225 -1.62307 3.79118 0
M  V30 1925 H 197.566 -0.0202537 0.663691 0
M  V30 1926 H 200.096 0.564426 1.96661 0
M  V30 1927 H 200.106 -0.792598 4.00227 0
M  V30 1928 H 198.781 0.350987 4.14416 0
M  V30 1929 H 197.358 -1.3537 3.47461 0
M  V30 1930 N 199.544 -1.57102 0.125237 0
M  V30 1931 C 200.772 -1.99761 -0.538797 0
M  V30 1932 C 201.187 -1.00503 -1.59827 0
M  V30 1933 O 200.544 0.00119474 -1.825 0
M  V30 1934 C 200.595 -3.42408 -1.15927 0
M  V30 1935 O 200.316 -4.37869 -0.142143 0
M  V30 1936 C 201.817 -4.00232 -1.90602 0
M  V30 1937 H 199.037 -0.655772 -0.14214 0
M  V30 1938 H 201.581 -2.03383 0.213413 0
M  V30 1939 H 199.736 -3.39706 -1.86223 0
M  V30 1940 H 200.15 -5.21128 -0.593775 0
M  V30 1941 H 201.624 -5.02105 -2.29335 0
M  V30 1942 H 202.101 -3.39721 -2.78363 0
M  V30 1943 H 202.707 -4.06499 -1.25055 0
M  V30 1944 N 201.022 0.148545 -1.56898 0
M  V30 1945 C 201.985 1.16736 -1.97244 0
M  V30 1946 C 202.985 1.35947 -0.858777 0
M  V30 1947 O 204.175 1.32966 -1.12542 0
M  V30 1948 C 201.307 2.52798 -2.28705 0
M  V30 1949 H 202.5 0.821279 -2.88435 0
M  V30 1950 H 200.053 0.391831 -1.51309 0
M  V30 1951 H 200.788 2.92381 -1.403 0
M  V30 1952 H 200.573 2.40216 -3.09901 0
M  V30 1953 H 202.063 3.26179 -2.60762 0
M  V30 1954 N 202.5 1.5196 0.417844 0
M  V30 1955 C 203.447 1.74678 1.50852 0
M  V30 1956 C 204.417 0.588947 1.55308 0
M  V30 1957 O 205.602 0.825544 1.72016 0
M  V30 1958 C 202.742 1.89544 2.88387 0
M  V30 1959 C 201.855 3.17166 2.93309 0
M  V30 1960 C 200.99 3.22513 4.22088 0
M  V30 1961 C 200.029 4.44372 4.20951 0
M  V30 1962 N 199.166 4.47161 5.41287 0
M  V30 1963 H 204.006 2.67768 1.30783 0
M  V30 1964 H 201.543 1.32689 0.63498 0
M  V30 1965 H 203.501 1.96146 3.68216 0
M  V30 1966 H 202.131 0.998424 3.06971 0
M  V30 1967 H 201.183 3.19778 2.06024 0
M  V30 1968 H 202.495 4.07021 2.88332 0
M  V30 1969 H 201.649 3.28139 5.10303 0
M  V30 1970 H 200.388 2.30581 4.29748 0
M  V30 1971 H 199.393 4.38902 3.31127 0
M  V30 1972 H 200.618 5.3759 4.14938 0
M  V30 1973 H 198.564 3.58108 5.49632 0
M  V30 1974 H 198.481 5.3085 5.3827 0
M  V30 1975 H 199.749 4.57005 6.3148 0
M  V30 1976 N 203.978 -0.674533 1.42435 0
M  V30 1977 C 205.203 -1.46784 1.46524 0
M  V30 1978 C 205.628 -1.87938 0.078066 0
M  V30 1979 O 204.986 -1.56014 -0.92354 0
M  V30 1980 C 205.034 -2.69307 2.39805 0
M  V30 1981 O 204.138 -3.67587 1.86959 0
M  V30 1982 H 203.479 -0.440959 0.496439 0
M  V30 1983 H 206.009 -0.827326 1.87127 0
M  V30 1984 H 206.019 -3.17374 2.56393 0
M  V30 1985 H 204.694 -2.38692 3.40586 0
M  V30 1986 H 203.271 -3.2662 1.79927 0
M  V30 1987 N 205.456 -1.28612 -0.910864 0
M  V30 1988 C 206.419 -1.12803 -1.9952 0
M  V30 1989 C 207.419 -0.0668264 -1.60661 0
M  V30 1990 O 208.609 -0.312847 -1.71368 0
M  V30 1991 C 205.741 -0.72254 -3.33155 0
M  V30 1992 H 206.934 -2.09109 -2.14973 0
M  V30 1993 H 204.487 -1.11639 -1.09391 0
M  V30 1994 H 205.222 0.241152 -3.23402 0
M  V30 1995 H 205.007 -1.48916 -3.62721 0
M  V30 1996 H 206.497 -0.634666 -4.12749 0
M  V30 1997 N 206.934 1.1197 -1.10907 0
M  V30 1998 C 208.162 1.87402 -0.876824 0
M  V30 1999 C 208.577 1.79894 0.573025 0
M  V30 2000 O 207.934 1.17629 1.39534 0
M  V30 2001 C 207.985 3.36428 -1.32282 0
M  V30 2002 O 207.706 3.43765 -2.71582 0
M  V30 2003 C 209.207 4.28783 -1.12518 0
M  V30 2004 H 206.427 0.592793 -0.314384 0
M  V30 2005 H 208.971 1.41649 -1.47499 0
M  V30 2006 H 207.126 3.79706 -0.768229 0
M  V30 2007 H 207.54 4.3652 -2.90776 0
M  V30 2008 H 209.014 5.31613 -1.48633 0
M  V30 2009 H 209.491 4.39153 -0.0642394 0
M  V30 2010 H 210.097 3.91291 -1.66648 0
M  V30 2011 N 208.412 0.89855 1.29475 0
M  V30 2012 C 209.658 0.534065 1.96263 0
M  V30 2013 C 210.013 -0.909415 1.69551 0
M  V30 2014 O 209.306 -1.63596 0.997349 0
M  V30 2015 C 209.5 0.761398 3.49195 0
M  V30 2016 C 209.329 2.22542 3.90775 0
M  V30 2017 C 208.099 2.87264 4.15701 0
M  V30 2018 C 210.297 3.20051 4.02581 0
M  V30 2019 N 208.279 4.24121 4.4384 0
M  V30 2020 C 209.65 4.42023 4.34759 0
M  V30 2021 C 211.705 3.15657 3.85052 0
M  V30 2022 C 210.408 5.60161 4.51235 0
M  V30 2023 C 212.434 4.33078 4.02737 0
M  V30 2024 C 211.796 5.5382 4.35273 0
M  V30 2025 H 207.895 0.245013 0.742625 0
M  V30 2026 H 210.479 1.15912 1.56437 0
M  V30 2027 H 208.65 0.165732 3.88046 0
M  V30 2028 H 210.382 0.362462 4.03074 0
M  V30 2029 H 207.137 2.38064 4.09417 0
M  V30 2030 H 207.561 4.94839 4.6202 0
M  V30 2031 H 212.203 2.23396 3.58962 0
M  V30 2032 H 209.921 6.52913 4.76162 0
M  V30 2033 H 213.507 4.31163 3.90628 0
M  V30 2034 H 212.387 6.43166 4.48672 0
M  V30 2035 N 209.89 -1.43072 0.660911 0
M  V30 2036 C 211.118 -2.06067 0.185422 0
M  V30 2037 C 211.533 -1.49582 -1.15198 0
M  V30 2038 O 210.89 -0.630134 -1.71276 0
M  V30 2039 C 210.941 -3.61371 0.0966523 0
M  V30 2040 O 210.662 -4.15758 1.38119 0
M  V30 2041 C 212.163 -4.41455 -0.403996 0
M  V30 2042 H 209.383 -0.664459 0.0934604 0
M  V30 2043 H 211.927 -1.83447 0.90373 0
M  V30 2044 H 210.082 -3.8315 -0.572259 0
M  V30 2045 H 210.496 -5.09499 1.24542 0
M  V30 2046 H 211.97 -5.50437 -0.415045 0
M  V30 2047 H 212.447 -4.15036 -1.43674 0
M  V30 2048 H 213.053 -4.24663 0.232691 0
M  V30 2049 N 211.368 -0.403325 -1.52352 0
M  V30 2050 C 212.598 0.17376 -2.05868 0
M  V30 2051 C 213.006 1.39898 -1.27378 0
M  V30 2052 O 212.349 1.80939 -0.31729 0
M  V30 2053 C 212.411 0.594756 -3.54546 0
M  V30 2054 C 212.075 -0.518926 -4.54044 0
M  V30 2055 C 213.072 -1.3807 -5.01231 0
M  V30 2056 C 210.757 -0.689961 -4.97539 0
M  V30 2057 C 212.751 -2.39852 -5.90551 0
M  V30 2058 C 210.438 -1.71109 -5.86656 0
M  V30 2059 C 211.436 -2.56378 -6.33056 0
M  V30 2060 O 211.124 -3.56743 -7.20409 0
M  V30 2061 H 210.856 0.0264951 -0.675481 0
M  V30 2062 H 213.41 -0.571179 -1.97299 0
M  V30 2063 H 211.64 1.39189 -3.60782 0
M  V30 2064 H 213.329 1.0991 -3.90736 0
M  V30 2065 H 214.095 -1.25994 -4.68349 0
M  V30 2066 H 209.974 -0.035939 -4.60986 0
M  V30 2067 H 213.518 -3.06441 -6.26689 0
M  V30 2068 H 209.415 -1.83218 -6.18952 0
M  V30 2069 H 210.183 -3.52918 -7.38506 0
M  V30 2070 N 212.846 1.57033 -0.133567 0
M  V30 2071 C 214.071 2.00475 0.531477 0
M  V30 2072 C 214.496 1.01291 1.58499 0
M  V30 2073 O 213.854 -0.0133279 1.81295 0
M  V30 2074 C 213.902 3.42729 1.12113 0
M  V30 2075 O 213.006 3.46498 2.23636 0
M  V30 2076 H 212.347 0.650876 0.131362 0
M  V30 2077 H 214.877 2.03344 -0.22634 0
M  V30 2078 H 214.887 3.81246 1.4531 0
M  V30 2079 H 213.562 4.14428 0.349557 0
M  V30 2080 H 212.139 3.19811 1.91769 0
M  V30 2081 N 214.325 -0.140222 1.56975 0
M  V30 2082 C 215.736 -0.699596 1.73097 0
M  V30 2083 C 216.087 -1.8134 0.749022 0
M  V30 2084 O 215.212 -2.16241 -0.0828503 0
M  V30 2085 C 215.807 -1.27582 3.1386 0
M  V30 2086 C 214.366 -1.78169 3.31561 0
M  V30 2087 C 213.513 -0.672855 2.69013 0
M  V30 2088 H 216.464 0.0855115 1.58469 0
M  V30 2089 H 216.485 -2.14561 3.14235 0
M  V30 2090 H 215.997 -0.464955 3.85305 0
M  V30 2091 H 214.098 -2.61801 2.65124 0
M  V30 2092 H 214.211 -1.90574 4.39566 0
M  V30 2093 H 212.575 -1.10118 2.29665 0
M  V30 2094 H 213.358 0.126679 3.43066 0
M  V30 2095 N 215.803 -1.52179 -0.40978 0
M  V30 2096 C 216.733 -1.78435 -1.5061 0
M  V30 2097 C 217.714 -0.635295 -1.57791 0
M  V30 2098 O 218.899 -0.880823 -1.73076 0
M  V30 2099 C 216.029 -1.93444 -2.88439 0
M  V30 2100 C 214.983 -3.09038 -2.96108 0
M  V30 2101 C 214.309 -3.09268 -4.36185 0
M  V30 2102 C 215.609 -4.48508 -2.67652 0
M  V30 2103 H 217.303 -2.70237 -1.28889 0
M  V30 2104 H 214.849 -1.30036 -0.618605 0
M  V30 2105 H 216.802 -2.10394 -3.65119 0
M  V30 2106 H 215.526 -0.983129 -3.11452 0
M  V30 2107 H 214.185 -2.91837 -2.21872 0
M  V30 2108 H 213.833 -2.11861 -4.56206 0
M  V30 2109 H 213.533 -3.86907 -4.42241 0
M  V30 2110 H 215.057 -3.28348 -5.14801 0
M  V30 2111 H 216.471 -4.65918 -3.34056 0
M  V30 2112 H 214.868 -5.28059 -2.85085 0
M  V30 2113 H 215.938 -4.56649 -1.63095 0
M  V30 2114 N 217.281 0.66697 -1.42791 0
M  V30 2115 C 218.211 1.79218 -1.49677 0
M  V30 2116 C 219.192 1.66405 -0.352623 0
M  V30 2117 O 220.377 1.85708 -0.567993 0
M  V30 2118 C 217.507 3.17565 -1.40605 0
M  V30 2119 C 216.461 3.45124 -2.53127 0
M  V30 2120 C 215.787 4.83127 -2.29112 0
M  V30 2121 C 217.087 3.41236 -3.95418 0
M  V30 2122 H 218.781 1.73713 -2.43853 0
M  V30 2123 H 216.327 0.83432 -1.17367 0
M  V30 2124 H 218.28 3.96022 -1.44029 0
M  V30 2125 H 217.004 3.23767 -0.429271 0
M  V30 2126 H 215.663 2.69031 -2.49034 0
M  V30 2127 H 215.311 4.85988 -1.29709 0
M  V30 2128 H 215.011 5.02528 -3.04531 0
M  V30 2129 H 216.535 5.63859 -2.34297 0
M  V30 2130 H 217.949 4.09651 -4.01073 0
M  V30 2131 H 216.346 3.72173 -4.70752 0
M  V30 2132 H 217.416 2.39665 -4.21532 0
M  V30 2133 N 218.759 1.29093 0.90403 0
M  V30 2134 C 219.706 1.13853 2.00764 0
M  V30 2135 C 220.676 0.0330084 1.66067 0
M  V30 2136 O 221.861 0.199733 1.89752 0
M  V30 2137 C 219.001 0.816537 3.35301 0
M  V30 2138 C 218.114 2.00206 3.82807 0
M  V30 2139 C 217.249 1.61983 5.059 0
M  V30 2140 C 216.288 2.77143 5.45764 0
M  V30 2141 N 215.425 2.39346 6.60044 0
M  V30 2142 H 220.265 2.08276 2.13132 0
M  V30 2143 H 217.802 1.03648 1.04381 0
M  V30 2144 H 219.76 0.610557 4.12708 0
M  V30 2145 H 218.39 -0.090779 3.22672 0
M  V30 2146 H 217.442 2.31988 3.01473 0
M  V30 2147 H 218.754 2.86512 4.08304 0
M  V30 2148 H 217.908 1.37649 5.90879 0
M  V30 2149 H 216.647 0.728202 4.82233 0
M  V30 2150 H 215.652 3.02165 4.59322 0
M  V30 2151 H 216.877 3.66964 5.71414 0
M  V30 2152 H 214.823 1.52665 6.37989 0
M  V30 2153 H 214.74 3.19185 6.85315 0
M  V30 2154 H 216.008 2.1832 7.48303 0
M  V30 2155 N 220.237 -1.11381 1.11499 0
M  V30 2156 C 221.184 -2.17439 0.773887 0
M  V30 2157 C 222.154 -1.64132 -0.254899 0
M  V30 2158 O 223.339 -1.90345 -0.13168 0
M  V30 2159 C 220.479 -3.44373 0.223917 0
M  V30 2160 C 219.592 -4.1168 1.30934 0
M  V30 2161 C 218.727 -5.263 0.71984 0
M  V30 2162 C 217.766 -5.85493 1.78507 0
M  V30 2163 N 216.903 -6.91507 1.21502 0
M  V30 2164 H 221.743 -2.45962 1.68246 0
M  V30 2165 H 219.28 -1.20744 0.840191 0
M  V30 2166 H 221.238 -4.17047 -0.112921 0
M  V30 2167 H 219.868 -3.16232 -0.647851 0
M  V30 2168 H 218.92 -3.37073 1.76312 0
M  V30 2169 H 220.232 -4.51729 2.11524 0
M  V30 2170 H 219.386 -6.05785 0.333094 0
M  V30 2171 H 218.125 -4.87559 -0.117377 0
M  V30 2172 H 217.13 -5.04686 2.18111 0
M  V30 2173 H 218.355 -6.26301 2.62533 0
M  V30 2174 H 216.301 -6.54783 0.399455 0
M  V30 2175 H 216.218 -7.30214 1.95763 0
M  V30 2176 H 217.486 -7.74795 0.855181 0
M  V30 2177 N 221.715 -0.905404 -1.28997 0
M  V30 2178 C 222.645 -0.404212 -2.29975 0
M  V30 2179 C 223.626 0.523784 -1.61835 0
M  V30 2180 O 224.811 0.433298 -1.89304 0
M  V30 2181 C 221.941 0.364042 -3.45387 0
M  V30 2182 C 220.895 -0.474048 -4.25367 0
M  V30 2183 C 220.221 0.422045 -5.33032 0
M  V30 2184 C 221.521 -1.72696 -4.92923 0
M  V30 2185 H 223.215 -1.24807 -2.72146 0
M  V30 2186 H 220.761 -0.601585 -1.30832 0
M  V30 2187 H 222.714 0.725447 -4.15109 0
M  V30 2188 H 221.438 1.24174 -3.02074 0
M  V30 2189 H 220.097 -0.81786 -3.57361 0
M  V30 2190 H 219.745 1.29804 -4.85963 0
M  V30 2191 H 219.445 -0.135057 -5.87445 0
M  V30 2192 H 220.969 0.779517 -6.05604 0
M  V30 2193 H 222.383 -1.43495 -5.55051 0
M  V30 2194 H 220.78 -2.22582 -5.57295 0
M  V30 2195 H 221.85 -2.45964 -4.17887 0
M  V30 2196 N 223.193 1.4272 -0.668489 0
M  V30 2197 C 224.423 2.05668 -0.196063 0
M  V30 2198 C 224.831 1.5028 1.14946 0
M  V30 2199 O 224.174 0.6348 1.72383 0
M  V30 2200 C 224.236 3.59469 -0.0468879 0
M  V30 2201 C 223.9 4.37518 -1.32012 0
M  V30 2202 C 224.897 4.68584 -2.25222 0
M  V30 2203 C 222.582 4.77266 -1.56596 0
M  V30 2204 C 224.576 5.38326 -3.41297 0
M  V30 2205 C 222.263 5.4675 -2.72962 0
M  V30 2206 C 223.261 5.77204 -3.65137 0
M  V30 2207 O 222.949 6.45264 -4.79468 0
M  V30 2208 H 222.681 0.669382 -0.0943599 0
M  V30 2209 H 225.235 1.83954 -0.913788 0
M  V30 2210 H 223.465 3.79817 0.726357 0
M  V30 2211 H 225.154 4.04071 0.384852 0
M  V30 2212 H 225.92 4.38382 -2.07477 0
M  V30 2213 H 221.799 4.52959 -0.857249 0
M  V30 2214 H 225.343 5.62014 -4.13263 0
M  V30 2215 H 221.24 5.76369 -2.90635 0
M  V30 2216 H 222.008 6.63753 -4.78931 0
M  V30 2217 N 224.671 0.411399 1.52136 0
M  V30 2218 C 225.911 -0.163143 2.03748 0
M  V30 2219 C 226.275 -1.42187 1.29022 0
M  V30 2220 O 227.476 -2.075 1.70872 0
M  V30 2221 C 225.747 -0.402651 3.55125 0
M  V30 2222 S 227.306 -0.944315 4.28519 0
M  V30 2223 H 224.124 -0.0439833 0.709638 0
M  V30 2224 H 226.726 0.56484 1.87163 0
M  V30 2225 H 225.43 0.520212 4.0709 0
M  V30 2226 H 224.961 -1.15844 3.75957 0
M  V30 2227 H 226.976 -2.22463 4.43536 0
M  V30 2228 N 226.149 -1.5696 0.141893 0
M  V30 2229 C 227.081 -2.13619 -0.830627 0
M  V30 2230 C 228.094 -1.08439 -1.21428 0
M  V30 2231 O 229.283 -1.35734 -1.15925 0
M  V30 2232 C 226.383 -2.63978 -2.12529 0
M  V30 2233 C 225.556 -3.93504 -1.9098 0
M  V30 2234 C 224.615 -4.29225 -3.04388 0
M  V30 2235 O 223.641 -4.97641 -2.76302 0
M  V30 2236 N 224.843 -3.88393 -4.31429 0
M  V30 2237 H 227.608 -2.97691 -0.34641 0
M  V30 2238 H 225.169 -1.61846 -0.0418375 0
M  V30 2239 H 227.161 -2.84891 -2.87436 0
M  V30 2240 H 225.731 -1.84659 -2.52229 0
M  V30 2241 H 224.951 -3.81269 -1.00139 0
M  V30 2242 H 226.239 -4.78154 -1.73914 0
M  V30 2243 H 225.637 -3.33257 -4.57117 0
M  V30 2244 H 224.194 -4.14368 -5.03133 0
M  V30 2245 N 227.627 0.131896 -1.57047 0
M  V30 2246 C 228.876 0.84044 -1.83356 0
M  V30 2247 C 229.189 1.81646 -0.725535 0
M  V30 2248 O 230.395 2.57025 -0.874659 0
M  V30 2249 C 228.851 1.54528 -3.25037 0
M  V30 2250 C 228.459 0.610902 -4.43815 0
M  V30 2251 C 230.203 2.23972 -3.60606 0
M  V30 2252 C 228.11 1.31823 -5.76521 0
M  V30 2253 H 227.04 0.317599 -0.683847 0
M  V30 2254 H 229.691 0.0931561 -1.83263 0
M  V30 2255 H 228.073 2.33873 -3.19561 0
M  V30 2256 H 229.247 -0.148407 -4.60561 0
M  V30 2257 H 227.562 0.0241016 -4.16393 0
M  V30 2258 H 230.159 2.77558 -4.57018 0
M  V30 2259 H 230.502 3.01173 -2.87403 0
M  V30 2260 H 231.035 1.51529 -3.6781 0
M  V30 2261 H 227.774 0.587771 -6.52859 0
M  V30 2262 H 227.294 2.04987 -5.63685 0
M  V30 2263 H 228.973 1.855 -6.19838 0
M  V30 2264 N 229.106 1.52395 0.401703 0
M  V30 2265 C 230.069 1.75636 1.47257 0
M  V30 2266 C 231.069 0.62628 1.48103 0
M  V30 2267 O 232.259 0.894227 1.49497 0
M  V30 2268 C 229.391 1.84553 2.86624 0
M  V30 2269 H 230.584 2.71241 1.27938 0
M  V30 2270 H 228.137 1.42923 0.632662 0
M  V30 2271 H 228.872 0.908882 3.11303 0
M  V30 2272 H 228.657 2.66715 2.87412 0
M  V30 2273 H 230.147 2.04251 3.64241 0
M  V30 2274 N 230.584 -0.659388 1.43143 0
M  V30 2275 C 231.531 -1.77249 1.47822 0
M  V30 2276 C 232.501 -1.62818 0.328558 0
M  V30 2277 O 233.686 -1.83151 0.534838 0
M  V30 2278 C 230.826 -3.15371 1.40126 0
M  V30 2279 C 229.939 -3.4098 2.65249 0
M  V30 2280 C 229.074 -4.68915 2.49584 0
M  V30 2281 C 228.113 -4.87608 3.70006 0
M  V30 2282 N 227.25 -6.06796 3.53189 0
M  V30 2283 H 232.09 -1.72584 2.42938 0
M  V30 2284 H 229.627 -0.842297 1.20598 0
M  V30 2285 H 231.585 -3.9521 1.33659 0
M  V30 2286 H 230.215 -3.19121 0.485964 0
M  V30 2287 H 229.267 -2.55282 2.8202 0
M  V30 2288 H 230.579 -3.50681 3.54717 0
M  V30 2289 H 229.733 -5.56871 2.4079 0
M  V30 2290 H 228.472 -4.61524 1.5763 0
M  V30 2291 H 227.477 -3.9809 3.79215 0
M  V30 2292 H 228.702 -4.96834 4.62961 0
M  V30 2293 H 226.648 -6.00549 2.63965 0
M  V30 2294 H 226.565 -6.17428 4.36255 0
M  V30 2295 H 227.833 -6.9739 3.48236 0
M  V30 2296 N 232.062 -1.29571 -0.897171 0
M  V30 2297 C 233.29 -1.20583 -1.68129 0
M  V30 2298 C 233.705 0.233181 -1.87354 0
M  V30 2299 O 233.062 1.15579 -1.41236 0
M  V30 2300 C 233.113 -1.91772 -3.06441 0
M  V30 2301 O 232.834 -3.30053 -2.88091 0
M  V30 2302 C 234.335 -1.89291 -4.00854 0
M  V30 2303 H 231.555 -0.417826 -0.525036 0
M  V30 2304 H 234.099 -1.70987 -1.12177 0
M  V30 2305 H 232.254 -1.45196 -3.59161 0
M  V30 2306 H 232.668 -3.65942 -3.75748 0
M  V30 2307 H 234.142 -2.43662 -4.95311 0
M  V30 2308 H 234.619 -0.869014 -4.30517 0
M  V30 2309 H 235.225 -2.35622 -3.54066 0
M  V30 2310 N 233.54 1.10788 -1.12088 0
M  V30 2311 C 234.78 1.84297 -0.883974 0
M  V30 2312 C 235.144 1.83036 0.579797 0
M  V30 2313 O 236.345 2.52061 0.933734 0
M  V30 2314 C 234.616 3.27173 -1.43849 0
M  V30 2315 S 236.175 4.17853 -1.33957 0
M  V30 2316 H 232.993 0.635433 -0.318977 0
M  V30 2317 H 235.595 1.33341 -1.4297 0
M  V30 2318 H 234.299 3.25658 -2.49749 0
M  V30 2319 H 233.83 3.83198 -0.890096 0
M  V30 2320 H 235.845 4.95239 -0.308603 0
M  V30 2321 N 235.018 0.912232 1.28515 0
M  V30 2322 C 236.429 0.591352 1.77087 0
M  V30 2323 C 236.78 -0.8933 1.74684 0
M  V30 2324 O 235.905 -1.69876 1.34056 0
M  V30 2325 C 236.5 1.06668 3.2157 0
M  V30 2326 C 235.059 0.79675 3.67871 0
M  V30 2327 C 234.206 1.23427 2.48316 0
M  V30 2328 H 237.157 1.09365 1.15 0
M  V30 2329 H 237.178 0.407455 3.78312 0
M  V30 2330 H 236.69 2.14726 3.23287 0
M  V30 2331 H 234.791 -0.270679 3.71616 0
M  V30 2332 H 234.904 1.40343 4.58084 0
M  V30 2333 H 233.268 0.653036 2.46186 0
M  V30 2334 H 234.051 2.32316 2.52753 0
M  V30 2335 N 236.496 -1.42363 0.676048 0
M  V30 2336 C 237.745 -2.00745 0.196037 0
M  V30 2337 C 238.058 -1.54083 -1.20489 0
M  V30 2338 O 239.264 -2.04891 -1.78134 0
M  V30 2339 C 237.72 -3.58651 0.299616 0
M  V30 2340 C 237.328 -4.143 1.70468 0
M  V30 2341 C 239.072 -4.24326 -0.121619 0
M  V30 2342 C 236.979 -5.64574 1.76096 0
M  V30 2343 H 235.909 -0.750787 0.0695301 0
M  V30 2344 H 238.56 -1.63072 0.841412 0
M  V30 2345 H 236.942 -3.93833 -0.413673 0
M  V30 2346 H 238.116 -3.90575 2.44515 0
M  V30 2347 H 236.431 -3.61081 2.07387 0
M  V30 2348 H 239.028 -5.34607 -0.0997362 0
M  V30 2349 H 239.371 -3.99897 -1.15708 0
M  V30 2350 H 239.904 -3.94108 0.540706 0
M  V30 2351 H 236.643 -5.93804 2.77628 0
M  V30 2352 H 236.163 -5.90286 1.06406 0
M  V30 2353 H 237.842 -6.29013 1.51496 0
M  V30 2354 N 237.974 -0.419461 -1.51915 0
M  V30 2355 C 238.906 0.43646 -2.25006 0
M  V30 2356 C 239.919 1.00149 -1.28351 0
M  V30 2357 O 241.108 0.898674 -1.54227 0
M  V30 2358 C 238.208 1.6206 -2.9764 0
M  V30 2359 C 237.381 1.17763 -4.21249 0
M  V30 2360 C 236.44 2.22985 -4.76617 0
M  V30 2361 O 235.466 1.83151 -5.38929 0
M  V30 2362 N 236.668 3.55271 -4.59089 0
M  V30 2363 H 239.433 -0.18989 -2.99098 0
M  V30 2364 H 236.994 -0.247386 -1.59999 0
M  V30 2365 H 238.986 2.32038 -3.31573 0
M  V30 2366 H 237.556 2.15266 -2.2667 0
M  V30 2367 H 236.776 0.305582 -3.93014 0
M  V30 2368 H 238.064 0.858781 -5.015 0
M  V30 2369 H 237.462 3.90377 -4.09417 0
M  V30 2370 H 236.019 4.21195 -4.97432 0
M  V30 2371 N 239.452 1.56882 -0.150215 0
M  V30 2372 C 240.701 1.95403 0.500071 0
M  V30 2373 C 241.014 1.03777 1.658 0
M  V30 2374 O 242.22 1.31889 2.37313 0
M  V30 2375 C 240.676 3.4738 0.941018 0
M  V30 2376 C 240.284 4.47596 -0.190158 0
M  V30 2377 C 242.028 3.9476 1.56091 0
M  V30 2378 C 239.935 5.90787 0.269237 0
M  V30 2379 H 238.865 0.729515 0.190588 0
M  V30 2380 H 241.516 1.81988 -0.235074 0
M  V30 2381 H 239.898 3.56138 1.73152 0
M  V30 2382 H 241.072 4.50536 -0.967157 0
M  V30 2383 H 239.387 4.10151 -0.718666 0
M  V30 2384 H 241.984 4.99181 1.9163 0
M  V30 2385 H 242.327 3.36494 2.45107 0
M  V30 2386 H 242.86 3.88932 0.835249 0
M  V30 2387 H 239.599 6.52879 -0.585621 0
M  V30 2388 H 239.119 5.912 1.01204 0
M  V30 2389 H 240.798 6.42979 0.720176 0
M  V30 2390 N 240.93 -0.123565 1.57115 0
M  V30 2391 C 241.877 -1.15177 2.00007 0
M  V30 2392 C 242.847 -1.41403 0.871454 0
M  V30 2393 O 244.032 -1.53346 1.13533 0
M  V30 2394 C 241.172 -2.47436 2.40561 0
M  V30 2395 C 240.285 -2.28184 3.66819 0
M  V30 2396 C 239.42 -3.53641 3.96373 0
M  V30 2397 C 238.459 -3.29528 5.15827 0
M  V30 2398 N 237.596 -4.47175 5.41275 0
M  V30 2399 H 242.436 -0.779008 2.87638 0
M  V30 2400 H 239.973 -0.373166 1.42288 0
M  V30 2401 H 241.931 -3.24584 2.62109 0
M  V30 2402 H 240.561 -2.82614 1.55978 0
M  V30 2403 H 239.613 -1.41976 3.52912 0
M  V30 2404 H 240.925 -2.0634 4.5412 0
M  V30 2405 H 240.079 -4.39209 4.18545 0
M  V30 2406 H 238.818 -3.78512 3.07538 0
M  V30 2407 H 237.823 -2.42349 4.93505 0
M  V30 2408 H 239.048 -3.06031 6.06236 0
M  V30 2409 H 236.994 -4.72175 4.55397 0
M  V30 2410 H 236.911 -4.28419 6.22891 0
M  V30 2411 H 238.179 -5.3389 5.67963 0
M  V30 2412 N 242.408 -1.52605 -0.393616 0
M  V30 2413 C 243.654 -1.67672 -1.14079 0
M  V30 2414 C 243.987 -0.413121 -1.89755 0
M  V30 2415 O 243.262 0.588952 -1.85369 0
M  V30 2416 C 243.545 -2.9088 -2.12276 0
M  V30 2417 C 243.398 -4.27329 -1.40394 0
M  V30 2418 C 244.717 -3.09628 -3.12759 0
M  V30 2419 H 241.836 -0.610168 -0.413356 0
M  V30 2420 H 244.478 -1.85193 -0.424696 0
M  V30 2421 H 242.628 -2.76073 -2.73342 0
M  V30 2422 H 244.3 -4.53894 -0.82327 0
M  V30 2423 H 242.543 -4.2802 -0.705801 0
M  V30 2424 H 243.214 -5.09615 -2.12123 0
M  V30 2425 H 245.69 -3.23436 -2.61779 0
M  V30 2426 H 244.566 -3.97322 -3.78717 0
M  V30 2427 H 244.827 -2.23637 -3.81365 0
M  V30 2428 N 243.887 0.651787 -1.4349 0
M  V30 2429 C 245.112 1.44434 -1.48841 0
M  V30 2430 C 245.537 1.8779 -0.107955 0
M  V30 2431 O 244.895 1.57464 0.898602 0
M  V30 2432 C 244.943 2.65458 -2.44059 0
M  V30 2433 O 244.047 3.64566 -1.92784 0
M  V30 2434 H 243.388 0.433005 -0.503391 0
M  V30 2435 H 245.918 0.797451 -1.88419 0
M  V30 2436 H 245.928 3.13255 -2.6141 0
M  V30 2437 H 244.603 2.33244 -3.4434 0
M  V30 2438 H 243.18 3.23716 -1.851 0
M  V30 2439 N 245.365 1.30045 0.890287 0
M  V30 2440 C 246.593 1.21472 1.67487 0
M  V30 2441 C 247.008 -0.223241 1.87476 0
M  V30 2442 O 246.365 -1.14828 1.41847 0
M  V30 2443 C 246.416 1.93394 3.05419 0
M  V30 2444 O 246.137 3.31576 2.86337 0
M  V30 2445 C 247.638 1.91414 3.99844 0
M  V30 2446 H 244.858 0.420604 0.522813 0
M  V30 2447 H 247.402 1.7158 1.11268 0
M  V30 2448 H 245.557 1.47099 3.58386 0
M  V30 2449 H 245.971 3.67929 3.73802 0
M  V30 2450 H 247.445 2.46285 4.94012 0
M  V30 2451 H 247.922 0.891833 4.3005 0
M  V30 2452 H 248.528 2.37496 3.52811 0
M  V30 2453 N 246.843 -1.10192 1.12674 0
M  V30 2454 C 248.254 -1.63707 0.897604 0
M  V30 2455 C 248.605 -1.87812 -0.567546 0
M  V30 2456 O 247.73 -1.62196 -1.43253 0
M  V30 2457 C 248.325 -2.974 1.62292 0
M  V30 2458 C 246.884 -3.47772 1.43986 0
M  V30 2459 C 246.031 -2.22332 1.65722 0
M  V30 2460 H 248.982 -0.936587 1.28116 0
M  V30 2461 H 249.003 -3.64986 1.07541 0
M  V30 2462 H 248.515 -2.79824 2.68924 0
M  V30 2463 H 246.616 -3.70487 0.396206 0
M  V30 2464 H 246.729 -4.25723 2.19765 0
M  V30 2465 H 245.093 -2.30599 1.08149 0
M  V30 2466 H 245.876 -2.07285 2.73657 0
M  V30 2467 N 248.321 -0.919034 -1.28029 0
M  V30 2468 C 249.732 -0.600735 -1.76771 0
M  V30 2469 C 250.083 0.884024 -1.75156 0
M  V30 2470 O 249.208 1.69163 -1.34956 0
M  V30 2471 C 249.803 -1.08372 -3.21 0
M  V30 2472 C 248.362 -0.816248 -3.67443 0
M  V30 2473 C 247.509 -1.24742 -2.47658 0
M  V30 2474 H 250.46 -1.09974 -1.14418 0
M  V30 2475 H 250.481 -0.427512 -3.78091 0
M  V30 2476 H 249.993 -2.16437 -3.22144 0
M  V30 2477 H 248.094 0.250968 -3.71754 0
M  V30 2478 H 248.207 -1.4277 -4.57333 0
M  V30 2479 H 246.571 -0.666083 -2.45836 0
M  V30 2480 H 247.354 -2.33653 -2.51518 0
M  V30 2481 N 249.799 1.42003 -0.683588 0
M  V30 2482 C 251.21 1.84501 -0.285736 0
M  V30 2483 C 251.561 1.57213 1.17382 0
M  V30 2484 O 250.686 1.03642 1.89966 0
M  V30 2485 C 251.281 3.34912 -0.511821 0
M  V30 2486 C 249.84 3.76025 -0.168005 0
M  V30 2487 C 248.987 2.6551 -0.799983 0
M  V30 2488 H 251.938 1.31724 -0.885119 0
M  V30 2489 H 251.959 3.79784 0.233292 0
M  V30 2490 H 251.471 3.54741 -1.57418 0
M  V30 2491 H 249.572 3.61801 0.890567 0
M  V30 2492 H 249.685 4.75141 -0.614661 0
M  V30 2493 H 248.049 2.53654 -0.230568 0
M  V30 2494 H 248.832 2.8816 -1.86597 0
M  V30 2495 N 251.277 0.427512 1.51691 0
M  V30 2496 C 252.688 -0.0378867 1.86662 0
M  V30 2497 C 253.039 -1.42819 1.34525 0
M  V30 2498 O 252.164 -2.05037 0.692014 0
M  V30 2499 C 252.759 -0.0755266 3.38716 0
M  V30 2500 C 251.318 -0.485309 3.73258 0
M  V30 2501 C 250.465 0.328399 2.75349 0
M  V30 2502 H 253.416 0.64379 1.45055 0
M  V30 2503 H 253.437 -0.887056 3.70016 0
M  V30 2504 H 252.949 0.936487 3.76632 0
M  V30 2505 H 251.05 -1.50329 3.40928 0
M  V30 2506 H 251.163 -0.21693 4.78609 0
M  V30 2507 H 249.527 -0.211905 2.53817 0
M  V30 2508 H 250.31 1.3391 3.16106 0
M  V30 2509 N 252.755 -1.56801 0.158532 0
M  V30 2510 C 254.003 -1.96102 -0.488712 0
M  V30 2511 C 254.324 -1.04498 -1.64636 0
M  V30 2512 O 253.594 -0.108783 -1.95598 0
M  V30 2513 H 252.174 -0.724102 -0.183535 0
M  V30 2514 H 254.836 -1.93457 0.236728 0
M  V30 2515 H 253.932 -3.00097 -0.857219 0
M  V30 2516 N 254.233 0.115231 -1.57178 0
M  V30 2517 C 255.461 0.836437 -1.89239 0
M  V30 2518 C 255.876 1.73256 -0.750175 0
M  V30 2519 O 255.233 1.80357 0.278832 0
M  V30 2520 C 255.284 1.66671 -3.20785 0
M  V30 2521 O 255.005 0.806652 -4.3061 0
M  V30 2522 C 256.506 2.49274 -3.66575 0
M  V30 2523 H 253.726 0.240253 -0.626514 0
M  V30 2524 H 256.27 0.0984932 -2.04263 0
M  V30 2525 H 254.425 2.35737 -3.0742 0
M  V30 2526 H 254.839 1.37969 -5.06028 0
M  V30 2527 H 256.313 3.03055 -4.6137 0
M  V30 2528 H 256.79 3.26807 -2.93417 0
M  V30 2529 H 257.396 1.85443 -3.82741 0
M  V30 2530 N 255.711 1.52812 0.385517 0
M  V30 2531 C 256.674 1.77188 1.45386 0
M  V30 2532 C 257.674 0.641953 1.4743 0
M  V30 2533 O 258.864 0.910033 1.4854 0
M  V30 2534 C 255.996 1.87582 2.8465 0
M  V30 2535 H 257.189 2.72583 1.25054 0
M  V30 2536 H 254.742 1.43586 0.617467 0
M  V30 2537 H 255.477 0.941849 3.10322 0
M  V30 2538 H 255.262 2.69748 2.84567 0
M  V30 2539 H 256.752 2.08102 3.62054 0
M  V30 2540 N 257.189 -0.644168 1.43834 0
M  V30 2541 C 258.438 -1.39985 1.45214 0
M  V30 2542 C 258.751 -1.95421 0.0835494 0
M  V30 2543 O 259.957 -2.71488 -0.0251748 0
M  V30 2544 C 258.413 -2.53384 2.55587 0
M  V30 2545 C 258.021 -2.04517 3.98594 0
M  V30 2546 C 259.765 -3.30685 2.66172 0
M  V30 2547 C 257.672 -3.1518 5.00416 0
M  V30 2548 H 256.602 -0.526005 0.540218 0
M  V30 2549 H 259.253 -0.694367 1.69855 0
M  V30 2550 H 257.635 -3.26446 2.24163 0
M  V30 2551 H 258.809 -1.38405 4.39523 0
M  V30 2552 H 257.124 -1.40068 3.92135 0
M  V30 2553 H 259.721 -4.13158 3.39418 0
M  V30 2554 H 260.064 -3.79312 1.71546 0
M  V30 2555 H 260.597 -2.64708 2.96942 0
M  V30 2556 H 257.336 -2.71511 5.96625 0
M  V30 2557 H 256.856 -3.79974 4.64091 0
M  V30 2558 H 258.535 -3.80166 5.23529 0
M  V30 2559 N 258.668 -1.30515 -0.883378 0
M  V30 2560 C 260.084 -1.08881 -1.16692 0
M  V30 2561 C 260.284 0.149409 -2.00945 0
M  V30 2562 O 259.34 0.84257 -2.38027 0
M  V30 2563 C 260.653 -2.35319 -1.87204 0
M  V30 2564 C 262.201 -2.40799 -1.99962 0
M  V30 2565 C 262.676 -3.67083 -2.73887 0
M  V30 2566 N 264.167 -3.679 -2.81432 0
M  V30 2567 C 264.902 -4.62303 -3.3921 0
M  V30 2568 N 264.398 -5.67052 -3.98025 0
M  V30 2569 N 266.191 -4.49845 -3.3704 0
M  V30 2570 H 258.342 -2.09951 -0.321633 0
M  V30 2571 H 260.605 -0.92556 -0.205043 0
M  V30 2572 H 260.311 -3.25689 -1.3274 0
M  V30 2573 H 260.185 -2.44089 -2.87577 0
M  V30 2574 H 262.572 -1.50907 -2.53597 0
M  V30 2575 H 262.653 -2.36003 -0.98673 0
M  V30 2576 H 262.297 -4.57334 -2.20925 0
M  V30 2577 H 262.227 -3.69141 -3.75556 0
M  V30 2578 H 264.718 -2.92171 -2.39676 0
M  V30 2579 H 265.031 -6.35184 -4.40183 0
M  V30 2580 H 263.376 -5.70842 -3.96439 0
M  V30 2581 H 266.567 -3.67194 -2.90321 0
M  V30 2582 H 266.74 -5.23597 -3.81772 0
M  V30 2583 N 260.146 1.09593 -1.13257 0
M  V30 2584 C 261.109 2.14359 -0.811358 0
M  V30 2585 C 262.109 1.59808 0.178377 0
M  V30 2586 O 263.299 1.74132 -0.0484911 0
M  V30 2587 C 260.431 3.40269 -0.207276 0
M  V30 2588 H 261.624 2.44284 -1.73969 0
M  V30 2589 H 259.177 1.25102 -0.936973 0
M  V30 2590 H 259.912 3.15969 0.73036 0
M  V30 2591 H 259.697 3.81154 -0.919992 0
M  V30 2592 H 261.187 4.176 0.000667944 0
M  V30 2593 N 261.624 0.925811 1.2754 0
M  V30 2594 C 262.557 0.367836 2.25216 0
M  V30 2595 C 263.535 -0.534738 1.53556 0
M  V30 2596 O 264.719 -0.475672 1.824 0
M  V30 2597 C 261.846 -0.47298 3.35381 0
M  V30 2598 C 260.892 0.365898 4.24928 0
M  V30 2599 S 261.725 1.78025 5.05042 0
M  V30 2600 C 262.881 0.947068 6.18693 0
M  V30 2601 H 263.114 1.19568 2.72196 0
M  V30 2602 H 260.647 0.727867 1.36167 0
M  V30 2603 H 262.605 -0.952242 3.99303 0
M  V30 2604 H 261.266 -1.27533 2.87044 0
M  V30 2605 H 260.459 -0.277582 5.03235 0
M  V30 2606 H 260.061 0.779261 3.65792 0
M  V30 2607 H 262.353 0.182201 6.77255 0
M  V30 2608 H 263.296 1.70309 6.87314 0
M  V30 2609 H 263.704 0.489913 5.6237 0
M  V30 2610 N 263.102 -1.41638 0.69111 0
M  V30 2611 C 264.513 -1.84346 0.295517 0
M  V30 2612 C 264.864 -1.57833 -1.16547 0
M  V30 2613 O 263.989 -1.04648 -1.89414 0
M  V30 2614 C 264.584 -3.34636 0.529575 0
M  V30 2615 C 263.143 -3.7593 0.187944 0
M  V30 2616 C 262.29 -2.65082 0.814052 0
M  V30 2617 H 265.241 -1.31253 0.892092 0
M  V30 2618 H 265.262 -3.79903 -0.213148 0
M  V30 2619 H 264.774 -3.53901 1.59297 0
M  V30 2620 H 262.875 -3.62268 -0.871367 0
M  V30 2621 H 262.988 -4.74808 0.63985 0
M  V30 2622 H 261.352 -2.53528 0.244017 0
M  V30 2623 H 262.135 -2.87167 1.88123 0
M  V30 2624 N 264.58 -0.43555 -1.51462 0
M  V30 2625 C 265.826 0.131709 -2.02372 0
M  V30 2626 C 266.159 1.42516 -1.3192 0
M  V30 2627 O 265.434 1.89606 -0.433573 0
M  V30 2628 C 265.717 0.352301 -3.58373 0
M  V30 2629 C 265.57 -0.959676 -4.39443 0
M  V30 2630 C 266.889 1.12286 -4.25535 0
M  V30 2631 H 264.008 0.0463936 -0.735538 0
M  V30 2632 H 266.65 -0.574197 -1.81116 0
M  V30 2633 H 264.8 0.9536 -3.76615 0
M  V30 2634 H 266.472 -1.59482 -4.32855 0
M  V30 2635 H 264.715 -1.56468 -4.04599 0
M  V30 2636 H 265.386 -0.759394 -5.46752 0
M  V30 2637 H 267.862 0.613545 -4.11552 0
M  V30 2638 H 266.738 1.24598 -5.34571 0
M  V30 2639 H 266.999 2.15048 -3.86273 0
M  V30 2640 N 266.058 1.56714 -0.166846 0
M  V30 2641 C 267.288 2.00828 0.48494 0
M  V30 2642 C 267.696 1.04612 1.57648 0
M  V30 2643 O 267.039 0.0383201 1.8366 0
M  V30 2644 C 267.101 3.4137 1.12723 0
M  V30 2645 C 266.765 4.56654 0.177886 0
M  V30 2646 C 267.762 5.16402 -0.60207 0
M  V30 2647 C 265.447 5.02244 0.0750139 0
M  V30 2648 C 267.441 6.20167 -1.47215 0
M  V30 2649 C 265.128 6.05859 -0.798649 0
M  V30 2650 C 266.126 6.64691 -1.57082 0
M  V30 2651 O 265.814 7.66297 -2.42989 0
M  V30 2652 H 265.546 0.663587 0.128953 0
M  V30 2653 H 268.1 2.03692 -0.264365 0
M  V30 2654 H 266.33 3.35406 1.92457 0
M  V30 2655 H 268.019 3.69466 1.68076 0
M  V30 2656 H 268.785 4.82065 -0.53274 0
M  V30 2657 H 264.664 4.56167 0.665812 0
M  V30 2658 H 268.208 6.66016 -2.07531 0
M  V30 2659 H 264.105 6.39621 -0.869199 0
M  V30 2660 H 264.873 7.83601 -2.36455 0
M  V30 2661 N 267.536 -0.106894 1.57237 0
M  V30 2662 C 268.483 -1.13049 2.01217 0
M  V30 2663 C 269.453 -1.40471 0.886403 0
M  V30 2664 O 270.638 -1.52133 1.15153 0
M  V30 2665 C 267.778 -2.4487 2.43172 0
M  V30 2666 C 266.891 -2.24281 3.69218 0
M  V30 2667 C 266.026 -3.49417 4.00101 0
M  V30 2668 C 265.065 -3.24038 5.19294 0
M  V30 2669 N 264.202 -4.41409 5.45988 0
M  V30 2670 H 269.042 -0.748456 2.88448 0
M  V30 2671 H 266.579 -0.358054 1.42676 0
M  V30 2672 H 268.537 -3.21786 2.65537 0
M  V30 2673 H 267.167 -2.80944 1.58967 0
M  V30 2674 H 266.219 -1.38224 3.54398 0
M  V30 2675 H 267.531 -2.01512 4.56283 0
M  V30 2676 H 266.685 -4.34746 4.2318 0
M  V30 2677 H 265.424 -3.75229 3.11535 0
M  V30 2678 H 264.429 -2.37102 4.96047 0
M  V30 2679 H 265.654 -2.99584 6.09447 0
M  V30 2680 H 263.6 -4.67319 4.60379 0
M  V30 2681 H 263.517 -4.21788 6.274 0
M  V30 2682 H 264.785 -5.27836 5.73593 0
M  V30 2683 N 269.014 -1.53014 -0.377408 0
M  V30 2684 C 269.961 -1.78616 -1.46168 0
M  V30 2685 C 270.931 -0.629917 -1.53692 0
M  V30 2686 O 272.116 -0.870861 -1.69766 0
M  V30 2687 C 269.256 -1.97123 -2.8326 0
M  V30 2688 C 268.369 -3.24831 -2.84796 0
M  V30 2689 C 267.504 -3.33591 -4.13389 0
M  V30 2690 C 266.543 -4.55377 -4.09021 0
M  V30 2691 N 265.68 -4.61355 -5.29241 0
M  V30 2692 H 270.52 -2.71142 -1.23637 0
M  V30 2693 H 268.057 -1.34326 -0.599577 0
M  V30 2694 H 270.015 -2.05839 -3.62886 0
M  V30 2695 H 268.645 -1.07946 -3.04216 0
M  V30 2696 H 267.697 -3.25128 -1.97474 0
M  V30 2697 H 269.009 -4.14523 -2.77439 0
M  V30 2698 H 268.163 -3.41554 -5.01424 0
M  V30 2699 H 266.902 -2.41894 -4.23484 0
M  V30 2700 H 265.907 -4.47527 -3.19373 0
M  V30 2701 H 267.132 -5.48402 -4.00539 0
M  V30 2702 H 265.078 -3.72554 -5.39944 0
M  V30 2703 H 264.995 -5.44935 -5.24006 0
M  V30 2704 H 266.263 -4.73586 -6.19141 0
M  V30 2705 N 270.492 0.636531 -1.44174 0
M  V30 2706 C 271.455 1.73063 -1.50273 0
M  V30 2707 C 272.455 1.56113 -0.385397 0
M  V30 2708 O 273.645 1.61707 -0.64781 0
M  V30 2709 C 270.777 3.12096 -1.37145 0
M  V30 2710 H 271.97 1.69031 -2.47727 0
M  V30 2711 H 269.523 0.849706 -1.31186 0
M  V30 2712 H 270.258 3.21728 -0.407636 0
M  V30 2713 H 270.043 3.25805 -2.18159 0
M  V30 2714 H 271.533 3.91846 -1.44382 0
M  V30 2715 N 271.97 1.30982 0.876444 0
M  V30 2716 C 272.88 1.2003 2.01569 0
M  V30 2717 C 273.896 0.11838 1.73597 0
M  V30 2718 O 275.072 0.33495 1.98595 0
M  V30 2719 C 272.137 0.901637 3.34771 0
M  V30 2720 C 271.198 2.06979 3.76109 0
M  V30 2721 C 270.431 1.78529 5.02954 0
M  V30 2722 O 270.654 0.717296 5.65872 0
M  V30 2723 O 269.588 2.64019 5.40905 0
M  V30 2724 H 273.414 2.15753 2.13739 0
M  V30 2725 H 270.999 1.10658 1.00375 0
M  V30 2726 H 272.881 0.750645 4.1466 0
M  V30 2727 H 271.556 -0.0256141 3.2369 0
M  V30 2728 H 270.463 2.27616 2.96887 0
M  V30 2729 H 271.796 2.97907 3.91807 0
M  V30 2730 N 273.449 -1.08991 1.13837 0
M  V30 2731 C 274.399 -2.1393 0.788535 0
M  V30 2732 C 275.383 -1.59396 -0.219516 0
M  V30 2733 O 276.575 -1.76985 -0.0227557 0
M  V30 2734 C 273.704 -3.42305 0.261147 0
M  V30 2735 C 272.79 -4.03736 1.29837 0
M  V30 2736 N 273.181 -4.39659 2.50067 0
M  V30 2737 C 271.479 -4.30993 1.1472 0
M  V30 2738 C 272.18 -4.88113 3.16419 0
M  V30 2739 N 271.156 -4.85846 2.43832 0
M  V30 2740 H 274.958 -2.39516 1.70322 0
M  V30 2741 H 272.472 -1.26263 1.02134 0
M  V30 2742 H 274.469 -4.16899 -0.0077405 0
M  V30 2743 H 273.129 -3.18172 -0.647805 0
M  V30 2744 H 274.14 -4.30878 2.8734 0
M  V30 2745 H 270.817 -4.16444 0.296773 0
M  V30 2746 H 272.207 -5.25336 4.18894 0
M  V30 2747 N 274.927 -0.932562 -1.27047 0
M  V30 2748 C 276.173 -0.576412 -1.94436 0
M  V30 2749 C 276.506 0.880891 -1.73072 0
M  V30 2750 O 275.781 1.62905 -1.06264 0
M  V30 2751 C 276.064 -0.909031 -3.48437 0
M  V30 2752 C 275.917 -2.42044 -3.79123 0
M  V30 2753 C 277.236 -0.418341 -4.38107 0
M  V30 2754 H 274.355 -0.210888 -0.706184 0
M  V30 2755 H 276.997 -1.16522 -1.50075 0
M  V30 2756 H 275.147 -0.407947 -3.86352 0
M  V30 2757 H 276.819 -2.99359 -3.50973 0
M  V30 2758 H 275.062 -2.86758 -3.25503 0
M  V30 2759 H 275.733 -2.6037 -4.86736 0
M  V30 2760 H 278.209 -0.847856 -4.0737 0
M  V30 2761 H 277.085 -0.679981 -5.44672 0
M  V30 2762 H 277.346 0.681642 -4.36814 0
M  V30 2763 N 276.405 1.4127 -0.698611 0
M  V30 2764 C 277.633 2.05503 -0.239992 0
M  V30 2765 C 278.048 1.52584 1.11191 0
M  V30 2766 O 277.405 0.675323 1.69545 0
M  V30 2767 C 277.456 3.60987 -0.192429 0
M  V30 2768 O 277.177 4.1195 -1.49094 0
M  V30 2769 C 278.678 4.42371 0.28681 0
M  V30 2770 H 275.898 0.661748 -0.111045 0
M  V30 2771 H 278.442 1.80987 -0.95205 0
M  V30 2772 H 276.597 3.84533 0.470472 0
M  V30 2773 H 277.011 5.06018 -1.38007 0
M  V30 2774 H 278.485 5.51344 0.26896 0
M  V30 2775 H 278.962 4.18699 1.32619 0
M  V30 2776 H 279.568 4.23897 -0.345201 0
M  V30 2777 N 277.883 0.443576 1.51229 0
M  V30 2778 C 279.16 -0.181038 1.9476 0
M  V30 2779 C 279.54 -1.59523 1.38259 0
M  V30 2780 O 278.888 -2.2122 0.572198 0
M  V30 2781 C 279.098 -0.152422 3.48667 0
M  V30 2782 C 280.446 -0.354923 4.23114 0
M  V30 2783 O 281.47 -0.230257 3.55455 0
M  V30 2784 O 280.329 -0.603674 5.43156 0
M  V30 2785 H 277.423 -0.1266 0.817252 0
M  V30 2786 H 279.969 0.502004 1.62105 0
M  V30 2787 H 278.741 0.836022 3.82265 0
M  V30 2788 H 278.364 -0.878107 3.87782 0
M  V30 2789 N 279.361 -1.56624 0.175154 0
M  V30 2790 C 280.607 -1.9729 -0.469506 0
M  V30 2791 C 280.94 -1.06128 -1.62636 0
M  V30 2792 O 280.215 -0.109183 -1.94193 0
M  V30 2793 C 280.498 -3.47375 -0.948804 0
M  V30 2794 C 280.351 -4.49317 0.208491 0
M  V30 2795 C 281.67 -4.00652 -1.82116 0
M  V30 2796 H 278.789 -0.717317 -0.16919 0
M  V30 2797 H 281.431 -1.88184 0.262062 0
M  V30 2798 H 279.581 -3.55267 -1.57219 0
M  V30 2799 H 281.253 -4.53482 0.845682 0
M  V30 2800 H 279.496 -4.25121 0.863395 0
M  V30 2801 H 280.167 -5.51741 -0.169059 0
M  V30 2802 H 282.643 -3.95416 -1.2956 0
M  V30 2803 H 281.519 -5.06075 -2.12554 0
M  V30 2804 H 281.78 -3.44699 -2.7683 0
M  V30 2805 N 280.839 0.0985539 -1.57292 0
M  V30 2806 C 282.085 0.803867 -1.86188 0
M  V30 2807 C 282.418 1.78549 -0.763794 0
M  V30 2808 O 281.693 1.93153 0.22855 0
M  V30 2809 C 281.976 1.53568 -3.25713 0
M  V30 2810 C 281.829 0.572277 -4.46145 0
M  V30 2811 C 283.148 2.48708 -3.63087 0
M  V30 2812 H 280.267 0.290781 -0.677211 0
M  V30 2813 H 282.909 0.0675783 -1.8988 0
M  V30 2814 H 281.059 2.16332 -3.22696 0
M  V30 2815 H 282.731 -0.0480894 -4.61275 0
M  V30 2816 H 280.974 -0.114618 -4.33649 0
M  V30 2817 H 281.645 1.12139 -5.40489 0
M  V30 2818 H 284.121 1.96039 -3.67026 0
M  V30 2819 H 282.997 2.96932 -4.61652 0
M  V30 2820 H 283.258 3.32309 -2.91588 0
M  V30 2821 N 282.317 1.53212 0.369288 0
M  V30 2822 C 283.264 1.79388 1.45219 0
M  V30 2823 C 284.234 0.638059 1.53356 0
M  V30 2824 O 285.419 0.879852 1.69302 0
M  V30 2825 C 282.559 1.98623 2.82211 0
M  V30 2826 C 281.672 3.26337 2.8307 0
M  V30 2827 C 280.807 3.35779 4.11614 0
M  V30 2828 C 279.846 4.5754 4.06601 0
M  V30 2829 N 278.983 4.64155 5.26787 0
M  V30 2830 H 283.823 2.71794 1.22198 0
M  V30 2831 H 281.36 1.34642 0.592444 0
M  V30 2832 H 283.318 2.07761 3.61789 0
M  V30 2833 H 281.948 1.09558 3.03639 0
M  V30 2834 H 281 3.26171 1.95747 0
M  V30 2835 H 282.312 4.15988 2.75237 0
M  V30 2836 H 281.466 3.44208 4.99606 0
M  V30 2837 H 280.205 2.44137 4.22195 0
M  V30 2838 H 279.21 4.49215 3.16996 0
M  V30 2839 H 280.435 5.50519 3.97625 0
M  V30 2840 H 278.381 3.75413 5.3796 0
M  V30 2841 H 278.298 5.47706 5.21109 0
M  V30 2842 H 279.566 4.76863 6.16621 0
M  V30 2843 N 283.795 -0.628877 1.44509 0
M  V30 2844 C 285.211 -0.947305 1.28446 0
M  V30 2845 C 285.411 -2.00275 0.221872 0
M  V30 2846 O 284.467 -2.49447 -0.391471 0
M  V30 2847 C 285.78 -1.40843 2.65676 0
M  V30 2848 C 287.328 -1.52379 2.73404 0
M  V30 2849 C 287.803 -2.01875 4.11109 0
M  V30 2850 N 289.294 -2.09142 4.13296 0
M  V30 2851 C 290.029 -2.48615 5.16699 0
M  V30 2852 N 289.525 -2.87209 6.30462 0
M  V30 2853 N 291.318 -2.48768 5.04054 0
M  V30 2854 H 283.469 0.0690977 2.12288 0
M  V30 2855 H 285.732 -0.0317164 0.947469 0
M  V30 2856 H 285.438 -0.707206 3.44516 0
M  V30 2857 H 285.312 -2.37902 2.92716 0
M  V30 2858 H 287.699 -2.21598 1.9488 0
M  V30 2859 H 287.78 -0.536898 2.50102 0
M  V30 2860 H 287.424 -1.3325 4.90109 0
M  V30 2861 H 287.354 -3.0144 4.31789 0
M  V30 2862 H 289.845 -1.81991 3.31191 0
M  V30 2863 H 290.158 -3.16149 7.05174 0
M  V30 2864 H 288.503 -2.84955 6.33897 0
M  V30 2865 H 291.694 -2.18009 4.14234 0
M  V30 2866 H 291.867 -2.79207 5.84763 0
M  V30 2867 N 285.273 -1.31445 -0.869486 0
M  V30 2868 C 286.513 -1.22458 -1.63656 0
M  V30 2869 C 286.877 0.213846 -1.90805 0
M  V30 2870 O 288.078 0.427212 -2.65383 0
M  V30 2871 C 286.349 -2.04564 -2.93067 0
M  V30 2872 S 287.908 -2.12445 -3.83944 0
M  V30 2873 H 284.726 -0.436145 -0.561514 0
M  V30 2874 H 287.328 -1.66114 -1.03085 0
M  V30 2875 H 286.032 -3.0816 -2.71045 0
M  V30 2876 H 285.563 -1.6163 -3.58663 0
M  V30 2877 H 287.578 -1.26312 -4.79854 0
M  V30 2878 N 286.751 1.08385 -1.14413 0
M  V30 2879 C 288.162 1.62258 -0.923535 0
M  V30 2880 C 288.513 1.88691 0.537595 0
M  V30 2881 O 287.638 1.64454 1.40655 0
M  V30 2882 C 288.233 2.94781 -1.67002 0
M  V30 2883 C 286.792 3.45437 -1.495 0
M  V30 2884 C 285.939 2.19668 -1.69238 0
M  V30 2885 H 288.89 0.916086 -1.2959 0
M  V30 2886 H 288.911 3.63229 -1.13334 0
M  V30 2887 H 288.423 2.7551 -2.73342 0
M  V30 2888 H 286.524 3.6981 -0.455097 0
M  V30 2889 H 286.637 4.22173 -2.2651 0
M  V30 2890 H 285.001 2.28849 -1.11804 0
M  V30 2891 H 285.784 2.02905 -2.7692 0
M  V30 2892 N 288.23 0.939286 1.26551 0
M  V30 2893 C 289.178 0.43815 2.28436 0
M  V30 2894 C 290.172 -0.483587 1.62351 0
M  V30 2895 O 291.378 -0.362009 1.76322 0
M  V30 2896 H 287.753 0.123149 0.741848 0
M  V30 2897 H 289.724 1.31002 2.68106 0
M  V30 2898 C 288.473 -0.283052 3.46546 0
M  V30 2899 H 287.796 0.417043 3.97619 0
M  V30 2900 H 289.236 -0.597948 4.19763 0
M  V30 2901 C 287.695 -1.50018 3.01656 0
M  V30 2902 O 288.225 -2.59855 3.0633 0
M  V30 2903 N 286.431 -1.35608 2.57019 0
M  V30 2904 H 285.978 -0.46244 2.53415 0
M  V30 2905 H 285.936 -2.17165 2.27347 0
M  V30 2906 N 289.708 -1.40897 0.706093 0
M  V30 2907 C 290.658 -2.27987 0.0240746 0
M  V30 2908 C 291.642 -1.42759 -0.742204 0
M  V30 2909 O 292.834 -1.65936 -0.615966 0
M  V30 2910 C 289.963 -3.31186 -0.903907 0
M  V30 2911 C 289.049 -4.2389 -0.133318 0
M  V30 2912 N 289.44 -4.98113 0.878444 0
M  V30 2913 C 287.738 -4.44485 -0.367269 0
M  V30 2914 C 288.439 -5.6604 1.34064 0
M  V30 2915 N 287.415 -5.39522 0.664565 0
M  V30 2916 H 291.217 -2.82812 0.799658 0
M  V30 2917 H 288.731 -1.53235 0.537845 0
M  V30 2918 H 290.728 -3.92413 -1.40775 0
M  V30 2919 H 289.388 -2.77922 -1.67897 0
M  V30 2920 H 290.399 -5.02364 1.25901 0
M  V30 2921 H 287.076 -4.02213 -1.1194 0
M  V30 2922 H 288.466 -6.35524 2.1808 0
M  V30 2923 N 291.186 -0.45159 -1.50991 0
M  V30 2924 C 292.096 0.358431 -2.31846 0
M  V30 2925 C 293.112 1.01438 -1.41373 0
M  V30 2926 O 294.288 1.00663 -1.74439 0
M  V30 2927 C 291.353 1.43704 -3.15515 0
M  V30 2928 C 290.414 0.799742 -4.21785 0
M  V30 2929 C 289.647 1.82696 -5.01456 0
M  V30 2930 O 289.87 3.05105 -4.81941 0
M  V30 2931 O 288.804 1.40958 -5.85162 0
M  V30 2932 H 292.63 -0.302032 -3.02194 0
M  V30 2933 H 290.215 -0.213825 -1.47862 0
M  V30 2934 H 292.097 2.06227 -3.67489 0
M  V30 2935 H 290.772 2.08133 -2.47916 0
M  V30 2936 H 289.679 0.136084 -3.73852 0
M  V30 2937 H 291.012 0.198718 -4.91799 0
M  V30 2938 N 292.664 1.56529 -0.183458 0
M  V30 2939 C 293.594 2.21549 0.737456 0
M  V30 2940 C 294.575 1.17489 1.23005 0
M  V30 2941 O 295.76 1.45959 1.281 0
M  V30 2942 C 292.89 2.86575 1.96194 0
M  V30 2943 C 291.844 3.96778 1.60473 0
M  V30 2944 C 291.17 4.48911 2.90487 0
M  V30 2945 C 292.47 5.15767 0.823497 0
M  V30 2946 H 294.164 2.98761 0.195453 0
M  V30 2947 H 291.71 1.43702 0.0925686 0
M  V30 2948 H 293.663 3.30739 2.61131 0
M  V30 2949 H 292.387 2.06749 2.52828 0
M  V30 2950 H 291.046 3.53286 0.978997 0
M  V30 2951 H 290.694 3.65862 3.45186 0
M  V30 2952 H 290.394 5.23265 2.67335 0
M  V30 2953 H 291.918 4.95771 3.56432 0
M  V30 2954 H 293.332 5.56549 1.37571 0
M  V30 2955 H 291.729 5.96114 0.690551 0
M  V30 2956 H 292.799 4.84574 -0.177782 0
M  V30 2957 N 294.142 -0.090211 1.57342 0
M  V30 2958 C 295.39 -0.791241 1.85967 0
M  V30 2959 C 295.711 -1.7903 0.772859 0
M  V30 2960 O 294.981 -1.94872 -0.200398 0
M  V30 2961 H 293.561 -0.295205 0.686195 0
M  V30 2962 H 296.223 -0.0706782 1.94772 0
M  V30 2963 H 295.319 -1.31882 2.82867 0
M  V30 2964 N 295.62 -1.53406 -0.361157 0
M  V30 2965 C 297.036 -1.43277 -0.703124 0
M  V30 2966 C 297.236 -0.575384 -1.9311 0
M  V30 2967 O 296.292 -0.0595362 -2.5243 0
M  V30 2968 C 297.605 -2.8653 -0.9122 0
M  V30 2969 C 299.153 -2.96191 -1.01193 0
M  V30 2970 C 299.628 -4.40514 -1.25345 0
M  V30 2971 N 301.119 -4.43962 -1.32105 0
M  V30 2972 C 301.854 -5.52746 -1.5251 0
M  V30 2973 N 301.35 -6.71567 -1.70203 0
M  V30 2974 N 303.143 -5.40331 -1.54916 0
M  V30 2975 H 295.294 -2.07654 0.446475 0
M  V30 2976 H 297.557 -0.937944 0.137715 0
M  V30 2977 H 297.263 -3.51605 -0.0816414 0
M  V30 2978 H 297.137 -3.30441 -1.81903 0
M  V30 2979 H 299.524 -2.31266 -1.83303 0
M  V30 2980 H 299.605 -2.55667 -0.0823929 0
M  V30 2981 H 299.249 -5.06014 -0.437346 0
M  V30 2982 H 299.179 -4.78614 -2.19627 0
M  V30 2983 H 301.67 -3.58332 -1.20028 0
M  V30 2984 H 301.983 -7.50241 -1.85359 0
M  V30 2985 H 300.328 -6.74545 -1.67373 0
M  V30 2986 H 303.519 -4.46465 -1.40663 0
M  V30 2987 H 303.692 -6.25173 -1.70477 0
M  V30 2988 N 297.098 0.621204 -1.44841 0
M  V30 2989 C 298.375 1.38 -1.38619 0
M  V30 2990 C 298.755 2.11041 -0.0498935 0
M  V30 2991 O 298.103 2.06992 0.967816 0
M  V30 2992 C 298.313 2.33817 -2.59096 0
M  V30 2993 C 299.661 2.96844 -3.03593 0
M  V30 2994 O 300.685 2.44141 -2.59371 0
M  V30 2995 O 299.544 3.92476 -3.80296 0
M  V30 2996 H 296.638 0.61811 -0.549426 0
M  V30 2997 H 299.184 0.645429 -1.56947 0
M  V30 2998 H 297.956 1.79012 -3.47952 0
M  V30 2999 H 297.579 3.14676 -2.43032 0
M  V30 3000 N 298.576 1.31904 0.862503 0
M  V30 3001 C 299.823 1.22017 1.61611 0
M  V30 3002 C 300.151 -0.21991 1.93253 0
M  V30 3003 O 299.406 -1.17076 1.56817 0
M  V30 3004 C 299.705 2.01713 2.95037 0
M  V30 3005 C 299.371 3.51145 2.82857 0
M  V30 3006 C 298.033 3.91889 2.79243 0
M  V30 3007 C 300.385 4.46204 2.69353 0
M  V30 3008 C 297.713 5.25947 2.59993 0
M  V30 3009 C 300.065 5.80397 2.5164 0
M  V30 3010 C 298.729 6.20352 2.46413 0
M  V30 3011 H 297.999 0.44649 0.591378 0
M  V30 3012 H 300.646 1.63248 1.00111 0
M  V30 3013 H 298.951 1.53185 3.60613 0
M  V30 3014 H 300.648 1.91437 3.52353 0
M  V30 3015 H 297.238 3.1878 2.86491 0
M  V30 3016 H 301.422 4.15652 2.71196 0
M  V30 3017 H 296.678 5.5597 2.54376 0
M  V30 3018 H 300.852 6.53676 2.40169 0
M  V30 3019 H 298.479 7.24172 2.31256 0
M  V30 3020 N 300.054 -1.07777 1.14986 0
M  V30 3021 C 301.002 -2.16964 0.838406 0
M  V30 3022 C 301.996 -1.68372 -0.186386 0
M  V30 3023 O 303.202 -1.79951 -0.0418465 0
M  V30 3024 H 299.577 -0.708006 0.253439 0
M  V30 3025 H 301.548 -2.40454 1.76704 0
M  V30 3026 C 300.297 -3.4604 0.339335 0
M  V30 3027 H 299.62 -3.83813 1.11927 0
M  V30 3028 H 301.06 -4.23698 0.160021 0
M  V30 3029 C 299.519 -3.23569 -0.938325 0
M  V30 3030 O 300.049 -3.47752 -2.01077 0
M  V30 3031 N 298.255 -2.77079 -0.876117 0
M  V30 3032 H 297.802 -2.576 -0.00322037 0
M  V30 3033 H 297.76 -2.62422 -1.73153 0
M  V30 3034 N 301.532 -0.945985 -1.26051 0
M  V30 3035 C 302.442 -0.465633 -2.29933 0
M  V30 3036 C 303.458 0.462761 -1.67733 0
M  V30 3037 O 304.634 0.341118 -1.9849 0
M  V30 3038 C 301.699 0.256994 -3.45746 0
M  V30 3039 C 300.76 -0.708549 -4.23412 0
M  V30 3040 C 299.993 -0.0203135 -5.33696 0
M  V30 3041 O 300.216 1.19571 -5.57726 0
M  V30 3042 O 299.15 -0.701459 -5.97799 0
M  V30 3043 H 302.976 -1.32866 -2.73094 0
M  V30 3044 H 300.561 -0.712071 -1.31339 0
M  V30 3045 H 302.443 0.663852 -4.16138 0
M  V30 3046 H 301.118 1.09533 -3.04605 0
M  V30 3047 H 300.025 -1.16545 -3.55483 0
M  V30 3048 H 301.358 -1.51465 -4.68315 0
M  V30 3049 N 303.011 1.40521 -0.713556 0
M  V30 3050 C 304.259 2.00527 -0.251692 0
M  V30 3051 C 304.58 1.56857 1.15848 0
M  V30 3052 O 303.85 0.807127 1.785 0
M  V30 3053 H 302.43 0.741551 -0.0900646 0
M  V30 3054 H 305.092 1.71887 -0.918733 0
M  V30 3055 H 304.188 3.10813 -0.283192 0
M  V30 3056 N 304.489 0.459591 1.5075 0
M  V30 3057 C 305.421 -0.37665 2.26084 0
M  V30 3058 C 306.434 -0.967109 1.30961 0
M  V30 3059 O 307.623 -0.857468 1.56556 0
M  V30 3060 C 304.723 -1.54112 3.01832 0
M  V30 3061 C 303.896 -1.06553 4.24223 0
M  V30 3062 C 302.955 -2.1027 4.82362 0
M  V30 3063 O 301.981 -1.68798 5.43595 0
M  V30 3064 N 303.183 -3.42974 4.68347 0
M  V30 3065 H 305.948 0.269124 2.98489 0
M  V30 3066 H 303.509 0.28972 1.59287 0
M  V30 3067 H 305.501 -2.23165 3.37608 0
M  V30 3068 H 304.071 -2.0918 2.32298 0
M  V30 3069 H 303.291 -0.201274 3.93686 0
M  V30 3070 H 304.579 -0.725516 5.03601 0
M  V30 3071 H 303.977 -3.79385 4.19623 0
M  V30 3072 H 302.534 -4.07858 5.08424 0
M  V30 3073 N 305.967 -1.56429 0.191757 0
M  V30 3074 C 307.192 -2.02309 -0.456706 0
M  V30 3075 C 307.617 -1.07103 -1.5463 0
M  V30 3076 O 306.975 -0.0539677 -1.8122 0
M  V30 3077 C 307.023 -3.46654 -0.993159 0
M  V30 3078 O 306.127 -3.54559 -2.10622 0
M  V30 3079 H 305.468 -0.655303 -0.107114 0
M  V30 3080 H 307.998 -2.02364 0.301653 0
M  V30 3081 H 308.008 -3.86377 -1.31061 0
M  V30 3082 H 306.683 -4.1544 -0.195504 0
M  V30 3083 H 305.26 -3.26708 -1.79767 0
M  V30 3084 N 307.445 0.0818655 -1.57387 0
M  V30 3085 C 308.408 1.08265 -2.02018 0
M  V30 3086 C 309.408 1.32183 -0.915664 0
M  V30 3087 O 310.598 1.28073 -1.18081 0
M  V30 3088 C 307.73 2.42871 -2.39221 0
M  V30 3089 H 308.923 0.698204 -2.91659 0
M  V30 3090 H 306.476 0.327303 -1.52835 0
M  V30 3091 H 307.211 2.86167 -1.52575 0
M  V30 3092 H 306.996 2.26855 -3.19811 0
M  V30 3093 H 308.486 3.14826 -2.74362 0
M  V30 3094 N 308.923 1.53595 0.353017 0
M  V30 3095 C 310.334 1.61937 0.929153 0
M  V30 3096 C 310.685 0.494686 1.89861 0
M  V30 3097 O 309.81 -0.377017 2.1309 0
M  V30 3098 C 310.405 2.93526 1.69199 0
M  V30 3099 C 308.964 3.04161 2.21727 0
M  V30 3100 C 308.111 2.57322 1.03348 0
M  V30 3101 H 311.062 1.58155 0.131431 0
M  V30 3102 H 311.083 2.82034 2.55416 0
M  V30 3103 H 310.595 3.75362 0.986144 0
M  V30 3104 H 308.696 2.26938 2.95516 0
M  V30 3105 H 308.809 4.09465 2.48748 0
M  V30 3106 H 307.173 2.12499 1.40414 0
M  V30 3107 H 307.956 3.41588 0.342428 0
M  V30 3108 N 310.401 -0.613514 1.45168 0
M  V30 3109 C 311.364 -1.7065 1.53007 0
M  V30 3110 C 312.364 -1.5548 0.410184 0
M  V30 3111 O 313.554 -1.60656 0.673455 0
M  V30 3112 C 310.686 -3.09875 1.42093 0
M  V30 3113 H 311.879 -1.65068 2.50385 0
M  V30 3114 H 309.432 -0.828728 1.32521 0
M  V30 3115 H 310.167 -3.21039 0.458769 0
M  V30 3116 H 309.952 -3.22293 2.23315 0
M  V30 3117 H 311.442 -3.895 1.50598 0
M  V30 3118 N 311.879 -1.3236 -0.855495 0
M  V30 3119 C 313.104 -1.2601 -1.64731 0
M  V30 3120 C 313.529 0.169068 -1.87339 0
M  V30 3121 O 312.887 1.12016 -1.42556 0
M  V30 3122 C 312.935 -2.02417 -2.98429 0
M  V30 3123 O 312.039 -1.3714 -3.8893 0
M  V30 3124 H 311.38 -0.434325 -0.502253 0
M  V30 3125 H 313.91 -1.74661 -1.06558 0
M  V30 3126 H 313.92 -2.12559 -3.48257 0
M  V30 3127 H 312.595 -3.06343 -2.81295 0
M  V30 3128 H 311.172 -1.3554 -3.47395 0
M  V30 3129 N 313.357 1.07166 -1.15556 0
M  V30 3130 C 314.307 2.12649 -0.82247 0
M  V30 3131 C 315.291 1.59725 0.194129 0
M  V30 3132 O 316.483 1.76999 -0.00540402 0
M  V30 3133 C 313.612 3.41847 -0.315572 0
M  V30 3134 C 312.698 4.0162 -1.36244 0
M  V30 3135 N 313.089 4.35625 -2.5703 0
M  V30 3136 C 311.387 4.29114 -1.21562 0
M  V30 3137 C 312.088 4.83017 -3.24144 0
M  V30 3138 N 311.064 4.81906 -2.51531 0
M  V30 3139 H 314.866 2.36776 -1.74111 0
M  V30 3140 H 312.38 1.24622 -1.0413 0
M  V30 3141 H 314.377 4.16859 -0.0585855 0
M  V30 3142 H 313.037 3.19163 0.597105 0
M  V30 3143 H 314.048 4.26253 -2.94158 0
M  V30 3144 H 310.725 4.15919 -0.362988 0
M  V30 3145 H 312.115 5.18605 -4.27198 0
M  V30 3146 N 314.835 0.952656 1.25548 0
M  V30 3147 C 315.765 0.489287 2.28316 0
M  V30 3148 C 316.746 -0.463359 1.63667 0
M  V30 3149 O 317.931 -0.36274 1.90782 0
M  V30 3150 C 315.061 -0.235603 3.465 0
M  V30 3151 C 314.015 0.631593 4.23314 0
M  V30 3152 C 313.341 -0.223923 5.34231 0
M  V30 3153 C 314.641 1.90871 4.86174 0
M  V30 3154 H 316.335 1.34822 2.67326 0
M  V30 3155 H 313.881 0.649728 1.28509 0
M  V30 3156 H 315.834 -0.570882 4.17515 0
M  V30 3157 H 314.558 -1.12877 3.06474 0
M  V30 3158 H 313.217 0.949929 3.54079 0
M  V30 3159 H 312.865 -1.11678 4.90446 0
M  V30 3160 H 312.565 0.35299 5.86539 0
M  V30 3161 H 314.089 -0.554214 6.0808 0
M  V30 3162 H 315.503 1.63997 5.49343 0
M  V30 3163 H 313.9 2.43112 5.4865 0
M  V30 3164 H 314.97 2.61304 4.08471 0
M  V30 3165 N 316.313 -1.40141 0.720998 0
M  V30 3166 C 317.562 -2.0002 0.259804 0
M  V30 3167 C 317.875 -1.57839 -1.15526 0
M  V30 3168 O 319.081 -2.10455 -1.71525 0
M  V30 3169 C 317.537 -3.57516 0.413566 0
M  V30 3170 C 317.145 -4.08667 1.83562 0
M  V30 3171 C 318.889 -4.24498 0.0134387 0
M  V30 3172 C 316.796 -5.58686 1.93968 0
M  V30 3173 H 315.726 -0.748195 0.0933806 0
M  V30 3174 H 318.377 -1.60313 0.892866 0
M  V30 3175 H 316.759 -3.9495 -0.288169 0
M  V30 3176 H 317.933 -3.82598 2.56817 0
M  V30 3177 H 316.248 -3.543 2.1877 0
M  V30 3178 H 318.845 -5.34654 0.0703954 0
M  V30 3179 H 319.188 -4.03375 -1.02927 0
M  V30 3180 H 319.721 -3.92188 0.665815 0
M  V30 3181 H 316.46 -5.8467 2.96379 0
M  V30 3182 H 315.98 -5.86602 1.25131 0
M  V30 3183 H 317.659 -6.23875 1.71431 0
M  V30 3184 N 317.792 -0.46758 -1.50504 0
M  V30 3185 C 319.208 -0.121533 -1.59137 0
M  V30 3186 C 319.408 1.3717 -1.47603 0
M  V30 3187 O 318.464 2.14464 -1.33272 0
M  V30 3188 C 319.777 -0.6686 -2.93173 0
M  V30 3189 C 321.325 -0.631716 -3.06559 0
M  V30 3190 C 321.8 -1.15627 -4.43164 0
M  V30 3191 N 323.291 -1.11553 -4.49567 0
M  V30 3192 C 324.026 -1.49195 -5.5365 0
M  V30 3193 N 323.522 -1.94269 -6.65005 0
M  V30 3194 N 325.315 -1.4082 -5.44175 0
M  V30 3195 H 317.466 -1.4388 -1.56245 0
M  V30 3196 H 319.729 -0.594784 -0.738198 0
M  V30 3197 H 319.435 -1.71453 -3.07078 0
M  V30 3198 H 319.309 -0.11021 -3.77039 0
M  V30 3199 H 321.696 0.405297 -2.92304 0
M  V30 3200 H 321.777 -1.22687 -2.24458 0
M  V30 3201 H 321.421 -2.1919 -4.58168 0
M  V30 3202 H 321.351 -0.537365 -5.23851 0
M  V30 3203 H 323.842 -0.784895 -3.69659 0
M  V30 3204 H 324.155 -2.21148 -7.40482 0
M  V30 3205 H 322.5 -1.98219 -6.66134 0
M  V30 3206 H 325.691 -1.0545 -4.56068 0
M  V30 3207 H 325.864 -1.70481 -6.25172 0
M  V30 3208 N 319.27 1.56325 -0.20005 0
M  V30 3209 C 320.516 1.98012 0.438059 0
M  V30 3210 C 320.849 1.08702 1.60927 0
M  V30 3211 O 320.124 0.140064 1.93995 0
M  V30 3212 C 320.407 3.48841 0.893419 0
M  V30 3213 C 320.26 4.48928 -0.279947 0
M  V30 3214 C 321.579 4.03498 1.75719 0
M  V30 3215 H 318.698 0.719918 0.157757 0
M  V30 3216 H 321.34 1.87743 -0.291968 0
M  V30 3217 H 319.49 3.57723 1.51547 0
M  V30 3218 H 321.162 4.52079 -0.91772 0
M  V30 3219 H 319.405 4.23694 -0.930919 0
M  V30 3220 H 320.076 5.5194 0.0812601 0
M  V30 3221 H 322.552 3.97427 1.23253 0
M  V30 3222 H 321.428 5.09393 2.04476 0
M  V30 3223 H 321.689 3.4906 2.71311 0
M  V30 3224 N 320.748 -0.0735177 1.57428 0
M  V30 3225 C 321.658 -1.10547 2.06922 0
M  V30 3226 C 322.674 -1.42506 0.998402 0
M  V30 3227 O 323.85 -1.52717 1.31299 0
M  V30 3228 C 320.915 -2.40019 2.50184 0
M  V30 3229 C 319.976 -2.15046 3.71556 0
M  V30 3230 C 319.209 -3.38345 4.12745 0
M  V30 3231 O 319.432 -4.47399 3.53822 0
M  V30 3232 O 318.366 -3.2666 5.05546 0
M  V30 3233 H 322.192 -0.715013 2.95163 0
M  V30 3234 H 319.777 -0.287531 1.46607 0
M  V30 3235 H 321.659 -3.16218 2.78539 0
M  V30 3236 H 320.334 -2.78447 1.65072 0
M  V30 3237 H 319.241 -1.36558 3.48285 0
M  V30 3238 H 320.574 -1.81499 4.57514 0
M  V30 3239 N 322.226 -1.5378 -0.344866 0
M  V30 3240 C 323.474 -1.70625 -1.08311 0
M  V30 3241 C 323.795 -0.471447 -1.89215 0
M  V30 3242 O 323.065 0.514616 -1.8902 0
M  V30 3243 H 321.645 -0.629058 -0.402859 0
M  V30 3244 H 324.307 -1.9103 -0.386459 0
M  V30 3245 H 323.403 -2.57656 -1.76124 0
M  V30 3246 N 323.704 0.605807 -1.45491 0
M  V30 3247 C 324.652 1.73754 -1.54636 0
M  V30 3248 C 325.646 1.64207 -0.416219 0
M  V30 3249 O 326.852 1.69979 -0.592199 0
M  V30 3250 H 323.227 0.574073 -0.485741 0
M  V30 3251 H 325.198 1.63169 -2.49837 0
M  V30 3252 C 323.947 3.12135 -1.53189 0
M  V30 3253 H 323.27 3.20141 -2.39478 0
M  V30 3254 H 324.71 3.91147 -1.63645 0
M  V30 3255 C 323.169 3.35921 -0.256616 0
M  V30 3256 O 323.699 3.96194 0.662798 0
M  V30 3257 N 321.905 2.90204 -0.151751 0
M  V30 3258 H 321.452 2.41336 -0.90081 0
M  V30 3259 H 321.41 3.06492 0.700699 0
M  V30 3260 N 325.182 1.32811 0.848464 0
M  V30 3261 C 326.13 1.22231 1.97895 0
M  V30 3262 C 327.124 0.125749 1.68933 0
M  V30 3263 O 328.33 0.289083 1.77663 0
M  V30 3264 H 324.705 0.379058 0.649476 0
M  V30 3265 H 326.676 2.17828 2.03945 0
M  V30 3266 C 325.425 0.968572 3.33937 0
M  V30 3267 H 324.748 1.80458 3.56756 0
M  V30 3268 H 326.188 0.934808 4.13567 0
M  V30 3269 C 324.647 -0.328628 3.35293 0
M  V30 3270 O 325.177 -1.33848 3.78745 0
M  V30 3271 N 323.383 -0.352788 2.88451 0
M  V30 3272 H 322.93 0.469541 2.53285 0
M  V30 3273 H 322.888 -1.22057 2.89741 0
M  V30 3274 N 326.66 -1.06551 1.16123 0
M  V30 3275 C 327.59 -2.15935 0.88851 0
M  V30 3276 C 328.571 -1.69306 -0.164135 0
M  V30 3277 O 329.756 -1.94193 -0.0167857 0
M  V30 3278 C 326.886 -3.45149 0.385942 0
M  V30 3279 C 325.84 -4.05271 1.3762 0
M  V30 3280 C 325.166 -5.29664 0.732137 0
M  V30 3281 C 326.466 -4.44355 2.74493 0
M  V30 3282 H 328.16 -2.39006 1.80323 0
M  V30 3283 H 325.706 -1.14866 0.868435 0
M  V30 3284 H 327.659 -4.21004 0.182647 0
M  V30 3285 H 326.383 -3.21689 -0.564274 0
M  V30 3286 H 325.042 -3.3147 1.56599 0
M  V30 3287 H 324.69 -5.02499 -0.224483 0
M  V30 3288 H 324.39 -5.70848 1.39307 0
M  V30 3289 H 325.914 -6.08218 0.538802 0
M  V30 3290 H 327.328 -5.11303 2.59311 0
M  V30 3291 H 325.725 -4.96515 3.37035 0
M  V30 3292 H 326.795 -3.55339 3.29943 0
M  V30 3293 N 328.138 -0.959301 -1.25041 0
M  V30 3294 C 329.363 -0.633507 -1.97488 0
M  V30 3295 C 329.788 0.788555 -1.70773 0
M  V30 3296 O 329.146 1.53394 -0.966431 0
M  V30 3297 C 329.194 -0.904057 -3.49083 0
M  V30 3298 O 328.298 0.0147939 -4.12397 0
M  V30 3299 H 327.639 -0.240368 -0.618966 0
M  V30 3300 H 330.169 -1.28717 -1.59038 0
M  V30 3301 H 330.179 -0.832203 -3.99423 0
M  V30 3302 H 328.854 -1.94048 -3.67856 0
M  V30 3303 H 327.431 -0.109664 -3.72739 0
M  V30 3304 N 329.616 1.39756 -0.72842 0
M  V30 3305 C 330.548 2.29157 -0.0446202 0
M  V30 3306 C 331.561 1.46484 0.710367 0
M  V30 3307 O 332.75 1.69632 0.55562 0
M  V30 3308 C 329.85 3.24987 0.961071 0
M  V30 3309 C 329.023 4.36572 0.268967 0
M  V30 3310 C 328.082 5.12756 1.18184 0
M  V30 3311 O 327.108 5.6534 0.661794 0
M  V30 3312 N 328.31 5.23331 2.51206 0
M  V30 3313 H 331.075 2.88482 -0.812295 0
M  V30 3314 H 328.636 1.51265 -0.577098 0
M  V30 3315 H 330.628 3.72827 1.57423 0
M  V30 3316 H 329.198 2.66739 1.63 0
M  V30 3317 H 328.418 3.90694 -0.524574 0
M  V30 3318 H 329.706 5.08363 -0.210934 0
M  V30 3319 H 329.104 4.82116 2.9594 0
M  V30 3320 H 327.661 5.74634 3.07634 0
M  V30 3321 N 331.094 0.475555 1.50254 0
M  V30 3322 C 332.324 -0.0753399 2.06463 0
M  V30 3323 C 332.732 -1.33661 1.33908 0
M  V30 3324 O 332.075 -1.79219 0.403257 0
M  V30 3325 C 332.137 -0.424921 3.5698 0
M  V30 3326 C 331.801 0.734965 4.51051 0
M  V30 3327 C 332.798 1.61827 4.94073 0
M  V30 3328 C 330.483 0.926557 4.9368 0
M  V30 3329 C 332.477 2.67754 5.78434 0
M  V30 3330 C 330.164 1.98904 5.77824 0
M  V30 3331 C 331.162 2.8629 6.20103 0
M  V30 3332 O 330.85 3.90708 7.02568 0
M  V30 3333 H 330.582 0.00576308 0.675975 0
M  V30 3334 H 333.136 0.664662 1.94349 0
M  V30 3335 H 331.366 -1.21817 3.67012 0
M  V30 3336 H 333.055 -0.911422 3.95535 0
M  V30 3337 H 333.821 1.48196 4.61804 0
M  V30 3338 H 329.7 0.25584 4.6029 0
M  V30 3339 H 333.244 3.35992 6.11355 0
M  V30 3340 H 329.141 2.12541 6.09505 0
M  V30 3341 H 329.909 3.87751 7.20827 0
M  V30 3342 N 332.573 -1.56217 0.208337 0
M  V30 3343 C 333.819 -1.98242 -0.427552 0
M  V30 3344 C 334.152 -1.09554 -1.60348 0
M  V30 3345 O 333.427 -0.15035 -1.93918 0
M  V30 3346 C 333.71 -3.4931 -0.874907 0
M  V30 3347 C 333.563 -4.48773 0.303751 0
M  V30 3348 C 334.882 -4.04424 -1.73577 0
M  V30 3349 H 332.001 -0.720744 -0.153936 0
M  V30 3350 H 334.643 -1.87586 0.30192 0
M  V30 3351 H 332.793 -3.58522 -1.49648 0
M  V30 3352 H 334.465 -4.51586 0.941682 0
M  V30 3353 H 332.708 -4.23194 0.953375 0
M  V30 3354 H 333.379 -5.51976 -0.0519883 0
M  V30 3355 H 335.855 -3.98075 -1.21143 0
M  V30 3356 H 334.731 -5.1047 -2.01771 0
M  V30 3357 H 334.992 -3.50494 -2.69456 0
M  V30 3358 N 334.051 0.0651679 -1.57465 0
M  V30 3359 C 335.328 0.79644 -1.78651 0
M  V30 3360 C 335.708 1.95454 -0.797566 0
M  V30 3361 O 335.056 2.27882 0.167946 0
M  V30 3362 C 335.266 1.26322 -3.25337 0
M  V30 3363 C 336.614 1.6939 -3.89348 0
M  V30 3364 O 337.638 1.35872 -3.29268 0
M  V30 3365 O 336.497 2.31471 -4.95059 0
M  V30 3366 H 333.591 0.382157 -0.733407 0
M  V30 3367 H 336.137 0.0447311 -1.69641 0
M  V30 3368 H 334.909 0.434859 -3.88876 0
M  V30 3369 H 334.532 2.07604 -3.39096 0
M  V30 3370 N 335.529 1.53961 0.336706 0
M  V30 3371 C 336.806 1.62171 1.09361 0
M  V30 3372 C 337.186 0.447263 2.06307 0
M  V30 3373 O 336.534 -0.559802 2.21537 0
M  V30 3374 C 336.744 2.98565 1.80721 0
M  V30 3375 C 338.092 3.54157 2.34218 0
M  V30 3376 O 339.116 3.00784 1.90807 0
M  V30 3377 O 337.975 4.47528 3.13657 0
M  V30 3378 H 335.069 0.6562 0.503319 0
M  V30 3379 H 337.615 1.66307 0.33765 0
M  V30 3380 H 336.387 3.75482 1.10132 0
M  V30 3381 H 336.01 2.9805 2.63158 0
M  V30 3382 N 337.007 -0.598083 1.45811 0
M  V30 3383 C 338.418 -1.18011 1.44673 0
M  V30 3384 C 338.769 -1.95378 0.179364 0
M  V30 3385 O 337.894 -2.04124 -0.718509 0
M  V30 3386 C 338.489 -2.14677 2.62105 0
M  V30 3387 C 337.048 -2.68236 2.64057 0
M  V30 3388 C 336.195 -1.43816 2.37091 0
M  V30 3389 H 339.146 -0.38686 1.53913 0
M  V30 3390 H 339.167 -2.97878 2.36746 0
M  V30 3391 H 338.679 -1.5834 3.5433 0
M  V30 3392 H 336.78 -3.28486 1.75864 0
M  V30 3393 H 336.893 -3.12021 3.63566 0
M  V30 3394 H 335.257 -1.731 1.86838 0
M  V30 3395 H 336.04 -0.893333 3.31473 0
M  V30 3396 N 338.485 -1.33259 -0.841409 0
M  V30 3397 C 339.731 -1.24757 -1.59886 0
M  V30 3398 C 340.064 0.186913 -1.93298 0
M  V30 3399 O 339.339 1.12757 -1.5848 0
M  V30 3400 C 339.622 -2.12036 -2.91055 0
M  V30 3401 C 339.475 -3.63929 -2.6434 0
M  V30 3402 C 340.794 -1.9916 -3.92458 0
M  V30 3403 H 337.913 -0.454542 -0.580138 0
M  V30 3404 H 340.555 -1.63335 -0.970647 0
M  V30 3405 H 338.705 -1.79265 -3.44669 0
M  V30 3406 H 340.377 -4.06978 -2.17178 0
M  V30 3407 H 338.62 -3.85935 -1.98082 0
M  V30 3408 H 339.291 -4.20341 -3.57796 0
M  V30 3409 H 341.767 -2.27895 -3.48143 0
M  V30 3410 H 340.643 -2.62484 -4.82072 0
M  V30 3411 H 340.904 -0.963082 -4.31482 0
M  V30 3412 N 339.963 1.05934 -1.16686 0
M  V30 3413 C 341.191 1.8249 -0.974929 0
M  V30 3414 C 341.606 1.82679 0.476861 0
M  V30 3415 O 340.963 1.2486 1.33103 0
M  V30 3416 C 341.014 3.28943 -1.49929 0
M  V30 3417 O 340.735 3.28886 -2.89423 0
M  V30 3418 C 342.236 4.22215 -1.35089 0
M  V30 3419 H 339.456 0.575295 -0.345365 0
M  V30 3420 H 342 1.33631 -1.548 0
M  V30 3421 H 340.155 3.751 -0.968423 0
M  V30 3422 H 340.569 4.20493 -3.13506 0
M  V30 3423 H 342.043 5.22987 -1.76603 0
M  V30 3424 H 342.52 4.38195 -0.296935 0
M  V30 3425 H 343.126 3.81907 -1.87155 0
M  V30 3426 N 341.441 0.965919 1.2453 0
M  V30 3427 C 342.689 0.625593 1.92174 0
M  V30 3428 C 343.01 -0.841652 1.75901 0
M  V30 3429 O 342.28 -1.60061 1.12948 0
M  V30 3430 H 340.86 0.228388 0.71123 0
M  V30 3431 H 343.522 1.2266 1.51461 0
M  V30 3432 H 342.618 0.864653 2.99884 0
M  V30 3433 N 342.919 -1.39368 0.735821 0
M  V30 3434 C 344.335 -1.54204 0.411492 0
M  V30 3435 C 344.535 -1.70268 -1.07755 0
M  V30 3436 O 343.591 -1.70364 -1.86366 0
M  V30 3437 C 344.904 -2.75925 1.19523 0
M  V30 3438 C 346.452 -2.89761 1.18354 0
M  V30 3439 C 346.927 -4.14421 1.94986 0
M  V30 3440 N 348.418 -4.21462 1.92156 0
M  V30 3441 C 349.153 -5.16871 2.48258 0
M  V30 3442 N 348.649 -6.18063 3.13001 0
M  V30 3443 N 350.442 -5.09093 2.38287 0
M  V30 3444 H 342.593 -1.27189 1.70108 0
M  V30 3445 H 344.856 -0.616517 0.720147 0
M  V30 3446 H 344.562 -2.70401 2.24892 0
M  V30 3447 H 344.436 -3.68614 0.800222 0
M  V30 3448 H 346.823 -2.94777 0.137975 0
M  V30 3449 H 346.904 -1.98133 1.61793 0
M  V30 3450 H 346.548 -4.10166 2.99543 0
M  V30 3451 H 346.478 -5.05095 1.48953 0
M  V30 3452 H 348.969 -3.48979 1.44991 0
M  V30 3453 H 349.282 -6.87326 3.53275 0
M  V30 3454 H 347.627 -6.18448 3.17091 0
M  V30 3455 H 350.818 -4.28973 1.8735 0
M  V30 3456 H 350.991 -5.83272 2.82308 0
M  V30 3457 N 344.397 -0.483516 -1.5 0
M  V30 3458 C 345.329 0.340634 -2.26655 0
M  V30 3459 C 346.342 0.946152 -1.32483 0
M  V30 3460 O 347.531 0.832453 -1.579 0
M  V30 3461 C 344.631 1.4929 -3.04246 0
M  V30 3462 C 343.804 0.997903 -4.25865 0
M  V30 3463 C 342.863 2.02569 -4.85646 0
M  V30 3464 O 341.889 1.60128 -5.46212 0
M  V30 3465 N 343.091 3.3548 -4.73744 0
M  V30 3466 H 345.856 -0.316577 -2.98023 0
M  V30 3467 H 343.417 -0.315024 -1.58806 0
M  V30 3468 H 345.409 2.17766 -3.41116 0
M  V30 3469 H 343.979 2.05458 -2.35597 0
M  V30 3470 H 343.199 0.138617 -3.93956 0
M  V30 3471 H 344.487 0.645305 -5.04691 0
M  V30 3472 H 343.885 3.72661 -4.25605 0
M  V30 3473 H 342.442 3.99718 -5.14848 0
M  V30 3474 N 345.875 1.56104 -0.216619 0
M  V30 3475 C 347.1 2.0301 0.424462 0
M  V30 3476 C 347.525 1.0955 1.52907 0
M  V30 3477 O 346.883 0.0827914 1.81111 0
M  V30 3478 C 346.931 3.4819 0.937883 0
M  V30 3479 O 346.035 3.57865 2.04955 0
M  V30 3480 H 345.376 0.656925 0.0966755 0
M  V30 3481 H 347.906 2.01859 -0.33381 0
M  V30 3482 H 347.916 3.88413 1.24897 0
M  V30 3483 H 346.591 4.15699 0.129387 0
M  V30 3484 H 345.168 3.29527 1.74546 0
M  V30 3485 N 347.353 -0.0568162 1.57498 0
M  V30 3486 C 348.599 -0.75422 1.88253 0
M  V30 3487 C 348.932 -1.76461 0.810865 0
M  V30 3488 O 348.207 -1.93691 -0.177259 0
M  V30 3489 C 348.49 -1.44878 3.2967 0
M  V30 3490 C 348.343 -0.453789 4.47505 0
M  V30 3491 C 349.662 -2.38994 3.69554 0
M  V30 3492 H 346.781 -0.272724 0.684683 0
M  V30 3493 H 349.423 -0.0172113 1.89992 0
M  V30 3494 H 347.573 -2.077 3.28318 0
M  V30 3495 H 349.245 0.170371 4.60985 0
M  V30 3496 H 347.488 0.229552 4.33192 0
M  V30 3497 H 348.159 -0.977699 5.43273 0
M  V30 3498 H 350.635 -1.86239 3.72095 0
M  V30 3499 H 349.511 -2.84587 4.69363 0
M  V30 3500 H 349.772 -3.24461 3.00296 0
M  V30 3501 N 348.832 -1.54138 -0.328536 0
M  V30 3502 C 350.078 -1.7236 -1.06865 0
M  V30 3503 C 350.411 -0.493231 -1.87832 0
M  V30 3504 O 349.686 0.5098 -1.877 0
M  V30 3505 C 349.969 -2.99621 -1.99747 0
M  V30 3506 C 349.822 -4.32899 -1.22143 0
M  V30 3507 C 351.141 -3.22615 -2.99345 0
M  V30 3508 H 348.26 -0.627151 -0.387105 0
M  V30 3509 H 350.902 -1.86827 -0.345767 0
M  V30 3510 H 349.052 -2.87418 -2.61387 0
M  V30 3511 H 350.724 -4.56978 -0.630017 0
M  V30 3512 H 348.967 -4.30628 -0.523628 0
M  V30 3513 H 349.638 -5.18154 -1.90318 0
M  V30 3514 H 352.114 -3.34248 -2.47826 0
M  V30 3515 H 350.99 -4.13027 -3.61524 0
M  V30 3516 H 351.251 -2.3961 -3.71536 0
M  V30 3517 N 350.31 0.590341 -1.46126 0
M  V30 3518 C 351.556 1.35082 -1.51264 0
M  V30 3519 C 351.889 1.93534 -0.160711 0
M  V30 3520 O 351.164 1.76045 0.826956 0
M  V30 3521 C 351.447 2.48588 -2.6053 0
M  V30 3522 C 351.3 1.95221 -4.05227 0
M  V30 3523 C 352.619 3.50662 -2.6594 0
M  V30 3524 H 349.738 0.489803 -0.550692 0
M  V30 3525 H 352.38 0.663887 -1.78024 0
M  V30 3526 H 350.53 3.07186 -2.37843 0
M  V30 3527 H 352.202 1.41139 -4.39178 0
M  V30 3528 H 350.445 1.26101 -4.15068 0
M  V30 3529 H 351.116 2.77121 -4.77397 0
M  V30 3530 H 353.592 3.01934 -2.86313 0
M  V30 3531 H 352.468 4.27551 -3.44226 0
M  V30 3532 H 352.729 4.07399 -1.71694 0
M  V30 3533 N 351.788 1.33704 0.83433 0
M  V30 3534 C 353.199 1.22813 1.4062 0
M  V30 3535 C 353.55 -0.151107 1.95617 0
M  V30 3536 O 352.675 -1.05092 1.89168 0
M  V30 3537 C 353.27 2.22355 2.55624 0
M  V30 3538 C 351.829 2.1529 3.08751 0
M  V30 3539 C 350.976 2.09589 1.8157 0
M  V30 3540 H 353.927 1.45236 0.639702 0
M  V30 3541 H 353.948 1.83391 3.33389 0
M  V30 3542 H 353.46 3.22728 2.15566 0
M  V30 3543 H 351.561 1.18235 3.53343 0
M  V30 3544 H 351.674 3.06038 3.68616 0
M  V30 3545 H 350.038 1.55134 2.02004 0
M  V30 3546 H 350.821 3.11777 1.43701 0
M  V30 3547 N 353.266 -1.05314 1.17247 0
M  V30 3548 C 354.496 -1.81707 0.983166 0
M  V30 3549 C 354.904 -1.83222 -0.471822 0
M  V30 3550 O 354.247 -1.25721 -1.3394 0
M  V30 3551 C 354.309 -3.29134 1.44606 0
M  V30 3552 C 353.973 -3.51304 2.92292 0
M  V30 3553 C 354.97 -3.4353 3.90235 0
M  V30 3554 C 352.655 -3.78306 3.30439 0
M  V30 3555 C 354.649 -3.62442 5.24323 0
M  V30 3556 C 352.336 -3.96866 4.64694 0
M  V30 3557 C 353.334 -3.88933 5.61445 0
M  V30 3558 O 353.022 -4.06976 6.93272 0
M  V30 3559 H 352.754 -0.579476 0.348114 0
M  V30 3560 H 355.308 -1.33705 1.55924 0
M  V30 3561 H 353.538 -3.78046 0.813537 0
M  V30 3562 H 355.227 -3.87049 1.22262 0
M  V30 3563 H 355.993 -3.22648 3.62109 0
M  V30 3564 H 351.872 -3.83585 2.55702 0
M  V30 3565 H 355.416 -3.56165 5.99827 0
M  V30 3566 H 351.313 -4.1724 4.92525 0
M  V30 3567 H 352.081 -4.24209 6.99992 0
M  V30 3568 N 354.744 -0.972509 -1.24016 0
M  V30 3569 C 355.654 -0.5143 -2.28893 0
M  V30 3570 C 356.67 0.427078 -1.68677 0
M  V30 3571 O 357.846 0.298939 -1.99169 0
M  V30 3572 C 354.911 0.183598 -3.46214 0
M  V30 3573 C 353.972 -0.798202 -4.21814 0
M  V30 3574 C 353.205 -0.133514 -5.33533 0
M  V30 3575 O 353.428 1.07714 -5.60137 0
M  V30 3576 O 352.362 -0.828103 -5.96176 0
M  V30 3577 H 356.188 -1.38629 -2.70214 0
M  V30 3578 H 353.773 -0.739769 -1.29799 0
M  V30 3579 H 355.655 0.575433 -4.17453 0
M  V30 3580 H 354.33 1.03048 -3.0686 0
M  V30 3581 H 353.237 -1.24059 -3.52931 0
M  V30 3582 H 354.57 -1.61364 -4.64997 0
M  V30 3583 N 356.222 1.38976 -0.743202 0
M  V30 3584 C 357.633 1.83123 -0.363732 0
M  V30 3585 C 357.984 1.6205 1.10609 0
M  V30 3586 O 357.109 1.11606 1.854 0
M  V30 3587 C 357.704 3.32439 -0.653408 0
M  V30 3588 C 356.263 3.74974 -0.327338 0
M  V30 3589 C 355.41 2.61878 -0.911875 0
M  V30 3590 H 358.361 1.27852 -0.940191 0
M  V30 3591 H 358.382 3.80432 0.0720031 0
M  V30 3592 H 357.894 3.47745 -1.72323 0
M  V30 3593 H 355.995 3.65252 0.736314 0
M  V30 3594 H 356.108 4.72106 -0.815631 0
M  V30 3595 H 354.472 2.52448 -0.337944 0
M  V30 3596 H 355.255 2.79987 -1.98651 0
M  V30 3597 N 357.7 0.491464 1.49741 0
M  V30 3598 C 359.111 0.0413169 1.86654 0
M  V30 3599 C 359.462 -1.36985 1.40462 0
M  V30 3600 O 358.587 -2.01917 0.778354 0
M  V30 3601 C 359.182 0.0682023 3.38731 0
M  V30 3602 C 357.741 -0.32656 3.74981 0
M  V30 3603 C 356.888 0.444888 2.73708 0
M  V30 3604 H 359.839 0.704733 1.42194 0
M  V30 3605 H 359.86 -0.729322 3.73445 0
M  V30 3606 H 359.372 1.09539 3.72321 0
M  V30 3607 H 357.473 -1.35734 3.46997 0
M  V30 3608 H 357.586 -0.013741 4.79098 0
M  V30 3609 H 355.95 -0.104062 2.54487 0
M  V30 3610 H 356.733 1.47197 3.10142 0
M  V30 3611 N 359.178 -1.55987 0.224894 0
M  V30 3612 C 360.11 -2.17722 -0.716224 0
M  V30 3613 C 361.123 -1.14723 -1.15509 0
M  V30 3614 O 362.312 -1.41688 -1.08567 0
M  V30 3615 C 359.412 -2.74873 -1.98238 0
M  V30 3616 C 358.585 -4.03074 -1.69853 0
M  V30 3617 C 357.644 -4.44757 -2.81208 0
M  V30 3618 O 356.67 -5.11587 -2.49534 0
M  V30 3619 N 357.872 -4.10716 -4.10235 0
M  V30 3620 H 360.637 -2.99109 -0.188123 0
M  V30 3621 H 358.198 -1.6184 0.0440123 0
M  V30 3622 H 360.19 -2.99727 -2.7193 0
M  V30 3623 H 358.76 -1.9777 -2.42086 0
M  V30 3624 H 357.98 -3.86041 -0.797875 0
M  V30 3625 H 359.268 -4.86701 -1.48324 0
M  V30 3626 H 358.666 -3.57019 -4.38809 0
M  V30 3627 H 357.223 -4.40455 -4.80461 0
M  V30 3628 N 360.656 0.0484629 -1.57525 0
M  V30 3629 C 361.902 0.744226 -1.88651 0
M  V30 3630 C 362.235 1.76029 -0.820212 0
M  V30 3631 O 361.51 1.93782 0.166985 0
M  V30 3632 C 361.793 1.43128 -3.30434 0
M  V30 3633 C 361.646 0.43005 -4.47739 0
M  V30 3634 C 362.965 2.37031 -3.70816 0
M  V30 3635 H 360.084 0.269089 -0.68612 0
M  V30 3636 H 362.726 0.00713532 -1.89999 0
M  V30 3637 H 360.876 2.05956 -3.29415 0
M  V30 3638 H 362.548 -0.194816 -4.60888 0
M  V30 3639 H 360.791 -0.252522 -4.33064 0
M  V30 3640 H 361.462 0.948874 -5.43783 0
M  V30 3641 H 363.938 1.84263 -3.73077 0
M  V30 3642 H 362.814 2.82094 -4.70865 0
M  V30 3643 H 363.075 3.22864 -3.02012 0
M  V30 3644 N 362.134 1.5431 0.320358 0
M  V30 3645 C 363.382 1.72327 1.05583 0
M  V30 3646 C 363.703 0.50149 1.88441 0
M  V30 3647 O 362.973 -0.48448 1.89815 0
M  V30 3648 H 361.553 0.635387 0.3928 0
M  V30 3649 H 364.215 1.91621 0.356019 0
M  V30 3650 H 363.311 2.60426 1.72003 0
M  V30 3651 N 363.613 -0.582584 1.46437 0
M  V30 3652 C 364.841 -1.36682 1.55324 0
M  V30 3653 C 365.256 -1.87796 0.194409 0
M  V30 3654 O 364.613 -1.63623 -0.808318 0
M  V30 3655 C 364.664 -2.55426 2.55812 0
M  V30 3656 O 364.385 -2.0643 3.86417 0
M  V30 3657 C 365.886 -3.47976 2.74641 0
M  V30 3658 H 363.106 -0.417545 0.525259 0
M  V30 3659 H 365.65 -0.708219 1.91845 0
M  V30 3660 H 363.805 -3.17275 2.22295 0
M  V30 3661 H 364.219 -2.83762 4.41111 0
M  V30 3662 H 365.693 -4.27775 3.48874 0
M  V30 3663 H 366.17 -3.99919 1.81553 0
M  V30 3664 H 366.776 -2.91962 3.09255 0
M  V30 3665 N 365.091 -1.34144 -0.827227 0
M  V30 3666 C 366.001 -1.27428 -1.96975 0
M  V30 3667 C 367.017 -0.182728 -1.73038 0
M  V30 3668 O 368.193 -0.408426 -1.97215 0
M  V30 3669 C 365.258 -1.02526 -3.31194 0
M  V30 3670 C 364.319 -2.20796 -3.68168 0
M  V30 3671 C 363.552 -1.97073 -4.95982 0
M  V30 3672 O 363.775 -0.926822 -5.6282 0
M  V30 3673 O 362.709 -2.83912 -5.30733 0
M  V30 3674 H 366.535 -2.23537 -2.05584 0
M  V30 3675 H 364.12 -1.14307 -0.961989 0
M  V30 3676 H 366.002 -0.904026 -4.11589 0
M  V30 3677 H 364.677 -0.0945389 -3.23562 0
M  V30 3678 H 363.584 -2.38477 -2.88235 0
M  V30 3679 H 364.917 -3.12243 -3.8048 0
M  V30 3680 N 366.569 1.04691 -1.17803 0
M  V30 3681 C 367.816 1.77782 -0.969532 0
M  V30 3682 C 368.144 1.87926 0.501401 0
M  V30 3683 O 367.399 1.37918 1.38842 0
M  V30 3684 C 367.698 3.21467 -1.56186 0
M  V30 3685 C 367.364 3.3137 -3.05786 0
M  V30 3686 C 366.026 3.3378 -3.46619 0
M  V30 3687 C 368.378 3.31976 -4.01797 0
M  V30 3688 C 365.706 3.34431 -4.82051 0
M  V30 3689 C 368.058 3.34167 -5.37136 0
M  V30 3690 C 366.722 3.34866 -5.77426 0
M  V30 3691 H 365.992 0.650549 -0.354777 0
M  V30 3692 H 368.639 1.23006 -1.46772 0
M  V30 3693 H 366.944 3.79203 -0.985515 0
M  V30 3694 H 368.641 3.76652 -1.37602 0
M  V30 3695 H 365.231 3.3021 -2.73238 0
M  V30 3696 H 369.415 3.29311 -3.71306 0
M  V30 3697 H 364.671 3.33285 -5.12573 0
M  V30 3698 H 368.845 3.33585 -6.11305 0
M  V30 3699 H 366.472 3.35124 -6.82346 0
M  V30 3700 N 368.047 0.979072 1.23499 0
M  V30 3701 C 369.275 0.665202 1.95915 0
M  V30 3702 C 369.69 -0.767571 1.72493 0
M  V30 3703 O 369.047 -1.51635 1.01554 0
M  V30 3704 C 369.098 0.944438 3.48945 0
M  V30 3705 O 368.819 2.3209 3.71572 0
M  V30 3706 C 370.32 0.646336 4.38563 0
M  V30 3707 H 367.54 0.247218 0.623798 0
M  V30 3708 H 370.084 1.31009 1.57025 0
M  V30 3709 H 368.239 0.345575 3.85856 0
M  V30 3710 H 368.653 2.40957 4.65876 0
M  V30 3711 H 370.127 0.892091 5.44744 0
M  V30 3712 H 370.604 -0.419575 4.37191 0
M  V30 3713 H 371.21 1.22562 4.07258 0
M  V30 3714 N 369.525 -1.3858 0.750561 0
M  V30 3715 C 370.753 -2.04471 0.316098 0
M  V30 3716 C 371.168 -1.56606 -1.05452 0
M  V30 3717 O 370.525 -0.737784 -1.66922 0
M  V30 3718 C 370.576 -3.60025 0.326275 0
M  V30 3719 O 370.297 -4.06133 1.6428 0
M  V30 3720 C 371.798 -4.43131 -0.122429 0
M  V30 3721 H 369.018 -0.65717 0.135528 0
M  V30 3722 H 371.562 -1.77329 1.01857 0
M  V30 3723 H 369.717 -3.86014 -0.327431 0
M  V30 3724 H 370.131 -5.00547 1.56693 0
M  V30 3725 H 371.605 -5.51963 -0.0641473 0
M  V30 3726 H 372.082 -4.23333 -1.16988 0
M  V30 3727 H 372.688 -4.22323 0.50229 0
M  V30 3728 N 371.003 -0.499398 -1.49478 0
M  V30 3729 C 372.252 0.0475259 -2.01644 0
M  V30 3730 C 372.565 1.38195 -1.38425 0
M  V30 3731 O 373.771 2.01547 -1.8191 0
M  V30 3732 C 372.227 0.135164 -3.59646 0
M  V30 3733 C 371.835 -1.19252 -4.31837 0
M  V30 3734 C 373.579 0.632538 -4.19761 0
M  V30 3735 C 371.486 -1.06713 -5.81693 0
M  V30 3736 H 370.416 0.0215349 -0.753692 0
M  V30 3737 H 373.067 -0.638577 -1.7203 0
M  V30 3738 H 371.449 0.885681 -3.85969 0
M  V30 3739 H 372.623 -1.9562 -4.17216 0
M  V30 3740 H 370.938 -1.62321 -3.83459 0
M  V30 3741 H 373.535 0.743833 -5.29501 0
M  V30 3742 H 373.878 1.63098 -3.83021 0
M  V30 3743 H 374.411 -0.0613987 -3.97753 0
M  V30 3744 H 371.15 -2.03979 -6.22955 0
M  V30 3745 H 370.67 -0.344307 -5.98811 0
M  V30 3746 H 372.349 -0.745208 -6.42694 0
M  V30 3747 N 372.481 1.55866 -0.233164 0
M  V30 3748 C 373.411 2.23783 0.666599 0
M  V30 3749 C 374.392 1.21343 1.19205 0
M  V30 3750 O 375.577 1.4996 1.23392 0
M  V30 3751 C 372.707 2.92671 1.86978 0
M  V30 3752 C 371.661 4.01682 1.47768 0
M  V30 3753 C 370.987 4.57926 2.76058 0
M  V30 3754 C 372.287 5.18126 0.658993 0
M  V30 3755 H 373.981 2.99232 0.100306 0
M  V30 3756 H 371.527 1.43924 0.046804 0
M  V30 3757 H 373.48 3.3888 2.50476 0
M  V30 3758 H 372.204 2.14688 2.46123 0
M  V30 3759 H 370.863 3.56222 0.866106 0
M  V30 3760 H 370.511 3.76659 3.33372 0
M  V30 3761 H 370.211 5.31505 2.50552 0
M  V30 3762 H 371.735 5.06859 3.40479 0
M  V30 3763 H 373.149 5.60644 1.19795 0
M  V30 3764 H 371.546 5.98009 0.500552 0
M  V30 3765 H 372.616 4.83763 -0.331856 0
M  V30 3766 N 373.959 -0.0401083 1.57549 0
M  V30 3767 C 375.189 -0.744115 1.92734 0
M  V30 3768 C 375.597 -1.70005 0.830348 0
M  V30 3769 O 374.94 -1.82576 -0.20286 0
M  V30 3770 C 375.002 -1.56516 3.2364 0
M  V30 3771 C 374.666 -0.7752 4.50377 0
M  V30 3772 C 375.663 -0.0803326 5.19838 0
M  V30 3773 C 373.348 -0.733002 4.96923 0
M  V30 3774 C 375.342 0.646154 6.34116 0
M  V30 3775 C 373.029 -0.00276321 6.111 0
M  V30 3776 C 374.027 0.685585 6.7955 0
M  V30 3777 O 373.715 1.40399 7.91545 0
M  V30 3778 H 373.447 -0.214861 0.640945 0
M  V30 3779 H 376.001 -0.00503675 2.05399 0
M  V30 3780 H 374.231 -2.3478 3.07271 0
M  V30 3781 H 375.92 -2.15076 3.44234 0
M  V30 3782 H 376.686 -0.104035 4.84888 0
M  V30 3783 H 372.565 -1.25827 4.43496 0
M  V30 3784 H 376.109 1.18398 6.87479 0
M  V30 3785 H 372.006 0.0229012 6.45496 0
M  V30 3786 H 372.774 1.31653 8.07843 0
M  V30 3787 N 375.437 -1.54477 -0.31217 0
M  V30 3788 C 376.385 -1.85395 -1.40469 0
M  V30 3789 C 377.379 -0.726749 -1.53019 0
M  V30 3790 O 378.585 -0.910582 -1.55269 0
M  V30 3791 H 374.96 -0.587845 -0.46898 0
M  V30 3792 H 376.931 -2.76736 -1.11623 0
M  V30 3793 C 375.68 -2.10811 -2.76503 0
M  V30 3794 H 375.003 -2.97014 -2.67625 0
M  V30 3795 H 376.443 -2.3639 -3.51988 0
M  V30 3796 C 374.902 -0.903165 -3.24568 0
M  V30 3797 O 375.432 -0.118085 -4.01526 0
M  V30 3798 N 373.638 -0.711634 -2.81752 0
M  V30 3799 H 373.185 -1.35171 -2.19286 0
M  V30 3800 H 373.143 0.0930473 -3.14262 0
M  V30 3801 N 376.915 0.57481 -1.46744 0
M  V30 3802 C 378.162 1.33272 -1.52462 0
M  V30 3803 C 378.49 1.93669 -0.179572 0
M  V30 3804 O 377.745 1.7743 0.825664 0
M  V30 3805 C 378.044 2.476 -2.57738 0
M  V30 3806 C 377.71 2.05146 -4.01529 0
M  V30 3807 C 376.372 1.93284 -4.40676 0
M  V30 3808 C 378.724 1.72506 -4.91824 0
M  V30 3809 C 376.052 1.47049 -5.67973 0
M  V30 3810 C 378.404 1.27748 -6.19567 0
M  V30 3811 C 377.068 1.14468 -6.57612 0
M  V30 3812 H 376.338 0.487678 -0.557899 0
M  V30 3813 H 378.985 0.646456 -1.80259 0
M  V30 3814 H 377.29 3.21708 -2.23632 0
M  V30 3815 H 378.987 3.05807 -2.5939 0
M  V30 3816 H 375.577 2.15316 -3.7059 0
M  V30 3817 H 379.761 1.80552 -4.62293 0
M  V30 3818 H 375.017 1.35417 -5.96215 0
M  V30 3819 H 379.191 1.01547 -6.88957 0
M  V30 3820 H 376.818 0.78419 -7.56145 0
M  V30 3821 N 378.394 1.34581 0.820102 0
M  V30 3822 C 379.327 1.20735 1.93644 0
M  V30 3823 C 380.305 0.0983343 1.62302 0
M  V30 3824 O 381.489 0.263997 1.86642 0
M  V30 3825 C 378.616 0.856037 3.27704 0
M  V30 3826 C 377.662 1.97521 3.78005 0
M  V30 3827 S 378.495 3.58906 3.97425 0
M  V30 3828 C 379.651 3.25822 5.34407 0
M  V30 3829 H 379.884 2.15231 2.05093 0
M  V30 3830 H 377.417 1.1964 0.97599 0
M  V30 3831 H 379.375 0.660133 4.05157 0
M  V30 3832 H 378.036 -0.0706253 3.14021 0
M  V30 3833 H 377.229 1.68321 4.75062 0
M  V30 3834 H 376.831 2.12875 3.07507 0
M  V30 3835 H 379.123 2.77812 6.17922 0
M  V30 3836 H 380.066 4.22029 5.68592 0
M  V30 3837 H 380.474 2.61932 5.00052 0
M  V30 3838 N 379.872 -1.04064 1.18357 0
M  V30 3839 C 381.112 -1.78829 0.989921 0
M  V30 3840 C 381.476 -1.86106 -0.472095 0
M  V30 3841 O 382.677 -2.57076 -0.785187 0
M  V30 3842 C 380.948 -3.1823 1.6268 0
M  V30 3843 S 382.507 -4.09332 1.58091 0
M  V30 3844 H 379.325 -0.615754 0.355482 0
M  V30 3845 H 381.927 -1.24778 1.50501 0
M  V30 3846 H 380.631 -3.10543 2.68311 0
M  V30 3847 H 380.162 -3.77357 1.112 0
M  V30 3848 H 382.177 -4.92598 0.596817 0
M  V30 3849 N 381.35 -0.985608 -1.22978 0
M  V30 3850 C 382.298 -0.522631 -2.26652 0
M  V30 3851 C 383.292 0.422998 -1.64034 0
M  V30 3852 O 384.498 0.296319 -1.77544 0
M  V30 3853 H 380.873 -0.150597 -0.736766 0
M  V30 3854 H 382.844 -1.40863 -2.63059 0
M  V30 3855 C 381.593 0.154238 -3.47358 0
M  V30 3856 H 380.916 -0.564329 -3.95797 0
M  V30 3857 H 382.356 0.441744 -4.21693 0
M  V30 3858 C 380.815 1.38719 -3.07016 0
M  V30 3859 O 381.345 2.48307 -3.15764 0
M  V30 3860 N 379.551 1.25975 -2.61875 0
M  V30 3861 H 379.098 0.368068 -2.54957 0
M  V30 3862 H 379.056 2.08578 -2.3525 0
M  V30 3863 N 382.828 1.3818 -0.7579 0
M  V30 3864 C 384.053 2.04827 -0.325679 0
M  V30 3865 C 384.478 1.56788 1.03919 0
M  V30 3866 O 383.836 0.721811 1.66312 0
M  V30 3867 C 383.884 3.58774 -0.362447 0
M  V30 3868 O 382.988 4.07372 0.642033 0
M  V30 3869 H 382.329 0.64833 -0.143402 0
M  V30 3870 H 384.859 1.7677 -1.03023 0
M  V30 3871 H 384.869 4.07434 -0.214844 0
M  V30 3872 H 383.544 3.93096 -1.35824 0
M  V30 3873 H 382.121 3.70068 0.458688 0
M  V30 3874 N 384.306 0.507319 1.49211 0
M  V30 3875 C 385.531 -0.033725 2.07373 0
M  V30 3876 C 385.956 -1.29485 1.36437 0
M  V30 3877 O 385.314 -1.76294 0.423087 0
M  V30 3878 C 385.362 -0.263945 3.59633 0
M  V30 3879 O 384.466 -1.33737 3.90113 0
M  V30 3880 H 383.807 0.0290331 0.663365 0
M  V30 3881 H 386.337 0.708749 1.91932 0
M  V30 3882 H 386.347 -0.493536 4.05004 0
M  V30 3883 H 385.022 0.657424 4.10671 0
M  V30 3884 H 383.599 -1.09224 3.56545 0
M  V30 3885 N 385.784 -1.5574 0.241426 0
M  V30 3886 C 387.024 -2.00714 -0.38644 0
M  V30 3887 C 387.388 -1.12586 -1.55526 0
M  V30 3888 O 388.589 -1.46992 -2.25048 0
M  V30 3889 C 386.86 -3.48534 -0.791128 0
M  V30 3890 S 388.419 -4.15519 -1.41029 0
M  V30 3891 H 385.237 -0.700484 -0.121834 0
M  V30 3892 H 387.839 -1.92243 0.355377 0
M  V30 3893 H 386.543 -4.10342 0.0689225 0
M  V30 3894 H 386.074 -3.6092 -1.56526 0
M  V30 3895 H 388.089 -4.16352 -2.69936 0
M  V30 3896 N 387.262 0.0317525 -1.57568 0
M  V30 3897 C 388.508 0.724175 -1.8943 0
M  V30 3898 C 388.841 1.75149 -0.838836 0
M  V30 3899 O 388.116 1.93948 0.146422 0
M  V30 3900 C 388.399 1.39615 -3.31933 0
M  V30 3901 C 388.252 0.382537 -4.4817 0
M  V30 3902 C 389.571 2.33084 -3.73309 0
M  V30 3903 H 386.69 0.261797 -0.688935 0
M  V30 3904 H 389.332 -0.013017 -1.89996 0
M  V30 3905 H 387.482 2.02451 -3.31581 0
M  V30 3906 H 389.154 -0.243689 -4.60656 0
M  V30 3907 H 387.397 -0.29844 -4.32772 0
M  V30 3908 H 388.068 0.891145 -5.44759 0
M  V30 3909 H 390.544 1.80295 -3.7501 0
M  V30 3910 H 389.42 2.77084 -4.73831 0
M  V30 3911 H 389.681 3.19643 -3.05419 0
M  V30 3912 N 388.74 1.54641 0.303973 0
M  V30 3913 C 389.988 1.73437 1.0375 0
M  V30 3914 C 390.309 0.521449 1.87899 0
M  V30 3915 O 389.579 -0.46432 1.90318 0
M  V30 3916 H 388.159 0.639518 0.386039 0
M  V30 3917 H 390.821 1.91988 0.335675 0
M  V30 3918 H 389.917 2.62235 1.69231 0
M  V30 3919 N 390.218 -0.567019 1.47046 0
M  V30 3920 C 391.466 -1.322 1.52864 0
M  V30 3921 C 391.787 -1.94088 0.188388 0
M  V30 3922 O 391.057 -1.7941 -0.786693 0
M  V30 3923 H 389.637 -0.490894 0.563056 0
M  V30 3924 H 392.299 -0.662879 1.83281 0
M  V30 3925 H 391.395 -2.12062 2.2899 0
M  V30 3926 N 391.696 -1.35014 -0.812953 0
M  V30 3927 C 392.629 -1.21761 -1.93001 0
M  V30 3928 C 393.607 -0.10694 -1.62248 0
M  V30 3929 O 394.791 -0.273891 -1.865 0
M  V30 3930 C 391.918 -0.873404 -3.27245 0
M  V30 3931 C 390.964 -1.99523 -3.76952 0
M  V30 3932 S 391.797 -3.61009 -3.95516 0
M  V30 3933 C 392.953 -3.28651 -5.32672 0
M  V30 3934 H 393.186 -2.16315 -2.03948 0
M  V30 3935 H 390.719 -1.20156 -0.969631 0
M  V30 3936 H 392.677 -0.68161 -4.04802 0
M  V30 3937 H 391.338 0.053971 -3.14054 0
M  V30 3938 H 390.531 -1.70838 -4.74163 0
M  V30 3939 H 390.133 -2.14503 -3.06373 0
M  V30 3940 H 392.425 -2.81085 -6.1644 0
M  V30 3941 H 393.368 -4.25039 -5.66346 0
M  V30 3942 H 393.776 -2.6458 -4.98656 0
M  V30 3943 N 393.175 1.03435 -1.18907 0
M  V30 3944 C 394.123 2.13703 -0.918353 0
M  V30 3945 C 395.117 1.68947 0.123767 0
M  V30 3946 O 396.323 1.79983 -0.0249701 0
M  V30 3947 H 392.698 0.698112 -0.279542 0
M  V30 3948 H 394.669 2.33731 -1.85506 0
M  V30 3949 C 393.418 3.44542 -0.467532 0
M  V30 3950 H 392.741 3.79394 -1.26095 0
M  V30 3951 H 394.181 4.22812 -0.317164 0
M  V30 3952 C 392.64 3.26829 0.817588 0
M  V30 3953 O 393.17 3.54975 1.88031 0
M  V30 3954 N 391.376 2.80139 0.772677 0
M  V30 3955 H 390.923 2.57434 -0.0923883 0
M  V30 3956 H 390.881 2.68668 1.63294 0
M  V30 3957 N 394.653 0.992116 1.22453 0
M  V30 3958 C 396.069 0.702713 1.43297 0
M  V30 3959 C 396.269 -0.726909 1.87932 0
M  V30 3960 O 395.325 -1.49792 2.0327 0
M  V30 3961 C 396.638 1.70762 2.47509 0
M  V30 3962 C 398.186 1.72298 2.61309 0
M  V30 3963 C 398.661 2.71649 3.68742 0
M  V30 3964 N 400.152 2.70239 3.76199 0
M  V30 3965 C 400.887 3.43778 4.58917 0
M  V30 3966 N 400.383 4.26914 5.45633 0
M  V30 3967 N 402.176 3.32487 4.5322 0
M  V30 3968 H 394.327 1.91543 0.917871 0
M  V30 3969 H 396.59 0.826031 0.465162 0
M  V30 3970 H 396.296 2.73059 2.21657 0
M  V30 3971 H 396.17 1.49985 3.46099 0
M  V30 3972 H 398.557 0.706989 2.86506 0
M  V30 3973 H 398.638 1.97143 1.62997 0
M  V30 3974 H 398.282 3.73397 3.44292 0
M  V30 3975 H 398.212 2.44074 4.66622 0
M  V30 3976 H 400.703 2.09912 3.14237 0
M  V30 3977 H 401.016 4.79855 6.05771 0
M  V30 3978 H 399.361 4.31002 5.45218 0
M  V30 3979 H 402.552 2.6698 3.84499 0
M  V30 3980 H 402.725 3.90058 5.17454 0
M  V30 3981 N 396.131 -1.37776 0.765217 0
M  V30 3982 C 397.547 -1.53297 0.444108 0
M  V30 3983 C 397.747 -1.72515 -1.04119 0
M  V30 3984 O 396.803 -1.74278 -1.82711 0
M  V30 3985 C 398.116 -2.73328 1.25349 0
M  V30 3986 C 399.664 -2.87185 1.24473 0
M  V30 3987 C 400.139 -4.10191 2.03733 0
M  V30 3988 N 401.63 -4.17291 2.01053 0
M  V30 3989 C 402.365 -5.11488 2.59166 0
M  V30 3990 N 401.861 -6.11285 3.26041 0
M  V30 3991 N 403.654 -5.03924 2.49032 0
M  V30 3992 H 395.805 -1.23552 1.72768 0
M  V30 3993 H 398.068 -0.601103 0.733062 0
M  V30 3994 H 397.774 -2.6557 2.30577 0
M  V30 3995 H 397.648 -3.66834 0.87823 0
M  V30 3996 H 400.035 -2.94418 0.20047 0
M  V30 3997 H 400.116 -1.94657 1.65959 0
M  V30 3998 H 399.76 -4.0372 3.08176 0
M  V30 3999 H 399.69 -5.01821 1.59633 0
M  V30 4000 H 402.181 -3.45825 1.5236 0
M  V30 4001 H 402.494 -6.79678 3.67774 0
M  V30 4002 H 400.839 -6.11583 3.30138 0
M  V30 4003 H 404.03 -4.24902 1.96407 0
M  V30 4004 H 404.203 -5.77152 2.94617 0
M  V30 4005 N 397.609 -0.515225 -1.4894 0
M  V30 4006 C 399.02 -0.0710067 -1.86565 0
M  V30 4007 C 399.371 1.34733 -1.42623 0
M  V30 4008 O 398.496 2.00653 -0.810379 0
M  V30 4009 C 399.091 -0.122083 -3.3858 0
M  V30 4010 C 397.65 0.266863 -3.75453 0
M  V30 4011 C 396.797 -0.488376 -2.72966 0
M  V30 4012 H 399.748 -0.727266 -1.41055 0
M  V30 4013 H 399.769 0.669818 -3.74558 0
M  V30 4014 H 399.281 -1.15448 -3.70531 0
M  V30 4015 H 397.382 1.30196 -3.49113 0
M  V30 4016 H 397.495 -0.0624811 -4.79059 0
M  V30 4017 H 395.859 0.0635622 -2.54621 0
M  V30 4018 H 396.642 -1.52113 -3.07761 0
M  V30 4019 N 399.087 1.5561 -0.249682 0
M  V30 4020 C 400.336 1.98187 0.37479 0
M  V30 4021 C 400.649 1.14111 1.58865 0
M  V30 4022 O 401.855 1.46714 2.28445 0
M  V30 4023 C 400.311 3.52661 0.718192 0
M  V30 4024 C 399.919 4.45481 -0.474428 0
M  V30 4025 C 401.663 4.03888 1.3067 0
M  V30 4026 C 399.57 5.91303 -0.107026 0
M  V30 4027 H 398.5 0.740159 0.143808 0
M  V30 4028 H 401.151 1.80125 -0.350336 0
M  V30 4029 H 399.533 3.66429 1.50152 0
M  V30 4030 H 400.707 4.43473 -1.25172 0
M  V30 4031 H 399.022 4.04751 -0.978052 0
M  V30 4032 H 401.619 5.10358 1.59496 0
M  V30 4033 H 401.962 3.51401 2.23211 0
M  V30 4034 H 402.495 3.93457 0.586211 0
M  V30 4035 H 399.234 6.47833 -0.999642 0
M  V30 4036 H 398.754 5.9644 0.634013 0
M  V30 4037 H 400.433 6.46258 0.309807 0
M  V30 4038 N 400.565 -0.0233959 1.57583 0
M  V30 4039 C 401.495 -1.02162 2.09965 0
M  V30 4040 C 402.476 -1.3735 1.00344 0
M  V30 4041 O 403.661 -1.46135 1.27899 0
M  V30 4042 C 400.791 -2.32081 2.58371 0
M  V30 4043 C 399.745 -2.1112 3.72307 0
M  V30 4044 C 399.071 -3.46848 4.06941 0
M  V30 4045 C 400.371 -1.49276 5.00514 0
M  V30 4046 H 402.065 -0.585557 2.93618 0
M  V30 4047 H 399.611 -0.280218 1.41247 0
M  V30 4048 H 401.564 -3.02249 2.93639 0
M  V30 4049 H 400.288 -2.77758 1.71808 0
M  V30 4050 H 398.947 -1.43384 3.37397 0
M  V30 4051 H 398.595 -3.90184 3.17436 0
M  V30 4052 H 398.295 -3.33646 4.83688 0
M  V30 4053 H 399.819 -4.18369 4.44747 0
M  V30 4054 H 401.233 -2.09368 5.33702 0
M  V30 4055 H 399.63 -1.46632 5.8191 0
M  V30 4056 H 400.7 -0.459217 4.82721 0
M  V30 4057 N 402.043 -1.548 -0.295768 0
M  V30 4058 C 403.292 -1.73538 -1.02798 0
M  V30 4059 C 403.605 -0.531159 -1.8825 0
M  V30 4060 O 404.811 -0.600458 -2.64777 0
M  V30 4061 C 403.267 -3.07051 -1.87744 0
M  V30 4062 C 402.875 -4.34968 -1.07269 0
M  V30 4063 C 404.619 -3.35146 -2.60533 0
M  V30 4064 C 402.526 -5.5953 -1.91521 0
M  V30 4065 H 401.456 -0.646794 -0.387522 0
M  V30 4066 H 404.107 -1.81278 -0.284718 0
M  V30 4067 H 402.489 -2.93289 -2.66078 0
M  V30 4068 H 403.663 -4.5958 -0.335117 0
M  V30 4069 H 401.978 -4.13847 -0.460384 0
M  V30 4070 H 404.575 -4.2541 -3.23929 0
M  V30 4071 H 404.918 -2.54255 -3.29636 0
M  V30 4072 H 405.451 -3.49902 -1.89244 0
M  V30 4073 H 402.19 -6.43103 -1.26878 0
M  V30 4074 H 401.71 -5.39096 -2.62937 0
M  V30 4075 H 403.389 -5.96982 -2.49442 0
M  V30 4076 N 403.521 0.559213 -1.47345 0
M  V30 4077 C 404.77 1.31281 -1.53128 0
M  V30 4078 C 405.083 1.94602 -0.197344 0
M  V30 4079 O 406.289 2.71173 -0.133154 0
M  V30 4080 C 404.745 2.38051 -2.69925 0
M  V30 4081 C 404.353 1.8093 -4.0984 0
M  V30 4082 C 406.097 3.14604 -2.84999 0
M  V30 4083 C 404.004 2.85468 -5.1794 0
M  V30 4084 H 402.934 0.493614 -0.569966 0
M  V30 4085 H 405.585 0.594155 -1.73615 0
M  V30 4086 H 403.967 3.12822 -2.42814 0
M  V30 4087 H 405.141 1.12544 -4.46845 0
M  V30 4088 H 403.456 1.16967 -3.99634 0
M  V30 4089 H 406.053 3.92666 -3.62929 0
M  V30 4090 H 406.396 3.68665 -1.93369 0
M  V30 4091 H 406.929 2.46945 -3.1187 0
M  V30 4092 H 403.668 2.36264 -6.1144 0
M  V30 4093 H 403.188 3.52269 -4.85455 0
M  V30 4094 H 404.867 3.48996 -5.44803 0
M  V30 4095 N 404.999 1.35443 0.805782 0
M  V30 4096 C 406.248 1.28097 1.55801 0
M  V30 4097 C 406.561 -0.142428 1.95081 0
M  V30 4098 O 407.767 -0.33817 2.69386 0
M  V30 4099 C 406.223 2.24653 2.81174 0
M  V30 4100 C 405.831 3.72342 2.49129 0
M  V30 4101 C 407.575 2.2625 3.59181 0
M  V30 4102 C 405.482 4.60719 3.70799 0
M  V30 4103 H 404.412 0.475937 0.584808 0
M  V30 4104 H 407.063 1.60712 0.885661 0
M  V30 4105 H 405.445 1.85011 3.50124 0
M  V30 4106 H 406.619 4.20624 1.88181 0
M  V30 4107 H 404.934 3.73361 1.84366 0
M  V30 4108 H 407.531 2.89495 4.49552 0
M  V30 4109 H 407.874 1.26647 3.96568 0
M  V30 4110 H 408.407 2.64426 2.97193 0
M  V30 4111 H 405.146 5.61324 3.3852 0
M  V30 4112 H 404.666 4.17163 4.3097 0
M  V30 4113 H 406.345 4.76182 4.38018 0
M  V30 4114 N 406.477 -1.02803 1.19454 0
M  V30 4115 C 407.705 -1.79841 1.02297 0
M  V30 4116 C 408.12 -1.83879 -0.428259 0
M  V30 4117 O 407.477 -1.28345 -1.29745 0
M  V30 4118 C 407.528 -3.24852 1.58598 0
M  V30 4119 O 407.249 -3.21097 2.98041 0
M  V30 4120 C 408.75 -4.18485 1.46236 0
M  V30 4121 H 405.97 -0.565936 0.360496 0
M  V30 4122 H 408.514 -1.2948 1.58288 0
M  V30 4123 H 406.669 -3.72401 1.06753 0
M  V30 4124 H 407.083 -4.12033 3.24545 0
M  V30 4125 H 408.557 -5.18121 1.90407 0
M  V30 4126 H 409.034 -4.37254 0.41301 0
M  V30 4127 H 409.64 -3.76811 1.97215 0
M  V30 4128 N 407.956 -0.998596 -1.21925 0
M  V30 4129 C 408.886 -0.573688 -2.26343 0
M  V30 4130 C 409.867 0.402296 -1.65274 0
M  V30 4131 O 411.052 0.291683 -1.91997 0
M  V30 4132 C 408.182 0.106839 -3.47136 0
M  V30 4133 C 407.136 -0.788269 -4.20678 0
M  V30 4134 C 406.462 0.0254927 -5.34694 0
M  V30 4135 C 407.762 -2.08784 -4.78755 0
M  V30 4136 H 409.456 -1.44651 -2.62138 0
M  V30 4137 H 407.002 -0.696975 -1.26009 0
M  V30 4138 H 408.955 0.415531 -4.19346 0
M  V30 4139 H 407.679 1.01424 -3.10452 0
M  V30 4140 H 406.338 -1.08069 -3.50309 0
M  V30 4141 H 405.986 0.933989 -4.94253 0
M  V30 4142 H 405.686 -0.570437 -5.84825 0
M  V30 4143 H 407.21 0.328147 -6.09718 0
M  V30 4144 H 408.624 -1.84272 -5.42878 0
M  V30 4145 H 407.021 -2.63307 -5.39249 0
M  V30 4146 H 408.091 -2.76284 -3.98491 0
M  V30 4147 N 409.434 1.37368 -0.772513 0
M  V30 4148 C 410.344 2.34053 -0.160081 0
M  V30 4149 C 411.36 1.60216 0.678728 0
M  V30 4150 O 412.536 1.92303 0.59847 0
M  V30 4151 C 409.601 3.3939 0.708182 0
M  V30 4152 C 408.662 4.29048 -0.147172 0
M  V30 4153 C 407.895 5.29354 0.679744 0
M  V30 4154 O 408.118 5.3723 1.91678 0
M  V30 4155 O 407.052 6.01835 0.0885444 0
M  V30 4156 H 410.878 2.88159 -0.959053 0
M  V30 4157 H 408.463 1.39543 -0.533685 0
M  V30 4158 H 410.345 4.03839 1.20384 0
M  V30 4159 H 409.02 2.8761 1.48533 0
M  V30 4160 H 407.927 3.67697 -0.689205 0
M  V30 4161 H 409.26 4.84134 -0.887423 0
M  V30 4162 N 410.912 0.523116 1.48665 0
M  V30 4163 C 411.845 -0.290518 2.26343 0
M  V30 4164 C 412.823 -0.950913 1.31895 0
M  V30 4165 O 414.007 -0.976662 1.61225 0
M  V30 4166 C 411.134 -1.41088 3.07915 0
M  V30 4167 C 410.18 -0.862597 4.17686 0
M  V30 4168 S 411.013 0.264135 5.34848 0
M  V30 4169 C 412.169 -0.858864 6.19979 0
M  V30 4170 H 412.402 0.368726 2.95005 0
M  V30 4171 H 409.935 0.30878 1.51281 0
M  V30 4172 H 411.893 -2.0527 3.55492 0
M  V30 4173 H 410.554 -2.04182 2.38681 0
M  V30 4174 H 409.747 -1.70287 4.74361 0
M  V30 4175 H 409.349 -0.297595 3.72814 0
M  V30 4176 H 411.641 -1.7591 6.54264 0
M  V30 4177 H 412.584 -0.330244 7.07329 0
M  V30 4178 H 412.992 -1.13617 5.52948 0
M  V30 4179 N 412.39 -1.55475 0.257931 0
M  V30 4180 C 413.806 -1.59307 -0.0966563 0
M  V30 4181 C 414.006 -1.27514 -1.5602 0
M  V30 4182 O 413.062 -1.02774 -2.30637 0
M  V30 4183 C 414.375 -2.99552 0.262481 0
M  V30 4184 C 415.923 -3.1231 0.207683 0
M  V30 4185 C 416.398 -4.54793 0.541012 0
M  V30 4186 N 417.889 -4.6058 0.491921 0
M  V30 4187 C 418.624 -5.68825 0.722857 0
M  V30 4188 N 418.12 -6.85287 1.0175 0
M  V30 4189 N 419.913 -5.58296 0.652815 0
M  V30 4190 H 412.064 -1.74409 1.21224 0
M  V30 4191 H 414.327 -0.812424 0.48854 0
M  V30 4192 H 414.033 -3.27593 1.27967 0
M  V30 4193 H 413.907 -3.75019 -0.40508 0
M  V30 4194 H 416.294 -2.84044 -0.800195 0
M  V30 4195 H 416.375 -2.39095 0.909255 0
M  V30 4196 H 416.019 -4.83783 1.5465 0
M  V30 4197 H 415.949 -5.26285 -0.18216 0
M  V30 4198 H 418.44 -3.7691 0.273366 0
M  V30 4199 H 418.753 -7.63725 1.18084 0
M  V30 4200 H 417.098 -6.86945 1.05509 0
M  V30 4201 H 420.289 -4.66189 0.422592 0
M  V30 4202 H 420.462 -6.42582 0.836182 0
M  V30 4203 N 413.868 0.0150385 -1.57593 0
M  V30 4204 C 415.145 0.7392 -1.81094 0
M  V30 4205 C 415.525 1.92817 -0.859344 0
M  V30 4206 O 414.873 2.28301 0.095362 0
M  V30 4207 C 415.083 1.15907 -3.29191 0
M  V30 4208 C 416.431 1.56918 -3.9454 0
M  V30 4209 O 417.455 1.25328 -3.33424 0
M  V30 4210 O 416.314 2.15604 -5.02173 0
M  V30 4211 H 413.408 0.358631 -0.745193 0
M  V30 4212 H 415.954 -0.00926156 -1.69697 0
M  V30 4213 H 414.726 0.310921 -3.90063 0
M  V30 4214 H 414.349 1.96711 -3.45529 0
M  V30 4215 N 415.346 1.54954 0.287554 0
M  V30 4216 C 416.594 1.74528 1.01904 0
M  V30 4217 C 416.915 0.541349 1.87335 0
M  V30 4218 O 416.185 -0.444108 1.908 0
M  V30 4219 H 414.765 0.643576 0.379235 0
M  V30 4220 H 417.427 1.92333 0.315294 0
M  V30 4221 H 416.523 2.64015 1.6644 0
M  V30 4222 N 416.824 -0.551391 1.4764 0
M  V30 4223 C 417.756 -1.67333 1.56628 0
M  V30 4224 C 418.769 -1.56398 0.452045 0
M  V30 4225 O 419.958 -1.6325 0.721926 0
M  V30 4226 C 417.058 -3.05841 1.45994 0
M  V30 4227 C 416.231 -3.42472 2.72088 0
M  V30 4228 C 415.29 -4.60168 2.55209 0
M  V30 4229 O 414.316 -4.64458 3.2904 0
M  V30 4230 N 415.518 -5.57024 1.63416 0
M  V30 4231 H 418.283 -1.60066 2.53375 0
M  V30 4232 H 415.844 -0.738169 1.44093 0
M  V30 4233 H 417.836 -3.8242 1.32428 0
M  V30 4234 H 416.406 -3.07302 0.573071 0
M  V30 4235 H 415.626 -2.55284 3.00373 0
M  V30 4236 H 416.914 -3.63723 3.55785 0
M  V30 4237 H 416.312 -5.56319 1.02594 0
M  V30 4238 H 414.869 -6.32906 1.558 0
M  V30 4239 N 418.302 -1.35869 -0.798587 0
M  V30 4240 C 419.548 -1.2978 -1.55836 0
M  V30 4241 C 419.881 0.125322 -1.93795 0
M  V30 4242 O 419.156 1.07658 -1.61987 0
M  V30 4243 C 419.439 -2.21188 -2.84162 0
M  V30 4244 C 419.292 -3.72155 -2.52628 0
M  V30 4245 C 420.611 -2.11545 -3.85923 0
M  V30 4246 H 417.73 -0.472769 -0.565383 0
M  V30 4247 H 420.372 -1.66341 -0.918192 0
M  V30 4248 H 418.522 -1.90139 -3.38791 0
M  V30 4249 H 420.194 -4.13682 -2.04121 0
M  V30 4250 H 418.437 -3.92042 -1.85704 0
M  V30 4251 H 419.108 -4.31511 -3.44242 0
M  V30 4252 H 421.584 -2.38855 -3.40716 0
M  V30 4253 H 420.46 -2.77688 -4.73477 0
M  V30 4254 H 420.721 -1.09987 -4.282 0
M  V30 4255 N 419.78 1.02168 -1.19998 0
M  V30 4256 C 420.71 2.12488 -0.96804 0
M  V30 4257 C 421.691 1.69799 0.101185 0
M  V30 4258 O 422.876 1.94121 -0.0552993 0
M  V30 4259 C 420.006 3.43479 -0.513776 0
M  V30 4260 C 418.96 3.99884 -1.52566 0
M  V30 4261 C 418.286 5.26582 -0.928214 0
M  V30 4262 C 419.586 4.33861 -2.90795 0
M  V30 4263 H 421.28 2.32149 -1.89069 0
M  V30 4264 H 418.826 1.11564 -0.910468 0
M  V30 4265 H 420.779 4.20036 -0.338774 0
M  V30 4266 H 419.503 3.23561 0.444493 0
M  V30 4267 H 418.162 3.25429 -1.68794 0
M  V30 4268 H 417.81 5.02986 0.0378289 0
M  V30 4269 H 417.51 5.65284 -1.60397 0
M  V30 4270 H 419.034 6.05799 -0.764167 0
M  V30 4271 H 420.448 5.01327 -2.78109 0
M  V30 4272 H 418.845 4.83664 -3.55231 0
M  V30 4273 H 419.915 3.42848 -3.42904 0
M  V30 4274 N 421.258 1.00505 1.21394 0
M  V30 4275 C 422.506 0.686415 1.90086 0
M  V30 4276 C 422.827 -0.785264 1.7849 0
M  V30 4277 O 422.097 -1.56387 1.17983 0
M  V30 4278 H 420.677 0.2509 0.703604 0
M  V30 4279 H 423.339 1.27417 1.47482 0
M  V30 4280 H 422.435 0.959621 2.96981 0
M  V30 4281 N 422.737 -1.36956 0.779787 0
M  V30 4282 C 424.153 -1.52817 0.460342 0
M  V30 4283 C 424.353 -1.7361 -1.02283 0
M  V30 4284 O 423.409 -1.76207 -1.80852 0
M  V30 4285 C 424.722 -2.71983 1.28241 0
M  V30 4286 C 426.27 -2.85849 1.27512 0
M  V30 4287 C 426.745 -4.08008 2.08072 0
M  V30 4288 N 428.236 -4.15135 2.05467 0
M  V30 4289 C 428.971 -5.08711 2.64577 0
M  V30 4290 N 428.467 -6.07792 3.32506 0
M  V30 4291 N 430.26 -5.01254 2.54363 0
M  V30 4292 H 422.411 -1.21713 1.74068 0
M  V30 4293 H 424.674 -0.593294 0.739396 0
M  V30 4294 H 424.38 -2.63109 2.33381 0
M  V30 4295 H 424.254 -3.65882 0.917088 0
M  V30 4296 H 426.641 -2.94189 0.231686 0
M  V30 4297 H 426.722 -1.92886 1.68014 0
M  V30 4298 H 426.366 -4.00429 3.12441 0
M  V30 4299 H 426.296 -5.001 1.64947 0
M  V30 4300 H 428.787 -3.44189 1.5602 0
M  V30 4301 H 429.1 -6.75739 3.74963 0
M  V30 4302 H 427.445 -6.08047 3.36606 0
M  V30 4303 H 430.636 -4.22795 2.00902 0
M  V30 4304 H 430.809 -5.73995 3.00722 0
M  V30 4305 N 424.215 -0.530993 -1.48385 0
M  V30 4306 C 425.631 -0.188919 -1.58478 0
M  V30 4307 C 425.831 1.30786 -1.53288 0
M  V30 4308 O 424.887 2.08619 -1.42248 0
M  V30 4309 C 426.2 -0.792343 -2.90073 0
M  V30 4310 C 427.748 -0.76117 -3.03604 0
M  V30 4311 C 428.223 -1.34319 -4.37861 0
M  V30 4312 N 429.714 -1.3052 -4.44431 0
M  V30 4313 C 430.449 -1.72543 -5.46824 0
M  V30 4314 N 429.945 -2.22299 -6.56167 0
M  V30 4315 N 431.738 -1.63773 -5.37712 0
M  V30 4316 H 423.889 -1.50377 -1.50002 0
M  V30 4317 H 426.152 -0.625559 -0.712306 0
M  V30 4318 H 425.858 -1.84323 -2.99529 0
M  V30 4319 H 425.732 -0.270026 -3.76232 0
M  V30 4320 H 428.119 0.280957 -2.93759 0
M  V30 4321 H 428.2 -1.32097 -2.19053 0
M  V30 4322 H 427.844 -2.38425 -4.4846 0
M  V30 4323 H 427.774 -0.759064 -5.21101 0
M  V30 4324 H 430.265 -0.940973 -3.65997 0
M  V30 4325 H 430.578 -2.52356 -7.30436 0
M  V30 4326 H 428.923 -2.26293 -6.57127 0
M  V30 4327 H 432.114 -1.24698 -4.51185 0
M  V30 4328 H 432.287 -1.96844 -6.17379 0
M  V30 4329 N 425.693 1.55336 -0.266172 0
M  V30 4330 C 426.918 2.04258 0.359661 0
M  V30 4331 C 427.343 1.14359 1.49344 0
M  V30 4332 O 426.701 0.140369 1.80756 0
M  V30 4333 C 426.749 3.50997 0.826635 0
M  V30 4334 O 425.853 3.64204 1.93466 0
M  V30 4335 H 425.194 0.659668 0.075727 0
M  V30 4336 H 427.724 2.00694 -0.39786 0
M  V30 4337 H 427.734 3.9219 1.12477 0
M  V30 4338 H 426.409 4.159 -0.00293032 0
M  V30 4339 H 424.986 3.34913 1.63974 0
M  V30 4340 N 427.171 -0.0066808 1.57599 0
M  V30 4341 C 428.418 -0.69292 1.90276 0
M  V30 4342 C 428.746 -1.74148 0.866192 0
M  V30 4343 O 428.001 -1.95268 -0.129933 0
M  V30 4344 C 428.3 -1.37939 3.29708 0
M  V30 4345 C 427.966 -0.464679 4.48499 0
M  V30 4346 C 426.628 -0.212809 4.80729 0
M  V30 4347 C 428.98 0.16551 5.20937 0
M  V30 4348 C 426.308 0.677653 5.82773 0
M  V30 4349 C 428.66 1.04381 6.23929 0
M  V30 4350 C 427.324 1.30492 6.54621 0
M  V30 4351 H 426.594 -0.253558 0.696268 0
M  V30 4352 H 429.241 0.0474123 1.91441 0
M  V30 4353 H 427.546 -2.1936 3.24636 0
M  V30 4354 H 429.243 -1.9163 3.52249 0
M  V30 4355 H 425.833 -0.671153 4.23313 0
M  V30 4356 H 430.017 -0.0160756 4.96297 0
M  V30 4357 H 425.273 0.88803 6.04917 0
M  V30 4358 H 429.447 1.53851 6.79193 0
M  V30 4359 H 427.074 1.99662 7.33512 0
M  V30 4360 N 428.649 -1.55105 -0.279332 0
M  V30 4361 C 429.559 -1.90638 -1.36727 0
M  V30 4362 C 430.575 -0.802899 -1.54368 0
M  V30 4363 O 431.751 -1.10138 -1.68616 0
M  V30 4364 C 428.816 -2.16547 -2.70755 0
M  V30 4365 C 427.877 -3.40146 -2.61915 0
M  V30 4366 C 427.11 -3.6481 -3.8955 0
M  V30 4367 O 427.333 -2.92095 -4.89935 0
M  V30 4368 O 426.267 -4.58343 -3.90135 0
M  V30 4369 H 430.093 -2.83237 -1.09591 0
M  V30 4370 H 427.678 -1.4157 -0.477306 0
M  V30 4371 H 429.56 -2.34665 -3.50014 0
M  V30 4372 H 428.235 -1.27131 -2.9769 0
M  V30 4373 H 427.142 -3.2737 -1.81052 0
M  V30 4374 H 428.475 -4.29761 -2.3993 0
M  V30 4375 N 430.127 0.543554 -1.4793 0
M  V30 4376 C 431.375 1.29752 -1.54948 0
M  V30 4377 C 431.696 1.93764 -0.219242 0
M  V30 4378 O 430.966 1.80639 0.75805 0
M  V30 4379 H 429.546 0.481874 -0.570795 0
M  V30 4380 H 432.208 0.633636 -1.84312 0
M  V30 4381 H 431.304 2.08392 -2.32334 0
M  V30 4382 N 431.605 1.3629 0.791371 0
M  V30 4383 C 433.021 1.16661 1.08914 0
M  V30 4384 C 433.221 -0.0106266 2.01497 0
M  V30 4385 O 432.277 -0.676596 2.43266 0
M  V30 4386 C 433.59 2.47656 1.70549 0
M  V30 4387 C 435.138 2.54002 1.82899 0
M  V30 4388 C 435.613 3.85078 2.47949 0
M  V30 4389 N 437.104 3.86413 2.5542 0
M  V30 4390 C 437.839 4.84572 3.06557 0
M  V30 4391 N 437.335 5.93124 3.58016 0
M  V30 4392 N 439.128 4.71994 3.05251 0
M  V30 4393 H 431.279 2.11668 0.176238 0
M  V30 4394 H 433.542 0.937486 0.140796 0
M  V30 4395 H 433.248 3.34059 1.09989 0
M  V30 4396 H 433.122 2.63319 2.70079 0
M  V30 4397 H 435.509 1.68018 2.42598 0
M  V30 4398 H 435.59 2.42239 0.821808 0
M  V30 4399 H 435.234 4.71467 1.88895 0
M  V30 4400 H 435.164 3.94135 3.49235 0
M  V30 4401 H 437.655 3.07988 2.18979 0
M  V30 4402 H 437.968 6.63999 3.95381 0
M  V30 4403 H 436.313 5.96796 3.56173 0
M  V30 4404 H 439.504 3.86321 2.64336 0
M  V30 4405 H 439.677 5.48653 3.44796 0
M  V30 4406 N 433.083 -1.0153 1.20538 0
M  V30 4407 C 434.332 -1.74558 1.01057 0
M  V30 4408 C 434.645 -1.90168 -0.457756 0
M  V30 4409 O 435.851 -2.60301 -0.771722 0
M  V30 4410 C 434.307 -3.13963 1.75941 0
M  V30 4411 C 433.915 -3.06361 3.26875 0
M  V30 4412 C 435.659 -3.91191 1.64832 0
M  V30 4413 C 433.566 -4.40782 3.94291 0
M  V30 4414 H 432.496 -0.654417 0.374505 0
M  V30 4415 H 435.147 -1.13521 1.44171 0
M  V30 4416 H 433.529 -3.75549 1.25614 0
M  V30 4417 H 434.703 -2.54074 3.84425 0
M  V30 4418 H 433.018 -2.42625 3.38411 0
M  V30 4419 H 435.615 -4.90644 2.12539 0
M  V30 4420 H 435.958 -4.11884 0.604745 0
M  V30 4421 H 436.491 -3.36236 2.12579 0
M  V30 4422 H 433.23 -4.25292 4.98805 0
M  V30 4423 H 432.75 -4.9307 3.41529 0
M  V30 4424 H 434.429 -5.09621 3.98617 0
M  V30 4425 N 434.561 -1.01147 -1.20859 0
M  V30 4426 C 435.801 -0.706331 -1.91808 0
M  V30 4427 C 436.165 0.749736 -1.76757 0
M  V30 4428 O 437.366 1.16716 -2.42138 0
M  V30 4429 C 435.637 -1.12371 -3.39275 0
M  V30 4430 S 437.196 -0.939764 -4.28619 0
M  V30 4431 H 434.014 -0.257665 -0.662669 0
M  V30 4432 H 436.616 -1.29766 -1.46223 0
M  V30 4433 H 435.32 -2.17943 -3.47749 0
M  V30 4434 H 434.851 -0.524952 -3.89882 0
M  V30 4435 H 436.866 0.159556 -4.95943 0
M  V30 4436 N 436.039 1.36541 -0.78704 0
M  V30 4437 C 437.002 2.28413 -0.189778 0
M  V30 4438 C 438.002 1.48719 0.611499 0
M  V30 4439 O 439.192 1.68737 0.432842 0
M  V30 4440 C 436.324 3.32824 0.737638 0
M  V30 4441 H 437.517 2.82743 -0.999831 0
M  V30 4442 H 435.07 1.46065 -0.556298 0
M  V30 4443 H 435.805 2.83646 1.57212 0
M  V30 4444 H 435.59 3.91752 0.165044 0
M  V30 4445 H 437.08 4.0144 1.15047 0
M  V30 4446 N 437.518 0.538854 1.48102 0
M  V30 4447 C 438.758 0.0101209 2.04397 0
M  V30 4448 C 439.122 -1.30741 1.40609 0
M  V30 4449 O 440.323 -1.92272 1.87843 0
M  V30 4450 C 438.594 -0.100232 3.57259 0
M  V30 4451 S 440.153 -0.577746 4.3498 0
M  V30 4452 H 436.971 0.0163171 0.710813 0
M  V30 4453 H 439.573 0.721429 1.81702 0
M  V30 4454 H 438.277 0.863351 4.01216 0
M  V30 4455 H 437.808 -0.835651 3.84422 0
M  V30 4456 H 439.823 -1.84073 4.60794 0
M  V30 4457 N 438.996 -1.55193 0.274407 0
M  V30 4458 C 440.407 -1.85358 -0.223488 0
M  V30 4459 C 440.758 -1.19642 -1.555 0
M  V30 4460 O 439.883 -0.484498 -2.10907 0
M  V30 4461 C 440.478 -3.36282 -0.412285 0
M  V30 4462 C 439.037 -3.66574 -0.854413 0
M  V30 4463 C 438.184 -2.7725 0.0527056 0
M  V30 4464 H 441.135 -1.50743 0.496215 0
M  V30 4465 H 441.156 -3.59349 -1.25094 0
M  V30 4466 H 440.668 -3.84083 0.556965 0
M  V30 4467 H 438.769 -3.24273 -1.83516 0
M  V30 4468 H 438.882 -4.74073 -0.692226 0
M  V30 4469 H 437.246 -2.50447 -0.463484 0
M  V30 4470 H 438.029 -3.27865 1.01783 0
M  V30 4471 N 440.474 -0.00167713 -1.576 0
M  V30 4472 C 441.722 0.681471 -1.90264 0
M  V30 4473 C 442.043 1.7422 -0.875924 0
M  V30 4474 O 441.313 1.95709 0.0864412 0
M  V30 4475 H 439.893 0.254696 -0.702239 0
M  V30 4476 H 442.555 -0.0429996 -1.94853 0
M  V30 4477 H 441.651 1.15166 -2.90075 0
M  V30 4478 N 441.952 1.55251 0.271103 0
M  V30 4479 C 443.368 1.47133 0.618393 0
M  V30 4480 C 443.568 0.686994 1.89427 0
M  V30 4481 O 442.624 0.206609 2.51653 0
M  V30 4482 C 443.937 2.91361 0.743593 0
M  V30 4483 C 445.485 3.01587 0.837522 0
M  V30 4484 C 445.96 4.47073 0.994483 0
M  V30 4485 N 447.451 4.50909 1.05996 0
M  V30 4486 C 448.186 5.60698 1.20024 0
M  V30 4487 N 447.682 6.80348 1.30759 0
M  V30 4488 N 449.475 5.48444 1.23149 0
M  V30 4489 H 441.626 2.04698 -0.566784 0
M  V30 4490 H 443.889 0.928319 -0.192165 0
M  V30 4491 H 443.595 3.51483 -0.123493 0
M  V30 4492 H 443.469 3.40484 1.62328 0
M  V30 4493 H 445.856 2.4156 1.69507 0
M  V30 4494 H 445.937 2.55713 -0.0668086 0
M  V30 4495 H 445.581 5.07703 0.141582 0
M  V30 4496 H 445.511 4.90605 1.91349 0
M  V30 4497 H 448.002 3.6472 0.989316 0
M  V30 4498 H 448.315 7.59772 1.41303 0
M  V30 4499 H 446.66 6.83156 1.27761 0
M  V30 4500 H 449.851 4.53907 1.14394 0
M  V30 4501 H 450.024 6.34049 1.33738 0
M  V30 4502 N 443.43 -0.535701 1.48216 0
M  V30 4503 C 444.707 -1.29683 1.46429 0
M  V30 4504 C 445.087 -2.10391 0.172852 0
M  V30 4505 O 444.435 -2.12282 -0.845488 0
M  V30 4506 C 444.645 -2.18313 2.72287 0
M  V30 4507 C 445.993 -2.78639 3.20383 0
M  V30 4508 O 447.017 -2.28604 2.73164 0
M  V30 4509 O 445.876 -3.69636 4.02531 0
M  V30 4510 H 442.97 -0.585026 0.584529 0
M  V30 4511 H 445.516 -0.552827 1.60443 0
M  V30 4512 H 444.288 -1.58421 3.57797 0
M  V30 4513 H 443.911 -2.99971 2.60966 0
M  V30 4514 N 444.908 -1.36708 -0.784132 0
M  V30 4515 C 446.324 -1.17237 -1.08294 0
M  V30 4516 C 446.524 -5.93947e-05 -2.015 0
M  V30 4517 O 445.58 0.663686 -2.43622 0
M  V30 4518 C 446.893 -2.48557 -1.69233 0
M  V30 4519 C 448.441 -2.54968 -1.8155 0
M  V30 4520 C 448.916 -3.86388 -2.45904 0
M  V30 4521 N 450.407 -3.87762 -2.53367 0
M  V30 4522 C 451.142 -4.86191 -3.03983 0
M  V30 4523 N 450.638 -5.95015 -3.54866 0
M  V30 4524 N 452.431 -4.73606 -3.02743 0
M  V30 4525 H 444.582 -2.11758 -0.16501 0
M  V30 4526 H 446.845 -0.93822 -0.135822 0
M  V30 4527 H 446.551 -3.34638 -1.08215 0
M  V30 4528 H 446.425 -2.64748 -2.68679 0
M  V30 4529 H 448.812 -1.69302 -2.41704 0
M  V30 4530 H 448.893 -2.42672 -0.80895 0
M  V30 4531 H 448.537 -4.72462 -1.86392 0
M  V30 4532 H 448.467 -3.95982 -3.4714 0
M  V30 4533 H 450.958 -3.09145 -2.17343 0
M  V30 4534 H 451.271 -6.66086 -3.91854 0
M  V30 4535 H 449.616 -5.98676 -3.53003 0
M  V30 4536 H 452.807 -3.87717 -2.62284 0
M  V30 4537 H 452.98 -5.50473 -3.41881 0
M  V30 4538 N 446.386 1.0089 -1.21074 0
M  V30 4539 C 447.333 2.09588 -0.966512 0
M  V30 4540 C 448.303 1.65761 0.106089 0
M  V30 4541 O 449.488 1.90758 -0.0402287 0
M  V30 4542 C 446.628 3.40958 -0.533058 0
M  V30 4543 C 445.741 3.9822 -1.67467 0
M  V30 4544 C 444.876 5.17682 -1.19076 0
M  V30 4545 C 443.915 5.67043 -2.30496 0
M  V30 4546 N 443.052 6.77759 -1.83267 0
M  V30 4547 H 447.892 2.29815 -1.89708 0
M  V30 4548 H 445.429 1.12689 -0.945489 0
M  V30 4549 H 447.387 4.1637 -0.263019 0
M  V30 4550 H 446.017 3.20781 0.360505 0
M  V30 4551 H 445.069 3.1983 -2.05944 0
M  V30 4552 H 446.381 4.3085 -2.51336 0
M  V30 4553 H 445.535 6.00326 -0.877151 0
M  V30 4554 H 444.274 4.86635 -0.322066 0
M  V30 4555 H 443.279 4.82999 -2.62664 0
M  V30 4556 H 444.504 6.00121 -3.17855 0
M  V30 4557 H 442.45 6.48527 -0.987356 0
M  V30 4558 H 442.367 7.09624 -2.60711 0
M  V30 4559 H 443.635 7.63949 -1.54928 0
M  V30 4560 N 447.864 1.01787 1.20321 0
M  V30 4561 C 448.827 0.593972 2.2137 0
M  V30 4562 C 449.827 -0.336553 1.57239 0
M  V30 4563 O 451.017 -0.125069 1.7375 0
M  V30 4564 C 448.149 -0.132433 3.40643 0
M  V30 4565 H 449.342 1.48791 2.60387 0
M  V30 4566 H 446.895 0.807803 1.33807 0
M  V30 4567 H 447.63 -1.04123 3.0713 0
M  V30 4568 H 447.415 0.53605 3.88418 0
M  V30 4569 H 448.905 -0.416314 4.1552 0
M  V30 4570 N 449.342 -1.36122 0.79427 0
M  V30 4571 C 450.619 -1.93398 0.292685 0
M  V30 4572 C 450.999 -1.72567 -1.21589 0
M  V30 4573 O 450.347 -1.08745 -2.00965 0
M  V30 4574 C 450.557 -3.42099 0.690614 0
M  V30 4575 C 451.905 -4.19231 0.673105 0
M  V30 4576 O 452.929 -3.50559 0.631389 0
M  V30 4577 O 451.788 -5.41732 0.720362 0
M  V30 4578 H 448.882 -0.823712 0.0736693 0
M  V30 4579 H 451.428 -1.45273 0.87714 0
M  V30 4580 H 450.2 -3.50938 1.73085 0
M  V30 4581 H 449.823 -3.97519 0.0803036 0
M  V30 4582 N 450.82 -0.546701 -1.47814 0
M  V30 4583 C 451.73 0.21026 -2.33656 0
M  V30 4584 C 452.746 0.922413 -1.47538 0
M  V30 4585 O 453.922 0.893652 -1.80488 0
M  V30 4586 C 450.987 1.23348 -3.24016 0
M  V30 4587 C 450.048 0.529883 -4.26017 0
M  V30 4588 C 449.281 1.50435 -5.12059 0
M  V30 4589 O 449.504 2.73837 -5.00369 0
M  V30 4590 O 448.438 1.03459 -5.92942 0
M  V30 4591 H 452.264 -0.493605 -2.99662 0
M  V30 4592 H 449.849 -0.307427 -1.46203 0
M  V30 4593 H 451.731 1.82438 -3.79861 0
M  V30 4594 H 450.406 1.91945 -2.60651 0
M  V30 4595 H 449.313 -0.101948 -3.73961 0
M  V30 4596 H 450.646 -0.11445 -4.92067 0
M  V30 4597 N 452.299 1.55045 -0.282633 0
M  V30 4598 C 453.576 1.9179 0.384166 0
M  V30 4599 C 453.956 1.20778 1.73136 0
M  V30 4600 O 453.304 0.33719 2.25998 0
M  V30 4601 C 453.514 3.45149 0.517014 0
M  V30 4602 C 454.862 4.17064 0.796427 0
M  V30 4603 O 455.886 3.51084 0.601535 0
M  V30 4604 O 454.745 5.33837 1.16962 0
M  V30 4605 H 451.839 0.799483 0.211558 0
M  V30 4606 H 454.385 1.66474 -0.32934 0
M  V30 4607 H 453.157 3.88922 -0.430772 0
M  V30 4608 H 452.78 3.76443 1.2797 0
M  V30 4609 N 453.777 0.010035 1.57597 0
M  V30 4610 C 454.727 -0.986858 2.05536 0
M  V30 4611 C 455.711 -1.29711 0.952042 0
M  V30 4612 O 456.903 -1.28641 1.21575 0
M  V30 4613 C 454.032 -2.2756 2.57043 0
M  V30 4614 C 453.118 -1.99455 3.74271 0
M  V30 4615 N 453.509 -1.41546 4.85591 0
M  V30 4616 C 451.807 -2.29547 3.82393 0
M  V30 4617 C 452.508 -1.3014 5.66956 0
M  V30 4618 N 451.484 -1.79044 5.13268 0
M  V30 4619 H 455.286 -0.533778 2.89012 0
M  V30 4620 H 452.8 -0.195432 1.6122 0
M  V30 4621 H 454.797 -2.99829 2.89669 0
M  V30 4622 H 453.457 -2.73512 1.7499 0
M  V30 4623 H 454.468 -1.09294 5.06236 0
M  V30 4624 H 451.145 -2.78304 3.11213 0
M  V30 4625 H 452.535 -0.855237 6.66435 0
M  V30 4626 N 455.255 -1.55392 -0.262866 0
M  V30 4627 C 456.485 -1.80251 -1.00961 0
M  V30 4628 C 456.893 -0.58117 -1.80053 0
M  V30 4629 O 456.236 0.459427 -1.77862 0
M  V30 4630 C 456.298 -2.98207 -2.00781 0
M  V30 4631 C 455.962 -4.34856 -1.40533 0
M  V30 4632 C 456.959 -5.13459 -0.815853 0
M  V30 4633 C 454.644 -4.8153 -1.42948 0
M  V30 4634 C 456.638 -6.36875 -0.258562 0
M  V30 4635 C 454.325 -6.04899 -0.868334 0
M  V30 4636 C 455.323 -6.8241 -0.283884 0
M  V30 4637 O 455.011 -8.03451 0.268644 0
M  V30 4638 H 454.743 -0.604049 -0.303482 0
M  V30 4639 H 457.297 -2.03257 -0.295926 0
M  V30 4640 H 455.527 -2.70917 -2.75936 0
M  V30 4641 H 457.216 -3.10299 -2.61667 0
M  V30 4642 H 457.982 -4.78526 -0.789812 0
M  V30 4643 H 453.861 -4.21201 -1.87378 0
M  V30 4644 H 457.405 -6.97318 0.198257 0
M  V30 4645 H 453.302 -6.39312 -0.891649 0
M  V30 4646 H 454.07 -8.18346 0.158974 0
M  V30 4647 N 456.733 0.527833 -1.48498 0
M  V30 4648 C 458.149 0.856571 -1.34666 0
M  V30 4649 C 458.349 1.98271 -0.35931 0
M  V30 4650 O 457.405 2.51551 0.218703 0
M  V30 4651 C 458.718 1.22207 -2.74747 0
M  V30 4652 C 460.266 1.33183 -2.83251 0
M  V30 4653 C 460.741 1.73075 -4.24039 0
M  V30 4654 N 462.232 1.80174 -4.26722 0
M  V30 4655 C 462.967 2.1243 -5.32598 0
M  V30 4656 N 462.463 2.43096 -6.4875 0
M  V30 4657 N 464.256 2.13454 -5.19994 0
M  V30 4658 H 456.407 -0.215174 -2.11307 0
M  V30 4659 H 458.67 -0.0336281 -0.947403 0
M  V30 4660 H 458.376 0.468195 -3.4857 0
M  V30 4661 H 458.25 2.17173 -3.08409 0
M  V30 4662 H 460.637 2.07647 -2.09683 0
M  V30 4663 H 460.718 0.363333 -2.53206 0
M  V30 4664 H 460.362 0.991712 -4.98124 0
M  V30 4665 H 460.292 2.70979 -4.51529 0
M  V30 4666 H 462.783 1.58744 -3.42942 0
M  V30 4667 H 463.096 2.6682 -7.25277 0
M  V30 4668 H 461.441 2.40611 -6.52021 0
M  V30 4669 H 464.632 1.88956 -4.28268 0
M  V30 4670 H 464.805 2.38261 -6.02608 0
M  V30 4671 N 458.211 1.37122 0.776871 0
M  V30 4672 C 459.121 1.34651 1.9211 0
M  V30 4673 C 460.137 0.246824 1.7224 0
M  V30 4674 O 461.313 0.48134 1.95563 0
M  V30 4675 C 458.378 1.14748 3.2716 0
M  V30 4676 C 457.439 2.34308 3.5972 0
M  V30 4677 C 456.672 2.15345 4.88326 0
M  V30 4678 O 456.895 1.13507 5.58992 0
M  V30 4679 O 455.829 3.03414 5.1983 0
M  V30 4680 H 459.655 2.31013 1.97146 0
M  V30 4681 H 457.24 1.17799 0.918901 0
M  V30 4682 H 459.122 1.05616 4.0795 0
M  V30 4683 H 457.797 0.214562 3.22988 0
M  V30 4684 H 456.704 2.49011 2.79185 0
M  V30 4685 H 458.037 3.26149 3.68629 0
M  V30 4686 N 459.689 -1.00246 1.21608 0
M  V30 4687 C 460.621 -2.09244 0.935401 0
M  V30 4688 C 461.634 -1.62592 -0.0823594 0
M  V30 4689 O 462.823 -1.77865 0.150456 0
M  V30 4690 C 459.923 -3.36724 0.383453 0
M  V30 4691 C 459.096 -4.1245 1.45615 0
M  V30 4692 C 458.155 -5.18219 0.912991 0
M  V30 4693 O 457.181 -5.46337 1.59701 0
M  V30 4694 N 458.383 -5.7987 -0.270478 0
M  V30 4695 H 461.148 -2.33905 1.87373 0
M  V30 4696 H 458.709 -1.16748 1.12167 0
M  V30 4697 H 460.701 -4.047 0.00562157 0
M  V30 4698 H 459.271 -3.09201 -0.459758 0
M  V30 4699 H 458.491 -3.39241 2.00772 0
M  V30 4700 H 459.779 -4.59819 2.17817 0
M  V30 4701 H 459.177 -5.59381 -0.843195 0
M  V30 4702 H 457.734 -6.49126 -0.589794 0
M  V30 4703 N 461.167 -1.02423 -1.1978 0
M  V30 4704 C 462.099 -0.559152 -2.22275 0
M  V30 4705 C 463.112 0.36251 -1.58713 0
M  V30 4706 O 464.301 0.159641 -1.77785 0
M  V30 4707 C 461.401 0.205094 -3.38279 0
M  V30 4708 C 460.574 -0.720361 -4.31427 0
M  V30 4709 C 459.633 -0.00234368 -5.262 0
M  V30 4710 O 458.659 -0.627378 -5.65732 0
M  V30 4711 N 459.861 1.26996 -5.66438 0
M  V30 4712 H 462.626 -1.44064 -2.62804 0
M  V30 4713 H 460.187 -0.902692 -1.34399 0
M  V30 4714 H 462.179 0.694868 -3.9869 0
M  V30 4715 H 460.749 0.987947 -2.96578 0
M  V30 4716 H 459.969 -1.39031 -3.68869 0
M  V30 4717 H 461.257 -1.3495 -4.90577 0
M  V30 4718 H 460.655 1.79858 -5.36347 0
M  V30 4719 H 459.212 1.70432 -6.29123 0
M  V30 4720 N 462.645 1.35699 -0.801477 0
M  V30 4721 C 463.608 2.28199 -0.213994 0
M  V30 4722 C 464.608 1.49359 0.595691 0
M  V30 4723 O 465.798 1.69186 0.414921 0
M  V30 4724 C 462.93 3.33587 0.702297 0
M  V30 4725 H 464.123 2.81666 -1.02976 0
M  V30 4726 H 461.676 1.45467 -0.571759 0
M  V30 4727 H 462.411 2.85297 1.54195 0
M  V30 4728 H 462.196 3.91906 0.123484 0
M  V30 4729 H 463.686 4.02638 1.10783 0
M  V30 4730 N 464.123 0.554532 1.47522 0
M  V30 4731 C 465.053 -0.182974 2.32782 0
M  V30 4732 C 466.034 -0.911377 1.43624 0
M  V30 4733 O 467.219 -0.892366 1.72483 0
M  V30 4734 C 464.349 -1.21513 3.25349 0
M  V30 4735 C 463.303 -0.603355 4.23726 0
M  V30 4736 C 462.629 -1.73995 5.05598 0
M  V30 4737 C 463.929 0.441121 5.20434 0
M  V30 4738 H 465.623 0.52882 2.94693 0
M  V30 4739 H 463.169 0.255759 1.41711 0
M  V30 4740 H 465.122 -1.73922 3.83835 0
M  V30 4741 H 463.846 -1.95683 2.61487 0
M  V30 4742 H 462.505 -0.10059 3.66462 0
M  V30 4743 H 462.153 -2.47063 4.38143 0
M  V30 4744 H 461.853 -1.3364 5.72201 0
M  V30 4745 H 463.377 -2.26735 5.66942 0
M  V30 4746 H 464.791 0.00319931 5.733 0
M  V30 4747 H 463.188 0.763402 5.95224 0
M  V30 4748 H 464.258 1.33799 4.66075 0
M  V30 4749 N 465.601 -1.54893 0.290851 0
M  V30 4750 C 466.549 -2.24579 -0.605576 0
M  V30 4751 C 467.543 -1.24824 -1.14522 0
M  V30 4752 O 468.749 -1.42706 -1.09704 0
M  V30 4753 H 465.124 -0.720946 -0.213872 0
M  V30 4754 H 467.095 -2.984 0.0048173 0
M  V30 4755 C 465.844 -2.99224 -1.77088 0
M  V30 4756 H 465.167 -3.75782 -1.36484 0
M  V30 4757 H 466.607 -3.51281 -2.3744 0
M  V30 4758 C 465.066 -2.05602 -2.66888 0
M  V30 4759 O 465.596 -1.61745 -3.67698 0
M  V30 4760 N 463.802 -1.71771 -2.34399 0
M  V30 4761 H 463.349 -2.07633 -1.52468 0
M  V30 4762 H 463.307 -1.09403 -2.94751 0
M  V30 4763 N 467.08 -0.0183926 -1.57589 0
M  V30 4764 C 467.99 0.982943 -2.13015 0
M  V30 4765 C 469.006 1.36443 -1.07979 0
M  V30 4766 O 470.182 1.44802 -1.3998 0
M  V30 4767 C 467.247 2.25024 -2.63752 0
M  V30 4768 C 466.308 1.93018 -3.83461 0
M  V30 4769 C 465.541 3.13706 -4.31769 0
M  V30 4770 O 465.764 4.2601 -3.79305 0
M  V30 4771 O 464.698 2.96629 -5.23732 0
M  V30 4772 H 468.524 0.541709 -2.9883 0
M  V30 4773 H 466.109 0.201565 -1.48034 0
M  V30 4774 H 467.991 2.99441 -2.96502 0
M  V30 4775 H 466.666 2.68349 -1.81026 0
M  V30 4776 H 465.573 1.16019 -3.55655 0
M  V30 4777 H 466.906 1.54516 -4.67317 0
M  V30 4778 N 468.558 1.5553 0.254621 0
M  V30 4779 C 469.783 1.81383 1.00573 0
M  V30 4780 C 470.208 0.594419 1.78461 0
M  V30 4781 O 469.566 -0.456403 1.75461 0
M  V30 4782 C 469.614 3.04892 1.92545 0
M  V30 4783 O 468.718 2.81266 3.01601 0
M  V30 4784 H 468.059 0.598969 0.286587 0
M  V30 4785 H 470.589 2.02703 0.277952 0
M  V30 4786 H 470.599 3.34119 2.34155 0
M  V30 4787 H 469.274 3.93287 1.3527 0
M  V30 4788 H 467.851 2.63185 2.64174 0
M  V30 4789 N 470.036 -0.519951 1.48776 0
M  V30 4790 C 471.261 -1.30447 1.6124 0
M  V30 4791 C 471.686 -1.86055 0.276591 0
M  V30 4792 O 471.044 -1.64915 -0.753183 0
M  V30 4793 C 471.092 -2.42406 2.66967 0
M  V30 4794 O 470.196 -3.45728 2.24824 0
M  V30 4795 H 469.537 -0.385924 0.540332 0
M  V30 4796 H 472.067 -0.624572 1.94834 0
M  V30 4797 H 472.077 -2.88447 2.88552 0
M  V30 4798 H 470.752 -2.01294 3.63941 0
M  V30 4799 H 469.329 -3.05737 2.13494 0
M  V30 4800 N 471.514 -1.37532 -0.769588 0
M  V30 4801 C 472.477 -1.33292 -1.86456 0
M  V30 4802 C 473.477 -0.236537 -1.59051 0
M  V30 4803 O 474.667 -0.492511 -1.67093 0
M  V30 4804 C 471.799 -1.07118 -3.23633 0
M  V30 4805 H 472.992 -2.30692 -1.91628 0
M  V30 4806 H 470.545 -1.22593 -0.969572 0
M  V30 4807 H 471.28 -0.102578 -3.24138 0
M  V30 4808 H 471.065 -1.86479 -3.44917 0
M  V30 4809 H 472.555 -1.06806 -4.03711 0
M  V30 4810 N 472.992 0.995999 -1.22138 0
M  V30 4811 C 473.939 2.08551 -0.988687 0
M  V30 4812 C 474.909 1.65864 0.0885021 0
M  V30 4813 O 476.094 1.90704 -0.0604589 0
M  V30 4814 C 473.234 3.40374 -0.569191 0
M  V30 4815 C 472.347 3.96421 -1.71681 0
M  V30 4816 C 471.482 5.1639 -1.2456 0
M  V30 4817 C 470.521 5.64567 -2.36497 0
M  V30 4818 N 469.658 6.75777 -1.90445 0
M  V30 4819 H 474.498 2.2779 -1.92135 0
M  V30 4820 H 472.035 1.1168 -0.957388 0
M  V30 4821 H 473.993 4.16068 -0.307166 0
M  V30 4822 H 472.623 3.21145 0.326462 0
M  V30 4823 H 471.675 3.17628 -2.09324 0
M  V30 4824 H 472.987 4.2816 -2.55891 0
M  V30 4825 H 472.141 5.99362 -0.940774 0
M  V30 4826 H 470.88 4.86266 -0.373662 0
M  V30 4827 H 469.885 4.80185 -2.67772 0
M  V30 4828 H 471.11 5.96716 -3.24202 0
M  V30 4829 H 469.056 6.47443 -1.05609 0
M  V30 4830 H 468.973 7.06818 -2.68223 0
M  V30 4831 H 470.241 7.62262 -1.63022 0
M  V30 4832 N 474.47 1.03057 1.19235 0
M  V30 4833 C 475.418 0.606391 2.24557 0
M  V30 4834 C 476.412 -0.361826 1.65491 0
M  V30 4835 O 477.618 -0.23022 1.78522 0
M  V30 4836 H 473.993 0.177838 0.730669 0
M  V30 4837 H 475.964 1.50529 2.5765 0
M  V30 4838 C 474.713 -0.0252127 3.47691 0
M  V30 4839 H 474.036 0.710838 3.9343 0
M  V30 4840 H 475.476 -0.284931 4.23042 0
M  V30 4841 C 473.935 -1.27229 3.11953 0
M  V30 4842 O 474.465 -2.36416 3.24762 0
M  V30 4843 N 472.671 -1.16169 2.6637 0
M  V30 4844 H 472.218 -0.273189 2.56147 0
M  V30 4845 H 472.176 -1.99703 2.42829 0
M  V30 4846 N 475.948 -1.35272 0.808662 0
M  V30 4847 C 477.196 -1.98316 0.389233 0
M  V30 4848 C 477.517 -1.64465 -1.04767 0
M  V30 4849 O 476.787 -0.928175 -1.72516 0
M  V30 4850 H 475.367 -0.733585 0.140935 0
M  V30 4851 H 478.029 -1.6515 1.03496 0
M  V30 4852 H 477.125 -3.08123 0.496631 0
M  V30 4853 N 477.426 -0.562348 -1.47226 0
M  V30 4854 C 478.389 0.172056 -2.28553 0
M  V30 4855 C 479.389 0.837928 -1.37242 0
M  V30 4856 O 480.579 0.693001 -1.59822 0
M  V30 4857 C 477.711 1.25223 -3.17068 0
M  V30 4858 H 478.904 -0.542401 -2.94954 0
M  V30 4859 H 476.457 -0.319493 -1.53 0
M  V30 4860 H 477.192 1.99892 -2.55369 0
M  V30 4861 H 476.977 0.779515 -3.84273 0
M  V30 4862 H 478.467 1.76791 -3.78332 0
M  V30 4863 N 478.904 1.54736 -0.299062 0
M  V30 4864 C 479.867 2.22127 0.565012 0
M  V30 4865 C 480.867 1.20669 1.06281 0
M  V30 4866 O 482.057 1.45417 0.959145 0
M  V30 4867 C 479.189 2.90611 1.78208 0
M  V30 4868 H 480.382 2.99891 -0.0237448 0
M  V30 4869 H 477.935 1.5622 -0.0498788 0
M  V30 4870 H 478.67 2.16921 2.41072 0
M  V30 4871 H 478.455 3.64984 1.43281 0
M  V30 4872 H 479.945 3.42026 2.396 0
M  V30 4873 N 480.382 0.0267497 1.57577 0
M  V30 4874 C 481.607 -0.666227 1.96408 0
M  V30 4875 C 482.032 -1.65004 0.903071 0
M  V30 4876 O 481.39 -1.80787 -0.136263 0
M  V30 4877 C 481.438 -1.35101 3.34335 0
M  V30 4878 O 480.542 -2.46623 3.30531 0
M  V30 4879 H 479.883 -0.175206 0.640468 0
M  V30 4880 H 482.413 0.0878977 2.04411 0
M  V30 4881 H 482.423 -1.70834 3.70513 0
M  V30 4882 H 481.098 -0.629844 4.11103 0
M  V30 4883 H 479.675 -2.13019 3.06068 0
M  V30 4884 N 481.861 -1.55662 -0.24637 0
M  V30 4885 C 482.808 -1.90361 -1.30504 0
M  V30 4886 C 483.778 -0.757905 -1.47801 0
M  V30 4887 O 484.963 -1.01161 -1.61775 0
M  V30 4888 C 482.103 -2.2042 -2.65535 0
M  V30 4889 C 481.216 -3.47799 -2.56242 0
M  V30 4890 C 480.351 -3.67426 -3.8363 0
M  V30 4891 C 479.39 -4.88403 -3.68956 0
M  V30 4892 N 478.527 -5.04548 -4.88237 0
M  V30 4893 H 483.367 -2.80645 -1.00213 0
M  V30 4894 H 480.904 -1.38924 -0.483577 0
M  V30 4895 H 482.862 -2.35853 -3.44135 0
M  V30 4896 H 481.492 -1.3334 -2.93973 0
M  V30 4897 H 480.544 -3.40694 -1.69208 0
M  V30 4898 H 481.856 -4.36544 -2.4131 0
M  V30 4899 H 481.01 -3.82821 -4.70673 0
M  V30 4900 H 479.749 -2.76914 -4.01459 0
M  V30 4901 H 478.754 -4.72984 -2.80296 0
M  V30 4902 H 479.979 -5.80375 -3.52621 0
M  V30 4903 H 477.925 -4.16974 -5.06427 0
M  V30 4904 H 477.842 -5.87384 -4.75937 0
M  V30 4905 H 479.11 -5.24355 -5.76777 0
M  V30 4906 N 483.339 0.512053 -1.4905 0
M  V30 4907 C 484.755 0.84224 -1.35567 0
M  V30 4908 C 484.955 1.97878 -0.380319 0
M  V30 4909 O 484.011 2.51769 0.19201 0
M  V30 4910 C 485.324 1.19286 -2.76028 0
M  V30 4911 C 486.872 1.30171 -2.84648 0
M  V30 4912 C 487.347 1.68568 -4.25851 0
M  V30 4913 N 488.838 1.75638 -4.28609 0
M  V30 4914 C 489.573 2.06769 -5.34821 0
M  V30 4915 N 489.069 2.36201 -6.51292 0
M  V30 4916 N 490.862 2.07927 -5.22229 0
M  V30 4917 H 483.013 -0.237574 -2.11067 0
M  V30 4918 H 485.276 -0.0436747 -0.946993 0
M  V30 4919 H 484.982 0.431199 -3.49047 0
M  V30 4920 H 484.856 2.13889 -3.10695 0
M  V30 4921 H 487.243 2.05411 -2.11873 0
M  V30 4922 H 487.324 0.336457 -2.53578 0
M  V30 4923 H 486.968 0.938824 -4.99148 0
M  V30 4924 H 486.898 2.66174 -4.54377 0
M  V30 4925 H 489.389 1.55097 -3.44606 0
M  V30 4926 H 489.702 2.59112 -7.28066 0
M  V30 4927 H 488.047 2.33681 -6.54536 0
M  V30 4928 H 491.238 1.84403 -4.30248 0
M  V30 4929 H 491.411 2.31856 -6.05101 0
M  V30 4930 N 484.817 1.37938 0.762283 0
M  V30 4931 C 485.78 1.34279 1.85747 0
M  V30 4932 C 486.78 0.244969 1.58923 0
M  V30 4933 O 487.97 0.501365 1.66829 0
M  V30 4934 C 485.102 1.08833 3.23061 0
M  V30 4935 H 486.295 2.31705 1.90401 0
M  V30 4936 H 483.848 1.23105 0.963057 0
M  V30 4937 H 484.583 0.119767 3.24079 0
M  V30 4938 H 484.368 1.88306 3.43923 0
M  V30 4939 H 485.858 1.08946 4.03138 0
M  V30 4940 N 486.295 -0.989507 1.22664 0
M  V30 4941 C 487.542 -1.72953 1.05325 0
M  V30 4942 C 487.87 -1.90104 -0.411168 0
M  V30 4943 O 487.125 -1.44386 -1.32103 0
M  V30 4944 C 487.424 -3.13649 1.71345 0
M  V30 4945 C 487.09 -3.16403 3.21248 0
M  V30 4946 C 485.752 -3.16862 3.62149 0
M  V30 4947 C 488.104 -3.12428 4.17179 0
M  V30 4948 C 485.432 -3.11051 4.97458 0
M  V30 4949 C 487.784 -3.08159 5.52468 0
M  V30 4950 C 486.448 -3.06935 5.92746 0
M  V30 4951 H 485.718 -0.632881 0.385412 0
M  V30 4952 H 488.365 -1.15863 1.52473 0
M  V30 4953 H 486.67 -3.74069 1.16532 0
M  V30 4954 H 488.367 -3.69658 1.55416 0
M  V30 4955 H 484.957 -3.16798 2.88682 0
M  V30 4956 H 489.141 -3.11221 3.86595 0
M  V30 4957 H 484.397 -3.0845 5.27891 0
M  V30 4958 H 488.571 -3.04039 6.26525 0
M  V30 4959 H 486.198 -3.02186 6.97558 0
M  V30 4960 N 487.773 -1.03688 -1.18687 0
M  V30 4961 C 488.72 -0.624624 -2.22187 0
M  V30 4962 C 489.69 0.365636 -1.62026 0
M  V30 4963 O 490.875 0.260481 -1.89014 0
M  V30 4964 C 488.015 0.0101738 -3.45099 0
M  V30 4965 C 487.128 -1.02709 -4.19613 0
M  V30 4966 C 486.263 -0.361213 -5.2997 0
M  V30 4967 C 485.302 -1.38384 -5.96252 0
M  V30 4968 N 484.439 -0.743196 -6.98155 0
M  V30 4969 H 489.279 -1.51176 -2.56807 0
M  V30 4970 H 486.816 -0.75636 -1.26165 0
M  V30 4971 H 488.774 0.395528 -4.15321 0
M  V30 4972 H 487.404 0.860848 -3.1111 0
M  V30 4973 H 486.456 -1.53043 -3.48256 0
M  V30 4974 H 487.768 -1.80398 -4.65036 0
M  V30 4975 H 486.922 0.0785537 -6.06649 0
M  V30 4976 H 485.661 0.447799 -4.8564 0
M  V30 4977 H 484.666 -1.83378 -5.18317 0
M  V30 4978 H 485.891 -2.19448 -6.42666 0
M  V30 4979 H 483.837 0.0455789 -6.55984 0
M  V30 4980 H 483.754 -1.45784 -7.41811 0
M  V30 4981 H 485.022 -0.327698 -7.78811 0
M  V30 4982 N 489.251 1.34841 -0.815825 0
M  V30 4983 C 490.183 2.28409 -0.190265 0
M  V30 4984 C 491.196 1.50705 0.615771 0
M  V30 4985 O 492.385 1.72822 0.446616 0
M  V30 4986 C 489.485 3.30441 0.752446 0
M  V30 4987 C 488.658 4.37399 -0.00922152 0
M  V30 4988 C 487.717 5.19234 0.853351 0
M  V30 4989 O 486.743 5.68404 0.300919 0
M  V30 4990 N 487.945 5.38248 2.17416 0
M  V30 4991 H 490.71 2.82732 -0.994114 0
M  V30 4992 H 488.271 1.47289 -0.672129 0
M  V30 4993 H 490.263 3.82084 1.33394 0
M  V30 4994 H 488.833 2.76565 1.45707 0
M  V30 4995 H 488.053 3.86567 -0.771979 0
M  V30 4996 H 489.341 5.05992 -0.533807 0
M  V30 4997 H 488.739 4.99961 2.6468 0
M  V30 4998 H 487.296 5.93035 2.70467 0
M  V30 4999 N 490.729 0.570148 1.46925 0
M  V30 5000 C 491.954 0.0542592 2.07329 0
M  V30 5001 C 492.379 -1.23582 1.41806 0
M  V30 5002 O 491.737 -1.74341 0.497479 0
M  V30 5003 C 491.785 -0.111175 3.60429 0
M  V30 5004 O 490.889 -1.17071 3.95434 0
M  V30 5005 H 490.23 0.0571425 0.661537 0
M  V30 5006 H 492.76 0.789516 1.88753 0
M  V30 5007 H 492.77 -0.321315 4.06733 0
M  V30 5008 H 491.445 0.831012 4.07513 0
M  V30 5009 H 490.022 -0.940029 3.60857 0
M  V30 5010 N 492.207 -1.54576 0.307264 0
M  V30 5011 C 493.618 -1.8579 -0.184121 0
M  V30 5012 C 493.969 -1.22914 -1.52927 0
M  V30 5013 O 493.094 -0.529126 -2.09831 0
M  V30 5014 C 493.689 -3.37081 -0.340862 0
M  V30 5015 C 492.248 -3.68304 -0.776465 0
M  V30 5016 C 491.395 -2.77076 0.111503 0
M  V30 5017 H 494.346 -1.49656 0.528078 0
M  V30 5018 H 494.367 -3.61922 -1.17443 0
M  V30 5019 H 493.879 -3.82815 0.638309 0
M  V30 5020 H 491.98 -3.28092 -1.76596 0
M  V30 5021 H 492.093 -4.75434 -0.591512 0
M  V30 5022 H 490.457 -2.51374 -0.410256 0
M  V30 5023 H 491.24 -3.25632 1.08714 0
M  V30 5024 N 493.685 -0.035106 -1.57561 0
M  V30 5025 C 495.096 0.502885 -1.798 0
M  V30 5026 C 495.447 1.71892 -0.945921 0
M  V30 5027 O 494.572 2.15822 -0.157991 0
M  V30 5028 C 495.167 0.919097 -3.26095 0
M  V30 5029 C 493.726 1.40216 -3.49308 0
M  V30 5030 C 492.873 0.369709 -2.74824 0
M  V30 5031 H 495.824 -0.261102 -1.56537 0
M  V30 5032 H 495.845 1.78308 -3.36135 0
M  V30 5033 H 495.357 0.0338526 -3.88085 0
M  V30 5034 H 493.458 2.30714 -2.92578 0
M  V30 5035 H 493.571 1.40541 -4.58023 0
M  V30 5036 H 491.935 0.839113 -2.40481 0
M  V30 5037 H 492.718 -0.507173 -3.39533 0
M  V30 5038 N 495.163 1.55791 0.238111 0
M  V30 5039 C 496.126 1.90239 1.27835 0
M  V30 5040 C 497.126 0.779552 1.4064 0
M  V30 5041 O 498.316 1.04747 1.3919 0
M  V30 5042 C 495.448 2.13859 2.65475 0
M  V30 5043 H 496.641 2.83262 0.985034 0
M  V30 5044 H 494.194 1.48818 0.477799 0
M  V30 5045 H 494.929 1.23334 2.99932 0
M  V30 5046 H 494.714 2.95643 2.57561 0
M  V30 5047 H 496.204 2.41664 3.40571 0
M  V30 5048 N 496.642 -0.504142 1.49319 0
M  V30 5049 C 497.888 -1.26033 1.58882 0
M  V30 5050 C 498.221 -1.92268 0.273274 0
M  V30 5051 O 497.496 -1.80567 -0.72291 0
M  V30 5052 C 497.779 -2.32976 2.7458 0
M  V30 5053 C 497.632 -1.71263 4.1592 0
M  V30 5054 C 498.951 -3.34561 2.85932 0
M  V30 5055 H 496.07 -0.456863 0.578312 0
M  V30 5056 H 498.712 -0.558965 1.81592 0
M  V30 5057 H 496.862 -2.92796 2.55348 0
M  V30 5058 H 498.534 -1.15294 4.4666 0
M  V30 5059 H 496.777 -1.01686 4.21714 0
M  V30 5060 H 497.448 -2.48816 4.92742 0
M  V30 5061 H 499.924 -2.84727 3.0343 0
M  V30 5062 H 498.8 -4.06754 3.68568 0
M  V30 5063 H 499.061 -3.96695 1.95154 0
M  V30 5064 N 498.12 -1.38341 -0.754957 0
M  V30 5065 C 499.531 -1.30803 -1.3322 0
M  V30 5066 C 499.882 0.0368 -1.96165 0
M  V30 5067 O 499.007 0.938844 -1.94974 0
M  V30 5068 C 499.602 -2.3688 -2.42225 0
M  V30 5069 C 498.161 -2.32925 -2.95674 0
M  V30 5070 C 497.308 -2.19819 -1.69042 0
M  V30 5071 H 500.259 -1.48719 -0.553937 0
M  V30 5072 H 500.28 -2.02517 -3.22129 0
M  V30 5073 H 499.792 -3.34747 -1.96383 0
M  V30 5074 H 497.893 -1.38635 -3.45848 0
M  V30 5075 H 498.006 -3.27008 -3.50146 0
M  V30 5076 H 496.37 -1.66648 -1.92615 0
M  V30 5077 H 497.153 -3.19625 -1.25279 0
M  V30 5078 N 499.598 0.982988 -1.23187 0
M  V30 5079 C 500.561 2.05649 -1.01198 0
M  V30 5080 C 501.561 1.6078 0.0252464 0
M  V30 5081 O 502.751 1.72878 -0.214243 0
M  V30 5082 C 499.883 3.36744 -0.530656 0
M  V30 5083 H 501.076 2.2659 -1.96461 0
M  V30 5084 H 498.629 1.15602 -1.05195 0
M  V30 5085 H 499.364 3.21492 0.425873 0
M  V30 5086 H 499.149 3.7065 -1.2791 0
M  V30 5087 H 500.639 4.15705 -0.397366 0
M  V30 5088 N 501.076 1.04316 1.18135 0
M  V30 5089 C 502.006 0.657299 2.24058 0
M  V30 5090 C 502.987 -0.340678 1.66654 0
M  V30 5091 O 504.172 -0.220223 1.92947 0
M  V30 5092 C 501.302 0.0220715 3.47293 0
M  V30 5093 C 500.256 0.943857 4.17463 0
M  V30 5094 C 499.582 0.172973 5.3442 0
M  V30 5095 C 500.882 2.26409 4.70677 0
M  V30 5096 H 502.576 1.5428 2.56589 0
M  V30 5097 H 500.122 0.743263 1.23335 0
M  V30 5098 H 502.075 -0.259607 4.206 0
M  V30 5099 H 500.799 -0.898323 3.14003 0
M  V30 5100 H 499.458 1.20996 3.46057 0
M  V30 5101 H 499.106 -0.749907 4.97379 0
M  V30 5102 H 498.806 0.787098 5.82304 0
M  V30 5103 H 500.33 -0.101628 6.10515 0
M  V30 5104 H 501.744 2.04294 5.35665 0
M  V30 5105 H 500.141 2.8314 5.29105 0
M  V30 5106 H 501.211 2.90883 3.87962 0
M  V30 5107 N 502.554 -1.34406 0.822964 0
M  V30 5108 C 503.802 -1.97892 0.410245 0
M  V30 5109 C 504.123 -1.65567 -1.03017 0
M  V30 5110 O 503.393 -0.94642 -1.71522 0
M  V30 5111 H 501.973 -0.732049 0.148707 0
M  V30 5112 H 504.635 -1.64043 1.05242 0
M  V30 5113 H 503.731 -3.07579 0.529284 0
M  V30 5114 N 504.032 -0.577932 -1.46621 0
M  V30 5115 C 504.995 0.147805 -2.28723 0
M  V30 5116 C 505.995 0.823325 -1.38123 0
M  V30 5117 O 507.185 0.676011 -1.60548 0
M  V30 5118 C 504.317 1.21853 -3.18378 0
M  V30 5119 H 505.51 -0.573654 -2.94362 0
M  V30 5120 H 503.063 -0.335703 -1.52652 0
M  V30 5121 H 503.798 1.97173 -2.57475 0
M  V30 5122 H 503.583 0.738714 -3.85078 0
M  V30 5123 H 505.073 1.72768 -3.80186 0
M  V30 5124 N 505.51 1.54411 -0.315457 0
M  V30 5125 C 506.758 2.00023 0.288971 0
M  V30 5126 C 507.079 1.20529 1.5329 0
M  V30 5127 O 506.349 0.304986 1.93511 0
M  V30 5128 H 504.929 0.738891 0.109766 0
M  V30 5129 H 507.591 1.90094 -0.430129 0
M  V30 5130 H 506.687 3.07198 0.550999 0
M  V30 5131 N 506.988 0.0434614 1.5754 0
M  V30 5132 C 508.234 -0.632971 1.92669 0
M  V30 5133 C 508.567 -1.70947 0.921446 0
M  V30 5134 O 507.842 -1.94426 -0.0537202 0
M  V30 5135 C 508.125 -1.23619 3.38216 0
M  V30 5136 C 507.978 -0.168274 4.49485 0
M  V30 5137 C 509.297 -2.15008 3.84005 0
M  V30 5138 H 506.416 -0.228629 0.700641 0
M  V30 5139 H 509.058 0.103651 1.89717 0
M  V30 5140 H 507.208 -1.864 3.40863 0
M  V30 5141 H 508.88 0.463196 4.58969 0
M  V30 5142 H 507.123 0.504581 4.30855 0
M  V30 5143 H 507.794 -0.630218 5.48391 0
M  V30 5144 H 510.27 -1.62198 3.83185 0
M  V30 5145 H 509.146 -2.54161 4.86511 0
M  V30 5146 H 509.407 -3.04707 3.20322 0
M  V30 5147 N 508.466 -1.55915 -0.229846 0
M  V30 5148 C 509.413 -1.91734 -1.28478 0
M  V30 5149 C 510.383 -0.773539 -1.46988 0
M  V30 5150 O 511.568 -1.02871 -1.60693 0
M  V30 5151 C 508.708 -2.23224 -2.63182 0
M  V30 5152 C 507.821 -3.50497 -2.52539 0
M  V30 5153 C 506.956 -3.71474 -3.79711 0
M  V30 5154 C 505.995 -4.92289 -3.63755 0
M  V30 5155 N 505.132 -5.09698 -4.82858 0
M  V30 5156 H 509.972 -2.81692 -0.972308 0
M  V30 5157 H 507.509 -1.39429 -0.468815 0
M  V30 5158 H 509.467 -2.3949 -3.41614 0
M  V30 5159 H 508.097 -1.36451 -2.92542 0
M  V30 5160 H 507.149 -3.4247 -1.65585 0
M  V30 5161 H 508.461 -4.39079 -2.36666 0
M  V30 5162 H 507.615 -3.87791 -4.66586 0
M  V30 5163 H 506.354 -2.81157 -3.985 0
M  V30 5164 H 505.359 -4.7593 -2.75264 0
M  V30 5165 H 506.584 -5.84083 -3.46445 0
M  V30 5166 H 504.53 -4.22322 -5.01976 0
M  V30 5167 H 504.447 -5.92399 -4.69681 0
M  V30 5168 H 505.715 -5.30443 -5.71183 0
M  V30 5169 N 509.944 0.496216 -1.49584 0
M  V30 5170 C 510.891 1.59722 -1.66606 0
M  V30 5171 C 511.861 1.58158 -0.507477 0
M  V30 5172 O 513.046 1.76072 -0.735076 0
M  V30 5173 C 510.186 2.97844 -1.74308 0
M  V30 5174 C 509.299 3.09388 -3.01502 0
M  V30 5175 C 508.434 4.38271 -3.00153 0
M  V30 5176 C 507.473 4.43466 -4.21906 0
M  V30 5177 N 506.61 5.63784 -4.1844 0
M  V30 5178 H 511.45 1.44515 -2.60613 0
M  V30 5179 H 508.987 0.703048 -1.29212 0
M  V30 5180 H 510.945 3.77907 -1.76754 0
M  V30 5181 H 509.575 3.11743 -0.837619 0
M  V30 5182 H 508.627 2.22357 -3.08645 0
M  V30 5183 H 509.939 3.09085 -3.91494 0
M  V30 5184 H 509.093 5.2666 -3.01188 0
M  V30 5185 H 507.832 4.41146 -2.07947 0
M  V30 5186 H 506.837 3.53478 -4.21109 0
M  V30 5187 H 508.062 4.42303 -5.1531 0
M  V30 5188 H 506.008 5.67491 -3.29074 0
M  V30 5189 H 505.925 5.65118 -5.02173 0
M  V30 5190 H 507.193 6.54367 -4.23585 0
M  V30 5191 N 511.423 1.38739 0.74761 0
M  V30 5192 C 512.839 1.20067 1.05148 0
M  V30 5193 C 513.039 0.0534835 2.01429 0
M  V30 5194 O 512.095 -0.59886 2.45296 0
M  V30 5195 C 513.408 2.52957 1.62584 0
M  V30 5196 C 514.956 2.59692 1.74726 0
M  V30 5197 C 515.431 3.92772 2.35573 0
M  V30 5198 N 516.922 3.94343 2.42997 0
M  V30 5199 C 517.657 4.9408 2.90985 0
M  V30 5200 N 517.153 6.04214 3.38965 0
M  V30 5201 N 518.946 4.81466 2.9008 0
M  V30 5202 H 511.097 2.12121 0.108808 0
M  V30 5203 H 513.36 0.941491 0.110899 0
M  V30 5204 H 513.066 3.37389 0.993051 0
M  V30 5205 H 512.94 2.71779 2.61565 0
M  V30 5206 H 515.327 1.75651 2.3713 0
M  V30 5207 H 515.408 2.44731 0.744326 0
M  V30 5208 H 515.052 4.77238 1.738 0
M  V30 5209 H 514.982 4.05046 3.36519 0
M  V30 5210 H 517.473 3.14799 2.0907 0
M  V30 5211 H 517.786 6.76241 3.74056 0
M  V30 5212 H 516.131 6.07825 3.37007 0
M  V30 5213 H 519.322 3.94535 2.51912 0
M  V30 5214 H 519.495 5.59344 3.27166 0
M  V30 5215 N 512.901 -0.976442 1.23707 0
M  V30 5216 C 514.317 -1.24341 1.00058 0
M  V30 5217 C 514.517 -1.99315 -0.295932 0
M  V30 5218 O 513.573 -2.3123 -1.01435 0
M  V30 5219 C 514.886 -2.03909 2.21001 0
M  V30 5220 C 516.434 -2.17034 2.25534 0
M  V30 5221 C 516.909 -2.99994 3.46075 0
M  V30 5222 N 518.4 -3.07578 3.46338 0
M  V30 5223 C 519.135 -3.72104 4.36264 0
M  V30 5224 N 518.631 -4.3842 5.36432 0
M  V30 5225 N 520.424 -3.69029 4.23998 0
M  V30 5226 H 512.575 -0.47428 2.07037 0
M  V30 5227 H 514.838 -0.272167 0.908091 0
M  V30 5228 H 514.544 -1.56198 3.15111 0
M  V30 5229 H 514.418 -3.04654 2.22409 0
M  V30 5230 H 516.805 -2.63951 1.31961 0
M  V30 5231 H 516.886 -1.15664 2.28156 0
M  V30 5232 H 516.53 -2.53772 4.39957 0
M  V30 5233 H 516.46 -4.01541 3.40694 0
M  V30 5234 H 518.951 -2.60397 2.73865 0
M  V30 5235 H 519.264 -4.85447 6.013 0
M  V30 5236 H 517.609 -4.37116 5.40328 0
M  V30 5237 H 520.8 -3.16392 3.44984 0
M  V30 5238 H 520.973 -4.19034 4.94282 0
M  V30 5239 N 514.379 -1.04941 -1.1758 0
M  V30 5240 C 515.329 -0.618378 -2.19454 0
M  V30 5241 C 516.313 0.343813 -1.57184 0
M  V30 5242 O 517.505 0.16145 -1.76262 0
M  V30 5243 C 514.634 0.00803847 -3.43299 0
M  V30 5244 C 513.72 -0.977827 -4.12673 0
M  V30 5245 N 514.111 -2.14826 -4.57912 0
M  V30 5246 C 512.409 -0.805748 -4.38661 0
M  V30 5247 C 513.11 -2.77174 -5.11419 0
M  V30 5248 N 512.086 -2.04989 -5.03468 0
M  V30 5249 H 515.888 -1.51018 -2.52132 0
M  V30 5250 H 513.402 -0.919201 -1.33882 0
M  V30 5251 H 515.399 0.334584 -4.15555 0
M  V30 5252 H 514.059 0.895272 -3.12114 0
M  V30 5253 H 515.07 -2.52673 -4.52081 0
M  V30 5254 H 511.747 0.0306506 -4.17489 0
M  V30 5255 H 513.137 -3.76416 -5.56562 0
M  V30 5256 N 515.857 1.33968 -0.830081 0
M  V30 5257 C 517.105 1.97672 -0.420734 0
M  V30 5258 C 517.426 1.66111 1.02138 0
M  V30 5259 O 516.696 0.955503 1.71017 0
M  V30 5260 H 515.276 0.73125 -0.152587 0
M  V30 5261 H 517.938 1.63483 -1.0611 0
M  V30 5262 H 517.034 3.07294 -0.545588 0
M  V30 5263 N 517.335 0.585699 1.46312 0
M  V30 5264 C 518.612 0.00542031 1.95599 0
M  V30 5265 C 518.992 -1.45619 1.52834 0
M  V30 5266 O 518.34 -2.14759 0.780446 0
M  V30 5267 C 518.55 0.180601 3.48532 0
M  V30 5268 C 519.898 0.049979 4.24571 0
M  V30 5269 O 520.922 0.109589 3.56031 0
M  V30 5270 O 519.781 -0.0832226 5.46437 0
M  V30 5271 H 516.875 -0.0481281 0.825598 0
M  V30 5272 H 519.421 0.654227 1.56582 0
M  V30 5273 H 518.193 1.19657 3.72556 0
M  V30 5274 H 517.816 -0.504498 3.94386 0
M  V30 5275 N 518.813 -1.54241 0.323641 0
M  V30 5276 C 519.723 -2.28033 -0.551205 0
M  V30 5277 C 520.739 -1.32388 -1.12913 0
M  V30 5278 O 521.915 -1.65403 -1.14908 0
M  V30 5279 C 518.98 -3.02382 -1.69606 0
M  V30 5280 C 518.041 -4.13612 -1.14993 0
M  V30 5281 C 517.274 -4.84407 -2.24022 0
M  V30 5282 O 517.497 -4.54716 -3.44368 0
M  V30 5283 O 516.431 -5.71312 -1.89436 0
M  V30 5284 H 520.257 -3.03662 0.048066 0
M  V30 5285 H 517.842 -1.49133 0.0893289 0
M  V30 5286 H 519.724 -3.48941 -2.36259 0
M  V30 5287 H 518.399 -2.29628 -2.28151 0
M  V30 5288 H 517.306 -3.71402 -0.448484 0
M  V30 5289 H 518.639 -4.8841 -0.609608 0
M  V30 5290 N 520.291 -0.0518155 -1.57515 0
M  V30 5291 C 521.568 0.661727 -1.84067 0
M  V30 5292 C 521.948 1.88999 -0.940351 0
M  V30 5293 O 521.296 2.285 -0.00155404 0
M  V30 5294 C 521.506 1.01841 -3.3381 0
M  V30 5295 C 522.854 1.40043 -4.00841 0
M  V30 5296 O 523.878 1.11073 -3.38439 0
M  V30 5297 O 522.737 1.94111 -5.10865 0
M  V30 5298 H 519.831 0.326702 -0.759733 0
M  V30 5299 H 522.377 -0.0812277 -1.69505 0
M  V30 5300 H 521.149 0.145202 -3.91031 0
M  V30 5301 H 520.772 1.81879 -3.53562 0
M  V30 5302 N 521.769 1.56035 0.221574 0
M  V30 5303 C 522.997 1.8313 0.962864 0
M  V30 5304 C 523.412 0.630934 1.77946 0
M  V30 5305 O 522.769 -0.400519 1.78051 0
M  V30 5306 C 522.82 3.08742 1.88045 0
M  V30 5307 O 522.541 4.24147 1.09686 0
M  V30 5308 C 524.042 3.48824 2.73563 0
M  V30 5309 H 521.262 0.608775 0.282194 0
M  V30 5310 H 523.806 2.03124 0.23681 0
M  V30 5311 H 521.961 2.90723 2.56045 0
M  V30 5312 H 522.375 4.95505 1.71974 0
M  V30 5313 H 523.849 4.39752 3.3365 0
M  V30 5314 H 524.326 2.70575 3.45956 0
M  V30 5315 H 524.932 3.69282 2.10976 0
M  V30 5316 N 523.247 -0.488276 1.49845 0
M  V30 5317 C 524.477 -1.26344 1.63465 0
M  V30 5318 C 524.885 -1.86637 0.310379 0
M  V30 5319 O 524.228 -1.69184 -0.715712 0
M  V30 5320 C 524.29 -2.42407 2.65479 0
M  V30 5321 C 523.954 -2.02886 4.09495 0
M  V30 5322 C 524.951 -1.56124 4.95904 0
M  V30 5323 C 522.636 -2.12131 4.55308 0
M  V30 5324 C 524.63 -1.19129 6.26169 0
M  V30 5325 C 522.317 -1.74747 5.85582 0
M  V30 5326 C 523.315 -1.28322 6.70837 0
M  V30 5327 O 523.003 -0.914491 7.98682 0
M  V30 5328 H 522.735 -0.388921 0.552916 0
M  V30 5329 H 525.289 -0.591288 1.96705 0
M  V30 5330 H 523.519 -3.12739 2.27445 0
M  V30 5331 H 525.208 -3.04409 2.68495 0
M  V30 5332 H 525.974 -1.48417 4.61733 0
M  V30 5333 H 521.853 -2.47217 3.89107 0
M  V30 5334 H 525.397 -0.828211 6.92666 0
M  V30 5335 H 521.294 -1.82109 6.19279 0
M  V30 5336 H 522.062 -1.04485 8.11804 0
M  V30 5337 N 524.725 -1.39134 -0.740242 0
M  V30 5338 C 525.955 -1.39132 -1.52728 0
M  V30 5339 C 526.363 0.0173133 -1.89192 0
M  V30 5340 O 525.706 0.997715 -1.54244 0
M  V30 5341 C 525.768 -2.1952 -2.84695 0
M  V30 5342 C 525.432 -3.68203 -2.70695 0
M  V30 5343 C 526.429 -4.61401 -2.39593 0
M  V30 5344 C 524.114 -4.11724 -2.8773 0
M  V30 5345 C 526.108 -5.96102 -2.25701 0
M  V30 5346 C 523.795 -5.46503 -2.73456 0
M  V30 5347 C 524.793 -6.38506 -2.42486 0
M  V30 5348 O 524.481 -7.70803 -2.28295 0
M  V30 5349 H 524.213 -0.477263 -0.478744 0
M  V30 5350 H 526.767 -1.83504 -0.922799 0
M  V30 5351 H 524.997 -1.69888 -3.47383 0
M  V30 5352 H 526.686 -2.1176 -3.46284 0
M  V30 5353 H 527.452 -4.29079 -2.26088 0
M  V30 5354 H 523.331 -3.4045 -3.10829 0
M  V30 5355 H 526.875 -6.6788 -2.0145 0
M  V30 5356 H 522.772 -5.78417 -2.86538 0
M  V30 5357 H 523.54 -7.8147 -2.43405 0
M  V30 5358 N 526.204 0.969867 -1.24223 0
M  V30 5359 C 527.134 2.08191 -1.05729 0
M  V30 5360 C 528.115 1.70075 0.0290765 0
M  V30 5361 O 529.3 1.93712 -0.137583 0
M  V30 5362 C 526.43 3.40991 -0.658995 0
M  V30 5363 C 525.384 3.93054 -1.69389 0
M  V30 5364 C 524.71 5.22171 -1.15072 0
M  V30 5365 C 526.01 4.21137 -3.08935 0
M  V30 5366 H 527.704 2.23921 -1.98746 0
M  V30 5367 H 525.25 1.07602 -0.956967 0
M  V30 5368 H 527.203 4.18221 -0.51662 0
M  V30 5369 H 525.927 3.25155 0.30686 0
M  V30 5370 H 524.586 3.17977 -1.82444 0
M  V30 5371 H 524.234 5.02694 -0.175539 0
M  V30 5372 H 523.934 5.57973 -1.84229 0
M  V30 5373 H 525.458 6.02013 -1.02042 0
M  V30 5374 H 526.872 4.8908 -2.99121 0
M  V30 5375 H 525.269 4.68163 -3.75425 0
M  V30 5376 H 526.339 3.27996 -3.57137 0
M  V30 5377 N 527.682 1.05563 1.17022 0
M  V30 5378 C 528.614 0.617888 2.20714 0
M  V30 5379 C 529.627 -0.320303 1.59618 0
M  V30 5380 O 530.816 -0.112449 1.78145 0
M  V30 5381 C 527.916 -0.115333 3.38704 0
M  V30 5382 C 527.089 0.834493 4.29366 0
M  V30 5383 C 526.148 0.141855 5.26009 0
M  V30 5384 O 525.174 0.777151 5.6387 0
M  V30 5385 N 526.376 -1.11934 5.69606 0
M  V30 5386 H 529.141 1.50981 2.58892 0
M  V30 5387 H 526.702 0.938008 1.31958 0
M  V30 5388 H 528.694 -0.588918 4.00392 0
M  V30 5389 H 527.264 -0.908967 2.99093 0
M  V30 5390 H 526.484 1.48762 3.65053 0
M  V30 5391 H 527.772 1.4791 4.86827 0
M  V30 5392 H 527.17 -1.65574 5.40927 0
M  V30 5393 H 525.727 -1.53692 6.33421 0
M  V30 5394 N 529.16 -1.33526 0.837174 0
M  V30 5395 C 530.406 -1.9813 0.432704 0
M  V30 5396 C 530.739 -1.66168 -1.00508 0
M  V30 5397 O 530.014 -0.94069 -1.70239 0
M  V30 5398 C 530.297 -3.54151 0.651834 0
M  V30 5399 C 530.15 -3.95806 2.13676 0
M  V30 5400 C 531.469 -4.39993 0.0968937 0
M  V30 5401 H 528.588 -0.719713 0.15869 0
M  V30 5402 H 531.23 -1.58193 1.05237 0
M  V30 5403 H 529.38 -3.88301 0.124369 0
M  V30 5404 H 531.052 -3.71921 2.72896 0
M  V30 5405 H 529.295 -3.45599 2.62191 0
M  V30 5406 H 529.966 -5.0447 2.24084 0
M  V30 5407 H 532.442 -4.12479 0.547733 0
M  V30 5408 H 531.318 -5.48186 0.279917 0
M  V30 5409 H 531.579 -4.3066 -0.9992 0
M  V30 5410 N 530.638 -0.59345 -1.46 0
M  V30 5411 C 532.054 -0.255965 -1.57534 0
M  V30 5412 C 532.254 1.24167 -1.58697 0
M  V30 5413 O 531.31 2.02398 -1.50968 0
M  V30 5414 C 532.623 -0.91466 -2.86451 0
M  V30 5415 C 534.171 -0.889253 -3.00102 0
M  V30 5416 C 534.646 -1.52769 -4.3177 0
M  V30 5417 N 536.137 -1.49253 -4.38495 0
M  V30 5418 C 536.872 -1.9558 -5.39014 0
M  V30 5419 N 536.368 -2.49929 -6.46148 0
M  V30 5420 N 538.161 -1.86432 -5.30282 0
M  V30 5421 H 530.312 -1.56604 -1.43489 0
M  V30 5422 H 532.575 -0.655207 -0.685133 0
M  V30 5423 H 532.281 -1.96861 -2.91442 0
M  V30 5424 H 532.155 -0.429356 -3.74748 0
M  V30 5425 H 534.542 0.156111 -2.94687 0
M  V30 5426 H 534.623 -1.41268 -2.13253 0
M  V30 5427 H 534.267 -2.57231 -4.37944 0
M  V30 5428 H 534.197 -0.979398 -5.17412 0
M  V30 5429 H 536.688 -1.09536 -3.61677 0
M  V30 5430 H 537.001 -2.83109 -7.19075 0
M  V30 5431 H 535.346 -2.53961 -6.46938 0
M  V30 5432 H 538.537 -1.43722 -4.4549 0
M  V30 5433 H 538.71 -2.22852 -6.08474 0
M  V30 5434 N 532.116 1.54067 -0.331816 0
M  V30 5435 C 533.364 2.00319 0.267739 0
M  V30 5436 C 533.685 1.22148 1.52003 0
M  V30 5437 O 532.955 0.325494 1.93177 0
M  V30 5438 H 531.535 0.740014 0.101922 0
M  V30 5439 H 534.197 1.89628 -0.450267 0
M  V30 5440 H 533.293 3.07765 0.518385 0
M  V30 5441 N 533.594 0.0601682 1.57485 0
M  V30 5442 C 535.01 -0.296422 1.56823 0
M  V30 5443 C 535.21 -1.70831 1.0686 0
M  V30 5444 O 534.266 -2.4174 0.729245 0
M  V30 5445 C 535.579 -0.116681 3.00474 0
M  V30 5446 C 537.127 -0.187103 3.1244 0
M  V30 5447 C 537.602 -0.035783 4.57986 0
M  V30 5448 N 539.093 -0.0917676 4.63109 0
M  V30 5449 C 539.828 0.00107251 5.734 0
M  V30 5450 N 539.324 0.146773 6.92645 0
M  V30 5451 N 541.117 -0.0551577 5.62073 0
M  V30 5452 H 533.268 0.983055 1.88281 0
M  V30 5453 H 535.531 0.382386 0.867459 0
M  V30 5454 H 535.237 0.85712 3.41096 0
M  V30 5455 H 535.111 -0.873929 3.66936 0
M  V30 5456 H 537.498 -1.15138 2.71712 0
M  V30 5457 H 537.579 0.601052 2.48638 0
M  V30 5458 H 537.223 0.925212 4.99402 0
M  V30 5459 H 537.153 -0.843196 5.19806 0
M  V30 5460 H 539.644 -0.203261 3.77353 0
M  V30 5461 H 539.957 0.210076 7.72514 0
M  V30 5462 H 538.302 0.181979 6.94762 0
M  V30 5463 H 541.493 -0.167605 4.678 0
M  V30 5464 H 541.666 0.020652 6.47997 0
M  V30 5465 N 535.072 -1.5615 -0.213296 0
M  V30 5466 C 535.982 -1.96265 -1.28519 0
M  V30 5467 C 536.998 -0.86765 -1.50824 0
M  V30 5468 O 538.174 -1.17191 -1.63793 0
M  V30 5469 C 535.239 -2.27836 -2.61327 0
M  V30 5470 C 534.3 -3.50949 -2.47252 0
M  V30 5471 C 533.533 -3.81004 -3.73727 0
M  V30 5472 O 533.756 -3.12612 -4.77106 0
M  V30 5473 O 532.69 -4.74477 -3.70344 0
M  V30 5474 H 536.516 -2.87631 -0.974795 0
M  V30 5475 H 534.101 -1.43467 -0.416832 0
M  V30 5476 H 535.983 -2.49299 -3.39747 0
M  V30 5477 H 534.658 -1.39643 -2.9203 0
M  V30 5478 H 533.565 -3.34754 -1.67004 0
M  V30 5479 H 534.898 -4.39551 -2.21486 0
M  V30 5480 N 536.55 0.480323 -1.50102 0
M  V30 5481 C 537.498 1.60024 -1.68805 0
M  V30 5482 C 538.492 1.60089 -0.553888 0
M  V30 5483 O 539.698 1.64349 -0.734127 0
M  V30 5484 H 536.073 0.530841 -0.532646 0
M  V30 5485 H 538.044 1.41408 -2.62767 0
M  V30 5486 C 536.793 2.98029 -1.79092 0
M  V30 5487 H 536.116 2.98694 -2.65748 0
M  V30 5488 H 537.556 3.75871 -1.96206 0
M  V30 5489 C 536.015 3.32538 -0.540388 0
M  V30 5490 O 536.545 4.00386 0.324637 0
M  V30 5491 N 534.751 2.87873 -0.397154 0
M  V30 5492 H 534.298 2.32834 -1.1021 0
M  V30 5493 H 534.256 3.11328 0.438425 0
M  V30 5494 N 538.028 1.39524 0.732853 0
M  V30 5495 C 539.275 1.36865 1.49246 0
M  V30 5496 C 539.603 -0.0347118 1.94469 0
M  V30 5497 O 538.858 -1.01596 1.67262 0
M  V30 5498 C 539.157 2.28916 2.74468 0
M  V30 5499 C 538.823 3.76506 2.481 0
M  V30 5500 C 537.485 4.16721 2.40619 0
M  V30 5501 C 539.837 4.69846 2.25598 0
M  V30 5502 C 537.165 5.48334 2.08679 0
M  V30 5503 C 539.517 6.01739 1.95174 0
M  V30 5504 C 538.181 6.41015 1.86163 0
M  V30 5505 H 537.451 0.500824 0.546129 0
M  V30 5506 H 540.098 1.72047 0.840958 0
M  V30 5507 H 538.403 1.86859 3.4437 0
M  V30 5508 H 540.1 2.2415 3.32502 0
M  V30 5509 H 536.69 3.44635 2.54803 0
M  V30 5510 H 540.874 4.39608 2.30344 0
M  V30 5511 H 536.13 5.77685 2.00226 0
M  V30 5512 H 540.304 6.73591 1.76771 0
M  V30 5513 H 537.931 7.42917 1.61179 0
M  V30 5514 N 539.506 -0.963266 1.24736 0
M  V30 5515 C 540.416 -2.09246 1.06082 0
M  V30 5516 C 541.432 -1.74 0.000363101 0
M  V30 5517 O 542.608 -2.0041 0.199479 0
M  V30 5518 C 539.673 -3.40115 0.672498 0
M  V30 5519 C 538.734 -3.89282 1.80993 0
M  V30 5520 C 537.967 -5.13905 1.44004 0
M  V30 5521 O 538.19 -5.69434 0.331835 0
M  V30 5522 O 537.124 -5.57566 2.26723 0
M  V30 5523 H 540.95 -2.27881 2.00759 0
M  V30 5524 H 538.535 -1.07649 1.03595 0
M  V30 5525 H 540.417 -4.18797 0.467668 0
M  V30 5526 H 539.092 -3.22771 -0.245102 0
M  V30 5527 H 537.999 -3.11642 2.06955 0
M  V30 5528 H 539.332 -4.1111 2.70646 0
M  V30 5529 N 540.985 -1.06182 -1.16461 0
M  V30 5530 C 542.234 -0.772927 -1.86303 0
M  V30 5531 C 542.547 0.703187 -1.82523 0
M  V30 5532 O 543.753 1.10641 -2.47933 0
M  V30 5533 C 542.209 -1.33249 -3.34324 0
M  V30 5534 C 541.817 -2.83876 -3.46581 0
M  V30 5535 C 543.561 -1.12108 -4.09429 0
M  V30 5536 C 541.468 -3.33082 -4.88682 0
M  V30 5537 H 540.398 -0.285452 -0.697878 0
M  V30 5538 H 543.049 -1.28039 -1.31447 0
M  V30 5539 H 541.431 -0.7528 -3.88779 0
M  V30 5540 H 542.605 -3.47786 -3.02293 0
M  V30 5541 H 540.92 -3.03671 -2.84909 0
M  V30 5542 H 543.517 -1.46361 -5.14279 0
M  V30 5543 H 543.86 -0.0593832 -4.16258 0
M  V30 5544 H 544.393 -1.6665 -3.6121 0
M  V30 5545 H 541.132 -4.38726 -4.87032 0
M  V30 5546 H 540.652 -2.73919 -5.33599 0
M  V30 5547 H 542.331 -3.28344 -5.57494 0
M  V30 5548 N 542.463 1.3308 -0.844243 0
M  V30 5549 C 543.393 2.3161 -0.296493 0
M  V30 5550 C 544.374 1.59215 0.598707 0
M  V30 5551 O 545.559 1.87077 0.521134 0
M  V30 5552 C 542.689 3.43313 0.524762 0
M  V30 5553 C 541.643 4.27115 -0.275106 0
M  V30 5554 C 540.969 5.30483 0.670236 0
M  V30 5555 C 542.269 5.00443 -1.49514 0
M  V30 5556 H 543.963 2.77672 -1.11976 0
M  V30 5557 H 541.509 1.33496 -0.539899 0
M  V30 5558 H 543.462 4.11273 0.918298 0
M  V30 5559 H 542.186 2.95952 1.3813 0
M  V30 5560 H 540.845 3.60787 -0.650267 0
M  V30 5561 H 540.493 4.79379 1.52332 0
M  V30 5562 H 540.193 5.87435 0.139123 0
M  V30 5563 H 541.717 6.01308 1.06117 0
M  V30 5564 H 543.131 5.61141 -1.17447 0
M  V30 5565 H 541.528 5.67071 -1.96343 0
M  V30 5566 H 542.598 4.28906 -2.26202 0
M  V30 5567 N 543.941 0.601185 1.45683 0
M  V30 5568 C 544.874 -0.17013 2.27565 0
M  V30 5569 C 545.852 -0.879661 1.36751 0
M  V30 5570 O 547.036 -0.889827 1.66176 0
M  V30 5571 C 544.163 -1.24568 3.14961 0
M  V30 5572 C 543.209 -0.639978 4.21671 0
M  V30 5573 S 544.042 0.547275 5.32696 0
M  V30 5574 C 545.198 -0.529019 6.2366 0
M  V30 5575 H 545.431 0.524583 2.92635 0
M  V30 5576 H 542.964 0.388537 1.49431 0
M  V30 5577 H 544.922 -1.86138 3.65873 0
M  V30 5578 H 543.583 -1.91243 2.49169 0
M  V30 5579 H 542.776 -1.44903 4.8272 0
M  V30 5580 H 542.378 -0.0995558 3.73867 0
M  V30 5581 H 544.67 -1.40981 6.62669 0
M  V30 5582 H 545.613 0.0451599 7.08086 0
M  V30 5583 H 546.021 -0.84147 5.58193 0
M  V30 5584 N 545.419 -1.53889 0.339982 0
M  V30 5585 C 546.366 -2.24902 -0.518452 0
M  V30 5586 C 547.336 -1.24593 -1.09844 0
M  V30 5587 O 548.521 -1.53317 -1.13572 0
M  V30 5588 C 545.661 -3.02262 -1.66529 0
M  V30 5589 C 544.774 -4.17418 -1.11295 0
M  V30 5590 C 543.909 -4.82273 -2.2268 0
M  V30 5591 C 542.948 -5.89503 -1.6478 0
M  V30 5592 N 542.085 -6.48153 -2.69893 0
M  V30 5593 H 546.925 -2.97853 0.0936579 0
M  V30 5594 H 544.462 -1.46986 0.0579924 0
M  V30 5595 H 546.42 -3.45371 -2.3404 0
M  V30 5596 H 545.05 -2.31614 -2.24844 0
M  V30 5597 H 544.102 -3.78976 -0.328886 0
M  V30 5598 H 545.414 -4.94554 -0.649414 0
M  V30 5599 H 544.568 -5.28435 -2.98063 0
M  V30 5600 H 543.307 -4.04552 -2.72376 0
M  V30 5601 H 542.312 -5.42728 -0.879004 0
M  V30 5602 H 543.537 -6.6913 -1.1594 0
M  V30 5603 H 541.483 -5.73298 -3.1885 0
M  V30 5604 H 541.4 -7.20752 -2.28151 0
M  V30 5605 H 542.668 -6.98968 -3.45056 0
M  V30 5606 N 546.897 -0.0685191 -1.57451 0
M  V30 5607 C 547.827 0.89747 -2.15564 0
M  V30 5608 C 548.808 1.31266 -1.08181 0
M  V30 5609 O 549.993 1.38429 -1.36202 0
M  V30 5610 C 547.123 2.16623 -2.71463 0
M  V30 5611 C 546.077 1.89054 -3.83982 0
M  V30 5612 C 545.403 3.22532 -4.26471 0
M  V30 5613 C 546.703 1.1984 -5.08366 0
M  V30 5614 H 548.397 0.413373 -2.96533 0
M  V30 5615 H 545.943 0.197391 -1.42641 0
M  V30 5616 H 547.896 2.84614 -3.10761 0
M  V30 5617 H 546.62 2.67269 -1.8771 0
M  V30 5618 H 545.279 1.23469 -3.45183 0
M  V30 5619 H 544.927 3.71013 -3.39644 0
M  V30 5620 H 544.627 3.04879 -5.02317 0
M  V30 5621 H 546.151 3.91727 -4.68383 0
M  V30 5622 H 547.565 1.77896 -5.45001 0
M  V30 5623 H 545.962 1.12456 -5.89469 0
M  V30 5624 H 547.032 0.176996 -4.84577 0
M  V30 5625 N 548.375 1.56261 0.205012 0
M  V30 5626 C 549.322 1.93754 1.25411 0
M  V30 5627 C 550.292 0.796826 1.45739 0
M  V30 5628 O 551.477 1.05414 1.59036 0
M  V30 5629 C 548.617 2.27383 2.59598 0
M  V30 5630 C 547.73 3.5447 2.46931 0
M  V30 5631 C 546.865 3.77468 3.73753 0
M  V30 5632 C 545.904 4.98014 3.55877 0
M  V30 5633 N 545.041 5.17316 4.74688 0
M  V30 5634 H 549.881 2.83203 0.92737 0
M  V30 5635 H 547.418 1.40158 0.446574 0
M  V30 5636 H 549.376 2.44895 3.37761 0
M  V30 5637 H 548.006 1.41088 2.90335 0
M  V30 5638 H 547.058 3.45061 1.60116 0
M  V30 5639 H 548.37 4.42789 2.29651 0
M  V30 5640 H 547.524 3.95165 4.60358 0
M  V30 5641 H 546.263 2.87461 3.93976 0
M  V30 5642 H 545.268 4.80249 2.67657 0
M  V30 5643 H 546.493 5.8952 3.37109 0
M  V30 5644 H 544.439 4.30255 4.95194 0
M  V30 5645 H 544.356 5.99796 4.60197 0
M  V30 5646 H 545.624 5.39463 5.62672 0
M  V30 5647 N 549.853 -0.472356 1.50355 0
M  V30 5648 C 550.763 -1.59637 1.7191 0
M  V30 5649 C 551.779 -1.63247 0.602195 0
M  V30 5650 O 552.955 -1.81139 0.880369 0
M  V30 5651 C 550.02 -2.9586 1.80742 0
M  V30 5652 C 549.081 -3.02649 3.04471 0
M  V30 5653 C 548.314 -4.32374 3.12872 0
M  V30 5654 O 548.537 -5.22807 2.28099 0
M  V30 5655 O 547.471 -4.44728 4.05587 0
M  V30 5656 H 551.297 -1.44373 2.67189 0
M  V30 5657 H 548.882 -0.651717 1.34436 0
M  V30 5658 H 550.764 -3.7677 1.88739 0
M  V30 5659 H 549.439 -3.11325 0.88647 0
M  V30 5660 H 548.346 -2.20821 3.01975 0
M  V30 5661 H 549.679 -2.92119 3.9614 0
M  V30 5662 N 551.331 -1.39911 -0.725443 0
M  V30 5663 C 552.556 -1.41137 -1.5197 0
M  V30 5664 C 552.981 -0.010262 -1.88097 0
M  V30 5665 O 552.339 0.979184 -1.52583 0
M  V30 5666 C 552.387 -2.2994 -2.77777 0
M  V30 5667 O 551.491 -1.73586 -3.74088 0
M  V30 5668 H 550.832 -0.480219 -0.458569 0
M  V30 5669 H 553.362 -1.84023 -0.894249 0
M  V30 5670 H 553.372 -2.44785 -3.26411 0
M  V30 5671 H 552.047 -3.31759 -2.50816 0
M  V30 5672 H 550.624 -1.68035 -3.32894 0
M  V30 5673 N 552.809 0.956637 -1.25245 0
M  V30 5674 C 553.739 2.07058 -1.07931 0
M  V30 5675 C 554.72 1.70096 0.0110361 0
M  V30 5676 O 555.905 1.93555 -0.158121 0
M  V30 5677 C 553.035 3.40272 -0.695124 0
M  V30 5678 C 551.989 3.91235 -1.73549 0
M  V30 5679 C 551.315 5.20921 -1.20604 0
M  V30 5680 C 552.615 4.17837 -3.13385 0
M  V30 5681 H 554.309 2.218 -2.01109 0
M  V30 5682 H 551.855 1.06581 -0.968326 0
M  V30 5683 H 553.808 4.1765 -0.560949 0
M  V30 5684 H 552.532 3.25462 0.272355 0
M  V30 5685 H 551.191 3.16025 -1.85807 0
M  V30 5686 H 550.839 5.02479 -0.228846 0
M  V30 5687 H 550.539 5.55987 -1.90136 0
M  V30 5688 H 552.063 6.00897 -1.08421 0
M  V30 5689 H 553.477 4.8588 -3.04292 0
M  V30 5690 H 551.874 4.64154 -3.80369 0
M  V30 5691 H 552.944 3.2419 -3.60595 0
M  V30 5692 N 554.287 1.06798 1.15896 0
M  V30 5693 C 555.197 0.694564 2.24083 0
M  V30 5694 C 556.213 -0.291687 1.71538 0
M  V30 5695 O 557.389 -0.139723 2.00915 0
M  V30 5696 C 554.454 0.0921014 3.46578 0
M  V30 5697 C 553.515 1.13087 4.14137 0
M  V30 5698 C 552.748 0.557064 5.30785 0
M  V30 5699 O 552.971 -0.628623 5.66925 0
M  V30 5700 O 551.905 1.29924 5.8771 0
M  V30 5701 H 555.731 1.59663 2.58344 0
M  V30 5702 H 553.316 0.840575 1.2351 0
M  V30 5703 H 555.198 -0.241884 4.20705 0
M  V30 5704 H 553.873 -0.78337 3.14078 0
M  V30 5705 H 552.78 1.51712 3.41957 0
M  V30 5706 H 554.113 1.97805 4.50704 0
M  V30 5707 N 555.766 -1.3263 0.851289 0
M  V30 5708 C 556.696 -2.31449 0.308771 0
M  V30 5709 C 557.677 -1.59531 -0.590255 0
M  V30 5710 O 558.862 -1.87351 -0.511205 0
M  V30 5711 C 555.992 -3.43586 -0.506548 0
M  V30 5712 C 554.946 -4.26963 0.297753 0
M  V30 5713 C 554.272 -5.30831 -0.642094 0
M  V30 5714 C 555.572 -4.99643 1.52166 0
M  V30 5715 H 557.266 -2.77074 1.13447 0
M  V30 5716 H 554.812 -1.33207 0.546971 0
M  V30 5717 H 556.765 -4.11754 -0.896474 0
M  V30 5718 H 555.489 -2.96681 -1.36558 0
M  V30 5719 H 554.148 -3.60437 0.669391 0
M  V30 5720 H 553.796 -4.8018 -1.49788 0
M  V30 5721 H 553.496 -5.87501 -0.107968 0
M  V30 5722 H 555.02 -6.01862 -1.02927 0
M  V30 5723 H 556.434 -5.6051 1.20421 0
M  V30 5724 H 554.831 -5.66022 1.99347 0
M  V30 5725 H 555.901 -4.27701 2.28474 0
M  V30 5726 N 557.244 -0.608902 -1.45362 0
M  V30 5727 C 558.177 0.158059 -2.27652 0
M  V30 5728 C 559.155 0.872397 -1.37215 0
M  V30 5729 O 560.339 0.881002 -1.66645 0
M  V30 5730 C 557.466 1.22896 -3.15617 0
M  V30 5731 C 556.512 0.617607 -4.22005 0
M  V30 5732 S 557.345 -0.575518 -5.32398 0
M  V30 5733 C 558.501 0.495938 -6.23932 0
M  V30 5734 H 558.734 -0.540095 -2.92353 0
M  V30 5735 H 556.267 -0.396456 -1.49223 0
M  V30 5736 H 558.225 1.84195 -3.66855 0
M  V30 5737 H 556.886 1.89919 -2.50179 0
M  V30 5738 H 556.079 1.42341 -4.83482 0
M  V30 5739 H 555.681 0.0797273 -3.73915 0
M  V30 5740 H 557.973 1.37465 -6.63408 0
M  V30 5741 H 558.916 -0.0827108 -7.08052 0
M  V30 5742 H 559.324 0.811856 -5.58631 0
M  V30 5743 N 558.722 1.53707 -0.348139 0
M  V30 5744 C 559.632 2.28881 0.514857 0
M  V30 5745 C 560.648 1.34168 1.10793 0
M  V30 5746 O 561.824 1.6721 1.12262 0
M  V30 5747 C 558.889 3.05042 1.64774 0
M  V30 5748 C 557.95 4.15389 1.08398 0
M  V30 5749 C 557.183 4.87909 2.16287 0
M  V30 5750 O 557.406 4.60137 3.3709 0
M  V30 5751 O 556.34 5.74254 1.80323 0
M  V30 5752 H 560.166 3.03547 -0.0963699 0
M  V30 5753 H 557.751 1.48972 -0.113043 0
M  V30 5754 H 559.633 3.52656 2.30677 0
M  V30 5755 H 558.308 2.33228 2.24469 0
M  V30 5756 H 557.215 3.72068 0.389341 0
M  V30 5757 H 558.548 4.89318 0.531829 0
M  V30 5758 N 560.2 0.0768682 1.57412 0
M  V30 5759 C 561.13 -0.886026 2.16037 0
M  V30 5760 C 562.111 -1.30691 1.08876 0
M  V30 5761 O 563.296 -1.37705 1.36934 0
M  V30 5762 C 560.426 -2.1518 2.72608 0
M  V30 5763 C 559.38 -1.87015 3.8498 0
M  V30 5764 C 558.706 -3.20266 4.28175 0
M  V30 5765 C 560.006 -1.17143 5.08994 0
M  V30 5766 H 561.7 -0.397642 2.96748 0
M  V30 5767 H 559.246 -0.189823 1.42743 0
M  V30 5768 H 561.199 -2.82962 3.12266 0
M  V30 5769 H 559.923 -2.66269 1.89125 0
M  V30 5770 H 558.582 -1.21636 3.45833 0
M  V30 5771 H 558.23 -3.69207 3.41607 0
M  V30 5772 H 557.93 -3.0221 5.03927 0
M  V30 5773 H 559.454 -3.89237 4.70454 0
M  V30 5774 H 560.868 -1.75003 5.45937 0
M  V30 5775 H 559.265 -1.09328 5.90057 0
M  V30 5776 H 560.335 -0.151295 4.84664 0
M  V30 5777 N 561.678 -1.56367 -0.196722 0
M  V30 5778 C 562.924 -1.80796 -0.918725 0
M  V30 5779 C 563.257 -0.650645 -1.82976 0
M  V30 5780 O 562.532 0.348889 -1.91345 0
M  V30 5781 C 562.815 -3.15472 -1.73636 0
M  V30 5782 C 562.668 -4.41693 -0.85015 0
M  V30 5783 C 563.987 -3.46824 -2.70927 0
M  V30 5784 H 561.106 -0.657702 -0.332561 0
M  V30 5785 H 563.748 -1.89086 -0.186186 0
M  V30 5786 H 561.898 -3.08536 -2.36088 0
M  V30 5787 H 563.57 -4.60673 -0.240459 0
M  V30 5788 H 561.813 -4.33517 -0.156785 0
M  V30 5789 H 562.484 -5.32419 -1.45719 0
M  V30 5790 H 564.96 -3.54049 -2.18607 0
M  V30 5791 H 563.836 -4.4218 -3.25219 0
M  V30 5792 H 564.097 -2.70236 -3.49893 0
M  V30 5793 N 563.156 0.464375 -1.50603 0
M  V30 5794 C 564.567 1.04507 -1.5471 0
M  V30 5795 C 564.918 1.9297 -0.354542 0
M  V30 5796 O 564.043 2.09763 0.531812 0
M  V30 5797 C 564.638 1.90207 -2.80369 0
M  V30 5798 C 563.197 2.43373 -2.87135 0
M  V30 5799 C 562.344 1.21886 -2.49076 0
M  V30 5800 H 565.295 0.246716 -1.56771 0
M  V30 5801 H 565.316 2.75353 -2.62604 0
M  V30 5802 H 564.828 1.25796 -3.67147 0
M  V30 5803 H 562.929 3.11318 -2.04724 0
M  V30 5804 H 563.042 2.7802 -3.90181 0
M  V30 5805 H 561.406 1.55575 -2.01664 0
M  V30 5806 H 562.189 0.591268 -3.3817 0
M  V30 5807 N 564.634 1.40294 0.718013 0
M  V30 5808 C 565.566 1.36281 1.84283 0
M  V30 5809 C 566.579 0.268621 1.60569 0
M  V30 5810 O 567.768 0.528798 1.70487 0
M  V30 5811 C 564.868 1.09741 3.2064 0
M  V30 5812 C 564.041 2.30767 3.71571 0
M  V30 5813 C 563.1 2.00424 4.86535 0
M  V30 5814 O 562.126 2.73268 4.99313 0
M  V30 5815 N 563.328 0.980724 5.72156 0
M  V30 5816 H 566.093 2.3322 1.88225 0
M  V30 5817 H 563.654 1.34616 0.899453 0
M  V30 5818 H 565.646 0.874322 3.95143 0
M  V30 5819 H 564.216 0.214771 3.11861 0
M  V30 5820 H 563.436 2.68921 2.88228 0
M  V30 5821 H 564.724 3.11455 4.02335 0
M  V30 5822 H 564.122 0.377375 5.6444 0
M  V30 5823 H 562.679 0.817538 6.46653 0
M  V30 5824 N 566.112 -0.949982 1.2575 0
M  V30 5825 C 567.523 -1.50989 1.09815 0
M  V30 5826 C 567.874 -1.93497 -0.324556 0
M  V30 5827 O 566.999 -1.79068 -1.21506 0
M  V30 5828 C 567.594 -2.74394 1.98729 0
M  V30 5829 C 566.153 -3.26682 1.86965 0
M  V30 5830 C 565.3 -1.99498 1.92603 0
M  V30 5831 H 568.251 -0.766387 1.38968 0
M  V30 5832 H 568.272 -3.48383 1.53001 0
M  V30 5833 H 567.784 -2.43425 3.02268 0
M  V30 5834 H 565.885 -3.62461 0.863279 0
M  V30 5835 H 565.998 -3.94383 2.72027 0
M  V30 5836 H 564.362 -2.15005 1.36546 0
M  V30 5837 H 565.145 -1.70871 2.97755 0
M  V30 5838 N 567.59 -1.07411 -1.15328 0
M  V30 5839 C 568.52 -0.716472 -2.22236 0
M  V30 5840 C 569.501 0.296373 -1.67498 0
M  V30 5841 O 570.686 0.168989 -1.93463 0
M  V30 5842 C 567.816 -0.114142 -3.47112 0
M  V30 5843 C 566.77 -1.05421 -4.14814 0
M  V30 5844 C 566.096 -0.314604 -5.33774 0
M  V30 5845 C 567.396 -2.38808 -4.64508 0
M  V30 5846 H 569.09 -1.61029 -2.52408 0
M  V30 5847 H 566.636 -0.775702 -1.21321 0
M  V30 5848 H 568.589 0.148001 -4.2114 0
M  V30 5849 H 567.313 0.814755 -3.16274 0
M  V30 5850 H 565.972 -1.30128 -3.42728 0
M  V30 5851 H 565.62 0.617772 -4.99192 0
M  V30 5852 H 565.32 -0.941209 -5.80013 0
M  V30 5853 H 566.844 -0.0602747 -6.1057 0
M  V30 5854 H 568.258 -2.18424 -5.3006 0
M  V30 5855 H 566.655 -2.97069 -5.21412 0
M  V30 5856 H 567.725 -3.01067 -3.80114 0
M  V30 5857 N 569.068 1.32177 -0.85831 0
M  V30 5858 C 570.314 1.97417 -0.46417 0
M  V30 5859 C 570.647 1.67746 0.978514 0
M  V30 5860 O 569.922 0.967654 1.68721 0
M  V30 5861 C 570.205 3.53069 -0.708094 0
M  V30 5862 C 570.058 3.92357 -2.19946 0
M  V30 5863 C 571.377 4.39783 -0.166881 0
M  V30 5864 H 568.496 0.717097 -0.17012 0
M  V30 5865 H 571.138 1.56499 -1.07741 0
M  V30 5866 H 569.288 3.88054 -0.186128 0
M  V30 5867 H 570.96 3.67533 -2.78779 0
M  V30 5868 H 569.203 3.41384 -2.67656 0
M  V30 5869 H 569.874 5.00841 -2.32082 0
M  V30 5870 H 572.35 4.11556 -0.613285 0
M  V30 5871 H 571.226 5.47671 -0.367093 0
M  V30 5872 H 571.487 4.32196 0.930559 0
M  V30 5873 N 570.547 0.616602 1.45037 0
M  V30 5874 C 571.824 0.0469086 1.95544 0
M  V30 5875 C 572.204 -1.42345 1.55888 0
M  V30 5876 O 571.552 -2.13055 0.825824 0
M  V30 5877 C 571.762 0.254489 3.48071 0
M  V30 5878 C 573.11 0.140025 4.24369 0
M  V30 5879 O 574.134 0.185084 3.55719 0
M  V30 5880 O 572.993 0.0327034 5.4649 0
M  V30 5881 H 570.087 -0.0306051 0.826433 0
M  V30 5882 H 572.633 0.687293 1.55159 0
M  V30 5883 H 571.405 1.27532 3.69934 0
M  V30 5884 H 571.028 -0.42073 3.95368 0
M  V30 5885 N 572.025 -1.5352 0.356285 0
M  V30 5886 C 573.25 -2.06007 -0.239961 0
M  V30 5887 C 573.675 -1.22872 -1.42422 0
M  V30 5888 O 573.033 -0.245516 -1.7963 0
M  V30 5889 C 573.081 -3.5522 -0.620587 0
M  V30 5890 O 572.185 -3.74864 -1.71902 0
M  V30 5891 H 571.526 -0.662961 -0.0371377 0
M  V30 5892 H 574.056 -1.98033 0.514194 0
M  V30 5893 H 574.066 -3.98081 -0.894197 0
M  V30 5894 H 572.741 -4.15175 0.245407 0
M  V30 5895 H 571.318 -3.43904 -1.44169 0
M  V30 5896 N 573.503 -0.0852151 -1.57369 0
M  V30 5897 C 574.733 0.588605 -1.98038 0
M  V30 5898 C 575.141 1.62869 -0.962817 0
M  V30 5899 O 574.484 1.83611 0.057134 0
M  V30 5900 C 574.546 1.30303 -3.35054 0
M  V30 5901 C 574.21 0.414855 -4.55113 0
M  V30 5902 C 575.207 -0.333011 -5.18832 0
M  V30 5903 C 572.892 0.335804 -5.01176 0
M  V30 5904 C 574.886 -1.14801 -6.26976 0
M  V30 5905 C 572.573 -0.482857 -6.09189 0
M  V30 5906 C 573.571 -1.22342 -6.71953 0
M  V30 5907 O 573.259 -2.02855 -7.77885 0
M  V30 5908 H 572.991 0.163249 -0.655992 0
M  V30 5909 H 575.545 -0.1582 -2.0479 0
M  V30 5910 H 573.775 2.0962 -3.24956 0
M  V30 5911 H 575.464 1.87041 -3.60237 0
M  V30 5912 H 576.23 -0.281611 -4.84182 0
M  V30 5913 H 572.109 0.901869 -4.52092 0
M  V30 5914 H 575.653 -1.72654 -6.75897 0
M  V30 5915 H 571.55 -0.535773 -6.43273 0
M  V30 5916 H 572.318 -1.95432 -7.94826 0
M  V30 5917 N 574.981 1.5647 0.188427 0
M  V30 5918 C 576.397 1.50204 0.539532 0
M  V30 5919 C 576.597 0.78644 1.85519 0
M  V30 5920 O 575.653 0.339714 2.50204 0
M  V30 5921 C 576.966 2.94893 0.588103 0
M  V30 5922 C 578.514 3.05602 0.67648 0
M  V30 5923 C 578.989 4.51716 0.756101 0
M  V30 5924 N 580.48 4.55894 0.819451 0
M  V30 5925 C 581.215 5.66272 0.90134 0
M  V30 5926 N 580.711 6.86323 0.945118 0
M  V30 5927 N 582.504 5.54201 0.939043 0
M  V30 5928 H 574.655 2.01406 -0.674493 0
M  V30 5929 H 576.918 0.916828 -0.241103 0
M  V30 5930 H 576.624 3.50334 -0.309633 0
M  V30 5931 H 576.498 3.4861 1.44051 0
M  V30 5932 H 578.885 2.50206 1.56465 0
M  V30 5933 H 578.966 2.54999 -0.202262 0
M  V30 5934 H 578.61 5.07739 -0.12774 0
M  V30 5935 H 578.54 5.00058 1.65074 0
M  V30 5936 H 581.031 3.69452 0.794594 0
M  V30 5937 H 581.344 7.66194 1.0083 0
M  V30 5938 H 579.689 6.88968 0.913683 0
M  V30 5939 H 582.88 4.59333 0.901725 0
M  V30 5940 H 583.053 6.40247 0.999402 0
M  V30 5941 N 576.459 -0.456382 1.50847 0
M  V30 5942 C 577.391 -1.57033 1.66953 0
M  V30 5943 C 578.404 -1.53207 0.550593 0
M  V30 5944 O 579.593 -1.58328 0.824285 0
M  V30 5945 C 576.693 -2.95937 1.65149 0
M  V30 5946 C 575.866 -3.24475 2.93317 0
M  V30 5947 C 574.925 -4.43007 2.83957 0
M  V30 5948 O 573.951 -4.42592 3.57912 0
M  V30 5949 N 575.153 -5.45503 1.9851 0
M  V30 5950 H 577.918 -1.43629 2.63042 0
M  V30 5951 H 575.479 -0.645037 1.48495 0
M  V30 5952 H 577.471 -3.73224 1.56481 0
M  V30 5953 H 576.041 -3.03036 0.767343 0
M  V30 5954 H 575.261 -2.35664 3.16 0
M  V30 5955 H 576.549 -3.4036 3.78196 0
M  V30 5956 H 575.947 -5.48668 1.37766 0
M  V30 5957 H 574.504 -6.21716 1.95735 0
M  V30 5958 N 577.937 -1.40673 -0.710563 0
M  V30 5959 C 578.869 -1.37256 -1.83558 0
M  V30 5960 C 579.882 -0.277133 -1.60424 0
M  V30 5961 O 581.071 -0.537831 -1.70205 0
M  V30 5962 C 578.171 -1.1144 -3.20054 0
M  V30 5963 C 577.344 -2.32734 -3.70342 0
M  V30 5964 C 576.403 -2.03002 -4.85465 0
M  V30 5965 O 575.429 -2.75912 -4.97857 0
M  V30 5966 N 576.631 -1.01105 -5.71627 0
M  V30 5967 H 579.396 -2.34215 -1.86985 0
M  V30 5968 H 576.957 -1.35091 -0.892301 0
M  V30 5969 H 578.949 -0.895265 -3.94673 0
M  V30 5970 H 577.519 -0.231307 -3.11743 0
M  V30 5971 H 576.739 -2.70446 -2.86798 0
M  V30 5972 H 578.027 -3.13584 -4.00678 0
M  V30 5973 H 577.425 -0.407303 -5.64232 0
M  V30 5974 H 575.982 -0.85182 -6.4621 0
M  V30 5975 N 579.415 0.9433 -1.26252 0
M  V30 5976 C 580.347 2.04542 -1.03417 0
M  V30 5977 C 581.36 1.62799 0.0046911 0
M  V30 5978 O 582.549 1.76944 -0.235146 0
M  V30 5979 C 579.649 3.34511 -0.543671 0
M  V30 5980 C 578.822 4.05033 -1.65128 0
M  V30 5981 C 577.881 5.13273 -1.1592 0
M  V30 5982 O 576.907 5.38095 -1.85586 0
M  V30 5983 N 578.109 5.805 -0.00649279 0
M  V30 5984 H 580.874 2.24699 -1.98319 0
M  V30 5985 H 578.435 1.11264 -1.1761 0
M  V30 5986 H 580.427 4.04212 -0.198703 0
M  V30 5987 H 578.997 3.11042 0.311711 0
M  V30 5988 H 578.217 3.29275 -2.16729 0
M  V30 5989 H 579.505 4.48903 -2.39508 0
M  V30 5990 H 578.903 5.62767 0.575347 0
M  V30 5991 H 577.46 6.51201 0.279416 0
M  V30 5992 N 580.893 1.08022 1.14757 0
M  V30 5993 C 581.825 0.664566 2.19354 0
M  V30 5994 C 582.838 -0.286374 1.60261 0
M  V30 5995 O 584.027 -0.0746362 1.78344 0
M  V30 5996 C 581.127 -0.0434634 3.38872 0
M  V30 5997 C 580.3 0.925381 4.27499 0
M  V30 5998 C 579.359 0.253398 5.2559 0
M  V30 5999 O 578.385 0.896581 5.62094 0
M  V30 6000 N 579.587 -0.998263 5.71852 0
M  V30 6001 H 582.352 1.56438 2.55631 0
M  V30 6002 H 579.913 0.965788 1.29939 0
M  V30 6003 H 581.905 -0.503857 4.01551 0
M  V30 6004 H 580.475 -0.845321 3.00954 0
M  V30 6005 H 579.695 1.56472 3.61815 0
M  V30 6006 H 580.983 1.58203 4.8358 0
M  V30 6007 H 580.381 -1.54063 5.44317 0
M  V30 6008 H 578.938 -1.40222 6.36538 0
M  V30 6009 N 582.371 -1.3172 0.865308 0
M  V30 6010 C 583.301 -2.31109 0.333302 0
M  V30 6011 C 584.282 -1.60148 -0.573301 0
M  V30 6012 O 585.467 -1.87882 -0.491305 0
M  V30 6013 C 582.597 -3.44104 -0.470078 0
M  V30 6014 C 581.551 -4.26623 0.343021 0
M  V30 6015 C 580.877 -5.31482 -0.585756 0
M  V30 6016 C 582.177 -4.98001 1.57456 0
M  V30 6017 H 583.871 -2.75855 1.1638 0
M  V30 6018 H 581.417 -1.3262 0.561069 0
M  V30 6019 H 583.37 -4.12682 -0.852752 0
M  V30 6020 H 582.094 -2.98112 -1.33404 0
M  V30 6021 H 580.753 -3.59707 0.707583 0
M  V30 6022 H 580.401 -4.81741 -1.44686 0
M  V30 6023 H 580.101 -5.87582 -0.0456494 0
M  V30 6024 H 581.625 -6.0292 -0.965375 0
M  V30 6025 H 583.039 -5.59201 1.26359 0
M  V30 6026 H 581.436 -5.63876 2.05339 0
M  V30 6027 H 582.506 -4.25253 2.32997 0
M  V30 6028 N 583.85 -0.624285 -1.44708 0
M  V30 6029 C 584.779 0.0717025 -2.3339 0
M  V30 6030 C 585.76 0.841814 -1.47809 0
M  V30 6031 O 586.946 0.809056 -1.76544 0
M  V30 6032 C 584.076 1.05852 -3.30776 0
M  V30 6033 C 583.029 0.400503 -4.26122 0
M  V30 6034 C 582.356 1.49674 -5.13324 0
M  V30 6035 C 583.656 -0.688924 -5.17737 0
M  V30 6036 H 585.35 -0.668819 -2.91834 0
M  V30 6037 H 582.896 -0.32308 -1.40329 0
M  V30 6038 H 584.849 1.5541 -3.91696 0
M  V30 6039 H 583.572 1.82984 -2.70526 0
M  V30 6040 H 582.231 -0.0743687 -3.66525 0
M  V30 6041 H 581.88 2.25877 -4.49431 0
M  V30 6042 H 581.58 1.06188 -5.77926 0
M  V30 6043 H 583.104 1.99427 -5.77115 0
M  V30 6044 H 584.518 -0.276724 -5.72632 0
M  V30 6045 H 582.915 -1.04652 -5.90904 0
M  V30 6046 H 583.985 -1.55884 -4.5916 0
M  V30 6047 N 585.328 1.53329 -0.364422 0
M  V30 6048 C 586.26 2.23286 0.517293 0
M  V30 6049 C 587.273 1.24657 1.04711 0
M  V30 6050 O 588.462 1.50887 0.95369 0
M  V30 6051 C 585.562 2.91604 1.72685 0
M  V30 6052 C 584.735 4.1673 1.32873 0
M  V30 6053 C 583.794 4.68269 2.40022 0
M  V30 6054 O 582.82 5.31976 2.02461 0
M  V30 6055 N 584.022 4.45983 3.7159 0
M  V30 6056 H 586.787 2.99588 -0.0819391 0
M  V30 6057 H 584.348 1.60787 -0.189544 0
M  V30 6058 H 586.34 3.22992 2.4384 0
M  V30 6059 H 584.91 2.18763 2.23297 0
M  V30 6060 H 584.13 3.91657 0.447069 0
M  V30 6061 H 585.418 4.98078 1.03902 0
M  V30 6062 H 584.816 3.95077 4.04883 0
M  V30 6063 H 583.373 4.81924 4.38854 0
M  V30 6064 N 586.806 0.0935595 1.57322 0
M  V30 6065 C 588.222 -0.263091 1.57417 0
M  V30 6066 C 588.422 -1.68526 1.1046 0
M  V30 6067 O 587.478 -2.40139 0.780357 0
M  V30 6068 C 588.791 -0.0529201 3.00653 0
M  V30 6069 C 590.339 -0.120788 3.12767 0
M  V30 6070 C 590.814 0.0613707 4.57959 0
M  V30 6071 N 592.305 0.00648534 4.632 0
M  V30 6072 C 593.04 0.122699 5.73269 0
M  V30 6073 N 592.536 0.29366 6.92177 0
M  V30 6074 N 594.329 0.0640787 5.62063 0
M  V30 6075 H 586.48 1.02277 1.86154 0
M  V30 6076 H 588.743 0.4007 0.859153 0
M  V30 6077 H 588.449 0.929279 3.39201 0
M  V30 6078 H 588.323 -0.795899 3.68708 0
M  V30 6079 H 590.71 -1.09349 2.74093 0
M  V30 6080 H 590.791 0.653656 2.47307 0
M  V30 6081 H 590.435 1.03093 4.97327 0
M  V30 6082 H 590.365 -0.732748 5.21477 0
M  V30 6083 H 592.856 -0.123173 3.77699 0
M  V30 6084 H 593.169 0.37389 7.71895 0
M  V30 6085 H 591.514 0.329307 6.94219 0
M  V30 6086 H 594.705 -0.0683396 4.6805 0
M  V30 6087 H 594.878 0.158097 6.47807 0
M  V30 6088 N 588.284 -1.56567 -0.180126 0
M  V30 6089 C 589.695 -1.7126 -0.743422 0
M  V30 6090 C 590.046 -0.70263 -1.83187 0
M  V30 6091 O 589.171 0.137856 -2.1596 0
M  V30 6092 C 589.766 -3.10512 -1.35528 0
M  V30 6093 C 588.325 -3.26919 -1.8655 0
M  V30 6094 C 587.472 -2.67213 -0.741099 0
M  V30 6095 H 590.423 -1.58636 0.0451543 0
M  V30 6096 H 590.444 -3.08673 -2.22489 0
M  V30 6097 H 589.956 -3.83997 -0.562862 0
M  V30 6098 H 588.057 -2.58376 -2.68464 0
M  V30 6099 H 588.17 -4.34574 -2.01699 0
M  V30 6100 H 586.534 -2.26788 -1.15927 0
M  V30 6101 H 587.317 -3.43277 0.0393291 0
M  V30 6102 N 589.762 0.448376 -1.51087 0
M  V30 6103 C 590.987 1.22605 -1.6728 0
M  V30 6104 C 591.412 1.84524 -0.365045 0
M  V30 6105 O 590.77 1.6832 0.673642 0
M  V30 6106 C 590.818 2.29393 -2.78229 0
M  V30 6107 O 589.922 3.34608 -2.41063 0
M  V30 6108 H 589.263 0.359705 -0.558129 0
M  V30 6109 H 591.793 0.530903 -1.97592 0
M  V30 6110 H 591.803 2.74352 -3.01986 0
M  V30 6111 H 590.478 1.83701 -3.73131 0
M  V30 6112 H 589.055 2.95202 -2.27838 0
M  V30 6113 N 591.24 1.41047 0.703093 0
M  V30 6114 C 592.19 1.38774 1.80903 0
M  V30 6115 C 593.174 0.263275 1.58731 0
M  V30 6116 O 594.366 0.503362 1.69692 0
M  V30 6117 C 591.495 1.26497 3.19145 0
M  V30 6118 C 590.581 2.43775 3.47037 0
M  V30 6119 N 590.972 3.69249 3.45672 0
M  V30 6120 C 589.27 2.37425 3.77552 0
M  V30 6121 C 589.971 4.46989 3.72258 0
M  V30 6122 N 588.947 3.76998 3.91629 0
M  V30 6123 H 592.749 2.33714 1.78199 0
M  V30 6124 H 590.263 1.34996 0.902762 0
M  V30 6125 H 592.26 1.2295 3.98358 0
M  V30 6126 H 590.92 0.32534 3.23066 0
M  V30 6127 H 591.931 4.02239 3.26228 0
M  V30 6128 H 588.608 1.51895 3.88888 0
M  V30 6129 H 589.998 5.55894 3.77402 0
M  V30 6130 N 592.718 -0.936591 1.26751 0
M  V30 6131 C 593.648 -2.05315 1.11212 0
M  V30 6132 C 594.629 -1.70092 0.0160262 0
M  V30 6133 O 595.814 -1.93279 0.188894 0
M  V30 6134 C 592.944 -3.39123 0.749171 0
M  V30 6135 C 591.898 -3.88425 1.79751 0
M  V30 6136 C 591.224 -5.18936 1.28876 0
M  V30 6137 C 592.524 -4.12798 3.19992 0
M  V30 6138 H 594.218 -2.18573 2.04613 0
M  V30 6139 H 591.764 -1.05027 0.985159 0
M  V30 6140 H 593.717 -4.16704 0.627323 0
M  V30 6141 H 592.441 -3.25855 -0.220543 0
M  V30 6142 H 591.1 -3.13028 1.90811 0
M  V30 6143 H 590.748 -5.02051 0.308757 0
M  V30 6144 H 590.448 -5.52892 1.98958 0
M  V30 6145 H 591.972 -5.99096 1.17967 0
M  V30 6146 H 593.386 -4.80977 3.11983 0
M  V30 6147 H 591.783 -4.58044 3.87705 0
M  V30 6148 H 592.853 -3.18412 3.65707 0
M  V30 6149 N 594.196 -1.08629 -1.14182 0
M  V30 6150 C 595.128 -0.676189 -2.18998 0
M  V30 6151 C 596.141 0.277871 -1.60411 0
M  V30 6152 O 597.33 0.0651771 -1.78381 0
M  V30 6153 C 594.43 0.0254916 -3.3889 0
M  V30 6154 C 593.603 -0.948039 -4.27002 0
M  V30 6155 C 592.662 -0.281268 -5.25448 0
M  V30 6156 O 591.688 -0.926378 -5.61611 0
M  V30 6157 N 592.89 0.967923 -5.72374 0
M  V30 6158 H 595.655 -1.57792 -2.54798 0
M  V30 6159 H 593.216 -0.972665 -1.29425 0
M  V30 6160 H 595.208 0.482554 -4.01813 0
M  V30 6161 H 593.778 0.829348 -3.01398 0
M  V30 6162 H 592.998 -1.58388 -3.6098 0
M  V30 6163 H 594.286 -1.60765 -4.82734 0
M  V30 6164 H 593.684 1.51175 -5.45126 0
M  V30 6165 H 592.241 1.36844 -6.37273 0
M  V30 6166 N 595.674 1.31259 -0.872281 0
M  V30 6167 C 597.085 1.78822 -0.536617 0
M  V30 6168 C 597.436 1.71855 0.946594 0
M  V30 6169 O 596.561 1.28769 1.73918 0
M  V30 6170 C 597.156 3.24698 -0.967294 0
M  V30 6171 C 595.715 3.70147 -0.683251 0
M  V30 6172 C 594.862 2.51994 -1.15733 0
M  V30 6173 H 597.813 1.18308 -1.05777 0
M  V30 6174 H 597.834 3.79386 -0.290929 0
M  V30 6175 H 597.346 3.29737 -2.04683 0
M  V30 6176 H 595.447 3.70607 0.384825 0
M  V30 6177 H 595.56 4.62183 -1.2619 0
M  V30 6178 H 593.924 2.48078 -0.577024 0
M  V30 6179 H 594.707 2.59778 -2.24434 0
M  V30 6180 N 597.152 0.631951 1.44375 0
M  V30 6181 C 598.563 0.219036 1.85411 0
M  V30 6182 C 598.914 -1.22974 1.52879 0
M  V30 6183 O 598.039 -1.93579 0.967266 0
M  V30 6184 C 598.634 0.39075 3.36539 0
M  V30 6185 C 597.193 0.0323351 3.76386 0
M  V30 6186 C 596.34 0.703744 2.68221 0
M  V30 6187 H 599.291 0.837056 1.3483 0
M  V30 6188 H 599.312 -0.370056 3.78696 0
M  V30 6189 H 598.824 1.44527 3.60185 0
M  V30 6190 H 596.925 -1.02042 3.58355 0
M  V30 6191 H 597.038 0.442969 4.77048 0
M  V30 6192 H 595.402 0.138974 2.54321 0
M  V30 6193 H 596.185 1.76088 2.947 0
M  V30 6194 N 598.631 -1.53133 0.372548 0
M  V30 6195 C 599.856 -2.0625 -0.218098 0
M  V30 6196 C 600.281 -1.24375 -1.41111 0
M  V30 6197 O 599.639 -0.264554 -1.79359 0
M  V30 6198 C 599.687 -3.55858 -0.582876 0
M  V30 6199 O 598.791 -3.76667 -1.67917 0
M  V30 6200 H 598.132 -0.663317 -0.030104 0
M  V30 6201 H 600.662 -1.97477 0.535169 0
M  V30 6202 H 600.672 -3.99007 -0.851925 0
M  V30 6203 H 599.347 -4.14892 0.289428 0
M  V30 6204 H 597.924 -3.45413 -1.40513 0
M  V30 6205 N 600.109 -0.101901 -1.5727 0
M  V30 6206 C 601.339 0.567568 -1.98651 0
M  V30 6207 C 601.747 1.61839 -0.980037 0
M  V30 6208 O 601.09 1.83661 0.0376564 0
M  V30 6209 C 601.152 1.26742 -3.36417 0
M  V30 6210 C 600.816 0.366561 -4.55528 0
M  V30 6211 C 601.813 -0.388022 -5.1845 0
M  V30 6212 C 599.498 0.282629 -5.01504 0
M  V30 6213 C 601.492 -1.21445 -6.25724 0
M  V30 6214 C 599.179 -0.547443 -6.08643 0
M  V30 6215 C 600.177 -1.29462 -6.70618 0
M  V30 6216 O 599.865 -2.11095 -7.7569 0
M  V30 6217 H 599.597 0.156282 -0.657687 0
M  V30 6218 H 602.151 -0.179912 -2.04611 0
M  V30 6219 H 600.381 2.06162 -3.27161 0
M  V30 6220 H 602.07 1.8321 -3.622 0
M  V30 6221 H 602.836 -0.332949 -4.83856 0
M  V30 6222 H 598.715 0.853868 -4.53023 0
M  V30 6223 H 602.259 -1.79814 -6.74027 0
M  V30 6224 H 598.156 -0.603971 -6.42668 0
M  V30 6225 H 598.924 -2.03851 -7.92709 0
M  V30 6226 N 601.587 1.56661 0.17182 0
M  V30 6227 C 602.835 1.81606 0.886774 0
M  V30 6228 C 603.156 0.678818 1.82803 0
M  V30 6229 O 602.426 -0.301354 1.93568 0
M  V30 6230 H 601.006 0.669934 0.330451 0
M  V30 6231 H 603.668 1.94142 0.171757 0
M  V30 6232 H 602.764 2.75634 1.46398 0
M  V30 6233 N 603.065 -0.440357 1.51323 0
M  V30 6234 C 604.476 -1.02032 1.56353 0
M  V30 6235 C 604.827 -1.92382 0.385197 0
M  V30 6236 O 603.952 -2.10583 -0.498373 0
M  V30 6237 C 604.547 -1.85723 2.83359 0
M  V30 6238 C 603.106 -2.38774 2.90971 0
M  V30 6239 C 602.253 -1.17908 2.50984 0
M  V30 6240 H 605.204 -0.221744 1.57143 0
M  V30 6241 H 605.225 -2.71141 2.66951 0
M  V30 6242 H 604.737 -1.19939 3.69102 0
M  V30 6243 H 602.838 -3.08021 2.09651 0
M  V30 6244 H 602.951 -2.71778 3.94555 0
M  V30 6245 H 601.315 -1.52347 2.04114 0
M  V30 6246 H 602.098 -0.537393 3.39068 0
M  V30 6247 N 604.543 -1.41418 -0.695603 0
M  V30 6248 C 605.789 -1.40982 -1.4578 0
M  V30 6249 C 606.122 -0.0187763 -1.94191 0
M  V30 6250 O 605.397 0.95346 -1.69527 0
M  V30 6251 C 605.68 -2.41657 -2.66972 0
M  V30 6252 C 605.533 -3.89869 -2.24327 0
M  V30 6253 C 606.852 -2.39589 -3.69168 0
M  V30 6254 H 603.971 -0.513405 -0.528757 0
M  V30 6255 H 606.613 -1.72693 -0.792275 0
M  V30 6256 H 604.763 -2.14746 -3.23754 0
M  V30 6257 H 606.435 -4.27683 -1.72872 0
M  V30 6258 H 604.678 -4.04737 -1.56111 0
M  V30 6259 H 605.349 -4.55857 -3.11285 0
M  V30 6260 H 607.825 -2.63471 -3.2206 0
M  V30 6261 H 606.701 -3.12044 -4.51575 0
M  V30 6262 H 606.962 -1.41447 -4.18862 0
M  V30 6263 N 606.021 0.929856 -1.27246 0
M  V30 6264 C 606.951 2.04722 -1.12299 0
M  V30 6265 C 607.932 1.70082 -0.0250464 0
M  V30 6266 O 609.117 1.93176 -0.199141 0
M  V30 6267 C 606.247 3.38721 -0.767145 0
M  V30 6268 C 605.201 3.87466 -1.81808 0
M  V30 6269 C 604.527 5.18246 -1.31626 0
M  V30 6270 C 605.827 4.11095 -3.22177 0
M  V30 6271 H 607.521 2.17485 -2.05769 0
M  V30 6272 H 605.067 1.04503 -0.990715 0
M  V30 6273 H 607.02 4.16366 -0.649413 0
M  V30 6274 H 605.744 3.25967 0.203259 0
M  V30 6275 H 604.403 3.12012 -1.92468 0
M  V30 6276 H 604.051 5.01881 -0.335378 0
M  V30 6277 H 603.751 5.51829 -2.01887 0
M  V30 6278 H 605.275 5.98462 -1.21143 0
M  V30 6279 H 606.689 4.79316 -3.1453 0
M  V30 6280 H 605.086 4.55982 -3.90129 0
M  V30 6281 H 606.156 3.16468 -3.67391 0
M  V30 6282 N 607.499 1.09233 1.13605 0
M  V30 6283 C 608.724 0.849067 1.89224 0
M  V30 6284 C 609.149 -0.593875 1.78479 0
M  V30 6285 O 608.507 -1.41703 1.13092 0
M  V30 6286 C 608.555 1.28642 3.36873 0
M  V30 6287 O 607.659 0.44363 4.10007 0
M  V30 6288 H 607 0.30767 0.588417 0
M  V30 6289 H 609.53 1.45595 1.43748 0
M  V30 6290 H 609.54 1.27096 3.87699 0
M  V30 6291 H 608.215 2.33729 3.44011 0
M  V30 6292 H 606.792 0.523241 3.69211 0
M  V30 6293 N 608.977 -1.30795 0.87923 0
M  V30 6294 C 610.388 -1.78535 0.546093 0
M  V30 6295 C 610.739 -1.72354 -0.937467 0
M  V30 6296 O 609.864 -1.2969 -1.73233 0
M  V30 6297 C 610.459 -3.24181 0.9845 0
M  V30 6298 C 609.018 -3.69779 0.702871 0
M  V30 6299 C 608.165 -2.51377 1.17068 0
M  V30 6300 H 611.116 -1.17746 1.06403 0
M  V30 6301 H 611.137 -3.79227 0.311045 0
M  V30 6302 H 610.649 -3.28647 2.06429 0
M  V30 6303 H 608.75 -3.70806 -0.365166 0
M  V30 6304 H 608.863 -4.61507 1.28639 0
M  V30 6305 H 607.227 -2.47768 0.590172 0
M  V30 6306 H 608.01 -2.58584 2.25808 0
M  V30 6307 N 610.455 -0.639598 -1.44038 0
M  V30 6308 C 611.388 0.109736 -2.27936 0
M  V30 6309 C 612.366 0.843095 -1.39035 0
M  V30 6310 O 613.55 0.845456 -1.68476 0
M  V30 6311 C 610.677 1.16173 -3.18153 0
M  V30 6312 C 609.723 0.527954 -4.2322 0
M  V30 6313 S 610.556 -0.688318 -5.31058 0
M  V30 6314 C 611.712 0.363481 -6.24844 0
M  V30 6315 H 611.945 -0.601986 -2.91142 0
M  V30 6316 H 609.478 -0.42802 -1.48349 0
M  V30 6317 H 611.436 1.76372 -3.7068 0
M  V30 6318 H 610.097 1.84569 -2.54151 0
M  V30 6319 H 609.29 1.32054 -4.86393 0
M  V30 6320 H 608.892 0.000396444 -3.74 0
M  V30 6321 H 611.184 1.23362 -6.66174 0
M  V30 6322 H 612.127 -0.23288 -7.07717 0
M  V30 6323 H 612.535 0.693179 -5.60228 0
M  V30 6324 N 611.933 1.52934 -0.380664 0
M  V30 6325 C 612.881 2.27727 0.47361 0
M  V30 6326 C 613.875 1.31288 1.0705 0
M  V30 6327 O 615.081 1.4886 1.01197 0
M  V30 6328 H 611.456 0.732189 0.171475 0
M  V30 6329 H 613.427 2.97864 -0.178785 0
M  V30 6330 C 612.176 3.0904 1.59341 0
M  V30 6331 H 611.499 3.831 1.14343 0
M  V30 6332 H 612.939 3.64527 2.16555 0
M  V30 6333 C 611.398 2.20813 2.54447 0
M  V30 6334 O 611.928 1.82907 3.57642 0
M  V30 6335 N 610.134 1.85145 2.23986 0
M  V30 6336 H 609.681 2.16169 1.40103 0
M  V30 6337 H 609.639 1.26402 2.87871 0
M  V30 6338 N 613.412 0.11024 1.57214 0
M  V30 6339 C 614.359 -0.843195 2.14846 0
M  V30 6340 C 615.329 -1.26954 1.07107 0
M  V30 6341 O 616.514 -1.34861 1.34971 0
M  V30 6342 C 613.654 -2.09123 2.74521 0
M  V30 6343 C 612.767 -1.71404 3.96541 0
M  V30 6344 C 611.902 -2.91107 4.44331 0
M  V30 6345 C 610.941 -2.49586 5.58903 0
M  V30 6346 N 610.078 -3.62175 6.01477 0
M  V30 6347 H 614.918 -0.344886 2.95998 0
M  V30 6348 H 612.455 -0.15855 1.46243 0
M  V30 6349 H 614.413 -2.82234 3.07246 0
M  V30 6350 H 613.043 -2.56427 1.96074 0
M  V30 6351 H 612.095 -0.88201 3.70033 0
M  V30 6352 H 613.407 -1.36884 4.7965 0
M  V30 6353 H 612.561 -3.72454 4.78919 0
M  V30 6354 H 611.3 -3.28848 3.60153 0
M  V30 6355 H 610.305 -1.6667 5.23929 0
M  V30 6356 H 611.53 -2.12973 6.4484 0
M  V30 6357 H 609.476 -3.99605 5.20242 0
M  V30 6358 H 609.393 -3.3155 6.79419 0
M  V30 6359 H 610.661 -4.43987 6.407 0
M  V30 6360 N 614.89 -1.56749 -0.16351 0
M  V30 6361 C 616.136 -1.82704 -0.880168 0
M  V30 6362 C 616.469 -0.689311 -1.81555 0
M  V30 6363 O 615.744 0.308224 -1.92042 0
M  V30 6364 C 616.027 -3.19084 -1.66905 0
M  V30 6365 C 615.88 -4.43397 -0.756269 0
M  V30 6366 C 617.199 -3.52493 -2.63509 0
M  V30 6367 H 614.318 -0.664608 -0.318535 0
M  V30 6368 H 616.96 -1.89438 -0.146036 0
M  V30 6369 H 615.11 -3.13475 -2.2949 0
M  V30 6370 H 616.782 -4.61079 -0.14269 0
M  V30 6371 H 615.025 -4.33752 -0.0647944 0
M  V30 6372 H 615.696 -5.3539 -1.34393 0
M  V30 6373 H 618.172 -3.58606 -2.11047 0
M  V30 6374 H 617.048 -4.48979 -3.15767 0
M  V30 6375 H 617.309 -2.77597 -3.44082 0
M  V30 6376 N 616.368 0.432326 -1.51554 0
M  V30 6377 C 617.318 1.52366 -1.69614 0
M  V30 6378 C 618.302 1.51205 -0.550083 0
M  V30 6379 O 619.494 1.57573 -0.806206 0
M  V30 6380 C 616.623 2.90513 -1.82913 0
M  V30 6381 C 615.709 2.9641 -3.03318 0
M  V30 6382 N 616.1 2.72043 -4.26411 0
M  V30 6383 C 614.398 3.27572 -3.02675 0
M  V30 6384 C 615.099 2.83912 -5.07709 0
M  V30 6385 N 614.075 3.15798 -4.42462 0
M  V30 6386 H 617.877 1.32285 -2.62446 0
M  V30 6387 H 615.391 0.639708 -1.4927 0
M  V30 6388 H 617.388 3.69032 -1.93962 0
M  V30 6389 H 616.048 3.1161 -0.912655 0
M  V30 6390 H 617.059 2.46876 -4.55272 0
M  V30 6391 H 613.736 3.54411 -2.20678 0
M  V30 6392 H 615.126 2.68984 -6.15709 0
M  V30 6393 N 617.846 1.41785 0.688094 0
M  V30 6394 C 619.094 1.41264 1.4453 0
M  V30 6395 C 619.415 0.0252946 1.94984 0
M  V30 6396 O 618.685 -0.934081 1.72197 0
M  V30 6397 H 617.265 0.519998 0.536294 0
M  V30 6398 H 619.927 1.7709 0.813941 0
M  V30 6399 H 619.023 2.10439 2.30482 0
M  V30 6400 N 619.324 -0.923095 1.27737 0
M  V30 6401 C 620.572 -1.66797 1.14119 0
M  V30 6402 C 620.893 -1.92479 -0.312541 0
M  V30 6403 O 620.163 -1.53432 -1.218 0
M  V30 6404 H 618.743 -0.618196 0.419336 0
M  V30 6405 H 621.405 -1.10815 1.60331 0
M  V30 6406 H 620.501 -2.63424 1.67374 0
M  V30 6407 N 620.802 -1.09834 -1.13024 0
M  V30 6408 C 621.735 -0.685453 -2.17662 0
M  V30 6409 C 622.713 0.310142 -1.59615 0
M  V30 6410 O 623.897 0.21052 -1.87321 0
M  V30 6411 C 621.024 -0.0104476 -3.38698 0
M  V30 6412 C 620.07 -0.968522 -4.15358 0
M  V30 6413 S 620.903 -2.48272 -4.74469 0
M  V30 6414 C 622.059 -1.82025 -5.98847 0
M  V30 6415 H 622.292 -1.57187 -2.52348 0
M  V30 6416 H 619.825 -0.914728 -1.24387 0
M  V30 6417 H 621.783 0.372694 -4.08805 0
M  V30 6418 H 620.444 0.852673 -3.02305 0
M  V30 6419 H 619.637 -0.443373 -5.02046 0
M  V30 6420 H 619.239 -1.29327 -3.50928 0
M  V30 6421 H 621.531 -1.14678 -6.67724 0
M  V30 6422 H 622.474 -2.66645 -6.55977 0
M  V30 6423 H 622.882 -1.2874 -5.49624 0
M  V30 6424 N 622.28 1.30327 -0.886154 0
M  V30 6425 C 623.228 2.30052 -0.343317 0
M  V30 6426 C 624.222 1.60212 0.550305 0
M  V30 6427 O 625.428 1.74674 0.434609 0
M  V30 6428 H 621.803 0.746306 -0.0923681 0
M  V30 6429 H 623.774 2.73294 -1.19804 0
M  V30 6430 C 622.523 3.45079 0.426107 0
M  V30 6431 H 621.846 3.99003 -0.25227 0
M  V30 6432 H 623.286 4.16931 0.771009 0
M  V30 6433 C 621.745 2.95195 1.62363 0
M  V30 6434 O 622.275 2.95323 2.723 0
M  V30 6435 N 620.481 2.51192 1.4612 0
M  V30 6436 H 620.028 2.51286 0.566832 0
M  V30 6437 H 619.986 2.18173 2.2638 0
M  V30 6438 N 623.758 0.647228 1.43697 0
M  V30 6439 C 624.705 -0.0480092 2.3075 0
M  V30 6440 C 625.675 -0.820705 1.44408 0
M  V30 6441 O 626.86 -0.798515 1.73287 0
M  V30 6442 C 624 -1.01259 3.2991 0
M  V30 6443 C 623.113 -0.236629 4.31351 0
M  V30 6444 C 622.248 -1.19447 5.17596 0
M  V30 6445 C 621.287 -0.408595 6.10735 0
M  V30 6446 N 620.424 -1.31772 6.89623 0
M  V30 6447 H 625.264 0.700238 2.89656 0
M  V30 6448 H 622.801 0.357082 1.427 0
M  V30 6449 H 624.759 -1.58538 3.85903 0
M  V30 6450 H 623.389 -1.72778 2.72667 0
M  V30 6451 H 622.441 0.452353 3.77701 0
M  V30 6452 H 623.753 0.374731 4.9739 0
M  V30 6453 H 622.907 -1.83809 5.78186 0
M  V30 6454 H 621.646 -1.83975 4.51669 0
M  V30 6455 H 620.651 0.24841 5.49239 0
M  V30 6456 H 621.876 0.232188 6.78703 0
M  V30 6457 H 619.822 -1.94991 6.2635 0
M  V30 6458 H 619.739 -0.760779 7.52162 0
M  V30 6459 H 621.007 -1.94967 7.54724 0
M  V30 6460 N 625.236 -1.5273 0.388769 0
M  V30 6461 C 626.166 -2.29353 -0.438111 0
M  V30 6462 C 627.147 -1.32719 -1.06394 0
M  V30 6463 O 628.332 -1.61612 -1.07681 0
M  V30 6464 C 625.462 -3.09995 -1.56589 0
M  V30 6465 C 624.416 -4.14509 -1.06613 0
M  V30 6466 C 623.742 -4.83372 -2.28594 0
M  V30 6467 C 625.042 -5.22127 -0.134459 0
M  V30 6468 H 626.736 -2.98723 0.201206 0
M  V30 6469 H 624.282 -1.43665 0.0982089 0
M  V30 6470 H 626.235 -3.62357 -2.15118 0
M  V30 6471 H 624.959 -2.38357 -2.23279 0
M  V30 6472 H 623.618 -3.63128 -0.503383 0
M  V30 6473 H 623.266 -4.08283 -2.93792 0
M  V30 6474 H 622.966 -5.54012 -1.95817 0
M  V30 6475 H 624.49 -5.38538 -2.87766 0
M  V30 6476 H 625.904 -5.69851 -0.627914 0
M  V30 6477 H 624.301 -6.00011 0.103534 0
M  V30 6478 H 625.371 -4.77971 0.816798 0
M  V30 6479 N 626.714 -0.118576 -1.57153 0
M  V30 6480 C 628.125 0.40687 -1.82213 0
M  V30 6481 C 628.476 1.66636 -1.03571 0
M  V30 6482 O 627.601 2.14682 -0.272171 0
M  V30 6483 C 628.196 0.744949 -3.30509 0
M  V30 6484 C 626.755 1.21503 -3.5625 0
M  V30 6485 C 625.902 0.223511 -2.76398 0
M  V30 6486 H 628.853 -0.343712 -1.54933 0
M  V30 6487 H 628.874 1.6024 -3.45114 0
M  V30 6488 H 628.386 -0.171911 -3.87719 0
M  V30 6489 H 626.487 2.1488 -3.04396 0
M  V30 6490 H 626.6 1.16065 -4.64829 0
M  V30 6491 H 624.964 0.71046 -2.44591 0
M  V30 6492 H 625.747 -0.686439 -3.36367 0
M  V30 6493 N 628.193 1.56834 0.155195 0
M  V30 6494 C 629.418 1.87412 0.888337 0
M  V30 6495 C 629.843 0.70671 1.74319 0
M  V30 6496 O 629.201 -0.343892 1.78009 0
M  V30 6497 C 629.249 3.1652 1.72765 0
M  V30 6498 O 628.353 2.99877 2.83103 0
M  V30 6499 H 627.694 0.615983 0.247914 0
M  V30 6500 H 630.224 2.04061 0.148478 0
M  V30 6501 H 630.234 3.48334 2.12433 0
M  V30 6502 H 628.909 4.01094 1.09985 0
M  V30 6503 H 627.486 2.79453 2.46902 0
M  V30 6504 N 629.671 -0.424282 1.51781 0
M  V30 6505 C 630.917 -1.17434 1.6534 0
M  V30 6506 C 631.25 -1.90549 0.374806 0
M  V30 6507 O 630.525 -1.84145 -0.626179 0
M  V30 6508 C 630.808 -2.18093 2.86544 0
M  V30 6509 C 630.661 -1.48975 4.24413 0
M  V30 6510 C 631.98 -3.18934 3.03264 0
M  V30 6511 H 629.099 -0.425566 0.601716 0
M  V30 6512 H 631.741 -0.461921 1.84299 0
M  V30 6513 H 629.891 -2.78849 2.7051 0
M  V30 6514 H 631.563 -0.914551 4.52143 0
M  V30 6515 H 629.806 -0.791893 4.26511 0
M  V30 6516 H 630.477 -2.22347 5.05238 0
M  V30 6517 H 632.953 -2.68243 3.18096 0
M  V30 6518 H 631.829 -3.86645 3.89611 0
M  V30 6519 H 632.09 -3.85793 2.15908 0
M  V30 6520 N 631.149 -1.42148 -0.680565 0
M  V30 6521 C 632.097 -1.45401 -1.81552 0
M  V30 6522 C 633.091 -0.33036 -1.66147 0
M  V30 6523 O 634.297 -0.503103 -1.72826 0
M  V30 6524 H 630.672 -0.455265 -0.59853 0
M  V30 6525 H 632.643 -2.41024 -1.75926 0
M  V30 6526 C 631.392 -1.36769 -3.19671 0
M  V30 6527 H 630.715 -2.22525 -3.32149 0
M  V30 6528 H 632.155 -1.43106 -3.9912 0
M  V30 6529 C 630.614 -0.0817752 -3.36801 0
M  V30 6530 O 631.144 0.867707 -3.92216 0
M  V30 6531 N 629.35 -0.000799811 -2.906 0
M  V30 6532 H 628.897 -0.774231 -2.4569 0
M  V30 6533 H 628.855 0.858961 -3.02439 0
M  V30 6534 N 632.627 0.916307 -1.28225 0
M  V30 6535 C 633.559 2.02303 -1.07732 0
M  V30 6536 C 634.572 1.62773 -0.0298421 0
M  V30 6537 O 635.761 1.76406 -0.272626 0
M  V30 6538 C 632.861 3.33282 -0.614504 0
M  V30 6539 C 632.034 4.01439 -1.73682 0
M  V30 6540 C 631.093 5.10698 -1.26781 0
M  V30 6541 O 630.119 5.34038 -1.96958 0
M  V30 6542 N 631.321 5.80355 -0.129624 0
M  V30 6543 H 634.086 2.20442 -2.03041 0
M  V30 6544 H 631.647 1.08744 -1.19943 0
M  V30 6545 H 633.639 4.03699 -0.284397 0
M  V30 6546 H 632.209 3.11633 0.245664 0
M  V30 6547 H 631.429 3.24604 -2.23665 0
M  V30 6548 H 632.717 4.43721 -2.48976 0
M  V30 6549 H 632.115 5.6386 0.455847 0
M  V30 6550 H 630.672 6.51647 0.141224 0
M  V30 6551 N 634.105 1.10431 1.1244 0
M  V30 6552 C 635.035 0.775143 2.20258 0
M  V30 6553 C 636.016 -0.25186 1.68225 0
M  V30 6554 O 637.201 -0.117637 1.93843 0
M  V30 6555 C 634.331 0.206133 3.46688 0
M  V30 6556 C 633.285 1.16382 4.11873 0
M  V30 6557 C 632.611 0.456014 5.32752 0
M  V30 6558 C 633.911 2.5104 4.58013 0
M  V30 6559 H 635.605 1.67665 2.4805 0
M  V30 6560 H 633.151 0.807595 1.19222 0
M  V30 6561 H 635.104 -0.036291 4.21384 0
M  V30 6562 H 633.828 -0.730614 3.18323 0
M  V30 6563 H 632.487 1.39169 3.39157 0
M  V30 6564 H 632.135 -0.485203 5.00654 0
M  V30 6565 H 631.835 1.09466 5.77314 0
M  V30 6566 H 633.359 0.222135 6.10196 0
M  V30 6567 H 634.773 2.32401 5.24083 0
M  V30 6568 H 633.17 3.10789 5.13352 0
M  V30 6569 H 634.24 3.11039 3.71998 0
M  V30 6570 N 635.583 -1.29855 0.893053 0
M  V30 6571 C 636.829 -1.96116 0.516349 0
M  V30 6572 C 637.162 -1.70281 -0.933695 0
M  V30 6573 O 636.437 -1.01205 -1.66096 0
M  V30 6574 C 636.72 -3.51068 0.801455 0
M  V30 6575 C 636.573 -3.86387 2.30272 0
M  V30 6576 C 637.892 -4.39186 0.283423 0
M  V30 6577 H 635.011 -0.712335 0.189072 0
M  V30 6578 H 637.653 -1.53587 1.11852 0
M  V30 6579 H 635.803 -3.87424 0.288949 0
M  V30 6580 H 637.475 -3.60012 2.88425 0
M  V30 6581 H 635.718 -3.34167 2.76613 0
M  V30 6582 H 636.389 -4.94512 2.45279 0
M  V30 6583 H 638.865 -4.09785 0.722187 0
M  V30 6584 H 637.741 -5.46505 0.512169 0
M  V30 6585 H 638.002 -4.34511 -0.815643 0
M  V30 6586 N 637.061 -0.65484 -1.43351 0
M  V30 6587 C 638.309 -0.168559 -2.01396 0
M  V30 6588 C 638.63 1.22235 -1.51933 0
M  V30 6589 O 637.9 1.81685 -0.732627 0
M  V30 6590 H 636.48 -0.0593244 -0.744641 0
M  V30 6591 H 639.142 -0.846871 -1.75539 0
M  V30 6592 H 638.238 -0.154428 -3.11718 0
M  V30 6593 N 638.539 1.52521 -0.396863 0
M  V30 6594 C 639.471 2.24333 0.469814 0
M  V30 6595 C 640.484 1.2685 1.02043 0
M  V30 6596 O 641.673 1.52876 0.92147 0
M  V30 6597 C 638.773 2.95202 1.66461 0
M  V30 6598 C 637.946 4.19454 1.24003 0
M  V30 6599 C 637.005 4.73255 2.30036 0
M  V30 6600 O 636.031 5.36151 1.91131 0
M  V30 6601 N 637.233 4.53765 3.62047 0
M  V30 6602 H 639.998 2.99347 -0.145468 0
M  V30 6603 H 637.559 1.60348 -0.223606 0
M  V30 6604 H 639.551 3.28092 2.36934 0
M  V30 6605 H 638.121 2.2345 2.18607 0
M  V30 6606 H 637.341 3.92517 0.363892 0
M  V30 6607 H 638.629 5.0017 0.933135 0
M  V30 6608 H 638.027 4.03576 3.96412 0
M  V30 6609 H 636.584 4.91124 4.28533 0
M  V30 6610 N 640.017 0.126909 1.57088 0
M  V30 6611 C 641.428 -0.397201 1.82426 0
M  V30 6612 C 641.779 -1.66084 1.04453 0
M  V30 6613 O 640.904 -2.14534 0.283552 0
M  V30 6614 C 641.499 -0.727411 3.30899 0
M  V30 6615 C 640.058 -1.19612 3.56889 0
M  V30 6616 C 639.205 -0.20885 2.76512 0
M  V30 6617 H 642.156 0.351924 1.54749 0
M  V30 6618 H 642.177 -1.58407 3.45959 0
M  V30 6619 H 641.689 0.19247 3.87622 0
M  V30 6620 H 639.79 -2.13263 3.05532 0
M  V30 6621 H 639.903 -1.13598 4.65438 0
M  V30 6622 H 638.267 -0.697479 2.44964 0
M  V30 6623 H 639.05 0.704267 3.35998 0
M  V30 6624 N 641.495 -1.56914 -0.146875 0
M  V30 6625 C 642.906 -1.72799 -0.706928 0
M  V30 6626 C 643.257 -0.741329 -1.81656 0
M  V30 6627 O 642.382 0.0920162 -2.16204 0
M  V30 6628 C 642.977 -3.13317 -1.28911 0
M  V30 6629 C 641.536 -3.30803 -1.79573 0
M  V30 6630 C 640.683 -2.68725 -0.684252 0
M  V30 6631 H 643.634 -1.58504 0.0787931 0
M  V30 6632 H 643.655 -3.13323 -2.15891 0
M  V30 6633 H 643.167 -3.85104 -0.481284 0
M  V30 6634 H 641.268 -2.64012 -2.62923 0
M  V30 6635 H 641.381 -4.38754 -1.92436 0
M  V30 6636 H 639.745 -2.29196 -1.11091 0
M  V30 6637 H 640.528 -3.43117 0.112134 0
M  V30 6638 N 642.974 0.416227 -1.52004 0
M  V30 6639 C 644.385 0.995319 -1.57957 0
M  V30 6640 C 644.736 1.91744 -0.415754 0
M  V30 6641 O 643.861 2.11349 0.464808 0
M  V30 6642 C 644.456 1.81191 -2.86278 0
M  V30 6643 C 643.015 2.34115 -2.94732 0
M  V30 6644 C 642.162 1.139 -2.52828 0
M  V30 6645 H 645.113 0.196716 -1.57476 0
M  V30 6646 H 645.134 2.66859 -2.71231 0
M  V30 6647 H 644.646 1.14051 -3.70963 0
M  V30 6648 H 642.747 3.04647 -2.14525 0
M  V30 6649 H 642.86 2.65466 -3.98829 0
M  V30 6650 H 641.224 1.49081 -2.06511 0
M  V30 6651 H 642.007 0.483383 -3.3988 0
M  V30 6652 N 644.452 1.42507 0.673017 0
M  V30 6653 C 645.402 1.4258 1.77919 0
M  V30 6654 C 646.386 0.296885 1.58137 0
M  V30 6655 O 647.578 0.539243 1.68586 0
M  V30 6656 C 644.707 1.33238 3.1639 0
M  V30 6657 C 643.793 2.51081 3.41788 0
M  V30 6658 N 644.184 3.76498 3.37761 0
M  V30 6659 C 642.482 2.4538 3.72431 0
M  V30 6660 C 643.183 4.54784 3.62693 0
M  V30 6661 N 642.159 3.8522 3.83544 0
M  V30 6662 H 645.961 2.37442 1.73201 0
M  V30 6663 H 643.475 1.36881 0.873924 0
M  V30 6664 H 645.472 1.31372 3.9566 0
M  V30 6665 H 644.132 0.393794 3.22303 0
M  V30 6666 H 645.143 4.09068 3.17622 0
M  V30 6667 H 641.82 1.60109 3.85579 0
M  V30 6668 H 643.21 5.63774 3.65525 0
M  V30 6669 N 645.93 -0.909495 1.28709 0
M  V30 6670 C 647.155 -1.69801 1.1909 0
M  V30 6671 C 647.58 -1.86479 -0.246388 0
M  V30 6672 O 646.938 -1.37802 -1.17815 0
M  V30 6673 C 646.986 -3.06543 1.89904 0
M  V30 6674 O 646.09 -3.94268 1.2094 0
M  V30 6675 H 645.431 -0.519783 0.413185 0
M  V30 6676 H 647.961 -1.13689 1.70106 0
M  V30 6677 H 647.971 -3.56748 1.97977 0
M  V30 6678 H 646.646 -2.93722 2.94449 0
M  V30 6679 H 645.223 -3.52702 1.2106 0
M  V30 6680 N 647.408 -1.11026 -1.11852 0
M  V30 6681 C 648.633 -0.879064 -1.87849 0
M  V30 6682 C 649.058 0.565406 -1.79401 0
M  V30 6683 O 648.416 1.39886 -1.15333 0
M  V30 6684 C 648.464 -1.33985 -3.34784 0
M  V30 6685 O 647.568 -0.508803 -4.09249 0
M  V30 6686 H 646.909 -0.316992 -0.583448 0
M  V30 6687 H 649.439 -1.47863 -1.41413 0
M  V30 6688 H 649.449 -1.33248 -3.85628 0
M  V30 6689 H 648.124 -2.39172 -3.40249 0
M  V30 6690 H 646.701 -0.581913 -3.68332 0
M  V30 6691 N 648.886 1.2938 -0.899927 0
M  V30 6692 C 649.849 2.25983 -0.382677 0
M  V30 6693 C 650.849 1.53366 0.483259 0
M  V30 6694 O 652.039 1.71798 0.28828 0
M  V30 6695 C 649.171 3.37878 0.452915 0
M  V30 6696 H 650.364 2.73252 -1.23586 0
M  V30 6697 H 647.917 1.40825 -0.678088 0
M  V30 6698 H 648.652 2.95949 1.32608 0
M  V30 6699 H 648.437 3.91742 -0.167562 0
M  V30 6700 H 649.927 4.09746 0.806107 0
M  V30 6701 N 650.364 0.662433 1.43002 0
M  V30 6702 C 651.327 -0.0142016 2.29196 0
M  V30 6703 C 652.327 -0.741394 1.42688 0
M  V30 6704 O 653.517 -0.581257 1.64216 0
M  V30 6705 C 650.649 -1.03084 3.24941 0
M  V30 6706 H 651.842 0.7443 2.90517 0
M  V30 6707 H 649.395 0.424133 1.50435 0
M  V30 6708 H 650.13 -1.81826 2.68533 0
M  V30 6709 H 649.915 -0.512946 3.8873 0
M  V30 6710 H 651.405 -1.50308 3.89612 0
M  V30 6711 N 651.842 -1.52309 0.404946 0
M  V30 6712 C 653.07 -2.06185 -0.171818 0
M  V30 6713 C 653.485 -1.27536 -1.39212 0
M  V30 6714 O 652.842 -0.326112 -1.79563 0
M  V30 6715 C 652.893 -3.57647 -0.526417 0
M  V30 6716 O 652.614 -4.3332 0.645417 0
M  V30 6717 C 654.115 -4.27925 -1.15736 0
M  V30 6718 H 651.335 -0.670632 -0.0222328 0
M  V30 6719 H 653.879 -1.96259 0.574692 0
M  V30 6720 H 652.034 -3.67595 -1.22282 0
M  V30 6721 H 652.448 -5.23328 0.35042 0
M  V30 6722 H 653.922 -5.35093 -1.35572 0
M  V30 6723 H 654.399 -3.84134 -2.12926 0
M  V30 6724 H 655.005 -4.22335 -0.501281 0
M  V30 6725 N 653.32 -0.135238 -1.57019 0
M  V30 6726 C 654.731 0.387521 -1.82634 0
M  V30 6727 C 655.082 1.65528 -1.05332 0
M  V30 6728 O 654.207 2.14381 -0.294926 0
M  V30 6729 C 654.802 0.709852 -3.3128 0
M  V30 6730 C 653.361 1.17718 -3.57518 0
M  V30 6731 C 652.508 0.194183 -2.76619 0
M  V30 6732 H 655.459 -0.360126 -1.5456 0
M  V30 6733 H 655.48 1.5657 -3.46794 0
M  V30 6734 H 654.992 -0.213024 -3.87515 0
M  V30 6735 H 653.093 2.1164 -3.06658 0
M  V30 6736 H 653.206 1.11128 -4.66034 0
M  V30 6737 H 651.57 0.684478 -2.4533 0
M  V30 6738 H 652.353 -0.722076 -3.3562 0
M  V30 6739 N 654.798 1.5699 0.138552 0
M  V30 6740 C 655.746 1.99858 1.18994 0
M  V30 6741 C 656.74 0.89231 1.43994 0
M  V30 6742 O 657.946 1.0775 1.44187 0
M  V30 6743 H 654.321 0.636325 0.400743 0
M  V30 6744 H 656.292 2.87427 0.801755 0
M  V30 6745 C 655.041 2.40235 2.51361 0
M  V30 6746 H 654.364 3.24917 2.32957 0
M  V30 6747 H 655.804 2.74045 3.23535 0
M  V30 6748 C 654.263 1.25829 3.1252 0
M  V30 6749 O 654.793 0.563604 3.97727 0
M  V30 6750 N 652.999 1.02036 2.72097 0
M  V30 6751 H 652.546 1.58705 2.02905 0
M  V30 6752 H 652.504 0.256796 3.1335 0
M  V30 6753 N 656.276 -0.40816 1.52223 0
M  V30 6754 C 657.206 -1.5042 1.78595 0
M  V30 6755 C 658.187 -1.57723 0.636974 0
M  V30 6756 O 659.372 -1.72982 0.882664 0
M  V30 6757 C 656.502 -2.88232 1.93751 0
M  V30 6758 C 655.456 -2.95779 3.09352 0
M  V30 6759 C 654.782 -4.35855 3.09732 0
M  V30 6760 C 656.082 -2.67175 4.48793 0
M  V30 6761 H 657.776 -1.28601 2.70374 0
M  V30 6762 H 655.322 -0.617221 1.30101 0
M  V30 6763 H 657.275 -3.64895 2.10783 0
M  V30 6764 H 655.999 -3.11347 0.986443 0
M  V30 6765 H 654.658 -2.21561 2.92072 0
M  V30 6766 H 654.306 -4.55981 2.12346 0
M  V30 6767 H 654.006 -4.41829 3.87377 0
M  V30 6768 H 655.53 -5.14451 3.28895 0
M  V30 6769 H 656.944 -3.3356 4.66273 0
M  V30 6770 H 655.341 -2.84523 5.28362 0
M  V30 6771 H 656.411 -1.62609 4.56822 0
M  V30 6772 N 657.755 -1.42862 -0.66545 0
M  V30 6773 C 659.003 -1.43546 -1.42264 0
M  V30 6774 C 659.324 -0.0563116 -1.94919 0
M  V30 6775 O 658.594 0.906568 -1.73661 0
M  V30 6776 H 657.174 -0.528464 -0.527953 0
M  V30 6777 H 659.836 -1.78363 -0.785665 0
M  V30 6778 H 658.932 -2.14079 -2.27105 0
M  V30 6779 N 659.233 0.902656 -1.29189 0
M  V30 6780 C 660.644 1.46809 -1.15343 0
M  V30 6781 C 660.995 1.94568 0.252517 0
M  V30 6782 O 660.12 1.83454 1.14777 0
M  V30 6783 C 660.715 2.66829 -2.08776 0
M  V30 6784 C 659.274 3.19518 -1.98961 0
M  V30 6785 C 658.421 1.92212 -1.99874 0
M  V30 6786 H 661.372 0.714282 -1.41717 0
M  V30 6787 H 661.393 3.42465 -1.65826 0
M  V30 6788 H 660.905 2.32039 -3.11094 0
M  V30 6789 H 659.006 3.59008 -0.99721 0
M  V30 6790 H 659.119 3.84016 -2.86477 0
M  V30 6791 H 657.483 2.0979 -1.44431 0
M  V30 6792 H 658.266 1.59702 -3.03891 0
M  V30 6793 N 660.711 1.11618 1.11262 0
M  V30 6794 C 661.957 0.867463 1.83311 0
M  V30 6795 C 662.29 -0.605366 1.84524 0
M  V30 6796 O 661.565 -1.44704 1.29965 0
M  V30 6797 C 661.848 1.43207 3.30399 0
M  V30 6798 C 661.701 2.97265 3.3757 0
M  V30 6799 C 663.02 1.08454 4.26528 0
M  V30 6800 H 660.139 0.316578 0.665543 0
M  V30 6801 H 662.781 1.38137 1.30454 0
M  V30 6802 H 660.931 0.994982 3.75543 0
M  V30 6803 H 662.603 3.49591 3.00971 0
M  V30 6804 H 660.846 3.33237 2.77733 0
M  V30 6805 H 661.517 3.31859 4.41105 0
M  V30 6806 H 663.993 1.4619 3.89574 0
M  V30 6807 H 662.869 1.50633 5.27826 0
M  V30 6808 H 663.13 -0.00444568 4.421 0
M  V30 6809 N 662.189 -1.289 0.906776 0
M  V30 6810 C 663.437 -1.94883 0.535266 0
M  V30 6811 C 663.758 -1.71784 -0.922791 0
M  V30 6812 O 663.028 -1.05359 -1.65156 0
M  V30 6813 H 661.608 -0.721109 0.194962 0
M  V30 6814 H 664.27 -1.57018 1.15461 0
M  V30 6815 H 663.366 -3.03591 0.723821 0
M  V30 6816 N 663.667 -0.670007 -1.42649 0
M  V30 6817 C 665.078 -0.268118 -1.84765 0
M  V30 6818 C 665.429 1.18877 -1.56086 0
M  V30 6819 O 664.554 1.90947 -1.01825 0
M  V30 6820 C 665.149 -0.47984 -3.35385 0
M  V30 6821 C 663.708 -0.132116 -3.76168 0
M  V30 6822 C 662.855 -0.774611 -2.66261 0
M  V30 6823 H 665.806 -0.872509 -1.32563 0
M  V30 6824 H 665.827 0.269522 -3.79544 0
M  V30 6825 H 665.339 -1.54026 -3.56227 0
M  V30 6826 H 663.44 0.92505 -3.60934 0
M  V30 6827 H 663.553 -0.569294 -4.75706 0
M  V30 6828 H 661.917 -0.206353 -2.53863 0
M  V30 6829 H 662.7 -1.83839 -2.89928 0
M  V30 6830 N 665.145 1.52092 -0.413018 0
M  V30 6831 C 666.393 2.01456 0.161178 0
M  V30 6832 C 666.714 1.30034 1.45314 0
M  V30 6833 O 665.984 0.427435 1.9118 0
M  V30 6834 H 664.564 0.744376 0.0625526 0
M  V30 6835 H 667.226 1.86974 -0.550151 0
M  V30 6836 H 666.322 3.1008 0.354517 0
M  V30 6837 N 666.623 0.143563 1.56945 0
M  V30 6838 C 667.556 -0.835367 2.1236 0
M  V30 6839 C 668.534 -1.24466 1.04627 0
M  V30 6840 O 669.718 -1.34138 1.32436 0
M  V30 6841 C 666.845 -2.12123 2.64048 0
M  V30 6842 C 665.891 -1.85812 3.83896 0
M  V30 6843 S 666.724 -1.05222 5.25061 0
M  V30 6844 C 667.88 -2.34935 5.80135 0
M  V30 6845 H 668.113 -0.364109 2.95062 0
M  V30 6846 H 665.646 -0.0706601 1.54238 0
M  V30 6847 H 667.604 -2.85993 2.94479 0
M  V30 6848 H 666.265 -2.56364 1.81483 0
M  V30 6849 H 665.458 -2.81151 4.18294 0
M  V30 6850 H 665.06 -1.20052 3.54208 0
M  V30 6851 H 667.352 -3.3061 5.91357 0
M  V30 6852 H 668.295 -2.05046 6.77762 0
M  V30 6853 H 668.703 -2.45426 5.08356 0
M  V30 6854 N 668.101 -1.57061 -0.130224 0
M  V30 6855 C 669.031 -2.02552 -1.16168 0
M  V30 6856 C 670.012 -0.907971 -1.4384 0
M  V30 6857 O 671.197 -1.17693 -1.54473 0
M  V30 6858 C 668.327 -2.42035 -2.49071 0
M  V30 6859 C 667.281 -3.5713 -2.35886 0
M  V30 6860 C 666.607 -3.82478 -3.7365 0
M  V30 6861 C 667.907 -4.89236 -1.8288 0
M  V30 6862 H 669.601 -2.8897 -0.783359 0
M  V30 6863 H 667.147 -1.39021 -0.375376 0
M  V30 6864 H 669.1 -2.72462 -3.21469 0
M  V30 6865 H 667.824 -1.52573 -2.88771 0
M  V30 6866 H 666.483 -3.26895 -1.65938 0
M  V30 6867 H 666.131 -2.9024 -4.10816 0
M  V30 6868 H 665.831 -4.59944 -3.65685 0
M  V30 6869 H 667.355 -4.15347 -4.47571 0
M  V30 6870 H 668.769 -5.18272 -2.45085 0
M  V30 6871 H 667.166 -5.70624 -1.85763 0
M  V30 6872 H 668.236 -4.78494 -0.785571 0
M  V30 6873 N 669.579 0.400081 -1.52437 0
M  V30 6874 C 670.527 1.50851 -1.7705 0
M  V30 6875 C 671.521 1.56928 -0.637969 0
M  V30 6876 O 672.727 1.60226 -0.820212 0
M  V30 6877 H 669.102 0.50186 -0.560036 0
M  V30 6878 H 671.073 1.27281 -2.69893 0
M  V30 6879 C 669.822 2.88117 -1.94638 0
M  V30 6880 H 669.145 2.84187 -2.81208 0
M  V30 6881 H 670.585 3.64942 -2.15855 0
M  V30 6882 C 669.044 3.29206 -0.715899 0
M  V30 6883 O 669.574 4.01544 0.111944 0
M  V30 6884 N 667.78 2.85363 -0.549191 0
M  V30 6885 H 667.327 2.26664 -1.22397 0
M  V30 6886 H 667.285 3.13214 0.27278 0
M  V30 6887 N 671.057 1.43213 0.657864 0
M  V30 6888 C 672.005 1.48271 1.79216 0
M  V30 6889 C 672.999 0.35675 1.65601 0
M  V30 6890 O 674.205 0.530535 1.72004 0
M  V30 6891 H 670.58 0.464729 0.591211 0
M  V30 6892 H 672.551 2.43792 1.7207 0
M  V30 6893 C 671.3 1.41837 3.17455 0
M  V30 6894 H 670.623 2.27781 3.28567 0
M  V30 6895 H 672.063 1.49438 3.96793 0
M  V30 6896 C 670.522 0.135347 3.36628 0
M  V30 6897 O 671.052 -0.805199 3.93547 0
M  V30 6898 N 669.258 0.0470316 2.90562 0
M  V30 6899 H 668.805 0.813221 2.44427 0
M  V30 6900 H 668.763 -0.810737 3.03767 0
M  V30 6901 N 672.536 -0.895792 1.29666 0
M  V30 6902 C 673.486 -1.98736 1.1175 0
M  V30 6903 C 674.47 -1.6086 0.0357834 0
M  V30 6904 O 675.662 -1.75111 0.257926 0
M  V30 6905 C 672.791 -3.33845 0.800156 0
M  V30 6906 C 671.877 -3.78068 1.9216 0
M  V30 6907 N 672.268 -3.94489 3.16563 0
M  V30 6908 C 670.566 -4.07376 1.81552 0
M  V30 6909 C 671.267 -4.31819 3.89753 0
M  V30 6910 N 670.243 -4.41081 3.17724 0
M  V30 6911 H 674.045 -2.09507 2.06117 0
M  V30 6912 H 671.559 -1.08488 1.20848 0
M  V30 6913 H 673.556 -4.11757 0.652841 0
M  V30 6914 H 672.216 -3.24417 -0.135551 0
M  V30 6915 H 673.227 -3.79914 3.51974 0
M  V30 6916 H 669.904 -4.06483 0.952787 0
M  V30 6917 H 671.294 -4.52337 4.96831 0
M  V30 6918 N 674.014 -1.12206 -1.10668 0
M  V30 6919 C 675.262 -0.874144 -1.82217 0
M  V30 6920 C 675.583 0.601736 -1.85484 0
M  V30 6921 O 674.853 1.43725 -1.33116 0
M  V30 6922 H 673.433 -0.320404 -0.674797 0
M  V30 6923 H 676.095 -1.41606 -1.33917 0
M  V30 6924 H 675.191 -1.25349 -2.85822 0
M  V30 6925 N 675.492 1.28418 -0.913599 0
M  V30 6926 C 676.442 2.24928 -0.373042 0
M  V30 6927 C 677.426 1.52444 0.514753 0
M  V30 6928 O 678.618 1.73414 0.3545 0
M  V30 6929 C 675.747 3.41124 0.385896 0
M  V30 6930 C 674.833 4.20929 -0.51761 0
M  V30 6931 N 675.224 4.78777 -1.63113 0
M  V30 6932 C 673.522 4.44865 -0.317969 0
M  V30 6933 C 674.223 5.38822 -2.19193 0
M  V30 6934 N 673.199 5.22974 -1.48321 0
M  V30 6935 H 677.001 2.67224 -1.22346 0
M  V30 6936 H 674.515 1.43187 -0.766236 0
M  V30 6937 H 676.512 4.09347 0.789997 0
M  V30 6938 H 675.172 3.00362 1.23341 0
M  V30 6939 H 676.183 4.77148 -2.01372 0
M  V30 6940 H 672.86 4.14614 0.49004 0
M  V30 6941 H 674.25 5.94615 -3.12861 0
M  V30 6942 N 676.97 0.677563 1.42291 0
M  V30 6943 C 677.933 0.0101085 2.29198 0
M  V30 6944 C 678.933 -0.726219 1.43467 0
M  V30 6945 O 680.123 -0.563807 1.64824 0
M  V30 6946 C 677.255 -0.996316 3.26016 0
M  V30 6947 H 678.448 0.775071 2.89711 0
M  V30 6948 H 676.001 0.440065 1.49977 0
M  V30 6949 H 676.736 -1.78967 2.70446 0
M  V30 6950 H 676.521 -0.471687 3.89253 0
M  V30 6951 H 678.011 -1.46167 3.91184 0
M  V30 6952 N 678.448 -1.51871 0.421078 0
M  V30 6953 C 679.694 -2.02237 -0.151014 0
M  V30 6954 C 680.027 -1.30554 -1.43768 0
M  V30 6955 O 679.302 -0.41546 -1.90011 0
M  V30 6956 C 679.585 -3.5802 -0.386482 0
M  V30 6957 C 679.438 -4.40339 0.9177 0
M  V30 6958 C 680.757 -4.24444 -1.16342 0
M  V30 6959 H 677.876 -0.735062 -0.0534102 0
M  V30 6960 H 680.518 -1.81656 0.556888 0
M  V30 6961 H 678.668 -3.75688 -0.989494 0
M  V30 6962 H 680.34 -4.34357 1.55344 0
M  V30 6963 H 678.583 -4.06073 1.526 0
M  V30 6964 H 679.254 -5.47451 0.707187 0
M  V30 6965 H 681.73 -4.10948 -0.652788 0
M  V30 6966 H 680.606 -5.33358 -1.29693 0
M  V30 6967 H 680.867 -3.84204 -2.18724 0
M  V30 6968 N 679.926 -0.151884 -1.56866 0
M  V30 6969 C 681.337 0.368128 -1.83035 0
M  V30 6970 C 681.688 1.64402 -1.07082 0
M  V30 6971 O 680.813 2.14056 -0.317647 0
M  V30 6972 C 681.408 0.674676 -3.32014 0
M  V30 6973 C 679.967 1.13919 -3.58747 0
M  V30 6974 C 679.114 0.164833 -2.7681 0
M  V30 6975 H 682.065 -0.376499 -1.54169 0
M  V30 6976 H 682.086 1.52883 -3.48435 0
M  V30 6977 H 681.598 -0.254113 -3.87267 0
M  V30 6978 H 679.699 2.08375 -3.08886 0
M  V30 6979 H 679.812 1.06179 -4.67186 0
M  V30 6980 H 678.176 0.658419 -2.46043 0
M  V30 6981 H 678.959 -0.757633 -3.34836 0
M  V30 6982 N 681.404 1.57128 0.121893 0
M  V30 6983 C 682.367 1.99197 1.13372 0
M  V30 6984 C 683.367 0.881728 1.3447 0
M  V30 6985 O 684.557 1.14783 1.31036 0
M  V30 6986 C 681.689 2.32963 2.4888 0
M  V30 6987 H 682.882 2.89788 0.772204 0
M  V30 6988 H 680.435 1.51952 0.366093 0
M  V30 6989 H 681.17 1.45243 2.89957 0
M  V30 6990 H 680.955 3.13934 2.34921 0
M  V30 6991 H 682.445 2.66261 3.21706 0
M  V30 6992 N 682.882 -0.391992 1.52647 0
M  V30 6993 C 683.83 -1.4991 1.77848 0
M  V30 6994 C 684.824 -1.56587 0.646282 0
M  V30 6995 O 686.03 -1.59789 0.828698 0
M  V30 6996 H 682.405 -0.498883 0.56269 0
M  V30 6997 H 684.376 -1.25847 2.70564 0
M  V30 6998 C 683.125 -2.87081 1.96163 0
M  V30 6999 H 682.448 -2.82692 2.82711 0
M  V30 7000 H 683.888 -3.63792 2.17787 0
M  V30 7001 C 682.347 -3.28822 0.733348 0
M  V30 7002 O 682.877 -4.01598 -0.0906481 0
M  V30 7003 N 681.083 -2.85068 0.564317 0
M  V30 7004 H 680.63 -2.26012 1.23598 0
M  V30 7005 H 680.588 -3.13355 -0.256166 0
M  V30 7006 N 684.36 -1.4356 -0.65026 0
M  V30 7007 C 685.608 -1.45046 -1.40734 0
M  V30 7008 C 685.929 -0.0769822 -1.94848 0
M  V30 7009 O 685.199 0.888098 -1.74613 0
M  V30 7010 H 683.779 -0.534034 -0.522318 0
M  V30 7011 H 686.441 -1.79186 -0.766703 0
M  V30 7012 H 685.537 -2.16476 -2.24822 0
M  V30 7013 N 685.838 0.888903 -1.30139 0
M  V30 7014 C 686.748 2.02705 -1.18101 0
M  V30 7015 C 687.764 1.73702 -0.101809 0
M  V30 7016 O 688.94 1.98906 -0.315984 0
M  V30 7017 C 686.005 3.35616 -0.869651 0
M  V30 7018 C 685.066 3.78067 -2.03381 0
M  V30 7019 C 684.299 5.04635 -1.73721 0
M  V30 7020 O 684.522 5.66531 -0.663267 0
M  V30 7021 O 683.456 5.43399 -2.58845 0
M  V30 7022 H 687.282 2.15788 -2.13704 0
M  V30 7023 H 684.867 1.01426 -1.09695 0
M  V30 7024 H 686.749 4.15358 -0.711043 0
M  V30 7025 H 685.424 3.23651 0.0565002 0
M  V30 7026 H 684.331 2.99046 -2.24772 0
M  V30 7027 H 685.664 3.94631 -2.94155 0
M  V30 7028 N 687.317 1.12792 1.10072 0
M  V30 7029 C 688.25 0.742921 2.15768 0
M  V30 7030 C 689.228 -0.267714 1.60381 0
M  V30 7031 O 690.412 -0.160782 1.87813 0
M  V30 7032 C 687.539 0.100244 3.38552 0
M  V30 7033 C 686.585 1.07831 4.12644 0
M  V30 7034 S 687.418 2.60765 4.6772 0
M  V30 7035 C 688.574 1.97838 5.9381 0
M  V30 7036 H 688.807 1.63822 2.48092 0
M  V30 7037 H 686.34 0.947385 1.21918 0
M  V30 7038 H 688.298 -0.264175 4.09649 0
M  V30 7039 H 686.959 -0.772223 3.04459 0
M  V30 7040 H 686.152 0.576325 5.00694 0
M  V30 7041 H 685.754 1.38586 3.47376 0
M  V30 7042 H 688.046 1.32341 6.64449 0
M  V30 7043 H 688.989 2.83943 6.48677 0
M  V30 7044 H 689.397 1.43267 5.46017 0
M  V30 7045 N 688.795 -1.27931 0.920396 0
M  V30 7046 C 690.02 -1.99343 0.572478 0
M  V30 7047 C 690.445 -1.68267 -0.840696 0
M  V30 7048 O 689.803 -0.918805 -1.56294 0
M  V30 7049 C 689.851 -3.51698 0.796284 0
M  V30 7050 O 688.955 -4.12157 -0.141602 0
M  V30 7051 H 688.296 -0.626065 0.221221 0
M  V30 7052 H 690.826 -1.62921 1.23765 0
M  V30 7053 H 690.836 -4.01793 0.708984 0
M  V30 7054 H 689.511 -3.73649 1.82644 0
M  V30 7055 H 688.088 -3.729 -0.005007 0
M  V30 7056 N 690.273 -0.685099 -1.4193 0
M  V30 7057 C 691.498 -0.218842 -2.06242 0
M  V30 7058 C 691.923 1.11923 -1.51178 0
M  V30 7059 O 691.281 1.69837 -0.634446 0
M  V30 7060 C 691.329 -0.175592 -3.60172 0
M  V30 7061 O 690.433 0.852776 -4.03487 0
M  V30 7062 H 689.774 -0.109531 -0.654904 0
M  V30 7063 H 692.304 -0.937013 -1.81882 0
M  V30 7064 H 692.314 -0.00291151 -4.08 0
M  V30 7065 H 690.989 -1.15222 -3.99621 0
M  V30 7066 H 689.566 0.650301 -3.67186 0
M  V30 7067 N 691.751 1.51645 -0.429126 0
M  V30 7068 C 692.976 2.06917 0.141399 0
M  V30 7069 C 693.401 1.29527 1.36398 0
M  V30 7070 O 692.759 0.33094 1.78254 0
M  V30 7071 C 692.807 3.57776 0.4504 0
M  V30 7072 O 691.911 3.82639 1.53821 0
M  V30 7073 H 691.252 0.663978 0.0054647 0
M  V30 7074 H 693.782 1.95355 -0.608093 0
M  V30 7075 H 693.792 4.01894 0.703249 0
M  V30 7076 H 692.467 4.13532 -0.443213 0
M  V30 7077 H 691.044 3.5039 1.27597 0
M  V30 7078 N 693.229 0.160201 1.56784 0
M  V30 7079 C 694.179 -0.786461 2.14007 0
M  V30 7080 C 695.163 -1.20046 1.07134 0
M  V30 7081 O 696.355 -1.16468 1.33283 0
M  V30 7082 C 693.484 -2.02024 2.77563 0
M  V30 7083 C 692.57 -1.62874 3.91578 0
M  V30 7084 N 692.961 -0.946176 4.96871 0
M  V30 7085 C 691.259 -1.92054 4.02531 0
M  V30 7086 C 691.96 -0.755084 5.76778 0
M  V30 7087 N 690.936 -1.29307 5.27997 0
M  V30 7088 H 694.738 -0.255879 2.92784 0
M  V30 7089 H 692.252 -0.0408778 1.62349 0
M  V30 7090 H 694.249 -2.70855 3.16928 0
M  V30 7091 H 692.909 -2.55587 2.00263 0
M  V30 7092 H 693.92 -0.605455 5.14349 0
M  V30 7093 H 690.597 -2.47374 3.36322 0
M  V30 7094 H 691.987 -0.216138 6.71552 0
M  V30 7095 N 694.707 -1.5719 -0.113559 0
M  V30 7096 C 695.932 -1.89702 -0.838336 0
M  V30 7097 C 696.357 -0.752679 -1.72384 0
M  V30 7098 O 695.715 0.296575 -1.78858 0
M  V30 7099 C 695.763 -3.20989 -1.64312 0
M  V30 7100 O 694.867 -3.07278 -2.75053 0
M  V30 7101 H 694.208 -0.622339 -0.231496 0
M  V30 7102 H 696.738 -2.04382 -0.0943228 0
M  V30 7103 H 696.748 -3.53843 -2.03123 0
M  V30 7104 H 695.423 -4.03869 -0.993119 0
M  V30 7105 H 694 -2.85901 -2.39406 0
M  V30 7106 N 696.185 0.383891 -1.52853 0
M  V30 7107 C 697.148 1.45197 -1.77343 0
M  V30 7108 C 698.148 1.47362 -0.643522 0
M  V30 7109 O 699.338 1.48443 -0.911613 0
M  V30 7110 C 696.47 2.8445 -1.87885 0
M  V30 7111 H 697.663 1.24764 -2.72716 0
M  V30 7112 H 695.216 0.615939 -1.43652 0
M  V30 7113 H 695.951 3.10222 -0.94515 0
M  V30 7114 H 695.736 2.8428 -2.70051 0
M  V30 7115 H 697.226 3.61832 -2.08488 0
M  V30 7116 N 697.663 1.43903 0.642637 0
M  V30 7117 C 698.595 1.45857 1.768 0
M  V30 7118 C 699.608 0.353358 1.58919 0
M  V30 7119 O 700.797 0.618426 1.67445 0
M  V30 7120 C 697.897 1.26583 3.14372 0
M  V30 7121 C 697.07 2.50139 3.58817 0
M  V30 7122 C 696.129 2.25933 4.75227 0
M  V30 7123 O 695.155 2.99351 4.84125 0
M  V30 7124 N 696.357 1.28263 5.66153 0
M  V30 7125 H 699.122 2.42869 1.75598 0
M  V30 7126 H 696.683 1.39194 0.826832 0
M  V30 7127 H 698.675 1.08255 3.89953 0
M  V30 7128 H 697.245 0.37978 3.10284 0
M  V30 7129 H 696.465 2.83821 2.73568 0
M  V30 7130 H 697.753 3.32344 3.8526 0
M  V30 7131 H 697.151 0.676041 5.61646 0
M  V30 7132 H 695.708 1.15916 6.4141 0
M  V30 7133 N 699.141 -0.881989 1.30609 0
M  V30 7134 C 700.366 -1.67236 1.22665 0
M  V30 7135 C 700.791 -1.8696 -0.206777 0
M  V30 7136 O 700.149 -1.4027 -1.14865 0
M  V30 7137 C 700.197 -3.02446 1.96363 0
M  V30 7138 O 699.301 -3.91614 1.29276 0
M  V30 7139 H 698.642 -0.510902 0.424117 0
M  V30 7140 H 701.172 -1.10055 1.72479 0
M  V30 7141 H 701.182 -3.52468 2.055 0
M  V30 7142 H 699.857 -2.8741 3.00613 0
M  V30 7143 H 698.434 -3.50055 1.28514 0
M  V30 7144 N 700.619 -1.13374 -1.09472 0
M  V30 7145 C 701.552 -0.754354 -2.15371 0
M  V30 7146 C 702.53 0.259205 -1.60521 0
M  V30 7147 O 703.714 0.150819 -1.87896 0
M  V30 7148 C 700.841 -0.118197 -3.38494 0
M  V30 7149 C 699.887 -1.10017 -4.12066 0
M  V30 7150 S 700.72 -2.63242 -4.6633 0
M  V30 7151 C 701.876 -2.00984 -5.92753 0
M  V30 7152 H 702.109 -1.65135 -2.4722 0
M  V30 7153 H 699.642 -0.953838 -1.21414 0
M  V30 7154 H 701.6 0.242447 -4.09783 0
M  V30 7155 H 700.261 0.756065 -3.04865 0
M  V30 7156 H 699.454 -0.60287 -5.00381 0
M  V30 7157 H 699.056 -1.40426 -3.46636 0
M  V30 7158 H 701.348 -1.35863 -6.63738 0
M  V30 7159 H 702.291 -2.8738 -6.47162 0
M  V30 7160 H 702.699 -1.46161 -5.4525 0
M  V30 7161 N 702.098 1.27442 -0.927168 0
M  V30 7162 C 703.344 1.94679 -0.568164 0
M  V30 7163 C 703.677 1.72697 0.888219 0
M  V30 7164 O 702.952 1.05573 1.63354 0
M  V30 7165 C 703.235 3.4882 -0.894253 0
M  V30 7166 C 703.088 3.80146 -2.40435 0
M  V30 7167 C 704.407 4.38281 -0.399766 0
M  V30 7168 H 701.526 0.707071 -0.207892 0
M  V30 7169 H 704.168 1.50568 -1.15885 0
M  V30 7170 H 702.318 3.86522 -0.391566 0
M  V30 7171 H 703.99 3.52238 -2.97869 0
M  V30 7172 H 702.233 3.26716 -2.85375 0
M  V30 7173 H 702.904 4.87835 -2.58304 0
M  V30 7174 H 705.38 4.07726 -0.83058 0
M  V30 7175 H 704.256 5.44955 -0.656885 0
M  V30 7176 H 704.517 4.36521 0.700153 0
M  V30 7177 N 703.576 0.692616 1.41565 0
M  V30 7178 C 704.801 0.229776 2.06123 0
M  V30 7179 C 705.226 -1.11119 1.5177 0
M  V30 7180 O 704.584 -1.69498 0.643444 0
M  V30 7181 C 704.632 0.19469 3.60074 0
M  V30 7182 O 703.736 -0.831366 4.03933 0
M  V30 7183 H 703.077 0.113002 0.654314 0
M  V30 7184 H 705.607 0.946645 1.81383 0
M  V30 7185 H 705.617 0.0245487 4.07993 0
M  V30 7186 H 704.292 1.17339 3.99004 0
M  V30 7187 H 702.869 -0.630819 3.67526 0
M  V30 7188 N 705.054 -1.51416 0.437162 0
M  V30 7189 C 706.302 -2.01687 -0.129108 0
M  V30 7190 C 706.623 -1.32329 -1.43227 0
M  V30 7191 O 705.893 -0.457796 -1.90476 0
M  V30 7192 H 704.473 -0.745277 -0.0507023 0
M  V30 7193 H 707.135 -1.86075 0.579828 0
M  V30 7194 H 706.231 -3.10605 -0.305141 0
M  V30 7195 N 706.532 -0.168513 -1.56696 0
M  V30 7196 C 707.757 0.486688 -2.01609 0
M  V30 7197 C 708.182 1.56203 -1.04796 0
M  V30 7198 O 707.54 1.8128 -0.0270596 0
M  V30 7199 C 707.588 1.04451 -3.45141 0
M  V30 7200 O 706.692 2.15862 -3.51393 0
M  V30 7201 H 706.033 0.116831 -0.653641 0
M  V30 7202 H 708.563 -0.271579 -2.0279 0
M  V30 7203 H 708.573 1.36782 -3.84389 0
M  V30 7204 H 707.248 0.257155 -4.15104 0
M  V30 7205 H 705.825 1.84597 -3.24004 0
M  V30 7206 N 708.01 1.57248 0.105221 0
M  V30 7207 C 708.96 1.9777 1.1345 0
M  V30 7208 C 709.944 0.854654 1.36325 0
M  V30 7209 O 711.136 1.11844 1.37186 0
M  V30 7210 C 708.265 2.39717 2.45745 0
M  V30 7211 C 707.351 3.58686 2.26286 0
M  V30 7212 N 707.742 4.73942 1.76671 0
M  V30 7213 C 706.04 3.64586 2.56891 0
M  V30 7214 C 706.741 5.55923 1.71245 0
M  V30 7215 N 705.717 4.98803 2.16093 0
M  V30 7216 H 709.519 2.84336 0.743664 0
M  V30 7217 H 707.033 1.59359 0.312787 0
M  V30 7218 H 709.03 2.66971 3.20206 0
M  V30 7219 H 707.69 1.54523 2.85574 0
M  V30 7220 H 708.701 4.9689 1.46016 0
M  V30 7221 H 705.378 2.90031 3.00314 0
M  V30 7222 H 706.768 6.58398 1.34022 0
M  V30 7223 N 709.488 -0.375779 1.53054 0
M  V30 7224 C 710.728 -1.12828 1.70438 0
M  V30 7225 C 711.092 -1.86854 0.441527 0
M  V30 7226 O 712.293 -2.64261 0.491908 0
M  V30 7227 C 710.564 -2.07009 2.91345 0
M  V30 7228 S 712.123 -2.89917 3.29383 0
M  V30 7229 H 708.941 -0.381736 0.599832 0
M  V30 7230 H 711.543 -0.4109 1.91133 0
M  V30 7231 H 710.247 -1.51371 3.81464 0
M  V30 7232 H 709.778 -2.83236 2.73022 0
M  V30 7233 H 711.793 -4.0924 2.80601 0
M  V30 7234 N 710.966 -1.44241 -0.634997 0
M  V30 7235 C 712.194 -1.50296 -1.42193 0
M  V30 7236 C 712.609 -0.12658 -1.88375 0
M  V30 7237 O 711.966 0.86678 -1.60603 0
M  V30 7238 C 712.017 -2.46437 -2.64482 0
M  V30 7239 O 711.738 -3.78724 -2.20226 0
M  V30 7240 C 713.239 -2.61918 -3.57651 0
M  V30 7241 H 710.459 -0.509865 -0.43621 0
M  V30 7242 H 713.003 -1.89167 -0.776921 0
M  V30 7243 H 711.158 -2.10712 -3.25083 0
M  V30 7244 H 711.572 -4.30595 -2.9948 0
M  V30 7245 H 713.046 -3.33225 -4.40074 0
M  V30 7246 H 713.523 -1.67017 -4.06204 0
M  V30 7247 H 714.129 -2.98528 -3.02921 0
M  V30 7248 N 712.444 0.87505 -1.31075 0
M  V30 7249 C 713.855 1.4433 -1.18431 0
M  V30 7250 C 714.206 1.9506 0.211189 0
M  V30 7251 O 713.331 1.85847 1.10859 0
M  V30 7252 C 713.926 2.62341 -2.14389 0
M  V30 7253 C 712.485 3.15225 -2.05694 0
M  V30 7254 C 711.632 1.87929 -2.03907 0
M  V30 7255 H 714.583 0.684061 -1.432 0
M  V30 7256 H 714.604 3.3887 -1.73053 0
M  V30 7257 H 714.116 2.25388 -3.15946 0
M  V30 7258 H 712.217 3.56812 -1.07314 0
M  V30 7259 H 712.33 3.77853 -2.94558 0
M  V30 7260 H 710.694 2.06679 -1.48849 0
M  V30 7261 H 711.477 1.53221 -3.07211 0
M  V30 7262 N 713.922 1.13953 1.08869 0
M  V30 7263 C 715.333 0.916649 1.62648 0
M  V30 7264 C 715.684 -0.545589 1.88462 0
M  V30 7265 O 714.809 -1.41351 1.63856 0
M  V30 7266 C 715.404 1.65751 2.95486 0
M  V30 7267 C 713.963 1.48034 3.46068 0
M  V30 7268 C 713.11 1.68305 2.20383 0
M  V30 7269 H 716.061 1.292 0.921572 0
M  V30 7270 H 716.082 1.11794 3.63707 0
M  V30 7271 H 715.594 2.72171 2.76667 0
M  V30 7272 H 713.695 0.439416 3.7 0
M  V30 7273 H 713.808 2.24719 4.23129 0
M  V30 7274 H 712.172 1.10833 2.29321 0
M  V30 7275 H 712.955 2.76057 2.04077 0
M  V30 7276 N 715.4 -1.26948 0.933913 0
M  V30 7277 C 716.811 -1.76058 0.621324 0
M  V30 7278 C 717.162 -1.76175 -0.863522 0
M  V30 7279 O 716.287 -1.36921 -1.67576 0
M  V30 7280 C 716.882 -3.19713 1.12111 0
M  V30 7281 C 715.441 -3.66465 0.859074 0
M  V30 7282 C 714.588 -2.46186 1.27624 0
M  V30 7283 H 717.539 -1.13127 1.11301 0
M  V30 7284 H 717.56 -3.77566 0.471608 0
M  V30 7285 H 717.072 -3.19596 2.20182 0
M  V30 7286 H 715.173 -3.72021 -0.207566 0
M  V30 7287 H 715.286 -4.55636 1.48098 0
M  V30 7288 H 713.65 -2.45042 0.694727 0
M  V30 7289 H 714.433 -2.48774 2.36572 0
M  V30 7290 N 716.879 -0.700114 -1.41195 0
M  V30 7291 C 718.29 -0.307249 -1.84154 0
M  V30 7292 C 718.641 1.15539 -1.58572 0
M  V30 7293 O 717.766 1.88744 -1.05852 0
M  V30 7294 C 718.361 -0.550872 -3.34292 0
M  V30 7295 C 716.92 -0.211877 -3.75803 0
M  V30 7296 C 716.067 -0.830915 -2.64558 0
M  V30 7297 H 719.018 -0.900431 -1.30683 0
M  V30 7298 H 719.039 0.188954 -3.80031 0
M  V30 7299 H 718.551 -1.61548 -3.5288 0
M  V30 7300 H 716.652 0.848283 -3.62815 0
M  V30 7301 H 716.765 -0.67007 -4.74391 0
M  V30 7302 H 715.129 -0.260155 -2.53368 0
M  V30 7303 H 715.912 -1.89948 -2.85963 0
M  V30 7304 N 718.357 1.51182 -0.445186 0
M  V30 7305 C 719.587 2.06269 0.116922 0
M  V30 7306 C 719.995 1.31188 1.36332 0
M  V30 7307 O 719.338 0.367067 1.79995 0
M  V30 7308 C 719.4 3.56051 0.496757 0
M  V30 7309 C 719.064 4.52441 -0.64394 0
M  V30 7310 C 720.061 4.97233 -1.5184 0
M  V30 7311 C 717.746 4.95447 -0.826905 0
M  V30 7312 C 719.74 5.83712 -2.56046 0
M  V30 7313 C 717.427 5.81714 -1.87222 0
M  V30 7314 C 718.425 6.25745 -2.73738 0
M  V30 7315 O 718.113 7.10298 -3.76474 0
M  V30 7316 H 717.845 0.675954 0.00785733 0
M  V30 7317 H 720.399 1.95648 -0.625371 0
M  V30 7318 H 718.629 3.64483 1.29187 0
M  V30 7319 H 720.318 3.93618 0.990928 0
M  V30 7320 H 721.084 4.64696 -1.38862 0
M  V30 7321 H 716.963 4.60712 -0.163052 0
M  V30 7322 H 720.507 6.18 -3.23607 0
M  V30 7323 H 716.404 6.13664 -2.00218 0
M  V30 7324 H 717.172 7.28493 -3.73149 0
M  V30 7325 N 719.835 0.176821 1.56605 0
M  V30 7326 C 720.785 -0.763718 2.14829 0
M  V30 7327 C 721.769 -1.18903 1.08401 0
M  V30 7328 O 722.961 -1.15048 1.3451 0
M  V30 7329 C 720.09 -1.99069 2.7969 0
M  V30 7330 C 719.176 -1.58711 3.93283 0
M  V30 7331 N 719.567 -0.893423 4.97847 0
M  V30 7332 C 717.865 -1.87774 4.04545 0
M  V30 7333 C 718.566 -0.693866 5.77547 0
M  V30 7334 N 717.542 -1.23699 5.29339 0
M  V30 7335 H 721.344 -0.224811 2.93039 0
M  V30 7336 H 718.858 -0.0236563 1.62383 0
M  V30 7337 H 720.855 -2.67478 3.19783 0
M  V30 7338 H 719.515 -2.53449 2.02962 0
M  V30 7339 H 720.526 -0.550868 5.14962 0
M  V30 7340 H 717.203 -2.43793 3.38927 0
M  V30 7341 H 718.593 -0.144899 6.71744 0
M  V30 7342 N 721.313 -1.57302 -0.09688 0
M  V30 7343 C 722.276 -2.00976 -1.10188 0
M  V30 7344 C 723.276 -0.903009 -1.3305 0
M  V30 7345 O 724.466 -1.16853 -1.29194 0
M  V30 7346 C 721.598 -2.36893 -2.45142 0
M  V30 7347 H 722.791 -2.9098 -0.726003 0
M  V30 7348 H 720.344 -1.52515 -0.341872 0
M  V30 7349 H 721.079 -1.49837 -2.8761 0
M  V30 7350 H 720.864 -3.17632 -2.29897 0
M  V30 7351 H 722.354 -2.71345 -3.1743 0
M  V30 7352 N 722.791 0.367657 -1.53252 0
M  V30 7353 C 724.068 1.12606 -1.59935 0
M  V30 7354 C 724.448 2.07167 -0.405606 0
M  V30 7355 O 723.796 2.20364 0.604323 0
M  V30 7356 C 724.006 1.86699 -2.94863 0
M  V30 7357 C 725.354 2.41306 -3.49366 0
M  V30 7358 O 726.378 1.96828 -2.96879 0
M  V30 7359 O 725.237 3.2261 -4.41118 0
M  V30 7360 H 722.331 0.516438 -0.645926 0
M  V30 7361 H 724.877 0.371088 -1.65593 0
M  V30 7362 H 723.649 1.17674 -3.73187 0
M  V30 7363 H 723.272 2.6911 -2.92687 0
M  V30 7364 N 724.269 1.44576 0.627338 0
M  V30 7365 C 725.68 1.42266 1.20902 0
M  V30 7366 C 726.031 0.139964 1.957 0
M  V30 7367 O 725.156 -0.759489 2.02634 0
M  V30 7368 C 725.751 2.57727 2.19914 0
M  V30 7369 C 724.31 2.58599 2.73502 0
M  V30 7370 C 723.457 2.34145 1.48564 0
M  V30 7371 H 726.408 1.53102 0.417791 0
M  V30 7372 H 726.429 2.30697 3.02588 0
M  V30 7373 H 725.941 3.51068 1.65447 0
M  V30 7374 H 724.042 1.6921 3.31962 0
M  V30 7375 H 724.155 3.57205 3.19282 0
M  V30 7376 H 722.519 1.83313 1.76829 0
M  V30 7377 H 723.302 3.29606 0.959935 0
M  V30 7378 N 725.747 -0.868086 1.31537 0
M  V30 7379 C 726.972 -1.65926 1.24432 0
M  V30 7380 C 727.397 -1.87169 -0.186936 0
M  V30 7381 O 726.755 -1.4148 -1.13371 0
M  V30 7382 C 726.803 -3.00347 1.9956 0
M  V30 7383 O 725.907 -3.90221 1.33422 0
M  V30 7384 H 725.248 -0.506375 0.429512 0
M  V30 7385 H 727.778 -1.0822 1.73637 0
M  V30 7386 H 727.788 -3.50269 2.09226 0
M  V30 7387 H 726.463 -2.84205 3.03645 0
M  V30 7388 H 725.04 -3.48672 1.32219 0
M  V30 7389 N 727.225 -1.14528 -1.08264 0
M  V30 7390 C 728.155 -0.856356 -2.1723 0
M  V30 7391 C 729.136 0.189251 -1.69044 0
M  V30 7392 O 730.321 0.0456119 -1.94146 0
M  V30 7393 C 727.451 -0.334662 -3.45684 0
M  V30 7394 C 726.405 -1.31588 -4.0727 0
M  V30 7395 C 725.731 -0.653428 -5.30692 0
M  V30 7396 C 727.031 -2.67866 -4.48381 0
M  V30 7397 H 728.725 -1.76755 -2.41657 0
M  V30 7398 H 726.271 -0.851287 -1.16143 0
M  V30 7399 H 728.224 -0.120128 -4.21229 0
M  V30 7400 H 726.948 0.611967 -3.20815 0
M  V30 7401 H 725.607 -1.51661 -3.33758 0
M  V30 7402 H 725.255 0.299054 -5.0211 0
M  V30 7403 H 724.955 -1.30817 -5.72853 0
M  V30 7404 H 726.479 -0.448453 -6.08951 0
M  V30 7405 H 727.893 -2.51692 -5.15096 0
M  V30 7406 H 726.29 -3.29627 -5.01464 0
M  V30 7407 H 727.36 -3.24632 -3.60198 0
M  V30 7408 N 728.703 1.26451 -0.940633 0
M  V30 7409 C 729.949 1.94065 -0.58878 0
M  V30 7410 C 730.282 1.7363 0.869853 0
M  V30 7411 O 729.557 1.073 1.62225 0
M  V30 7412 C 729.84 3.47852 -0.931199 0
M  V30 7413 C 729.693 3.77575 -2.44453 0
M  V30 7414 C 731.012 4.37832 -0.446229 0
M  V30 7415 H 728.131 0.704827 -0.21538 0
M  V30 7416 H 730.773 1.4933 -1.17475 0
M  V30 7417 H 728.923 3.86085 -0.432539 0
M  V30 7418 H 730.595 3.49059 -3.01588 0
M  V30 7419 H 728.838 3.23671 -2.88825 0
M  V30 7420 H 729.509 4.85068 -2.63464 0
M  V30 7421 H 731.985 4.06822 -0.873778 0
M  V30 7422 H 730.861 5.44228 -0.714648 0
M  V30 7423 H 731.122 4.37239 0.653815 0
M  V30 7424 N 730.181 0.707592 1.40822 0
M  V30 7425 C 731.406 0.251626 2.05868 0
M  V30 7426 C 731.831 -1.09503 1.5294 0
M  V30 7427 O 731.189 -1.68806 0.661385 0
M  V30 7428 C 731.237 0.23287 3.59847 0
M  V30 7429 O 730.341 -0.788477 4.04792 0
M  V30 7430 H 729.682 0.119936 0.653078 0
M  V30 7431 H 732.212 0.96583 1.80369 0
M  V30 7432 H 732.222 0.0678204 4.07944 0
M  V30 7433 H 730.897 1.21565 3.97737 0
M  V30 7434 H 729.474 -0.591802 3.68174 0
M  V30 7435 N 731.66 -1.50943 0.453197 0
M  V30 7436 C 732.907 -2.02212 -0.107922 0
M  V30 7437 C 733.235 -1.33639 -1.41318 0
M  V30 7438 O 732.49 -0.445154 -1.9057 0
M  V30 7439 C 732.789 -3.55603 -0.357944 0
M  V30 7440 C 732.455 -4.42556 0.863427 0
M  V30 7441 C 731.117 -4.6604 1.19834 0
M  V30 7442 C 733.469 -4.93468 1.67747 0
M  V30 7443 C 730.797 -5.37681 2.34768 0
M  V30 7444 C 733.149 -5.6637 2.81793 0
M  V30 7445 C 731.813 -5.88113 3.1572 0
M  V30 7446 H 731.083 -0.739947 -0.0394916 0
M  V30 7447 H 733.73 -1.81738 0.60363 0
M  V30 7448 H 732.035 -3.74495 -1.15156 0
M  V30 7449 H 733.732 -3.92821 -0.805781 0
M  V30 7450 H 730.322 -4.24485 0.592478 0
M  V30 7451 H 734.506 -4.75194 1.43192 0
M  V30 7452 H 729.762 -5.52727 2.61348 0
M  V30 7453 H 733.936 -6.04806 3.45229 0
M  V30 7454 H 731.563 -6.43404 4.04889 0
M  V30 7455 N 733.138 -0.185124 -1.56509 0
M  V30 7456 C 734.068 0.735098 -2.21627 0
M  V30 7457 C 735.049 1.2288 -1.1762 0
M  V30 7458 O 736.234 1.27945 -1.46095 0
M  V30 7459 C 733.364 1.95889 -2.86783 0
M  V30 7460 C 732.318 1.6005 -3.96948 0
M  V30 7461 C 731.644 2.90009 -4.4922 0
M  V30 7462 C 732.944 0.818008 -5.15855 0
M  V30 7463 H 734.638 0.192274 -2.98782 0
M  V30 7464 H 732.184 0.0910393 -1.43712 0
M  V30 7465 H 734.137 2.60779 -3.31017 0
M  V30 7466 H 732.861 2.52608 -2.07018 0
M  V30 7467 H 731.52 0.975237 -3.5339 0
M  V30 7468 H 731.168 3.44797 -3.6623 0
M  V30 7469 H 730.868 2.66778 -5.23549 0
M  V30 7470 H 732.392 3.55904 -4.9615 0
M  V30 7471 H 733.806 1.36979 -5.56695 0
M  V30 7472 H 732.203 0.684207 -5.96187 0
M  V30 7473 H 733.273 -0.182939 -4.84555 0
M  V30 7474 N 734.616 1.57351 0.0885366 0
M  V30 7475 C 735.844 1.90631 0.804196 0
M  V30 7476 C 736.259 0.779474 1.71958 0
M  V30 7477 O 735.616 -0.248179 1.80805 0
M  V30 7478 C 735.667 3.23568 1.61202 0
M  V30 7479 O 735.388 4.31917 0.733447 0
M  V30 7480 C 736.889 3.70753 2.43016 0
M  V30 7481 H 734.109 0.630501 0.229585 0
M  V30 7482 H 736.653 2.044 0.0638092 0
M  V30 7483 H 734.808 3.11377 2.30485 0
M  V30 7484 H 735.222 5.08297 1.29361 0
M  V30 7485 H 736.696 4.66447 2.9518 0
M  V30 7486 H 737.173 2.98922 3.2178 0
M  V30 7487 H 737.779 3.85834 1.7892 0
M  V30 7488 N 736.094 -0.359525 1.53444 0
M  V30 7489 C 737.342 -1.09935 1.69584 0
M  V30 7490 C 737.663 -1.89656 0.453371 0
M  V30 7491 O 736.933 -1.8852 -0.53263 0
M  V30 7492 H 735.513 -0.408843 0.625185 0
M  V30 7493 H 738.175 -0.40467 1.90653 0
M  V30 7494 H 737.271 -1.78575 2.55964 0
M  V30 7495 N 737.572 -1.44907 -0.619662 0
M  V30 7496 C 738.502 -1.55488 -1.742 0
M  V30 7497 C 739.483 -0.407143 -1.65156 0
M  V30 7498 O 740.668 -0.628743 -1.8374 0
M  V30 7499 C 737.798 -1.5097 -3.1277 0
M  V30 7500 C 736.752 -2.64337 -3.36615 0
M  V30 7501 C 736.078 -2.44872 -4.75333 0
M  V30 7502 C 737.378 -4.06423 -3.28051 0
M  V30 7503 H 739.072 -2.49432 -1.65602 0
M  V30 7504 H 736.618 -1.20047 -0.795281 0
M  V30 7505 H 738.571 -1.56971 -3.91073 0
M  V30 7506 H 737.295 -0.535486 -3.2218 0
M  V30 7507 H 735.954 -2.57744 -2.60698 0
M  V30 7508 H 735.602 -1.45617 -4.81461 0
M  V30 7509 H 735.302 -3.20888 -4.92244 0
M  V30 7510 H 736.826 -2.52709 -5.55851 0
M  V30 7511 H 738.24 -4.14324 -3.96243 0
M  V30 7512 H 736.637 -4.82733 -3.56495 0
M  V30 7513 H 737.707 -4.29183 -2.25676 0
M  V30 7514 N 739.05 0.861098 -1.31996 0
M  V30 7515 C 740.298 1.61162 -1.21947 0
M  V30 7516 C 740.619 1.93751 0.220351 0
M  V30 7517 O 739.889 1.59069 1.14341 0
M  V30 7518 H 738.469 0.597485 -0.448353 0
M  V30 7519 H 741.131 1.03039 -1.65436 0
M  V30 7520 H 740.227 2.55138 -1.79752 0
M  V30 7521 N 740.528 1.15101 1.07655 0
M  V30 7522 C 741.768 0.934462 1.81789 0
M  V30 7523 C 742.132 -0.529101 1.84566 0
M  V30 7524 O 743.333 -0.863868 2.5454 0
M  V30 7525 C 741.604 1.52817 3.23082 0
M  V30 7526 S 743.163 1.45429 4.14 0
M  V30 7527 H 739.981 0.336379 0.626395 0
M  V30 7528 H 742.583 1.46593 1.29347 0
M  V30 7529 H 741.287 2.58635 3.18647 0
M  V30 7530 H 740.818 0.995432 3.80598 0
M  V30 7531 H 742.833 0.445058 4.942 0
M  V30 7532 N 742.006 -1.2595 0.947325 0
M  V30 7533 C 743.417 -1.75389 0.639963 0
M  V30 7534 C 743.768 -1.77081 -0.844788 0
M  V30 7535 O 742.893 -1.3869 -1.66114 0
M  V30 7536 C 743.488 -3.18506 1.15496 0
M  V30 7537 C 742.047 -3.65534 0.897894 0
M  V30 7538 C 741.194 -2.44818 1.30228 0
M  V30 7539 H 744.145 -1.1194 1.12495 0
M  V30 7540 H 744.166 -3.77045 0.511627 0
M  V30 7541 H 743.678 -3.17243 2.23559 0
M  V30 7542 H 741.779 -3.72221 -0.168096 0
M  V30 7543 H 741.892 -4.54039 1.52922 0
M  V30 7544 H 740.256 -2.44291 0.720678 0
M  V30 7545 H 741.039 -2.46251 2.39198 0
M  V30 7546 N 743.484 -0.715051 -1.40445 0
M  V30 7547 C 744.432 -0.0509974 -2.32544 0
M  V30 7548 C 745.426 0.747602 -1.52011 0
M  V30 7549 O 746.632 0.651031 -1.67814 0
M  V30 7550 H 743.007 0.00231113 -0.751996 0
M  V30 7551 H 744.978 -0.84449 -2.86201 0
M  V30 7552 C 743.727 0.857101 -3.3697 0
M  V30 7553 H 743.05 0.252 -3.99005 0
M  V30 7554 H 744.49 1.28971 -4.03909 0
M  V30 7555 C 742.949 1.98231 -2.72408 0
M  V30 7556 O 743.479 3.07309 -2.58697 0
M  V30 7557 N 741.685 1.76577 -2.308 0
M  V30 7558 H 741.232 0.878641 -2.42152 0
M  V30 7559 H 741.19 2.52043 -1.87941 0
M  V30 7560 N 744.962 1.50701 -0.461195 0
M  V30 7561 C 746.202 2.04174 0.0960673 0
M  V30 7562 C 746.566 1.33628 1.37868 0
M  V30 7563 O 747.767 1.77602 2.0177 0
M  V30 7564 C 746.038 3.56256 0.285676 0
M  V30 7565 S 747.597 4.31392 0.802917 0
M  V30 7566 H 744.415 0.710701 0.0206282 0
M  V30 7567 H 747.017 1.85204 -0.62607 0
M  V30 7568 H 745.721 4.05159 -0.653773 0
M  V30 7569 H 745.252 3.79562 1.03421 0
M  V30 7570 H 747.267 4.50611 2.07761 0
M  V30 7571 N 746.441 0.193421 1.56409 0
M  V30 7572 C 747.69 -0.445995 1.96707 0
M  V30 7573 C 748.003 -1.62876 1.08309 0
M  V30 7574 O 749.209 -2.33586 1.38383 0
M  V30 7575 C 747.665 -0.844863 3.49843 0
M  V30 7576 C 747.273 0.31352 4.46902 0
M  V30 7577 C 749.017 -1.45146 3.98915 0
M  V30 7578 C 746.924 -0.106214 5.91305 0
M  V30 7579 H 745.854 -0.170398 0.734493 0
M  V30 7580 H 748.505 0.285172 1.81271 0
M  V30 7581 H 746.887 -1.63265 3.60778 0
M  V30 7582 H 748.061 1.09103 4.47698 0
M  V30 7583 H 746.376 0.8315 4.08014 0
M  V30 7584 H 748.973 -1.77792 5.04276 0
M  V30 7585 H 749.316 -2.35734 3.43126 0
M  V30 7586 H 749.849 -0.727675 3.91088 0
M  V30 7587 H 746.588 0.765442 6.51016 0
M  V30 7588 H 746.108 -0.848623 5.93766 0
M  V30 7589 H 747.787 -0.542588 6.44721 0
M  V30 7590 N 747.919 -1.57396 -0.0801906 0
M  V30 7591 C 748.829 -2.06451 -1.11423 0
M  V30 7592 C 749.845 -0.992352 -1.42928 0
M  V30 7593 O 751.021 -1.30651 -1.53272 0
M  V30 7594 C 748.086 -2.49164 -2.41077 0
M  V30 7595 C 747.147 -3.70641 -2.16619 0
M  V30 7596 C 746.38 -4.11307 -3.40092 0
M  V30 7597 O 746.603 -3.51922 -4.48895 0
M  V30 7598 O 745.537 -5.04157 -3.288 0
M  V30 7599 H 749.363 -2.94857 -0.727519 0
M  V30 7600 H 746.948 -1.46484 -0.293743 0
M  V30 7601 H 748.83 -2.77196 -3.17396 0
M  V30 7602 H 747.505 -1.6389 -2.79145 0
M  V30 7603 H 746.412 -3.47703 -1.38033 0
M  V30 7604 H 747.745 -4.5674 -1.83437 0
M  V30 7605 N 749.397 0.351382 -1.53633 0
M  V30 7606 C 750.627 1.11113 -1.74176 0
M  V30 7607 C 751.035 1.83084 -0.477154 0
M  V30 7608 O 750.378 1.74941 0.560483 0
M  V30 7609 C 750.44 2.17521 -2.86225 0
M  V30 7610 C 750.104 1.65193 -4.26099 0
M  V30 7611 C 751.101 1.10842 -5.07947 0
M  V30 7612 C 748.786 1.70277 -4.72558 0
M  V30 7613 C 750.78 0.622689 -6.34351 0
M  V30 7614 C 748.467 1.21316 -5.98937 0
M  V30 7615 C 749.465 0.674033 -6.79666 0
M  V30 7616 O 749.153 0.191696 -8.03671 0
M  V30 7617 H 748.885 0.33756 -0.585687 0
M  V30 7618 H 751.439 0.411786 -2.0123 0
M  V30 7619 H 749.669 2.90991 -2.54678 0
M  V30 7620 H 751.358 2.78999 -2.94812 0
M  V30 7621 H 752.124 1.06243 -4.7322 0
M  V30 7622 H 748.003 2.11181 -4.09785 0
M  V30 7623 H 751.547 0.201216 -6.9731 0
M  V30 7624 H 747.444 1.25613 -6.3316 0
M  V30 7625 H 748.212 0.309712 -8.17914 0
M  V30 7626 N 750.875 1.45233 0.611969 0
M  V30 7627 C 752.122 1.49021 1.37109 0
M  V30 7628 C 752.45 0.130227 1.94064 0
M  V30 7629 O 751.705 -0.870551 1.75271 0
M  V30 7630 C 752.004 2.51353 2.54079 0
M  V30 7631 C 751.67 3.96178 2.15299 0
M  V30 7632 C 750.332 4.35614 2.04436 0
M  V30 7633 C 752.684 4.87275 1.84966 0
M  V30 7634 C 750.012 5.64047 1.61456 0
M  V30 7635 C 752.364 6.16115 1.43474 0
M  V30 7636 C 751.028 6.54486 1.31167 0
M  V30 7637 H 750.298 0.545307 0.501719 0
M  V30 7638 H 752.945 1.78555 0.692122 0
M  V30 7639 H 751.25 2.15372 3.27295 0
M  V30 7640 H 752.947 2.51523 3.12309 0
M  V30 7641 H 749.537 3.6499 2.24678 0
M  V30 7642 H 753.721 4.57548 1.92258 0
M  V30 7643 H 748.977 5.92575 1.50547 0
M  V30 7644 H 753.151 6.86149 1.19048 0
M  V30 7645 H 750.778 7.53904 0.97637 0
M  V30 7646 N 752.353 -0.854086 1.3245 0
M  V30 7647 C 753.581 -1.64074 1.26045 0
M  V30 7648 C 753.996 -1.8802 -0.171456 0
M  V30 7649 O 753.353 -1.4496 -1.10873 0
M  V30 7650 C 753.404 -2.9997 2.01743 0
M  V30 7651 O 753.125 -2.77084 3.39346 0
M  V30 7652 C 754.626 -3.94414 2.02368 0
M  V30 7653 H 751.846 -0.511015 0.434862 0
M  V30 7654 H 754.39 -1.06494 1.74583 0
M  V30 7655 H 752.545 -3.54193 1.56926 0
M  V30 7656 H 752.959 -3.63514 3.78098 0
M  V30 7657 H 754.433 -4.87032 2.59815 0
M  V30 7658 H 754.91 -4.27427 1.01009 0
M  V30 7659 H 755.516 -3.46127 2.47135 0
M  V30 7660 N 753.831 -1.1567 -1.07043 0
M  V30 7661 C 755.056 -0.957946 -1.83952 0
M  V30 7662 C 755.481 0.488807 -1.81638 0
M  V30 7663 O 754.839 1.34869 -1.21162 0
M  V30 7664 C 754.887 -1.48064 -3.288 0
M  V30 7665 O 753.991 -0.681921 -4.06723 0
M  V30 7666 H 753.332 -0.341453 -0.569479 0
M  V30 7667 H 755.862 -1.53728 -1.35015 0
M  V30 7668 H 755.872 -1.49484 -3.7963 0
M  V30 7669 H 754.547 -2.53388 -3.29799 0
M  V30 7670 H 753.124 -0.737612 -3.65532 0
M  V30 7671 N 755.309 1.25446 -0.953992 0
M  V30 7672 C 756.241 2.25111 -0.431004 0
M  V30 7673 C 757.254 1.56377 0.452764 0
M  V30 7674 O 758.443 1.76579 0.261144 0
M  V30 7675 C 755.543 3.3655 0.39839 0
M  V30 7676 C 754.716 4.34843 -0.472229 0
M  V30 7677 C 753.775 5.25351 0.29886 0
M  V30 7678 O 752.801 5.68396 -0.302522 0
M  V30 7679 N 754.003 5.5824 1.59211 0
M  V30 7680 H 756.768 2.70619 -1.28785 0
M  V30 7681 H 754.329 1.39346 -0.824281 0
M  V30 7682 H 756.321 3.94059 0.921941 0
M  V30 7683 H 754.891 2.90436 1.15609 0
M  V30 7684 H 754.111 3.76222 -1.17689 0
M  V30 7685 H 755.399 4.97497 -1.06648 0
M  V30 7686 H 754.797 5.25172 2.10264 0
M  V30 7687 H 753.354 6.18336 2.06164 0
M  V30 7688 N 756.787 0.722489 1.40064 0
M  V30 7689 C 758.035 0.264455 2.00362 0
M  V30 7690 C 758.356 -1.14847 1.57592 0
M  V30 7691 O 757.626 -1.77982 0.818477 0
M  V30 7692 H 756.206 0.0947846 0.740962 0
M  V30 7693 H 758.868 0.929659 1.71299 0
M  V30 7694 H 757.964 0.302977 3.10626 0
M  V30 7695 N 758.265 -1.50454 0.469181 0
M  V30 7696 C 759.195 -2.31353 -0.31592 0
M  V30 7697 C 760.176 -1.38172 -0.992094 0
M  V30 7698 O 761.361 -1.67093 -0.989633 0
M  V30 7699 C 758.491 -3.1786 -1.39937 0
M  V30 7700 C 757.445 -4.19578 -0.844909 0
M  V30 7701 C 756.771 -4.9481 -2.0265 0
M  V30 7702 C 758.071 -5.22106 0.142499 0
M  V30 7703 H 759.765 -2.97237 0.359269 0
M  V30 7704 H 757.311 -1.42942 0.174224 0
M  V30 7705 H 759.264 -3.7325 -1.95607 0
M  V30 7706 H 757.988 -2.49858 -2.1033 0
M  V30 7707 H 756.647 -3.65285 -0.310189 0
M  V30 7708 H 756.295 -4.23282 -2.71737 0
M  V30 7709 H 755.995 -5.63613 -1.66174 0
M  V30 7710 H 757.519 -5.53035 -2.58815 0
M  V30 7711 H 758.933 -5.72378 -0.324966 0
M  V30 7712 H 757.33 -5.98618 0.421441 0
M  V30 7713 H 758.4 -4.7297 1.06901 0
M  V30 7714 N 759.743 -0.201713 -1.56304 0
M  V30 7715 C 760.675 0.748466 -2.16635 0
M  V30 7716 C 761.688 1.172 -1.12996 0
M  V30 7717 O 762.877 1.10658 -1.40061 0
M  V30 7718 C 759.977 2.02296 -2.719 0
M  V30 7719 C 759.15 1.75818 -4.00508 0
M  V30 7720 C 758.209 2.87779 -4.40533 0
M  V30 7721 O 757.235 2.57101 -5.07826 0
M  V30 7722 N 758.437 4.16287 -4.04581 0
M  V30 7723 H 761.202 0.232505 -2.98797 0
M  V30 7724 H 758.763 -0.0199822 -1.61888 0
M  V30 7725 H 760.755 2.7635 -2.95657 0
M  V30 7726 H 759.325 2.44996 -1.94154 0
M  V30 7727 H 758.545 0.855095 -3.84814 0
M  V30 7728 H 759.833 1.55532 -4.84445 0
M  V30 7729 H 759.231 4.44061 -3.50466 0
M  V30 7730 H 757.788 4.86946 -4.33274 0
M  V30 7731 N 761.222 1.57436 0.0718424 0
M  V30 7732 C 762.447 1.91858 0.787745 0
M  V30 7733 C 762.872 0.798119 1.70328 0
M  V30 7734 O 762.23 -0.24905 1.79581 0
M  V30 7735 C 762.278 3.25232 1.55744 0
M  V30 7736 O 761.382 3.14462 2.6681 0
M  V30 7737 H 760.723 0.628258 0.214914 0
M  V30 7738 H 763.253 2.04561 0.0401012 0
M  V30 7739 H 763.263 3.59105 1.9367 0
M  V30 7740 H 761.938 4.0636 0.885691 0
M  V30 7741 H 760.515 2.92148 2.31741 0
M  V30 7742 N 762.7 -0.34323 1.53817 0
M  V30 7743 C 763.949 -1.08086 1.70295 0
M  V30 7744 C 764.262 -1.89794 0.47302 0
M  V30 7745 O 765.468 -2.66498 0.518754 0
M  V30 7746 C 763.924 -1.97097 3.01133 0
M  V30 7747 C 763.532 -1.20594 4.31464 0
M  V30 7748 C 765.276 -2.70715 3.26976 0
M  V30 7749 C 763.183 -2.08636 5.53376 0
M  V30 7750 H 762.113 -0.407228 0.634572 0
M  V30 7751 H 764.764 -0.340328 1.80316 0
M  V30 7752 H 763.146 -2.74971 2.84969 0
M  V30 7753 H 764.32 -0.476282 4.58332 0
M  V30 7754 H 762.635 -0.587426 4.12236 0
M  V30 7755 H 765.232 -3.36857 4.15248 0
M  V30 7756 H 765.575 -3.37299 2.43998 0
M  V30 7757 H 766.108 -1.99914 3.43917 0
M  V30 7758 H 762.847 -1.46594 6.38898 0
M  V30 7759 H 762.367 -2.7939 5.30755 0
M  V30 7760 H 764.046 -2.67682 5.89029 0
M  V30 7761 N 764.178 -1.45556 -0.604258 0
M  V30 7762 C 765.408 -1.53056 -1.38771 0
M  V30 7763 C 765.816 -0.163092 -1.88496 0
M  V30 7764 O 765.159 0.846157 -1.63052 0
M  V30 7765 C 765.221 -2.45656 -2.62476 0
M  V30 7766 C 764.885 -3.92328 -2.34367 0
M  V30 7767 C 765.882 -4.82137 -1.94525 0
M  V30 7768 C 763.567 -4.37275 -2.47177 0
M  V30 7769 C 765.561 -6.14901 -1.67856 0
M  V30 7770 C 763.248 -5.70079 -2.20122 0
M  V30 7771 C 764.246 -6.58711 -1.80524 0
M  V30 7772 O 763.934 -7.89053 -1.53788 0
M  V30 7773 H 763.666 -0.520721 -0.431075 0
M  V30 7774 H 766.22 -1.91464 -0.743693 0
M  V30 7775 H 764.45 -2.02225 -3.29609 0
M  V30 7776 H 766.139 -2.43802 -3.24523 0
M  V30 7777 H 766.905 -4.48675 -1.84162 0
M  V30 7778 H 762.784 -3.68527 -2.76964 0
M  V30 7779 H 766.328 -6.8404 -1.36874 0
M  V30 7780 H 762.225 -6.03095 -2.30102 0
M  V30 7781 H 762.993 -8.01113 -1.67812 0
M  V30 7782 N 765.656 0.84705 -1.32902 0
M  V30 7783 C 766.606 1.94451 -1.19049 0
M  V30 7784 C 767.59 1.60617 -0.095461 0
M  V30 7785 O 768.782 1.74033 -0.322739 0
M  V30 7786 C 765.911 3.30645 -0.923509 0
M  V30 7787 C 764.997 3.70675 -2.0606 0
M  V30 7788 N 765.388 3.82468 -3.30986 0
M  V30 7789 C 763.686 4.00357 -1.96547 0
M  V30 7790 C 764.387 4.17056 -4.05511 0
M  V30 7791 N 763.363 4.28985 -3.33876 0
M  V30 7792 H 767.165 2.01713 -2.1375 0
M  V30 7793 H 764.679 1.03928 -1.24791 0
M  V30 7794 H 766.676 4.0905 -0.805212 0
M  V30 7795 H 765.336 3.24697 0.0150523 0
M  V30 7796 H 766.347 3.66589 -3.65832 0
M  V30 7797 H 763.024 4.02666 -1.10299 0
M  V30 7798 H 764.414 4.33585 -5.13277 0
M  V30 7799 N 767.134 1.16236 1.06428 0
M  V30 7800 C 768.064 0.890807 2.1584 0
M  V30 7801 C 769.045 -0.162333 1.69324 0
M  V30 7802 O 770.23 -0.0147191 1.94194 0
M  V30 7803 C 767.36 0.389615 3.45108 0
M  V30 7804 C 766.314 1.38051 4.05125 0
M  V30 7805 C 765.64 0.737773 5.29586 0
M  V30 7806 C 766.94 2.74965 4.44062 0
M  V30 7807 H 768.634 1.80577 2.38814 0
M  V30 7808 H 766.18 0.869657 1.14774 0
M  V30 7809 H 768.133 0.187127 4.20984 0
M  V30 7810 H 766.857 -0.560851 3.21748 0
M  V30 7811 H 765.516 1.56952 3.31303 0
M  V30 7812 H 765.164 -0.219135 5.02522 0
M  V30 7813 H 764.864 1.39914 5.70699 0
M  V30 7814 H 766.388 0.545275 6.0816 0
M  V30 7815 H 767.802 2.59855 5.11027 0
M  V30 7816 H 766.199 3.37563 4.96156 0
M  V30 7817 H 767.269 3.30321 3.54987 0
M  V30 7818 N 768.612 -1.24939 0.960631 0
M  V30 7819 C 769.544 -2.24879 0.442937 0
M  V30 7820 C 770.557 -1.56615 -0.444464 0
M  V30 7821 O 771.746 -1.76715 -0.251776 0
M  V30 7822 C 768.846 -3.36757 -0.380537 0
M  V30 7823 C 768.019 -4.34587 0.495283 0
M  V30 7824 C 767.078 -5.25502 -0.270995 0
M  V30 7825 O 766.104 -5.68227 0.332661 0
M  V30 7826 N 767.306 -5.59077 -1.56249 0
M  V30 7827 H 770.071 -2.69932 1.30218 0
M  V30 7828 H 767.632 -1.38907 0.83166 0
M  V30 7829 H 769.624 -3.94542 -0.90103 0
M  V30 7830 H 768.194 -2.91045 -1.14067 0
M  V30 7831 H 767.414 -3.75593 1.19682 0
M  V30 7832 H 768.702 -4.96925 1.09285 0
M  V30 7833 H 768.1 -5.2628 -2.07476 0
M  V30 7834 H 766.657 -6.19421 -2.02882 0
M  V30 7835 N 770.09 -0.729906 -1.39679 0
M  V30 7836 C 771.038 -0.0756589 -2.32477 0
M  V30 7837 C 772.032 0.731438 -1.52795 0
M  V30 7838 O 773.238 0.633195 -1.68495 0
M  V30 7839 H 769.613 -0.00566492 -0.751979 0
M  V30 7840 H 771.584 -0.874797 -2.85289 0
M  V30 7841 C 770.333 0.821313 -3.37861 0
M  V30 7842 H 769.656 0.209666 -3.9925 0
M  V30 7843 H 771.096 1.24679 -4.05254 0
M  V30 7844 C 769.555 1.9533 -2.74495 0
M  V30 7845 O 770.085 3.04548 -2.61942 0
M  V30 7846 N 768.291 1.74119 -2.3266 0
M  V30 7847 H 767.838 0.852908 -2.4307 0
M  V30 7848 H 767.796 2.50036 -1.90603 0
M  V30 7849 N 771.568 1.50203 -0.477153 0
M  V30 7850 C 772.498 2.31517 0.303646 0
M  V30 7851 C 773.479 1.38696 0.984753 0
M  V30 7852 O 774.664 1.67615 0.980758 0
M  V30 7853 C 771.794 3.18598 1.38249 0
M  V30 7854 C 770.748 4.2002 0.822645 0
M  V30 7855 C 770.074 4.95878 2.00024 0
M  V30 7856 C 771.374 5.22023 -0.170185 0
M  V30 7857 H 773.068 2.97042 -0.375027 0
M  V30 7858 H 770.614 1.42848 -0.181802 0
M  V30 7859 H 772.567 3.74282 1.93625 0
M  V30 7860 H 771.291 2.5097 2.09002 0
M  V30 7861 H 769.95 3.65445 0.290813 0
M  V30 7862 H 769.598 4.24717 2.69489 0
M  V30 7863 H 769.298 5.64487 1.63183 0
M  V30 7864 H 770.822 5.54399 2.55878 0
M  V30 7865 H 772.236 5.72543 0.294606 0
M  V30 7866 H 770.633 5.98386 -0.453181 0
M  V30 7867 H 771.703 4.72396 -1.09408 0
M  V30 7868 N 773.046 0.209999 1.56195 0
M  V30 7869 C 774.274 -0.429996 2.02382 0
M  V30 7870 C 774.689 -1.54159 1.08998 0
M  V30 7871 O 774.046 -1.82239 0.0974856 0
M  V30 7872 C 774.097 -0.972433 3.48175 0
M  V30 7873 O 773.818 0.0948231 4.37997 0
M  V30 7874 C 775.319 -1.68683 4.09952 0
M  V30 7875 H 772.539 -0.106475 0.662498 0
M  V30 7876 H 775.083 0.323072 2.01932 0
M  V30 7877 H 773.238 -1.67582 3.49278 0
M  V30 7878 H 773.652 -0.31113 5.23576 0
M  V30 7879 H 775.126 -2.01851 5.13771 0
M  V30 7880 H 775.603 -2.59587 3.54276 0
M  V30 7881 H 776.209 -1.02893 4.12666 0
M  V30 7882 N 774.524 -1.57472 -0.0634922 0
M  V30 7883 C 775.773 -1.86837 -0.759928 0
M  V30 7884 C 776.086 -0.803823 -1.7832 0
M  V30 7885 O 777.292 -0.985578 -2.52979 0
M  V30 7886 C 775.748 -3.31448 -1.4025 0
M  V30 7887 C 775.356 -4.46052 -0.417368 0
M  V30 7888 C 777.1 -3.70003 -2.08082 0
M  V30 7889 C 775.007 -5.81707 -1.06633 0
M  V30 7890 H 773.937 -0.697009 -0.287567 0
M  V30 7891 H 776.588 -1.83495 -0.0133914 0
M  V30 7892 H 774.97 -3.29427 -2.19759 0
M  V30 7893 H 776.144 -4.5948 0.348503 0
M  V30 7894 H 774.459 -4.16104 0.156955 0
M  V30 7895 H 777.056 -4.68653 -2.57426 0
M  V30 7896 H 777.399 -3.00226 -2.88393 0
M  V30 7897 H 777.932 -3.7405 -1.35394 0
M  V30 7898 H 774.671 -6.54798 -0.303374 0
M  V30 7899 H 774.191 -5.72064 -1.80286 0
M  V30 7900 H 775.87 -6.27317 -1.58376 0
M  V30 7901 N 776.003 0.335068 -1.53997 0
M  V30 7902 C 776.913 1.43511 -1.85585 0
M  V30 7903 C 777.929 1.57162 -0.746726 0
M  V30 7904 O 779.105 1.72477 -1.03988 0
M  V30 7905 C 776.17 2.78386 -2.06646 0
M  V30 7906 C 775.231 2.74007 -3.30483 0
M  V30 7907 C 774.464 4.02449 -3.50529 0
M  V30 7908 O 774.687 5.00147 -2.74242 0
M  V30 7909 O 773.621 4.06405 -4.4398 0
M  V30 7910 H 777.447 1.19731 -2.79102 0
M  V30 7911 H 775.032 0.528033 -1.39758 0
M  V30 7912 H 776.914 3.58247 -2.21894 0
M  V30 7913 H 775.589 3.0208 -1.16317 0
M  V30 7914 H 774.496 1.92736 -3.2063 0
M  V30 7915 H 775.829 2.55267 -4.20832 0
M  V30 7916 N 777.481 1.45874 0.596531 0
M  V30 7917 C 778.758 1.40942 1.35627 0
M  V30 7918 C 779.138 0.0857066 2.10926 0
M  V30 7919 O 778.486 -0.932544 2.08605 0
M  V30 7920 C 778.696 2.63027 2.29386 0
M  V30 7921 C 780.044 3.08588 2.91649 0
M  V30 7922 O 781.068 2.63478 2.39704 0
M  V30 7923 O 779.927 3.86902 3.85965 0
M  V30 7924 H 777.021 0.559838 0.608696 0
M  V30 7925 H 779.567 1.5802 0.618698 0
M  V30 7926 H 778.339 3.5094 1.7308 0
M  V30 7927 H 777.962 2.48338 3.10506 0
M  V30 7928 N 778.959 -0.83999 1.33349 0
M  V30 7929 C 779.889 -1.965 1.26135 0
M  V30 7930 C 780.87 -1.69505 0.142152 0
M  V30 7931 O 782.055 -1.91346 0.331743 0
M  V30 7932 C 779.185 -3.32632 0.99866 0
M  V30 7933 C 778.139 -3.74021 2.08068 0
M  V30 7934 C 777.465 -5.07947 1.67014 0
M  V30 7935 C 778.765 -3.87925 3.49731 0
M  V30 7936 H 780.459 -2.02793 2.20262 0
M  V30 7937 H 778.005 -0.974297 1.06035 0
M  V30 7938 H 779.958 -4.10903 0.934696 0
M  V30 7939 H 778.682 -3.26593 0.0217759 0
M  V30 7940 H 777.341 -2.98012 2.13505 0
M  V30 7941 H 776.989 -4.98378 0.680316 0
M  V30 7942 H 776.689 -5.36611 2.39422 0
M  V30 7943 H 778.213 -5.88695 1.62082 0
M  V30 7944 H 779.627 -4.5651 3.46802 0
M  V30 7945 H 778.024 -4.28023 4.20614 0
M  V30 7946 H 779.094 -2.90407 3.88319 0
M  V30 7947 N 780.437 -1.16799 -1.0581 0
M  V30 7948 C 781.685 -0.950642 -1.78346 0
M  V30 7949 C 782.006 0.522524 -1.87869 0
M  V30 7950 O 781.276 1.3795 -1.39092 0
M  V30 7951 H 779.856 -0.348736 -0.6606 0
M  V30 7952 H 782.518 -1.47158 -1.27791 0
M  V30 7953 H 781.614 -1.37359 -2.80248 0
M  V30 7954 N 781.915 1.24427 -0.967243 0
M  V30 7955 C 782.878 2.23637 -0.501927 0
M  V30 7956 C 783.878 1.55712 0.401283 0
M  V30 7957 O 785.068 1.73085 0.196808 0
M  V30 7958 C 782.2 3.39804 0.273176 0
M  V30 7959 H 783.393 2.66317 -1.37897 0
M  V30 7960 H 780.946 1.37033 -0.751783 0
M  V30 7961 H 781.681 3.02562 1.16733 0
M  V30 7962 H 781.466 3.90303 -0.37498 0
M  V30 7963 H 782.956 4.13443 0.587776 0
M  V30 7964 N 783.393 0.737304 1.3929 0
M  V30 7965 C 784.323 0.113988 2.33222 0
M  V30 7966 C 785.304 -0.721695 1.54031 0
M  V30 7967 O 786.489 -0.666206 1.82415 0
M  V30 7968 C 783.619 -0.792319 3.38141 0
M  V30 7969 C 782.573 -0.0606178 4.27957 0
M  V30 7970 C 781.899 -1.08409 5.23595 0
M  V30 7971 C 783.199 1.09817 5.10625 0
M  V30 7972 H 784.893 0.898611 2.85596 0
M  V30 7973 H 782.439 0.433571 1.37318 0
M  V30 7974 H 784.392 -1.23793 4.02807 0
M  V30 7975 H 783.116 -1.60908 2.84211 0
M  V30 7976 H 781.775 0.365393 3.64775 0
M  V30 7977 H 781.423 -1.89449 4.6596 0
M  V30 7978 H 781.123 -0.599269 5.84536 0
M  V30 7979 H 782.647 -1.52936 5.91137 0
M  V30 7980 H 784.061 0.730892 5.68622 0
M  V30 7981 H 782.458 1.51278 5.80719 0
M  V30 7982 H 783.528 1.91878 4.45321 0
M  V30 7983 N 784.871 -1.49948 0.485112 0
M  V30 7984 C 785.818 -2.28819 -0.301729 0
M  V30 7985 C 786.788 -1.34496 -0.974683 0
M  V30 7986 O 787.973 -1.63444 -0.984418 0
M  V30 7987 C 785.113 -3.16758 -1.36961 0
M  V30 7988 C 784.226 -4.26125 -0.710027 0
M  V30 7989 C 783.361 -5.01302 -1.75699 0
M  V30 7990 C 782.4 -6.02525 -1.07841 0
M  V30 7991 N 781.537 -6.70927 -2.06886 0
M  V30 7992 H 786.377 -2.95604 0.377127 0
M  V30 7993 H 783.914 -1.45764 0.197826 0
M  V30 7994 H 785.872 -3.66106 -2.00056 0
M  V30 7995 H 784.502 -2.51991 -2.01744 0
M  V30 7996 H 783.554 -3.80385 0.0338278 0
M  V30 7997 H 784.866 -4.98493 -0.175079 0
M  V30 7998 H 784.02 -5.54438 -2.46339 0
M  V30 7999 H 782.759 -4.28672 -2.32577 0
M  V30 8000 H 781.764 -5.48635 -0.357706 0
M  V30 8001 H 782.989 -6.77134 -0.516345 0
M  V30 8002 H 780.935 -6.01079 -2.62755 0
M  V30 8003 H 780.852 -7.39216 -1.58414 0
M  V30 8004 H 782.12 -7.28675 -2.76863 0
M  V30 8005 N 786.349 -0.21828 -1.56081 0
M  V30 8006 C 787.598 0.414644 -1.97392 0
M  V30 8007 C 787.911 1.61132 -1.10887 0
M  V30 8008 O 789.117 2.31355 -1.42082 0
M  V30 8009 C 787.573 0.789099 -3.51143 0
M  V30 8010 C 787.181 -0.384578 -4.46346 0
M  V30 8011 C 788.925 1.38781 -4.01173 0
M  V30 8012 C 786.832 0.0121288 -5.91399 0
M  V30 8013 H 785.762 0.158691 -0.737111 0
M  V30 8014 H 788.413 -0.313974 -1.80794 0
M  V30 8015 H 786.795 1.57505 -3.6333 0
M  V30 8016 H 787.969 -1.16212 -4.45905 0
M  V30 8017 H 786.284 -0.896306 -4.06639 0
M  V30 8018 H 788.881 1.69746 -5.07041 0
M  V30 8019 H 789.224 2.30245 -3.46833 0
M  V30 8020 H 789.757 0.665364 -3.92196 0
M  V30 8021 H 786.496 -0.868917 -6.49715 0
M  V30 8022 H 786.016 0.754053 -5.95041 0
M  V30 8023 H 787.695 0.439949 -6.45502 0
M  V30 8024 N 787.827 1.57504 0.0551401 0
M  V30 8025 C 789.238 1.76626 0.604979 0
M  V30 8026 C 789.589 0.845978 1.77024 0
M  V30 8027 O 788.714 0.0341936 2.16373 0
M  V30 8028 C 789.309 3.203 1.10425 0
M  V30 8029 C 787.868 3.4071 1.59981 0
M  V30 8030 C 787.015 2.72258 0.526414 0
M  V30 8031 H 789.966 1.57775 -0.171072 0
M  V30 8032 H 789.987 3.25377 1.97256 0
M  V30 8033 H 789.499 3.87255 0.255939 0
M  V30 8034 H 787.6 2.78892 2.47083 0
M  V30 8035 H 787.713 4.49227 1.66528 0
M  V30 8036 H 786.077 2.35283 0.97539 0
M  V30 8037 H 786.86 3.41879 -0.311991 0
M  V30 8038 N 789.305 -0.326896 1.54172 0
M  V30 8039 C 790.215 -1.42525 1.86343 0
M  V30 8040 C 791.231 -1.56764 0.75505 0
M  V30 8041 O 792.407 -1.71924 1.04901 0
M  V30 8042 C 789.472 -2.77286 2.08119 0
M  V30 8043 C 788.533 -2.7225 3.31931 0
M  V30 8044 C 787.766 -4.00584 3.52659 0
M  V30 8045 O 787.989 -4.98686 2.76891 0
M  V30 8046 O 786.923 -4.04045 4.46129 0
M  V30 8047 H 790.749 -1.18249 2.79734 0
M  V30 8048 H 788.334 -0.520614 1.40036 0
M  V30 8049 H 790.216 -3.57065 2.23791 0
M  V30 8050 H 788.891 -3.01459 1.17917 0
M  V30 8051 H 787.798 -1.91033 3.21647 0
M  V30 8052 H 789.131 -2.53032 4.2218 0
M  V30 8053 N 790.784 -1.46188 -0.588786 0
M  V30 8054 C 791.716 -1.52319 -1.71265 0
M  V30 8055 C 792.729 -0.412096 -1.57498 0
M  V30 8056 O 793.918 -0.680146 -1.65034 0
M  V30 8057 C 791.018 -1.38164 -3.09458 0
M  V30 8058 C 790.191 -2.63284 -3.49286 0
M  V30 8059 C 789.25 -2.43415 -4.66514 0
M  V30 8060 O 788.276 -3.17113 -4.72682 0
M  V30 8061 N 789.478 -1.49187 -5.61002 0
M  V30 8062 H 792.243 -2.49219 -1.66463 0
M  V30 8063 H 789.804 -1.42167 -0.774601 0
M  V30 8064 H 791.796 -1.22653 -3.85666 0
M  V30 8065 H 790.366 -0.494678 -3.08661 0
M  V30 8066 H 789.586 -2.93779 -2.62845 0
M  V30 8067 H 790.874 -3.46413 -3.7266 0
M  V30 8068 H 790.272 -0.884027 -5.5875 0
M  V30 8069 H 788.829 -1.39642 -6.36666 0
M  V30 8070 N 792.262 0.832906 -1.33792 0
M  V30 8071 C 793.492 1.61813 -1.28453 0
M  V30 8072 C 793.9 1.88639 0.145595 0
M  V30 8073 O 793.243 1.47122 1.10004 0
M  V30 8074 C 793.305 2.98929 -1.99704 0
M  V30 8075 C 792.969 2.95045 -3.48995 0
M  V30 8076 C 793.966 2.70337 -4.44088 0
M  V30 8077 C 791.651 3.14993 -3.91261 0
M  V30 8078 C 793.645 2.65612 -5.79421 0
M  V30 8079 C 791.332 3.09893 -5.26697 0
M  V30 8080 C 792.33 2.85235 -6.20588 0
M  V30 8081 O 792.018 2.8005 -7.53543 0
M  V30 8082 H 791.75 0.510013 -0.443693 0
M  V30 8083 H 794.304 1.04514 -1.76822 0
M  V30 8084 H 792.534 3.58106 -1.45935 0
M  V30 8085 H 794.223 3.59849 -1.87786 0
M  V30 8086 H 794.989 2.54671 -4.12756 0
M  V30 8087 H 790.868 3.33204 -3.18584 0
M  V30 8088 H 794.412 2.46285 -6.52679 0
M  V30 8089 H 790.309 3.2511 -5.5765 0
M  V30 8090 H 791.077 2.95849 -7.63162 0
M  V30 8091 N 793.74 1.17359 1.05189 0
M  V30 8092 C 795.156 0.920861 1.30355 0
M  V30 8093 C 795.356 -0.419993 1.97074 0
M  V30 8094 O 794.412 -1.15696 2.24434 0
M  V30 8095 C 795.725 2.07818 2.1733 0
M  V30 8096 C 797.273 2.1152 2.30712 0
M  V30 8097 C 797.748 3.26637 3.21048 0
M  V30 8098 N 799.239 3.26426 3.28634 0
M  V30 8099 C 799.974 4.12141 3.98657 0
M  V30 8100 N 799.47 5.07966 4.71107 0
M  V30 8101 N 801.263 4.00091 3.94821 0
M  V30 8102 H 793.414 2.03666 0.602821 0
M  V30 8103 H 795.677 0.889294 0.328421 0
M  V30 8104 H 795.383 3.04727 1.75597 0
M  V30 8105 H 795.257 2.02922 3.17966 0
M  V30 8106 H 797.644 1.15196 2.71687 0
M  V30 8107 H 797.725 2.20477 1.29706 0
M  V30 8108 H 797.369 4.23227 2.80788 0
M  V30 8109 H 797.299 3.14917 4.2206 0
M  V30 8110 H 799.79 2.57045 2.77013 0
M  V30 8111 H 800.103 5.69766 5.22099 0
M  V30 8112 H 798.448 5.11936 4.7005 0
M  V30 8113 H 801.639 3.24523 3.37346 0
M  V30 8114 H 801.812 4.6711 4.49123 0
M  V30 8115 N 795.218 -1.23913 0.973828 0
M  V30 8116 C 796.151 -2.23647 0.45355 0
M  V30 8117 C 797.129 -1.55485 -0.475724 0
M  V30 8118 O 798.313 -1.84083 -0.405689 0
M  V30 8119 C 795.44 -3.36942 -0.344594 0
M  V30 8120 C 794.486 -4.23221 0.527859 0
M  V30 8121 S 795.319 -4.97877 1.97177 0
M  V30 8122 C 796.475 -6.14627 1.18258 0
M  V30 8123 H 796.708 -2.67433 1.29873 0
M  V30 8124 H 794.241 -1.33289 0.779322 0
M  V30 8125 H 796.199 -4.02647 -0.799103 0
M  V30 8126 H 794.86 -2.91703 -1.16482 0
M  V30 8127 H 794.053 -5.03928 -0.0852555 0
M  V30 8128 H 793.655 -3.6255 0.918344 0
M  V30 8129 H 795.947 -6.76066 0.440629 0
M  V30 8130 H 796.89 -6.80311 1.96425 0
M  V30 8131 H 797.298 -5.6009 0.704256 0
M  V30 8132 N 796.696 -0.74468 -1.38897 0
M  V30 8133 C 797.924 -0.307428 -2.04603 0
M  V30 8134 C 798.339 1.06115 -1.56157 0
M  V30 8135 O 797.696 1.67233 -0.730701 0
M  V30 8136 C 797.747 -0.31101 -3.6016 0
M  V30 8137 O 797.468 -1.62557 -4.06825 0
M  V30 8138 C 798.969 0.141213 -4.43075 0
M  V30 8139 H 796.189 -0.132741 -0.657739 0
M  V30 8140 H 798.733 -1.01104 -1.77759 0
M  V30 8141 H 796.888 0.343792 -3.85872 0
M  V30 8142 H 797.302 -1.54569 -5.01207 0
M  V30 8143 H 798.776 0.0875449 -5.51931 0
M  V30 8144 H 799.253 1.18782 -4.22833 0
M  V30 8145 H 799.859 -0.484383 -4.22533 0
M  V30 8146 N 798.174 1.49689 -0.493057 0
M  V30 8147 C 799.423 2.01622 0.0560733 0
M  V30 8148 C 799.736 1.37838 1.3878 0
M  V30 8149 O 800.942 1.81054 2.02316 0
M  V30 8150 C 799.398 3.59586 0.150409 0
M  V30 8151 C 799.006 4.32338 -1.1742 0
M  V30 8152 C 800.75 4.19489 0.650327 0
M  V30 8153 C 798.657 5.8214 -1.04246 0
M  V30 8154 H 797.587 0.753594 0.0247297 0
M  V30 8155 H 800.238 1.723 -0.631279 0
M  V30 8156 H 798.62 3.8559 0.902035 0
M  V30 8157 H 799.794 4.18042 -1.9385 0
M  V30 8158 H 798.109 3.84144 -1.60694 0
M  V30 8159 H 800.706 5.29181 0.766272 0
M  V30 8160 H 801.049 3.82326 1.6472 0
M  V30 8161 H 801.582 3.97775 -0.0445371 0
M  V30 8162 H 798.321 6.23814 -2.01336 0
M  V30 8163 H 797.841 5.98952 -0.31892 0
M  V30 8164 H 799.52 6.43004 -0.717957 0
M  V30 8165 N 799.652 0.226554 1.55963 0
M  V30 8166 C 800.898 -0.397608 1.99476 0
M  V30 8167 C 801.253 -1.57031 1.11172 0
M  V30 8168 O 800.546 -1.90907 0.162757 0
M  V30 8169 C 800.74 -0.87642 3.46488 0
M  V30 8170 C 800.569 0.248344 4.49014 0
M  V30 8171 C 799.339 0.71638 5.00196 0
M  V30 8172 C 801.537 1.06835 5.03081 0
M  V30 8173 N 799.519 1.81568 5.86435 0
M  V30 8174 C 800.89 2.01641 5.86294 0
M  V30 8175 C 802.945 1.10722 4.85433 0
M  V30 8176 C 801.648 3.0002 6.53743 0
M  V30 8177 C 803.674 2.07921 5.53645 0
M  V30 8178 C 803.036 3.01466 6.3663 0
M  V30 8179 H 799.135 -0.112024 0.773935 0
M  V30 8180 H 801.719 0.339472 1.91718 0
M  V30 8181 H 799.89 -1.58285 3.54684 0
M  V30 8182 H 801.622 -1.47382 3.76909 0
M  V30 8183 H 798.377 0.30409 4.72623 0
M  V30 8184 H 798.801 2.36748 6.34255 0
M  V30 8185 H 803.443 0.397909 4.20923 0
M  V30 8186 H 801.161 3.71911 7.17432 0
M  V30 8187 H 804.747 2.11609 5.41953 0
M  V30 8188 H 803.627 3.75451 6.88481 0
M  V30 8189 N 801.13 -1.57531 -0.0467866 0
M  V30 8190 C 802.546 -1.54451 -0.402107 0
M  V30 8191 C 802.746 -0.950275 -1.77685 0
M  V30 8192 O 801.802 -0.563602 -2.4613 0
M  V30 8193 C 803.115 -2.9899 -0.320212 0
M  V30 8194 C 804.663 -3.10452 -0.398588 0
M  V30 8195 C 805.138 -4.56689 -0.346335 0
M  V30 8196 N 806.629 -4.6142 -0.405666 0
M  V30 8197 C 807.364 -5.72087 -0.387845 0
M  V30 8198 N 806.86 -6.92045 -0.32336 0
M  V30 8199 N 808.653 -5.60404 -0.436263 0
M  V30 8200 H 800.804 -1.94515 0.853087 0
M  V30 8201 H 803.067 -0.891397 0.322669 0
M  V30 8202 H 802.773 -3.46124 0.623794 0
M  V30 8203 H 802.647 -3.60164 -1.1208 0
M  V30 8204 H 805.034 -2.63276 -1.33302 0
M  V30 8205 H 805.115 -2.52142 0.431026 0
M  V30 8206 H 804.759 -5.04527 0.584356 0
M  V30 8207 H 804.689 -5.12889 -1.19382 0
M  V30 8208 H 807.18 -3.75105 -0.458737 0
M  V30 8209 H 807.493 -7.7216 -0.314375 0
M  V30 8210 H 805.838 -6.94396 -0.28967 0
M  V30 8211 H 809.029 -4.65586 -0.48451 0
M  V30 8212 H 809.202 -6.46645 -0.418907 0
M  V30 8213 N 802.608 0.318715 -1.54344 0
M  V30 8214 C 803.856 1.054 -1.72439 0
M  V30 8215 C 804.177 1.88388 -0.503495 0
M  V30 8216 O 803.447 1.89866 0.48246 0
M  V30 8217 H 802.027 0.392124 -0.635805 0
M  V30 8218 H 804.689 0.35398 -1.91659 0
M  V30 8219 H 803.785 1.71726 -2.60608 0
M  V30 8220 N 804.086 1.46499 0.581025 0
M  V30 8221 C 805.016 1.60052 1.70017 0
M  V30 8222 C 805.997 0.450788 1.64018 0
M  V30 8223 O 807.182 0.677237 1.82009 0
M  V30 8224 C 804.312 1.5921 3.08658 0
M  V30 8225 C 803.266 2.73169 3.29488 0
M  V30 8226 C 802.592 2.57389 4.68674 0
M  V30 8227 C 803.892 4.14978 3.1716 0
M  V30 8228 H 805.586 2.53735 1.5893 0
M  V30 8229 H 803.132 1.22113 0.763173 0
M  V30 8230 H 805.085 1.67285 3.86773 0
M  V30 8231 H 803.809 0.620718 3.20647 0
M  V30 8232 H 802.468 2.64566 2.53773 0
M  V30 8233 H 802.116 1.58331 4.77431 0
M  V30 8234 H 801.816 3.33826 4.83564 0
M  V30 8235 H 803.34 2.67358 5.48956 0
M  V30 8236 H 804.754 4.24684 3.85119 0
M  V30 8237 H 803.151 4.92016 3.4357 0
M  V30 8238 H 804.221 4.35016 2.14218 0
M  V30 8239 N 805.565 -0.825799 1.34232 0
M  V30 8240 C 806.497 -1.94401 1.21413 0
M  V30 8241 C 807.51 -1.6218 0.141902 0
M  V30 8242 O 808.699 -1.74109 0.3935 0
M  V30 8243 C 805.799 -3.28257 0.842635 0
M  V30 8244 C 804.972 -3.88521 2.00924 0
M  V30 8245 C 804.031 -5.00752 1.61661 0
M  V30 8246 O 803.057 -5.19201 2.33279 0
M  V30 8247 N 804.259 -5.78084 0.52911 0
M  V30 8248 H 807.024 -2.05931 2.17744 0
M  V30 8249 H 804.585 -1.00223 1.27149 0
M  V30 8250 H 806.577 -4.00781 0.561822 0
M  V30 8251 H 805.147 -3.12585 -0.0304029 0
M  V30 8252 H 804.367 -3.08425 2.45495 0
M  V30 8253 H 805.655 -4.25516 2.78951 0
M  V30 8254 H 805.053 -5.65661 -0.0663322 0
M  V30 8255 H 803.61 -6.51072 0.308017 0
M  V30 8256 N 807.043 -1.17915 -1.04565 0
M  V30 8257 C 808.32 -0.881187 -1.74627 0
M  V30 8258 C 808.7 0.617123 -2.01878 0
M  V30 8259 O 808.048 1.57032 -1.65991 0
M  V30 8260 C 808.258 -1.72299 -3.03503 0
M  V30 8261 C 809.606 -1.94688 -3.77335 0
M  V30 8262 O 810.63 -1.6931 -3.13389 0
M  V30 8263 O 809.489 -2.37379 -4.92253 0
M  V30 8264 H 806.583 -0.326864 -0.759664 0
M  V30 8265 H 809.129 -1.28642 -1.10676 0
M  V30 8266 H 807.901 -2.73891 -2.79462 0
M  V30 8267 H 807.524 -1.31593 -3.75192 0
M  V30 8268 N 808.521 1.23394 -0.980386 0
M  V30 8269 C 809.451 2.2717 -0.540024 0
M  V30 8270 C 810.432 1.64659 0.426787 0
M  V30 8271 O 811.617 1.91543 0.320153 0
M  V30 8272 C 808.747 3.46939 0.15836 0
M  V30 8273 C 807.701 4.21802 -0.725732 0
M  V30 8274 C 807.027 5.34597 0.104866 0
M  V30 8275 C 808.327 4.81802 -2.01654 0
M  V30 8276 H 810.021 2.64257 -1.40743 0
M  V30 8277 H 807.567 1.2703 -0.678193 0
M  V30 8278 H 809.52 4.18683 0.477737 0
M  V30 8279 H 808.244 3.08912 1.06022 0
M  V30 8280 H 806.903 3.51875 -1.02857 0
M  V30 8281 H 806.551 4.92812 1.00726 0
M  V30 8282 H 806.251 5.85607 -0.483557 0
M  V30 8283 H 807.775 6.09163 0.418624 0
M  V30 8284 H 809.189 5.45554 -1.76193 0
M  V30 8285 H 807.586 5.43098 -2.55273 0
M  V30 8286 H 808.656 4.02549 -2.70338 0
M  V30 8287 N 809.999 0.752036 1.385 0
M  V30 8288 C 810.946 0.123288 2.3047 0
M  V30 8289 C 811.916 -0.711326 1.50098 0
M  V30 8290 O 813.101 -0.667775 1.78733 0
M  V30 8291 C 810.241 -0.765085 3.36512 0
M  V30 8292 C 809.354 0.0839885 4.31918 0
M  V30 8293 C 808.489 -0.807243 5.25031 0
M  V30 8294 C 807.528 0.0455583 6.12083 0
M  V30 8295 N 806.665 -0.802547 6.97498 0
M  V30 8296 H 811.505 0.913169 2.83664 0
M  V30 8297 H 809.042 0.46195 1.39658 0
M  V30 8298 H 811 -1.29476 3.966 0
M  V30 8299 H 809.63 -1.52077 2.84732 0
M  V30 8300 H 808.682 0.731276 3.73305 0
M  V30 8301 H 809.994 0.74265 4.9324 0
M  V30 8302 H 809.148 -1.40414 5.90228 0
M  V30 8303 H 807.887 -1.49964 4.64071 0
M  V30 8304 H 806.892 0.655137 5.45883 0
M  V30 8305 H 808.117 0.734994 6.75111 0
M  V30 8306 H 806.063 -1.47992 6.39089 0
M  V30 8307 H 805.98 -0.200747 7.55733 0
M  V30 8308 H 807.248 -1.38447 7.67107 0
M  V30 8309 N 811.477 -1.49425 0.500989 0
M  V30 8310 C 812.409 -2.27037 -0.314159 0
M  V30 8311 C 813.422 -1.33578 -0.930626 0
M  V30 8312 O 814.611 -1.58861 -0.813968 0
M  V30 8313 C 811.711 -3.05968 -1.45729 0
M  V30 8314 C 810.884 -4.27 -0.948135 0
M  V30 8315 C 809.943 -4.87977 -1.96888 0
M  V30 8316 O 808.969 -5.48044 -1.53743 0
M  V30 8317 N 810.171 -4.77627 -3.29928 0
M  V30 8318 H 812.936 -2.97634 0.351336 0
M  V30 8319 H 810.497 -1.58427 0.333536 0
M  V30 8320 H 812.489 -3.43634 -2.1377 0
M  V30 8321 H 811.059 -2.37978 -2.02695 0
M  V30 8322 H 810.279 -3.94091 -0.0926311 0
M  V30 8323 H 811.567 -5.0541 -0.586362 0
M  V30 8324 H 810.965 -4.29926 -3.67669 0
M  V30 8325 H 809.522 -5.19478 -3.93682 0
M  V30 8326 N 812.955 -0.234822 -1.55841 0
M  V30 8327 C 814.203 0.392483 -1.98252 0
M  V30 8328 C 814.524 1.59344 -1.12404 0
M  V30 8329 O 813.794 1.94834 -0.204055 0
M  V30 8330 H 812.374 0.147999 -0.732192 0
M  V30 8331 H 815.036 -0.330804 -1.92072 0
M  V30 8332 H 814.132 0.709829 -3.03921 0
M  V30 8333 N 814.433 1.57553 0.0384317 0
M  V30 8334 C 815.383 2.02404 1.0496 0
M  V30 8335 C 816.367 0.911705 1.32577 0
M  V30 8336 O 817.559 1.17561 1.32319 0
M  V30 8337 C 814.688 2.49924 2.35357 0
M  V30 8338 C 813.774 3.6796 2.1087 0
M  V30 8339 N 814.165 4.81009 1.56411 0
M  V30 8340 C 812.463 3.75153 2.41197 0
M  V30 8341 C 813.164 5.62686 1.47512 0
M  V30 8342 N 812.14 5.0752 1.94742 0
M  V30 8343 H 815.942 2.87234 0.622399 0
M  V30 8344 H 813.456 1.60543 0.244916 0
M  V30 8345 H 815.453 2.80312 3.08595 0
M  V30 8346 H 814.113 1.66496 2.78763 0
M  V30 8347 H 815.124 5.02636 1.2481 0
M  V30 8348 H 811.801 3.02507 2.87742 0
M  V30 8349 H 813.191 6.6349 1.05976 0
M  V30 8350 N 815.911 -0.310526 1.54511 0
M  V30 8351 C 817.188 -1.06593 1.64004 0
M  V30 8352 C 817.568 -2.05519 0.482216 0
M  V30 8353 O 816.916 -2.22455 -0.52212 0
M  V30 8354 C 817.126 -1.75627 3.01589 0
M  V30 8355 C 818.474 -2.28173 3.58081 0
M  V30 8356 O 819.498 -1.85674 3.03979 0
M  V30 8357 O 818.357 -3.06015 4.52788 0
M  V30 8358 H 815.451 -0.492109 0.664649 0
M  V30 8359 H 817.997 -0.309374 1.66856 0
M  V30 8360 H 816.769 -1.03743 3.77297 0
M  V30 8361 H 816.392 -2.58061 3.02473 0
M  V30 8362 N 817.389 -1.46805 -0.573248 0
M  V30 8363 C 818.619 -1.55965 -1.35494 0
M  V30 8364 C 819.027 -0.203038 -1.88107 0
M  V30 8365 O 818.37 0.81138 -1.6481 0
M  V30 8366 C 818.432 -2.51168 -2.57206 0
M  V30 8367 C 818.096 -3.97211 -2.25993 0
M  V30 8368 C 819.093 -4.86155 -1.84254 0
M  V30 8369 C 816.778 -4.42419 -2.37846 0
M  V30 8370 C 818.772 -6.18323 -1.54776 0
M  V30 8371 C 816.459 -5.74619 -2.0798 0
M  V30 8372 C 817.457 -6.62392 -1.66511 0
M  V30 8373 O 817.145 -7.92137 -1.37016 0
M  V30 8374 H 816.877 -0.529748 -0.419932 0
M  V30 8375 H 819.431 -1.92998 -0.702914 0
M  V30 8376 H 817.661 -2.09171 -3.25245 0
M  V30 8377 H 819.35 -2.50631 -3.19279 0
M  V30 8378 H 820.116 -4.52481 -1.74603 0
M  V30 8379 H 815.995 -3.74319 -2.69085 0
M  V30 8380 H 819.539 -6.8679 -1.22334 0
M  V30 8381 H 815.436 -6.0784 -2.17258 0
M  V30 8382 H 816.204 -8.04492 -1.50782 0
M  V30 8383 N 818.867 0.818669 -1.34668 0
M  V30 8384 C 820.092 1.61193 -1.30505 0
M  V30 8385 C 820.517 1.87734 0.117341 0
M  V30 8386 O 819.875 1.45591 1.08042 0
M  V30 8387 C 819.923 2.92733 -2.1057 0
M  V30 8388 O 819.027 3.85 -1.47813 0
M  V30 8389 H 818.368 0.490085 -0.44801 0
M  V30 8390 H 820.898 1.01701 -1.77534 0
M  V30 8391 H 820.908 3.42262 -2.22082 0
M  V30 8392 H 819.583 2.7274 -3.13984 0
M  V30 8393 H 818.16 3.43525 -1.45069 0
M  V30 8394 N 820.346 1.18468 1.03938 0
M  V30 8395 C 821.574 1.00576 1.80809 0
M  V30 8396 C 821.989 -0.445786 1.83462 0
M  V30 8397 O 821.346 -1.30964 1.27101 0
M  V30 8398 C 821.397 1.55491 3.26351 0
M  V30 8399 O 821.118 2.94963 3.23926 0
M  V30 8400 C 822.619 1.42236 4.19862 0
M  V30 8401 H 819.839 0.35508 0.56935 0
M  V30 8402 H 822.383 1.57046 1.30984 0
M  V30 8403 H 820.538 1.03195 3.73403 0
M  V30 8404 H 820.952 3.20598 4.15111 0
M  V30 8405 H 822.426 1.85455 5.19914 0
M  V30 8406 H 822.903 0.371267 4.37628 0
M  V30 8407 H 823.509 1.9361 3.78675 0
M  V30 8408 N 821.824 -1.22873 0.986916 0
M  V30 8409 C 822.787 -2.2281 0.537442 0
M  V30 8410 C 823.787 -1.56331 -0.37646 0
M  V30 8411 O 824.977 -1.73376 -0.169247 0
M  V30 8412 C 822.109 -3.40195 -0.219082 0
M  V30 8413 H 823.302 -2.64089 1.42116 0
M  V30 8414 H 820.855 -1.35819 0.773488 0
M  V30 8415 H 821.59 -3.04381 -1.11905 0
M  V30 8416 H 821.375 -3.89657 0.437026 0
M  V30 8417 H 822.865 -4.14326 -0.521926 0
M  V30 8418 N 823.302 -0.75937 -1.38099 0
M  V30 8419 C 824.234 -0.0956547 -2.29 0
M  V30 8420 C 825.247 0.677561 -1.4803 0
M  V30 8421 O 826.436 0.517696 -1.70828 0
M  V30 8422 C 823.536 0.88844 -3.27047 0
M  V30 8423 C 822.709 0.171652 -4.37063 0
M  V30 8424 C 821.768 1.06733 -5.15262 0
M  V30 8425 O 820.794 0.535698 -5.66674 0
M  V30 8426 N 821.996 2.39486 -5.28797 0
M  V30 8427 H 824.761 -0.876354 -2.86601 0
M  V30 8428 H 822.322 -0.61065 -1.49942 0
M  V30 8429 H 824.314 1.49079 -3.76241 0
M  V30 8430 H 822.884 1.57018 -2.70304 0
M  V30 8431 H 822.104 -0.611473 -3.89429 0
M  V30 8432 H 823.392 -0.324121 -5.07767 0
M  V30 8433 H 822.79 2.85127 -4.88589 0
M  V30 8434 H 821.347 2.94758 -5.81344 0
M  V30 8435 N 824.78 1.49157 -0.508906 0
M  V30 8436 C 825.712 2.272 0.302115 0
M  V30 8437 C 826.725 1.3407 0.923529 0
M  V30 8438 O 827.914 1.5929 0.805532 0
M  V30 8439 C 825.014 3.06736 1.44105 0
M  V30 8440 C 824.187 4.27497 0.925477 0
M  V30 8441 C 823.246 4.89014 1.94297 0
M  V30 8442 O 822.272 5.48851 1.50834 0
M  V30 8443 N 823.474 4.7937 3.2739 0
M  V30 8444 H 826.239 2.97443 -0.367115 0
M  V30 8445 H 823.8 1.58248 -0.341933 0
M  V30 8446 H 825.792 3.44763 2.11944 0
M  V30 8447 H 824.362 2.3905 2.0143 0
M  V30 8448 H 823.582 3.94135 0.0717301 0
M  V30 8449 H 824.87 5.05714 0.55955 0
M  V30 8450 H 824.268 4.31869 3.65384 0
M  V30 8451 H 822.825 5.21559 3.90922 0
M  V30 8452 N 826.258 0.243083 1.55714 0
M  V30 8453 C 827.188 -0.652336 2.24203 0
M  V30 8454 C 828.169 -1.1843 1.221 0
M  V30 8455 O 829.354 -1.22435 1.50743 0
M  V30 8456 C 826.484 -1.85111 2.93856 0
M  V30 8457 C 825.438 -1.45208 4.02615 0
M  V30 8458 C 824.764 -2.73137 4.59674 0
M  V30 8459 C 826.064 -0.625988 5.18535 0
M  V30 8460 H 827.758 -0.0812504 2.9929 0
M  V30 8461 H 825.304 -0.0376388 1.43951 0
M  V30 8462 H 827.257 -2.48314 3.40468 0
M  V30 8463 H 825.981 -2.44751 2.16251 0
M  V30 8464 H 824.64 -0.843406 3.56766 0
M  V30 8465 H 824.288 -3.30967 3.78774 0
M  V30 8466 H 823.988 -2.47163 5.33089 0
M  V30 8467 H 825.512 -3.37245 5.09017 0
M  V30 8468 H 826.926 -1.16223 5.61396 0
M  V30 8469 H 825.323 -0.462465 5.98315 0
M  V30 8470 H 826.393 0.362652 4.83542 0
M  V30 8471 N 827.736 -1.57571 -0.0300757 0
M  V30 8472 C 828.666 -2.0953 -1.03051 0
M  V30 8473 C 829.647 -0.99761 -1.37774 0
M  V30 8474 O 830.832 -1.27279 -1.46676 0
M  V30 8475 C 827.962 -2.57385 -2.33174 0
M  V30 8476 C 826.916 -3.71409 -2.12696 0
M  V30 8477 C 826.242 -4.05467 -3.4857 0
M  V30 8478 C 827.542 -4.99877 -1.51396 0
M  V30 8479 H 829.236 -2.93367 -0.597999 0
M  V30 8480 H 826.782 -1.41127 -0.286203 0
M  V30 8481 H 828.735 -2.92355 -3.03491 0
M  V30 8482 H 827.459 -1.70629 -2.78484 0
M  V30 8483 H 826.118 -3.36786 -1.44813 0
M  V30 8484 H 825.766 -3.15779 -3.91526 0
M  V30 8485 H 825.466 -4.82269 -3.35694 0
M  V30 8486 H 826.99 -4.4297 -4.2025 0
M  V30 8487 H 828.404 -5.3281 -2.11629 0
M  V30 8488 H 826.801 -5.81283 -1.49098 0
M  V30 8489 H 827.871 -4.82522 -0.479676 0
M  V30 8490 N 829.214 0.302327 -1.54673 0
M  V30 8491 C 830.63 0.647911 -1.45857 0
M  V30 8492 C 830.83 1.90773 -0.64869 0
M  V30 8493 O 829.886 2.52018 -0.155865 0
M  V30 8494 C 831.199 0.802144 -2.89804 0
M  V30 8495 C 832.747 0.898114 -2.99838 0
M  V30 8496 C 833.222 1.08436 -4.44978 0
M  V30 8497 N 834.713 1.15059 -4.48682 0
M  V30 8498 C 835.448 1.31296 -5.58166 0
M  V30 8499 N 834.944 1.4444 -6.77576 0
M  V30 8500 N 836.737 1.34174 -5.45851 0
M  V30 8501 H 828.888 -0.525428 -2.05798 0
M  V30 8502 H 831.151 -0.173423 -0.932002 0
M  V30 8503 H 830.857 -0.0526531 -3.51661 0
M  V30 8504 H 830.731 1.69155 -3.37145 0
M  V30 8505 H 833.118 1.7434 -2.38096 0
M  V30 8506 H 833.199 -0.0152752 -2.55795 0
M  V30 8507 H 832.843 0.243843 -5.07314 0
M  V30 8508 H 832.773 2.01195 -4.8665 0
M  V30 8509 H 835.264 1.0626 -3.62653 0
M  V30 8510 H 835.577 1.56582 -7.56771 0
M  V30 8511 H 833.922 1.41499 -6.80443 0
M  V30 8512 H 837.113 1.23516 -4.5151 0
M  V30 8513 H 837.286 1.46485 -6.31226 0
M  V30 8514 N 830.692 1.47107 0.565454 0
M  V30 8515 C 831.917 1.57153 1.35343 0
M  V30 8516 C 832.342 0.219247 1.86818 0
M  V30 8517 O 831.7 -0.803539 1.62521 0
M  V30 8518 C 831.748 2.59387 2.50501 0
M  V30 8519 O 830.852 2.14086 3.52478 0
M  V30 8520 H 830.193 0.528209 0.402357 0
M  V30 8521 H 832.723 1.92821 0.684189 0
M  V30 8522 H 832.733 2.79546 2.97184 0
M  V30 8523 H 831.408 3.57579 2.12391 0
M  V30 8524 H 829.985 2.03991 3.12157 0
M  V30 8525 N 832.17 -0.811516 1.35101 0
M  V30 8526 C 833.395 -1.60499 1.31358 0
M  V30 8527 C 833.82 -1.87793 -0.107383 0
M  V30 8528 O 833.178 -1.46161 -1.07268 0
M  V30 8529 C 833.226 -2.91612 2.12119 0
M  V30 8530 O 832.33 -3.84211 1.49853 0
M  V30 8531 H 831.671 -0.487702 0.450603 0
M  V30 8532 H 834.201 -1.00758 1.7807 0
M  V30 8533 H 834.211 -3.4108 2.23894 0
M  V30 8534 H 832.886 -2.71071 3.15426 0
M  V30 8535 H 831.463 -3.42751 1.46889 0
M  V30 8536 N 833.648 -1.19017 -1.03309 0
M  V30 8537 C 834.596 -0.920627 -2.13605 0
M  V30 8538 C 835.59 0.121969 -1.6896 0
M  V30 8539 O 836.796 -0.0268854 -1.7998 0
M  V30 8540 H 833.171 -0.280284 -0.697814 0
M  V30 8541 H 835.142 -1.85755 -2.33533 0
M  V30 8542 C 833.891 -0.471198 -3.44492 0
M  V30 8543 H 833.214 -1.26499 -3.7926 0
M  V30 8544 H 834.654 -0.321663 -4.22778 0
M  V30 8545 C 833.113 0.81411 -3.26916 0
M  V30 8546 O 833.643 1.87654 -3.55175 0
M  V30 8547 N 831.849 0.769695 -2.80221 0
M  V30 8548 H 831.396 -0.0951278 -2.57424 0
M  V30 8549 H 831.354 1.63008 -2.68842 0
M  V30 8550 N 835.127 1.22348 -0.993418 0
M  V30 8551 C 836.09 2.22522 -0.549251 0
M  V30 8552 C 837.09 1.56529 0.368164 0
M  V30 8553 O 838.28 1.73463 0.16005 0
M  V30 8554 C 835.412 3.40307 0.201037 0
M  V30 8555 H 836.605 2.63332 -1.43515 0
M  V30 8556 H 834.158 1.35407 -0.78068 0
M  V30 8557 H 834.893 3.0497 1.10289 0
M  V30 8558 H 834.678 3.8942 -0.457685 0
M  V30 8559 H 836.168 4.14597 0.499946 0
M  V30 8560 N 836.605 0.766683 1.37694 0
M  V30 8561 C 837.568 0.155849 2.2867 0
M  V30 8562 C 838.568 -0.633509 1.47795 0
M  V30 8563 O 839.758 -0.457844 1.68076 0
M  V30 8564 C 836.89 -0.786965 3.31692 0
M  V30 8565 H 838.083 0.957748 2.84196 0
M  V30 8566 H 835.636 0.534554 1.46875 0
M  V30 8567 H 836.371 -1.61406 2.8128 0
M  V30 8568 H 836.156 -0.223182 3.91464 0
M  V30 8569 H 837.646 -1.20994 3.99688 0
M  V30 8570 N 838.083 -1.48885 0.516809 0
M  V30 8571 C 839.311 -2.06892 -0.0184017 0
M  V30 8572 C 839.726 -1.37511 -1.29368 0
M  V30 8573 O 839.083 -0.458409 -1.76649 0
M  V30 8574 C 839.134 -3.60566 -0.259673 0
M  V30 8575 O 838.855 -4.27338 0.965065 0
M  V30 8576 C 840.356 -4.35331 -0.836751 0
M  V30 8577 H 837.576 -0.670433 0.0275743 0
M  V30 8578 H 840.12 -1.91455 0.718689 0
M  V30 8579 H 838.275 -3.75653 -0.94678 0
M  V30 8580 H 838.689 -5.19287 0.737647 0
M  V30 8581 H 840.163 -5.43675 -0.955065 0
M  V30 8582 H 840.64 -3.9887 -1.83845 0
M  V30 8583 H 841.246 -4.2489 -0.186622 0
M  V30 8584 N 839.561 -0.251338 -1.55583 0
M  V30 8585 C 840.81 0.372681 -1.98227 0
M  V30 8586 C 841.123 1.58743 -1.1428 0
M  V30 8587 O 842.329 2.28289 -1.46957 0
M  V30 8588 C 840.785 0.714439 -3.52738 0
M  V30 8589 C 840.393 -0.479168 -4.4543 0
M  V30 8590 C 842.137 1.3024 -4.04027 0
M  V30 8591 C 840.044 -0.113318 -5.91291 0
M  V30 8592 H 838.974 0.14302 -0.740312 0
M  V30 8593 H 841.625 -0.352253 -1.80087 0
M  V30 8594 H 840.007 1.49762 -3.66589 0
M  V30 8595 H 841.181 -1.25644 -4.4334 0
M  V30 8596 H 839.496 -0.982359 -4.04646 0
M  V30 8597 H 842.093 1.58953 -5.10527 0
M  V30 8598 H 842.436 2.22837 -3.51638 0
M  V30 8599 H 842.969 0.582024 -3.93519 0
M  V30 8600 H 839.708 -1.00654 -6.47726 0
M  V30 8601 H 839.228 0.627666 -5.96507 0
M  V30 8602 H 840.907 0.30293 -6.4629 0
M  V30 8603 N 841.039 1.57585 0.0217189 0
M  V30 8604 C 842.264 1.94267 0.726309 0
M  V30 8605 C 842.689 0.851904 1.67703 0
M  V30 8606 O 842.047 -0.191792 1.80283 0
M  V30 8607 C 842.095 3.30023 1.45318 0
M  V30 8608 O 841.199 3.22791 2.5667 0
M  V30 8609 H 840.54 0.634777 0.194818 0
M  V30 8610 H 843.07 2.04585 -0.0249985 0
M  V30 8611 H 843.08 3.65084 1.82147 0
M  V30 8612 H 841.755 4.08972 0.755962 0
M  V30 8613 H 840.332 2.99373 2.2233 0
M  V30 8614 N 842.517 -0.29412 1.54831 0
M  V30 8615 C 843.766 -1.02614 1.73647 0
M  V30 8616 C 844.079 -1.88193 0.533162 0
M  V30 8617 O 845.285 -2.64713 0.603275 0
M  V30 8618 C 843.741 -1.87417 3.07251 0
M  V30 8619 C 843.349 -1.06806 4.35082 0
M  V30 8620 C 845.093 -2.60176 3.35423 0
M  V30 8621 C 843 -1.90926 5.59733 0
M  V30 8622 H 841.93 -0.386834 0.647206 0
M  V30 8623 H 844.581 -0.282789 1.81308 0
M  V30 8624 H 842.963 -2.65765 2.93572 0
M  V30 8625 H 844.137 -0.330226 4.59615 0
M  V30 8626 H 842.452 -0.455979 4.13896 0
M  V30 8627 H 845.049 -3.23476 4.25755 0
M  V30 8628 H 845.392 -3.29365 2.54606 0
M  V30 8629 H 845.925 -1.88871 3.50103 0
M  V30 8630 H 842.664 -1.26194 6.43238 0
M  V30 8631 H 842.184 -2.62363 5.39375 0
M  V30 8632 H 843.863 -2.48807 5.97247 0
M  V30 8633 N 843.995 -1.47404 -0.557645 0
M  V30 8634 C 845.243 -1.53703 -1.31224 0
M  V30 8635 C 845.564 -0.200742 -1.93964 0
M  V30 8636 O 844.834 0.775253 -1.79907 0
M  V30 8637 H 843.414 -0.566171 -0.487299 0
M  V30 8638 H 846.076 -1.83699 -0.651195 0
M  V30 8639 H 845.172 -2.30335 -2.10599 0
M  V30 8640 N 845.473 0.80434 -1.35529 0
M  V30 8641 C 846.721 1.55845 -1.28673 0
M  V30 8642 C 847.042 1.94511 0.137976 0
M  V30 8643 O 846.312 1.63775 1.07492 0
M  V30 8644 H 844.892 0.577931 -0.473291 0
M  V30 8645 H 847.554 0.959293 -1.69657 0
M  V30 8646 H 846.65 2.47285 -1.90411 0
M  V30 8647 N 846.951 1.19563 1.02676 0
M  V30 8648 C 848.176 1.02556 1.80269 0
M  V30 8649 C 848.601 -0.421056 1.83327 0
M  V30 8650 O 847.959 -1.30279 1.26084 0
M  V30 8651 C 848.007 1.60165 3.23078 0
M  V30 8652 O 847.111 0.832404 4.03912 0
M  V30 8653 H 846.452 0.362354 0.556413 0
M  V30 8654 H 848.982 1.58633 1.29216 0
M  V30 8655 H 848.992 1.6347 3.7382 0
M  V30 8656 H 847.667 2.65454 3.20167 0
M  V30 8657 H 846.244 0.872768 3.62543 0
M  V30 8658 N 848.429 -1.21819 0.999893 0
M  V30 8659 C 849.677 -1.90375 0.678351 0
M  V30 8660 C 849.998 -1.78155 -0.792824 0
M  V30 8661 O 849.268 -1.17319 -1.56885 0
M  V30 8662 H 847.848 -0.704661 0.247915 0
M  V30 8663 H 850.51 -1.48021 1.2679 0
M  V30 8664 H 849.606 -2.97385 0.947023 0
M  V30 8665 N 849.908 -0.773975 -1.37286 0
M  V30 8666 C 850.818 -0.162571 -2.34036 0
M  V30 8667 C 851.834 0.677022 -1.60289 0
M  V30 8668 O 853.01 0.596423 -1.92366 0
M  V30 8669 C 850.075 0.70457 -3.39465 0
M  V30 8670 C 849.136 -0.151738 -4.29032 0
M  V30 8671 C 848.369 0.674111 -5.29426 0
M  V30 8672 O 848.592 1.91107 -5.37433 0
M  V30 8673 O 847.526 0.0821398 -6.01844 0
M  V30 8674 H 851.352 -0.962119 -2.88057 0
M  V30 8675 H 848.937 -0.53517 -1.39486 0
M  V30 8676 H 850.819 1.19954 -4.03967 0
M  V30 8677 H 849.494 1.48227 -2.87768 0
M  V30 8678 H 848.401 -0.693118 -3.67623 0
M  V30 8679 H 849.734 -0.892575 -4.84039 0
M  V30 8680 N 851.386 1.48609 -0.524698 0
M  V30 8681 C 852.316 2.32366 0.229837 0
M  V30 8682 C 853.297 1.41759 0.940129 0
M  V30 8683 O 854.482 1.7065 0.926936 0
M  V30 8684 C 851.612 3.22835 1.28043 0
M  V30 8685 C 850.566 4.22424 0.688603 0
M  V30 8686 C 849.892 5.0199 1.84146 0
M  V30 8687 C 851.192 5.21217 -0.336176 0
M  V30 8688 H 852.886 2.95698 -0.469339 0
M  V30 8689 H 850.432 1.42197 -0.227156 0
M  V30 8690 H 852.385 3.80253 1.8162 0
M  V30 8691 H 851.109 2.57492 2.00912 0
M  V30 8692 H 849.768 3.66185 0.174402 0
M  V30 8693 H 849.416 4.33076 2.5584 0
M  V30 8694 H 849.116 5.69392 1.45142 0
M  V30 8695 H 850.64 5.62259 2.38111 0
M  V30 8696 H 852.054 5.7319 0.112307 0
M  V30 8697 H 850.451 5.96642 -0.643324 0
M  V30 8698 H 851.521 4.68676 -1.24381 0
M  V30 8699 N 852.864 0.259585 1.55447 0
M  V30 8700 C 853.796 -0.667548 2.19263 0
M  V30 8701 C 854.809 -1.12925 1.17268 0
M  V30 8702 O 855.998 -1.05384 1.44071 0
M  V30 8703 C 853.098 -1.92066 2.7922 0
M  V30 8704 C 852.271 -1.60832 4.06758 0
M  V30 8705 C 851.33 -2.71231 4.50911 0
M  V30 8706 O 850.356 -2.38077 5.17019 0
M  V30 8707 N 851.558 -4.00984 4.19752 0
M  V30 8708 H 854.323 -0.121449 2.99454 0
M  V30 8709 H 851.884 0.0800519 1.61702 0
M  V30 8710 H 853.876 -2.65186 3.0571 0
M  V30 8711 H 852.446 -2.37621 2.03113 0
M  V30 8712 H 851.666 -0.711685 3.87722 0
M  V30 8713 H 852.954 -1.37445 4.89884 0
M  V30 8714 H 852.352 -4.30748 3.66706 0
M  V30 8715 H 850.909 -4.7053 4.51048 0
M  V30 8716 N 854.342 -1.57594 -0.0133615 0
M  V30 8717 C 855.758 -1.5527 -0.369255 0
M  V30 8718 C 855.958 -0.987751 -1.7563 0
M  V30 8719 O 855.014 -0.615683 -2.44879 0
M  V30 8720 C 856.327 -2.99602 -0.25672 0
M  V30 8721 C 857.875 -3.11227 -0.332647 0
M  V30 8722 C 858.35 -4.57321 -0.249387 0
M  V30 8723 N 859.841 -4.62177 -0.3077 0
M  V30 8724 C 860.576 -5.72781 -0.26641 0
M  V30 8725 N 860.072 -6.92575 -0.176494 0
M  V30 8726 N 861.865 -5.61204 -0.317295 0
M  V30 8727 H 854.016 -1.92662 0.894154 0
M  V30 8728 H 856.279 -0.884352 0.341505 0
M  V30 8729 H 855.985 -3.44723 0.697072 0
M  V30 8730 H 855.859 -3.6246 -1.04415 0
M  V30 8731 H 858.246 -2.66045 -1.27688 0
M  V30 8732 H 858.327 -2.51171 0.484412 0
M  V30 8733 H 857.971 -5.03174 0.691242 0
M  V30 8734 H 857.901 -5.15306 -1.08476 0
M  V30 8735 H 860.392 -3.75994 -0.379069 0
M  V30 8736 H 860.705 -7.72653 -0.150518 0
M  V30 8737 H 859.05 -6.94854 -0.142314 0
M  V30 8738 H 862.241 -4.66509 -0.385643 0
M  V30 8739 H 862.414 -6.47388 -0.28165 0
M  V30 8740 N 855.82 0.285905 -1.54985 0
M  V30 8741 C 856.752 1.37505 -1.83371 0
M  V30 8742 C 857.765 1.46138 -0.717454 0
M  V30 8743 O 858.954 1.48186 -0.995142 0
M  V30 8744 C 856.054 2.7575 -1.97016 0
M  V30 8745 C 855.227 2.89866 -3.27561 0
M  V30 8746 C 854.286 4.08704 -3.31433 0
M  V30 8747 O 853.312 4.00073 -4.04883 0
M  V30 8748 N 854.514 5.20062 -2.57907 0
M  V30 8749 H 857.279 1.13505 -2.77375 0
M  V30 8750 H 854.84 0.476006 -1.54744 0
M  V30 8751 H 856.832 3.5352 -1.96991 0
M  V30 8752 H 855.402 2.9263 -1.09938 0
M  V30 8753 H 854.622 1.99085 -3.40234 0
M  V30 8754 H 855.91 2.96219 -4.13681 0
M  V30 8755 H 855.308 5.29958 -1.97891 0
M  V30 8756 H 853.865 5.96111 -2.63619 0
M  V30 8757 N 857.298 1.47698 0.54982 0
M  V30 8758 C 858.714 1.3338 0.876468 0
M  V30 8759 C 858.914 0.329837 1.98782 0
M  V30 8760 O 857.97 -0.256022 2.51199 0
M  V30 8761 C 859.283 2.72903 1.26272 0
M  V30 8762 C 860.831 2.81243 1.37373 0
M  V30 8763 C 861.306 4.21423 1.79351 0
M  V30 8764 N 862.797 4.24 1.86489 0
M  V30 8765 C 863.532 5.29386 2.20313 0
M  V30 8766 N 863.028 6.4507 2.527 0
M  V30 8767 N 864.821 5.16768 2.2115 0
M  V30 8768 H 856.972 2.11603 -0.183781 0
M  V30 8769 H 859.235 0.947798 -0.0195601 0
M  V30 8770 H 858.941 3.47836 0.519889 0
M  V30 8771 H 858.815 3.05151 2.21727 0
M  V30 8772 H 861.202 2.06577 2.10737 0
M  V30 8773 H 861.283 2.52639 0.400882 0
M  V30 8774 H 860.927 4.96597 1.06555 0
M  V30 8775 H 860.857 4.47456 2.77652 0
M  V30 8776 H 863.348 3.40547 1.63817 0
M  V30 8777 H 863.661 7.21236 2.77557 0
M  V30 8778 H 862.006 6.48377 2.50263 0
M  V30 8779 H 865.197 4.25416 1.95293 0
M  V30 8780 H 865.37 5.99004 2.4718 0
M  V30 8781 N 858.776 -0.797141 1.35954 0
M  V30 8782 C 860.022 -1.55698 1.29946 0
M  V30 8783 C 860.355 -1.93808 -0.123259 0
M  V30 8784 O 859.63 -1.62102 -1.07486 0
M  V30 8785 C 859.913 -2.83926 2.2149 0
M  V30 8786 C 859.766 -2.52232 3.72423 0
M  V30 8787 C 861.085 -3.85698 2.11955 0
M  V30 8788 H 858.204 -0.56488 0.47337 0
M  V30 8789 H 860.846 -0.916421 1.66438 0
M  V30 8790 H 858.996 -3.38588 1.905 0
M  V30 8791 H 860.668 -2.0368 4.13899 0
M  V30 8792 H 858.911 -1.85286 3.92239 0
M  V30 8793 H 859.582 -3.43782 4.31877 0
M  V30 8794 H 862.058 -3.40462 2.39218 0
M  V30 8795 H 860.934 -4.73182 2.78191 0
M  V30 8796 H 861.195 -4.28083 1.10442 0
M  V30 8797 N 860.254 -1.20106 -1.0204 0
M  V30 8798 C 861.187 -0.889795 -2.10138 0
M  V30 8799 C 862.165 0.156595 -1.61844 0
M  V30 8800 O 863.349 0.0310192 -1.88474 0
M  V30 8801 C 860.476 -0.333227 -3.37057 0
M  V30 8802 C 859.522 -1.36001 -4.04235 0
M  V30 8803 S 860.355 -2.92366 -4.48645 0
M  V30 8804 C 861.511 -2.38274 -5.78771 0
M  V30 8805 H 861.744 -1.80523 -2.36217 0
M  V30 8806 H 859.277 -1.02912 -1.15102 0
M  V30 8807 H 861.235 -0.0186507 -4.10496 0
M  V30 8808 H 859.896 0.560652 -3.09056 0
M  V30 8809 H 859.089 -0.919874 -4.95534 0
M  V30 8810 H 858.691 -1.62186 -3.37004 0
M  V30 8811 H 860.983 -1.77799 -6.53754 0
M  V30 8812 H 861.926 -3.27955 -6.27576 0
M  V30 8813 H 862.334 -1.8054 -5.34851 0
M  V30 8814 N 861.732 1.21287 -1.00634 0
M  V30 8815 C 862.642 2.27388 -0.577226 0
M  V30 8816 C 863.658 1.69791 0.380399 0
M  V30 8817 O 864.834 1.99918 0.2439 0
M  V30 8818 C 861.899 3.46588 0.0880532 0
M  V30 8819 C 860.96 4.19453 -0.914222 0
M  V30 8820 C 860.193 5.32962 -0.280596 0
M  V30 8821 O 860.416 5.62895 0.922265 0
M  V30 8822 O 859.35 5.93666 -0.992196 0
M  V30 8823 H 863.176 2.66289 -1.46028 0
M  V30 8824 H 860.761 1.2771 -0.775283 0
M  V30 8825 H 862.643 4.18881 0.460094 0
M  V30 8826 H 861.318 3.09585 0.945461 0
M  V30 8827 H 860.225 3.49376 -1.33744 0
M  V30 8828 H 861.558 4.6037 -1.74126 0
M  V30 8829 N 863.21 0.781244 1.36873 0
M  V30 8830 C 864.173 0.180094 2.28491 0
M  V30 8831 C 865.173 -0.617798 1.48458 0
M  V30 8832 O 866.363 -0.439991 1.68552 0
M  V30 8833 C 863.495 -0.751741 3.32508 0
M  V30 8834 H 864.688 0.987837 2.83164 0
M  V30 8835 H 862.241 0.550102 1.463 0
M  V30 8836 H 862.976 -1.58413 2.82977 0
M  V30 8837 H 862.761 -0.181649 3.91679 0
M  V30 8838 H 864.251 -1.16748 4.00949 0
M  V30 8839 N 864.689 -1.48329 0.532571 0
M  V30 8840 C 865.935 -2.028 -0.000583219 0
M  V30 8841 C 866.268 -1.40858 -1.33688 0
M  V30 8842 O 865.543 -0.555261 -1.86406 0
M  V30 8843 C 865.826 -3.59901 -0.119846 0
M  V30 8844 C 865.679 -4.32318 1.2418 0
M  V30 8845 C 866.998 -4.31904 -0.845372 0
M  V30 8846 H 864.117 -0.736999 0.00126205 0
M  V30 8847 H 866.759 -1.77024 0.690102 0
M  V30 8848 H 864.909 -3.81993 -0.708092 0
M  V30 8849 H 866.581 -4.21637 1.87136 0
M  V30 8850 H 864.824 -3.93635 1.82301 0
M  V30 8851 H 865.495 -5.40697 1.11132 0
M  V30 8852 H 867.971 -4.14658 -0.346159 0
M  V30 8853 H 866.847 -5.41509 -0.897723 0
M  V30 8854 H 867.108 -3.99369 -1.89622 0
M  V30 8855 N 866.167 -0.267825 -1.55308 0
M  V30 8856 C 867.117 0.637168 -2.18916 0
M  V30 8857 C 868.101 1.12381 -1.15149 0
M  V30 8858 O 869.293 1.0701 -1.40989 0
M  V30 8859 C 866.422 1.82423 -2.90821 0
M  V30 8860 C 865.508 1.35512 -4.01867 0
M  V30 8861 N 865.899 0.601644 -5.02209 0
M  V30 8862 C 864.197 1.63868 -4.14805 0
M  V30 8863 C 864.898 0.35596 -5.8061 0
M  V30 8864 N 863.874 0.926271 -5.3565 0
M  V30 8865 H 867.676 0.0535787 -2.93851 0
M  V30 8866 H 865.19 -0.0710577 -1.62244 0
M  V30 8867 H 867.187 2.48379 -3.34834 0
M  V30 8868 H 865.847 2.41185 -2.17394 0
M  V30 8869 H 866.858 0.249693 -5.17298 0
M  V30 8870 H 863.535 2.23618 -3.52564 0
M  V30 8871 H 864.925 -0.246994 -6.71446 0
M  V30 8872 N 867.645 1.57599 0.00500368 0
M  V30 8873 C 868.892 1.90349 0.690895 0
M  V30 8874 C 869.22 0.868045 1.74055 0
M  V30 8875 O 868.475 -0.127855 1.95282 0
M  V30 8876 C 868.774 3.29855 1.37588 0
M  V30 8877 C 868.44 4.48548 0.459906 0
M  V30 8878 C 867.102 4.80752 0.207693 0
M  V30 8879 C 869.454 5.20919 -0.171054 0
M  V30 8880 C 866.782 5.82701 -0.683855 0
M  V30 8881 C 869.134 6.23818 -1.05045 0
M  V30 8882 C 867.798 6.54481 -1.31189 0
M  V30 8883 H 867.068 0.696538 0.252816 0
M  V30 8884 H 869.715 1.91436 -0.0494495 0
M  V30 8885 H 868.02 3.24869 2.19015 0
M  V30 8886 H 869.717 3.52452 1.91255 0
M  V30 8887 H 866.307 4.23384 0.666648 0
M  V30 8888 H 870.491 4.96299 0.0107942 0
M  V30 8889 H 865.747 6.04822 -0.894467 0
M  V30 8890 H 869.921 6.79029 -1.54574 0
M  V30 8891 H 867.548 7.33299 -2.00442 0
M  V30 8892 N 869.123 -0.277682 1.55134 0
M  V30 8893 C 870.539 -0.624625 1.46869 0
M  V30 8894 C 870.739 -1.89717 0.678958 0
M  V30 8895 O 869.795 -2.51739 0.195939 0
M  V30 8896 C 871.108 -0.755937 2.91043 0
M  V30 8897 C 872.656 -0.850299 3.01229 0
M  V30 8898 C 873.131 -1.01343 4.46647 0
M  V30 8899 N 874.622 -1.07906 4.50456 0
M  V30 8900 C 875.357 -1.224 5.60184 0
M  V30 8901 N 874.853 -1.33642 6.79788 0
M  V30 8902 N 876.646 -1.25473 5.47917 0
M  V30 8903 H 868.797 0.558102 2.04937 0
M  V30 8904 H 871.06 0.188228 0.929125 0
M  V30 8905 H 870.766 0.108593 3.51532 0
M  V30 8906 H 870.64 -1.6377 3.39793 0
M  V30 8907 H 873.027 -1.7053 2.40839 0
M  V30 8908 H 873.108 0.0559681 2.55739 0
M  V30 8909 H 872.752 -0.163102 5.07638 0
M  V30 8910 H 872.682 -1.93427 4.89789 0
M  V30 8911 H 875.173 -1.00477 3.64298 0
M  V30 8912 H 875.486 -1.44522 7.59166 0
M  V30 8913 H 873.831 -1.30655 6.82608 0
M  V30 8914 H 877.022 -1.16317 4.53418 0
M  V30 8915 H 877.195 -1.36424 6.33476 0
M  V30 8916 N 870.601 -1.47988 -0.541979 0
M  V30 8917 C 871.847 -1.55623 -1.30036 0
M  V30 8918 C 872.18 -0.224254 -1.92901 0
M  V30 8919 O 871.455 0.768629 -1.78668 0
M  V30 8920 C 871.738 -2.68562 -2.39888 0
M  V30 8921 C 871.591 -4.11426 -1.81792 0
M  V30 8922 C 872.91 -2.77325 -3.41729 0
M  V30 8923 H 870.029 -0.566498 -0.471433 0
M  V30 8924 H 872.671 -1.8011 -0.604998 0
M  V30 8925 H 870.821 -2.47814 -2.992 0
M  V30 8926 H 872.493 -4.43581 -1.26624 0
M  V30 8927 H 870.736 -4.18989 -1.12386 0
M  V30 8928 H 871.407 -4.8625 -2.61276 0
M  V30 8929 H 873.883 -2.96085 -2.92357 0
M  V30 8930 H 872.759 -3.58097 -4.16002 0
M  V30 8931 H 873.02 -1.84995 -4.01534 0
M  V30 8932 N 872.079 0.78992 -1.36375 0
M  V30 8933 C 873.495 1.0879 -1.16777 0
M  V30 8934 C 873.695 2.01498 0.00848236 0
M  V30 8935 O 872.751 2.43338 0.674007 0
M  V30 8936 C 874.064 1.70285 -2.47837 0
M  V30 8937 C 875.612 1.82629 -2.54196 0
M  V30 8938 C 876.087 2.47539 -3.85342 0
M  V30 8939 N 877.578 2.55008 -3.86685 0
M  V30 8940 C 878.313 3.06041 -4.84898 0
M  V30 8941 N 877.809 3.57385 -5.93505 0
M  V30 8942 N 879.602 3.04748 -4.72319 0
M  V30 8943 H 871.753 0.173985 -2.11686 0
M  V30 8944 H 874.016 0.139798 -0.937636 0
M  V30 8945 H 873.722 1.09633 -3.34176 0
M  V30 8946 H 873.596 2.69799 -2.63607 0
M  V30 8947 H 875.983 2.42419 -1.68276 0
M  V30 8948 H 876.064 0.81923 -2.42327 0
M  V30 8949 H 875.708 1.88393 -4.71668 0
M  V30 8950 H 875.638 3.48815 -3.94507 0
M  V30 8951 H 878.129 2.18651 -3.08221 0
M  V30 8952 H 878.442 3.94674 -6.64419 0
M  V30 8953 H 876.787 3.55538 -5.97175 0
M  V30 8954 H 879.978 2.63925 -3.86602 0
M  V30 8955 H 880.151 3.44212 -5.49019 0
M  V30 8956 N 873.557 1.20646 1.01402 0
M  V30 8957 C 874.507 0.925209 2.08384 0
M  V30 8958 C 875.491 -0.115994 1.60481 0
M  V30 8959 O 876.683 0.0917276 1.76762 0
M  V30 8960 C 873.812 0.48193 3.399 0
M  V30 8961 C 872.898 1.5567 3.94497 0
M  V30 8962 N 873.289 2.77971 4.2257 0
M  V30 8963 C 871.587 1.42347 4.22674 0
M  V30 8964 C 872.288 3.47317 4.66632 0
M  V30 8965 N 871.264 2.74736 4.69064 0
M  V30 8966 H 875.066 1.85452 2.28002 0
M  V30 8967 H 872.58 1.10084 1.19395 0
M  V30 8968 H 874.577 0.261835 4.16077 0
M  V30 8969 H 873.237 -0.440725 3.21695 0
M  V30 8970 H 874.248 3.14598 4.11398 0
M  V30 8971 H 870.925 0.565417 4.13654 0
M  V30 8972 H 872.315 4.51985 4.97151 0
M  V30 8973 N 875.035 -1.20752 1.01276 0
M  V30 8974 C 876.263 -1.94006 0.718976 0
M  V30 8975 C 876.678 -1.74544 -0.719711 0
M  V30 8976 O 876.035 -1.05697 -1.48776 0
M  V30 8977 C 876.086 -3.46208 1.04031 0
M  V30 8978 O 875.807 -3.65031 2.42248 0
M  V30 8979 C 877.308 -4.36614 0.767032 0
M  V30 8980 H 874.528 -0.616743 0.264327 0
M  V30 8981 H 877.072 -1.53352 1.3529 0
M  V30 8982 H 875.227 -3.84756 0.451852 0
M  V30 8983 H 875.641 -4.59054 2.53712 0
M  V30 8984 H 877.115 -5.42076 1.04198 0
M  V30 8985 H 877.592 -4.38182 -0.298851 0
M  V30 8986 H 878.198 -4.03723 1.33746 0
M  V30 8987 N 876.513 -0.788492 -1.36457 0
M  V30 8988 C 877.762 -0.357052 -1.98515 0
M  V30 8989 C 878.075 1.0769 -1.63285 0
M  V30 8990 O 879.281 1.61057 -2.1857 0
M  V30 8991 C 877.737 -0.587449 -3.55073 0
M  V30 8992 C 877.345 -2.03276 -3.99228 0
M  V30 8993 C 879.089 -0.220468 -4.23927 0
M  V30 8994 C 876.996 -2.20987 -5.48561 0
M  V30 8995 H 875.926 -0.129762 -0.74275 0
M  V30 8996 H 878.577 -0.969995 -1.55767 0
M  V30 8997 H 876.959 0.0951918 -3.95886 0
M  V30 8998 H 878.133 -2.75173 -3.69617 0
M  V30 8999 H 876.448 -2.3579 -3.43208 0
M  V30 9000 H 879.045 -0.331085 -5.33674 0
M  V30 9001 H 879.388 0.831306 -4.07915 0
M  V30 9002 H 879.921 -0.856309 -3.88474 0
M  V30 9003 H 876.66 -3.24543 -5.69519 0
M  V30 9004 H 876.18 -1.53594 -5.79801 0
M  V30 9005 H 877.859 -2.01656 -6.14771 0
M  V30 9006 N 877.991 1.48044 -0.54043 0
M  V30 9007 C 879.219 2.06895 -0.0145153 0
M  V30 9008 C 879.634 1.39552 1.27164 0
M  V30 9009 O 878.991 0.486454 1.75897 0
M  V30 9010 C 879.042 3.60934 0.202278 0
M  V30 9011 O 878.763 4.25749 -1.03293 0
M  V30 9012 C 880.264 4.36607 0.767387 0
M  V30 9013 H 877.484 0.66991 -0.0382368 0
M  V30 9014 H 880.028 1.90288 -0.749057 0
M  V30 9015 H 878.183 3.77111 0.886897 0
M  V30 9016 H 878.597 5.18048 -0.820167 0
M  V30 9017 H 880.071 5.45126 0.86845 0
M  V30 9018 H 880.548 4.01745 1.77477 0
M  V30 9019 H 881.154 4.25133 0.119002 0
M  V30 9020 N 879.47 0.276058 1.55163 0
M  V30 9021 C 880.719 -0.341098 1.98795 0
M  V30 9022 C 881.032 -1.56905 1.16791 0
M  V30 9023 O 882.238 -2.25922 1.50571 0
M  V30 9024 C 880.694 -0.658231 3.5383 0
M  V30 9025 C 880.302 0.549972 4.44611 0
M  V30 9026 C 882.046 -1.23796 4.06048 0
M  V30 9027 C 879.953 0.207373 5.91036 0
M  V30 9028 H 878.883 -0.131224 0.742493 0
M  V30 9029 H 881.534 0.380858 1.79504 0
M  V30 9030 H 879.916 -1.43911 3.68925 0
M  V30 9031 H 881.09 1.32681 4.41285 0
M  V30 9032 H 879.405 1.04661 4.03032 0
M  V30 9033 H 882.002 -1.50811 5.12991 0
M  V30 9034 H 882.345 -2.17214 3.55139 0
M  V30 9035 H 882.878 -0.519345 3.94395 0
M  V30 9036 H 879.617 1.10946 6.46043 0
M  V30 9037 H 879.137 -0.532687 5.9743 0
M  V30 9038 H 880.816 -0.200072 6.46691 0
M  V30 9039 N 880.948 -1.576 0.00335426 0
M  V30 9040 C 882.359 -1.7875 -0.539008 0
M  V30 9041 C 882.71 -0.911097 -1.73763 0
M  V30 9042 O 881.835 -0.114476 -2.16097 0
M  V30 9043 C 882.43 -3.24177 -0.984611 0
M  V30 9044 C 880.989 -3.46412 -1.47226 0
M  V30 9045 C 880.136 -2.74024 -0.425004 0
M  V30 9046 H 883.087 -1.57032 0.229511 0
M  V30 9047 H 883.108 -3.32474 -1.85044 0
M  V30 9048 H 882.62 -3.87938 -0.112035 0
M  V30 9049 H 880.721 -2.8787 -2.36562 0
M  V30 9050 H 880.834 -4.55098 -1.49741 0
M  V30 9051 H 879.198 -2.38741 -0.887394 0
M  V30 9052 H 879.981 -3.40486 0.438662 0
M  V30 9053 N 882.426 0.269451 -1.5528 0
M  V30 9054 C 883.374 1.35303 -1.89198 0
M  V30 9055 C 884.368 1.50956 -0.768671 0
M  V30 9056 O 885.574 1.52699 -0.953054 0
M  V30 9057 H 881.949 0.452591 -0.600554 0
M  V30 9058 H 883.92 1.03949 -2.79709 0
M  V30 9059 C 882.669 2.70585 -2.18356 0
M  V30 9060 H 881.992 2.59332 -3.04281 0
M  V30 9061 H 883.432 3.45335 -2.46007 0
M  V30 9062 C 881.891 3.21954 -0.992327 0
M  V30 9063 O 882.421 4.01048 -0.228769 0
M  V30 9064 N 880.627 2.79682 -0.789062 0
M  V30 9065 H 880.174 2.15475 -1.41167 0
M  V30 9066 H 880.132 3.14399 0.00634776 0
M  V30 9067 N 883.904 1.48273 0.534124 0
M  V30 9068 C 885.32 1.34302 0.862272 0
M  V30 9069 C 885.52 0.350902 1.98421 0
M  V30 9070 O 884.576 -0.229364 2.51456 0
M  V30 9071 C 885.889 2.74227 1.23371 0
M  V30 9072 C 887.437 2.82684 1.34383 0
M  V30 9073 C 887.912 4.23301 1.74871 0
M  V30 9074 N 889.403 4.25954 1.81981 0
M  V30 9075 C 890.138 5.31693 2.14686 0
M  V30 9076 N 889.634 6.47714 2.45844 0
M  V30 9077 N 891.427 5.19084 2.15657 0
M  V30 9078 H 883.578 2.11397 -0.206215 0
M  V30 9079 H 885.841 0.947537 -0.0296116 0
M  V30 9080 H 885.547 3.48368 0.482967 0
M  V30 9081 H 885.421 3.07485 2.18478 0
M  V30 9082 H 887.808 2.08801 2.08534 0
M  V30 9083 H 887.889 2.5305 0.374063 0
M  V30 9084 H 887.533 4.97699 1.01282 0
M  V30 9085 H 887.463 4.50376 2.7289 0
M  V30 9086 H 889.954 3.42266 1.60196 0
M  V30 9087 H 890.267 7.2414 2.69892 0
M  V30 9088 H 888.612 6.50995 2.43372 0
M  V30 9089 H 891.803 4.27463 1.9077 0
M  V30 9090 H 891.976 6.01592 2.40813 0
M  V30 9091 N 885.382 -0.782676 1.36792 0
M  V30 9092 C 886.63 -1.53778 1.31136 0
M  V30 9093 C 886.951 -1.94706 -0.107014 0
M  V30 9094 O 886.221 -1.65465 -1.04872 0
M  V30 9095 H 884.801 -0.570328 0.482426 0
M  V30 9096 H 887.463 -0.932181 1.71162 0
M  V30 9097 H 886.559 -2.44224 1.94321 0
M  V30 9098 N 886.86 -1.21182 -1.00761 0
M  V30 9099 C 888.108 -1.02543 -1.74153 0
M  V30 9100 C 888.429 0.442372 -1.89916 0
M  V30 9101 O 887.699 1.31927 -1.44818 0
M  V30 9102 H 886.279 -0.37644 -0.645214 0
M  V30 9103 H 888.941 -1.52446 -1.21434 0
M  V30 9104 H 888.037 -1.49122 -2.7417 0
M  V30 9105 N 888.338 1.20213 -1.01915 0
M  V30 9106 C 889.749 1.7136 -0.741131 0
M  V30 9107 C 890.1 1.81705 0.740107 0
M  V30 9108 O 889.225 1.48139 1.57746 0
M  V30 9109 C 889.82 3.11231 -1.33869 0
M  V30 9110 C 888.379 3.59677 -1.10948 0
M  V30 9111 C 887.526 2.36809 -1.4428 0
M  V30 9112 H 890.477 1.05191 -1.1883 0
M  V30 9113 H 890.498 3.7342 -0.730585 0
M  V30 9114 H 890.01 3.03669 -2.41675 0
M  V30 9115 H 888.111 3.72568 -0.0492052 0
M  V30 9116 H 888.224 4.44351 -1.79134 0
M  V30 9117 H 886.588 2.39674 -0.861881 0
M  V30 9118 H 887.371 2.31886 -2.53148 0
M  V30 9119 N 889.816 0.795718 1.36037 0
M  V30 9120 C 891.064 0.370291 1.98679 0
M  V30 9121 C 891.385 -1.06332 1.63458 0
M  V30 9122 O 890.655 -1.73394 0.911671 0
M  V30 9123 H 889.235 0.133928 0.734896 0
M  V30 9124 H 891.897 1.01915 1.6613 0
M  V30 9125 H 890.993 0.467207 3.08583 0
M  V30 9126 N 891.294 -1.47756 0.548274 0
M  V30 9127 C 892.542 -2.02089 0.0208542 0
M  V30 9128 C 892.863 -1.42589 -1.33017 0
M  V30 9129 O 892.133 -0.597825 -1.86555 0
M  V30 9130 H 890.713 -0.746985 0.00472023 0
M  V30 9131 H 893.375 -1.81262 0.716257 0
M  V30 9132 H 892.471 -3.12012 -0.0739016 0
M  V30 9133 N 892.772 -0.284283 -1.55015 0
M  V30 9134 C 894.02 0.329212 -1.99401 0
M  V30 9135 C 894.341 1.55687 -1.17416 0
M  V30 9136 O 893.611 1.94087 -0.265937 0
M  V30 9137 H 892.191 0.12463 -0.73653 0
M  V30 9138 H 894.853 -0.391743 -1.90922 0
M  V30 9139 H 893.949 0.61278 -3.06025 0
M  V30 9140 N 894.251 1.57596 -0.0117121 0
M  V30 9141 C 895.662 1.79033 0.529521 0
M  V30 9142 C 896.013 0.920299 1.73277 0
M  V30 9143 O 895.138 0.125934 2.16033 0
M  V30 9144 C 895.733 3.24695 0.967405 0
M  V30 9145 C 894.292 3.47188 1.45387 0
M  V30 9146 C 893.439 2.74245 0.410466 0
M  V30 9147 H 896.39 1.56908 -0.237836 0
M  V30 9148 H 896.411 3.33451 1.83278 0
M  V30 9149 H 895.923 3.87992 0.0914605 0
M  V30 9150 H 894.024 2.89121 2.35032 0
M  V30 9151 H 894.137 4.55886 1.47325 0
M  V30 9152 H 892.501 2.39209 0.874721 0
M  V30 9153 H 893.284 3.40248 -0.456713 0
M  V30 9154 N 895.729 -0.261212 1.5542 0
M  V30 9155 C 897.006 -1.01321 1.67312 0
M  V30 9156 C 897.386 -2.0388 0.547356 0
M  V30 9157 O 896.734 -2.24003 -0.451083 0
M  V30 9158 C 896.944 -1.65943 3.07024 0
M  V30 9159 C 898.292 -2.16666 3.65159 0
M  V30 9160 O 899.316 -1.75909 3.09733 0
M  V30 9161 O 898.175 -2.91455 4.62294 0
M  V30 9162 H 895.269 -0.470714 0.679968 0
M  V30 9163 H 897.815 -0.256133 1.67756 0
M  V30 9164 H 896.587 -0.916868 3.80407 0
M  V30 9165 H 896.21 -2.48308 3.1053 0
M  V30 9166 N 897.207 -1.48554 -0.526253 0
M  V30 9167 C 898.117 -1.66044 -1.65731 0
M  V30 9168 C 899.133 -0.542951 -1.65312 0
M  V30 9169 O 900.309 -0.814495 -1.84195 0
M  V30 9170 C 897.374 -1.69959 -3.02184 0
M  V30 9171 C 896.435 -2.93362 -3.13428 0
M  V30 9172 C 895.668 -2.97081 -4.43372 0
M  V30 9173 O 895.891 -2.09103 -5.3069 0
M  V30 9174 O 894.825 -3.8929 -4.59061 0
M  V30 9175 H 898.651 -2.61811 -1.53912 0
M  V30 9176 H 896.236 -1.31999 -0.699759 0
M  V30 9177 H 898.118 -1.75033 -3.83329 0
M  V30 9178 H 896.793 -0.773658 -3.14319 0
M  V30 9179 H 895.7 -2.93818 -2.31564 0
M  V30 9180 H 897.033 -3.85352 -3.06211 0
M  V30 9181 N 898.685 0.775411 -1.37205 0
M  V30 9182 C 899.931 1.53533 -1.33414 0
M  V30 9183 C 900.286 1.92225 0.0819435 0
M  V30 9184 O 899.579 1.60935 1.03974 0
M  V30 9185 C 899.773 2.81377 -2.20367 0
M  V30 9186 C 899.602 2.5518 -3.70288 0
M  V30 9187 C 898.372 2.49493 -4.3941 0
M  V30 9188 C 900.57 2.23425 -4.63234 0
M  V30 9189 N 898.552 2.15341 -5.74892 0
M  V30 9190 C 899.923 1.99381 -5.87067 0
M  V30 9191 C 901.978 2.09549 -4.51657 0
M  V30 9192 C 900.681 1.62863 -7.0062 0
M  V30 9193 C 902.707 1.74431 -5.65091 0
M  V30 9194 C 902.069 1.51245 -6.87971 0
M  V30 9195 H 898.168 0.562278 -0.543477 0
M  V30 9196 H 900.752 0.90495 -1.72391 0
M  V30 9197 H 898.923 3.42259 -1.83612 0
M  V30 9198 H 900.655 3.4724 -2.07861 0
M  V30 9199 H 897.41 2.65221 -3.9237 0
M  V30 9200 H 897.834 2.00972 -6.46482 0
M  V30 9201 H 902.476 2.26159 -3.57228 0
M  V30 9202 H 900.194 1.44991 -7.94986 0
M  V30 9203 H 903.78 1.64359 -5.58102 0
M  V30 9204 H 902.66 1.24472 -7.74259 0
M  V30 9205 N 900.163 1.21714 1.00117 0
M  V30 9206 C 901.126 0.981338 2.07129 0
M  V30 9207 C 902.126 -0.0491116 1.60725 0
M  V30 9208 O 903.316 0.188555 1.73177 0
M  V30 9209 C 900.448 0.480608 3.37495 0
M  V30 9210 H 901.641 1.93075 2.29482 0
M  V30 9211 H 899.194 1.03467 1.17151 0
M  V30 9212 H 899.929 -0.473552 3.20824 0
M  V30 9213 H 899.714 1.22393 3.72508 0
M  V30 9214 H 901.204 0.33561 4.16249 0
M  V30 9215 N 901.641 -1.19671 1.02551 0
M  V30 9216 C 902.918 -1.85014 0.634771 0
M  V30 9217 C 903.298 -1.91574 -0.886706 0
M  V30 9218 O 902.646 -1.43022 -1.78205 0
M  V30 9219 C 902.856 -3.24167 1.29292 0
M  V30 9220 C 904.204 -4.00363 1.41402 0
M  V30 9221 O 905.228 -3.33553 1.24983 0
M  V30 9222 O 904.087 -5.2003 1.6802 0
M  V30 9223 H 901.181 -0.797147 0.220196 0
M  V30 9224 H 903.727 -1.27188 1.12345 0
M  V30 9225 H 902.499 -3.14208 2.33215 0
M  V30 9226 H 902.122 -3.89634 0.791895 0
M  V30 9227 N 903.119 -0.802921 -1.35613 0
M  V30 9228 C 904.366 -0.381576 -1.98872 0
M  V30 9229 C 904.694 1.0503 -1.63704 0
M  V30 9230 O 903.949 1.7427 -0.890418 0
M  V30 9231 C 904.248 -0.507806 -3.53774 0
M  V30 9232 C 903.914 -1.90245 -4.088 0
M  V30 9233 C 902.576 -2.28401 -4.2354 0
M  V30 9234 C 904.928 -2.81504 -4.3864 0
M  V30 9235 C 902.256 -3.57192 -4.65436 0
M  V30 9236 C 904.608 -4.09737 -4.81973 0
M  V30 9237 C 903.272 -4.47897 -4.94919 0
M  V30 9238 H 902.542 -0.139629 -0.727726 0
M  V30 9239 H 905.189 -1.023 -1.61886 0
M  V30 9240 H 903.494 0.21708 -3.91198 0
M  V30 9241 H 905.191 -0.162625 -4.0067 0
M  V30 9242 H 901.781 -1.596 -3.97776 0
M  V30 9243 H 905.965 -2.53276 -4.26808 0
M  V30 9244 H 901.221 -3.86611 -4.73648 0
M  V30 9245 H 905.395 -4.80555 -5.04024 0
M  V30 9246 H 903.022 -5.47747 -5.27141 0
M  V30 9247 N 904.597 1.47463 -0.556102 0
M  V30 9248 C 905.845 2.02075 -0.0315712 0
M  V30 9249 C 906.166 1.43292 1.32259 0
M  V30 9250 O 905.436 0.60771 1.86236 0
M  V30 9251 H 904.016 0.74695 -0.0086816 0
M  V30 9252 H 906.678 1.80879 -0.725859 0
M  V30 9253 H 905.774 3.12047 0.0573538 0
M  V30 9254 N 906.075 0.2925 1.54862 0
M  V30 9255 C 907.322 -0.319263 1.99967 0
M  V30 9256 C 907.65 -1.54547 1.18092 0
M  V30 9257 O 906.905 -1.94186 0.242969 0
M  V30 9258 C 907.204 -0.728674 3.49893 0
M  V30 9259 C 906.87 0.394836 4.49168 0
M  V30 9260 C 905.532 0.703289 4.76033 0
M  V30 9261 C 907.884 1.15103 5.08331 0
M  V30 9262 C 905.212 1.77121 5.59325 0
M  V30 9263 C 907.564 2.20881 5.92785 0
M  V30 9264 C 906.228 2.52342 6.17964 0
M  V30 9265 H 905.498 -0.116827 0.731733 0
M  V30 9266 H 908.145 0.40983 1.87063 0
M  V30 9267 H 906.45 -1.53772 3.60363 0
M  V30 9268 H 908.147 -1.21305 3.82212 0
M  V30 9269 H 904.737 0.144319 4.28357 0
M  V30 9270 H 908.921 0.92599 4.87585 0
M  V30 9271 H 904.177 2.01978 5.77074 0
M  V30 9272 H 908.351 2.79939 6.37657 0
M  V30 9273 H 905.978 3.35225 6.82296 0
M  V30 9274 N 907.553 -1.57587 0.0200696 0
M  V30 9275 C 908.83 -1.82696 -0.698677 0
M  V30 9276 C 909.21 -0.902082 -1.90855 0
M  V30 9277 O 908.558 0.0444834 -2.28457 0
M  V30 9278 C 908.768 -3.31691 -1.08546 0
M  V30 9279 C 910.116 -3.97938 -1.4809 0
M  V30 9280 O 911.14 -3.36133 -1.17869 0
M  V30 9281 O 909.999 -5.06851 -2.04364 0
M  V30 9282 H 907.093 -0.752997 -0.341942 0
M  V30 9283 H 909.639 -1.69635 0.04706 0
M  V30 9284 H 908.411 -3.90659 -0.223956 0
M  V30 9285 H 908.034 -3.49825 -1.88965 0
M  V30 9286 N 909.032 0.252966 -1.55557 0
M  V30 9287 C 909.962 1.31691 -1.9282 0
M  V30 9288 C 910.943 1.50516 -0.7924 0
M  V30 9289 O 912.128 1.63225 -1.05219 0
M  V30 9290 C 909.258 2.67281 -2.21762 0
M  V30 9291 C 908.212 2.6316 -3.37536 0
M  V30 9292 C 907.538 4.02488 -3.52005 0
M  V30 9293 C 908.838 2.20675 -4.73392 0
M  V30 9294 H 910.532 1.00751 -2.81939 0
M  V30 9295 H 908.078 0.483219 -1.3565 0
M  V30 9296 H 910.031 3.41842 -2.46419 0
M  V30 9297 H 908.755 2.99845 -1.29463 0
M  V30 9298 H 907.414 1.91057 -3.12878 0
M  V30 9299 H 907.062 4.32307 -2.57137 0
M  V30 9300 H 906.762 4.00621 -4.29857 0
M  V30 9301 H 908.286 4.78758 -3.78977 0
M  V30 9302 H 909.7 2.84965 -4.97461 0
M  V30 9303 H 908.097 2.29931 -5.54303 0
M  V30 9304 H 909.167 1.15831 -4.70862 0
M  V30 9305 N 910.51 1.48831 0.518367 0
M  V30 9306 C 911.921 1.50842 1.10016 0
M  V30 9307 C 912.272 0.284744 1.94123 0
M  V30 9308 O 911.397 -0.607088 2.0771 0
M  V30 9309 C 911.992 2.73329 2.00191 0
M  V30 9310 C 910.551 2.78175 2.53566 0
M  V30 9311 C 909.698 2.4452 1.30786 0
M  V30 9312 H 912.649 1.55779 0.303073 0
M  V30 9313 H 912.67 2.52506 2.84642 0
M  V30 9314 H 912.182 3.62374 1.3895 0
M  V30 9315 H 910.283 1.93368 3.18496 0
M  V30 9316 H 910.396 3.79905 2.91906 0
M  V30 9317 H 908.76 1.95924 1.62744 0
M  V30 9318 H 909.543 3.35819 0.712797 0
M  V30 9319 N 911.988 -0.768124 1.37614 0
M  V30 9320 C 913.265 -1.51637 1.23554 0
M  V30 9321 C 913.645 -2.1042 -0.169331 0
M  V30 9322 O 912.993 -1.95834 -1.17735 0
M  V30 9323 C 913.203 -2.59436 2.33439 0
M  V30 9324 C 914.551 -3.2674 2.71157 0
M  V30 9325 O 915.575 -2.69733 2.32642 0
M  V30 9326 O 914.434 -4.29814 3.37524 0
M  V30 9327 H 911.528 -0.671778 0.482332 0
M  V30 9328 H 914.074 -0.804779 1.49403 0
M  V30 9329 H 912.846 -2.14146 3.27502 0
M  V30 9330 H 912.469 -3.38192 2.09073 0
M  V30 9331 N 913.466 -1.22244 -0.994698 0
M  V30 9332 C 914.706 -1.05747 -1.7492 0
M  V30 9333 C 915.07 0.4007 -1.87772 0
M  V30 9334 O 916.271 0.686469 -2.59887 0
M  V30 9335 C 914.542 -1.7471 -3.11787 0
M  V30 9336 S 916.101 -1.73604 -4.02998 0
M  V30 9337 H 912.919 -0.378731 -0.601734 0
M  V30 9338 H 915.521 -1.55155 -1.18942 0
M  V30 9339 H 914.225 -2.79972 -3.00073 0
M  V30 9340 H 913.756 -1.25525 -3.72836 0
M  V30 9341 H 915.771 -0.784445 -4.8996 0
M  V30 9342 N 914.944 1.19125 -1.03184 0
M  V30 9343 C 915.891 2.2245 -0.6152 0
M  V30 9344 C 916.861 1.61869 0.372502 0
M  V30 9345 O 918.046 1.88901 0.268491 0
M  V30 9346 C 915.186 3.45091 0.0248027 0
M  V30 9347 C 914.299 4.20044 -1.0093 0
M  V30 9348 C 913.434 5.30119 -0.338744 0
M  V30 9349 C 912.473 5.96833 -1.35855 0
M  V30 9350 N 911.61 6.98464 -0.713594 0
M  V30 9351 H 916.45 2.57445 -1.50086 0
M  V30 9352 H 913.987 1.26485 -0.751005 0
M  V30 9353 H 915.945 4.15149 0.413131 0
M  V30 9354 H 914.575 3.10742 0.874028 0
M  V30 9355 H 913.627 3.48901 -1.51566 0
M  V30 9356 H 914.939 4.65796 -1.78425 0
M  V30 9357 H 914.093 6.0661 0.104269 0
M  V30 9358 H 912.832 4.85446 0.468382 0
M  V30 9359 H 911.837 5.1909 -1.81179 0
M  V30 9360 H 913.062 6.4359 -2.16722 0
M  V30 9361 H 911.008 6.55959 0.0733863 0
M  V30 9362 H 910.925 7.42422 -1.42638 0
M  V30 9363 H 912.193 7.78943 -0.294681 0
M  V30 9364 N 916.422 0.810101 1.35185 0
M  V30 9365 C 917.385 0.22852 2.28058 0
M  V30 9366 C 918.385 -0.586168 1.49735 0
M  V30 9367 O 919.575 -0.40414 1.69447 0
M  V30 9368 C 916.707 -0.681041 3.34028 0
M  V30 9369 H 917.9 1.04768 2.81005 0
M  V30 9370 H 915.453 0.58101 1.451 0
M  V30 9371 H 916.188 -1.52375 2.86273 0
M  V30 9372 H 915.973 -0.0985276 3.91976 0
M  V30 9373 H 917.463 -1.08217 4.03335 0
M  V30 9374 N 917.9 -1.47166 0.563914 0
M  V30 9375 C 919.316 -1.58018 0.224173 0
M  V30 9376 C 919.516 -1.56163 -1.27339 0
M  V30 9377 O 918.572 -1.4686 -2.05398 0
M  V30 9378 C 919.885 -2.88236 0.856762 0
M  V30 9379 C 921.433 -3.01833 0.82861 0
M  V30 9380 C 921.908 -4.34761 1.44039 0
M  V30 9381 N 923.399 -4.41413 1.40388 0
M  V30 9382 C 924.134 -5.42845 1.84681 0
M  V30 9383 N 923.63 -6.51052 2.3686 0
M  V30 9384 N 925.423 -5.33931 1.75711 0
M  V30 9385 H 917.574 -1.46615 1.53681 0
M  V30 9386 H 919.837 -0.698195 0.64127 0
M  V30 9387 H 919.543 -2.95349 1.90949 0
M  V30 9388 H 919.417 -3.75537 0.353766 0
M  V30 9389 H 921.804 -2.94312 -0.215451 0
M  V30 9390 H 921.885 -2.16056 1.36943 0
M  V30 9391 H 921.529 -4.43037 2.48355 0
M  V30 9392 H 921.459 -5.1928 0.874953 0
M  V30 9393 H 923.95 -3.63811 1.02227 0
M  V30 9394 H 924.263 -7.24633 2.68564 0
M  V30 9395 H 922.608 -6.51924 2.40875 0
M  V30 9396 H 925.799 -4.48295 1.34718 0
M  V30 9397 H 925.972 -6.12841 2.10547 0
M  V30 9398 N 919.378 -0.300708 -1.54705 0
M  V30 9399 C 920.325 0.57552 -2.23509 0
M  V30 9400 C 921.295 1.12979 -1.21758 0
M  V30 9401 O 922.48 1.17437 -1.50377 0
M  V30 9402 C 919.62 1.74167 -2.97926 0
M  V30 9403 C 918.733 1.21882 -4.1445 0
M  V30 9404 C 917.868 2.34881 -4.7645 0
M  V30 9405 C 916.907 1.79729 -5.85119 0
M  V30 9406 N 916.044 2.863 -6.41075 0
M  V30 9407 H 920.884 -0.0178257 -2.97995 0
M  V30 9408 H 918.421 -0.0205666 -1.47086 0
M  V30 9409 H 920.379 2.42753 -3.39303 0
M  V30 9410 H 919.009 2.30665 -2.25817 0
M  V30 9411 H 918.061 0.425227 -3.78016 0
M  V30 9412 H 919.373 0.775065 -4.92741 0
M  V30 9413 H 918.527 3.11415 -5.20678 0
M  V30 9414 H 917.266 2.82584 -3.97489 0
M  V30 9415 H 916.271 1.01684 -5.40315 0
M  V30 9416 H 917.496 1.32931 -6.65963 0
M  V30 9417 H 915.442 3.33337 -5.64998 0
M  V30 9418 H 915.359 2.46419 -7.14712 0
M  V30 9419 H 916.627 3.62732 -6.89961 0
M  V30 9420 N 920.856 1.57574 -0.0284266 0
M  V30 9421 C 921.788 2.07079 0.982391 0
M  V30 9422 C 922.801 0.994078 1.28926 0
M  V30 9423 O 923.99 1.27028 1.25404 0
M  V30 9424 C 921.09 2.47978 2.30998 0
M  V30 9425 C 920.263 3.7872 2.18838 0
M  V30 9426 C 919.322 4.06177 3.34524 0
M  V30 9427 O 918.348 4.76438 3.11441 0
M  V30 9428 N 919.55 3.56297 4.58293 0
M  V30 9429 H 922.315 2.94421 0.560011 0
M  V30 9430 H 919.876 1.61124 0.158347 0
M  V30 9431 H 921.868 2.63439 3.07216 0
M  V30 9432 H 920.438 1.66005 2.64879 0
M  V30 9433 H 919.658 3.73062 1.27351 0
M  V30 9434 H 920.946 4.6438 2.07915 0
M  V30 9435 H 920.344 2.99453 4.79942 0
M  V30 9436 H 918.901 3.77038 5.31682 0
M  V30 9437 N 922.334 -0.244713 1.55689 0
M  V30 9438 C 923.745 -0.813603 1.6804 0
M  V30 9439 C 924.096 -1.85936 0.626281 0
M  V30 9440 O 923.221 -2.15206 -0.227038 0
M  V30 9441 C 923.816 -1.48252 3.04642 0
M  V30 9442 C 922.375 -1.99908 3.18926 0
M  V30 9443 C 921.522 -0.850958 2.6392 0
M  V30 9444 H 924.473 -0.0204805 1.58687 0
M  V30 9445 H 924.494 -2.35062 2.99209 0
M  V30 9446 H 924.006 -0.721164 3.81341 0
M  V30 9447 H 922.107 -2.78918 2.47054 0
M  V30 9448 H 922.22 -2.19497 4.25862 0
M  V30 9449 H 920.584 -1.25206 2.21801 0
M  V30 9450 H 921.367 -0.10265 3.43146 0
M  V30 9451 N 923.813 -1.49104 -0.510467 0
M  V30 9452 C 925.062 -1.57362 -1.26175 0
M  V30 9453 C 925.375 -0.261218 -1.93848 0
M  V30 9454 O 926.581 -0.222238 -2.70589 0
M  V30 9455 C 925.037 -2.77606 -2.29048 0
M  V30 9456 C 924.645 -4.15567 -1.67357 0
M  V30 9457 C 926.389 -2.95188 -3.05064 0
M  V30 9458 C 924.296 -5.27046 -2.68285 0
M  V30 9459 H 923.226 -0.585887 -0.474608 0
M  V30 9460 H 925.877 -1.75474 -0.536753 0
M  V30 9461 H 924.259 -2.52968 -3.04669 0
M  V30 9462 H 925.433 -4.50304 -0.977924 0
M  V30 9463 H 923.748 -4.03264 -1.03765 0
M  V30 9464 H 926.345 -3.75643 -3.80521 0
M  V30 9465 H 926.688 -2.05385 -3.62108 0
M  V30 9466 H 927.221 -3.19821 -2.36558 0
M  V30 9467 H 923.96 -6.18878 -2.16034 0
M  V30 9468 H 923.48 -4.96774 -3.36118 0
M  V30 9469 H 925.159 -5.55983 -3.30896 0
M  V30 9470 N 925.291 0.760815 -1.38019 0
M  V30 9471 C 926.238 1.8744 -1.34666 0
M  V30 9472 C 927.208 1.64762 -0.210386 0
M  V30 9473 O 928.393 1.86528 -0.401479 0
M  V30 9474 C 925.533 3.24648 -1.17037 0
M  V30 9475 C 924.646 3.59206 -2.3999 0
M  V30 9476 C 923.781 4.8568 -2.15148 0
M  V30 9477 C 922.82 5.13002 -3.3391 0
M  V30 9478 N 921.957 6.30668 -3.08549 0
M  V30 9479 H 926.797 1.8964 -2.29871 0
M  V30 9480 H 924.334 0.927004 -1.14215 0
M  V30 9481 H 926.292 4.03814 -1.04834 0
M  V30 9482 H 924.922 3.21793 -0.254758 0
M  V30 9483 H 923.974 2.74939 -2.62893 0
M  V30 9484 H 925.286 3.75328 -3.28527 0
M  V30 9485 H 924.44 5.72773 -2.00039 0
M  V30 9486 H 923.179 4.71682 -1.23965 0
M  V30 9487 H 922.184 4.2438 -3.49545 0
M  V30 9488 H 923.409 5.28901 -4.25958 0
M  V30 9489 H 921.355 6.18008 -2.20006 0
M  V30 9490 H 921.272 6.47257 -3.90633 0
M  V30 9491 H 922.54 7.20669 -2.9708 0
M  V30 9492 N 926.769 1.22769 0.988202 0
M  V30 9493 C 927.679 1.01844 2.11341 0
M  V30 9494 C 928.695 -0.0346937 1.73965 0
M  V30 9495 O 929.871 0.159061 2.00771 0
M  V30 9496 C 926.936 0.603837 3.41401 0
M  V30 9497 C 925.997 1.73113 3.92849 0
M  V30 9498 C 925.23 1.33621 5.16702 0
M  V30 9499 O 925.453 0.217041 5.69987 0
M  V30 9500 O 924.387 2.15444 5.62021 0
M  V30 9501 H 928.213 1.96127 2.31879 0
M  V30 9502 H 925.798 1.01405 1.09715 0
M  V30 9503 H 927.68 0.383196 4.19654 0
M  V30 9504 H 926.355 -0.310082 3.22211 0
M  V30 9505 H 925.262 2.00634 3.15748 0
M  V30 9506 H 926.595 2.62308 4.1648 0
M  V30 9507 N 928.247 -1.18576 1.03814 0
M  V30 9508 C 929.157 -2.25778 0.637311 0
M  V30 9509 C 930.173 -1.7074 -0.335248 0
M  V30 9510 O 931.349 -2.00494 -0.19081 0
M  V30 9511 C 928.414 -3.467 0.00386953 0
M  V30 9512 C 927.475 -4.16881 1.02511 0
M  V30 9513 C 926.708 -5.32031 0.421802 0
M  V30 9514 O 926.931 -5.65142 -0.772699 0
M  V30 9515 O 925.865 -5.90826 1.14925 0
M  V30 9516 H 929.691 -2.62323 1.53037 0
M  V30 9517 H 927.276 -1.25609 0.80887 0
M  V30 9518 H 929.158 -4.19953 -0.348873 0
M  V30 9519 H 927.833 -3.11983 -0.863047 0
M  V30 9520 H 926.74 -3.45707 1.4296 0
M  V30 9521 H 928.073 -4.55592 1.86271 0
M  V30 9522 N 929.725 -0.817259 -1.34754 0
M  V30 9523 C 930.972 -0.402648 -1.98457 0
M  V30 9524 C 931.3 1.03287 -1.64809 0
M  V30 9525 O 930.555 1.73316 -0.908851 0
M  V30 9526 C 930.854 -0.5453 -3.53216 0
M  V30 9527 C 930.52 -1.9457 -4.06759 0
M  V30 9528 C 929.182 -2.32881 -4.21094 0
M  V30 9529 C 931.534 -2.86141 -4.35629 0
M  V30 9530 C 928.862 -3.62108 -4.61622 0
M  V30 9531 C 931.214 -4.14826 -4.776 0
M  V30 9532 C 929.878 -4.53121 -4.9014 0
M  V30 9533 H 929.148 -0.147339 -0.726204 0
M  V30 9534 H 931.795 -1.04011 -1.60791 0
M  V30 9535 H 930.1 0.175576 -3.91406 0
M  V30 9536 H 931.797 -0.205112 -4.00475 0
M  V30 9537 H 928.387 -1.6381 -3.96061 0
M  V30 9538 H 932.571 -2.57788 -4.24098 0
M  V30 9539 H 927.827 -3.91613 -4.69521 0
M  V30 9540 H 932.001 -4.85874 -4.98899 0
M  V30 9541 H 929.628 -5.53307 -5.21302 0
M  V30 9542 N 931.203 1.46865 -0.571711 0
M  V30 9543 C 932.431 2.06818 -0.0583975 0
M  V30 9544 C 932.846 1.42218 1.24175 0
M  V30 9545 O 932.203 0.523655 1.74826 0
M  V30 9546 C 932.254 3.61281 0.125673 0
M  V30 9547 O 931.975 4.23462 -1.123 0
M  V30 9548 C 933.476 4.38137 0.674604 0
M  V30 9549 H 930.696 0.668948 -0.052438 0
M  V30 9550 H 933.24 1.88656 -0.789251 0
M  V30 9551 H 931.395 3.78908 0.806707 0
M  V30 9552 H 931.809 5.16192 -0.929869 0
M  V30 9553 H 933.283 5.46845 0.752626 0
M  V30 9554 H 933.76 4.05419 1.68915 0
M  V30 9555 H 934.366 4.2529 0.0287979 0
M  V30 9556 N 932.681 0.308908 1.54543 0
M  V30 9557 C 933.591 -0.572939 2.27496 0
M  V30 9558 C 934.607 -1.14171 1.31305 0
M  V30 9559 O 935.783 -1.16481 1.64299 0
M  V30 9560 C 932.848 -1.72483 3.0075 0
M  V30 9561 C 931.909 -1.18934 4.12496 0
M  V30 9562 C 931.142 -2.28634 4.82247 0
M  V30 9563 O 931.365 -3.48691 4.5141 0
M  V30 9564 O 930.299 -1.94879 5.69478 0
M  V30 9565 H 934.125 0.0190877 3.03694 0
M  V30 9566 H 931.71 0.0750943 1.49211 0
M  V30 9567 H 933.592 -2.39578 3.46671 0
M  V30 9568 H 932.267 -2.30332 2.2744 0
M  V30 9569 H 931.174 -0.483904 3.70957 0
M  V30 9570 H 932.507 -0.656185 4.87806 0
M  V30 9571 N 934.159 -1.57557 0.0367827 0
M  V30 9572 C 935.122 -2.09591 -0.927589 0
M  V30 9573 C 936.122 -1.01252 -1.24919 0
M  V30 9574 O 937.312 -1.27382 -1.18825 0
M  V30 9575 C 934.444 -2.56816 -2.24184 0
M  V30 9576 H 935.637 -2.96086 -0.476784 0
M  V30 9577 H 933.19 -1.54864 -0.211385 0
M  V30 9578 H 933.925 -1.73673 -2.73876 0
M  V30 9579 H 933.71 -3.35973 -2.0215 0
M  V30 9580 H 935.2 -2.97271 -2.93291 0
M  V30 9581 N 935.637 0.236453 -1.55816 0
M  V30 9582 C 936.547 1.31418 -1.94336 0
M  V30 9583 C 937.563 1.52095 -0.845164 0
M  V30 9584 O 938.739 1.65515 -1.14746 0
M  V30 9585 C 935.804 2.6468 -2.23932 0
M  V30 9586 C 934.865 2.52435 -3.47239 0
M  V30 9587 C 934.098 3.79342 -3.75414 0
M  V30 9588 O 934.321 4.81694 -3.05495 0
M  V30 9589 O 933.255 3.77347 -4.68927 0
M  V30 9590 H 937.081 1.01739 -2.86152 0
M  V30 9591 H 934.666 0.438084 -1.42833 0
M  V30 9592 H 936.548 3.4341 -2.44228 0
M  V30 9593 H 935.223 2.94071 -1.35292 0
M  V30 9594 H 934.13 1.71955 -3.32238 0
M  V30 9595 H 935.463 2.27987 -4.36214 0
M  V30 9596 N 937.115 1.49373 0.502552 0
M  V30 9597 C 938.364 1.58028 1.25339 0
M  V30 9598 C 938.677 0.271494 1.93707 0
M  V30 9599 O 939.883 0.236584 2.70467 0
M  V30 9600 C 938.339 2.78817 2.27572 0
M  V30 9601 C 937.947 4.16448 1.65151 0
M  V30 9602 C 939.691 2.96802 3.03494 0
M  V30 9603 C 937.598 5.28461 2.65486 0
M  V30 9604 H 936.528 0.588396 0.471494 0
M  V30 9605 H 939.179 1.75756 0.52744 0
M  V30 9606 H 937.561 2.5458 3.03323 0
M  V30 9607 H 938.735 4.50816 0.954029 0
M  V30 9608 H 937.05 4.03809 1.01625 0
M  V30 9609 H 939.647 3.77656 3.78524 0
M  V30 9610 H 939.99 2.07303 3.61014 0
M  V30 9611 H 940.523 3.21071 2.34858 0
M  V30 9612 H 937.262 6.20015 2.12749 0
M  V30 9613 H 936.782 4.9855 3.33479 0
M  V30 9614 H 938.461 5.5773 3.27943 0
M  V30 9615 N 938.594 -0.753485 1.38421 0
M  V30 9616 C 939.544 -1.85788 1.32162 0
M  V30 9617 C 940.528 -1.59577 0.20588 0
M  V30 9618 O 941.72 -1.71396 0.44186 0
M  V30 9619 C 938.849 -3.23498 1.14909 0
M  V30 9620 C 937.935 -3.556 2.31105 0
M  V30 9621 N 938.326 -3.58759 3.56547 0
M  V30 9622 C 936.624 -3.85866 2.23659 0
M  V30 9623 C 937.325 -3.8813 4.33278 0
M  V30 9624 N 936.301 -4.04966 3.62635 0
M  V30 9625 H 940.103 -1.86509 2.27138 0
M  V30 9626 H 937.617 -0.950843 1.31654 0
M  V30 9627 H 939.614 -4.02531 1.08509 0
M  V30 9628 H 938.274 -3.24029 0.20866 0
M  V30 9629 H 939.285 -3.40517 3.90216 0
M  V30 9630 H 935.962 -3.94112 1.37776 0
M  V30 9631 H 937.352 -3.97197 5.41926 0
M  V30 9632 O 940.111 -1.34493 -0.894081 0
M  V30 9633 H 940.802 -1.18777 -1.53009 0
M  V30 END ATOM
M  V30 BEGIN BOND
M  V30 END BOND
M  V30 END CTAB
M  END
$$$$
