drugbank_target|O15304 Apoptosis regulatory protein Siva (DB01593; DB14487; DB14533; DB14548)
 OpenBabel12092121033D

  0  0  0     0  0            999 V3000
M  V30 BEGIN CTAB
M  V30 COUNTS 2588 2610 0 0 0
M  V30 BEGIN ATOM
M  V30 1 H -0.908 1.98254 -0.117106 0
M  V30 2 N 0 1.576 0 0
M  V30 3 C 0.933 2.03868 1.02534 0
M  V30 4 C 1.911 0.928543 1.3348 0
M  V30 5 O 3.095 1.19667 1.45644 0
M  V30 6 C 0.222 2.43627 2.35294 0
M  V30 7 C -0.732 3.65373 2.2001 0
M  V30 8 S 0.101 5.13292 1.52614 0
M  V30 9 C 1.257 5.56322 2.86805 0
M  V30 10 H 1.49 2.90518 0.631377 0
M  V30 11 H -0.977 1.52953 0.210867 0
M  V30 12 H 0.981 2.67203 3.11629 0
M  V30 13 H -0.358 1.57376 2.7183 0
M  V30 14 H -1.165 3.90944 3.18086 0
M  V30 15 H -1.563 3.418 1.51819 0
M  V30 16 H 0.729 5.58782 3.83104 0
M  V30 17 H 1.672 6.56266 2.65933 0
M  V30 18 H 2.08 4.83886 2.90714 0
M  V30 19 N 1.4781 -0.272755 1.55222 0
M  V30 20 C 2.8891 -0.84378 1.66545 0
M  V30 21 C 3.2401 -1.87035 0.592641 0
M  V30 22 O 2.3651 -2.14761 -0.265818 0
M  V30 23 C 2.9601 -1.53723 3.01918 0
M  V30 24 C 1.5191 -2.05628 3.15268 0
M  V30 25 C 0.6661 -0.898424 2.62343 0
M  V30 26 H 3.6171 -0.0490998 1.58624 0
M  V30 27 H 3.6381 -2.40421 2.94921 0
M  V30 28 H 3.1501 -0.78983 3.79978 0
M  V30 29 H 1.2511 -2.83329 2.41983 0
M  V30 30 H 1.3641 -2.27142 4.21833 0
M  V30 31 H -0.2719 -1.29186 2.19506 0
M  V30 32 H 0.5111 -0.164528 3.42906 0
M  V30 33 N 2.9562 -1.48159 -0.537278 0
M  V30 34 C 3.9032 -1.62138 -1.64256 0
M  V30 35 C 4.8732 -0.463668 -1.59497 0
M  V30 36 O 6.0582 -0.686241 -1.78032 0
M  V30 37 C 3.1982 -1.66028 -3.02537 0
M  V30 38 C 2.3112 -2.92855 -3.17585 0
M  V30 39 C 1.4462 -2.87952 -4.46382 0
M  V30 40 C 0.4852 -4.09516 -4.54932 0
M  V30 41 N -0.3778 -4.02733 -5.75109 0
M  V30 42 H 4.4622 -2.56529 -1.51647 0
M  V30 43 H 1.9992 -1.27224 -0.738414 0
M  V30 44 H 3.9572 -1.66265 -3.82638 0
M  V30 45 H 2.5872 -0.751331 -3.13934 0
M  V30 46 H 1.6392 -3.02395 -2.30784 0
M  V30 47 H 2.9512 -3.82822 -3.19764 0
M  V30 48 H 2.1052 -2.8655 -5.34765 0
M  V30 49 H 0.8442 -1.95702 -4.46712 0
M  V30 50 H -0.1508 -4.11201 -3.64957 0
M  V30 51 H 1.0742 -5.02917 -4.56346 0
M  V30 52 H -0.9798 -3.13299 -5.76351 0
M  V30 53 H -1.0628 -4.86397 -5.78752 0
M  V30 54 H 0.2052 -4.05379 -6.65799 0
M  V30 55 N 4.4343 0.785586 -1.36625 0
M  V30 56 C 5.8503 1.08419 -1.17122 0
M  V30 57 C 6.0503 2.015 0.00208491 0
M  V30 58 O 5.1063 2.43551 0.666278 0
M  V30 59 C 6.4193 1.69498 -2.48377 0
M  V30 60 C 7.9673 1.81821 -2.54775 0
M  V30 61 C 8.4423 2.46315 -3.86126 0
M  V30 62 N 9.9333 2.53779 -3.87492 0
M  V30 63 C 10.6683 3.045 -4.85868 0
M  V30 64 N 10.1643 3.55499 -5.94637 0
M  V30 65 N 11.9573 3.03247 -4.73284 0
M  V30 66 H 4.1083 0.167264 -2.1174 0
M  V30 67 H 6.3713 0.13682 -0.938075 0
M  V30 68 H 6.0773 1.08571 -3.34522 0
M  V30 69 H 5.9513 2.6896 -2.64462 0
M  V30 70 H 8.3383 2.41884 -1.69045 0
M  V30 71 H 8.4193 0.811532 -2.42586 0
M  V30 72 H 8.0633 1.86895 -4.72263 0
M  V30 73 H 7.9933 3.47561 -3.95612 0
M  V30 74 H 10.4843 2.17672 -3.08913 0
M  V30 75 H 10.7973 3.92562 -6.65669 0
M  V30 76 H 9.1423 3.5364 -5.98301 0
M  V30 77 H 12.3333 2.62696 -3.87438 0
M  V30 78 H 12.5063 3.42467 -5.50109 0
M  V30 79 N 5.9124 1.20967 1.01018 0
M  V30 80 C 7.1374 1.0503 1.78839 0
M  V30 81 C 7.5624 -0.395752 1.8389 0
M  V30 82 O 6.9204 -1.28529 1.27867 0
M  V30 83 C 6.9684 1.64602 3.2084 0
M  V30 84 O 6.0724 0.887988 4.02726 0
M  V30 85 H 5.4134 0.369987 0.551367 0
M  V30 86 H 7.9434 1.60399 1.27018 0
M  V30 87 H 7.9534 1.68607 3.71532 0
M  V30 88 H 6.6284 2.69841 3.16479 0
M  V30 89 H 5.2054 0.922648 3.61305 0
M  V30 90 N 7.3905 -1.2043 1.01659 0
M  V30 91 C 8.6305 -1.91507 0.714456 0
M  V30 92 C 8.9945 -1.77073 -0.742237 0
M  V30 93 O 10.1955 -2.42631 -1.15688 0
M  V30 94 C 8.4665 -3.38795 1.13809 0
M  V30 95 S 10.0255 -4.28216 0.957925 0
M  V30 96 H 6.8435 -0.661571 0.260471 0
M  V30 97 H 9.4455 -1.45671 1.30384 0
M  V30 98 H 8.1495 -3.46822 2.19415 0
M  V30 99 H 7.6805 -3.89656 0.541474 0
M  V30 100 H 9.6955 -4.96007 -0.138531 0
M  V30 101 N 8.8686 -0.792821 -1.36206 0
M  V30 102 C 10.2796 -0.429513 -1.81692 0
M  V30 103 C 10.6306 1.04695 -1.65932 0
M  V30 104 O 9.7556 1.81256 -1.18218 0
M  V30 105 C 10.3506 -0.772831 -3.29868 0
M  V30 106 C 8.9096 -0.462307 -3.7355 0
M  V30 107 C 8.0566 -1.00569 -2.5842 0
M  V30 108 H 11.0076 -0.985672 -1.24379 0
M  V30 109 H 11.0286 -0.0651928 -3.80444 0
M  V30 110 H 10.5406 -1.84747 -3.41307 0
M  V30 111 H 8.6416 0.604158 -3.67669 0
M  V30 112 H 8.7546 -0.985299 -4.68859 0
M  V30 113 H 7.1186 -0.428734 -2.51066 0
M  V30 114 H 7.9016 -2.08616 -2.72643 0
M  V30 115 N 10.3467 1.47872 -0.545128 0
M  V30 116 C 11.5937 2.02493 -0.0165858 0
M  V30 117 C 11.9217 1.42073 1.32836 0
M  V30 118 O 11.1767 0.561459 1.87473 0
M  V30 119 C 11.4757 3.57131 0.13867 0
M  V30 120 C 11.1417 4.36411 -1.13384 0
M  V30 121 C 9.8037 4.57792 -1.48256 0
M  V30 122 C 12.1557 4.82223 -1.97764 0
M  V30 123 C 9.4837 5.22233 -2.67376 0
M  V30 124 C 11.8357 5.47977 -3.16076 0
M  V30 125 C 10.4997 5.67593 -3.51275 0
M  V30 126 H 9.7697 0.740975 -0.00606918 0
M  V30 127 H 12.4167 1.77683 -0.714207 0
M  V30 128 H 10.7217 3.80865 0.919172 0
M  V30 129 H 12.4187 3.97031 0.562782 0
M  V30 130 H 9.0087 4.2004 -0.852297 0
M  V30 131 H 13.1927 4.65493 -1.72132 0
M  V30 132 H 8.4487 5.35616 -2.94831 0
M  V30 133 H 12.6227 5.8244 -3.81755 0
M  V30 134 H 10.2497 6.17298 -4.43675 0
M  V30 135 N 11.8248 0.280983 1.55075 0
M  V30 136 C 12.7878 -0.590896 2.21452 0
M  V30 137 C 13.7878 -1.07682 1.19421 0
M  V30 138 O 14.9778 -0.97605 1.44288 0
M  V30 139 C 12.1098 -1.81587 2.88511 0
M  V30 140 H 13.3028 -0.0112554 2.99898 0
M  V30 141 H 10.8558 0.0316438 1.56268 0
M  V30 142 H 11.5908 -2.43587 2.14093 0
M  V30 143 H 11.3758 -1.4753 3.63287 0
M  V30 144 H 12.8658 -2.43575 3.39206 0
M  V30 145 N 13.3029 -1.57598 0.00835791 0
M  V30 146 C 14.5799 -1.82172 -0.712235 0
M  V30 147 C 14.9599 -0.887873 -1.9152 0
M  V30 148 O 14.3079 0.06146 -2.28417 0
M  V30 149 C 14.5179 -3.30875 -1.11008 0
M  V30 150 C 15.8659 -3.96826 -1.51044 0
M  V30 151 O 16.8899 -3.35248 -1.20364 0
M  V30 152 O 15.7489 -5.05318 -2.08125 0
M  V30 153 H 12.8429 -0.750435 -0.347529 0
M  V30 154 H 15.3889 -1.69665 0.0344523 0
M  V30 155 H 14.1609 -3.90481 -0.252982 0
M  V30 156 H 13.7839 -3.48412 -1.9156 0
M  V30 157 N 14.781 0.264519 -1.55364 0
M  V30 158 C 16.027 0.99646 -1.76631 0
M  V30 159 C 16.36 1.85632 -0.570478 0
M  V30 160 O 15.635 1.89647 0.43175 0
M  V30 161 C 15.918 1.87187 -3.07625 0
M  V30 162 C 15.771 1.04138 -4.37579 0
M  V30 163 C 17.09 2.85749 -3.34717 0
M  V30 164 H 14.209 0.360841 -0.642622 0
M  V30 165 H 16.851 0.268218 -1.88097 0
M  V30 166 H 15.001 2.49279 -2.9798 0
M  V30 167 H 16.673 0.440517 -4.59192 0
M  V30 168 H 14.916 0.345115 -4.32425 0
M  V30 169 H 15.587 1.68729 -5.2558 0
M  V30 170 H 18.063 2.33793 -3.4421 0
M  V30 171 H 16.939 3.44136 -4.27623 0
M  V30 172 H 17.2 3.61311 -2.54768 0
M  V30 173 N 16.2591 1.48442 0.529413 0
M  V30 174 C 17.2221 1.62524 1.61612 0
M  V30 175 C 18.2221 0.498509 1.52877 0
M  V30 176 O 19.4121 0.76431 1.56537 0
M  V30 177 C 16.5441 1.59597 3.01233 0
M  V30 178 H 17.7371 2.59423 1.50465 0
M  V30 179 H 15.2901 1.37047 0.751514 0
M  V30 180 H 16.0251 0.641781 3.17886 0
M  V30 181 H 15.8101 2.41397 3.08982 0
M  V30 182 H 17.3001 1.72646 3.80241 0
M  V30 183 N 17.7372 -0.778329 1.37039 0
M  V30 184 C 19.1482 -1.35421 1.28523 0
M  V30 185 C 19.4992 -1.96075 -0.0700901 0
M  V30 186 O 18.6242 -1.93352 -0.971801 0
M  V30 187 C 19.2192 -2.46211 2.32735 0
M  V30 188 C 17.7782 -2.99585 2.27873 0
M  V30 189 C 16.9252 -1.72748 2.16918 0
M  V30 190 H 19.8762 -0.5791 1.47757 0
M  V30 191 H 19.8972 -3.2552 1.9702 0
M  V30 192 H 19.4092 -2.02036 3.31365 0
M  V30 193 H 17.5102 -3.48152 1.32745 0
M  V30 194 H 17.6232 -3.55646 3.21018 0
M  V30 195 H 15.9872 -1.95416 1.63354 0
M  V30 196 H 16.7702 -1.30686 3.17452 0
M  V30 197 N 19.2153 -1.21501 -1.00376 0
M  V30 198 C 20.1453 -0.999478 -2.11028 0
M  V30 199 C 21.1263 0.0759671 -1.6993 0
M  V30 200 O 22.3113 -0.0841106 -1.94018 0
M  V30 201 C 19.4413 -0.564709 -3.42678 0
M  V30 202 C 18.3953 -1.58486 -3.97576 0
M  V30 203 C 17.7213 -1.00628 -5.25146 0
M  V30 204 C 19.0213 -2.97204 -4.29496 0
M  V30 205 H 20.7153 -1.92495 -2.29317 0
M  V30 206 H 18.2613 -0.92693 -1.102 0
M  V30 207 H 20.2143 -0.401091 -4.19487 0
M  V30 208 H 18.9383 0.396411 -3.24185 0
M  V30 209 H 17.5973 -1.73606 -3.22888 0
M  V30 210 H 17.2453 -0.0368439 -5.02987 0
M  V30 211 H 16.9453 -1.68771 -5.62841 0
M  V30 212 H 18.4693 -0.854015 -6.04598 0
M  V30 213 H 19.8833 -2.8552 -4.97143 0
M  V30 214 H 18.2803 -3.62372 -4.78338 0
M  V30 215 H 19.3503 -3.47956 -3.3772 0
M  V30 216 N 20.6934 1.19889 -1.02296 0
M  V30 217 C 21.6254 2.22334 -0.556787 0
M  V30 218 C 22.6384 1.58674 0.364199 0
M  V30 219 O 23.8274 1.77768 0.161533 0
M  V30 220 C 20.9274 3.38257 0.208694 0
M  V30 221 C 20.1004 4.31504 -0.71577 0
M  V30 222 C 19.1594 5.262 0.00325597 0
M  V30 223 O 18.1854 5.65798 -0.621357 0
M  V30 224 N 19.3874 5.66303 1.27599 0
M  V30 225 H 22.1524 2.62957 -1.43784 0
M  V30 226 H 19.7134 1.34495 -0.901261 0
M  V30 227 H 21.7054 3.98616 0.699111 0
M  V30 228 H 20.2754 2.96472 0.991102 0
M  V30 229 H 19.4954 3.69016 -1.38638 0
M  V30 230 H 20.7834 4.9072 -1.34428 0
M  V30 231 H 20.1814 5.36155 1.80429 0
M  V30 232 H 18.7384 6.28942 1.71102 0
M  V30 233 N 22.1715 0.800033 1.35784 0
M  V30 234 C 23.1015 0.220184 2.3246 0
M  V30 235 C 24.0825 -0.65073 1.57161 0
M  V30 236 O 25.2675 -0.582359 1.85263 0
M  V30 237 C 22.3975 -0.637353 3.41402 0
M  V30 238 C 21.3515 0.134531 4.27789 0
M  V30 239 C 20.6775 -0.844285 5.27992 0
M  V30 240 C 21.9775 1.32979 5.05088 0
M  V30 241 H 23.6715 1.02787 2.81203 0
M  V30 242 H 21.2175 0.495717 1.35199 0
M  V30 243 H 23.1705 -1.05302 4.08031 0
M  V30 244 H 21.8945 -1.47785 2.91251 0
M  V30 245 H 20.5535 0.531296 3.6273 0
M  V30 246 H 20.2015 -1.68011 4.74111 0
M  V30 247 H 19.9015 -0.332184 5.8666 0
M  V30 248 H 21.4255 -1.2583 5.97494 0
M  V30 249 H 22.8395 0.98934 5.64699 0
M  V30 250 H 21.2365 1.77593 5.7322 0
M  V30 251 H 22.3065 2.11978 4.36111 0
M  V30 252 N 23.6496 -1.47581 0.552962 0
M  V30 253 C 24.5966 -2.29957 -0.197108 0
M  V30 254 C 25.5666 -1.38799 -0.912359 0
M  V30 255 O 26.7516 -1.67761 -0.908888 0
M  V30 256 C 23.8916 -3.22672 -1.22379 0
M  V30 257 C 23.0046 -4.28919 -0.515038 0
M  V30 258 C 22.1396 -5.0879 -1.52664 0
M  V30 259 C 21.1786 -6.06815 -0.802631 0
M  V30 260 N 20.3156 -6.7966 -1.76086 0
M  V30 261 H 25.1556 -2.93578 0.511486 0
M  V30 262 H 22.6926 -1.4471 0.264067 0
M  V30 263 H 24.6506 -3.74845 -1.83159 0
M  V30 264 H 23.2806 -2.60925 -1.90047 0
M  V30 265 H 22.3326 -3.79835 0.207192 0
M  V30 266 H 23.6446 -4.98773 0.0523425 0
M  V30 267 H 22.7986 -5.65091 -2.20809 0
M  V30 268 H 21.5376 -4.38828 -2.12794 0
M  V30 269 H 20.5426 -5.49695 -0.107238 0
M  V30 270 H 21.7676 -6.78784 -0.207135 0
M  V30 271 H 19.7136 -6.12432 -2.35081 0
M  V30 272 H 19.6306 -7.45669 -1.24552 0
M  V30 273 H 20.8986 -7.40538 -2.43359 0
M  V30 274 N 25.1277 -0.289203 -1.54924 0
M  V30 275 C 26.3737 0.323998 -2.00195 0
M  V30 276 C 26.7067 1.54441 -1.17735 0
M  V30 277 O 25.9817 1.92875 -0.250878 0
M  V30 278 C 26.2647 0.692276 -3.53383 0
M  V30 279 C 26.1177 -0.536457 -4.46589 0
M  V30 280 C 27.4367 1.52335 -4.12895 0
M  V30 281 H 24.5557 0.116289 -0.727768 0
M  V30 282 H 27.1977 -0.398954 -1.85764 0
M  V30 283 H 25.3477 1.30822 -3.65811 0
M  V30 284 H 27.0197 -1.17499 -4.46085 0
M  V30 285 H 25.2627 -1.17192 -4.1767 0
M  V30 286 H 25.9337 -0.234806 -5.515 0
M  V30 287 H 28.4097 1.00302 -4.0383 0
M  V30 288 H 27.2857 1.74982 -5.20262 0
M  V30 289 H 27.5467 2.50886 -3.64018 0
M  V30 290 N 26.6058 1.57591 -0.0167156 0
M  V30 291 C 28.0218 1.55946 0.339557 0
M  V30 292 C 28.2218 1.02109 1.73713 0
M  V30 293 O 27.2778 0.662303 2.43659 0
M  V30 294 C 28.5908 3.00037 0.199499 0
M  V30 295 C 30.1388 3.11805 0.273193 0
M  V30 296 C 30.6138 4.57713 0.162068 0
M  V30 297 N 32.1048 4.6268 0.219444 0
M  V30 298 C 32.8398 5.73185 0.157054 0
M  V30 299 N 32.3358 6.92786 0.0442936 0
M  V30 300 N 34.1288 5.61707 0.21014 0
M  V30 301 H 26.2798 1.90921 -0.930758 0
M  V30 302 H 28.5428 0.877674 -0.358319 0
M  V30 303 H 28.2488 3.4333 -0.76273 0
M  V30 304 H 28.1228 3.64387 0.974786 0
M  V30 305 H 30.5098 2.68433 1.22587 0
M  V30 306 H 30.5908 2.50201 -0.532256 0
M  V30 307 H 30.2348 5.01763 -0.78714 0
M  V30 308 H 30.1648 5.17283 0.986222 0
M  V30 309 H 32.6558 3.76649 0.307246 0
M  V30 310 H 32.9688 7.728 0.00304069 0
M  V30 311 H 31.3138 6.94999 0.00968457 0
M  V30 312 H 34.5048 4.6716 0.296546 0
M  V30 313 H 34.6778 6.47807 0.158054 0
M  V30 314 N 28.0839 -0.256276 1.55502 0
M  V30 315 C 29.3299 -0.987079 1.77157 0
M  V30 316 C 29.6629 -1.85327 0.580315 0
M  V30 317 O 28.9379 -1.89874 -0.421686 0
M  V30 318 C 29.2209 -1.85553 3.08613 0
M  V30 319 C 29.0739 -1.01816 4.38125 0
M  V30 320 C 30.3929 -2.8397 3.36228 0
M  V30 321 H 27.5119 -0.357428 0.644526 0
M  V30 322 H 30.1539 -0.258239 1.88237 0
M  V30 323 H 28.3039 -2.47695 2.99298 0
M  V30 324 H 29.9759 -0.416159 4.59419 0
M  V30 325 H 28.2189 -0.322178 4.32602 0
M  V30 326 H 28.8899 -1.65939 5.26468 0
M  V30 327 H 31.3659 -2.31964 3.45445 0
M  V30 328 H 30.2419 -3.41864 4.29442 0
M  V30 329 H 30.5029 -3.59955 2.56681 0
M  V30 330 N 29.562 -1.4872 -0.521534 0
M  V30 331 C 30.787 -1.61101 -1.30618 0
M  V30 332 C 31.212 -0.274611 -1.86085 0
M  V30 333 O 30.57 0.754937 -1.64834 0
M  V30 334 C 30.618 -2.66709 -2.4269 0
M  V30 335 O 29.722 -2.24456 -3.45967 0
M  V30 336 H 29.063 -0.539921 -0.386499 0
M  V30 337 H 31.593 -1.94767 -0.626645 0
M  V30 338 H 31.603 -2.88245 -2.88754 0
M  V30 339 H 30.278 -3.63727 -2.01682 0
M  V30 340 H 28.855 -2.13168 -3.05964 0
M  V30 341 N 31.0401 0.771051 -1.3745 0
M  V30 342 C 31.9721 1.89352 -1.29146 0
M  V30 343 C 32.9851 1.61477 -0.207124 0
M  V30 344 O 34.1741 1.72382 -0.463324 0
M  V30 345 C 31.2741 3.24596 -0.974195 0
M  V30 346 C 30.4471 3.80111 -2.16413 0
M  V30 347 C 29.5061 4.93832 -1.81703 0
M  V30 348 O 28.5321 5.09382 -2.54006 0
M  V30 349 N 29.7341 5.75483 -0.761573 0
M  V30 350 H 32.4991 1.96991 -2.25864 0
M  V30 351 H 30.0601 0.950191 -1.31084 0
M  V30 352 H 32.0521 3.98193 -0.722828 0
M  V30 353 H 30.6221 3.12454 -0.0955527 0
M  V30 354 H 29.8421 2.98284 -2.57721 0
M  V30 355 H 31.1301 4.13932 -2.95867 0
M  V30 356 H 30.5281 5.65469 -0.161609 0
M  V30 357 H 29.0851 6.49302 -0.570064 0
M  V30 358 N 32.5182 1.22032 0.997298 0
M  V30 359 C 33.9342 0.979326 1.26021 0
M  V30 360 C 34.1342 -0.32972 1.98784 0
M  V30 361 O 33.1902 -1.05345 2.29475 0
M  V30 362 C 34.5032 2.17509 2.07631 0
M  V30 363 C 36.0512 2.21817 2.2083 0
M  V30 364 C 36.5262 3.40933 3.05825 0
M  V30 365 N 38.0172 3.41067 3.13412 0
M  V30 366 C 38.7522 4.29885 3.79455 0
M  V30 367 N 38.2482 5.28914 4.47462 0
M  V30 368 N 40.0412 4.17673 3.76173 0
M  V30 369 H 32.1922 2.06202 0.509352 0
M  V30 370 H 34.4552 0.90334 0.287541 0
M  V30 371 H 34.1612 3.12415 1.61524 0
M  V30 372 H 34.0352 2.17206 3.08385 0
M  V30 373 H 36.4222 1.27462 2.66153 0
M  V30 374 H 36.5032 2.2616 1.1952 0
M  V30 375 H 36.1472 4.35586 2.61203 0
M  V30 376 H 36.0772 3.33829 4.07266 0
M  V30 377 H 38.5682 2.69406 2.65007 0
M  V30 378 H 38.8812 5.92973 4.95583 0
M  V30 379 H 37.2262 5.32831 4.46224 0
M  V30 380 H 40.4172 3.39564 3.22202 0
M  V30 381 H 40.5902 4.87098 4.27363 0
M  V30 382 N 33.9963 -1.19345 1.0293 0
M  V30 383 C 34.9063 -2.26245 0.620515 0
M  V30 384 C 35.9223 -1.70486 -0.347928 0
M  V30 385 O 37.0983 -2.00347 -0.205704 0
M  V30 386 C 34.1633 -3.46693 -0.0218957 0
M  V30 387 C 33.2243 -4.17632 0.994102 0
M  V30 388 C 32.4573 -5.32329 0.382253 0
M  V30 389 O 32.6803 -5.64552 -0.814676 0
M  V30 390 O 31.6143 -5.91664 1.10531 0
M  V30 391 H 35.4403 -2.63453 1.51083 0
M  V30 392 H 33.0253 -1.26207 0.799513 0
M  V30 393 H 34.9073 -4.19683 -0.380072 0
M  V30 394 H 33.5823 -3.11333 -0.886209 0
M  V30 395 H 32.4893 -3.4676 1.40387 0
M  V30 396 H 33.8223 -4.56964 1.8288 0
M  V30 397 N 35.4744 -0.807222 -1.35358 0
M  V30 398 C 36.4044 -0.232509 -2.3234 0
M  V30 399 C 37.3854 0.642386 -1.57504 0
M  V30 400 O 38.5704 0.572526 -1.85569 0
M  V30 401 C 35.7004 0.619238 -3.41735 0
M  V30 402 C 34.6544 -0.157215 -4.27711 0
M  V30 403 C 33.9804 0.816273 -5.28433 0
M  V30 404 C 35.2804 -1.35656 -5.04376 0
M  V30 405 H 36.9744 -1.04276 -2.80654 0
M  V30 406 H 34.5204 -0.50288 -1.34934 0
M  V30 407 H 36.4734 1.03137 -4.08584 0
M  V30 408 H 35.1974 1.46239 -2.92031 0
M  V30 409 H 33.8564 -0.550525 -3.62443 0
M  V30 410 H 33.5044 1.65494 -4.74996 0
M  V30 411 H 33.2044 0.301067 -5.86828 0
M  V30 412 H 34.7284 1.22659 -5.98153 0
M  V30 413 H 36.1424 -1.01927 -5.64166 0
M  V30 414 H 34.5394 -1.8063 -5.7227 0
M  V30 415 H 35.6094 -2.14288 -4.34981 0
M  V30 416 N 36.9525 1.47285 -0.560781 0
M  V30 417 C 38.1775 2.07359 -0.0410566 0
M  V30 418 C 38.6025 1.41017 1.24483 0
M  V30 419 O 37.9605 0.486368 1.74654 0
M  V30 420 C 38.0085 3.6035 0.134123 0
M  V30 421 O 37.1125 3.94681 1.19587 0
M  V30 422 H 36.4535 0.661887 -0.0529291 0
M  V30 423 H 38.9835 1.89252 -0.777482 0
M  V30 424 H 38.9935 4.0652 0.347207 0
M  V30 425 H 37.6685 4.08034 -0.805047 0
M  V30 426 H 36.2455 3.60251 0.962987 0
M  V30 427 N 38.4306 0.297415 1.54768 0
M  V30 428 C 39.8466 -0.0560823 1.59501 0
M  V30 429 C 40.0466 -1.52725 1.31444 0
M  V30 430 O 39.1026 -2.27947 1.08611 0
M  V30 431 C 40.4156 0.338631 2.98787 0
M  V30 432 C 41.9636 0.287097 3.11681 0
M  V30 433 C 42.4386 0.656579 4.53269 0
M  V30 434 N 43.9296 0.608977 4.59179 0
M  V30 435 C 44.6646 0.867385 5.66802 0
M  V30 436 N 44.1606 1.19157 6.82476 0
M  V30 437 N 45.9536 0.794687 5.56454 0
M  V30 438 H 38.1046 1.25624 1.71267 0
M  V30 439 H 40.3676 0.509057 0.799728 0
M  V30 440 H 40.0736 1.36263 3.2423 0
M  V30 441 H 39.9476 -0.309508 3.75928 0
M  V30 442 H 42.3346 -0.727649 2.85988 0
M  V30 443 H 42.4156 0.969809 2.36703 0
M  V30 444 H 42.0596 1.66912 4.7969 0
M  V30 445 H 41.9896 -0.0481649 5.26578 0
M  V30 446 H 44.4806 0.369198 3.76092 0
M  V30 447 H 44.7936 1.37482 7.60473 0
M  V30 448 H 43.1386 1.22958 6.84037 0
M  V30 449 H 46.3296 0.541098 4.64962 0
M  V30 450 H 46.5026 0.999445 6.40246 0
M  V30 451 N 39.9087 -1.5758 0.0250728 0
M  V30 452 C 41.1567 -1.91255 -0.653151 0
M  V30 453 C 41.4777 -0.901691 -1.729 0
M  V30 454 O 40.7477 0.0573785 -1.95816 0
M  V30 455 H 39.3277 -0.705942 -0.244243 0
M  V30 456 H 41.9897 -1.94767 0.0719209 0
M  V30 457 H 41.0857 -2.91752 -1.10847 0
M  V30 458 N 41.3868 0.248026 -1.55636 0
M  V30 459 C 42.6328 0.97767 -1.77678 0
M  V30 460 C 42.9658 1.85016 -0.590135 0
M  V30 461 O 42.2408 1.90095 0.411611 0
M  V30 462 C 42.5238 1.83914 -3.09593 0
M  V30 463 C 42.3768 0.99491 -4.38659 0
M  V30 464 C 43.6958 2.82183 -3.37729 0
M  V30 465 H 40.8148 0.354005 -0.646413 0
M  V30 466 H 43.4568 0.248253 -1.88371 0
M  V30 467 H 41.6068 2.46104 -3.00608 0
M  V30 468 H 43.2788 0.391789 -4.59633 0
M  V30 469 H 41.5218 0.299231 -4.32767 0
M  V30 470 H 42.1928 1.63145 -5.2734 0
M  V30 471 H 44.6688 2.30129 -3.4667 0
M  V30 472 H 43.5448 3.39582 -4.31249 0
M  V30 473 H 43.8058 3.58588 -2.58586 0
M  V30 474 N 42.8649 1.48995 0.513639 0
M  V30 475 C 44.1049 1.59452 1.27885 0
M  V30 476 C 44.4689 0.269479 1.90099 0
M  V30 477 O 45.6699 0.249139 2.67643 0
M  V30 478 C 43.9409 2.71277 2.32688 0
M  V30 479 S 45.4999 3.01604 3.18717 0
M  V30 480 H 42.3179 0.562565 0.434789 0
M  V30 481 H 44.9199 1.86595 0.583301 0
M  V30 482 H 43.6239 3.66089 1.8549 0
M  V30 483 H 43.1549 2.46086 3.06929 0
M  V30 484 H 45.1699 2.42155 4.331 0
M  V30 485 N 44.343 -0.763751 1.37857 0
M  V30 486 C 45.306 -1.85889 1.34081 0
M  V30 487 C 46.306 -1.58949 0.243277 0
M  V30 488 O 47.496 -1.66882 0.499589 0
M  V30 489 C 44.628 -3.23176 1.08489 0
M  V30 490 H 45.821 -1.90648 2.31502 0
M  V30 491 H 43.374 -0.964367 1.23003 0
M  V30 492 H 44.109 -3.24091 0.116318 0
M  V30 493 H 43.894 -3.44124 1.8794 0
M  V30 494 H 45.384 -4.03254 1.08517 0
M  V30 495 N 45.8211 -1.22559 -0.990812 0
M  V30 496 C 46.7311 -1.01394 -2.11557 0
M  V30 497 C 47.7471 0.0383962 -1.73958 0
M  V30 498 O 48.9231 -0.154787 -2.00804 0
M  V30 499 C 45.9881 -0.596569 -3.41529 0
M  V30 500 C 45.0491 -1.72276 -3.93217 0
M  V30 501 C 44.2821 -1.32521 -5.16985 0
M  V30 502 O 44.5051 -0.204909 -5.70032 0
M  V30 503 O 43.4391 -2.14247 -5.62478 0
M  V30 504 H 47.2651 -1.95633 -2.32296 0
M  V30 505 H 44.8501 -1.01172 -1.0993 0
M  V30 506 H 46.7321 -0.374263 -4.19735 0
M  V30 507 H 45.4071 0.316939 -3.22145 0
M  V30 508 H 44.3141 -1.99961 -3.16174 0
M  V30 509 H 45.6471 -2.61421 -4.17037 0
M  V30 510 N 47.2992 1.18797 -1.03562 0
M  V30 511 C 48.7152 1.40671 -0.753917 0
M  V30 512 C 48.9152 1.9043 0.658686 0
M  V30 513 O 47.9712 2.08538 1.42366 0
M  V30 514 C 49.2842 2.41192 -1.79574 0
M  V30 515 C 50.8322 2.54928 -1.81606 0
M  V30 516 C 51.3072 3.58709 -2.84766 0
M  V30 517 N 52.7982 3.66212 -2.83625 0
M  V30 518 C 53.5332 4.46225 -3.60098 0
M  V30 519 N 53.0292 5.29888 -4.46308 0
M  V30 520 N 54.8222 4.40939 -3.4861 0
M  V30 521 H 46.9732 0.848221 -1.94728 0
M  V30 522 H 49.2362 0.435081 -0.842264 0
M  V30 523 H 48.9422 2.11669 -2.80872 0
M  V30 524 H 48.8162 3.40467 -1.62365 0
M  V30 525 H 51.2032 2.83771 -0.809817 0
M  V30 526 H 51.2842 1.55784 -2.02891 0
M  V30 527 H 50.9282 3.30607 -3.85566 0
M  V30 528 H 50.8582 4.57519 -2.60737 0
M  V30 529 H 53.3492 3.06466 -2.21105 0
M  V30 530 H 53.6622 5.88078 -5.01382 0
M  V30 531 H 52.0072 5.29326 -4.50377 0
M  V30 532 H 55.1982 3.74624 -2.80668 0
M  V30 533 H 55.3712 5.03056 -4.08459 0
M  V30 534 N 48.7773 0.814389 1.34928 0
M  V30 535 C 50.0073 0.41054 2.0248 0
M  V30 536 C 50.4153 -0.985625 1.61499 0
M  V30 537 O 49.7583 -1.64781 0.811976 0
M  V30 538 C 49.8203 0.423384 3.56998 0
M  V30 539 C 49.4843 1.77141 4.21272 0
M  V30 540 C 50.4813 2.73093 4.42398 0
M  V30 541 C 48.1663 2.05755 4.58225 0
M  V30 542 C 50.1603 3.95838 4.9959 0
M  V30 543 C 47.8473 3.28762 5.1513 0
M  V30 544 C 48.8453 4.23621 5.35755 0
M  V30 545 O 48.5333 5.44456 5.91458 0
M  V30 546 H 48.2653 0.163997 0.655806 0
M  V30 547 H 50.8193 1.10155 1.73364 0
M  V30 548 H 49.0493 -0.324276 3.85338 0
M  V30 549 H 50.7383 0.0407683 4.0588 0
M  V30 550 H 51.5043 2.5228 4.14222 0
M  V30 551 H 47.3833 1.32727 4.4148 0
M  V30 552 H 50.9273 4.69891 5.15605 0
M  V30 553 H 46.8243 3.49443 5.42734 0
M  V30 554 H 47.5923 5.4586 6.09901 0
M  V30 555 N 50.2554 -1.46986 0.568584 0
M  V30 556 C 51.4804 -2.07335 0.0520528 0
M  V30 557 C 51.9054 -1.41675 -1.23733 0
M  V30 558 O 51.2634 -0.495623 -1.74394 0
M  V30 559 C 51.3114 -3.60417 -0.11501 0
M  V30 560 O 50.4154 -3.95309 -1.17492 0
M  V30 561 H 49.7564 -0.661597 0.0564385 0
M  V30 562 H 52.2864 -1.88837 0.787507 0
M  V30 563 H 52.2964 -4.06698 -0.325644 0
M  V30 564 H 50.9714 -4.07601 0.826675 0
M  V30 565 H 49.5484 -3.60757 -0.943869 0
M  V30 566 N 51.7335 -0.305618 -1.54608 0
M  V30 567 C 52.6655 0.602161 -2.21149 0
M  V30 568 C 53.6785 1.09394 -1.20569 0
M  V30 569 O 54.8675 1.0106 -1.47136 0
M  V30 570 C 51.9675 1.83692 -2.84799 0
M  V30 571 C 51.1405 1.48686 -4.11353 0
M  V30 572 C 50.1995 2.57725 -4.58764 0
M  V30 573 O 49.2255 2.22623 -5.23858 0
M  V30 574 N 50.4275 3.88346 -4.31471 0
M  V30 575 H 53.1925 0.0324966 -2.99682 0
M  V30 576 H 50.7535 -0.128021 -1.61393 0
M  V30 577 H 52.7455 2.55994 -3.13448 0
M  V30 578 H 51.3155 2.31486 -2.10078 0
M  V30 579 H 50.5355 0.596269 -3.89664 0
M  V30 580 H 51.8235 1.22842 -4.93748 0
M  V30 581 H 51.2215 4.19671 -3.79331 0
M  V30 582 H 49.7785 4.56932 -4.64818 0
M  V30 583 N 53.2116 1.57565 -0.0334293 0
M  V30 584 C 54.1216 2.13943 0.962572 0
M  V30 585 C 55.1376 1.09276 1.35406 0
M  V30 586 O 56.3136 1.41355 1.4346 0
M  V30 587 C 53.3786 2.65887 2.22497 0
M  V30 588 C 52.4396 3.85286 1.8935 0
M  V30 589 C 51.6726 4.34743 3.09571 0
M  V30 590 O 51.8956 3.83352 4.22371 0
M  V30 591 O 50.8296 5.26538 2.91618 0
M  V30 592 H 54.6556 2.99333 0.513169 0
M  V30 593 H 52.2406 1.4822 0.18743 0
M  V30 594 H 54.1226 2.99346 2.96598 0
M  V30 595 H 52.7976 1.83578 2.6661 0
M  V30 596 H 51.7046 3.56746 1.1262 0
M  V30 597 H 53.0376 4.68771 1.5005 0
M  V30 598 N 54.6897 -0.239769 1.55765 0
M  V30 599 C 55.9357 -0.968234 1.78194 0
M  V30 600 C 56.2687 -1.84701 0.599938 0
M  V30 601 O 55.5437 -1.9031 -0.401524 0
M  V30 602 C 55.8267 -1.8227 3.10564 0
M  V30 603 C 55.6797 -0.971633 4.3918 0
M  V30 604 C 56.9987 -2.80388 3.39221 0
M  V30 605 H 54.1177 -0.350572 0.648281 0
M  V30 606 H 56.7597 -0.238259 1.885 0
M  V30 607 H 54.9097 -2.44507 3.01908 0
M  V30 608 H 56.5817 -0.367408 4.59835 0
M  V30 609 H 54.8247 -0.276276 4.32919 0
M  V30 610 H 55.4957 -1.60346 5.28198 0
M  V30 611 H 57.9717 -2.28287 3.47885 0
M  V30 612 H 56.8477 -3.3729 4.33044 0
M  V30 613 H 57.1087 -3.57212 2.60484 0
M  V30 614 N 56.1678 -1.49265 -0.50573 0
M  V30 615 C 57.4148 -1.58513 -1.26015 0
M  V30 616 C 57.7428 -0.26972 -1.92621 0
M  V30 617 O 56.9978 0.741997 -1.81088 0
M  V30 618 C 57.2968 -2.69008 -2.35308 0
M  V30 619 C 56.9628 -4.10662 -1.86192 0
M  V30 620 C 55.6248 -4.49212 -1.72516 0
M  V30 621 C 57.9768 -4.99336 -1.49375 0
M  V30 622 C 55.3048 -5.74214 -1.20394 0
M  V30 623 C 57.6568 -6.24852 -0.987072 0
M  V30 624 C 56.3208 -6.62236 -0.836669 0
M  V30 625 H 55.5908 -0.580041 -0.461122 0
M  V30 626 H 58.2378 -1.83078 -0.561665 0
M  V30 627 H 56.5428 -2.38396 -3.10926 0
M  V30 628 H 58.2398 -2.73373 -2.93374 0
M  V30 629 H 54.8298 -3.8023 -1.97795 0
M  V30 630 H 59.0138 -4.70212 -1.5879 0
M  V30 631 H 54.2698 -6.01883 -1.07458 0
M  V30 632 H 58.4438 -6.92944 -0.692983 0
M  V30 633 H 56.0708 -7.58979 -0.430607 0
M  V30 634 N 57.6459 0.756429 -1.3826 0
M  V30 635 C 58.5559 1.9009 -1.37488 0
M  V30 636 C 59.5719 1.71855 -0.272366 0
M  V30 637 O 60.7479 1.94827 -0.510318 0
M  V30 638 C 57.8129 3.25421 -1.19592 0
M  V30 639 C 56.8739 3.56202 -2.39622 0
M  V30 640 C 56.1069 4.85075 -2.2257 0
M  V30 641 O 56.3299 5.57246 -1.21793 0
M  V30 642 O 55.2639 5.15269 -3.11098 0
M  V30 643 H 59.0899 1.93695 -2.33914 0
M  V30 644 H 56.6749 0.901313 -1.1915 0
M  V30 645 H 58.5569 4.06337 -1.11661 0
M  V30 646 H 57.2319 3.22634 -0.262486 0
M  V30 647 H 56.1389 2.75458 -2.53128 0
M  V30 648 H 57.4719 3.63747 -3.31586 0
M  V30 649 N 59.124 1.23083 0.984299 0
M  V30 650 C 60.071 1.00854 2.07598 0
M  V30 651 C 61.041 -0.0726709 1.65941 0
M  V30 652 O 62.226 0.0786535 1.90638 0
M  V30 653 C 59.366 0.601645 3.39815 0
M  V30 654 C 58.479 1.75456 3.94765 0
M  V30 655 C 57.614 1.29482 5.15177 0
M  V30 656 C 56.653 2.41873 5.62284 0
M  V30 657 N 55.79 1.96885 6.73929 0
M  V30 658 H 60.63 1.943 2.25946 0
M  V30 659 H 58.167 0.968001 1.10762 0
M  V30 660 H 60.125 0.346854 4.15756 0
M  V30 661 H 58.755 -0.295803 3.21442 0
M  V30 662 H 57.807 2.12346 3.15616 0
M  V30 663 H 59.119 2.59965 4.25699 0
M  V30 664 H 58.273 0.997923 5.98437 0
M  V30 665 H 57.012 0.420046 4.85888 0
M  V30 666 H 56.017 2.72342 4.77608 0
M  V30 667 H 57.242 3.29881 5.93595 0
M  V30 668 H 55.188 1.11782 6.46406 0
M  V30 669 H 55.105 2.74956 7.04227 0
M  V30 670 H 56.373 1.70289 7.60672 0
M  V30 671 N 60.6021 -1.18246 1.0419 0
M  V30 672 C 61.8301 -1.92195 0.766072 0
M  V30 673 C 62.2451 -1.76247 -0.676933 0
M  V30 674 O 61.6021 -1.09293 -1.46155 0
M  V30 675 C 61.6531 -3.43568 1.12442 0
M  V30 676 O 61.3741 -3.59015 2.51078 0
M  V30 677 C 62.8751 -4.34613 0.873275 0
M  V30 678 H 60.0951 -0.610114 0.279288 0
M  V30 679 H 62.6391 -1.50007 1.38989 0
M  V30 680 H 60.7941 -3.8354 0.545542 0
M  V30 681 H 61.2081 -4.5273 2.64831 0
M  V30 682 H 62.6821 -5.39374 1.17385 0
M  V30 683 H 63.1591 -4.38781 -0.191909 0
M  V30 684 H 63.7651 -4.00341 1.43551 0
M  V30 685 N 62.0802 -0.821533 -1.34494 0
M  V30 686 C 63.0272 -0.240397 -2.29545 0
M  V30 687 C 63.9972 0.634031 -1.53523 0
M  V30 688 O 65.1822 0.575966 -1.81899 0
M  V30 689 C 62.3222 0.592869 -3.39969 0
M  V30 690 C 61.4352 -0.30365 -4.30932 0
M  V30 691 C 60.5702 0.539049 -5.28458 0
M  V30 692 C 59.6092 -0.356942 -6.11058 0
M  V30 693 N 58.7462 0.446603 -7.00678 0
M  V30 694 H 63.5862 -1.05632 -2.7865 0
M  V30 695 H 61.1232 -0.532413 -1.37127 0
M  V30 696 H 63.0812 1.09129 -4.02675 0
M  V30 697 H 61.7112 1.37392 -2.92102 0
M  V30 698 H 60.7632 -0.920276 -3.691 0
M  V30 699 H 62.0752 -0.992661 -4.88823 0
M  V30 700 H 61.2292 1.102 -5.96608 0
M  V30 701 H 59.9682 1.26157 -4.71101 0
M  V30 702 H 58.9732 -0.932047 -5.41842 0
M  V30 703 H 60.1982 -1.07755 -6.70497 0
M  V30 704 H 58.1442 1.15282 -6.45791 0
M  V30 705 H 58.0612 -0.184048 -7.55776 0
M  V30 706 H 59.3292 0.992352 -7.73158 0
M  V30 707 N 63.5583 1.46682 -0.576371 0
M  V30 708 C 64.9743 1.57822 -0.237562 0
M  V30 709 C 65.1743 1.57237 1.26011 0
M  V30 710 O 64.2303 1.48596 2.04146 0
M  V30 711 C 65.5433 2.87499 -0.881168 0
M  V30 712 C 67.0913 3.01119 -0.85417 0
M  V30 713 C 67.5663 4.33524 -1.4772 0
M  V30 714 N 69.0573 4.40207 -1.44125 0
M  V30 715 C 69.7923 5.4126 -1.89276 0
M  V30 716 N 69.2883 6.49021 -2.42371 0
M  V30 717 N 71.0813 5.32422 -1.80231 0
M  V30 718 H 63.2323 1.45306 -1.54919 0
M  V30 719 H 65.4953 0.692733 -0.647167 0
M  V30 720 H 65.2013 2.9372 -1.93447 0
M  V30 721 H 65.0753 3.75224 -0.385592 0
M  V30 722 H 67.4623 2.94485 0.190491 0
M  V30 723 H 67.5433 2.14887 -1.3877 0
M  V30 724 H 67.1873 4.40916 -2.52103 0
M  V30 725 H 67.1173 5.1852 -0.918947 0
M  V30 726 H 69.6083 3.62931 -1.05307 0
M  V30 727 H 69.9213 7.2233 -2.74698 0
M  V30 728 H 68.2663 6.49858 -2.46393 0
M  V30 729 H 71.4573 4.47137 -1.38514 0
M  V30 730 H 71.6303 6.11034 -2.15735 0
M  V30 731 N 65.0364 0.313813 1.54444 0
M  V30 732 C 65.9664 -0.549454 2.26943 0
M  V30 733 C 66.9474 -1.12741 1.27372 0
M  V30 734 O 68.1324 -1.15436 1.56167 0
M  V30 735 C 65.2624 -1.71523 3.01989 0
M  V30 736 C 64.2164 -1.26703 4.08816 0
M  V30 737 C 63.5424 -2.51898 4.71647 0
M  V30 738 C 64.8424 -0.388962 5.2085 0
M  V30 739 H 66.5364 0.0552661 2.99349 0
M  V30 740 H 64.0824 0.0280207 1.43973 0
M  V30 741 H 66.0354 -2.32535 3.51433 0
M  V30 742 H 64.7594 -2.34639 2.27183 0
M  V30 743 H 63.4184 -0.679896 3.6024 0
M  V30 744 H 63.0664 -3.13356 3.93468 0
M  V30 745 H 62.7664 -2.22605 5.43802 0
M  V30 746 H 64.2904 -3.1369 5.23861 0
M  V30 747 H 65.7044 -0.905107 5.6611 0
M  V30 748 H 64.1014 -0.18924 5.99802 0
M  V30 749 H 65.1714 0.582699 4.81386 0
M  V30 750 N 66.5145 -1.57545 0.0417849 0
M  V30 751 C 67.4445 -2.14009 -0.933929 0
M  V30 752 C 68.4255 -1.05938 -1.33083 0
M  V30 753 O 69.6105 -1.33833 -1.40721 0
M  V30 754 C 66.7405 -2.67747 -2.21199 0
M  V30 755 C 65.6945 -3.80718 -1.95544 0
M  V30 756 C 65.0205 -4.20935 -3.29724 0
M  V30 757 C 66.3205 -5.06258 -1.28452 0
M  V30 758 H 68.0145 -2.95788 -0.463645 0
M  V30 759 H 65.5605 -1.42285 -0.221573 0
M  V30 760 H 67.5135 -3.05886 -2.89848 0
M  V30 761 H 66.2375 -1.83147 -2.70416 0
M  V30 762 H 64.8965 -3.43037 -1.2931 0
M  V30 763 H 64.5445 -3.33298 -3.76724 0
M  V30 764 H 64.2445 -4.9707 -3.13361 0
M  V30 765 H 65.7685 -4.61666 -3.9962 0
M  V30 766 H 67.1825 -5.41903 -1.8712 0
M  V30 767 H 65.5795 -5.87475 -1.22445 0
M  V30 768 H 66.6495 -4.84207 -0.259219 0
M  V30 769 N 67.9926 0.231505 -1.5589 0
M  V30 770 C 69.2396 0.957352 -1.78441 0
M  V30 771 C 69.5676 1.84726 -0.60882 0
M  V30 772 O 68.8226 1.91416 0.40725 0
M  V30 773 C 69.1216 1.83577 -3.0665 0
M  V30 774 C 68.7876 1.09993 -4.37278 0
M  V30 775 C 67.4496 0.896629 -4.72773 0
M  V30 776 C 69.8016 0.579558 -5.17968 0
M  V30 777 C 67.1296 0.160896 -5.86479 0
M  V30 778 C 69.4816 -0.142783 -6.32439 0
M  V30 779 C 68.1456 -0.357427 -6.66542 0
M  V30 780 H 67.4156 0.35032 -0.65296 0
M  V30 781 H 70.0626 0.226259 -1.90159 0
M  V30 782 H 68.3676 2.63441 -2.90011 0
M  V30 783 H 70.0646 2.39934 -3.21298 0
M  V30 784 H 66.6546 1.26835 -4.09403 0
M  V30 785 H 70.8386 0.724125 -4.90989 0
M  V30 786 H 66.0946 -0.0157293 -6.11398 0
M  V30 787 H 70.2686 -0.553559 -6.94196 0
M  V30 788 H 67.8956 -0.929466 -7.54497 0
M  V30 789 N 69.4707 1.49531 0.497807 0
M  V30 790 C 70.4007 1.6935 1.60757 0
M  V30 791 C 71.3817 0.542218 1.61227 0
M  V30 792 O 72.5667 0.778417 1.77917 0
M  V30 793 C 69.6967 1.76298 2.99226 0
M  V30 794 C 68.6507 2.91248 3.13622 0
M  V30 795 C 67.9767 2.83312 4.53474 0
M  V30 796 C 69.2767 4.3214 2.93346 0
M  V30 797 H 70.9707 2.62263 1.44425 0
M  V30 798 H 68.5167 1.26208 0.693367 0
M  V30 799 H 70.4697 1.88749 3.76765 0
M  V30 800 H 69.1937 0.799871 3.16654 0
M  V30 801 H 67.8527 2.78404 2.38509 0
M  V30 802 H 67.5007 1.84902 4.67782 0
M  V30 803 H 67.2007 3.60465 4.64046 0
M  V30 804 H 68.7247 2.97775 5.33069 0
M  V30 805 H 70.1387 4.45649 3.60652 0
M  V30 806 H 68.5357 5.1054 3.15387 0
M  V30 807 H 69.6057 4.46363 1.89441 0
M  V30 808 N 70.9488 -0.749086 1.3866 0
M  V30 809 C 72.1968 -1.50535 1.34847 0
M  V30 810 C 72.5178 -1.94909 -0.0595016 0
M  V30 811 O 71.7878 -1.67973 -1.00806 0
M  V30 812 H 70.3678 -0.558395 0.49619 0
M  V30 813 H 73.0298 -0.890165 1.73384 0
M  V30 814 H 72.1258 -2.39413 2.00219 0
M  V30 815 N 72.4269 -1.23603 -0.977757 0
M  V30 816 C 73.3899 -1.02069 -2.05218 0
M  V30 817 C 74.3899 0.0184305 -1.60789 0
M  V30 818 O 75.5799 -0.221569 -1.72785 0
M  V30 819 C 72.7119 -0.544926 -3.36517 0
M  V30 820 H 73.9049 -1.9742 -2.25755 0
M  V30 821 H 71.4579 -1.05684 -1.15155 0
M  V30 822 H 72.1929 0.412241 -3.21669 0
M  V30 823 H 71.9779 -1.2948 -3.70105 0
M  V30 824 H 73.4679 -0.414985 -4.15533 0
M  V30 825 N 73.905 1.17692 -1.04816 0
M  V30 826 C 74.837 2.21103 -0.603822 0
M  V30 827 C 75.85 1.59411 0.33046 0
M  V30 828 O 77.039 1.7807 0.12379 0
M  V30 829 C 74.139 3.38623 0.136898 0
M  V30 830 C 73.312 4.29888 -0.807137 0
M  V30 831 C 72.371 5.26088 -0.10836 0
M  V30 832 O 71.397 5.64353 -0.741232 0
M  V30 833 N 72.599 5.68882 1.15558 0
M  V30 834 H 75.364 2.59848 -1.49329 0
M  V30 835 H 72.925 1.32553 -0.929587 0
M  V30 836 H 74.917 4.00009 0.614401 0
M  V30 837 H 73.487 2.98508 0.927993 0
M  V30 838 H 72.707 3.65993 -1.46434 0
M  V30 839 H 73.995 4.87759 -1.44807 0
M  V30 840 H 73.393 5.39861 1.69015 0
M  V30 841 H 71.95 6.32429 1.57722 0
M  V30 842 N 75.3831 0.828654 1.34056 0
M  V30 843 C 76.3461 0.259927 2.27721 0
M  V30 844 C 77.3461 -0.565478 1.50529 0
M  V30 845 O 78.5361 -0.38075 1.69988 0
M  V30 846 C 75.6681 -0.634944 3.34935 0
M  V30 847 H 76.8611 1.0863 2.79534 0
M  V30 848 H 74.4141 0.600951 1.44285 0
M  V30 849 H 75.1491 -1.48416 2.88346 0
M  V30 850 H 74.9341 -0.0444999 3.92075 0
M  V30 851 H 76.4241 -1.02648 4.04788 0
M  V30 852 N 76.8612 -1.46375 0.584142 0
M  V30 853 C 78.0912 -2.06461 0.0758195 0
M  V30 854 C 78.4992 -1.43322 -1.23512 0
M  V30 855 O 77.8422 -0.533216 -1.75791 0
M  V30 856 C 77.9042 -3.59131 -0.162773 0
M  V30 857 C 77.5682 -4.4447 1.06279 0
M  V30 858 C 78.5652 -4.80918 1.97519 0
M  V30 859 C 76.2502 -4.85584 1.28504 0
M  V30 860 C 78.2442 -5.57309 3.09331 0
M  V30 861 C 75.9312 -5.61734 2.4062 0
M  V30 862 C 76.9292 -5.9751 3.30863 0
M  V30 863 O 76.6172 -6.72121 4.41032 0
M  V30 864 H 76.3492 -0.673745 0.0551725 0
M  V30 865 H 78.9032 -1.88969 0.804984 0
M  V30 866 H 77.1332 -3.74936 -0.946565 0
M  V30 867 H 78.8222 -4.0114 -0.619782 0
M  V30 868 H 79.5882 -4.49732 1.81565 0
M  V30 869 H 75.4672 -4.57187 0.591702 0
M  V30 870 H 79.0112 -5.85152 3.79793 0
M  V30 871 H 74.9082 -5.92334 2.56537 0
M  V30 872 H 75.6762 -6.90547 4.39417 0
M  V30 873 N 78.3393 -0.321999 -1.54275 0
M  V30 874 C 79.2693 0.537411 -2.27231 0
M  V30 875 C 80.2503 1.12064 -1.27968 0
M  V30 876 O 81.4353 1.14606 -1.56777 0
M  V30 877 C 78.5653 1.69919 -3.02894 0
M  V30 878 C 77.5193 1.24534 -4.09482 0
M  V30 879 C 76.8453 2.49394 -4.72977 0
M  V30 880 C 78.1453 0.361335 -5.21049 0
M  V30 881 H 79.8393 -0.0711406 -2.99315 0
M  V30 882 H 77.3853 -0.0356555 -1.43956 0
M  V30 883 H 79.3383 2.30668 -3.52662 0
M  V30 884 H 78.0623 2.33431 -2.28424 0
M  V30 885 H 76.7213 0.660782 -3.60596 0
M  V30 886 H 76.3693 3.11265 -3.95124 0
M  V30 887 H 76.0693 2.19718 -5.44975 0
M  V30 888 H 77.5933 3.10908 -5.25517 0
M  V30 889 H 79.0073 0.875072 -5.66582 0
M  V30 890 H 77.4043 0.157428 -5.99893 0
M  V30 891 H 78.4743 -0.60822 -4.8107 0
M  V30 892 N 79.8174 1.5752 -0.0501392 0
M  V30 893 C 81.0944 1.83996 0.663685 0
M  V30 894 C 81.4744 0.938339 1.89099 0
M  V30 895 O 80.8224 -0.00087759 2.285 0
M  V30 896 C 81.0324 3.33702 1.02196 0
M  V30 897 C 82.3804 4.00691 1.40469 0
M  V30 898 O 83.4044 3.38321 1.11433 0
M  V30 899 O 82.2634 5.10658 1.94654 0
M  V30 900 H 79.3574 0.759385 0.32751 0
M  V30 901 H 81.9034 1.69514 -0.0794238 0
M  V30 902 H 80.6754 3.91015 0.149364 0
M  V30 903 H 80.2984 3.53368 1.82255 0
M  V30 904 N 81.2955 -0.223234 1.56011 0
M  V30 905 C 82.2455 -1.28008 1.88674 0
M  V30 906 C 83.2295 -1.42369 0.749663 0
M  V30 907 O 84.4215 -1.45212 1.01205 0
M  V30 908 C 81.5505 -2.63084 2.20548 0
M  V30 909 C 80.6365 -2.52632 3.40643 0
M  V30 910 N 81.0275 -2.11829 4.59306 0
M  V30 911 C 79.3255 -2.83594 3.44224 0
M  V30 912 C 80.0265 -2.12587 5.41463 0
M  V30 913 N 79.0025 -2.5301 4.81131 0
M  V30 914 H 82.8045 -0.955487 2.77935 0
M  V30 915 H 80.3185 -0.431801 1.56554 0
M  V30 916 H 82.3155 -3.39385 2.42122 0
M  V30 917 H 80.9755 -2.96391 1.32599 0
M  V30 918 H 81.9865 -1.82988 4.84496 0
M  V30 919 H 78.6635 -3.21284 2.66614 0
M  V30 920 H 80.0535 -1.83179 6.46448 0
M  V30 921 N 82.7736 -1.49793 -0.48987 0
M  V30 922 C 84.0196 -1.60078 -1.24511 0
M  V30 923 C 84.3526 -0.291608 -1.91998 0
M  V30 924 O 83.6276 0.705647 -1.81248 0
M  V30 925 C 83.9106 -2.76791 -2.30345 0
M  V30 926 C 83.7636 -4.17535 -1.67286 0
M  V30 927 C 85.0826 -2.89111 -3.31817 0
M  V30 928 H 82.2016 -0.582645 -0.451324 0
M  V30 929 H 84.8436 -1.82117 -0.541612 0
M  V30 930 H 82.9936 -2.5813 -2.90346 0
M  V30 931 H 84.6656 -4.4774 -1.11026 0
M  V30 932 H 82.9086 -4.22665 -0.976577 0
M  V30 933 H 83.5796 -4.95094 -2.44103 0
M  V30 934 H 86.0556 -3.06133 -2.81819 0
M  V30 935 H 84.9316 -3.72433 -4.03219 0
M  V30 936 H 85.1926 -1.9893 -3.94815 0
M  V30 937 N 84.2517 0.741722 -1.39055 0
M  V30 938 C 85.4977 1.50234 -1.37118 0
M  V30 939 C 85.8527 1.92368 0.0350439 0
M  V30 940 O 85.1457 1.63422 1.00019 0
M  V30 941 C 85.3397 2.7592 -2.27163 0
M  V30 942 C 85.1687 2.46074 -3.76401 0
M  V30 943 C 83.9387 2.38704 -4.45364 0
M  V30 944 C 86.1367 2.12062 -4.68545 0
M  V30 945 N 84.1187 2.01258 -5.79973 0
M  V30 946 C 85.4897 1.85005 -5.91754 0
M  V30 947 C 87.5447 1.98473 -4.56632 0
M  V30 948 C 86.2477 1.4573 -7.04383 0
M  V30 949 C 88.2737 1.60599 -5.69176 0
M  V30 950 C 87.6357 1.34423 -6.91455 0
M  V30 951 H 83.7347 0.548858 -0.557027 0
M  V30 952 H 86.3187 0.862642 -1.74547 0
M  V30 953 H 84.4897 3.3768 -1.91904 0
M  V30 954 H 86.2217 3.42068 -2.16267 0
M  V30 955 H 82.9767 2.55574 -3.98721 0
M  V30 956 H 83.4007 1.85147 -6.51191 0
M  V30 957 H 88.0427 2.17381 -3.62637 0
M  V30 958 H 85.7607 1.25562 -7.98286 0
M  V30 959 H 89.3467 1.507 -5.61944 0
M  V30 960 H 88.2267 1.05555 -7.77064 0
M  V30 961 N 85.7298 1.2412 0.971189 0
M  V30 962 C 87.0068 0.986867 1.6888 0
M  V30 963 C 87.3868 -0.491857 2.0529 0
M  V30 964 O 86.7348 -1.46531 1.75331 0
M  V30 965 C 86.9448 1.9063 2.92338 0
M  V30 966 C 88.2928 2.17515 3.64654 0
M  V30 967 O 89.3168 1.88254 3.02388 0
M  V30 968 O 88.1758 2.6719 4.7673 0
M  V30 969 H 85.2698 0.372944 0.738134 0
M  V30 970 H 87.8158 1.35203 1.02559 0
M  V30 971 H 86.5878 2.90552 2.62097 0
M  V30 972 H 86.2108 1.54408 3.66393 0
M  V30 973 N 87.2079 -1.17134 1.05439 0
M  V30 974 C 88.1179 -2.24878 0.668365 0
M  V30 975 C 89.1339 -1.71186 -0.311687 0
M  V30 976 O 90.3099 -2.00738 -0.163161 0
M  V30 977 C 87.3749 -3.46662 0.051648 0
M  V30 978 C 86.4359 -4.15429 1.08246 0
M  V30 979 C 85.6689 -5.31399 0.495082 0
M  V30 980 O 85.8919 -5.66153 -0.694743 0
M  V30 981 O 84.8259 -5.89187 1.23056 0
M  V30 982 H 88.6519 -2.60189 1.56637 0
M  V30 983 H 86.2369 -1.24482 0.826104 0
M  V30 984 H 88.1189 -4.20394 -0.290966 0
M  V30 985 H 86.7939 -3.13142 -0.819971 0
M  V30 986 H 85.7009 -3.43704 1.47711 0
M  V30 987 H 87.0339 -4.52982 1.92532 0
M  V30 988 N 88.686 -0.835752 -1.33615 0
M  V30 989 C 89.934 -0.429109 -1.97492 0
M  V30 990 C 90.255 1.01433 -1.66543 0
M  V30 991 O 89.525 1.70611 -0.962744 0
M  V30 992 H 88.105 -0.155686 -0.730596 0
M  V30 993 H 90.767 -1.06802 -1.63031 0
M  V30 994 H 89.863 -0.55861 -3.0706 0
M  V30 995 N 90.1641 1.46063 -0.591896 0
M  V30 996 C 91.4041 2.04228 -0.0838014 0
M  V30 997 C 91.7681 1.45231 1.25587 0
M  V30 998 O 92.9691 1.94653 1.85375 0
M  V30 999 C 91.2401 3.57389 -0.0286282 0
M  V30 1000 S 92.7991 4.3678 0.420557 0
M  V30 1001 H 89.6171 0.709762 -0.0419319 0
M  V30 1002 H 92.2191 1.78983 -0.786465 0
M  V30 1003 H 90.9231 3.97843 -1.00743 0
M  V30 1004 H 90.4541 3.87185 0.69652 0
M  V30 1005 H 92.4691 4.67131 1.67341 0
M  V30 1006 N 91.6422 0.330177 1.54103 0
M  V30 1007 C 92.6052 -0.520144 2.2322 0
M  V30 1008 C 93.6052 -1.03828 1.22786 0
M  V30 1009 O 94.7952 -0.929652 1.4732 0
M  V30 1010 C 91.9272 -1.72317 2.94142 0
M  V30 1011 H 93.1202 0.0841605 2.99782 0
M  V30 1012 H 90.6732 0.0813433 1.56088 0
M  V30 1013 H 91.4082 -2.36653 2.21734 0
M  V30 1014 H 91.1932 -1.35898 3.67796 0
M  V30 1015 H 92.6832 -2.3266 3.46784 0
M  V30 1016 N 93.1203 -1.57491 0.0584922 0
M  V30 1017 C 94.3663 -1.93264 -0.614558 0
M  V30 1018 C 94.6993 -0.937717 -1.7006 0
M  V30 1019 O 93.9743 0.0351652 -1.94468 0
M  V30 1020 C 94.2573 -3.3938 -1.20386 0
M  V30 1021 C 94.1103 -4.49625 -0.125375 0
M  V30 1022 C 95.4293 -3.86039 -2.11334 0
M  V30 1023 H 92.5483 -0.702791 -0.221933 0
M  V30 1024 H 95.1903 -1.8961 0.12175 0
M  V30 1025 H 93.3403 -3.42626 -1.83139 0
M  V30 1026 H 95.0123 -4.58506 0.506971 0
M  V30 1027 H 93.2553 -4.30354 0.545672 0
M  V30 1028 H 93.9263 -5.48967 -0.577861 0
M  V30 1029 H 96.4023 -3.84716 -1.58534 0
M  V30 1030 H 95.2783 -4.88914 -2.49507 0
M  V30 1031 H 95.5393 -3.23215 -3.01636 0
M  V30 1032 N 94.5984 0.214957 -1.56127 0
M  V30 1033 C 95.8444 0.939762 -1.79712 0
M  V30 1034 C 96.1774 1.83723 -0.629247 0
M  V30 1035 O 95.4524 1.90925 0.371197 0
M  V30 1036 C 95.7354 1.77306 -3.13424 0
M  V30 1037 C 95.5884 0.90164 -4.40671 0
M  V30 1038 C 96.9074 2.74956 -3.43638 0
M  V30 1039 H 94.0264 0.340214 -0.653776 0
M  V30 1040 H 96.6684 0.20824 -1.88855 0
M  V30 1041 H 94.8184 2.39673 -3.0576 0
M  V30 1042 H 96.4904 0.294206 -4.60361 0
M  V30 1043 H 94.7334 0.207368 -4.33304 0
M  V30 1044 H 95.4044 1.51923 -5.30682 0
M  V30 1045 H 97.8804 2.22724 -3.51473 0
M  V30 1046 H 96.7564 3.30358 -4.38355 0
M  V30 1047 H 97.0174 3.53023 -2.66134 0
M  V30 1048 N 96.0765 1.50051 0.48192 0
M  V30 1049 C 97.0265 1.64512 1.5786 0
M  V30 1050 C 98.0105 0.500073 1.52932 0
M  V30 1051 O 99.2025 0.753964 1.60139 0
M  V30 1052 C 96.3315 1.73263 2.9637 0
M  V30 1053 C 95.4175 2.93409 3.06222 0
M  V30 1054 N 95.8085 4.17236 2.85915 0
M  V30 1055 C 94.1065 2.91742 3.37346 0
M  V30 1056 C 94.8075 4.981 3.00451 0
M  V30 1057 N 93.7835 4.3184 3.30174 0
M  V30 1058 H 97.5855 2.57955 1.40842 0
M  V30 1059 H 95.0995 1.47086 0.688439 0
M  V30 1060 H 97.0965 1.81724 3.75209 0
M  V30 1061 H 95.7565 0.809711 3.14442 0
M  V30 1062 H 96.7675 4.46909 2.6171 0
M  V30 1063 H 93.4445 2.08907 3.61475 0
M  V30 1064 H 94.8345 6.06532 2.89082 0
M  V30 1065 N 97.5546 -0.734337 1.39446 0
M  V30 1066 C 98.4846 -1.86155 1.40955 0
M  V30 1067 C 99.4656 -1.67898 0.272827 0
M  V30 1068 O 100.651 -1.88207 0.478743 0
M  V30 1069 C 97.7806 -3.23912 1.25294 0
M  V30 1070 C 96.7346 -3.56808 2.36373 0
M  V30 1071 C 96.0606 -4.93508 2.058 0
M  V30 1072 C 97.3606 -3.59713 3.78687 0
M  V30 1073 H 99.0546 -1.8515 2.35287 0
M  V30 1074 H 96.6006 -0.889367 1.13253 0
M  V30 1075 H 98.5536 -4.02443 1.2497 0
M  V30 1076 H 97.2776 -3.25446 0.274308 0
M  V30 1077 H 95.9366 -2.80606 2.35914 0
M  V30 1078 H 95.5846 -4.91623 1.06374 0
M  V30 1079 H 95.2846 -5.16486 2.80208 0
M  V30 1080 H 96.8086 -5.74396 2.07128 0
M  V30 1081 H 98.2226 -4.2832 3.81071 0
M  V30 1082 H 96.6196 -3.94209 4.52459 0
M  V30 1083 H 97.6896 -2.59504 4.09617 0
M  V30 1084 N 99.0327 -1.24633 -0.964593 0
M  V30 1085 C 100.444 -1.08045 -1.5226 0
M  V30 1086 C 100.795 0.347116 -1.93105 0
M  V30 1087 O 99.9197 1.23588 -1.77637 0
M  V30 1088 C 100.515 -1.95514 -2.76695 0
M  V30 1089 C 99.0737 -1.8314 -3.28841 0
M  V30 1090 C 98.2207 -1.90262 -2.01732 0
M  V30 1091 H 101.172 -1.38064 -0.782553 0
M  V30 1092 H 101.193 -1.48925 -3.50145 0
M  V30 1093 H 100.705 -2.99407 -2.46936 0
M  V30 1094 H 98.8057 -0.82092 -3.63444 0
M  V30 1095 H 98.9187 -2.67406 -3.97531 0
M  V30 1096 H 97.2827 -1.34027 -2.16584 0
M  V30 1097 H 98.0657 -2.9574 -1.74334 0
M  V30 1098 N 100.511 1.16574 -1.06058 0
M  V30 1099 C 101.421 2.2452 -0.680282 0
M  V30 1100 C 102.437 1.71348 0.302604 0
M  V30 1101 O 103.613 2.00822 0.152513 0
M  V30 1102 C 100.678 3.46629 -0.0700315 0
M  V30 1103 C 99.7388 4.14849 -1.10448 0
M  V30 1104 C 98.9718 5.31129 -0.523256 0
M  V30 1105 O 99.1948 5.66514 0.664709 0
M  V30 1106 O 98.1288 5.88526 -1.26179 0
M  V30 1107 H 101.955 2.59355 -1.58015 0
M  V30 1108 H 99.5398 1.24043 -0.832694 0
M  V30 1109 H 101.422 4.20543 0.268667 0
M  V30 1110 H 100.097 3.13573 0.803353 0
M  V30 1111 H 99.0038 3.42916 -1.49532 0
M  V30 1112 H 100.337 4.51954 -1.94931 0
M  V30 1113 N 101.989 0.842826 1.3317 0
M  V30 1114 C 103.214 0.453129 2.02389 0
M  V30 1115 C 103.639 -0.939105 1.6298 0
M  V30 1116 O 102.997 -1.61472 0.8244 0
M  V30 1117 C 103.045 0.586094 3.55805 0
M  V30 1118 O 102.149 -0.386029 4.10589 0
M  V30 1119 H 101.49 0.183664 0.638094 0
M  V30 1120 H 104.02 1.13875 1.69981 0
M  V30 1121 H 104.03 0.469209 4.05293 0
M  V30 1122 H 102.705 1.6014 3.83833 0
M  V30 1123 H 101.282 -0.226371 3.72212 0
M  V30 1124 N 103.467 -1.45747 0.599634 0
M  V30 1125 C 104.878 -1.85853 0.177681 0
M  V30 1126 C 105.229 -1.50102 -1.26348 0
M  V30 1127 O 104.354 -0.923905 -1.95686 0
M  V30 1128 C 104.949 -3.37326 0.315688 0
M  V30 1129 C 103.508 -3.76365 -0.0515144 0
M  V30 1130 C 102.655 -2.69722 0.643822 0
M  V30 1131 H 105.606 -1.36661 0.806814 0
M  V30 1132 H 105.627 -3.77778 -0.454321 0
M  V30 1133 H 105.139 -3.63315 1.36468 0
M  V30 1134 H 103.24 -3.55993 -1.09999 0
M  V30 1135 H 103.353 -4.77916 0.336594 0
M  V30 1136 H 101.717 -2.54567 0.0822881 0
M  V30 1137 H 102.5 -2.98549 1.6948 0
M  V30 1138 N 104.945 -0.338344 -1.53925 0
M  V30 1139 C 105.892 0.520845 -2.24846 0
M  V30 1140 C 106.862 1.09976 -1.24477 0
M  V30 1141 O 108.047 1.13735 -1.53196 0
M  V30 1142 C 105.187 1.6685 -3.02084 0
M  V30 1143 C 104.3 1.11739 -4.17299 0
M  V30 1144 C 103.435 2.23193 -4.82036 0
M  V30 1145 C 102.474 1.65407 -5.89328 0
M  V30 1146 N 101.611 2.70582 -6.47866 0
M  V30 1147 H 106.451 -0.0904881 -2.97863 0
M  V30 1148 H 103.988 -0.0564282 -1.46992 0
M  V30 1149 H 105.946 2.34407 -3.45122 0
M  V30 1150 H 104.576 2.2509 -2.31375 0
M  V30 1151 H 103.628 0.332919 -3.7894 0
M  V30 1152 H 104.94 0.654677 -4.94485 0
M  V30 1153 H 104.094 2.98626 -5.28117 0
M  V30 1154 H 102.833 2.72807 -4.04262 0
M  V30 1155 H 101.838 0.884779 -5.42634 0
M  V30 1156 H 103.063 1.16652 -6.69006 0
M  V30 1157 H 101.009 3.1946 -5.72959 0
M  V30 1158 H 100.926 2.28917 -7.20509 0
M  V30 1159 H 102.194 3.45799 -6.98601 0
M  V30 1160 N 106.423 1.57458 -0.0668435 0
M  V30 1161 C 107.834 1.80776 0.466558 0
M  V30 1162 C 108.185 0.980361 1.69951 0
M  V30 1163 O 107.31 0.201441 2.1546 0
M  V30 1164 C 107.905 3.27881 0.85321 0
M  V30 1165 C 106.464 3.52062 1.3315 0
M  V30 1166 C 105.611 2.75513 0.314264 0
M  V30 1167 H 108.562 1.5598 -0.292588 0
M  V30 1168 H 108.583 3.39659 1.715 0
M  V30 1169 H 108.095 3.88075 -0.0443439 0
M  V30 1170 H 106.196 2.97167 2.24772 0
M  V30 1171 H 106.309 4.60762 1.31285 0
M  V30 1172 H 104.673 2.42123 0.790492 0
M  V30 1173 H 105.456 3.38442 -0.575477 0
M  V30 1174 N 107.901 -0.206675 1.56239 0
M  V30 1175 C 109.149 -0.927007 1.79586 0
M  V30 1176 C 109.47 -1.8427 0.637929 0
M  V30 1177 O 108.74 -1.92849 -0.344398 0
M  V30 1178 H 107.32 -0.345292 0.662407 0
M  V30 1179 H 109.982 -0.21496 1.93711 0
M  V30 1180 H 109.078 -1.52501 2.72305 0
M  V30 1181 N 109.379 -1.50304 -0.473955 0
M  V30 1182 C 110.79 -1.54042 -1.0549 0
M  V30 1183 C 111.141 -0.342248 -1.93192 0
M  V30 1184 O 110.266 0.545157 -2.09421 0
M  V30 1185 C 110.861 -2.79152 -1.91989 0
M  V30 1186 C 109.42 -2.8558 -2.45196 0
M  V30 1187 C 108.567 -2.48295 -1.2347 0
M  V30 1188 H 111.518 -1.5661 -0.256693 0
M  V30 1189 H 111.539 -2.60845 -2.7702 0
M  V30 1190 H 111.051 -3.66339 -1.28131 0
M  V30 1191 H 109.152 -2.02738 -3.12615 0
M  V30 1192 H 109.265 -3.88403 -2.80499 0
M  V30 1193 H 107.629 -2.00669 -1.56856 0
M  V30 1194 H 108.412 -3.37787 -0.612789 0
M  V30 1195 N 110.857 0.726932 -1.39834 0
M  V30 1196 C 112.085 1.51613 -1.40787 0
M  V30 1197 C 112.5 1.88799 -0.00451505 0
M  V30 1198 O 111.857 1.54662 0.968809 0
M  V30 1199 C 111.908 2.79863 -2.28821 0
M  V30 1200 O 111.629 2.44253 -3.63692 0
M  V30 1201 C 113.13 3.73837 -2.38245 0
M  V30 1202 H 110.35 0.468264 -0.480593 0
M  V30 1203 H 112.894 0.897607 -1.83748 0
M  V30 1204 H 111.049 3.38027 -1.89252 0
M  V30 1205 H 111.463 3.26695 -4.1033 0
M  V30 1206 H 112.937 4.60699 -3.04073 0
M  V30 1207 H 113.414 4.16153 -1.40403 0
M  V30 1208 H 114.02 3.21589 -2.78317 0
M  V30 1209 N 112.336 1.25143 0.95797 0
M  V30 1210 C 113.584 1.09476 1.69881 0
M  V30 1211 C 113.905 -0.365502 1.91544 0
M  V30 1212 O 113.175 -1.25985 1.50015 0
M  V30 1213 H 111.755 0.402128 0.629525 0
M  V30 1214 H 114.417 1.57214 1.15194 0
M  V30 1215 H 113.513 1.60046 2.6794 0
M  V30 1216 N 113.814 -1.1601 1.06675 0
M  V30 1217 C 114.777 -2.18724 0.685001 0
M  V30 1218 C 115.777 -1.58496 -0.271246 0
M  V30 1219 O 116.967 -1.74119 -0.0531156 0
M  V30 1220 C 114.099 -3.40899 0.00853648 0
M  V30 1221 H 115.292 -2.54011 1.59431 0
M  V30 1222 H 112.845 -1.30352 0.862441 0
M  V30 1223 H 113.58 -3.11173 -0.913337 0
M  V30 1224 H 113.365 -3.8587 0.696204 0
M  V30 1225 H 114.855 -4.16886 -0.24414 0
M  V30 1226 N 115.292 -0.849877 -1.32721 0
M  V30 1227 C 116.703 -0.506188 -1.79707 0
M  V30 1228 C 117.054 0.975627 -1.70223 0
M  V30 1229 O 116.179 1.76078 -1.25799 0
M  V30 1230 C 116.774 -0.912044 -3.26293 0
M  V30 1231 C 115.333 -0.620326 -3.71253 0
M  V30 1232 C 114.48 -1.11439 -2.53922 0
M  V30 1233 H 117.431 -1.03754 -1.20087 0
M  V30 1234 H 117.452 -0.226493 -3.79825 0
M  V30 1235 H 116.964 -1.99057 -3.33164 0
M  V30 1236 H 115.065 0.447674 -3.69901 0
M  V30 1237 H 115.178 -1.18327 -4.64258 0
M  V30 1238 H 113.542 -0.534834 -2.49021 0
M  V30 1239 H 114.325 -2.19992 -2.6355 0
M  V30 1240 N 116.77 1.45427 -0.607355 0
M  V30 1241 C 118.186 1.57283 -0.270985 0
M  V30 1242 C 118.386 1.59875 1.22647 0
M  V30 1243 O 117.442 1.52893 2.00948 0
M  V30 1244 C 118.755 2.85566 -0.941952 0
M  V30 1245 C 120.303 2.9924 -0.917849 0
M  V30 1246 C 120.778 4.30293 -1.56882 0
M  V30 1247 N 122.269 4.37051 -1.5343 0
M  V30 1248 C 123.004 5.37123 -2.00715 0
M  V30 1249 N 122.5 6.43734 -2.56084 0
M  V30 1250 N 124.293 5.28479 -1.91484 0
M  V30 1251 H 116.444 1.41988 -1.57966 0
M  V30 1252 H 118.707 0.67885 -0.661715 0
M  V30 1253 H 118.413 2.8955 -1.99633 0
M  V30 1254 H 118.287 3.74322 -0.465096 0
M  V30 1255 H 120.674 2.94822 0.127984 0
M  V30 1256 H 120.755 2.11895 -1.43297 0
M  V30 1257 H 120.399 4.35469 -2.61398 0
M  V30 1258 H 120.329 5.16454 -1.02873 0
M  V30 1259 H 122.82 3.60615 -1.12982 0
M  V30 1260 H 123.133 7.16341 -2.89958 0
M  V30 1261 H 121.478 6.44485 -2.60122 0
M  V30 1262 H 124.669 4.44098 -1.47967 0
M  V30 1263 H 124.842 6.0632 -2.28648 0
M  V30 1264 N 118.248 0.346503 1.53744 0
M  V30 1265 C 119.211 -0.496439 2.23759 0
M  V30 1266 C 120.211 -1.0252 1.2388 0
M  V30 1267 O 121.401 -0.913974 1.48297 0
M  V30 1268 C 118.533 -1.69187 2.95954 0
M  V30 1269 H 119.726 0.115952 2.99676 0
M  V30 1270 H 117.279 0.0978939 1.55993 0
M  V30 1271 H 118.014 -2.34288 2.24231 0
M  V30 1272 H 117.799 -1.31989 3.69217 0
M  V30 1273 H 119.289 -2.28969 3.49232 0
M  V30 1274 N 119.726 -1.57421 0.075193 0
M  V30 1275 C 120.689 -2.11791 -0.876203 0
M  V30 1276 C 121.689 -1.04268 -1.22412 0
M  V30 1277 O 122.879 -1.30242 -1.15684 0
M  V30 1278 C 120.011 -2.62207 -2.17854 0
M  V30 1279 H 121.204 -2.9716 -0.40444 0
M  V30 1280 H 118.757 -1.55333 -0.173557 0
M  V30 1281 H 119.492 -1.803 -2.6956 0
M  V30 1282 H 119.277 -3.40802 -1.93897 0
M  V30 1283 H 120.767 -3.04335 -2.85955 0
M  V30 1284 N 121.204 0.198386 -1.56346 0
M  V30 1285 C 122.62 0.549085 -1.49857 0
M  V30 1286 C 122.82 1.86016 -0.774611 0
M  V30 1287 O 121.876 2.50416 -0.323776 0
M  V30 1288 C 123.189 0.606868 -2.94512 0
M  V30 1289 C 124.737 0.695925 -3.05165 0
M  V30 1290 C 125.212 0.784848 -4.51225 0
M  V30 1291 N 126.703 0.848463 -4.55363 0
M  V30 1292 C 127.438 0.937378 -5.65686 0
M  V30 1293 N 126.934 0.9888 -6.85707 0
M  V30 1294 N 128.727 0.974312 -5.53592 0
M  V30 1295 H 120.878 -0.661655 -2.01831 0
M  V30 1296 H 123.141 -0.235261 -0.918344 0
M  V30 1297 H 122.847 -0.28732 -3.50524 0
M  V30 1298 H 122.721 1.46268 -3.47686 0
M  V30 1299 H 125.108 1.58055 -2.49204 0
M  V30 1300 H 125.189 -0.186022 -2.55123 0
M  V30 1301 H 124.833 -0.0954072 -5.0781 0
M  V30 1302 H 124.763 1.68255 -4.98997 0
M  V30 1303 H 127.254 0.818103 -3.68938 0
M  V30 1304 H 127.567 1.05707 -7.65536 0
M  V30 1305 H 125.912 0.957534 -6.88372 0
M  V30 1306 H 129.103 0.930954 -4.58749 0
M  V30 1307 H 129.276 1.04015 -6.39597 0
M  V30 1308 N 122.682 1.50554 0.465978 0
M  V30 1309 C 123.93 1.61479 1.21528 0
M  V30 1310 C 124.251 0.319596 1.92363 0
M  V30 1311 O 123.521 -0.663194 1.84333 0
M  V30 1312 H 122.101 0.595055 0.451573 0
M  V30 1313 H 124.763 1.87355 0.53704 0
M  V30 1314 H 123.859 2.42846 1.96042 0
M  V30 1315 N 124.16 -0.719506 1.40217 0
M  V30 1316 C 125.092 -1.84428 1.36084 0
M  V30 1317 C 126.105 -1.60597 0.266913 0
M  V30 1318 O 127.294 -1.70544 0.526983 0
M  V30 1319 C 124.394 -3.20757 1.094 0
M  V30 1320 C 123.567 -3.71817 2.30372 0
M  V30 1321 C 122.626 -4.86748 1.99907 0
M  V30 1322 O 121.652 -4.99603 2.72737 0
M  V30 1323 N 122.854 -5.7226 0.974635 0
M  V30 1324 H 125.619 -1.88473 2.33019 0
M  V30 1325 H 123.18 -0.900885 1.3452 0
M  V30 1326 H 125.172 -3.95235 0.870116 0
M  V30 1327 H 123.742 -3.11884 0.211452 0
M  V30 1328 H 122.962 -2.88514 2.68614 0
M  V30 1329 H 124.25 -4.02666 3.11026 0
M  V30 1330 H 123.648 -5.6448 0.371368 0
M  V30 1331 H 122.205 -6.46739 0.810656 0
M  V30 1332 N 125.638 -1.25649 -0.95132 0
M  V30 1333 C 126.571 -1.00644 -2.04807 0
M  V30 1334 C 127.549 0.0654271 -1.62468 0
M  V30 1335 O 128.733 -0.074911 -1.88351 0
M  V30 1336 C 125.86 -0.522052 -3.34653 0
M  V30 1337 C 124.906 -1.58495 -3.95957 0
M  V30 1338 S 125.739 -3.17108 -4.31512 0
M  V30 1339 C 126.895 -2.70412 -5.64471 0
M  V30 1340 H 127.128 -1.93508 -2.25703 0
M  V30 1341 H 124.661 -1.09216 -1.09139 0
M  V30 1342 H 126.619 -0.24923 -4.09743 0
M  V30 1343 H 125.28 0.386146 -3.11717 0
M  V30 1344 H 124.473 -1.1968 -4.89584 0
M  V30 1345 H 124.075 -1.80862 -3.2736 0
M  V30 1346 H 126.367 -2.14245 -6.42733 0
M  V30 1347 H 127.31 -3.62693 -6.08161 0
M  V30 1348 H 127.718 -2.10302 -5.23864 0
M  V30 1349 N 127.117 1.15442 -1.07289 0
M  V30 1350 C 128.047 2.22312 -0.714107 0
M  V30 1351 C 129.028 1.67467 0.298155 0
M  V30 1352 O 130.213 1.93445 0.171048 0
M  V30 1353 C 127.343 3.47124 -0.110448 0
M  V30 1354 C 126.297 4.14926 -1.04979 0
M  V30 1355 C 125.623 5.33807 -0.308924 0
M  V30 1356 C 126.923 4.64762 -2.38314 0
M  V30 1357 H 128.617 2.5258 -1.6076 0
M  V30 1358 H 126.163 1.21404 -0.77441 0
M  V30 1359 H 128.116 4.21124 0.152482 0
M  V30 1360 H 126.84 3.16187 0.81812 0
M  V30 1361 H 125.499 3.42866 -1.29764 0
M  V30 1362 H 125.147 4.99126 0.623084 0
M  V30 1363 H 124.847 5.80113 -0.935036 0
M  V30 1364 H 126.371 6.10576 -0.0537771 0
M  V30 1365 H 127.785 5.30292 -2.1786 0
M  V30 1366 H 126.182 5.21728 -2.96514 0
M  V30 1367 H 127.252 3.80434 -3.00663 0
M  V30 1368 N 128.595 0.856903 1.32268 0
M  V30 1369 C 129.844 0.457599 1.96441 0
M  V30 1370 C 130.157 -0.992426 1.68553 0
M  V30 1371 O 131.363 -1.49727 2.26482 0
M  V30 1372 C 129.819 0.767358 3.51624 0
M  V30 1373 C 129.427 2.23326 3.88367 0
M  V30 1374 C 131.171 0.435887 4.22256 0
M  V30 1375 C 129.078 2.48613 5.36606 0
M  V30 1376 H 128.008 0.167387 0.735185 0
M  V30 1377 H 130.659 1.048 1.5063 0
M  V30 1378 H 129.041 0.106367 3.95857 0
M  V30 1379 H 130.215 2.93623 3.55137 0
M  V30 1380 H 128.53 2.52948 3.30766 0
M  V30 1381 H 131.127 0.602202 5.31298 0
M  V30 1382 H 131.47 -0.622672 4.11617 0
M  V30 1383 H 132.003 1.05286 3.83614 0
M  V30 1384 H 128.742 3.53101 5.52268 0
M  V30 1385 H 128.262 1.82896 5.71235 0
M  V30 1386 H 129.941 2.32676 6.03714 0
M  V30 1387 N 130.073 -1.45103 0.615059 0
M  V30 1388 C 131.321 -2.01784 0.112955 0
M  V30 1389 C 131.642 -1.48504 -1.26378 0
M  V30 1390 O 130.912 -0.682245 -1.83636 0
M  V30 1391 H 129.492 -0.745993 0.0387668 0
M  V30 1392 H 132.154 -1.77808 0.798141 0
M  V30 1393 H 131.25 -3.12025 0.0684069 0
M  V30 1394 N 131.551 -0.354651 -1.53558 0
M  V30 1395 C 132.962 0.126902 -1.86268 0
M  V30 1396 C 133.313 1.49075 -1.27558 0
M  V30 1397 O 132.438 2.08105 -0.5934 0
M  V30 1398 C 133.033 0.237046 -3.3797 0
M  V30 1399 C 131.592 0.662842 -3.70518 0
M  V30 1400 C 130.739 -0.196652 -2.76602 0
M  V30 1401 H 133.69 -0.573849 -1.47962 0
M  V30 1402 H 133.711 1.06259 -3.65362 0
M  V30 1403 H 133.223 -0.755725 -3.80671 0
M  V30 1404 H 131.324 1.66424 -3.33367 0
M  V30 1405 H 131.437 0.445034 -4.77029 0
M  V30 1406 H 129.801 0.332763 -2.52517 0
M  V30 1407 H 130.584 -1.18676 -3.22135 0
M  V30 1408 N 133.029 1.57378 -0.0835403 0
M  V30 1409 C 134.306 1.85363 0.624507 0
M  V30 1410 C 134.686 0.978239 1.87066 0
M  V30 1411 O 134.034 0.0475908 2.2845 0
M  V30 1412 C 134.244 3.35795 0.950947 0
M  V30 1413 C 135.592 4.03581 1.31939 0
M  V30 1414 O 136.616 3.40609 1.04232 0
M  V30 1415 O 135.475 5.14672 1.83779 0
M  V30 1416 H 132.569 0.766162 0.311329 0
M  V30 1417 H 135.115 1.69307 -0.115362 0
M  V30 1418 H 133.887 3.91244 0.0663899 0
M  V30 1419 H 133.51 3.57154 1.74719 0
M  V30 1420 N 134.507 -0.190092 1.56449 0
M  V30 1421 C 135.755 -0.907908 1.80559 0
M  V30 1422 C 136.076 -1.83583 0.657438 0
M  V30 1423 O 135.346 -1.93203 -0.323924 0
M  V30 1424 H 133.926 -0.338247 0.666032 0
M  V30 1425 H 136.588 -0.194403 1.93928 0
M  V30 1426 H 135.684 -1.49604 2.73907 0
M  V30 1427 N 135.985 -1.50799 -0.457987 0
M  V30 1428 C 137.401 -1.38515 -0.792819 0
M  V30 1429 C 137.601 -0.451409 -1.96379 0
M  V30 1430 O 136.657 0.10112 -2.52297 0
M  V30 1431 C 137.97 -2.80149 -1.09258 0
M  V30 1432 C 139.518 -2.89156 -1.19825 0
M  V30 1433 C 139.993 -4.31651 -1.53106 0
M  V30 1434 N 141.484 -4.34662 -1.60072 0
M  V30 1435 C 142.219 -5.41928 -1.87354 0
M  V30 1436 N 141.715 -6.59384 -2.12568 0
M  V30 1437 N 143.508 -5.29385 -1.88965 0
M  V30 1438 H 135.659 -2.10073 0.313511 0
M  V30 1439 H 137.922 -0.944803 0.0777862 0
M  V30 1440 H 137.628 -3.50374 -0.305084 0
M  V30 1441 H 137.502 -3.18204 -2.02549 0
M  V30 1442 H 139.889 -2.19141 -1.97639 0
M  V30 1443 H 139.97 -2.54626 -0.244821 0
M  V30 1444 H 139.614 -5.02208 -0.758266 0
M  V30 1445 H 139.544 -4.63678 -2.49621 0
M  V30 1446 H 142.035 -3.49973 -1.42573 0
M  V30 1447 H 142.348 -7.36934 -2.32696 0
M  V30 1448 H 140.693 -6.62535 -2.09933 0
M  V30 1449 H 143.884 -4.36616 -1.68772 0
M  V30 1450 H 144.057 -6.13066 -2.09891 0
M  V30 1451 N 137.463 0.71206 -1.40597 0
M  V30 1452 C 138.393 1.83889 -1.43899 0
M  V30 1453 C 139.374 1.67442 -0.299504 0
M  V30 1454 O 140.559 1.87421 -0.508624 0
M  V30 1455 C 137.689 3.21877 -1.30431 0
M  V30 1456 C 136.643 3.53002 -2.42019 0
M  V30 1457 C 135.969 4.90172 -2.13626 0
M  V30 1458 C 137.269 3.53643 -3.84362 0
M  V30 1459 H 138.963 1.81383 -2.38203 0
M  V30 1460 H 136.509 0.871237 -1.14654 0
M  V30 1461 H 138.462 4.00404 -1.31357 0
M  V30 1462 H 137.186 3.24968 -0.326049 0
M  V30 1463 H 135.845 2.76818 -2.40349 0
M  V30 1464 H 135.493 4.89869 -1.14182 0
M  V30 1465 H 135.193 5.11962 -2.88389 0
M  V30 1466 H 136.717 5.71028 -2.1624 0
M  V30 1467 H 138.131 4.22203 -3.87837 0
M  V30 1468 H 136.528 3.86961 -4.58673 0
M  V30 1469 H 137.598 2.52954 -4.13693 0
M  V30 1470 N 138.941 1.26152 0.944643 0
M  V30 1471 C 140.19 1.10883 1.68487 0
M  V30 1472 C 140.503 -0.348153 1.92477 0
M  V30 1473 O 141.709 -0.621459 2.64292 0
M  V30 1474 C 140.165 1.93624 3.03377 0
M  V30 1475 C 139.773 3.43875 2.87148 0
M  V30 1476 C 141.517 1.86954 3.81115 0
M  V30 1477 C 139.424 4.18875 4.1749 0
M  V30 1478 H 138.354 0.41135 0.631907 0
M  V30 1479 H 141.005 1.50433 1.05082 0
M  V30 1480 H 139.387 1.46904 3.67743 0
M  V30 1481 H 140.561 3.98338 2.31653 0
M  V30 1482 H 138.876 3.51744 2.22856 0
M  V30 1483 H 141.473 2.40275 4.77673 0
M  V30 1484 H 141.816 0.839518 4.07747 0
M  V30 1485 H 142.349 2.31477 3.23517 0
M  V30 1486 H 139.088 5.22332 3.96043 0
M  V30 1487 H 138.608 3.69193 4.72712 0
M  V30 1488 H 140.287 4.27134 4.85968 0
M  V30 1489 N 140.419 -1.14872 1.07899 0
M  V30 1490 C 141.835 -1.37776 0.805606 0
M  V30 1491 C 142.035 -1.92743 -0.587555 0
M  V30 1492 O 141.091 -2.13678 -1.34528 0
M  V30 1493 C 142.404 -2.34361 1.88402 0
M  V30 1494 C 143.952 -2.48012 1.90942 0
M  V30 1495 C 144.427 -3.47893 2.97883 0
M  V30 1496 N 145.918 -3.55433 2.97021 0
M  V30 1497 C 146.653 -4.32553 3.76412 0
M  V30 1498 N 146.149 -5.12959 4.65666 0
M  V30 1499 N 147.942 -4.27697 3.64735 0
M  V30 1500 H 140.093 -0.775365 1.97742 0
M  V30 1501 H 142.356 -0.403521 0.857831 0
M  V30 1502 H 142.062 -2.01098 2.88535 0
M  V30 1503 H 141.936 -3.34206 1.74889 0
M  V30 1504 H 144.323 -2.8057 0.914579 0
M  V30 1505 H 144.404 -1.48147 2.08534 0
M  V30 1506 H 144.048 -3.16069 3.97571 0
M  V30 1507 H 143.978 -4.47527 2.77538 0
M  V30 1508 H 146.469 -2.98048 2.32326 0
M  V30 1509 H 146.782 -5.69065 5.22862 0
M  V30 1510 H 145.127 -5.12245 4.69712 0
M  V30 1511 H 148.318 -3.63949 2.94378 0
M  V30 1512 H 148.491 -4.8755 4.26848 0
M  V30 1513 N 141.898 -0.863906 -1.31812 0
M  V30 1514 C 143.123 -0.48527 -2.01643 0
M  V30 1515 C 143.548 0.913058 -1.64453 0
M  V30 1516 O 142.906 1.6014 -0.849985 0
M  V30 1517 C 142.954 -0.642625 -3.54828 0
M  V30 1518 O 142.058 0.320659 -4.11151 0
M  V30 1519 H 141.399 -0.193793 -0.635091 0
M  V30 1520 H 143.929 -1.16565 -1.68148 0
M  V30 1521 H 143.939 -0.533628 -4.04495 0
M  V30 1522 H 142.614 -1.66227 -3.81237 0
M  V30 1523 H 141.191 0.167126 -3.72525 0
M  V30 1524 N 143.376 1.44774 -0.622745 0
M  V30 1525 C 144.306 2.33382 0.0741861 0
M  V30 1526 C 145.287 1.47719 0.843387 0
M  V30 1527 O 146.472 1.76458 0.810934 0
M  V30 1528 C 143.602 3.30663 1.06204 0
M  V30 1529 C 142.556 4.26079 0.405037 0
M  V30 1530 C 141.882 5.13165 1.5022 0
M  V30 1531 C 143.182 5.1781 -0.683414 0
M  V30 1532 H 144.876 2.91905 -0.665713 0
M  V30 1533 H 142.422 1.40363 -0.321587 0
M  V30 1534 H 144.375 3.9153 1.55827 0
M  V30 1535 H 143.099 2.70331 1.83272 0
M  V30 1536 H 141.758 3.66532 -0.0704683 0
M  V30 1537 H 141.406 4.49191 2.26355 0
M  V30 1538 H 141.106 5.77812 1.06803 0
M  V30 1539 H 142.63 5.76902 2.00041 0
M  V30 1540 H 144.044 5.72661 -0.270631 0
M  V30 1541 H 142.441 5.91015 -1.04023 0
M  V30 1542 H 143.511 4.59326 -1.55395 0
M  V30 1543 N 144.854 0.36279 1.53368 0
M  V30 1544 C 146.102 -0.227326 2.00817 0
M  V30 1545 C 146.423 -1.49511 1.25186 0
M  V30 1546 O 145.693 -1.92482 0.364348 0
M  V30 1547 H 144.273 -0.0869923 0.741917 0
M  V30 1548 H 146.935 0.488381 1.88682 0
M  V30 1549 H 146.031 -0.456273 3.08747 0
M  V30 1550 N 146.332 -1.57332 0.0918853 0
M  V30 1551 C 147.264 -2.10869 -0.898168 0
M  V30 1552 C 148.277 -1.04521 -1.24817 0
M  V30 1553 O 149.466 -1.31977 -1.20184 0
M  V30 1554 C 146.566 -2.57083 -2.2082 0
M  V30 1555 C 145.739 -3.87229 -2.03402 0
M  V30 1556 C 144.798 -4.19324 -3.17889 0
M  V30 1557 O 143.824 -4.88598 -2.91994 0
M  V30 1558 N 145.026 -3.74471 -4.43567 0
M  V30 1559 H 147.791 -2.96439 -0.440943 0
M  V30 1560 H 145.352 -1.61631 -0.0933064 0
M  V30 1561 H 147.344 -2.75602 -2.96354 0
M  V30 1562 H 145.914 -1.76541 -2.57977 0
M  V30 1563 H 145.134 -3.7789 -1.12218 0
M  V30 1564 H 146.422 -4.72379 -1.89038 0
M  V30 1565 H 145.82 -3.18546 -4.67488 0
M  V30 1566 H 144.377 -3.98151 -5.16061 0
M  V30 1567 N 147.81 0.181792 -1.56548 0
M  V30 1568 C 148.773 1.20894 -1.94724 0
M  V30 1569 C 149.773 1.37738 -0.829747 0
M  V30 1570 O 150.963 1.35323 -1.09697 0
M  V30 1571 C 148.095 2.57593 -2.23291 0
M  V30 1572 H 149.288 0.882275 -2.86629 0
M  V30 1573 H 146.841 0.423838 -1.50444 0
M  V30 1574 H 147.576 2.95291 -1.34067 0
M  V30 1575 H 147.361 2.46735 -3.04736 0
M  V30 1576 H 148.851 3.31637 -2.53785 0
M  V30 1577 N 149.288 1.51039 0.449983 0
M  V30 1578 C 150.513 1.6715 1.22783 0
M  V30 1579 C 150.938 0.363081 1.84563 0
M  V30 1580 O 150.296 -0.675433 1.68249 0
M  V30 1581 C 150.344 2.77985 2.29689 0
M  V30 1582 O 149.448 2.40707 3.34864 0
M  V30 1583 H 148.789 0.557746 0.360299 0
M  V30 1584 H 151.319 1.97535 0.533005 0
M  V30 1585 H 151.329 3.01693 2.74673 0
M  V30 1586 H 150.004 3.72935 1.84098 0
M  V30 1587 H 148.581 2.27523 2.95445 0
M  V30 1588 N 150.766 -0.704594 1.40972 0
M  V30 1589 C 151.676 -1.84856 1.44448 0
M  V30 1590 C 152.692 -1.70726 0.335961 0
M  V30 1591 O 153.868 -1.92799 0.582276 0
M  V30 1592 C 150.933 -3.20758 1.31587 0
M  V30 1593 C 149.994 -3.47063 2.52677 0
M  V30 1594 C 149.227 -4.76481 2.4042 0
M  V30 1595 O 149.45 -5.52341 1.42391 0
M  V30 1596 O 148.384 -5.03367 3.30007 0
M  V30 1597 H 152.21 -1.8488 2.40942 0
M  V30 1598 H 149.795 -0.85647 1.22413 0
M  V30 1599 H 151.677 -4.01913 1.26665 0
M  V30 1600 H 150.352 -3.21438 0.382049 0
M  V30 1601 H 149.259 -2.65873 2.63177 0
M  V30 1602 H 150.592 -3.5119 3.44858 0
M  V30 1603 N 152.244 -1.26651 -0.937939 0
M  V30 1604 C 153.207 -1.08546 -2.01867 0
M  V30 1605 C 154.207 -0.0327327 -1.60767 0
M  V30 1606 O 155.397 -0.276427 -1.71993 0
M  V30 1607 C 152.529 -0.651711 -3.34613 0
M  V30 1608 H 153.722 -2.04502 -2.1936 0
M  V30 1609 H 151.275 -1.09294 -1.11734 0
M  V30 1610 H 152.01 0.309696 -3.22818 0
M  V30 1611 H 151.795 -1.41189 -3.65798 0
M  V30 1612 H 153.285 -0.546973 -4.14002 0
M  V30 1613 N 153.722 1.14298 -1.08507 0
M  V30 1614 C 154.999 1.81544 -0.728088 0
M  V30 1615 C 155.379 1.95838 0.78808 0
M  V30 1616 O 154.727 1.51904 1.70697 0
M  V30 1617 C 154.937 3.17169 -1.45619 0
M  V30 1618 C 156.285 3.9265 -1.61591 0
M  V30 1619 O 157.309 3.26762 -1.41793 0
M  V30 1620 O 156.168 5.10807 -1.94263 0
M  V30 1621 H 153.262 0.78491 -0.260471 0
M  V30 1622 H 155.808 1.21307 -1.18671 0
M  V30 1623 H 154.58 3.01934 -2.489 0
M  V30 1624 H 154.203 3.851 -0.989124 0
M  V30 1625 N 155.201 0.870884 1.31352 0
M  V30 1626 C 156.612 0.534714 1.78879 0
M  V30 1627 C 156.963 -0.948423 1.71754 0
M  V30 1628 O 156.088 -1.74055 1.28584 0
M  V30 1629 C 156.683 0.963839 3.24801 0
M  V30 1630 C 155.242 0.679311 3.70219 0
M  V30 1631 C 154.389 1.15465 2.52117 0
M  V30 1632 H 157.34 1.05651 1.18421 0
M  V30 1633 H 157.361 0.286892 3.79417 0
M  V30 1634 H 156.873 2.04332 3.29955 0
M  V30 1635 H 154.974 -0.388769 3.70566 0
M  V30 1636 H 155.087 1.25698 4.62317 0
M  V30 1637 H 153.451 0.574383 2.48139 0
M  V30 1638 H 154.234 2.24157 2.60016 0
M  V30 1639 N 156.679 -1.44442 0.630414 0
M  V30 1640 C 157.904 -2.06927 0.139944 0
M  V30 1641 C 158.329 -1.46795 -1.17613 0
M  V30 1642 O 157.687 -0.569144 -1.72135 0
M  V30 1643 C 157.735 -3.6058 0.0379581 0
M  V30 1644 O 156.839 -3.99937 -1.0062 0
M  V30 1645 H 156.18 -0.658608 0.0844483 0
M  V30 1646 H 158.71 -1.85327 0.866891 0
M  V30 1647 H 158.72 -4.07714 -0.152856 0
M  V30 1648 H 157.395 -4.03728 0.998809 0
M  V30 1649 H 155.972 -3.64436 -0.79001 0
M  V30 1650 N 158.157 -0.370918 -1.53173 0
M  V30 1651 C 159.405 0.216673 -2.00935 0
M  V30 1652 C 159.726 1.48845 -1.25977 0
M  V30 1653 O 158.996 1.92286 -0.374551 0
M  V30 1654 H 157.576 0.0830565 -0.742368 0
M  V30 1655 H 160.238 -0.49838 -1.8842 0
M  V30 1656 H 159.334 0.439893 -3.08984 0
M  V30 1657 N 159.635 1.57281 -0.100228 0
M  V30 1658 C 160.881 1.94826 0.563101 0
M  V30 1659 C 161.214 0.982475 1.67514 0
M  V30 1660 O 160.489 0.0164069 1.94493 0
M  V30 1661 C 160.772 3.42453 1.11346 0
M  V30 1662 C 160.625 4.498 0.00612081 0
M  V30 1663 C 161.944 3.91506 2.01024 0
M  V30 1664 H 159.063 0.708428 0.203221 0
M  V30 1665 H 161.705 1.8922 -0.171979 0
M  V30 1666 H 159.855 3.47361 1.7399 0
M  V30 1667 H 161.527 4.57 -0.628357 0
M  V30 1668 H 159.77 4.28756 -0.659581 0
M  V30 1669 H 160.441 5.50306 0.432109 0
M  V30 1670 H 162.917 3.88784 1.48278 0
M  V30 1671 H 161.793 4.95358 2.36457 0
M  V30 1672 H 162.054 3.31099 2.92961 0
M  V30 1673 N 161.113 -0.173488 1.56642 0
M  V30 1674 C 162.076 -1.19859 1.95362 0
M  V30 1675 C 163.076 -1.37296 0.83704 0
M  V30 1676 O 164.266 -1.34739 1.10413 0
M  V30 1677 C 161.398 -2.56405 2.24654 0
M  V30 1678 H 162.591 -0.867062 2.87092 0
M  V30 1679 H 160.144 -0.415853 1.50666 0
M  V30 1680 H 160.879 -2.94576 1.35631 0
M  V30 1681 H 160.664 -2.45115 3.06041 0
M  V30 1682 H 162.154 -3.30287 2.5554 0
M  V30 1683 N 162.591 -1.51276 -0.441967 0
M  V30 1684 C 163.816 -1.67799 -1.21895 0
M  V30 1685 C 164.241 -0.372864 -1.84367 0
M  V30 1686 O 163.599 0.666501 -1.68604 0
M  V30 1687 C 163.647 -2.79199 -2.28211 0
M  V30 1688 O 162.751 -2.42479 -3.33583 0
M  V30 1689 H 162.092 -0.559649 -0.357336 0
M  V30 1690 H 164.622 -1.97815 -0.522522 0
M  V30 1691 H 164.632 -3.03146 -2.73069 0
M  V30 1692 H 163.307 -3.73906 -1.82118 0
M  V30 1693 H 161.884 -2.29087 -2.94234 0
M  V30 1694 N 164.069 0.697108 -1.41344 0
M  V30 1695 C 165.318 1.45279 -1.39918 0
M  V30 1696 C 165.631 1.95597 -0.0109624 0
M  V30 1697 O 166.837 2.71208 0.125919 0
M  V30 1698 C 165.293 2.62695 -2.46007 0
M  V30 1699 C 164.901 2.19169 -3.90729 0
M  V30 1700 C 166.645 3.40336 -2.53715 0
M  V30 1701 C 164.552 3.33535 -4.88373 0
M  V30 1702 H 163.482 0.545692 -0.520323 0
M  V30 1703 H 166.133 0.756929 -1.67161 0
M  V30 1704 H 164.515 3.34541 -2.11892 0
M  V30 1705 H 165.689 1.54623 -4.34083 0
M  V30 1706 H 164.004 1.54525 -3.86666 0
M  V30 1707 H 166.601 4.2547 -3.2385 0
M  V30 1708 H 166.944 3.85418 -1.5735 0
M  V30 1709 H 167.477 2.75546 -2.86913 0
M  V30 1710 H 164.216 2.93468 -5.86137 0
M  V30 1711 H 163.736 3.96936 -4.49668 0
M  V30 1712 H 165.415 3.99335 -5.09059 0
M  V30 1713 N 165.547 1.27147 0.931209 0
M  V30 1714 C 166.51 1.09615 2.01289 0
M  V30 1715 C 167.51 0.0412581 1.60747 0
M  V30 1716 O 168.7 0.285545 1.71844 0
M  V30 1717 C 165.832 0.669447 3.34262 0
M  V30 1718 H 167.025 2.05662 2.18273 0
M  V30 1719 H 164.578 1.09885 1.11153 0
M  V30 1720 H 165.313 -0.292572 3.22978 0
M  V30 1721 H 165.098 1.43127 3.65044 0
M  V30 1722 H 166.588 0.568921 4.13706 0
M  V30 1723 N 167.025 -1.13721 1.09112 0
M  V30 1724 C 168.265 -1.86576 0.834801 0
M  V30 1725 C 168.629 -1.81435 -0.628122 0
M  V30 1726 O 169.83 -2.49497 -1.00024 0
M  V30 1727 C 168.101 -3.30872 1.35124 0
M  V30 1728 S 169.66 -4.21257 1.22832 0
M  V30 1729 H 166.478 -0.643666 0.302017 0
M  V30 1730 H 169.08 -1.37085 1.39385 0
M  V30 1731 H 167.784 -3.32166 2.41027 0
M  V30 1732 H 167.315 -3.85423 0.788185 0
M  V30 1733 H 169.33 -4.95884 0.177191 0
M  V30 1734 N 168.503 -0.877838 -1.30888 0
M  V30 1735 C 169.728 -0.506629 -2.01117 0
M  V30 1736 C 170.153 0.895564 -1.65412 0
M  V30 1737 O 169.511 1.5923 -0.866922 0
M  V30 1738 C 169.559 -0.680223 -3.54126 0
M  V30 1739 O 168.663 0.277033 -4.11468 0
M  V30 1740 H 168.004 -0.200518 -0.633 0
M  V30 1741 H 170.534 -1.18342 -1.66902 0
M  V30 1742 H 170.544 -0.5765 -4.03907 0
M  V30 1743 H 169.219 -1.70261 -3.79452 0
M  V30 1744 H 167.796 0.127606 -3.72682 0
M  V30 1745 N 169.982 1.44106 -0.638065 0
M  V30 1746 C 171.207 2.0685 -0.150916 0
M  V30 1747 C 171.632 1.47417 1.16833 0
M  V30 1748 O 170.99 0.578264 1.71831 0
M  V30 1749 C 171.038 3.60555 -0.05708 0
M  V30 1750 O 170.142 4.00465 0.984972 0
M  V30 1751 H 169.483 0.658151 -0.0879399 0
M  V30 1752 H 172.013 1.84865 -0.876707 0
M  V30 1753 H 172.023 4.07789 0.131232 0
M  V30 1754 H 170.698 4.03193 -1.02021 0
M  V30 1755 H 169.275 3.64849 0.770672 0
M  V30 1756 N 171.46 0.379036 1.52974 0
M  V30 1757 C 172.7 -0.206325 2.03356 0
M  V30 1758 C 173.064 -1.44892 1.25977 0
M  V30 1759 O 174.265 -2.11078 1.66432 0
M  V30 1760 C 172.536 -0.477887 3.54191 0
M  V30 1761 S 174.095 -1.035 4.26419 0
M  V30 1762 H 170.913 -0.0590259 0.708546 0
M  V30 1763 H 173.515 0.525013 1.88319 0
M  V30 1764 H 172.219 0.433745 4.08101 0
M  V30 1765 H 171.75 -1.23793 3.73415 0
M  V30 1766 H 173.765 -2.31821 4.38718 0
M  V30 1767 N 172.938 -1.57226 0.108567 0
M  V30 1768 C 174.184 -1.95121 -0.552761 0
M  V30 1769 C 174.517 -0.991345 -1.66991 0
M  V30 1770 O 173.792 -0.0267211 -1.94482 0
M  V30 1771 C 174.075 -3.43039 -1.09528 0
M  V30 1772 C 173.928 -4.49797 0.0177332 0
M  V30 1773 C 175.247 -3.92567 -1.98945 0
M  V30 1774 H 172.366 -0.709496 -0.199461 0
M  V30 1775 H 175.008 -1.89126 0.182011 0
M  V30 1776 H 173.158 -3.48279 -1.72146 0
M  V30 1777 H 174.83 -4.56661 0.652584 0
M  V30 1778 H 173.073 -4.284 0.682309 0
M  V30 1779 H 173.744 -5.50528 -0.402919 0
M  V30 1780 H 176.22 -3.89565 -1.46214 0
M  V30 1781 H 175.096 -4.96605 -2.33827 0
M  V30 1782 H 175.357 -3.32648 -2.91201 0
M  V30 1783 N 174.416 0.165178 -1.56732 0
M  V30 1784 C 175.832 0.517174 -1.50988 0
M  V30 1785 C 176.032 1.84331 -0.813894 0
M  V30 1786 O 175.088 2.49672 -0.37682 0
M  V30 1787 C 176.401 0.544261 -2.95733 0
M  V30 1788 C 177.949 0.631039 -3.06573 0
M  V30 1789 C 178.424 0.68896 -4.52788 0
M  V30 1790 N 179.915 0.751683 -4.5706 0
M  V30 1791 C 180.65 0.817177 -5.67547 0
M  V30 1792 N 180.146 0.843129 -6.8765 0
M  V30 1793 N 181.939 0.856668 -5.55534 0
M  V30 1794 H 174.09 -0.704318 -2.00382 0
M  V30 1795 H 176.353 -0.254687 -0.913148 0
M  V30 1796 H 176.059 -0.361607 -3.49836 0
M  V30 1797 H 175.933 1.3886 -3.5071 0
M  V30 1798 H 178.32 1.52733 -2.52501 0
M  V30 1799 H 178.401 -0.240095 -2.54671 0
M  V30 1800 H 178.045 -0.2031 -5.07494 0
M  V30 1801 H 177.975 1.57633 -5.02454 0
M  V30 1802 H 180.466 0.739661 -3.70591 0
M  V30 1803 H 180.779 0.894448 -7.67606 0
M  V30 1804 H 179.124 0.811304 -6.90248 0
M  V30 1805 H 182.315 0.833437 -4.60621 0
M  V30 1806 H 182.488 0.904247 -6.4166 0
M  V30 1807 N 175.894 1.51508 0.433938 0
M  V30 1808 C 176.857 1.72473 1.50949 0
M  V30 1809 C 177.857 0.594725 1.49398 0
M  V30 1810 O 179.047 0.862315 1.5136 0
M  V30 1811 C 176.179 1.78431 2.90474 0
M  V30 1812 H 177.372 2.68467 1.33662 0
M  V30 1813 H 174.925 1.41549 0.662836 0
M  V30 1814 H 175.66 0.842645 3.13161 0
M  V30 1815 H 175.445 2.60558 2.93005 0
M  V30 1816 H 176.935 1.96479 3.68491 0
M  V30 1817 N 177.372 -0.689602 1.41712 0
M  V30 1818 C 178.618 -1.45181 1.41599 0
M  V30 1819 C 178.951 -1.94181 0.0270081 0
M  V30 1820 O 178.226 -1.6993 -0.946265 0
M  V30 1821 C 178.509 -2.65945 2.42787 0
M  V30 1822 C 178.362 -2.22672 3.90816 0
M  V30 1823 C 179.681 -3.68149 2.41151 0
M  V30 1824 H 176.8 -0.526576 0.515642 0
M  V30 1825 H 179.442 -0.784947 1.73028 0
M  V30 1826 H 177.592 -3.2284 2.16116 0
M  V30 1827 H 179.264 -1.71058 4.28412 0
M  V30 1828 H 177.507 -1.54394 4.05395 0
M  V30 1829 H 178.178 -3.0935 4.57172 0
M  V30 1830 H 180.654 -3.2094 2.64834 0
M  V30 1831 H 179.53 -4.50248 3.13955 0
M  V30 1832 H 179.791 -4.18259 1.43221 0
M  V30 1833 N 178.85 -1.27639 -0.924453 0
M  V30 1834 C 180.127 -1.04887 -1.651 0
M  V30 1835 C 180.507 0.415327 -2.06974 0
M  V30 1836 O 179.855 1.39923 -1.80648 0
M  V30 1837 C 180.065 -2.01348 -2.85061 0
M  V30 1838 C 181.413 -2.30899 -3.56329 0
M  V30 1839 O 182.437 -1.99348 -2.95193 0
M  V30 1840 O 181.296 -2.84699 -4.66485 0
M  V30 1841 H 178.39 -0.400083 -0.723784 0
M  V30 1842 H 180.936 -1.38916 -0.974703 0
M  V30 1843 H 179.708 -3.0008 -2.51133 0
M  V30 1844 H 179.331 -1.679 -3.6041 0
M  V30 1845 N 180.328 1.1314 -1.09713 0
M  V30 1846 C 181.576 1.84119 -0.833338 0
M  V30 1847 C 181.897 1.84097 0.642904 0
M  V30 1848 O 181.167 1.29881 1.46655 0
M  V30 1849 H 179.747 0.681766 -0.305293 0
M  V30 1850 H 182.409 1.37038 -1.38588 0
M  V30 1851 H 181.505 2.88543 -1.18951 0
M  V30 1852 N 181.806 0.884767 1.30421 0
M  V30 1853 C 182.753 0.349642 2.28136 0
M  V30 1854 C 183.723 -0.560061 1.56373 0
M  V30 1855 O 184.908 -0.488524 1.8444 0
M  V30 1856 C 182.048 -0.42999 3.42411 0
M  V30 1857 C 181.161 0.508907 4.28992 0
M  V30 1858 C 180.296 -0.286301 5.30428 0
M  V30 1859 C 179.335 0.648079 6.08659 0
M  V30 1860 N 178.472 -0.111792 7.02011 0
M  V30 1861 H 183.312 1.18807 2.73293 0
M  V30 1862 H 180.849 0.597231 1.3443 0
M  V30 1863 H 182.807 -0.897923 4.07423 0
M  V30 1864 H 181.437 -1.23299 2.98324 0
M  V30 1865 H 180.489 1.09533 3.64289 0
M  V30 1866 H 181.801 1.22475 4.8353 0
M  V30 1867 H 180.955 -0.816098 6.01186 0
M  V30 1868 H 179.694 -1.03536 4.76583 0
M  V30 1869 H 178.699 1.18951 5.36778 0
M  V30 1870 H 179.924 1.39623 6.64592 0
M  V30 1871 H 177.87 -0.843395 6.50556 0
M  V30 1872 H 177.787 0.544429 7.54037 0
M  V30 1873 H 179.055 -0.622339 7.77012 0
M  V30 1874 N 183.284 -1.43765 0.645699 0
M  V30 1875 C 184.247 -2.29163 -0.0409488 0
M  V30 1876 C 185.247 -1.41813 -0.757996 0
M  V30 1877 O 186.437 -1.63527 -0.600382 0
M  V30 1878 C 183.569 -3.23716 -1.06869 0
M  V30 1879 H 184.762 -2.91366 0.710345 0
M  V30 1880 H 182.315 -1.5092 0.406547 0
M  V30 1881 H 183.05 -2.66393 -1.84947 0
M  V30 1882 H 182.835 -3.88105 -0.558277 0
M  V30 1883 H 184.325 -3.87831 -1.54845 0
M  V30 1884 N 184.763 -0.387143 -1.52771 0
M  V30 1885 C 186.009 0.196025 -2.0185 0
M  V30 1886 C 186.342 1.46641 -1.27319 0
M  V30 1887 O 185.617 1.90889 -0.373032 0
M  V30 1888 C 185.9 0.466136 -3.5707 0
M  V30 1889 C 185.753 -0.819385 -4.42274 0
M  V30 1890 C 187.072 1.25768 -4.21747 0
M  V30 1891 H 184.191 0.0697708 -0.73369 0
M  V30 1892 H 186.833 -0.516286 -1.82851 0
M  V30 1893 H 184.983 1.07293 -3.7339 0
M  V30 1894 H 186.655 -1.4563 -4.37709 0
M  V30 1895 H 184.898 -1.43517 -4.09372 0
M  V30 1896 H 185.569 -0.585065 -5.48891 0
M  V30 1897 H 188.045 0.744167 -4.09391 0
M  V30 1898 H 186.921 1.41541 -5.30337 0
M  V30 1899 H 187.182 2.27228 -3.79236 0
M  V30 1900 N 186.241 1.57166 -0.116904 0
M  V30 1901 C 187.481 1.97008 0.544715 0
M  V30 1902 C 187.845 0.998713 1.63981 0
M  V30 1903 O 189.046 1.28644 2.36018 0
M  V30 1904 C 187.317 3.41145 1.06559 0
M  V30 1905 S 188.876 4.02998 1.73603 0
M  V30 1906 H 185.694 0.688587 0.177112 0
M  V30 1907 H 188.296 1.94459 -0.201487 0
M  V30 1908 H 187 4.09592 0.257374 0
M  V30 1909 H 186.531 3.4734 1.84712 0
M  V30 1910 H 188.546 3.93585 3.02168 0
M  V30 1911 N 187.719 -0.156864 1.56817 0
M  V30 1912 C 188.967 -0.869404 1.82444 0
M  V30 1913 C 189.288 -1.82147 0.69623 0
M  V30 1914 O 188.558 -1.93847 -0.28287 0
M  V30 1915 H 187.138 -0.324043 0.673056 0
M  V30 1916 H 189.8 -0.153224 1.94297 0
M  V30 1917 H 188.896 -1.43761 2.77019 0
M  V30 1918 N 189.197 -1.51736 -0.425897 0
M  V30 1919 C 190.129 -1.70083 -1.53638 0
M  V30 1920 C 191.142 -0.581349 -1.52066 0
M  V30 1921 O 192.331 -0.856017 -1.56635 0
M  V30 1922 C 189.431 -1.71078 -2.9255 0
M  V30 1923 C 188.604 -2.99795 -3.185 0
M  V30 1924 C 187.663 -2.92825 -4.37196 0
M  V30 1925 O 186.689 -3.66756 -4.35291 0
M  V30 1926 N 187.891 -2.0946 -5.41393 0
M  V30 1927 H 190.656 -2.65882 -1.383 0
M  V30 1928 H 188.217 -1.49765 -0.614988 0
M  V30 1929 H 190.209 -1.63969 -3.69995 0
M  V30 1930 H 188.779 -0.828242 -3.01428 0
M  V30 1931 H 187.999 -3.20684 -2.2925 0
M  V30 1932 H 189.287 -3.84977 -3.32671 0
M  V30 1933 H 188.685 -1.48792 -5.45781 0
M  V30 1934 H 187.242 -2.08221 -6.17647 0
M  V30 1935 N 190.675 0.682077 -1.42076 0
M  V30 1936 C 191.915 1.45424 -1.43636 0
M  V30 1937 C 192.279 1.91939 -0.0484001 0
M  V30 1938 O 193.48 2.6873 0.0612514 0
M  V30 1939 C 191.751 2.62427 -2.42625 0
M  V30 1940 S 193.31 3.51379 -2.62827 0
M  V30 1941 H 190.128 0.496779 -0.508657 0
M  V30 1942 H 192.73 0.794645 -1.78621 0
M  V30 1943 H 191.434 2.26481 -3.42249 0
M  V30 1944 H 190.965 3.33266 -2.09039 0
M  V30 1945 H 192.98 4.58141 -1.9058 0
M  V30 1946 N 192.153 1.28127 0.917671 0
M  V30 1947 C 193.063 1.13556 2.05286 0
M  V30 1948 C 194.079 0.0630914 1.73886 0
M  V30 1949 O 195.255 0.271598 1.9956 0
M  V30 1950 C 192.32 0.794676 3.3747 0
M  V30 1951 C 191.381 1.94909 3.82504 0
M  V30 1952 C 190.614 1.62437 5.0838 0
M  V30 1953 O 190.837 0.536905 5.67867 0
M  V30 1954 O 189.771 2.46677 5.4903 0
M  V30 1955 H 193.597 2.08844 2.20495 0
M  V30 1956 H 191.182 1.07409 1.03845 0
M  V30 1957 H 193.064 0.618344 4.16839 0
M  V30 1958 H 191.739 -0.128581 3.23445 0
M  V30 1959 H 190.646 2.18055 3.03978 0
M  V30 1960 H 191.979 2.85291 4.01086 0
M  V30 1961 N 193.631 -1.12557 1.10312 0
M  V30 1962 C 195.047 -1.36036 0.834649 0
M  V30 1963 C 195.247 -1.93946 -0.546539 0
M  V30 1964 O 194.303 -2.16484 -1.29966 0
M  V30 1965 C 195.616 -2.30312 1.9333 0
M  V30 1966 C 197.164 -2.43906 1.9616 0
M  V30 1967 C 197.639 -3.41496 3.05195 0
M  V30 1968 N 199.13 -3.49053 3.04494 0
M  V30 1969 C 199.865 -4.24471 3.85502 0
M  V30 1970 N 199.361 -5.02966 4.76442 0
M  V30 1971 N 201.154 -4.19864 3.73725 0
M  V30 1972 H 193.305 -0.733246 1.99342 0
M  V30 1973 H 195.568 -0.385234 0.866198 0
M  V30 1974 H 195.274 -1.94933 2.92735 0
M  V30 1975 H 195.148 -3.30421 1.81939 0
M  V30 1976 H 197.535 -2.78567 0.973886 0
M  V30 1977 H 197.616 -1.4369 2.11629 0
M  V30 1978 H 197.26 -3.07565 4.04186 0
M  V30 1979 H 197.19 -4.41539 2.86968 0
M  V30 1980 H 199.681 -2.93053 2.38596 0
M  V30 1981 H 199.994 -5.57846 5.34815 0
M  V30 1982 H 198.339 -5.02167 4.80472 0
M  V30 1983 H 201.53 -3.57623 3.02032 0
M  V30 1984 H 201.703 -4.78386 4.37093 0
M  V30 1985 N 195.109 -0.891671 -1.2995 0
M  V30 1986 C 196.072 -0.36828 -2.26222 0
M  V30 1987 C 197.072 0.493014 -1.53056 0
M  V30 1988 O 198.262 0.299213 -1.71611 0
M  V30 1989 C 195.394 0.47442 -3.37583 0
M  V30 1990 H 196.587 -1.21844 -2.74033 0
M  V30 1991 H 194.14 -0.669107 -1.41254 0
M  V30 1992 H 194.875 1.34489 -2.95099 0
M  V30 1993 H 194.66 -0.142615 -3.91841 0
M  V30 1994 H 196.15 0.83218 -4.09224 0
M  V30 1995 N 196.587 1.43421 -0.653314 0
M  V30 1996 C 197.517 2.33487 0.0246656 0
M  V30 1997 C 198.498 1.49475 0.811863 0
M  V30 1998 O 199.683 1.78139 0.773322 0
M  V30 1999 C 196.813 3.32841 0.99166 0
M  V30 2000 C 195.767 4.26842 0.314568 0
M  V30 2001 C 195.093 5.16236 1.39302 0
M  V30 2002 C 196.393 5.16243 -0.793095 0
M  V30 2003 H 198.087 2.90427 -0.727481 0
M  V30 2004 H 195.633 1.39649 -0.351287 0
M  V30 2005 H 197.586 3.94747 1.47487 0
M  V30 2006 H 196.31 2.74158 1.77497 0
M  V30 2007 H 194.969 3.663 -0.148199 0
M  V30 2008 H 194.617 4.53891 2.16776 0
M  V30 2009 H 194.317 5.79948 0.945223 0
M  V30 2010 H 195.841 5.81015 1.87759 0
M  V30 2011 H 197.255 5.71958 -0.392039 0
M  V30 2012 H 195.652 5.88676 -1.16536 0
M  V30 2013 H 196.722 4.55927 -1.65103 0
M  V30 2014 N 198.065 0.39524 1.52563 0
M  V30 2015 C 199.305 -0.184744 2.03563 0
M  V30 2016 C 199.669 -1.43548 1.27507 0
M  V30 2017 O 200.87 -2.093 1.68662 0
M  V30 2018 C 199.141 -0.440294 3.54678 0
M  V30 2019 S 200.7 -0.989712 4.27493 0
M  V30 2020 H 197.518 -0.0515075 0.709132 0
M  V30 2021 H 200.12 0.544957 1.87751 0
M  V30 2022 H 198.824 0.477005 4.07618 0
M  V30 2023 H 198.355 -1.19825 3.74707 0
M  V30 2024 H 200.37 -2.27155 4.41152 0
M  V30 2025 N 199.544 -1.57102 0.125237 0
M  V30 2026 C 200.792 -1.95021 -0.530198 0
M  V30 2027 C 201.113 -1.00982 -1.66816 0
M  V30 2028 O 200.383 -0.0672693 -1.95784 0
M  V30 2029 H 198.963 -0.720046 -0.198853 0
M  V30 2030 H 201.625 -1.93916 0.19564 0
M  V30 2031 H 200.721 -2.98211 -0.920681 0
M  V30 2032 N 201.022 0.148545 -1.56898 0
M  V30 2033 C 201.954 1.20852 -1.9475 0
M  V30 2034 C 202.967 1.39265 -0.843152 0
M  V30 2035 O 204.156 1.38864 -1.12156 0
M  V30 2036 C 201.256 2.57362 -2.20495 0
M  V30 2037 C 200.429 2.59947 -3.51776 0
M  V30 2038 C 199.488 3.77984 -3.6608 0
M  V30 2039 O 198.514 3.62929 -4.38487 0
M  V30 2040 N 199.716 4.95375 -3.02629 0
M  V30 2041 H 202.481 0.886804 -2.86279 0
M  V30 2042 H 200.042 0.338121 -1.5833 0
M  V30 2043 H 202.034 3.34833 -2.27307 0
M  V30 2044 H 200.604 2.81832 -1.35238 0
M  V30 2045 H 199.824 1.68403 -3.56419 0
M  V30 2046 H 201.112 2.58704 -4.38121 0
M  V30 2047 H 200.51 5.10509 -2.43715 0
M  V30 2048 H 199.067 5.70627 -3.15004 0
M  V30 2049 N 202.5 1.5196 0.417844 0
M  V30 2050 C 203.74 1.67262 1.17486 0
M  V30 2051 C 204.104 0.38983 1.88001 0
M  V30 2052 O 205.305 0.418845 2.65517 0
M  V30 2053 C 203.576 2.85526 2.14965 0
M  V30 2054 S 205.135 3.21263 2.98891 0
M  V30 2055 H 201.953 0.589077 0.398132 0
M  V30 2056 H 204.555 1.89927 0.463452 0
M  V30 2057 H 203.259 3.77145 1.61833 0
M  V30 2058 H 202.79 2.65107 2.90657 0
M  V30 2059 H 204.805 2.69208 4.16823 0
M  V30 2060 N 203.978 -0.674533 1.42435 0
M  V30 2061 C 205.224 -1.43671 1.43131 0
M  V30 2062 C 205.557 -1.94142 0.0476021 0
M  V30 2063 O 204.832 -1.70924 -0.928188 0
M  V30 2064 C 205.115 -2.63355 2.45594 0
M  V30 2065 C 204.968 -2.18514 3.93156 0
M  V30 2066 C 206.287 -3.65571 2.45043 0
M  V30 2067 H 203.406 -0.521077 0.521198 0
M  V30 2068 H 206.048 -0.766551 1.7385 0
M  V30 2069 H 204.198 -3.2053 2.19528 0
M  V30 2070 H 205.87 -1.66504 4.30202 0
M  V30 2071 H 204.113 -1.50086 4.07009 0
M  V30 2072 H 204.784 -3.04484 4.60428 0
M  V30 2073 H 207.26 -3.18113 2.68223 0
M  V30 2074 H 206.136 -4.46893 3.18713 0
M  V30 2075 H 206.397 -4.16716 1.47649 0
M  V30 2076 N 205.456 -1.28612 -0.910864 0
M  V30 2077 C 206.872 -1.06381 -1.18976 0
M  V30 2078 C 207.072 0.191998 -2.00583 0
M  V30 2079 O 206.128 0.892869 -2.36187 0
M  V30 2080 C 207.441 -2.31295 -1.92154 0
M  V30 2081 C 208.989 -2.36503 -2.05025 0
M  V30 2082 C 209.464 -3.61191 -2.81612 0
M  V30 2083 N 210.955 -3.61847 -2.89172 0
M  V30 2084 C 211.69 -4.55004 -3.4894 0
M  V30 2085 N 211.186 -5.58482 -4.09963 0
M  V30 2086 N 212.979 -4.42594 -3.46506 0
M  V30 2087 H 205.13 -2.09221 -0.366094 0
M  V30 2088 H 207.393 -0.921003 -0.224629 0
M  V30 2089 H 207.099 -3.228 -1.39618 0
M  V30 2090 H 206.973 -2.37934 -2.9269 0
M  V30 2091 H 209.36 -1.45494 -2.5674 0
M  V30 2092 H 209.441 -2.33857 -1.03657 0
M  V30 2093 H 209.085 -4.52545 -2.30576 0
M  V30 2094 H 209.015 -3.61092 -3.83302 0
M  V30 2095 H 211.506 -2.87022 -2.45819 0
M  V30 2096 H 211.819 -6.25704 -4.53557 0
M  V30 2097 H 210.164 -5.62305 -4.08459 0
M  V30 2098 H 213.355 -3.60953 -2.98045 0
M  V30 2099 H 213.528 -5.15381 -3.92793 0
M  V30 2100 N 206.934 1.1197 -1.10907 0
M  V30 2101 C 208.162 1.87402 -0.876824 0
M  V30 2102 C 208.577 1.79894 0.573025 0
M  V30 2103 O 207.934 1.17629 1.39534 0
M  V30 2104 C 207.985 3.36428 -1.32282 0
M  V30 2105 O 207.706 3.43765 -2.71582 0
M  V30 2106 C 209.207 4.28783 -1.12518 0
M  V30 2107 H 206.427 0.592793 -0.314384 0
M  V30 2108 H 208.971 1.41649 -1.47499 0
M  V30 2109 H 207.126 3.79706 -0.768229 0
M  V30 2110 H 207.54 4.3652 -2.90776 0
M  V30 2111 H 209.014 5.31613 -1.48633 0
M  V30 2112 H 209.491 4.39153 -0.0642394 0
M  V30 2113 H 210.097 3.91291 -1.66648 0
M  V30 2114 N 208.412 0.89855 1.29475 0
M  V30 2115 C 209.652 0.530771 1.97388 0
M  V30 2116 C 210.016 -0.905832 1.69289 0
M  V30 2117 O 211.217 -1.38042 2.30646 0
M  V30 2118 C 209.488 0.81369 3.48014 0
M  V30 2119 S 211.047 0.550048 4.35339 0
M  V30 2120 H 207.865 0.196956 0.683176 0
M  V30 2121 H 210.467 1.16074 1.57312 0
M  V30 2122 H 209.171 1.85749 3.65958 0
M  V30 2123 H 208.702 0.171795 3.93025 0
M  V30 2124 H 210.717 -0.605423 4.92493 0
M  V30 2125 N 209.89 -1.43072 0.660911 0
M  V30 2126 C 211.136 -2.02545 0.186337 0
M  V30 2127 C 211.491 -1.51253 -1.18913 0
M  V30 2128 O 210.784 -0.699167 -1.78388 0
M  V30 2129 C 210.978 -3.57103 0.145563 0
M  V30 2130 C 210.807 -4.23393 1.51554 0
M  V30 2131 C 209.577 -4.59144 2.10984 0
M  V30 2132 C 211.775 -4.51897 2.45548 0
M  V30 2133 N 209.757 -5.10545 3.40907 0
M  V30 2134 C 211.128 -5.04698 3.6011 0
M  V30 2135 C 213.183 -4.33872 2.44253 0
M  V30 2136 C 211.886 -5.41371 4.73613 0
M  V30 2137 C 213.912 -4.71612 3.56842 0
M  V30 2138 C 213.274 -5.24553 4.70131 0
M  V30 2139 H 209.373 -0.773823 0.112792 0
M  V30 2140 H 211.957 -1.74137 0.870885 0
M  V30 2141 H 210.128 -3.85059 -0.508353 0
M  V30 2142 H 211.86 -4.03264 -0.340598 0
M  V30 2143 H 208.615 -4.4444 1.63615 0
M  V30 2144 H 209.039 -5.40689 4.07411 0
M  V30 2145 H 213.681 -3.92208 1.579 0
M  V30 2146 H 211.399 -5.81975 5.60652 0
M  V30 2147 H 214.985 -4.59354 3.57051 0
M  V30 2148 H 213.865 -5.53213 5.5581 0
M  V30 2149 N 211.368 -0.403325 -1.52352 0
M  V30 2150 C 212.616 0.174003 -2.0135 0
M  V30 2151 C 212.937 1.46139 -1.29106 0
M  V30 2152 O 212.207 1.91448 -0.415253 0
M  V30 2153 H 210.787 0.0672911 -0.743963 0
M  V30 2154 H 213.449 -0.538235 -1.87321 0
M  V30 2155 H 212.545 0.374254 -3.09848 0
M  V30 2156 N 212.846 1.57033 -0.133567 0
M  V30 2157 C 214.086 1.97575 0.523789 0
M  V30 2158 C 214.45 1.01605 1.62912 0
M  V30 2159 O 215.651 1.3114 2.3464 0
M  V30 2160 C 213.922 3.42256 1.02935 0
M  V30 2161 S 215.481 4.04817 1.69319 0
M  V30 2162 H 212.299 0.690427 0.169799 0
M  V30 2163 H 214.901 1.94234 -0.222101 0
M  V30 2164 H 213.605 4.09842 0.213917 0
M  V30 2165 H 213.136 3.4928 1.81017 0
M  V30 2166 H 215.151 3.96767 2.97977 0
M  V30 2167 N 214.325 -0.140222 1.56975 0
M  V30 2168 C 215.573 -0.850005 1.83356 0
M  V30 2169 C 215.894 -1.81399 0.71551 0
M  V30 2170 O 215.164 -1.94136 -0.262294 0
M  V30 2171 H 213.744 -0.316886 0.676456 0
M  V30 2172 H 216.406 -0.132608 1.94448 0
M  V30 2173 H 215.502 -1.40814 2.78528 0
M  V30 2174 N 215.803 -1.52179 -0.40978 0
M  V30 2175 C 217.028 -1.70347 -1.18308 0
M  V30 2176 C 217.453 -0.411887 -1.83535 0
M  V30 2177 O 216.811 0.630587 -1.6998 0
M  V30 2178 C 216.859 -2.83977 -2.22238 0
M  V30 2179 O 215.963 -2.495 -3.28365 0
M  V30 2180 H 215.304 -0.567103 -0.345384 0
M  V30 2181 H 217.834 -1.98879 -0.480445 0
M  V30 2182 H 217.844 -3.0887 -2.66577 0
M  V30 2183 H 216.519 -3.77685 -1.74146 0
M  V30 2184 H 215.096 -2.35277 -2.89308 0
M  V30 2185 N 217.281 0.66697 -1.42791 0
M  V30 2186 C 218.527 1.4291 -1.43891 0
M  V30 2187 C 218.86 1.94114 -0.0578972 0
M  V30 2188 O 218.135 1.71414 0.91911 0
M  V30 2189 C 218.418 2.62049 -2.46987 0
M  V30 2190 C 218.271 2.16426 -3.94309 0
M  V30 2191 C 219.59 3.64266 -2.46978 0
M  V30 2192 H 216.709 0.518306 -0.523954 0
M  V30 2193 H 219.351 0.757321 -1.74255 0
M  V30 2194 H 217.501 3.19361 -2.21225 0
M  V30 2195 H 219.173 1.64221 -4.31079 0
M  V30 2196 H 217.416 1.47925 -4.078 0
M  V30 2197 H 218.087 3.02038 -4.62036 0
M  V30 2198 H 220.563 3.16686 -2.69906 0
M  V30 2199 H 219.439 4.45196 -3.21079 0
M  V30 2200 H 219.7 4.15927 -1.49857 0
M  V30 2201 N 218.759 1.29093 0.90403 0
M  V30 2202 C 219.722 1.1386 1.98919 0
M  V30 2203 C 220.722 0.0753457 1.60623 0
M  V30 2204 O 221.912 0.321931 1.71199 0
M  V30 2205 C 219.044 0.740198 3.32767 0
M  V30 2206 H 220.237 2.10246 2.13861 0
M  V30 2207 H 217.79 1.12218 1.08797 0
M  V30 2208 H 218.525 -0.223997 3.23525 0
M  V30 2209 H 218.31 1.50838 3.61926 0
M  V30 2210 H 219.8 0.656546 4.12407 0
M  V30 2211 N 220.237 -1.11381 1.11499 0
M  V30 2212 C 221.477 -1.84763 0.874188 0
M  V30 2213 C 221.841 -1.82726 -0.589496 0
M  V30 2214 O 223.042 -2.51562 -0.947089 0
M  V30 2215 C 221.313 -3.27931 1.42112 0
M  V30 2216 S 222.872 -4.18557 1.31739 0
M  V30 2217 H 219.69 -0.637115 0.315603 0
M  V30 2218 H 222.292 -1.34097 1.42261 0
M  V30 2219 H 220.996 -3.26978 2.48019 0
M  V30 2220 H 220.527 -3.83665 0.869761 0
M  V30 2221 H 222.542 -4.95396 0.282335 0
M  V30 2222 N 221.715 -0.905404 -1.28997 0
M  V30 2223 C 222.943 -0.549846 -1.9946 0
M  V30 2224 C 223.358 0.866834 -1.67724 0
M  V30 2225 O 222.715 1.57298 -0.925404 0
M  V30 2226 C 222.766 -0.739387 -3.53858 0
M  V30 2227 O 222.487 -2.10031 -3.84472 0
M  V30 2228 C 223.988 -0.389541 -4.41585 0
M  V30 2229 H 221.208 -0.210429 -0.637151 0
M  V30 2230 H 223.752 -1.21632 -1.64396 0
M  V30 2231 H 221.907 -0.120023 -3.87214 0
M  V30 2232 H 222.321 -2.13385 -4.79132 0
M  V30 2233 H 223.795 -0.572972 -5.49018 0
M  V30 2234 H 224.272 0.673756 -4.34001 0
M  V30 2235 H 224.878 -0.986089 -4.1371 0
M  V30 2236 N 223.193 1.4272 -0.668489 0
M  V30 2237 C 224.123 2.335 -0.000100175 0
M  V30 2238 C 225.104 1.50328 0.795964 0
M  V30 2239 O 226.289 1.78949 0.754385 0
M  V30 2240 C 223.419 3.33874 0.956302 0
M  V30 2241 C 222.373 4.27152 0.269278 0
M  V30 2242 C 221.699 5.17684 1.33818 0
M  V30 2243 C 222.999 5.15373 -0.847805 0
M  V30 2244 H 224.693 2.89639 -0.758244 0
M  V30 2245 H 222.239 1.39269 -0.366079 0
M  V30 2246 H 224.192 3.9629 1.43292 0
M  V30 2247 H 222.916 2.76025 1.74579 0
M  V30 2248 H 221.575 3.66123 -0.187042 0
M  V30 2249 H 221.223 4.56165 2.1195 0
M  V30 2250 H 220.923 5.80918 0.883659 0
M  V30 2251 H 222.447 5.82974 1.81586 0
M  V30 2252 H 223.861 5.7151 -0.452681 0
M  V30 2253 H 222.258 5.87407 -1.22773 0
M  V30 2254 H 223.328 4.5415 -1.69929 0
M  V30 2255 N 224.671 0.411399 1.52136 0
M  V30 2256 C 225.911 -0.163143 2.03748 0
M  V30 2257 C 226.275 -1.42187 1.29022 0
M  V30 2258 O 227.476 -2.075 1.70872 0
M  V30 2259 C 225.747 -0.402651 3.55125 0
M  V30 2260 S 227.306 -0.944315 4.28519 0
M  V30 2261 H 224.124 -0.0439833 0.709638 0
M  V30 2262 H 226.726 0.56484 1.87163 0
M  V30 2263 H 225.43 0.520212 4.0709 0
M  V30 2264 H 224.961 -1.15844 3.75957 0
M  V30 2265 H 226.976 -2.22463 4.43536 0
M  V30 2266 N 226.149 -1.5696 0.141893 0
M  V30 2267 C 227.397 -1.95573 -0.509484 0
M  V30 2268 C 227.718 -1.02746 -1.65736 0
M  V30 2269 O 226.988 -0.0880311 -1.95702 0
M  V30 2270 H 225.568 -0.722115 -0.191205 0
M  V30 2271 H 228.23 -1.93697 0.216196 0
M  V30 2272 H 227.326 -2.99171 -0.889 0
M  V30 2273 N 227.627 0.131896 -1.57047 0
M  V30 2274 C 228.557 1.16384 -2.02428 0
M  V30 2275 C 229.538 1.43936 -0.90644 0
M  V30 2276 O 230.723 1.54599 -1.17528 0
M  V30 2277 C 227.853 2.49328 -2.4177 0
M  V30 2278 C 226.807 2.36266 -3.56879 0
M  V30 2279 C 226.133 3.74057 -3.8208 0
M  V30 2280 C 227.433 1.834 -4.89042 0
M  V30 2281 H 229.127 0.786433 -2.88887 0
M  V30 2282 H 226.673 0.376855 -1.38981 0
M  V30 2283 H 228.626 3.21759 -2.7212 0
M  V30 2284 H 227.35 2.88934 -1.52266 0
M  V30 2285 H 226.009 1.66286 -3.26718 0
M  V30 2286 H 225.657 4.11125 -2.89803 0
M  V30 2287 H 225.357 3.66174 -4.59554 0
M  V30 2288 H 226.881 4.48012 -4.1487 0
M  V30 2289 H 228.295 2.45636 -5.18011 0
M  V30 2290 H 226.692 1.8637 -5.70426 0
M  V30 2291 H 227.762 0.790662 -4.7841 0
M  V30 2292 N 229.106 1.52395 0.401703 0
M  V30 2293 C 230.352 1.67065 1.14966 0
M  V30 2294 C 230.685 0.403052 1.89971 0
M  V30 2295 O 229.96 -0.598774 1.85054 0
M  V30 2296 C 230.243 2.8975 2.13815 0
M  V30 2297 C 230.096 4.26578 1.42658 0
M  V30 2298 C 231.415 3.07965 3.14397 0
M  V30 2299 H 228.534 0.607968 0.416587 0
M  V30 2300 H 231.176 1.84965 0.434511 0
M  V30 2301 H 229.326 2.74619 2.74803 0
M  V30 2302 H 230.998 4.53451 0.847329 0
M  V30 2303 H 229.241 4.27639 0.72849 0
M  V30 2304 H 229.912 5.08483 2.14823 0
M  V30 2305 H 232.388 3.22043 2.63491 0
M  V30 2306 H 231.264 3.95308 3.80819 0
M  V30 2307 H 231.525 2.21611 3.82545 0
M  V30 2308 N 230.584 -0.659388 1.43143 0
M  V30 2309 C 231.861 -1.41627 1.34912 0
M  V30 2310 C 232.241 -2.11099 -0.00607785 0
M  V30 2311 O 231.589 -2.04353 -1.02236 0
M  V30 2312 C 231.799 -2.40604 2.52805 0
M  V30 2313 C 233.147 -3.04789 2.95616 0
M  V30 2314 O 234.171 -2.50932 2.52807 0
M  V30 2315 O 233.03 -4.02421 3.69756 0
M  V30 2316 H 230.124 -0.63246 0.532844 0
M  V30 2317 H 232.67 -0.686814 1.5518 0
M  V30 2318 H 231.442 -1.88174 3.43083 0
M  V30 2319 H 231.065 -3.21009 2.34604 0
M  V30 2320 N 232.062 -1.29571 -0.897171 0
M  V30 2321 C 233.302 -1.18959 -1.66217 0
M  V30 2322 C 233.666 0.254271 -1.90309 0
M  V30 2323 O 234.867 0.483407 -2.64417 0
M  V30 2324 C 233.138 -1.98302 -2.9734 0
M  V30 2325 S 234.697 -2.04253 -3.88364 0
M  V30 2326 H 231.515 -0.424137 -0.570639 0
M  V30 2327 H 234.117 -1.6389 -1.06585 0
M  V30 2328 H 232.821 -3.02342 -2.77521 0
M  V30 2329 H 232.352 -1.53986 -3.62011 0
M  V30 2330 H 234.367 -1.16105 -4.82425 0
M  V30 2331 N 233.54 1.10788 -1.12088 0
M  V30 2332 C 234.765 1.87002 -0.896949 0
M  V30 2333 C 235.19 1.79933 0.548261 0
M  V30 2334 O 234.548 1.16662 1.38779 0
M  V30 2335 C 234.596 3.3349 -1.37174 0
M  V30 2336 O 233.7 4.08745 -0.547831 0
M  V30 2337 H 233.041 0.580397 -0.322545 0
M  V30 2338 H 235.571 1.39996 -1.49206 0
M  V30 2339 H 235.581 3.84339 -1.36922 0
M  V30 2340 H 234.256 3.37951 -2.42408 0
M  V30 2341 H 232.833 3.6776 -0.617034 0
M  V30 2342 N 235.018 0.912232 1.28515 0
M  V30 2343 C 236.295 0.463597 1.90027 0
M  V30 2344 C 236.675 -1.05753 1.82701 0
M  V30 2345 O 236.023 -1.90492 1.26194 0
M  V30 2346 C 236.233 0.992253 3.34597 0
M  V30 2347 C 237.581 1.04344 4.11579 0
M  V30 2348 O 238.605 0.94079 3.43551 0
M  V30 2349 O 237.464 1.1995 5.33174 0
M  V30 2350 H 234.558 0.146666 0.813891 0
M  V30 2351 H 237.104 1.00292 1.36893 0
M  V30 2352 H 235.876 2.03623 3.34146 0
M  V30 2353 H 235.499 0.433672 3.95228 0
M  V30 2354 N 236.496 -1.42363 0.676048 0
M  V30 2355 C 237.429 -2.28141 -0.0516916 0
M  V30 2356 C 238.407 -1.41135 -0.807439 0
M  V30 2357 O 239.591 -1.70573 -0.802305 0
M  V30 2358 C 236.718 -3.21007 -1.08039 0
M  V30 2359 C 235.764 -4.24426 -0.420076 0
M  V30 2360 S 236.597 -5.29134 0.823246 0
M  V30 2361 C 237.753 -6.25566 -0.204344 0
M  V30 2362 H 237.986 -2.89515 0.675884 0
M  V30 2363 H 235.519 -1.47211 0.465635 0
M  V30 2364 H 237.477 -3.75048 -1.66881 0
M  V30 2365 H 236.138 -2.58766 -1.78042 0
M  V30 2366 H 235.331 -4.89596 -1.19633 0
M  V30 2367 H 234.933 -3.7388 0.0947845 0
M  V30 2368 H 237.225 -6.69098 -1.06369 0
M  V30 2369 H 238.168 -7.06895 0.412915 0
M  V30 2370 H 238.576 -5.61811 -0.55038 0
M  V30 2371 N 237.974 -0.419461 -1.51915 0
M  V30 2372 C 239.204 0.151915 -2.06041 0
M  V30 2373 C 239.612 1.38539 -1.28855 0
M  V30 2374 O 238.955 1.80592 -0.336463 0
M  V30 2375 C 239.017 0.557119 -3.55157 0
M  V30 2376 C 238.681 -0.567054 -4.53468 0
M  V30 2377 C 239.678 -1.43379 -4.99738 0
M  V30 2378 C 237.363 -0.742693 -4.96779 0
M  V30 2379 C 239.357 -2.46102 -5.87973 0
M  V30 2380 C 237.044 -1.77322 -5.84808 0
M  V30 2381 C 238.042 -2.63078 -6.30301 0
M  V30 2382 O 237.73 -3.64364 -7.16585 0
M  V30 2383 H 237.462 0.0193293 -0.675724 0
M  V30 2384 H 240.016 -0.592073 -1.96682 0
M  V30 2385 H 238.246 1.35355 -3.62238 0
M  V30 2386 H 239.935 1.05759 -3.9188 0
M  V30 2387 H 240.701 -1.30954 -4.66986 0
M  V30 2388 H 236.58 -0.0848307 -4.60922 0
M  V30 2389 H 240.124 -3.13071 -6.23404 0
M  V30 2390 H 236.021 -1.89773 -6.16974 0
M  V30 2391 H 236.789 -3.60731 -7.34721 0
M  V30 2392 N 239.452 1.56882 -0.150215 0
M  V30 2393 C 240.362 2.20494 0.801222 0
M  V30 2394 C 241.378 1.19019 1.26927 0
M  V30 2395 O 242.554 1.51607 1.32579 0
M  V30 2396 C 239.619 2.81659 2.02161 0
M  V30 2397 C 238.68 3.9827 1.60249 0
M  V30 2398 C 237.913 4.56508 2.7647 0
M  V30 2399 O 238.136 4.13627 3.92771 0
M  V30 2400 O 237.07 5.46719 2.51757 0
M  V30 2401 H 240.896 3.02315 0.289717 0
M  V30 2402 H 238.481 1.49202 0.0769684 0
M  V30 2403 H 240.363 3.20522 2.73576 0
M  V30 2404 H 239.038 2.02849 2.52258 0
M  V30 2405 H 237.945 3.64117 0.858477 0
M  V30 2406 H 239.278 4.78609 1.14864 0
M  V30 2407 N 240.93 -0.123565 1.57115 0
M  V30 2408 C 241.877 -1.15177 2.00007 0
M  V30 2409 C 242.847 -1.41403 0.871454 0
M  V30 2410 O 244.032 -1.53346 1.13533 0
M  V30 2411 C 241.172 -2.47436 2.40561 0
M  V30 2412 C 240.285 -2.28184 3.66819 0
M  V30 2413 C 239.42 -3.53641 3.96373 0
M  V30 2414 C 238.459 -3.29528 5.15827 0
M  V30 2415 N 237.596 -4.47175 5.41275 0
M  V30 2416 H 242.436 -0.779008 2.87638 0
M  V30 2417 H 239.973 -0.373166 1.42288 0
M  V30 2418 H 241.931 -3.24584 2.62109 0
M  V30 2419 H 240.561 -2.82614 1.55978 0
M  V30 2420 H 239.613 -1.41976 3.52912 0
M  V30 2421 H 240.925 -2.0634 4.5412 0
M  V30 2422 H 240.079 -4.39209 4.18545 0
M  V30 2423 H 238.818 -3.78512 3.07538 0
M  V30 2424 H 237.823 -2.42349 4.93505 0
M  V30 2425 H 239.048 -3.06031 6.06236 0
M  V30 2426 H 236.994 -4.72175 4.55397 0
M  V30 2427 H 236.911 -4.28419 6.22891 0
M  V30 2428 H 238.179 -5.3389 5.67963 0
M  V30 2429 N 242.408 -1.52605 -0.393616 0
M  V30 2430 C 243.654 -1.67672 -1.14079 0
M  V30 2431 C 243.987 -0.413121 -1.89755 0
M  V30 2432 O 243.262 0.588952 -1.85369 0
M  V30 2433 C 243.545 -2.9088 -2.12276 0
M  V30 2434 C 243.398 -4.27329 -1.40394 0
M  V30 2435 C 244.717 -3.09628 -3.12759 0
M  V30 2436 H 241.836 -0.610168 -0.413356 0
M  V30 2437 H 244.478 -1.85193 -0.424696 0
M  V30 2438 H 242.628 -2.76073 -2.73342 0
M  V30 2439 H 244.3 -4.53894 -0.82327 0
M  V30 2440 H 242.543 -4.2802 -0.705801 0
M  V30 2441 H 243.214 -5.09615 -2.12123 0
M  V30 2442 H 245.69 -3.23436 -2.61779 0
M  V30 2443 H 244.566 -3.97322 -3.78717 0
M  V30 2444 H 244.827 -2.23637 -3.81365 0
M  V30 2445 N 243.887 0.651787 -1.4349 0
M  V30 2446 C 244.817 1.77621 -1.51569 0
M  V30 2447 C 245.798 1.66022 -0.370253 0
M  V30 2448 O 246.983 1.85095 -0.587658 0
M  V30 2449 C 244.113 3.16056 -1.43966 0
M  V30 2450 C 243.067 3.4242 -2.56774 0
M  V30 2451 C 242.393 4.8067 -2.34223 0
M  V30 2452 C 243.693 3.37023 -3.99015 0
M  V30 2453 H 245.387 1.71117 -2.45681 0
M  V30 2454 H 242.933 0.821825 -1.18246 0
M  V30 2455 H 244.886 3.94472 -1.48221 0
M  V30 2456 H 243.61 3.23293 -0.463586 0
M  V30 2457 H 242.269 2.66375 -2.51873 0
M  V30 2458 H 241.917 4.84585 -1.34856 0
M  V30 2459 H 241.617 4.9927 -3.09844 0
M  V30 2460 H 243.141 5.61342 -2.40265 0
M  V30 2461 H 244.555 4.05374 -4.05395 0
M  V30 2462 H 242.952 3.67159 -4.74673 0
M  V30 2463 H 244.022 2.3518 -4.2405 0
M  V30 2464 N 245.365 1.30045 0.890287 0
M  V30 2465 C 246.605 1.19839 1.65584 0
M  V30 2466 C 246.969 -0.244175 1.90441 0
M  V30 2467 O 248.17 -0.469378 2.6467 0
M  V30 2468 C 246.441 1.99876 2.96284 0
M  V30 2469 S 248 2.06309 3.87275 0
M  V30 2470 H 244.818 0.427157 0.568382 0
M  V30 2471 H 247.42 1.64453 1.05715 0
M  V30 2472 H 246.124 3.03809 2.75913 0
M  V30 2473 H 245.655 1.55903 3.61189 0
M  V30 2474 H 247.67 1.18661 4.81803 0
M  V30 2475 N 246.843 -1.10192 1.12674 0
M  V30 2476 C 248.071 -1.85983 0.906527 0
M  V30 2477 C 248.486 -1.80783 -0.544333 0
M  V30 2478 O 247.843 -1.19834 -1.37645 0
M  V30 2479 C 247.894 -3.34281 1.37618 0
M  V30 2480 O 247.615 -3.39401 2.77017 0
M  V30 2481 C 249.116 -4.26938 1.19325 0
M  V30 2482 H 246.336 -0.587716 0.323775 0
M  V30 2483 H 248.88 -1.39284 1.49734 0
M  V30 2484 H 247.035 -3.78436 0.828539 0
M  V30 2485 H 247.449 -4.31838 2.97684 0
M  V30 2486 H 248.923 -5.29181 1.57071 0
M  V30 2487 H 249.4 -4.38995 0.134097 0
M  V30 2488 H 250.006 -3.8859 1.72852 0
M  V30 2489 N 248.321 -0.919034 -1.28029 0
M  V30 2490 C 249.546 -0.570357 -1.99403 0
M  V30 2491 C 249.971 0.842486 -1.68178 0
M  V30 2492 O 249.329 1.56391 -0.917141 0
M  V30 2493 C 249.377 -0.792541 -3.51783 0
M  V30 2494 O 248.481 0.145988 -4.12142 0
M  V30 2495 H 247.822 -0.220555 -0.6263 0
M  V30 2496 H 250.352 -1.23592 -1.63053 0
M  V30 2497 H 250.362 -0.704708 -4.01868 0
M  V30 2498 H 249.037 -1.82247 -3.73844 0
M  V30 2499 H 247.614 0.00897528 -3.72899 0
M  V30 2500 N 249.799 1.42003 -0.683588 0
M  V30 2501 C 251.039 2.03282 -0.213513 0
M  V30 2502 C 251.403 1.52924 1.16097 0
M  V30 2503 O 252.604 2.06048 1.7262 0
M  V30 2504 C 250.875 3.56483 -0.255856 0
M  V30 2505 S 252.434 4.3857 0.14193 0
M  V30 2506 H 249.252 0.705659 -0.0869853 0
M  V30 2507 H 251.854 1.73619 -0.8987 0
M  V30 2508 H 250.558 3.90631 -1.25841 0
M  V30 2509 H 250.089 3.90831 0.448875 0
M  V30 2510 H 252.104 4.76828 1.37295 0
M  V30 2511 N 251.277 0.427512 1.51691 0
M  V30 2512 C 252.24 -0.377132 2.26076 0
M  V30 2513 C 253.24 -0.958089 1.29141 0
M  V30 2514 O 254.43 -0.83408 1.52934 0
M  V30 2515 C 251.562 -1.53262 3.04506 0
M  V30 2516 H 252.755 0.27464 2.9864 0
M  V30 2517 H 250.308 0.180445 1.55255 0
M  V30 2518 H 251.043 -2.22072 2.36335 0
M  V30 2519 H 250.828 -1.12232 3.75694 0
M  V30 2520 H 252.318 -2.10135 3.60878 0
M  V30 2521 N 252.755 -1.56801 0.158532 0
M  V30 2522 C 253.688 -2.13148 -0.815065 0
M  V30 2523 C 254.666 -1.0581 -1.23462 0
M  V30 2524 O 255.85 -1.3371 -1.32868 0
M  V30 2525 C 252.977 -2.6606 -2.09594 0
M  V30 2526 C 252.023 -3.85651 -1.82141 0
M  V30 2527 S 252.856 -5.26041 -1.00207 0
M  V30 2528 C 254.012 -5.8235 -2.29389 0
M  V30 2529 H 254.245 -2.95396 -0.335937 0
M  V30 2530 H 251.778 -1.54299 -0.0559391 0
M  V30 2531 H 253.736 -2.97195 -2.8317 0
M  V30 2532 H 252.397 -1.83921 -2.54621 0
M  V30 2533 H 251.59 -4.20958 -2.77147 0
M  V30 2534 H 251.192 -3.55338 -1.16667 0
M  V30 2535 H 253.484 -5.94485 -3.24952 0
M  V30 2536 H 254.427 -6.79688 -1.9857 0
M  V30 2537 H 254.835 -5.10675 -2.40564 0
M  V30 2538 N 254.233 0.115231 -1.57178 0
M  V30 2539 C 255.48 0.822351 -1.8505 0
M  V30 2540 C 255.808 1.79701 -0.744168 0
M  V30 2541 O 255.063 1.93909 0.26414 0
M  V30 2542 C 255.362 1.60324 -3.19423 0
M  V30 2543 C 255.028 0.772536 -4.44233 0
M  V30 2544 C 253.69 0.543468 -4.78121 0
M  V30 2545 C 256.042 0.193746 -5.2084 0
M  V30 2546 C 253.37 -0.274583 -5.86057 0
M  V30 2547 C 255.722 -0.611517 -6.29637 0
M  V30 2548 C 254.386 -0.850867 -6.62055 0
M  V30 2549 H 253.656 0.30092 -0.677147 0
M  V30 2550 H 256.303 0.0845802 -1.91313 0
M  V30 2551 H 254.608 2.41203 -3.08753 0
M  V30 2552 H 256.305 2.1544 -3.38211 0
M  V30 2553 H 252.895 0.96117 -4.17683 0
M  V30 2554 H 257.079 0.357926 -4.95008 0
M  V30 2555 H 252.335 -0.469206 -6.09597 0
M  V30 2556 H 256.509 -1.06697 -6.88178 0
M  V30 2557 H 254.136 -1.48657 -7.45523 0
M  V30 2558 N 255.711 1.52812 0.385517 0
M  V30 2559 C 256.621 1.80766 1.49535 0
M  V30 2560 C 257.637 0.694651 1.59532 0
M  V30 2561 O 258.813 0.982611 1.75803 0
M  V30 2562 C 255.878 1.97381 2.85029 0
M  V30 2563 C 254.939 3.21295 2.84724 0
M  V30 2564 C 254.172 3.37108 4.13756 0
M  V30 2565 O 254.395 2.5765 5.08893 0
M  V30 2566 O 253.329 4.30378 4.20783 0
M  V30 2567 H 257.155 2.75015 1.28842 0
M  V30 2568 H 254.74 1.37946 0.573697 0
M  V30 2569 H 256.622 2.09996 3.65349 0
M  V30 2570 H 255.297 1.06322 3.05741 0
M  V30 2571 H 254.204 3.1412 2.03174 0
M  V30 2572 H 255.537 4.12212 2.68965 0
M  V30 2573 N 257.189 -0.644168 1.43834 0
M  V30 2574 C 258.417 -1.43147 1.49387 0
M  V30 2575 C 258.832 -1.88452 0.114583 0
M  V30 2576 O 258.189 -1.60047 -0.876989 0
M  V30 2577 C 258.24 -2.66046 2.44748 0
M  V30 2578 O 257.961 -2.22633 3.77314 0
M  V30 2579 C 259.462 -3.59311 2.59635 0
M  V30 2580 H 256.682 -0.439447 0.507077 0
M  V30 2581 H 259.226 -0.78895 1.88669 0
M  V30 2582 H 257.381 -3.26418 2.08638 0
M  V30 2583 H 257.795 -3.02216 4.28679 0
M  V30 2584 H 259.269 -4.42187 3.30416 0
M  V30 2585 H 259.746 -4.07259 1.64427 0
M  V30 2586 H 260.352 -3.04816 2.96593 0
M  V30 2587 O 258.706 -1.41006 -0.787381 0
M  V30 2588 H 259.397 -1.30255 -1.43364 0
M  V30 END ATOM
M  V30 BEGIN BOND
M  V30 END BOND
M  V30 END CTAB
M  END
$$$$
