drugbank_target|O15496 Group 10 secretory phospholipase A2 (DB05737; DB13893; DB13894)
 OpenBabel12092119233D

  0  0  0     0  0            999 V3000
M  V30 BEGIN CTAB
M  V30 COUNTS 2515 2546 0 0 0
M  V30 BEGIN ATOM
M  V30 1 H -0.908 1.98254 -0.117106 0
M  V30 2 N 0 1.576 0 0
M  V30 3 C 0.933 2.03868 1.02534 0
M  V30 4 C 1.911 0.928543 1.3348 0
M  V30 5 O 3.095 1.19667 1.45644 0
M  V30 6 C 0.222 2.43627 2.35294 0
M  V30 7 C -0.732 3.65373 2.2001 0
M  V30 8 S 0.101 5.13292 1.52614 0
M  V30 9 C 1.257 5.56322 2.86805 0
M  V30 10 H 1.49 2.90518 0.631377 0
M  V30 11 H -0.977 1.52953 0.210867 0
M  V30 12 H 0.981 2.67203 3.11629 0
M  V30 13 H -0.358 1.57376 2.7183 0
M  V30 14 H -1.165 3.90944 3.18086 0
M  V30 15 H -1.563 3.418 1.51819 0
M  V30 16 H 0.729 5.58782 3.83104 0
M  V30 17 H 1.672 6.56266 2.65933 0
M  V30 18 H 2.08 4.83886 2.90714 0
M  V30 19 N 1.4781 -0.272755 1.55222 0
M  V30 20 C 2.7261 -1.00234 1.75492 0
M  V30 21 C 3.0471 -1.8681 0.5592 0
M  V30 22 O 2.3171 -1.91215 -0.425882 0
M  V30 23 H 0.8971 -0.373076 0.647166 0
M  V30 24 H 3.5591 -0.296926 1.92625 0
M  V30 25 H 2.6551 -1.63913 2.65592 0
M  V30 26 N 2.9562 -1.48159 -0.537278 0
M  V30 27 C 4.3672 -1.49429 -1.11928 0
M  V30 28 C 4.7182 -0.26 -1.9447 0
M  V30 29 O 3.8432 0.633489 -2.0692 0
M  V30 30 C 4.4382 -2.70758 -2.03656 0
M  V30 31 C 2.9972 -2.74923 -2.57088 0
M  V30 32 C 2.1442 -2.42835 -1.3389 0
M  V30 33 H 5.0952 -1.55381 -0.322886 0
M  V30 34 H 5.1162 -2.48861 -2.87834 0
M  V30 35 H 4.6282 -3.60575 -1.43553 0
M  V30 36 H 2.7292 -1.89296 -3.20933 0
M  V30 37 H 2.8422 -3.76157 -2.9672 0
M  V30 38 H 1.2062 -1.93836 -1.65226 0
M  V30 39 H 1.9892 -3.34884 -0.755504 0
M  V30 40 N 4.4343 0.785586 -1.36625 0
M  V30 41 C 5.3643 1.91259 -1.33949 0
M  V30 42 C 6.3453 1.68795 -0.210325 0
M  V30 43 O 7.5303 1.89854 -0.408561 0
M  V30 44 C 4.6603 3.28339 -1.13186 0
M  V30 45 C 3.6143 3.65335 -2.22967 0
M  V30 46 C 2.9403 5.00806 -1.87342 0
M  V30 47 C 4.2403 3.7352 -3.65075 0
M  V30 48 H 5.9343 1.93755 -2.28253 0
M  V30 49 H 3.4803 0.930788 -1.09874 0
M  V30 50 H 5.4333 4.06804 -1.09948 0
M  V30 51 H 4.1573 3.2624 -0.153332 0
M  V30 52 H 2.8163 2.89169 -2.25337 0
M  V30 53 H 2.4643 4.95233 -0.880545 0
M  V30 54 H 2.1643 5.26529 -2.60846 0
M  V30 55 H 3.6883 5.81687 -1.85667 0
M  V30 56 H 5.1023 4.42168 -3.64911 0
M  V30 57 H 3.4993 4.10731 -4.37516 0
M  V30 58 H 4.5693 2.74527 -3.99703 0
M  V30 59 N 5.9124 1.20967 1.01018 0
M  V30 60 C 7.3234 1.02319 1.56165 0
M  V30 61 C 7.6744 -0.418546 1.91684 0
M  V30 62 O 6.7994 -1.30096 1.72928 0
M  V30 63 C 7.3944 1.85109 2.8376 0
M  V30 64 C 5.9534 1.70809 3.35412 0
M  V30 65 C 5.1004 1.82643 2.08655 0
M  V30 66 H 8.0514 1.35065 0.833255 0
M  V30 67 H 8.0724 1.35827 3.55431 0
M  V30 68 H 7.5844 2.90035 2.57878 0
M  V30 69 H 5.6854 0.685464 3.66241 0
M  V30 70 H 5.7984 2.52467 4.07182 0
M  V30 71 H 4.1624 1.25896 2.21409 0
M  V30 72 H 4.9454 2.89066 1.85191 0
M  V30 73 N 7.3905 -1.2043 1.01659 0
M  V30 74 C 8.6365 -1.90079 0.706963 0
M  V30 75 C 8.9695 -1.78648 -0.761474 0
M  V30 76 O 8.2445 -1.17069 -1.55323 0
M  V30 77 C 8.5275 -3.41469 1.14327 0
M  V30 78 C 8.3805 -3.61833 2.67201 0
M  V30 79 C 9.6995 -4.34261 0.714529 0
M  V30 80 H 6.8185 -0.690254 0.2583 0
M  V30 81 H 9.4605 -1.41826 1.26433 0
M  V30 82 H 7.6105 -3.82696 0.669056 0
M  V30 83 H 9.2825 -3.2986 3.22475 0
M  V30 84 H 7.5255 -3.05304 3.08175 0
M  V30 85 H 8.1965 -4.67955 2.92783 0
M  V30 86 H 10.6725 -4.00682 1.12221 0
M  V30 87 H 9.5485 -5.38806 1.04784 0
M  V30 88 H 9.8095 -4.40431 -0.383799 0
M  V30 89 N 8.8686 -0.792821 -1.36206 0
M  V30 90 C 10.1086 -0.372238 -2.00982 0
M  V30 91 C 10.4726 1.03749 -1.61555 0
M  V30 92 O 11.6736 1.55934 -2.18948 0
M  V30 93 C 9.9446 -0.534566 -3.5338 0
M  V30 94 S 11.5036 -0.202365 -4.38333 0
M  V30 95 H 8.3216 -0.142044 -0.696667 0
M  V30 96 H 10.9236 -1.03206 -1.66039 0
M  V30 97 H 9.6276 -1.5608 -3.79562 0
M  V30 98 H 9.1586 0.141065 -3.93147 0
M  V30 99 H 11.1736 0.994869 -4.86124 0
M  V30 100 N 10.3467 1.47872 -0.545128 0
M  V30 101 C 11.2767 2.32661 0.197793 0
M  V30 102 C 12.2577 1.43041 0.920504 0
M  V30 103 O 13.4427 1.71912 0.90333 0
M  V30 104 C 10.5727 3.24569 1.23582 0
M  V30 105 C 9.5267 4.23333 0.630323 0
M  V30 106 C 8.8527 5.0448 1.77211 0
M  V30 107 C 10.1527 5.20704 -0.407974 0
M  V30 108 H 11.8467 2.95024 -0.510045 0
M  V30 109 H 9.3927 1.4187 -0.246731 0
M  V30 110 H 11.3457 3.8272 1.76362 0
M  V30 111 H 10.0697 2.60236 1.97344 0
M  V30 112 H 8.7287 3.6639 0.123922 0
M  V30 113 H 8.3767 4.36561 2.49847 0
M  V30 114 H 8.0767 5.71339 1.37281 0
M  V30 115 H 9.6007 5.65487 2.3034 0
M  V30 116 H 11.0147 5.7329 0.033305 0
M  V30 117 H 9.4117 5.95699 -0.725486 0
M  V30 118 H 10.4817 4.66917 -1.30828 0
M  V30 119 N 11.8248 0.280983 1.55075 0
M  V30 120 C 13.2358 -0.215629 1.85451 0
M  V30 121 C 13.5868 -1.54991 1.203 0
M  V30 122 O 12.7118 -2.10699 0.493435 0
M  V30 123 C 13.3068 -0.398026 3.36454 0
M  V30 124 C 11.8658 -0.838866 3.66933 0
M  V30 125 C 11.0128 0.064458 2.77225 0
M  V30 126 H 13.9638 0.502601 1.50531 0
M  V30 127 H 13.9848 -1.23569 3.59876 0
M  V30 128 H 13.4968 0.573241 3.83843 0
M  V30 129 H 11.5978 -1.8214 3.25048 0
M  V30 130 H 11.7108 -0.672123 4.74362 0
M  V30 131 H 10.0748 -0.452863 2.50642 0
M  V30 132 H 10.8578 1.03172 3.2743 0
M  V30 133 N 13.3029 -1.57598 0.00835791 0
M  V30 134 C 14.5519 -1.90107 -0.673968 0
M  V30 135 C 14.8649 -0.884275 -1.7447 0
M  V30 136 O 16.0709 -1.09987 -2.48224 0
M  V30 137 C 14.5269 -3.37497 -1.24995 0
M  V30 138 C 14.1349 -4.47491 -0.2136 0
M  V30 139 C 15.8789 -3.79104 -1.90999 0
M  V30 140 C 13.7859 -5.85963 -0.80005 0
M  V30 141 H 12.7159 -0.709393 -0.255495 0
M  V30 142 H 15.3669 -1.83365 0.0702693 0
M  V30 143 H 13.7489 -3.39102 -2.04513 0
M  V30 144 H 14.9229 -4.57414 0.557596 0
M  V30 145 H 13.2379 -4.14956 0.346474 0
M  V30 146 H 15.8349 -4.79901 -2.35795 0
M  V30 147 H 16.1779 -3.1306 -2.74407 0
M  V30 148 H 16.7109 -3.79833 -1.18203 0
M  V30 149 H 13.4499 -6.555 -0.00456708 0
M  V30 150 H 12.9699 -5.79687 -1.54021 0
M  V30 151 H 14.6489 -6.33884 -1.29615 0
M  V30 152 N 14.781 0.264519 -1.55364 0
M  V30 153 C 15.714 1.35297 -1.83766 0
M  V30 154 C 16.692 1.47171 -0.691336 0
M  V30 155 O 17.876 1.63663 -0.935238 0
M  V30 156 C 15.003 2.72847 -2.00679 0
M  V30 157 C 14.049 2.78214 -3.23263 0
M  V30 158 S 14.882 2.36601 -4.80396 0
M  V30 159 C 16.038 3.7611 -5.00292 0
M  V30 160 H 16.271 1.11003 -2.758 0
M  V30 161 H 13.804 0.464596 -1.47244 0
M  V30 162 H 15.762 3.52057 -2.11108 0
M  V30 163 H 14.423 2.94388 -1.09518 0
M  V30 164 H 13.616 3.7919 -3.3201 0
M  V30 165 H 13.218 2.07034 -3.11469 0
M  V30 166 H 15.51 4.71457 -4.86554 0
M  V30 167 H 16.453 3.7231 -6.02321 0
M  V30 168 H 16.861 3.67806 -4.28228 0
M  V30 169 N 16.2591 1.48442 0.529413 0
M  V30 170 C 17.1891 1.65902 1.64313 0
M  V30 171 C 18.1701 0.507897 1.6234 0
M  V30 172 O 19.3551 0.740503 1.79528 0
M  V30 173 C 16.4851 1.69911 3.02898 0
M  V30 174 C 15.4391 2.8453 3.19729 0
M  V30 175 C 14.7651 2.73629 4.59381 0
M  V30 176 C 16.0651 4.25821 3.02447 0
M  V30 177 H 17.7591 2.5914 1.49955 0
M  V30 178 H 15.3051 1.24709 0.719982 0
M  V30 179 H 17.2581 1.80715 3.80684 0
M  V30 180 H 15.9821 0.732524 3.18279 0
M  V30 181 H 14.6411 2.73283 2.44361 0
M  V30 182 H 14.2891 1.74938 4.71599 0
M  V30 183 H 13.9891 3.50541 4.71588 0
M  V30 184 H 15.5131 2.86401 5.39265 0
M  V30 185 H 16.9271 4.37898 3.70024 0
M  V30 186 H 15.3241 5.03735 3.26146 0
M  V30 187 H 16.3941 4.42244 1.98867 0
M  V30 188 N 17.7372 -0.778329 1.37039 0
M  V30 189 C 18.6672 -1.90546 1.34962 0
M  V30 190 C 19.6482 -1.68681 0.219274 0
M  V30 191 O 20.8332 -1.89634 0.418624 0
M  V30 192 C 17.9632 -3.27734 1.14925 0
M  V30 193 C 16.9172 -3.64147 2.24902 0
M  V30 194 C 16.2432 -4.99806 1.89996 0
M  V30 195 C 17.5432 -3.71579 3.67051 0
M  V30 196 H 19.2372 -1.92541 2.29277 0
M  V30 197 H 16.7832 -0.924948 1.10366 0
M  V30 198 H 18.7362 -4.06215 1.12104 0
M  V30 199 H 17.4602 -3.26154 0.170631 0
M  V30 200 H 16.1192 -2.8797 2.26868 0
M  V30 201 H 15.7672 -4.94759 0.906796 0
M  V30 202 H 15.4672 -5.25139 2.63634 0
M  V30 203 H 16.9912 -5.80694 1.88749 0
M  V30 204 H 18.4052 -4.40227 3.67251 0
M  V30 205 H 16.8022 -4.08405 4.39688 0
M  V30 206 H 17.8722 -2.72404 4.01154 0
M  V30 207 N 19.2153 -1.21501 -1.00376 0
M  V30 208 C 20.1453 -0.999478 -2.11028 0
M  V30 209 C 21.1263 0.0759671 -1.6993 0
M  V30 210 O 22.3113 -0.0841106 -1.94018 0
M  V30 211 C 19.4413 -0.564709 -3.42678 0
M  V30 212 C 18.3953 -1.58486 -3.97576 0
M  V30 213 C 17.7213 -1.00628 -5.25146 0
M  V30 214 C 19.0213 -2.97204 -4.29496 0
M  V30 215 H 20.7153 -1.92495 -2.29317 0
M  V30 216 H 18.2613 -0.92693 -1.102 0
M  V30 217 H 20.2143 -0.401091 -4.19487 0
M  V30 218 H 18.9383 0.396411 -3.24185 0
M  V30 219 H 17.5973 -1.73606 -3.22888 0
M  V30 220 H 17.2453 -0.0368439 -5.02987 0
M  V30 221 H 16.9453 -1.68771 -5.62841 0
M  V30 222 H 18.4693 -0.854015 -6.04598 0
M  V30 223 H 19.8833 -2.8552 -4.97143 0
M  V30 224 H 18.2803 -3.62372 -4.78338 0
M  V30 225 H 19.3503 -3.47956 -3.3772 0
M  V30 226 N 20.6934 1.19889 -1.02296 0
M  V30 227 C 21.6234 2.25141 -0.619174 0
M  V30 228 C 22.6044 1.66051 0.368915 0
M  V30 229 O 23.7894 1.92546 0.252941 0
M  V30 230 C 20.9194 3.4728 0.0368783 0
M  V30 231 C 19.8734 4.19005 -0.872865 0
M  V30 232 C 19.1994 5.34637 -0.0822402 0
M  V30 233 C 20.4994 4.74452 -2.18387 0
M  V30 234 H 22.1934 2.59171 -1.49903 0
M  V30 235 H 19.7394 1.24579 -0.722222 0
M  V30 236 H 21.6924 4.20098 0.330958 0
M  V30 237 H 20.4164 3.12433 0.95149 0
M  V30 238 H 19.0754 3.48061 -1.15105 0
M  V30 239 H 18.7234 4.96034 0.83422 0
M  V30 240 H 18.4234 5.83557 -0.688149 0
M  V30 241 H 19.9474 6.10255 0.205238 0
M  V30 242 H 21.3614 5.39055 -1.95172 0
M  V30 243 H 19.7584 5.33834 -2.74119 0
M  V30 244 H 20.8284 3.92844 -2.84257 0
M  V30 245 N 22.1715 0.800033 1.35784 0
M  V30 246 C 23.1015 0.220184 2.3246 0
M  V30 247 C 24.0825 -0.65073 1.57161 0
M  V30 248 O 25.2675 -0.582359 1.85263 0
M  V30 249 C 22.3975 -0.637353 3.41402 0
M  V30 250 C 21.3515 0.134531 4.27789 0
M  V30 251 C 20.6775 -0.844285 5.27992 0
M  V30 252 C 21.9775 1.32979 5.05088 0
M  V30 253 H 23.6715 1.02787 2.81203 0
M  V30 254 H 21.2175 0.495717 1.35199 0
M  V30 255 H 23.1705 -1.05302 4.08031 0
M  V30 256 H 21.8945 -1.47785 2.91251 0
M  V30 257 H 20.5535 0.531296 3.6273 0
M  V30 258 H 20.2015 -1.68011 4.74111 0
M  V30 259 H 19.9015 -0.332184 5.8666 0
M  V30 260 H 21.4255 -1.2583 5.97494 0
M  V30 261 H 22.8395 0.98934 5.64699 0
M  V30 262 H 21.2365 1.77593 5.7322 0
M  V30 263 H 22.3065 2.11978 4.36111 0
M  V30 264 N 23.6496 -1.47581 0.552962 0
M  V30 265 C 25.0606 -1.86324 0.118463 0
M  V30 266 C 25.4116 -1.46006 -1.3106 0
M  V30 267 O 24.5366 -0.861182 -1.98526 0
M  V30 268 C 25.1316 -3.3816 0.20821 0
M  V30 269 C 23.6906 -3.7601 -0.171226 0
M  V30 270 C 22.8376 -2.71634 0.557686 0
M  V30 271 H 25.7886 -1.39159 0.762928 0
M  V30 272 H 25.8096 -3.76141 -0.574278 0
M  V30 273 H 25.3216 -3.67473 1.24841 0
M  V30 274 H 23.4226 -3.52313 -1.21269 0
M  V30 275 H 23.5356 -4.78745 0.184379 0
M  V30 276 H 21.8996 -2.547 0.00125792 0
M  V30 277 H 22.6826 -3.0379 1.59896 0
M  V30 278 N 25.1277 -0.289203 -1.54924 0
M  V30 279 C 26.3527 0.329299 -2.04769 0
M  V30 280 C 26.7777 1.4763 -1.16564 0
M  V30 281 O 26.1357 1.80527 -0.167186 0
M  V30 282 C 26.1837 0.774438 -3.52186 0
M  V30 283 O 25.2877 1.88038 -3.67036 0
M  V30 284 H 24.6287 0.0659259 -0.660719 0
M  V30 285 H 27.1587 -0.42761 -2.00082 0
M  V30 286 H 27.1687 1.06642 -3.93816 0
M  V30 287 H 25.8437 -0.0646707 -4.1585 0
M  V30 288 H 24.4207 1.58985 -3.3731 0
M  V30 289 N 26.6058 1.57591 -0.0167156 0
M  V30 290 C 27.5358 2.12496 0.967858 0
M  V30 291 C 28.5168 1.03807 1.34752 0
M  V30 292 O 29.7018 1.31577 1.42833 0
M  V30 293 C 26.8318 2.64194 2.25431 0
M  V30 294 C 25.7858 3.77559 2.01576 0
M  V30 295 C 25.1118 4.15636 3.36379 0
M  V30 296 C 26.4118 5.04151 1.36489 0
M  V30 297 H 28.1058 2.95013 0.510643 0
M  V30 298 H 25.6518 1.41915 0.244181 0
M  V30 299 H 27.6048 3.01236 2.94678 0
M  V30 300 H 26.3288 1.78821 2.73296 0
M  V30 301 H 24.9878 3.40937 1.34751 0
M  V30 302 H 24.6358 3.27263 3.81979 0
M  V30 303 H 24.3358 4.92022 3.21229 0
M  V30 304 H 25.8598 4.5525 4.06915 0
M  V30 305 H 27.2738 5.38857 1.95718 0
M  V30 306 H 25.6708 5.85453 1.31776 0
M  V30 307 H 26.7408 4.83733 0.336219 0
M  V30 308 N 28.0839 -0.256276 1.55502 0
M  V30 309 C 29.0139 -1.32102 1.92539 0
M  V30 310 C 29.9949 -1.50684 0.789194 0
M  V30 311 O 31.1799 -1.63449 1.04872 0
M  V30 312 C 28.3099 -2.67752 2.21192 0
M  V30 313 C 27.2639 -2.63878 3.36975 0
M  V30 314 C 26.5899 -4.03236 3.51147 0
M  V30 315 C 27.8899 -2.21682 4.72921 0
M  V30 316 H 29.5839 -1.01351 2.81724 0
M  V30 317 H 27.1299 -0.486105 1.35547 0
M  V30 318 H 29.0829 -3.42365 2.45691 0
M  V30 319 H 27.8069 -3.0012 1.28824 0
M  V30 320 H 26.4659 -1.91722 3.12471 0
M  V30 321 H 26.1139 -4.32854 2.56216 0
M  V30 322 H 25.8139 -4.01535 4.29003 0
M  V30 323 H 27.3379 -4.79563 3.77957 0
M  V30 324 H 28.7519 -2.86023 4.96854 0
M  V30 325 H 27.1489 -2.3111 5.53812 0
M  V30 326 H 28.2189 -1.16833 4.70615 0
M  V30 327 N 29.562 -1.4872 -0.521534 0
M  V30 328 C 30.492 -1.66771 -1.63431 0
M  V30 329 C 31.473 -0.516499 -1.62069 0
M  V30 330 O 32.658 -0.750013 -1.79132 0
M  V30 331 C 29.788 -1.71515 -3.01993 0
M  V30 332 C 28.742 -2.86222 -3.18216 0
M  V30 333 C 28.068 -2.76061 -4.57924 0
M  V30 334 C 29.368 -4.27419 -3.00184 0
M  V30 335 H 31.062 -2.59932 -1.48579 0
M  V30 336 H 28.608 -1.25089 -0.713358 0
M  V30 337 H 30.561 -1.82731 -3.7972 0
M  V30 338 H 29.285 -0.749393 -3.17886 0
M  V30 339 H 27.944 -2.74575 -2.42908 0
M  V30 340 H 27.592 -1.77437 -4.70665 0
M  V30 341 H 27.292 -3.53037 -4.69722 0
M  V30 342 H 28.816 -2.89256 -5.37739 0
M  V30 343 H 30.23 -4.39855 -3.67697 0
M  V30 344 H 28.627 -5.05458 -3.2347 0
M  V30 345 H 29.697 -4.43293 -1.96518 0
M  V30 346 N 31.0401 0.771051 -1.3745 0
M  V30 347 C 31.9701 1.89827 -1.3597 0
M  V30 348 C 32.9511 1.68562 -0.228216 0
M  V30 349 O 34.1361 1.8941 -0.428675 0
M  V30 350 C 31.2661 3.2712 -1.16662 0
M  V30 351 C 30.2201 3.6295 -2.2683 0
M  V30 352 C 29.5461 4.98791 -1.92644 0
M  V30 353 C 30.8461 3.69627 -3.69017 0
M  V30 354 H 32.5401 1.91323 -2.30295 0
M  V30 355 H 30.0861 0.919082 -1.10855 0
M  V30 356 H 32.0391 4.05615 -1.14256 0
M  V30 357 H 30.7631 3.26059 -0.187926 0
M  V30 358 H 29.4221 2.86763 -2.28392 0
M  V30 359 H 29.0701 4.94271 -0.933021 0
M  V30 360 H 28.7701 5.23733 -2.66416 0
M  V30 361 H 30.2941 5.79685 -1.91826 0
M  V30 362 H 31.7081 4.38273 -3.69581 0
M  V30 363 H 30.1051 4.06067 -4.41848 0
M  V30 364 H 31.1751 2.70273 -4.02592 0
M  V30 365 N 32.5182 1.22032 0.997298 0
M  V30 366 C 33.4482 1.01065 2.10495 0
M  V30 367 C 34.4292 -0.0669542 1.69968 0
M  V30 368 O 35.6142 0.0943987 1.9397 0
M  V30 369 C 32.7442 0.582874 3.42374 0
M  V30 370 C 31.6982 1.60592 3.96729 0
M  V30 371 C 31.0242 1.03412 5.24605 0
M  V30 372 C 32.3242 2.99478 4.27914 0
M  V30 373 H 34.0182 1.93708 2.28292 0
M  V30 374 H 31.5642 0.932761 1.09707 0
M  V30 375 H 33.5172 0.423332 4.19268 0
M  V30 376 H 32.2412 -0.379213 3.24391 0
M  V30 377 H 30.9002 1.75316 3.21963 0
M  V30 378 H 30.5482 0.063518 5.0296 0
M  V30 379 H 30.2482 1.71754 5.61938 0
M  V30 380 H 31.7722 0.886066 6.04137 0
M  V30 381 H 33.1862 2.88153 4.95622 0
M  V30 382 H 31.5832 3.64903 4.76409 0
M  V30 383 H 32.6532 3.49742 3.3587 0
M  V30 384 N 33.9963 -1.19345 1.0293 0
M  V30 385 C 34.9263 -2.2481 0.631105 0
M  V30 386 C 35.9073 -1.66245 -0.360104 0
M  V30 387 O 37.0923 -1.92677 -0.242726 0
M  V30 388 C 34.2223 -3.47295 -0.0184607 0
M  V30 389 C 33.1763 -4.18536 0.895073 0
M  V30 390 C 32.5023 -5.34586 0.110592 0
M  V30 391 C 33.8023 -4.73287 2.209 0
M  V30 392 H 35.4963 -2.58372 1.51275 0
M  V30 393 H 33.0423 -1.24194 0.728818 0
M  V30 394 H 34.9953 -4.20268 -0.308675 0
M  V30 395 H 33.7193 -3.12933 -0.934907 0
M  V30 396 H 32.3783 -3.47446 1.16949 0
M  V30 397 H 32.0263 -4.96469 -0.807902 0
M  V30 398 H 31.7263 -5.83183 0.719087 0
M  V30 399 H 33.2503 -6.10355 -0.172871 0
M  V30 400 H 34.6643 -5.38013 1.98028 0
M  V30 401 H 33.0613 -5.32373 2.76946 0
M  V30 402 H 34.1313 -3.91331 2.86336 0
M  V30 403 N 35.4744 -0.807222 -1.35358 0
M  V30 404 C 36.4044 -0.232509 -2.3234 0
M  V30 405 C 37.3854 0.642386 -1.57504 0
M  V30 406 O 38.5704 0.572526 -1.85569 0
M  V30 407 C 35.7004 0.619238 -3.41735 0
M  V30 408 C 34.6544 -0.157215 -4.27711 0
M  V30 409 C 33.9804 0.816273 -5.28433 0
M  V30 410 C 35.2804 -1.35656 -5.04376 0
M  V30 411 H 36.9744 -1.04276 -2.80654 0
M  V30 412 H 34.5204 -0.50288 -1.34934 0
M  V30 413 H 36.4734 1.03137 -4.08584 0
M  V30 414 H 35.1974 1.46239 -2.92031 0
M  V30 415 H 33.8564 -0.550525 -3.62443 0
M  V30 416 H 33.5044 1.65494 -4.74996 0
M  V30 417 H 33.2044 0.301067 -5.86828 0
M  V30 418 H 34.7284 1.22659 -5.98153 0
M  V30 419 H 36.1424 -1.01927 -5.64166 0
M  V30 420 H 34.5394 -1.8063 -5.7227 0
M  V30 421 H 35.6094 -2.14288 -4.34981 0
M  V30 422 N 36.9525 1.47285 -0.560781 0
M  V30 423 C 38.3635 1.86258 -0.128343 0
M  V30 424 C 38.7145 1.46699 1.30284 0
M  V30 425 O 37.8395 0.871698 1.98067 0
M  V30 426 C 38.4345 3.38044 -0.22614 0
M  V30 427 C 36.9935 3.76096 0.151283 0
M  V30 428 C 36.1405 2.71335 -0.572084 0
M  V30 429 H 39.0915 1.38752 -0.770297 0
M  V30 430 H 39.1125 3.76441 0.554322 0
M  V30 431 H 38.6245 3.66806 -1.26788 0
M  V30 432 H 36.7255 3.52951 1.19399 0
M  V30 433 H 36.8385 4.78641 -0.209765 0
M  V30 434 H 35.2025 2.54696 -0.0147653 0
M  V30 435 H 35.9855 3.02938 -1.61504 0
M  V30 436 N 38.4306 0.297415 1.54768 0
M  V30 437 C 39.6786 -0.312295 1.99673 0
M  V30 438 C 39.9996 -1.54686 1.18732 0
M  V30 439 O 39.2696 -1.93854 0.282382 0
M  V30 440 H 37.8496 -0.118381 0.73756 0
M  V30 441 H 40.5116 0.407915 1.90583 0
M  V30 442 H 39.6076 -0.586813 3.06534 0
M  V30 443 N 39.9087 -1.5758 0.0250728 0
M  V30 444 C 41.3197 -1.79476 -0.514323 0
M  V30 445 C 41.6707 -0.934956 -1.72491 0
M  V30 446 O 40.7957 -0.144245 -2.15919 0
M  V30 447 C 41.3907 -3.25503 -0.939842 0
M  V30 448 C 39.9497 -3.48408 -1.42438 0
M  V30 449 C 39.0967 -2.74583 -0.387201 0
M  V30 450 H 42.0477 -1.567 0.25113 0
M  V30 451 H 42.0687 -3.34992 -1.80445 0
M  V30 452 H 41.5807 -3.88056 -0.0585628 0
M  V30 453 H 39.6817 -2.91103 -2.32572 0
M  V30 454 H 39.7947 -4.57119 -1.43455 0
M  V30 455 H 38.1587 -2.39942 -0.854409 0
M  V30 456 H 38.9417 -3.39849 0.485543 0
M  V30 457 N 41.3868 0.248026 -1.55636 0
M  V30 458 C 42.6348 0.974295 -1.77065 0
M  V30 459 C 42.9558 1.85897 -0.588849 0
M  V30 460 O 42.2258 1.91868 0.395407 0
M  V30 461 H 40.8058 0.362733 -0.653019 0
M  V30 462 H 43.4678 0.266244 -1.93073 0
M  V30 463 H 42.5638 1.59667 -2.68166 0
M  V30 464 N 42.8649 1.48995 0.513639 0
M  V30 465 C 44.0899 1.61792 1.29762 0
M  V30 466 C 44.5149 0.284475 1.85936 0
M  V30 467 O 43.8729 -0.746185 1.65232 0
M  V30 468 C 43.9209 2.67993 2.41272 0
M  V30 469 O 43.0249 2.26287 3.44772 0
M  V30 470 H 42.3659 0.541963 0.38363 0
M  V30 471 H 44.8959 1.95097 0.616307 0
M  V30 472 H 44.9059 2.89772 2.87221 0
M  V30 473 H 43.5809 3.64791 1.9975 0
M  V30 474 H 42.1579 2.14788 3.04829 0
M  V30 475 N 44.343 -0.763751 1.37857 0
M  V30 476 C 45.591 -1.51957 1.33243 0
M  V30 477 C 45.912 -1.94835 -0.0801709 0
M  V30 478 O 45.182 -1.66894 -1.02582 0
M  V30 479 H 43.762 -0.563626 0.49024 0
M  V30 480 H 46.424 -0.908504 1.7243 0
M  V30 481 H 45.52 -2.41523 1.97669 0
M  V30 482 N 45.8211 -1.22559 -0.990812 0
M  V30 483 C 46.7311 -1.01394 -2.11557 0
M  V30 484 C 47.7471 0.0383962 -1.73958 0
M  V30 485 O 48.9231 -0.154787 -2.00804 0
M  V30 486 C 45.9881 -0.596569 -3.41529 0
M  V30 487 C 45.0491 -1.72276 -3.93217 0
M  V30 488 C 44.2821 -1.32521 -5.16985 0
M  V30 489 O 44.5051 -0.204909 -5.70032 0
M  V30 490 O 43.4391 -2.14247 -5.62478 0
M  V30 491 H 47.2651 -1.95633 -2.32296 0
M  V30 492 H 44.8501 -1.01172 -1.0993 0
M  V30 493 H 46.7321 -0.374263 -4.19735 0
M  V30 494 H 45.4071 0.316939 -3.22145 0
M  V30 495 H 44.3141 -1.99961 -3.16174 0
M  V30 496 H 45.6471 -2.61421 -4.17037 0
M  V30 497 N 47.2992 1.18797 -1.03562 0
M  V30 498 C 48.2622 2.20464 -0.626769 0
M  V30 499 C 49.2622 1.57721 0.313173 0
M  V30 500 O 50.4522 1.73917 0.0992615 0
M  V30 501 C 47.5842 3.40802 0.0818498 0
M  V30 502 H 48.7772 2.58149 -1.5264 0
M  V30 503 H 46.3302 1.32593 -0.827578 0
M  V30 504 H 47.0652 3.08642 0.995518 0
M  V30 505 H 46.8502 3.8758 -0.593652 0
M  V30 506 H 48.3402 4.16092 0.354584 0
M  V30 507 N 48.7773 0.814389 1.34928 0
M  V30 508 C 50.0023 0.410097 2.03305 0
M  V30 509 C 50.4273 -0.973464 1.60951 0
M  V30 510 O 49.7853 -1.63185 0.789964 0
M  V30 511 C 49.8333 0.51049 3.56968 0
M  V30 512 O 48.9373 -0.473035 4.09678 0
M  V30 513 H 48.2783 0.170088 0.641846 0
M  V30 514 H 50.8083 1.10244 1.72358 0
M  V30 515 H 50.8183 0.383135 4.06197 0
M  V30 516 H 49.4933 1.51963 3.87144 0
M  V30 517 H 48.0703 -0.305272 3.71648 0
M  V30 518 N 50.2554 -1.46986 0.568584 0
M  V30 519 C 51.6714 -1.57946 0.229189 0
M  V30 520 C 51.8714 -1.56567 -1.26843 0
M  V30 521 O 50.9274 -1.47511 -2.04931 0
M  V30 522 C 52.2404 -2.87963 0.865909 0
M  V30 523 C 53.7884 -3.01568 0.838188 0
M  V30 524 C 54.2634 -4.34301 1.45419 0
M  V30 525 N 55.7544 -4.40965 1.41788 0
M  V30 526 C 56.4894 -5.42256 1.86403 0
M  V30 527 N 55.9854 -6.50297 2.38926 0
M  V30 528 N 57.7784 -5.3337 1.77405 0
M  V30 529 H 49.9294 -1.46126 1.54146 0
M  V30 530 H 52.1924 -0.696156 0.643484 0
M  V30 531 H 51.8984 -2.94742 1.91886 0
M  V30 532 H 51.7724 -3.75423 0.365687 0
M  V30 533 H 54.1594 -2.94379 -0.206106 0
M  V30 534 H 54.2404 -2.1562 1.37629 0
M  V30 535 H 53.8844 -4.42247 2.49761 0
M  V30 536 H 53.8144 -5.19 0.891435 0
M  V30 537 H 56.3054 -3.63484 1.03381 0
M  V30 538 H 56.6184 -7.23777 2.70863 0
M  V30 539 H 54.9634 -6.51155 2.42944 0
M  V30 540 H 58.1544 -4.47865 1.3614 0
M  V30 541 H 58.3274 -6.12169 2.12492 0
M  V30 542 N 51.7335 -0.305618 -1.54608 0
M  V30 543 C 52.9825 0.303098 -1.9941 0
M  V30 544 C 53.2955 1.54648 -1.19764 0
M  V30 545 O 54.5015 2.23007 -1.54855 0
M  V30 546 C 52.9575 0.590588 -3.55021 0
M  V30 547 C 52.5655 -0.634719 -4.43481 0
M  V30 548 C 54.3095 1.16025 -4.08336 0
M  V30 549 C 52.2165 -0.320126 -5.90533 0
M  V30 550 H 51.1465 0.117031 -0.744862 0
M  V30 551 H 53.7975 -0.415045 -1.78745 0
M  V30 552 H 52.1795 1.36845 -3.71604 0
M  V30 553 H 53.3535 -1.41079 -4.38672 0
M  V30 554 H 51.6685 -1.12333 -4.00962 0
M  V30 555 H 54.2655 1.40994 -5.15776 0
M  V30 556 H 54.6085 2.10397 -3.5922 0
M  V30 557 H 55.1415 0.443985 -3.95315 0
M  V30 558 H 51.8805 -1.23254 -6.43808 0
M  V30 559 H 51.4005 0.418579 -5.98338 0
M  V30 560 H 53.0795 0.0766241 -6.46955 0
M  V30 561 N 53.2116 1.57565 -0.0334293 0
M  V30 562 C 54.1416 2.13511 0.945265 0
M  V30 563 C 55.1226 1.05231 1.33643 0
M  V30 564 O 56.3076 1.33084 1.41429 0
M  V30 565 C 53.4376 2.6657 2.22616 0
M  V30 566 C 52.3916 3.79676 1.97561 0
M  V30 567 C 51.7176 4.1918 3.31952 0
M  V30 568 C 53.0176 5.0557 1.31135 0
M  V30 569 H 54.7116 2.95538 0.479325 0
M  V30 570 H 52.2576 1.42166 0.229115 0
M  V30 571 H 54.2106 3.04344 2.91466 0
M  V30 572 H 52.9346 1.8171 2.71384 0
M  V30 573 H 51.5936 3.42347 1.31127 0
M  V30 574 H 51.2416 3.31296 3.78487 0
M  V30 575 H 50.9416 4.95402 3.15992 0
M  V30 576 H 52.4656 4.59541 4.02063 0
M  V30 577 H 53.8796 5.40903 1.89992 0
M  V30 578 H 52.2766 5.86818 1.25559 0
M  V30 579 H 53.3466 4.84062 0.284894 0
M  V30 580 N 54.6897 -0.239769 1.55765 0
M  V30 581 C 56.1057 -0.588624 1.48349 0
M  V30 582 C 56.3057 -1.88005 0.72502 0
M  V30 583 O 55.3617 -2.51186 0.257269 0
M  V30 584 C 56.6747 -0.68474 2.928 0
M  V30 585 C 58.2227 -0.77659 3.03213 0
M  V30 586 C 58.6977 -0.904207 4.48986 0
M  V30 587 N 60.1887 -0.968896 4.52953 0
M  V30 588 C 60.9237 -1.08703 5.63002 0
M  V30 589 N 60.4197 -1.17026 6.82845 0
M  V30 590 N 62.2127 -1.12074 5.50814 0
M  V30 591 H 54.3637 0.607911 2.03515 0
M  V30 592 H 56.6267 0.21083 0.924259 0
M  V30 593 H 56.3327 0.194284 3.51163 0
M  V30 594 H 56.2067 -1.55435 3.43686 0
M  V30 595 H 58.5937 -1.64606 2.44926 0
M  V30 596 H 58.6747 0.118315 2.55526 0
M  V30 597 H 58.3187 -0.0392633 5.07885 0
M  V30 598 H 58.2487 -1.81426 4.9436 0
M  V30 599 H 60.7397 -0.915633 3.6664 0
M  V30 600 H 61.0527 -1.25966 7.62465 0
M  V30 601 H 59.3977 -1.13971 6.85591 0
M  V30 602 H 62.5887 -1.05226 4.5612 0
M  V30 603 H 62.7617 -1.20936 6.36615 0
M  V30 604 N 56.1678 -1.49265 -0.50573 0
M  V30 605 C 57.4138 -1.58748 -1.26202 0
M  V30 606 C 57.7468 -0.271227 -1.92297 0
M  V30 607 O 57.0218 0.724831 -1.80489 0
M  V30 608 C 57.3048 -2.74332 -2.33268 0
M  V30 609 C 57.1578 -4.15737 -1.71705 0
M  V30 610 C 58.4768 -2.85576 -3.34865 0
M  V30 611 H 55.5958 -0.577826 -0.457478 0
M  V30 612 H 58.2378 -1.81532 -0.560897 0
M  V30 613 H 56.3878 -2.55036 -2.93068 0
M  V30 614 H 58.0598 -4.46537 -1.15769 0
M  V30 615 H 56.3028 -4.21605 -1.02135 0
M  V30 616 H 56.9738 -4.92477 -2.49341 0
M  V30 617 H 59.4498 -3.03127 -2.8505 0
M  V30 618 H 58.3258 -3.68135 -4.07146 0
M  V30 619 H 58.5868 -1.94732 -3.96903 0
M  V30 620 N 57.6459 0.756429 -1.3826 0
M  V30 621 C 58.5959 1.86069 -1.31766 0
M  V30 622 C 59.5799 1.59621 -0.202483 0
M  V30 623 O 60.7719 1.7149 -0.438211 0
M  V30 624 C 57.9009 3.23742 -1.1422 0
M  V30 625 C 56.9869 3.56091 -2.30348 0
M  V30 626 N 57.3779 3.59517 -3.55783 0
M  V30 627 C 55.6759 3.86341 -2.22838 0
M  V30 628 C 56.3769 3.89052 -4.32451 0
M  V30 629 N 55.3529 4.05736 -3.61772 0
M  V30 630 H 59.1549 1.86992 -2.26741 0
M  V30 631 H 56.6689 0.953643 -1.31451 0
M  V30 632 H 58.6659 4.02761 -1.07652 0
M  V30 633 H 57.3259 3.24073 -0.201763 0
M  V30 634 H 58.3369 3.41347 -3.89491 0
M  V30 635 H 55.0139 3.94404 -1.36937 0
M  V30 636 H 56.4039 3.98349 -5.4108 0
M  V30 637 N 59.124 1.23083 0.984299 0
M  V30 638 C 60.54 0.992637 1.24975 0
M  V30 639 C 60.74 -0.308618 1.99123 0
M  V30 640 O 59.796 -1.02905 2.30579 0
M  V30 641 C 61.109 2.19698 2.05312 0
M  V30 642 C 62.657 2.24147 2.18465 0
M  V30 643 C 63.132 3.44157 3.02192 0
M  V30 644 N 64.623 3.44372 3.09777 0
M  V30 645 C 65.358 4.33886 3.74874 0
M  V30 646 N 64.854 5.3363 4.41827 0
M  V30 647 N 66.647 4.21639 3.71721 0
M  V30 648 H 58.798 2.06731 0.487453 0
M  V30 649 H 61.061 0.906339 0.277944 0
M  V30 650 H 60.767 3.1411 1.58201 0
M  V30 651 H 60.641 2.20465 3.06064 0
M  V30 652 H 63.028 1.30277 2.64786 0
M  V30 653 H 63.109 2.27415 1.17115 0
M  V30 654 H 62.753 4.38332 2.56568 0
M  V30 655 H 62.683 3.3813 4.03702 0
M  V30 656 H 65.174 2.72201 2.62135 0
M  V30 657 H 65.487 5.98196 4.89266 0
M  V30 658 H 63.832 5.37534 4.40548 0
M  V30 659 H 67.023 3.42962 3.18582 0
M  V30 660 H 67.196 4.91604 4.22173 0
M  V30 661 N 60.6021 -1.18246 1.0419 0
M  V30 662 C 62.0181 -1.40269 0.761366 0
M  V30 663 C 62.2181 -1.90777 -0.648578 0
M  V30 664 O 61.2741 -2.0929 -1.41258 0
M  V30 665 C 62.5871 -2.40237 1.8085 0
M  V30 666 C 64.1351 -2.53961 1.82955 0
M  V30 667 C 64.6101 -3.57194 2.86664 0
M  V30 668 N 66.1011 -3.64702 2.85563 0
M  V30 669 C 66.8361 -4.44309 3.6246 0
M  V30 670 N 66.3321 -5.27514 4.49111 0
M  V30 671 N 68.1251 -4.39084 3.50944 0
M  V30 672 H 60.2761 -0.837882 1.95175 0
M  V30 673 H 62.5391 -0.430608 0.84456 0
M  V30 674 H 62.2451 -2.10176 2.81991 0
M  V30 675 H 62.1191 -3.39601 1.64168 0
M  V30 676 H 64.5061 -2.83338 0.824855 0
M  V30 677 H 64.5871 -1.54706 2.03715 0
M  V30 678 H 64.2311 -3.28558 3.87314 0
M  V30 679 H 64.1611 -4.5613 2.6316 0
M  V30 680 H 66.6521 -3.05289 2.22727 0
M  V30 681 H 66.9651 -5.85411 5.04493 0
M  V30 682 H 65.3101 -5.2693 4.53178 0
M  V30 683 H 68.5011 -3.7313 2.82651 0
M  V30 684 H 68.6741 -5.00883 4.11121 0
M  V30 685 N 62.0802 -0.821533 -1.34494 0
M  V30 686 C 63.3282 -0.408139 -1.97936 0
M  V30 687 C 63.6492 1.03193 -1.65457 0
M  V30 688 O 62.9192 1.71622 -0.944595 0
M  V30 689 H 61.4992 -0.147928 -0.732206 0
M  V30 690 H 64.1612 -1.05067 -1.64155 0
M  V30 691 H 63.2572 -0.52601 -3.07635 0
M  V30 692 N 63.5583 1.46682 -0.576371 0
M  V30 693 C 64.8073 2.01619 -0.0572825 0
M  V30 694 C 65.1203 1.45417 1.30818 0
M  V30 695 O 66.3263 1.92133 1.91825 0
M  V30 696 C 64.7823 3.59863 -0.0518371 0
M  V30 697 C 64.3903 4.25059 -1.41523 0
M  V30 698 C 66.1343 4.2248 0.413639 0
M  V30 699 C 64.0413 5.75364 -1.36785 0
M  V30 700 H 62.9713 0.753794 -0.0176448 0
M  V30 701 H 65.6223 1.68481 -0.727076 0
M  V30 702 H 64.0043 3.90048 0.683994 0
M  V30 703 H 65.1783 4.06491 -2.17029 0
M  V30 704 H 63.4933 3.7451 -1.8202 0
M  V30 705 H 66.0903 5.3265 0.467779 0
M  V30 706 H 66.4333 3.90976 1.42982 0
M  V30 707 H 66.9663 3.96897 -0.267929 0
M  V30 708 H 63.7053 6.11518 -2.36063 0
M  V30 709 H 63.2253 5.96214 -0.654895 0
M  V30 710 H 64.9043 6.37955 -1.07805 0
M  V30 711 N 65.0364 0.313813 1.54444 0
M  V30 712 C 65.9664 -0.549454 2.26943 0
M  V30 713 C 66.9474 -1.12741 1.27372 0
M  V30 714 O 68.1324 -1.15436 1.56167 0
M  V30 715 C 65.2624 -1.71523 3.01989 0
M  V30 716 C 64.2164 -1.26703 4.08816 0
M  V30 717 C 63.5424 -2.51898 4.71647 0
M  V30 718 C 64.8424 -0.388962 5.2085 0
M  V30 719 H 66.5364 0.0552661 2.99349 0
M  V30 720 H 64.0824 0.0280207 1.43973 0
M  V30 721 H 66.0354 -2.32535 3.51433 0
M  V30 722 H 64.7594 -2.34639 2.27183 0
M  V30 723 H 63.4184 -0.679896 3.6024 0
M  V30 724 H 63.0664 -3.13356 3.93468 0
M  V30 725 H 62.7664 -2.22605 5.43802 0
M  V30 726 H 64.2904 -3.1369 5.23861 0
M  V30 727 H 65.7044 -0.905107 5.6611 0
M  V30 728 H 64.1014 -0.18924 5.99802 0
M  V30 729 H 65.1714 0.582699 4.81386 0
M  V30 730 N 66.5145 -1.57545 0.0417849 0
M  V30 731 C 67.4245 -2.14451 -0.951213 0
M  V30 732 C 68.4405 -1.09992 -1.34825 0
M  V30 733 O 69.6165 -1.42114 -1.42708 0
M  V30 734 C 66.6815 -2.67063 -2.21084 0
M  V30 735 C 65.7425 -3.86284 -1.87304 0
M  V30 736 C 64.9755 -4.36378 -3.07261 0
M  V30 737 O 65.1985 -3.85587 -4.20332 0
M  V30 738 O 64.1325 -5.28077 -2.88822 0
M  V30 739 H 67.9585 -2.99601 -0.497287 0
M  V30 740 H 65.5435 -1.48317 -0.179567 0
M  V30 741 H 67.4255 -3.00914 -2.95006 0
M  V30 742 H 66.1005 -1.84989 -2.65633 0
M  V30 743 H 65.0075 -3.57338 -1.10727 0
M  V30 744 H 66.3405 -4.6956 -1.47562 0
M  V30 745 N 67.9926 0.231505 -1.5589 0
M  V30 746 C 68.9226 1.29022 -1.94617 0
M  V30 747 C 69.9036 1.4941 -0.813067 0
M  V30 748 O 71.0886 1.6176 -1.07459 0
M  V30 749 C 68.2186 2.64199 -2.25424 0
M  V30 750 C 67.1726 2.58484 -3.41131 0
M  V30 751 C 66.4986 3.97599 -3.57518 0
M  V30 752 C 67.7986 2.1413 -4.76388 0
M  V30 753 H 69.4926 0.968563 -2.83301 0
M  V30 754 H 67.0386 0.464479 -1.36303 0
M  V30 755 H 68.9916 3.38413 -2.51107 0
M  V30 756 H 67.7156 2.98032 -1.33583 0
M  V30 757 H 66.3746 1.86727 -3.15481 0
M  V30 758 H 66.0226 4.28723 -2.6307 0
M  V30 759 H 65.7226 3.94659 -4.35337 0
M  V30 760 H 67.2466 4.7349 -3.85538 0
M  V30 761 H 68.6606 2.78083 -5.01341 0
M  V30 762 H 67.0576 2.2227 -5.57419 0
M  V30 763 H 68.1276 1.09331 -4.72414 0
M  V30 764 N 69.4707 1.49531 0.497807 0
M  V30 765 C 70.4337 1.65916 1.58128 0
M  V30 766 C 71.4337 0.530825 1.51786 0
M  V30 767 O 72.6237 0.797342 1.54881 0
M  V30 768 C 69.7557 1.65951 2.9778 0
M  V30 769 H 70.9487 2.62556 1.44929 0
M  V30 770 H 68.5017 1.38611 0.722275 0
M  V30 771 H 69.2367 0.709065 3.16453 0
M  V30 772 H 69.0217 2.47897 3.03792 0
M  V30 773 H 70.5117 1.80673 3.76493 0
M  V30 774 N 70.9488 -0.749086 1.3866 0
M  V30 775 C 72.1968 -1.50535 1.34847 0
M  V30 776 C 72.5178 -1.94909 -0.0595016 0
M  V30 777 O 71.7878 -1.67973 -1.00806 0
M  V30 778 H 70.3678 -0.558395 0.49619 0
M  V30 779 H 73.0298 -0.890165 1.73384 0
M  V30 780 H 72.1258 -2.39413 2.00219 0
M  V30 781 N 72.4269 -1.23603 -0.977757 0
M  V30 782 C 73.6549 -1.09646 -1.75458 0
M  V30 783 C 74.0699 0.351859 -1.85492 0
M  V30 784 O 73.4269 1.24327 -1.336 0
M  V30 785 C 73.4779 -1.71895 -3.18016 0
M  V30 786 O 73.1989 -3.11063 -3.08498 0
M  V30 787 C 74.6999 -1.63415 -4.12081 0
M  V30 788 H 71.9199 -0.38359 -0.550545 0
M  V30 789 H 74.4639 -1.63507 -1.22824 0
M  V30 790 H 72.6189 -1.22061 -3.67668 0
M  V30 791 H 73.0329 -3.41305 -3.9826 0
M  V30 792 H 74.5069 -2.11669 -5.09804 0
M  V30 793 H 74.9839 -0.593462 -4.35172 0
M  V30 794 H 75.5899 -2.12628 -3.68334 0
M  V30 795 N 73.905 1.17692 -1.04816 0
M  V30 796 C 75.151 1.88137 -0.75711 0
M  V30 797 C 75.484 1.80604 0.713841 0
M  V30 798 O 74.759 1.21146 1.52164 0
M  V30 799 C 75.042 3.38318 -1.2334 0
M  V30 800 C 74.895 3.54622 -2.76701 0
M  V30 801 C 76.214 4.32214 -0.829415 0
M  V30 802 H 73.333 0.683163 -0.27651 0
M  V30 803 H 75.975 1.38424 -1.30149 0
M  V30 804 H 74.125 3.80787 -0.770286 0
M  V30 805 H 75.797 3.21194 -3.31107 0
M  V30 806 H 74.04 2.97026 -3.16161 0
M  V30 807 H 74.711 4.60028 -3.05088 0
M  V30 808 H 77.187 3.97565 -1.22805 0
M  V30 809 H 76.063 5.35838 -1.19033 0
M  V30 810 H 76.324 4.41294 0.266891 0
M  V30 811 N 75.3831 0.828654 1.34056 0
M  V30 812 C 76.6311 0.41863 1.97717 0
M  V30 813 C 76.9521 -1.02314 1.66002 0
M  V30 814 O 76.2221 -1.71119 0.953683 0
M  V30 815 H 74.8021 0.151809 0.731412 0
M  V30 816 H 77.4641 1.05936 1.63596 0
M  V30 817 H 76.5601 0.542318 3.07352 0
M  V30 818 N 76.8612 -1.46375 0.584142 0
M  V30 819 C 78.1012 -2.0427 0.0729695 0
M  V30 820 C 78.4652 -1.44563 -1.26355 0
M  V30 821 O 79.6662 -1.93667 -1.86405 0
M  V30 822 C 77.9372 -3.57399 0.00967464 0
M  V30 823 S 79.4962 -4.36551 -0.443714 0
M  V30 824 H 76.3142 -0.709975 0.0381673 0
M  V30 825 H 78.9162 -1.79398 0.776962 0
M  V30 826 H 77.6202 -3.98372 0.986319 0
M  V30 827 H 77.1512 -3.8681 -0.717044 0
M  V30 828 H 79.1662 -4.66237 -1.69816 0
M  V30 829 N 78.3393 -0.321999 -1.54275 0
M  V30 830 C 79.5853 0.281461 -2.00837 0
M  V30 831 C 79.9183 1.51909 -1.20985 0
M  V30 832 O 79.1933 1.923 -0.291733 0
M  V30 833 C 79.4763 0.617162 -3.54772 0
M  V30 834 C 79.3293 -0.631064 -4.45351 0
M  V30 835 C 80.6483 1.43542 -4.16033 0
M  V30 836 H 77.7673 0.100826 -0.730071 0
M  V30 837 H 80.4093 -0.438268 -1.84876 0
M  V30 838 H 78.5593 1.23034 -3.68504 0
M  V30 839 H 80.2313 -1.26934 -4.43492 0
M  V30 840 H 78.4743 -1.26025 -4.15091 0
M  V30 841 H 79.1453 -0.351735 -5.50878 0
M  V30 842 H 81.6213 0.917134 -4.05867 0
M  V30 843 H 80.4973 1.63907 -5.23856 0
M  V30 844 H 80.7583 2.43108 -3.69257 0
M  V30 845 N 79.8174 1.5752 -0.0501392 0
M  V30 846 C 81.0654 1.9227 0.622642 0
M  V30 847 C 81.3864 0.929083 1.71444 0
M  V30 848 O 80.6564 -0.0262186 1.95882 0
M  V30 849 H 79.2364 0.709739 0.232981 0
M  V30 850 H 81.8984 1.94628 -0.102898 0
M  V30 851 H 80.9944 2.93479 1.06191 0
M  V30 852 N 81.2955 -0.223234 1.56011 0
M  V30 853 C 82.7065 -0.790368 1.69145 0
M  V30 854 C 83.0575 -1.85055 0.651845 0
M  V30 855 O 82.1825 -2.15498 -0.197359 0
M  V30 856 C 82.7775 -1.4404 3.06656 0
M  V30 857 C 81.3365 -1.95494 3.2165 0
M  V30 858 C 80.4835 -0.814506 2.65068 0
M  V30 859 H 83.4345 0.00139011 1.587 0
M  V30 860 H 83.4555 -2.30916 3.0242 0
M  V30 861 H 82.9675 -0.668543 3.82298 0
M  V30 862 H 81.0685 -2.75487 2.50874 0
M  V30 863 H 81.1815 -2.13607 4.28846 0
M  V30 864 H 79.5455 -1.22137 2.23505 0
M  V30 865 H 80.3285 -0.0553515 3.43255 0
M  V30 866 N 82.7736 -1.49793 -0.48987 0
M  V30 867 C 84.1896 -1.36803 -0.822022 0
M  V30 868 C 84.3896 -0.409652 -1.97292 0
M  V30 869 O 83.4456 0.154614 -2.52026 0
M  V30 870 C 84.7586 -2.77768 -1.15175 0
M  V30 871 C 86.3066 -2.86549 -1.25931 0
M  V30 872 C 86.7816 -4.28306 -1.62228 0
M  V30 873 N 88.2726 -4.31169 -1.69256 0
M  V30 874 C 89.0076 -5.37832 -1.98807 0
M  V30 875 N 88.5036 -6.54726 -2.26507 0
M  V30 876 N 90.2966 -5.25258 -2.00152 0
M  V30 877 H 82.4476 -2.10691 0.268881 0
M  V30 878 H 84.7106 -0.946241 0.057728 0
M  V30 879 H 84.4166 -3.49648 -0.379335 0
M  V30 880 H 84.2906 -3.13836 -2.09253 0
M  V30 881 H 86.6776 -2.14899 -2.02243 0
M  V30 882 H 86.7586 -2.54049 -0.298776 0
M  V30 883 H 86.4026 -5.00486 -0.864622 0
M  V30 884 H 86.3326 -4.58279 -2.594 0
M  V30 885 H 88.8236 -3.4687 -1.49965 0
M  V30 886 H 89.1366 -7.31833 -2.48276 0
M  V30 887 H 87.4816 -6.57933 -2.23939 0
M  V30 888 H 90.6726 -4.32938 -1.77996 0
M  V30 889 H 90.8456 -6.08476 -2.22848 0
M  V30 890 N 84.2517 0.741722 -1.39055 0
M  V30 891 C 85.4797 1.53098 -1.39171 0
M  V30 892 C 85.8947 1.88794 0.0155099 0
M  V30 893 O 85.2517 1.53626 0.985159 0
M  V30 894 C 85.3027 2.82274 -2.2584 0
M  V30 895 O 85.0237 2.48097 -3.61081 0
M  V30 896 C 86.5247 3.76343 -2.34266 0
M  V30 897 H 83.7447 0.473335 -0.4756 0
M  V30 898 H 86.2887 0.917045 -1.82785 0
M  V30 899 H 84.4437 3.40015 -1.85656 0
M  V30 900 H 84.8577 3.31029 -4.06842 0
M  V30 901 H 86.3317 4.63898 -2.9917 0
M  V30 902 H 86.8087 4.17619 -1.35982 0
M  V30 903 H 87.4147 3.24523 -2.74891 0
M  V30 904 N 85.7298 1.2412 0.971189 0
M  V30 905 C 87.1408 1.07236 1.52831 0
M  V30 906 C 87.4918 -0.357352 1.92918 0
M  V30 907 O 86.6168 -1.24528 1.76979 0
M  V30 908 C 87.2118 1.94043 2.77728 0
M  V30 909 C 85.7708 1.81394 3.29808 0
M  V30 910 C 84.9178 1.89189 2.02738 0
M  V30 911 H 87.8688 1.37648 0.789864 0
M  V30 912 H 87.8898 1.47066 3.5093 0
M  V30 913 H 87.4018 2.98093 2.4852 0
M  V30 914 H 85.5028 0.801634 3.63874 0
M  V30 915 H 85.6158 2.65294 3.98944 0
M  V30 916 H 83.9798 1.32877 2.17292 0
M  V30 917 H 84.7628 2.94812 1.759 0
M  V30 918 N 87.2079 -1.17134 1.05439 0
M  V30 919 C 88.4569 -1.86791 0.761049 0
M  V30 920 C 88.7699 -1.82072 -0.714795 0
M  V30 921 O 89.9759 -2.47223 -1.12218 0
M  V30 922 C 88.4319 -3.35166 1.31117 0
M  V30 923 C 88.0399 -3.48381 2.81664 0
M  V30 924 C 89.7839 -4.10134 1.09499 0
M  V30 925 C 87.6909 -4.90793 3.29964 0
M  V30 926 H 86.6209 -0.699681 0.281002 0
M  V30 927 H 89.2719 -1.3226 1.27199 0
M  V30 928 H 87.6539 -3.8925 0.72803 0
M  V30 929 H 88.8279 -3.04502 3.45855 0
M  V30 930 H 87.1429 -2.86836 3.01851 0
M  V30 931 H 89.7399 -5.152 1.43084 0
M  V30 932 H 90.0829 -4.16287 0.0328772 0
M  V30 933 H 90.6159 -3.62264 1.64346 0
M  V30 934 H 87.3549 -4.89816 4.35616 0
M  V30 935 H 86.8749 -5.35333 2.70516 0
M  V30 936 H 88.5539 -5.59573 3.24787 0
M  V30 937 N 88.686 -0.835752 -1.33615 0
M  V30 938 C 89.649 -0.272 -2.2758 0
M  V30 939 C 90.649 0.557487 -1.50827 0
M  V30 940 O 91.839 0.37173 -1.70188 0
M  V30 941 C 88.971 0.617173 -3.35267 0
M  V30 942 H 90.164 -1.10111 -2.78954 0
M  V30 943 H 87.717 -0.608594 -1.43965 0
M  V30 944 H 88.452 1.46884 -2.89129 0
M  V30 945 H 88.237 0.0237066 -3.92093 0
M  V30 946 H 89.727 1.005 -4.05326 0
M  V30 947 N 90.1641 1.46063 -0.591896 0
M  V30 948 C 91.3941 2.06418 -0.0867676 0
M  V30 949 C 91.8021 1.43975 1.22751 0
M  V30 950 O 91.1451 0.542531 1.75506 0
M  V30 951 C 91.2071 3.59213 0.143725 0
M  V30 952 C 90.8711 4.439 -1.08635 0
M  V30 953 C 91.8681 4.79864 -2.00067 0
M  V30 954 C 89.5531 4.84896 -1.31077 0
M  V30 955 C 91.5471 5.55661 -3.12282 0
M  V30 956 C 89.2341 5.6045 -2.43596 0
M  V30 957 C 90.2321 5.95747 -3.34027 0
M  V30 958 O 89.9201 6.69772 -4.4459 0
M  V30 959 H 89.6521 0.673443 -0.0587447 0
M  V30 960 H 92.2061 1.88539 -0.814994 0
M  V30 961 H 90.4361 3.75433 0.926668 0
M  V30 962 H 92.1251 4.01463 0.5985 0
M  V30 963 H 92.8911 4.48763 -1.83947 0
M  V30 964 H 88.7701 4.56867 -0.61594 0
M  V30 965 H 92.3141 5.8313 -3.82891 0
M  V30 966 H 88.2111 5.90965 -2.59674 0
M  V30 967 H 88.9791 6.88207 -4.43073 0
M  V30 968 N 91.6422 0.330177 1.54103 0
M  V30 969 C 92.5752 -0.575477 2.20825 0
M  V30 970 C 93.5532 -1.11064 1.18758 0
M  V30 971 O 94.7372 -1.17341 1.47524 0
M  V30 972 C 91.8642 -1.79032 2.87516 0
M  V30 973 C 90.9102 -1.38581 4.03358 0
M  V30 974 S 91.7432 -0.416911 5.33875 0
M  V30 975 C 92.8992 -1.63889 6.04062 0
M  V30 976 H 93.1322 -0.00872114 2.97299 0
M  V30 977 H 90.6652 0.114254 1.53977 0
M  V30 978 H 92.6232 -2.48734 3.2656 0
M  V30 979 H 91.2842 -2.32827 2.10832 0
M  V30 980 H 90.4772 -2.29123 4.48908 0
M  V30 981 H 90.0792 -0.768419 3.66021 0
M  V30 982 H 92.3712 -2.57536 6.26643 0
M  V30 983 H 93.3142 -1.22542 6.97416 0
M  V30 984 H 93.7222 -1.82887 5.34053 0
M  V30 985 N 93.1203 -1.57491 0.0584922 0
M  V30 986 C 94.0673 -2.11958 -0.913376 0
M  V30 987 C 95.0373 -1.02875 -1.30407 0
M  V30 988 O 96.2223 -1.30464 -1.39226 0
M  V30 989 C 93.3623 -2.67497 -2.18035 0
M  V30 990 C 92.4753 -3.90691 -1.84349 0
M  V30 991 C 91.6103 -4.3452 -3.05559 0
M  V30 992 C 90.6493 -5.50395 -2.67827 0
M  V30 993 N 89.7863 -5.89244 -3.81754 0
M  V30 994 H 94.6263 -2.94704 -0.442017 0
M  V30 995 H 92.1633 -1.45643 -0.206545 0
M  V30 996 H 94.1213 -2.978 -2.92183 0
M  V30 997 H 92.7513 -1.87537 -2.62735 0
M  V30 998 H 91.8033 -3.66934 -1.00319 0
M  V30 999 H 93.1153 -4.7489 -1.5258 0
M  V30 1000 H 92.2693 -4.66414 -3.87998 0
M  V30 1001 H 91.0083 -3.49147 -3.40511 0
M  V30 1002 H 90.0133 -5.18165 -1.83806 0
M  V30 1003 H 91.2383 -6.3749 -2.34059 0
M  V30 1004 H 89.1843 -5.06823 -4.16493 0
M  V30 1005 H 89.1013 -6.68151 -3.53708 0
M  V30 1006 H 90.3693 -6.25756 -4.64811 0
M  V30 1007 N 94.5984 0.214957 -1.56127 0
M  V30 1008 C 95.8284 0.953707 -1.8327 0
M  V30 1009 C 96.2364 1.78181 -0.636262 0
M  V30 1010 O 95.5794 1.79191 0.404516 0
M  V30 1011 C 95.6414 1.91516 -3.0424 0
M  V30 1012 C 95.3054 1.27094 -4.38972 0
M  V30 1013 C 96.3024 0.657575 -5.15725 0
M  V30 1014 C 93.9874 1.28073 -4.85698 0
M  V30 1015 C 95.9814 0.0625968 -6.37369 0
M  V30 1016 C 93.6684 0.681914 -6.07283 0
M  V30 1017 C 94.6664 0.0739046 -6.8296 0
M  V30 1018 O 94.3544 -0.515582 -8.02245 0
M  V30 1019 H 94.0864 0.284764 -0.613095 0
M  V30 1020 H 96.6404 0.233283 -2.04071 0
M  V30 1021 H 94.8704 2.67475 -2.79274 0
M  V30 1022 H 96.5594 2.52001 -3.18198 0
M  V30 1023 H 97.3254 0.642288 -4.80728 0
M  V30 1024 H 93.2044 1.74337 -4.26764 0
M  V30 1025 H 96.7484 -0.412593 -6.96379 0
M  V30 1026 H 92.6454 0.694636 -6.41752 0
M  V30 1027 H 93.4134 -0.410544 -8.1747 0
M  V30 1028 N 96.0765 1.50051 0.48192 0
M  V30 1029 C 97.3245 1.60181 1.23234 0
M  V30 1030 C 97.6455 0.299176 1.92691 0
M  V30 1031 O 96.9155 -0.682708 1.83619 0
M  V30 1032 H 95.4955 0.590232 0.457859 0
M  V30 1033 H 98.1575 1.86775 0.556881 0
M  V30 1034 H 97.2535 2.40753 1.98607 0
M  V30 1035 N 97.5546 -0.734337 1.39446 0
M  V30 1036 C 98.7946 -1.50655 1.38139 0
M  V30 1037 C 99.1586 -1.91986 -0.0228701 0
M  V30 1038 O 100.36 -2.68318 -0.160947 0
M  V30 1039 C 98.6306 -2.71251 2.32718 0
M  V30 1040 S 100.19 -3.60892 2.49605 0
M  V30 1041 H 97.0076 -0.515315 0.489869 0
M  V30 1042 H 99.6096 -0.860392 1.75549 0
M  V30 1043 H 98.3136 -2.39027 3.33608 0
M  V30 1044 H 97.8446 -3.40795 1.96526 0
M  V30 1045 H 99.8596 -4.64899 1.73446 0
M  V30 1046 N 99.0327 -1.24633 -0.964593 0
M  V30 1047 C 100.28 -1.08788 -1.70796 0
M  V30 1048 C 100.608 0.372783 -1.90894 0
M  V30 1049 O 99.8627 1.29167 -1.47018 0
M  V30 1050 C 100.162 -1.7763 -3.10133 0
M  V30 1051 C 99.8277 -3.27557 -3.09866 0
M  V30 1052 C 98.4897 -3.6846 -3.09501 0
M  V30 1053 C 100.842 -4.23389 -3.03959 0
M  V30 1054 C 98.1697 -5.03624 -3.00965 0
M  V30 1055 C 100.522 -5.58565 -2.96965 0
M  V30 1056 C 99.1857 -5.98809 -2.9493 0
M  V30 1057 H 98.4557 -0.398084 -0.624988 0
M  V30 1058 H 101.103 -1.54777 -1.12767 0
M  V30 1059 H 99.4077 -1.24044 -3.71645 0
M  V30 1060 H 101.105 -1.62832 -3.66451 0
M  V30 1061 H 97.6947 -2.95006 -3.10917 0
M  V30 1062 H 101.879 -3.92787 -3.03368 0
M  V30 1063 H 97.1347 -5.33998 -2.97752 0
M  V30 1064 H 101.309 -6.32523 -2.91354 0
M  V30 1065 H 98.9357 -7.03505 -2.88071 0
M  V30 1066 N 100.511 1.16574 -1.06058 0
M  V30 1067 C 101.751 1.88723 -0.78504 0
M  V30 1068 C 102.115 1.79706 0.676006 0
M  V30 1069 O 103.316 2.46757 1.06603 0
M  V30 1070 C 101.587 3.34338 -1.26304 0
M  V30 1071 S 103.146 4.24366 -1.1162 0
M  V30 1072 H 99.9638 0.651448 -0.284846 0
M  V30 1073 H 102.566 1.40732 -1.35701 0
M  V30 1074 H 101.27 3.38439 -2.32136 0
M  V30 1075 H 100.801 3.87378 -0.685719 0
M  V30 1076 H 102.816 4.96179 -0.0456539 0
M  V30 1077 N 101.989 0.842826 1.3317 0
M  V30 1078 C 103.237 0.439577 1.97262 0
M  V30 1079 C 103.558 -1.00548 1.67078 0
M  V30 1080 O 102.828 -1.70098 0.971779 0
M  V30 1081 H 101.408 0.159558 0.72976 0
M  V30 1082 H 104.07 1.07665 1.62463 0
M  V30 1083 H 103.166 0.574886 3.0676 0
M  V30 1084 N 103.467 -1.45747 0.599634 0
M  V30 1085 C 104.397 -2.33235 -0.111306 0
M  V30 1086 C 105.378 -1.46359 -0.866781 0
M  V30 1087 O 106.563 -1.75146 -0.838904 0
M  V30 1088 C 103.693 -3.28932 -1.11451 0
M  V30 1089 C 102.647 -4.25381 -0.472772 0
M  V30 1090 C 101.973 -5.1071 -1.58365 0
M  V30 1091 C 103.273 -5.18831 0.600948 0
M  V30 1092 H 104.967 -2.92927 0.61919 0
M  V30 1093 H 102.513 -1.40857 0.299215 0
M  V30 1094 H 104.466 -3.89002 -1.62036 0
M  V30 1095 H 103.19 -2.67381 -1.8755 0
M  V30 1096 H 101.849 -3.66598 0.0121472 0
M  V30 1097 H 101.497 -4.45533 -2.33473 0
M  V30 1098 H 101.197 -5.7604 -1.15982 0
M  V30 1099 H 102.721 -5.73647 -2.09194 0
M  V30 1100 H 104.135 -5.73019 0.179491 0
M  V30 1101 H 102.532 -5.92595 0.946076 0
M  V30 1102 H 103.602 -4.6174 1.48068 0
M  V30 1103 N 104.945 -0.338344 -1.53925 0
M  V30 1104 C 106.193 0.259245 -2.0043 0
M  V30 1105 C 106.514 1.51484 -1.22791 0
M  V30 1106 O 105.784 1.93037 -0.33368 0
M  V30 1107 H 104.364 0.0987845 -0.740439 0
M  V30 1108 H 107.026 -0.458302 -1.89435 0
M  V30 1109 H 106.122 0.505334 -3.07982 0
M  V30 1110 N 106.423 1.57458 -0.0668435 0
M  V30 1111 C 107.671 1.92919 0.602214 0
M  V30 1112 C 107.992 0.947215 1.70449 0
M  V30 1113 O 107.262 -0.00544117 1.95899 0
M  V30 1114 H 105.842 0.71217 0.22544 0
M  V30 1115 H 108.504 1.94508 -0.123535 0
M  V30 1116 H 107.6 2.94589 1.03073 0
M  V30 1117 N 107.901 -0.206675 1.56239 0
M  V30 1118 C 108.851 -1.26 1.90021 0
M  V30 1119 C 109.835 -1.41566 0.764721 0
M  V30 1120 O 111.027 -1.44131 1.02739 0
M  V30 1121 C 108.156 -2.6073 2.23326 0
M  V30 1122 C 107.242 -2.49005 3.43304 0
M  V30 1123 N 107.633 -2.06946 4.61527 0
M  V30 1124 C 105.931 -2.79927 3.47213 0
M  V30 1125 C 106.632 -2.06832 5.43687 0
M  V30 1126 N 105.608 -2.47892 4.83788 0
M  V30 1127 H 109.41 -0.925955 2.78932 0
M  V30 1128 H 106.924 -0.415172 1.57003 0
M  V30 1129 H 108.921 -3.36798 2.45708 0
M  V30 1130 H 107.581 -2.94968 1.35735 0
M  V30 1131 H 108.592 -1.77839 4.86409 0
M  V30 1132 H 105.269 -3.18438 2.70006 0
M  V30 1133 H 106.659 -1.76312 6.48354 0
M  V30 1134 N 109.379 -1.50304 -0.473955 0
M  V30 1135 C 110.627 -1.60832 -1.22382 0
M  V30 1136 C 110.948 -0.30939 -1.9253 0
M  V30 1137 O 110.218 0.67296 -1.83978 0
M  V30 1138 H 108.798 -0.592652 -0.454723 0
M  V30 1139 H 111.46 -1.87068 -0.546968 0
M  V30 1140 H 110.556 -2.41803 -1.97327 0
M  V30 1141 N 110.857 0.726932 -1.39834 0
M  V30 1142 C 111.789 1.85147 -1.35104 0
M  V30 1143 C 112.802 1.60736 -0.258392 0
M  V30 1144 O 113.991 1.70821 -0.517931 0
M  V30 1145 C 111.091 3.21332 -1.07697 0
M  V30 1146 C 110.264 3.73033 -2.28396 0
M  V30 1147 C 109.323 4.87802 -1.97322 0
M  V30 1148 O 108.349 5.01043 -2.70083 0
M  V30 1149 N 109.551 5.72768 -0.944273 0
M  V30 1150 H 112.316 1.89706 -2.32017 0
M  V30 1151 H 109.877 0.908006 -1.3404 0
M  V30 1152 H 111.869 3.95691 -0.849144 0
M  V30 1153 H 110.439 3.11992 -0.194909 0
M  V30 1154 H 109.659 2.89934 -2.6708 0
M  V30 1155 H 110.947 4.0431 -3.08887 0
M  V30 1156 H 110.345 5.64669 -0.341427 0
M  V30 1157 H 108.902 6.4716 -0.776346 0
M  V30 1158 N 112.336 1.25143 0.95797 0
M  V30 1159 C 113.747 1.08851 1.51685 0
M  V30 1160 C 114.098 -0.33687 1.93286 0
M  V30 1161 O 113.223 -1.22644 1.7829 0
M  V30 1162 C 113.818 1.96978 2.75654 0
M  V30 1163 C 112.377 1.84881 3.27866 0
M  V30 1164 C 111.524 1.91329 2.0072 0
M  V30 1165 H 114.475 1.38478 0.77522 0
M  V30 1166 H 114.496 1.5078 3.4935 0
M  V30 1167 H 114.008 3.00712 2.45345 0
M  V30 1168 H 112.109 0.840182 3.63004 0
M  V30 1169 H 112.222 2.6951 3.96107 0
M  V30 1170 H 110.586 1.35174 2.15871 0
M  V30 1171 H 111.369 2.96661 1.72764 0
M  V30 1172 N 113.814 -1.1601 1.06675 0
M  V30 1173 C 115.23 -1.38622 0.790948 0
M  V30 1174 C 115.43 -1.92109 -0.607965 0
M  V30 1175 O 114.486 -2.12239 -1.36787 0
M  V30 1176 C 115.799 -2.36347 1.85905 0
M  V30 1177 C 117.347 -2.50023 1.88301 0
M  V30 1178 C 117.822 -3.51033 2.94176 0
M  V30 1179 N 119.313 -3.58563 2.93235 0
M  V30 1180 C 120.048 -4.36521 3.71803 0
M  V30 1181 N 119.544 -5.17869 4.602 0
M  V30 1182 N 121.337 -4.31541 3.60178 0
M  V30 1183 H 113.488 -0.796294 1.96908 0
M  V30 1184 H 115.751 -0.412597 0.853503 0
M  V30 1185 H 115.457 -2.04147 2.86386 0
M  V30 1186 H 115.331 -3.36042 1.71334 0
M  V30 1187 H 117.718 -2.81524 0.884769 0
M  V30 1188 H 117.799 -1.5035 2.06951 0
M  V30 1189 H 117.443 -3.20268 3.94196 0
M  V30 1190 H 117.373 -4.50445 2.72776 0
M  V30 1191 H 119.864 -3.00496 2.29152 0
M  V30 1192 H 120.177 -5.74578 5.16797 0
M  V30 1193 H 118.522 -5.17199 4.64253 0
M  V30 1194 H 121.713 -3.67051 2.90502 0
M  V30 1195 H 121.886 -4.9205 4.21653 0
M  V30 1196 N 115.292 -0.849877 -1.32721 0
M  V30 1197 C 116.569 -0.372405 -1.92022 0
M  V30 1198 C 116.949 1.1435 -1.77447 0
M  V30 1199 O 116.297 1.96296 -1.16962 0
M  V30 1200 C 116.507 -0.831482 -3.3895 0
M  V30 1201 C 117.855 -0.845882 -4.16089 0
M  V30 1202 O 118.879 -0.775806 -3.47649 0
M  V30 1203 O 117.738 -0.943753 -5.38289 0
M  V30 1204 H 114.832 -0.107667 -0.819961 0
M  V30 1205 H 117.378 -0.93646 -1.41522 0
M  V30 1206 H 116.15 -1.87448 -3.4348 0
M  V30 1207 H 115.773 -0.24461 -3.96847 0
M  V30 1208 N 116.77 1.45427 -0.607355 0
M  V30 1209 C 117.733 2.28974 0.101693 0
M  V30 1210 C 118.733 1.39754 0.795329 0
M  V30 1211 O 119.923 1.61878 0.643527 0
M  V30 1212 C 117.055 3.20768 1.15414 0
M  V30 1213 H 118.248 2.93147 -0.632844 0
M  V30 1214 H 115.801 1.51945 -0.366391 0
M  V30 1215 H 116.536 2.61395 1.91945 0
M  V30 1216 H 116.321 3.86489 0.66098 0
M  V30 1217 H 117.811 3.83589 1.65073 0
M  V30 1218 N 118.248 0.346503 1.53744 0
M  V30 1219 C 119.497 -0.250122 2.00143 0
M  V30 1220 C 119.81 -1.51418 1.23822 0
M  V30 1221 O 121.016 -2.18823 1.60713 0
M  V30 1222 C 119.472 -0.496252 3.56462 0
M  V30 1223 C 119.08 0.752077 4.41642 0
M  V30 1224 C 120.824 -1.05157 4.11269 0
M  V30 1225 C 118.731 0.476583 5.89477 0
M  V30 1226 H 117.661 -0.0972409 0.747703 0
M  V30 1227 H 120.312 0.46229 1.77581 0
M  V30 1228 H 118.694 -1.26944 3.75102 0
M  V30 1229 H 119.868 1.5266 4.34778 0
M  V30 1230 H 118.183 1.22925 3.97842 0
M  V30 1231 H 120.78 -1.27269 5.19333 0
M  V30 1232 H 121.123 -2.00799 3.64672 0
M  V30 1233 H 121.656 -0.339019 3.96353 0
M  V30 1234 H 118.395 1.4028 6.40314 0
M  V30 1235 H 117.915 -0.259794 5.99237 0
M  V30 1236 H 119.594 0.0949315 6.4693 0
M  V30 1237 N 119.726 -1.57421 0.075193 0
M  V30 1238 C 121.003 -1.85029 -0.634329 0
M  V30 1239 C 121.383 -0.968305 -1.87582 0
M  V30 1240 O 120.731 -0.0354749 -2.28472 0
M  V30 1241 C 120.941 -3.35286 -0.968742 0
M  V30 1242 C 122.289 -4.02875 -1.34077 0
M  V30 1243 O 123.313 -3.40051 -1.06037 0
M  V30 1244 O 122.172 -5.13691 -1.86506 0
M  V30 1245 H 119.266 -0.7645 -0.315387 0
M  V30 1246 H 121.812 -1.69366 0.106382 0
M  V30 1247 H 120.584 -3.91203 -0.0871376 0
M  V30 1248 H 120.207 -3.56223 -1.7661 0
M  V30 1249 N 121.204 0.198386 -1.56346 0
M  V30 1250 C 122.45 0.916115 -1.81601 0
M  V30 1251 C 122.805 1.81025 -0.651744 0
M  V30 1252 O 122.098 1.88316 0.353229 0
M  V30 1253 C 122.292 1.77031 -3.10475 0
M  V30 1254 C 122.121 0.960365 -4.39326 0
M  V30 1255 C 120.891 0.646093 -5.01152 0
M  V30 1256 C 123.089 0.314628 -5.13337 0
M  V30 1257 N 121.071 -0.182828 -6.13628 0
M  V30 1258 C 122.442 -0.37664 -6.18855 0
M  V30 1259 C 124.497 0.230019 -4.97368 0
M  V30 1260 C 123.2 -1.14445 -7.10137 0
M  V30 1261 C 125.226 -0.524389 -5.89071 0
M  V30 1262 C 124.588 -1.20412 -6.94032 0
M  V30 1263 H 120.687 0.314732 -0.715868 0
M  V30 1264 H 123.271 0.185102 -1.93818 0
M  V30 1265 H 121.442 2.47295 -2.99499 0
M  V30 1266 H 123.174 2.42727 -3.2383 0
M  V30 1267 H 119.929 0.969724 -4.63566 0
M  V30 1268 H 120.353 -0.586802 -6.74452 0
M  V30 1269 H 124.995 0.741184 -4.16253 0
M  V30 1270 H 122.713 -1.66706 -7.90718 0
M  V30 1271 H 126.299 -0.591167 -5.78789 0
M  V30 1272 H 125.179 -1.77853 -7.63766 0
M  V30 1273 N 122.682 1.50554 0.465978 0
M  V30 1274 C 123.922 1.63439 1.22747 0
M  V30 1275 C 124.286 0.329822 1.89146 0
M  V30 1276 O 125.487 0.334161 2.66715 0
M  V30 1277 C 123.758 2.78542 2.2394 0
M  V30 1278 S 125.317 3.11591 3.0896 0
M  V30 1279 H 122.135 0.576113 0.416672 0
M  V30 1280 H 124.737 1.88357 0.523641 0
M  V30 1281 H 123.441 3.71805 1.7375 0
M  V30 1282 H 122.972 2.55726 2.98944 0
M  V30 1283 H 124.987 2.55811 4.25176 0
M  V30 1284 N 124.16 -0.719506 1.40217 0
M  V30 1285 C 125.4 -1.49181 1.39729 0
M  V30 1286 C 125.764 -1.92 -0.00250614 0
M  V30 1287 O 126.965 -2.68473 -0.132479 0
M  V30 1288 C 125.236 -2.68767 2.35582 0
M  V30 1289 S 126.795 -3.58224 2.53418 0
M  V30 1290 H 123.613 -0.510091 0.495307 0
M  V30 1291 H 126.215 -0.841724 1.76452 0
M  V30 1292 H 124.919 -2.35475 3.36124 0
M  V30 1293 H 124.45 -3.38691 2.0013 0
M  V30 1294 H 126.465 -4.63033 1.78367 0
M  V30 1295 N 125.638 -1.25649 -0.95132 0
M  V30 1296 C 126.588 -1.03004 -2.03406 0
M  V30 1297 C 127.572 0.034187 -1.60864 0
M  V30 1298 O 128.764 -0.181549 -1.76066 0
M  V30 1299 C 125.893 -0.654255 -3.37008 0
M  V30 1300 C 124.979 -1.75542 -3.86065 0
M  V30 1301 N 125.37 -2.99113 -4.07879 0
M  V30 1302 C 123.668 -1.63669 -4.14884 0
M  V30 1303 C 124.369 -3.70611 -4.48356 0
M  V30 1304 N 123.345 -2.98247 -4.54477 0
M  V30 1305 H 127.147 -1.96813 -2.1827 0
M  V30 1306 H 124.661 -1.16017 -1.13639 0
M  V30 1307 H 126.658 -0.473206 -4.14206 0
M  V30 1308 H 125.318 0.276468 -3.23521 0
M  V30 1309 H 126.329 -3.35124 -3.94857 0
M  V30 1310 H 123.006 -0.775161 -4.10241 0
M  V30 1311 H 124.396 -4.76695 -4.73509 0
M  V30 1312 N 127.117 1.15442 -1.07289 0
M  V30 1313 C 128.365 1.85845 -0.794096 0
M  V30 1314 C 128.686 1.82692 0.681809 0
M  V30 1315 O 127.956 1.26741 1.49377 0
M  V30 1316 H 126.536 0.688089 -0.290763 0
M  V30 1317 H 129.198 1.39947 -1.3565 0
M  V30 1318 H 128.294 2.91001 -1.12804 0
M  V30 1319 N 128.595 0.856903 1.32268 0
M  V30 1320 C 129.545 0.274899 2.26337 0
M  V30 1321 C 130.529 -0.580543 1.50062 0
M  V30 1322 O 131.721 -0.429559 1.71708 0
M  V30 1323 C 128.85 -0.533841 3.39124 0
M  V30 1324 C 127.936 0.334114 4.22782 0
M  V30 1325 N 128.327 1.42143 4.85416 0
M  V30 1326 C 126.625 0.124256 4.45827 0
M  V30 1327 C 127.326 1.95559 5.47843 0
M  V30 1328 N 126.302 1.25444 5.28928 0
M  V30 1329 H 130.104 1.10612 2.72291 0
M  V30 1330 H 127.618 0.703258 1.46383 0
M  V30 1331 H 129.615 -0.96722 4.05525 0
M  V30 1332 H 128.275 -1.36283 2.94715 0
M  V30 1333 H 129.286 1.80436 4.85451 0
M  V30 1334 H 125.963 -0.669837 4.12092 0
M  V30 1335 H 127.353 2.86714 6.07655 0
M  V30 1336 N 130.073 -1.45103 0.615059 0
M  V30 1337 C 131.35 -1.95549 0.0448276 0
M  V30 1338 C 131.73 -1.55737 -1.4251 0
M  V30 1339 O 131.078 -0.823556 -2.13143 0
M  V30 1340 C 131.288 -3.48098 0.250785 0
M  V30 1341 C 132.636 -4.24384 0.135509 0
M  V30 1342 O 133.66 -3.55738 0.181299 0
M  V30 1343 O 132.519 -5.46493 0.0268878 0
M  V30 1344 H 129.613 -0.8264 -0.0314845 0
M  V30 1345 H 132.159 -1.55232 0.685642 0
M  V30 1346 H 130.931 -3.7007 1.27139 0
M  V30 1347 H 130.554 -3.95323 -0.424937 0
M  V30 1348 N 131.551 -0.354651 -1.53558 0
M  V30 1349 C 132.791 0.238651 -2.03002 0
M  V30 1350 C 133.155 1.46878 -1.23656 0
M  V30 1351 O 134.356 2.13699 -1.63053 0
M  V30 1352 C 132.627 0.534175 -3.53386 0
M  V30 1353 S 134.186 1.10271 -4.24719 0
M  V30 1354 H 131.004 0.0702908 -0.707517 0
M  V30 1355 H 133.606 -0.494987 -1.8913 0
M  V30 1356 H 132.31 -0.368765 -4.0874 0
M  V30 1357 H 131.841 1.29718 -3.71398 0
M  V30 1358 H 133.856 2.38772 -4.34974 0
M  V30 1359 N 133.029 1.57378 -0.0835403 0
M  V30 1360 C 134.269 1.95808 0.586381 0
M  V30 1361 C 134.633 0.963706 1.66062 0
M  V30 1362 O 135.834 1.23608 2.38693 0
M  V30 1363 C 134.105 3.38808 1.13771 0
M  V30 1364 S 135.664 3.99225 1.82112 0
M  V30 1365 H 132.482 0.684675 0.191679 0
M  V30 1366 H 135.084 1.94843 -0.160194 0
M  V30 1367 H 133.788 4.08954 0.344197 0
M  V30 1368 H 133.319 3.43344 1.92038 0
M  V30 1369 H 135.334 3.87087 3.10449 0
M  V30 1370 N 134.507 -0.190092 1.56449 0
M  V30 1371 C 135.737 -0.92443 1.84764 0
M  V30 1372 C 136.145 -1.77146 0.664529 0
M  V30 1373 O 135.488 -1.79812 -0.375957 0
M  V30 1374 C 135.55 -1.86651 3.07248 0
M  V30 1375 C 135.214 -1.20094 4.40938 0
M  V30 1376 C 136.211 -0.575445 5.16706 0
M  V30 1377 C 133.896 -1.2033 4.87674 0
M  V30 1378 C 135.89 0.0388111 6.37388 0
M  V30 1379 C 133.577 -0.585214 6.08291 0
M  V30 1380 C 134.575 0.0347578 6.82991 0
M  V30 1381 O 134.263 0.643147 8.01323 0
M  V30 1382 H 133.995 -0.274974 0.617548 0
M  V30 1383 H 136.549 -0.200788 2.04416 0
M  V30 1384 H 134.779 -2.62998 2.83494 0
M  V30 1385 H 136.468 -2.46907 3.22167 0
M  V30 1386 H 137.234 -0.565728 4.81689 0
M  V30 1387 H 133.113 -1.67526 4.29484 0
M  V30 1388 H 136.657 0.523329 6.95634 0
M  V30 1389 H 132.554 -0.592451 6.42775 0
M  V30 1390 H 133.322 0.540545 8.16713 0
M  V30 1391 N 135.985 -1.50799 -0.457987 0
M  V30 1392 C 137.213 -1.66218 -1.23203 0
M  V30 1393 C 137.628 -0.350894 -1.85511 0
M  V30 1394 O 136.985 0.668546 -1.69814 0
M  V30 1395 C 137.036 -2.76291 -2.33121 0
M  V30 1396 O 136.757 -4.02338 -1.73366 0
M  V30 1397 C 138.258 -3.028 -3.2377 0
M  V30 1398 H 135.478 -0.558361 -0.372121 0
M  V30 1399 H 138.022 -1.97099 -0.545179 0
M  V30 1400 H 136.177 -2.48068 -2.97558 0
M  V30 1401 H 136.591 -4.63312 -2.4585 0
M  V30 1402 H 138.065 -3.8345 -3.97077 0
M  V30 1403 H 138.542 -2.14385 -3.83322 0
M  V30 1404 H 139.148 -3.32604 -2.65056 0
M  V30 1405 N 137.463 0.71206 -1.40597 0
M  V30 1406 C 138.879 1.02058 -1.22704 0
M  V30 1407 C 139.079 2.01228 -0.104729 0
M  V30 1408 O 138.135 2.4674 0.53624 0
M  V30 1409 C 139.448 1.56094 -2.57012 0
M  V30 1410 C 140.996 1.6806 -2.64054 0
M  V30 1411 C 141.471 2.25501 -3.9864 0
M  V30 1412 N 142.962 2.32882 -4.004 0
M  V30 1413 C 143.697 2.78317 -5.01325 0
M  V30 1414 N 143.193 3.23478 -6.12645 0
M  V30 1415 N 144.986 2.77733 -4.88693 0
M  V30 1416 H 137.137 0.0547896 -2.12329 0
M  V30 1417 H 139.4 0.0869027 -0.944008 0
M  V30 1418 H 139.106 0.906865 -3.39807 0
M  V30 1419 H 138.98 2.54564 -2.78347 0
M  V30 1420 H 141.367 2.32583 -1.81629 0
M  V30 1421 H 141.448 0.681802 -2.46546 0
M  V30 1422 H 141.092 1.61598 -4.81506 0
M  V30 1423 H 141.022 3.26102 -4.13479 0
M  V30 1424 H 143.513 2.00991 -3.20017 0
M  V30 1425 H 143.826 3.56725 -6.85542 0
M  V30 1426 H 142.171 3.21429 -6.16205 0
M  V30 1427 H 145.362 2.4179 -4.00818 0
M  V30 1428 H 145.535 3.12826 -5.67489 0
M  V30 1429 N 138.941 1.26152 0.944643 0
M  V30 1430 C 139.904 1.07474 2.0244 0
M  V30 1431 C 140.904 0.0242064 1.60782 0
M  V30 1432 O 142.094 0.267302 1.72137 0
M  V30 1433 C 139.226 0.633956 3.34953 0
M  V30 1434 H 140.419 2.03336 2.20442 0
M  V30 1435 H 137.972 1.087 1.12312 0
M  V30 1436 H 138.707 -0.326811 3.22649 0
M  V30 1437 H 138.492 1.39247 3.66542 0
M  V30 1438 H 139.982 0.52501 4.14287 0
M  V30 1439 N 140.419 -1.14872 1.07899 0
M  V30 1440 C 141.329 -2.2341 0.715915 0
M  V30 1441 C 142.345 -1.71808 -0.275306 0
M  V30 1442 O 143.521 -2.01039 -0.120545 0
M  V30 1443 C 140.586 -3.46474 0.125168 0
M  V30 1444 C 139.647 -4.13039 1.17034 0
M  V30 1445 C 138.88 -5.30229 0.607688 0
M  V30 1446 O 139.103 -5.675 -0.574497 0
M  V30 1447 O 138.037 -5.86444 1.35526 0
M  V30 1448 H 141.863 -2.56808 1.62121 0
M  V30 1449 H 139.448 -1.22702 0.852322 0
M  V30 1450 H 141.33 -4.20917 -0.201729 0
M  V30 1451 H 140.005 -3.14811 -0.753364 0
M  V30 1452 H 138.912 -3.40493 1.54968 0
M  V30 1453 H 140.245 -4.48796 2.02097 0
M  V30 1454 N 141.898 -0.863906 -1.31812 0
M  V30 1455 C 142.808 -0.318461 -2.32428 0
M  V30 1456 C 143.824 0.568496 -1.64451 0
M  V30 1457 O 145 0.46666 -1.95919 0
M  V30 1458 C 142.065 0.476355 -3.43412 0
M  V30 1459 C 141.126 -0.43784 -4.27061 0
M  V30 1460 C 140.359 0.319138 -5.32745 0
M  V30 1461 O 140.582 1.54799 -5.48993 0
M  V30 1462 O 139.516 -0.319861 -6.01049 0
M  V30 1463 H 143.342 -1.15229 -2.80991 0
M  V30 1464 H 140.927 -0.627103 -1.35602 0
M  V30 1465 H 142.809 0.927156 -4.11074 0
M  V30 1466 H 141.484 1.28683 -2.97022 0
M  V30 1467 H 140.391 -0.937013 -3.62175 0
M  V30 1468 H 141.724 -1.21375 -4.77 0
M  V30 1469 N 143.376 1.44774 -0.622745 0
M  V30 1470 C 144.339 2.29069 0.0774015 0
M  V30 1471 C 145.339 1.4059 0.780461 0
M  V30 1472 O 146.529 1.62551 0.626322 0
M  V30 1473 C 143.661 3.21974 1.12006 0
M  V30 1474 H 144.854 2.92459 -0.663901 0
M  V30 1475 H 142.407 1.51548 -0.382486 0
M  V30 1476 H 143.142 2.63417 1.89162 0
M  V30 1477 H 142.927 3.87168 0.619951 0
M  V30 1478 H 144.417 3.85318 1.60995 0
M  V30 1479 N 144.854 0.36279 1.53368 0
M  V30 1480 C 146.102 -0.227326 2.00817 0
M  V30 1481 C 146.423 -1.49511 1.25186 0
M  V30 1482 O 145.693 -1.92482 0.364348 0
M  V30 1483 H 144.273 -0.0869923 0.741917 0
M  V30 1484 H 146.935 0.488381 1.88682 0
M  V30 1485 H 146.031 -0.456273 3.08747 0
M  V30 1486 N 146.332 -1.57332 0.0918853 0
M  V30 1487 C 147.572 -1.96117 -0.575988 0
M  V30 1488 C 147.936 -0.972499 -1.65549 0
M  V30 1489 O 149.137 -1.24872 -2.38034 0
M  V30 1490 C 147.408 -3.39407 -1.11973 0
M  V30 1491 S 148.967 -4.00185 -1.79992 0
M  V30 1492 H 145.785 -0.685682 -0.188045 0
M  V30 1493 H 148.387 -1.94755 0.170525 0
M  V30 1494 H 147.091 -4.09131 -0.322504 0
M  V30 1495 H 146.622 -3.44358 -1.90214 0
M  V30 1496 H 148.637 -3.88728 -3.08391 0
M  V30 1497 N 147.81 0.181792 -1.56548 0
M  V30 1498 C 149.035 0.920019 -1.85877 0
M  V30 1499 C 149.46 1.75494 -0.677021 0
M  V30 1500 O 148.818 1.77399 0.374056 0
M  V30 1501 C 148.866 1.78112 -3.13542 0
M  V30 1502 O 147.97 2.88152 -2.95029 0
M  V30 1503 H 147.311 0.258334 -0.611686 0
M  V30 1504 H 149.841 0.183092 -2.03779 0
M  V30 1505 H 149.851 2.18314 -3.44678 0
M  V30 1506 H 148.526 1.16777 -3.99169 0
M  V30 1507 H 147.103 2.51609 -2.75222 0
M  V30 1508 N 149.288 1.51039 0.449983 0
M  V30 1509 C 150.699 1.557 1.03026 0
M  V30 1510 C 151.05 0.372939 1.92623 0
M  V30 1511 O 150.175 -0.511771 2.10261 0
M  V30 1512 C 150.77 2.82171 1.87523 0
M  V30 1513 C 149.329 2.89444 2.40622 0
M  V30 1514 C 148.476 2.50228 1.19504 0
M  V30 1515 H 151.427 1.56999 0.231745 0
M  V30 1516 H 151.448 2.65219 2.72835 0
M  V30 1517 H 150.96 3.68331 1.22286 0
M  V30 1518 H 149.061 2.07685 3.0935 0
M  V30 1519 H 149.174 3.92816 2.74285 0
M  V30 1520 H 147.538 2.03139 1.53644 0
M  V30 1521 H 148.321 3.38719 0.558972 0
M  V30 1522 N 150.766 -0.704594 1.40972 0
M  V30 1523 C 151.713 -1.81862 1.42109 0
M  V30 1524 C 152.683 -1.63781 0.276593 0
M  V30 1525 O 153.868 -1.84759 0.4763 0
M  V30 1526 C 151.008 -3.19669 1.30022 0
M  V30 1527 C 150.121 -3.49246 2.54267 0
M  V30 1528 C 149.256 -4.76618 2.3454 0
M  V30 1529 C 148.295 -4.99133 3.54306 0
M  V30 1530 N 147.432 -6.17726 3.33706 0
M  V30 1531 H 152.272 -1.80226 2.37324 0
M  V30 1532 H 149.809 -0.880238 1.17857 0
M  V30 1533 H 151.767 -3.99263 1.21018 0
M  V30 1534 H 150.397 -3.20506 0.384192 0
M  V30 1535 H 149.449 -2.64125 2.73756 0
M  V30 1536 H 150.761 -3.61788 3.43381 0
M  V30 1537 H 149.915 -5.64249 2.22952 0
M  V30 1538 H 148.654 -4.66305 1.42867 0
M  V30 1539 H 147.659 -4.09953 3.66359 0
M  V30 1540 H 148.884 -5.11311 4.4692 0
M  V30 1541 H 146.83 -6.08642 2.44725 0
M  V30 1542 H 146.747 -6.30995 4.16391 0
M  V30 1543 H 148.015 -7.08115 3.25873 0
M  V30 1544 N 152.244 -1.26651 -0.937939 0
M  V30 1545 C 153.472 -1.15173 -1.7188 0
M  V30 1546 C 153.887 0.292668 -1.86518 0
M  V30 1547 O 153.244 1.20014 -1.37488 0
M  V30 1548 C 153.295 -1.81925 -3.12387 0
M  V30 1549 O 153.016 -3.2072 -2.98446 0
M  V30 1550 C 154.517 -1.76442 -4.06673 0
M  V30 1551 H 151.737 -0.400911 -0.538063 0
M  V30 1552 H 154.281 -1.67332 -1.1756 0
M  V30 1553 H 152.436 -1.33696 -3.63599 0
M  V30 1554 H 152.85 -3.53802 -3.872 0
M  V30 1555 H 154.324 -2.27781 -5.02812 0
M  V30 1556 H 154.801 -0.731608 -4.33064 0
M  V30 1557 H 155.407 -2.24238 -3.61382 0
M  V30 1558 N 153.722 1.14298 -1.08507 0
M  V30 1559 C 154.632 2.23027 -0.727753 0
M  V30 1560 C 155.648 1.71952 0.26619 0
M  V30 1561 O 156.824 2.011 0.109882 0
M  V30 1562 C 153.889 3.46403 -0.143541 0
M  V30 1563 C 152.95 4.12413 -1.19223 0
M  V30 1564 C 152.183 5.29899 -0.635798 0
M  V30 1565 O 152.406 5.67796 0.544393 0
M  V30 1566 O 151.34 5.85717 -1.38634 0
M  V30 1567 H 155.166 2.55945 -1.63481 0
M  V30 1568 H 152.751 1.22248 -0.858817 0
M  V30 1569 H 154.633 4.21018 0.179404 0
M  V30 1570 H 153.308 3.15206 0.736659 0
M  V30 1571 H 152.215 3.39667 -1.56772 0
M  V30 1572 H 153.548 4.47718 -2.04474 0
M  V30 1573 N 155.201 0.870884 1.31352 0
M  V30 1574 C 156.617 0.562932 1.49343 0
M  V30 1575 C 156.817 -0.902725 1.80148 0
M  V30 1576 O 155.873 -1.68484 1.88067 0
M  V30 1577 C 157.186 1.46393 2.62659 0
M  V30 1578 C 158.734 1.46607 2.76542 0
M  V30 1579 C 159.209 2.35266 3.92955 0
M  V30 1580 N 160.7 2.33151 4.00243 0
M  V30 1581 C 161.435 2.98471 4.89594 0
M  V30 1582 N 160.931 3.72964 5.8384 0
M  V30 1583 N 162.724 2.87775 4.82848 0
M  V30 1584 H 154.875 1.81923 1.09626 0
M  V30 1585 H 157.138 0.777934 0.541777 0
M  V30 1586 H 156.844 2.50689 2.46674 0
M  V30 1587 H 156.718 1.16314 3.58819 0
M  V30 1588 H 159.105 0.43069 2.9194 0
M  V30 1589 H 159.186 1.8071 1.81046 0
M  V30 1590 H 158.83 3.38881 3.78315 0
M  V30 1591 H 158.76 1.98487 4.87761 0
M  V30 1592 H 161.251 1.79006 3.32814 0
M  V30 1593 H 161.564 4.19932 6.4875 0
M  V30 1594 H 159.909 3.77073 5.83816 0
M  V30 1595 H 163.1 2.29116 4.08195 0
M  V30 1596 H 163.273 3.38961 5.52277 0
M  V30 1597 N 156.679 -1.44442 0.630414 0
M  V30 1598 C 157.909 -2.06115 0.141465 0
M  V30 1599 C 158.317 -1.47179 -1.1889 0
M  V30 1600 O 157.66 -0.588873 -1.74006 0
M  V30 1601 C 157.722 -3.59467 -0.0484355 0
M  V30 1602 C 157.386 -4.40864 1.20366 0
M  V30 1603 C 158.383 -4.74391 2.12719 0
M  V30 1604 C 156.068 -4.8125 1.43887 0
M  V30 1605 C 158.062 -5.47186 3.26904 0
M  V30 1606 C 155.749 -5.53795 2.5837 0
M  V30 1607 C 156.747 -5.86682 3.49705 0
M  V30 1608 O 156.435 -6.57749 4.62191 0
M  V30 1609 H 156.167 -0.671648 0.0765792 0
M  V30 1610 H 158.721 -1.86312 0.864695 0
M  V30 1611 H 156.951 -3.77758 -0.826803 0
M  V30 1612 H 158.64 -4.02909 -0.491849 0
M  V30 1613 H 159.406 -4.43728 1.95781 0
M  V30 1614 H 155.285 -4.55073 0.736853 0
M  V30 1615 H 158.829 -5.72773 3.98217 0
M  V30 1616 H 154.726 -5.83872 2.75251 0
M  V30 1617 H 155.494 -6.76217 4.61164 0
M  V30 1618 N 158.157 -0.370918 -1.53173 0
M  V30 1619 C 159.382 0.220293 -2.06227 0
M  V30 1620 C 159.807 1.41243 -1.24225 0
M  V30 1621 O 159.165 1.79387 -0.262645 0
M  V30 1622 C 159.213 0.586663 -3.55796 0
M  V30 1623 O 158.317 1.68317 -3.76488 0
M  V30 1624 H 157.658 0.0308099 -0.663285 0
M  V30 1625 H 160.188 -0.533068 -1.97534 0
M  V30 1626 H 160.198 0.85617 -3.98916 0
M  V30 1627 H 158.873 -0.285013 -4.14922 0
M  V30 1628 H 157.45 1.40881 -3.45264 0
M  V30 1629 N 159.635 1.57281 -0.100228 0
M  V30 1630 C 160.881 1.95626 0.556946 0
M  V30 1631 C 161.236 0.981655 1.65473 0
M  V30 1632 O 160.529 0.00849847 1.91598 0
M  V30 1633 C 160.723 3.38305 1.15259 0
M  V30 1634 C 160.552 4.49555 0.114035 0
M  V30 1635 C 159.322 5.0434 -0.311266 0
M  V30 1636 C 161.52 5.10051 -0.659768 0
M  V30 1637 N 159.502 5.99152 -1.33755 0
M  V30 1638 C 160.873 6.00628 -1.53774 0
M  V30 1639 C 162.928 4.92772 -0.712723 0
M  V30 1640 C 161.631 6.7578 -2.46403 0
M  V30 1641 C 163.657 5.6859 -1.62663 0
M  V30 1642 C 163.019 6.58838 -2.49222 0
M  V30 1643 H 159.118 0.7624 0.173982 0
M  V30 1644 H 161.702 1.93829 -0.183988 0
M  V30 1645 H 159.873 3.40786 1.86332 0
M  V30 1646 H 161.605 3.63817 1.77254 0
M  V30 1647 H 158.36 4.73537 0.0774812 0
M  V30 1648 H 158.784 6.5126 -1.84905 0
M  V30 1649 H 163.426 4.22761 -0.0576648 0
M  V30 1650 H 161.144 7.4505 -3.12931 0
M  V30 1651 H 164.73 5.57233 -1.67281 0
M  V30 1652 H 163.61 7.16479 -3.18791 0
M  V30 1653 N 161.113 -0.173488 1.56642 0
M  V30 1654 C 162.045 -1.23935 1.92802 0
M  V30 1655 C 163.058 -1.40589 0.820889 0
M  V30 1656 O 164.247 -1.40631 1.09933 0
M  V30 1657 C 161.347 -2.60837 2.16373 0
M  V30 1658 C 160.52 -2.6551 3.47596 0
M  V30 1659 C 159.579 -3.8376 3.60021 0
M  V30 1660 O 158.605 -3.69859 4.32658 0
M  V30 1661 N 159.807 -5.00127 2.94709 0
M  V30 1662 H 162.572 -0.932236 2.84832 0
M  V30 1663 H 160.133 -0.363268 1.57772 0
M  V30 1664 H 162.125 -3.38407 2.21952 0
M  V30 1665 H 160.695 -2.83948 1.30738 0
M  V30 1666 H 159.915 -1.74052 3.53694 0
M  V30 1667 H 161.203 -2.65641 4.33949 0
M  V30 1668 H 160.601 -5.14322 2.35563 0
M  V30 1669 H 159.158 -5.75567 3.05886 0
M  V30 1670 N 162.591 -1.51276 -0.441967 0
M  V30 1671 C 163.831 -1.65372 -1.20132 0
M  V30 1672 C 164.195 -0.359871 -1.88597 0
M  V30 1673 O 165.396 -0.376551 -2.66149 0
M  V30 1674 C 163.667 -2.8207 -2.1948 0
M  V30 1675 S 165.226 -3.16467 -3.03964 0
M  V30 1676 H 162.044 -0.582669 -0.407453 0
M  V30 1677 H 164.646 -1.89166 -0.493609 0
M  V30 1678 H 163.35 -3.74523 -1.67812 0
M  V30 1679 H 162.881 -2.6045 -2.94838 0
M  V30 1680 H 164.896 -2.62543 -4.21053 0
M  V30 1681 N 164.069 0.697108 -1.41344 0
M  V30 1682 C 165.315 1.4593 -1.40827 0
M  V30 1683 C 165.648 1.94193 -0.0167098 0
M  V30 1684 O 164.923 1.69425 0.955263 0
M  V30 1685 C 165.206 2.67229 -2.41373 0
M  V30 1686 C 165.059 2.24741 -3.8963 0
M  V30 1687 C 166.378 3.69423 -2.39196 0
M  V30 1688 H 163.497 0.529303 -0.512842 0
M  V30 1689 H 166.139 0.794112 -1.72609 0
M  V30 1690 H 164.289 3.23982 -2.14401 0
M  V30 1691 H 165.961 1.73327 -4.27499 0
M  V30 1692 H 164.204 1.56542 -4.0457 0
M  V30 1693 H 164.875 3.1177 -4.55525 0
M  V30 1694 H 167.351 3.2234 -2.63128 0
M  V30 1695 H 166.227 4.51907 -3.11563 0
M  V30 1696 H 166.488 4.19012 -1.41001 0
M  V30 1697 N 165.547 1.27147 0.931209 0
M  V30 1698 C 166.495 1.09398 2.05268 0
M  V30 1699 C 167.489 0.0180591 1.6939 0
M  V30 1700 O 168.695 0.17551 1.79142 0
M  V30 1701 H 165.07 0.336986 0.672268 0
M  V30 1702 H 167.041 2.04416 2.17386 0
M  V30 1703 C 165.79 0.75424 3.39421 0
M  V30 1704 H 165.113 1.57404 3.67511 0
M  V30 1705 H 166.553 0.669903 4.18674 0
M  V30 1706 C 165.012 -0.541197 3.32525 0
M  V30 1707 O 165.542 -1.57664 3.69466 0
M  V30 1708 N 163.748 -0.535517 2.85623 0
M  V30 1709 H 163.295 0.307511 2.55758 0
M  V30 1710 H 163.253 -1.40236 2.81392 0
M  V30 1711 N 167.025 -1.13721 1.09112 0
M  V30 1712 C 167.957 -2.1871 0.685467 0
M  V30 1713 C 168.97 -1.60527 -0.271068 0
M  V30 1714 O 170.159 -1.78407 -0.0576148 0
M  V30 1715 C 167.259 -3.38898 -0.0111255 0
M  V30 1716 C 166.432 -4.26597 0.966131 0
M  V30 1717 C 165.491 -5.25324 0.303539 0
M  V30 1718 O 164.517 -5.61213 0.950177 0
M  V30 1719 N 165.719 -5.72779 -0.943651 0
M  V30 1720 H 168.484 -2.54126 1.58871 0
M  V30 1721 H 166.045 -1.29012 0.978143 0
M  V30 1722 H 168.037 -4.02014 -0.465517 0
M  V30 1723 H 166.607 -3.01747 -0.816565 0
M  V30 1724 H 165.827 -3.60306 1.59917 0
M  V30 1725 H 167.115 -4.82048 1.6281 0
M  V30 1726 H 166.513 -5.45762 -1.48862 0
M  V30 1727 H 165.07 -6.37847 -1.34142 0
M  V30 1728 N 168.503 -0.877838 -1.30888 0
M  V30 1729 C 169.728 -0.506629 -2.01117 0
M  V30 1730 C 170.153 0.895564 -1.65412 0
M  V30 1731 O 169.511 1.5923 -0.866922 0
M  V30 1732 C 169.559 -0.680223 -3.54126 0
M  V30 1733 O 168.663 0.277033 -4.11468 0
M  V30 1734 H 168.004 -0.200518 -0.633 0
M  V30 1735 H 170.534 -1.18342 -1.66902 0
M  V30 1736 H 170.544 -0.5765 -4.03907 0
M  V30 1737 H 169.219 -1.70261 -3.79452 0
M  V30 1738 H 167.796 0.127606 -3.72682 0
M  V30 1739 N 169.982 1.44106 -0.638065 0
M  V30 1740 C 171.228 2.02277 -0.145546 0
M  V30 1741 C 171.561 1.50125 1.23191 0
M  V30 1742 O 170.836 0.688133 1.8192 0
M  V30 1743 C 171.119 3.59829 -0.139791 0
M  V30 1744 C 170.972 4.22247 -1.55008 0
M  V30 1745 C 172.291 4.36873 0.531966 0
M  V30 1746 H 169.41 0.734992 -0.0543632 0
M  V30 1747 H 172.052 1.71592 -0.815863 0
M  V30 1748 H 170.202 3.86102 0.431007 0
M  V30 1749 H 171.874 4.07057 -2.1703 0
M  V30 1750 H 170.117 3.79476 -2.10191 0
M  V30 1751 H 170.788 5.31284 -1.49804 0
M  V30 1752 H 173.264 4.16074 0.0464781 0
M  V30 1753 H 172.14 5.4657 0.505206 0
M  V30 1754 H 172.401 4.11995 1.60352 0
M  V30 1755 N 171.46 0.379036 1.52974 0
M  V30 1756 C 172.39 -0.452706 2.29069 0
M  V30 1757 C 173.371 -1.07237 1.32039 0
M  V30 1758 O 174.556 -1.08708 1.60923 0
M  V30 1759 C 171.686 -1.5856 3.08992 0
M  V30 1760 C 170.64 -1.0925 4.13822 0
M  V30 1761 C 169.966 -2.31668 4.81907 0
M  V30 1762 C 171.266 -0.167702 5.22031 0
M  V30 1763 H 172.96 0.182181 2.98845 0
M  V30 1764 H 170.506 0.0890592 1.43724 0
M  V30 1765 H 172.459 -2.1742 3.6098 0
M  V30 1766 H 171.183 -2.24792 2.36931 0
M  V30 1767 H 169.842 -0.526494 3.628 0
M  V30 1768 H 169.49 -2.96386 4.06404 0
M  V30 1769 H 169.19 -1.9934 5.52754 0
M  V30 1770 H 170.714 -2.91189 5.36695 0
M  V30 1771 H 172.128 -0.664186 5.6944 0
M  V30 1772 H 170.525 0.0653265 6.00064 0
M  V30 1773 H 171.595 0.786347 4.78482 0
M  V30 1774 N 172.938 -1.57226 0.108567 0
M  V30 1775 C 174.178 -1.96717 -0.555155 0
M  V30 1776 C 174.542 -0.990003 -1.64508 0
M  V30 1777 O 175.743 -1.2739 -2.36696 0
M  V30 1778 C 174.014 -3.40575 -1.08367 0
M  V30 1779 S 175.573 -4.02072 -1.75737 0
M  V30 1780 H 172.391 -0.687638 -0.180762 0
M  V30 1781 H 174.993 -1.94563 0.191172 0
M  V30 1782 H 173.697 -4.0945 -0.279092 0
M  V30 1783 H 173.228 -3.46356 -1.86551 0
M  V30 1784 H 175.243 -3.91977 -3.04251 0
M  V30 1785 N 174.416 0.165178 -1.56732 0
M  V30 1786 C 175.664 0.879068 -1.8198 0
M  V30 1787 C 175.985 1.82514 -0.686561 0
M  V30 1788 O 175.255 1.93694 0.293146 0
M  V30 1789 H 173.835 0.327608 -0.671329 0
M  V30 1790 H 176.497 0.163526 -1.94213 0
M  V30 1791 H 175.593 1.45228 -2.76252 0
M  V30 1792 N 175.894 1.51508 0.433938 0
M  V30 1793 C 177.305 1.56784 1.01369 0
M  V30 1794 C 177.656 0.393349 1.92217 0
M  V30 1795 O 176.781 -0.489441 2.10792 0
M  V30 1796 C 177.376 2.84144 1.8452 0
M  V30 1797 C 175.935 2.9198 2.37539 0
M  V30 1798 C 175.082 2.51482 1.16843 0
M  V30 1799 H 178.033 1.57236 0.215081 0
M  V30 1800 H 178.054 2.68098 2.70007 0
M  V30 1801 H 177.566 3.69607 1.18373 0
M  V30 1802 H 175.667 2.10955 3.0713 0
M  V30 1803 H 175.78 3.95704 2.70103 0
M  V30 1804 H 174.144 2.04758 1.51481 0
M  V30 1805 H 174.927 3.39293 0.523015 0
M  V30 1806 N 177.372 -0.689602 1.41712 0
M  V30 1807 C 178.335 -1.78521 1.43746 0
M  V30 1808 C 179.335 -1.57436 0.327191 0
M  V30 1809 O 180.525 -1.64 0.587348 0
M  V30 1810 C 177.657 -3.16971 1.25467 0
M  V30 1811 H 178.85 -1.78108 2.41283 0
M  V30 1812 H 176.403 -0.89781 1.27942 0
M  V30 1813 H 177.138 -3.23019 0.287948 0
M  V30 1814 H 176.923 -3.33678 2.05917 0
M  V30 1815 H 178.413 -3.96935 1.2974 0
M  V30 1816 N 178.85 -1.27639 -0.924453 0
M  V30 1817 C 179.76 -1.12466 -2.05885 0
M  V30 1818 C 180.776 -0.053869 -1.73917 0
M  V30 1819 O 181.952 -0.261012 -1.99702 0
M  V30 1820 C 179.017 -0.776768 -3.37886 0
M  V30 1821 C 178.078 -1.92878 -3.83532 0
M  V30 1822 C 177.311 -1.59739 -5.09234 0
M  V30 1823 O 177.534 -0.506782 -5.68144 0
M  V30 1824 O 176.468 -2.43761 -5.50331 0
M  V30 1825 H 180.294 -2.07671 -2.21599 0
M  V30 1826 H 177.879 -1.06857 -1.04413 0
M  V30 1827 H 179.761 -0.596229 -4.17161 0
M  V30 1828 H 178.436 0.145732 -3.23372 0
M  V30 1829 H 177.343 -2.1644 -3.0513 0
M  V30 1830 H 178.676 -2.8316 -4.02593 0
M  V30 1831 N 180.328 1.1314 -1.09713 0
M  V30 1832 C 181.276 2.20717 -0.733934 0
M  V30 1833 C 182.27 1.6729 0.266506 0
M  V30 1834 O 183.476 1.79547 0.127656 0
M  V30 1835 H 179.851 0.719292 -0.21937 0
M  V30 1836 H 181.822 2.48611 -1.6503 0
M  V30 1837 C 180.571 3.47265 -0.173849 0
M  V30 1838 H 179.894 3.88716 -0.934873 0
M  V30 1839 H 181.334 4.23979 0.0423126 0
M  V30 1840 C 179.793 3.18724 1.09164 0
M  V30 1841 O 180.323 3.37762 2.17439 0
M  V30 1842 N 178.529 2.72583 1.00732 0
M  V30 1843 H 178.076 2.57291 0.126121 0
M  V30 1844 H 178.034 2.53862 1.85476 0
M  V30 1845 N 181.806 0.884767 1.30421 0
M  V30 1846 C 182.753 0.349642 2.28136 0
M  V30 1847 C 183.723 -0.560061 1.56373 0
M  V30 1848 O 184.908 -0.488524 1.8444 0
M  V30 1849 C 182.048 -0.42999 3.42411 0
M  V30 1850 C 181.161 0.508907 4.28992 0
M  V30 1851 C 180.296 -0.286301 5.30428 0
M  V30 1852 C 179.335 0.648079 6.08659 0
M  V30 1853 N 178.472 -0.111792 7.02011 0
M  V30 1854 H 183.312 1.18807 2.73293 0
M  V30 1855 H 180.849 0.597231 1.3443 0
M  V30 1856 H 182.807 -0.897923 4.07423 0
M  V30 1857 H 181.437 -1.23299 2.98324 0
M  V30 1858 H 180.489 1.09533 3.64289 0
M  V30 1859 H 181.801 1.22475 4.8353 0
M  V30 1860 H 180.955 -0.816098 6.01186 0
M  V30 1861 H 179.694 -1.03536 4.76583 0
M  V30 1862 H 178.699 1.18951 5.36778 0
M  V30 1863 H 179.924 1.39623 6.64592 0
M  V30 1864 H 177.87 -0.843395 6.50556 0
M  V30 1865 H 177.787 0.544429 7.54037 0
M  V30 1866 H 179.055 -0.622339 7.77012 0
M  V30 1867 N 183.284 -1.43765 0.645699 0
M  V30 1868 C 184.524 -2.03776 0.159542 0
M  V30 1869 C 184.888 -1.49792 -1.2011 0
M  V30 1870 O 186.089 -2.01398 -1.78023 0
M  V30 1871 C 184.36 -3.57036 0.161251 0
M  V30 1872 S 185.919 -4.3804 -0.258159 0
M  V30 1873 H 182.737 -0.707717 0.0682454 0
M  V30 1874 H 185.339 -1.75941 0.852352 0
M  V30 1875 H 184.043 -3.9383 1.15439 0
M  V30 1876 H 183.574 -3.89503 -0.552339 0
M  V30 1877 H 185.589 -4.7302 -1.49889 0
M  V30 1878 N 184.763 -0.387143 -1.52771 0
M  V30 1879 C 185.695 0.484089 -2.2403 0
M  V30 1880 C 186.708 1.02849 -1.26198 0
M  V30 1881 O 187.897 0.931186 -1.52286 0
M  V30 1882 C 184.997 1.68337 -2.94136 0
M  V30 1883 C 184.17 1.26672 -4.18656 0
M  V30 1884 C 183.229 2.33045 -4.7178 0
M  V30 1885 O 182.255 1.94541 -5.34923 0
M  V30 1886 N 183.457 3.64929 -4.5145 0
M  V30 1887 H 186.222 -0.126404 -2.99433 0
M  V30 1888 H 183.783 -0.213392 -1.60488 0
M  V30 1889 H 185.775 2.39019 -3.26577 0
M  V30 1890 H 184.345 2.20025 -2.22053 0
M  V30 1891 H 183.565 0.388878 -3.92277 0
M  V30 1892 H 184.853 0.964964 -4.99566 0
M  V30 1893 H 184.251 3.98974 -4.01044 0
M  V30 1894 H 182.808 4.31651 -4.88386 0
M  V30 1895 N 186.241 1.57166 -0.116904 0
M  V30 1896 C 187.151 2.18745 0.847812 0
M  V30 1897 C 188.167 1.163 1.29423 0
M  V30 1898 O 189.343 1.48761 1.35765 0
M  V30 1899 C 186.408 2.77307 2.0809 0
M  V30 1900 C 185.469 3.94781 1.68661 0
M  V30 1901 C 184.702 4.50541 2.86091 0
M  V30 1902 O 184.925 4.05202 4.01456 0
M  V30 1903 O 183.859 5.41256 2.63298 0
M  V30 1904 H 187.685 3.01632 0.353778 0
M  V30 1905 H 185.27 1.49005 0.108599 0
M  V30 1906 H 187.152 3.14647 2.80313 0
M  V30 1907 H 185.827 1.97452 2.56504 0
M  V30 1908 H 184.734 3.62214 0.935518 0
M  V30 1909 H 186.067 4.76065 1.24991 0
M  V30 1910 N 187.719 -0.156864 1.56817 0
M  V30 1911 C 188.649 -1.19589 2.00551 0
M  V30 1912 C 189.63 -1.4536 0.883426 0
M  V30 1913 O 190.815 -1.56449 1.15054 0
M  V30 1914 C 187.945 -2.53143 2.37773 0
M  V30 1915 C 186.899 -2.41913 3.53075 0
M  V30 1916 C 186.225 -3.80088 3.76081 0
M  V30 1917 C 187.525 -1.91157 4.86062 0
M  V30 1918 H 189.219 -0.832293 2.87599 0
M  V30 1919 H 186.765 -0.398918 1.38364 0
M  V30 1920 H 188.718 -3.26047 2.66967 0
M  V30 1921 H 187.442 -2.91319 1.4765 0
M  V30 1922 H 186.101 -1.71462 3.24031 0
M  V30 1923 H 185.749 -4.15683 2.83225 0
M  V30 1924 H 185.449 -3.73439 4.53671 0
M  V30 1925 H 186.973 -4.54556 4.0769 0
M  V30 1926 H 188.387 -2.53846 5.14038 0
M  V30 1927 H 186.784 -1.95422 5.67389 0
M  V30 1928 H 187.854 -0.866673 4.77092 0
M  V30 1929 N 189.197 -1.51736 -0.425897 0
M  V30 1930 C 190.127 -1.76827 -1.52494 0
M  V30 1931 C 191.108 -0.618524 -1.58456 0
M  V30 1932 O 192.293 -0.862416 -1.74 0
M  V30 1933 C 189.423 -1.90374 -2.90474 0
M  V30 1934 C 188.377 -3.0588 -2.99369 0
M  V30 1935 C 187.703 -3.04625 -4.3944 0
M  V30 1936 C 189.003 -4.45644 -2.72394 0
M  V30 1937 H 190.697 -2.68855 -1.31748 0
M  V30 1938 H 188.243 -1.29372 -0.632362 0
M  V30 1939 H 190.196 -2.0651 -3.6733 0
M  V30 1940 H 188.92 -0.95004 -3.12477 0
M  V30 1941 H 187.579 -2.89467 -2.24954 0
M  V30 1942 H 187.227 -2.0701 -4.58428 0
M  V30 1943 H 186.927 -3.82195 -4.46319 0
M  V30 1944 H 188.451 -3.22869 -5.18255 0
M  V30 1945 H 189.865 -4.62348 -3.38979 0
M  V30 1946 H 188.262 -5.25006 -2.9067 0
M  V30 1947 H 189.332 -4.54893 -1.67929 0
M  V30 1948 N 190.675 0.682077 -1.42076 0
M  V30 1949 C 191.915 1.45424 -1.43636 0
M  V30 1950 C 192.279 1.91939 -0.0484001 0
M  V30 1951 O 193.48 2.6873 0.0612514 0
M  V30 1952 C 191.751 2.62427 -2.42625 0
M  V30 1953 S 193.31 3.51379 -2.62827 0
M  V30 1954 H 190.128 0.496779 -0.508657 0
M  V30 1955 H 192.73 0.794645 -1.78621 0
M  V30 1956 H 191.434 2.26481 -3.42249 0
M  V30 1957 H 190.965 3.33266 -2.09039 0
M  V30 1958 H 192.98 4.58141 -1.9058 0
M  V30 1959 N 192.153 1.28127 0.917671 0
M  V30 1960 C 193.1 1.11717 2.0196 0
M  V30 1961 C 194.07 0.0153929 1.66093 0
M  V30 1962 O 195.255 0.179596 1.89953 0
M  V30 1963 C 192.395 0.780927 3.36148 0
M  V30 1964 C 191.508 1.96135 3.84909 0
M  V30 1965 C 190.643 1.56609 5.0759 0
M  V30 1966 C 189.682 2.71339 5.48673 0
M  V30 1967 N 188.819 2.32332 6.62545 0
M  V30 1968 H 193.659 2.06003 2.15329 0
M  V30 1969 H 191.196 1.02535 1.05475 0
M  V30 1970 H 193.154 0.56675 4.13333 0
M  V30 1971 H 191.784 -0.124998 3.22558 0
M  V30 1972 H 190.836 2.28777 3.03916 0
M  V30 1973 H 192.148 2.82165 4.1132 0
M  V30 1974 H 191.302 1.31374 5.92305 0
M  V30 1975 H 190.041 0.677014 4.82978 0
M  V30 1976 H 189.046 2.97276 4.62501 0
M  V30 1977 H 190.271 3.60882 5.75274 0
M  V30 1978 H 188.217 1.45889 6.39572 0
M  V30 1979 H 188.134 3.11899 6.88662 0
M  V30 1980 H 189.402 2.10371 7.50576 0
M  V30 1981 N 193.631 -1.12557 1.10312 0
M  V30 1982 C 194.871 -1.8568 0.854543 0
M  V30 1983 C 195.235 -1.82091 -0.608843 0
M  V30 1984 O 196.436 -2.50544 -0.973717 0
M  V30 1985 C 194.707 -3.2942 1.38626 0
M  V30 1986 S 196.266 -4.19931 1.27293 0
M  V30 1987 H 193.084 -0.640427 0.308827 0
M  V30 1988 H 195.686 -1.35599 1.40831 0
M  V30 1989 H 194.39 -3.2959 2.44537 0
M  V30 1990 H 193.921 -3.84566 0.82902 0
M  V30 1991 H 195.936 -4.95668 0.229776 0
M  V30 1992 N 195.109 -0.891671 -1.2995 0
M  V30 1993 C 196.386 -0.433307 -1.9074 0
M  V30 1994 C 196.766 1.08646 -1.80995 0
M  V30 1995 O 196.114 1.92476 -1.23147 0
M  V30 1996 C 196.324 -0.938895 -3.36134 0
M  V30 1997 C 197.672 -0.977829 -4.13187 0
M  V30 1998 O 198.696 -0.886015 -3.45005 0
M  V30 1999 O 197.555 -1.11453 -5.35015 0
M  V30 2000 H 194.649 -0.133699 -0.816121 0
M  V30 2001 H 197.195 -0.981011 -1.38471 0
M  V30 2002 H 195.967 -1.98281 -3.37343 0
M  V30 2003 H 195.59 -0.37074 -3.95868 0
M  V30 2004 N 196.587 1.43421 -0.653314 0
M  V30 2005 C 197.519 2.29071 0.0769134 0
M  V30 2006 C 198.532 1.42513 0.787017 0
M  V30 2007 O 199.721 1.66449 0.644757 0
M  V30 2008 C 196.821 3.19436 1.13199 0
M  V30 2009 C 195.994 4.34533 0.500006 0
M  V30 2010 C 195.053 5.05771 1.45198 0
M  V30 2011 O 194.079 5.61037 0.960538 0
M  V30 2012 N 195.281 5.0928 2.78594 0
M  V30 2013 H 198.046 2.92382 -0.658235 0
M  V30 2014 H 195.607 1.54112 -0.496104 0
M  V30 2015 H 197.599 3.63958 1.76964 0
M  V30 2016 H 196.169 2.57724 1.7691 0
M  V30 2017 H 195.389 3.92925 -0.316738 0
M  V30 2018 H 196.677 5.08766 0.0588345 0
M  V30 2019 H 196.075 4.65751 3.2108 0
M  V30 2020 H 194.632 5.57519 3.37662 0
M  V30 2021 N 198.065 0.39524 1.52563 0
M  V30 2022 C 198.975 -0.444232 2.30356 0
M  V30 2023 C 199.991 -1.06615 1.37511 0
M  V30 2024 O 201.167 -1.07067 1.70583 0
M  V30 2025 C 198.232 -1.55315 3.09964 0
M  V30 2026 C 197.293 -0.955734 4.18526 0
M  V30 2027 C 196.526 -2.01181 4.9433 0
M  V30 2028 O 196.749 -3.22781 4.70285 0
M  V30 2029 O 195.683 -1.62579 5.79527 0
M  V30 2030 H 199.509 0.189667 3.03107 0
M  V30 2031 H 197.094 0.1588 1.48554 0
M  V30 2032 H 198.976 -2.19724 3.59582 0
M  V30 2033 H 197.651 -2.17191 2.4002 0
M  V30 2034 H 196.558 -0.274743 3.7309 0
M  V30 2035 H 197.891 -0.381109 4.90722 0
M  V30 2036 N 199.544 -1.57102 0.125237 0
M  V30 2037 C 200.793 -1.94582 -0.531095 0
M  V30 2038 C 201.106 -1.01126 -1.6743 0
M  V30 2039 O 202.312 -1.28097 -2.39381 0
M  V30 2040 C 200.768 -3.45839 -0.996164 0
M  V30 2041 C 200.376 -4.47842 0.118926 0
M  V30 2042 C 202.12 -3.92227 -1.62352 0
M  V30 2043 C 200.027 -5.90284 -0.363192 0
M  V30 2044 H 198.957 -0.726391 -0.20217 0
M  V30 2045 H 201.608 -1.82339 0.206092 0
M  V30 2046 H 199.99 -3.53338 -1.78796 0
M  V30 2047 H 201.164 -4.52018 0.895358 0
M  V30 2048 H 199.479 -4.11243 0.653324 0
M  V30 2049 H 202.076 -4.96069 -1.99548 0
M  V30 2050 H 202.419 -3.32552 -2.50429 0
M  V30 2051 H 202.952 -3.87554 -0.897019 0
M  V30 2052 H 199.691 -6.53728 0.481679 0
M  V30 2053 H 199.211 -5.89515 -1.10597 0
M  V30 2054 H 200.89 -6.41752 -0.822377 0
M  V30 2055 N 201.022 0.148545 -1.56898 0
M  V30 2056 C 201.985 1.16736 -1.97244 0
M  V30 2057 C 202.985 1.35947 -0.858777 0
M  V30 2058 O 204.175 1.32966 -1.12542 0
M  V30 2059 C 201.307 2.52798 -2.28705 0
M  V30 2060 H 202.5 0.821279 -2.88435 0
M  V30 2061 H 200.053 0.391831 -1.51309 0
M  V30 2062 H 200.788 2.92381 -1.403 0
M  V30 2063 H 200.573 2.40216 -3.09901 0
M  V30 2064 H 202.063 3.26179 -2.60762 0
M  V30 2065 N 202.5 1.5196 0.417844 0
M  V30 2066 C 203.448 1.75278 1.52907 0
M  V30 2067 C 204.442 0.619611 1.57662 0
M  V30 2068 O 205.648 0.801457 1.61173 0
M  V30 2069 H 202.023 0.554141 0.508362 0
M  V30 2070 H 203.994 2.68389 1.30422 0
M  V30 2071 C 202.743 1.91262 2.90369 0
M  V30 2072 H 202.066 2.77872 2.8745 0
M  V30 2073 H 203.506 2.11581 3.67436 0
M  V30 2074 C 201.965 0.677431 3.30019 0
M  V30 2075 O 202.495 -0.158799 4.01386 0
M  V30 2076 N 200.701 0.515851 2.85985 0
M  V30 2077 H 200.248 1.19744 2.28077 0
M  V30 2078 H 200.206 -0.309315 3.12875 0
M  V30 2079 N 203.978 -0.674533 1.42435 0
M  V30 2080 C 205.218 -1.4466 1.44405 0
M  V30 2081 C 205.582 -1.91911 0.0585784 0
M  V30 2082 O 206.783 -2.68759 -0.0469991 0
M  V30 2083 C 205.054 -2.61136 2.44013 0
M  V30 2084 S 206.613 -3.49981 2.64687 0
M  V30 2085 H 203.431 -0.494074 0.511284 0
M  V30 2086 H 206.033 -0.785162 1.7904 0
M  V30 2087 H 204.737 -2.24662 3.43446 0
M  V30 2088 H 204.268 -3.32153 2.10803 0
M  V30 2089 H 206.283 -4.57124 1.93007 0
M  V30 2090 N 205.456 -1.28612 -0.910864 0
M  V30 2091 C 206.386 -1.15326 -2.03032 0
M  V30 2092 C 207.367 -0.0502924 -1.70026 0
M  V30 2093 O 208.552 -0.227797 -1.92859 0
M  V30 2094 C 205.682 -0.817343 -3.37545 0
M  V30 2095 C 204.636 -1.8754 -3.84724 0
M  V30 2096 C 203.962 -1.39305 -5.16235 0
M  V30 2097 C 205.262 -3.28244 -4.06267 0
M  V30 2098 H 206.956 -2.08975 -2.14406 0
M  V30 2099 H 204.502 -1.00612 -1.03021 0
M  V30 2100 H 206.455 -0.711151 -4.15356 0
M  V30 2101 H 205.179 0.154846 -3.26233 0
M  V30 2102 H 203.838 -1.97079 -3.09121 0
M  V30 2103 H 203.486 -0.409846 -5.01328 0
M  V30 2104 H 203.186 -2.10057 -5.48771 0
M  V30 2105 H 204.71 -1.30014 -5.96598 0
M  V30 2106 H 206.124 -3.21611 -4.74594 0
M  V30 2107 H 204.521 -3.96855 -4.5014 0
M  V30 2108 H 205.591 -3.72048 -3.10979 0
M  V30 2109 N 206.934 1.1197 -1.10907 0
M  V30 2110 C 207.897 2.16031 -0.765707 0
M  V30 2111 C 208.897 1.59393 0.212235 0
M  V30 2112 O 210.087 1.74196 -0.0115441 0
M  V30 2113 C 207.219 3.40632 -0.135053 0
M  V30 2114 H 208.412 2.47919 -1.68748 0
M  V30 2115 H 205.965 1.27061 -0.910226 0
M  V30 2116 H 206.7 3.14348 0.797218 0
M  V30 2117 H 206.485 3.8302 -0.838937 0
M  V30 2118 H 207.975 4.17505 0.0892469 0
M  V30 2119 N 208.412 0.89855 1.29475 0
M  V30 2120 C 209.344 0.332726 2.26772 0
M  V30 2121 C 210.357 -0.520323 1.54261 0
M  V30 2122 O 211.546 -0.337668 1.75277 0
M  V30 2123 C 208.646 -0.544334 3.345 0
M  V30 2124 C 207.819 0.282728 4.36485 0
M  V30 2125 C 206.878 -0.526982 5.23555 0
M  V30 2126 O 205.904 0.0551165 5.69173 0
M  V30 2127 N 207.106 -1.83331 5.5079 0
M  V30 2128 H 209.871 1.16897 2.75962 0
M  V30 2129 H 207.432 0.762919 1.42798 0
M  V30 2130 H 209.424 -1.09239 3.89678 0
M  V30 2131 H 207.994 -1.28127 2.85136 0
M  V30 2132 H 207.214 1.01221 3.80983 0
M  V30 2133 H 208.502 0.84918 5.01664 0
M  V30 2134 H 207.9 -2.32898 5.15534 0
M  V30 2135 H 206.457 -2.32852 6.08788 0
M  V30 2136 N 209.89 -1.43072 0.660911 0
M  V30 2137 C 211.118 -2.06067 0.185422 0
M  V30 2138 C 211.533 -1.49582 -1.15198 0
M  V30 2139 O 210.89 -0.630134 -1.71276 0
M  V30 2140 C 210.941 -3.61371 0.0966523 0
M  V30 2141 O 210.662 -4.15758 1.38119 0
M  V30 2142 C 212.163 -4.41455 -0.403996 0
M  V30 2143 H 209.383 -0.664459 0.0934604 0
M  V30 2144 H 211.927 -1.83447 0.90373 0
M  V30 2145 H 210.082 -3.8315 -0.572259 0
M  V30 2146 H 210.496 -5.09499 1.24542 0
M  V30 2147 H 211.97 -5.50437 -0.415045 0
M  V30 2148 H 212.447 -4.15036 -1.43674 0
M  V30 2149 H 213.053 -4.24663 0.232691 0
M  V30 2150 N 211.368 -0.403325 -1.52352 0
M  V30 2151 C 212.278 0.432009 -2.30588 0
M  V30 2152 C 213.294 1.05884 -1.38075 0
M  V30 2153 O 214.47 1.06161 -1.71148 0
M  V30 2154 C 211.535 1.53669 -3.10784 0
M  V30 2155 C 210.596 0.933525 -4.19027 0
M  V30 2156 C 209.829 1.98557 -4.9539 0
M  V30 2157 O 210.052 3.20283 -4.71991 0
M  V30 2158 O 208.986 1.59504 -5.80381 0
M  V30 2159 H 212.812 -0.205739 -3.03002 0
M  V30 2160 H 210.397 -0.166675 -1.48467 0
M  V30 2161 H 212.279 2.17814 -3.60742 0
M  V30 2162 H 210.954 2.15915 -2.41169 0
M  V30 2163 H 209.861 0.254954 -3.7323 0
M  V30 2164 H 211.194 0.35508 -4.90918 0
M  V30 2165 N 212.846 1.57033 -0.133567 0
M  V30 2166 C 214.076 1.99754 0.527429 0
M  V30 2167 C 214.484 1.01245 1.59832 0
M  V30 2168 O 213.827 -0.000645496 1.837 0
M  V30 2169 C 213.889 3.38903 1.19939 0
M  V30 2170 C 213.553 4.56174 0.274709 0
M  V30 2171 C 214.55 5.17563 -0.492398 0
M  V30 2172 C 212.235 5.01972 0.18153 0
M  V30 2173 C 214.229 6.2315 -1.34027 0
M  V30 2174 C 211.916 6.07416 -0.669958 0
M  V30 2175 C 212.914 6.67874 -1.42947 0
M  V30 2176 O 212.602 7.71279 -2.2668 0
M  V30 2177 H 212.334 0.660702 0.142999 0
M  V30 2178 H 214.888 2.04207 -0.221099 0
M  V30 2179 H 213.118 3.31248 1.99528 0
M  V30 2180 H 214.807 3.65818 1.75875 0
M  V30 2181 H 215.573 4.83087 -0.430367 0
M  V30 2182 H 211.452 4.54652 0.762422 0
M  V30 2183 H 214.996 6.70268 -1.93357 0
M  V30 2184 H 210.893 6.41321 -0.73333 0
M  V30 2185 H 211.661 7.88441 -2.1978 0
M  V30 2186 N 214.325 -0.140222 1.56975 0
M  V30 2187 C 215.273 -1.19207 1.99731 0
M  V30 2188 C 216.267 -1.44089 0.890777 0
M  V30 2189 O 217.473 -1.44301 1.07597 0
M  V30 2190 H 213.848 -0.40142 0.635898 0
M  V30 2191 H 215.819 -0.804813 2.87342 0
M  V30 2192 C 214.568 -2.51617 2.39967 0
M  V30 2193 H 213.891 -2.33303 3.24669 0
M  V30 2194 H 215.331 -3.23827 2.73701 0
M  V30 2195 C 213.79 -3.12654 1.25496 0
M  V30 2196 O 214.32 -3.97786 0.559371 0
M  V30 2197 N 212.526 -2.72206 1.01746 0
M  V30 2198 H 212.073 -2.03074 1.58489 0
M  V30 2199 H 212.031 -3.13377 0.253461 0
M  V30 2200 N 215.803 -1.52179 -0.40978 0
M  V30 2201 C 216.733 -1.78435 -1.5061 0
M  V30 2202 C 217.714 -0.635295 -1.57791 0
M  V30 2203 O 218.899 -0.880823 -1.73076 0
M  V30 2204 C 216.029 -1.93444 -2.88439 0
M  V30 2205 C 214.983 -3.09038 -2.96108 0
M  V30 2206 C 214.309 -3.09268 -4.36185 0
M  V30 2207 C 215.609 -4.48508 -2.67652 0
M  V30 2208 H 217.303 -2.70237 -1.28889 0
M  V30 2209 H 214.849 -1.30036 -0.618605 0
M  V30 2210 H 216.802 -2.10394 -3.65119 0
M  V30 2211 H 215.526 -0.983129 -3.11452 0
M  V30 2212 H 214.185 -2.91837 -2.21872 0
M  V30 2213 H 213.833 -2.11861 -4.56206 0
M  V30 2214 H 213.533 -3.86907 -4.42241 0
M  V30 2215 H 215.057 -3.28348 -5.14801 0
M  V30 2216 H 216.471 -4.65918 -3.34056 0
M  V30 2217 H 214.868 -5.28059 -2.85085 0
M  V30 2218 H 215.938 -4.56649 -1.63095 0
M  V30 2219 N 217.281 0.66697 -1.42791 0
M  V30 2220 C 218.228 1.7803 -1.4688 0
M  V30 2221 C 219.198 1.6299 -0.319919 0
M  V30 2222 O 220.383 1.83432 -0.525118 0
M  V30 2223 C 217.523 3.1611 -1.38451 0
M  V30 2224 C 216.636 3.42381 -2.63437 0
M  V30 2225 C 215.771 4.70232 -2.47094 0
M  V30 2226 C 214.81 4.89564 -3.67415 0
M  V30 2227 N 213.947 6.08661 -3.49966 0
M  V30 2228 H 218.787 1.7387 -2.42019 0
M  V30 2229 H 216.324 0.84868 -1.20149 0
M  V30 2230 H 218.282 3.95914 -1.31561 0
M  V30 2231 H 216.912 3.19374 -0.469033 0
M  V30 2232 H 215.964 2.56774 -2.80662 0
M  V30 2233 H 217.276 3.52557 -3.52853 0
M  V30 2234 H 216.43 5.5814 -2.37834 0
M  V30 2235 H 215.169 4.62353 -1.5518 0
M  V30 2236 H 214.174 4.00096 -3.77099 0
M  V30 2237 H 215.399 4.99282 -4.6032 0
M  V30 2238 H 213.345 6.0194 -2.60776 0
M  V30 2239 H 213.262 6.19733 -4.32975 0
M  V30 2240 H 214.53 6.99226 -3.44532 0
M  V30 2241 N 218.759 1.29093 0.90403 0
M  V30 2242 C 219.989 1.19516 1.68522 0
M  V30 2243 C 220.397 -0.24738 1.87576 0
M  V30 2244 O 219.74 -1.17798 1.40959 0
M  V30 2245 C 219.802 1.83249 3.0929 0
M  V30 2246 C 219.466 3.32531 3.13484 0
M  V30 2247 C 220.463 4.28821 2.93953 0
M  V30 2248 C 218.148 3.73656 3.35688 0
M  V30 2249 C 220.142 5.64212 2.96553 0
M  V30 2250 C 217.829 5.0917 3.37919 0
M  V30 2251 C 218.827 6.04258 3.18373 0
M  V30 2252 O 218.515 7.37298 3.20385 0
M  V30 2253 H 218.247 0.415467 0.533257 0
M  V30 2254 H 220.801 1.70912 1.13922 0
M  V30 2255 H 219.031 1.26358 3.65473 0
M  V30 2256 H 220.72 1.68054 3.69476 0
M  V30 2257 H 221.486 3.98382 2.76616 0
M  V30 2258 H 217.365 3.00101 3.49943 0
M  V30 2259 H 220.909 6.38407 2.81216 0
M  V30 2260 H 216.806 5.39256 3.54787 0
M  V30 2261 H 217.574 7.46048 3.36681 0
M  V30 2262 N 220.237 -1.11381 1.11499 0
M  V30 2263 C 221.167 -2.19509 0.796125 0
M  V30 2264 C 222.148 -1.68458 -0.235796 0
M  V30 2265 O 223.333 -1.93947 -0.0991344 0
M  V30 2266 C 220.463 -3.46475 0.239205 0
M  V30 2267 C 219.417 -4.10744 1.20307 0
M  V30 2268 C 218.743 -5.32293 0.50683 0
M  V30 2269 C 220.043 -4.55597 2.55399 0
M  V30 2270 H 221.737 -2.46439 1.70024 0
M  V30 2271 H 219.283 -1.18446 0.818935 0
M  V30 2272 H 221.236 -4.214 0.00392006 0
M  V30 2273 H 219.96 -3.19006 -0.700206 0
M  V30 2274 H 218.619 -3.37813 1.42399 0
M  V30 2275 H 218.267 -5.01095 -0.437408 0
M  V30 2276 H 217.967 -5.76243 1.1497 0
M  V30 2277 H 219.491 -6.09956 0.280351 0
M  V30 2278 H 220.905 -5.21841 2.37391 0
M  V30 2279 H 219.302 -5.10363 3.15673 0
M  V30 2280 H 220.372 -3.69013 3.14575 0
M  V30 2281 N 221.715 -0.905404 -1.28997 0
M  V30 2282 C 222.962 -0.534248 -1.95325 0
M  V30 2283 C 223.29 0.920535 -1.71337 0
M  V30 2284 O 222.545 1.66861 -1.02254 0
M  V30 2285 C 222.844 -0.779906 -3.48787 0
M  V30 2286 C 222.51 -2.21293 -3.92861 0
M  V30 2287 C 221.172 -2.60475 -4.04606 0
M  V30 2288 C 223.524 -3.14587 -4.15553 0
M  V30 2289 C 220.852 -3.9212 -4.36416 0
M  V30 2290 C 223.204 -4.45787 -4.48839 0
M  V30 2291 C 221.868 -4.84834 -4.58794 0
M  V30 2292 H 221.138 -0.195495 -0.714747 0
M  V30 2293 H 223.785 -1.14514 -1.53488 0
M  V30 2294 H 222.09 -0.0861365 -3.91705 0
M  V30 2295 H 223.787 -0.472029 -3.98212 0
M  V30 2296 H 220.377 -1.89887 -3.84241 0
M  V30 2297 H 224.561 -2.85528 -4.0594 0
M  V30 2298 H 219.817 -4.22086 -4.42327 0
M  V30 2299 H 223.991 -5.18098 -4.65346 0
M  V30 2300 H 221.618 -5.86877 -4.83197 0
M  V30 2301 N 223.193 1.4272 -0.668489 0
M  V30 2302 C 224.423 2.05668 -0.196063 0
M  V30 2303 C 224.831 1.5028 1.14946 0
M  V30 2304 O 224.174 0.6348 1.72383 0
M  V30 2305 C 224.236 3.59469 -0.0468879 0
M  V30 2306 C 223.9 4.37518 -1.32012 0
M  V30 2307 C 224.897 4.68584 -2.25222 0
M  V30 2308 C 222.582 4.77266 -1.56596 0
M  V30 2309 C 224.576 5.38326 -3.41297 0
M  V30 2310 C 222.263 5.4675 -2.72962 0
M  V30 2311 C 223.261 5.77204 -3.65137 0
M  V30 2312 O 222.949 6.45264 -4.79468 0
M  V30 2313 H 222.681 0.669382 -0.0943599 0
M  V30 2314 H 225.235 1.83954 -0.913788 0
M  V30 2315 H 223.465 3.79817 0.726357 0
M  V30 2316 H 225.154 4.04071 0.384852 0
M  V30 2317 H 225.92 4.38382 -2.07477 0
M  V30 2318 H 221.799 4.52959 -0.857249 0
M  V30 2319 H 225.343 5.62014 -4.13263 0
M  V30 2320 H 221.24 5.76369 -2.90635 0
M  V30 2321 H 222.008 6.63753 -4.78931 0
M  V30 2322 N 224.671 0.411399 1.52136 0
M  V30 2323 C 226.082 -0.0576826 1.86611 0
M  V30 2324 C 226.433 -1.44238 1.33003 0
M  V30 2325 O 225.558 -2.05759 0.670228 0
M  V30 2326 C 226.153 -0.111448 3.38617 0
M  V30 2327 C 224.712 -0.52487 3.72723 0
M  V30 2328 C 223.859 0.299176 2.75681 0
M  V30 2329 H 226.81 0.628368 1.4573 0
M  V30 2330 H 226.831 -0.926252 3.69054 0
M  V30 2331 H 226.343 0.896488 3.77604 0
M  V30 2332 H 224.444 -1.53936 3.39315 0
M  V30 2333 H 224.557 -0.267681 4.78352 0
M  V30 2334 H 222.921 -0.238814 2.53578 0
M  V30 2335 H 223.704 1.3055 3.17508 0
M  V30 2336 N 226.149 -1.5696 0.141893 0
M  V30 2337 C 227.081 -2.13619 -0.830627 0
M  V30 2338 C 228.094 -1.08439 -1.21428 0
M  V30 2339 O 229.283 -1.35734 -1.15925 0
M  V30 2340 C 226.383 -2.63978 -2.12529 0
M  V30 2341 C 225.556 -3.93504 -1.9098 0
M  V30 2342 C 224.615 -4.29225 -3.04388 0
M  V30 2343 O 223.641 -4.97641 -2.76302 0
M  V30 2344 N 224.843 -3.88393 -4.31429 0
M  V30 2345 H 227.608 -2.97691 -0.34641 0
M  V30 2346 H 225.169 -1.61846 -0.0418375 0
M  V30 2347 H 227.161 -2.84891 -2.87436 0
M  V30 2348 H 225.731 -1.84659 -2.52229 0
M  V30 2349 H 224.951 -3.81269 -1.00139 0
M  V30 2350 H 226.239 -4.78154 -1.73914 0
M  V30 2351 H 225.637 -3.33257 -4.57117 0
M  V30 2352 H 224.194 -4.14368 -5.03133 0
M  V30 2353 N 227.627 0.131896 -1.57047 0
M  V30 2354 C 228.874 0.841932 -1.84168 0
M  V30 2355 C 229.202 1.8048 -0.725066 0
M  V30 2356 O 228.457 1.93618 0.284692 0
M  V30 2357 C 228.756 1.63703 -3.17704 0
M  V30 2358 C 228.422 0.81961 -4.43388 0
M  V30 2359 C 227.084 0.594148 -4.77518 0
M  V30 2360 C 229.436 0.248977 -5.20605 0
M  V30 2361 C 226.764 -0.212409 -5.86315 0
M  V30 2362 C 229.116 -0.544701 -6.30251 0
M  V30 2363 C 227.78 -0.780599 -6.6292 0
M  V30 2364 H 227.05 0.308085 -0.673917 0
M  V30 2365 H 229.697 0.104867 -1.91213 0
M  V30 2366 H 228.002 2.44464 -3.06177 0
M  V30 2367 H 229.699 2.19015 -3.35907 0
M  V30 2368 H 226.289 1.00542 -4.16641 0
M  V30 2369 H 230.473 0.410408 -4.946 0
M  V30 2370 H 225.729 -0.404524 -6.1006 0
M  V30 2371 H 229.903 -0.993922 -6.89271 0
M  V30 2372 H 227.53 -1.40742 -7.47058 0
M  V30 2373 N 229.106 1.52395 0.401703 0
M  V30 2374 C 230.036 1.79231 1.49661 0
M  V30 2375 C 231.017 0.643654 1.57452 0
M  V30 2376 O 232.202 0.889989 1.72606 0
M  V30 2377 C 229.332 1.94971 2.87409 0
M  V30 2378 C 228.286 3.10604 2.94465 0
M  V30 2379 C 227.612 3.11577 4.34538 0
M  V30 2380 C 228.912 4.49921 2.6527 0
M  V30 2381 H 230.606 2.70917 1.27454 0
M  V30 2382 H 228.152 1.30362 0.6117 0
M  V30 2383 H 230.105 2.12328 3.63999 0
M  V30 2384 H 228.829 0.999632 3.10926 0
M  V30 2385 H 227.488 2.93009 2.20321 0
M  V30 2386 H 227.136 2.14277 4.55076 0
M  V30 2387 H 226.836 3.89247 4.40183 0
M  V30 2388 H 228.36 3.31073 5.13053 0
M  V30 2389 H 229.774 4.67683 3.31581 0
M  V30 2390 H 228.171 5.29564 2.82281 0
M  V30 2391 H 229.241 4.57507 1.60671 0
M  V30 2392 N 230.584 -0.659388 1.43143 0
M  V30 2393 C 231.824 -1.43121 1.45931 0
M  V30 2394 C 232.188 -1.91838 0.0789298 0
M  V30 2395 O 233.389 -2.68794 -0.018491 0
M  V30 2396 C 231.66 -2.58534 2.46769 0
M  V30 2397 S 233.219 -3.47154 2.68384 0
M  V30 2398 H 230.037 -0.488624 0.516496 0
M  V30 2399 H 232.639 -0.766128 1.79863 0
M  V30 2400 H 231.343 -2.21007 3.45809 0
M  V30 2401 H 230.874 -3.29898 2.14315 0
M  V30 2402 H 232.889 -4.55051 1.97845 0
M  V30 2403 N 232.062 -1.29571 -0.897171 0
M  V30 2404 C 232.972 -1.16808 -2.03453 0
M  V30 2405 C 233.988 -0.0907471 -1.73763 0
M  V30 2406 O 235.164 -0.303312 -1.99103 0
M  V30 2407 C 232.229 -0.848264 -3.36163 0
M  V30 2408 C 231.29 -2.0097 -3.79354 0
M  V30 2409 C 230.523 -1.70505 -5.05731 0
M  V30 2410 O 230.746 -0.62718 -5.66941 0
M  V30 2411 O 229.68 -2.5538 -5.45036 0
M  V30 2412 H 233.506 -2.12325 -2.17144 0
M  V30 2413 H 231.091 -1.09047 -1.02123 0
M  V30 2414 H 232.973 -0.684581 -4.15802 0
M  V30 2415 H 231.648 0.0771071 -3.23608 0
M  V30 2416 H 230.555 -2.22863 -3.00471 0
M  V30 2417 H 231.888 -2.91636 -3.96496 0
M  V30 2418 N 233.54 1.10788 -1.12088 0
M  V30 2419 C 234.951 1.64181 -0.88891 0
M  V30 2420 C 235.302 1.87508 0.577498 0
M  V30 2421 O 234.427 1.61434 1.44112 0
M  V30 2422 C 235.022 2.98257 -1.60712 0
M  V30 2423 C 233.581 3.4853 -1.42139 0
M  V30 2424 C 232.728 2.23208 -1.6454 0
M  V30 2425 H 235.679 0.943368 -1.27618 0
M  V30 2426 H 235.7 3.65552 -1.05604 0
M  V30 2427 H 235.212 2.81246 -2.67436 0
M  V30 2428 H 233.313 3.70692 -0.376552 0
M  V30 2429 H 233.426 4.26882 -2.17505 0
M  V30 2430 H 231.79 2.31169 -1.06925 0
M  V30 2431 H 232.573 2.08733 -2.72554 0
M  V30 2432 N 235.018 0.912232 1.28515 0
M  V30 2433 C 236.295 0.463597 1.90027 0
M  V30 2434 C 236.675 -1.05753 1.82701 0
M  V30 2435 O 236.023 -1.90492 1.26194 0
M  V30 2436 C 236.233 0.992253 3.34597 0
M  V30 2437 C 237.581 1.04344 4.11579 0
M  V30 2438 O 238.605 0.94079 3.43551 0
M  V30 2439 O 237.464 1.1995 5.33174 0
M  V30 2440 H 234.558 0.146666 0.813891 0
M  V30 2441 H 237.104 1.00292 1.36893 0
M  V30 2442 H 235.876 2.03623 3.34146 0
M  V30 2443 H 235.499 0.433672 3.95228 0
M  V30 2444 N 236.496 -1.42363 0.676048 0
M  V30 2445 C 237.721 -2.06377 0.205705 0
M  V30 2446 C 238.146 -1.50463 -1.12883 0
M  V30 2447 O 237.504 -0.623619 -1.70237 0
M  V30 2448 C 237.552 -3.60277 0.152655 0
M  V30 2449 O 236.656 -4.02935 -0.87845 0
M  V30 2450 H 235.997 -0.655588 0.105359 0
M  V30 2451 H 238.527 -1.82475 0.925412 0
M  V30 2452 H 238.537 -4.07993 -0.0230675 0
M  V30 2453 H 237.212 -4.00346 1.12675 0
M  V30 2454 H 235.789 -3.66764 -0.673668 0
M  V30 2455 N 237.974 -0.419461 -1.51915 0
M  V30 2456 C 239.385 0.0477853 -1.86639 0
M  V30 2457 C 239.736 1.43531 -1.33766 0
M  V30 2458 O 238.861 2.05401 -0.68113 0
M  V30 2459 C 239.456 0.0934885 -3.38671 0
M  V30 2460 C 238.015 0.505097 -3.72996 0
M  V30 2461 C 237.162 -0.313792 -2.75519 0
M  V30 2462 H 240.113 -0.636088 -1.45395 0
M  V30 2463 H 240.134 0.906667 -3.6954 0
M  V30 2464 H 239.646 -0.916501 -3.77123 0
M  V30 2465 H 237.747 1.52135 -3.40126 0
M  V30 2466 H 237.86 0.242309 -4.78487 0
M  V30 2467 H 236.224 0.225363 -2.53701 0
M  V30 2468 H 237.007 -1.32232 -3.16812 0
M  V30 2469 N 239.452 1.56882 -0.150215 0
M  V30 2470 C 240.399 2.16922 0.788244 0
M  V30 2471 C 241.369 1.10303 1.24187 0
M  V30 2472 O 242.554 1.38359 1.31383 0
M  V30 2473 C 239.694 2.79754 2.02068 0
M  V30 2474 C 238.807 4.00775 1.61257 0
M  V30 2475 C 237.942 4.51595 2.79705 0
M  V30 2476 C 236.981 5.65074 2.35282 0
M  V30 2477 N 236.118 6.10499 3.4675 0
M  V30 2478 H 240.958 2.96779 0.269444 0
M  V30 2479 H 238.495 1.46599 0.12128 0
M  V30 2480 H 240.453 3.14329 2.74323 0
M  V30 2481 H 239.083 2.02536 2.51354 0
M  V30 2482 H 238.135 3.72158 0.787553 0
M  V30 2483 H 239.447 4.82978 1.24633 0
M  V30 2484 H 238.601 4.88242 3.60145 0
M  V30 2485 H 237.34 3.68406 3.19576 0
M  V30 2486 H 236.345 5.28 1.53283 0
M  V30 2487 H 237.57 6.50052 1.96493 0
M  V30 2488 H 235.516 5.30243 3.86236 0
M  V30 2489 H 235.433 6.87637 3.14152 0
M  V30 2490 H 236.701 6.51791 4.27537 0
M  V30 2491 N 240.93 -0.123565 1.57115 0
M  V30 2492 C 242.17 -0.838097 1.86428 0
M  V30 2493 C 242.534 -1.77266 0.737611 0
M  V30 2494 O 243.735 -2.52842 0.912389 0
M  V30 2495 C 242.006 -1.57219 3.20962 0
M  V30 2496 S 243.565 -2.32893 3.71896 0
M  V30 2497 H 240.383 -0.279811 0.653626 0
M  V30 2498 H 242.985 -0.0967034 1.95261 0
M  V30 2499 H 241.689 -0.877522 4.00909 0
M  V30 2500 H 241.22 -2.35405 3.15195 0
M  V30 2501 H 243.235 -3.5853 3.43032 0
M  V30 2502 N 242.408 -1.52605 -0.393616 0
M  V30 2503 C 243.685 -1.58001 -1.15304 0
M  V30 2504 C 244.065 -0.370385 -2.07825 0
M  V30 2505 O 243.413 0.641638 -2.19306 0
M  V30 2506 C 243.623 -2.91652 -1.91677 0
M  V30 2507 C 244.971 -3.4522 -2.47201 0
M  V30 2508 O 245.995 -2.93495 -2.01839 0
M  V30 2509 O 244.854 -4.35579 -3.3005 0
M  V30 2510 H 241.948 -0.637068 -0.527327 0
M  V30 2511 H 244.494 -1.64939 -0.399141 0
M  V30 2512 H 243.266 -3.71136 -1.23992 0
M  V30 2513 H 242.889 -2.88077 -2.74039 0
M  V30 2514 O 243.925 0.539544 -1.52221 0
M  V30 2515 H 244.616 1.19468 -1.5247 0
M  V30 END ATOM
M  V30 BEGIN BOND
M  V30 END BOND
M  V30 END CTAB
M  END
$$$$
