drugbank_target|O15460 Prolyl 4-hydroxylase subunit alpha-2 (DB00172)
 OpenBabel12092120083D

  0  0  0     0  0            999 V3000
M  V30 BEGIN CTAB
M  V30 COUNTS 8493 8591 0 0 0
M  V30 BEGIN ATOM
M  V30 1 H -0.908 1.98254 -0.117106 0
M  V30 2 N 0 1.576 0 0
M  V30 3 C 0.933 2.03868 1.02534 0
M  V30 4 C 1.911 0.928543 1.3348 0
M  V30 5 O 3.095 1.19667 1.45644 0
M  V30 6 C 0.222 2.43627 2.35294 0
M  V30 7 C -0.732 3.65373 2.2001 0
M  V30 8 S 0.101 5.13292 1.52614 0
M  V30 9 C 1.257 5.56322 2.86805 0
M  V30 10 H 1.49 2.90518 0.631377 0
M  V30 11 H -0.977 1.52953 0.210867 0
M  V30 12 H 0.981 2.67203 3.11629 0
M  V30 13 H -0.358 1.57376 2.7183 0
M  V30 14 H -1.165 3.90944 3.18086 0
M  V30 15 H -1.563 3.418 1.51819 0
M  V30 16 H 0.729 5.58782 3.83104 0
M  V30 17 H 1.672 6.56266 2.65933 0
M  V30 18 H 2.08 4.83886 2.90714 0
M  V30 19 N 1.4781 -0.272755 1.55222 0
M  V30 20 C 2.4251 -1.33716 1.88119 0
M  V30 21 C 3.3951 -1.49066 0.73271 0
M  V30 22 O 4.5801 -1.63469 0.984002 0
M  V30 23 C 1.7201 -2.69238 2.15882 0
M  V30 24 C 0.8331 -2.62108 3.43399 0
M  V30 25 C -0.0319 -3.89811 3.60861 0
M  V30 26 C -0.9929 -3.77193 4.8207 0
M  V30 27 N -1.8559 -4.9673 4.96189 0
M  V30 28 H 2.9841 -1.04962 2.78903 0
M  V30 29 H 0.5211 -0.507088 1.38083 0
M  V30 30 H 2.4791 -3.48089 2.29978 0
M  V30 31 H 1.1091 -2.96194 1.28331 0
M  V30 32 H 0.1611 -1.74967 3.37773 0
M  V30 33 H 1.4731 -2.48685 4.32386 0
M  V30 34 H 0.6271 -4.77103 3.74777 0
M  V30 35 H -0.6339 -4.06102 2.7006 0
M  V30 36 H -1.6289 -2.88284 4.68159 0
M  V30 37 H -0.4039 -3.62421 5.74307 0
M  V30 38 H -2.4579 -5.13431 4.08319 0
M  V30 39 H -2.5409 -4.85839 5.79221 0
M  V30 40 H -1.2729 -5.85594 5.1449 0
M  V30 41 N 2.9562 -1.48159 -0.537278 0
M  V30 42 C 3.8862 -1.65029 -1.6519 0
M  V30 43 C 4.8672 -0.499281 -1.62607 0
M  V30 44 O 6.0522 -0.730972 -1.79918 0
M  V30 45 C 3.1822 -1.68303 -3.03795 0
M  V30 46 C 2.1362 -2.8283 -3.21234 0
M  V30 47 C 1.4622 -2.71189 -4.60826 0
M  V30 48 C 2.7622 -4.24211 -3.04701 0
M  V30 49 H 4.4562 -2.58341 -1.51328 0
M  V30 50 H 2.0022 -1.24325 -0.726585 0
M  V30 51 H 3.9552 -1.78693 -3.81637 0
M  V30 52 H 2.6792 -0.715635 -3.18663 0
M  V30 53 H 1.3382 -2.71983 -2.45807 0
M  V30 54 H 0.9862 -1.72435 -4.7252 0
M  V30 55 H 0.6862 -3.48035 -4.7344 0
M  V30 56 H 2.2102 -2.83537 -5.40777 0
M  V30 57 H 3.6242 -4.3593 -3.72341 0
M  V30 58 H 2.0212 -5.01998 -3.28813 0
M  V30 59 H 3.0912 -4.41184 -2.01209 0
M  V30 60 N 4.4343 0.785586 -1.36625 0
M  V30 61 C 5.6803 1.5452 -1.32269 0
M  V30 62 C 6.0353 1.92159 0.0962266 0
M  V30 63 O 5.3283 1.60158 1.05167 0
M  V30 64 C 5.5223 2.83007 -2.1827 0
M  V30 65 C 5.3513 2.57925 -3.68382 0
M  V30 66 C 4.1213 2.52752 -4.37544 0
M  V30 67 C 6.3193 2.26861 -4.61561 0
M  V30 68 N 4.3013 2.19608 -5.73276 0
M  V30 69 C 5.6723 2.03738 -5.85569 0
M  V30 70 C 7.7273 2.129 -4.50087 0
M  V30 71 C 6.4303 1.68065 -6.9939 0
M  V30 72 C 8.4563 1.78626 -5.63779 0
M  V30 73 C 7.8183 1.56353 -6.86828 0
M  V30 74 H 3.9173 0.566301 -0.539283 0
M  V30 75 H 6.5013 0.917736 -1.71714 0
M  V30 76 H 4.6723 3.43614 -1.81063 0
M  V30 77 H 6.4043 3.48775 -2.05275 0
M  V30 78 H 3.1593 2.6813 -3.90389 0
M  V30 79 H 3.5833 2.05771 -6.44971 0
M  V30 80 H 8.2253 2.28808 -3.55537 0
M  V30 81 H 5.9433 1.50895 -7.93887 0
M  V30 82 H 9.5293 1.68502 -5.56865 0
M  V30 83 H 8.4093 1.30223 -7.73312 0
M  V30 84 N 5.9124 1.20967 1.01018 0
M  V30 85 C 7.1584 1.02526 1.74975 0
M  V30 86 C 7.4914 -0.4408 1.89131 0
M  V30 87 O 6.7664 -1.32718 1.42184 0
M  V30 88 C 7.0494 1.71699 3.1653 0
M  V30 89 C 6.9024 3.25791 3.10129 0
M  V30 90 C 8.2214 1.45531 4.15342 0
M  V30 91 H 5.3404 0.373863 0.635134 0
M  V30 92 H 7.9824 1.49071 1.17805 0
M  V30 93 H 6.1324 1.32128 3.65341 0
M  V30 94 H 7.8044 3.74697 2.69072 0
M  V30 95 H 6.0474 3.56363 2.47362 0
M  V30 96 H 6.7184 3.69353 4.10222 0
M  V30 97 H 9.1944 1.79872 3.75213 0
M  V30 98 H 8.0704 1.96453 5.1254 0
M  V30 99 H 8.3314 0.384237 4.40427 0
M  V30 100 N 7.3905 -1.2043 1.01659 0
M  V30 101 C 8.6155 -1.94318 0.724942 0
M  V30 102 C 9.0405 -1.74266 -0.708034 0
M  V30 103 O 8.3985 -1.03694 -1.48719 0
M  V30 104 C 8.4465 -3.44486 1.06591 0
M  V30 105 O 7.5505 -4.12017 0.177599 0
M  V30 106 H 6.8915 -0.60708 0.26898 0
M  V30 107 H 9.4215 -1.52861 1.35995 0
M  V30 108 H 9.4315 -3.95106 1.01762 0
M  V30 109 H 8.1065 -3.58404 2.10997 0
M  V30 110 H 6.6835 -3.71821 0.283421 0
M  V30 111 N 8.8686 -0.792821 -1.36206 0
M  V30 112 C 9.8316 -0.199459 -2.2833 0
M  V30 113 C 10.8316 0.605189 -1.48977 0
M  V30 114 O 12.0216 0.425685 -1.68919 0
M  V30 115 C 9.1536 0.723523 -3.33134 0
M  V30 116 H 10.3466 -1.01181 -2.82316 0
M  V30 117 H 7.8996 -0.562485 -1.45828 0
M  V30 118 H 8.6346 1.56008 -2.84309 0
M  V30 119 H 8.4196 0.148436 -3.91819 0
M  V30 120 H 9.9096 1.13344 -4.01924 0
M  V30 121 N 10.3467 1.47872 -0.545128 0
M  V30 122 C 11.2767 2.32661 0.197793 0
M  V30 123 C 12.2577 1.43041 0.920504 0
M  V30 124 O 13.4427 1.71912 0.90333 0
M  V30 125 C 10.5727 3.24569 1.23582 0
M  V30 126 C 9.5267 4.23333 0.630323 0
M  V30 127 C 8.8527 5.0448 1.77211 0
M  V30 128 C 10.1527 5.20704 -0.407974 0
M  V30 129 H 11.8467 2.95024 -0.510045 0
M  V30 130 H 9.3927 1.4187 -0.246731 0
M  V30 131 H 11.3457 3.8272 1.76362 0
M  V30 132 H 10.0697 2.60236 1.97344 0
M  V30 133 H 8.7287 3.6639 0.123922 0
M  V30 134 H 8.3767 4.36561 2.49847 0
M  V30 135 H 8.0767 5.71339 1.37281 0
M  V30 136 H 9.6007 5.65487 2.3034 0
M  V30 137 H 11.0147 5.7329 0.033305 0
M  V30 138 H 9.4117 5.95699 -0.725486 0
M  V30 139 H 10.4817 4.66917 -1.30828 0
M  V30 140 N 11.8248 0.280983 1.55075 0
M  V30 141 C 12.7548 -0.597469 2.25727 0
M  V30 142 C 13.7358 -1.15417 1.24952 0
M  V30 143 O 14.9208 -1.18722 1.53684 0
M  V30 144 C 12.0508 -1.7789 2.98283 0
M  V30 145 C 11.0048 -1.35347 4.06036 0
M  V30 146 C 10.3308 -2.61846 4.66198 0
M  V30 147 C 11.6308 -0.499354 5.19907 0
M  V30 148 H 13.3248 -0.00824265 2.99399 0
M  V30 149 H 10.8708 -0.0025244 1.44 0
M  V30 150 H 12.8238 -2.39937 3.46422 0
M  V30 151 H 11.5478 -2.39405 2.22155 0
M  V30 152 H 10.2068 -0.756156 3.58717 0
M  V30 153 H 9.8548 -3.21632 3.86732 0
M  V30 154 H 9.5548 -2.3409 5.38958 0
M  V30 155 H 11.0788 -3.24732 5.1709 0
M  V30 156 H 12.4928 -1.02498 5.64063 0
M  V30 157 H 10.8898 -0.316424 5.99265 0
M  V30 158 H 11.9598 0.480459 4.82514 0
M  V30 159 N 13.3029 -1.57598 0.00835791 0
M  V30 160 C 14.2359 -2.04409 -1.01451 0
M  V30 161 C 15.2139 -0.935609 -1.32985 0
M  V30 162 O 16.3979 -1.20437 -1.45007 0
M  V30 163 C 13.5249 -2.44872 -2.33999 0
M  V30 164 C 12.5709 -3.66535 -2.18069 0
M  V30 165 S 13.4039 -5.14095 -1.4989 0
M  V30 166 C 14.5599 -5.57835 -2.8385 0
M  V30 167 H 14.7929 -2.90849 -0.615961 0
M  V30 168 H 12.3259 -1.53063 -0.202752 0
M  V30 169 H 14.2839 -2.68852 -3.10208 0
M  V30 170 H 12.9449 -1.58815 -2.70992 0
M  V30 171 H 12.1379 -3.92626 -3.16008 0
M  V30 172 H 11.7399 -3.426 -1.50004 0
M  V30 173 H 14.0319 -5.60806 -3.80136 0
M  V30 174 H 14.9749 -6.57667 -2.62449 0
M  V30 175 H 15.3829 -4.85421 -2.88144 0
M  V30 176 N 14.781 0.264519 -1.55364 0
M  V30 177 C 15.744 1.31046 -1.88042 0
M  V30 178 C 16.744 1.41943 -0.755569 0
M  V30 179 O 17.934 1.40947 -1.02369 0
M  V30 180 C 15.066 2.69067 -2.09323 0
M  V30 181 H 16.259 1.03297 -2.81549 0
M  V30 182 H 13.812 0.502989 -1.47986 0
M  V30 183 H 14.547 3.01982 -1.18226 0
M  V30 184 H 14.332 2.62542 -2.91229 0
M  V30 185 H 15.822 3.44623 -2.35848 0
M  V30 186 N 16.2591 1.48442 0.529413 0
M  V30 187 C 17.5051 1.57699 1.28463 0
M  V30 188 C 17.8601 0.247913 1.90796 0
M  V30 189 O 17.1531 -0.749279 1.76342 0
M  V30 190 C 17.3471 2.6523 2.39558 0
M  V30 191 C 17.1761 4.08464 1.88114 0
M  V30 192 C 15.9461 4.75596 1.70693 0
M  V30 193 C 18.1441 4.94613 1.40935 0
M  V30 194 N 16.1261 6.03245 1.13881 0
M  V30 195 C 17.4971 6.12511 0.960734 0
M  V30 196 C 19.5521 4.80833 1.29243 0
M  V30 197 C 18.2551 7.18149 0.406792 0
M  V30 198 C 20.2811 5.86593 0.752487 0
M  V30 199 C 19.6431 7.037 0.313946 0
M  V30 200 H 15.7421 0.631608 0.46108 0
M  V30 201 H 18.3261 1.85325 0.596886 0
M  V30 202 H 16.4971 2.39425 3.05827 0
M  V30 203 H 18.2291 2.64169 3.06589 0
M  V30 204 H 14.9841 4.31938 1.94232 0
M  V30 205 H 15.4081 6.71324 0.874831 0
M  V30 206 H 20.0501 3.90635 1.61754 0
M  V30 207 H 17.7681 8.0807 0.0693671 0
M  V30 208 H 21.3541 5.77985 0.665192 0
M  V30 209 H 20.2341 7.8414 -0.0973632 0
M  V30 210 N 17.7372 -0.778329 1.37039 0
M  V30 211 C 18.9842 -1.53665 1.31884 0
M  V30 212 C 19.3122 -1.9425 -0.0986303 0
M  V30 213 O 18.5672 -1.63832 -1.07041 0
M  V30 214 C 18.8662 -2.81845 2.19768 0
M  V30 215 C 18.5322 -2.60345 3.68146 0
M  V30 216 C 17.1942 -2.5419 4.08584 0
M  V30 217 C 19.5462 -2.40923 4.62175 0
M  V30 218 C 16.8742 -2.26594 5.41177 0
M  V30 219 C 19.2262 -2.14852 5.94997 0
M  V30 220 C 17.8902 -2.07137 6.34547 0
M  V30 221 H 17.1602 -0.562299 0.482598 0
M  V30 222 H 19.8072 -0.897069 1.69189 0
M  V30 223 H 18.1122 -3.50328 1.75436 0
M  V30 224 H 19.8092 -3.39692 2.13097 0
M  V30 225 H 16.3992 -2.65996 3.36072 0
M  V30 226 H 20.5832 -2.44673 4.31797 0
M  V30 227 H 15.8392 -2.19111 5.70789 0
M  V30 228 H 20.0132 -1.98822 6.67415 0
M  V30 229 H 17.6402 -1.85518 7.37216 0
M  V30 230 N 19.2153 -1.21501 -1.00376 0
M  V30 231 C 20.4633 -1.03095 -1.73827 0
M  V30 232 C 20.7843 0.436341 -1.90055 0
M  V30 233 O 20.0543 1.31466 -1.45236 0
M  V30 234 H 18.6343 -0.378487 -0.644016 0
M  V30 235 H 21.2963 -1.52831 -1.20949 0
M  V30 236 H 20.3923 -1.49991 -2.73695 0
M  V30 237 N 20.6934 1.19889 -1.02296 0
M  V30 238 C 21.9394 1.89701 -0.717033 0
M  V30 239 C 22.2724 1.7905 0.751989 0
M  V30 240 O 21.5474 1.17891 1.547 0
M  V30 241 C 21.8304 3.40858 -1.16136 0
M  V30 242 C 21.6834 3.60411 -2.69117 0
M  V30 243 C 23.0024 4.33876 -0.737549 0
M  V30 244 H 20.1214 0.688874 -0.261957 0
M  V30 245 H 22.7634 1.41154 -1.27183 0
M  V30 246 H 20.9134 3.82335 -0.689342 0
M  V30 247 H 22.5854 3.28145 -3.2422 0
M  V30 248 H 20.8284 3.03665 -3.0979 0
M  V30 249 H 21.4994 4.66396 -2.95261 0
M  V30 250 H 23.9754 4.00081 -1.14344 0
M  V30 251 H 22.8514 5.38242 -1.0764 0
M  V30 252 H 23.1124 4.40628 0.360436 0
M  V30 253 N 22.1715 0.800033 1.35784 0
M  V30 254 C 23.1015 0.220184 2.3246 0
M  V30 255 C 24.0825 -0.65073 1.57161 0
M  V30 256 O 25.2675 -0.582359 1.85263 0
M  V30 257 C 22.3975 -0.637353 3.41402 0
M  V30 258 C 21.3515 0.134531 4.27789 0
M  V30 259 C 20.6775 -0.844285 5.27992 0
M  V30 260 C 21.9775 1.32979 5.05088 0
M  V30 261 H 23.6715 1.02787 2.81203 0
M  V30 262 H 21.2175 0.495717 1.35199 0
M  V30 263 H 23.1705 -1.05302 4.08031 0
M  V30 264 H 21.8945 -1.47785 2.91251 0
M  V30 265 H 20.5535 0.531296 3.6273 0
M  V30 266 H 20.2015 -1.68011 4.74111 0
M  V30 267 H 19.9015 -0.332184 5.8666 0
M  V30 268 H 21.4255 -1.2583 5.97494 0
M  V30 269 H 22.8395 0.98934 5.64699 0
M  V30 270 H 21.2365 1.77593 5.7322 0
M  V30 271 H 22.3065 2.11978 4.36111 0
M  V30 272 N 23.6496 -1.47581 0.552962 0
M  V30 273 C 24.8746 -2.07378 0.0300593 0
M  V30 274 C 25.2996 -1.40355 -1.25229 0
M  V30 275 O 24.6576 -0.477099 -1.7491 0
M  V30 276 C 24.7056 -3.60274 -0.153231 0
M  V30 277 O 23.8096 -3.94041 -1.21678 0
M  V30 278 H 23.1506 -0.662158 0.0494182 0
M  V30 279 H 25.6806 -1.89662 0.767434 0
M  V30 280 H 25.6906 -4.0633 -0.368761 0
M  V30 281 H 24.3656 -4.08455 0.783397 0
M  V30 282 H 22.9426 -3.59735 -0.982079 0
M  V30 283 N 25.1277 -0.289203 -1.54924 0
M  V30 284 C 26.3677 0.324536 -2.01807 0
M  V30 285 C 26.7317 1.5199 -1.17316 0
M  V30 286 O 27.9327 2.20422 -1.53843 0
M  V30 287 C 26.2037 0.683578 -3.50802 0
M  V30 288 S 27.7627 1.28185 -4.19659 0
M  V30 289 H 24.5807 0.100236 -0.703899 0
M  V30 290 H 27.1827 -0.414325 -1.91059 0
M  V30 291 H 25.8867 -0.195073 -4.09936 0
M  V30 292 H 25.4177 1.45354 -3.65562 0
M  V30 293 H 27.4327 2.57006 -4.24456 0
M  V30 294 N 26.6058 1.57591 -0.0167156 0
M  V30 295 C 27.8518 1.91567 0.665582 0
M  V30 296 C 28.1848 0.892298 1.72487 0
M  V30 297 O 27.4598 -0.0867127 1.94307 0
M  V30 298 C 27.7428 3.36069 1.29342 0
M  V30 299 C 27.5958 4.49135 0.244541 0
M  V30 300 C 28.9148 3.803 2.21495 0
M  V30 301 H 26.0338 0.69666 0.240488 0
M  V30 302 H 28.6758 1.89866 -0.0714356 0
M  V30 303 H 26.8258 3.3765 1.92158 0
M  V30 304 H 28.4978 4.59689 -0.385228 0
M  V30 305 H 26.7408 4.3165 -0.431379 0
M  V30 306 H 27.4118 5.47242 0.723207 0
M  V30 307 H 29.8878 3.80377 1.68678 0
M  V30 308 H 28.7638 4.82127 2.62382 0
M  V30 309 H 29.0248 3.15104 3.101 0
M  V30 310 N 28.0839 -0.256276 1.55502 0
M  V30 311 C 29.0159 -1.33981 1.85962 0
M  V30 312 C 30.0289 -1.44743 0.745212 0
M  V30 313 O 31.2179 -1.4626 1.02324 0
M  V30 314 C 28.3179 -2.7194 2.02242 0
M  V30 315 C 27.4909 -2.83562 3.33033 0
M  V30 316 C 26.5499 -4.02304 3.39172 0
M  V30 317 O 25.5759 -3.92273 4.12444 0
M  V30 318 N 26.7779 -5.15045 2.67784 0
M  V30 319 H 29.5429 -1.08191 2.7949 0
M  V30 320 H 27.1039 -0.446388 1.55624 0
M  V30 321 H 29.0959 -3.49697 2.03701 0
M  V30 322 H 27.6659 -2.90479 1.15502 0
M  V30 323 H 26.8859 -1.92555 3.43971 0
M  V30 324 H 28.1739 -2.88271 4.19258 0
M  V30 325 H 27.5719 -5.26085 2.07968 0
M  V30 326 H 26.1289 -5.90972 2.74947 0
M  V30 327 N 29.562 -1.4872 -0.521534 0
M  V30 328 C 30.525 -1.63379 -1.60748 0
M  V30 329 C 31.525 -0.50661 -1.52611 0
M  V30 330 O 32.715 -0.772601 -1.5613 0
M  V30 331 C 29.847 -1.61192 -3.00383 0
M  V30 332 H 31.04 -2.60217 -1.49087 0
M  V30 333 H 28.593 -1.37444 -0.744235 0
M  V30 334 H 29.328 -0.65863 -3.17541 0
M  V30 335 H 29.113 -2.43032 -3.07698 0
M  V30 336 H 30.603 -1.7466 -3.7932 0
M  V30 337 N 31.0401 0.771051 -1.3745 0
M  V30 338 C 31.9501 1.91538 -1.35464 0
M  V30 339 C 32.9661 1.72134 -0.254123 0
M  V30 340 O 34.1421 1.95358 -0.489626 0
M  V30 341 C 31.2071 3.26671 -1.16134 0
M  V30 342 C 30.2681 3.58723 -2.35831 0
M  V30 343 C 29.5011 4.87409 -2.17413 0
M  V30 344 O 29.7241 5.58506 -1.15876 0
M  V30 345 O 28.6581 5.18539 -3.05615 0
M  V30 346 H 32.4841 1.96165 -2.31847 0
M  V30 347 H 30.0691 0.9139 -1.18187 0
M  V30 348 H 31.9511 4.07499 -1.07345 0
M  V30 349 H 30.6261 3.22894 -0.228251 0
M  V30 350 H 29.5331 2.78127 -2.50192 0
M  V30 351 H 30.8661 3.67243 -3.27709 0
M  V30 352 N 32.5182 1.22032 0.997298 0
M  V30 353 C 33.7652 1.04222 1.73621 0
M  V30 354 C 34.0932 -0.423264 1.89839 0
M  V30 355 O 33.3482 -1.3302 1.43542 0
M  V30 356 C 33.6472 1.69345 3.14733 0
M  V30 357 C 33.3132 3.19226 3.18442 0
M  V30 358 C 31.9752 3.60124 3.19161 0
M  V30 359 C 34.3272 4.15181 3.15078 0
M  V30 360 C 31.6552 4.95467 3.14212 0
M  V30 361 C 34.0072 5.50495 3.1167 0
M  V30 362 C 32.6712 5.90779 3.10703 0
M  V30 363 H 31.9412 0.381374 0.635323 0
M  V30 364 H 34.5882 1.51732 1.16831 0
M  V30 365 H 32.8932 1.14147 3.74803 0
M  V30 366 H 34.5902 1.53059 3.7064 0
M  V30 367 H 31.1802 2.86659 3.18629 0
M  V30 368 H 35.3642 3.84605 3.13676 0
M  V30 369 H 30.6202 5.25916 3.11805 0
M  V30 370 H 34.7942 6.24576 3.08022 0
M  V30 371 H 32.4212 6.9562 3.06622 0
M  V30 372 N 33.9963 -1.19345 1.0293 0
M  V30 373 C 35.2433 -1.89038 0.726008 0
M  V30 374 C 35.5713 -1.79649 -0.745427 0
M  V30 375 O 34.8263 -1.18354 -1.55855 0
M  V30 376 C 35.1253 -3.39292 1.12319 0
M  V30 377 C 34.7913 -3.68885 2.59297 0
M  V30 378 C 33.4533 -3.76671 2.99453 0
M  V30 379 C 35.8053 -3.82178 3.54386 0
M  V30 380 C 33.1333 -3.9522 4.33611 0
M  V30 381 C 35.4853 -4.0224 4.88248 0
M  V30 382 C 34.1493 -4.08259 5.28092 0
M  V30 383 H 33.4193 -0.691739 0.265665 0
M  V30 384 H 36.0663 -1.41328 1.29223 0
M  V30 385 H 34.3713 -3.88903 0.475584 0
M  V30 386 H 36.0683 -3.91536 0.866037 0
M  V30 387 H 32.6583 -3.63433 2.27189 0
M  V30 388 H 36.8423 -3.75505 3.24514 0
M  V30 389 H 32.0983 -3.98119 4.64016 0
M  V30 390 H 36.2723 -4.11468 5.61843 0
M  V30 391 H 33.8993 -4.22384 6.32057 0
M  V30 392 N 35.4744 -0.807222 -1.35358 0
M  V30 393 C 36.7024 -0.400377 -2.02989 0
M  V30 394 C 37.1174 0.988859 -1.60832 0
M  V30 395 O 36.4744 1.63729 -0.806175 0
M  V30 396 C 36.5254 -0.474867 -3.58368 0
M  V30 397 O 36.2464 -1.80933 -3.98992 0
M  V30 398 C 37.7474 -0.0609112 -4.43258 0
M  V30 399 H 34.9674 -0.162587 -0.651004 0
M  V30 400 H 37.5114 -1.09102 -1.72965 0
M  V30 401 H 35.6664 0.167534 -3.87038 0
M  V30 402 H 36.0804 -1.77256 -4.9364 0
M  V30 403 H 37.5544 -0.164145 -5.51756 0
M  V30 404 H 38.0314 0.993831 -4.27808 0
M  V30 405 H 38.6374 -0.676492 -4.19885 0
M  V30 406 N 36.9525 1.47285 -0.560781 0
M  V30 407 C 38.1775 2.07359 -0.0410566 0
M  V30 408 C 38.6025 1.41017 1.24483 0
M  V30 409 O 37.9605 0.486368 1.74654 0
M  V30 410 C 38.0085 3.6035 0.134123 0
M  V30 411 O 37.1125 3.94681 1.19587 0
M  V30 412 H 36.4535 0.661887 -0.0529291 0
M  V30 413 H 38.9835 1.89252 -0.777482 0
M  V30 414 H 38.9935 4.0652 0.347207 0
M  V30 415 H 37.6685 4.08034 -0.805047 0
M  V30 416 H 36.2455 3.60251 0.962987 0
M  V30 417 N 38.4306 0.297415 1.54768 0
M  V30 418 C 39.6796 -0.313669 1.99246 0
M  V30 419 C 39.9926 -1.55281 1.18942 0
M  V30 420 O 41.1986 -2.23825 1.5367 0
M  V30 421 C 39.6546 -0.609407 3.54703 0
M  V30 422 C 39.2626 0.611192 4.43811 0
M  V30 423 C 41.0066 -1.18188 4.07715 0
M  V30 424 C 38.9136 0.288805 5.90694 0
M  V30 425 H 37.8436 -0.120979 0.744231 0
M  V30 426 H 40.4946 0.40556 1.78962 0
M  V30 427 H 38.8766 -1.38813 3.70873 0
M  V30 428 H 40.0506 1.3875 4.39414 0
M  V30 429 H 38.3656 1.10205 4.01552 0
M  V30 430 H 40.9626 -1.43727 5.15021 0
M  V30 431 H 41.3056 -2.12299 3.58099 0
M  V30 432 H 41.8386 -0.464944 3.95074 0
M  V30 433 H 38.5776 1.19838 6.44453 0
M  V30 434 H 38.0976 -0.450305 5.98107 0
M  V30 435 H 39.7766 -0.110933 6.46905 0
M  V30 436 N 39.9087 -1.5758 0.0250728 0
M  V30 437 C 41.1567 -1.91255 -0.653151 0
M  V30 438 C 41.4777 -0.901691 -1.729 0
M  V30 439 O 40.7477 0.0573785 -1.95816 0
M  V30 440 H 39.3277 -0.705942 -0.244243 0
M  V30 441 H 41.9897 -1.94767 0.0719209 0
M  V30 442 H 41.0857 -2.91752 -1.10847 0
M  V30 443 N 41.3868 0.248026 -1.55636 0
M  V30 444 C 42.3368 1.30994 -1.86614 0
M  V30 445 C 43.3208 1.43543 -0.726918 0
M  V30 446 O 44.5128 1.46804 -0.988818 0
M  V30 447 C 41.6418 2.6656 -2.16335 0
M  V30 448 C 40.7278 2.58019 -3.36581 0
M  V30 449 N 41.1188 2.1911 -4.55878 0
M  V30 450 C 39.4168 2.89035 -3.39669 0
M  V30 451 C 40.1178 2.21174 -5.38012 0
M  V30 452 N 39.0938 2.60632 -4.77045 0
M  V30 453 H 42.8958 0.999583 -2.76379 0
M  V30 454 H 40.4098 0.456652 -1.55848 0
M  V30 455 H 42.4068 3.43194 -2.36692 0
M  V30 456 H 41.0668 2.98463 -1.27867 0
M  V30 457 H 42.0778 1.90672 -4.81523 0
M  V30 458 H 38.7548 3.25485 -2.61469 0
M  V30 459 H 40.1448 1.9344 -6.43452 0
M  V30 460 N 42.8649 1.48995 0.513639 0
M  V30 461 C 43.7979 1.59319 1.63379 0
M  V30 462 C 44.7759 0.442816 1.56454 0
M  V30 463 O 45.9599 0.656655 1.76693 0
M  V30 464 C 43.0869 1.5364 3.01848 0
M  V30 465 C 42.1329 2.7372 3.27078 0
M  V30 466 S 42.9659 4.35528 3.1157 0
M  V30 467 C 44.1219 4.32473 4.52458 0
M  V30 468 H 44.3549 2.54079 1.54374 0
M  V30 469 H 41.8879 1.3773 0.697849 0
M  V30 470 H 43.8459 1.51049 3.81699 0
M  V30 471 H 42.5069 0.601898 3.08279 0
M  V30 472 H 41.6999 2.6593 4.28132 0
M  V30 473 H 41.3019 2.73657 2.54927 0
M  V30 474 H 43.5939 4.03414 5.44301 0
M  V30 475 H 44.5369 5.33762 4.65299 0
M  V30 476 H 44.9449 3.62718 4.32546 0
M  V30 477 N 44.343 -0.763751 1.37857 0
M  V30 478 C 45.571 -1.55293 1.36718 0
M  V30 479 C 45.986 -1.88745 -0.0455434 0
M  V30 480 O 45.343 -1.52039 -1.00947 0
M  V30 481 C 45.394 -2.85831 2.2132 0
M  V30 482 O 45.115 -2.5381 3.57089 0
M  V30 483 C 46.616 -3.80023 2.28249 0
M  V30 484 H 43.836 -0.480841 0.468009 0
M  V30 485 H 46.38 -0.946009 1.81303 0
M  V30 486 H 44.535 -3.42926 1.80223 0
M  V30 487 H 44.949 -3.37459 4.01524 0
M  V30 488 H 46.423 -4.68599 2.91752 0
M  V30 489 H 46.9 -4.1973 1.2932 0
M  V30 490 H 47.506 -3.28855 2.69693 0
M  V30 491 N 45.8211 -1.22559 -0.990812 0
M  V30 492 C 47.0981 -0.959875 -1.70428 0
M  V30 493 C 47.4781 0.524455 -2.04481 0
M  V30 494 O 46.8261 1.49302 -1.72977 0
M  V30 495 C 47.0361 -1.85955 -2.95333 0
M  V30 496 C 48.3841 -2.11687 -3.68068 0
M  V30 497 O 49.4081 -1.8342 -3.05345 0
M  V30 498 O 48.2671 -2.59572 -4.80921 0
M  V30 499 H 45.3611 -0.361154 -0.743974 0
M  V30 500 H 47.9071 -1.33554 -1.04697 0
M  V30 501 H 46.6791 -2.86346 -2.66687 0
M  V30 502 H 46.3021 -1.4856 -3.68803 0
M  V30 503 N 47.2992 1.18797 -1.03562 0
M  V30 504 C 48.2292 2.24472 -0.643019 0
M  V30 505 C 49.2102 1.66433 0.351283 0
M  V30 506 O 50.3952 1.92803 0.232505 0
M  V30 507 C 47.5252 3.473 4.24935e-05 0
M  V30 508 C 46.4792 4.18055 -0.917257 0
M  V30 509 C 45.8052 5.34519 -0.138941 0
M  V30 510 C 47.1052 4.72109 -2.23407 0
M  V30 511 H 48.7992 2.57566 -1.52643 0
M  V30 512 H 46.3452 1.23806 -0.735394 0
M  V30 513 H 48.2982 4.20426 0.286383 0
M  V30 514 H 47.0222 3.13424 0.918299 0
M  V30 515 H 45.6812 3.46821 -1.1879 0
M  V30 516 H 45.3292 4.96891 0.781562 0
M  V30 517 H 45.0292 5.82794 -0.750005 0
M  V30 518 H 46.5532 6.10438 0.1405 0
M  V30 519 H 47.9672 5.36955 -2.00879 0
M  V30 520 H 46.3642 5.30897 -2.79765 0
M  V30 521 H 47.4342 3.89807 -2.88407 0
M  V30 522 N 48.7773 0.814389 1.34928 0
M  V30 523 C 50.0263 0.394871 1.97797 0
M  V30 524 C 50.3393 -1.04555 1.65311 0
M  V30 525 O 51.5453 -1.56856 2.21604 0
M  V30 526 C 50.0013 0.655103 3.53888 0
M  V30 527 C 49.6093 2.10858 3.95276 0
M  V30 528 C 51.3533 0.301329 4.23429 0
M  V30 529 C 49.2603 2.31415 5.44244 0
M  V30 530 H 48.1903 0.143913 0.740139 0
M  V30 531 H 50.8413 0.999544 1.53888 0
M  V30 532 H 49.2233 -0.0196253 3.95995 0
M  V30 533 H 50.3973 2.82176 3.64298 0
M  V30 534 H 48.7123 2.42297 3.38646 0
M  V30 535 H 51.3093 0.432869 5.32945 0
M  V30 536 H 51.6523 -0.75331 4.09428 0
M  V30 537 H 52.1853 0.930288 3.86769 0
M  V30 538 H 48.9243 3.35353 5.63222 0
M  V30 539 H 48.4443 1.6463 5.76764 0
M  V30 540 H 50.1233 2.13352 6.10811 0
M  V30 541 N 50.2554 -1.46986 0.568584 0
M  V30 542 C 51.4854 -2.0653 0.0539173 0
M  V30 543 C 51.8934 -1.42004 -1.25026 0
M  V30 544 O 51.2364 -0.514541 -1.76347 0
M  V30 545 C 51.2984 -3.58938 -0.200854 0
M  V30 546 C 50.9624 -4.45572 1.01559 0
M  V30 547 C 51.9594 -4.82986 1.92407 0
M  V30 548 C 49.6444 -4.8692 1.23346 0
M  V30 549 C 51.6384 -5.60559 3.03402 0
M  V30 550 C 49.3254 -5.64255 2.34649 0
M  V30 551 C 50.3234 -6.00986 3.24507 0
M  V30 552 O 50.0114 -6.76761 4.33878 0
M  V30 553 H 49.7434 -0.674292 0.0480234 0
M  V30 554 H 52.2974 -1.89812 0.784896 0
M  V30 555 H 50.5274 -3.73911 -0.986279 0
M  V30 556 H 52.2164 -4.0046 -0.662294 0
M  V30 557 H 52.9824 -4.51633 1.76785 0
M  V30 558 H 48.8614 -4.57789 0.543178 0
M  V30 559 H 52.4054 -5.89147 3.73565 0
M  V30 560 H 48.3024 -5.95021 2.5024 0
M  V30 561 H 49.0704 -6.95168 4.32068 0
M  V30 562 N 51.7335 -0.305618 -1.54608 0
M  V30 563 C 52.6965 0.555591 -2.22364 0
M  V30 564 C 53.6965 1.05768 -1.21119 0
M  V30 565 O 54.8865 0.952972 -1.45822 0
M  V30 566 C 52.0185 1.76974 -2.91364 0
M  V30 567 H 53.2115 -0.0364572 -2.99878 0
M  V30 568 H 50.7645 -0.0565007 -1.56198 0
M  V30 569 H 51.4995 2.40151 -2.17941 0
M  V30 570 H 51.2845 1.41732 -3.65588 0
M  V30 571 H 52.7745 2.38148 -3.43038 0
M  V30 572 N 53.2116 1.57565 -0.0334293 0
M  V30 573 C 54.1216 2.13943 0.962572 0
M  V30 574 C 55.1376 1.09276 1.35406 0
M  V30 575 O 56.3136 1.41355 1.4346 0
M  V30 576 C 53.3786 2.65887 2.22497 0
M  V30 577 C 52.4396 3.85286 1.8935 0
M  V30 578 C 51.6726 4.34743 3.09571 0
M  V30 579 O 51.8956 3.83352 4.22371 0
M  V30 580 O 50.8296 5.26538 2.91618 0
M  V30 581 H 54.6556 2.99333 0.513169 0
M  V30 582 H 52.2406 1.4822 0.18743 0
M  V30 583 H 54.1226 2.99346 2.96598 0
M  V30 584 H 52.7976 1.83578 2.6661 0
M  V30 585 H 51.7046 3.56746 1.1262 0
M  V30 586 H 53.0376 4.68771 1.5005 0
M  V30 587 N 54.6897 -0.239769 1.55765 0
M  V30 588 C 55.6367 -1.29696 1.90913 0
M  V30 589 C 56.6067 -1.47478 0.764164 0
M  V30 590 O 57.7917 -1.61345 1.01845 0
M  V30 591 C 54.9317 -2.64598 2.21544 0
M  V30 592 C 54.0447 -2.54765 3.48882 0
M  V30 593 C 53.1797 -3.82069 3.69049 0
M  V30 594 C 52.2187 -3.66883 4.89963 0
M  V30 595 N 51.3557 -4.86094 5.06614 0
M  V30 596 H 56.1957 -0.990224 2.81067 0
M  V30 597 H 53.7327 -0.477684 1.39128 0
M  V30 598 H 55.6907 -3.43132 2.3731 0
M  V30 599 H 54.3207 -2.93405 1.34585 0
M  V30 600 H 53.3727 -1.67763 3.41409 0
M  V30 601 H 54.6847 -2.39457 4.37563 0
M  V30 602 H 53.8387 -4.69046 3.84812 0
M  V30 603 H 52.5777 -4.00282 2.78614 0
M  V30 604 H 51.5827 -2.78289 4.74168 0
M  V30 605 H 52.8077 -3.50157 5.81865 0
M  V30 606 H 50.7537 -5.04655 4.19117 0
M  V30 607 H 50.6707 -4.73443 5.89396 0
M  V30 608 H 51.9387 -5.74549 5.26795 0
M  V30 609 N 56.1678 -1.49265 -0.50573 0
M  V30 610 C 57.0778 -1.68312 -1.63427 0
M  V30 611 C 58.0938 -0.565682 -1.64548 0
M  V30 612 O 59.2698 -0.839801 -1.83055 0
M  V30 613 C 56.3348 -1.74107 -2.99813 0
M  V30 614 C 55.3958 -2.97653 -3.09356 0
M  V30 615 C 54.6288 -3.03163 -4.39236 0
M  V30 616 O 54.8518 -2.16396 -5.27758 0
M  V30 617 O 53.7858 -3.9558 -4.53652 0
M  V30 618 H 57.6118 -2.63907 -1.50289 0
M  V30 619 H 55.1968 -1.32951 -0.681502 0
M  V30 620 H 57.0788 -1.803 -3.80881 0
M  V30 621 H 55.7538 -0.816901 -3.13223 0
M  V30 622 H 54.6608 -2.96981 -2.27493 0
M  V30 623 H 55.9938 -3.89535 -3.00871 0
M  V30 624 N 57.6459 0.756429 -1.3826 0
M  V30 625 C 58.5759 1.88374 -1.37976 0
M  V30 626 C 59.5569 1.68311 -0.246082 0
M  V30 627 O 60.7419 1.88944 -0.44874 0
M  V30 628 C 57.8719 3.25864 -1.20125 0
M  V30 629 C 56.8259 3.60523 -2.30666 0
M  V30 630 C 56.1519 4.9672 -1.97923 0
M  V30 631 C 57.4519 3.65692 -3.72916 0
M  V30 632 H 59.1459 1.88869 -2.32312 0
M  V30 633 H 56.6919 0.907272 -1.11824 0
M  V30 634 H 58.6449 4.0438 -1.18552 0
M  V30 635 H 57.3689 3.25841 -0.222498 0
M  V30 636 H 56.0279 2.84324 -2.3142 0
M  V30 637 H 55.6759 4.93253 -0.985393 0
M  V30 638 H 55.3759 5.20878 -2.71955 0
M  V30 639 H 56.8999 5.77618 -1.97964 0
M  V30 640 H 58.3139 4.34328 -3.74208 0
M  V30 641 H 56.7109 4.01358 -4.4613 0
M  V30 642 H 57.7809 2.65987 -4.05436 0
M  V30 643 N 59.124 1.23083 0.984299 0
M  V30 644 C 60.37 1.06214 1.72761 0
M  V30 645 C 60.703 -0.400584 1.90024 0
M  V30 646 O 59.978 -1.29672 1.44967 0
M  V30 647 C 60.261 1.78375 3.12817 0
M  V30 648 C 60.114 3.32296 3.03149 0
M  V30 649 C 61.433 1.54309 4.12161 0
M  V30 650 H 58.552 0.387251 0.627061 0
M  V30 651 H 61.194 1.51536 1.14616 0
M  V30 652 H 59.344 1.39848 3.62457 0
M  V30 653 H 61.016 3.8032 2.61064 0
M  V30 654 H 59.259 3.6153 2.39747 0
M  V30 655 H 59.93 3.77972 4.02295 0
M  V30 656 H 62.406 1.87791 3.71314 0
M  V30 657 H 61.282 2.07281 5.08258 0
M  V30 658 H 61.543 0.477572 4.39513 0
M  V30 659 N 60.6021 -1.18246 1.0419 0
M  V30 660 C 61.5341 -2.2142 0.592088 0
M  V30 661 C 62.5471 -1.59233 -0.338909 0
M  V30 662 O 63.7361 -1.78002 -0.133231 0
M  V30 663 C 60.8361 -3.38546 -0.154854 0
M  V30 664 C 60.0091 -4.3031 0.784328 0
M  V30 665 C 59.0681 -5.26138 0.0804583 0
M  V30 666 O 58.0941 -5.64738 0.711292 0
M  V30 667 N 59.2961 -5.68261 -1.18574 0
M  V30 668 H 62.0611 -2.60636 1.47949 0
M  V30 669 H 59.6221 -1.33044 0.922544 0
M  V30 670 H 61.6141 -3.99678 -0.635606 0
M  V30 671 H 60.1841 -2.98012 -0.943811 0
M  V30 672 H 59.4041 -3.66764 1.44491 0
M  V30 673 H 60.6921 -4.8852 1.42218 0
M  V30 674 H 60.0901 -5.38957 -1.71876 0
M  V30 675 H 58.6471 -6.31584 -1.61074 0
M  V30 676 N 62.0802 -0.821533 -1.34494 0
M  V30 677 C 63.3052 -0.420873 -2.03085 0
M  V30 678 C 63.7302 0.964915 -1.61465 0
M  V30 679 O 63.0882 1.62763 -0.798607 0
M  V30 680 C 63.1362 -0.529414 -3.56693 0
M  V30 681 O 62.2402 0.451302 -4.09923 0
M  V30 682 H 61.5812 -0.173489 -0.640935 0
M  V30 683 H 64.1112 -1.11157 -1.71771 0
M  V30 684 H 64.1212 -0.404671 -4.05988 0
M  V30 685 H 62.7962 -1.54014 -3.86332 0
M  V30 686 H 61.3732 0.285558 -3.71805 0
M  V30 687 N 63.5583 1.46682 -0.576371 0
M  V30 688 C 64.4883 2.33028 0.148397 0
M  V30 689 C 65.4693 1.44961 0.889956 0
M  V30 690 O 66.6543 1.73789 0.866662 0
M  V30 691 C 63.7843 3.27117 1.1667 0
M  V30 692 C 62.7383 4.24575 0.540386 0
M  V30 693 C 62.0643 5.08126 1.6647 0
M  V30 694 C 63.3643 5.19722 -0.518331 0
M  V30 695 H 65.0583 2.93875 -0.572509 0
M  V30 696 H 62.6043 1.41315 -0.276768 0
M  V30 697 H 64.5573 3.86374 1.68204 0
M  V30 698 H 63.2813 2.64364 1.9178 0
M  V30 699 H 61.9403 3.66571 0.0461769 0
M  V30 700 H 61.5883 4.41762 2.40531 0
M  V30 701 H 61.2883 5.74122 1.25131 0
M  V30 702 H 62.8123 5.70246 2.18293 0
M  V30 703 H 64.2263 5.73232 -0.0883058 0
M  V30 704 H 62.6233 5.94026 -0.851679 0
M  V30 705 H 63.6933 4.64037 -1.40703 0
M  V30 706 N 65.0364 0.313813 1.54444 0
M  V30 707 C 65.9834 -0.55655 2.23989 0
M  V30 708 C 66.9534 -1.11943 1.22711 0
M  V30 709 O 68.1384 -1.16158 1.51367 0
M  V30 710 C 65.2784 -1.71635 2.99392 0
M  V30 711 C 64.3914 -1.18364 4.15468 0
M  V30 712 C 63.5264 -2.30834 4.78424 0
M  V30 713 C 62.5654 -1.74762 5.86622 0
M  V30 714 N 61.7024 -2.80855 6.43479 0
M  V30 715 H 66.5424 0.0430893 2.97969 0
M  V30 716 H 64.0794 0.0330359 1.47063 0
M  V30 717 H 66.0374 -2.39868 3.41349 0
M  V30 718 H 64.6674 -2.28742 2.27765 0
M  V30 719 H 63.7194 -0.393163 3.78363 0
M  V30 720 H 65.0314 -0.733262 4.93381 0
M  V30 721 H 64.1854 -3.0699 5.23299 0
M  V30 722 H 62.9244 -2.79204 3.99871 0
M  V30 723 H 61.9294 -0.970995 5.41158 0
M  V30 724 H 63.1544 -1.2728 6.67066 0
M  V30 725 H 61.1004 -3.28535 5.67804 0
M  V30 726 H 61.0174 -2.40351 7.16776 0
M  V30 727 H 62.2854 -3.5687 6.93011 0
M  V30 728 N 66.5145 -1.57545 0.0417849 0
M  V30 729 C 67.4245 -2.14451 -0.951213 0
M  V30 730 C 68.4405 -1.09992 -1.34825 0
M  V30 731 O 69.6165 -1.42114 -1.42708 0
M  V30 732 C 66.6815 -2.67063 -2.21084 0
M  V30 733 C 65.7425 -3.86284 -1.87304 0
M  V30 734 C 64.9755 -4.36378 -3.07261 0
M  V30 735 O 65.1985 -3.85587 -4.20332 0
M  V30 736 O 64.1325 -5.28077 -2.88822 0
M  V30 737 H 67.9585 -2.99601 -0.497287 0
M  V30 738 H 65.5435 -1.48317 -0.179567 0
M  V30 739 H 67.4255 -3.00914 -2.95006 0
M  V30 740 H 66.1005 -1.84989 -2.65633 0
M  V30 741 H 65.0075 -3.57338 -1.10727 0
M  V30 742 H 66.3405 -4.6956 -1.47562 0
M  V30 743 N 67.9926 0.231505 -1.5589 0
M  V30 744 C 69.2226 0.973092 -1.82248 0
M  V30 745 C 69.6306 1.78845 -0.617328 0
M  V30 746 O 68.9736 1.78752 0.423499 0
M  V30 747 C 69.0356 1.94732 -3.02192 0
M  V30 748 C 68.6996 1.31743 -4.37599 0
M  V30 749 C 69.6966 0.712238 -5.14998 0
M  V30 750 C 67.3816 1.33218 -4.84312 0
M  V30 751 C 69.3756 0.130195 -6.37267 0
M  V30 752 C 67.0626 0.746286 -6.06526 0
M  V30 753 C 68.0606 0.146337 -6.82843 0
M  V30 754 O 67.7486 -0.430465 -8.02747 0
M  V30 755 H 67.4806 0.29125 -0.61004 0
M  V30 756 H 70.0346 0.254915 -2.03812 0
M  V30 757 H 68.2646 2.70422 -2.76422 0
M  V30 758 H 69.9536 2.55362 -3.15508 0
M  V30 759 H 70.7196 0.69324 -4.8002 0
M  V30 760 H 66.5986 1.78854 -4.24891 0
M  V30 761 H 70.1426 -0.33871 -6.96777 0
M  V30 762 H 66.0396 0.762663 -6.40979 0
M  V30 763 H 66.8076 -0.323818 -8.17859 0
M  V30 764 N 69.4707 1.49531 0.497807 0
M  V30 765 C 70.7197 1.58426 1.24837 0
M  V30 766 C 71.0327 0.277643 1.93619 0
M  V30 767 O 72.2387 0.24517 2.70391 0
M  V30 768 C 70.6947 2.79538 2.26686 0
M  V30 769 C 70.3027 4.16971 1.63828 0
M  V30 770 C 72.0467 2.97764 3.0255 0
M  V30 771 C 69.9537 5.29301 2.63807 0
M  V30 772 H 68.8837 0.58989 0.469623 0
M  V30 773 H 71.5347 1.75923 0.521857 0
M  V30 774 H 69.9167 2.55542 3.02514 0
M  V30 775 H 71.0907 4.51116 0.939711 0
M  V30 776 H 69.4057 4.04129 1.00342 0
M  V30 777 H 72.0027 3.78856 3.77323 0
M  V30 778 H 72.3457 2.08448 3.60354 0
M  V30 779 H 72.8787 3.21815 2.33838 0
M  V30 780 H 69.6177 6.20687 2.10779 0
M  V30 781 H 69.1377 4.99606 3.31894 0
M  V30 782 H 70.8167 5.58768 3.2617 0
M  V30 783 N 70.9488 -0.749086 1.3866 0
M  V30 784 C 71.8788 -1.8764 1.38973 0
M  V30 785 C 72.8598 -1.68178 0.255004 0
M  V30 786 O 74.0448 -1.88704 0.458754 0
M  V30 787 C 71.1748 -3.25222 1.21851 0
M  V30 788 C 70.1288 -3.59295 2.32575 0
M  V30 789 C 69.4548 -4.95663 2.00555 0
M  V30 790 C 70.7548 -3.63709 3.7485 0
M  V30 791 H 72.4488 -1.87635 2.3331 0
M  V30 792 H 69.9948 -0.901329 1.12303 0
M  V30 793 H 71.9478 -4.03746 1.20695 0
M  V30 794 H 70.6718 -3.25719 0.239775 0
M  V30 795 H 69.3308 -2.83093 2.32925 0
M  V30 796 H 68.9788 -4.92724 1.01154 0
M  V30 797 H 68.6788 -5.19429 2.74714 0
M  V30 798 H 70.2028 -5.7656 2.01024 0
M  V30 799 H 71.6168 -4.32338 3.76506 0
M  V30 800 H 70.0138 -3.98986 4.48252 0
M  V30 801 H 71.0838 -2.63834 4.06841 0
M  V30 802 N 72.4269 -1.23603 -0.977757 0
M  V30 803 C 73.6729 -1.07129 -1.72195 0
M  V30 804 C 74.0059 0.390501 -1.90233 0
M  V30 805 O 73.2809 1.28902 -1.45653 0
M  V30 806 C 73.5639 -1.80031 -3.11867 0
M  V30 807 C 73.4169 -3.33899 -3.01383 0
M  V30 808 C 74.7359 -1.56492 -4.11337 0
M  V30 809 H 71.8549 -0.390571 -0.624999 0
M  V30 810 H 74.4969 -1.52142 -1.13811 0
M  V30 811 H 72.6469 -1.41768 -3.6171 0
M  V30 812 H 74.3189 -3.81699 -2.59043 0
M  V30 813 H 72.5619 -3.62796 -2.37827 0
M  V30 814 H 73.2329 -3.801 -4.00285 0
M  V30 815 H 75.7089 -1.89757 -3.70313 0
M  V30 816 H 74.5849 -2.09973 -5.07151 0
M  V30 817 H 74.8459 -0.500874 -4.39254 0
M  V30 818 N 73.905 1.17692 -1.04816 0
M  V30 819 C 74.815 2.25229 -0.65643 0
M  V30 820 C 75.831 1.71018 0.320761 0
M  V30 821 O 77.007 2.00649 0.173805 0
M  V30 822 C 74.072 3.46684 -0.0332629 0
M  V30 823 C 73.133 4.15997 -1.06042 0
M  V30 824 C 72.366 5.31654 -0.466893 0
M  V30 825 O 72.589 5.65777 0.724758 0
M  V30 826 O 71.523 5.89831 -1.1993 0
M  V30 827 H 75.349 2.61016 -1.55255 0
M  V30 828 H 72.934 1.24919 -0.81949 0
M  V30 829 H 74.816 4.20234 0.313256 0
M  V30 830 H 73.491 3.12703 0.836566 0
M  V30 831 H 72.398 3.44482 -1.45886 0
M  V30 832 H 73.731 4.53996 -1.90127 0
M  V30 833 N 75.3831 0.828654 1.34056 0
M  V30 834 C 76.2931 0.256725 2.33191 0
M  V30 835 C 77.3091 -0.611898 1.62886 0
M  V30 836 O 78.4851 -0.51844 1.94613 0
M  V30 837 C 75.5501 -0.567238 3.42028 0
M  V30 838 C 74.6111 0.324458 4.28072 0
M  V30 839 C 73.8441 -0.460274 5.31712 0
M  V30 840 O 74.0671 -1.693 5.44696 0
M  V30 841 O 73.0011 0.160391 6.01686 0
M  V30 842 H 76.8271 1.07739 2.83947 0
M  V30 843 H 74.4121 0.59093 1.37217 0
M  V30 844 H 76.2941 -1.03582 4.08471 0
M  V30 845 H 74.9691 -1.36513 2.93506 0
M  V30 846 H 73.8761 0.840659 3.64532 0
M  V30 847 H 75.2091 1.08685 4.8005 0
M  V30 848 N 76.8612 -1.46375 0.584142 0
M  V30 849 C 77.8242 -2.28784 -0.138108 0
M  V30 850 C 78.8242 -1.38471 -0.817462 0
M  V30 851 O 80.0142 -1.60833 -0.669199 0
M  V30 852 C 77.1462 -3.18892 -1.20503 0
M  V30 853 H 78.3392 -2.94117 0.586127 0
M  V30 854 H 75.8922 -1.52509 0.342171 0
M  V30 855 H 76.6272 -2.58309 -1.96079 0
M  V30 856 H 76.4122 -3.85388 -0.722384 0
M  V30 857 H 77.9022 -3.80914 -1.71155 0
M  V30 858 N 78.3393 -0.321999 -1.54275 0
M  V30 859 C 79.2863 0.544664 -2.24281 0
M  V30 860 C 80.2563 1.1129 -1.23303 0
M  V30 861 O 81.4413 1.15354 -1.51981 0
M  V30 862 C 78.5813 1.70045 -3.00298 0
M  V30 863 C 77.6943 1.16159 -4.1609 0
M  V30 864 C 76.8293 2.28293 -4.79641 0
M  V30 865 C 75.8683 1.71648 -5.8754 0
M  V30 866 N 75.0053 2.77438 -6.44959 0
M  V30 867 H 79.8453 -0.0588907 -2.97942 0
M  V30 868 H 77.3823 -0.0408345 -1.47043 0
M  V30 869 H 79.3403 2.38054 -3.42616 0
M  V30 870 H 77.9703 2.27531 -2.28975 0
M  V30 871 H 77.0223 0.373092 -3.78566 0
M  V30 872 H 78.3343 0.707087 -4.93763 0
M  V30 873 H 77.4883 3.0421 -5.2492 0
M  V30 874 H 76.2273 2.77079 -4.01346 0
M  V30 875 H 75.2323 0.942282 -5.41665 0
M  V30 876 H 76.4573 1.23741 -6.67731 0
M  V30 877 H 74.4033 3.25519 -5.69538 0
M  V30 878 H 74.3203 2.36547 -7.1804 0
M  V30 879 H 75.5883 3.53189 -6.94894 0
M  V30 880 N 79.8174 1.5752 -0.0501392 0
M  V30 881 C 80.7474 2.14502 0.922566 0
M  V30 882 C 81.7284 1.06642 1.3252 0
M  V30 883 O 82.9134 1.34577 1.4001 0
M  V30 884 C 80.0434 2.68916 2.19776 0
M  V30 885 C 78.9974 3.8175 1.93523 0
M  V30 886 C 78.3234 4.22677 3.27487 0
M  V30 887 C 79.6234 5.06932 1.25765 0
M  V30 888 H 81.3174 2.9603 0.447952 0
M  V30 889 H 78.8634 1.42401 0.214024 0
M  V30 890 H 80.8164 3.07419 2.88222 0
M  V30 891 H 79.5404 1.84578 2.69441 0
M  V30 892 H 78.1994 3.43718 1.27489 0
M  V30 893 H 77.8474 3.35291 3.74952 0
M  V30 894 H 77.5474 4.98725 3.1072 0
M  V30 895 H 79.0714 4.63779 3.97166 0
M  V30 896 H 80.4854 5.42888 1.84244 0
M  V30 897 H 78.8824 5.88116 1.19328 0
M  V30 898 H 79.9524 4.84337 0.233536 0
M  V30 899 N 81.2955 -0.223234 1.56011 0
M  V30 900 C 82.5205 -0.968978 1.83373 0
M  V30 901 C 82.9455 -1.77227 0.630254 0
M  V30 902 O 82.3035 -1.76345 -0.420959 0
M  V30 903 C 82.3515 -1.86363 3.08709 0
M  V30 904 O 81.4555 -2.95873 2.87285 0
M  V30 905 H 80.7965 -0.274461 0.604622 0
M  V30 906 H 83.3265 -0.237056 2.03222 0
M  V30 907 H 83.3365 -2.27376 3.38768 0
M  V30 908 H 82.0115 -1.27319 3.95933 0
M  V30 909 H 80.5885 -2.58818 2.68454 0
M  V30 910 N 82.7736 -1.49793 -0.48987 0
M  V30 911 C 83.7206 -1.67281 -1.59014 0
M  V30 912 C 84.6906 -0.514177 -1.57941 0
M  V30 913 O 85.8756 -0.742533 -1.75759 0
M  V30 914 C 83.0156 -1.75569 -2.97102 0
M  V30 915 C 82.1286 -3.0281 -3.08107 0
M  V30 916 C 81.2636 -3.02008 -4.36995 0
M  V30 917 C 80.3026 -4.23782 -4.41673 0
M  V30 918 N 79.4396 -4.20826 -5.62005 0
M  V30 919 H 84.2796 -2.61224 -1.43409 0
M  V30 920 H 81.8166 -1.29508 -0.697565 0
M  V30 921 H 83.7746 -1.78354 -3.77155 0
M  V30 922 H 82.4046 -0.850827 -3.11385 0
M  V30 923 H 81.4566 -3.09584 -2.21047 0
M  V30 924 H 82.7686 -3.92801 -3.07423 0
M  V30 925 H 81.9226 -3.03418 -5.25378 0
M  V30 926 H 80.6616 -2.09815 -4.4026 0
M  V30 927 H 79.6666 -4.22604 -3.5169 0
M  V30 928 H 80.8916 -5.17181 -4.40115 0
M  V30 929 H 78.8376 -3.31476 -5.66091 0
M  V30 930 H 78.7546 -5.04564 -5.62984 0
M  V30 931 H 80.0226 -4.26355 -6.52565 0
M  V30 932 N 84.2517 0.741722 -1.39055 0
M  V30 933 C 85.5007 1.49656 -1.35225 0
M  V30 934 C 85.8137 1.95533 0.0512708 0
M  V30 935 O 87.0197 2.7067 0.212138 0
M  V30 936 C 85.4757 2.70389 -2.37525 0
M  V30 937 C 85.0837 2.31489 -3.83558 0
M  V30 938 C 86.8277 3.48236 -2.42759 0
M  V30 939 C 84.7347 3.48903 -4.77515 0
M  V30 940 H 83.6647 0.56197 -0.502699 0
M  V30 941 H 86.3157 0.809727 -1.64668 0
M  V30 942 H 84.6977 3.41113 -2.01142 0
M  V30 943 H 85.8717 1.68354 -4.28945 0
M  V30 944 H 84.1867 1.66749 -3.81554 0
M  V30 945 H 86.7837 4.35558 -3.1015 0
M  V30 946 H 87.1267 3.90229 -1.45008 0
M  V30 947 H 87.6597 2.84535 -2.78002 0
M  V30 948 H 84.3987 3.11966 -5.76504 0
M  V30 949 H 83.9187 4.11041 -4.36813 0
M  V30 950 H 85.5977 4.15328 -4.96096 0
M  V30 951 N 85.7298 1.2412 0.971189 0
M  V30 952 C 86.6768 1.0305 2.06517 0
M  V30 953 C 87.6468 -0.0550666 1.66009 0
M  V30 954 O 88.8318 0.0988688 1.90544 0
M  V30 955 C 85.9718 0.637653 3.39158 0
M  V30 956 C 85.0848 1.79633 3.92882 0
M  V30 957 C 84.2198 1.34939 5.13775 0
M  V30 958 C 83.2588 2.47823 5.59687 0
M  V30 959 N 82.3958 2.04022 6.71803 0
M  V30 960 H 87.2358 1.96685 2.23873 0
M  V30 961 H 84.7728 0.979694 1.09729 0
M  V30 962 H 86.7308 0.390931 4.15364 0
M  V30 963 H 85.3608 -0.261693 3.21737 0
M  V30 964 H 84.4128 2.15681 3.13346 0
M  V30 965 H 85.7248 2.64466 4.22918 0
M  V30 966 H 84.8788 1.06134 5.97345 0
M  V30 967 H 83.6178 0.471557 4.85415 0
M  V30 968 H 82.6228 2.77392 4.74693 0
M  V30 969 H 83.8478 3.36158 5.90063 0
M  V30 970 H 81.7938 1.18632 6.45184 0
M  V30 971 H 81.7108 2.82409 7.01271 0
M  V30 972 H 82.9788 1.78347 7.58823 0
M  V30 973 N 87.2079 -1.17134 1.05439 0
M  V30 974 C 88.4329 -1.91913 0.786396 0
M  V30 975 C 88.8579 -1.7643 -0.652234 0
M  V30 976 O 88.2159 -1.08372 -1.45345 0
M  V30 977 C 88.2639 -3.40921 1.17497 0
M  V30 978 O 87.3679 -4.11244 0.308589 0
M  V30 979 H 86.7089 -0.598215 0.288158 0
M  V30 980 H 89.2389 -1.48457 1.4079 0
M  V30 981 H 89.2489 -3.91668 1.14281 0
M  V30 982 H 87.9239 -3.5151 2.22292 0
M  V30 983 H 86.5009 -3.70731 0.40157 0
M  V30 984 N 88.686 -0.835752 -1.33615 0
M  V30 985 C 89.932 -0.439817 -1.98588 0
M  V30 986 C 90.287 0.989274 -1.65019 0
M  V30 987 O 89.58 1.68168 -0.918159 0
M  V30 988 C 89.774 -0.593925 -3.52431 0
M  V30 989 C 89.603 -2.03644 -4.00948 0
M  V30 990 C 88.373 -2.67103 -4.28934 0
M  V30 991 C 90.571 -3.00479 -4.17393 0
M  V30 992 N 88.553 -4.02462 -4.6357 0
M  V30 993 C 89.924 -4.20777 -4.55353 0
M  V30 994 C 91.979 -2.96926 -3.99674 0
M  V30 995 C 90.682 -5.37994 -4.77447 0
M  V30 996 C 92.708 -4.1337 -4.22941 0
M  V30 997 C 92.07 -5.32422 -4.61201 0
M  V30 998 H 88.169 -0.209303 -0.75347 0
M  V30 999 H 90.753 -1.08316 -1.61789 0
M  V30 1000 H 88.924 0.019599 -3.88395 0
M  V30 1001 H 90.656 -0.169738 -4.04344 0
M  V30 1002 H 87.411 -2.18259 -4.20309 0
M  V30 1003 H 87.835 -4.72232 -4.85104 0
M  V30 1004 H 92.477 -2.06015 -3.69212 0
M  V30 1005 H 90.195 -6.29451 -5.06771 0
M  V30 1006 H 93.781 -4.12034 -4.10754 0
M  V30 1007 H 92.661 -6.21027 -4.78848 0
M  V30 1008 N 90.1641 1.46063 -0.591896 0
M  V30 1009 C 91.1271 2.28854 0.125973 0
M  V30 1010 C 92.1271 1.38903 0.810107 0
M  V30 1011 O 93.3171 1.61186 0.66066 0
M  V30 1012 C 90.4491 3.19526 1.1881 0
M  V30 1013 H 91.6421 2.93802 -0.601717 0
M  V30 1014 H 89.1951 1.52325 -0.350254 0
M  V30 1015 H 89.9301 2.59345 1.94707 0
M  V30 1016 H 89.7151 3.85766 0.701936 0
M  V30 1017 H 91.2051 3.81817 1.69132 0
M  V30 1018 N 91.6422 0.330177 1.54103 0
M  V30 1019 C 92.5902 -0.548226 2.26047 0
M  V30 1020 C 93.5842 -1.11309 1.27698 0
M  V30 1021 O 94.7902 -1.06036 1.45452 0
M  V30 1022 H 91.1652 -0.195456 0.726155 0
M  V30 1023 H 93.1362 0.0807567 2.98291 0
M  V30 1024 C 91.8852 -1.69415 3.03634 0
M  V30 1025 H 91.2082 -1.26876 3.79134 0
M  V30 1026 H 92.6482 -2.28423 3.5721 0
M  V30 1027 C 91.1072 -2.61569 2.12328 0
M  V30 1028 O 91.6372 -3.63462 1.7105 0
M  V30 1029 N 89.8432 -2.29952 1.77681 0
M  V30 1030 H 89.3902 -1.47134 2.11446 0
M  V30 1031 H 89.3482 -2.91871 1.16869 0
M  V30 1032 N 93.1203 -1.57491 0.0584922 0
M  V30 1033 C 94.0673 -2.11958 -0.913376 0
M  V30 1034 C 95.0373 -1.02875 -1.30407 0
M  V30 1035 O 96.2223 -1.30464 -1.39226 0
M  V30 1036 C 93.3623 -2.67497 -2.18035 0
M  V30 1037 C 92.4753 -3.90691 -1.84349 0
M  V30 1038 C 91.6103 -4.3452 -3.05559 0
M  V30 1039 C 90.6493 -5.50395 -2.67827 0
M  V30 1040 N 89.7863 -5.89244 -3.81754 0
M  V30 1041 H 94.6263 -2.94704 -0.442017 0
M  V30 1042 H 92.1633 -1.45643 -0.206545 0
M  V30 1043 H 94.1213 -2.978 -2.92183 0
M  V30 1044 H 92.7513 -1.87537 -2.62735 0
M  V30 1045 H 91.8033 -3.66934 -1.00319 0
M  V30 1046 H 93.1153 -4.7489 -1.5258 0
M  V30 1047 H 92.2693 -4.66414 -3.87998 0
M  V30 1048 H 91.0083 -3.49147 -3.40511 0
M  V30 1049 H 90.0133 -5.18165 -1.83806 0
M  V30 1050 H 91.2383 -6.3749 -2.34059 0
M  V30 1051 H 89.1843 -5.06823 -4.16493 0
M  V30 1052 H 89.1013 -6.68151 -3.53708 0
M  V30 1053 H 90.3693 -6.25756 -4.64811 0
M  V30 1054 N 94.5984 0.214957 -1.56127 0
M  V30 1055 C 95.5314 1.29382 -1.87977 0
M  V30 1056 C 96.5094 1.44897 -0.737807 0
M  V30 1057 O 97.6934 1.60605 -0.986833 0
M  V30 1058 C 94.8204 2.66325 -2.09258 0
M  V30 1059 C 93.8664 2.67789 -3.31951 0
M  V30 1060 S 94.6994 2.21198 -4.8768 0
M  V30 1061 C 95.8554 3.60003 -5.12004 0
M  V30 1062 H 96.0884 1.02173 -2.79192 0
M  V30 1063 H 93.6214 0.417516 -1.48648 0
M  V30 1064 H 95.5794 3.45162 -2.22201 0
M  V30 1065 H 94.2404 2.90755 -1.18829 0
M  V30 1066 H 93.4334 3.68436 -3.43906 0
M  V30 1067 H 93.0354 1.9702 -3.17898 0
M  V30 1068 H 95.3274 4.55739 -5.01307 0
M  V30 1069 H 96.2704 3.52959 -6.13861 0
M  V30 1070 H 96.6784 3.53996 -4.39712 0
M  V30 1071 N 96.0765 1.50051 0.48192 0
M  V30 1072 C 96.9865 1.7089 1.60728 0
M  V30 1073 C 98.0025 0.591788 1.63627 0
M  V30 1074 O 99.1785 0.868817 1.81696 0
M  V30 1075 C 96.2435 1.78855 2.97005 0
M  V30 1076 C 95.3045 3.02537 3.04581 0
M  V30 1077 C 94.5375 3.10112 4.34357 0
M  V30 1078 O 94.7605 2.24765 5.24249 0
M  V30 1079 O 93.6945 4.02747 4.47301 0
M  V30 1080 H 97.5205 2.66264 1.46072 0
M  V30 1081 H 95.1055 1.34018 0.660264 0
M  V30 1082 H 96.9875 1.86336 3.77964 0
M  V30 1083 H 95.6625 0.866628 3.11883 0
M  V30 1084 H 94.5695 3.00563 2.22739 0
M  V30 1085 H 95.9025 3.94272 2.94636 0
M  V30 1086 N 97.5546 -0.734337 1.39446 0
M  V30 1087 C 98.5176 -1.83004 1.37994 0
M  V30 1088 C 99.5176 -1.58397 0.276938 0
M  V30 1089 O 100.708 -1.65785 0.534875 0
M  V30 1090 C 97.8396 -3.20802 1.1532 0
M  V30 1091 H 99.0326 -1.85694 2.35494 0
M  V30 1092 H 96.5856 -0.938059 1.25021 0
M  V30 1093 H 97.3206 -3.23772 0.185036 0
M  V30 1094 H 97.1056 -3.4006 1.95197 0
M  V30 1095 H 98.5956 -4.00862 1.17046 0
M  V30 1096 N 99.0327 -1.24633 -0.964593 0
M  V30 1097 C 99.9627 -1.06611 -2.07741 0
M  V30 1098 C 100.944 0.0218666 -1.70086 0
M  V30 1099 O 102.129 -0.145793 -1.93652 0
M  V30 1100 C 99.2587 -0.673444 -3.40708 0
M  V30 1101 C 98.2127 -1.71054 -3.92332 0
M  V30 1102 C 97.5387 -1.17285 -5.21678 0
M  V30 1103 C 98.8387 -3.10718 -4.19824 0
M  V30 1104 H 100.533 -1.99693 -2.23076 0
M  V30 1105 H 98.0787 -0.96152 -1.07195 0
M  V30 1106 H 100.032 -0.534345 -4.17998 0
M  V30 1107 H 98.7557 0.293073 -3.25282 0
M  V30 1108 H 97.4147 -1.83791 -3.17201 0
M  V30 1109 H 97.0627 -0.196847 -5.02615 0
M  V30 1110 H 96.7627 -1.86592 -5.57187 0
M  V30 1111 H 98.2867 -1.04593 -6.01575 0
M  V30 1112 H 99.7007 -3.01192 -4.87808 0
M  V30 1113 H 98.0977 -3.77406 -4.66567 0
M  V30 1114 H 99.1677 -3.58524 -3.26479 0
M  V30 1115 N 100.511 1.16574 -1.06058 0
M  V30 1116 C 101.739 1.90952 -0.796552 0
M  V30 1117 C 102.154 1.77302 0.648808 0
M  V30 1118 O 101.511 1.11605 1.44397 0
M  V30 1119 C 101.562 3.41736 -1.17894 0
M  V30 1120 O 101.283 3.54975 -2.56758 0
M  V30 1121 C 102.784 4.33169 -0.942308 0
M  V30 1122 H 100.004 0.605594 -0.288959 0
M  V30 1123 H 102.548 1.47777 -1.41358 0
M  V30 1124 H 100.703 3.82623 -0.606491 0
M  V30 1125 H 101.117 4.4846 -2.72 0
M  V30 1126 H 102.591 5.37439 -1.25952 0
M  V30 1127 H 103.068 4.3903 0.122078 0
M  V30 1128 H 103.674 3.98007 -1.49902 0
M  V30 1129 N 101.989 0.842826 1.3317 0
M  V30 1130 C 103.214 0.453129 2.02389 0
M  V30 1131 C 103.639 -0.939105 1.6298 0
M  V30 1132 O 102.997 -1.61472 0.8244 0
M  V30 1133 C 103.045 0.586094 3.55805 0
M  V30 1134 O 102.149 -0.386029 4.10589 0
M  V30 1135 H 101.49 0.183664 0.638094 0
M  V30 1136 H 104.02 1.13875 1.69981 0
M  V30 1137 H 104.03 0.469209 4.05293 0
M  V30 1138 H 102.705 1.6014 3.83833 0
M  V30 1139 H 101.282 -0.226371 3.72212 0
M  V30 1140 N 103.467 -1.45747 0.599634 0
M  V30 1141 C 104.414 -2.30467 -0.123849 0
M  V30 1142 C 105.384 -1.41632 -0.86774 0
M  V30 1143 O 106.569 -1.70568 -0.855056 0
M  V30 1144 C 103.709 -3.26402 -1.12051 0
M  V30 1145 C 102.822 -4.3034 -0.37832 0
M  V30 1146 C 101.957 -5.13389 -1.364 0
M  V30 1147 C 100.996 -6.09061 -0.609171 0
M  V30 1148 N 100.133 -6.84918 -1.54374 0
M  V30 1149 H 104.973 -2.91802 0.604627 0
M  V30 1150 H 102.51 -1.43797 0.309972 0
M  V30 1151 H 104.468 -3.80482 -1.7114 0
M  V30 1152 H 103.098 -2.66839 -1.8165 0
M  V30 1153 H 102.15 -3.78984 0.327929 0
M  V30 1154 H 103.462 -4.98354 0.210997 0
M  V30 1155 H 102.616 -5.7183 -2.02719 0
M  V30 1156 H 101.355 -4.45376 -1.98725 0
M  V30 1157 H 100.36 -5.49758 0.0676979 0
M  V30 1158 H 101.585 -6.79099 0.00891991 0
M  V30 1159 H 99.531 -6.19601 -2.15478 0
M  V30 1160 H 99.448 -7.49254 -1.00766 0
M  V30 1161 H 100.716 -7.47906 -2.19676 0
M  V30 1162 N 104.945 -0.338344 -1.53925 0
M  V30 1163 C 106.17 0.263987 -2.05713 0
M  V30 1164 C 106.595 1.43847 -1.21201 0
M  V30 1165 O 105.953 1.79904 -0.224535 0
M  V30 1166 C 106.001 0.662 -3.54471 0
M  V30 1167 O 105.105 1.76265 -3.72833 0
M  V30 1168 H 104.446 0.0448722 -0.662482 0
M  V30 1169 H 106.976 -0.491048 -1.9862 0
M  V30 1170 H 106.986 0.940594 -3.9701 0
M  V30 1171 H 105.661 -0.196937 -4.15433 0
M  V30 1172 H 104.238 1.48173 -3.42198 0
M  V30 1173 N 106.423 1.57458 -0.0668435 0
M  V30 1174 C 107.386 2.11323 0.887422 0
M  V30 1175 C 108.386 1.03618 1.22964 0
M  V30 1176 O 109.576 1.29626 1.16373 0
M  V30 1177 C 106.708 2.61048 2.19242 0
M  V30 1178 H 107.901 2.96942 0.420194 0
M  V30 1179 H 105.454 1.55239 0.181793 0
M  V30 1180 H 106.189 1.78868 2.70512 0
M  V30 1181 H 105.974 3.39769 1.95702 0
M  V30 1182 H 107.464 3.02814 2.87565 0
M  V30 1183 N 107.901 -0.206675 1.56239 0
M  V30 1184 C 108.864 -1.23976 1.92776 0
M  V30 1185 C 109.864 -1.39041 0.807729 0
M  V30 1186 O 111.054 -1.37051 1.0753 0
M  V30 1187 C 108.186 -2.61112 2.19165 0
M  V30 1188 H 109.379 -0.927764 2.85189 0
M  V30 1189 H 106.932 -0.447718 1.4975 0
M  V30 1190 H 107.667 -2.97386 1.29352 0
M  V30 1191 H 107.452 -2.51552 3.00772 0
M  V30 1192 H 108.942 -3.35633 2.48476 0
M  V30 1193 N 109.379 -1.50304 -0.473955 0
M  V30 1194 C 110.656 -1.51667 -1.23518 0
M  V30 1195 C 111.036 -0.259701 -2.09496 0
M  V30 1196 O 110.384 0.756986 -2.15597 0
M  V30 1197 C 110.594 -2.81082 -2.06868 0
M  V30 1198 C 111.942 -3.31631 -2.65153 0
M  V30 1199 O 112.966 -2.82384 -2.17113 0
M  V30 1200 O 111.825 -4.17471 -3.52675 0
M  V30 1201 H 108.919 -0.60822 -0.560355 0
M  V30 1202 H 111.465 -1.62592 -0.486011 0
M  V30 1203 H 110.237 -3.64041 -1.4349 0
M  V30 1204 H 109.86 -2.73146 -2.88924 0
M  V30 1205 N 110.857 0.726932 -1.39834 0
M  V30 1206 C 111.82 1.82269 -1.38962 0
M  V30 1207 C 112.82 1.58248 -0.285334 0
M  V30 1208 O 114.01 1.65499 -0.54366 0
M  V30 1209 C 111.142 3.20186 -1.17019 0
M  V30 1210 H 112.335 1.84443 -2.36476 0
M  V30 1211 H 109.888 0.931416 -1.25516 0
M  V30 1212 H 110.623 3.23669 -0.202204 0
M  V30 1213 H 110.408 3.3902 -1.96998 0
M  V30 1214 H 111.898 4.00235 -1.1917 0
M  V30 1215 N 112.336 1.25143 0.95797 0
M  V30 1216 C 113.246 1.06968 2.08794 0
M  V30 1217 C 114.262 0.00773911 1.73998 0
M  V30 1218 O 115.438 0.207972 2.00323 0
M  V30 1219 C 112.503 0.68691 3.39827 0
M  V30 1220 C 111.564 1.82641 3.88511 0
M  V30 1221 C 110.797 1.46181 5.1329 0
M  V30 1222 O 111.02 0.355971 5.69288 0
M  V30 1223 O 109.954 2.29085 5.566 0
M  V30 1224 H 113.78 2.01723 2.27027 0
M  V30 1225 H 111.365 1.04051 1.07209 0
M  V30 1226 H 113.247 0.485417 4.18595 0
M  V30 1227 H 111.922 -0.231417 3.22872 0
M  V30 1228 H 110.829 2.08274 3.10762 0
M  V30 1229 H 112.162 2.72386 4.09959 0
M  V30 1230 N 113.814 -1.1601 1.06675 0
M  V30 1231 C 115.062 -1.86264 0.784229 0
M  V30 1232 C 115.383 -1.82328 -0.691488 0
M  V30 1233 O 114.653 -1.25947 -1.50047 0
M  V30 1234 H 113.233 -0.689621 0.28711 0
M  V30 1235 H 115.895 -1.40664 1.34906 0
M  V30 1236 H 114.991 -2.91595 1.11259 0
M  V30 1237 N 115.292 -0.849877 -1.32721 0
M  V30 1238 C 116.522 -0.46408 -2.0132 0
M  V30 1239 C 116.93 0.94246 -1.64056 0
M  V30 1240 O 116.273 1.6257 -0.855379 0
M  V30 1241 C 116.335 -0.517887 -3.5575 0
M  V30 1242 C 115.999 -1.88248 -4.16427 0
M  V30 1243 C 116.996 -2.84726 -4.35002 0
M  V30 1244 C 114.681 -2.17832 -4.52609 0
M  V30 1245 C 116.675 -4.08945 -4.8892 0
M  V30 1246 C 114.362 -3.42304 -5.06232 0
M  V30 1247 C 115.36 -4.37677 -5.24335 0
M  V30 1248 O 115.048 -5.59946 -5.76815 0
M  V30 1249 H 114.78 -0.181327 -0.651227 0
M  V30 1250 H 117.334 -1.14713 -1.70382 0
M  V30 1251 H 115.564 0.221997 -3.86062 0
M  V30 1252 H 117.253 -0.148366 -4.05629 0
M  V30 1253 H 118.019 -2.63174 -4.07388 0
M  V30 1254 H 113.898 -1.44385 -4.37806 0
M  V30 1255 H 117.442 -4.83396 -5.02966 0
M  V30 1256 H 113.339 -3.63709 -5.33278 0
M  V30 1257 H 114.107 -5.61838 -5.95214 0
M  V30 1258 N 116.77 1.45427 -0.607355 0
M  V30 1259 C 117.7 2.3329 0.0989352 0
M  V30 1260 C 118.681 1.46816 0.859007 0
M  V30 1261 O 119.866 1.75588 0.829604 0
M  V30 1262 C 116.996 3.29518 1.09705 0
M  V30 1263 C 115.95 4.25626 0.450206 0
M  V30 1264 C 115.276 5.11542 1.55655 0
M  V30 1265 C 116.576 5.18505 -0.628455 0
M  V30 1266 H 118.27 2.92595 -0.634716 0
M  V30 1267 H 115.816 1.40696 -0.306681 0
M  V30 1268 H 117.769 3.89855 1.59971 0
M  V30 1269 H 116.493 2.68372 1.86129 0
M  V30 1270 H 115.152 3.66586 -0.0315886 0
M  V30 1271 H 114.8 4.46765 2.31107 0
M  V30 1272 H 114.5 5.76647 1.12925 0
M  V30 1273 H 116.024 5.74748 2.06148 0
M  V30 1274 H 117.438 5.72916 -0.209877 0
M  V30 1275 H 115.835 5.92085 -0.977489 0
M  V30 1276 H 116.905 4.60948 -1.50514 0
M  V30 1277 N 118.248 0.346503 1.53744 0
M  V30 1278 C 119.211 -0.496439 2.23759 0
M  V30 1279 C 120.211 -1.0252 1.2388 0
M  V30 1280 O 121.401 -0.913974 1.48297 0
M  V30 1281 C 118.533 -1.69187 2.95954 0
M  V30 1282 H 119.726 0.115952 2.99676 0
M  V30 1283 H 117.279 0.0978939 1.55993 0
M  V30 1284 H 118.014 -2.34288 2.24231 0
M  V30 1285 H 117.799 -1.31989 3.69217 0
M  V30 1286 H 119.289 -2.28969 3.49232 0
M  V30 1287 N 119.726 -1.57421 0.075193 0
M  V30 1288 C 120.676 -2.09441 -0.901025 0
M  V30 1289 C 121.66 -1.00486 -1.25663 0
M  V30 1290 O 122.852 -1.2679 -1.23504 0
M  V30 1291 C 119.981 -2.66233 -2.16737 0
M  V30 1292 C 119.067 -3.82198 -1.83808 0
M  V30 1293 N 119.458 -4.91028 -1.21345 0
M  V30 1294 C 117.756 -3.91558 -2.13538 0
M  V30 1295 C 118.457 -5.71852 -1.06585 0
M  V30 1296 N 117.433 -5.20233 -1.57667 0
M  V30 1297 H 121.235 -2.90972 -0.413815 0
M  V30 1298 H 118.749 -1.6189 -0.128601 0
M  V30 1299 H 120.746 -3.01819 -2.87595 0
M  V30 1300 H 119.406 -1.8615 -2.66042 0
M  V30 1301 H 120.417 -5.10323 -0.88268 0
M  V30 1302 H 117.094 -3.22454 -2.65197 0
M  V30 1303 H 118.484 -6.69401 -0.578933 0
M  V30 1304 N 121.204 0.198386 -1.56346 0
M  V30 1305 C 122.615 0.763358 -1.70381 0
M  V30 1306 C 122.966 1.83995 -0.681203 0
M  V30 1307 O 122.091 2.15785 0.16305 0
M  V30 1308 C 122.686 1.39143 -3.08909 0
M  V30 1309 C 121.245 1.90352 -3.2472 0
M  V30 1310 C 120.392 0.772233 -2.6633 0
M  V30 1311 H 123.343 -0.0266377 -1.58678 0
M  V30 1312 H 123.364 2.26076 -3.06055 0
M  V30 1313 H 122.876 0.607638 -3.83314 0
M  V30 1314 H 120.977 2.71461 -2.55225 0
M  V30 1315 H 121.09 2.06757 -4.3219 0
M  V30 1316 H 119.454 1.18566 -2.2542 0
M  V30 1317 H 120.237 0.00073556 -3.433 0
M  V30 1318 N 122.682 1.50554 0.465978 0
M  V30 1319 C 123.928 1.62038 1.21949 0
M  V30 1320 C 124.261 0.322116 1.9151 0
M  V30 1321 O 123.536 -0.676723 1.82348 0
M  V30 1322 C 123.819 2.80421 2.25912 0
M  V30 1323 C 123.672 4.20144 1.60622 0
M  V30 1324 C 124.991 2.94354 3.27176 0
M  V30 1325 H 122.11 0.589752 0.441998 0
M  V30 1326 H 124.752 1.82956 0.51257 0
M  V30 1327 H 122.902 2.62717 2.86203 0
M  V30 1328 H 124.574 4.49449 1.03889 0
M  V30 1329 H 122.817 4.24165 0.909211 0
M  V30 1330 H 123.488 4.98914 2.36196 0
M  V30 1331 H 125.964 3.10578 2.76913 0
M  V30 1332 H 124.84 3.788 3.97242 0
M  V30 1333 H 125.101 2.05186 3.916 0
M  V30 1334 N 124.16 -0.719506 1.40217 0
M  V30 1335 C 125.108 -1.85493 1.40339 0
M  V30 1336 C 126.102 -1.66995 0.284415 0
M  V30 1337 O 127.308 -1.74148 0.455252 0
M  V30 1338 H 123.683 -0.610857 0.438586 0
M  V30 1339 H 125.654 -1.82506 2.36081 0
M  V30 1340 C 124.403 -3.23321 1.27901 0
M  V30 1341 H 123.726 -3.38159 2.1328 0
M  V30 1342 H 125.166 -4.02914 1.32045 0
M  V30 1343 C 123.625 -3.36898 -0.0111355 0
M  V30 1344 O 124.155 -3.89674 -0.975538 0
M  V30 1345 N 122.361 -2.90492 -0.0793393 0
M  V30 1346 H 121.908 -2.47731 0.706183 0
M  V30 1347 H 121.866 -2.99955 -0.942038 0
M  V30 1348 N 125.638 -1.25649 -0.95132 0
M  V30 1349 C 126.601 -1.06399 -2.03007 0
M  V30 1350 C 127.601 -0.0156794 -1.60792 0
M  V30 1351 O 128.791 -0.25817 -1.72276 0
M  V30 1352 C 125.923 -0.616184 -3.35285 0
M  V30 1353 H 127.116 -2.02164 -2.21517 0
M  V30 1354 H 124.669 -1.08103 -1.12887 0
M  V30 1355 H 125.404 0.343917 -3.22471 0
M  V30 1356 H 125.189 -1.37301 -3.67275 0
M  V30 1357 H 126.679 -0.503032 -4.14559 0
M  V30 1358 N 127.117 1.15442 -1.07289 0
M  V30 1359 C 128.347 1.89821 -0.815576 0
M  V30 1360 C 128.755 1.7823 0.634867 0
M  V30 1361 O 128.098 1.13152 1.44715 0
M  V30 1362 C 128.16 3.40817 -1.14385 0
M  V30 1363 C 127.824 3.76193 -2.59476 0
M  V30 1364 C 128.821 3.77269 -3.57721 0
M  V30 1365 C 126.506 4.0652 -2.95037 0
M  V30 1366 C 128.5 4.08176 -4.89562 0
M  V30 1367 C 126.187 4.37092 -4.27076 0
M  V30 1368 C 127.185 4.37902 -5.24148 0
M  V30 1369 O 126.873 4.67741 -6.53815 0
M  V30 1370 H 126.605 0.608465 -0.294528 0
M  V30 1371 H 129.159 1.472 -1.43252 0
M  V30 1372 H 127.389 3.83835 -0.469865 0
M  V30 1373 H 129.078 3.96485 -0.869179 0
M  V30 1374 H 129.844 3.5394 -3.3159 0
M  V30 1375 H 125.723 4.05049 -2.20128 0
M  V30 1376 H 129.267 4.08723 -5.65324 0
M  V30 1377 H 125.164 4.59889 -4.5296 0
M  V30 1378 H 125.932 4.85509 -6.58957 0
M  V30 1379 N 128.595 0.856903 1.32268 0
M  V30 1380 C 129.542 0.301172 2.28827 0
M  V30 1381 C 130.512 -0.593104 1.5515 0
M  V30 1382 O 131.697 -0.527537 1.83362 0
M  V30 1383 C 128.837 -0.502523 3.41422 0
M  V30 1384 C 127.95 0.417797 4.29975 0
M  V30 1385 C 127.085 -0.398749 5.29701 0
M  V30 1386 C 126.124 0.518827 6.09897 0
M  V30 1387 N 125.261 -0.260674 7.01616 0
M  V30 1388 H 130.101 1.12983 2.75751 0
M  V30 1389 H 127.638 0.568582 1.35667 0
M  V30 1390 H 129.596 -0.984141 4.05426 0
M  V30 1391 H 128.226 -1.29599 2.95642 0
M  V30 1392 H 127.278 1.01781 3.66531 0
M  V30 1393 H 128.59 1.12191 4.86019 0
M  V30 1394 H 127.744 -0.943435 5.9932 0
M  V30 1395 H 126.483 -1.13622 4.7428 0
M  V30 1396 H 125.488 1.07538 5.39181 0
M  V30 1397 H 126.713 1.25495 6.67404 0
M  V30 1398 H 124.659 -0.981198 6.4862 0
M  V30 1399 H 124.576 0.384364 7.55022 0
M  V30 1400 H 125.844 -0.787014 7.75517 0
M  V30 1401 N 130.073 -1.45103 0.615059 0
M  V30 1402 C 131.003 -2.33339 -0.0865619 0
M  V30 1403 C 131.984 -1.4727 -0.851209 0
M  V30 1404 O 133.169 -1.76026 -0.820281 0
M  V30 1405 C 130.299 -3.30095 -1.07956 0
M  V30 1406 C 129.253 -4.25858 -0.427628 0
M  V30 1407 C 128.579 -5.12361 -1.5294 0
M  V30 1408 C 129.879 -5.18165 0.655944 0
M  V30 1409 H 131.573 -2.92254 0.650224 0
M  V30 1410 H 129.119 -1.40532 0.314138 0
M  V30 1411 H 131.072 -3.90698 -1.57901 0
M  V30 1412 H 129.796 -2.69355 -1.84703 0
M  V30 1413 H 128.455 -3.66564 0.0510292 0
M  V30 1414 H 128.103 -4.47984 -2.28734 0
M  V30 1415 H 127.803 -5.77238 -1.09865 0
M  V30 1416 H 129.327 -5.75833 -2.03098 0
M  V30 1417 H 130.741 -5.72796 0.240257 0
M  V30 1418 H 129.138 -5.91559 1.00888 0
M  V30 1419 H 130.208 -4.60144 1.52957 0
M  V30 1420 N 131.551 -0.354651 -1.53558 0
M  V30 1421 C 132.797 0.238797 -2.01389 0
M  V30 1422 C 133.13 1.49309 -1.2418 0
M  V30 1423 O 132.405 1.91638 -0.332457 0
M  V30 1424 C 132.688 0.541771 -3.56001 0
M  V30 1425 C 132.541 -0.725388 -4.43912 0
M  V30 1426 C 133.86 1.34685 -4.18984 0
M  V30 1427 H 130.979 0.0853177 -0.732045 0
M  V30 1428 H 133.621 -0.477384 -1.83905 0
M  V30 1429 H 131.771 1.15189 -3.71031 0
M  V30 1430 H 133.443 -1.36313 -4.407 0
M  V30 1431 H 131.686 -1.34801 -4.12324 0
M  V30 1432 H 132.357 -0.468505 -5.50008 0
M  V30 1433 H 134.833 0.830837 -4.07721 0
M  V30 1434 H 133.709 1.52759 -5.27215 0
M  V30 1435 H 133.97 2.35221 -3.74331 0
M  V30 1436 N 133.029 1.57378 -0.0835403 0
M  V30 1437 C 133.976 2.13384 0.879539 0
M  V30 1438 C 134.946 1.04936 1.28754 0
M  V30 1439 O 136.131 1.32662 1.37133 0
M  V30 1440 C 133.271 2.70932 2.13752 0
M  V30 1441 C 132.384 3.93575 1.7811 0
M  V30 1442 C 131.519 4.39326 2.98607 0
M  V30 1443 C 130.558 5.54587 2.59037 0
M  V30 1444 N 129.695 5.95243 3.72331 0
M  V30 1445 H 134.535 2.9537 0.395076 0
M  V30 1446 H 132.072 1.45953 0.183349 0
M  V30 1447 H 134.03 3.02411 2.87408 0
M  V30 1448 H 132.66 1.91693 2.59718 0
M  V30 1449 H 131.712 3.68483 0.94469 0
M  V30 1450 H 133.024 4.77258 1.45005 0
M  V30 1451 H 132.178 4.72528 3.80529 0
M  V30 1452 H 130.917 3.5452 3.34913 0
M  V30 1453 H 129.922 5.21024 1.75539 0
M  V30 1454 H 131.147 6.41133 2.23887 0
M  V30 1455 H 129.093 5.13385 4.08378 0
M  V30 1456 H 129.01 6.73694 3.43034 0
M  V30 1457 H 130.278 6.33072 4.54797 0
M  V30 1458 N 134.507 -0.190092 1.56449 0
M  V30 1459 C 135.923 -0.54113 1.50146 0
M  V30 1460 C 136.123 -1.85603 0.784465 0
M  V30 1461 O 135.179 -2.5024 0.337051 0
M  V30 1462 C 136.492 -0.591241 2.9483 0
M  V30 1463 C 138.04 -0.679732 3.0553 0
M  V30 1464 C 138.515 -0.760908 4.51635 0
M  V30 1465 N 140.006 -0.824302 4.55806 0
M  V30 1466 C 140.741 -0.907365 5.66175 0
M  V30 1467 N 140.237 -0.952422 6.86222 0
M  V30 1468 N 142.03 -0.94494 5.541 0
M  V30 1469 H 134.181 0.67235 2.01478 0
M  V30 1470 H 136.444 0.240127 0.917084 0
M  V30 1471 H 136.15 0.305905 3.50367 0
M  V30 1472 H 136.024 -1.44422 3.48457 0
M  V30 1473 H 138.411 -1.56731 2.50039 0
M  V30 1474 H 138.492 0.199549 2.5502 0
M  V30 1475 H 138.136 0.122336 5.07753 0
M  V30 1476 H 138.066 -1.65606 4.99882 0
M  V30 1477 H 140.557 -0.798526 3.69367 0
M  V30 1478 H 140.87 -1.01645 7.66086 0
M  V30 1479 H 139.215 -0.921014 6.8887 0
M  V30 1480 H 142.406 -0.906612 4.59236 0
M  V30 1481 H 142.579 -1.00622 6.4014 0
M  V30 1482 N 135.985 -1.50799 -0.457987 0
M  V30 1483 C 136.915 -1.73553 -1.5621 0
M  V30 1484 C 137.896 -0.584774 -1.59732 0
M  V30 1485 O 139.081 -0.825314 -1.7579 0
M  V30 1486 C 136.211 -1.84169 -2.94447 0
M  V30 1487 C 135.165 -2.99461 -3.0579 0
M  V30 1488 C 134.491 -2.95235 -4.45803 0
M  V30 1489 C 135.791 -4.39766 -2.81786 0
M  V30 1490 H 137.485 -2.66 -1.37421 0
M  V30 1491 H 135.031 -1.28002 -0.659662 0
M  V30 1492 H 136.984 -1.98672 -3.71628 0
M  V30 1493 H 135.708 -0.883545 -3.14422 0
M  V30 1494 H 134.367 -2.8463 -2.31044 0
M  V30 1495 H 134.015 -1.97239 -4.62715 0
M  V30 1496 H 133.715 -3.72642 -4.54326 0
M  V30 1497 H 135.239 -3.11803 -5.24987 0
M  V30 1498 H 136.653 -4.55054 -3.4871 0
M  V30 1499 H 135.05 -5.18722 -3.0174 0
M  V30 1500 H 136.12 -4.51229 -1.7754 0
M  V30 1501 N 137.463 0.71206 -1.40597 0
M  V30 1502 C 138.411 1.84746 -1.41321 0
M  V30 1503 C 139.405 1.66842 -0.293268 0
M  V30 1504 O 140.611 1.73904 -0.464481 0
M  V30 1505 H 136.986 0.608522 -0.441819 0
M  V30 1506 H 138.957 1.81252 -2.37045 0
M  V30 1507 C 137.706 3.22638 -1.29614 0
M  V30 1508 H 137.029 3.37023 -2.15071 0
M  V30 1509 H 138.469 4.02209 -1.3418 0
M  V30 1510 C 136.928 3.36899 -0.00673121 0
M  V30 1511 O 137.458 3.90186 0.954859 0
M  V30 1512 N 135.664 2.9053 0.0639327 0
M  V30 1513 H 135.211 2.47353 -0.719311 0
M  V30 1514 H 135.169 3.0045 0.926118 0
M  V30 1515 N 138.941 1.26152 0.944643 0
M  V30 1516 C 140.169 1.14259 1.72489 0
M  V30 1517 C 140.584 -0.302555 1.8636 0
M  V30 1518 O 139.941 -1.20741 1.36849 0
M  V30 1519 C 139.992 1.80266 3.13347 0
M  V30 1520 O 139.713 3.19133 3.00143 0
M  V30 1521 C 141.214 1.74283 4.07603 0
M  V30 1522 H 138.434 0.398051 0.540181 0
M  V30 1523 H 140.978 1.66706 1.18446 0
M  V30 1524 H 139.133 1.31766 3.64303 0
M  V30 1525 H 139.547 3.51744 3.89071 0
M  V30 1526 H 141.021 2.25111 5.04013 0
M  V30 1527 H 141.498 0.708631 4.33446 0
M  V30 1528 H 142.104 2.22319 3.62567 0
M  V30 1529 N 140.419 -1.14872 1.07899 0
M  V30 1530 C 141.696 -1.81928 0.71845 0
M  V30 1531 C 142.076 -1.95417 -0.798455 0
M  V30 1532 O 141.424 -1.50997 -1.715 0
M  V30 1533 C 141.634 -3.17937 1.43935 0
M  V30 1534 C 142.982 -3.93501 1.59506 0
M  V30 1535 O 144.006 -3.27509 1.40058 0
M  V30 1536 O 142.865 -5.1183 1.91551 0
M  V30 1537 H 139.959 -0.78628 0.256305 0
M  V30 1538 H 142.505 -1.21934 1.18026 0
M  V30 1539 H 141.277 -3.0325 2.47295 0
M  V30 1540 H 140.9 -3.85619 0.968687 0
M  V30 1541 N 141.898 -0.863906 -1.31812 0
M  V30 1542 C 143.144 -0.481841 -1.9761 0
M  V30 1543 C 143.499 0.954048 -1.6708 0
M  V30 1544 O 142.792 1.66182 -0.953624 0
M  V30 1545 C 142.986 -0.668547 -3.51091 0
M  V30 1546 C 142.815 -2.12103 -3.96538 0
M  V30 1547 C 141.585 -2.76141 -4.23171 0
M  V30 1548 C 143.783 -3.09265 -4.10925 0
M  V30 1549 N 141.765 -4.12205 -4.54929 0
M  V30 1550 C 143.136 -4.30341 -4.46326 0
M  V30 1551 C 145.191 -3.05337 -3.93286 0
M  V30 1552 C 143.894 -5.48 -4.65928 0
M  V30 1553 C 145.92 -4.22248 -4.14078 0
M  V30 1554 C 145.282 -5.42085 -4.49804 0
M  V30 1555 H 141.381 -0.225238 -0.74886 0
M  V30 1556 H 143.965 -1.11723 -1.59455 0
M  V30 1557 H 142.136 -0.0627898 -3.88349 0
M  V30 1558 H 143.868 -0.255467 -4.03893 0
M  V30 1559 H 140.623 -2.27125 -4.15585 0
M  V30 1560 H 141.047 -4.82416 -4.74978 0
M  V30 1561 H 145.689 -2.138 -3.64759 0
M  V30 1562 H 143.407 -6.40059 -4.93305 0
M  V30 1563 H 146.993 -4.20654 -4.01922 0
M  V30 1564 H 145.873 -6.31044 -4.65567 0
M  V30 1565 N 143.376 1.44774 -0.622745 0
M  V30 1566 C 144.787 1.85546 -0.207226 0
M  V30 1567 C 145.138 1.52093 1.23944 0
M  V30 1568 O 144.263 0.95492 1.94191 0
M  V30 1569 C 144.858 3.36781 -0.369313 0
M  V30 1570 C 143.417 3.76399 -0.00836847 0
M  V30 1571 C 142.564 2.68664 -0.686651 0
M  V30 1572 H 145.515 1.3536 -0.828454 0
M  V30 1573 H 145.536 3.78453 0.394162 0
M  V30 1574 H 145.048 3.61098 -1.42231 0
M  V30 1575 H 143.149 3.57698 1.04322 0
M  V30 1576 H 143.262 4.7732 -0.412584 0
M  V30 1577 H 141.626 2.54404 -0.122777 0
M  V30 1578 H 142.409 2.95815 -1.74208 0
M  V30 1579 N 144.854 0.36279 1.53368 0
M  V30 1580 C 145.817 -0.472679 2.24273 0
M  V30 1581 C 146.817 -1.012 1.24961 0
M  V30 1582 O 148.007 -0.898194 1.49259 0
M  V30 1583 C 145.139 -1.66039 2.97731 0
M  V30 1584 H 146.332 0.14773 2.99536 0
M  V30 1585 H 143.885 0.114434 1.55881 0
M  V30 1586 H 144.62 -2.31896 2.26704 0
M  V30 1587 H 144.405 -1.28066 3.70596 0
M  V30 1588 H 145.895 -2.25252 3.51641 0
M  V30 1589 N 146.332 -1.57332 0.0918853 0
M  V30 1590 C 147.262 -2.16872 -0.865371 0
M  V30 1591 C 148.243 -1.10118 -1.29646 0
M  V30 1592 O 149.428 -1.38242 -1.36392 0
M  V30 1593 C 146.558 -2.74649 -2.12569 0
M  V30 1594 C 145.512 -3.86747 -1.83333 0
M  V30 1595 C 144.838 -4.31212 -3.16166 0
M  V30 1596 C 146.138 -5.10089 -1.1228 0
M  V30 1597 H 147.832 -2.97114 -0.369307 0
M  V30 1598 H 145.378 -1.42918 -0.176194 0
M  V30 1599 H 147.331 -3.14952 -2.7997 0
M  V30 1600 H 146.055 -1.91657 -2.64452 0
M  V30 1601 H 144.714 -3.46978 -1.18331 0
M  V30 1602 H 144.362 -3.45115 -3.6593 0
M  V30 1603 H 144.062 -5.06788 -2.97388 0
M  V30 1604 H 145.586 -4.74146 -3.84731 0
M  V30 1605 H 147 -5.47582 -1.69785 0
M  V30 1606 H 145.397 -5.91073 -1.03693 0
M  V30 1607 H 146.467 -4.84786 -0.105041 0
M  V30 1608 N 147.81 0.181792 -1.56548 0
M  V30 1609 C 148.72 1.24538 -1.98815 0
M  V30 1610 C 149.736 1.49045 -0.897861 0
M  V30 1611 O 150.912 1.61399 -1.20467 0
M  V30 1612 C 147.977 2.56683 -2.33055 0
M  V30 1613 C 147.038 2.40131 -3.55859 0
M  V30 1614 C 146.271 3.65975 -3.88456 0
M  V30 1615 O 146.494 4.70711 -3.22161 0
M  V30 1616 O 145.428 3.6071 -4.81842 0
M  V30 1617 H 149.254 0.916647 -2.89536 0
M  V30 1618 H 146.839 0.387842 -1.44278 0
M  V30 1619 H 148.721 3.34655 -2.56094 0
M  V30 1620 H 147.396 2.89157 -1.45498 0
M  V30 1621 H 146.303 1.60226 -3.38051 0
M  V30 1622 H 147.636 2.12585 -4.43924 0
M  V30 1623 N 149.288 1.51039 0.449983 0
M  V30 1624 C 150.565 1.53612 1.21089 0
M  V30 1625 C 150.945 0.292997 2.09057 0
M  V30 1626 O 150.293 -0.72259 2.16774 0
M  V30 1627 C 150.503 2.84337 2.0237 0
M  V30 1628 C 151.851 3.35807 2.59843 0
M  V30 1629 O 152.875 2.85802 2.12593 0
M  V30 1630 O 151.734 4.23029 3.45989 0
M  V30 1631 H 148.828 0.617057 0.550608 0
M  V30 1632 H 151.374 1.63344 0.460082 0
M  V30 1633 H 150.146 3.66278 1.37681 0
M  V30 1634 H 149.769 2.77708 2.84542 0
M  V30 1635 N 150.766 -0.704594 1.40972 0
M  V30 1636 C 151.696 -1.83124 1.44872 0
M  V30 1637 C 152.677 -1.67281 0.30838 0
M  V30 1638 O 153.862 -1.87149 0.518556 0
M  V30 1639 C 150.992 -3.21181 1.32136 0
M  V30 1640 C 149.946 -3.51714 2.43888 0
M  V30 1641 C 149.272 -4.89032 2.16222 0
M  V30 1642 C 150.572 -3.516 3.86232 0
M  V30 1643 H 152.266 -1.80117 2.39161 0
M  V30 1644 H 149.812 -0.865145 1.15114 0
M  V30 1645 H 151.765 -3.99702 1.33479 0
M  V30 1646 H 150.489 -3.24791 0.343279 0
M  V30 1647 H 149.148 -2.75539 2.41813 0
M  V30 1648 H 148.796 -4.89256 1.16778 0
M  V30 1649 H 148.496 -5.10426 2.911 0
M  V30 1650 H 150.02 -5.69873 2.19265 0
M  V30 1651 H 151.434 -4.2014 3.9007 0
M  V30 1652 H 149.831 -3.84523 4.60719 0
M  V30 1653 H 150.901 -2.50757 4.15029 0
M  V30 1654 N 152.244 -1.26651 -0.937939 0
M  V30 1655 C 153.49 -1.12553 -1.687 0
M  V30 1656 C 153.823 0.329782 -1.91379 0
M  V30 1657 O 153.098 1.24202 -1.4968 0
M  V30 1658 C 153.381 -1.89862 -3.05981 0
M  V30 1659 C 153.234 -3.43318 -2.90607 0
M  V30 1660 C 154.553 -1.69499 -4.0615 0
M  V30 1661 H 151.672 -0.410257 -0.612257 0
M  V30 1662 H 154.314 -1.55685 -1.08913 0
M  V30 1663 H 152.464 -1.53204 -3.57017 0
M  V30 1664 H 154.136 -3.89747 -2.46769 0
M  V30 1665 H 152.379 -3.70179 -2.26164 0
M  V30 1666 H 153.05 -3.92642 -3.8799 0
M  V30 1667 H 155.526 -2.01442 -3.64088 0
M  V30 1668 H 154.402 -2.26002 -5.00214 0
M  V30 1669 H 154.663 -0.640365 -4.37438 0
M  V30 1670 N 153.722 1.14298 -1.08507 0
M  V30 1671 C 154.652 2.21542 -0.737646 0
M  V30 1672 C 155.633 1.67773 0.280377 0
M  V30 1673 O 156.818 1.93616 0.150521 0
M  V30 1674 C 153.948 3.46988 -0.147259 0
M  V30 1675 C 152.902 4.13789 -1.09374 0
M  V30 1676 C 152.228 5.33449 -0.365524 0
M  V30 1677 C 153.528 4.62208 -2.4323 0
M  V30 1678 H 155.222 2.5086 -1.6343 0
M  V30 1679 H 152.768 1.20576 -0.787243 0
M  V30 1680 H 154.721 4.21262 0.107808 0
M  V30 1681 H 153.445 3.17037 0.784538 0
M  V30 1682 H 152.104 3.4147 -1.33393 0
M  V30 1683 H 151.752 4.99759 0.57011 0
M  V30 1684 H 151.452 5.79088 -0.996512 0
M  V30 1685 H 152.976 6.10485 -0.118534 0
M  V30 1686 H 154.39 5.27952 -2.23472 0
M  V30 1687 H 152.787 5.18553 -3.02031 0
M  V30 1688 H 153.857 3.77224 -3.04681 0
M  V30 1689 N 155.201 0.870884 1.31352 0
M  V30 1690 C 156.133 0.28455 2.27427 0
M  V30 1691 C 157.146 -0.552927 1.53123 0
M  V30 1692 O 158.335 -0.374771 1.74521 0
M  V30 1693 C 155.435 -0.615164 3.3327 0
M  V30 1694 C 154.608 0.190079 4.36987 0
M  V30 1695 C 153.667 -0.637917 5.22319 0
M  V30 1696 O 152.693 -0.065626 5.69162 0
M  V30 1697 N 153.895 -1.94973 5.46778 0
M  V30 1698 H 156.66 1.11017 2.7838 0
M  V30 1699 H 154.221 0.732458 1.44384 0
M  V30 1700 H 156.213 -1.1748 3.87273 0
M  V30 1701 H 154.783 -1.34146 2.82354 0
M  V30 1702 H 154.003 0.931165 3.83044 0
M  V30 1703 H 155.291 0.742579 5.03352 0
M  V30 1704 H 154.689 -2.4378 5.10478 0
M  V30 1705 H 153.246 -2.45713 6.03712 0
M  V30 1706 N 156.679 -1.44442 0.630414 0
M  V30 1707 C 157.956 -1.9549 0.0655657 0
M  V30 1708 C 158.336 -1.5724 -1.40851 0
M  V30 1709 O 157.684 -0.846116 -2.12257 0
M  V30 1710 C 157.894 -3.47812 0.287691 0
M  V30 1711 C 159.242 -4.24216 0.180513 0
M  V30 1712 O 160.266 -3.55526 0.219019 0
M  V30 1713 O 159.125 -5.46434 0.0848493 0
M  V30 1714 H 156.219 -0.826688 -0.0227177 0
M  V30 1715 H 158.765 -1.54496 0.702068 0
M  V30 1716 H 157.537 -3.687 1.31056 0
M  V30 1717 H 157.16 -3.95751 -0.382984 0
M  V30 1718 N 158.157 -0.370918 -1.53173 0
M  V30 1719 C 159.382 0.220293 -2.06227 0
M  V30 1720 C 159.807 1.41243 -1.24225 0
M  V30 1721 O 159.165 1.79387 -0.262645 0
M  V30 1722 C 159.213 0.586663 -3.55796 0
M  V30 1723 O 158.317 1.68317 -3.76488 0
M  V30 1724 H 157.658 0.0308099 -0.663285 0
M  V30 1725 H 160.188 -0.533068 -1.97534 0
M  V30 1726 H 160.198 0.85617 -3.98916 0
M  V30 1727 H 158.873 -0.285013 -4.14922 0
M  V30 1728 H 157.45 1.40881 -3.45264 0
M  V30 1729 N 159.635 1.57281 -0.100228 0
M  V30 1730 C 160.598 2.13158 0.842398 0
M  V30 1731 C 161.598 1.06202 1.20738 0
M  V30 1732 O 162.788 1.32066 1.13597 0
M  V30 1733 C 159.92 2.65639 2.13655 0
M  V30 1734 H 161.113 2.97766 0.357114 0
M  V30 1735 H 158.666 1.5559 0.148823 0
M  V30 1736 H 159.401 1.84566 2.66657 0
M  V30 1737 H 159.186 3.43844 1.88451 0
M  V30 1738 H 160.676 3.08846 2.81077 0
M  V30 1739 N 161.113 -0.173488 1.56642 0
M  V30 1740 C 162.076 -1.19859 1.95362 0
M  V30 1741 C 163.076 -1.37296 0.83704 0
M  V30 1742 O 164.266 -1.34739 1.10413 0
M  V30 1743 C 161.398 -2.56405 2.24654 0
M  V30 1744 H 162.591 -0.867062 2.87092 0
M  V30 1745 H 160.144 -0.415853 1.50666 0
M  V30 1746 H 160.879 -2.94576 1.35631 0
M  V30 1747 H 160.664 -2.45115 3.06041 0
M  V30 1748 H 162.154 -3.30287 2.5554 0
M  V30 1749 N 162.591 -1.51276 -0.441967 0
M  V30 1750 C 163.839 -1.63392 -1.18943 0
M  V30 1751 C 164.16 -0.350159 -1.9183 0
M  V30 1752 O 163.43 0.633784 -1.85364 0
M  V30 1753 H 162.01 -0.602164 -0.442049 0
M  V30 1754 H 164.672 -1.88186 -0.507165 0
M  V30 1755 H 163.768 -2.45934 -1.92154 0
M  V30 1756 N 164.069 0.697108 -1.41344 0
M  V30 1757 C 165.316 1.45714 -1.40619 0
M  V30 1758 C 165.644 1.94494 -0.0147907 0
M  V30 1759 O 164.899 1.69794 0.973066 0
M  V30 1760 C 165.198 2.68553 -2.35826 0
M  V30 1761 C 164.864 2.38438 -3.82698 0
M  V30 1762 C 163.526 2.29936 -4.22709 0
M  V30 1763 C 165.878 2.13567 -4.75435 0
M  V30 1764 C 163.206 1.94656 -5.53467 0
M  V30 1765 C 165.558 1.79797 -6.06511 0
M  V30 1766 C 164.222 1.69789 -6.45545 0
M  V30 1767 H 163.492 0.533206 -0.51456 0
M  V30 1768 H 166.139 0.796901 -1.74131 0
M  V30 1769 H 164.444 3.39503 -1.95563 0
M  V30 1770 H 166.141 3.2669 -2.32539 0
M  V30 1771 H 162.731 2.4595 -3.51008 0
M  V30 1772 H 166.915 2.19082 -4.45328 0
M  V30 1773 H 162.171 1.8546 -5.82593 0
M  V30 1774 H 166.345 1.59572 -6.77872 0
M  V30 1775 H 163.972 1.4222 -7.46778 0
M  V30 1776 N 165.547 1.27147 0.931209 0
M  V30 1777 C 166.796 1.12664 1.67302 0
M  V30 1778 C 167.109 -0.327718 1.92835 0
M  V30 1779 O 168.315 -0.593392 2.64936 0
M  V30 1780 C 166.771 1.9683 3.01307 0
M  V30 1781 C 166.379 3.46901 2.83485 0
M  V30 1782 C 168.123 1.90985 3.79111 0
M  V30 1783 C 166.03 4.23279 4.13024 0
M  V30 1784 H 164.96 0.41803 0.627509 0
M  V30 1785 H 167.611 1.51539 1.03481 0
M  V30 1786 H 165.993 1.50797 3.66164 0
M  V30 1787 H 167.167 4.00773 2.27415 0
M  V30 1788 H 165.482 3.54088 2.19113 0
M  V30 1789 H 168.079 2.45328 4.75098 0
M  V30 1790 H 168.422 0.882718 4.06834 0
M  V30 1791 H 168.955 2.34895 3.21044 0
M  V30 1792 H 165.694 5.26503 3.90481 0
M  V30 1793 H 165.214 3.74186 4.6877 0
M  V30 1794 H 166.893 4.32265 4.81411 0
M  V30 1795 N 167.025 -1.13721 1.09112 0
M  V30 1796 C 167.988 -2.17222 0.731241 0
M  V30 1797 C 168.988 -1.59035 -0.237566 0
M  V30 1798 O 170.178 -1.74192 -0.0161704 0
M  V30 1799 C 167.31 -3.40804 0.0808443 0
M  V30 1800 H 168.503 -2.50573 1.64783 0
M  V30 1801 H 166.056 -1.28493 0.889897 0
M  V30 1802 H 166.791 -3.1304 -0.847127 0
M  V30 1803 H 166.576 -3.84306 0.777896 0
M  V30 1804 H 168.066 -4.1731 -0.155657 0
M  V30 1805 N 168.503 -0.877838 -1.30888 0
M  V30 1806 C 169.451 -0.328662 -2.30266 0
M  V30 1807 C 170.445 0.560496 -1.59859 0
M  V30 1808 O 171.651 0.445722 -1.74394 0
M  V30 1809 H 168.026 -0.0876142 -0.746879 0
M  V30 1810 H 169.997 -1.18061 -2.74051 0
M  V30 1811 C 168.746 0.448071 -3.44801 0
M  V30 1812 H 168.069 -0.226859 -3.99156 0
M  V30 1813 H 169.509 0.797541 -4.16432 0
M  V30 1814 C 167.968 1.64239 -2.94155 0
M  V30 1815 O 168.498 2.74175 -2.93583 0
M  V30 1816 N 166.704 1.47716 -2.50256 0
M  V30 1817 H 166.251 0.582821 -2.5092 0
M  V30 1818 H 166.209 2.27765 -2.16727 0
M  V30 1819 N 169.982 1.44106 -0.638065 0
M  V30 1820 C 170.912 2.33448 0.0494287 0
M  V30 1821 C 171.893 1.48606 0.827672 0
M  V30 1822 O 173.078 1.77308 0.792173 0
M  V30 1823 C 170.208 3.31771 1.02691 0
M  V30 1824 C 169.162 4.26485 0.359823 0
M  V30 1825 C 168.488 5.14729 1.44769 0
M  V30 1826 C 169.788 5.17056 -0.738296 0
M  V30 1827 H 171.482 2.91183 -0.696636 0
M  V30 1828 H 169.028 1.40014 -0.336456 0
M  V30 1829 H 170.981 3.93161 1.51666 0
M  V30 1830 H 169.705 2.7226 1.80395 0
M  V30 1831 H 168.364 3.66437 -0.10934 0
M  V30 1832 H 168.012 4.51566 2.21578 0
M  V30 1833 H 167.712 5.78913 1.00668 0
M  V30 1834 H 169.236 5.78991 1.93911 0
M  V30 1835 H 170.65 5.72342 -0.331354 0
M  V30 1836 H 169.047 5.89879 -1.10286 0
M  V30 1837 H 170.117 4.57652 -1.60258 0
M  V30 1838 N 171.46 0.379036 1.52974 0
M  V30 1839 C 172.685 -0.209353 2.06341 0
M  V30 1840 C 173.11 -1.40583 1.24972 0
M  V30 1841 O 172.468 -1.79246 0.272155 0
M  V30 1842 C 172.516 -0.567786 3.56102 0
M  V30 1843 O 171.62 -1.66318 3.77375 0
M  V30 1844 H 170.961 -0.0272919 0.663439 0
M  V30 1845 H 173.491 0.543536 1.97248 0
M  V30 1846 H 173.501 -0.835003 3.99364 0
M  V30 1847 H 172.176 0.307013 4.14765 0
M  V30 1848 H 170.753 -1.39048 3.46006 0
M  V30 1849 N 172.938 -1.57226 0.108567 0
M  V30 1850 C 174.184 -1.95121 -0.552761 0
M  V30 1851 C 174.517 -0.991345 -1.66991 0
M  V30 1852 O 173.792 -0.0267211 -1.94482 0
M  V30 1853 C 174.075 -3.43039 -1.09528 0
M  V30 1854 C 173.928 -4.49797 0.0177332 0
M  V30 1855 C 175.247 -3.92567 -1.98945 0
M  V30 1856 H 172.366 -0.709496 -0.199461 0
M  V30 1857 H 175.008 -1.89126 0.182011 0
M  V30 1858 H 173.158 -3.48279 -1.72146 0
M  V30 1859 H 174.83 -4.56661 0.652584 0
M  V30 1860 H 173.073 -4.284 0.682309 0
M  V30 1861 H 173.744 -5.50528 -0.402919 0
M  V30 1862 H 176.22 -3.89565 -1.46214 0
M  V30 1863 H 175.096 -4.96605 -2.33827 0
M  V30 1864 H 175.357 -3.32648 -2.91201 0
M  V30 1865 N 174.416 0.165178 -1.56732 0
M  V30 1866 C 175.348 1.22911 -1.93457 0
M  V30 1867 C 176.361 1.40152 -0.828333 0
M  V30 1868 O 177.55 1.40046 -1.10677 0
M  V30 1869 C 174.65 2.59686 -2.17753 0
M  V30 1870 C 173.823 2.63663 -3.48999 0
M  V30 1871 C 172.882 3.81845 -3.62051 0
M  V30 1872 O 171.908 3.67559 -4.34613 0
M  V30 1873 N 173.11 4.98557 -2.97357 0
M  V30 1874 H 175.875 0.917118 -2.85323 0
M  V30 1875 H 173.436 0.354895 -1.57962 0
M  V30 1876 H 175.428 3.37225 -2.23743 0
M  V30 1877 H 173.998 2.83251 -1.32242 0
M  V30 1878 H 173.218 1.72173 -3.54612 0
M  V30 1879 H 174.506 2.63336 -4.35352 0
M  V30 1880 H 173.904 5.13065 -2.38287 0
M  V30 1881 H 172.461 5.73936 -3.08934 0
M  V30 1882 N 175.894 1.51508 0.433938 0
M  V30 1883 C 177.31 1.39759 0.770682 0
M  V30 1884 C 177.51 0.482594 1.95636 0
M  V30 1885 O 176.566 -0.0609691 2.52426 0
M  V30 1886 C 177.879 2.81851 1.04787 0
M  V30 1887 C 179.427 2.91025 1.1521 0
M  V30 1888 C 179.902 4.34032 1.46219 0
M  V30 1889 N 181.393 4.37154 1.53136 0
M  V30 1890 C 182.128 5.4484 1.78709 0
M  V30 1891 N 181.624 6.62682 2.02051 0
M  V30 1892 N 183.417 5.32324 1.80519 0
M  V30 1893 H 175.568 2.09548 -0.346892 0
M  V30 1894 H 177.831 0.943446 -0.0928074 0
M  V30 1895 H 177.537 3.50815 0.249304 0
M  V30 1896 H 177.411 3.21386 1.97461 0
M  V30 1897 H 179.798 2.22257 1.94128 0
M  V30 1898 H 179.879 2.54983 0.204281 0
M  V30 1899 H 179.523 5.03351 0.678274 0
M  V30 1900 H 179.453 4.6759 2.42212 0
M  V30 1901 H 181.944 3.52197 1.36987 0
M  V30 1902 H 182.257 7.40543 2.20943 0
M  V30 1903 H 180.602 6.65791 1.99366 0
M  V30 1904 H 183.793 4.39246 1.61805 0
M  V30 1905 H 183.966 6.16328 2.00111 0
M  V30 1906 N 177.372 -0.689602 1.41712 0
M  V30 1907 C 178.304 -1.815 1.39966 0
M  V30 1908 C 179.317 -1.59995 0.300917 0
M  V30 1909 O 180.506 -1.69387 0.563039 0
M  V30 1910 C 177.606 -3.18364 1.16179 0
M  V30 1911 C 176.779 -3.66847 2.38206 0
M  V30 1912 C 175.838 -4.82398 2.10186 0
M  V30 1913 O 174.864 -4.93706 2.83272 0
M  V30 1914 N 176.066 -5.70064 1.0958 0
M  V30 1915 H 178.831 -1.83488 2.36965 0
M  V30 1916 H 176.392 -0.872149 1.36401 0
M  V30 1917 H 178.384 -3.93301 0.953756 0
M  V30 1918 H 176.954 -3.11365 0.27756 0
M  V30 1919 H 176.174 -2.82751 2.74673 0
M  V30 1920 H 177.462 -3.95978 3.19498 0
M  V30 1921 H 176.86 -5.63565 0.491019 0
M  V30 1922 H 175.417 -6.44874 0.947656 0
M  V30 1923 N 178.85 -1.27639 -0.924453 0
M  V30 1924 C 180.097 -1.14167 -1.67249 0
M  V30 1925 C 180.425 0.311863 -1.91984 0
M  V30 1926 O 179.68 1.24425 -1.51053 0
M  V30 1927 C 179.979 -1.87407 -3.04325 0
M  V30 1928 C 179.645 -3.37249 -2.99289 0
M  V30 1929 C 178.307 -3.7812 -2.97622 0
M  V30 1930 C 180.659 -4.32845 -2.90336 0
M  V30 1931 C 177.987 -5.12944 -2.8479 0
M  V30 1932 C 180.339 -5.6773 -2.79045 0
M  V30 1933 C 179.003 -6.07889 -2.7573 0
M  V30 1934 H 178.273 -0.417766 -0.612007 0
M  V30 1935 H 180.92 -1.58286 -1.07786 0
M  V30 1936 H 179.225 -1.35805 -3.67511 0
M  V30 1937 H 180.922 -1.74408 -3.61086 0
M  V30 1938 H 177.512 -3.04748 -3.01374 0
M  V30 1939 H 181.696 -4.02239 -2.90719 0
M  V30 1940 H 176.952 -5.432 -2.80612 0
M  V30 1941 H 181.126 -6.41472 -2.71083 0
M  V30 1942 H 178.753 -7.12314 -2.65544 0
M  V30 1943 N 180.328 1.1314 -1.09713 0
M  V30 1944 C 181.575 1.84484 -0.834987 0
M  V30 1945 C 181.903 1.83689 0.639418 0
M  V30 1946 O 181.158 1.2724 1.4869 0
M  V30 1947 C 181.457 3.32167 -1.3191 0
M  V30 1948 C 181.123 3.53139 -2.80363 0
M  V30 1949 C 179.785 3.58571 -3.20905 0
M  V30 1950 C 182.137 3.60866 -3.76065 0
M  V30 1951 C 179.465 3.69267 -4.55916 0
M  V30 1952 C 181.817 3.73089 -5.10869 0
M  V30 1953 C 180.481 3.76775 -5.50996 0
M  V30 1954 H 179.751 0.675073 -0.305544 0
M  V30 1955 H 182.398 1.33554 -1.37243 0
M  V30 1956 H 180.703 3.85469 -0.701517 0
M  V30 1957 H 182.4 3.85821 -1.09284 0
M  V30 1958 H 178.99 3.49569 -2.47991 0
M  V30 1959 H 183.174 3.55946 -3.45855 0
M  V30 1960 H 178.43 3.70388 -4.86438 0
M  V30 1961 H 182.604 3.78011 -5.84877 0
M  V30 1962 H 180.231 3.84815 -6.55608 0
M  V30 1963 N 181.806 0.884767 1.30421 0
M  V30 1964 C 183.217 0.553656 1.78302 0
M  V30 1965 C 183.568 -0.930153 1.7275 0
M  V30 1966 O 182.693 -1.72681 1.30423 0
M  V30 1967 C 183.288 0.998234 3.2376 0
M  V30 1968 C 181.847 0.71854 3.69478 0
M  V30 1969 C 180.994 1.18132 2.50879 0
M  V30 1970 H 183.945 1.06901 1.17294 0
M  V30 1971 H 183.966 0.327118 3.79091 0
M  V30 1972 H 183.478 2.0782 3.27769 0
M  V30 1973 H 181.579 -0.349444 3.70958 0
M  V30 1974 H 181.692 1.30595 4.60958 0
M  V30 1975 H 180.056 0.600669 2.47516 0
M  V30 1976 H 180.839 2.26902 2.57624 0
M  V30 1977 N 183.284 -1.43765 0.645699 0
M  V30 1978 C 184.512 -2.06253 0.163556 0
M  V30 1979 C 184.927 -1.48352 -1.16778 0
M  V30 1980 O 184.284 -0.611932 -1.71935 0
M  V30 1981 C 184.335 -3.61453 0.0583186 0
M  V30 1982 O 184.056 -4.172 1.33702 0
M  V30 1983 C 185.557 -4.41002 -0.450795 0
M  V30 1984 H 182.777 -0.665413 0.0864077 0
M  V30 1985 H 185.321 -1.84396 0.884222 0
M  V30 1986 H 183.476 -3.82522 -0.612865 0
M  V30 1987 H 183.89 -5.10791 1.19131 0
M  V30 1988 H 185.364 -5.49966 -0.473403 0
M  V30 1989 H 185.841 -4.13488 -1.48068 0
M  V30 1990 H 186.447 -4.24886 0.187637 0
M  V30 1991 N 184.763 -0.387143 -1.52771 0
M  V30 1992 C 186.04 0.253197 -1.93954 0
M  V30 1993 C 186.42 1.64545 -1.32243 0
M  V30 1994 O 185.768 2.23191 -0.489699 0
M  V30 1995 C 185.978 0.281722 -3.47861 0
M  V30 1996 C 187.326 0.511715 -4.21505 0
M  V30 1997 O 188.35 0.362023 -3.54356 0
M  V30 1998 O 187.209 0.804847 -5.40541 0
M  V30 1999 H 184.303 0.156845 -0.811991 0
M  V30 2000 H 186.849 -0.441494 -1.63856 0
M  V30 2001 H 185.621 -0.693571 -3.85104 0
M  V30 2002 H 185.244 1.02142 -3.84256 0
M  V30 2003 N 186.241 1.57166 -0.116904 0
M  V30 2004 C 187.151 2.18745 0.847812 0
M  V30 2005 C 188.167 1.163 1.29423 0
M  V30 2006 O 189.343 1.48761 1.35765 0
M  V30 2007 C 186.408 2.77307 2.0809 0
M  V30 2008 C 185.469 3.94781 1.68661 0
M  V30 2009 C 184.702 4.50541 2.86091 0
M  V30 2010 O 184.925 4.05202 4.01456 0
M  V30 2011 O 183.859 5.41256 2.63298 0
M  V30 2012 H 187.685 3.01632 0.353778 0
M  V30 2013 H 185.27 1.49005 0.108599 0
M  V30 2014 H 187.152 3.14647 2.80313 0
M  V30 2015 H 185.827 1.97452 2.56504 0
M  V30 2016 H 184.734 3.62214 0.935518 0
M  V30 2017 H 186.067 4.76065 1.24991 0
M  V30 2018 N 187.719 -0.156864 1.56817 0
M  V30 2019 C 188.996 -0.899244 1.73704 0
M  V30 2020 C 189.376 -1.99771 0.682254 0
M  V30 2021 O 188.724 -2.26515 -0.300522 0
M  V30 2022 C 188.934 -1.45075 3.17418 0
M  V30 2023 C 190.282 -1.91802 3.7881 0
M  V30 2024 O 191.306 -1.54838 3.20786 0
M  V30 2025 O 190.165 -2.5994 4.80722 0
M  V30 2026 H 187.259 -0.424267 0.709878 0
M  V30 2027 H 189.805 -0.143561 1.69092 0
M  V30 2028 H 188.577 -0.660846 3.85679 0
M  V30 2029 H 188.2 -2.27021 3.26416 0
M  V30 2030 N 189.197 -1.51736 -0.425897 0
M  V30 2031 C 190.107 -1.76738 -1.54275 0
M  V30 2032 C 191.123 -0.65211 -1.61318 0
M  V30 2033 O 192.299 -0.935654 -1.78346 0
M  V30 2034 C 189.364 -1.89755 -2.90162 0
M  V30 2035 C 188.425 -3.13633 -2.93143 0
M  V30 2036 C 187.658 -3.2602 -4.22548 0
M  V30 2037 O 187.881 -2.44067 -5.15546 0
M  V30 2038 O 186.815 -4.19071 -4.32046 0
M  V30 2039 H 190.641 -2.71502 -1.36089 0
M  V30 2040 H 188.226 -1.36376 -0.610069 0
M  V30 2041 H 190.108 -2.00236 -3.70788 0
M  V30 2042 H 188.783 -0.981785 -3.08452 0
M  V30 2043 H 187.69 -3.08622 -2.11431 0
M  V30 2044 H 189.023 -4.04936 -2.798 0
M  V30 2045 N 190.675 0.682077 -1.42076 0
M  V30 2046 C 191.924 1.43786 -1.41451 0
M  V30 2047 C 192.237 1.95574 -0.0317074 0
M  V30 2048 O 193.443 2.71326 0.0971462 0
M  V30 2049 C 191.899 2.60071 -2.48779 0
M  V30 2050 C 191.507 2.15013 -3.93031 0
M  V30 2051 C 193.251 3.37626 -2.57311 0
M  V30 2052 C 191.158 3.28336 -4.91883 0
M  V30 2053 H 190.088 0.540143 -0.526082 0
M  V30 2054 H 192.739 0.739157 -1.67955 0
M  V30 2055 H 191.121 3.32275 -2.15429 0
M  V30 2056 H 192.295 1.5001 -4.35699 0
M  V30 2057 H 190.61 1.50416 -3.88284 0
M  V30 2058 H 193.207 4.22012 -3.28345 0
M  V30 2059 H 193.55 3.83727 -1.61429 0
M  V30 2060 H 194.083 2.72488 -2.89819 0
M  V30 2061 H 190.822 2.87234 -5.89217 0
M  V30 2062 H 190.342 3.92145 -4.53853 0
M  V30 2063 H 192.021 3.93913 -5.13265 0
M  V30 2064 N 192.153 1.28127 0.917671 0
M  V30 2065 C 193.401 1.14825 1.66312 0
M  V30 2066 C 193.722 -0.304379 1.9261 0
M  V30 2067 O 192.992 -1.21149 1.53947 0
M  V30 2068 H 191.572 0.421953 0.616413 0
M  V30 2069 H 194.234 1.608 1.10134 0
M  V30 2070 H 193.33 1.68489 2.62712 0
M  V30 2071 N 193.631 -1.12557 1.10312 0
M  V30 2072 C 194.594 -2.16434 0.75424 0
M  V30 2073 C 195.594 -1.59278 -0.220685 0
M  V30 2074 O 196.784 -1.742 0.00230591 0
M  V30 2075 C 193.916 -3.40699 0.116987 0
M  V30 2076 H 195.109 -2.48811 1.67431 0
M  V30 2077 H 192.662 -1.27542 0.903475 0
M  V30 2078 H 193.397 -3.13921 -0.813877 0
M  V30 2079 H 193.182 -3.83459 0.818613 0
M  V30 2080 H 194.672 -4.17451 -0.111387 0
M  V30 2081 N 195.109 -0.891671 -1.2995 0
M  V30 2082 C 196.072 -0.36828 -2.26222 0
M  V30 2083 C 197.072 0.493014 -1.53056 0
M  V30 2084 O 198.262 0.299213 -1.71611 0
M  V30 2085 C 195.394 0.47442 -3.37583 0
M  V30 2086 H 196.587 -1.21844 -2.74033 0
M  V30 2087 H 194.14 -0.669107 -1.41254 0
M  V30 2088 H 194.875 1.34489 -2.95099 0
M  V30 2089 H 194.66 -0.142615 -3.91841 0
M  V30 2090 H 196.15 0.83218 -4.09224 0
M  V30 2091 N 196.587 1.43421 -0.653314 0
M  V30 2092 C 197.534 2.30768 0.0382271 0
M  V30 2093 C 198.504 1.44755 0.814576 0
M  V30 2094 O 199.689 1.73624 0.791162 0
M  V30 2095 C 196.829 3.30336 0.998599 0
M  V30 2096 C 195.942 4.31448 0.218342 0
M  V30 2097 C 195.077 5.18098 1.17252 0
M  V30 2098 C 194.116 6.10902 0.382702 0
M  V30 2099 N 193.253 6.90176 1.28848 0
M  V30 2100 H 198.093 2.89357 -0.712511 0
M  V30 2101 H 195.63 1.42548 -0.363128 0
M  V30 2102 H 197.588 3.86572 1.56901 0
M  V30 2103 H 196.218 2.73397 1.71621 0
M  V30 2104 H 195.27 3.77506 -0.46836 0
M  V30 2105 H 196.582 4.97227 -0.395812 0
M  V30 2106 H 195.736 5.7896 1.81356 0
M  V30 2107 H 194.475 4.52444 1.82058 0
M  V30 2108 H 193.48 5.49128 -0.27169 0
M  V30 2109 H 194.705 6.78598 -0.260957 0
M  V30 2110 H 192.651 6.27171 1.92334 0
M  V30 2111 H 192.568 7.52478 0.728887 0
M  V30 2112 H 193.836 7.55543 1.91766 0
M  V30 2113 N 198.065 0.39524 1.52563 0
M  V30 2114 C 199.028 -0.425001 2.25225 0
M  V30 2115 C 200.028 -0.985266 1.27079 0
M  V30 2116 O 201.218 -0.866332 1.5113 0
M  V30 2117 C 198.35 -1.59686 3.01186 0
M  V30 2118 H 199.543 0.211233 2.99155 0
M  V30 2119 H 197.096 0.147472 1.55603 0
M  V30 2120 H 197.831 -2.27035 2.31572 0
M  V30 2121 H 197.616 -1.20176 3.73229 0
M  V30 2122 H 199.106 -2.17743 3.5634 0
M  V30 2123 N 199.544 -1.57102 0.125237 0
M  V30 2124 C 200.474 -2.18659 -0.819174 0
M  V30 2125 C 201.455 -1.12843 -1.27281 0
M  V30 2126 O 202.64 -1.41104 -1.33429 0
M  V30 2127 C 199.77 -2.79096 -2.06695 0
M  V30 2128 C 198.724 -3.90548 -1.75088 0
M  V30 2129 C 198.05 -4.37821 -3.06948 0
M  V30 2130 C 199.35 -5.12356 -1.01435 0
M  V30 2131 H 201.044 -2.9783 -0.306202 0
M  V30 2132 H 198.59 -1.4326 -0.145839 0
M  V30 2133 H 200.543 -3.2082 -2.73226 0
M  V30 2134 H 199.267 -1.97223 -2.60328 0
M  V30 2135 H 197.926 -3.49409 -1.10944 0
M  V30 2136 H 197.574 -3.52799 -3.58527 0
M  V30 2137 H 197.274 -5.12982 -2.86571 0
M  V30 2138 H 198.798 -4.822 -3.74587 0
M  V30 2139 H 200.212 -5.5106 -1.58132 0
M  V30 2140 H 198.609 -5.9314 -0.911319 0
M  V30 2141 H 199.679 -4.849 -0.00218681 0
M  V30 2142 N 201.022 0.148545 -1.56898 0
M  V30 2143 C 201.955 1.21293 -1.93296 0
M  V30 2144 C 202.933 1.41637 -0.798599 0
M  V30 2145 O 204.117 1.56275 -1.05406 0
M  V30 2146 C 201.244 2.5721 -2.20365 0
M  V30 2147 C 200.29 2.53469 -3.4301 0
M  V30 2148 S 201.123 2.00315 -4.96623 0
M  V30 2149 C 202.279 3.37964 -5.26812 0
M  V30 2150 H 202.512 0.902393 -2.83274 0
M  V30 2151 H 200.045 0.354094 -1.50285 0
M  V30 2152 H 202.003 3.35427 -2.36641 0
M  V30 2153 H 200.664 2.85454 -1.31054 0
M  V30 2154 H 199.857 3.53518 -3.59223 0
M  V30 2155 H 199.459 1.83359 -3.25968 0
M  V30 2156 H 201.751 4.34066 -5.20185 0
M  V30 2157 H 202.694 3.26606 -6.28279 0
M  V30 2158 H 203.102 3.35028 -4.54331 0
M  V30 2159 N 202.5 1.5196 0.417844 0
M  V30 2160 C 203.916 1.40569 0.755816 0
M  V30 2161 C 204.116 0.503316 1.95113 0
M  V30 2162 O 203.172 -0.0341925 2.52477 0
M  V30 2163 C 204.485 2.82947 1.01791 0
M  V30 2164 C 206.033 2.92231 1.12116 0
M  V30 2165 C 206.508 4.35559 1.41608 0
M  V30 2166 N 207.999 4.38753 1.48491 0
M  V30 2167 C 208.734 5.46705 1.7292 0
M  V30 2168 N 208.23 6.64788 1.95011 0
M  V30 2169 N 210.023 5.34209 1.74863 0
M  V30 2170 H 202.174 2.09168 -0.369098 0
M  V30 2171 H 204.437 0.942409 -0.102809 0
M  V30 2172 H 204.143 3.5106 0.212081 0
M  V30 2173 H 204.017 3.23462 1.94042 0
M  V30 2174 H 206.404 2.24304 1.9176 0
M  V30 2175 H 206.485 2.55185 0.177225 0
M  V30 2176 H 206.129 5.04042 0.624848 0
M  V30 2177 H 206.059 4.70133 2.37239 0
M  V30 2178 H 208.55 3.5363 1.33244 0
M  V30 2179 H 208.863 7.42845 2.13076 0
M  V30 2180 H 207.208 6.67869 1.92293 0
M  V30 2181 H 210.399 4.40937 1.57137 0
M  V30 2182 H 210.572 6.18415 1.93563 0
M  V30 2183 N 203.978 -0.674533 1.42435 0
M  V30 2184 C 204.908 -1.80009 1.48724 0
M  V30 2185 C 205.889 -1.6659 0.343793 0
M  V30 2186 O 207.074 -1.86007 0.558137 0
M  V30 2187 C 204.204 -3.18306 1.38919 0
M  V30 2188 C 203.158 -3.46461 2.51294 0
M  V30 2189 C 202.484 -4.84335 2.26547 0
M  V30 2190 C 203.784 -3.43328 3.93603 0
M  V30 2191 H 205.478 -1.75004 2.42928 0
M  V30 2192 H 203.024 -0.840533 1.16923 0
M  V30 2193 H 204.977 -3.9678 1.41927 0
M  V30 2194 H 203.701 -3.2399 0.412094 0
M  V30 2195 H 202.36 -2.70348 2.47604 0
M  V30 2196 H 202.008 -4.86669 1.2713 0
M  V30 2197 H 201.708 -5.04136 3.01861 0
M  V30 2198 H 203.232 -5.65094 2.31304 0
M  V30 2199 H 204.646 -4.11772 3.98894 0
M  V30 2200 H 203.043 -3.74664 4.68771 0
M  V30 2201 H 204.113 -2.41897 4.20255 0
M  V30 2202 N 205.456 -1.28612 -0.910864 0
M  V30 2203 C 206.388 -1.08589 -2.01844 0
M  V30 2204 C 207.401 -0.0367419 -1.62759 0
M  V30 2205 O 208.59 -0.280101 -1.76289 0
M  V30 2206 C 205.69 -0.628626 -3.33019 0
M  V30 2207 C 204.863 -1.75382 -4.00699 0
M  V30 2208 C 203.922 -1.28945 -5.10156 0
M  V30 2209 O 202.948 -1.9922 -5.33198 0
M  V30 2210 N 204.15 -0.154224 -5.80295 0
M  V30 2211 H 206.915 -2.03973 -2.19579 0
M  V30 2212 H 204.476 -1.20403 -1.08234 0
M  V30 2213 H 206.468 -0.301508 -4.03575 0
M  V30 2214 H 205.038 0.232451 -3.11735 0
M  V30 2215 H 204.258 -2.25039 -3.23653 0
M  V30 2216 H 205.546 -2.50854 -4.42662 0
M  V30 2217 H 204.944 0.43194 -5.64049 0
M  V30 2218 H 203.501 0.113599 -6.51701 0
M  V30 2219 N 206.934 1.1197 -1.10907 0
M  V30 2220 C 208.211 1.79959 -0.766432 0
M  V30 2221 C 208.591 1.97466 0.746363 0
M  V30 2222 O 207.939 1.55491 1.67436 0
M  V30 2223 C 208.149 3.14009 -1.52314 0
M  V30 2224 C 209.497 3.89134 -1.69883 0
M  V30 2225 O 210.521 3.2368 -1.48692 0
M  V30 2226 O 209.38 5.06572 -2.05054 0
M  V30 2227 H 206.474 0.779208 -0.277062 0
M  V30 2228 H 209.02 1.18762 -1.21217 0
M  V30 2229 H 207.792 2.96587 -2.55249 0
M  V30 2230 H 207.415 3.82915 -1.07059 0
M  V30 2231 N 208.412 0.89855 1.29475 0
M  V30 2232 C 209.64 0.539261 1.99749 0
M  V30 2233 C 210.055 -0.875716 1.67262 0
M  V30 2234 O 209.412 -1.57786 0.917049 0
M  V30 2235 C 209.463 0.72061 3.54245 0
M  V30 2236 O 209.184 2.07989 3.8558 0
M  V30 2237 C 210.685 0.366118 4.41786 0
M  V30 2238 H 207.905 0.207047 0.638258 0
M  V30 2239 H 210.449 1.20758 1.65039 0
M  V30 2240 H 208.604 0.0994862 3.87272 0
M  V30 2241 H 209.018 2.10841 4.80257 0
M  V30 2242 H 210.492 0.543848 5.49314 0
M  V30 2243 H 210.969 -0.696763 4.33638 0
M  V30 2244 H 211.575 0.964135 4.14228 0
M  V30 2245 N 209.89 -1.43072 0.660911 0
M  V30 2246 C 211.12 -2.05769 0.185153 0
M  V30 2247 C 211.528 -1.49668 -1.15742 0
M  V30 2248 O 210.871 -0.625649 -1.72717 0
M  V30 2249 C 210.933 -3.59489 0.0278237 0
M  V30 2250 C 210.597 -4.38212 1.2969 0
M  V30 2251 C 211.594 -4.69772 2.22734 0
M  V30 2252 C 209.279 -4.7809 1.54063 0
M  V30 2253 C 211.273 -5.40129 3.38437 0
M  V30 2254 C 208.96 -5.4819 2.70058 0
M  V30 2255 C 209.958 -5.79132 3.62071 0
M  V30 2256 O 209.646 -6.47798 4.76039 0
M  V30 2257 H 209.378 -0.669873 0.0908086 0
M  V30 2258 H 211.932 -1.84436 0.90402 0
M  V30 2259 H 210.162 -3.79426 -0.746489 0
M  V30 2260 H 211.851 -4.03862 -0.406275 0
M  V30 2261 H 212.617 -4.39476 2.05149 0
M  V30 2262 H 208.496 -4.53408 0.833215 0
M  V30 2263 H 212.04 -5.64198 4.10277 0
M  V30 2264 H 207.937 -5.77902 2.87574 0
M  V30 2265 H 208.705 -6.66283 4.75404 0
M  V30 2266 N 211.368 -0.403325 -1.52352 0
M  V30 2267 C 212.784 -0.0539281 -1.59509 0
M  V30 2268 C 212.984 1.43307 -1.41652 0
M  V30 2269 O 212.04 2.19924 -1.24056 0
M  V30 2270 C 213.353 -0.543654 -2.95745 0
M  V30 2271 C 214.901 -0.501125 -3.08962 0
M  V30 2272 C 215.376 -0.967267 -4.47669 0
M  V30 2273 N 216.867 -0.923849 -4.53893 0
M  V30 2274 C 217.602 -1.25578 -5.5948 0
M  V30 2275 N 217.098 -1.65889 -6.72646 0
M  V30 2276 N 218.891 -1.17613 -5.49658 0
M  V30 2277 H 211.042 -1.37123 -1.62206 0
M  V30 2278 H 213.305 -0.56294 -0.76276 0
M  V30 2279 H 213.011 -1.58275 -3.14073 0
M  V30 2280 H 212.885 0.0498042 -3.77167 0
M  V30 2281 H 215.272 0.528909 -2.90321 0
M  V30 2282 H 215.353 -1.13056 -2.2946 0
M  V30 2283 H 214.997 -1.9956 -4.67053 0
M  V30 2284 H 214.927 -0.314698 -5.25659 0
M  V30 2285 H 217.418 -0.627403 -3.72655 0
M  V30 2286 H 217.731 -1.89543 -7.49195 0
M  V30 2287 H 216.076 -1.69787 -6.73942 0
M  V30 2288 H 219.267 -0.860115 -4.6013 0
M  V30 2289 H 219.44 -1.43812 -6.3184 0
M  V30 2290 N 212.846 1.57033 -0.133567 0
M  V30 2291 C 213.776 2.1909 0.807567 0
M  V30 2292 C 214.757 1.13517 1.26681 0
M  V30 2293 O 215.942 1.41809 1.32679 0
M  V30 2294 C 213.072 2.80188 2.05212 0
M  V30 2295 C 212.026 3.91471 1.73015 0
M  V30 2296 C 211.352 4.39443 3.04622 0
M  V30 2297 C 212.652 5.12886 0.987168 0
M  V30 2298 H 214.346 2.97988 0.290403 0
M  V30 2299 H 211.892 1.43335 0.138239 0
M  V30 2300 H 213.845 3.22264 2.71521 0
M  V30 2301 H 212.569 1.98601 2.59278 0
M  V30 2302 H 211.228 3.49993 1.0909 0
M  V30 2303 H 210.876 3.54695 3.56651 0
M  V30 2304 H 210.576 5.14495 2.83847 0
M  V30 2305 H 212.1 4.8418 3.72024 0
M  V30 2306 H 213.514 5.51891 1.55208 0
M  V30 2307 H 211.911 5.93615 0.87985 0
M  V30 2308 H 212.981 4.84894 -0.0235286 0
M  V30 2309 N 214.325 -0.140222 1.56975 0
M  V30 2310 C 215.602 -0.880769 1.74648 0
M  V30 2311 C 215.982 -1.99036 0.703404 0
M  V30 2312 O 215.33 -2.26821 -0.27648 0
M  V30 2313 C 215.54 -1.417 3.18939 0
M  V30 2314 C 216.888 -1.87774 3.80823 0
M  V30 2315 O 217.912 -1.51427 3.2241 0
M  V30 2316 O 216.771 -2.54827 4.83452 0
M  V30 2317 H 213.865 -0.416713 0.714338 0
M  V30 2318 H 216.411 -0.125618 1.69234 0
M  V30 2319 H 215.183 -0.619902 3.86359 0
M  V30 2320 H 214.806 -2.23546 3.28805 0
M  V30 2321 N 215.803 -1.52179 -0.40978 0
M  V30 2322 C 217.214 -1.58377 -0.988615 0
M  V30 2323 C 217.565 -0.423879 -1.91566 0
M  V30 2324 O 216.69 0.455844 -2.11544 0
M  V30 2325 C 217.285 -2.87044 -1.79976 0
M  V30 2326 C 215.844 -2.95722 -2.32863 0
M  V30 2327 C 214.991 -2.53309 -1.12828 0
M  V30 2328 H 217.942 -1.57558 -0.190039 0
M  V30 2329 H 217.963 -2.7236 -2.65707 0
M  V30 2330 H 217.475 -3.71444 -1.12478 0
M  V30 2331 H 215.576 -2.15814 -3.03735 0
M  V30 2332 H 215.689 -3.99951 -2.63773 0
M  V30 2333 H 214.053 -2.07142 -1.48204 0
M  V30 2334 H 214.836 -3.40082 -0.46897 0
M  V30 2335 N 217.281 0.66697 -1.42791 0
M  V30 2336 C 218.529 1.42417 -1.43394 0
M  V30 2337 C 218.85 1.94925 -0.0542373 0
M  V30 2338 O 218.12 1.73564 0.908415 0
M  V30 2339 H 216.7 0.528515 -0.527902 0
M  V30 2340 H 219.362 0.787562 -1.78279 0
M  V30 2341 H 218.458 2.27333 -2.13837 0
M  V30 2342 N 218.759 1.29093 0.90403 0
M  V30 2343 C 219.987 1.19689 1.68766 0
M  V30 2344 C 220.402 -0.243113 1.87228 0
M  V30 2345 O 219.759 -1.16326 1.40621 0
M  V30 2346 C 219.81 1.90144 3.07453 0
M  V30 2347 O 219.531 3.2852 2.89838 0
M  V30 2348 C 221.032 1.87162 4.01852 0
M  V30 2349 H 218.252 0.415035 0.527244 0
M  V30 2350 H 220.796 1.7039 1.13082 0
M  V30 2351 H 218.951 1.43289 3.59926 0
M  V30 2352 H 219.365 3.63944 3.77684 0
M  V30 2353 H 220.839 2.41032 4.96596 0
M  V30 2354 H 221.316 0.84617 4.30972 0
M  V30 2355 H 221.922 2.33741 3.5531 0
M  V30 2356 N 220.237 -1.11381 1.11499 0
M  V30 2357 C 221.486 -1.82494 0.858993 0
M  V30 2358 C 221.799 -1.85605 -0.617278 0
M  V30 2359 O 223.005 -2.52824 -0.989552 0
M  V30 2360 C 221.461 -3.27745 1.48699 0
M  V30 2361 C 221.069 -3.32961 2.99735 0
M  V30 2362 C 222.813 -4.03754 1.31085 0
M  V30 2363 C 220.72 -4.72612 3.55516 0
M  V30 2364 H 219.65 -0.683802 0.317696 0
M  V30 2365 H 222.301 -1.25331 1.34031 0
M  V30 2366 H 220.683 -3.84844 0.933339 0
M  V30 2367 H 221.857 -2.85741 3.61509 0
M  V30 2368 H 220.172 -2.70433 3.16631 0
M  V30 2369 H 222.769 -5.06891 1.70192 0
M  V30 2370 H 223.112 -4.15527 0.253496 0
M  V30 2371 H 223.645 -3.53043 1.83318 0
M  V30 2372 H 220.384 -4.66036 4.60967 0
M  V30 2373 H 219.904 -5.2024 2.98513 0
M  V30 2374 H 221.583 -5.4157 3.53992 0
M  V30 2375 N 221.715 -0.905404 -1.28997 0
M  V30 2376 C 222.94 -0.549175 -1.99997 0
M  V30 2377 C 223.365 0.860276 -1.67275 0
M  V30 2378 O 222.723 1.57355 -0.900502 0
M  V30 2379 C 222.771 -0.755185 -3.52604 0
M  V30 2380 O 221.875 0.189692 -4.11964 0
M  V30 2381 H 221.216 -0.213899 -0.628604 0
M  V30 2382 H 223.746 -1.21856 -1.64354 0
M  V30 2383 H 223.756 -0.662045 -4.02593 0
M  V30 2384 H 222.431 -1.78271 -3.75755 0
M  V30 2385 H 221.008 0.0485257 -3.72868 0
M  V30 2386 N 223.193 1.4272 -0.668489 0
M  V30 2387 C 224.609 1.55992 -0.33745 0
M  V30 2388 C 224.809 1.64933 1.15756 0
M  V30 2389 O 223.865 1.61278 1.94282 0
M  V30 2390 C 225.178 2.81314 -1.06222 0
M  V30 2391 C 226.726 2.95078 -1.04394 0
M  V30 2392 C 227.201 4.23252 -1.74991 0
M  V30 2393 N 228.692 4.3015 -1.71829 0
M  V30 2394 C 229.427 5.28127 -2.23315 0
M  V30 2395 N 228.923 6.32293 -2.83156 0
M  V30 2396 N 230.716 5.19882 -2.13726 0
M  V30 2397 H 222.867 1.3516 -1.63846 0
M  V30 2398 H 225.13 0.650174 -0.689912 0
M  V30 2399 H 224.836 2.80823 -2.11734 0
M  V30 2400 H 224.71 3.72012 -0.62344 0
M  V30 2401 H 227.097 2.951 0.0028244 0
M  V30 2402 H 227.178 2.05627 -1.52155 0
M  V30 2403 H 226.822 4.2399 -2.79633 0
M  V30 2404 H 226.752 5.11626 -1.24685 0
M  V30 2405 H 229.243 3.55499 -1.28175 0
M  V30 2406 H 229.556 7.03398 -3.20079 0
M  V30 2407 H 227.901 6.32873 -2.87223 0
M  V30 2408 H 231.092 4.37423 -1.66669 0
M  V30 2409 H 231.265 5.96077 -2.54158 0
M  V30 2410 N 224.671 0.411399 1.52136 0
M  V30 2411 C 225.919 -0.163322 2.01439 0
M  V30 2412 C 226.24 -1.45453 1.29879 0
M  V30 2413 O 225.51 -1.91225 0.4254 0
M  V30 2414 H 224.09 -0.0633447 0.744309 0
M  V30 2415 H 226.752 0.548161 1.87033 0
M  V30 2416 H 225.848 -0.357817 3.10042 0
M  V30 2417 N 226.149 -1.5696 0.141893 0
M  V30 2418 C 227.059 -2.20066 -0.812905 0
M  V30 2419 C 228.075 -1.18344 -1.27557 0
M  V30 2420 O 229.251 -1.50902 -1.33381 0
M  V30 2421 C 226.316 -2.80583 -2.03652 0
M  V30 2422 C 225.377 -3.97414 -1.62359 0
M  V30 2423 C 224.61 -4.55036 -2.78887 0
M  V30 2424 O 224.833 -4.11538 -3.94959 0
M  V30 2425 O 223.767 -5.45376 -2.54653 0
M  V30 2426 H 227.593 -3.02157 -0.305746 0
M  V30 2427 H 225.178 -1.49159 -0.0848799 0
M  V30 2428 H 227.06 -3.19067 -2.75272 0
M  V30 2429 H 225.735 -2.01508 -2.5333 0
M  V30 2430 H 224.642 -3.63656 -0.877775 0
M  V30 2431 H 225.975 -4.77994 -1.17401 0
M  V30 2432 N 227.627 0.131896 -1.57047 0
M  V30 2433 C 228.557 1.16384 -2.02428 0
M  V30 2434 C 229.538 1.43936 -0.90644 0
M  V30 2435 O 230.723 1.54599 -1.17528 0
M  V30 2436 C 227.853 2.49328 -2.4177 0
M  V30 2437 C 226.807 2.36266 -3.56879 0
M  V30 2438 C 226.133 3.74057 -3.8208 0
M  V30 2439 C 227.433 1.834 -4.89042 0
M  V30 2440 H 229.127 0.786433 -2.88887 0
M  V30 2441 H 226.673 0.376855 -1.38981 0
M  V30 2442 H 228.626 3.21759 -2.7212 0
M  V30 2443 H 227.35 2.88934 -1.52266 0
M  V30 2444 H 226.009 1.66286 -3.26718 0
M  V30 2445 H 225.657 4.11125 -2.89803 0
M  V30 2446 H 225.357 3.66174 -4.59554 0
M  V30 2447 H 226.881 4.48012 -4.1487 0
M  V30 2448 H 228.295 2.45636 -5.18011 0
M  V30 2449 H 226.692 1.8637 -5.70426 0
M  V30 2450 H 227.762 0.790662 -4.7841 0
M  V30 2451 N 229.106 1.52395 0.401703 0
M  V30 2452 C 230.517 1.58899 0.980202 0
M  V30 2453 C 230.868 0.434032 1.91339 0
M  V30 2454 O 229.993 -0.444619 2.11783 0
M  V30 2455 C 230.588 2.87994 1.78451 0
M  V30 2456 C 229.147 2.96953 2.31292 0
M  V30 2457 C 228.294 2.53903 1.11483 0
M  V30 2458 H 231.245 1.57657 0.18168 0
M  V30 2459 H 231.266 2.73765 2.64259 0
M  V30 2460 H 230.778 3.72035 1.10506 0
M  V30 2461 H 228.879 2.17422 3.02586 0
M  V30 2462 H 228.992 4.01344 2.61649 0
M  V30 2463 H 227.356 2.07925 1.47104 0
M  V30 2464 H 228.139 3.40326 0.450928 0
M  V30 2465 N 230.584 -0.659388 1.43143 0
M  V30 2466 C 231.832 -1.41654 1.44147 0
M  V30 2467 C 232.153 -1.94893 0.0645739 0
M  V30 2468 O 231.423 -1.74044 -0.899198 0
M  V30 2469 H 230.003 -0.525708 0.530697 0
M  V30 2470 H 232.665 -0.778097 1.78694 0
M  V30 2471 H 231.761 -2.26195 2.1504 0
M  V30 2472 N 232.062 -1.29571 -0.897171 0
M  V30 2473 C 233.29 -1.20583 -1.68129 0
M  V30 2474 C 233.705 0.233181 -1.87354 0
M  V30 2475 O 233.062 1.15579 -1.41236 0
M  V30 2476 C 233.113 -1.91772 -3.06441 0
M  V30 2477 O 232.834 -3.30053 -2.88091 0
M  V30 2478 C 234.335 -1.89291 -4.00854 0
M  V30 2479 H 231.555 -0.417826 -0.525036 0
M  V30 2480 H 234.099 -1.70987 -1.12177 0
M  V30 2481 H 232.254 -1.45196 -3.59161 0
M  V30 2482 H 232.668 -3.65942 -3.75748 0
M  V30 2483 H 234.142 -2.43662 -4.95311 0
M  V30 2484 H 234.619 -0.869014 -4.30517 0
M  V30 2485 H 235.225 -2.35622 -3.54066 0
M  V30 2486 N 233.54 1.10788 -1.12088 0
M  V30 2487 C 234.487 2.17025 -0.785407 0
M  V30 2488 C 235.457 1.64265 0.246191 0
M  V30 2489 O 236.642 1.90412 0.121584 0
M  V30 2490 C 233.782 3.44249 -0.242177 0
M  V30 2491 C 232.895 4.1098 -1.33115 0
M  V30 2492 C 232.03 5.25911 -0.747741 0
M  V30 2493 C 231.069 5.84538 -1.81609 0
M  V30 2494 N 230.206 6.90853 -1.25167 0
M  V30 2495 H 235.046 2.45066 -1.69548 0
M  V30 2496 H 232.583 1.20297 -0.846582 0
M  V30 2497 H 234.541 4.17101 0.0908026 0
M  V30 2498 H 233.171 3.16571 0.631072 0
M  V30 2499 H 232.223 3.36133 -1.78097 0
M  V30 2500 H 233.535 4.50601 -2.13917 0
M  V30 2501 H 232.689 6.056 -0.365216 0
M  V30 2502 H 231.428 4.87614 0.0915188 0
M  V30 2503 H 230.433 5.03522 -2.20785 0
M  V30 2504 H 231.658 6.249 -2.6585 0
M  V30 2505 H 229.604 6.54562 -0.434174 0
M  V30 2506 H 229.521 7.29166 -1.99633 0
M  V30 2507 H 230.789 7.7433 -0.896259 0
M  V30 2508 N 235.018 0.912232 1.28515 0
M  V30 2509 C 236.248 0.559604 1.98877 0
M  V30 2510 C 236.656 -0.863113 1.68366 0
M  V30 2511 O 235.999 -1.58304 0.931969 0
M  V30 2512 C 236.061 0.68703 3.52874 0
M  V30 2513 C 235.725 2.07901 4.06972 0
M  V30 2514 C 236.722 3.05157 4.20922 0
M  V30 2515 C 234.407 2.39178 4.417 0
M  V30 2516 C 236.401 4.31806 4.68852 0
M  V30 2517 C 234.088 3.66068 4.89324 0
M  V30 2518 C 235.086 4.62195 5.02856 0
M  V30 2519 O 234.774 5.86829 5.49442 0
M  V30 2520 H 234.506 0.212191 0.641834 0
M  V30 2521 H 237.06 1.22712 1.64715 0
M  V30 2522 H 235.29 -0.0375486 3.86682 0
M  V30 2523 H 236.979 0.341727 4.04459 0
M  V30 2524 H 237.745 2.82311 3.94367 0
M  V30 2525 H 233.624 1.65109 4.30418 0
M  V30 2526 H 237.168 5.06842 4.79329 0
M  V30 2527 H 233.065 3.88739 5.15318 0
M  V30 2528 H 233.833 5.89597 5.6773 0
M  V30 2529 N 236.496 -1.42363 0.676048 0
M  V30 2530 C 237.428 -2.29164 -0.0404605 0
M  V30 2531 C 238.441 -1.43747 -0.764245 0
M  V30 2532 O 239.63 -1.67453 -0.618195 0
M  V30 2533 C 236.73 -3.21196 -1.08103 0
M  V30 2534 C 235.903 -4.35273 -0.430812 0
M  V30 2535 C 234.962 -5.08017 -1.37133 0
M  V30 2536 O 233.988 -5.62494 -0.87116 0
M  V30 2537 N 235.19 -5.13647 -2.70456 0
M  V30 2538 H 237.955 -2.91298 0.704667 0
M  V30 2539 H 235.516 -1.53303 0.520559 0
M  V30 2540 H 237.508 -3.66728 -1.71152 0
M  V30 2541 H 236.078 -2.60505 -1.72788 0
M  V30 2542 H 235.298 -3.92372 0.379209 0
M  V30 2543 H 236.586 -5.08795 0.0221132 0
M  V30 2544 H 235.984 -4.708 -3.1363 0
M  V30 2545 H 234.541 -5.62821 -3.28749 0
M  V30 2546 N 237.974 -0.419461 -1.51915 0
M  V30 2547 C 238.937 0.389116 -2.25873 0
M  V30 2548 C 239.937 0.964924 -1.28631 0
M  V30 2549 O 241.127 0.842179 -1.52489 0
M  V30 2550 C 238.259 1.54874 -3.03689 0
M  V30 2551 H 239.452 -0.258799 -2.98781 0
M  V30 2552 H 237.005 -0.172209 -1.55348 0
M  V30 2553 H 237.74 2.23323 -2.35154 0
M  V30 2554 H 237.525 1.14223 -3.75094 0
M  V30 2555 H 239.015 2.12046 -3.59759 0
M  V30 2556 N 239.452 1.56882 -0.150215 0
M  V30 2557 C 240.385 2.12712 0.826358 0
M  V30 2558 C 241.363 1.05154 1.24022 0
M  V30 2559 O 242.547 1.33004 1.33575 0
M  V30 2560 C 239.674 2.64945 2.11002 0
M  V30 2561 C 238.72 3.8468 1.84183 0
M  V30 2562 S 239.553 5.25502 1.02995 0
M  V30 2563 C 240.709 5.81125 2.32474 0
M  V30 2564 H 240.942 2.95214 0.351598 0
M  V30 2565 H 238.475 1.54267 0.0641211 0
M  V30 2566 H 240.433 2.95689 2.84742 0
M  V30 2567 H 239.094 1.82568 2.55593 0
M  V30 2568 H 238.287 4.19482 2.79375 0
M  V30 2569 H 237.889 3.54714 1.1855 0
M  V30 2570 H 240.181 5.92753 3.281 0
M  V30 2571 H 241.124 6.78625 2.02171 0
M  V30 2572 H 241.532 5.09392 2.43269 0
M  V30 2573 N 240.93 -0.123565 1.57115 0
M  V30 2574 C 241.86 -1.15309 2.03042 0
M  V30 2575 C 242.841 -1.43454 0.914061 0
M  V30 2576 O 244.026 -1.53973 1.18347 0
M  V30 2577 C 241.156 -2.48043 2.43089 0
M  V30 2578 C 240.11 -2.3437 3.58127 0
M  V30 2579 C 239.436 -3.72026 3.84059 0
M  V30 2580 C 240.736 -1.80804 4.90007 0
M  V30 2581 H 242.43 -0.771102 2.893 0
M  V30 2582 H 239.976 -0.369479 1.39179 0
M  V30 2583 H 241.929 -3.20311 2.73823 0
M  V30 2584 H 240.653 -2.88122 1.53796 0
M  V30 2585 H 239.312 -1.64551 3.27595 0
M  V30 2586 H 238.96 -4.09582 2.91979 0
M  V30 2587 H 238.66 -3.63732 4.6149 0
M  V30 2588 H 240.184 -4.45806 4.1724 0
M  V30 2589 H 241.598 -2.42886 5.19307 0
M  V30 2590 H 239.995 -1.83343 5.71407 0
M  V30 2591 H 241.065 -0.76528 4.78823 0
M  V30 2592 N 242.408 -1.52605 -0.393616 0
M  V30 2593 C 243.633 -1.71592 -1.16495 0
M  V30 2594 C 244.058 -0.43133 -1.83088 0
M  V30 2595 O 243.416 0.612523 -1.7064 0
M  V30 2596 C 243.464 -2.86318 -2.19213 0
M  V30 2597 O 242.568 -2.52969 -3.257 0
M  V30 2598 H 241.909 -0.570734 -0.33935 0
M  V30 2599 H 244.439 -1.99377 -0.459324 0
M  V30 2600 H 244.449 -3.1168 -2.63286 0
M  V30 2601 H 243.124 -3.79511 -1.7013 0
M  V30 2602 H 241.701 -2.38332 -2.86797 0
M  V30 2603 N 243.887 0.651787 -1.4349 0
M  V30 2604 C 245.133 1.41376 -1.45398 0
M  V30 2605 C 245.466 1.94041 -0.0784823 0
M  V30 2606 O 244.741 1.72379 0.900878 0
M  V30 2607 C 245.024 2.59414 -2.49752 0
M  V30 2608 C 244.877 2.12232 -3.96582 0
M  V30 2609 C 246.196 3.61626 -2.50827 0
M  V30 2610 H 243.315 0.512719 -0.529422 0
M  V30 2611 H 245.957 0.738796 -1.75048 0
M  V30 2612 H 244.107 3.16997 -2.246 0
M  V30 2613 H 245.779 1.59639 -4.32797 0
M  V30 2614 H 244.022 1.43592 -4.09346 0
M  V30 2615 H 244.693 2.9712 -4.65214 0
M  V30 2616 H 247.169 3.13805 -2.7325 0
M  V30 2617 H 246.045 4.41766 -3.25783 0
M  V30 2618 H 246.306 4.14314 -1.5426 0
M  V30 2619 N 245.365 1.30045 0.890287 0
M  V30 2620 C 246.642 1.09227 1.62262 0
M  V30 2621 C 247.022 -0.360305 2.08002 0
M  V30 2622 O 246.37 -1.35084 1.84295 0
M  V30 2623 C 246.58 2.08835 2.79623 0
M  V30 2624 C 247.928 2.40266 3.50082 0
M  V30 2625 O 248.952 2.07104 2.89804 0
M  V30 2626 O 247.811 2.96967 4.58773 0
M  V30 2627 H 244.905 0.419132 0.712922 0
M  V30 2628 H 247.451 1.41451 0.937529 0
M  V30 2629 H 246.223 3.06633 2.43089 0
M  V30 2630 H 245.846 1.77397 3.55832 0
M  V30 2631 N 246.843 -1.10192 1.12674 0
M  V30 2632 C 248.12 -1.78717 0.794965 0
M  V30 2633 C 248.5 -1.98628 -0.714853 0
M  V30 2634 O 247.848 -1.58135 -1.64941 0
M  V30 2635 C 248.058 -3.11546 1.5729 0
M  V30 2636 C 249.406 -3.86382 1.76052 0
M  V30 2637 O 250.43 -3.21274 1.53823 0
M  V30 2638 O 249.289 -5.03246 2.13087 0
M  V30 2639 H 246.383 -0.774702 0.289423 0
M  V30 2640 H 248.929 -1.16819 1.23091 0
M  V30 2641 H 247.701 -2.92489 2.59935 0
M  V30 2642 H 247.324 -3.81164 1.13137 0
M  V30 2643 N 248.321 -0.919034 -1.28029 0
M  V30 2644 C 249.561 -0.562107 -1.96519 0
M  V30 2645 C 249.925 0.878784 -1.70708 0
M  V30 2646 O 251.126 1.34355 -2.32813 0
M  V30 2647 C 249.397 -0.868953 -3.46676 0
M  V30 2648 S 250.956 -0.619237 -4.34409 0
M  V30 2649 H 247.774 -0.2078 -0.679956 0
M  V30 2650 H 250.376 -1.18562 -1.55446 0
M  V30 2651 H 249.08 -1.91547 -3.62957 0
M  V30 2652 H 248.611 -0.234301 -3.92702 0
M  V30 2653 H 250.626 0.526995 -4.93394 0
M  V30 2654 N 249.799 1.42003 -0.683588 0
M  V30 2655 C 251.046 2.01413 -0.209514 0
M  V30 2656 C 251.374 1.54088 1.1869 0
M  V30 2657 O 250.629 0.737591 1.81268 0
M  V30 2658 C 250.928 3.56827 -0.202357 0
M  V30 2659 C 250.594 4.23617 -1.54464 0
M  V30 2660 C 249.256 4.41577 -1.91215 0
M  V30 2661 C 251.608 4.61178 -2.42826 0
M  V30 2662 C 248.936 4.9437 -3.15935 0
M  V30 2663 C 251.288 5.15355 -3.66867 0
M  V30 2664 C 249.952 5.31528 -4.03776 0
M  V30 2665 H 249.222 0.737023 -0.0766668 0
M  V30 2666 H 251.869 1.70067 -0.880312 0
M  V30 2667 H 250.174 3.87892 0.551969 0
M  V30 2668 H 251.871 4.00588 0.181793 0
M  V30 2669 H 248.461 4.10004 -1.24877 0
M  V30 2670 H 252.645 4.46968 -2.15717 0
M  V30 2671 H 247.901 5.05076 -3.44541 0
M  V30 2672 H 252.075 5.43402 -4.35531 0
M  V30 2673 H 249.702 5.72199 -5.00492 0
M  V30 2674 N 251.277 0.427512 1.51691 0
M  V30 2675 C 252.525 -0.141948 2.01601 0
M  V30 2676 C 252.846 -1.44067 1.31414 0
M  V30 2677 O 252.116 -1.90763 0.445658 0
M  V30 2678 H 250.696 -0.0554468 0.744939 0
M  V30 2679 H 253.358 0.567968 1.86441 0
M  V30 2680 H 252.454 -0.324913 3.10404 0
M  V30 2681 N 252.755 -1.56801 0.158532 0
M  V30 2682 C 253.688 -2.13148 -0.815065 0
M  V30 2683 C 254.666 -1.0581 -1.23462 0
M  V30 2684 O 255.85 -1.3371 -1.32868 0
M  V30 2685 C 252.977 -2.6606 -2.09594 0
M  V30 2686 C 252.023 -3.85651 -1.82141 0
M  V30 2687 S 252.856 -5.26041 -1.00207 0
M  V30 2688 C 254.012 -5.8235 -2.29389 0
M  V30 2689 H 254.245 -2.95396 -0.335937 0
M  V30 2690 H 251.778 -1.54299 -0.0559391 0
M  V30 2691 H 253.736 -2.97195 -2.8317 0
M  V30 2692 H 252.397 -1.83921 -2.54621 0
M  V30 2693 H 251.59 -4.20958 -2.77147 0
M  V30 2694 H 251.192 -3.55338 -1.16667 0
M  V30 2695 H 253.484 -5.94485 -3.24952 0
M  V30 2696 H 254.427 -6.79688 -1.9857 0
M  V30 2697 H 254.835 -5.10675 -2.40564 0
M  V30 2698 N 254.233 0.115231 -1.57178 0
M  V30 2699 C 255.481 0.820727 -1.84685 0
M  V30 2700 C 255.802 1.80237 -0.744279 0
M  V30 2701 O 255.072 1.94529 0.231375 0
M  V30 2702 H 253.652 0.306084 -0.681411 0
M  V30 2703 H 256.314 0.101656 -1.94635 0
M  V30 2704 H 255.41 1.36366 -2.80733 0
M  V30 2705 N 255.711 1.52812 0.385517 0
M  V30 2706 C 257.127 1.4214 0.725829 0
M  V30 2707 C 257.327 0.544589 1.94001 0
M  V30 2708 O 256.383 0.0193693 2.52493 0
M  V30 2709 C 257.696 2.85042 0.957668 0
M  V30 2710 C 259.244 2.94543 1.05892 0
M  V30 2711 C 259.719 4.38464 1.32337 0
M  V30 2712 N 261.21 4.41804 1.39151 0
M  V30 2713 C 261.945 5.5025 1.61285 0
M  V30 2714 N 261.441 6.68775 1.80866 0
M  V30 2715 N 263.234 5.37798 1.63492 0
M  V30 2716 H 255.385 2.08338 -0.413383 0
M  V30 2717 H 257.648 0.940016 -0.122775 0
M  V30 2718 H 257.354 3.51431 0.137568 0
M  V30 2719 H 257.228 3.27505 1.87137 0
M  V30 2720 H 259.615 2.28321 1.86959 0
M  V30 2721 H 259.696 2.55504 0.123057 0
M  V30 2722 H 259.34 5.05254 0.517793 0
M  V30 2723 H 259.27 4.75059 2.27214 0
M  V30 2724 H 261.761 3.56377 1.25713 0
M  V30 2725 H 262.074 7.47197 1.97271 0
M  V30 2726 H 260.419 6.71797 1.78083 0
M  V30 2727 H 263.61 4.44171 1.47749 0
M  V30 2728 H 263.783 6.22382 1.80402 0
M  V30 2729 N 257.189 -0.644168 1.43834 0
M  V30 2730 C 258.414 -1.43642 1.49605 0
M  V30 2731 C 258.839 -1.8773 0.117913 0
M  V30 2732 O 258.197 -1.57938 -0.890239 0
M  V30 2733 C 258.245 -2.6416 2.45463 0
M  V30 2734 O 257.349 -3.63538 1.94714 0
M  V30 2735 H 256.69 -0.430329 0.50568 0
M  V30 2736 H 259.22 -0.787448 1.8884 0
M  V30 2737 H 259.23 -3.11864 2.63068 0
M  V30 2738 H 257.905 -2.31414 3.45572 0
M  V30 2739 H 256.482 -3.2273 1.86814 0
M  V30 2740 N 258.668 -1.30515 -0.883378 0
M  V30 2741 C 259.631 -1.1701 -1.97082 0
M  V30 2742 C 260.631 -0.10089 -1.60483 0
M  V30 2743 O 261.821 -0.349127 -1.70666 0
M  V30 2744 C 258.953 -0.793045 -3.31547 0
M  V30 2745 H 260.146 -2.13622 -2.10489 0
M  V30 2746 H 257.699 -1.13935 -1.06998 0
M  V30 2747 H 258.434 0.172499 -3.23841 0
M  V30 2748 H 258.219 -1.56576 -3.5948 0
M  V30 2749 H 259.709 -0.722073 -4.1131 0
M  V30 2750 N 260.146 1.09593 -1.13257 0
M  V30 2751 C 261.376 1.85231 -0.915049 0
M  V30 2752 C 261.784 1.81345 0.539498 0
M  V30 2753 O 261.127 1.20664 1.38513 0
M  V30 2754 C 261.189 3.34275 -1.3229 0
M  V30 2755 C 260.853 3.6191 -2.79052 0
M  V30 2756 C 261.85 3.57777 -3.77216 0
M  V30 2757 C 259.535 3.90309 -3.16171 0
M  V30 2758 C 261.529 3.81652 -5.1051 0
M  V30 2759 C 259.216 4.13839 -4.49644 0
M  V30 2760 C 260.214 4.09502 -5.46623 0
M  V30 2761 O 259.902 4.32426 -6.77689 0
M  V30 2762 H 259.634 0.591997 -0.326367 0
M  V30 2763 H 262.188 1.394 -1.50854 0
M  V30 2764 H 260.418 3.80805 -0.672667 0
M  V30 2765 H 262.107 3.9132 -1.07812 0
M  V30 2766 H 262.873 3.35865 -3.49885 0
M  V30 2767 H 258.752 3.92811 -2.41289 0
M  V30 2768 H 262.296 3.78182 -5.86195 0
M  V30 2769 H 258.193 4.35232 -4.767 0
M  V30 2770 H 258.961 4.49896 -6.83766 0
M  V30 2771 N 261.624 0.925811 1.2754 0
M  V30 2772 C 262.572 0.413897 2.28888 0
M  V30 2773 C 263.566 -0.500779 1.61829 0
M  V30 2774 O 264.772 -0.38069 1.75928 0
M  V30 2775 H 261.147 0.115274 0.743112 0
M  V30 2776 H 263.118 1.28151 2.69481 0
M  V30 2777 C 261.867 -0.319792 3.46226 0
M  V30 2778 H 261.19 0.374846 3.98039 0
M  V30 2779 H 262.63 -0.642435 4.19105 0
M  V30 2780 C 261.089 -1.53209 3.00048 0
M  V30 2781 O 261.619 -2.6309 3.03557 0
M  V30 2782 N 259.825 -1.38326 2.55566 0
M  V30 2783 H 259.372 -0.489292 2.5291 0
M  V30 2784 H 259.33 -2.19564 2.25031 0
M  V30 2785 N 263.102 -1.41638 0.69111 0
M  V30 2786 C 264.012 -2.34588 0.0233487 0
M  V30 2787 C 265.028 -1.55987 -0.770984 0
M  V30 2788 O 266.204 -1.88486 -0.709569 0
M  V30 2789 C 263.269 -3.34684 -0.904851 0
M  V30 2790 C 262.33 -4.29176 -0.103225 0
M  V30 2791 C 261.563 -5.2449 -0.987216 0
M  V30 2792 O 261.786 -5.2514 -2.22674 0
M  V30 2793 O 260.72 -6.00295 -0.439281 0
M  V30 2794 H 264.546 -2.93261 0.789416 0
M  V30 2795 H 262.131 -1.42417 0.45142 0
M  V30 2796 H 264.013 -3.96133 -1.43724 0
M  V30 2797 H 262.688 -2.78461 -1.65049 0
M  V30 2798 H 261.595 -3.71089 0.473655 0
M  V30 2799 H 262.928 -4.88484 0.60365 0
M  V30 2800 N 264.58 -0.43555 -1.51462 0
M  V30 2801 C 265.828 0.131254 -2.01673 0
M  V30 2802 C 266.149 1.43368 -1.32177 0
M  V30 2803 O 265.419 1.90524 -0.455769 0
M  V30 2804 H 263.999 0.0514954 -0.745223 0
M  V30 2805 H 266.661 -0.577847 -1.86137 0
M  V30 2806 H 265.757 0.308446 -3.10572 0
M  V30 2807 N 266.058 1.56714 -0.166846 0
M  V30 2808 C 267.335 1.88412 0.525373 0
M  V30 2809 C 267.715 1.07602 1.81618 0
M  V30 2810 O 267.063 0.168621 2.27877 0
M  V30 2811 C 267.273 3.40363 0.771613 0
M  V30 2812 C 268.621 4.10007 1.1036 0
M  V30 2813 O 269.645 3.45655 0.860304 0
M  V30 2814 O 268.504 5.2369 1.56239 0
M  V30 2815 H 265.598 0.781587 0.270278 0
M  V30 2816 H 268.144 1.68458 -0.204946 0
M  V30 2817 H 266.916 3.91046 -0.141093 0
M  V30 2818 H 266.539 3.65914 1.55541 0
M  V30 2819 N 267.536 -0.106894 1.57237 0
M  V30 2820 C 268.766 -0.825191 1.89405 0
M  V30 2821 C 269.174 -1.73374 0.757496 0
M  V30 2822 O 268.517 -1.81552 -0.280115 0
M  V30 2823 C 268.579 -1.70102 3.1671 0
M  V30 2824 C 268.243 -0.965523 4.46684 0
M  V30 2825 C 269.24 -0.300741 5.19029 0
M  V30 2826 C 266.925 -0.943105 4.93367 0
M  V30 2827 C 268.919 0.376622 6.36286 0
M  V30 2828 C 266.606 -0.261949 6.10538 0
M  V30 2829 C 267.604 0.396748 6.81847 0
M  V30 2830 O 267.292 1.06701 7.96787 0
M  V30 2831 H 267.024 -0.241852 0.631255 0
M  V30 2832 H 269.578 -0.0921491 2.05193 0
M  V30 2833 H 267.808 -2.47601 2.97036 0
M  V30 2834 H 269.497 -2.29483 3.34802 0
M  V30 2835 H 270.263 -0.309599 4.84011 0
M  V30 2836 H 266.142 -1.44524 4.3776 0
M  V30 2837 H 269.686 0.891334 6.91882 0
M  V30 2838 H 265.583 -0.250896 6.45012 0
M  V30 2839 H 266.351 0.972707 8.127 0
M  V30 2840 N 269.014 -1.53014 -0.377408 0
M  V30 2841 C 270.244 -1.72265 -1.14054 0
M  V30 2842 C 270.652 -0.44601 -1.83868 0
M  V30 2843 O 269.995 0.590095 -1.73964 0
M  V30 2844 C 270.057 -2.82492 -2.22348 0
M  V30 2845 C 269.721 -4.23233 -1.72402 0
M  V30 2846 C 270.718 -5.05992 -1.19448 0
M  V30 2847 C 268.403 -4.696 -1.78273 0
M  V30 2848 C 270.397 -6.33203 -0.730268 0
M  V30 2849 C 268.084 -5.96792 -1.31464 0
M  V30 2850 C 269.082 -6.78424 -0.789297 0
M  V30 2851 O 268.77 -8.0323 -0.328077 0
M  V30 2852 H 268.502 -0.579873 -0.347453 0
M  V30 2853 H 271.056 -2.00502 -0.445882 0
M  V30 2854 H 269.286 -2.49702 -2.95272 0
M  V30 2855 H 270.975 -2.90034 -2.83963 0
M  V30 2856 H 271.741 -4.71349 -1.14259 0
M  V30 2857 H 267.62 -4.06142 -2.18106 0
M  V30 2858 H 271.164 -6.96868 -0.319542 0
M  V30 2859 H 267.061 -6.30937 -1.36342 0
M  V30 2860 H 267.829 -8.1727 -0.448493 0
M  V30 2861 N 270.492 0.636531 -1.44174 0
M  V30 2862 C 271.442 1.74233 -1.47061 0
M  V30 2863 C 272.426 1.57331 -0.337034 0
M  V30 2864 O 273.618 1.67159 -0.581973 0
M  V30 2865 C 270.747 3.12897 -1.41246 0
M  V30 2866 C 269.833 3.35288 -2.59698 0
M  V30 2867 N 270.224 3.2807 -3.84972 0
M  V30 2868 C 268.522 3.66065 -2.54778 0
M  V30 2869 C 269.223 3.51001 -4.63867 0
M  V30 2870 N 268.199 3.73616 -3.94857 0
M  V30 2871 H 272.001 1.67103 -2.41773 0
M  V30 2872 H 269.515 0.838806 -1.3906 0
M  V30 2873 H 271.512 3.92189 -1.41398 0
M  V30 2874 H 270.172 3.21197 -0.47569 0
M  V30 2875 H 271.183 3.07109 -4.17019 0
M  V30 2876 H 267.86 3.81379 -1.6987 0
M  V30 2877 H 269.25 3.51059 -5.72894 0
M  V30 2878 N 271.97 1.30982 0.876444 0
M  V30 2879 C 273.198 1.23242 1.6619 0
M  V30 2880 C 273.613 -0.203345 1.87702 0
M  V30 2881 O 272.97 -1.13317 1.43057 0
M  V30 2882 C 273.021 1.96623 3.03351 0
M  V30 2883 O 272.742 3.34594 2.82804 0
M  V30 2884 C 274.243 1.95644 3.97792 0
M  V30 2885 H 271.463 0.426126 0.518322 0
M  V30 2886 H 274.007 1.7275 1.09442 0
M  V30 2887 H 272.162 1.50892 3.56806 0
M  V30 2888 H 272.576 3.71873 3.69879 0
M  V30 2889 H 274.05 2.51511 4.91372 0
M  V30 2890 H 274.527 0.937395 4.2908 0
M  V30 2891 H 275.133 2.41225 3.50272 0
M  V30 2892 N 273.449 -1.08991 1.13837 0
M  V30 2893 C 274.695 -1.81526 0.90422 0
M  V30 2894 C 275.028 -1.85706 -0.568066 0
M  V30 2895 O 274.303 -1.32855 -1.42056 0
M  V30 2896 C 274.586 -3.27447 1.49835 0
M  V30 2897 C 274.439 -3.31512 3.04006 0
M  V30 2898 C 275.758 -4.24256 1.17025 0
M  V30 2899 H 272.877 -0.659029 0.329923 0
M  V30 2900 H 275.519 -1.27644 1.40737 0
M  V30 2901 H 273.669 -3.73462 1.07044 0
M  V30 2902 H 275.341 -2.93867 3.55584 0
M  V30 2903 H 273.584 -2.70963 3.38765 0
M  V30 2904 H 274.255 -4.34329 3.40679 0
M  V30 2905 H 276.731 -3.86549 1.54009 0
M  V30 2906 H 275.607 -5.24684 1.61237 0
M  V30 2907 H 275.868 -4.42019 0.0846274 0
M  V30 2908 N 274.927 -0.932562 -1.27047 0
M  V30 2909 C 275.857 -0.452902 -2.29066 0
M  V30 2910 C 276.838 0.489338 -1.62909 0
M  V30 2911 O 278.023 0.393046 -1.90181 0
M  V30 2912 C 275.153 0.290698 -3.46081 0
M  V30 2913 C 274.107 -0.564168 -4.24265 0
M  V30 2914 C 273.433 0.308886 -5.33807 0
M  V30 2915 C 274.733 -1.83112 -4.89149 0
M  V30 2916 H 276.427 -1.30552 -2.69437 0
M  V30 2917 H 273.973 -0.629201 -1.29526 0
M  V30 2918 H 275.926 0.637233 -4.16554 0
M  V30 2919 H 274.65 1.17738 -3.0464 0
M  V30 2920 H 273.309 -0.893477 -3.55545 0
M  V30 2921 H 272.957 1.19467 -4.88607 0
M  V30 2922 H 272.657 -0.259633 -5.87026 0
M  V30 2923 H 274.181 0.650884 -6.07121 0
M  V30 2924 H 275.595 -1.55236 -5.51883 0
M  V30 2925 H 273.992 -2.34353 -5.52448 0
M  V30 2926 H 275.062 -2.54772 -4.12576 0
M  V30 2927 N 276.405 1.4127 -0.698611 0
M  V30 2928 C 277.651 2.01979 -0.239972 0
M  V30 2929 C 278.006 1.54353 1.14861 0
M  V30 2930 O 277.299 0.746218 1.76471 0
M  V30 2931 C 277.493 3.56592 -0.240192 0
M  V30 2932 C 277.322 4.19226 -1.62726 0
M  V30 2933 C 276.092 4.53389 -2.23084 0
M  V30 2934 C 278.29 4.45228 -2.57443 0
M  V30 2935 N 276.272 5.01327 -3.54323 0
M  V30 2936 C 277.643 4.94973 -3.73365 0
M  V30 2937 C 279.698 4.27243 -2.55671 0
M  V30 2938 C 278.401 5.28624 -4.878 0
M  V30 2939 C 280.427 4.61985 -3.69221 0
M  V30 2940 C 279.789 5.11904 -4.83873 0
M  V30 2941 H 275.888 0.770561 -0.133269 0
M  V30 2942 H 278.472 1.71767 -0.916748 0
M  V30 2943 H 276.643 3.86271 0.406082 0
M  V30 2944 H 278.375 4.04025 0.23356 0
M  V30 2945 H 275.13 4.39946 -1.75341 0
M  V30 2946 H 275.554 5.29697 -4.21604 0
M  V30 2947 H 280.196 3.87884 -1.68243 0
M  V30 2948 H 277.914 5.66905 -5.75885 0
M  V30 2949 H 281.5 4.49725 -3.69105 0
M  V30 2950 H 280.38 5.38282 -5.70282 0
M  V30 2951 N 277.883 0.443576 1.51229 0
M  V30 2952 C 278.816 -0.410089 2.24485 0
M  V30 2953 C 279.794 -1.01949 1.26669 0
M  V30 2954 O 280.978 -1.06075 1.55821 0
M  V30 2955 C 278.105 -1.57211 3.00004 0
M  V30 2956 C 277.151 -1.08279 4.12526 0
M  V30 2957 S 277.984 -0.0197476 5.35496 0
M  V30 2958 C 279.14 -1.18629 6.14555 0
M  V30 2959 H 279.373 0.211832 2.96544 0
M  V30 2960 H 276.906 0.228156 1.52705 0
M  V30 2961 H 278.864 -2.23825 3.44111 0
M  V30 2962 H 277.525 -2.16547 2.27522 0
M  V30 2963 H 276.718 -1.95193 4.64667 0
M  V30 2964 H 276.32 -0.494797 3.70713 0
M  V30 2965 H 278.612 -2.10344 6.4402 0
M  V30 2966 H 279.555 -0.70472 7.04584 0
M  V30 2967 H 279.963 -1.42768 5.46148 0
M  V30 2968 N 279.361 -1.56624 0.175154 0
M  V30 2969 C 280.271 -2.21741 -0.766042 0
M  V30 2970 C 281.287 -1.21023 -1.25018 0
M  V30 2971 O 282.463 -1.53697 -1.3015 0
M  V30 2972 C 279.528 -2.84839 -1.97655 0
M  V30 2973 C 278.589 -4.00769 -1.53892 0
M  V30 2974 C 277.822 -4.60849 -2.69173 0
M  V30 2975 O 278.045 -4.19823 -3.86141 0
M  V30 2976 O 276.979 -5.50655 -2.43028 0
M  V30 2977 H 280.805 -3.02738 -0.241585 0
M  V30 2978 H 278.39 -1.49305 -0.053222 0
M  V30 2979 H 280.272 -3.24834 -2.68442 0
M  V30 2980 H 278.947 -2.06836 -2.48999 0
M  V30 2981 H 277.854 -3.65436 -0.80044 0
M  V30 2982 H 279.187 -4.80376 -1.07236 0
M  V30 2983 N 280.839 0.0985539 -1.57292 0
M  V30 2984 C 281.771 1.14595 -1.98496 0
M  V30 2985 C 282.784 1.36512 -0.887031 0
M  V30 2986 O 283.973 1.35225 -1.16518 0
M  V30 2987 C 281.073 2.50216 -2.28572 0
M  V30 2988 C 280.246 2.48624 -3.59868 0
M  V30 2989 C 279.305 3.66146 -3.7792 0
M  V30 2990 O 278.331 3.48795 -4.49812 0
M  V30 2991 N 279.533 4.85496 -3.18235 0
M  V30 2992 H 282.298 0.795277 -2.88956 0
M  V30 2993 H 279.859 0.287579 -1.59325 0
M  V30 2994 H 281.851 3.27432 -2.37845 0
M  V30 2995 H 280.421 2.77387 -1.44136 0
M  V30 2996 H 279.641 1.56978 -3.61596 0
M  V30 2997 H 280.929 2.44635 -4.46129 0
M  V30 2998 H 280.327 5.02497 -2.59833 0
M  V30 2999 H 278.884 5.60317 -3.32999 0
M  V30 3000 N 282.317 1.53212 0.369288 0
M  V30 3001 C 283.563 1.69466 1.11397 0
M  V30 3002 C 283.896 0.443257 1.89074 0
M  V30 3003 O 283.171 -0.559386 1.86282 0
M  V30 3004 C 283.454 2.9422 2.07621 0
M  V30 3005 C 283.307 4.29508 1.33577 0
M  V30 3006 C 284.626 3.14565 3.07794 0
M  V30 3007 H 281.745 0.616667 0.403597 0
M  V30 3008 H 284.387 1.85845 0.395179 0
M  V30 3009 H 282.537 2.80387 2.68916 0
M  V30 3010 H 284.209 4.55147 0.750955 0
M  V30 3011 H 282.452 4.29088 0.637618 0
M  V30 3012 H 283.123 5.12926 2.03989 0
M  V30 3013 H 285.599 3.2756 2.56601 0
M  V30 3014 H 284.475 4.03297 3.72348 0
M  V30 3015 H 284.736 2.29675 3.77759 0
M  V30 3016 N 283.795 -0.628877 1.44509 0
M  V30 3017 C 284.725 -1.75187 1.54376 0
M  V30 3018 C 285.706 -1.65411 0.396618 0
M  V30 3019 O 286.891 -1.84137 0.617031 0
M  V30 3020 C 284.021 -3.13725 1.48976 0
M  V30 3021 C 282.975 -3.38291 2.62189 0
M  V30 3022 C 282.301 -4.76883 2.41841 0
M  V30 3023 C 283.601 -3.30632 4.04326 0
M  V30 3024 H 285.295 -1.67187 2.48373 0
M  V30 3025 H 282.841 -0.802909 1.19538 0
M  V30 3026 H 284.794 -3.92064 1.54478 0
M  V30 3027 H 283.518 -3.22515 0.514961 0
M  V30 3028 H 282.177 -2.62334 2.56079 0
M  V30 3029 H 281.825 -4.82378 1.42548 0
M  V30 3030 H 281.525 -4.94278 3.17747 0
M  V30 3031 H 283.049 -5.57449 2.49165 0
M  V30 3032 H 284.463 -3.98873 4.11793 0
M  V30 3033 H 282.86 -3.59561 4.80454 0
M  V30 3034 H 283.93 -2.28404 4.27738 0
M  V30 3035 N 285.273 -1.31445 -0.869486 0
M  V30 3036 C 286.22 -1.19135 -1.97675 0
M  V30 3037 C 287.19 -0.0770266 -1.65921 0
M  V30 3038 O 288.375 -0.249972 -1.89155 0
M  V30 3039 C 285.515 -0.905149 -3.33018 0
M  V30 3040 C 284.628 -2.10285 -3.77365 0
M  V30 3041 C 283.763 -1.75339 -5.01427 0
M  V30 3042 C 282.802 -2.91515 -5.38224 0
M  V30 3043 N 281.939 -2.56762 -6.53466 0
M  V30 3044 H 286.779 -2.13853 -2.07535 0
M  V30 3045 H 284.316 -1.06379 -1.01597 0
M  V30 3046 H 286.274 -0.719765 -4.10944 0
M  V30 3047 H 284.904 0.00519624 -3.228 0
M  V30 3048 H 283.956 -2.39899 -2.95216 0
M  V30 3049 H 285.268 -2.97237 -4.00564 0
M  V30 3050 H 284.422 -1.53266 -5.87022 0
M  V30 3051 H 283.161 -0.855801 -4.80133 0
M  V30 3052 H 282.166 -3.14237 -4.51149 0
M  V30 3053 H 283.391 -3.81985 -5.61484 0
M  V30 3054 H 281.337 -1.69526 -6.33717 0
M  V30 3055 H 281.254 -3.37243 -6.76612 0
M  V30 3056 H 282.522 -2.38083 -7.42251 0
M  V30 3057 N 286.751 1.08385 -1.14413 0
M  V30 3058 C 287.683 2.1519 -0.789036 0
M  V30 3059 C 288.696 1.61638 0.19417 0
M  V30 3060 O 289.885 1.78479 -0.0275711 0
M  V30 3061 C 286.985 3.38565 -0.15058 0
M  V30 3062 C 286.158 4.21501 -1.16857 0
M  V30 3063 C 285.217 5.23277 -0.553832 0
M  V30 3064 O 284.243 5.56041 -1.21686 0
M  V30 3065 N 285.445 5.76629 0.669296 0
M  V30 3066 H 288.21 2.46257 -1.70814 0
M  V30 3067 H 285.771 1.24198 -1.03858 0
M  V30 3068 H 287.763 4.03777 0.273181 0
M  V30 3069 H 286.333 3.05299 0.671667 0
M  V30 3070 H 285.553 3.52265 -1.76926 0
M  V30 3071 H 286.841 4.73731 -1.85624 0
M  V30 3072 H 286.239 5.52243 1.22654 0
M  V30 3073 H 284.796 6.43521 1.03556 0
M  V30 3074 N 288.23 0.939286 1.26551 0
M  V30 3075 C 289.16 0.465044 2.28822 0
M  V30 3076 C 290.141 -0.480692 1.63167 0
M  V30 3077 O 291.326 -0.382955 1.90387 0
M  V30 3078 C 288.456 -0.27234 3.46231 0
M  V30 3079 C 287.41 0.58666 4.2396 0
M  V30 3080 C 286.736 -0.280573 5.33963 0
M  V30 3081 C 288.036 1.85704 4.88171 0
M  V30 3082 H 289.73 1.31979 2.68741 0
M  V30 3083 H 287.276 0.636061 1.29191 0
M  V30 3084 H 289.229 -0.615133 4.16886 0
M  V30 3085 H 287.953 -1.16121 3.0526 0
M  V30 3086 H 286.612 0.91232 3.55067 0
M  V30 3087 H 286.26 -1.16874 4.89234 0
M  V30 3088 H 285.96 0.29076 5.8688 0
M  V30 3089 H 287.484 -0.618678 6.07458 0
M  V30 3090 H 288.898 1.58161 5.51052 0
M  V30 3091 H 287.295 2.37279 5.51197 0
M  V30 3092 H 288.365 2.56957 4.11219 0
M  V30 3093 N 289.708 -1.40897 0.706093 0
M  V30 3094 C 290.985 -1.94868 0.169099 0
M  V30 3095 C 291.365 -1.64485 -1.32318 0
M  V30 3096 O 290.713 -0.95744 -2.07474 0
M  V30 3097 C 290.923 -3.45798 0.471654 0
M  V30 3098 C 292.271 -4.22663 0.405127 0
M  V30 3099 O 293.295 -3.53865 0.407168 0
M  V30 3100 O 292.154 -5.45216 0.374383 0
M  V30 3101 H 289.248 -0.82673 0.0211352 0
M  V30 3102 H 291.794 -1.50558 0.782976 0
M  V30 3103 H 290.566 -3.61235 1.50416 0
M  V30 3104 H 290.189 -3.97225 -0.172666 0
M  V30 3105 N 291.186 -0.45159 -1.50991 0
M  V30 3106 C 292.149 0.341117 -2.26647 0
M  V30 3107 C 293.149 0.937422 -1.30649 0
M  V30 3108 O 294.339 0.809644 -1.54241 0
M  V30 3109 C 291.471 1.48398 -3.06905 0
M  V30 3110 H 292.664 -0.322117 -2.98165 0
M  V30 3111 H 290.217 -0.205122 -1.54948 0
M  V30 3112 H 290.952 2.18284 -2.39838 0
M  V30 3113 H 290.737 1.06241 -3.77432 0
M  V30 3114 H 292.227 2.04367 -3.64176 0
M  V30 3115 N 292.664 1.56529 -0.183458 0
M  V30 3116 C 293.912 1.96855 0.457452 0
M  V30 3117 C 294.233 1.07104 1.62953 0
M  V30 3118 O 293.503 0.139887 1.954 0
M  V30 3119 H 292.083 0.72693 0.171992 0
M  V30 3120 H 294.745 1.93056 -0.267476 0
M  V30 3121 H 293.841 3.01423 0.809368 0
M  V30 3122 N 294.142 -0.090211 1.57342 0
M  V30 3123 C 295.052 -1.12735 2.05738 0
M  V30 3124 C 296.068 -1.43557 0.983231 0
M  V30 3125 O 297.244 -1.54101 1.29672 0
M  V30 3126 C 294.309 -2.42659 2.47624 0
M  V30 3127 C 293.37 -2.18975 3.69254 0
M  V30 3128 C 292.603 -3.42704 4.09133 0
M  V30 3129 O 292.826 -4.51127 3.49057 0
M  V30 3130 O 291.76 -3.32003 5.02053 0
M  V30 3131 H 295.586 -0.746279 2.94388 0
M  V30 3132 H 293.171 -0.303064 1.46294 0
M  V30 3133 H 295.053 -3.19155 2.7517 0
M  V30 3134 H 293.728 -2.80182 1.62109 0
M  V30 3135 H 292.635 -1.40244 3.46818 0
M  V30 3136 H 293.968 -1.86342 4.55563 0
M  V30 3137 N 295.62 -1.53406 -0.361157 0
M  V30 3138 C 296.53 -1.83122 -1.4664 0
M  V30 3139 C 297.546 -0.719943 -1.58407 0
M  V30 3140 O 298.722 -1.01046 -1.74218 0
M  V30 3141 C 295.787 -2.01891 -2.81853 0
M  V30 3142 C 294.848 -3.25784 -2.79577 0
M  V30 3143 C 294.081 -3.43648 -4.0834 0
M  V30 3144 O 294.304 -2.65714 -5.0473 0
M  V30 3145 O 293.238 -4.37018 -4.13883 0
M  V30 3146 H 297.064 -2.7703 -1.24451 0
M  V30 3147 H 294.649 -1.38841 -0.551678 0
M  V30 3148 H 296.531 -2.15782 -3.61962 0
M  V30 3149 H 295.206 -1.11173 -3.0401 0
M  V30 3150 H 294.113 -3.17312 -1.98151 0
M  V30 3151 H 295.446 -4.16439 -2.62373 0
M  V30 3152 N 297.098 0.621204 -1.44841 0
M  V30 3153 C 298.061 1.71459 -1.521 0
M  V30 3154 C 299.061 1.55696 -0.401933 0
M  V30 3155 O 300.251 1.61011 -0.664925 0
M  V30 3156 C 297.383 3.10624 -1.40447 0
M  V30 3157 H 298.576 1.66394 -2.49506 0
M  V30 3158 H 296.129 0.835745 -1.3208 0
M  V30 3159 H 296.864 3.21277 -0.441737 0
M  V30 3160 H 296.649 3.23473 -2.21602 0
M  V30 3161 H 298.139 3.90293 -1.4853 0
M  V30 3162 N 298.576 1.31904 0.862503 0
M  V30 3163 C 299.804 1.24998 1.64873 0
M  V30 3164 C 300.219 -0.183425 1.87907 0
M  V30 3165 O 299.576 -1.11794 1.44251 0
M  V30 3166 C 299.627 1.99829 3.01248 0
M  V30 3167 O 299.348 3.37575 2.79239 0
M  V30 3168 C 300.849 1.99852 3.95694 0
M  V30 3169 H 298.069 0.431599 0.513773 0
M  V30 3170 H 300.613 1.73901 1.07604 0
M  V30 3171 H 298.768 1.54668 3.55185 0
M  V30 3172 H 299.182 3.75776 3.65914 0
M  V30 3173 H 300.656 2.56709 4.88676 0
M  V30 3174 H 301.133 0.982852 4.28062 0
M  V30 3175 H 301.739 2.44926 3.47694 0
M  V30 3176 N 300.054 -1.07777 1.14986 0
M  V30 3177 C 301.282 -1.84018 0.945773 0
M  V30 3178 C 301.697 -1.81897 -0.505863 0
M  V30 3179 O 301.054 -1.22726 -1.35072 0
M  V30 3180 C 301.105 -3.31287 1.44677 0
M  V30 3181 O 300.826 -3.33449 2.84154 0
M  V30 3182 C 302.327 -4.24311 1.28355 0
M  V30 3183 H 299.547 -0.580716 0.336169 0
M  V30 3184 H 302.091 -1.36077 1.52654 0
M  V30 3185 H 300.246 -3.76594 0.908625 0
M  V30 3186 H 300.66 -4.25427 3.06777 0
M  V30 3187 H 302.134 -5.2573 1.68261 0
M  V30 3188 H 302.611 -4.38612 0.227184 0
M  V30 3189 H 303.217 -3.84836 1.81056 0
M  V30 3190 N 301.532 -0.945985 -1.26051 0
M  V30 3191 C 302.76 -0.613025 -1.9761 0
M  V30 3192 C 303.175 0.813035 -1.70397 0
M  V30 3193 O 302.532 1.54274 -0.974979 0
M  V30 3194 C 302.583 -0.85159 -3.51326 0
M  V30 3195 O 302.304 -2.22157 -3.77595 0
M  V30 3196 C 303.805 -0.529831 -4.40122 0
M  V30 3197 H 301.025 -0.230593 -0.630133 0
M  V30 3198 H 303.569 -1.268 -1.60443 0
M  V30 3199 H 301.724 -0.243151 -3.86636 0
M  V30 3200 H 302.138 -2.2852 -4.721 0
M  V30 3201 H 303.612 -0.747348 -5.46917 0
M  V30 3202 H 304.089 0.535341 -4.35925 0
M  V30 3203 H 304.695 -1.11721 -4.10364 0
M  V30 3204 N 303.011 1.40521 -0.713556 0
M  V30 3205 C 303.958 2.30723 -0.059684 0
M  V30 3206 C 304.928 1.48079 0.752448 0
M  V30 3207 O 306.113 1.76823 0.71681 0
M  V30 3208 C 303.253 3.34274 0.857594 0
M  V30 3209 C 302.366 4.31986 0.0351536 0
M  V30 3210 C 301.501 5.22605 0.951724 0
M  V30 3211 C 300.54 6.11976 0.123253 0
M  V30 3212 N 299.677 6.9502 0.99459 0
M  V30 3213 H 304.517 2.86074 -0.834596 0
M  V30 3214 H 302.054 1.40879 -0.42326 0
M  V30 3215 H 304.012 3.92879 1.40364 0
M  V30 3216 H 302.642 2.8043 1.59871 0
M  V30 3217 H 301.694 3.7518 -0.628052 0
M  V30 3218 H 303.006 4.95101 -0.606347 0
M  V30 3219 H 302.16 5.86131 1.56638 0
M  V30 3220 H 300.899 4.59759 1.62705 0
M  V30 3221 H 299.904 5.47482 -0.50435 0
M  V30 3222 H 301.129 6.76881 -0.548539 0
M  V30 3223 H 299.075 6.34764 1.6556 0
M  V30 3224 H 298.992 7.54892 0.40908 0
M  V30 3225 H 300.26 7.62997 1.59549 0
M  V30 3226 N 304.489 0.459591 1.5075 0
M  V30 3227 C 305.714 -0.0996819 2.0716 0
M  V30 3228 C 306.139 -1.33761 1.32249 0
M  V30 3229 O 305.497 -1.77551 0.366786 0
M  V30 3230 C 305.545 -0.378226 3.58611 0
M  V30 3231 O 304.649 -1.46081 3.85661 0
M  V30 3232 H 303.99 0.00791392 0.663953 0
M  V30 3233 H 306.52 0.647329 1.9409 0
M  V30 3234 H 306.53 -0.622135 4.03229 0
M  V30 3235 H 305.205 0.526439 4.12555 0
M  V30 3236 H 303.782 -1.20511 3.5289 0
M  V30 3237 N 305.967 -1.56429 0.191757 0
M  V30 3238 C 306.899 -2.16154 -0.762245 0
M  V30 3239 C 307.912 -1.12247 -1.17917 0
M  V30 3240 O 309.101 -1.39353 -1.11548 0
M  V30 3241 C 306.201 -2.70606 -2.04024 0
M  V30 3242 C 305.374 -3.99381 -1.78364 0
M  V30 3243 C 304.433 -4.38692 -2.90578 0
M  V30 3244 O 303.459 -5.06179 -2.6033 0
M  V30 3245 N 304.661 -4.01922 -4.18854 0
M  V30 3246 H 307.426 -2.98643 -0.251526 0
M  V30 3247 H 304.987 -1.61897 0.00967373 0
M  V30 3248 H 306.979 -2.93891 -2.78227 0
M  V30 3249 H 305.549 -1.9259 -2.46227 0
M  V30 3250 H 304.769 -3.84262 -0.879581 0
M  V30 3251 H 306.057 -4.83445 -1.58614 0
M  V30 3252 H 305.455 -3.47631 -4.46283 0
M  V30 3253 H 304.012 -4.30165 -4.89695 0
M  V30 3254 N 307.445 0.0818655 -1.57387 0
M  V30 3255 C 308.691 0.784074 -1.8703 0
M  V30 3256 C 309.024 1.77729 -0.782689 0
M  V30 3257 O 308.299 1.93384 0.208051 0
M  V30 3258 C 308.582 1.50105 -3.27323 0
M  V30 3259 C 308.435 0.524925 -4.46727 0
M  V30 3260 C 309.754 2.44843 -3.65705 0
M  V30 3261 H 306.873 0.283582 -0.680257 0
M  V30 3262 H 309.515 0.0474352 -1.89941 0
M  V30 3263 H 307.665 2.12897 -3.24972 0
M  V30 3264 H 309.337 -0.0970111 -4.61198 0
M  V30 3265 H 307.58 -0.160606 -4.33503 0
M  V30 3266 H 308.251 1.064 -5.41648 0
M  V30 3267 H 310.727 1.92135 -3.69085 0
M  V30 3268 H 309.603 2.92018 -4.64776 0
M  V30 3269 H 309.864 3.29197 -2.95096 0
M  V30 3270 N 308.923 1.53595 0.353017 0
M  V30 3271 C 309.853 1.83902 1.43883 0
M  V30 3272 C 310.834 0.693421 1.55324 0
M  V30 3273 O 312.019 0.944452 1.69687 0
M  V30 3274 C 309.149 2.04016 2.8106 0
M  V30 3275 C 308.103 3.19814 2.84434 0
M  V30 3276 C 307.429 3.25244 4.24406 0
M  V30 3277 C 308.729 4.58133 2.50822 0
M  V30 3278 H 310.423 2.74835 1.1877 0
M  V30 3279 H 307.969 1.32242 0.569917 0
M  V30 3280 H 309.922 2.238 3.57059 0
M  V30 3281 H 308.646 1.09804 3.07588 0
M  V30 3282 H 307.305 2.9987 2.10887 0
M  V30 3283 H 306.953 2.28646 4.48029 0
M  V30 3284 H 306.653 4.03054 4.27576 0
M  V30 3285 H 308.177 3.47228 5.0226 0
M  V30 3286 H 309.591 4.77995 3.16534 0
M  V30 3287 H 307.988 5.38276 2.6529 0
M  V30 3288 H 309.058 4.62387 1.46034 0
M  V30 3289 N 310.401 -0.613514 1.45168 0
M  V30 3290 C 311.678 -1.37263 1.39349 0
M  V30 3291 C 312.058 -2.11012 0.0610848 0
M  V30 3292 O 311.406 -2.07502 -0.956825 0
M  V30 3293 C 311.616 -2.3244 2.60332 0
M  V30 3294 C 312.964 -2.9523 3.05163 0
M  V30 3295 O 313.988 -2.42762 2.60663 0
M  V30 3296 O 312.847 -3.90454 3.82372 0
M  V30 3297 H 309.941 -0.615188 0.552696 0
M  V30 3298 H 312.487 -0.637097 1.57287 0
M  V30 3299 H 311.259 -1.77164 3.48896 0
M  V30 3300 H 310.882 -3.13383 2.44698 0
M  V30 3301 N 311.879 -1.3236 -0.855495 0
M  V30 3302 C 313.109 -1.25688 -1.6397 0
M  V30 3303 C 313.517 0.177592 -1.88365 0
M  V30 3304 O 312.86 1.12485 -1.45234 0
M  V30 3305 C 312.922 -1.94602 -3.02275 0
M  V30 3306 C 312.586 -3.43937 -3.00926 0
M  V30 3307 C 313.583 -4.39435 -2.77835 0
M  V30 3308 C 311.268 -3.85858 -3.21588 0
M  V30 3309 C 313.262 -5.74829 -2.75409 0
M  V30 3310 C 310.949 -5.21361 -3.18789 0
M  V30 3311 C 311.947 -6.15658 -2.95727 0
M  V30 3312 O 311.635 -7.48681 -2.928 0
M  V30 3313 H 311.367 -0.434972 -0.51747 0
M  V30 3314 H 313.921 -1.75023 -1.075 0
M  V30 3315 H 312.151 -1.39836 -3.60531 0
M  V30 3316 H 313.84 -1.81651 -3.62985 0
M  V30 3317 H 314.606 -4.08374 -2.6164 0
M  V30 3318 H 310.485 -3.12883 -3.38564 0
M  V30 3319 H 314.029 -6.48404 -2.57328 0
M  V30 3320 H 309.926 -5.52052 -3.34528 0
M  V30 3321 H 310.694 -7.5803 -3.0876 0
M  V30 3322 N 313.357 1.07166 -1.15556 0
M  V30 3323 C 314.287 2.16403 -0.877046 0
M  V30 3324 C 315.268 1.69217 0.173111 0
M  V30 3325 O 316.453 1.94181 0.027084 0
M  V30 3326 C 313.583 3.45349 -0.367632 0
M  V30 3327 C 312.537 4.05995 -1.35468 0
M  V30 3328 C 311.863 5.30045 -0.704038 0
M  V30 3329 C 313.163 4.45804 -2.72132 0
M  V30 3330 H 314.857 2.39959 -1.79053 0
M  V30 3331 H 312.403 1.15325 -0.862331 0
M  V30 3332 H 314.356 4.21095 -0.160317 0
M  V30 3333 H 313.08 3.21385 0.581326 0
M  V30 3334 H 311.739 3.32296 -1.54839 0
M  V30 3335 H 311.387 5.02373 0.251128 0
M  V30 3336 H 311.087 5.71579 -1.36277 0
M  V30 3337 H 312.611 6.08495 -0.50654 0
M  V30 3338 H 314.025 5.12671 -2.56595 0
M  V30 3339 H 312.422 4.98296 -3.34397 0
M  V30 3340 H 313.492 3.57083 -3.28054 0
M  V30 3341 N 314.835 0.952656 1.25548 0
M  V30 3342 C 316.06 0.623025 1.97821 0
M  V30 3343 C 316.485 -0.7976 1.70352 0
M  V30 3344 O 315.843 -1.53905 0.958283 0
M  V30 3345 C 315.891 0.885532 3.49558 0
M  V30 3346 O 314.995 -0.0366641 4.12384 0
M  V30 3347 H 314.336 0.237082 0.620232 0
M  V30 3348 H 316.866 1.27871 1.59719 0
M  V30 3349 H 316.876 0.811009 3.99858 0
M  V30 3350 H 315.551 1.92094 3.6888 0
M  V30 3351 H 314.128 0.0898954 3.72792 0
M  V30 3352 N 316.313 -1.40141 0.720998 0
M  V30 3353 C 317.543 -2.04798 0.27226 0
M  V30 3354 C 317.951 -1.54442 -1.09289 0
M  V30 3355 O 317.294 -0.698342 -1.69908 0
M  V30 3356 C 317.356 -3.59048 0.18027 0
M  V30 3357 C 317.02 -4.32317 1.48159 0
M  V30 3358 C 318.017 -4.59902 2.42458 0
M  V30 3359 C 315.702 -4.71125 1.74202 0
M  V30 3360 C 317.696 -5.25288 3.61042 0
M  V30 3361 C 315.383 -5.36242 2.93066 0
M  V30 3362 C 316.381 -5.63254 3.86308 0
M  V30 3363 O 316.069 -6.27024 5.03086 0
M  V30 3364 H 315.801 -0.665419 0.119139 0
M  V30 3365 H 318.355 -1.80436 0.981432 0
M  V30 3366 H 316.585 -3.82251 -0.58489 0
M  V30 3367 H 318.274 -4.05221 -0.234618 0
M  V30 3368 H 319.04 -4.30379 2.23604 0
M  V30 3369 H 314.919 -4.49466 1.02477 0
M  V30 3370 H 318.463 -5.46289 4.33837 0
M  V30 3371 H 314.36 -5.65185 3.11826 0
M  V30 3372 H 315.128 -6.4552 5.03235 0
M  V30 3373 N 317.792 -0.46758 -1.50504 0
M  V30 3374 C 318.755 0.317059 -2.26996 0
M  V30 3375 C 319.755 0.923513 -1.31635 0
M  V30 3376 O 320.945 0.793239 -1.55091 0
M  V30 3377 C 318.077 1.45134 -3.08462 0
M  V30 3378 H 319.27 -0.353723 -2.97807 0
M  V30 3379 H 316.823 -0.221545 -1.54722 0
M  V30 3380 H 317.558 2.15728 -2.4214 0
M  V30 3381 H 317.343 1.02232 -3.78538 0
M  V30 3382 H 318.833 2.00493 -3.66323 0
M  V30 3383 N 319.27 1.56325 -0.20005 0
M  V30 3384 C 320.516 1.98012 0.438059 0
M  V30 3385 C 320.849 1.08702 1.60927 0
M  V30 3386 O 320.124 0.140064 1.93995 0
M  V30 3387 C 320.407 3.48841 0.893419 0
M  V30 3388 C 320.26 4.48928 -0.279947 0
M  V30 3389 C 321.579 4.03498 1.75719 0
M  V30 3390 H 318.698 0.719918 0.157757 0
M  V30 3391 H 321.34 1.87743 -0.291968 0
M  V30 3392 H 319.49 3.57723 1.51547 0
M  V30 3393 H 321.162 4.52079 -0.91772 0
M  V30 3394 H 319.405 4.23694 -0.930919 0
M  V30 3395 H 320.076 5.5194 0.0812601 0
M  V30 3396 H 322.552 3.97427 1.23253 0
M  V30 3397 H 321.428 5.09393 2.04476 0
M  V30 3398 H 321.689 3.4906 2.71311 0
M  V30 3399 N 320.748 -0.0735177 1.57428 0
M  V30 3400 C 321.995 -0.772999 1.87166 0
M  V30 3401 C 322.323 -1.77665 0.791551 0
M  V30 3402 O 321.578 -1.94541 -0.212636 0
M  V30 3403 C 321.877 -1.51799 3.23561 0
M  V30 3404 C 321.543 -0.654484 4.46125 0
M  V30 3405 C 320.205 -0.416511 4.79394 0
M  V30 3406 C 322.557 -0.0555862 5.2117 0
M  V30 3407 C 319.885 0.429869 5.85123 0
M  V30 3408 C 322.237 0.778239 6.27795 0
M  V30 3409 C 320.901 1.0261 6.59566 0
M  V30 3410 H 320.171 -0.282861 0.684888 0
M  V30 3411 H 322.818 -0.0338272 1.9147 0
M  V30 3412 H 321.123 -2.32932 3.1504 0
M  V30 3413 H 322.82 -2.06397 3.43804 0
M  V30 3414 H 319.41 -0.850091 4.20085 0
M  V30 3415 H 323.594 -0.226558 4.95783 0
M  V30 3416 H 318.85 0.630665 6.08139 0
M  V30 3417 H 323.024 1.24906 6.85107 0
M  V30 3418 H 320.651 1.68371 7.4132 0
M  V30 3419 N 322.226 -1.5378 -0.344866 0
M  V30 3420 C 323.158 -1.77988 -1.44406 0
M  V30 3421 C 324.171 -0.661138 -1.48771 0
M  V30 3422 O 325.36 -0.937842 -1.51877 0
M  V30 3423 C 322.46 -1.86345 -2.8307 0
M  V30 3424 C 321.633 -3.16256 -3.0216 0
M  V30 3425 C 320.692 -3.15588 -4.21059 0
M  V30 3426 O 319.718 -3.89314 -4.15239 0
M  V30 3427 N 320.92 -2.37864 -5.29529 0
M  V30 3428 H 323.685 -2.72839 -1.24012 0
M  V30 3429 H 321.246 -1.52814 -0.534737 0
M  V30 3430 H 323.238 -1.83351 -3.60783 0
M  V30 3431 H 321.808 -0.986858 -2.96614 0
M  V30 3432 H 321.028 -3.32385 -2.11929 0
M  V30 3433 H 322.316 -4.0207 -3.11797 0
M  V30 3434 H 321.714 -1.77514 -5.37127 0
M  V30 3435 H 320.271 -2.40668 -6.05741 0
M  V30 3436 N 323.704 0.605807 -1.45491 0
M  V30 3437 C 324.634 1.72709 -1.57143 0
M  V30 3438 C 325.615 1.6476 -0.422884 0
M  V30 3439 O 326.8 1.83132 -0.646247 0
M  V30 3440 C 323.93 3.11316 -1.53948 0
M  V30 3441 C 322.884 3.34077 -2.67537 0
M  V30 3442 C 322.21 4.72975 -2.49397 0
M  V30 3443 C 323.51 3.24158 -4.09535 0
M  V30 3444 H 325.204 1.63214 -2.51001 0
M  V30 3445 H 322.75 0.78379 -1.208 0
M  V30 3446 H 324.703 3.89557 -1.60696 0
M  V30 3447 H 323.427 3.21655 -0.566205 0
M  V30 3448 H 322.086 2.58227 -2.6022 0
M  V30 3449 H 321.734 4.8005 -1.50205 0
M  V30 3450 H 321.434 4.8916 -3.25571 0
M  V30 3451 H 322.958 5.53414 -2.58002 0
M  V30 3452 H 324.372 3.92271 -4.18086 0
M  V30 3453 H 322.769 3.51872 -4.86113 0
M  V30 3454 H 323.839 2.2157 -4.31317 0
M  V30 3455 N 325.182 1.32811 0.848464 0
M  V30 3456 C 326.43 1.23479 1.59991 0
M  V30 3457 C 326.751 -0.201853 1.93952 0
M  V30 3458 O 326.021 -1.12818 1.60153 0
M  V30 3459 H 324.601 0.454034 0.593179 0
M  V30 3460 H 327.263 1.66412 1.01455 0
M  V30 3461 H 326.359 1.82178 2.53412 0
M  V30 3462 N 326.66 -1.06551 1.16123 0
M  V30 3463 C 327.937 -1.76097 0.85142 0
M  V30 3464 C 328.317 -2.00802 -0.6513 0
M  V30 3465 O 327.665 -1.63302 -1.59827 0
M  V30 3466 C 327.875 -3.06384 1.67122 0
M  V30 3467 C 329.223 -3.80585 1.88255 0
M  V30 3468 O 330.247 -3.16218 1.63966 0
M  V30 3469 O 329.106 -4.96212 2.2899 0
M  V30 3470 H 326.2 -0.765102 0.313923 0
M  V30 3471 H 328.746 -1.12844 1.26745 0
M  V30 3472 H 327.518 -2.84071 2.69108 0
M  V30 3473 H 327.141 -3.77371 1.25206 0
M  V30 3474 N 328.138 -0.959301 -1.25041 0
M  V30 3475 C 329.068 -0.501388 -2.28053 0
M  V30 3476 C 330.049 0.454673 -1.63911 0
M  V30 3477 O 331.234 0.352618 -1.90972 0
M  V30 3478 C 328.364 0.217224 -3.4662 0
M  V30 3479 C 327.318 -0.654034 -4.22973 0
M  V30 3480 C 326.644 0.195589 -5.34342 0
M  V30 3481 C 327.944 -1.93447 -4.85155 0
M  V30 3482 H 329.638 -1.36238 -2.66608 0
M  V30 3483 H 327.184 -0.656534 -1.28163 0
M  V30 3484 H 329.137 0.548732 -4.17812 0
M  V30 3485 H 327.861 1.1125 -3.07068 0
M  V30 3486 H 326.52 -0.968693 -3.5357 0
M  V30 3487 H 326.168 1.09076 -4.91031 0
M  V30 3488 H 325.868 -0.384091 -5.86343 0
M  V30 3489 H 327.392 0.521958 -6.08365 0
M  V30 3490 H 328.806 -1.66908 -5.48466 0
M  V30 3491 H 327.203 -2.46018 -5.47353 0
M  V30 3492 H 328.273 -2.63466 -4.07079 0
M  V30 3493 N 329.616 1.39756 -0.72842 0
M  V30 3494 C 330.566 2.2792 -0.0603424 0
M  V30 3495 C 331.55 1.43922 0.719399 0
M  V30 3496 O 332.742 1.66895 0.589489 0
M  V30 3497 C 329.871 3.32582 0.851104 0
M  V30 3498 C 328.957 4.24049 0.0658641 0
M  V30 3499 N 329.348 4.96653 -0.957578 0
M  V30 3500 C 327.646 4.45013 0.296509 0
M  V30 3501 C 328.347 5.63836 -1.43052 0
M  V30 3502 N 327.323 5.38397 -0.750315 0
M  V30 3503 H 331.125 2.81504 -0.84455 0
M  V30 3504 H 328.639 1.5236 -0.562155 0
M  V30 3505 H 330.636 3.94603 1.34514 0
M  V30 3506 H 329.296 2.80558 1.63454 0
M  V30 3507 H 330.307 5.00297 -1.33877 0
M  V30 3508 H 326.984 4.03943 1.05527 0
M  V30 3509 H 328.374 6.31974 -2.28163 0
M  V30 3510 N 331.094 0.475555 1.50254 0
M  V30 3511 C 332.51 0.12997 1.5907 0
M  V30 3512 C 332.71 -1.36385 1.48328 0
M  V30 3513 O 331.766 -2.13754 1.34407 0
M  V30 3514 C 333.079 0.684139 2.92814 0
M  V30 3515 C 334.627 0.647965 3.0622 0
M  V30 3516 C 335.102 1.17975 4.42545 0
M  V30 3517 N 336.593 1.13936 4.48969 0
M  V30 3518 C 337.328 1.52129 5.52851 0
M  V30 3519 N 336.824 1.97793 6.63965 0
M  V30 3520 N 338.617 1.43704 5.4342 0
M  V30 3521 H 330.768 1.44706 1.55479 0
M  V30 3522 H 333.031 0.598691 0.735033 0
M  V30 3523 H 332.737 1.73079 3.06164 0
M  V30 3524 H 332.611 0.130204 3.76975 0
M  V30 3525 H 334.998 -0.38979 2.92514 0
M  V30 3526 H 335.079 1.23876 2.23805 0
M  V30 3527 H 334.723 2.21616 4.57 0
M  V30 3528 H 334.653 0.565138 5.23559 0
M  V30 3529 H 337.144 0.804488 3.69238 0
M  V30 3530 H 337.457 2.25072 7.39299 0
M  V30 3531 H 335.802 2.01749 6.65073 0
M  V30 3532 H 338.993 1.07867 4.55502 0
M  V30 3533 H 339.166 1.73794 6.24259 0
M  V30 3534 N 332.573 -1.56217 0.208337 0
M  V30 3535 C 333.536 -2.18455 -0.693557 0
M  V30 3536 C 334.536 -1.14268 -1.13135 0
M  V30 3537 O 335.726 -1.39577 -1.0423 0
M  V30 3538 C 332.858 -2.79727 -1.94848 0
M  V30 3539 H 334.051 -2.99519 -0.15114 0
M  V30 3540 H 331.604 -1.56245 -0.041287 0
M  V30 3541 H 332.339 -2.02497 -2.53309 0
M  V30 3542 H 332.124 -3.56009 -1.64316 0
M  V30 3543 H 333.614 -3.27475 -2.59133 0
M  V30 3544 N 334.051 0.0651679 -1.57465 0
M  V30 3545 C 334.981 1.07693 -2.07182 0
M  V30 3546 C 335.962 1.39962 -0.966673 0
M  V30 3547 O 337.147 1.49475 -1.2398 0
M  V30 3548 C 334.277 2.3885 -2.52127 0
M  V30 3549 C 333.231 2.20917 -3.66579 0
M  V30 3550 C 332.557 3.57515 -3.97601 0
M  V30 3551 C 333.857 1.62493 -4.9638 0
M  V30 3552 H 335.551 0.663199 -2.91962 0
M  V30 3553 H 333.097 0.317569 -1.40455 0
M  V30 3554 H 335.05 3.09928 -2.85522 0
M  V30 3555 H 333.774 2.82215 -1.64384 0
M  V30 3556 H 332.433 1.52279 -3.33477 0
M  V30 3557 H 332.081 3.98463 -3.06979 0
M  V30 3558 H 331.781 3.46353 -4.74672 0
M  V30 3559 H 333.305 4.30013 -4.33499 0
M  V30 3560 H 334.719 2.23445 -5.27963 0
M  V30 3561 H 333.116 1.62009 -5.77818 0
M  V30 3562 H 334.186 0.587041 -4.81333 0
M  V30 3563 N 335.529 1.53961 0.336706 0
M  V30 3564 C 336.439 1.85432 1.43708 0
M  V30 3565 C 337.455 0.745053 1.57242 0
M  V30 3566 O 338.631 1.03804 1.72588 0
M  V30 3567 C 335.696 2.06349 2.78605 0
M  V30 3568 C 334.757 3.30191 2.74358 0
M  V30 3569 C 333.99 3.50101 4.02822 0
M  V30 3570 O 334.213 2.7371 5.00439 0
M  V30 3571 O 333.147 4.43547 4.06878 0
M  V30 3572 H 336.973 2.78975 1.20028 0
M  V30 3573 H 334.558 1.39701 0.52952 0
M  V30 3574 H 336.44 2.21513 3.58483 0
M  V30 3575 H 335.115 1.15995 3.02203 0
M  V30 3576 H 334.022 3.20425 1.93078 0
M  V30 3577 H 335.355 4.2056 2.55715 0
M  V30 3578 N 337.007 -0.598083 1.45811 0
M  V30 3579 C 337.937 -1.71873 1.58057 0
M  V30 3580 C 338.918 -1.64533 0.431615 0
M  V30 3581 O 340.103 -1.82787 0.65595 0
M  V30 3582 C 337.233 -3.10495 1.55597 0
M  V30 3583 C 336.187 -3.32654 2.69305 0
M  V30 3584 C 335.513 -4.71646 2.51902 0
M  V30 3585 C 336.813 -3.21981 4.11248 0
M  V30 3586 H 338.507 -1.61881 2.51863 0
M  V30 3587 H 336.053 -0.777372 1.21214 0
M  V30 3588 H 338.006 -3.88699 1.6276 0
M  V30 3589 H 336.73 -3.2135 0.583255 0
M  V30 3590 H 335.389 -2.56843 2.61586 0
M  V30 3591 H 335.037 -4.79246 1.52748 0
M  V30 3592 H 334.737 -4.87426 3.2816 0
M  V30 3593 H 336.261 -5.52038 2.60933 0
M  V30 3594 H 337.675 -3.90049 4.20161 0
M  V30 3595 H 336.072 -3.49289 4.87972 0
M  V30 3596 H 337.142 -2.1928 4.32486 0
M  V30 3597 N 338.485 -1.33259 -0.841409 0
M  V30 3598 C 339.713 -1.27605 -1.62864 0
M  V30 3599 C 340.128 0.153507 -1.88175 0
M  V30 3600 O 339.485 1.09485 -1.46011 0
M  V30 3601 C 339.536 -2.04596 -2.98031 0
M  V30 3602 O 339.257 -3.41975 -2.73834 0
M  V30 3603 C 340.758 -2.06122 -3.92465 0
M  V30 3604 H 337.978 -0.439718 -0.506842 0
M  V30 3605 H 340.522 -1.75591 -1.04824 0
M  V30 3606 H 338.677 -1.60299 -3.5268 0
M  V30 3607 H 339.091 -3.81549 -3.59889 0
M  V30 3608 H 340.565 -2.64451 -4.84531 0
M  V30 3609 H 341.042 -1.05083 -4.26444 0
M  V30 3610 H 341.648 -2.50427 -3.43753 0
M  V30 3611 N 339.963 1.05934 -1.16686 0
M  V30 3612 C 341.379 1.30938 -0.912542 0
M  V30 3613 C 341.579 1.96803 0.432533 0
M  V30 3614 O 340.635 2.23693 1.17123 0
M  V30 3615 C 341.948 2.18649 -2.06429 0
M  V30 3616 C 343.496 2.32055 -2.10047 0
M  V30 3617 C 343.971 3.23122 -3.24586 0
M  V30 3618 N 345.462 3.30706 -3.24327 0
M  V30 3619 C 346.197 4.01273 -4.09594 0
M  V30 3620 N 345.693 4.74332 -5.04956 0
M  V30 3621 N 347.486 3.97361 -3.97569 0
M  V30 3622 H 339.637 0.615777 -2.03278 0
M  V30 3623 H 341.9 0.334077 -0.887185 0
M  V30 3624 H 341.606 1.77534 -3.03603 0
M  V30 3625 H 341.48 3.19252 -2.00894 0
M  V30 3626 H 343.867 2.72415 -1.13464 0
M  V30 3627 H 343.948 1.31107 -2.19647 0
M  V30 3628 H 343.592 2.83477 -4.2143 0
M  V30 3629 H 343.522 4.24057 -3.12223 0
M  V30 3630 H 346.013 2.78644 -2.55276 0
M  V30 3631 H 346.326 5.25716 -5.6643 0
M  V30 3632 H 344.671 4.733 -5.08933 0
M  V30 3633 H 347.862 3.39405 -3.22369 0
M  V30 3634 H 348.035 4.52089 -4.64241 0
M  V30 3635 N 341.441 0.965919 1.2453 0
M  V30 3636 C 342.857 0.67216 1.44756 0
M  V30 3637 C 343.057 -0.766609 1.86347 0
M  V30 3638 O 342.113 -1.5407 2.00047 0
M  V30 3639 C 343.426 1.65473 2.51076 0
M  V30 3640 C 344.974 1.66716 2.64905 0
M  V30 3641 C 345.449 2.63766 3.74421 0
M  V30 3642 N 346.94 2.62198 3.81846 0
M  V30 3643 C 347.675 3.33966 4.66106 0
M  V30 3644 N 347.171 4.15245 5.54566 0
M  V30 3645 N 348.964 3.22799 4.60171 0
M  V30 3646 H 341.115 1.89553 0.958293 0
M  V30 3647 H 343.378 0.815979 0.482579 0
M  V30 3648 H 343.084 2.68296 2.27399 0
M  V30 3649 H 342.958 1.4261 3.49202 0
M  V30 3650 H 345.345 0.646057 2.87941 0
M  V30 3651 H 345.426 1.93642 1.67142 0
M  V30 3652 H 345.07 3.6601 3.52135 0
M  V30 3653 H 345 2.34121 4.71694 0
M  V30 3654 H 347.491 2.032 3.18619 0
M  V30 3655 H 347.804 4.66898 6.15814 0
M  V30 3656 H 346.149 4.1934 5.54237 0
M  V30 3657 H 349.34 2.58764 3.90075 0
M  V30 3658 H 349.513 3.78994 5.25612 0
M  V30 3659 N 342.919 -1.39368 0.735821 0
M  V30 3660 C 343.849 -2.33234 0.111506 0
M  V30 3661 C 344.83 -1.53954 -0.723334 0
M  V30 3662 O 346.015 -1.82344 -0.668147 0
M  V30 3663 C 343.145 -3.38057 -0.795917 0
M  V30 3664 C 342.099 -4.2795 -0.065172 0
M  V30 3665 C 341.425 -5.23479 -1.08967 0
M  V30 3666 C 342.725 -5.10741 1.09273 0
M  V30 3667 H 344.419 -2.85692 0.895571 0
M  V30 3668 H 341.965 -1.37364 0.432109 0
M  V30 3669 H 343.918 -4.02675 -1.24221 0
M  V30 3670 H 342.642 -2.8404 -1.61211 0
M  V30 3671 H 341.301 -3.64813 0.361511 0
M  V30 3672 H 340.949 -4.65758 -1.89944 0
M  V30 3673 H 340.649 -5.84472 -0.605489 0
M  V30 3674 H 342.173 -5.90974 -1.53565 0
M  V30 3675 H 343.587 -5.68699 0.724841 0
M  V30 3676 H 341.984 -5.8088 1.50659 0
M  V30 3677 H 343.054 -4.45525 1.91404 0
M  V30 3678 N 344.397 -0.483516 -1.5 0
M  V30 3679 C 345.327 0.293829 -2.31644 0
M  V30 3680 C 346.308 0.978864 -1.39112 0
M  V30 3681 O 347.493 0.973644 -1.68029 0
M  V30 3682 C 344.623 1.36897 -3.19181 0
M  V30 3683 C 343.577 0.804833 -4.20365 0
M  V30 3684 C 342.903 1.9792 -4.96721 0
M  V30 3685 C 344.203 -0.192313 -5.21946 0
M  V30 3686 H 345.897 -0.387616 -2.9688 0
M  V30 3687 H 343.443 -0.187856 -1.42769 0
M  V30 3688 H 345.396 1.92037 -3.751 0
M  V30 3689 H 344.12 2.07936 -2.51853 0
M  V30 3690 H 342.779 0.275319 -3.65565 0
M  V30 3691 H 342.427 2.67686 -4.25856 0
M  V30 3692 H 342.127 1.60789 -5.65173 0
M  V30 3693 H 343.651 2.53526 -5.55479 0
M  V30 3694 H 345.065 0.270333 -5.72662 0
M  V30 3695 H 343.462 -0.478543 -5.98189 0
M  V30 3696 H 344.532 -1.11409 -4.71928 0
M  V30 3697 N 345.875 1.56104 -0.216619 0
M  V30 3698 C 347.1 2.0301 0.424462 0
M  V30 3699 C 347.525 1.0955 1.52907 0
M  V30 3700 O 346.883 0.0827914 1.81111 0
M  V30 3701 C 346.931 3.4819 0.937883 0
M  V30 3702 O 346.035 3.57865 2.04955 0
M  V30 3703 H 345.376 0.656925 0.0966755 0
M  V30 3704 H 347.906 2.01859 -0.33381 0
M  V30 3705 H 347.916 3.88413 1.24897 0
M  V30 3706 H 346.591 4.15699 0.129387 0
M  V30 3707 H 345.168 3.29527 1.74546 0
M  V30 3708 N 347.353 -0.0568162 1.57498 0
M  V30 3709 C 348.283 -1.06593 2.0775 0
M  V30 3710 C 349.264 -1.39448 0.974082 0
M  V30 3711 O 350.449 -1.48815 1.24771 0
M  V30 3712 C 347.579 -2.37509 2.5339 0
M  V30 3713 C 346.533 -2.1897 3.67745 0
M  V30 3714 C 345.859 -3.55402 3.99492 0
M  V30 3715 C 347.159 -1.59859 4.97235 0
M  V30 3716 H 348.853 -0.647706 2.9231 0
M  V30 3717 H 346.399 -0.310116 1.40621 0
M  V30 3718 H 348.352 -3.08409 2.87162 0
M  V30 3719 H 347.076 -2.8134 1.65878 0
M  V30 3720 H 345.735 -1.50508 3.3428 0
M  V30 3721 H 345.383 -3.9683 3.09088 0
M  V30 3722 H 345.083 -3.43831 4.76502 0
M  V30 3723 H 346.607 -4.27708 4.35773 0
M  V30 3724 H 348.021 -2.20642 5.29141 0
M  V30 3725 H 346.418 -1.58942 5.78669 0
M  V30 3726 H 347.488 -0.561506 4.81638 0
M  V30 3727 N 348.832 -1.54138 -0.328536 0
M  V30 3728 C 350.109 -1.62749 -1.08499 0
M  V30 3729 C 350.489 -0.458198 -2.06067 0
M  V30 3730 O 349.837 0.548046 -2.2183 0
M  V30 3731 C 350.047 -2.99519 -1.79135 0
M  V30 3732 C 351.395 -3.55394 -2.32337 0
M  V30 3733 O 352.419 -3.01792 -1.89209 0
M  V30 3734 O 351.278 -4.49186 -3.11279 0
M  V30 3735 H 348.372 -0.65886 -0.499832 0
M  V30 3736 H 350.918 -1.66484 -0.328826 0
M  V30 3737 H 349.69 -3.76061 -1.08139 0
M  V30 3738 H 349.313 -2.99441 -2.61574 0
M  V30 3739 N 350.31 0.590341 -1.46126 0
M  V30 3740 C 351.721 1.17243 -1.45296 0
M  V30 3741 C 352.072 1.95281 -0.189723 0
M  V30 3742 O 351.197 2.04502 0.707674 0
M  V30 3743 C 351.792 2.13284 -2.6324 0
M  V30 3744 C 350.351 2.66832 -2.65476 0
M  V30 3745 C 349.498 1.42557 -2.3785 0
M  V30 3746 H 352.449 0.378692 -1.54116 0
M  V30 3747 H 352.47 2.96619 -2.38323 0
M  V30 3748 H 351.982 1.56459 -3.55165 0
M  V30 3749 H 350.083 3.27548 -1.77603 0
M  V30 3750 H 350.196 3.10088 -3.65215 0
M  V30 3751 H 348.56 1.72107 -1.87753 0
M  V30 3752 H 349.343 0.875741 -3.31942 0
M  V30 3753 N 351.788 1.33704 0.83433 0
M  V30 3754 C 353.013 1.28615 1.62705 0
M  V30 3755 C 353.438 -0.139242 1.87584 0
M  V30 3756 O 352.796 -1.09734 1.4432 0
M  V30 3757 C 352.844 2.07139 2.95171 0
M  V30 3758 O 351.948 1.4331 3.86699 0
M  V30 3759 H 351.289 0.44226 0.49528 0
M  V30 3760 H 353.819 1.76335 1.03766 0
M  V30 3761 H 353.829 2.18073 3.44831 0
M  V30 3762 H 352.504 3.10779 2.76386 0
M  V30 3763 H 351.081 1.4105 3.45195 0
M  V30 3764 N 353.266 -1.05314 1.17247 0
M  V30 3765 C 354.216 -2.11313 0.856196 0
M  V30 3766 C 355.2 -1.60013 -0.168694 0
M  V30 3767 O 356.392 -1.76968 0.0335624 0
M  V30 3768 C 353.521 -3.41301 0.369917 0
M  V30 3769 C 352.607 -3.99401 1.42616 0
M  V30 3770 N 352.998 -4.31481 2.63928 0
M  V30 3771 C 351.296 -4.27126 1.28373 0
M  V30 3772 C 351.997 -4.77799 3.31787 0
M  V30 3773 N 350.973 -4.77843 2.59166 0
M  V30 3774 H 354.775 -2.33976 1.77856 0
M  V30 3775 H 352.289 -1.2295 1.06099 0
M  V30 3776 H 354.286 -4.16713 0.124897 0
M  V30 3777 H 352.946 -3.20072 -0.546253 0
M  V30 3778 H 353.957 -4.21519 3.00902 0
M  V30 3779 H 350.634 -4.15289 0.429111 0
M  V30 3780 H 352.024 -5.11743 4.35395 0
M  V30 3781 N 354.744 -0.972509 -1.24016 0
M  V30 3782 C 355.654 -0.5143 -2.28893 0
M  V30 3783 C 356.67 0.427078 -1.68677 0
M  V30 3784 O 357.846 0.298939 -1.99169 0
M  V30 3785 C 354.911 0.183598 -3.46214 0
M  V30 3786 C 353.972 -0.798202 -4.21814 0
M  V30 3787 C 353.205 -0.133514 -5.33533 0
M  V30 3788 O 353.428 1.07714 -5.60137 0
M  V30 3789 O 352.362 -0.828103 -5.96176 0
M  V30 3790 H 356.188 -1.38629 -2.70214 0
M  V30 3791 H 353.773 -0.739769 -1.29799 0
M  V30 3792 H 355.655 0.575433 -4.17453 0
M  V30 3793 H 354.33 1.03048 -3.0686 0
M  V30 3794 H 353.237 -1.24059 -3.52931 0
M  V30 3795 H 354.57 -1.61364 -4.64997 0
M  V30 3796 N 356.222 1.38976 -0.743202 0
M  V30 3797 C 357.638 1.53984 -0.419664 0
M  V30 3798 C 357.838 1.70837 1.0685 0
M  V30 3799 O 356.894 1.7135 1.8546 0
M  V30 3800 C 358.207 2.75287 -1.20985 0
M  V30 3801 C 359.755 2.89129 -1.19889 0
M  V30 3802 C 360.23 4.13381 -1.97181 0
M  V30 3803 N 361.721 4.20437 -1.94389 0
M  V30 3804 C 362.456 5.15547 -2.50996 0
M  V30 3805 N 361.952 6.16395 -3.16274 0
M  V30 3806 N 363.745 5.07822 -2.40984 0
M  V30 3807 H 355.896 1.26285 -1.7078 0
M  V30 3808 H 358.159 0.612689 -0.723406 0
M  V30 3809 H 357.865 2.69204 -2.26323 0
M  V30 3810 H 357.739 3.68184 -0.819759 0
M  V30 3811 H 360.126 2.947 -0.153606 0
M  V30 3812 H 360.207 1.97272 -1.62841 0
M  V30 3813 H 359.851 4.08572 -3.01714 0
M  V30 3814 H 359.781 5.04298 -1.51629 0
M  V30 3815 H 362.272 3.48205 -1.46839 0
M  V30 3816 H 362.585 6.85443 -3.56915 0
M  V30 3817 H 360.93 6.16758 -3.20367 0
M  V30 3818 H 364.121 4.27973 -1.89622 0
M  V30 3819 H 364.294 5.81767 -2.85397 0
M  V30 3820 N 357.7 0.491464 1.49741 0
M  V30 3821 C 358.663 -0.280906 2.27472 0
M  V30 3822 C 359.663 -0.902454 1.33088 0
M  V30 3823 O 360.853 -0.768465 1.56334 0
M  V30 3824 C 357.985 -1.40209 3.10732 0
M  V30 3825 H 359.178 0.401056 2.97206 0
M  V30 3826 H 356.731 0.246131 1.5435 0
M  V30 3827 H 357.466 -2.11849 2.45541 0
M  V30 3828 H 357.251 -0.961969 3.80117 0
M  V30 3829 H 358.741 -1.9464 3.69466 0
M  V30 3830 N 359.178 -1.55987 0.224894 0
M  V30 3831 C 360.426 -1.97998 -0.405099 0
M  V30 3832 C 360.747 -1.11387 -1.60056 0
M  V30 3833 O 360.017 -0.191645 -1.9496 0
M  V30 3834 H 358.597 -0.731235 -0.152658 0
M  V30 3835 H 361.259 -1.92279 0.318567 0
M  V30 3836 H 360.355 -3.03463 -0.729167 0
M  V30 3837 N 360.656 0.0484629 -1.57525 0
M  V30 3838 C 361.904 0.741657 -1.88 0
M  V30 3839 C 362.225 1.76918 -0.820054 0
M  V30 3840 O 361.495 1.95335 0.148661 0
M  V30 3841 H 360.075 0.276908 -0.69378 0
M  V30 3842 H 362.737 0.019013 -1.94891 0
M  V30 3843 H 361.833 1.24336 -2.86264 0
M  V30 3844 N 362.134 1.5431 0.320358 0
M  V30 3845 C 363.082 1.84647 1.4145 0
M  V30 3846 C 364.076 0.718624 1.53402 0
M  V30 3847 O 365.282 0.902335 1.5575 0
M  V30 3848 H 361.657 0.585349 0.472091 0
M  V30 3849 H 363.628 2.7614 1.13089 0
M  V30 3850 C 362.377 2.09341 2.77617 0
M  V30 3851 H 361.7 2.9559 2.69196 0
M  V30 3852 H 363.14 2.3452 3.53237 0
M  V30 3853 C 361.599 0.885939 3.25043 0
M  V30 3854 O 362.129 0.0967891 4.01583 0
M  V30 3855 N 360.335 0.696682 2.82125 0
M  V30 3856 H 359.882 1.34006 2.2 0
M  V30 3857 H 359.84 -0.109712 3.14209 0
M  V30 3858 N 363.613 -0.582584 1.46437 0
M  V30 3859 C 364.543 -1.70187 1.59871 0
M  V30 3860 C 365.524 -1.64066 0.449042 0
M  V30 3861 O 366.709 -1.82081 0.6753 0
M  V30 3862 C 363.839 -3.08827 1.58881 0
M  V30 3863 C 362.793 -3.29779 2.72819 0
M  V30 3864 C 362.119 -4.68947 2.5689 0
M  V30 3865 C 363.419 -3.17601 4.1464 0
M  V30 3866 H 365.113 -1.592 2.53566 0
M  V30 3867 H 362.659 -0.764472 1.22032 0
M  V30 3868 H 364.612 -3.86951 1.66873 0
M  V30 3869 H 363.336 -3.20713 0.617306 0
M  V30 3870 H 361.995 -2.54054 2.64296 0
M  V30 3871 H 361.643 -4.77599 1.57823 0
M  V30 3872 H 361.343 -4.83919 3.33312 0
M  V30 3873 H 362.867 -5.4924 2.66773 0
M  V30 3874 H 364.281 -3.8557 4.24274 0
M  V30 3875 H 362.678 -3.44094 4.9165 0
M  V30 3876 H 363.748 -2.14681 4.34788 0
M  V30 3877 N 365.091 -1.34144 -0.827227 0
M  V30 3878 C 366.507 -1.13732 -1.11969 0
M  V30 3879 C 366.707 0.0640463 -2.01398 0
M  V30 3880 O 365.763 0.740856 -2.41387 0
M  V30 3881 C 367.076 -2.43047 -1.77055 0
M  V30 3882 C 368.624 -2.49063 -1.89569 0
M  V30 3883 C 369.099 -3.78369 -2.58072 0
M  V30 3884 N 370.59 -3.79505 -2.65575 0
M  V30 3885 C 371.325 -4.76274 -3.19297 0
M  V30 3886 N 370.821 -5.83424 -3.73616 0
M  V30 3887 N 372.614 -4.63735 -3.17658 0
M  V30 3888 H 364.765 -2.11126 -0.232296 0
M  V30 3889 H 367.028 -0.933424 -0.165602 0
M  V30 3890 H 366.734 -3.31025 -1.18807 0
M  V30 3891 H 366.608 -2.56066 -2.76966 0
M  V30 3892 H 368.995 -1.61527 -2.46968 0
M  V30 3893 H 369.076 -2.39975 -0.885745 0
M  V30 3894 H 368.72 -4.66293 -2.01329 0
M  V30 3895 H 368.65 -3.84737 -3.59562 0
M  V30 3896 H 371.141 -3.02074 -2.27068 0
M  V30 3897 H 371.454 -6.53282 -4.12846 0
M  V30 3898 H 369.799 -5.87143 -3.71871 0
M  V30 3899 H 372.99 -3.79177 -2.74486 0
M  V30 3900 H 373.163 -5.39318 -3.59221 0
M  V30 3901 N 366.569 1.04691 -1.17803 0
M  V30 3902 C 367.799 1.81183 -0.992788 0
M  V30 3903 C 368.207 1.8347 0.462098 0
M  V30 3904 O 367.55 1.2643 1.33271 0
M  V30 3905 C 367.612 3.28363 -1.46349 0
M  V30 3906 C 367.276 3.49749 -2.94151 0
M  V30 3907 C 368.273 3.41456 -3.92051 0
M  V30 3908 C 365.958 3.76548 -3.32441 0
M  V30 3909 C 367.952 3.59656 -5.26238 0
M  V30 3910 C 365.639 3.94396 -4.66792 0
M  V30 3911 C 366.637 3.8595 -5.635 0
M  V30 3912 O 366.325 4.03294 -6.9542 0
M  V30 3913 H 366.057 0.577622 -0.351182 0
M  V30 3914 H 368.611 1.32876 -1.5663 0
M  V30 3915 H 366.841 3.77609 -0.833574 0
M  V30 3916 H 368.53 3.86395 -1.24313 0
M  V30 3917 H 369.296 3.20723 -3.63815 0
M  V30 3918 H 365.175 3.82224 -2.57732 0
M  V30 3919 H 368.719 3.52979 -6.01707 0
M  V30 3920 H 364.616 4.14622 -4.94731 0
M  V30 3921 H 365.384 4.2049 -7.02232 0
M  V30 3922 N 368.047 0.979072 1.23499 0
M  V30 3923 C 369.294 0.647219 1.91878 0
M  V30 3924 C 369.622 -0.819074 1.76413 0
M  V30 3925 O 368.877 -1.60616 1.11808 0
M  V30 3926 C 369.176 0.981932 3.43646 0
M  V30 3927 C 368.842 2.43822 3.79291 0
M  V30 3928 C 367.504 2.83622 3.88731 0
M  V30 3929 C 369.856 3.3828 3.96505 0
M  V30 3930 C 367.184 4.16897 4.12812 0
M  V30 3931 C 369.536 4.71197 4.22085 0
M  V30 3932 C 368.2 5.10758 4.29747 0
M  V30 3933 H 367.47 0.236834 0.702133 0
M  V30 3934 H 370.117 1.23268 1.46551 0
M  V30 3935 H 368.422 0.314365 3.90537 0
M  V30 3936 H 370.119 0.703395 3.94783 0
M  V30 3937 H 366.709 2.11966 3.72516 0
M  V30 3938 H 370.893 3.0871 3.88603 0
M  V30 3939 H 366.149 4.47157 4.16966 0
M  V30 3940 H 370.323 5.44348 4.34348 0
M  V30 3941 H 367.95 6.1405 4.48159 0
M  V30 3942 N 369.525 -1.3858 0.750561 0
M  V30 3943 C 370.435 -2.34278 0.122825 0
M  V30 3944 C 371.451 -1.59116 -0.704131 0
M  V30 3945 O 372.627 -1.91326 -0.628987 0
M  V30 3946 C 369.692 -3.38221 -0.762086 0
M  V30 3947 C 368.753 -4.29227 0.078896 0
M  V30 3948 C 367.986 -5.28205 -0.763874 0
M  V30 3949 O 368.209 -5.34112 -2.00201 0
M  V30 3950 O 367.143 -6.01618 -0.18428 0
M  V30 3951 H 370.969 -2.89649 0.913088 0
M  V30 3952 H 368.554 -1.40374 0.511417 0
M  V30 3953 H 370.436 -4.01872 -1.26793 0
M  V30 3954 H 369.111 -2.85211 -1.5309 0
M  V30 3955 H 368.018 -3.68747 0.630621 0
M  V30 3956 H 369.351 -4.85484 0.810289 0
M  V30 3957 N 371.003 -0.499398 -1.49478 0
M  V30 3958 C 371.935 0.316575 -2.27003 0
M  V30 3959 C 372.948 0.932047 -1.33479 0
M  V30 3960 O 374.137 0.815658 -1.58774 0
M  V30 3961 C 371.237 1.46055 -3.05812 0
M  V30 3962 C 370.41 0.952679 -4.26899 0
M  V30 3963 C 369.469 1.97407 -4.87767 0
M  V30 3964 O 368.495 1.54326 -5.4788 0
M  V30 3965 N 369.697 3.30436 -4.77276 0
M  V30 3966 H 372.462 -0.348168 -2.97671 0
M  V30 3967 H 370.023 -0.33185 -1.58463 0
M  V30 3968 H 372.015 2.14135 -3.43407 0
M  V30 3969 H 370.585 2.02948 -2.37762 0
M  V30 3970 H 369.805 0.0968248 -3.94081 0
M  V30 3971 H 371.093 0.59174 -5.05347 0
M  V30 3972 H 370.491 3.68126 -4.29534 0
M  V30 3973 H 369.048 3.94235 -5.19059 0
M  V30 3974 N 372.481 1.55866 -0.233164 0
M  V30 3975 C 373.411 2.23783 0.666599 0
M  V30 3976 C 374.392 1.21343 1.19205 0
M  V30 3977 O 375.577 1.4996 1.23392 0
M  V30 3978 C 372.707 2.92671 1.86978 0
M  V30 3979 C 371.661 4.01682 1.47768 0
M  V30 3980 C 370.987 4.57926 2.76058 0
M  V30 3981 C 372.287 5.18126 0.658993 0
M  V30 3982 H 373.981 2.99232 0.100306 0
M  V30 3983 H 371.527 1.43924 0.046804 0
M  V30 3984 H 373.48 3.3888 2.50476 0
M  V30 3985 H 372.204 2.14688 2.46123 0
M  V30 3986 H 370.863 3.56222 0.866106 0
M  V30 3987 H 370.511 3.76659 3.33372 0
M  V30 3988 H 370.211 5.31505 2.50552 0
M  V30 3989 H 371.735 5.06859 3.40479 0
M  V30 3990 H 373.149 5.60644 1.19795 0
M  V30 3991 H 371.546 5.98009 0.500552 0
M  V30 3992 H 372.616 4.83763 -0.331856 0
M  V30 3993 N 373.959 -0.0401083 1.57549 0
M  V30 3994 C 374.889 -1.04384 2.08869 0
M  V30 3995 C 375.87 -1.38407 0.988817 0
M  V30 3996 O 377.055 -1.47483 1.26342 0
M  V30 3997 C 374.185 -2.34808 2.55895 0
M  V30 3998 C 373.139 -2.15057 3.70047 0
M  V30 3999 C 372.465 -3.51145 4.03239 0
M  V30 4000 C 373.765 -1.54576 4.98902 0
M  V30 4001 H 375.459 -0.616666 2.92981 0
M  V30 4002 H 373.005 -0.295184 1.40942 0
M  V30 4003 H 374.958 -3.05346 2.90417 0
M  V30 4004 H 373.682 -2.79565 1.68853 0
M  V30 4005 H 372.341 -1.46954 3.35857 0
M  V30 4006 H 371.989 -3.93529 3.13279 0
M  V30 4007 H 371.689 -3.38758 4.80122 0
M  V30 4008 H 373.213 -4.23062 4.40285 0
M  V30 4009 H 374.627 -2.15017 5.31451 0
M  V30 4010 H 373.024 -1.52796 5.80322 0
M  V30 4011 H 374.094 -0.51039 4.82206 0
M  V30 4012 N 375.437 -1.54477 -0.31217 0
M  V30 4013 C 376.347 -1.87695 -1.4074 0
M  V30 4014 C 377.363 -0.769975 -1.56036 0
M  V30 4015 O 378.539 -1.06537 -1.70915 0
M  V30 4016 C 375.604 -2.10755 -2.75287 0
M  V30 4017 C 374.665 -3.34514 -2.69071 0
M  V30 4018 C 373.898 -3.56465 -3.97201 0
M  V30 4019 O 374.121 -2.81637 -4.96021 0
M  V30 4020 O 373.055 -4.49964 -3.9977 0
M  V30 4021 H 376.881 -2.80849 -1.15574 0
M  V30 4022 H 374.466 -1.40526 -0.507228 0
M  V30 4023 H 376.348 -2.27188 -3.54913 0
M  V30 4024 H 375.023 -1.20788 -3.0032 0
M  V30 4025 H 373.93 -3.23456 -1.87955 0
M  V30 4026 H 375.263 -4.24575 -2.48992 0
M  V30 4027 N 376.915 0.57481 -1.46744 0
M  V30 4028 C 377.825 1.711 -1.60505 0
M  V30 4029 C 378.841 1.67008 -0.488307 0
M  V30 4030 O 380.017 1.86774 -0.753495 0
M  V30 4031 C 377.082 3.07608 -1.59932 0
M  V30 4032 C 376.143 3.22904 -2.82898 0
M  V30 4033 C 375.376 4.529 -2.82343 0
M  V30 4034 O 375.599 5.37278 -1.91542 0
M  V30 4035 O 374.533 4.71611 -3.73987 0
M  V30 4036 H 378.359 1.62436 -2.56609 0
M  V30 4037 H 375.944 0.742779 -1.29627 0
M  V30 4038 H 377.826 3.88877 -1.62336 0
M  V30 4039 H 376.501 3.16692 -0.669898 0
M  V30 4040 H 375.408 2.41099 -2.86046 0
M  V30 4041 H 376.741 3.18715 -3.75076 0
M  V30 4042 N 378.394 1.34581 0.820102 0
M  V30 4043 C 379.304 1.28471 1.96297 0
M  V30 4044 C 380.32 0.191902 1.72939 0
M  V30 4045 O 381.496 0.418879 1.96996 0
M  V30 4046 C 378.561 1.04281 3.30645 0
M  V30 4047 C 377.622 2.22745 3.66992 0
M  V30 4048 C 376.855 1.997 4.9493 0
M  V30 4049 O 377.078 0.956656 5.6232 0
M  V30 4050 O 376.012 2.86723 5.2922 0
M  V30 4051 H 379.838 2.24624 2.04396 0
M  V30 4052 H 377.423 1.14816 0.955913 0
M  V30 4053 H 379.305 0.925841 4.11104 0
M  V30 4054 H 377.98 0.111697 3.23507 0
M  V30 4055 H 376.887 2.40003 2.86966 0
M  V30 4056 H 378.22 3.14257 3.78819 0
M  V30 4057 N 379.872 -1.04064 1.18357 0
M  V30 4058 C 381.288 -1.2947 0.933258 0
M  V30 4059 C 381.488 -1.97466 -0.401169 0
M  V30 4060 O 380.544 -2.25528 -1.13549 0
M  V30 4061 C 381.857 -2.15337 2.09882 0
M  V30 4062 C 383.405 -2.28683 2.13712 0
M  V30 4063 C 383.88 -3.17917 3.29686 0
M  V30 4064 N 385.371 -3.25504 3.29547 0
M  V30 4065 C 386.106 -3.94706 4.15926 0
M  V30 4066 N 385.602 -4.66239 5.12439 0
M  V30 4067 N 387.395 -3.90986 4.0384 0
M  V30 4068 H 379.546 -0.583359 2.04232 0
M  V30 4069 H 381.809 -0.319921 0.892387 0
M  V30 4070 H 381.515 -1.72682 3.06389 0
M  V30 4071 H 381.389 -3.16015 2.05947 0
M  V30 4072 H 383.776 -2.70575 1.17784 0
M  V30 4073 H 383.857 -1.27596 2.21705 0
M  V30 4074 H 383.501 -2.76736 4.25887 0
M  V30 4075 H 383.431 -4.19036 3.1893 0
M  V30 4076 H 385.922 -2.74547 2.59677 0
M  V30 4077 H 386.235 -5.16638 5.74722 0
M  V30 4078 H 384.58 -4.65143 5.16398 0
M  V30 4079 H 387.771 -3.34234 3.27727 0
M  V30 4080 H 387.944 -4.44646 4.71375 0
M  V30 4081 N 381.35 -0.985608 -1.22978 0
M  V30 4082 C 382.26 -0.538548 -2.28335 0
M  V30 4083 C 383.276 0.409163 -1.69121 0
M  V30 4084 O 384.452 0.277797 -1.99475 0
M  V30 4085 C 381.517 0.146867 -3.46389 0
M  V30 4086 C 380.578 -0.842896 -4.20944 0
M  V30 4087 C 379.811 -0.190095 -5.33361 0
M  V30 4088 O 380.034 1.01767 -5.61248 0
M  V30 4089 O 378.968 -0.891289 -5.95264 0
M  V30 4090 H 382.794 -1.41487 -2.68729 0
M  V30 4091 H 380.379 -0.753495 -1.29007 0
M  V30 4092 H 382.261 0.531125 -4.1804 0
M  V30 4093 H 380.936 0.997871 -3.07935 0
M  V30 4094 H 379.843 -1.27795 -3.51595 0
M  V30 4095 H 381.176 -1.66287 -4.6326 0
M  V30 4096 N 382.828 1.3818 -0.7579 0
M  V30 4097 C 383.775 2.30416 -0.133057 0
M  V30 4098 C 384.745 1.50398 0.704957 0
M  V30 4099 O 385.93 1.79014 0.660192 0
M  V30 4100 C 383.07 3.36834 0.750813 0
M  V30 4101 C 382.183 4.31879 -0.102297 0
M  V30 4102 C 381.318 5.25368 0.784979 0
M  V30 4103 C 380.357 6.12058 -0.0715046 0
M  V30 4104 N 379.494 6.97832 0.772972 0
M  V30 4105 H 384.334 2.83274 -0.925186 0
M  V30 4106 H 381.871 1.39461 -0.467866 0
M  V30 4107 H 383.829 3.97145 1.27794 0
M  V30 4108 H 382.459 2.85374 1.50868 0
M  V30 4109 H 381.511 3.72991 -0.747095 0
M  V30 4110 H 382.823 4.92921 -0.763552 0
M  V30 4111 H 381.977 5.90818 1.37911 0
M  V30 4112 H 380.716 4.64703 1.47996 0
M  V30 4113 H 379.721 5.456 -0.678272 0
M  V30 4114 H 380.946 6.74793 -0.763606 0
M  V30 4115 H 378.892 6.3971 1.45282 0
M  V30 4116 H 378.809 7.55812 0.168709 0
M  V30 4117 H 380.077 7.67687 1.35194 0
M  V30 4118 N 384.306 0.507319 1.49211 0
M  V30 4119 C 385.534 -0.0315749 2.06876 0
M  V30 4120 C 385.949 -1.30241 1.36685 0
M  V30 4121 O 385.306 -1.76937 0.447152 0
M  V30 4122 C 385.357 -0.282627 3.60393 0
M  V30 4123 O 385.078 0.937835 4.27944 0
M  V30 4124 C 386.579 -0.864453 4.3479 0
M  V30 4125 H 383.799 0.0233048 0.670595 0
M  V30 4126 H 386.343 0.706484 1.91909 0
M  V30 4127 H 384.498 -0.97068 3.75042 0
M  V30 4128 H 384.912 0.704567 5.19746 0
M  V30 4129 H 386.386 -0.989664 5.43056 0
M  V30 4130 H 386.863 -1.86382 3.97692 0
M  V30 4131 H 387.469 -0.213672 4.24763 0
M  V30 4132 N 385.784 -1.5574 0.241426 0
M  V30 4133 C 386.714 -2.24133 -0.654722 0
M  V30 4134 C 387.695 -1.21974 -1.1856 0
M  V30 4135 O 388.88 -1.50612 -1.22595 0
M  V30 4136 C 386.01 -2.93659 -1.85423 0
M  V30 4137 C 384.964 -4.0246 -1.45636 0
M  V30 4138 C 384.29 -4.59383 -2.73626 0
M  V30 4139 C 385.59 -5.18468 -0.631506 0
M  V30 4140 H 387.284 -2.99281 -0.0844353 0
M  V30 4141 H 384.83 -1.43947 -0.0391707 0
M  V30 4142 H 386.783 -3.40203 -2.48676 0
M  V30 4143 H 385.507 -2.15991 -2.44981 0
M  V30 4144 H 384.166 -3.56676 -0.847202 0
M  V30 4145 H 383.814 -3.78422 -3.3137 0
M  V30 4146 H 383.514 -5.32826 -2.4773 0
M  V30 4147 H 385.038 -5.08658 -3.37786 0
M  V30 4148 H 386.452 -5.61272 -1.1682 0
M  V30 4149 H 384.849 -5.98266 -0.468831 0
M  V30 4150 H 385.919 -4.8358 0.357506 0
M  V30 4151 N 387.262 0.0317525 -1.57568 0
M  V30 4152 C 388.49 0.734949 -1.93407 0
M  V30 4153 C 388.905 1.69036 -0.84096 0
M  V30 4154 O 388.262 1.81582 0.182836 0
M  V30 4155 C 388.313 1.49432 -3.29169 0
M  V30 4156 O 388.034 0.577261 -4.3428 0
M  V30 4157 C 389.535 2.29492 -3.79273 0
M  V30 4158 H 386.755 0.206706 -0.638368 0
M  V30 4159 H 389.299 -0.00992046 -2.04498 0
M  V30 4160 H 387.454 2.1911 -3.19483 0
M  V30 4161 H 387.868 1.10952 -5.1263 0
M  V30 4162 H 389.342 2.78172 -4.76785 0
M  V30 4163 H 389.819 3.10794 -3.10328 0
M  V30 4164 H 390.425 1.64894 -3.92033 0
M  V30 4165 N 388.74 1.54641 0.303973 0
M  V30 4166 C 389.688 1.86137 1.39484 0
M  V30 4167 C 390.682 0.734854 1.52631 0
M  V30 4168 O 391.888 0.918803 1.54784 0
M  V30 4169 H 388.263 0.590324 0.465856 0
M  V30 4170 H 390.234 2.77324 1.10154 0
M  V30 4171 C 388.983 2.12274 2.75382 0
M  V30 4172 H 388.306 2.98429 2.66046 0
M  V30 4173 H 389.746 2.38254 3.5073 0
M  V30 4174 C 388.205 0.920365 3.24085 0
M  V30 4175 O 388.735 0.139377 4.01458 0
M  V30 4176 N 386.941 0.726566 2.81371 0
M  V30 4177 H 386.488 1.36332 2.18567 0
M  V30 4178 H 386.446 -0.0763799 3.14307 0
M  V30 4179 N 390.218 -0.567019 1.47046 0
M  V30 4180 C 391.15 -1.68985 1.54844 0
M  V30 4181 C 392.163 -1.56869 0.435431 0
M  V30 4182 O 393.352 -1.64006 0.70457 0
M  V30 4183 C 390.452 -3.07373 1.42742 0
M  V30 4184 C 389.625 -3.45339 2.6844 0
M  V30 4185 C 388.684 -4.62849 2.50314 0
M  V30 4186 O 387.71 -4.67922 3.24095 0
M  V30 4187 N 388.912 -5.58726 1.57499 0
M  V30 4188 H 391.677 -1.62745 2.51663 0
M  V30 4189 H 389.238 -0.753411 1.43302 0
M  V30 4190 H 391.23 -3.83803 1.28365 0
M  V30 4191 H 389.8 -3.07893 0.540445 0
M  V30 4192 H 389.02 -2.58455 2.97648 0
M  V30 4193 H 390.308 -3.67476 3.51907 0
M  V30 4194 H 389.706 -5.57376 0.966876 0
M  V30 4195 H 388.263 -6.34523 1.49078 0
M  V30 4196 N 391.696 -1.35014 -0.812953 0
M  V30 4197 C 392.924 -1.31031 -1.6012 0
M  V30 4198 C 393.339 0.113558 -1.88458 0
M  V30 4199 O 392.696 1.06363 -1.48301 0
M  V30 4200 C 392.747 -2.10872 -2.93624 0
M  V30 4201 O 392.468 -3.47706 -2.66518 0
M  V30 4202 C 393.969 -2.14401 -3.88004 0
M  V30 4203 H 391.189 -0.45037 -0.497401 0
M  V30 4204 H 393.733 -1.77775 -1.01076 0
M  V30 4205 H 391.888 -1.67744 -3.492 0
M  V30 4206 H 392.302 -3.89097 -3.51715 0
M  V30 4207 H 393.776 -2.74669 -4.78812 0
M  V30 4208 H 394.253 -1.14105 -4.24119 0
M  V30 4209 H 394.859 -2.57662 -3.38364 0
M  V30 4210 N 393.175 1.03435 -1.18907 0
M  V30 4211 C 394.085 2.15075 -0.937015 0
M  V30 4212 C 395.101 1.73706 0.101085 0
M  V30 4213 O 396.277 2.01232 -0.0822948 0
M  V30 4214 C 393.342 3.43458 -0.473057 0
M  V30 4215 C 392.403 3.99172 -1.57989 0
M  V30 4216 C 391.636 5.21427 -1.13797 0
M  V30 4217 O 391.859 5.704 0.000725941 0
M  V30 4218 O 390.793 5.69837 -1.9383 0
M  V30 4219 H 394.619 2.39198 -1.87131 0
M  V30 4220 H 392.204 1.13506 -0.971427 0
M  V30 4221 H 394.086 4.20811 -0.222702 0
M  V30 4222 H 392.761 3.20793 0.432869 0
M  V30 4223 H 391.668 3.23178 -1.88433 0
M  V30 4224 H 393.001 4.2619 -2.46217 0
M  V30 4225 N 394.653 0.992116 1.22453 0
M  V30 4226 C 395.616 0.546883 2.2258 0
M  V30 4227 C 396.616 -0.369829 1.56489 0
M  V30 4228 O 397.806 -0.161896 1.73446 0
M  V30 4229 C 394.938 -0.204659 3.40285 0
M  V30 4230 H 396.131 1.43234 2.63484 0
M  V30 4231 H 393.684 0.779239 1.3549 0
M  V30 4232 H 394.419 -1.10614 3.04853 0
M  V30 4233 H 394.204 0.45354 3.89468 0
M  V30 4234 H 395.694 -0.504358 4.14543 0
M  V30 4235 N 396.131 -1.37776 0.765217 0
M  V30 4236 C 397.041 -2.34135 0.147666 0
M  V30 4237 C 398.057 -1.59854 -0.687215 0
M  V30 4238 O 399.233 -1.91983 -0.608659 0
M  V30 4239 C 396.298 -3.3901 -0.72617 0
M  V30 4240 C 395.359 -4.2912 0.124417 0
M  V30 4241 C 394.592 -5.28986 -0.707807 0
M  V30 4242 O 394.815 -5.36205 -1.94525 0
M  V30 4243 O 393.749 -6.01779 -0.12046 0
M  V30 4244 H 397.575 -2.88664 0.943758 0
M  V30 4245 H 395.16 -1.39824 0.526277 0
M  V30 4246 H 397.042 -4.03195 -1.22524 0
M  V30 4247 H 395.717 -2.86819 -1.50056 0
M  V30 4248 H 394.624 -3.68057 0.669696 0
M  V30 4249 H 395.957 -4.84598 0.861736 0
M  V30 4250 N 397.609 -0.515225 -1.4894 0
M  V30 4251 C 398.539 0.244628 -2.32215 0
M  V30 4252 C 399.52 0.949136 -1.41157 0
M  V30 4253 O 400.705 0.937783 -1.70057 0
M  V30 4254 C 397.835 1.30096 -3.22013 0
M  V30 4255 C 396.789 0.715486 -4.21977 0
M  V30 4256 C 396.115 1.87339 -5.00808 0
M  V30 4257 C 397.415 -0.302982 -5.2142 0
M  V30 4258 H 399.109 -0.450501 -2.95991 0
M  V30 4259 H 396.655 -0.218098 -1.42339 0
M  V30 4260 H 398.608 1.84037 -3.79089 0
M  V30 4261 H 397.332 2.02547 -2.56207 0
M  V30 4262 H 395.991 0.197715 -3.66066 0
M  V30 4263 H 395.639 2.58592 -4.31438 0
M  V30 4264 H 395.339 1.48764 -5.68457 0
M  V30 4265 H 396.863 2.41686 -5.60732 0
M  V30 4266 H 398.277 0.148802 -5.73107 0
M  V30 4267 H 396.674 -0.60532 -5.97039 0
M  V30 4268 H 397.744 -1.21395 -4.69459 0
M  V30 4269 N 399.087 1.5561 -0.249682 0
M  V30 4270 C 400.05 2.20217 0.635394 0
M  V30 4271 C 401.05 1.17227 1.10066 0
M  V30 4272 O 402.24 1.42292 1.00492 0
M  V30 4273 C 399.372 2.84794 1.87363 0
M  V30 4274 H 400.565 2.99814 0.0716752 0
M  V30 4275 H 398.118 1.563 -0.000153234 0
M  V30 4276 H 398.853 2.09142 2.47851 0
M  V30 4277 H 398.638 3.60241 1.5482 0
M  V30 4278 H 400.128 3.3423 2.5036 0
M  V30 4279 N 400.565 -0.0233959 1.57583 0
M  V30 4280 C 401.793 -0.724682 1.93794 0
M  V30 4281 C 402.208 -1.68588 0.849912 0
M  V30 4282 O 401.565 -1.81676 -0.173204 0
M  V30 4283 C 401.616 -1.47684 3.29957 0
M  V30 4284 O 401.337 -0.554222 4.3458 0
M  V30 4285 C 402.838 -2.27477 3.80485 0
M  V30 4286 H 400.058 -0.203317 0.639455 0
M  V30 4287 H 402.602 0.0207653 2.04489 0
M  V30 4288 H 400.757 -2.17412 3.20641 0
M  V30 4289 H 401.171 -1.08232 5.13212 0
M  V30 4290 H 402.645 -2.7564 4.78254 0
M  V30 4291 H 403.122 -3.09144 3.11972 0
M  V30 4292 H 403.728 -1.62813 3.92902 0
M  V30 4293 N 402.043 -1.548 -0.295768 0
M  V30 4294 C 403.454 -1.65274 -0.868411 0
M  V30 4295 C 403.805 -0.56481 -1.87894 0
M  V30 4296 O 402.93 0.29767 -2.14343 0
M  V30 4297 C 403.525 -2.99603 -1.58188 0
M  V30 4298 C 402.084 -3.12181 -2.10286 0
M  V30 4299 C 401.231 -2.6098 -0.93727 0
M  V30 4300 H 404.182 -1.58534 -0.0726422 0
M  V30 4301 H 404.203 -2.91319 -2.44772 0
M  V30 4302 H 403.715 -3.78764 -0.846151 0
M  V30 4303 H 401.816 -2.3775 -2.8689 0
M  V30 4304 H 401.929 -4.18415 -2.33379 0
M  V30 4305 H 400.293 -2.17564 -1.32431 0
M  V30 4306 H 401.076 -3.42623 -0.215414 0
M  V30 4307 N 403.521 0.559213 -1.47345 0
M  V30 4308 C 404.431 1.69388 -1.62311 0
M  V30 4309 C 405.447 1.6648 -0.505993 0
M  V30 4310 O 406.623 1.85964 -0.773262 0
M  V30 4311 C 403.688 3.05894 -1.63185 0
M  V30 4312 C 402.749 3.19885 -2.86307 0
M  V30 4313 C 401.982 4.49879 -2.87131 0
M  V30 4314 O 402.205 5.35217 -1.97229 0
M  V30 4315 O 401.139 4.67618 -3.78968 0
M  V30 4316 H 404.965 1.59706 -2.58317 0
M  V30 4317 H 402.55 0.728989 -1.30407 0
M  V30 4318 H 404.432 3.87133 -1.66451 0
M  V30 4319 H 403.107 3.15964 -0.70345 0
M  V30 4320 H 402.014 2.38052 -2.88587 0
M  V30 4321 H 403.347 3.14718 -3.78435 0
M  V30 4322 N 404.999 1.35443 0.805782 0
M  V30 4323 C 406.247 1.28507 1.55982 0
M  V30 4324 C 406.568 -0.140046 1.94496 0
M  V30 4325 O 405.838 -1.07666 1.63661 0
M  V30 4326 H 404.418 0.472676 0.578434 0
M  V30 4327 H 407.08 1.69555 0.961098 0
M  V30 4328 H 406.176 1.90148 2.47488 0
M  V30 4329 N 406.477 -1.02803 1.19454 0
M  V30 4330 C 407.726 -1.7562 0.991996 0
M  V30 4331 C 408.039 -1.89672 -0.477901 0
M  V30 4332 O 409.245 -2.59468 -0.799287 0
M  V30 4333 C 407.701 -3.15812 1.72601 0
M  V30 4334 C 407.309 -3.0981 3.23607 0
M  V30 4335 C 409.053 -3.92918 1.60674 0
M  V30 4336 C 406.96 -4.44939 3.89594 0
M  V30 4337 H 405.89 -0.658352 0.367543 0
M  V30 4338 H 408.541 -1.15044 1.42959 0
M  V30 4339 H 406.923 -3.7686 1.21624 0
M  V30 4340 H 408.097 -2.58138 3.81709 0
M  V30 4341 H 406.412 -2.46201 3.35819 0
M  V30 4342 H 409.009 -4.9287 2.07323 0
M  V30 4343 H 409.352 -4.12502 0.561025 0
M  V30 4344 H 409.885 -3.38472 2.09001 0
M  V30 4345 H 406.624 -4.30559 4.94267 0
M  V30 4346 H 406.144 -4.96664 3.36281 0
M  V30 4347 H 407.823 -5.1382 3.93189 0
M  V30 4348 N 407.956 -0.998596 -1.21925 0
M  V30 4349 C 409.186 -0.695276 -1.94549 0
M  V30 4350 C 409.594 0.745079 -1.73911 0
M  V30 4351 O 408.937 1.51507 -1.03881 0
M  V30 4352 C 408.999 -0.928485 -3.47303 0
M  V30 4353 C 408.663 -2.35443 -3.91683 0
M  V30 4354 C 409.66 -3.33428 -3.98901 0
M  V30 4355 C 407.345 -2.69038 -4.24174 0
M  V30 4356 C 409.339 -4.63079 -4.37992 0
M  V30 4357 C 407.026 -3.98906 -4.62944 0
M  V30 4358 C 408.024 -4.95738 -4.69822 0
M  V30 4359 O 407.712 -6.23285 -5.07711 0
M  V30 4360 H 407.444 -0.255902 -0.625692 0
M  V30 4361 H 409.998 -1.33767 -1.5587 0
M  V30 4362 H 408.228 -0.228917 -3.86022 0
M  V30 4363 H 409.917 -0.619539 -4.01144 0
M  V30 4364 H 410.683 -3.08807 -3.73983 0
M  V30 4365 H 406.562 -1.94367 -4.18022 0
M  V30 4366 H 410.106 -5.38658 -4.43275 0
M  V30 4367 H 406.003 -4.23314 -4.87314 0
M  V30 4368 H 406.771 -6.27306 -5.25766 0
M  V30 4369 N 409.434 1.37368 -0.772513 0
M  V30 4370 C 410.344 2.34053 -0.160081 0
M  V30 4371 C 411.36 1.60216 0.678728 0
M  V30 4372 O 412.536 1.92303 0.59847 0
M  V30 4373 C 409.601 3.3939 0.708182 0
M  V30 4374 C 408.662 4.29048 -0.147172 0
M  V30 4375 C 407.895 5.29354 0.679744 0
M  V30 4376 O 408.118 5.3723 1.91678 0
M  V30 4377 O 407.052 6.01835 0.0885444 0
M  V30 4378 H 410.878 2.88159 -0.959053 0
M  V30 4379 H 408.463 1.39543 -0.533685 0
M  V30 4380 H 410.345 4.03839 1.20384 0
M  V30 4381 H 409.02 2.8761 1.48533 0
M  V30 4382 H 407.927 3.67697 -0.689205 0
M  V30 4383 H 409.26 4.84134 -0.887423 0
M  V30 4384 N 410.912 0.523116 1.48665 0
M  V30 4385 C 412.328 0.180511 1.58576 0
M  V30 4386 C 412.528 -1.31597 1.52592 0
M  V30 4387 O 411.584 -2.0937 1.4114 0
M  V30 4388 C 412.897 0.776949 2.90489 0
M  V30 4389 C 414.445 0.745058 3.04003 0
M  V30 4390 C 414.92 1.31995 4.38567 0
M  V30 4391 N 416.411 1.28162 4.45117 0
M  V30 4392 C 417.146 1.6964 5.47731 0
M  V30 4393 N 416.642 2.18816 6.57337 0
M  V30 4394 N 418.435 1.6092 5.38573 0
M  V30 4395 H 410.586 1.4958 1.50797 0
M  V30 4396 H 412.849 0.621772 0.715614 0
M  V30 4397 H 412.555 1.82732 3.00503 0
M  V30 4398 H 412.429 0.25007 3.7637 0
M  V30 4399 H 414.816 -0.296532 2.93606 0
M  V30 4400 H 414.897 1.30933 2.1975 0
M  V30 4401 H 414.541 2.36043 4.49718 0
M  V30 4402 H 414.471 0.731418 5.21496 0
M  V30 4403 H 416.962 0.92155 3.66491 0
M  V30 4404 H 417.275 2.48478 7.31764 0
M  V30 4405 H 415.62 2.22805 6.58318 0
M  V30 4406 H 418.811 1.22304 4.5184 0
M  V30 4407 H 418.984 1.93567 6.18414 0
M  V30 4408 N 412.39 -1.55475 0.257931 0
M  V30 4409 C 413.801 -1.8511 -0.243135 0
M  V30 4410 C 414.152 -1.17986 -1.5676 0
M  V30 4411 O 413.277 -0.462102 -2.11409 0
M  V30 4412 C 413.872 -3.35826 -0.447929 0
M  V30 4413 C 412.431 -3.65647 -0.893245 0
M  V30 4414 C 411.578 -2.7729 0.0232965 0
M  V30 4415 H 414.529 -1.51261 0.480199 0
M  V30 4416 H 414.55 -3.58002 -1.28898 0
M  V30 4417 H 414.062 -3.84652 0.516196 0
M  V30 4418 H 412.163 -3.22308 -1.86945 0
M  V30 4419 H 412.276 -4.73312 -0.742469 0
M  V30 4420 H 410.64 -2.49942 -0.490021 0
M  V30 4421 H 411.423 -3.28926 0.982994 0
M  V30 4422 N 413.868 0.0150385 -1.57593 0
M  V30 4423 C 415.114 0.704043 -1.90187 0
M  V30 4424 C 415.447 1.74249 -0.857366 0
M  V30 4425 O 414.722 1.94092 0.125843 0
M  V30 4426 C 415.005 1.36087 -3.33395 0
M  V30 4427 C 414.858 0.334981 -4.48551 0
M  V30 4428 C 416.177 2.29112 -3.7576 0
M  V30 4429 H 413.296 0.254475 -0.691673 0
M  V30 4430 H 415.938 -0.0331678 -1.89971 0
M  V30 4431 H 414.088 1.98922 -3.3371 0
M  V30 4432 H 415.76 -0.292534 -4.60372 0
M  V30 4433 H 414.003 -0.344325 -4.32431 0
M  V30 4434 H 414.674 0.833316 -5.45674 0
M  V30 4435 H 417.15 1.76308 -3.76902 0
M  V30 4436 H 416.026 2.72043 -4.76743 0
M  V30 4437 H 416.287 3.16385 -3.08793 0
M  V30 4438 N 415.346 1.54954 0.287554 0
M  V30 4439 C 416.623 1.65569 1.04146 0
M  V30 4440 C 417.003 0.512672 2.0478 0
M  V30 4441 O 416.351 -0.489038 2.23205 0
M  V30 4442 C 416.561 3.04163 1.71131 0
M  V30 4443 C 417.909 3.61429 2.22832 0
M  V30 4444 O 418.933 3.06702 1.81141 0
M  V30 4445 O 417.792 4.57281 2.9926 0
M  V30 4446 H 414.886 0.671881 0.482188 0
M  V30 4447 H 417.432 1.67297 0.28457 0
M  V30 4448 H 416.204 3.78796 0.981303 0
M  V30 4449 H 415.827 3.06271 2.53543 0
M  V30 4450 N 416.824 -0.551391 1.4764 0
M  V30 4451 C 418.054 -1.33163 1.57959 0
M  V30 4452 C 418.462 -1.87785 0.23094 0
M  V30 4453 O 417.805 -1.65996 -0.786825 0
M  V30 4454 C 417.867 -2.53449 2.54958 0
M  V30 4455 C 417.531 -2.20071 4.00522 0
M  V30 4456 C 418.528 -1.77017 4.88836 0
M  V30 4457 C 416.213 -2.31252 4.45901 0
M  V30 4458 C 418.207 -1.4558 6.20552 0
M  V30 4459 C 415.894 -1.99427 5.77644 0
M  V30 4460 C 416.892 -1.56659 6.64791 0
M  V30 4461 O 416.58 -1.25242 7.94084 0
M  V30 4462 H 416.312 -0.412022 0.535923 0
M  V30 4463 H 418.866 -0.674186 1.9402 0
M  V30 4464 H 417.096 -3.22104 2.13976 0
M  V30 4465 H 418.785 -3.15523 2.55343 0
M  V30 4466 H 419.551 -1.67867 4.55023 0
M  V30 4467 H 415.43 -2.63498 3.78272 0
M  V30 4468 H 418.974 -1.12125 6.8853 0
M  V30 4469 H 414.871 -2.08211 6.10998 0
M  V30 4470 H 415.639 -1.38822 8.06642 0
M  V30 4471 N 418.302 -1.35869 -0.798587 0
M  V30 4472 C 419.232 -1.32118 -1.92528 0
M  V30 4473 C 420.213 -0.194209 -1.68988 0
M  V30 4474 O 421.398 -0.390426 -1.90235 0
M  V30 4475 C 418.528 -1.10047 -3.29404 0
M  V30 4476 C 417.482 -2.19471 -3.67446 0
M  V30 4477 C 416.808 -1.82555 -5.02571 0
M  V30 4478 C 418.108 -3.61495 -3.76987 0
M  V30 4479 H 419.802 -2.26394 -1.95924 0
M  V30 4480 H 417.348 -1.08981 -0.94123 0
M  V30 4481 H 419.301 -1.06061 -4.07835 0
M  V30 4482 H 418.025 -0.122195 -3.26371 0
M  V30 4483 H 416.684 -2.22568 -2.91306 0
M  V30 4484 H 416.332 -0.833249 -4.9605 0
M  V30 4485 H 416.032 -2.5581 -5.28995 0
M  V30 4486 H 417.556 -1.80108 -5.83432 0
M  V30 4487 H 418.97 -3.60676 -4.4563 0
M  V30 4488 H 417.367 -4.33577 -4.14887 0
M  V30 4489 H 418.437 -3.97065 -2.78329 0
M  V30 4490 N 419.78 1.02168 -1.19998 0
M  V30 4491 C 421.191 1.57135 -1.00825 0
M  V30 4492 C 421.542 1.91276 0.436818 0
M  V30 4493 O 420.667 1.71679 1.3174 0
M  V30 4494 C 421.262 2.85514 -1.82393 0
M  V30 4495 C 419.821 3.37027 -1.67601 0
M  V30 4496 C 418.968 2.10388 -1.80644 0
M  V30 4497 H 421.919 0.846106 -1.34264 0
M  V30 4498 H 421.94 3.56711 -1.32429 0
M  V30 4499 H 421.452 2.60634 -2.87561 0
M  V30 4500 H 419.553 3.66878 -0.650485 0
M  V30 4501 H 419.666 4.09572 -2.4857 0
M  V30 4502 H 418.03 2.22601 -1.23778 0
M  V30 4503 H 418.813 1.8794 -2.87286 0
M  V30 4504 N 421.258 1.00505 1.21394 0
M  V30 4505 C 422.168 0.574806 2.27449 0
M  V30 4506 C 423.184 -0.382206 1.6975 0
M  V30 4507 O 424.36 -0.246027 1.99892 0
M  V30 4508 C 421.425 -0.0917414 3.46579 0
M  V30 4509 C 420.486 0.909758 4.1955 0
M  V30 4510 C 419.719 0.274924 5.32991 0
M  V30 4511 O 419.942 -0.928254 5.62796 0
M  V30 4512 O 418.876 0.985877 5.93771 0
M  V30 4513 H 422.702 1.45744 2.66444 0
M  V30 4514 H 420.287 0.773923 1.27792 0
M  V30 4515 H 422.169 -0.464551 4.18832 0
M  V30 4516 H 420.844 -0.948755 3.09484 0
M  V30 4517 H 419.751 1.33372 3.49518 0
M  V30 4518 H 421.084 1.73636 4.60555 0
M  V30 4519 N 422.737 -1.36956 0.779787 0
M  V30 4520 C 424.153 -1.52817 0.460342 0
M  V30 4521 C 424.353 -1.7361 -1.02283 0
M  V30 4522 O 423.409 -1.76207 -1.80852 0
M  V30 4523 C 424.722 -2.71983 1.28241 0
M  V30 4524 C 426.27 -2.85849 1.27512 0
M  V30 4525 C 426.745 -4.08008 2.08072 0
M  V30 4526 N 428.236 -4.15135 2.05467 0
M  V30 4527 C 428.971 -5.08711 2.64577 0
M  V30 4528 N 428.467 -6.07792 3.32506 0
M  V30 4529 N 430.26 -5.01254 2.54363 0
M  V30 4530 H 422.411 -1.21713 1.74068 0
M  V30 4531 H 424.674 -0.593294 0.739396 0
M  V30 4532 H 424.38 -2.63109 2.33381 0
M  V30 4533 H 424.254 -3.65882 0.917088 0
M  V30 4534 H 426.641 -2.94189 0.231686 0
M  V30 4535 H 426.722 -1.92886 1.68014 0
M  V30 4536 H 426.366 -4.00429 3.12441 0
M  V30 4537 H 426.296 -5.001 1.64947 0
M  V30 4538 H 428.787 -3.44189 1.5602 0
M  V30 4539 H 429.1 -6.75739 3.74963 0
M  V30 4540 H 427.445 -6.08047 3.36606 0
M  V30 4541 H 430.636 -4.22795 2.00902 0
M  V30 4542 H 430.809 -5.73995 3.00722 0
M  V30 4543 N 424.215 -0.530993 -1.48385 0
M  V30 4544 C 425.492 0.0671788 -1.95485 0
M  V30 4545 C 425.872 1.51191 -1.47324 0
M  V30 4546 O 425.22 2.17507 -0.700202 0
M  V30 4547 C 425.43 -0.0511206 -3.48963 0
M  V30 4548 C 426.778 0.107632 -4.24464 0
M  V30 4549 O 427.802 0.0226248 -3.56193 0
M  V30 4550 O 426.661 0.285972 -5.45751 0
M  V30 4551 H 423.755 0.0787365 -0.823243 0
M  V30 4552 H 426.301 -0.595662 -1.58902 0
M  V30 4553 H 425.073 -1.05747 -3.7674 0
M  V30 4554 H 424.696 0.650525 -3.92242 0
M  V30 4555 N 425.693 1.55336 -0.266172 0
M  V30 4556 C 426.939 1.99692 0.353681 0
M  V30 4557 C 427.272 1.1543 1.56172 0
M  V30 4558 O 426.547 0.222218 1.93226 0
M  V30 4559 C 426.83 3.52316 0.74466 0
M  V30 4560 C 426.683 4.47337 -0.470101 0
M  V30 4561 C 428.002 4.10588 1.58447 0
M  V30 4562 H 425.121 0.725961 0.12708 0
M  V30 4563 H 427.763 1.86336 -0.371333 0
M  V30 4564 H 425.913 3.63829 1.36239 0
M  V30 4565 H 427.585 4.4778 -1.10864 0
M  V30 4566 H 425.828 4.19364 -1.10978 0
M  V30 4567 H 426.499 5.51788 -0.15291 0
M  V30 4568 H 428.975 4.02297 1.06286 0
M  V30 4569 H 427.851 5.17607 1.82686 0
M  V30 4570 H 428.112 3.60253 2.56262 0
M  V30 4571 N 427.171 -0.0066808 1.57599 0
M  V30 4572 C 428.401 -0.703066 1.94269 0
M  V30 4573 C 428.809 -1.68206 0.866222 0
M  V30 4574 O 428.152 -1.82966 -0.164087 0
M  V30 4575 C 428.214 -1.49616 3.26887 0
M  V30 4576 C 427.878 -0.679494 4.5192 0
M  V30 4577 C 428.875 0.0299508 5.19891 0
M  V30 4578 C 426.56 -0.627433 4.98366 0
M  V30 4579 C 428.554 0.780514 6.32603 0
M  V30 4580 C 426.241 0.126861 6.10968 0
M  V30 4581 C 427.239 0.829574 6.77943 0
M  V30 4582 O 426.927 1.57157 7.88389 0
M  V30 4583 H 426.659 -0.201217 0.645359 0
M  V30 4584 H 429.213 0.0385326 2.05364 0
M  V30 4585 H 427.443 -2.28209 3.12182 0
M  V30 4586 H 429.132 -2.07726 3.48719 0
M  V30 4587 H 429.898 -0.00115963 4.85 0
M  V30 4588 H 425.777 -1.16392 4.46065 0
M  V30 4589 H 429.321 1.32954 6.84813 0
M  V30 4590 H 425.218 0.159815 6.45302 0
M  V30 4591 H 425.986 1.48758 8.04868 0
M  V30 4592 N 428.649 -1.55105 -0.279332 0
M  V30 4593 C 429.559 -1.90638 -1.36727 0
M  V30 4594 C 430.575 -0.802899 -1.54368 0
M  V30 4595 O 431.751 -1.10138 -1.68616 0
M  V30 4596 C 428.816 -2.16547 -2.70755 0
M  V30 4597 C 427.877 -3.40146 -2.61915 0
M  V30 4598 C 427.11 -3.6481 -3.8955 0
M  V30 4599 O 427.333 -2.92095 -4.89935 0
M  V30 4600 O 426.267 -4.58343 -3.90135 0
M  V30 4601 H 430.093 -2.83237 -1.09591 0
M  V30 4602 H 427.678 -1.4157 -0.477306 0
M  V30 4603 H 429.56 -2.34665 -3.50014 0
M  V30 4604 H 428.235 -1.27131 -2.9769 0
M  V30 4605 H 427.142 -3.2737 -1.81052 0
M  V30 4606 H 428.475 -4.29761 -2.3993 0
M  V30 4607 N 430.127 0.543554 -1.4793 0
M  V30 4608 C 431.352 1.32995 -1.59145 0
M  V30 4609 C 431.777 1.86472 -0.246956 0
M  V30 4610 O 431.135 1.63696 0.779324 0
M  V30 4611 C 431.183 2.46623 -2.63077 0
M  V30 4612 O 430.287 3.49261 -2.19295 0
M  V30 4613 H 429.628 0.394472 -0.534124 0
M  V30 4614 H 432.158 0.655489 -1.93816 0
M  V30 4615 H 432.168 2.93001 -2.83926 0
M  V30 4616 H 430.843 2.07059 -3.60693 0
M  V30 4617 H 429.42 3.09094 -2.08603 0
M  V30 4618 N 431.605 1.3629 0.791371 0
M  V30 4619 C 432.535 1.33137 1.91825 0
M  V30 4620 C 433.516 0.203168 1.68882 0
M  V30 4621 O 434.701 0.400509 1.90025 0
M  V30 4622 C 431.831 1.11793 3.28816 0
M  V30 4623 C 430.785 2.21417 3.66277 0
M  V30 4624 C 430.111 1.85218 5.01596 0
M  V30 4625 C 431.411 3.63489 3.75064 0
M  V30 4626 H 433.105 2.2743 1.9472 0
M  V30 4627 H 430.651 1.09479 0.935437 0
M  V30 4628 H 432.604 1.08222 4.07266 0
M  V30 4629 H 431.328 0.139501 3.26302 0
M  V30 4630 H 429.987 2.2411 2.90121 0
M  V30 4631 H 429.635 0.859544 4.95602 0
M  V30 4632 H 429.335 2.58611 5.27631 0
M  V30 4633 H 430.859 1.832 5.82469 0
M  V30 4634 H 432.273 3.63034 4.43711 0
M  V30 4635 H 430.67 4.35771 4.12582 0
M  V30 4636 H 431.74 3.98536 2.76219 0
M  V30 4637 N 433.083 -1.0153 1.20538 0
M  V30 4638 C 434.323 -1.76689 1.02763 0
M  V30 4639 C 434.687 -1.87065 -0.432513 0
M  V30 4640 O 435.888 -2.58684 -0.730481 0
M  V30 4641 C 434.159 -3.14707 1.69393 0
M  V30 4642 S 435.718 -4.05886 1.66738 0
M  V30 4643 H 432.536 -0.608076 0.368463 0
M  V30 4644 H 435.138 -1.21558 1.53114 0
M  V30 4645 H 433.842 -3.04782 2.74838 0
M  V30 4646 H 433.373 -3.74913 1.19179 0
M  V30 4647 H 435.388 -4.91221 0.70117 0
M  V30 4648 N 434.561 -1.01147 -1.20859 0
M  V30 4649 C 435.977 -0.725422 -1.42161 0
M  V30 4650 C 436.177 0.696919 -1.89064 0
M  V30 4651 O 435.233 1.46539 -2.05627 0
M  V30 4652 C 436.546 -1.74678 -2.44761 0
M  V30 4653 C 438.094 -1.76433 -2.58535 0
M  V30 4654 C 438.569 -2.77481 -3.64374 0
M  V30 4655 N 440.06 -2.76189 -3.71852 0
M  V30 4656 C 440.795 -3.51035 -4.53389 0
M  V30 4657 N 440.291 -4.35541 -5.38773 0
M  V30 4658 N 442.084 -3.39655 -4.47873 0
M  V30 4659 H 434.235 -1.92979 -0.887282 0
M  V30 4660 H 436.498 -0.833327 -0.451962 0
M  V30 4661 H 436.204 -2.76551 -2.17285 0
M  V30 4662 H 436.078 -1.55472 -3.43669 0
M  V30 4663 H 438.465 -0.75248 -2.85345 0
M  V30 4664 H 438.546 -1.99712 -1.5984 0
M  V30 4665 H 438.19 -3.78827 -3.38308 0
M  V30 4666 H 438.12 -2.51466 -4.6268 0
M  V30 4667 H 440.611 -2.14885 -3.10858 0
M  V30 4668 H 440.924 -4.89432 -5.98061 0
M  V30 4669 H 439.269 -4.39621 -5.38292 0
M  V30 4670 H 442.46 -2.73063 -3.80203 0
M  V30 4671 H 442.633 -3.9824 -5.11184 0
M  V30 4672 N 436.039 1.36541 -0.78704 0
M  V30 4673 C 437.287 1.98911 -0.357633 0
M  V30 4674 C 437.608 1.62778 1.07371 0
M  V30 4675 O 436.878 0.900612 1.73971 0
M  V30 4676 H 435.458 0.735734 -0.129246 0
M  V30 4677 H 438.12 1.66776 -1.00855 0
M  V30 4678 H 437.216 3.08874 -0.447549 0
M  V30 4679 N 437.518 0.538854 1.48102 0
M  V30 4680 C 438.428 -0.222648 2.33541 0
M  V30 4681 C 439.444 -0.930225 1.47047 0
M  V30 4682 O 440.62 -0.903211 1.80011 0
M  V30 4683 C 437.685 -1.25064 3.23357 0
M  V30 4684 C 436.746 -0.552469 4.2573 0
M  V30 4685 C 435.979 -1.53149 5.11254 0
M  V30 4686 O 436.202 -2.76487 4.9891 0
M  V30 4687 O 435.136 -1.06602 5.92385 0
M  V30 4688 H 438.962 0.477707 2.99919 0
M  V30 4689 H 436.547 0.299669 1.46364 0
M  V30 4690 H 438.429 -1.8445 3.78888 0
M  V30 4691 H 437.104 -1.93325 2.59629 0
M  V30 4692 H 436.011 0.082114 3.7401 0
M  V30 4693 H 437.344 0.0883526 4.92121 0
M  V30 4694 N 438.996 -1.55193 0.274407 0
M  V30 4695 C 440.244 -1.99187 -0.341902 0
M  V30 4696 C 440.565 -1.16422 -1.56431 0
M  V30 4697 O 439.835 -0.253573 -1.94252 0
M  V30 4698 H 438.415 -0.735721 -0.129317 0
M  V30 4699 H 441.077 -1.91168 0.379578 0
M  V30 4700 H 440.173 -3.05629 -0.632253 0
M  V30 4701 N 440.474 -0.00167713 -1.576 0
M  V30 4702 C 441.72 0.683832 -1.90923 0
M  V30 4703 C 442.053 1.7333 -0.875799 0
M  V30 4704 O 441.328 1.94215 0.10525 0
M  V30 4705 C 441.611 1.32543 -3.3482 0
M  V30 4706 C 441.464 0.287387 -4.48881 0
M  V30 4707 C 442.783 2.25114 -3.78169 0
M  V30 4708 H 439.902 0.247125 -0.694333 0
M  V30 4709 H 442.544 -0.0533149 -1.89925 0
M  V30 4710 H 440.694 1.95372 -3.35801 0
M  V30 4711 H 442.366 -0.341346 -4.60035 0
M  V30 4712 H 440.609 -0.39017 -4.32042 0
M  V30 4713 H 441.28 0.775393 -5.46527 0
M  V30 4714 H 443.756 1.723 -3.7875 0
M  V30 4715 H 442.632 2.66971 -4.79602 0
M  V30 4716 H 442.893 3.13092 -3.12131 0
M  V30 4717 N 441.952 1.55251 0.271103 0
M  V30 4718 C 442.899 1.88261 1.33516 0
M  V30 4719 C 443.869 0.734296 1.48988 0
M  V30 4720 O 445.054 0.985741 1.63364 0
M  V30 4721 C 442.194 2.16168 2.69008 0
M  V30 4722 C 441.307 3.43678 2.61743 0
M  V30 4723 C 440.442 3.61276 3.89427 0
M  V30 4724 C 439.481 4.82472 3.7668 0
M  V30 4725 N 438.618 4.96717 4.96202 0
M  V30 4726 H 443.458 2.79015 1.04665 0
M  V30 4727 H 440.995 1.38137 0.505618 0
M  V30 4728 H 442.953 2.30349 3.47844 0
M  V30 4729 H 441.583 1.28646 2.96057 0
M  V30 4730 H 440.635 3.37959 1.74607 0
M  V30 4731 H 441.947 4.3265 2.48224 0
M  V30 4732 H 441.101 3.75284 4.76704 0
M  V30 4733 H 439.84 2.70492 4.05814 0
M  V30 4734 H 438.845 4.68465 2.87786 0
M  V30 4735 H 440.07 5.74692 3.61809 0
M  V30 4736 H 438.016 4.08865 5.12997 0
M  V30 4737 H 437.933 5.79738 4.85222 0
M  V30 4738 H 439.201 5.15113 5.85046 0
M  V30 4739 N 443.43 -0.535701 1.48216 0
M  V30 4740 C 444.36 -1.65014 1.65204 0
M  V30 4741 C 445.341 -1.62554 0.501011 0
M  V30 4742 O 446.526 -1.7984 0.732886 0
M  V30 4743 C 443.656 -3.03616 1.68626 0
M  V30 4744 C 442.61 -3.20932 2.83172 0
M  V30 4745 C 441.936 -4.60537 2.71679 0
M  V30 4746 C 443.236 -3.04249 4.24535 0
M  V30 4747 H 444.93 -1.51053 2.58502 0
M  V30 4748 H 442.476 -0.725262 1.24402 0
M  V30 4749 H 444.429 -3.81446 1.79099 0
M  V30 4750 H 443.153 -3.18587 0.719026 0
M  V30 4751 H 441.812 -2.45517 2.72244 0
M  V30 4752 H 441.46 -4.72336 1.72937 0
M  V30 4753 H 441.16 -4.73069 3.48538 0
M  V30 4754 H 442.684 -5.40475 2.84112 0
M  V30 4755 H 444.098 -3.71877 4.36326 0
M  V30 4756 H 442.495 -3.28278 5.02348 0
M  V30 4757 H 443.565 -2.00739 4.41397 0
M  V30 4758 N 444.908 -1.36708 -0.784132 0
M  V30 4759 C 446.136 -1.34398 -1.57305 0
M  V30 4760 C 446.551 0.0735577 -1.88657 0
M  V30 4761 O 445.908 1.03193 -1.50524 0
M  V30 4762 C 445.959 -2.17053 -2.89085 0
M  V30 4763 O 445.68 -3.53281 -2.59083 0
M  V30 4764 C 447.181 -2.22583 -3.83369 0
M  V30 4765 H 444.401 -0.460819 -0.487736 0
M  V30 4766 H 446.945 -1.79879 -0.972819 0
M  V30 4767 H 445.1 -1.75113 -3.45564 0
M  V30 4768 H 445.514 -3.9647 -3.43383 0
M  V30 4769 H 446.988 -2.84763 -4.72878 0
M  V30 4770 H 447.465 -1.23075 -4.21603 0
M  V30 4771 H 448.071 -2.64781 -3.32823 0
M  V30 4772 N 446.386 1.0089 -1.21074 0
M  V30 4773 C 447.797 1.56056 -1.02486 0
M  V30 4774 C 448.148 1.91728 0.416506 0
M  V30 4775 O 447.273 1.73066 1.29912 0
M  V30 4776 C 447.868 2.83563 -1.85411 0
M  V30 4777 C 446.427 3.3523 -1.71166 0
M  V30 4778 C 445.574 2.0846 -1.82865 0
M  V30 4779 H 448.525 0.831818 -1.35154 0
M  V30 4780 H 448.546 3.55286 -1.36205 0
M  V30 4781 H 448.058 2.57569 -2.9031 0
M  V30 4782 H 446.159 3.66167 -0.689361 0
M  V30 4783 H 446.272 4.06913 -2.52901 0
M  V30 4784 H 444.636 2.21275 -1.26132 0
M  V30 4785 H 445.419 1.84883 -2.89263 0
M  V30 4786 N 447.864 1.01787 1.20321 0
M  V30 4787 C 449.28 0.732951 1.41774 0
M  V30 4788 C 449.48 -0.686883 1.89431 0
M  V30 4789 O 448.536 -1.45446 2.06402 0
M  V30 4790 C 449.849 1.75973 2.43832 0
M  V30 4791 C 451.397 1.77802 2.57596 0
M  V30 4792 C 451.872 2.7941 3.62897 0
M  V30 4793 N 453.363 2.78157 3.70382 0
M  V30 4794 C 454.098 3.53434 4.51521 0
M  V30 4795 N 453.594 4.38392 5.36455 0
M  V30 4796 N 455.387 3.42026 4.46066 0
M  V30 4797 H 447.538 1.93447 0.877035 0
M  V30 4798 H 449.801 0.835712 0.447536 0
M  V30 4799 H 449.507 2.77699 2.15815 0
M  V30 4800 H 449.381 1.57292 3.4284 0
M  V30 4801 H 451.768 0.767602 2.84942 0
M  V30 4802 H 451.849 2.00557 1.58779 0
M  V30 4803 H 451.493 3.80616 3.36295 0
M  V30 4804 H 451.423 2.53916 4.61339 0
M  V30 4805 H 453.914 2.16531 3.09714 0
M  V30 4806 H 454.227 4.92596 5.95457 0
M  V30 4807 H 452.572 4.4247 5.35953 0
M  V30 4808 H 455.763 2.75075 3.78749 0
M  V30 4809 H 455.936 4.00946 5.09064 0
M  V30 4810 N 449.342 -1.36122 0.79427 0
M  V30 4811 C 450.758 -1.5232 0.476525 0
M  V30 4812 C 450.958 -1.74685 -1.00436 0
M  V30 4813 O 450.014 -1.78115 -1.78973 0
M  V30 4814 C 451.327 -2.70607 1.31119 0
M  V30 4815 C 452.875 -2.8448 1.30537 0
M  V30 4816 C 453.35 -4.05778 2.12387 0
M  V30 4817 N 454.841 -4.12933 2.09859 0
M  V30 4818 C 455.576 -5.05876 2.69957 0
M  V30 4819 N 455.072 -6.04232 3.38934 0
M  V30 4820 N 456.865 -4.98528 2.59665 0
M  V30 4821 H 449.016 -1.1986 1.75349 0
M  V30 4822 H 451.279 -0.585418 0.745647 0
M  V30 4823 H 450.985 -2.60619 2.36158 0
M  V30 4824 H 450.859 -3.64888 0.955843 0
M  V30 4825 H 453.246 -2.93927 0.262876 0
M  V30 4826 H 453.327 -1.91093 1.70051 0
M  V30 4827 H 452.971 -3.97092 3.1667 0
M  V30 4828 H 452.901 -4.98323 1.70242 0
M  V30 4829 H 455.392 -3.42515 1.59662 0
M  V30 4830 H 455.705 -6.71724 3.82109 0
M  V30 4831 H 454.05 -6.04443 3.43036 0
M  V30 4832 H 457.241 -4.20641 2.05375 0
M  V30 4833 H 457.414 -5.70773 3.06793 0
M  V30 4834 N 450.82 -0.546701 -1.47814 0
M  V30 4835 C 451.752 0.244196 -2.27895 0
M  V30 4836 C 452.765 0.88911 -1.36377 0
M  V30 4837 O 453.954 0.764733 -1.61289 0
M  V30 4838 C 451.054 1.36252 -3.10304 0
M  V30 4839 C 450.227 0.816382 -4.29714 0
M  V30 4840 C 449.286 1.81789 -4.93801 0
M  V30 4841 O 448.312 1.36818 -5.52512 0
M  V30 4842 N 449.514 3.15085 -4.87547 0
M  V30 4843 H 452.279 -0.442694 -2.96412 0
M  V30 4844 H 449.84 -0.382095 -1.57327 0
M  V30 4845 H 451.832 2.03102 -3.50045 0
M  V30 4846 H 450.402 1.95281 -2.44099 0
M  V30 4847 H 449.622 -0.0285981 -3.9419 0
M  V30 4848 H 450.91 0.430668 -5.06974 0
M  V30 4849 H 450.308 3.54275 -4.41028 0
M  V30 4850 H 448.865 3.77522 -5.31339 0
M  V30 4851 N 452.299 1.55045 -0.282633 0
M  V30 4852 C 453.246 2.22822 0.601566 0
M  V30 4853 C 454.216 1.20431 1.14392 0
M  V30 4854 O 455.401 1.48996 1.19184 0
M  V30 4855 C 452.541 2.95873 1.77632 0
M  V30 4856 C 451.654 4.12999 1.26711 0
M  V30 4857 C 450.789 4.73676 2.40426 0
M  V30 4858 C 449.828 5.82981 1.86545 0
M  V30 4859 N 448.965 6.3769 2.93762 0
M  V30 4860 H 453.805 2.97995 0.0169528 0
M  V30 4861 H 451.342 1.471 -0.00339964 0
M  V30 4862 H 453.3 3.36447 2.46697 0
M  V30 4863 H 451.93 2.2311 2.33285 0
M  V30 4864 H 450.982 3.77494 0.469314 0
M  V30 4865 H 452.294 4.91803 0.832518 0
M  V30 4866 H 451.448 5.17008 3.17471 0
M  V30 4867 H 450.187 3.94164 2.87203 0
M  V30 4868 H 449.192 5.39092 1.07983 0
M  V30 4869 H 450.417 6.64366 1.40694 0
M  V30 4870 H 448.363 5.61069 3.39908 0
M  V30 4871 H 448.28 7.11788 2.54744 0
M  V30 4872 H 449.548 6.8568 3.7076 0
M  V30 4873 N 453.777 0.010035 1.57597 0
M  V30 4874 C 455.193 -0.346164 1.55801 0
M  V30 4875 C 455.393 -1.74144 1.01371 0
M  V30 4876 O 454.449 -2.43938 0.651968 0
M  V30 4877 C 455.762 -0.212216 2.9995 0
M  V30 4878 C 457.31 -0.286409 3.11687 0
M  V30 4879 C 457.785 -0.18147 4.5764 0
M  V30 4880 N 459.276 -0.239056 4.62583 0
M  V30 4881 C 460.011 -0.181351 5.73113 0
M  V30 4882 N 459.507 -0.073661 6.92761 0
M  V30 4883 N 461.3 -0.233949 5.61613 0
M  V30 4884 H 453.451 0.922657 1.91313 0
M  V30 4885 H 455.714 0.354595 0.879185 0
M  V30 4886 H 455.42 0.748169 3.4365 0
M  V30 4887 H 455.294 -0.990224 3.6397 0
M  V30 4888 H 457.681 -1.23724 2.67911 0
M  V30 4889 H 457.762 0.521645 2.50425 0
M  V30 4890 H 457.406 0.765863 5.02093 0
M  V30 4891 H 457.336 -1.00814 5.1686 0
M  V30 4892 H 459.827 -0.32321 3.76515 0
M  V30 4893 H 460.14 -0.0358003 7.72792 0
M  V30 4894 H 458.485 -0.0391461 6.94989 0
M  V30 4895 H 461.676 -0.316347 4.6703 0
M  V30 4896 H 461.849 -0.185514 6.47734 0
M  V30 4897 N 455.255 -1.55392 -0.262866 0
M  V30 4898 C 456.185 -1.91978 -1.32917 0
M  V30 4899 C 457.166 -0.7828 -1.51017 0
M  V30 4900 O 458.351 -1.04178 -1.63892 0
M  V30 4901 C 455.481 -2.20055 -2.68687 0
M  V30 4902 C 454.435 -3.35854 -2.65304 0
M  V30 4903 C 453.761 -3.49435 -4.04721 0
M  V30 4904 C 455.061 -4.71977 -2.23685 0
M  V30 4905 H 456.755 -2.81292 -1.02544 0
M  V30 4906 H 454.301 -1.3534 -0.491846 0
M  V30 4907 H 456.254 -2.44237 -3.43404 0
M  V30 4908 H 454.978 -1.27551 -3.00663 0
M  V30 4909 H 453.637 -3.11655 -1.93045 0
M  V30 4910 H 453.285 -2.54379 -4.33936 0
M  V30 4911 H 452.985 -4.27297 -4.0335 0
M  V30 4912 H 454.509 -3.7592 -4.81161 0
M  V30 4913 H 455.923 -4.95637 -2.88127 0
M  V30 4914 H 454.32 -5.52828 -2.33456 0
M  V30 4915 H 455.39 -4.70115 -1.18827 0
M  V30 4916 N 456.733 0.527833 -1.48498 0
M  V30 4917 C 457.98 1.28354 -1.56625 0
M  V30 4918 C 458.308 1.93 -0.241096 0
M  V30 4919 O 457.563 1.79967 0.768798 0
M  V30 4920 C 457.862 2.39275 -2.65485 0
M  V30 4921 C 457.528 1.92268 -4.07853 0
M  V30 4922 C 456.19 1.79166 -4.46602 0
M  V30 4923 C 458.542 1.56771 -4.97064 0
M  V30 4924 C 455.87 1.28905 -5.72364 0
M  V30 4925 C 458.222 1.07972 -6.23318 0
M  V30 4926 C 456.886 0.934887 -6.60921 0
M  V30 4927 H 456.156 0.469682 -0.573131 0
M  V30 4928 H 458.803 0.588781 -1.82224 0
M  V30 4929 H 457.108 3.1443 -2.33754 0
M  V30 4930 H 458.805 2.974 -2.68988 0
M  V30 4931 H 455.395 2.03417 -3.77252 0
M  V30 4932 H 459.579 1.65753 -4.67803 0
M  V30 4933 H 454.835 1.16381 -6.00221 0
M  V30 4934 H 459.009 0.795775 -6.91838 0
M  V30 4935 H 456.636 0.543231 -7.58257 0
M  V30 4936 N 458.211 1.37122 0.776871 0
M  V30 4937 C 459.451 1.33441 1.54831 0
M  V30 4938 C 459.815 -0.0818963 1.91825 0
M  V30 4939 O 461.016 -0.24338 2.67696 0
M  V30 4940 C 459.287 2.24267 2.78279 0
M  V30 4941 S 460.846 2.38389 3.68397 0
M  V30 4942 H 457.664 0.473791 0.530135 0
M  V30 4943 H 460.266 1.7282 0.913968 0
M  V30 4944 H 458.97 3.261 2.49173 0
M  V30 4945 H 458.501 1.85953 3.46677 0
M  V30 4946 H 460.516 1.59068 4.70013 0
M  V30 4947 N 459.689 -1.00246 1.21608 0
M  V30 4948 C 461.105 -1.26435 0.973975 0
M  V30 4949 C 461.305 -1.98642 -0.338143 0
M  V30 4950 O 460.361 -2.29026 -1.06317 0
M  V30 4951 C 461.674 -2.08551 2.16626 0
M  V30 4952 C 463.222 -2.21769 2.20879 0
M  V30 4953 C 463.697 -3.07267 3.39633 0
M  V30 4954 N 465.188 -3.14855 3.39736 0
M  V30 4955 C 465.923 -3.81274 4.28273 0
M  V30 4956 N 465.419 -4.497 5.27012 0
M  V30 4957 N 467.212 -3.7794 4.16074 0
M  V30 4958 H 459.363 -0.518089 2.05984 0
M  V30 4959 H 461.626 -0.291368 0.902113 0
M  V30 4960 H 461.332 -1.62847 3.11727 0
M  V30 4961 H 461.206 -3.09303 2.15897 0
M  V30 4962 H 463.593 -2.66691 1.26332 0
M  V30 4963 H 463.674 -1.20478 2.25652 0
M  V30 4964 H 463.318 -2.63047 4.34475 0
M  V30 4965 H 463.248 -4.08678 3.321 0
M  V30 4966 H 465.739 -2.66147 2.6828 0
M  V30 4967 H 466.052 -4.98092 5.90867 0
M  V30 4968 H 464.397 -4.48479 5.30935 0
M  V30 4969 H 467.588 -3.23638 3.38195 0
M  V30 4970 H 467.761 -4.29424 4.85282 0
M  V30 4971 N 461.167 -1.02423 -1.1978 0
M  V30 4972 C 462.397 -0.736387 -1.93031 0
M  V30 4973 C 462.805 0.708023 -1.75453 0
M  V30 4974 O 462.148 1.4927 -1.07071 0
M  V30 4975 C 462.21 -1.00194 -3.45255 0
M  V30 4976 C 461.874 -2.43698 -3.86601 0
M  V30 4977 C 462.871 -3.41814 -3.91738 0
M  V30 4978 C 460.556 -2.77975 -4.18372 0
M  V30 4979 C 462.55 -4.72265 -4.28071 0
M  V30 4980 C 460.237 -4.08636 -4.54378 0
M  V30 4981 C 461.235 -5.05592 -4.59201 0
M  V30 4982 O 460.923 -6.33914 -4.94376 0
M  V30 4983 H 460.655 -0.269116 -0.620123 0
M  V30 4984 H 463.209 -1.37043 -1.52998 0
M  V30 4985 H 461.439 -0.310747 -3.85449 0
M  V30 4986 H 463.128 -0.704488 -3.9974 0
M  V30 4987 H 463.894 -3.16671 -3.67348 0
M  V30 4988 H 459.773 -2.0319 -4.13805 0
M  V30 4989 H 463.317 -5.4794 -4.3175 0
M  V30 4990 H 459.214 -4.33556 -4.78226 0
M  V30 4991 H 459.982 -6.38317 -5.12341 0
M  V30 4992 N 462.645 1.35699 -0.801477 0
M  V30 4993 C 463.595 2.2728 -0.181073 0
M  V30 4994 C 464.579 1.47533 0.642098 0
M  V30 4995 O 465.771 1.69785 0.500193 0
M  V30 4996 C 462.9 3.36626 0.673612 0
M  V30 4997 C 461.986 4.23802 -0.159008 0
M  V30 4998 N 462.377 4.90879 -1.2195 0
M  V30 4999 C 460.675 4.45959 0.0602005 0
M  V30 5000 C 461.376 5.5546 -1.72738 0
M  V30 5001 N 460.352 5.33663 -1.03465 0
M  V30 5002 H 464.154 2.76632 -0.992582 0
M  V30 5003 H 461.668 1.49166 -0.642127 0
M  V30 5004 H 463.665 4.01179 1.13408 0
M  V30 5005 H 462.325 2.88828 1.48353 0
M  V30 5006 H 463.336 4.92497 -1.60209 0
M  V30 5007 H 460.013 4.08969 0.839664 0
M  V30 5008 H 461.403 6.18991 -2.61342 0
M  V30 5009 N 464.123 0.554532 1.47522 0
M  V30 5010 C 465.073 -0.215008 2.26984 0
M  V30 5011 C 466.057 -0.88774 1.34194 0
M  V30 5012 O 467.249 -0.786489 1.58567 0
M  V30 5013 C 464.378 -1.24604 3.19889 0
M  V30 5014 C 463.464 -0.576857 4.20159 0
M  V30 5015 N 463.855 0.351541 5.04577 0
M  V30 5016 C 462.153 -0.831104 4.38188 0
M  V30 5017 C 462.854 0.739995 5.76974 0
M  V30 5018 N 461.83 0.0954407 5.43516 0
M  V30 5019 H 465.632 0.498843 2.89636 0
M  V30 5020 H 463.146 0.374279 1.58028 0
M  V30 5021 H 465.143 -1.81128 3.75498 0
M  V30 5022 H 463.803 -1.96101 2.58794 0
M  V30 5023 H 464.814 0.725556 5.12792 0
M  V30 5024 H 461.491 -1.53479 3.88266 0
M  V30 5025 H 462.881 1.50271 6.5488 0
M  V30 5026 N 465.601 -1.54893 0.290851 0
M  V30 5027 C 466.849 -1.99538 -0.320756 0
M  V30 5028 C 467.17 -1.18075 -1.55188 0
M  V30 5029 O 466.44 -0.274162 -1.93972 0
M  V30 5030 H 465.02 -0.737052 -0.121507 0
M  V30 5031 H 467.682 -1.90755 0.399832 0
M  V30 5032 H 466.778 -3.06282 -0.599802 0
M  V30 5033 N 467.08 -0.0183926 -1.57589 0
M  V30 5034 C 468.028 0.985111 -2.10709 0
M  V30 5035 C 469.022 1.34397 -1.0312 0
M  V30 5036 O 470.228 1.32746 -1.21567 0
M  V30 5037 H 466.603 0.335418 -0.673052 0
M  V30 5038 H 468.574 0.511689 -2.9398 0
M  V30 5039 C 467.323 2.26202 -2.64061 0
M  V30 5040 H 466.646 1.9946 -3.4649 0
M  V30 5041 H 468.086 2.94652 -3.04887 0
M  V30 5042 C 466.545 2.98444 -1.5631 0
M  V30 5043 O 467.075 3.90142 -0.956674 0
M  V30 5044 N 465.281 2.6059 -1.28612 0
M  V30 5045 H 464.828 1.86101 -1.78112 0
M  V30 5046 H 464.786 3.09238 -0.567406 0
M  V30 5047 N 468.558 1.5553 0.254621 0
M  V30 5048 C 469.974 1.4778 0.602753 0
M  V30 5049 C 470.174 0.707047 1.88688 0
M  V30 5050 O 469.23 0.233288 2.5142 0
M  V30 5051 C 470.543 2.92133 0.712648 0
M  V30 5052 C 472.091 3.02458 0.805488 0
M  V30 5053 C 472.566 4.48102 0.947009 0
M  V30 5054 N 474.057 4.52008 1.01207 0
M  V30 5055 C 474.792 5.61939 1.1407 0
M  V30 5056 N 474.288 6.81697 1.23536 0
M  V30 5057 N 476.081 5.49719 1.17325 0
M  V30 5058 H 468.232 2.04085 -0.588463 0
M  V30 5059 H 470.495 0.926229 -0.202001 0
M  V30 5060 H 470.201 3.51332 -0.160766 0
M  V30 5061 H 470.075 3.42187 1.58707 0
M  V30 5062 H 472.462 2.43344 1.66936 0
M  V30 5063 H 472.543 2.55627 -0.0939266 0
M  V30 5064 H 472.187 5.07824 0.087725 0
M  V30 5065 H 472.117 4.92607 1.86135 0
M  V30 5066 H 474.608 3.65749 0.950577 0
M  V30 5067 H 474.921 7.61228 1.33236 0
M  V30 5068 H 473.266 6.84473 1.20508 0
M  V30 5069 H 476.457 4.55095 1.09573 0
M  V30 5070 H 476.63 6.35432 1.27005 0
M  V30 5071 N 470.036 -0.519951 1.48776 0
M  V30 5072 C 470.999 -1.60574 1.6355 0
M  V30 5073 C 471.999 -1.52557 0.508234 0
M  V30 5074 O 473.189 -1.56047 0.774262 0
M  V30 5075 C 470.321 -3.00211 1.61512 0
M  V30 5076 H 471.514 -1.4881 2.60376 0
M  V30 5077 H 469.067 -0.742772 1.37523 0
M  V30 5078 H 469.802 -3.17471 0.662009 0
M  V30 5079 H 469.587 -3.07439 2.43359 0
M  V30 5080 H 471.077 -3.79134 1.75064 0
M  V30 5081 N 471.514 -1.37532 -0.769588 0
M  V30 5082 C 472.925 -1.29382 -1.346 0
M  V30 5083 C 473.276 0.0576039 -1.96115 0
M  V30 5084 O 472.401 0.95947 -1.93967 0
M  V30 5085 C 472.996 -2.34298 -2.44724 0
M  V30 5086 C 471.555 -2.29776 -2.98128 0
M  V30 5087 C 470.702 -2.18013 -1.71364 0
M  V30 5088 H 473.653 -1.48123 -0.56968 0
M  V30 5089 H 473.674 -1.99089 -3.24259 0
M  V30 5090 H 473.186 -3.32645 -1.99922 0
M  V30 5091 H 471.287 -1.34959 -3.47299 0
M  V30 5092 H 471.4 -3.23276 -3.53595 0
M  V30 5093 H 469.764 -1.64595 -1.94372 0
M  V30 5094 H 470.547 -3.18278 -1.28662 0
M  V30 5095 N 472.992 0.995999 -1.22138 0
M  V30 5096 C 473.924 2.08745 -0.946485 0
M  V30 5097 C 474.937 1.62633 0.0737356 0
M  V30 5098 O 476.126 1.77782 -0.159886 0
M  V30 5099 C 473.226 3.36516 -0.401305 0
M  V30 5100 C 472.399 4.11672 -1.47801 0
M  V30 5101 C 471.458 5.17728 -0.940461 0
M  V30 5102 O 470.484 5.45482 -1.62596 0
M  V30 5103 N 471.686 5.80005 0.239723 0
M  V30 5104 H 474.451 2.32908 -1.88611 0
M  V30 5105 H 472.012 1.16152 -1.12785 0
M  V30 5106 H 474.004 4.04691 -0.0270837 0
M  V30 5107 H 472.574 3.0944 0.443354 0
M  V30 5108 H 471.794 3.38171 -2.02568 0
M  V30 5109 H 473.082 4.58657 -2.20253 0
M  V30 5110 H 472.48 5.5982 0.813518 0
M  V30 5111 H 471.037 6.4943 0.555361 0
M  V30 5112 N 474.47 1.03057 1.19235 0
M  V30 5113 C 475.4 0.633497 2.24742 0
M  V30 5114 C 476.381 -0.358335 1.66283 0
M  V30 5115 O 477.566 -0.240676 1.92703 0
M  V30 5116 C 474.696 -0.0147648 3.47297 0
M  V30 5117 C 473.65 0.899527 4.18441 0
M  V30 5118 C 472.976 0.116281 5.34574 0
M  V30 5119 C 474.276 2.21404 4.73051 0
M  V30 5120 H 475.97 1.5155 2.58211 0
M  V30 5121 H 473.516 0.73014 1.24117 0
M  V30 5122 H 475.469 -0.304202 4.20301 0
M  V30 5123 H 474.193 -0.931577 3.13032 0
M  V30 5124 H 472.852 1.17319 3.47321 0
M  V30 5125 H 472.5 -0.802619 4.96555 0
M  V30 5126 H 472.2 0.725293 5.83107 0
M  V30 5127 H 473.724 -0.166376 6.10373 0
M  V30 5128 H 475.138 1.98601 5.37802 0
M  V30 5129 H 473.535 2.77512 5.32078 0
M  V30 5130 H 474.605 2.86752 3.91026 0
M  V30 5131 N 475.948 -1.35272 0.808662 0
M  V30 5132 C 476.878 -2.32315 0.234981 0
M  V30 5133 C 477.859 -1.57572 -0.64071 0
M  V30 5134 O 479.044 -1.8563 -0.570551 0
M  V30 5135 C 476.174 -3.41801 -0.615601 0
M  V30 5136 C 475.128 -4.27694 0.161767 0
M  V30 5137 C 474.454 -5.28519 -0.810649 0
M  V30 5138 C 475.754 -5.04231 1.36193 0
M  V30 5139 H 477.448 -2.80543 1.04575 0
M  V30 5140 H 474.994 -1.3488 0.504315 0
M  V30 5141 H 476.947 -4.08693 -1.02702 0
M  V30 5142 H 475.671 -2.92186 -1.45928 0
M  V30 5143 H 474.33 -3.62384 0.554382 0
M  V30 5144 H 473.978 -4.75171 -1.64988 0
M  V30 5145 H 473.678 -5.8686 -0.294822 0
M  V30 5146 H 475.202 -5.98283 -1.22023 0
M  V30 5147 H 476.616 -5.64058 1.02528 0
M  V30 5148 H 475.013 -5.72077 1.81239 0
M  V30 5149 H 476.083 -4.34753 2.14751 0
M  V30 5150 N 477.426 -0.562348 -1.47226 0
M  V30 5151 C 478.675 -0.038041 -2.01664 0
M  V30 5152 C 478.988 1.32199 -1.44162 0
M  V30 5153 O 480.194 1.9365 -1.90294 0
M  V30 5154 C 478.65 -0.0174958 -3.59896 0
M  V30 5155 C 478.258 -1.3746 -4.2639 0
M  V30 5156 C 480.002 0.453934 -4.22066 0
M  V30 5157 C 477.909 -1.31289 -5.76643 0
M  V30 5158 H 476.839 -0.0104511 -0.753928 0
M  V30 5159 H 479.49 -0.710966 -1.69167 0
M  V30 5160 H 477.872 0.721182 -3.89378 0
M  V30 5161 H 479.046 -2.1314 -4.08544 0
M  V30 5162 H 477.361 -1.78438 -3.7623 0
M  V30 5163 H 479.958 0.518584 -5.32179 0
M  V30 5164 H 480.301 1.46706 -3.89594 0
M  V30 5165 H 480.834 -0.230044 -3.97134 0
M  V30 5166 H 477.573 -2.30217 -6.13743 0
M  V30 5167 H 477.093 -0.597973 -5.96812 0
M  V30 5168 H 478.772 -1.01713 -6.38955 0
M  V30 5169 N 478.904 1.54736 -0.299062 0
M  V30 5170 C 479.867 2.22127 0.565012 0
M  V30 5171 C 480.867 1.20669 1.06281 0
M  V30 5172 O 482.057 1.45417 0.959145 0
M  V30 5173 C 479.189 2.90611 1.78208 0
M  V30 5174 H 480.382 2.99891 -0.0237448 0
M  V30 5175 H 477.935 1.5622 -0.0498788 0
M  V30 5176 H 478.67 2.16921 2.41072 0
M  V30 5177 H 478.455 3.64984 1.43281 0
M  V30 5178 H 479.945 3.42026 2.396 0
M  V30 5179 N 480.382 0.0267497 1.57577 0
M  V30 5180 C 481.793 -0.512413 1.79531 0
M  V30 5181 C 482.144 -1.72391 0.936791 0
M  V30 5182 O 481.269 -2.15903 0.146543 0
M  V30 5183 C 481.864 -0.936378 3.25603 0
M  V30 5184 C 480.423 -1.42067 3.4856 0
M  V30 5185 C 479.57 -0.384278 2.74624 0
M  V30 5186 H 482.521 0.252797 1.56674 0
M  V30 5187 H 482.542 -1.80088 3.35184 0
M  V30 5188 H 482.054 -0.0544332 3.88062 0
M  V30 5189 H 480.155 -2.32262 2.9135 0
M  V30 5190 H 480.268 -1.42968 4.57271 0
M  V30 5191 H 478.632 -0.851855 2.40032 0
M  V30 5192 H 479.415 0.489159 3.39797 0
M  V30 5193 N 481.861 -1.55662 -0.24637 0
M  V30 5194 C 483.108 -1.77519 -0.974335 0
M  V30 5195 C 483.436 -0.591165 -1.85298 0
M  V30 5196 O 482.691 0.425497 -1.91018 0
M  V30 5197 C 482.99 -3.04885 -1.86494 0
M  V30 5198 C 482.656 -4.36209 -1.14161 0
M  V30 5199 C 481.318 -4.71896 -0.941701 0
M  V30 5200 C 483.67 -5.17391 -0.628957 0
M  V30 5201 C 480.998 -5.86299 -0.216852 0
M  V30 5202 C 483.35 -6.32546 0.0824273 0
M  V30 5203 C 482.014 -6.66853 0.293807 0
M  V30 5204 H 481.284 -0.649588 -0.356535 0
M  V30 5205 H 483.931 -1.89934 -0.244394 0
M  V30 5206 H 482.236 -2.87484 -2.66196 0
M  V30 5207 H 483.933 -3.18994 -2.42989 0
M  V30 5208 H 480.523 -4.08174 -1.30736 0
M  V30 5209 H 484.707 -4.90276 -0.770943 0
M  V30 5210 H 479.963 -6.11385 -0.0426124 0
M  V30 5211 H 484.137 -6.94693 0.487292 0
M  V30 5212 H 481.764 -7.55349 0.857428 0
M  V30 5213 N 483.339 0.512053 -1.4905 0
M  V30 5214 C 484.286 1.6148 -1.64902 0
M  V30 5215 C 485.256 1.58687 -0.490673 0
M  V30 5216 O 486.441 1.76842 -0.71636 0
M  V30 5217 C 483.581 2.99676 -1.71139 0
M  V30 5218 C 482.694 3.12568 -2.98203 0
M  V30 5219 C 481.829 4.4143 -2.95487 0
M  V30 5220 C 480.868 4.47916 -4.17179 0
M  V30 5221 N 480.005 5.68191 -4.12437 0
M  V30 5222 H 484.845 1.47271 -2.59066 0
M  V30 5223 H 482.382 0.716713 -1.28459 0
M  V30 5224 H 484.34 3.79761 -1.72736 0
M  V30 5225 H 482.97 3.12614 -0.804508 0
M  V30 5226 H 482.022 2.25618 -3.06269 0
M  V30 5227 H 483.334 3.1322 -3.88194 0
M  V30 5228 H 482.488 5.29825 -2.95585 0
M  V30 5229 H 481.227 4.43326 -2.03256 0
M  V30 5230 H 480.232 3.57925 -4.17337 0
M  V30 5231 H 481.457 4.47744 -5.1059 0
M  V30 5232 H 479.403 5.7095 -3.23036 0
M  V30 5233 H 479.32 5.70413 -4.96151 0
M  V30 5234 H 480.588 6.58823 -4.16621 0
M  V30 5235 N 484.817 1.37938 0.762283 0
M  V30 5236 C 485.727 1.36681 1.90671 0
M  V30 5237 C 486.743 0.265078 1.71969 0
M  V30 5238 O 487.919 0.502055 1.95042 0
M  V30 5239 C 484.984 1.18211 3.25925 0
M  V30 5240 C 484.045 2.3811 3.57214 0
M  V30 5241 C 483.278 2.20512 4.86014 0
M  V30 5242 O 483.501 1.19429 5.57757 0
M  V30 5243 O 482.435 3.08911 5.16583 0
M  V30 5244 H 486.261 2.33091 1.94685 0
M  V30 5245 H 483.846 1.18767 0.906356 0
M  V30 5246 H 485.728 1.09937 4.06807 0
M  V30 5247 H 484.403 0.248807 3.22742 0
M  V30 5248 H 483.31 2.51958 2.76529 0
M  V30 5249 H 484.643 3.30041 3.65149 0
M  V30 5250 N 486.295 -0.989507 1.22664 0
M  V30 5251 C 487.205 -2.11449 1.01619 0
M  V30 5252 C 488.221 -1.73962 -0.036545 0
M  V30 5253 O 489.397 -2.00788 0.156924 0
M  V30 5254 C 486.462 -3.41465 0.600204 0
M  V30 5255 C 485.523 -3.93033 1.72695 0
M  V30 5256 C 484.756 -5.16844 1.33071 0
M  V30 5257 O 484.979 -5.7001 0.210975 0
M  V30 5258 O 483.913 -5.6225 2.14845 0
M  V30 5259 H 487.739 -2.32088 1.9588 0
M  V30 5260 H 485.324 -1.09823 1.01289 0
M  V30 5261 H 487.206 -4.19695 0.37873 0
M  V30 5262 H 485.881 -3.22178 -0.313511 0
M  V30 5263 H 484.788 -3.15961 2.00298 0
M  V30 5264 H 486.121 -4.16758 2.61865 0
M  V30 5265 N 487.773 -1.03688 -1.18687 0
M  V30 5266 C 489.05 -0.652397 -1.84399 0
M  V30 5267 C 489.43 0.868386 -1.92412 0
M  V30 5268 O 488.778 1.76832 -1.44716 0
M  V30 5269 C 488.988 -1.3238 -3.22919 0
M  V30 5270 C 490.336 -1.45216 -3.98996 0
M  V30 5271 O 491.36 -1.2816 -3.32345 0
M  V30 5272 O 490.219 -1.72975 -5.18403 0
M  V30 5273 H 487.313 -0.227793 -0.795009 0
M  V30 5274 H 489.859 -1.13553 -1.2611 0
M  V30 5275 H 488.631 -2.36202 -3.11968 0
M  V30 5276 H 488.254 -0.829039 -3.88861 0
M  V30 5277 N 489.251 1.34841 -0.815825 0
M  V30 5278 C 490.161 2.33425 -0.234462 0
M  V30 5279 C 491.177 1.62295 0.627413 0
M  V30 5280 O 492.353 1.94109 0.536987 0
M  V30 5281 C 489.418 3.41471 0.599849 0
M  V30 5282 C 488.479 4.28362 -0.283596 0
M  V30 5283 C 487.712 5.31248 0.51099 0
M  V30 5284 O 487.935 5.43056 1.7449 0
M  V30 5285 O 486.869 6.01812 -0.10297 0
M  V30 5286 H 490.695 2.84962 -1.05024 0
M  V30 5287 H 488.28 1.37774 -0.577809 0
M  V30 5288 H 490.162 4.07464 1.07475 0
M  V30 5289 H 488.837 2.9219 1.39308 0
M  V30 5290 H 487.744 3.65318 -0.805836 0
M  V30 5291 H 489.077 4.81066 -1.041 0
M  V30 5292 N 490.729 0.570148 1.46925 0
M  V30 5293 C 491.975 0.0593124 2.03314 0
M  V30 5294 C 492.33 -1.28139 1.43521 0
M  V30 5295 O 491.623 -1.82411 0.586245 0
M  V30 5296 C 491.817 -0.0780336 3.57315 0
M  V30 5297 C 491.646 1.2478 4.32042 0
M  V30 5298 C 490.416 1.81859 4.7144 0
M  V30 5299 C 492.614 2.16808 4.66368 0
M  V30 5300 N 490.596 3.08313 5.30864 0
M  V30 5301 C 491.967 3.27845 5.2623 0
M  V30 5302 C 494.022 2.16643 4.48297 0
M  V30 5303 C 492.725 4.38832 5.69929 0
M  V30 5304 C 494.751 3.26652 4.93004 0
M  V30 5305 C 494.113 4.36408 5.52926 0
M  V30 5306 H 490.212 0.0641804 0.779362 0
M  V30 5307 H 492.796 0.760285 1.79242 0
M  V30 5308 H 490.967 -0.748151 3.81126 0
M  V30 5309 H 492.699 -0.59211 4.00345 0
M  V30 5310 H 489.454 1.35502 4.53802 0
M  V30 5311 H 489.878 3.72802 5.65108 0
M  V30 5312 H 494.52 1.33065 4.01315 0
M  V30 5313 H 492.238 5.23162 6.15896 0
M  V30 5314 H 495.824 3.27627 4.80782 0
M  V30 5315 H 494.704 5.20127 5.86888 0
M  V30 5316 N 492.207 -1.54576 0.307264 0
M  V30 5317 C 493.484 -1.92377 -0.353605 0
M  V30 5318 C 493.864 -1.23517 -1.71192 0
M  V30 5319 O 493.212 -0.373101 -2.25433 0
M  V30 5320 C 493.422 -3.45928 -0.462039 0
M  V30 5321 C 494.77 -4.18278 -0.729975 0
M  V30 5322 O 495.794 -3.51997 -0.545605 0
M  V30 5323 O 494.653 -5.3563 -1.08454 0
M  V30 5324 H 491.747 -0.802747 -0.198812 0
M  V30 5325 H 494.293 -1.65929 0.355783 0
M  V30 5326 H 493.065 -3.88187 0.492592 0
M  V30 5327 H 492.688 -3.78431 -1.21965 0
M  V30 5328 N 493.685 -0.035106 -1.57561 0
M  V30 5329 C 494.91 0.655802 -1.96759 0
M  V30 5330 C 495.335 1.64523 -0.911809 0
M  V30 5331 O 494.693 1.80857 0.126673 0
M  V30 5332 C 494.741 1.33326 -3.35047 0
M  V30 5333 O 493.845 2.44866 -3.31835 0
M  V30 5334 H 493.186 0.171807 -0.641388 0
M  V30 5335 H 495.716 -0.0987369 -2.04362 0
M  V30 5336 H 495.726 1.68867 -3.71413 0
M  V30 5337 H 494.401 0.608033 -4.11431 0
M  V30 5338 H 492.978 2.11392 -3.07193 0
M  V30 5339 N 495.163 1.55791 0.238111 0
M  V30 5340 C 496.574 1.68383 0.806472 0
M  V30 5341 C 496.925 0.634157 1.85669 0
M  V30 5342 O 496.05 -0.217913 2.153 0
M  V30 5343 C 496.645 3.05268 1.46959 0
M  V30 5344 C 495.204 3.1977 1.98555 0
M  V30 5345 C 494.351 2.64279 0.839763 0
M  V30 5346 H 497.302 1.58694 0.0137535 0
M  V30 5347 H 497.323 3.00203 2.33792 0
M  V30 5348 H 496.835 3.81643 0.704993 0
M  V30 5349 H 494.936 2.48234 2.77868 0
M  V30 5350 H 495.049 4.26788 2.17689 0
M  V30 5351 H 493.413 2.22329 1.24265 0
M  V30 5352 H 494.196 3.43187 0.0881032 0
M  V30 5353 N 496.642 -0.504142 1.49319 0
M  V30 5354 C 497.592 -1.60284 1.62151 0
M  V30 5355 C 498.576 -1.53657 0.477315 0
M  V30 5356 O 499.768 -1.6124 0.730108 0
M  V30 5357 C 496.897 -2.98909 1.68844 0
M  V30 5358 C 495.983 -3.10544 2.8883 0
M  V30 5359 N 496.374 -2.92078 4.12946 0
M  V30 5360 C 494.672 -3.4164 2.86702 0
M  V30 5361 C 495.373 -3.07812 4.93585 0
M  V30 5362 N 494.349 -3.36549 4.26891 0
M  V30 5363 H 498.151 -1.44656 2.55835 0
M  V30 5364 H 495.665 -0.710198 1.46048 0
M  V30 5365 H 497.662 -3.77865 1.76134 0
M  V30 5366 H 496.322 -3.15609 0.762943 0
M  V30 5367 H 497.333 -2.68316 4.42975 0
M  V30 5368 H 494.01 -3.64537 2.03517 0
M  V30 5369 H 495.4 -2.98054 6.02174 0
M  V30 5370 N 498.12 -1.38341 -0.754957 0
M  V30 5371 C 499.369 -1.33791 -1.5094 0
M  V30 5372 C 499.682 0.0699267 -1.95475 0
M  V30 5373 O 500.888 0.237956 -2.70455 0
M  V30 5374 C 499.344 -2.34934 -2.72643 0
M  V30 5375 C 498.952 -3.81332 -2.35138 0
M  V30 5376 C 500.696 -2.39425 -3.50536 0
M  V30 5377 C 498.603 -4.74164 -3.53444 0
M  V30 5378 H 497.533 -0.497314 -0.566741 0
M  V30 5379 H 500.184 -1.63888 -0.825403 0
M  V30 5380 H 498.566 -1.97878 -3.43017 0
M  V30 5381 H 499.74 -4.27319 -1.7244 0
M  V30 5382 H 498.055 -3.79946 -1.70382 0
M  V30 5383 H 500.652 -3.0598 -4.38498 0
M  V30 5384 H 500.995 -1.41278 -3.91594 0
M  V30 5385 H 501.528 -2.75274 -2.87174 0
M  V30 5386 H 498.267 -5.73501 -3.17453 0
M  V30 5387 H 497.787 -4.3287 -4.15191 0
M  V30 5388 H 499.466 -4.92111 -4.20043 0
M  V30 5389 N 499.598 0.982988 -1.23187 0
M  V30 5390 C 500.844 1.72648 -1.06398 0
M  V30 5391 C 501.177 1.90066 0.398561 0
M  V30 5392 O 500.452 1.45105 1.29518 0
M  V30 5393 C 500.735 3.12627 -1.78707 0
M  V30 5394 C 500.588 3.02795 -3.32618 0
M  V30 5395 C 501.907 4.11997 -1.54747 0
M  V30 5396 H 499.026 0.626649 -0.387918 0
M  V30 5397 H 501.668 1.14455 -1.51658 0
M  V30 5398 H 499.818 3.62308 -1.40234 0
M  V30 5399 H 501.49 2.60659 -3.80598 0
M  V30 5400 H 499.733 2.39362 -3.61785 0
M  V30 5401 H 500.404 4.01893 -3.78399 0
M  V30 5402 H 502.88 3.71114 -1.88186 0
M  V30 5403 H 501.756 5.08037 -2.07821 0
M  V30 5404 H 502.017 4.39462 -0.482249 0
M  V30 5405 N 501.076 1.04316 1.18135 0
M  V30 5406 C 502.492 0.762858 1.40188 0
M  V30 5407 C 502.692 -0.646547 1.90846 0
M  V30 5408 O 501.748 -1.41036 2.0944 0
M  V30 5409 C 503.061 1.81106 2.40044 0
M  V30 5410 C 504.609 1.83226 2.53766 0
M  V30 5411 C 505.084 2.87044 3.56889 0
M  V30 5412 N 506.575 2.85951 3.64398 0
M  V30 5413 C 507.31 3.62932 4.43923 0
M  V30 5414 N 506.806 4.49672 5.27036 0
M  V30 5415 N 508.599 3.51411 4.38711 0
M  V30 5416 H 500.75 1.95264 0.835805 0
M  V30 5417 H 503.013 0.845017 0.429709 0
M  V30 5418 H 502.719 2.82214 2.09876 0
M  V30 5419 H 502.593 1.64529 3.39426 0
M  V30 5420 H 504.98 0.827869 2.8325 0
M  V30 5421 H 505.061 2.03879 1.54489 0
M  V30 5422 H 504.705 3.87663 3.28145 0
M  V30 5423 H 504.635 2.63645 4.5585 0
M  V30 5424 H 507.126 2.23051 3.05052 0
M  V30 5425 H 507.439 5.05116 5.84874 0
M  V30 5426 H 505.784 4.53738 5.26447 0
M  V30 5427 H 508.975 2.83047 3.72829 0
M  V30 5428 H 509.148 4.11654 5.00445 0
M  V30 5429 N 502.554 -1.34406 0.822964 0
M  V30 5430 C 503.784 -2.02214 0.423424 0
M  V30 5431 C 504.192 -1.62124 -0.975322 0
M  V30 5432 O 503.535 -0.822452 -1.6426 0
M  V30 5433 C 503.597 -3.56721 0.446107 0
M  V30 5434 C 503.261 -4.20136 1.79819 0
M  V30 5435 C 504.258 -4.4065 2.75904 0
M  V30 5436 C 501.943 -4.56906 2.08669 0
M  V30 5437 C 503.937 -4.9706 3.99012 0
M  V30 5438 C 501.624 -5.13026 3.32036 0
M  V30 5439 C 502.622 -5.33047 4.27024 0
M  V30 5440 O 502.31 -5.87979 5.48211 0
M  V30 5441 H 502.042 -0.654748 0.168169 0
M  V30 5442 H 504.596 -1.72659 1.11257 0
M  V30 5443 H 502.826 -3.85537 -0.299734 0
M  V30 5444 H 504.515 -4.05845 0.0666114 0
M  V30 5445 H 505.281 -4.12607 2.54912 0
M  V30 5446 H 501.16 -4.40626 1.35535 0
M  V30 5447 H 504.704 -5.12603 4.73164 0
M  V30 5448 H 500.601 -5.40498 3.52891 0
M  V30 5449 H 501.369 -6.06413 5.49732 0
M  V30 5450 N 504.032 -0.577932 -1.46621 0
M  V30 5451 C 505.262 -0.0670668 -2.06491 0
M  V30 5452 C 505.67 1.24119 -1.42798 0
M  V30 5453 O 505.013 1.76016 -0.525759 0
M  V30 5454 C 505.075 0.177995 -3.59059 0
M  V30 5455 C 504.739 -1.04394 -4.44917 0
M  V30 5456 C 505.736 -1.95479 -4.81751 0
M  V30 5457 C 503.421 -1.26444 -4.86125 0
M  V30 5458 C 505.415 -3.06965 -5.58615 0
M  V30 5459 C 503.102 -2.38237 -5.62749 0
M  V30 5460 C 504.1 -3.28327 -5.98908 0
M  V30 5461 O 503.788 -4.38179 -6.73984 0
M  V30 5462 H 503.52 -0.0523159 -0.673973 0
M  V30 5463 H 506.074 -0.796966 -1.89308 0
M  V30 5464 H 504.304 0.962451 -3.74531 0
M  V30 5465 H 505.993 0.636782 -4.00874 0
M  V30 5466 H 506.759 -1.79657 -4.50498 0
M  V30 5467 H 502.638 -0.572316 -4.57434 0
M  V30 5468 H 506.182 -3.77309 -5.86757 0
M  V30 5469 H 502.079 -2.54023 -5.93416 0
M  V30 5470 H 502.847 -4.36486 -6.92403 0
M  V30 5471 N 505.51 1.54411 -0.315457 0
M  V30 5472 C 506.787 1.92562 0.343398 0
M  V30 5473 C 507.167 1.24423 1.70535 0
M  V30 5474 O 506.515 0.385051 2.25232 0
M  V30 5475 C 506.725 3.46168 0.443687 0
M  V30 5476 C 508.073 4.18659 0.707783 0
M  V30 5477 O 509.097 3.52281 0.52693 0
M  V30 5478 O 507.956 5.36198 1.05612 0
M  V30 5479 H 505.05 0.80379 0.194552 0
M  V30 5480 H 507.596 1.65738 -0.364577 0
M  V30 5481 H 506.368 3.8792 -0.513172 0
M  V30 5482 H 505.991 3.79073 1.19956 0
M  V30 5483 N 506.988 0.0434614 1.5754 0
M  V30 5484 C 508.234 -0.632971 1.92669 0
M  V30 5485 C 508.567 -1.70947 0.921446 0
M  V30 5486 O 507.842 -1.94426 -0.0537202 0
M  V30 5487 C 508.125 -1.23619 3.38216 0
M  V30 5488 C 507.978 -0.168274 4.49485 0
M  V30 5489 C 509.297 -2.15008 3.84005 0
M  V30 5490 H 506.416 -0.228629 0.700641 0
M  V30 5491 H 509.058 0.103651 1.89717 0
M  V30 5492 H 507.208 -1.864 3.40863 0
M  V30 5493 H 508.88 0.463196 4.58969 0
M  V30 5494 H 507.123 0.504581 4.30855 0
M  V30 5495 H 507.794 -0.630218 5.48391 0
M  V30 5496 H 510.27 -1.62198 3.83185 0
M  V30 5497 H 509.146 -2.54161 4.86511 0
M  V30 5498 H 509.407 -3.04707 3.20322 0
M  V30 5499 N 508.466 -1.55915 -0.229846 0
M  V30 5500 C 509.399 -1.86734 -1.3117 0
M  V30 5501 C 510.377 -0.723947 -1.45595 0
M  V30 5502 O 511.561 -0.971462 -1.61539 0
M  V30 5503 C 508.688 -2.06707 -2.68309 0
M  V30 5504 C 507.734 -3.2938 -2.70944 0
M  V30 5505 S 508.567 -4.85547 -2.25842 0
M  V30 5506 C 509.723 -5.08546 -3.64873 0
M  V30 5507 H 509.956 -2.78204 -1.04832 0
M  V30 5508 H 507.489 -1.48243 -0.431681 0
M  V30 5509 H 509.447 -2.18898 -3.47267 0
M  V30 5510 H 508.108 -1.16049 -2.91876 0
M  V30 5511 H 507.301 -3.40374 -3.71701 0
M  V30 5512 H 506.903 -3.16004 -2.00044 0
M  V30 5513 H 509.195 -4.96935 -4.60502 0
M  V30 5514 H 510.138 -6.10465 -3.58801 0
M  V30 5515 H 510.546 -4.36314 -3.58176 0
M  V30 5516 N 509.944 0.496216 -1.49584 0
M  V30 5517 C 511.169 1.27865 -1.63295 0
M  V30 5518 C 511.594 1.85592 -0.306156 0
M  V30 5519 O 510.952 1.66092 0.726851 0
M  V30 5520 C 511 2.38128 -2.7079 0
M  V30 5521 O 510.104 3.42108 -2.30296 0
M  V30 5522 H 509.445 0.377279 -0.546403 0
M  V30 5523 H 511.975 0.593497 -1.95803 0
M  V30 5524 H 511.985 2.8382 -2.93104 0
M  V30 5525 H 510.66 1.95479 -3.67098 0
M  V30 5526 H 509.237 3.02301 -2.18331 0
M  V30 5527 N 511.423 1.38739 0.74761 0
M  V30 5528 C 512.7 1.25791 1.49786 0
M  V30 5529 C 513.08 -0.138075 2.10648 0
M  V30 5530 O 512.428 -1.14815 1.9756 0
M  V30 5531 C 512.638 2.37265 2.55942 0
M  V30 5532 C 513.986 2.75978 3.22679 0
M  V30 5533 O 515.01 2.36621 2.6625 0
M  V30 5534 O 513.869 3.43867 4.24756 0
M  V30 5535 H 510.963 0.492251 0.664543 0
M  V30 5536 H 513.509 1.50582 0.782511 0
M  V30 5537 H 512.281 3.30644 2.0926 0
M  V30 5538 H 511.904 2.14071 3.35051 0
M  V30 5539 N 512.901 -0.976442 1.23707 0
M  V30 5540 C 513.811 -2.10359 1.03856 0
M  V30 5541 C 514.827 -1.73991 -0.0180919 0
M  V30 5542 O 516.003 -2.0061 0.178211 0
M  V30 5543 C 513.068 -3.40809 0.636387 0
M  V30 5544 C 512.129 -3.91179 1.76854 0
M  V30 5545 C 511.362 -5.15404 1.38546 0
M  V30 5546 O 511.585 -5.69754 0.27142 0
M  V30 5547 O 510.519 -5.5994 2.20797 0
M  V30 5548 H 514.345 -2.29997 1.98331 0
M  V30 5549 H 511.93 -1.08742 1.02448 0
M  V30 5550 H 513.812 -4.19269 0.423223 0
M  V30 5551 H 512.487 -3.22493 -0.279322 0
M  V30 5552 H 511.394 -3.13819 2.03638 0
M  V30 5553 H 512.727 -4.13958 2.6627 0
M  V30 5554 N 514.379 -1.04941 -1.1758 0
M  V30 5555 C 515.289 -0.658826 -2.25159 0
M  V30 5556 C 516.305 0.318941 -1.71052 0
M  V30 5557 O 517.481 0.171669 -2.00667 0
M  V30 5558 C 514.546 -0.0369522 -3.4668 0
M  V30 5559 C 513.607 -1.06484 -4.15884 0
M  V30 5560 C 512.84 -0.472551 -5.31604 0
M  V30 5561 O 513.063 0.718736 -5.65854 0
M  V30 5562 O 511.997 -1.20557 -5.89703 0
M  V30 5563 H 515.823 -1.55533 -2.60851 0
M  V30 5564 H 513.408 -0.820819 -1.24832 0
M  V30 5565 H 515.29 0.308784 -4.20267 0
M  V30 5566 H 513.965 0.833238 -3.12792 0
M  V30 5567 H 512.872 -1.46253 -3.44327 0
M  V30 5568 H 514.205 -1.9061 -4.53794 0
M  V30 5569 N 515.857 1.33968 -0.830081 0
M  V30 5570 C 517.106 1.97323 -0.417928 0
M  V30 5571 C 517.419 1.6652 1.02618 0
M  V30 5572 O 518.625 2.2342 1.54259 0
M  V30 5573 C 517.081 3.53099 -0.696359 0
M  V30 5574 C 516.689 3.92788 -2.15457 0
M  V30 5575 C 518.433 4.23049 -0.350724 0
M  V30 5576 C 516.34 5.41506 -2.37751 0
M  V30 5577 H 515.27 0.738409 -0.152541 0
M  V30 5578 H 517.921 1.52711 -1.01744 0
M  V30 5579 H 516.303 3.95991 -0.0265904 0
M  V30 5580 H 517.477 3.6098 -2.86408 0
M  V30 5581 H 515.792 3.35795 -2.46232 0
M  V30 5582 H 518.389 5.32403 -0.495036 0
M  V30 5583 H 518.732 4.10279 0.705476 0
M  V30 5584 H 519.265 3.85657 -0.975362 0
M  V30 5585 H 516.004 5.5927 -3.41903 0
M  V30 5586 H 515.524 5.74804 -1.7135 0
M  V30 5587 H 517.203 6.0828 -2.20465 0
M  V30 5588 N 517.335 0.585699 1.46312 0
M  V30 5589 C 518.245 -0.148236 2.34131 0
M  V30 5590 C 519.261 -0.882972 1.49932 0
M  V30 5591 O 520.437 -0.845484 1.82794 0
M  V30 5592 C 517.502 -1.14714 3.27172 0
M  V30 5593 C 516.563 -0.416746 4.27272 0
M  V30 5594 C 515.796 -1.36806 5.15868 0
M  V30 5595 O 516.019 -2.60475 5.07454 0
M  V30 5596 O 514.953 -0.877018 5.95476 0
M  V30 5597 H 518.779 0.572882 2.98248 0
M  V30 5598 H 516.364 0.346082 1.45336 0
M  V30 5599 H 518.246 -1.72303 3.84564 0
M  V30 5600 H 516.921 -1.84967 2.65648 0
M  V30 5601 H 515.828 0.201061 3.73559 0
M  V30 5602 H 517.161 0.244872 4.9159 0
M  V30 5603 N 518.813 -1.54241 0.323641 0
M  V30 5604 C 520.229 -1.59574 -0.0290018 0
M  V30 5605 C 520.429 -1.34017 -1.50472 0
M  V30 5606 O 519.485 -1.12464 -2.26071 0
M  V30 5607 C 520.798 -2.98169 0.389295 0
M  V30 5608 C 522.346 -3.11148 0.339958 0
M  V30 5609 C 522.821 -4.5209 0.733418 0
M  V30 5610 N 524.312 -4.5808 0.686827 0
M  V30 5611 C 525.047 -5.65248 0.963464 0
M  V30 5612 N 524.543 -6.80355 1.30724 0
M  V30 5613 N 526.336 -5.55025 0.88902 0
M  V30 5614 H 518.487 -1.6911 1.28512 0
M  V30 5615 H 520.75 -0.790972 0.522558 0
M  V30 5616 H 520.456 -3.21871 1.41746 0
M  V30 5617 H 520.33 -3.76399 -0.245657 0
M  V30 5618 H 522.717 -2.87182 -0.679002 0
M  V30 5619 H 522.798 -2.35023 1.00985 0
M  V30 5620 H 522.442 -4.76788 1.75029 0
M  V30 5621 H 522.372 -5.26584 0.0412189 0
M  V30 5622 H 524.863 -3.75411 0.43298 0
M  V30 5623 H 525.176 -7.58029 1.5037 0
M  V30 5624 H 523.521 -6.81851 1.3455 0
M  V30 5625 H 526.712 -4.63977 0.619939 0
M  V30 5626 H 526.885 -6.38458 1.10797 0
M  V30 5627 N 520.291 -0.0518155 -1.57515 0
M  V30 5628 C 521.54 0.621286 -1.91893 0
M  V30 5629 C 521.853 1.71966 -0.932052 0
M  V30 5630 O 523.059 2.45096 -1.16791 0
M  V30 5631 C 521.515 1.15641 -3.40816 0
M  V30 5632 C 521.123 0.0901146 -4.47909 0
M  V30 5633 C 522.867 1.80472 -3.84227 0
M  V30 5634 C 520.774 0.638154 -5.87947 0
M  V30 5635 H 519.704 0.235835 -0.716169 0
M  V30 5636 H 522.355 -0.120809 -1.83102 0
M  V30 5637 H 520.737 1.95084 -3.44613 0
M  V30 5638 H 521.911 -0.683525 -4.55702 0
M  V30 5639 H 520.226 -0.460774 -4.13843 0
M  V30 5640 H 522.823 2.22471 -4.86221 0
M  V30 5641 H 523.166 2.65669 -3.20508 0
M  V30 5642 H 523.699 1.07683 -3.82948 0
M  V30 5643 H 520.438 -0.176202 -6.55263 0
M  V30 5644 H 519.958 1.37976 -5.83714 0
M  V30 5645 H 521.637 1.12085 -6.37217 0
M  V30 5646 N 521.769 1.56035 0.221574 0
M  V30 5647 C 522.716 1.92413 1.27459 0
M  V30 5648 C 523.686 0.781323 1.46576 0
M  V30 5649 O 524.871 1.03721 1.60145 0
M  V30 5650 C 522.011 2.24617 2.61995 0
M  V30 5651 C 521.124 3.51831 2.50677 0
M  V30 5652 C 520.259 3.73482 3.77736 0
M  V30 5653 C 519.298 4.94211 3.6114 0
M  V30 5654 N 518.435 5.12252 4.80148 0
M  V30 5655 H 523.275 2.82203 0.957355 0
M  V30 5656 H 520.812 1.39676 0.461415 0
M  V30 5657 H 522.77 2.41298 3.40339 0
M  V30 5658 H 521.4 1.38 2.91815 0
M  V30 5659 H 520.452 3.43343 1.63767 0
M  V30 5660 H 521.764 4.40328 2.34334 0
M  V30 5661 H 520.918 3.9026 4.64523 0
M  V30 5662 H 519.657 2.83266 3.97003 0
M  V30 5663 H 518.662 4.77384 2.72736 0
M  V30 5664 H 519.887 5.85912 3.43343 0
M  V30 5665 H 517.833 4.24978 4.99729 0
M  V30 5666 H 517.75 5.94881 4.66532 0
M  V30 5667 H 519.018 5.33465 5.68362 0
M  V30 5668 N 523.247 -0.488276 1.49845 0
M  V30 5669 C 524.157 -1.61451 1.70207 0
M  V30 5670 C 525.173 -1.63877 0.584846 0
M  V30 5671 O 526.349 -1.82063 0.861107 0
M  V30 5672 C 523.414 -2.9776 1.77594 0
M  V30 5673 C 522.475 -3.05861 3.01243 0
M  V30 5674 C 521.708 -4.35668 3.08268 0
M  V30 5675 O 521.931 -5.25197 2.22541 0
M  V30 5676 O 520.865 -4.49005 4.00847 0
M  V30 5677 H 524.691 -1.47199 2.65643 0
M  V30 5678 H 522.276 -0.665939 1.33737 0
M  V30 5679 H 524.158 -3.7875 1.84732 0
M  V30 5680 H 522.833 -3.12248 0.8534 0
M  V30 5681 H 521.74 -2.24012 2.99616 0
M  V30 5682 H 523.073 -2.96304 3.9302 0
M  V30 5683 N 524.725 -1.39134 -0.740242 0
M  V30 5684 C 525.974 -1.35384 -1.49512 0
M  V30 5685 C 526.287 0.04919 -1.95538 0
M  V30 5686 O 527.493 0.209257 -2.70692 0
M  V30 5687 C 525.949 -2.37812 -2.70136 0
M  V30 5688 C 525.557 -3.83804 -2.31081 0
M  V30 5689 C 527.301 -2.4313 -3.47977 0
M  V30 5690 C 525.208 -4.77886 -3.48395 0
M  V30 5691 H 524.138 -0.503297 -0.561434 0
M  V30 5692 H 526.789 -1.64754 -0.807974 0
M  V30 5693 H 525.171 -2.01505 -3.40899 0
M  V30 5694 H 526.345 -4.29123 -1.67898 0
M  V30 5695 H 524.66 -3.81732 -1.66343 0
M  V30 5696 H 527.257 -3.10614 -4.35228 0
M  V30 5697 H 527.6 -1.45423 -3.90074 0
M  V30 5698 H 528.133 -2.78304 -2.84239 0
M  V30 5699 H 524.872 -5.76836 -3.11353 0
M  V30 5700 H 524.392 -4.3725 -4.10576 0
M  V30 5701 H 526.071 -4.96538 -4.148 0
M  V30 5702 N 526.204 0.969867 -1.24223 0
M  V30 5703 C 527.167 2.04564 -1.03373 0
M  V30 5704 C 528.167 1.60798 0.00819206 0
M  V30 5705 O 529.357 1.72641 -0.232567 0
M  V30 5706 C 526.489 3.36163 -0.566343 0
M  V30 5707 H 527.682 2.24494 -1.98853 0
M  V30 5708 H 525.235 1.1448 -1.06415 0
M  V30 5709 H 525.97 3.21925 0.391751 0
M  V30 5710 H 525.755 3.69273 -1.31834 0
M  V30 5711 H 527.245 4.1526 -0.441435 0
M  V30 5712 N 527.682 1.05563 1.17022 0
M  V30 5713 C 528.629 0.659893 2.21165 0
M  V30 5714 C 529.599 -0.339813 1.62587 0
M  V30 5715 O 530.784 -0.230378 1.89404 0
M  V30 5716 C 527.924 0.0447297 3.45071 0
M  V30 5717 C 527.037 1.09372 4.17926 0
M  V30 5718 C 526.172 0.445481 5.29329 0
M  V30 5719 C 525.211 1.47852 5.93975 0
M  V30 5720 N 524.348 0.854172 6.96885 0
M  V30 5721 H 529.188 1.55243 2.54369 0
M  V30 5722 H 526.725 0.776336 1.24946 0
M  V30 5723 H 528.683 -0.329404 4.15898 0
M  V30 5724 H 527.313 -0.811244 3.1244 0
M  V30 5725 H 526.365 1.58564 3.45777 0
M  V30 5726 H 527.677 1.87773 4.62107 0
M  V30 5727 H 526.831 0.0179688 6.06697 0
M  V30 5728 H 525.57 -0.370481 4.86291 0
M  V30 5729 H 524.575 1.91601 5.15334 0
M  V30 5730 H 525.8 2.29645 6.39093 0
M  V30 5731 H 523.746 0.0587882 6.55974 0
M  V30 5732 H 523.663 1.57567 7.39397 0
M  V30 5733 H 524.931 0.451559 7.78191 0
M  V30 5734 N 529.16 -1.33526 0.837174 0
M  V30 5735 C 530.571 -1.80182 0.489017 0
M  V30 5736 C 530.922 -1.69285 -0.991826 0
M  V30 5737 O 530.047 -1.24113 -1.77271 0
M  V30 5738 C 530.642 -3.27149 0.880866 0
M  V30 5739 C 529.201 -3.71828 0.584872 0
M  V30 5740 C 528.348 -2.54974 1.09011 0
M  V30 5741 H 531.299 -1.21071 1.02603 0
M  V30 5742 H 531.32 -3.80024 0.190239 0
M  V30 5743 H 530.832 -3.35048 1.95869 0
M  V30 5744 H 528.933 -3.69457 -0.48295 0
M  V30 5745 H 529.046 -4.65366 1.13892 0
M  V30 5746 H 527.41 -2.4952 0.511047 0
M  V30 5747 H 528.193 -2.65637 2.17467 0
M  V30 5748 N 530.638 -0.59345 -1.46 0
M  V30 5749 C 531.585 0.133618 -2.30413 0
M  V30 5750 C 532.555 0.873736 -1.41262 0
M  V30 5751 O 533.74 0.862279 -1.70204 0
M  V30 5752 C 530.88 1.13434 -3.25924 0
M  V30 5753 C 529.993 0.39656 -4.30176 0
M  V30 5754 C 529.128 1.38575 -5.12806 0
M  V30 5755 C 528.167 0.634984 -6.08797 0
M  V30 5756 N 527.304 1.57276 -6.84258 0
M  V30 5757 H 532.144 -0.592252 -2.92055 0
M  V30 5758 H 529.681 -0.303874 -1.43927 0
M  V30 5759 H 531.639 1.72752 -3.79753 0
M  V30 5760 H 530.269 1.82779 -2.66067 0
M  V30 5761 H 529.321 -0.311861 -3.79119 0
M  V30 5762 H 530.633 -0.189869 -4.98438 0
M  V30 5763 H 529.787 2.05141 -5.70966 0
M  V30 5764 H 528.526 2.00611 -4.44529 0
M  V30 5765 H 527.531 -0.0443925 -5.49782 0
M  V30 5766 H 528.756 0.0198678 -6.79097 0
M  V30 5767 H 526.702 2.18103 -6.18682 0
M  V30 5768 H 526.619 1.03941 -7.48821 0
M  V30 5769 H 527.887 2.22844 -7.46968 0
M  V30 5770 N 532.116 1.54067 -0.331816 0
M  V30 5771 C 533.046 2.27569 0.522932 0
M  V30 5772 C 534.027 1.28679 1.11247 0
M  V30 5773 O 535.212 1.57504 1.13605 0
M  V30 5774 C 532.342 3.0397 1.67987 0
M  V30 5775 C 531.296 4.10267 1.21924 0
M  V30 5776 C 530.622 4.74555 2.46377 0
M  V30 5777 C 531.922 5.21268 0.32815 0
M  V30 5778 H 533.616 2.99264 -0.0901977 0
M  V30 5779 H 531.162 1.4393 -0.044821 0
M  V30 5780 H 533.115 3.54123 2.28418 0
M  V30 5781 H 531.839 2.29906 2.31971 0
M  V30 5782 H 530.498 3.61009 0.637809 0
M  V30 5783 H 530.146 3.97098 3.08743 0
M  V30 5784 H 529.846 5.46363 2.16243 0
M  V30 5785 H 531.37 5.27487 3.07555 0
M  V30 5786 H 532.784 5.67128 0.838978 0
M  V30 5787 H 531.181 5.99982 0.119228 0
M  V30 5788 H 532.251 4.80673 -0.638839 0
M  V30 5789 N 533.594 0.0601682 1.57485 0
M  V30 5790 C 534.557 -0.896373 2.10945 0
M  V30 5791 C 535.557 -1.23402 1.03095 0
M  V30 5792 O 536.747 -1.16921 1.29132 0
M  V30 5793 C 533.879 -2.20346 2.60116 0
M  V30 5794 H 535.072 -0.432778 2.96761 0
M  V30 5795 H 532.625 -0.188372 1.55161 0
M  V30 5796 H 533.36 -2.71268 1.7772 0
M  V30 5797 H 533.145 -1.9714 3.38937 0
M  V30 5798 H 534.635 -2.88846 3.01592 0
M  V30 5799 N 535.072 -1.5615 -0.213296 0
M  V30 5800 C 536.488 -1.49327 -0.56336 0
M  V30 5801 C 536.688 -0.756826 -1.86747 0
M  V30 5802 O 535.744 -0.299866 -2.50713 0
M  V30 5803 C 537.057 -2.9392 -0.634944 0
M  V30 5804 C 538.605 -3.04487 -0.725013 0
M  V30 5805 C 539.08 -4.50456 -0.82787 0
M  V30 5806 N 540.571 -4.54533 -0.891876 0
M  V30 5807 C 541.306 -5.64766 -0.991315 0
M  V30 5808 N 540.802 -6.84733 -1.05419 0
M  V30 5809 N 542.595 -5.52637 -1.02709 0
M  V30 5810 H 534.746 -2.02453 0.642366 0
M  V30 5811 H 537.009 -0.920548 0.226487 0
M  V30 5812 H 536.715 -3.50783 0.253859 0
M  V30 5813 H 536.589 -3.46274 -1.49579 0
M  V30 5814 H 538.976 -2.47685 -1.60425 0
M  V30 5815 H 539.057 -2.55289 0.161669 0
M  V30 5816 H 538.701 -5.07878 0.0469464 0
M  V30 5817 H 538.631 -4.97369 -1.73009 0
M  V30 5818 H 541.122 -3.68141 -0.85327 0
M  V30 5819 H 541.435 -7.64493 -1.13007 0
M  V30 5820 H 539.78 -6.87427 -1.02318 0
M  V30 5821 H 542.971 -4.5784 -0.974687 0
M  V30 5822 H 543.144 -6.38576 -1.10113 0
M  V30 5823 N 536.55 0.480323 -1.50102 0
M  V30 5824 C 537.513 1.56181 -1.6775 0
M  V30 5825 C 538.513 1.51156 -0.548503 0
M  V30 5826 O 539.703 1.5394 -0.815363 0
M  V30 5827 C 536.835 2.95823 -1.69415 0
M  V30 5828 H 538.028 1.41855 -2.6423 0
M  V30 5829 H 535.581 0.70605 -1.39444 0
M  V30 5830 H 536.316 3.15604 -0.745948 0
M  V30 5831 H 536.101 3.00878 -2.51425 0
M  V30 5832 H 537.591 3.74359 -1.85054 0
M  V30 5833 N 538.028 1.39524 0.732853 0
M  V30 5834 C 539.256 1.40143 1.52209 0
M  V30 5835 C 539.671 -0.00348836 1.888 0
M  V30 5836 O 539.028 -0.975357 1.5425 0
M  V30 5837 C 539.079 2.27632 2.8083 0
M  V30 5838 O 538.8 3.62654 2.45792 0
M  V30 5839 C 540.301 2.36658 3.74844 0
M  V30 5840 H 537.521 0.478604 0.470297 0
M  V30 5841 H 540.065 1.83366 0.905388 0
M  V30 5842 H 538.22 1.87818 3.38826 0
M  V30 5843 H 538.634 4.08941 3.28431 0
M  V30 5844 H 540.108 3.02118 4.61984 0
M  V30 5845 H 540.585 1.38638 4.16745 0
M  V30 5846 H 541.191 2.76951 3.22766 0
M  V30 5847 N 539.506 -0.963266 1.24736 0
M  V30 5848 C 540.752 -1.70933 1.09131 0
M  V30 5849 C 541.085 -1.90676 -0.368273 0
M  V30 5850 O 540.36 -1.47147 -1.27193 0
M  V30 5851 C 540.643 -3.09744 1.83658 0
M  V30 5852 C 540.496 -2.97465 3.37394 0
M  V30 5853 C 541.815 -4.09483 1.61282 0
M  V30 5854 H 538.934 -0.620398 0.397838 0
M  V30 5855 H 541.576 -1.12028 1.53459 0
M  V30 5856 H 539.726 -3.60031 1.4598 0
M  V30 5857 H 541.398 -2.54571 3.84696 0
M  V30 5858 H 539.641 -2.33576 3.65547 0
M  V30 5859 H 540.312 -3.95822 3.84745 0
M  V30 5860 H 542.788 -3.68073 1.94066 0
M  V30 5861 H 541.664 -5.04666 2.15878 0
M  V30 5862 H 541.925 -4.38639 0.552102 0
M  V30 5863 N 540.985 -1.06182 -1.16461 0
M  V30 5864 C 542.401 -0.785065 -1.38956 0
M  V30 5865 C 542.601 0.616103 -1.9185 0
M  V30 5866 O 541.657 1.37686 -2.11657 0
M  V30 5867 C 542.97 -1.84902 -2.37132 0
M  V30 5868 C 544.518 -1.8724 -2.50819 0
M  V30 5869 C 544.993 -2.92686 -3.52277 0
M  V30 5870 N 546.484 -2.91712 -3.59803 0
M  V30 5871 C 547.219 -3.69949 -4.38093 0
M  V30 5872 N 546.715 -4.58 -5.19815 0
M  V30 5873 N 548.508 -3.58346 -4.33064 0
M  V30 5874 H 540.659 -1.96569 -0.804634 0
M  V30 5875 H 542.922 -0.851747 -0.416211 0
M  V30 5876 H 542.628 -2.85518 -2.0536 0
M  V30 5877 H 542.502 -1.69908 -3.36766 0
M  V30 5878 H 544.889 -0.872827 -2.81897 0
M  V30 5879 H 544.97 -2.06311 -1.51226 0
M  V30 5880 H 544.614 -3.92835 -3.21937 0
M  V30 5881 H 544.544 -2.70864 -4.51598 0
M  V30 5882 H 547.035 -2.27876 -3.01464 0
M  V30 5883 H 547.348 -5.14357 -5.76764 0
M  V30 5884 H 545.693 -4.62056 -5.19162 0
M  V30 5885 H 548.884 -2.88943 -3.68279 0
M  V30 5886 H 549.057 -4.19563 -4.93833 0
M  V30 5887 N 542.463 1.3308 -0.844243 0
M  V30 5888 C 543.74 1.92178 -0.364261 0
M  V30 5889 C 544.12 1.76961 1.15101 0
M  V30 5890 O 543.468 1.16128 1.9679 0
M  V30 5891 C 543.678 3.393 -0.817106 0
M  V30 5892 C 545.026 4.16444 -0.828236 0
M  V30 5893 O 546.05 3.47975 -0.761062 0
M  V30 5894 O 544.909 5.38685 -0.920926 0
M  V30 5895 H 542.003 0.820411 -0.10419 0
M  V30 5896 H 544.549 1.41918 -0.930453 0
M  V30 5897 H 543.321 3.44272 -1.85991 0
M  V30 5898 H 542.944 3.96947 -0.227785 0
M  V30 5899 N 543.941 0.601185 1.45683 0
M  V30 5900 C 545.352 0.179659 1.85834 0
M  V30 5901 C 545.703 -1.26189 1.50236 0
M  V30 5902 O 544.828 -1.95587 0.925987 0
M  V30 5903 C 545.423 0.319277 3.37292 0
M  V30 5904 C 543.982 -0.0475092 3.7637 0
M  V30 5905 C 543.129 0.646692 2.69654 0
M  V30 5906 H 546.08 0.808268 1.36575 0
M  V30 5907 H 546.101 -0.4503 3.77826 0
M  V30 5908 H 545.613 1.36855 3.6317 0
M  V30 5909 H 543.714 -1.0962 3.5611 0
M  V30 5910 H 543.827 0.34168 4.7788 0
M  V30 5911 H 542.191 0.0849971 2.54558 0
M  V30 5912 H 542.974 1.69797 2.98369 0
M  V30 5913 N 545.419 -1.53889 0.339982 0
M  V30 5914 C 546.366 -2.24902 -0.518452 0
M  V30 5915 C 547.336 -1.24593 -1.09844 0
M  V30 5916 O 548.521 -1.53317 -1.13572 0
M  V30 5917 C 545.661 -3.02262 -1.66529 0
M  V30 5918 C 544.774 -4.17418 -1.11295 0
M  V30 5919 C 543.909 -4.82273 -2.2268 0
M  V30 5920 C 542.948 -5.89503 -1.6478 0
M  V30 5921 N 542.085 -6.48153 -2.69893 0
M  V30 5922 H 546.925 -2.97853 0.0936579 0
M  V30 5923 H 544.462 -1.46986 0.0579924 0
M  V30 5924 H 546.42 -3.45371 -2.3404 0
M  V30 5925 H 545.05 -2.31614 -2.24844 0
M  V30 5926 H 544.102 -3.78976 -0.328886 0
M  V30 5927 H 545.414 -4.94554 -0.649414 0
M  V30 5928 H 544.568 -5.28435 -2.98063 0
M  V30 5929 H 543.307 -4.04552 -2.72376 0
M  V30 5930 H 542.312 -5.42728 -0.879004 0
M  V30 5931 H 543.537 -6.6913 -1.1594 0
M  V30 5932 H 541.483 -5.73298 -3.1885 0
M  V30 5933 H 541.4 -7.20752 -2.28151 0
M  V30 5934 H 542.668 -6.98968 -3.45056 0
M  V30 5935 N 546.897 -0.0685191 -1.57451 0
M  V30 5936 C 548.125 0.610462 -1.97689 0
M  V30 5937 C 548.54 1.63346 -0.946758 0
M  V30 5938 O 547.897 1.82377 0.0669868 0
M  V30 5939 C 547.948 1.28196 -3.38006 0
M  V30 5940 O 547.669 0.299906 -4.37072 0
M  V30 5941 C 549.17 2.04907 -3.931 0
M  V30 5942 H 546.39 0.165689 -0.650222 0
M  V30 5943 H 548.934 -0.139953 -2.04021 0
M  V30 5944 H 547.089 1.98348 -3.32771 0
M  V30 5945 H 547.503 0.78126 -5.18649 0
M  V30 5946 H 548.977 2.47287 -4.93511 0
M  V30 5947 H 549.454 2.9043 -3.29465 0
M  V30 5948 H 550.06 1.39629 -4.01726 0
M  V30 5949 N 548.375 1.56261 0.205012 0
M  V30 5950 C 549.623 1.79684 0.925096 0
M  V30 5951 C 549.944 0.63989 1.84202 0
M  V30 5952 O 549.214 -0.342345 1.92885 0
M  V30 5953 H 547.794 0.662774 0.344587 0
M  V30 5954 H 550.456 1.93734 0.212899 0
M  V30 5955 H 549.552 2.72467 1.52211 0
M  V30 5956 N 549.853 -0.472356 1.50355 0
M  V30 5957 C 551.099 -1.22634 1.6152 0
M  V30 5958 C 551.432 -1.91645 0.313995 0
M  V30 5959 O 550.707 -1.82059 -0.684446 0
M  V30 5960 C 550.99 -2.27099 2.7946 0
M  V30 5961 C 550.843 -1.62402 4.19459 0
M  V30 5962 C 552.162 -3.28421 2.92964 0
M  V30 5963 H 549.281 -0.444494 0.587873 0
M  V30 5964 H 551.923 -0.520321 1.82737 0
M  V30 5965 H 550.073 -2.87314 2.61501 0
M  V30 5966 H 551.745 -1.05793 4.49005 0
M  V30 5967 H 549.988 -0.927184 4.23776 0
M  V30 5968 H 550.659 -2.38309 4.97909 0
M  V30 5969 H 553.135 -2.78227 3.09401 0
M  V30 5970 H 552.011 -3.98845 3.77113 0
M  V30 5971 H 552.272 -3.92467 2.03525 0
M  V30 5972 N 551.331 -1.39911 -0.725443 0
M  V30 5973 C 552.261 -1.42138 -1.85254 0
M  V30 5974 C 553.242 -0.283513 -1.67721 0
M  V30 5975 O 554.427 -0.490717 -1.87898 0
M  V30 5976 C 551.557 -1.27354 -3.23107 0
M  V30 5977 C 550.511 -2.3864 -3.55296 0
M  V30 5978 C 549.837 -2.08939 -4.92188 0
M  V30 5979 C 551.137 -3.8097 -3.57295 0
M  V30 5980 H 552.831 -2.36461 -1.83648 0
M  V30 5981 H 550.377 -1.13817 -0.882138 0
M  V30 5982 H 552.33 -1.2753 -4.01639 0
M  V30 5983 H 551.054 -0.295025 -3.25265 0
M  V30 5984 H 549.713 -2.37696 -2.79099 0
M  V30 5985 H 549.361 -1.09502 -4.90936 0
M  V30 5986 H 549.061 -2.83491 -5.14691 0
M  V30 5987 H 550.585 -2.10781 -5.73065 0
M  V30 5988 H 551.999 -3.8379 -4.25885 0
M  V30 5989 H 550.396 -4.5496 -3.9132 0
M  V30 5990 H 551.466 -4.11261 -2.5689 0
M  V30 5991 N 552.809 0.956637 -1.25245 0
M  V30 5992 C 554.037 1.73571 -1.12608 0
M  V30 5993 C 554.452 1.86063 0.320324 0
M  V30 5994 O 553.809 1.35691 1.22042 0
M  V30 5995 C 553.86 3.15053 -1.77268 0
M  V30 5996 O 553.581 3.03174 -3.16255 0
M  V30 5997 C 555.082 4.09248 -1.70386 0
M  V30 5998 H 552.302 0.543955 -0.392879 0
M  V30 5999 H 554.846 1.20031 -1.65568 0
M  V30 6000 H 553.001 3.65543 -1.28284 0
M  V30 6001 H 553.415 3.9241 -3.48015 0
M  V30 6002 H 554.889 5.06138 -2.20291 0
M  V30 6003 H 555.366 4.34102 -0.667239 0
M  V30 6004 H 555.972 3.64672 -2.18849 0
M  V30 6005 N 554.287 1.06798 1.15896 0
M  V30 6006 C 555.533 0.788934 1.86825 0
M  V30 6007 C 555.866 -0.683084 1.8179 0
M  V30 6008 O 555.141 -1.50086 1.23711 0
M  V30 6009 C 555.424 1.29065 3.36176 0
M  V30 6010 C 555.277 2.8268 3.49874 0
M  V30 6011 C 556.596 0.902655 4.30744 0
M  V30 6012 H 553.715 0.288066 0.678371 0
M  V30 6013 H 556.357 1.32479 1.36195 0
M  V30 6014 H 554.507 0.834806 3.79425 0
M  V30 6015 H 556.179 3.36511 3.15528 0
M  V30 6016 H 554.422 3.21157 2.91617 0
M  V30 6017 H 555.093 3.12852 4.54783 0
M  V30 6018 H 557.569 1.29535 3.95424 0
M  V30 6019 H 556.445 1.28111 5.3374 0
M  V30 6020 H 556.706 -0.191951 4.41683 0
M  V30 6021 N 555.766 -1.3263 0.851289 0
M  V30 6022 C 556.729 -2.27247 0.298541 0
M  V30 6023 C 557.729 -1.51467 -0.539847 0
M  V30 6024 O 558.919 -1.7061 -0.351843 0
M  V30 6025 C 556.051 -3.35964 -0.578004 0
M  V30 6026 H 557.244 -2.7765 1.13359 0
M  V30 6027 H 554.797 -1.43245 0.625354 0
M  V30 6028 H 555.532 -2.90823 -1.435 0
M  V30 6029 H 555.317 -3.92094 0.0220539 0
M  V30 6030 H 556.807 -4.06472 -0.957626 0
M  V30 6031 N 557.244 -0.608902 -1.45362 0
M  V30 6032 C 558.469 -0.10921 -2.07112 0
M  V30 6033 C 558.894 1.19779 -1.45033 0
M  V30 6034 O 558.252 1.72961 -0.543527 0
M  V30 6035 C 558.3 0.0155745 -3.60597 0
M  V30 6036 O 557.404 1.06546 -3.98399 0
M  V30 6037 H 556.745 -0.0746619 -0.659789 0
M  V30 6038 H 559.275 -0.839283 -1.86594 0
M  V30 6039 H 559.285 0.213364 -4.07442 0
M  V30 6040 H 557.96 -0.938765 -4.05167 0
M  V30 6041 H 556.537 0.844024 -3.63223 0
M  V30 6042 N 558.722 1.53707 -0.348139 0
M  V30 6043 C 559.952 2.05108 0.247864 0
M  V30 6044 C 560.36 1.22252 1.44399 0
M  V30 6045 O 559.703 0.251853 1.81965 0
M  V30 6046 C 559.765 3.52171 0.722187 0
M  V30 6047 C 559.429 4.5562 -0.354902 0
M  V30 6048 C 560.426 5.05883 -1.19911 0
M  V30 6049 C 558.111 4.99703 -0.510145 0
M  V30 6050 C 560.105 5.98814 -2.18406 0
M  V30 6051 C 557.792 5.92443 -1.49848 0
M  V30 6052 C 558.79 6.41887 -2.33389 0
M  V30 6053 O 558.478 7.32802 -3.3054 0
M  V30 6054 H 558.21 0.674086 0.0508296 0
M  V30 6055 H 560.764 1.99229 -0.49968 0
M  V30 6056 H 558.994 3.55529 1.52105 0
M  V30 6057 H 560.683 3.8652 1.23925 0
M  V30 6058 H 561.449 4.72586 -1.09028 0
M  V30 6059 H 557.328 4.60816 0.130274 0
M  V30 6060 H 560.872 6.3733 -2.83649 0
M  V30 6061 H 556.769 6.25155 -1.60786 0
M  V30 6062 H 557.537 7.50749 -3.26064 0
M  V30 6063 N 560.2 0.0768682 1.57412 0
M  V30 6064 C 561.616 -0.279772 1.57129 0
M  V30 6065 C 561.816 -1.69688 1.08666 0
M  V30 6066 O 560.872 -2.40953 0.754843 0
M  V30 6067 C 562.185 -0.0848055 3.0058 0
M  V30 6068 C 563.733 -0.153954 3.12621 0
M  V30 6069 C 564.208 0.0127946 4.57998 0
M  V30 6070 N 565.699 -0.0426435 4.6318 0
M  V30 6071 C 566.434 0.0618892 5.73367 0
M  V30 6072 N 565.93 0.220229 6.9245 0
M  V30 6073 N 567.723 0.00446072 5.621 0
M  V30 6074 H 559.874 1.00297 1.87228 0
M  V30 6075 H 562.137 0.391565 0.863354 0
M  V30 6076 H 561.843 0.89325 3.40168 0
M  V30 6077 H 561.717 -0.834961 3.67843 0
M  V30 6078 H 564.104 -1.1225 2.72917 0
M  V30 6079 H 564.185 0.627389 2.47987 0
M  V30 6080 H 563.829 0.978128 4.98392 0
M  V30 6081 H 563.759 -0.788016 5.20671 0
M  V30 6082 H 566.25 -0.163226 3.77547 0
M  V30 6083 H 566.563 0.291999 7.72248 0
M  V30 6084 H 564.908 0.255658 6.9453 0
M  V30 6085 H 568.099 -0.117979 4.67951 0
M  V30 6086 H 568.272 0.0893796 6.47938 0
M  V30 6087 N 561.678 -1.56367 -0.196722 0
M  V30 6088 C 562.924 -1.80796 -0.918725 0
M  V30 6089 C 563.257 -0.650645 -1.82976 0
M  V30 6090 O 562.532 0.348889 -1.91345 0
M  V30 6091 C 562.815 -3.15472 -1.73636 0
M  V30 6092 C 562.668 -4.41693 -0.85015 0
M  V30 6093 C 563.987 -3.46824 -2.70927 0
M  V30 6094 H 561.106 -0.657702 -0.332561 0
M  V30 6095 H 563.748 -1.89086 -0.186186 0
M  V30 6096 H 561.898 -3.08536 -2.36088 0
M  V30 6097 H 563.57 -4.60673 -0.240459 0
M  V30 6098 H 561.813 -4.33517 -0.156785 0
M  V30 6099 H 562.484 -5.32419 -1.45719 0
M  V30 6100 H 564.96 -3.54049 -2.18607 0
M  V30 6101 H 563.836 -4.4218 -3.25219 0
M  V30 6102 H 564.097 -2.70236 -3.49893 0
M  V30 6103 N 563.156 0.464375 -1.50603 0
M  V30 6104 C 564.381 1.24372 -1.65971 0
M  V30 6105 C 564.806 1.84901 -0.345453 0
M  V30 6106 O 564.164 1.67596 0.691457 0
M  V30 6107 C 564.212 2.32331 -2.7578 0
M  V30 6108 O 563.316 3.37146 -2.375 0
M  V30 6109 H 562.657 0.365604 -0.554283 0
M  V30 6110 H 565.187 0.55183 -1.97018 0
M  V30 6111 H 565.197 2.77539 -2.99059 0
M  V30 6112 H 563.872 1.87648 -3.71162 0
M  V30 6113 H 562.449 2.97602 -2.24694 0
M  V30 6114 N 564.634 1.40294 0.718013 0
M  V30 6115 C 565.581 1.40367 1.8321 0
M  V30 6116 C 566.551 0.260952 1.64037 0
M  V30 6117 O 567.736 0.458648 1.85205 0
M  V30 6118 C 564.876 1.26965 3.20895 0
M  V30 6119 C 563.989 2.50922 3.51656 0
M  V30 6120 C 563.124 2.29981 4.78834 0
M  V30 6121 C 562.163 3.49527 5.02491 0
M  V30 6122 N 561.3 3.27796 6.20882 0
M  V30 6123 H 566.14 2.35593 1.82482 0
M  V30 6124 H 563.677 1.17012 0.891444 0
M  V30 6125 H 565.635 1.17202 4.00399 0
M  V30 6126 H 564.265 0.353591 3.20858 0
M  V30 6127 H 563.317 2.71223 2.66725 0
M  V30 6128 H 564.629 3.39913 3.65048 0
M  V30 6129 H 563.783 2.17558 5.66351 0
M  V30 6130 H 562.522 1.38411 4.67647 0
M  V30 6131 H 561.527 3.6243 4.1343 0
M  V30 6132 H 562.752 4.42021 5.15553 0
M  V30 6133 H 560.698 2.38906 6.1095 0
M  V30 6134 H 560.615 4.10351 6.34939 0
M  V30 6135 H 561.883 3.19101 7.11193 0
M  V30 6136 N 566.112 -0.949982 1.2575 0
M  V30 6137 C 567.337 -1.73503 1.13628 0
M  V30 6138 C 567.762 -1.85601 -0.30559 0
M  V30 6139 O 567.12 -1.33984 -1.22139 0
M  V30 6140 C 567.168 -3.1243 1.80055 0
M  V30 6141 O 566.272 -3.97916 1.08336 0
M  V30 6142 H 565.613 -0.532665 0.396439 0
M  V30 6143 H 568.143 -1.19043 1.66403 0
M  V30 6144 H 568.153 -3.62866 1.86527 0
M  V30 6145 H 566.828 -3.02941 2.84956 0
M  V30 6146 H 565.405 -3.56375 1.09777 0
M  V30 6147 N 567.59 -1.07411 -1.15328 0
M  V30 6148 C 568.815 -0.818856 -1.90551 0
M  V30 6149 C 569.24 0.622194 -1.77512 0
M  V30 6150 O 568.598 1.43484 -1.10824 0
M  V30 6151 C 568.646 -1.23267 -3.38877 0
M  V30 6152 O 567.75 -0.378345 -4.10661 0
M  V30 6153 H 567.091 -0.29827 -0.593238 0
M  V30 6154 H 569.621 -1.43289 -1.46046 0
M  V30 6155 H 569.631 -1.20912 -3.89672 0
M  V30 6156 H 568.306 -2.28226 -3.47686 0
M  V30 6157 H 566.883 -0.464437 -3.69996 0
M  V30 6158 N 569.068 1.32177 -0.85831 0
M  V30 6159 C 570.314 1.97813 -0.47346 0
M  V30 6160 C 570.669 1.66674 0.961122 0
M  V30 6161 O 569.962 0.94657 1.66585 0
M  V30 6162 C 570.156 3.51372 -0.653658 0
M  V30 6163 C 569.985 3.97433 -2.1042 0
M  V30 6164 C 568.755 4.24338 -2.74345 0
M  V30 6165 C 570.953 4.12233 -3.0752 0
M  V30 6166 N 568.935 4.56672 -4.10272 0
M  V30 6167 C 570.306 4.48146 -4.28445 0
M  V30 6168 C 572.361 3.94577 -3.03667 0
M  V30 6169 C 571.064 4.68246 -5.4602 0
M  V30 6170 C 573.09 4.15864 -4.20489 0
M  V30 6171 C 572.452 4.52098 -5.40173 0
M  V30 6172 H 568.551 0.749808 -0.222061 0
M  V30 6173 H 571.135 1.59927 -1.11047 0
M  V30 6174 H 569.306 3.88372 -0.0463267 0
M  V30 6175 H 571.038 4.03998 -0.238343 0
M  V30 6176 H 567.793 4.16544 -2.25362 0
M  V30 6177 H 568.217 4.77019 -4.80398 0
M  V30 6178 H 572.859 3.65662 -2.12252 0
M  V30 6179 H 570.577 4.96014 -6.37962 0
M  V30 6180 H 574.163 4.03702 -4.18947 0
M  V30 6181 H 573.043 4.68238 -6.29065 0
M  V30 6182 N 570.547 0.616602 1.45037 0
M  V30 6183 C 571.477 -0.0840787 2.33349 0
M  V30 6184 C 572.458 -0.849641 1.4736 0
M  V30 6185 O 573.643 -0.818407 1.76113 0
M  V30 6186 C 570.773 -1.07604 3.3021 0
M  V30 6187 C 569.727 -0.423096 4.25904 0
M  V30 6188 C 569.053 -1.52394 5.12523 0
M  V30 6189 C 570.353 0.661457 5.18095 0
M  V30 6190 H 572.047 0.653333 2.92185 0
M  V30 6191 H 569.593 0.315634 1.40498 0
M  V30 6192 H 571.546 -1.57485 3.90866 0
M  V30 6193 H 570.27 -1.84416 2.69552 0
M  V30 6194 H 568.929 0.05493 3.66559 0
M  V30 6195 H 568.577 -2.28257 4.48227 0
M  V30 6196 H 568.277 -1.09251 5.77354 0
M  V30 6197 H 569.801 -2.02485 5.76049 0
M  V30 6198 H 571.215 0.246353 5.7277 0
M  V30 6199 H 569.612 1.01517 5.91451 0
M  V30 6200 H 570.682 1.53446 4.59981 0
M  V30 6201 N 572.025 -1.5352 0.356285 0
M  V30 6202 C 572.935 -2.29151 -0.502712 0
M  V30 6203 C 573.951 -1.34753 -1.1008 0
M  V30 6204 O 575.127 -1.67803 -1.11374 0
M  V30 6205 C 572.192 -3.05911 -1.63154 0
M  V30 6206 C 571.253 -4.15958 -1.06194 0
M  V30 6207 C 570.486 -4.8905 -2.13696 0
M  V30 6208 O 570.709 -4.61919 -3.34645 0
M  V30 6209 O 569.643 -5.75202 -1.77275 0
M  V30 6210 H 573.469 -3.03492 0.112466 0
M  V30 6211 H 571.054 -1.4891 0.120942 0
M  V30 6212 H 572.936 -3.53874 -2.28804 0
M  V30 6213 H 571.611 -2.34415 -2.23229 0
M  V30 6214 H 570.518 -3.7227 -0.369603 0
M  V30 6215 H 571.851 -4.89593 -0.505872 0
M  V30 6216 N 573.503 -0.0852151 -1.57369 0
M  V30 6217 C 574.413 0.891712 -2.16992 0
M  V30 6218 C 575.429 1.3174 -1.13669 0
M  V30 6219 O 576.605 1.38735 -1.45995 0
M  V30 6220 C 573.67 2.13635 -2.73059 0
M  V30 6221 C 572.731 1.7658 -3.91303 0
M  V30 6222 C 571.964 2.95111 -4.44686 0
M  V30 6223 O 572.187 4.09539 -3.97032 0
M  V30 6224 O 571.121 2.74149 -5.35841 0
M  V30 6225 H 574.947 0.414477 -3.00858 0
M  V30 6226 H 572.532 0.138598 -1.48756 0
M  V30 6227 H 574.414 2.86595 -3.08935 0
M  V30 6228 H 573.089 2.6043 -1.92244 0
M  V30 6229 H 571.996 1.00831 -3.60255 0
M  V30 6230 H 573.329 1.34557 -4.7345 0
M  V30 6231 N 574.981 1.5647 0.188427 0
M  V30 6232 C 576.258 1.71857 0.934058 0
M  V30 6233 C 576.638 0.641867 2.01105 0
M  V30 6234 O 575.986 -0.346098 2.25864 0
M  V30 6235 C 576.196 3.14431 1.5144 0
M  V30 6236 C 577.544 3.74869 1.99396 0
M  V30 6237 O 578.568 3.17601 1.61269 0
M  V30 6238 O 577.427 4.75387 2.69573 0
M  V30 6239 H 574.521 0.701186 0.438483 0
M  V30 6240 H 577.067 1.68768 0.177599 0
M  V30 6241 H 575.839 3.8427 0.738416 0
M  V30 6242 H 575.462 3.21775 2.33552 0
M  V30 6243 N 576.459 -0.456382 1.50847 0
M  V30 6244 C 577.736 -1.21739 1.53098 0
M  V30 6245 C 578.116 -2.09179 0.284132 0
M  V30 6246 O 577.464 -2.16466 -0.731773 0
M  V30 6247 C 577.674 -2.03573 2.83477 0
M  V30 6248 C 579.022 -2.61264 3.34703 0
M  V30 6249 O 580.046 -2.13802 2.84898 0
M  V30 6250 O 578.905 -3.47779 4.21559 0
M  V30 6251 H 575.999 -0.553219 0.614718 0
M  V30 6252 H 578.545 -0.467003 1.63148 0
M  V30 6253 H 577.317 -1.39232 3.65691 0
M  V30 6254 H 576.94 -2.85716 2.76499 0
M  V30 6255 N 577.937 -1.40673 -0.710563 0
M  V30 6256 C 579.214 -1.29718 -1.46398 0
M  V30 6257 C 579.594 0.082177 -2.1094 0
M  V30 6258 O 578.942 1.09536 -2.00534 0
M  V30 6259 C 579.152 -2.43967 -2.49562 0
M  V30 6260 C 580.5 -2.84436 -3.15248 0
M  V30 6261 O 581.524 -2.43597 -2.59883 0
M  V30 6262 O 580.383 -3.55008 -4.1549 0
M  V30 6263 H 577.477 -0.509697 -0.651258 0
M  V30 6264 H 580.023 -1.52603 -0.742312 0
M  V30 6265 H 578.795 -3.36076 -2.0042 0
M  V30 6266 H 578.418 -2.22879 -3.29258 0
M  V30 6267 N 579.415 0.9433 -1.26252 0
M  V30 6268 C 580.826 1.50404 -1.10614 0
M  V30 6269 C 581.177 1.93666 0.31429 0
M  V30 6270 O 580.302 1.79709 1.20555 0
M  V30 6271 C 580.897 2.73336 -2.00182 0
M  V30 6272 C 579.456 3.25686 -1.88695 0
M  V30 6273 C 578.603 1.98474 -1.93658 0
M  V30 6274 H 581.554 0.759006 -1.39373 0
M  V30 6275 H 581.575 3.47567 -1.54847 0
M  V30 6276 H 581.087 2.41818 -3.03555 0
M  V30 6277 H 579.188 3.61998 -0.882489 0
M  V30 6278 H 579.301 3.92935 -2.74115 0
M  V30 6279 H 577.665 2.14278 -1.37684 0
M  V30 6280 H 578.448 1.6929 -2.98657 0
M  V30 6281 N 580.893 1.08022 1.14757 0
M  V30 6282 C 582.139 0.808705 1.85978 0
M  V30 6283 C 582.472 -0.663764 1.82504 0
M  V30 6284 O 581.747 -1.48765 1.25296 0
M  V30 6285 C 582.03 1.32623 3.34788 0
M  V30 6286 C 581.883 2.86375 3.46856 0
M  V30 6287 C 583.202 0.948291 4.29762 0
M  V30 6288 H 580.321 0.295244 0.675278 0
M  V30 6289 H 582.963 1.33917 1.34783 0
M  V30 6290 H 581.113 0.875002 3.78518 0
M  V30 6291 H 582.785 3.39839 3.11941 0
M  V30 6292 H 581.028 3.24232 2.88194 0
M  V30 6293 H 581.699 3.17658 4.51439 0
M  V30 6294 H 584.175 1.33722 3.94028 0
M  V30 6295 H 583.051 1.33765 5.32352 0
M  V30 6296 H 583.312 -0.145094 4.41862 0
M  V30 6297 N 582.371 -1.3172 0.865308 0
M  V30 6298 C 583.617 -1.97168 0.474633 0
M  V30 6299 C 583.95 -1.68263 -0.969604 0
M  V30 6300 O 583.225 -0.976588 -1.68205 0
M  V30 6301 C 583.508 -3.52689 0.726808 0
M  V30 6302 C 583.361 -3.91185 2.22024 0
M  V30 6303 C 584.68 -4.39689 0.190201 0
M  V30 6304 H 581.799 -0.716185 0.17392 0
M  V30 6305 H 584.441 -1.55925 1.08569 0
M  V30 6306 H 582.591 -3.8795 0.206705 0
M  V30 6307 H 584.263 -3.66049 2.80724 0
M  V30 6308 H 582.506 -3.3996 2.69462 0
M  V30 6309 H 583.177 -4.99604 2.34735 0
M  V30 6310 H 585.653 -4.11225 0.635103 0
M  V30 6311 H 584.529 -5.47469 0.396132 0
M  V30 6312 H 584.79 -4.32683 -0.907625 0
M  V30 6313 N 583.85 -0.624285 -1.44708 0
M  V30 6314 C 584.812 0.0749638 -2.29077 0
M  V30 6315 C 585.812 0.778965 -1.40673 0
M  V30 6316 O 587.003 0.624591 -1.62618 0
M  V30 6317 C 584.135 1.11663 -3.22094 0
M  V30 6318 H 585.327 -0.667013 -2.92388 0
M  V30 6319 H 582.88 -0.384098 -1.51507 0
M  V30 6320 H 583.615 1.88881 -2.63618 0
M  V30 6321 H 583.401 0.61583 -3.87234 0
M  V30 6322 H 584.891 1.60585 -3.8549 0
M  V30 6323 N 585.328 1.53329 -0.364422 0
M  V30 6324 C 586.744 1.59594 -0.0133165 0
M  V30 6325 C 586.944 1.37959 1.46865 0
M  V30 6326 O 586 1.18418 2.2301 0
M  V30 6327 C 587.313 2.97032 -0.468213 0
M  V30 6328 C 588.861 3.10138 -0.422334 0
M  V30 6329 C 589.336 4.49986 -0.853024 0
M  V30 6330 N 590.827 4.56098 -0.808037 0
M  V30 6331 C 591.562 5.62495 -1.11299 0
M  V30 6332 N 591.058 6.7665 -1.48717 0
M  V30 6333 N 592.851 5.52473 -1.03586 0
M  V30 6334 H 585.002 1.65644 -1.32951 0
M  V30 6335 H 587.265 0.77684 -0.543345 0
M  V30 6336 H 586.971 3.18 -1.5023 0
M  V30 6337 H 586.845 3.76918 0.145775 0
M  V30 6338 H 589.232 2.88881 0.602622 0
M  V30 6339 H 589.313 2.32263 -1.0718 0
M  V30 6340 H 588.957 4.7198 -1.87609 0
M  V30 6341 H 588.887 5.26289 -0.180819 0
M  V30 6342 H 591.378 3.74131 -0.532361 0
M  V30 6343 H 591.691 7.53776 -1.70415 0
M  V30 6344 H 590.036 6.78044 -1.52581 0
M  V30 6345 H 593.227 4.6217 -0.742736 0
M  V30 6346 H 593.4 6.35295 -1.27686 0
M  V30 6347 N 586.806 0.0935595 1.57322 0
M  V30 6348 C 588.052 -0.571355 1.94585 0
M  V30 6349 C 588.385 -1.67929 0.975366 0
M  V30 6350 O 587.66 -1.94498 0.00816206 0
M  V30 6351 C 587.943 -1.12797 3.41978 0
M  V30 6352 C 587.796 -0.0251881 4.49793 0
M  V30 6353 C 589.115 -2.02682 3.90651 0
M  V30 6354 H 586.234 -0.206223 0.70756 0
M  V30 6355 H 588.876 0.163956 1.89291 0
M  V30 6356 H 587.026 -1.75461 3.4662 0
M  V30 6357 H 588.698 0.608979 4.57263 0
M  V30 6358 H 586.941 0.641399 4.29032 0
M  V30 6359 H 587.612 -0.455433 5.50118 0
M  V30 6360 H 590.088 -1.49925 3.88152 0
M  V30 6361 H 588.964 -2.38555 4.94351 0
M  V30 6362 H 589.225 -2.94362 3.29854 0
M  V30 6363 N 588.284 -1.56567 -0.180126 0
M  V30 6364 C 589.232 -1.96632 -1.24251 0
M  V30 6365 C 590.226 -0.853818 -1.46309 0
M  V30 6366 O 591.432 -1.0389 -1.46993 0
M  V30 6367 H 587.807 -0.625476 -0.417473 0
M  V30 6368 H 589.778 -2.85201 -0.877679 0
M  V30 6369 C 588.527 -2.33486 -2.57642 0
M  V30 6370 H 587.85 -3.18626 -2.4149 0
M  V30 6371 H 589.29 -2.65371 -3.30688 0
M  V30 6372 C 587.749 -1.17499 -3.15746 0
M  V30 6373 O 588.279 -0.457956 -3.99081 0
M  V30 6374 N 586.485 -0.94786 -2.74707 0
M  V30 6375 H 586.032 -1.53269 -2.07042 0
M  V30 6376 H 585.99 -0.173626 -3.1392 0
M  V30 6377 N 589.762 0.448376 -1.51087 0
M  V30 6378 C 591.178 0.783984 -1.39017 0
M  V30 6379 C 591.378 1.96087 -0.463904 0
M  V30 6380 O 590.434 2.52357 0.0850534 0
M  V30 6381 C 591.747 1.07471 -2.80839 0
M  V30 6382 C 593.295 1.17981 -2.89913 0
M  V30 6383 C 593.77 1.50354 -4.32617 0
M  V30 6384 N 595.261 1.57301 -4.35673 0
M  V30 6385 C 595.996 1.839 -5.4311 0
M  V30 6386 N 595.492 2.08365 -6.60724 0
M  V30 6387 N 597.285 1.8559 -5.30578 0
M  V30 6388 H 589.436 -0.326881 -2.0987 0
M  V30 6389 H 591.699 -0.0838006 -0.944289 0
M  V30 6390 H 591.405 0.282768 -3.50561 0
M  V30 6391 H 591.279 2.00519 -3.19487 0
M  V30 6392 H 593.666 1.9624 -2.20395 0
M  V30 6393 H 593.747 0.228603 -2.54776 0
M  V30 6394 H 593.391 0.726273 -5.0268 0
M  V30 6395 H 593.321 2.46663 -4.65258 0
M  V30 6396 H 595.812 1.40342 -3.50874 0
M  V30 6397 H 596.125 2.27999 -7.38401 0
M  V30 6398 H 594.47 2.0571 -6.63859 0
M  V30 6399 H 597.661 1.65989 -4.37682 0
M  V30 6400 H 597.834 2.05983 -6.1439 0
M  V30 6401 N 591.24 1.41047 0.703093 0
M  V30 6402 C 592.656 1.23351 1.01275 0
M  V30 6403 C 592.856 0.11754 2.01157 0
M  V30 6404 O 591.912 -0.520518 2.47077 0
M  V30 6405 C 593.225 2.58001 1.54454 0
M  V30 6406 C 594.773 2.65119 1.66376 0
M  V30 6407 C 595.248 4.00067 2.22958 0
M  V30 6408 N 596.739 4.01875 2.30328 0
M  V30 6409 C 597.474 5.03087 2.75119 0
M  V30 6410 N 596.97 6.14692 3.19571 0
M  V30 6411 N 598.763 4.90451 2.74616 0
M  V30 6412 H 590.914 2.1236 0.0412686 0
M  V30 6413 H 593.177 0.944543 0.08089 0
M  V30 6414 H 592.883 3.40378 0.88521 0
M  V30 6415 H 592.757 2.79962 2.52786 0
M  V30 6416 H 595.144 1.83106 2.31422 0
M  V30 6417 H 595.225 2.46975 0.666089 0
M  V30 6418 H 594.869 4.82526 1.58529 0
M  V30 6419 H 594.799 4.15547 3.23462 0
M  V30 6420 H 597.29 3.21291 1.98949 0
M  V30 6421 H 597.603 6.87799 3.52352 0
M  V30 6422 H 595.948 6.18239 3.17498 0
M  V30 6423 H 599.139 4.0235 2.39233 0
M  V30 6424 H 599.312 5.6947 3.09206 0
M  V30 6425 N 592.718 -0.936591 1.26751 0
M  V30 6426 C 593.651 -2.03619 1.03027 0
M  V30 6427 C 594.629 -1.62534 -0.0464619 0
M  V30 6428 O 595.813 -1.88251 0.0968873 0
M  V30 6429 C 592.94 -3.3402 0.561072 0
M  V30 6430 C 591.986 -3.9408 1.63105 0
M  V30 6431 S 592.819 -4.27782 3.22122 0
M  V30 6432 C 593.975 -5.61277 2.76982 0
M  V30 6433 H 594.208 -2.23429 1.96129 0
M  V30 6434 H 591.741 -1.07857 1.10482 0
M  V30 6435 H 593.699 -4.09424 0.297031 0
M  V30 6436 H 592.36 -3.12147 -0.349741 0
M  V30 6437 H 591.553 -4.88154 1.25386 0
M  V30 6438 H 591.155 -3.25227 1.84671 0
M  V30 6439 H 593.447 -6.40189 2.21731 0
M  V30 6440 H 594.39 -6.03887 3.69766 0
M  V30 6441 H 594.798 -5.21374 2.16402 0
M  V30 6442 N 594.196 -1.08629 -1.14182 0
M  V30 6443 C 595.128 -0.676189 -2.18998 0
M  V30 6444 C 596.141 0.277871 -1.60411 0
M  V30 6445 O 597.33 0.0651771 -1.78381 0
M  V30 6446 C 594.43 0.0254916 -3.3889 0
M  V30 6447 C 593.603 -0.948039 -4.27002 0
M  V30 6448 C 592.662 -0.281268 -5.25448 0
M  V30 6449 O 591.688 -0.926378 -5.61611 0
M  V30 6450 N 592.89 0.967923 -5.72374 0
M  V30 6451 H 595.655 -1.57792 -2.54798 0
M  V30 6452 H 593.216 -0.972665 -1.29425 0
M  V30 6453 H 595.208 0.482554 -4.01813 0
M  V30 6454 H 593.778 0.829348 -3.01398 0
M  V30 6455 H 592.998 -1.58388 -3.6098 0
M  V30 6456 H 594.286 -1.60765 -4.82734 0
M  V30 6457 H 593.684 1.51175 -5.45126 0
M  V30 6458 H 592.241 1.36844 -6.37273 0
M  V30 6459 N 595.674 1.31259 -0.872281 0
M  V30 6460 C 596.624 2.26 -0.301295 0
M  V30 6461 C 597.608 1.50729 0.562991 0
M  V30 6462 O 598.8 1.72198 0.40949 0
M  V30 6463 C 595.929 3.39724 0.494227 0
M  V30 6464 C 595.015 4.22363 -0.383432 0
M  V30 6465 N 595.406 4.83724 -1.47799 0
M  V30 6466 C 593.704 4.45652 -0.176278 0
M  V30 6467 C 594.405 5.45523 -2.01939 0
M  V30 6468 N 593.381 5.27428 -1.31608 0
M  V30 6469 H 597.183 2.70981 -1.13782 0
M  V30 6470 H 594.697 1.45552 -0.720294 0
M  V30 6471 H 596.694 4.06626 0.919828 0
M  V30 6472 H 595.354 2.96286 1.32834 0
M  V30 6473 H 596.365 4.83313 -1.8609 0
M  V30 6474 H 593.042 4.12845 0.621698 0
M  V30 6475 H 594.432 6.04268 -2.93786 0
M  V30 6476 N 597.152 0.631951 1.44375 0
M  V30 6477 C 598.401 0.134214 2.01253 0
M  V30 6478 C 598.714 -1.25171 1.50305 0
M  V30 6479 O 599.92 -1.8435 1.99317 0
M  V30 6480 C 598.376 0.189187 3.59402 0
M  V30 6481 C 597.984 1.57647 4.19346 0
M  V30 6482 C 599.728 -0.252044 4.23751 0
M  V30 6483 C 597.635 1.58651 5.69722 0
M  V30 6484 H 596.565 0.0464101 0.75257 0
M  V30 6485 H 599.216 0.790868 1.65582 0
M  V30 6486 H 597.598 -0.534584 3.92375 0
M  V30 6487 H 598.772 2.32389 3.97909 0
M  V30 6488 H 597.087 1.96186 3.67288 0
M  V30 6489 H 599.684 -0.264084 5.34047 0
M  V30 6490 H 600.027 -1.27951 3.96149 0
M  V30 6491 H 600.56 0.41926 3.95584 0
M  V30 6492 H 597.299 2.59237 6.0206 0
M  V30 6493 H 596.819 0.882039 5.93279 0
M  V30 6494 H 598.498 1.32082 6.33375 0
M  V30 6495 N 598.631 -1.53133 0.372548 0
M  V30 6496 C 599.859 -2.05774 -0.215515 0
M  V30 6497 C 600.274 -1.24555 -1.41886 0
M  V30 6498 O 599.631 -0.287951 -1.80214 0
M  V30 6499 C 599.682 -3.5645 -0.602161 0
M  V30 6500 O 599.403 -4.34591 0.553359 0
M  V30 6501 C 600.904 -4.25374 -1.24787 0
M  V30 6502 H 598.124 -0.670009 -0.0364529 0
M  V30 6503 H 600.668 -1.97434 0.532934 0
M  V30 6504 H 598.823 -3.64918 -1.30052 0
M  V30 6505 H 599.237 -5.23954 0.239336 0
M  V30 6506 H 600.711 -5.32097 -1.46891 0
M  V30 6507 H 601.188 -3.79531 -2.21026 0
M  V30 6508 H 601.794 -4.21177 -0.590752 0
M  V30 6509 N 600.109 -0.101901 -1.5727 0
M  V30 6510 C 601.357 0.559091 -1.94213 0
M  V30 6511 C 601.678 1.68297 -0.984948 0
M  V30 6512 O 600.948 1.95863 -0.0381975 0
M  V30 6513 H 599.528 0.20952 -0.717015 0
M  V30 6514 H 602.19 -0.166831 -1.94185 0
M  V30 6515 H 601.286 0.96485 -2.96811 0
M  V30 6516 N 601.587 1.56661 0.17182 0
M  V30 6517 C 602.517 1.99401 1.21498 0
M  V30 6518 C 603.498 0.869516 1.46197 0
M  V30 6519 O 604.683 1.13556 1.57539 0
M  V30 6520 C 601.813 2.35346 2.55401 0
M  V30 6521 C 600.767 3.5075 2.45272 0
M  V30 6522 C 600.093 3.72437 3.8366 0
M  V30 6523 C 601.393 4.84216 1.95787 0
M  V30 6524 H 603.087 2.86792 0.859699 0
M  V30 6525 H 600.633 1.37977 0.412103 0
M  V30 6526 H 602.586 2.63843 3.2858 0
M  V30 6527 H 601.31 1.44864 2.92715 0
M  V30 6528 H 599.969 3.2238 1.74547 0
M  V30 6529 H 599.617 2.79246 4.18367 0
M  V30 6530 H 599.317 4.50087 3.77751 0
M  V30 6531 H 600.841 4.03334 4.58426 0
M  V30 6532 H 602.255 5.11592 2.5874 0
M  V30 6533 H 600.652 5.65498 2.00827 0
M  V30 6534 H 601.722 4.76243 0.912159 0
M  V30 6535 N 603.065 -0.440357 1.51323 0
M  V30 6536 C 604.293 -1.21255 1.67645 0
M  V30 6537 C 604.708 -1.85088 0.37252 0
M  V30 6538 O 604.065 -1.70582 -0.648683 0
M  V30 6539 C 604.116 -2.29881 2.78993 0
M  V30 6540 O 603.837 -1.68659 4.04334 0
M  V30 6541 C 605.338 -3.20214 3.06558 0
M  V30 6542 H 602.558 -0.36558 0.562666 0
M  V30 6543 H 605.102 -0.52214 1.97722 0
M  V30 6544 H 603.257 -2.94643 2.51524 0
M  V30 6545 H 603.671 -2.40426 4.6615 0
M  V30 6546 H 605.145 -3.92575 3.88058 0
M  V30 6547 H 605.622 -3.80794 2.18844 0
M  V30 6548 H 606.228 -2.61156 3.35675 0
M  V30 6549 N 604.543 -1.41418 -0.695603 0
M  V30 6550 C 605.789 -1.40982 -1.4578 0
M  V30 6551 C 606.122 -0.0187763 -1.94191 0
M  V30 6552 O 605.397 0.95346 -1.69527 0
M  V30 6553 C 605.68 -2.41657 -2.66972 0
M  V30 6554 C 605.533 -3.89869 -2.24327 0
M  V30 6555 C 606.852 -2.39589 -3.69168 0
M  V30 6556 H 603.971 -0.513405 -0.528757 0
M  V30 6557 H 606.613 -1.72693 -0.792275 0
M  V30 6558 H 604.763 -2.14746 -3.23754 0
M  V30 6559 H 606.435 -4.27683 -1.72872 0
M  V30 6560 H 604.678 -4.04737 -1.56111 0
M  V30 6561 H 605.349 -4.55857 -3.11285 0
M  V30 6562 H 607.825 -2.63471 -3.2206 0
M  V30 6563 H 606.701 -3.12044 -4.51575 0
M  V30 6564 H 606.962 -1.41447 -4.18862 0
M  V30 6565 N 606.021 0.929856 -1.27246 0
M  V30 6566 C 606.968 2.03017 -1.09785 0
M  V30 6567 C 607.938 1.661 0.000456744 0
M  V30 6568 O 609.123 1.90116 -0.161462 0
M  V30 6569 C 606.263 3.36878 -0.748816 0
M  V30 6570 C 605.376 3.86763 -1.92453 0
M  V30 6571 C 604.511 5.09061 -1.51758 0
M  V30 6572 C 603.55 5.51237 -2.66091 0
M  V30 6573 N 602.687 6.64732 -2.25999 0
M  V30 6574 H 607.527 2.17285 -2.03939 0
M  V30 6575 H 605.064 1.06448 -1.01524 0
M  V30 6576 H 607.022 4.13855 -0.527283 0
M  V30 6577 H 605.652 3.22424 0.155771 0
M  V30 6578 H 604.704 3.06086 -2.25867 0
M  V30 6579 H 606.016 4.13994 -2.78227 0
M  V30 6580 H 605.17 5.93532 -1.25716 0
M  V30 6581 H 603.909 4.83602 -0.630896 0
M  V30 6582 H 602.914 4.65316 -2.92849 0
M  V30 6583 H 604.139 5.78692 -3.55377 0
M  V30 6584 H 602.085 6.40935 -1.3978 0
M  V30 6585 H 602.002 6.91607 -3.05313 0
M  V30 6586 H 603.27 7.52549 -2.03199 0
M  V30 6587 N 607.499 1.09233 1.13605 0
M  V30 6588 C 608.727 0.848908 1.88683 0
M  V30 6589 C 609.142 -0.599667 1.79024 0
M  V30 6590 O 608.499 -1.41265 1.15544 0
M  V30 6591 C 608.55 1.27273 3.38355 0
M  V30 6592 O 608.271 2.66449 3.47759 0
M  V30 6593 C 609.772 1.0614 4.30406 0
M  V30 6594 H 606.992 0.305549 0.597395 0
M  V30 6595 H 609.536 1.4538 1.43823 0
M  V30 6596 H 607.691 0.711776 3.80805 0
M  V30 6597 H 608.105 2.84264 4.40788 0
M  V30 6598 H 609.579 1.40725 5.33761 0
M  V30 6599 H 610.056 -0.000960332 4.392 0
M  V30 6600 H 610.662 1.60821 3.93722 0
M  V30 6601 N 608.977 -1.30795 0.87923 0
M  V30 6602 C 609.94 -2.26563 0.346676 0
M  V30 6603 C 610.94 -1.52578 -0.507597 0
M  V30 6604 O 612.13 -1.71318 -0.315575 0
M  V30 6605 C 609.262 -3.37115 -0.506611 0
M  V30 6606 H 610.455 -2.75183 1.19223 0
M  V30 6607 H 608.008 -1.41886 0.655598 0
M  V30 6608 H 608.743 -2.93802 -1.37299 0
M  V30 6609 H 608.528 -3.91959 0.105218 0
M  V30 6610 H 610.018 -4.08412 -0.871192 0
M  V30 6611 N 610.455 -0.639598 -1.44038 0
M  V30 6612 C 611.365 0.0612377 -2.3452 0
M  V30 6613 C 612.381 0.826717 -1.53106 0
M  V30 6614 O 613.557 0.777059 -1.85806 0
M  V30 6615 C 610.622 1.02492 -3.31204 0
M  V30 6616 C 609.683 0.25788 -4.28525 0
M  V30 6617 C 608.916 1.17566 -5.2059 0
M  V30 6618 O 609.139 2.41461 -5.16771 0
M  V30 6619 O 608.073 0.655407 -5.98321 0
M  V30 6620 H 611.899 -0.68318 -2.95916 0
M  V30 6621 H 609.484 -0.399784 -1.43952 0
M  V30 6622 H 611.366 1.57911 -3.90694 0
M  V30 6623 H 610.041 1.7498 -2.7233 0
M  V30 6624 H 608.948 -0.339566 -3.72556 0
M  V30 6625 H 610.281 -0.427154 -4.90343 0
M  V30 6626 N 611.933 1.52934 -0.380664 0
M  V30 6627 C 612.863 2.29118 0.450268 0
M  V30 6628 C 613.844 1.32153 1.07096 0
M  V30 6629 O 615.029 1.61038 1.08537 0
M  V30 6630 C 612.159 3.09161 1.58231 0
M  V30 6631 C 611.113 4.13938 1.0881 0
M  V30 6632 C 610.439 4.82153 2.31155 0
M  V30 6633 C 611.739 5.22048 0.162146 0
M  V30 6634 H 613.433 2.98826 -0.185361 0
M  V30 6635 H 610.979 1.43715 -0.0905886 0
M  V30 6636 H 612.932 3.61211 2.17036 0
M  V30 6637 H 611.656 2.3717 2.2454 0
M  V30 6638 H 610.315 3.62855 0.522633 0
M  V30 6639 H 609.963 4.06719 2.95953 0
M  V30 6640 H 609.663 5.52966 1.98752 0
M  V30 6641 H 611.187 5.37004 2.90618 0
M  V30 6642 H 612.601 5.6951 0.658126 0
M  V30 6643 H 610.998 6.00057 -0.0717122 0
M  V30 6644 H 612.068 4.78398 -0.791438 0
M  V30 6645 N 613.412 0.11024 1.57214 0
M  V30 6646 C 614.342 -0.840002 2.17867 0
M  V30 6647 C 615.323 -1.28352 1.11624 0
M  V30 6648 O 616.508 -1.3477 1.39824 0
M  V30 6649 C 613.638 -2.09349 2.77111 0
M  V30 6650 C 612.592 -1.78807 3.8886 0
M  V30 6651 C 611.918 -3.11112 4.34872 0
M  V30 6652 C 613.218 -1.0632 5.11364 0
M  V30 6653 H 614.912 -0.334608 2.97524 0
M  V30 6654 H 612.458 -0.159502 1.43114 0
M  V30 6655 H 614.411 -2.76275 3.18198 0
M  V30 6656 H 613.135 -2.62198 1.9473 0
M  V30 6657 H 611.794 -1.14273 3.48335 0
M  V30 6658 H 611.442 -3.61877 3.49362 0
M  V30 6659 H 611.142 -2.91453 5.10224 0
M  V30 6660 H 612.666 -3.79171 4.78604 0
M  V30 6661 H 614.08 -1.63383 5.49526 0
M  V30 6662 H 612.477 -0.967876 5.92243 0
M  V30 6663 H 613.547 -0.0484569 4.84876 0
M  V30 6664 N 614.89 -1.56749 -0.16351 0
M  V30 6665 C 615.822 -1.93587 -1.22705 0
M  V30 6666 C 616.835 -0.829824 -1.40063 0
M  V30 6667 O 618.024 -1.10826 -1.39928 0
M  V30 6668 C 615.124 -2.1803 -2.59454 0
M  V30 6669 C 614.297 -3.4928 -2.63292 0
M  V30 6670 C 613.356 -3.62457 -3.8146 0
M  V30 6671 O 612.382 -4.35004 -3.67096 0
M  V30 6672 N 613.584 -2.97888 -4.9824 0
M  V30 6673 H 616.349 -2.8542 -0.914081 0
M  V30 6674 H 613.91 -1.58 -0.353214 0
M  V30 6675 H 615.902 -2.24102 -3.36987 0
M  V30 6676 H 614.472 -1.32543 -2.8311 0
M  V30 6677 H 613.692 -3.54795 -1.71796 0
M  V30 6678 H 614.98 -4.35632 -2.62873 0
M  V30 6679 H 614.378 -2.38833 -5.12811 0
M  V30 6680 H 612.935 -3.09545 -5.73607 0
M  V30 6681 N 616.368 0.432326 -1.51554 0
M  V30 6682 C 617.614 1.18309 -1.64714 0
M  V30 6683 C 617.947 1.90745 -0.364696 0
M  V30 6684 O 617.222 1.8381 0.635936 0
M  V30 6685 C 617.505 2.1961 -2.85383 0
M  V30 6686 C 617.358 1.51223 -4.23617 0
M  V30 6687 C 618.677 3.20538 -3.01569 0
M  V30 6688 H 615.796 0.428751 -0.599451 0
M  V30 6689 H 618.438 0.471689 -1.84052 0
M  V30 6690 H 616.588 2.8028 -2.69027 0
M  V30 6691 H 618.26 0.938516 -4.51652 0
M  V30 6692 H 616.503 0.814501 -4.26085 0
M  V30 6693 H 617.174 2.25024 -5.04052 0
M  V30 6694 H 619.65 2.69926 -3.16669 0
M  V30 6695 H 618.526 3.88706 -3.87555 0
M  V30 6696 H 618.787 3.86933 -2.13859 0
M  V30 6697 N 617.846 1.41785 0.688094 0
M  V30 6698 C 618.809 1.43936 1.78368 0
M  V30 6699 C 619.809 0.328866 1.57401 0
M  V30 6700 O 620.999 0.589093 1.63937 0
M  V30 6701 C 618.131 1.25804 3.16838 0
M  V30 6702 H 619.324 2.41472 1.77852 0
M  V30 6703 H 616.877 1.28037 0.896448 0
M  V30 6704 H 617.612 0.291386 3.22988 0
M  V30 6705 H 617.397 2.06272 3.33458 0
M  V30 6706 H 618.887 1.30162 3.96797 0
M  V30 6707 N 619.324 -0.923095 1.27737 0
M  V30 6708 C 620.272 -2.04567 1.10703 0
M  V30 6709 C 621.266 -1.69375 0.0288445 0
M  V30 6710 O 622.472 -1.79027 0.186913 0
M  V30 6711 H 618.847 -0.670109 0.34126 0
M  V30 6712 H 620.818 -2.1608 2.05796 0
M  V30 6713 C 619.567 -3.38934 0.775837 0
M  V30 6714 H 618.89 -3.66501 1.59741 0
M  V30 6715 H 620.33 -4.18239 0.696548 0
M  V30 6716 C 618.789 -3.32863 -0.520012 0
M  V30 6717 O 619.319 -3.70462 -1.55308 0
M  V30 6718 N 617.525 -2.85958 -0.51732 0
M  V30 6719 H 617.072 -2.55557 0.32379 0
M  V30 6720 H 617.03 -2.82279 -1.38441 0
M  V30 6721 N 620.802 -1.09834 -1.13024 0
M  V30 6722 C 622.032 -0.857657 -1.87957 0
M  V30 6723 C 622.44 0.595008 -1.796 0
M  V30 6724 O 621.783 1.42158 -1.16347 0
M  V30 6725 C 621.845 -1.21949 -3.38185 0
M  V30 6726 C 621.509 -2.67791 -3.7032 0
M  V30 6727 C 622.506 -3.66036 -3.69207 0
M  V30 6728 C 620.191 -3.04019 -3.99847 0
M  V30 6729 C 622.185 -4.98533 -3.9717 0
M  V30 6730 C 619.872 -4.36706 -4.27471 0
M  V30 6731 C 620.87 -5.33772 -4.26118 0
M  V30 6732 O 620.558 -6.64072 -4.53061 0
M  V30 6733 H 620.29 -0.308009 -0.601753 0
M  V30 6734 H 622.844 -1.46496 -1.43973 0
M  V30 6735 H 621.074 -0.555249 -3.82693 0
M  V30 6736 H 622.763 -0.957281 -3.9445 0
M  V30 6737 H 623.529 -3.39392 -3.46465 0
M  V30 6738 H 619.408 -2.29096 -4.00045 0
M  V30 6739 H 622.952 -5.74288 -3.96029 0
M  V30 6740 H 618.849 -4.63091 -4.49685 0
M  V30 6741 H 619.617 -6.69608 -4.7071 0
M  V30 6742 N 622.28 1.30327 -0.886154 0
M  V30 6743 C 623.528 1.9571 -0.504195 0
M  V30 6744 C 623.849 1.70294 0.950003 0
M  V30 6745 O 623.119 1.02718 1.66811 0
M  V30 6746 H 621.699 0.72412 -0.183465 0
M  V30 6747 H 624.361 1.58835 -1.12949 0
M  V30 6748 H 623.457 3.04704 -0.675431 0
M  V30 6749 N 623.758 0.647228 1.43697 0
M  V30 6750 C 625.004 0.158422 2.0218 0
M  V30 6751 C 625.337 -1.22233 1.50907 0
M  V30 6752 O 624.612 -1.81478 0.699702 0
M  V30 6753 C 624.895 0.1627 3.59732 0
M  V30 6754 C 624.748 1.57694 4.21251 0
M  V30 6755 C 626.067 -0.504138 4.37203 0
M  V30 6756 H 623.186 0.059042 0.734631 0
M  V30 6757 H 625.828 0.826772 1.71069 0
M  V30 6758 H 623.978 -0.406414 3.86368 0
M  V30 6759 H 625.65 2.19618 4.05667 0
M  V30 6760 H 623.893 2.12603 3.7813 0
M  V30 6761 H 624.564 1.53183 5.3032 0
M  V30 6762 H 627.04 -0.0199841 4.16095 0
M  V30 6763 H 625.916 -0.470394 5.46881 0
M  V30 6764 H 626.177 -1.57726 4.13007 0
M  V30 6765 N 625.236 -1.5273 0.388769 0
M  V30 6766 C 626.484 -2.01174 -0.193208 0
M  V30 6767 C 626.805 -1.27705 -1.47365 0
M  V30 6768 O 626.075 -0.396966 -1.91836 0
M  V30 6769 H 624.655 -0.743287 -0.0743871 0
M  V30 6770 H 627.317 -1.87826 0.520336 0
M  V30 6771 H 626.413 -3.09477 -0.403803 0
M  V30 6772 N 626.714 -0.118576 -1.57153 0
M  V30 6773 C 627.962 0.538461 -1.94795 0
M  V30 6774 C 628.283 1.67243 -1.00274 0
M  V30 6775 O 627.553 1.95811 -0.0589692 0
M  V30 6776 H 626.133 0.201904 -0.719197 0
M  V30 6777 H 628.795 -0.187418 -1.93997 0
M  V30 6778 H 627.891 0.933315 -2.97818 0
M  V30 6779 N 628.193 1.56834 0.155195 0
M  V30 6780 C 629.125 1.94235 1.21677 0
M  V30 6781 C 630.138 0.83724 1.39621 0
M  V30 6782 O 631.327 1.11567 1.39338 0
M  V30 6783 C 628.427 2.19402 2.58294 0
M  V30 6784 C 627.6 3.50671 2.61436 0
M  V30 6785 C 626.659 3.64475 3.79532 0
M  V30 6786 O 625.685 4.36945 3.64784 0
M  V30 6787 N 626.887 3.00526 4.96653 0
M  V30 6788 H 629.652 2.85901 0.898932 0
M  V30 6789 H 627.213 1.58185 0.34483 0
M  V30 6790 H 629.205 2.25886 3.35794 0
M  V30 6791 H 627.775 1.34042 2.82403 0
M  V30 6792 H 626.995 3.55702 1.69912 0
M  V30 6793 H 628.283 4.3702 2.60559 0
M  V30 6794 H 627.681 2.41549 5.11538 0
M  V30 6795 H 626.238 3.12583 5.71958 0
M  V30 6796 N 629.671 -0.424282 1.51781 0
M  V30 6797 C 630.901 -1.19297 1.68677 0
M  V30 6798 C 631.309 -1.85152 0.389258 0
M  V30 6799 O 630.652 -1.72067 -0.643311 0
M  V30 6800 C 630.714 -2.30929 2.75521 0
M  V30 6801 C 630.378 -1.85335 4.17732 0
M  V30 6802 C 631.375 -1.34951 5.0208 0
M  V30 6803 C 629.06 -1.92629 4.63896 0
M  V30 6804 C 631.054 -0.924636 6.30658 0
M  V30 6805 C 628.741 -1.49754 5.92467 0
M  V30 6806 C 629.739 -0.997543 6.75676 0
M  V30 6807 O 629.427 -0.57492 8.01842 0
M  V30 6808 H 629.159 -0.36512 0.568914 0
M  V30 6809 H 631.713 -0.507327 1.99036 0
M  V30 6810 H 629.943 -3.02811 2.40505 0
M  V30 6811 H 631.632 -2.92748 2.81165 0
M  V30 6812 H 632.398 -1.287 4.67612 0
M  V30 6813 H 628.277 -2.30491 3.99243 0
M  V30 6814 H 631.821 -0.533682 6.95556 0
M  V30 6815 H 627.718 -1.55679 6.26446 0
M  V30 6816 H 628.486 -0.699597 8.15505 0
M  V30 6817 N 631.149 -1.42148 -0.680565 0
M  V30 6818 C 632.059 -1.47565 -1.82378 0
M  V30 6819 C 633.075 -0.36489 -1.70131 0
M  V30 6820 O 634.251 -0.614916 -1.91783 0
M  V30 6821 C 631.316 -1.37013 -3.18478 0
M  V30 6822 C 630.377 -2.58532 -3.42724 0
M  V30 6823 C 629.61 -2.48473 -4.72331 0
M  V30 6824 O 629.833 -1.51745 -5.49845 0
M  V30 6825 O 628.767 -3.38503 -4.97694 0
M  V30 6826 H 632.593 -2.44045 -1.80764 0
M  V30 6827 H 630.178 -1.23849 -0.835569 0
M  V30 6828 H 632.06 -1.33468 -3.99705 0
M  V30 6829 H 630.735 -0.436552 -3.20743 0
M  V30 6830 H 629.642 -2.67652 -2.61368 0
M  V30 6831 H 630.975 -3.50769 -3.45286 0
M  V30 6832 N 632.627 0.916307 -1.28225 0
M  V30 6833 C 634.038 1.48024 -1.13779 0
M  V30 6834 C 634.389 1.94289 0.273139 0
M  V30 6835 O 633.514 1.82226 1.16716 0
M  V30 6836 C 634.109 2.69029 -2.05935 0
M  V30 6837 C 632.668 3.2161 -1.95561 0
M  V30 6838 C 631.815 1.94321 -1.97825 0
M  V30 6839 H 634.766 0.729272 -1.40951 0
M  V30 6840 H 634.787 3.44204 -1.62184 0
M  V30 6841 H 634.299 2.35325 -3.08616 0
M  V30 6842 H 632.4 3.60045 -0.959076 0
M  V30 6843 H 632.513 3.87032 -2.82388 0
M  V30 6844 H 630.877 2.1131 -1.42198 0
M  V30 6845 H 631.66 1.62917 -3.0218 0
M  V30 6846 N 634.105 1.10431 1.1244 0
M  V30 6847 C 635.055 0.722378 2.16254 0
M  V30 6848 C 636.039 -0.268427 1.58645 0
M  V30 6849 O 637.231 -0.077169 1.76832 0
M  V30 6850 C 634.36 0.155763 3.42946 0
M  V30 6851 C 633.446 1.17361 4.07538 0
M  V30 6852 N 633.837 2.36429 4.47141 0
M  V30 6853 C 632.135 1.01412 4.34317 0
M  V30 6854 C 632.836 3.01259 4.97612 0
M  V30 6855 N 631.812 2.28777 4.93115 0
M  V30 6856 H 635.614 1.62876 2.4464 0
M  V30 6857 H 633.128 0.982031 1.29344 0
M  V30 6858 H 635.125 -0.135936 4.16678 0
M  V30 6859 H 633.785 -0.745339 3.1603 0
M  V30 6860 H 634.796 2.73954 4.39511 0
M  V30 6861 H 631.473 0.168574 4.1716 0
M  V30 6862 H 632.863 4.02541 5.37968 0
M  V30 6863 N 635.583 -1.29855 0.893053 0
M  V30 6864 C 636.83 -1.95826 0.515585 0
M  V30 6865 C 637.158 -1.70451 -0.936842 0
M  V30 6866 O 636.413 -1.00657 -1.67829 0
M  V30 6867 C 636.712 -3.49515 0.746588 0
M  V30 6868 C 636.378 -3.94955 2.17535 0
M  V30 6869 C 635.04 -4.07073 2.56603 0
M  V30 6870 C 637.392 -4.18536 3.10607 0
M  V30 6871 C 634.72 -4.40138 3.87938 0
M  V30 6872 C 637.072 -4.53073 4.41484 0
M  V30 6873 C 635.736 -4.634 4.80434 0
M  V30 6874 H 635.006 -0.71658 0.188666 0
M  V30 6875 H 637.653 -1.54574 1.13045 0
M  V30 6876 H 635.958 -3.9177 0.0487551 0
M  V30 6877 H 637.655 -3.98644 0.434009 0
M  V30 6878 H 634.245 -3.86035 1.86212 0
M  V30 6879 H 638.429 -4.08646 2.81641 0
M  V30 6880 H 633.685 -4.46335 4.17846 0
M  V30 6881 H 637.859 -4.70269 5.13634 0
M  V30 6882 H 635.486 -4.88775 5.82239 0
M  V30 6883 N 637.061 -0.65484 -1.43351 0
M  V30 6884 C 638.338 -0.0987371 -1.95351 0
M  V30 6885 C 638.718 1.38161 -1.59608 0
M  V30 6886 O 638.066 2.10791 -0.882021 0
M  V30 6887 C 638.276 -0.346684 -3.47274 0
M  V30 6888 C 639.624 -0.25249 -4.23849 0
M  V30 6889 O 640.648 -0.279332 -3.55103 0
M  V30 6890 O 639.507 -0.177584 -5.46211 0
M  V30 6891 H 636.601 0.0086829 -0.826954 0
M  V30 6892 H 639.147 -0.728189 -1.53282 0
M  V30 6893 H 637.919 -1.37296 -3.66423 0
M  V30 6894 H 637.542 0.315757 -3.96344 0
M  V30 6895 N 638.539 1.52521 -0.396863 0
M  V30 6896 C 639.786 2.01672 0.182898 0
M  V30 6897 C 640.114 1.28302 1.46181 0
M  V30 6898 O 639.369 0.374118 1.92091 0
M  V30 6899 C 639.668 3.5403 0.489677 0
M  V30 6900 C 639.334 4.45456 -0.698581 0
M  V30 6901 C 637.996 4.70166 -1.02454 0
M  V30 6902 C 640.348 4.99354 -1.49316 0
M  V30 6903 C 637.676 5.46024 -2.1465 0
M  V30 6904 C 640.028 5.76439 -2.60579 0
M  V30 6905 C 638.692 5.99426 -2.93675 0
M  V30 6906 H 637.962 0.737971 0.066927 0
M  V30 6907 H 640.609 1.83853 -0.535764 0
M  V30 6908 H 638.914 3.69963 1.28976 0
M  V30 6909 H 640.611 3.8956 0.951018 0
M  V30 6910 H 637.201 4.26392 -0.434525 0
M  V30 6911 H 641.385 4.80182 -1.25457 0
M  V30 6912 H 636.641 5.62046 -2.40654 0
M  V30 6913 H 640.815 6.17202 -3.22544 0
M  V30 6914 H 638.442 6.57988 -3.80731 0
M  V30 6915 N 640.017 0.126909 1.57088 0
M  V30 6916 C 641.242 -0.53997 2.00248 0
M  V30 6917 C 641.667 -1.58927 1.00618 0
M  V30 6918 O 641.025 -1.81288 -0.0210131 0
M  V30 6919 C 641.073 -1.13565 3.4225 0
M  V30 6920 O 640.177 -2.25103 3.45547 0
M  V30 6921 H 639.518 -0.13412 0.650314 0
M  V30 6922 H 642.048 0.217718 2.03438 0
M  V30 6923 H 642.058 -1.46925 3.80627 0
M  V30 6924 H 640.733 -0.367122 4.14277 0
M  V30 6925 H 639.31 -1.93123 3.18995 0
M  V30 6926 N 641.495 -1.56914 -0.146875 0
M  V30 6927 C 642.911 -1.51582 -0.499518 0
M  V30 6928 C 643.111 -0.83535 -1.83369 0
M  V30 6929 O 642.167 -0.405932 -2.49216 0
M  V30 6930 C 643.48 -2.96349 -0.509711 0
M  V30 6931 C 645.028 -3.07288 -0.595217 0
M  V30 6932 C 645.503 -4.53562 -0.636071 0
M  V30 6933 N 646.994 -4.57906 -0.69829 0
M  V30 6934 C 647.729 -5.68462 -0.750886 0
M  V30 6935 N 647.225 -6.88588 -0.76282 0
M  V30 6936 N 649.018 -5.56496 -0.791777 0
M  V30 6937 H 641.169 -1.99547 0.727656 0
M  V30 6938 H 643.432 -0.910113 0.265327 0
M  V30 6939 H 643.138 -3.4939 0.402409 0
M  V30 6940 H 643.012 -3.52307 -1.34758 0
M  V30 6941 H 645.399 -2.54266 -1.49776 0
M  V30 6942 H 645.48 -2.54373 0.2698 0
M  V30 6943 H 645.124 -5.07222 0.262313 0
M  V30 6944 H 645.054 -5.04259 -1.51758 0
M  V30 6945 H 647.545 -3.71429 -0.696362 0
M  V30 6946 H 647.858 -7.68598 -0.804804 0
M  V30 6947 H 646.203 -6.91148 -0.730694 0
M  V30 6948 H 649.394 -4.61562 -0.779624 0
M  V30 6949 H 649.567 -6.42671 -0.829301 0
M  V30 6950 N 642.974 0.416227 -1.52004 0
M  V30 6951 C 643.922 1.5272 -1.7544 0
M  V30 6952 C 644.916 1.57596 -0.621289 0
M  V30 6953 O 646.122 1.61087 -0.803172 0
M  V30 6954 H 642.497 0.507772 -0.554682 0
M  V30 6955 H 644.468 1.30136 -2.68528 0
M  V30 6956 C 643.217 2.90165 -1.91571 0
M  V30 6957 H 642.54 2.87154 -2.78178 0
M  V30 6958 H 643.98 3.67211 -2.11972 0
M  V30 6959 C 642.439 3.29947 -0.680942 0
M  V30 6960 O 642.969 4.01403 0.154527 0
M  V30 6961 N 641.175 2.8593 -0.518894 0
M  V30 6962 H 640.722 2.2795 -1.19986 0
M  V30 6963 H 640.68 3.12907 0.305985 0
M  V30 6964 N 644.452 1.42507 0.673017 0
M  V30 6965 C 645.729 1.33554 1.42908 0
M  V30 6966 C 646.109 -0.0262211 2.11084 0
M  V30 6967 O 645.457 -1.04181 2.03368 0
M  V30 6968 C 645.667 2.50498 2.43006 0
M  V30 6969 C 647.015 2.92694 3.07596 0
M  V30 6970 O 648.039 2.50401 2.53333 0
M  V30 6971 O 646.898 3.65899 4.05931 0
M  V30 6972 H 643.992 0.526785 0.637516 0
M  V30 6973 H 646.538 1.54518 0.701591 0
M  V30 6974 H 645.31 3.41272 1.9144 0
M  V30 6975 H 644.933 2.3153 3.23233 0
M  V30 6976 N 645.93 -0.909495 1.28709 0
M  V30 6977 C 646.84 -2.04558 1.14861 0
M  V30 6978 C 647.856 -1.73842 0.0741621 0
M  V30 6979 O 649.032 -1.99383 0.2843 0
M  V30 6980 C 646.097 -3.36957 0.816148 0
M  V30 6981 C 645.158 -3.81255 1.97341 0
M  V30 6982 C 644.391 -5.07335 1.65671 0
M  V30 6983 O 644.614 -5.67514 0.573053 0
M  V30 6984 O 643.548 -5.47449 2.50167 0
M  V30 6985 H 647.374 -2.19161 2.10243 0
M  V30 6986 H 644.959 -1.03159 1.08068 0
M  V30 6987 H 646.841 -4.16436 0.644873 0
M  V30 6988 H 645.516 -3.2352 -0.107983 0
M  V30 6989 H 644.423 -3.02584 2.19986 0
M  V30 6990 H 645.756 -3.99261 2.87839 0
M  V30 6991 N 647.408 -1.11026 -1.11852 0
M  V30 6992 C 648.824 -0.843294 -1.35502 0
M  V30 6993 C 649.024 0.534179 -1.9429 0
M  V30 6994 O 648.08 1.28585 -2.17307 0
M  V30 6995 C 649.393 -1.94793 -2.29077 0
M  V30 6996 C 650.941 -1.97709 -2.42652 0
M  V30 6997 C 651.416 -3.07364 -3.39546 0
M  V30 6998 N 652.907 -3.0671 -3.47107 0
M  V30 6999 C 653.642 -3.88197 -4.22008 0
M  V30 7000 N 653.138 -4.79635 -4.99922 0
M  V30 7001 N 654.931 -3.76391 -4.17476 0
M  V30 7002 H 647.082 -1.99805 -0.720538 0
M  V30 7003 H 649.345 -0.868633 -0.379711 0
M  V30 7004 H 649.051 -2.93971 -1.93065 0
M  V30 7005 H 648.925 -1.84039 -3.29256 0
M  V30 7006 H 651.312 -0.991604 -2.77941 0
M  V30 7007 H 651.393 -2.1254 -1.4234 0
M  V30 7008 H 651.037 -4.06136 -3.04985 0
M  V30 7009 H 650.967 -2.89774 -4.39703 0
M  V30 7010 H 653.458 -2.40457 -2.91528 0
M  V30 7011 H 653.771 -5.38357 -5.54429 0
M  V30 7012 H 652.116 -4.8366 -4.99097 0
M  V30 7013 H 655.307 -3.04303 -3.55693 0
M  V30 7014 H 655.48 -4.40131 -4.75593 0
M  V30 7015 N 648.886 1.2938 -0.899927 0
M  V30 7016 C 650.163 1.9046 -0.445443 0
M  V30 7017 C 650.543 1.81683 1.07492 0
M  V30 7018 O 649.891 1.24371 1.91688 0
M  V30 7019 C 650.101 3.35529 -0.960279 0
M  V30 7020 C 651.449 4.12556 -1.00412 0
M  V30 7021 O 652.473 3.44434 -0.907965 0
M  V30 7022 O 651.332 5.34294 -1.14857 0
M  V30 7023 H 648.426 0.815253 -0.138893 0
M  V30 7024 H 650.972 1.37844 -0.989808 0
M  V30 7025 H 649.744 3.36074 -2.00425 0
M  V30 7026 H 649.367 3.95624 -0.395939 0
M  V30 7027 N 650.364 0.662433 1.43002 0
M  V30 7028 C 651.592 0.187615 2.06048 0
M  V30 7029 C 652.007 -1.15039 1.49705 0
M  V30 7030 O 651.364 -1.71209 0.631956 0
M  V30 7031 C 651.415 0.100498 3.6136 0
M  V30 7032 O 651.136 1.38562 4.15611 0
M  V30 7033 C 652.637 -0.399298 4.41498 0
M  V30 7034 H 649.857 0.0941675 0.664359 0
M  V30 7035 H 652.401 0.905681 1.83351 0
M  V30 7036 H 650.556 -0.568181 3.83211 0
M  V30 7037 H 650.97 1.25084 5.09366 0
M  V30 7038 H 652.444 -0.409187 5.50481 0
M  V30 7039 H 652.921 -1.43232 4.15188 0
M  V30 7040 H 653.527 0.23721 4.24638 0
M  V30 7041 N 651.842 -1.52309 0.404946 0
M  V30 7042 C 653.089 -2.01767 -0.1722 0
M  V30 7043 C 653.417 -1.29075 -1.45498 0
M  V30 7044 O 652.672 -0.3843 -1.9189 0
M  V30 7045 C 652.971 -3.54284 -0.470895 0
M  V30 7046 C 652.637 -4.45079 0.722194 0
M  V30 7047 C 651.299 -4.69617 1.04946 0
M  V30 7048 C 653.651 -4.98555 1.51962 0
M  V30 7049 C 650.979 -5.44878 2.17543 0
M  V30 7050 C 653.331 -5.75049 2.63632 0
M  V30 7051 C 651.995 -5.9786 2.9685 0
M  V30 7052 H 651.265 -0.738316 -0.0630125 0
M  V30 7053 H 653.912 -1.83566 0.545506 0
M  V30 7054 H 652.217 -3.70642 -1.27012 0
M  V30 7055 H 653.914 -3.90058 -0.930346 0
M  V30 7056 H 650.504 -4.26155 0.457131 0
M  V30 7057 H 654.688 -4.79509 1.28002 0
M  V30 7058 H 649.944 -5.60762 2.43631 0
M  V30 7059 H 654.118 -6.15483 3.25813 0
M  V30 7060 H 651.745 -6.5596 3.84215 0
M  V30 7061 N 653.32 -0.135238 -1.57019 0
M  V30 7062 C 654.267 0.808908 -2.1616 0
M  V30 7063 C 655.237 1.25234 -1.09113 0
M  V30 7064 O 656.422 1.32697 -1.37099 0
M  V30 7065 C 653.562 2.04729 -2.77813 0
M  V30 7066 C 652.675 1.65074 -3.99218 0
M  V30 7067 C 651.81 2.84002 -4.48906 0
M  V30 7068 C 650.849 2.40663 -5.62803 0
M  V30 7069 N 649.986 3.5256 -6.07162 0
M  V30 7070 H 654.826 0.297751 -2.96509 0
M  V30 7071 H 652.363 0.135264 -1.46477 0
M  V30 7072 H 654.321 2.7731 -3.11697 0
M  V30 7073 H 652.951 2.53275 -2.00128 0
M  V30 7074 H 652.003 0.823029 -3.7139 0
M  V30 7075 H 653.315 1.29236 -4.81767 0
M  V30 7076 H 652.469 3.64788 -4.84783 0
M  V30 7077 H 651.208 3.23076 -3.65339 0
M  V30 7078 H 650.213 1.58314 -5.26514 0
M  V30 7079 H 651.438 2.02687 -6.48147 0
M  V30 7080 H 649.384 3.91278 -5.26534 0
M  V30 7081 H 649.301 3.20699 -6.84608 0
M  V30 7082 H 650.569 4.33738 -6.47682 0
M  V30 7083 N 654.798 1.5699 0.138552 0
M  V30 7084 C 655.748 1.9532 1.17619 0
M  V30 7085 C 656.732 0.825545 1.38107 0
M  V30 7086 O 657.924 1.08908 1.39528 0
M  V30 7087 C 655.053 2.34451 2.50774 0
M  V30 7088 C 654.139 3.53805 2.33844 0
M  V30 7089 N 654.53 4.70088 1.86685 0
M  V30 7090 C 652.828 3.59055 2.64567 0
M  V30 7091 C 653.529 5.52165 1.82998 0
M  V30 7092 N 652.505 4.94108 2.26624 0
M  V30 7093 H 656.307 2.82694 0.803809 0
M  V30 7094 H 653.821 1.5866 0.346519 0
M  V30 7095 H 655.818 2.60119 3.25797 0
M  V30 7096 H 654.478 1.48431 2.88788 0
M  V30 7097 H 655.489 4.93681 1.56523 0
M  V30 7098 H 652.166 2.83596 3.06398 0
M  V30 7099 H 653.556 6.55407 1.47957 0
M  V30 7100 N 656.276 -0.40816 1.52223 0
M  V30 7101 C 657.206 -1.5042 1.78595 0
M  V30 7102 C 658.187 -1.57723 0.636974 0
M  V30 7103 O 659.372 -1.72982 0.882664 0
M  V30 7104 C 656.502 -2.88232 1.93751 0
M  V30 7105 C 655.456 -2.95779 3.09352 0
M  V30 7106 C 654.782 -4.35855 3.09732 0
M  V30 7107 C 656.082 -2.67175 4.48793 0
M  V30 7108 H 657.776 -1.28601 2.70374 0
M  V30 7109 H 655.322 -0.617221 1.30101 0
M  V30 7110 H 657.275 -3.64895 2.10783 0
M  V30 7111 H 655.999 -3.11347 0.986443 0
M  V30 7112 H 654.658 -2.21561 2.92072 0
M  V30 7113 H 654.306 -4.55981 2.12346 0
M  V30 7114 H 654.006 -4.41829 3.87377 0
M  V30 7115 H 655.53 -5.14451 3.28895 0
M  V30 7116 H 656.944 -3.3356 4.66273 0
M  V30 7117 H 655.341 -2.84523 5.28362 0
M  V30 7118 H 656.411 -1.62609 4.56822 0
M  V30 7119 N 657.755 -1.42862 -0.66545 0
M  V30 7120 C 659.003 -1.43546 -1.42264 0
M  V30 7121 C 659.324 -0.0563116 -1.94919 0
M  V30 7122 O 658.594 0.906568 -1.73661 0
M  V30 7123 H 657.174 -0.528464 -0.527953 0
M  V30 7124 H 659.836 -1.78363 -0.785665 0
M  V30 7125 H 658.932 -2.14079 -2.27105 0
M  V30 7126 N 659.233 0.902656 -1.29189 0
M  V30 7127 C 660.461 1.68639 -1.19869 0
M  V30 7128 C 660.876 1.87254 0.241121 0
M  V30 7129 O 660.233 1.40745 1.16177 0
M  V30 7130 C 660.284 3.07251 -1.90471 0
M  V30 7131 O 660.005 2.89488 -3.28829 0
M  V30 7132 C 661.506 4.01653 -1.8759 0
M  V30 7133 H 658.726 0.526802 -0.415596 0
M  V30 7134 H 661.27 1.12901 -1.7051 0
M  V30 7135 H 659.425 3.59774 -1.43672 0
M  V30 7136 H 659.839 3.77296 -3.64346 0
M  V30 7137 H 661.313 4.96339 -2.4156 0
M  V30 7138 H 661.79 4.30881 -0.850756 0
M  V30 7139 H 662.396 3.55061 -2.34119 0
M  V30 7140 N 660.711 1.11618 1.11262 0
M  V30 7141 C 661.959 0.864469 1.82678 0
M  V30 7142 C 662.28 -0.611564 1.85162 0
M  V30 7143 O 661.55 -1.44429 1.32352 0
M  V30 7144 H 660.13 0.316821 0.676486 0
M  V30 7145 H 662.792 1.40894 1.34666 0
M  V30 7146 H 661.888 1.23832 2.86482 0
M  V30 7147 N 662.189 -1.289 0.906776 0
M  V30 7148 C 663.137 -2.29477 0.379873 0
M  V30 7149 C 664.131 -1.61068 -0.524747 0
M  V30 7150 O 665.337 -1.75344 -0.406765 0
M  V30 7151 H 661.712 -0.744742 0.10423 0
M  V30 7152 H 663.683 -2.71353 1.24137 0
M  V30 7153 C 662.432 -3.45713 -0.371154 0
M  V30 7154 H 661.755 -3.98551 0.315716 0
M  V30 7155 H 663.195 -4.18105 -0.704581 0
M  V30 7156 C 661.654 -2.9774 -1.57646 0
M  V30 7157 O 662.184 -2.99618 -2.67567 0
M  V30 7158 N 660.39 -2.53485 -1.42105 0
M  V30 7159 H 659.937 -2.52156 -0.526783 0
M  V30 7160 H 659.895 -2.21747 -2.22881 0
M  V30 7161 N 663.667 -0.670007 -1.42649 0
M  V30 7162 C 665.083 -0.33911 -1.55956 0
M  V30 7163 C 665.283 1.1558 -1.65056 0
M  V30 7164 O 664.339 1.94111 -1.61485 0
M  V30 7165 C 665.652 -1.06522 -2.812 0
M  V30 7166 C 667.2 -1.04708 -2.94966 0
M  V30 7167 C 667.675 -1.75442 -4.23065 0
M  V30 7168 N 669.166 -1.72286 -4.29967 0
M  V30 7169 C 669.901 -2.23877 -5.27889 0
M  V30 7170 N 669.397 -2.83829 -6.31991 0
M  V30 7171 N 671.19 -2.14279 -5.19654 0
M  V30 7172 H 663.341 -1.6399 -1.34986 0
M  V30 7173 H 665.604 -0.690603 -0.649439 0
M  V30 7174 H 665.31 -2.12033 -2.80597 0
M  V30 7175 H 665.184 -0.627398 -3.71946 0
M  V30 7176 H 667.571 -0.000315966 -2.951 0
M  V30 7177 H 667.652 -1.52374 -2.05465 0
M  V30 7178 H 667.296 -2.80084 -4.23693 0
M  V30 7179 H 667.226 -1.25229 -5.11493 0
M  V30 7180 H 669.717 -1.28554 -3.55362 0
M  V30 7181 H 670.03 -3.20827 -7.03057 0
M  V30 7182 H 668.375 -2.87896 -6.32567 0
M  V30 7183 H 671.566 -1.67135 -4.37245 0
M  V30 7184 H 671.739 -2.54792 -5.95806 0
M  V30 7185 N 665.145 1.52092 -0.413018 0
M  V30 7186 C 666.391 2.02154 0.161737 0
M  V30 7187 C 666.724 1.29789 1.44459 0
M  V30 7188 O 665.999 0.405378 1.90229 0
M  V30 7189 C 666.282 3.5781 0.405463 0
M  V30 7190 C 666.135 4.40819 -0.894335 0
M  V30 7191 C 667.454 4.23821 1.18591 0
M  V30 7192 H 664.573 0.734769 0.0573077 0
M  V30 7193 H 667.215 1.81948 -0.547247 0
M  V30 7194 H 665.365 3.75158 1.0094 0
M  V30 7195 H 667.037 4.35175 -1.53039 0
M  V30 7196 H 665.28 4.06877 -1.50444 0
M  V30 7197 H 665.951 5.47819 -0.678144 0
M  V30 7198 H 668.427 4.10596 0.674573 0
M  V30 7199 H 667.303 5.32663 1.3252 0
M  V30 7200 H 667.564 3.83038 2.20758 0
M  V30 7201 N 666.623 0.143563 1.56945 0
M  V30 7202 C 667.586 -0.783295 2.154 0
M  V30 7203 C 668.586 -1.17763 1.09492 0
M  V30 7204 O 669.776 -1.09912 1.35148 0
M  V30 7205 C 666.908 -2.06248 2.7143 0
M  V30 7206 H 668.101 -0.274863 2.98638 0
M  V30 7207 H 665.654 -0.105859 1.55941 0
M  V30 7208 H 666.389 -2.61466 1.91849 0
M  V30 7209 H 666.174 -1.78897 3.4891 0
M  V30 7210 H 667.664 -2.72453 3.16479 0
M  V30 7211 N 668.101 -1.57061 -0.130224 0
M  V30 7212 C 669.329 -1.88432 -0.854456 0
M  V30 7213 C 669.744 -0.733608 -1.73964 0
M  V30 7214 O 669.101 0.296029 -1.80083 0
M  V30 7215 C 669.152 -3.1918 -1.69724 0
M  V30 7216 O 668.873 -4.2982 -0.847705 0
M  V30 7217 C 670.374 -3.6418 -2.5276 0
M  V30 7218 H 667.594 -0.624193 -0.246221 0
M  V30 7219 H 670.138 -2.04159 -0.11798 0
M  V30 7220 H 668.293 -3.05156 -2.3866 0
M  V30 7221 H 668.707 -5.04689 -1.42792 0
M  V30 7222 H 670.181 -4.58457 -3.07443 0
M  V30 7223 H 670.658 -2.90285 -3.29592 0
M  V30 7224 H 671.264 -3.80954 -1.89087 0
M  V30 7225 N 669.579 0.400081 -1.52437 0
M  V30 7226 C 670.826 1.14619 -1.6694 0
M  V30 7227 C 671.154 1.90262 -0.403797 0
M  V30 7228 O 670.409 1.85835 0.61351 0
M  V30 7229 C 670.708 2.15914 -2.84808 0
M  V30 7230 C 670.374 1.57011 -4.2268 0
M  V30 7231 C 669.036 1.40672 -4.60179 0
M  V30 7232 C 671.388 1.14081 -5.08562 0
M  V30 7233 C 668.716 0.799335 -5.81229 0
M  V30 7234 C 671.068 0.547573 -6.30226 0
M  V30 7235 C 669.732 0.371389 -6.66466 0
M  V30 7236 H 669.002 0.419419 -0.610875 0
M  V30 7237 H 671.649 0.432227 -1.86558 0
M  V30 7238 H 669.954 2.93488 -2.59561 0
M  V30 7239 H 671.651 2.73533 -2.93225 0
M  V30 7240 H 668.241 1.70713 -3.93135 0
M  V30 7241 H 672.425 1.2551 -4.80168 0
M  V30 7242 H 667.681 0.65093 -6.07925 0
M  V30 7243 H 671.855 0.206575 -6.96094 0
M  V30 7244 H 669.482 -0.10135 -7.60132 0
M  V30 7245 N 671.057 1.43213 0.657864 0
M  V30 7246 C 671.987 1.50815 1.78262 0
M  V30 7247 C 672.968 0.363211 1.66177 0
M  V30 7248 O 674.153 0.579806 1.85343 0
M  V30 7249 C 671.283 1.42625 3.16663 0
M  V30 7250 C 670.237 2.5532 3.43505 0
M  V30 7251 C 669.563 2.32184 4.81658 0
M  V30 7252 C 670.863 3.97583 3.38711 0
M  V30 7253 H 672.557 2.44954 1.72157 0
M  V30 7254 H 670.103 1.17896 0.82683 0
M  V30 7255 H 672.056 1.46548 3.95097 0
M  V30 7256 H 670.78 0.449877 3.23487 0
M  V30 7257 H 669.439 2.50742 2.6744 0
M  V30 7258 H 669.087 1.32801 4.85153 0
M  V30 7259 H 668.787 3.07724 5.00579 0
M  V30 7260 H 670.311 2.37883 5.62356 0
M  V30 7261 H 671.725 4.03673 4.07089 0
M  V30 7262 H 670.122 4.73112 3.69168 0
M  V30 7263 H 671.192 4.23049 2.36976 0
M  V30 7264 N 672.536 -0.895792 1.29666 0
M  V30 7265 C 673.484 -2.02173 1.15017 0
M  V30 7266 C 674.478 -1.69276 0.0647651 0
M  V30 7267 O 675.684 -1.7859 0.224846 0
M  V30 7268 H 672.059 -0.662719 0.355397 0
M  V30 7269 H 674.03 -2.11666 2.10334 0
M  V30 7270 C 672.779 -3.37212 0.847555 0
M  V30 7271 H 672.102 -3.6303 1.67479 0
M  V30 7272 H 673.542 -4.16668 0.785106 0
M  V30 7273 C 672.001 -3.33891 -0.44929 0
M  V30 7274 O 672.531 -3.73673 -1.47415 0
M  V30 7275 N 670.737 -2.86991 -0.456547 0
M  V30 7276 H 670.284 -2.54813 0.377925 0
M  V30 7277 H 670.242 -2.85152 -1.32423 0
M  V30 7278 N 674.014 -1.12206 -1.10668 0
M  V30 7279 C 675.244 -0.897332 -1.86095 0
M  V30 7280 C 675.652 0.556778 -1.80822 0
M  V30 7281 O 674.995 1.39658 -1.19337 0
M  V30 7282 C 675.057 -1.29095 -3.35522 0
M  V30 7283 C 674.721 -2.75586 -3.64556 0
M  V30 7284 C 675.718 -3.73785 -3.6136 0
M  V30 7285 C 673.403 -3.12432 -3.93309 0
M  V30 7286 C 675.397 -5.06845 -3.86506 0
M  V30 7287 C 673.084 -4.45675 -4.18111 0
M  V30 7288 C 674.082 -5.42691 -4.147 0
M  V30 7289 O 673.77 -6.73532 -4.38873 0
M  V30 7290 H 673.502 -0.320704 -0.595084 0
M  V30 7291 H 676.056 -1.49517 -1.40833 0
M  V30 7292 H 674.286 -0.636299 -3.81429 0
M  V30 7293 H 675.975 -1.04073 -3.92331 0
M  V30 7294 H 676.741 -3.46664 -3.39189 0
M  V30 7295 H 672.62 -2.3753 -3.95096 0
M  V30 7296 H 676.164 -5.82559 -3.83758 0
M  V30 7297 H 672.061 -4.72526 -4.39761 0
M  V30 7298 H 672.829 -6.79442 -4.564 0
M  V30 7299 N 675.492 1.28418 -0.913599 0
M  V30 7300 C 676.425 2.25557 -0.346328 0
M  V30 7301 C 677.403 1.53038 0.549366 0
M  V30 7302 O 678.587 1.81937 0.493055 0
M  V30 7303 C 675.714 3.34915 0.504961 0
M  V30 7304 C 674.76 4.25257 -0.325334 0
M  V30 7305 S 675.593 5.06718 -1.73198 0
M  V30 7306 C 676.749 6.19569 -0.887988 0
M  V30 7307 H 676.982 2.73325 -1.16965 0
M  V30 7308 H 674.515 1.36855 -0.714841 0
M  V30 7309 H 676.473 3.98376 0.990301 0
M  V30 7310 H 675.134 2.85814 1.30267 0
M  V30 7311 H 674.327 5.02947 0.325589 0
M  V30 7312 H 673.929 3.66519 -0.744321 0
M  V30 7313 H 676.221 6.77398 -0.117568 0
M  V30 7314 H 677.164 6.88908 -1.63742 0
M  V30 7315 H 677.572 5.62812 -0.436228 0
M  V30 7316 N 676.97 0.677563 1.42291 0
M  V30 7317 C 678.195 0.207901 2.06355 0
M  V30 7318 C 678.62 -1.12723 1.50583 0
M  V30 7319 O 677.978 -1.70171 0.62543 0
M  V30 7320 C 678.026 0.156489 3.6026 0
M  V30 7321 O 677.13 -0.874162 4.03029 0
M  V30 7322 H 676.471 0.106056 0.655475 0
M  V30 7323 H 679.001 0.927354 1.82377 0
M  V30 7324 H 679.011 -0.0187258 4.07996 0
M  V30 7325 H 677.686 1.13101 4.00226 0
M  V30 7326 H 676.263 -0.669764 3.66836 0
M  V30 7327 N 678.448 -1.51871 0.421078 0
M  V30 7328 C 679.725 -1.9447 -0.20993 0
M  V30 7329 C 680.105 -1.35875 -1.61558 0
M  V30 7330 O 679.453 -0.539294 -2.22045 0
M  V30 7331 C 679.663 -3.48402 -0.204165 0
M  V30 7332 C 681.011 -4.2254 -0.417696 0
M  V30 7333 O 682.035 -3.55074 -0.282999 0
M  V30 7334 O 680.894 -5.422 -0.684239 0
M  V30 7335 H 677.988 -0.815283 -0.138718 0
M  V30 7336 H 680.534 -1.62832 0.477884 0
M  V30 7337 H 679.306 -3.83464 0.779183 0
M  V30 7338 H 678.929 -3.86436 -0.935576 0
M  V30 7339 N 679.926 -0.151884 -1.56866 0
M  V30 7340 C 681.172 0.498742 -1.96572 0
M  V30 7341 C 681.505 1.64194 -1.03702 0
M  V30 7342 O 680.78 1.94334 -0.0803432 0
M  V30 7343 C 681.063 1.00027 -3.45929 0
M  V30 7344 C 680.916 -0.141767 -4.49577 0
M  V30 7345 C 682.235 1.88044 -3.97904 0
M  V30 7346 H 679.354 0.17982 -0.714726 0
M  V30 7347 H 681.996 -0.234097 -1.88552 0
M  V30 7348 H 680.146 1.62476 -3.52894 0
M  V30 7349 H 681.818 -0.778269 -4.54687 0
M  V30 7350 H 680.061 -0.80019 -4.26356 0
M  V30 7351 H 680.732 0.250947 -5.51429 0
M  V30 7352 H 683.208 1.35416 -3.93449 0
M  V30 7353 H 682.084 2.20043 -5.02864 0
M  V30 7354 H 682.345 2.81916 -3.40552 0
M  V30 7355 N 681.404 1.57128 0.121893 0
M  V30 7356 C 682.314 2.03425 1.16857 0
M  V30 7357 C 683.33 0.954108 1.45509 0
M  V30 7358 O 684.506 1.26541 1.56682 0
M  V30 7359 C 681.571 2.42685 2.47599 0
M  V30 7360 C 680.632 3.64767 2.2637 0
M  V30 7361 C 679.865 4.02145 3.50878 0
M  V30 7362 O 680.088 3.39897 4.58068 0
M  V30 7363 O 679.022 4.95262 3.42051 0
M  V30 7364 H 682.848 2.92825 0.80544 0
M  V30 7365 H 680.433 1.45654 0.332477 0
M  V30 7366 H 682.315 2.68684 3.24634 0
M  V30 7367 H 680.99 1.56432 2.83392 0
M  V30 7368 H 679.897 3.43922 1.47203 0
M  V30 7369 H 681.23 4.51716 1.95482 0
M  V30 7370 N 682.882 -0.391992 1.52647 0
M  V30 7371 C 683.845 -1.46135 1.7657 0
M  V30 7372 C 684.845 -1.47701 0.635698 0
M  V30 7373 O 686.035 -1.48924 0.903728 0
M  V30 7374 C 683.167 -2.85443 1.86374 0
M  V30 7375 H 684.36 -1.26208 2.72051 0
M  V30 7376 H 681.913 -0.623549 1.43323 0
M  V30 7377 H 682.648 -3.10718 0.928685 0
M  V30 7378 H 682.433 -2.85708 2.68539 0
M  V30 7379 H 683.923 -3.62933 2.06566 0
M  V30 7380 N 684.36 -1.4356 -0.65026 0
M  V30 7381 C 685.608 -1.45046 -1.40734 0
M  V30 7382 C 685.929 -0.0769822 -1.94848 0
M  V30 7383 O 685.199 0.888098 -1.74613 0
M  V30 7384 H 683.779 -0.534034 -0.522318 0
M  V30 7385 H 686.441 -1.79186 -0.766703 0
M  V30 7386 H 685.537 -2.16476 -2.24822 0
M  V30 7387 N 685.838 0.888903 -1.30139 0
M  V30 7388 C 687.086 1.63713 -1.18501 0
M  V30 7389 C 687.407 1.9324 0.261399 0
M  V30 7390 O 686.677 1.56608 1.17689 0
M  V30 7391 H 685.257 0.606861 -0.435579 0
M  V30 7392 H 687.919 1.06525 -1.63213 0
M  V30 7393 H 687.015 2.58894 -1.743 0
M  V30 7394 N 687.317 1.12792 1.10072 0
M  V30 7395 C 688.28 0.802264 2.14701 0
M  V30 7396 C 689.28 -0.18515 1.59731 0
M  V30 7397 O 690.47 0.041109 1.74151 0
M  V30 7398 C 687.602 0.19285 3.40354 0
M  V30 7399 H 688.795 1.72932 2.45019 0
M  V30 7400 H 686.348 0.931662 1.25498 0
M  V30 7401 H 687.083 -0.743748 3.15656 0
M  V30 7402 H 686.868 0.903827 3.81541 0
M  V30 7403 H 688.358 -0.0183704 4.17596 0
M  V30 7404 N 688.795 -1.27931 0.920396 0
M  V30 7405 C 690.023 -1.98805 0.573087 0
M  V30 7406 C 690.438 -1.68724 -0.847201 0
M  V30 7407 O 689.795 -0.943699 -1.56207 0
M  V30 7408 C 689.846 -3.52971 0.780633 0
M  V30 7409 O 689.567 -3.81994 2.14504 0
M  V30 7410 C 691.068 -4.411 0.44105 0
M  V30 7411 H 688.288 -0.634651 0.21785 0
M  V30 7412 H 690.832 -1.62965 1.23542 0
M  V30 7413 H 688.987 -3.87048 0.165204 0
M  V30 7414 H 689.401 -4.76609 2.18962 0
M  V30 7415 H 690.875 -5.48312 0.637006 0
M  V30 7416 H 691.352 -4.34758 -0.62306 0
M  V30 7417 H 691.958 -4.12532 1.0343 0
M  V30 7418 N 690.273 -0.685099 -1.4193 0
M  V30 7419 C 691.519 -0.211971 -2.01689 0
M  V30 7420 C 691.852 1.18189 -1.54094 0
M  V30 7421 O 691.127 1.79559 -0.747572 0
M  V30 7422 C 691.41 -0.258019 -3.59174 0
M  V30 7423 C 691.263 -1.68807 -4.16922 0
M  V30 7424 C 692.582 0.388044 -4.38386 0
M  V30 7425 H 689.701 -0.0784987 -0.732808 0
M  V30 7426 H 692.343 -0.871837 -1.68816 0
M  V30 7427 H 690.493 0.303832 -3.8731 0
M  V30 7428 H 692.165 -2.30296 -3.99702 0
M  V30 7429 H 690.408 -2.22553 -3.72361 0
M  V30 7430 H 691.079 -1.6719 -5.26072 0
M  V30 7431 H 693.555 -0.0903432 -4.16002 0
M  V30 7432 H 692.431 0.325232 -5.47936 0
M  V30 7433 H 692.692 1.4672 -4.17044 0
M  V30 7434 N 691.751 1.51645 -0.429126 0
M  V30 7435 C 692.998 2.02015 0.140079 0
M  V30 7436 C 693.326 1.31374 1.43427 0
M  V30 7437 O 692.581 0.414779 1.91254 0
M  V30 7438 C 692.88 3.54989 0.414472 0
M  V30 7439 C 692.546 4.43874 -0.792911 0
M  V30 7440 C 691.208 4.67887 -1.12404 0
M  V30 7441 C 693.56 4.96074 -1.59875 0
M  V30 7442 C 690.888 5.41348 -2.26184 0
M  V30 7443 C 693.24 5.70782 -2.72747 0
M  V30 7444 C 691.904 5.93062 -3.06324 0
M  V30 7445 H 691.174 0.739225 0.0512585 0
M  V30 7446 H 693.821 1.82675 -0.574641 0
M  V30 7447 H 692.126 3.72615 1.21099 0
M  V30 7448 H 693.823 3.91489 0.868173 0
M  V30 7449 H 690.413 4.25374 -0.524871 0
M  V30 7450 H 694.597 4.77412 -1.35614 0
M  V30 7451 H 689.853 5.56815 -2.52522 0
M  V30 7452 H 694.027 6.10221 -3.35564 0
M  V30 7453 H 691.654 6.49764 -3.94602 0
M  V30 7454 N 693.229 0.160201 1.56784 0
M  V30 7455 C 694.64 -0.358417 1.83227 0
M  V30 7456 C 694.991 -1.63831 1.07952 0
M  V30 7457 O 694.116 -2.13885 0.328995 0
M  V30 7458 C 694.711 -0.657058 3.32368 0
M  V30 7459 C 693.27 -1.12015 3.59346 0
M  V30 7460 C 692.417 -0.15015 2.76893 0
M  V30 7461 H 695.368 0.384669 1.53967 0
M  V30 7462 H 695.389 -1.51033 3.49241 0
M  V30 7463 H 694.901 0.274647 3.87127 0
M  V30 7464 H 693.002 -2.06734 3.09987 0
M  V30 7465 H 693.115 -1.037 4.67743 0
M  V30 7466 H 691.479 -0.645361 2.46388 0
M  V30 7467 H 692.262 0.775379 3.34429 0
M  V30 7468 N 694.707 -1.5719 -0.113559 0
M  V30 7469 C 695.984 -1.76117 -0.850999 0
M  V30 7470 C 696.364 -0.737085 -1.97814 0
M  V30 7471 O 695.712 0.237942 -2.27258 0
M  V30 7472 C 695.922 -3.21298 -1.36266 0
M  V30 7473 C 697.27 -3.83955 -1.81283 0
M  V30 7474 O 698.294 -3.24934 -1.45933 0
M  V30 7475 O 697.153 -4.87707 -2.46585 0
M  V30 7476 H 694.247 -0.721308 -0.404529 0
M  V30 7477 H 696.793 -1.69423 -0.0968756 0
M  V30 7478 H 695.565 -3.87355 -0.554235 0
M  V30 7479 H 695.188 -3.32552 -2.17933 0
M  V30 7480 N 696.185 0.383891 -1.52853 0
M  V30 7481 C 697.115 1.47559 -1.80965 0
M  V30 7482 C 698.096 1.5669 -0.661986 0
M  V30 7483 O 699.281 1.71556 -0.910072 0
M  V30 7484 C 696.411 2.85114 -1.98312 0
M  V30 7485 C 695.365 2.9082 -3.14019 0
M  V30 7486 C 694.691 4.30873 -3.16627 0
M  V30 7487 C 695.991 2.60001 -4.52986 0
M  V30 7488 H 697.685 1.24283 -2.72386 0
M  V30 7489 H 695.231 0.596445 -1.31067 0
M  V30 7490 H 697.184 3.61496 -2.16561 0
M  V30 7491 H 695.908 3.09738 -1.03585 0
M  V30 7492 H 694.567 2.16886 -2.9556 0
M  V30 7493 H 694.215 4.52545 -2.19573 0
M  V30 7494 H 693.915 4.3561 -3.94357 0
M  V30 7495 H 695.439 5.09154 -3.37038 0
M  V30 7496 H 696.853 3.261 -4.71521 0
M  V30 7497 H 695.25 2.76081 -5.32822 0
M  V30 7498 H 696.32 1.5532 -4.59351 0
M  V30 7499 N 697.663 1.43903 0.642637 0
M  V30 7500 C 698.911 1.45791 1.39962 0
M  V30 7501 C 699.232 0.0873144 1.94804 0
M  V30 7502 O 698.502 -0.878825 1.75081 0
M  V30 7503 H 697.082 0.536797 0.519479 0
M  V30 7504 H 699.744 1.7959 0.757189 0
M  V30 7505 H 698.84 2.17665 2.2367 0
M  V30 7506 N 699.141 -0.881989 1.30609 0
M  V30 7507 C 700.104 -1.96957 1.1722 0
M  V30 7508 C 701.104 -1.60472 0.102598 0
M  V30 7509 O 702.294 -1.70628 0.350943 0
M  V30 7510 C 699.426 -3.31463 0.796572 0
M  V30 7511 H 700.619 -2.10262 2.13846 0
M  V30 7512 H 698.172 -1.06877 1.14048 0
M  V30 7513 H 698.907 -3.23859 -0.169053 0
M  V30 7514 H 698.692 -3.59314 1.56959 0
M  V30 7515 H 700.182 -4.11233 0.72645 0
M  V30 7516 N 700.619 -1.13374 -1.09472 0
M  V30 7517 C 701.582 -0.813639 -2.14272 0
M  V30 7518 C 702.582 0.176677 -1.59826 0
M  V30 7519 O 703.772 -0.0503441 -1.74127 0
M  V30 7520 C 700.904 -0.210897 -3.40247 0
M  V30 7521 H 702.097 -1.74229 -2.44099 0
M  V30 7522 H 699.65 -0.938304 -1.25002 0
M  V30 7523 H 700.385 0.726998 -3.16046 0
M  V30 7524 H 700.17 -0.924048 -3.81056 0
M  V30 7525 H 701.66 -0.00377603 -4.176 0
M  V30 7526 N 702.098 1.27442 -0.927168 0
M  V30 7527 C 703.347 1.93679 -0.563146 0
M  V30 7528 C 703.66 1.73673 0.899837 0
M  V30 7529 O 704.866 2.34247 1.37262 0
M  V30 7530 C 703.322 3.46961 -0.95636 0
M  V30 7531 C 702.93 3.75724 -2.43999 0
M  V30 7532 C 704.674 4.19282 -0.663565 0
M  V30 7533 C 702.581 5.22378 -2.77263 0
M  V30 7534 H 701.511 0.725059 -0.206894 0
M  V30 7535 H 704.162 1.44743 -1.12791 0
M  V30 7536 H 702.544 3.94703 -0.320254 0
M  V30 7537 H 703.718 3.38741 -3.12396 0
M  V30 7538 H 702.033 3.16605 -2.70463 0
M  V30 7539 H 704.63 5.27265 -0.888596 0
M  V30 7540 H 704.973 4.14382 0.399198 0
M  V30 7541 H 705.506 3.7736 -1.25875 0
M  V30 7542 H 702.245 5.32367 -3.82446 0
M  V30 7543 H 701.765 5.6051 -2.13516 0
M  V30 7544 H 703.444 5.9025 -2.64979 0
M  V30 7545 N 703.576 0.692616 1.41565 0
M  V30 7546 C 704.822 0.231408 2.02079 0
M  V30 7547 C 705.177 -1.15514 1.53864 0
M  V30 7548 O 704.47 -1.76786 0.73873 0
M  V30 7549 C 704.664 0.225073 3.56691 0
M  V30 7550 C 704.493 1.60947 4.19912 0
M  V30 7551 C 703.263 2.2116 4.54331 0
M  V30 7552 C 705.461 2.55553 4.46315 0
M  V30 7553 N 703.443 3.52195 5.02824 0
M  V30 7554 C 704.814 3.71263 4.96552 0
M  V30 7555 C 706.869 2.53857 4.28323 0
M  V30 7556 C 705.572 4.85555 5.30687 0
M  V30 7557 C 707.598 3.67259 4.63546 0
M  V30 7558 C 706.96 4.81699 5.13951 0
M  V30 7559 H 703.059 0.130001 0.771119 0
M  V30 7560 H 705.643 0.909459 1.72154 0
M  V30 7561 H 703.814 -0.422453 3.86096 0
M  V30 7562 H 705.546 -0.250685 4.03923 0
M  V30 7563 H 702.301 1.73474 4.40685 0
M  V30 7564 H 702.725 4.19354 5.3148 0
M  V30 7565 H 707.367 1.66598 3.88594 0
M  V30 7566 H 705.085 5.73477 5.69341 0
M  V30 7567 H 708.671 3.67195 4.51286 0
M  V30 7568 H 707.551 5.67995 5.40695 0
M  V30 7569 N 705.054 -1.51416 0.437162 0
M  V30 7570 C 706.465 -1.86682 -0.0260005 0
M  V30 7571 C 706.816 -1.35432 -1.4196 0
M  V30 7572 O 705.941 -0.705055 -2.04592 0
M  V30 7573 C 706.536 -3.38757 -0.0539577 0
M  V30 7574 C 705.095 -3.7356 -0.461532 0
M  V30 7575 C 704.242 -2.75134 0.345924 0
M  V30 7576 H 707.193 -1.44642 0.653013 0
M  V30 7577 H 707.214 -3.70573 -0.863478 0
M  V30 7578 H 706.726 -3.76028 0.96045 0
M  V30 7579 H 704.827 -3.41878 -1.48155 0
M  V30 7580 H 704.94 -4.78737 -0.186451 0
M  V30 7581 H 703.304 -2.53947 -0.195739 0
M  V30 7582 H 704.087 -3.15247 1.35921 0
M  V30 7583 N 706.532 -0.168513 -1.56696 0
M  V30 7584 C 707.479 0.762875 -2.17828 0
M  V30 7585 C 708.449 1.22892 -1.11745 0
M  V30 7586 O 709.634 1.29759 -1.39883 0
M  V30 7587 C 706.774 1.9879 -2.82093 0
M  V30 7588 C 705.887 1.56568 -4.02629 0
M  V30 7589 C 705.022 2.74416 -4.54829 0
M  V30 7590 C 704.061 2.28671 -5.67782 0
M  V30 7591 N 703.198 3.39602 -6.14504 0
M  V30 7592 H 708.038 0.23479 -2.97074 0
M  V30 7593 H 705.575 0.104163 -1.46731 0
M  V30 7594 H 707.533 2.70636 -3.17509 0
M  V30 7595 H 706.163 2.48973 -2.05456 0
M  V30 7596 H 705.215 0.744067 -3.73052 0
M  V30 7597 H 706.527 1.18988 -4.844 0
M  V30 7598 H 705.681 3.54423 -4.92412 0
M  V30 7599 H 704.42 3.15254 -3.7211 0
M  V30 7600 H 703.425 1.4711 -5.29753 0
M  V30 7601 H 704.65 1.88894 -6.52301 0
M  V30 7602 H 702.596 3.80021 -5.34715 0
M  V30 7603 H 702.513 3.06105 -6.91257 0
M  V30 7604 H 703.781 4.19902 -6.56737 0
M  V30 7605 N 708.01 1.57248 0.105221 0
M  V30 7606 C 708.957 2.01338 1.12835 0
M  V30 7607 C 709.927 0.887897 1.40377 0
M  V30 7608 O 711.112 1.15315 1.5201 0
M  V30 7609 C 708.252 2.43432 2.44611 0
M  V30 7610 C 707.365 3.69457 2.23888 0
M  V30 7611 C 706.5 4.00473 3.48991 0
M  V30 7612 C 705.539 5.19638 3.23485 0
M  V30 7613 N 704.676 5.46457 4.40828 0
M  V30 7614 H 709.516 2.88527 0.745386 0
M  V30 7615 H 707.053 1.42714 0.356535 0
M  V30 7616 H 709.011 2.65879 3.21503 0
M  V30 7617 H 707.641 1.59266 2.80774 0
M  V30 7618 H 706.693 3.54545 1.37847 0
M  V30 7619 H 708.005 4.56497 2.01026 0
M  V30 7620 H 707.159 4.23642 4.34295 0
M  V30 7621 H 705.898 3.11935 3.74897 0
M  V30 7622 H 704.903 4.96299 2.36574 0
M  V30 7623 H 706.128 6.09766 2.98935 0
M  V30 7624 H 704.074 4.60876 4.66829 0
M  V30 7625 H 703.991 6.27849 4.2112 0
M  V30 7626 H 705.259 5.74155 5.27225 0
M  V30 7627 N 709.488 -0.375779 1.53054 0
M  V30 7628 C 710.736 -1.11727 1.68409 0
M  V30 7629 C 711.057 -1.90127 0.43323 0
M  V30 7630 O 710.327 -1.87945 -0.552595 0
M  V30 7631 H 708.907 -0.415451 0.620813 0
M  V30 7632 H 711.569 -0.424869 1.90213 0
M  V30 7633 H 710.665 -1.8128 2.54055 0
M  V30 7634 N 710.966 -1.44241 -0.634997 0
M  V30 7635 C 712.194 -1.50296 -1.42193 0
M  V30 7636 C 712.609 -0.12658 -1.88375 0
M  V30 7637 O 711.966 0.86678 -1.60603 0
M  V30 7638 C 712.017 -2.46437 -2.64482 0
M  V30 7639 O 711.738 -3.78724 -2.20226 0
M  V30 7640 C 713.239 -2.61918 -3.57651 0
M  V30 7641 H 710.459 -0.509865 -0.43621 0
M  V30 7642 H 713.003 -1.89167 -0.776921 0
M  V30 7643 H 711.158 -2.10712 -3.25083 0
M  V30 7644 H 711.572 -4.30595 -2.9948 0
M  V30 7645 H 713.046 -3.33225 -4.40074 0
M  V30 7646 H 713.523 -1.67017 -4.06204 0
M  V30 7647 H 714.129 -2.98528 -3.02921 0
M  V30 7648 N 712.444 0.87505 -1.31075 0
M  V30 7649 C 713.407 1.96333 -1.18263 0
M  V30 7650 C 714.407 1.60416 -0.111106 0
M  V30 7651 O 715.597 1.7044 -0.359987 0
M  V30 7652 C 712.729 3.31036 -0.81414 0
M  V30 7653 H 713.922 2.09125 -2.14958 0
M  V30 7654 H 711.475 1.06271 -1.14614 0
M  V30 7655 H 712.21 3.23944 0.151875 0
M  V30 7656 H 711.995 3.58476 -1.58862 0
M  V30 7657 H 713.485 4.10842 -0.748249 0
M  V30 7658 N 713.922 1.13953 1.08869 0
M  V30 7659 C 715.168 0.906151 1.8143 0
M  V30 7660 C 715.501 -0.566089 1.85766 0
M  V30 7661 O 714.776 -1.41915 1.33006 0
M  V30 7662 C 715.059 1.50183 3.27287 0
M  V30 7663 C 714.912 3.04359 3.31189 0
M  V30 7664 C 716.231 1.17477 4.24131 0
M  V30 7665 H 713.35 0.330624 0.658678 0
M  V30 7666 H 715.992 1.40873 1.27495 0
M  V30 7667 H 714.142 1.07442 3.73348 0
M  V30 7668 H 715.814 3.55896 2.93488 0
M  V30 7669 H 714.057 3.39053 2.70602 0
M  V30 7670 H 714.728 3.41141 4.33966 0
M  V30 7671 H 717.204 1.5442 3.86385 0
M  V30 7672 H 716.08 1.61795 5.24513 0
M  V30 7673 H 716.341 0.0893312 4.4201 0
M  V30 7674 N 715.4 -1.26948 0.933913 0
M  V30 7675 C 716.647 -1.94087 0.577625 0
M  V30 7676 C 716.975 -1.73345 -0.88214 0
M  V30 7677 O 716.23 -1.05945 -1.64542 0
M  V30 7678 C 716.529 -3.46963 0.857406 0
M  V30 7679 C 716.195 -3.87834 2.2999 0
M  V30 7680 C 714.857 -3.98704 2.69423 0
M  V30 7681 C 717.209 -4.08442 3.23766 0
M  V30 7682 C 714.537 -4.27573 4.01744 0
M  V30 7683 C 716.889 -4.38798 4.55675 0
M  V30 7684 C 715.553 -4.47881 4.94934 0
M  V30 7685 H 714.823 -0.710215 0.211368 0
M  V30 7686 H 717.47 -1.50899 1.17905 0
M  V30 7687 H 715.775 -3.91416 0.173369 0
M  V30 7688 H 717.472 -3.97062 0.560615 0
M  V30 7689 H 714.062 -3.79916 1.98399 0
M  V30 7690 H 718.246 -3.99479 2.94499 0
M  V30 7691 H 713.502 -4.32815 4.31834 0
M  V30 7692 H 717.676 -4.5369 5.28335 0
M  V30 7693 H 715.303 -4.70005 5.97495 0
M  V30 7694 N 716.879 -0.700114 -1.41195 0
M  V30 7695 C 718.125 -0.242122 -2.01954 0
M  V30 7696 C 718.48 1.14697 -1.54475 0
M  V30 7697 O 717.773 1.76392 -0.748095 0
M  V30 7698 C 717.967 -0.243986 -3.56566 0
M  V30 7699 C 717.796 -1.63172 -4.19053 0
M  V30 7700 C 716.566 -2.23566 -4.53152 0
M  V30 7701 C 718.764 -2.57916 -4.44954 0
M  V30 7702 N 716.746 -3.54856 -5.00949 0
M  V30 7703 C 718.117 -3.73892 -4.94576 0
M  V30 7704 C 720.172 -2.56125 -4.26971 0
M  V30 7705 C 718.875 -4.88363 -5.28104 0
M  V30 7706 C 720.901 -3.69712 -4.61592 0
M  V30 7707 C 720.263 -4.84418 -5.11389 0
M  V30 7708 H 716.362 -0.134088 -0.770418 0
M  V30 7709 H 718.946 -0.918576 -1.71669 0
M  V30 7710 H 717.117 0.401971 -3.86314 0
M  V30 7711 H 718.849 0.229261 -4.0405 0
M  V30 7712 H 715.604 -1.75809 -4.39759 0
M  V30 7713 H 716.028 -4.22167 -5.29249 0
M  V30 7714 H 720.67 -1.68656 -3.87705 0
M  V30 7715 H 718.388 -5.76488 -5.66292 0
M  V30 7716 H 721.974 -3.69583 -4.49332 0
M  V30 7717 H 720.854 -5.70855 -5.37675 0
M  V30 7718 N 718.357 1.51182 -0.445186 0
M  V30 7719 C 719.587 2.06269 0.116922 0
M  V30 7720 C 719.995 1.31188 1.36332 0
M  V30 7721 O 719.338 0.367067 1.79995 0
M  V30 7722 C 719.4 3.56051 0.496757 0
M  V30 7723 C 719.064 4.52441 -0.64394 0
M  V30 7724 C 720.061 4.97233 -1.5184 0
M  V30 7725 C 717.746 4.95447 -0.826905 0
M  V30 7726 C 719.74 5.83712 -2.56046 0
M  V30 7727 C 717.427 5.81714 -1.87222 0
M  V30 7728 C 718.425 6.25745 -2.73738 0
M  V30 7729 O 718.113 7.10298 -3.76474 0
M  V30 7730 H 717.845 0.675954 0.00785733 0
M  V30 7731 H 720.399 1.95648 -0.625371 0
M  V30 7732 H 718.629 3.64483 1.29187 0
M  V30 7733 H 720.318 3.93618 0.990928 0
M  V30 7734 H 721.084 4.64696 -1.38862 0
M  V30 7735 H 716.963 4.60712 -0.163052 0
M  V30 7736 H 720.507 6.18 -3.23607 0
M  V30 7737 H 716.404 6.13664 -2.00218 0
M  V30 7738 H 717.172 7.28493 -3.73149 0
M  V30 7739 N 719.835 0.176821 1.56605 0
M  V30 7740 C 720.783 -0.768159 2.1955 0
M  V30 7741 C 721.777 -1.23343 1.16116 0
M  V30 7742 O 722.983 -1.19844 1.34303 0
M  V30 7743 H 719.358 -0.266013 0.703378 0
M  V30 7744 H 721.329 -0.213374 2.97636 0
M  V30 7745 C 720.078 -1.98492 2.85475 0
M  V30 7746 H 719.401 -1.63595 3.64797 0
M  V30 7747 H 720.841 -2.62489 3.3298 0
M  V30 7748 C 719.3 -2.81207 1.85538 0
M  V30 7749 O 719.83 -3.7854 1.34427 0
M  V30 7750 N 718.036 -2.46331 1.54173 0
M  V30 7751 H 717.583 -1.67241 1.95929 0
M  V30 7752 H 717.541 -3.01961 0.875595 0
M  V30 7753 N 721.313 -1.57302 -0.09688 0
M  V30 7754 C 722.243 -2.0497 -1.11846 0
M  V30 7755 C 723.224 -0.938278 -1.41882 0
M  V30 7756 O 724.409 -1.20943 -1.51942 0
M  V30 7757 C 721.539 -2.47264 -2.43881 0
M  V30 7758 C 720.493 -3.62053 -2.28257 0
M  V30 7759 C 719.819 -3.90318 -3.65453 0
M  V30 7760 C 721.119 -4.93005 -1.72461 0
M  V30 7761 H 722.813 -2.90567 -0.721888 0
M  V30 7762 H 720.359 -1.39786 -0.345803 0
M  V30 7763 H 722.312 -2.7922 -3.15617 0
M  V30 7764 H 721.036 -1.58664 -2.8547 0
M  V30 7765 H 719.695 -3.30341 -1.58967 0
M  V30 7766 H 719.343 -2.98889 -4.04567 0
M  V30 7767 H 719.043 -4.67597 -3.55846 0
M  V30 7768 H 720.567 -4.24747 -4.3866 0
M  V30 7769 H 721.981 -5.23354 -2.34036 0
M  V30 7770 H 720.378 -5.74436 -1.73618 0
M  V30 7771 H 721.448 -4.80053 -0.683898 0
M  V30 7772 N 722.791 0.367657 -1.53252 0
M  V30 7773 C 723.721 1.45632 -1.8252 0
M  V30 7774 C 724.702 1.55979 -0.678568 0
M  V30 7775 O 725.887 1.70581 -0.928217 0
M  V30 7776 C 723.017 2.82994 -2.01325 0
M  V30 7777 C 721.971 2.87473 -3.17086 0
M  V30 7778 C 721.297 4.2749 -3.21179 0
M  V30 7779 C 722.597 2.55182 -4.55719 0
M  V30 7780 H 724.291 1.21387 -2.73689 0
M  V30 7781 H 721.837 0.58251 -1.31692 0
M  V30 7782 H 723.79 3.59179 -2.20383 0
M  V30 7783 H 722.514 3.08622 -1.06864 0
M  V30 7784 H 721.173 2.13739 -2.97844 0
M  V30 7785 H 720.821 4.5019 -2.24361 0
M  V30 7786 H 720.521 4.31403 -3.98955 0
M  V30 7787 H 722.045 5.0555 -3.42419 0
M  V30 7788 H 723.459 3.21081 -4.74953 0
M  V30 7789 H 721.856 2.70414 -5.3572 0
M  V30 7790 H 722.926 1.5044 -4.60973 0
M  V30 7791 N 724.269 1.44576 0.627338 0
M  V30 7792 C 725.685 1.28546 0.945938 0
M  V30 7793 C 725.885 0.224003 2.00251 0
M  V30 7794 O 724.941 -0.388817 2.49488 0
M  V30 7795 C 726.254 2.65825 1.40561 0
M  V30 7796 C 727.802 2.73566 1.52088 0
M  V30 7797 C 728.277 4.11323 2.01438 0
M  V30 7798 N 729.768 4.13519 2.08702 0
M  V30 7799 C 730.503 5.16964 2.48065 0
M  V30 7800 N 729.999 6.30768 2.86538 0
M  V30 7801 N 731.792 5.04319 2.48232 0
M  V30 7802 H 723.943 2.1228 -0.0713567 0
M  V30 7803 H 726.206 0.947503 0.0307081 0
M  V30 7804 H 725.912 3.44591 0.703539 0
M  V30 7805 H 725.786 2.92969 2.37591 0
M  V30 7806 H 728.173 1.95116 2.21391 0
M  V30 7807 H 728.254 2.50159 0.534237 0
M  V30 7808 H 727.898 4.9025 1.32729 0
M  V30 7809 H 727.828 4.32109 3.0098 0
M  V30 7810 H 730.319 3.31385 1.81638 0
M  V30 7811 H 730.632 7.0551 3.15398 0
M  V30 7812 H 728.977 6.342 2.84281 0
M  V30 7813 H 732.168 4.14465 2.17569 0
M  V30 7814 H 732.341 5.85059 2.78585 0
M  V30 7815 N 725.747 -0.868086 1.31537 0
M  V30 7816 C 726.972 -1.65926 1.24432 0
M  V30 7817 C 727.397 -1.87169 -0.186936 0
M  V30 7818 O 726.755 -1.4148 -1.13371 0
M  V30 7819 C 726.803 -3.00347 1.9956 0
M  V30 7820 O 725.907 -3.90221 1.33422 0
M  V30 7821 H 725.248 -0.506375 0.429512 0
M  V30 7822 H 727.778 -1.0822 1.73637 0
M  V30 7823 H 727.788 -3.50269 2.09226 0
M  V30 7824 H 726.463 -2.84205 3.03645 0
M  V30 7825 H 725.04 -3.48672 1.32219 0
M  V30 7826 N 727.225 -1.14528 -1.08264 0
M  V30 7827 C 728.473 -0.912599 -1.80322 0
M  V30 7828 C 728.794 0.562256 -1.86718 0
M  V30 7829 O 728.064 1.40869 -1.36135 0
M  V30 7830 H 726.644 -0.334645 -0.667849 0
M  V30 7831 H 729.306 -1.44415 -1.30883 0
M  V30 7832 H 728.402 -1.31384 -2.83098 0
M  V30 7833 N 728.703 1.26451 -0.940633 0
M  V30 7834 C 729.613 2.30128 -0.455881 0
M  V30 7835 C 730.629 1.67536 0.469867 0
M  V30 7836 O 731.805 1.98344 0.349529 0
M  V30 7837 C 728.87 3.45634 0.271648 0
M  V30 7838 C 727.931 4.23709 -0.690594 0
M  V30 7839 C 727.164 5.337 0.00231047 0
M  V30 7840 O 727.387 5.57215 1.21935 0
M  V30 7841 O 726.321 5.98091 -0.676111 0
M  V30 7842 H 730.147 2.73655 -1.31707 0
M  V30 7843 H 727.732 1.3164 -0.706497 0
M  V30 7844 H 729.614 4.15853 0.681486 0
M  V30 7845 H 728.289 3.04138 1.10824 0
M  V30 7846 H 727.196 3.55974 -1.15037 0
M  V30 7847 H 728.529 4.68953 -1.49478 0
M  V30 7848 N 730.181 0.707592 1.40822 0
M  V30 7849 C 731.429 0.243189 2.00632 0
M  V30 7850 C 731.75 -1.16512 1.56365 0
M  V30 7851 O 731.02 -1.78841 0.799553 0
M  V30 7852 H 729.6 0.0869203 0.741926 0
M  V30 7853 H 732.262 0.911438 1.72275 0
M  V30 7854 H 731.358 0.270014 3.1093 0
M  V30 7855 N 731.66 -1.50943 0.453197 0
M  V30 7856 C 732.937 -1.94872 -0.168633 0
M  V30 7857 C 733.317 -1.39272 -1.5864 0
M  V30 7858 O 732.665 -0.586272 -2.20851 0
M  V30 7859 C 732.875 -3.48757 -0.130217 0
M  V30 7860 C 734.223 -4.23331 -0.327975 0
M  V30 7861 O 735.247 -3.55594 -0.207619 0
M  V30 7862 O 734.106 -5.43529 -0.569077 0
M  V30 7863 H 731.2 -0.818042 -0.121394 0
M  V30 7864 H 733.746 -1.61782 0.512316 0
M  V30 7865 H 732.518 -3.81725 0.860346 0
M  V30 7866 H 732.141 -3.88333 -0.853397 0
M  V30 7867 N 733.138 -0.185124 -1.56509 0
M  V30 7868 C 734.368 0.461469 -2.0138 0
M  V30 7869 C 734.776 1.56417 -1.06445 0
M  V30 7870 O 734.119 1.83603 -0.0597515 0
M  V30 7871 C 734.181 1.08731 -3.42663 0
M  V30 7872 C 733.845 0.124581 -4.5683 0
M  V30 7873 C 734.842 -0.662295 -5.15664 0
M  V30 7874 C 732.527 0.0163947 -5.02297 0
M  V30 7875 C 734.521 -1.54442 -6.18406 0
M  V30 7876 C 732.208 -0.869301 -6.04885 0
M  V30 7877 C 733.206 -1.64828 -6.62813 0
M  V30 7878 O 732.894 -2.51915 -7.63409 0
M  V30 7879 H 732.626 0.1212 -0.665046 0
M  V30 7880 H 735.18 -0.288119 -2.03369 0
M  V30 7881 H 733.41 1.8853 -3.37629 0
M  V30 7882 H 735.099 1.63753 -3.71403 0
M  V30 7883 H 735.865 -0.588963 -4.81411 0
M  V30 7884 H 731.744 0.61253 -4.56913 0
M  V30 7885 H 735.288 -2.15289 -6.63548 0
M  V30 7886 H 731.185 -0.943786 -6.38563 0
M  V30 7887 H 731.953 -2.45584 -7.80789 0
M  V30 7888 N 734.616 1.57351 0.0885366 0
M  V30 7889 C 736.032 1.53331 0.442916 0
M  V30 7890 C 736.232 0.902831 1.80142 0
M  V30 7891 O 735.288 0.498147 2.47537 0
M  V30 7892 C 736.601 2.98036 0.399372 0
M  V30 7893 C 738.149 3.09286 0.480759 0
M  V30 7894 C 738.624 4.5561 0.467296 0
M  V30 7895 N 740.115 4.60182 0.52786 0
M  V30 7896 C 740.85 5.70857 0.539388 0
M  V30 7897 N 740.346 6.90944 0.506729 0
M  V30 7898 N 742.139 5.59051 0.584691 0
M  V30 7899 H 734.29 1.96709 -0.801215 0
M  V30 7900 H 736.553 0.899639 -0.298922 0
M  V30 7901 H 736.259 3.47656 -0.531806 0
M  V30 7902 H 736.133 3.57066 1.21589 0
M  V30 7903 H 738.52 2.5965 1.40236 0
M  V30 7904 H 738.601 2.53197 -0.364023 0
M  V30 7905 H 738.245 5.05899 -0.450384 0
M  V30 7906 H 738.175 5.09544 1.32938 0
M  V30 7907 H 740.666 3.73757 0.558028 0
M  V30 7908 H 740.979 7.71055 0.518989 0
M  V30 7909 H 739.324 6.93384 0.473675 0
M  V30 7910 H 742.515 4.64138 0.607781 0
M  V30 7911 H 742.688 6.45307 0.590206 0
M  V30 7912 N 736.094 -0.359525 1.53444 0
M  V30 7913 C 737.322 -1.12198 1.73837 0
M  V30 7914 C 737.737 -1.82854 0.470107 0
M  V30 7915 O 737.094 -1.73781 -0.557349 0
M  V30 7916 C 737.145 -2.14769 2.90786 0
M  V30 7917 O 736.866 -1.46989 4.12706 0
M  V30 7918 C 738.367 -3.03514 3.231 0
M  V30 7919 H 735.587 -0.33524 0.581253 0
M  V30 7920 H 738.131 -0.416598 2.00212 0
M  V30 7921 H 736.286 -2.80896 2.66788 0
M  V30 7922 H 736.7 -2.15378 4.78239 0
M  V30 7923 H 738.174 -3.71453 4.08322 0
M  V30 7924 H 738.651 -3.68658 2.38721 0
M  V30 7925 H 739.257 -2.42996 3.49046 0
M  V30 7926 N 737.572 -1.44907 -0.619662 0
M  V30 7927 C 738.988 -1.29046 -0.939107 0
M  V30 7928 C 739.188 -0.23462 -2.00129 0
M  V30 7929 O 738.244 0.37558 -2.49691 0
M  V30 7930 C 739.557 -2.66567 -1.39149 0
M  V30 7931 C 741.105 -2.74368 -1.50635 0
M  V30 7932 C 741.58 -4.12386 -1.99253 0
M  V30 7933 N 743.071 -4.1462 -2.06506 0
M  V30 7934 C 743.806 -5.18272 -2.4532 0
M  V30 7935 N 743.302 -6.32278 -2.83189 0
M  V30 7936 N 745.095 -5.05628 -2.45554 0
M  V30 7937 H 737.246 -2.12239 0.0826135 0
M  V30 7938 H 739.509 -0.947652 -0.0256829 0
M  V30 7939 H 739.215 -3.4496 -0.685254 0
M  V30 7940 H 739.089 -2.94224 -2.36034 0
M  V30 7941 H 741.476 -1.96287 -2.20353 0
M  V30 7942 H 741.557 -2.50439 -0.520963 0
M  V30 7943 H 741.201 -4.90947 -1.30127 0
M  V30 7944 H 741.131 -4.33699 -2.98684 0
M  V30 7945 H 743.622 -3.32343 -1.79878 0
M  V30 7946 H 743.935 -7.07172 -3.11652 0
M  V30 7947 H 742.28 -6.35699 -2.80913 0
M  V30 7948 H 745.471 -4.15613 -2.15367 0
M  V30 7949 H 745.644 -5.86529 -2.75478 0
M  V30 7950 N 739.05 0.861098 -1.31996 0
M  V30 7951 C 740 1.95703 -1.1698 0
M  V30 7952 C 740.984 1.60709 -0.0784201 0
M  V30 7953 O 742.176 1.74365 -0.304262 0
M  V30 7954 C 739.305 3.31606 -0.888388 0
M  V30 7955 C 738.391 3.7284 -2.02117 0
M  V30 7956 N 738.782 3.85957 -3.26911 0
M  V30 7957 C 737.08 4.02419 -1.92289 0
M  V30 7958 C 737.781 4.21333 -4.01065 0
M  V30 7959 N 736.757 4.32502 -3.29307 0
M  V30 7960 H 740.559 2.03968 -2.11599 0
M  V30 7961 H 738.073 1.05245 -1.23682 0
M  V30 7962 H 740.07 4.09881 -0.761782 0
M  V30 7963 H 738.73 3.24662 0.0494898 0
M  V30 7964 H 739.741 3.70449 -3.61923 0
M  V30 7965 H 736.418 4.03814 -1.06022 0
M  V30 7966 H 737.808 4.39005 -5.08649 0
M  V30 7967 N 740.528 1.15101 1.07655 0
M  V30 7968 C 741.491 0.847625 2.12951 0
M  V30 7969 C 742.491 -0.151227 1.60087 0
M  V30 7970 O 743.681 0.0780399 1.74025 0
M  V30 7971 C 740.813 0.265 3.39868 0
M  V30 7972 H 742.006 1.7809 2.41296 0
M  V30 7973 H 739.559 0.958072 1.23494 0
M  V30 7974 H 740.294 -0.676625 3.17163 0
M  V30 7975 H 740.079 0.984554 3.79538 0
M  V30 7976 H 741.569 0.0702121 4.17541 0
M  V30 7977 N 742.006 -1.2595 0.947325 0
M  V30 7978 C 742.969 -2.24407 0.466285 0
M  V30 7979 C 743.969 -1.55054 -0.426005 0
M  V30 7980 O 745.159 -1.7275 -0.224319 0
M  V30 7981 C 742.291 -3.39326 -0.327201 0
M  V30 7982 H 743.484 -2.68477 1.33642 0
M  V30 7983 H 741.037 -1.38211 0.729887 0
M  V30 7984 H 741.772 -3.00667 -1.21532 0
M  V30 7985 H 741.557 -3.9085 0.312839 0
M  V30 7986 H 743.047 -4.12455 -0.653477 0
M  V30 7987 N 743.484 -0.715051 -1.40445 0
M  V30 7988 C 744.724 -0.258742 -2.02756 0
M  V30 7989 C 745.088 1.12661 -1.55472 0
M  V30 7990 O 746.289 1.67988 -2.09842 0
M  V30 7991 C 744.56 -0.335201 -3.55825 0
M  V30 7992 S 746.119 0.044201 -4.38778 0
M  V30 7993 H 742.937 -0.102683 -0.703546 0
M  V30 7994 H 745.539 -0.937151 -1.71574 0
M  V30 7995 H 744.243 -1.34511 -3.87731 0
M  V30 7996 H 743.774 0.361705 -3.91734 0
M  V30 7997 H 745.789 1.26639 -4.79768 0
M  V30 7998 N 744.962 1.50701 -0.461195 0
M  V30 7999 C 746.373 1.867 -0.00370227 0
M  V30 8000 C 746.724 1.37673 1.39787 0
M  V30 8001 O 745.849 0.737515 2.03445 0
M  V30 8002 C 746.444 3.388 5.75786e-05 0
M  V30 8003 C 745.003 3.74247 0.402044 0
M  V30 8004 C 744.15 2.74549 -0.389652 0
M  V30 8005 H 747.101 1.43585 -0.675942 0
M  V30 8006 H 747.122 3.719 0.804414 0
M  V30 8007 H 746.634 3.74452 -1.02015 0
M  V30 8008 H 744.735 3.44192 1.42697 0
M  V30 8009 H 744.848 4.78973 0.110265 0
M  V30 8010 H 743.212 2.54226 0.155314 0
M  V30 8011 H 743.995 3.13044 -1.40919 0
M  V30 8012 N 746.441 0.193421 1.56409 0
M  V30 8013 C 747.687 -0.446449 1.97825 0
M  V30 8014 C 748.02 -1.61386 1.08019 0
M  V30 8015 O 747.295 -1.94053 0.131839 0
M  V30 8016 C 747.578 -0.908199 3.48459 0
M  V30 8017 C 747.431 0.260914 4.49043 0
M  V30 8018 C 748.75 -1.77428 4.0275 0
M  V30 8019 H 745.869 -0.160807 0.719243 0
M  V30 8020 H 748.511 0.284006 1.87865 0
M  V30 8021 H 746.661 -1.53062 3.57077 0
M  V30 8022 H 748.333 0.898548 4.52464 0
M  V30 8023 H 746.576 0.912949 4.24085 0
M  V30 8024 H 747.247 -0.104657 5.51901 0
M  V30 8025 H 749.723 -1.24936 3.96901 0
M  V30 8026 H 748.599 -2.06633 5.08521 0
M  V30 8027 H 748.86 -2.72788 3.47907 0
M  V30 8028 N 747.919 -1.57396 -0.0801906 0
M  V30 8029 C 748.849 -2.06145 -1.09665 0
M  V30 8030 C 749.83 -0.953273 -1.40878 0
M  V30 8031 O 751.015 -1.22548 -1.50651 0
M  V30 8032 C 748.145 -2.49836 -2.41245 0
M  V30 8033 C 747.099 -3.64454 -2.24405 0
M  V30 8034 C 746.425 -3.94172 -3.61293 0
M  V30 8035 C 747.725 -4.94807 -1.67223 0
M  V30 8036 H 749.419 -2.91316 -0.691028 0
M  V30 8037 H 746.965 -1.40145 -0.330957 0
M  V30 8038 H 748.918 -2.82552 -3.12638 0
M  V30 8039 H 747.642 -1.61683 -2.83771 0
M  V30 8040 H 746.301 -3.32008 -1.55454 0
M  V30 8041 H 745.949 -3.03163 -4.01374 0
M  V30 8042 H 745.649 -4.71345 -3.50867 0
M  V30 8043 H 747.173 -4.29376 -4.3413 0
M  V30 8044 H 748.587 -5.25807 -2.28472 0
M  V30 8045 H 746.984 -5.76245 -1.67515 0
M  V30 8046 H 748.054 -4.80751 -0.632944 0
M  V30 8047 N 749.397 0.351382 -1.53633 0
M  V30 8048 C 750.643 1.09411 -1.70754 0
M  V30 8049 C 750.976 1.88544 -0.465293 0
M  V30 8050 O 750.251 1.86923 0.537608 0
M  V30 8051 C 750.534 2.04173 -2.96623 0
M  V30 8052 C 750.387 1.28556 -4.31038 0
M  V30 8053 C 751.706 3.04102 -3.18136 0
M  V30 8054 H 748.825 0.396373 -0.621335 0
M  V30 8055 H 751.467 0.373464 -1.86293 0
M  V30 8056 H 749.617 2.65625 -2.83506 0
M  V30 8057 H 751.289 0.697786 -4.55992 0
M  V30 8058 H 749.532 0.587498 -4.29803 0
M  V30 8059 H 750.203 1.97989 -5.15271 0
M  V30 8060 H 752.679 2.5276 -3.30532 0
M  V30 8061 H 751.555 3.67616 -4.07615 0
M  V30 8062 H 751.816 3.75053 -2.34068 0
M  V30 8063 N 750.875 1.45233 0.611969 0
M  V30 8064 C 752.123 1.48727 1.36838 0
M  V30 8065 C 752.444 0.128616 1.94575 0
M  V30 8066 O 751.714 -0.84149 1.76906 0
M  V30 8067 H 750.294 0.547695 0.507976 0
M  V30 8068 H 752.956 1.81156 0.718925 0
M  V30 8069 H 752.052 2.2236 2.19003 0
M  V30 8070 N 752.353 -0.854086 1.3245 0
M  V30 8071 C 753.593 -1.62216 1.2436 0
M  V30 8072 C 753.957 -1.91042 -0.191564 0
M  V30 8073 O 755.158 -2.65864 -0.396211 0
M  V30 8074 C 753.429 -2.9066 2.0797 0
M  V30 8075 S 754.988 -3.81438 2.16911 0
M  V30 8076 H 751.806 -0.556386 0.442669 0
M  V30 8077 H 754.408 -1.01139 1.67305 0
M  V30 8078 H 753.112 -2.6743 3.11302 0
M  V30 8079 H 752.643 -3.56753 1.65805 0
M  V30 8080 H 754.658 -4.78347 1.31903 0
M  V30 8081 N 753.831 -1.1567 -1.07043 0
M  V30 8082 C 754.778 -0.856336 -2.14326 0
M  V30 8083 C 755.748 0.192051 -1.64986 0
M  V30 8084 O 756.933 0.0589148 -1.90709 0
M  V30 8085 C 754.073 -0.355227 -3.43267 0
M  V30 8086 C 753.186 -1.46555 -4.06381 0
M  V30 8087 C 752.321 -0.920245 -5.23168 0
M  V30 8088 C 751.36 -2.00729 -5.78251 0
M  V30 8089 N 750.497 -1.47813 -6.86364 0
M  V30 8090 H 755.337 -1.77514 -2.39359 0
M  V30 8091 H 752.874 -0.885676 -1.17449 0
M  V30 8092 H 754.832 -0.0463804 -4.17174 0
M  V30 8093 H 753.462 0.526649 -3.18475 0
M  V30 8094 H 752.514 -1.89052 -3.30096 0
M  V30 8095 H 753.826 -2.28616 -4.43324 0
M  V30 8096 H 752.98 -0.564127 -6.04072 0
M  V30 8097 H 751.719 -0.0688477 -4.87651 0
M  V30 8098 H 750.724 -2.3722 -4.95991 0
M  V30 8099 H 751.949 -2.86252 -6.15822 0
M  V30 8100 H 749.895 -0.649145 -6.5278 0
M  V30 8101 H 749.812 -2.23498 -7.22208 0
M  V30 8102 H 751.08 -1.15036 -7.70965 0
M  V30 8103 N 755.309 1.25446 -0.953992 0
M  V30 8104 C 756.555 1.93756 -0.618888 0
M  V30 8105 C 756.91 1.73344 0.83484 0
M  V30 8106 O 756.203 1.06753 1.59105 0
M  V30 8107 C 756.397 3.45555 -0.912496 0
M  V30 8108 C 756.226 3.8073 -2.39321 0
M  V30 8109 C 754.996 4.02819 -3.05065 0
M  V30 8110 C 757.194 3.88286 -3.37251 0
M  V30 8111 N 755.176 4.24981 -4.43017 0
M  V30 8112 C 756.547 4.1513 -4.60507 0
M  V30 8113 C 758.602 3.70965 -3.32099 0
M  V30 8114 C 757.305 4.26454 -5.79249 0
M  V30 8115 C 759.331 3.83528 -4.50178 0
M  V30 8116 C 758.693 4.10783 -5.72221 0
M  V30 8117 H 754.792 0.731271 -0.277069 0
M  V30 8118 H 757.376 1.5125 -1.22604 0
M  V30 8119 H 755.547 3.86959 -0.334284 0
M  V30 8120 H 757.279 4.01117 -0.537362 0
M  V30 8121 H 754.034 3.9868 -2.55639 0
M  V30 8122 H 754.458 4.4007 -5.14459 0
M  V30 8123 H 759.1 3.4891 -2.38791 0
M  V30 8124 H 756.818 4.47325 -6.72998 0
M  V30 8125 H 760.404 3.71513 -4.47738 0
M  V30 8126 H 759.284 4.20285 -6.62065 0
M  V30 8127 N 756.787 0.722489 1.40064 0
M  V30 8128 C 758.033 0.265371 2.01056 0
M  V30 8129 C 758.366 -1.14062 1.57174 0
M  V30 8130 O 757.641 -1.77514 0.794916 0
M  V30 8131 C 757.924 0.353157 3.58364 0
M  V30 8132 C 757.777 1.79802 4.123 0
M  V30 8133 C 759.096 -0.271677 4.39261 0
M  V30 8134 H 756.215 0.0979002 0.730469 0
M  V30 8135 H 758.857 0.916289 1.66446 0
M  V30 8136 H 757.007 -0.201037 3.87979 0
M  V30 8137 H 758.679 2.40813 3.93455 0
M  V30 8138 H 756.922 2.32348 3.66329 0
M  V30 8139 H 757.593 1.81079 5.21454 0
M  V30 8140 H 760.069 0.200607 4.15616 0
M  V30 8141 H 758.945 -0.179843 5.48605 0
M  V30 8142 H 759.206 -1.35611 4.20787 0
M  V30 8143 N 758.265 -1.50454 0.469181 0
M  V30 8144 C 759.49 -2.0722 -0.0864892 0
M  V30 8145 C 759.915 -1.33098 -1.32916 0
M  V30 8146 O 759.273 -0.378084 -1.77314 0
M  V30 8147 C 759.321 -3.58845 -0.355384 0
M  V30 8148 O 758.425 -3.86583 -1.43622 0
M  V30 8149 H 757.766 -0.663889 0.0121414 0
M  V30 8150 H 760.296 -1.93674 0.659674 0
M  V30 8151 H 760.306 -4.03617 -0.596447 0
M  V30 8152 H 758.981 -4.12211 0.552698 0
M  V30 8153 H 757.558 -3.5365 -1.18262 0
M  V30 8154 N 759.743 -0.201713 -1.56304 0
M  V30 8155 C 760.691 0.733133 -2.20744 0
M  V30 8156 C 761.685 1.2148 -1.18064 0
M  V30 8157 O 762.891 1.17692 -1.36193 0
M  V30 8158 H 759.266 0.254789 -0.707521 0
M  V30 8159 H 761.237 0.165996 -2.97938 0
M  V30 8160 C 759.986 1.93925 -2.88597 0
M  V30 8161 H 759.309 1.5777 -3.67353 0
M  V30 8162 H 760.749 2.57158 -3.37114 0
M  V30 8163 C 759.208 2.78219 -1.89989 0
M  V30 8164 O 759.738 3.76353 -1.40432 0
M  V30 8165 N 757.944 2.43847 -1.58072 0
M  V30 8166 H 757.491 1.64103 -1.98565 0
M  V30 8167 H 757.449 3.0053 -0.923524 0
M  V30 8168 N 761.222 1.57436 0.0718424 0
M  V30 8169 C 762.169 2.03686 1.08539 0
M  V30 8170 C 763.139 0.917474 1.38462 0
M  V30 8171 O 764.324 1.18513 1.4953 0
M  V30 8172 C 761.464 2.48566 2.39393 0
M  V30 8173 C 760.577 3.74122 2.16001 0
M  V30 8174 C 759.712 4.07786 3.40418 0
M  V30 8175 C 758.751 5.26383 3.1239 0
M  V30 8176 N 757.888 5.55685 4.29138 0
M  V30 8177 H 762.728 2.90043 0.684018 0
M  V30 8178 H 760.265 1.43438 0.326183 0
M  V30 8179 H 762.223 2.72639 3.15791 0
M  V30 8180 H 760.853 1.65186 2.77333 0
M  V30 8181 H 759.905 3.57389 1.30296 0
M  V30 8182 H 761.217 4.60659 1.91298 0
M  V30 8183 H 760.371 4.32759 4.25211 0
M  V30 8184 H 759.11 3.19817 3.68197 0
M  V30 8185 H 758.115 5.01206 2.25993 0
M  V30 8186 H 759.34 6.1597 2.85934 0
M  V30 8187 H 757.286 4.70675 4.56948 0
M  V30 8188 H 757.203 6.3664 4.07708 0
M  V30 8189 H 758.471 5.85209 5.14928 0
M  V30 8190 N 762.7 -0.34323 1.53817 0
M  V30 8191 C 763.946 -1.08137 1.72273 0
M  V30 8192 C 764.301 -1.86311 0.480201 0
M  V30 8193 O 763.594 -1.84204 -0.527192 0
M  V30 8194 C 763.788 -2.05195 2.92626 0
M  V30 8195 C 763.617 -1.36561 4.28464 0
M  V30 8196 C 762.387 -1.11033 4.9295 0
M  V30 8197 C 764.585 -0.791663 5.0817 0
M  V30 8198 N 762.567 -0.389839 6.12661 0
M  V30 8199 C 763.938 -0.201742 6.19672 0
M  V30 8200 C 765.993 -0.692541 4.9306 0
M  V30 8201 C 764.696 0.477661 7.17712 0
M  V30 8202 C 766.722 -0.0268775 5.91394 0
M  V30 8203 C 766.084 0.552072 7.02233 0
M  V30 8204 H 762.183 -0.380078 0.683421 0
M  V30 8205 H 764.767 -0.364925 1.9125 0
M  V30 8206 H 762.938 -2.74131 2.75149 0
M  V30 8207 H 764.67 -2.7185 2.99799 0
M  V30 8208 H 761.425 -1.39752 4.52511 0
M  V30 8209 H 761.849 -0.0443076 6.76986 0
M  V30 8210 H 766.491 -1.12589 4.07534 0
M  V30 8211 H 764.209 0.922895 8.02813 0
M  V30 8212 H 767.795 0.0491921 5.81779 0
M  V30 8213 H 766.675 1.05899 7.77017 0
M  V30 8214 N 764.178 -1.45556 -0.604258 0
M  V30 8215 C 765.425 -1.49746 -1.36317 0
M  V30 8216 C 765.753 -0.140516 -1.93992 0
M  V30 8217 O 765.008 0.861244 -1.7573 0
M  V30 8218 C 765.307 -2.52697 -2.52743 0
M  V30 8219 C 764.973 -3.97315 -2.13195 0
M  V30 8220 C 763.635 -4.36692 -2.02123 0
M  V30 8221 C 765.987 -4.88249 -1.8238 0
M  V30 8222 C 763.315 -5.64895 -1.58463 0
M  V30 8223 C 765.667 -6.16867 -1.40205 0
M  V30 8224 C 764.331 -6.55172 -1.27694 0
M  V30 8225 H 763.601 -0.54796 -0.49882 0
M  V30 8226 H 766.248 -1.7892 -0.682643 0
M  V30 8227 H 764.553 -2.17105 -3.26148 0
M  V30 8228 H 766.25 -2.53176 -3.10971 0
M  V30 8229 H 762.84 -3.66176 -2.22739 0
M  V30 8230 H 767.024 -4.58561 -1.89829 0
M  V30 8231 H 762.28 -5.93365 -1.47402 0
M  V30 8232 H 766.454 -6.86771 -1.15408 0
M  V30 8233 H 764.081 -7.54411 -0.936375 0
M  V30 8234 N 765.656 0.84705 -1.32902 0
M  V30 8235 C 766.606 1.94451 -1.19049 0
M  V30 8236 C 767.59 1.60617 -0.095461 0
M  V30 8237 O 768.782 1.74033 -0.322739 0
M  V30 8238 C 765.911 3.30645 -0.923509 0
M  V30 8239 C 764.997 3.70675 -2.0606 0
M  V30 8240 N 765.388 3.82468 -3.30986 0
M  V30 8241 C 763.686 4.00357 -1.96547 0
M  V30 8242 C 764.387 4.17056 -4.05511 0
M  V30 8243 N 763.363 4.28985 -3.33876 0
M  V30 8244 H 767.165 2.01713 -2.1375 0
M  V30 8245 H 764.679 1.03928 -1.24791 0
M  V30 8246 H 766.676 4.0905 -0.805212 0
M  V30 8247 H 765.336 3.24697 0.0150523 0
M  V30 8248 H 766.347 3.66589 -3.65832 0
M  V30 8249 H 763.024 4.02666 -1.10299 0
M  V30 8250 H 764.414 4.33585 -5.13277 0
M  V30 8251 N 767.134 1.16236 1.06428 0
M  V30 8252 C 768.044 0.881976 2.1739 0
M  V30 8253 C 769.06 -0.145259 1.73393 0
M  V30 8254 O 770.236 0.0310558 2.01376 0
M  V30 8255 C 767.301 0.385496 3.4455 0
M  V30 8256 C 766.362 1.47779 4.03063 0
M  V30 8257 C 765.595 1.0049 5.24154 0
M  V30 8258 O 765.818 -0.145889 5.70213 0
M  V30 8259 O 764.752 1.79265 5.74585 0
M  V30 8260 H 768.578 1.80983 2.43883 0
M  V30 8261 H 766.163 0.942226 1.15942 0
M  V30 8262 H 768.045 0.115536 4.21242 0
M  V30 8263 H 766.72 -0.514369 3.19587 0
M  V30 8264 H 765.627 1.80147 3.27869 0
M  V30 8265 H 766.96 2.35291 4.32318 0
M  V30 8266 N 768.612 -1.24939 0.960631 0
M  V30 8267 C 770.028 -1.45039 0.666018 0
M  V30 8268 C 770.228 -1.86021 -0.774501 0
M  V30 8269 O 769.284 -1.99392 -1.54916 0
M  V30 8270 C 770.597 -2.51775 1.64408 0
M  V30 8271 C 772.145 -2.6561 1.65592 0
M  V30 8272 C 772.62 -3.75536 2.62177 0
M  V30 8273 N 774.111 -3.82954 2.60577 0
M  V30 8274 C 774.846 -4.67517 3.31987 0
M  V30 8275 N 774.342 -5.56321 4.1289 0
M  V30 8276 N 776.135 -4.61535 3.20845 0
M  V30 8277 H 768.286 -0.96632 1.89145 0
M  V30 8278 H 770.549 -0.486034 0.813926 0
M  V30 8279 H 770.255 -2.28534 2.67329 0
M  V30 8280 H 770.129 -3.49804 1.41128 0
M  V30 8281 H 772.516 -2.88212 0.633846 0
M  V30 8282 H 772.597 -1.67962 1.92931 0
M  V30 8283 H 772.241 -3.53684 3.64514 0
M  V30 8284 H 772.171 -4.72682 2.32119 0
M  V30 8285 H 774.662 -3.19478 2.01847 0
M  V30 8286 H 774.975 -6.17787 4.64283 0
M  V30 8287 H 773.32 -5.5601 4.16987 0
M  V30 8288 H 776.511 -3.91169 2.57108 0
M  V30 8289 H 776.684 -5.27214 3.76762 0
M  V30 8290 N 770.09 -0.729906 -1.39679 0
M  V30 8291 C 771.338 -0.275077 -2.00219 0
M  V30 8292 C 771.659 1.1401 -1.58199 0
M  V30 8293 O 770.929 1.77546 -0.827904 0
M  V30 8294 H 769.509 -0.0987127 -0.740449 0
M  V30 8295 H 772.171 -0.93873 -1.70804 0
M  V30 8296 H 771.267 -0.319446 -3.10461 0
M  V30 8297 N 771.568 1.50203 -0.477153 0
M  V30 8298 C 772.5 2.26508 0.350239 0
M  V30 8299 C 773.513 1.32081 0.95176 0
M  V30 8300 O 774.702 1.57546 0.839139 0
M  V30 8301 C 771.802 3.0361 1.50579 0
M  V30 8302 C 770.975 4.25438 1.01595 0
M  V30 8303 C 770.034 4.84783 2.04626 0
M  V30 8304 O 769.06 5.45528 1.62442 0
M  V30 8305 N 770.262 4.72318 3.37485 0
M  V30 8306 H 773.027 2.98155 -0.30394 0
M  V30 8307 H 770.588 1.58938 -0.308289 0
M  V30 8308 H 772.58 3.4019 2.1921 0
M  V30 8309 H 771.15 2.34724 2.06455 0
M  V30 8310 H 770.37 3.93894 0.155316 0
M  V30 8311 H 771.658 5.04413 0.666694 0
M  V30 8312 H 771.056 4.24022 3.74462 0
M  V30 8313 H 769.613 5.13149 4.01897 0
M  V30 8314 N 773.046 0.209999 1.56195 0
M  V30 8315 C 773.956 -0.716459 2.23392 0
M  V30 8316 C 774.972 -1.22291 1.23778 0
M  V30 8317 O 776.148 -1.26694 1.56558 0
M  V30 8318 C 773.213 -1.91261 2.89172 0
M  V30 8319 C 772.274 -1.44927 4.04097 0
M  V30 8320 C 771.507 -2.5884 4.66731 0
M  V30 8321 O 771.73 -3.76693 4.2832 0
M  V30 8322 O 770.664 -2.30701 5.55932 0
M  V30 8323 H 774.49 -0.174089 3.03201 0
M  V30 8324 H 772.075 -0.0199505 1.49387 0
M  V30 8325 H 773.957 -2.6114 3.30733 0
M  V30 8326 H 772.632 -2.4433 2.12331 0
M  V30 8327 H 771.539 -0.718839 3.67129 0
M  V30 8328 H 772.872 -0.965084 4.82646 0
M  V30 8329 N 774.524 -1.57472 -0.0634922 0
M  V30 8330 C 775.771 -1.87654 -0.761066 0
M  V30 8331 C 776.099 -0.802847 -1.77157 0
M  V30 8332 O 775.354 0.200244 -1.94673 0
M  V30 8333 C 775.653 -3.24521 -1.49736 0
M  V30 8334 C 775.319 -4.46532 -0.626065 0
M  V30 8335 C 773.981 -4.7965 -0.385978 0
M  V30 8336 C 776.333 -5.21195 -0.0224001 0
M  V30 8337 C 773.661 -5.84837 0.467118 0
M  V30 8338 C 776.013 -6.27286 0.818198 0
M  V30 8339 C 774.677 -6.58899 1.06808 0
M  V30 8340 H 773.947 -0.686675 -0.278494 0
M  V30 8341 H 776.594 -1.91488 -0.0216348 0
M  V30 8342 H 774.899 -3.16516 -2.30921 0
M  V30 8343 H 776.596 -3.45111 -2.04204 0
M  V30 8344 H 773.186 -4.20618 -0.823325 0
M  V30 8345 H 777.37 -4.95917 -0.194985 0
M  V30 8346 H 772.626 -6.07725 0.669375 0
M  V30 8347 H 776.8 -6.84298 1.29265 0
M  V30 8348 H 774.427 -7.40233 1.73088 0
M  V30 8349 N 776.003 0.335068 -1.53997 0
M  V30 8350 C 776.933 1.41727 -1.85568 0
M  V30 8351 C 777.914 1.54505 -0.7115 0
M  V30 8352 O 779.099 1.68573 -0.964191 0
M  V30 8353 C 776.229 2.7866 -2.07282 0
M  V30 8354 C 775.183 2.80682 -3.23112 0
M  V30 8355 C 774.509 4.20581 -3.30175 0
M  V30 8356 C 775.809 2.45458 -4.61029 0
M  V30 8357 H 777.503 1.15555 -2.76202 0
M  V30 8358 H 775.049 0.554445 -1.32898 0
M  V30 8359 H 777.002 3.54423 -2.27952 0
M  V30 8360 H 775.726 3.06286 -1.13387 0
M  V30 8361 H 774.385 2.07373 -3.02311 0
M  V30 8362 H 774.033 4.4533 -2.33859 0
M  V30 8363 H 773.733 4.22843 -4.08016 0
M  V30 8364 H 775.257 4.98174 -3.53066 0
M  V30 8365 H 776.671 3.10934 -4.81656 0
M  V30 8366 H 775.068 2.5899 -5.41336 0
M  V30 8367 H 776.138 1.40628 -4.6406 0
M  V30 8368 N 777.481 1.45874 0.596531 0
M  V30 8369 C 778.897 1.30524 0.918459 0
M  V30 8370 C 779.097 0.266429 1.99731 0
M  V30 8371 O 778.153 -0.335809 2.50257 0
M  V30 8372 C 779.466 2.68747 1.3489 0
M  V30 8373 C 781.014 2.7673 1.46251 0
M  V30 8374 C 781.489 4.15504 1.92667 0
M  V30 8375 N 782.98 4.17853 1.99883 0
M  V30 8376 C 783.715 5.22109 2.37044 0
M  V30 8377 N 783.211 6.36704 2.73094 0
M  V30 8378 N 785.004 5.09471 2.37479 0
M  V30 8379 H 777.155 2.12081 -0.116368 0
M  V30 8380 H 779.418 0.947941 0.0106033 0
M  V30 8381 H 779.124 3.46006 0.630288 0
M  V30 8382 H 778.998 2.97942 2.31323 0
M  V30 8383 H 781.385 1.99768 2.17202 0
M  V30 8384 H 781.466 2.51236 0.481054 0
M  V30 8385 H 781.11 4.92956 1.223 0
M  V30 8386 H 781.04 4.38396 2.91747 0
M  V30 8387 H 783.531 3.35163 1.74568 0
M  V30 8388 H 783.844 7.12041 3.00362 0
M  V30 8389 H 782.189 6.40087 2.70764 0
M  V30 8390 H 785.38 4.18987 2.08728 0
M  V30 8391 H 785.553 5.90837 2.66112 0
M  V30 8392 N 778.959 -0.83999 1.33349 0
M  V30 8393 C 780.37 -1.41139 1.22216 0
M  V30 8394 C 780.721 -1.95551 -0.159398 0
M  V30 8395 O 779.846 -1.88721 -1.05893 0
M  V30 8396 C 780.441 -2.56564 2.21269 0
M  V30 8397 C 779 -3.09661 2.13979 0
M  V30 8398 C 778.147 -1.82457 2.08818 0
M  V30 8399 H 781.098 -0.645853 1.44964 0
M  V30 8400 H 781.119 -3.34163 1.81976 0
M  V30 8401 H 780.631 -2.16932 3.21811 0
M  V30 8402 H 778.732 -3.53841 1.16736 0
M  V30 8403 H 778.845 -3.6991 3.04472 0
M  V30 8404 H 777.209 -2.0266 1.54276 0
M  V30 8405 H 777.992 -1.45022 3.11165 0
M  V30 8406 N 780.437 -1.16799 -1.0581 0
M  V30 8407 C 781.677 -0.963264 -1.80279 0
M  V30 8408 C 782.041 0.499671 -1.85384 0
M  V30 8409 O 783.242 0.823264 -2.55882 0
M  V30 8410 C 781.513 -1.57938 -3.20609 0
M  V30 8411 S 783.072 -1.51997 -4.11634 0
M  V30 8412 H 779.89 -0.346302 -0.620964 0
M  V30 8413 H 782.492 -1.48632 -1.26999 0
M  V30 8414 H 781.196 -2.63672 -3.14492 0
M  V30 8415 H 780.727 -1.05586 -3.78966 0
M  V30 8416 H 782.742 -0.523625 -4.93429 0
M  V30 8417 N 781.915 1.24427 -0.967243 0
M  V30 8418 C 783.163 1.92107 -0.627638 0
M  V30 8419 C 783.484 1.75991 0.83978 0
M  V30 8420 O 782.754 1.13118 1.59941 0
M  V30 8421 H 781.334 0.710986 -0.229145 0
M  V30 8422 H 783.996 1.51331 -1.22821 0
M  V30 8423 H 783.092 2.99791 -0.867844 0
M  V30 8424 N 783.393 0.737304 1.3929 0
M  V30 8425 C 784.618 0.295237 2.05288 0
M  V30 8426 C 785.043 -1.06235 1.55228 0
M  V30 8427 O 784.401 -1.67365 0.697043 0
M  V30 8428 C 784.449 0.309146 3.59272 0
M  V30 8429 O 783.553 -0.702437 4.06374 0
M  V30 8430 H 782.894 0.133762 0.650387 0
M  V30 8431 H 785.424 1.00387 1.78279 0
M  V30 8432 H 785.434 0.154336 4.07708 0
M  V30 8433 H 784.109 1.29974 3.95069 0
M  V30 8434 H 782.686 -0.513574 3.69346 0
M  V30 8435 N 784.871 -1.49948 0.485112 0
M  V30 8436 C 786.099 -2.06806 -0.0622824 0
M  V30 8437 C 786.514 -1.34736 -1.32256 0
M  V30 8438 O 785.871 -0.420836 -1.77582 0
M  V30 8439 C 785.922 -3.59934 -0.336096 0
M  V30 8440 O 785.643 -4.29289 0.874203 0
M  V30 8441 C 787.144 -4.33459 -0.928903 0
M  V30 8442 H 784.364 -0.670867 0.0133472 0
M  V30 8443 H 786.908 -1.92937 0.677917 0
M  V30 8444 H 785.063 -3.7356 -1.02625 0
M  V30 8445 H 785.477 -5.20735 0.627332 0
M  V30 8446 H 786.951 -5.41527 -1.07017 0
M  V30 8447 H 787.428 -3.94881 -1.92265 0
M  V30 8448 H 788.034 -4.24399 -0.276705 0
M  V30 8449 N 786.349 -0.21828 -1.56081 0
M  V30 8450 C 787.259 0.704602 -2.23769 0
M  V30 8451 C 788.275 1.21633 -1.24425 0
M  V30 8452 O 789.451 1.25862 -1.57228 0
M  V30 8453 C 786.516 1.89725 -2.90182 0
M  V30 8454 C 785.577 1.42782 -4.0486 0
M  V30 8455 C 784.81 2.56361 -4.68097 0
M  V30 8456 O 785.033 3.74417 -4.30312 0
M  V30 8457 O 783.967 2.2775 -5.57148 0
M  V30 8458 H 787.793 0.158007 -3.03289 0
M  V30 8459 H 785.378 0.0120279 -1.49395 0
M  V30 8460 H 787.26 2.59382 -3.32113 0
M  V30 8461 H 785.935 2.432 -2.13624 0
M  V30 8462 H 784.842 0.699359 -3.67505 0
M  V30 8463 H 786.175 0.939474 -4.83151 0
M  V30 8464 N 787.827 1.57504 0.0551401 0
M  V30 8465 C 789.073 1.88334 0.752216 0
M  V30 8466 C 789.406 0.812742 1.76375 0
M  V30 8467 O 788.681 -0.175198 1.93709 0
M  V30 8468 C 788.964 3.29824 1.44528 0
M  V30 8469 C 788.817 4.47553 0.449026 0
M  V30 8470 C 790.136 3.69808 2.38601 0
M  V30 8471 H 787.255 0.684973 0.271995 0
M  V30 8472 H 789.897 1.89994 0.0151895 0
M  V30 8473 H 788.047 3.28539 2.07351 0
M  V30 8474 H 789.719 4.60967 -0.175277 0
M  V30 8475 H 787.962 4.33168 -0.234162 0
M  V30 8476 H 788.633 5.43376 0.971917 0
M  V30 8477 H 791.109 3.72293 1.85842 0
M  V30 8478 H 789.985 4.69665 2.84088 0
M  V30 8479 H 790.246 3.00641 3.24141 0
M  V30 8480 N 789.305 -0.326896 1.54172 0
M  V30 8481 C 790.582 -1.08326 1.62864 0
M  V30 8482 C 790.962 -2.06018 0.46039 0
M  V30 8483 O 790.31 -2.21889 -0.545685 0
M  V30 8484 C 790.52 -1.78816 2.9971 0
M  V30 8485 C 791.868 -2.31958 3.55641 0
M  V30 8486 O 792.892 -1.88888 3.01993 0
M  V30 8487 O 791.751 -3.10801 4.49517 0
M  V30 8488 H 788.845 -0.499131 0.659392 0
M  V30 8489 H 791.391 -0.327054 1.66519 0
M  V30 8490 H 790.163 -1.07739 3.76176 0
M  V30 8491 H 789.786 -2.61255 2.99719 0
M  V30 8492 O 790.822 -1.54423 -0.472853 0
M  V30 8493 H 791.513 -1.5752 -1.12726 0
M  V30 END ATOM
M  V30 BEGIN BOND
M  V30 END BOND
M  V30 END CTAB
M  END
$$$$
