drugbank_target|O15528 25-hydroxyvitamin D-1 alpha hydroxylase, mitochondrial (DB01436)
 OpenBabel12092119323D

  0  0  0     0  0            999 V3000
M  V30 BEGIN CTAB
M  V30 COUNTS 7991 8097 0 0 0
M  V30 BEGIN ATOM
M  V30 1 H -0.908 1.98254 -0.117106 0
M  V30 2 N 0 1.576 0 0
M  V30 3 C 0.933 2.03868 1.02534 0
M  V30 4 C 1.911 0.928543 1.3348 0
M  V30 5 O 3.095 1.19667 1.45644 0
M  V30 6 C 0.222 2.43627 2.35294 0
M  V30 7 C -0.732 3.65373 2.2001 0
M  V30 8 S 0.101 5.13292 1.52614 0
M  V30 9 C 1.257 5.56322 2.86805 0
M  V30 10 H 1.49 2.90518 0.631377 0
M  V30 11 H -0.977 1.52953 0.210867 0
M  V30 12 H 0.981 2.67203 3.11629 0
M  V30 13 H -0.358 1.57376 2.7183 0
M  V30 14 H -1.165 3.90944 3.18086 0
M  V30 15 H -1.563 3.418 1.51819 0
M  V30 16 H 0.729 5.58782 3.83104 0
M  V30 17 H 1.672 6.56266 2.65933 0
M  V30 18 H 2.08 4.83886 2.90714 0
M  V30 19 N 1.4781 -0.272755 1.55222 0
M  V30 20 C 2.7061 -1.02255 1.79865 0
M  V30 21 C 3.1211 -1.79924 0.572088 0
M  V30 22 O 2.4781 -1.76638 -0.458842 0
M  V30 23 C 2.5291 -1.98094 3.02392 0
M  V30 24 O 2.2501 -1.23572 4.20311 0
M  V30 25 C 3.7511 -2.84884 3.39641 0
M  V30 26 H 0.9711 -0.302057 0.599168 0
M  V30 27 H 3.5151 -0.303465 2.02236 0
M  V30 28 H 1.6701 -2.65465 2.82147 0
M  V30 29 H 2.0841 -1.88172 4.89583 0
M  V30 30 H 3.5581 -3.47927 4.28545 0
M  V30 31 H 4.0351 -3.54665 2.59055 0
M  V30 32 H 4.6411 -2.23003 3.62146 0
M  V30 33 N 2.9562 -1.48159 -0.537278 0
M  V30 34 C 3.8882 -1.58218 -1.65831 0
M  V30 35 C 4.9012 -0.466948 -1.5596 0
M  V30 36 O 6.0902 -0.73747 -1.62553 0
M  V30 37 C 3.1902 -1.48906 -3.04434 0
M  V30 38 C 2.3632 -2.75343 -3.3986 0
M  V30 39 C 1.4222 -2.59588 -4.57712 0
M  V30 40 O 0.4482 -3.33457 -4.61297 0
M  V30 41 N 1.6502 -1.68724 -5.55439 0
M  V30 42 H 4.4152 -2.54891 -1.57641 0
M  V30 43 H 1.9762 -1.4479 -0.724386 0
M  V30 44 H 3.9682 -1.36072 -3.81139 0
M  V30 45 H 2.5382 -0.602368 -3.06741 0
M  V30 46 H 1.7582 -3.02795 -2.52406 0
M  V30 47 H 3.0462 -3.5924 -3.60311 0
M  V30 48 H 2.4442 -1.07898 -5.55315 0
M  V30 49 H 1.0012 -1.61832 -6.3139 0
M  V30 50 N 4.4343 0.785586 -1.36625 0
M  V30 51 C 5.6623 1.57448 -1.3423 0
M  V30 52 C 6.0773 1.88649 0.0755653 0
M  V30 53 O 5.4343 1.50414 1.03354 0
M  V30 54 C 5.4853 2.89316 -2.16745 0
M  V30 55 O 5.2063 2.59459 -3.53005 0
M  V30 56 C 6.7073 3.83606 -2.22174 0
M  V30 57 H 3.9273 0.488226 -0.4603 0
M  V30 58 H 6.4713 0.974733 -1.79775 0
M  V30 59 H 4.6263 3.4575 -1.74745 0
M  V30 60 H 5.0403 3.43804 -3.96105 0
M  V30 61 H 6.5143 4.73181 -2.8426 0
M  V30 62 H 6.9913 4.21734 -1.22627 0
M  V30 63 H 7.5973 3.33104 -2.64427 0
M  V30 64 N 5.9124 1.20967 1.01018 0
M  V30 65 C 6.8424 0.988272 2.11555 0
M  V30 66 C 7.8234 -0.0849778 1.69888 0
M  V30 67 O 9.0084 0.0738202 1.9406 0
M  V30 68 C 6.1384 0.546528 3.42973 0
M  V30 69 C 5.0924 1.56375 3.9841 0
M  V30 70 C 4.4184 0.97842 5.25672 0
M  V30 71 C 5.7184 2.94922 4.31066 0
M  V30 72 H 7.4124 1.91276 2.30334 0
M  V30 73 H 4.9584 0.921073 1.1069 0
M  V30 74 H 6.9114 0.378839 4.19694 0
M  V30 75 H 5.6354 -0.413598 3.23971 0
M  V30 76 H 4.2944 1.71891 3.23804 0
M  V30 77 H 3.9424 0.0101688 5.02999 0
M  V30 78 H 3.6424 1.65784 5.63728 0
M  V30 79 H 5.1664 0.821939 6.05043 0
M  V30 80 H 6.5804 2.8288 4.9865 0
M  V30 81 H 4.9774 3.5983 4.80253 0
M  V30 82 H 6.0474 3.4616 3.39561 0
M  V30 83 N 7.3905 -1.2043 1.01659 0
M  V30 84 C 8.3375 -2.23215 0.586822 0
M  V30 85 C 9.3075 -1.61382 -0.393085 0
M  V30 86 O 10.4925 -1.88544 -0.292525 0
M  V30 87 C 7.6325 -3.45032 -0.0687464 0
M  V30 88 C 6.7455 -4.21296 0.955724 0
M  V30 89 C 5.8805 -5.30507 0.271208 0
M  V30 90 C 4.9195 -5.98515 1.28244 0
M  V30 91 N 4.0565 -6.99316 0.62459 0
M  V30 92 H 8.8965 -2.59336 1.46796 0
M  V30 93 H 6.4335 -1.27431 0.734836 0
M  V30 94 H 8.3915 -4.1459 -0.465965 0
M  V30 95 H 7.0215 -3.09604 -0.913529 0
M  V30 96 H 6.0735 -3.50803 1.4711 0
M  V30 97 H 7.3855 -4.6803 1.72479 0
M  V30 98 H 6.5395 -6.06428 -0.18151 0
M  V30 99 H 5.2785 -4.8481 -0.530163 0
M  V30 100 H 4.2835 -5.21355 1.74554 0
M  V30 101 H 5.5085 -6.46298 2.08509 0
M  V30 102 H 3.4545 -6.55812 -0.156914 0
M  V30 103 H 3.3715 -7.44178 1.33172 0
M  V30 104 H 4.6395 -7.79255 0.195462 0
M  V30 105 N 8.8686 -0.792821 -1.36206 0
M  V30 106 C 10.0986 -0.378275 -2.03107 0
M  V30 107 C 10.5066 1.01119 -1.59911 0
M  V30 108 O 9.8496 1.66052 -0.785658 0
M  V30 109 C 9.9116 -0.366535 -3.57627 0
M  V30 110 C 9.5756 -1.70416 -4.24037 0
M  V30 111 C 10.5726 -2.6602 -4.46687 0
M  V30 112 C 8.2576 -1.98439 -4.6144 0
M  V30 113 C 10.2516 -3.8784 -5.05825 0
M  V30 114 C 7.9386 -3.20525 -5.20295 0
M  V30 115 C 8.9366 -4.15044 -5.42427 0
M  V30 116 O 8.6246 -5.34978 -6.00045 0
M  V30 117 H 8.3566 -0.153543 -0.658332 0
M  V30 118 H 10.9106 -1.07383 -1.75094 0
M  V30 119 H 9.1406 0.385539 -3.84773 0
M  V30 120 H 10.8296 0.0238088 -4.05893 0
M  V30 121 H 11.5956 -2.45658 -4.18183 0
M  V30 122 H 7.4746 -1.25686 -4.43536 0
M  V30 123 H 11.0186 -4.61628 -5.23015 0
M  V30 124 H 6.9156 -3.40764 -5.48225 0
M  V30 125 H 7.6836 -5.36088 -6.18508 0
M  V30 126 N 10.3467 1.47872 -0.545128 0
M  V30 127 C 11.3097 2.28337 0.198717 0
M  V30 128 C 12.3097 1.36255 0.853888 0
M  V30 129 O 13.4997 1.59003 0.711606 0
M  V30 130 C 10.6317 3.15585 1.28915 0
M  V30 131 H 11.8247 2.95567 -0.507941 0
M  V30 132 H 9.3777 1.53362 -0.301616 0
M  V30 133 H 10.1127 2.53019 2.02859 0
M  V30 134 H 9.8977 3.83337 0.824309 0
M  V30 135 H 11.3877 3.76243 1.81194 0
M  V30 136 N 11.8248 0.280983 1.55075 0
M  V30 137 C 13.0498 -0.340154 2.04592 0
M  V30 138 C 13.4748 -1.48246 1.15779 0
M  V30 139 O 12.8328 -1.80614 0.15761 0
M  V30 140 C 12.8808 -0.793104 3.5177 0
M  V30 141 O 11.9848 -1.89981 3.66034 0
M  V30 142 H 11.3258 -0.0694289 0.66036 0
M  V30 143 H 13.8558 0.416993 2.00306 0
M  V30 144 H 13.8658 -1.08729 3.93245 0
M  V30 145 H 12.5408 0.0426163 4.15878 0
M  V30 146 H 11.1178 -1.60771 3.36463 0
M  V30 147 N 13.3029 -1.57598 0.00835791 0
M  V30 148 C 14.7189 -1.55764 -0.347822 0
M  V30 149 C 14.9189 -1.01186 -1.74252 0
M  V30 150 O 13.9749 -0.649371 -2.44007 0
M  V30 151 C 15.2879 -2.99927 -0.215407 0
M  V30 152 C 16.8359 -3.11656 -0.289725 0
M  V30 153 C 17.3109 -4.57621 -0.18634 0
M  V30 154 N 18.8019 -4.62557 -0.243978 0
M  V30 155 C 19.5369 -5.73094 -0.18745 0
M  V30 156 N 19.0329 -6.92753 -0.0810331 0
M  V30 157 N 20.8259 -5.61588 -0.239925 0
M  V30 158 H 12.9769 -1.91411 0.92062 0
M  V30 159 H 15.2399 -0.879562 0.353659 0
M  V30 160 H 14.9459 -3.43729 0.744512 0
M  V30 161 H 14.8199 -3.63865 -0.994097 0
M  V30 162 H 17.2069 -2.67779 -1.24009 0
M  V30 163 H 17.2879 -2.5048 0.51898 0
M  V30 164 H 16.9319 -5.02174 0.760519 0
M  V30 165 H 16.8619 -5.16752 -1.01364 0
M  V30 166 H 19.3529 -3.76481 -0.327217 0
M  V30 167 H 19.6659 -7.72787 -0.0440241 0
M  V30 168 H 18.0109 -6.94984 -0.0465419 0
M  V30 169 H 21.2019 -4.66996 -0.321317 0
M  V30 170 H 21.3749 -6.47714 -0.192407 0
M  V30 171 N 14.781 0.264519 -1.55364 0
M  V30 172 C 16.027 0.99646 -1.76631 0
M  V30 173 C 16.36 1.85632 -0.570478 0
M  V30 174 O 15.635 1.89647 0.43175 0
M  V30 175 C 15.918 1.87187 -3.07625 0
M  V30 176 C 15.771 1.04138 -4.37579 0
M  V30 177 C 17.09 2.85749 -3.34717 0
M  V30 178 H 14.209 0.360841 -0.642622 0
M  V30 179 H 16.851 0.268218 -1.88097 0
M  V30 180 H 15.001 2.49279 -2.9798 0
M  V30 181 H 16.673 0.440517 -4.59192 0
M  V30 182 H 14.916 0.345115 -4.32425 0
M  V30 183 H 15.587 1.68729 -5.2558 0
M  V30 184 H 18.063 2.33793 -3.4421 0
M  V30 185 H 16.939 3.44136 -4.27623 0
M  V30 186 H 17.2 3.61311 -2.54768 0
M  V30 187 N 16.2591 1.48442 0.529413 0
M  V30 188 C 17.5061 1.56488 1.28521 0
M  V30 189 C 17.8341 0.239042 1.93025 0
M  V30 190 O 17.0891 -0.770713 1.79885 0
M  V30 191 C 17.3881 2.6523 2.39558 0
M  V30 192 C 17.0541 4.07648 1.92702 0
M  V30 193 C 15.7161 4.46411 1.79641 0
M  V30 194 C 18.0681 4.96896 1.573 0
M  V30 195 C 15.3961 5.72226 1.29514 0
M  V30 196 C 17.7481 6.23202 1.08636 0
M  V30 197 C 16.4121 6.60821 0.941919 0
M  V30 198 H 15.6821 0.572631 0.470292 0
M  V30 199 H 18.3291 1.82161 0.59072 0
M  V30 200 H 16.6341 2.33419 3.14679 0
M  V30 201 H 18.3311 2.68671 2.97686 0
M  V30 202 H 14.9211 3.77036 2.03819 0
M  V30 203 H 19.1051 4.67626 1.66251 0
M  V30 204 H 14.3611 6.00097 1.17019 0
M  V30 205 H 18.5351 6.91753 0.803136 0
M  V30 206 H 16.1621 7.58198 0.5513 0
M  V30 207 N 17.7372 -0.778329 1.37039 0
M  V30 208 C 18.6872 -1.88142 1.28789 0
M  V30 209 C 19.6712 -1.59923 0.177063 0
M  V30 210 O 20.8632 -1.72165 0.410873 0
M  V30 211 C 17.9922 -3.25518 1.09055 0
M  V30 212 C 17.0782 -3.5971 2.24654 0
M  V30 213 N 17.4692 -3.65131 3.50018 0
M  V30 214 C 15.7672 -3.89837 2.16663 0
M  V30 215 C 16.4682 -3.95882 4.26207 0
M  V30 216 N 15.4442 -4.11441 3.55271 0
M  V30 217 H 19.2462 -1.90575 2.23737 0
M  V30 218 H 16.7602 -0.974435 1.29917 0
M  V30 219 H 18.7572 -4.04423 1.0123 0
M  V30 220 H 17.4172 -3.24353 0.15018 0
M  V30 221 H 18.4282 -3.475 3.84011 0
M  V30 222 H 15.1052 -3.96533 1.30645 0
M  V30 223 H 16.4952 -4.06907 5.34674 0
M  V30 224 N 19.2153 -1.21501 -1.00376 0
M  V30 225 C 20.6313 -0.972629 -1.26539 0
M  V30 226 C 20.8313 0.340257 -1.98606 0
M  V30 227 O 19.8873 1.06561 -2.28913 0
M  V30 228 C 21.2003 -2.16404 -2.08781 0
M  V30 229 C 22.7483 -2.20643 -2.22004 0
M  V30 230 C 23.2233 -3.39306 -3.07629 0
M  V30 231 N 24.7143 -3.39401 -3.15217 0
M  V30 232 C 25.4493 -4.27867 -3.81729 0
M  V30 233 N 24.9453 -5.26533 -4.5026 0
M  V30 234 N 26.7383 -4.15672 -3.78382 0
M  V30 235 H 18.8893 -2.05929 -0.520281 0
M  V30 236 H 21.1523 -0.901803 -0.292328 0
M  V30 237 H 20.8583 -3.11554 -1.63178 0
M  V30 238 H 20.7323 -2.15567 -3.09533 0
M  V30 239 H 23.1193 -1.26048 -2.66825 0
M  V30 240 H 23.2003 -2.25523 -1.20718 0
M  V30 241 H 22.8443 -4.34195 -2.63509 0
M  V30 242 H 22.7743 -3.31665 -4.09031 0
M  V30 243 H 25.2653 -2.67997 -2.66432 0
M  V30 244 H 25.5783 -5.90337 -4.98721 0
M  V30 245 H 23.9233 -5.30457 -4.49044 0
M  V30 246 H 27.1143 -3.3785 -3.23998 0
M  V30 247 H 27.2873 -4.84825 -4.2994 0
M  V30 248 N 20.6934 1.19889 -1.02296 0
M  V30 249 C 21.9394 1.89701 -0.717033 0
M  V30 250 C 22.2724 1.7905 0.751989 0
M  V30 251 O 21.5474 1.17891 1.547 0
M  V30 252 C 21.8304 3.40858 -1.16136 0
M  V30 253 C 21.6834 3.60411 -2.69117 0
M  V30 254 C 23.0024 4.33876 -0.737549 0
M  V30 255 H 20.1214 0.688874 -0.261957 0
M  V30 256 H 22.7634 1.41154 -1.27183 0
M  V30 257 H 20.9134 3.82335 -0.689342 0
M  V30 258 H 22.5854 3.28145 -3.2422 0
M  V30 259 H 20.8284 3.03665 -3.0979 0
M  V30 260 H 21.4994 4.66396 -2.95261 0
M  V30 261 H 23.9754 4.00081 -1.14344 0
M  V30 262 H 22.8514 5.38242 -1.0764 0
M  V30 263 H 23.1124 4.40628 0.360436 0
M  V30 264 N 22.1715 0.800033 1.35784 0
M  V30 265 C 23.5875 0.482977 1.52117 0
M  V30 266 C 23.7875 -0.996948 1.75109 0
M  V30 267 O 22.8435 -1.78216 1.78872 0
M  V30 268 C 24.1565 1.32264 2.70049 0
M  V30 269 C 25.7045 1.31742 2.83924 0
M  V30 270 C 26.1795 2.14106 4.04874 0
M  V30 271 N 27.6705 2.11607 4.12039 0
M  V30 272 C 28.4055 2.72099 5.04727 0
M  V30 273 N 27.9015 3.41492 6.02789 0
M  V30 274 N 29.6945 2.61776 4.97423 0
M  V30 275 H 21.8455 1.75856 1.19115 0
M  V30 276 H 24.1085 0.748122 0.582252 0
M  V30 277 H 23.8145 2.37261 2.59616 0
M  V30 278 H 23.6885 0.971303 3.6448 0
M  V30 279 H 26.0755 0.275333 2.93813 0
M  V30 280 H 26.1565 1.70859 1.9037 0
M  V30 281 H 25.8005 3.18351 3.95746 0
M  V30 282 H 25.7305 1.72353 4.97596 0
M  V30 283 H 28.2215 1.61112 3.41835 0
M  V30 284 H 28.5345 3.84953 6.70098 0
M  V30 285 H 26.8795 3.45596 6.02983 0
M  V30 286 H 30.0705 2.07157 4.19766 0
M  V30 287 H 30.2435 3.0921 5.69468 0
M  V30 288 N 23.6496 -1.47581 0.552962 0
M  V30 289 C 24.8956 -2.03369 0.0355807 0
M  V30 290 C 25.2506 -1.42016 -1.29805 0
M  V30 291 O 24.5436 -0.564917 -1.83083 0
M  V30 292 C 24.7376 -3.57199 -0.119728 0
M  V30 293 C 24.5666 -4.33468 1.1973 0
M  V30 294 C 23.3366 -4.7353 1.76345 0
M  V30 295 C 25.5346 -4.68866 2.11351 0
M  V30 296 N 23.5166 -5.34426 3.02097 0
M  V30 297 C 24.8876 -5.3002 3.21681 0
M  V30 298 C 26.9426 -4.50795 2.11397 0
M  V30 299 C 25.6456 -5.75011 4.32151 0
M  V30 300 C 27.6716 -4.96782 3.20876 0
M  V30 301 C 27.0336 -5.57981 4.29926 0
M  V30 302 H 23.1326 -0.780058 0.0550806 0
M  V30 303 H 25.7166 -1.80117 0.739315 0
M  V30 304 H 23.8876 -3.80227 -0.792579 0
M  V30 305 H 25.6196 -3.99627 -0.638792 0
M  V30 306 H 22.3746 -4.55352 1.30196 0
M  V30 307 H 22.7986 -5.69421 3.66182 0
M  V30 308 H 27.4406 -4.0284 1.28372 0
M  V30 309 H 25.1586 -6.21959 5.15938 0
M  V30 310 H 28.7446 -4.84573 3.21994 0
M  V30 311 H 27.6246 -5.92918 5.13243 0
M  V30 312 N 25.1277 -0.289203 -1.54924 0
M  V30 313 C 26.0907 0.579144 -2.21762 0
M  V30 314 C 27.0907 1.07047 -1.1999 0
M  V30 315 O 28.2807 0.968384 -1.44803 0
M  V30 316 C 25.4127 1.80055 -2.8947 0
M  V30 317 H 26.6057 -0.00464908 -2.999 0
M  V30 318 H 24.1587 -0.0399306 -1.56249 0
M  V30 319 H 24.8937 2.42449 -2.15381 0
M  V30 320 H 24.6787 1.45602 -3.64064 0
M  V30 321 H 26.1687 2.41773 -3.40493 0
M  V30 322 N 26.6058 1.57591 -0.0167156 0
M  V30 323 C 28.0168 1.79201 0.523834 0
M  V30 324 C 28.3678 0.925796 1.72984 0
M  V30 325 O 27.4928 0.132792 2.15992 0
M  V30 326 C 28.0878 3.25 0.957091 0
M  V30 327 C 26.6468 3.47648 1.44283 0
M  V30 328 C 25.7938 2.74374 0.401757 0
M  V30 329 H 28.7448 1.56831 -0.242816 0
M  V30 330 H 28.7658 3.34031 1.82219 0
M  V30 331 H 28.2778 3.88019 0.0791415 0
M  V30 332 H 26.3788 2.89866 2.34113 0
M  V30 333 H 26.4918 4.56352 1.45877 0
M  V30 334 H 24.8558 2.39485 0.867121 0
M  V30 335 H 25.6388 3.40102 -0.467513 0
M  V30 336 N 28.0839 -0.256276 1.55502 0
M  V30 337 C 28.9939 -1.33882 1.92647 0
M  V30 338 C 30.0099 -1.53159 0.825727 0
M  V30 339 O 31.1859 -1.66963 1.12629 0
M  V30 340 C 28.2509 -2.6751 2.20543 0
M  V30 341 C 27.3119 -2.56836 3.43997 0
M  V30 342 C 26.5449 -3.84092 3.70553 0
M  V30 343 O 26.7679 -4.85545 2.99336 0
M  V30 344 O 25.7019 -3.83288 4.64084 0
M  V30 345 H 29.5279 -1.05374 2.84833 0
M  V30 346 H 27.1129 -0.456237 1.42263 0
M  V30 347 H 28.9949 -3.46492 2.39835 0
M  V30 348 H 27.6699 -2.9577 1.31536 0
M  V30 349 H 26.5769 -1.76172 3.30021 0
M  V30 350 H 27.9099 -2.33523 4.33275 0
M  V30 351 N 29.562 -1.4872 -0.521534 0
M  V30 352 C 30.492 -1.66771 -1.63431 0
M  V30 353 C 31.473 -0.516499 -1.62069 0
M  V30 354 O 32.658 -0.750013 -1.79132 0
M  V30 355 C 29.788 -1.71515 -3.01993 0
M  V30 356 C 28.742 -2.86222 -3.18216 0
M  V30 357 C 28.068 -2.76061 -4.57924 0
M  V30 358 C 29.368 -4.27419 -3.00184 0
M  V30 359 H 31.062 -2.59932 -1.48579 0
M  V30 360 H 28.608 -1.25089 -0.713358 0
M  V30 361 H 30.561 -1.82731 -3.7972 0
M  V30 362 H 29.285 -0.749393 -3.17886 0
M  V30 363 H 27.944 -2.74575 -2.42908 0
M  V30 364 H 27.592 -1.77437 -4.70665 0
M  V30 365 H 27.292 -3.53037 -4.69722 0
M  V30 366 H 28.816 -2.89256 -5.37739 0
M  V30 367 H 30.23 -4.39855 -3.67697 0
M  V30 368 H 28.627 -5.05458 -3.2347 0
M  V30 369 H 29.697 -4.43293 -1.96518 0
M  V30 370 N 31.0401 0.771051 -1.3745 0
M  V30 371 C 32.2881 1.52661 -1.32435 0
M  V30 372 C 32.6091 1.9479 0.0905024 0
M  V30 373 O 31.8791 1.66348 1.03466 0
M  V30 374 H 30.4591 0.566218 -0.487244 0
M  V30 375 H 33.1211 0.917636 -1.71946 0
M  V30 376 H 32.2171 2.42568 -1.96385 0
M  V30 377 N 32.5182 1.22032 0.997298 0
M  V30 378 C 33.4812 0.987909 2.06816 0
M  V30 379 C 34.4812 -0.0440084 1.6074 0
M  V30 380 O 35.6712 0.194053 1.73116 0
M  V30 381 C 32.8032 0.49132 3.37341 0
M  V30 382 H 33.9962 1.93803 2.28868 0
M  V30 383 H 31.5492 1.03838 1.16822 0
M  V30 384 H 32.2842 -0.463364 3.20973 0
M  V30 385 H 32.0692 1.23575 3.72118 0
M  V30 386 H 33.5592 0.348824 4.16141 0
M  V30 387 N 33.9963 -1.19345 1.0293 0
M  V30 388 C 35.2213 -1.93538 0.745511 0
M  V30 389 C 35.6463 -1.75007 -0.689511 0
M  V30 390 O 35.0043 -1.05265 -1.47611 0
M  V30 391 C 35.0523 -3.43336 1.10239 0
M  V30 392 O 34.1563 -4.11806 0.221289 0
M  V30 393 H 33.4973 -0.604193 0.275404 0
M  V30 394 H 36.0273 -1.5141 1.37609 0
M  V30 395 H 36.0373 -3.94004 1.05947 0
M  V30 396 H 34.7123 -3.56146 2.14786 0
M  V30 397 H 33.2893 -3.715 0.322842 0
M  V30 398 N 35.4744 -0.807222 -1.35358 0
M  V30 399 C 36.4044 -0.232509 -2.3234 0
M  V30 400 C 37.3854 0.642386 -1.57504 0
M  V30 401 O 38.5704 0.572526 -1.85569 0
M  V30 402 C 35.7004 0.619238 -3.41735 0
M  V30 403 C 34.6544 -0.157215 -4.27711 0
M  V30 404 C 33.9804 0.816273 -5.28433 0
M  V30 405 C 35.2804 -1.35656 -5.04376 0
M  V30 406 H 36.9744 -1.04276 -2.80654 0
M  V30 407 H 34.5204 -0.50288 -1.34934 0
M  V30 408 H 36.4734 1.03137 -4.08584 0
M  V30 409 H 35.1974 1.46239 -2.92031 0
M  V30 410 H 33.8564 -0.550525 -3.62443 0
M  V30 411 H 33.5044 1.65494 -4.74996 0
M  V30 412 H 33.2044 0.301067 -5.86828 0
M  V30 413 H 34.7284 1.22659 -5.98153 0
M  V30 414 H 36.1424 -1.01927 -5.64166 0
M  V30 415 H 34.5394 -1.8063 -5.7227 0
M  V30 416 H 35.6094 -2.14288 -4.34981 0
M  V30 417 N 36.9525 1.47285 -0.560781 0
M  V30 418 C 38.2005 2.02064 -0.0379868 0
M  V30 419 C 38.5215 1.43711 1.31803 0
M  V30 420 O 37.7915 0.61362 1.86042 0
M  V30 421 H 36.3715 0.746918 -0.0110531 0
M  V30 422 H 39.0335 1.80648 -0.731598 0
M  V30 423 H 38.1295 3.12064 0.0474463 0
M  V30 424 N 38.4306 0.297415 1.54768 0
M  V30 425 C 39.6606 -0.315165 2.04182 0
M  V30 426 C 40.0686 -1.4834 1.17439 0
M  V30 427 O 39.4116 -1.82695 0.191891 0
M  V30 428 C 39.4736 -0.837583 3.49607 0
M  V30 429 C 39.1376 0.204912 4.5654 0
M  V30 430 C 40.1346 1.03214 5.09552 0
M  V30 431 C 37.8196 0.345578 5.0111 0
M  V30 432 C 39.8136 1.986 6.05671 0
M  V30 433 C 37.5006 1.30289 5.97049 0
M  V30 434 C 38.4986 2.12159 6.49213 0
M  V30 435 O 38.1866 3.06268 7.43273 0
M  V30 436 H 37.9186 -0.0729646 0.672051 0
M  V30 437 H 40.4726 0.433907 2.00765 0
M  V30 438 H 38.7026 -1.63712 3.50336 0
M  V30 439 H 40.3916 -1.36566 3.82236 0
M  V30 440 H 41.1576 0.934312 4.75916 0
M  V30 441 H 37.0366 -0.28171 4.60138 0
M  V30 442 H 40.5806 2.62542 6.46311 0
M  V30 443 H 36.4776 1.40145 6.30103 0
M  V30 444 H 37.2456 3.01205 7.61064 0
M  V30 445 N 39.9087 -1.5758 0.0250728 0
M  V30 446 C 41.3247 -1.56124 -0.331282 0
M  V30 447 C 41.5247 -1.03029 -1.73169 0
M  V30 448 O 40.5807 -0.675215 -2.43305 0
M  V30 449 C 41.8937 -3.00139 -0.183584 0
M  V30 450 C 43.4417 -3.11946 -0.256654 0
M  V30 451 C 43.9167 -4.57793 -0.137792 0
M  V30 452 N 45.4077 -4.6279 -0.194904 0
M  V30 453 C 46.1427 -5.7326 -0.126655 0
M  V30 454 N 45.6387 -6.928 -0.00755288 0
M  V30 455 N 47.4317 -5.61811 -0.180348 0
M  V30 456 H 39.5827 -1.90424 0.94087 0
M  V30 457 H 41.8457 -0.875761 0.362968 0
M  V30 458 H 41.5517 -3.4292 0.780927 0
M  V30 459 H 41.4257 -3.64899 -0.955448 0
M  V30 460 H 43.8127 -2.69079 -1.21162 0
M  V30 461 H 43.8937 -2.49915 0.545517 0
M  V30 462 H 43.5377 -5.01339 0.813739 0
M  V30 463 H 43.4677 -5.17798 -0.958775 0
M  V30 464 H 45.9587 -3.76807 -0.287267 0
M  V30 465 H 46.2717 -7.72791 0.0379428 0
M  V30 466 H 44.6167 -6.94995 0.0271731 0
M  V30 467 H 47.8077 -4.6731 -0.271767 0
M  V30 468 H 47.9807 -6.47882 -0.123697 0
M  V30 469 N 41.3868 0.248026 -1.55636 0
M  V30 470 C 42.2968 1.32859 -1.93354 0
M  V30 471 C 43.3128 1.52719 -0.833838 0
M  V30 472 O 44.4888 1.66363 -1.13513 0
M  V30 473 C 41.5538 2.66337 -2.21958 0
M  V30 474 C 40.6148 2.55008 -3.45354 0
M  V30 475 C 39.8478 3.82121 -3.72584 0
M  V30 476 O 40.0708 4.83951 -3.01907 0
M  V30 477 O 39.0048 3.80822 -4.6611 0
M  V30 478 H 42.8308 1.03862 -2.85388 0
M  V30 479 H 40.4158 0.448686 -1.42503 0
M  V30 480 H 42.2978 3.45216 -2.4167 0
M  V30 481 H 40.9728 2.95068 -1.33103 0
M  V30 482 H 39.8798 1.7442 -3.30951 0
M  V30 483 H 41.2128 2.31222 -4.34508 0
M  V30 484 N 42.8649 1.48995 0.513639 0
M  V30 485 C 44.0949 1.61297 1.291 0
M  V30 486 C 44.5029 0.278656 1.87137 0
M  V30 487 O 43.8459 -0.744325 1.67945 0
M  V30 488 C 43.9079 2.61326 2.46879 0
M  V30 489 C 43.5719 4.05993 2.09807 0
M  V30 490 C 44.5689 4.93183 1.64519 0
M  V30 491 C 42.2539 4.51642 2.19829 0
M  V30 492 C 44.2479 6.24056 1.2974 0
M  V30 493 C 41.9349 5.82532 1.84662 0
M  V30 494 C 42.9329 6.68562 1.3969 0
M  V30 495 O 42.6209 7.97014 1.04992 0
M  V30 496 H 42.3529 0.546236 0.39825 0
M  V30 497 H 44.9069 1.95673 0.62459 0
M  V30 498 H 43.1369 2.22104 3.16554 0
M  V30 499 H 44.8259 2.6329 3.08923 0
M  V30 500 H 45.5919 4.59147 1.56233 0
M  V30 501 H 41.4709 3.84855 2.53786 0
M  V30 502 H 45.0149 6.91161 0.945659 0
M  V30 503 H 40.9119 6.16099 1.92594 0
M  V30 504 H 41.6799 8.09913 1.18249 0
M  V30 505 N 44.343 -0.763751 1.37857 0
M  V30 506 C 45.293 -1.86765 1.30777 0
M  V30 507 C 46.277 -1.59726 0.194015 0
M  V30 508 O 47.469 -1.7172 0.42911 0
M  V30 509 C 44.598 -3.24343 1.12502 0
M  V30 510 C 43.684 -3.57307 2.28456 0
M  V30 511 N 44.075 -3.61398 3.53871 0
M  V30 512 C 42.373 -3.87517 2.20786 0
M  V30 513 C 43.074 -3.91339 4.30382 0
M  V30 514 N 42.05 -4.07649 3.59615 0
M  V30 515 H 45.852 -1.88191 2.25746 0
M  V30 516 H 43.366 -0.9606 1.30944 0
M  V30 517 H 45.363 -4.03327 1.05514 0
M  V30 518 H 44.023 -3.24175 0.184574 0
M  V30 519 H 45.034 -3.43407 3.87675 0
M  V30 520 H 41.711 -3.95125 1.34844 0
M  V30 521 H 43.101 -4.01213 5.3896 0
M  V30 522 N 45.8211 -1.22559 -0.990812 0
M  V30 523 C 47.0461 -1.07862 -1.77145 0
M  V30 524 C 47.4711 0.366447 -1.84496 0
M  V30 525 O 46.8291 1.26478 -1.29896 0
M  V30 526 C 46.8771 -1.69686 -3.18181 0
M  V30 527 O 45.9811 -0.951946 -4.01263 0
M  V30 528 H 45.3221 -0.378712 -0.545411 0
M  V30 529 H 47.8521 -1.62399 -1.2445 0
M  V30 530 H 47.8621 -1.74496 -3.68802 0
M  V30 531 H 46.5371 -2.74841 -3.12146 0
M  V30 532 H 45.1141 -0.980011 -3.59792 0
M  V30 533 N 47.2992 1.18797 -1.03562 0
M  V30 534 C 48.2622 2.20464 -0.626769 0
M  V30 535 C 49.2622 1.57721 0.313173 0
M  V30 536 O 50.4522 1.73917 0.0992615 0
M  V30 537 C 47.5842 3.40802 0.0818498 0
M  V30 538 H 48.7772 2.58149 -1.5264 0
M  V30 539 H 46.3302 1.32593 -0.827578 0
M  V30 540 H 47.0652 3.08642 0.995518 0
M  V30 541 H 46.8502 3.8758 -0.593652 0
M  V30 542 H 48.3402 4.16092 0.354584 0
M  V30 543 N 48.7773 0.814389 1.34928 0
M  V30 544 C 50.1933 0.499084 1.51596 0
M  V30 545 C 50.3933 -0.978319 1.76157 0
M  V30 546 O 49.4493 -1.76309 1.80752 0
M  V30 547 C 50.7623 1.35121 2.68631 0
M  V30 548 C 52.3103 1.34746 2.82511 0
M  V30 549 C 52.7853 2.18388 4.0258 0
M  V30 550 N 54.2763 2.15966 4.09772 0
M  V30 551 C 55.0113 2.77437 5.01813 0
M  V30 552 N 54.5073 3.47866 5.99134 0
M  V30 553 N 56.3003 2.67037 4.94619 0
M  V30 554 H 48.4513 1.7711 1.17243 0
M  V30 555 H 50.7143 0.754256 0.574284 0
M  V30 556 H 50.4203 2.40001 2.57085 0
M  V30 557 H 50.2943 1.00991 3.63429 0
M  V30 558 H 52.6813 0.30648 2.93504 0
M  V30 559 H 52.7623 1.72869 1.88547 0
M  V30 560 H 52.4063 3.2253 3.92347 0
M  V30 561 H 52.3363 1.77621 4.9574 0
M  V30 562 H 54.8273 1.64729 3.40107 0
M  V30 563 H 55.1403 3.92038 6.65977 0
M  V30 564 H 53.4853 3.51972 5.99284 0
M  V30 565 H 56.6763 2.11597 4.17546 0
M  V30 566 H 56.8493 3.15232 5.66156 0
M  V30 567 N 50.2554 -1.46986 0.568584 0
M  V30 568 C 51.6714 -1.57946 0.229189 0
M  V30 569 C 51.8714 -1.56567 -1.26843 0
M  V30 570 O 50.9274 -1.47511 -2.04931 0
M  V30 571 C 52.2404 -2.87963 0.865909 0
M  V30 572 C 53.7884 -3.01568 0.838188 0
M  V30 573 C 54.2634 -4.34301 1.45419 0
M  V30 574 N 55.7544 -4.40965 1.41788 0
M  V30 575 C 56.4894 -5.42256 1.86403 0
M  V30 576 N 55.9854 -6.50297 2.38926 0
M  V30 577 N 57.7784 -5.3337 1.77405 0
M  V30 578 H 49.9294 -1.46126 1.54146 0
M  V30 579 H 52.1924 -0.696156 0.643484 0
M  V30 580 H 51.8984 -2.94742 1.91886 0
M  V30 581 H 51.7724 -3.75423 0.365687 0
M  V30 582 H 54.1594 -2.94379 -0.206106 0
M  V30 583 H 54.2404 -2.1562 1.37629 0
M  V30 584 H 53.8844 -4.42247 2.49761 0
M  V30 585 H 53.8144 -5.19 0.891435 0
M  V30 586 H 56.3054 -3.63484 1.03381 0
M  V30 587 H 56.6184 -7.23777 2.70863 0
M  V30 588 H 54.9634 -6.51155 2.42944 0
M  V30 589 H 58.1544 -4.47865 1.3614 0
M  V30 590 H 58.3274 -6.12169 2.12492 0
M  V30 591 N 51.7335 -0.305618 -1.54608 0
M  V30 592 C 52.9585 0.307562 -2.05107 0
M  V30 593 C 53.3835 1.46385 -1.18123 0
M  V30 594 O 52.7415 1.8034 -0.186324 0
M  V30 595 C 52.7895 0.73704 -3.52987 0
M  V30 596 O 51.8935 1.84134 -3.6901 0
M  V30 597 H 51.2345 0.0589143 -0.661381 0
M  V30 598 H 53.7645 -0.448807 -1.99617 0
M  V30 599 H 53.7745 1.02459 -3.94925 0
M  V30 600 H 52.4495 -0.108773 -4.15758 0
M  V30 601 H 51.0265 1.55398 -3.38978 0
M  V30 602 N 53.2116 1.57565 -0.0334293 0
M  V30 603 C 54.1416 2.13511 0.945265 0
M  V30 604 C 55.1226 1.05231 1.33643 0
M  V30 605 O 56.3076 1.33084 1.41429 0
M  V30 606 C 53.4376 2.6657 2.22616 0
M  V30 607 C 52.3916 3.79676 1.97561 0
M  V30 608 C 51.7176 4.1918 3.31952 0
M  V30 609 C 53.0176 5.0557 1.31135 0
M  V30 610 H 54.7116 2.95538 0.479325 0
M  V30 611 H 52.2576 1.42166 0.229115 0
M  V30 612 H 54.2106 3.04344 2.91466 0
M  V30 613 H 52.9346 1.8171 2.71384 0
M  V30 614 H 51.5936 3.42347 1.31127 0
M  V30 615 H 51.2416 3.31296 3.78487 0
M  V30 616 H 50.9416 4.95402 3.15992 0
M  V30 617 H 52.4656 4.59541 4.02063 0
M  V30 618 H 53.8796 5.40903 1.89992 0
M  V30 619 H 52.2766 5.86818 1.25559 0
M  V30 620 H 53.3466 4.84062 0.284894 0
M  V30 621 N 54.6897 -0.239769 1.55765 0
M  V30 622 C 55.6527 -1.28038 1.90103 0
M  V30 623 C 56.6527 -1.40723 0.778055 0
M  V30 624 O 57.8427 -1.39301 1.04599 0
M  V30 625 C 54.9747 -2.65702 2.13577 0
M  V30 626 H 56.1677 -0.988048 2.83157 0
M  V30 627 H 53.7207 -0.479382 1.48767 0
M  V30 628 H 54.4557 -3.00063 1.23015 0
M  V30 629 H 54.2407 -2.57875 2.95369 0
M  V30 630 H 55.7307 -3.40828 2.41301 0
M  V30 631 N 56.1678 -1.49265 -0.50573 0
M  V30 632 C 57.4448 -1.49012 -1.26707 0
M  V30 633 C 57.8248 -0.215205 -2.1 0
M  V30 634 O 57.1728 0.802547 -2.13943 0
M  V30 635 C 57.3828 -2.7663 -2.12783 0
M  V30 636 C 58.7308 -3.25932 -2.72127 0
M  V30 637 O 59.7548 -2.77715 -2.23054 0
M  V30 638 O 58.6138 -4.09897 -3.61451 0
M  V30 639 H 55.7078 -0.596197 -0.57313 0
M  V30 640 H 58.2538 -1.61524 -0.52039 0
M  V30 641 H 57.0258 -3.60916 -1.5118 0
M  V30 642 H 56.6488 -2.66956 -2.94653 0
M  V30 643 N 57.6459 0.756429 -1.3826 0
M  V30 644 C 58.8949 1.51082 -1.3363 0
M  V30 645 C 59.2079 1.95467 0.0720068 0
M  V30 646 O 60.4139 2.7043 0.240834 0
M  V30 647 C 58.8699 2.72893 -2.34644 0
M  V30 648 C 58.4779 2.35544 -3.81081 0
M  V30 649 C 60.2219 3.50791 -2.39052 0
M  V30 650 C 58.1289 3.53948 -4.73787 0
M  V30 651 H 57.0589 0.56727 -0.49671 0
M  V30 652 H 59.7099 0.827147 -1.638 0
M  V30 653 H 58.0919 3.43227 -1.97513 0
M  V30 654 H 59.2659 1.72894 -4.27135 0
M  V30 655 H 57.5809 1.70786 -3.79764 0
M  V30 656 H 60.1779 4.38823 -3.05513 0
M  V30 657 H 60.5209 3.91745 -1.40861 0
M  V30 658 H 61.0539 2.87467 -2.74968 0
M  V30 659 H 57.7929 3.18064 -5.73163 0
M  V30 660 H 57.3129 4.15651 -4.32428 0
M  V30 661 H 58.9919 4.20566 -4.91663 0
M  V30 662 N 59.124 1.23083 0.984299 0
M  V30 663 C 60.535 1.05609 1.5396 0
M  V30 664 C 60.886 -0.377793 1.92528 0
M  V30 665 O 60.011 -1.26398 1.75649 0
M  V30 666 C 60.606 1.91087 2.7977 0
M  V30 667 C 59.165 1.77885 3.31713 0
M  V30 668 C 58.312 1.87028 2.04733 0
M  V30 669 H 61.263 1.36802 0.804419 0
M  V30 670 H 61.284 1.43336 3.5247 0
M  V30 671 H 60.796 2.9544 2.51668 0
M  V30 672 H 58.897 0.762995 3.64704 0
M  V30 673 H 59.01 2.61047 4.01735 0
M  V30 674 H 57.374 1.30565 2.18689 0
M  V30 675 H 58.157 2.92929 1.79017 0
M  V30 676 N 60.6021 -1.18246 1.0419 0
M  V30 677 C 61.8501 -1.87886 0.744543 0
M  V30 678 C 62.1711 -1.8082 -0.730006 0
M  V30 679 O 61.4411 -1.22736 -1.52685 0
M  V30 680 H 60.0211 -0.695556 0.272417 0
M  V30 681 H 62.6831 -1.43494 1.31892 0
M  V30 682 H 61.7791 -2.9389 1.05049 0
M  V30 683 N 62.0802 -0.821533 -1.34494 0
M  V30 684 C 63.4912 -0.467956 -1.8074 0
M  V30 685 C 63.8422 1.01151 -1.68116 0
M  V30 686 O 62.9672 1.78707 -1.22036 0
M  V30 687 C 63.5622 -0.842627 -3.28154 0
M  V30 688 C 62.1212 -0.541439 -3.72485 0
M  V30 689 C 61.2682 -1.06028 -2.56229 0
M  V30 690 H 64.2192 -1.01183 -1.22261 0
M  V30 691 H 64.2402 -0.145876 -3.8022 0
M  V30 692 H 63.7522 -1.91945 -3.37311 0
M  V30 693 H 61.8532 0.526034 -3.68868 0
M  V30 694 H 61.9662 -1.08453 -4.66663 0
M  V30 695 H 60.3302 -0.481892 -2.501 0
M  V30 696 H 61.1132 -2.14352 -2.68157 0
M  V30 697 N 63.5583 1.46682 -0.576371 0
M  V30 698 C 64.7833 2.07304 -0.0630475 0
M  V30 699 C 65.2083 1.42329 1.2298 0
M  V30 700 O 64.5663 0.504865 1.74129 0
M  V30 701 C 64.6143 3.60472 0.095895 0
M  V30 702 O 63.7183 3.95927 1.15394 0
M  V30 703 H 63.0593 0.661288 -0.0599463 0
M  V30 704 H 65.5893 1.88417 -0.797511 0
M  V30 705 H 65.5993 4.06865 0.304071 0
M  V30 706 H 64.2743 4.07157 -0.84828 0
M  V30 707 H 62.8513 3.61252 0.924724 0
M  V30 708 N 65.0364 0.313813 1.54444 0
M  V30 709 C 66.2644 -0.293918 2.04802 0
M  V30 710 C 66.6794 -1.46537 1.19047 0
M  V30 711 O 66.0364 -1.81182 0.218939 0
M  V30 712 C 66.0874 -0.737806 3.53891 0
M  V30 713 O 65.8084 0.387038 4.36387 0
M  V30 714 C 67.3094 -1.40936 4.203 0
M  V30 715 H 64.5294 -0.0620057 0.668129 0
M  V30 716 H 67.0734 0.457169 1.99324 0
M  V30 717 H 65.2284 -1.43889 3.59687 0
M  V30 718 H 65.6424 0.0391274 5.24485 0
M  V30 719 H 67.1164 -1.67099 5.26101 0
M  V30 720 H 67.5934 -2.35355 3.70816 0
M  V30 721 H 68.1994 -0.751117 4.18615 0
M  V30 722 N 66.5145 -1.57545 0.0417849 0
M  V30 723 C 67.9255 -1.80011 -0.495259 0
M  V30 724 C 68.2765 -0.953199 -1.71489 0
M  V30 725 O 67.4015 -0.167138 -2.15754 0
M  V30 726 C 67.9965 -3.26482 -0.905265 0
M  V30 727 C 66.5555 -3.499 -1.38734 0
M  V30 728 C 65.7025 -2.74979 -0.358056 0
M  V30 729 H 68.6535 -1.56425 0.267736 0
M  V30 730 H 68.6745 -3.36887 -1.76882 0
M  V30 731 H 68.1865 -3.88096 -0.017401 0
M  V30 732 H 66.2875 -2.93553 -2.29471 0
M  V30 733 H 66.4005 -4.58615 -1.38598 0
M  V30 734 H 64.7645 -2.40834 -0.828912 0
M  V30 735 H 65.5475 -3.39315 0.521561 0
M  V30 736 N 67.9926 0.231505 -1.5589 0
M  V30 737 C 69.2176 0.978689 -1.82856 0
M  V30 738 C 69.6426 1.77559 -0.620846 0
M  V30 739 O 69.0006 1.76119 0.430305 0
M  V30 740 C 69.0486 1.87997 -3.07716 0
M  V30 741 O 68.1526 2.97393 -2.85712 0
M  V30 742 H 67.4936 0.277663 -0.603158 0
M  V30 743 H 70.0236 0.24783 -2.03093 0
M  V30 744 H 70.0336 2.2917 -3.37558 0
M  V30 745 H 68.7086 1.29417 -3.95252 0
M  V30 746 H 67.2856 2.60238 -2.67078 0
M  V30 747 N 69.4707 1.49531 0.497807 0
M  V30 748 C 70.7177 1.59179 1.25173 0
M  V30 749 C 71.0457 0.279932 1.92475 0
M  V30 750 O 70.3007 -0.732383 1.81479 0
M  V30 751 C 70.5997 2.70252 2.33878 0
M  V30 752 C 70.2657 4.11644 1.84012 0
M  V30 753 C 68.9277 4.50121 1.70132 0
M  V30 754 C 71.2797 5.00121 1.46725 0
M  V30 755 C 68.6077 5.74845 1.17348 0
M  V30 756 C 70.9597 6.25366 0.95392 0
M  V30 757 C 69.6237 6.6267 0.801538 0
M  V30 758 H 68.8937 0.582478 0.45804 0
M  V30 759 H 71.5407 1.83373 0.551948 0
M  V30 760 H 69.8457 2.40041 3.09657 0
M  V30 761 H 71.5427 2.74925 2.9192 0
M  V30 762 H 68.1327 3.81274 1.95775 0
M  V30 763 H 72.3167 4.71048 1.56294 0
M  V30 764 H 67.5727 6.02444 1.04264 0
M  V30 765 H 71.7467 6.93301 0.656225 0
M  V30 766 H 69.3737 7.59197 0.390351 0
M  V30 767 N 70.9488 -0.749086 1.3866 0
M  V30 768 C 71.8788 -1.8764 1.38973 0
M  V30 769 C 72.8598 -1.68178 0.255004 0
M  V30 770 O 74.0448 -1.88704 0.458754 0
M  V30 771 C 71.1748 -3.25222 1.21851 0
M  V30 772 C 70.1288 -3.59295 2.32575 0
M  V30 773 C 69.4548 -4.95663 2.00555 0
M  V30 774 C 70.7548 -3.63709 3.7485 0
M  V30 775 H 72.4488 -1.87635 2.3331 0
M  V30 776 H 69.9948 -0.901329 1.12303 0
M  V30 777 H 71.9478 -4.03746 1.20695 0
M  V30 778 H 70.6718 -3.25719 0.239775 0
M  V30 779 H 69.3308 -2.83093 2.32925 0
M  V30 780 H 68.9788 -4.92724 1.01154 0
M  V30 781 H 68.6788 -5.19429 2.74714 0
M  V30 782 H 70.2028 -5.7656 2.01024 0
M  V30 783 H 71.6168 -4.32338 3.76506 0
M  V30 784 H 70.0138 -3.98986 4.48252 0
M  V30 785 H 71.0838 -2.63834 4.06841 0
M  V30 786 N 72.4269 -1.23603 -0.977757 0
M  V30 787 C 73.3899 -1.02069 -2.05218 0
M  V30 788 C 74.3899 0.0184305 -1.60789 0
M  V30 789 O 75.5799 -0.221569 -1.72785 0
M  V30 790 C 72.7119 -0.544926 -3.36517 0
M  V30 791 H 73.9049 -1.9742 -2.25755 0
M  V30 792 H 71.4579 -1.05684 -1.15155 0
M  V30 793 H 72.1929 0.412241 -3.21669 0
M  V30 794 H 71.9779 -1.2948 -3.70105 0
M  V30 795 H 73.4679 -0.414985 -4.15533 0
M  V30 796 N 73.905 1.17692 -1.04816 0
M  V30 797 C 74.815 2.25229 -0.65643 0
M  V30 798 C 75.831 1.71018 0.320761 0
M  V30 799 O 77.007 2.00649 0.173805 0
M  V30 800 C 74.072 3.46684 -0.0332629 0
M  V30 801 C 73.133 4.15997 -1.06042 0
M  V30 802 C 72.366 5.31654 -0.466893 0
M  V30 803 O 72.589 5.65777 0.724758 0
M  V30 804 O 71.523 5.89831 -1.1993 0
M  V30 805 H 75.349 2.61016 -1.55255 0
M  V30 806 H 72.934 1.24919 -0.81949 0
M  V30 807 H 74.816 4.20234 0.313256 0
M  V30 808 H 73.491 3.12703 0.836566 0
M  V30 809 H 72.398 3.44482 -1.45886 0
M  V30 810 H 73.731 4.53996 -1.90127 0
M  V30 811 N 75.3831 0.828654 1.34056 0
M  V30 812 C 76.3131 0.269443 2.3194 0
M  V30 813 C 77.2941 -0.617247 1.58506 0
M  V30 814 O 78.4791 -0.542931 1.86456 0
M  V30 815 C 75.6091 -0.564793 3.42677 0
M  V30 816 C 74.5631 0.225241 4.27407 0
M  V30 817 C 73.8891 -0.7321 5.29664 0
M  V30 818 C 75.1891 1.43663 5.02154 0
M  V30 819 H 76.8831 1.08728 2.7896 0
M  V30 820 H 74.4291 0.524283 1.34117 0
M  V30 821 H 76.3821 -0.966233 4.10173 0
M  V30 822 H 75.1061 -1.41574 2.9432 0
M  V30 823 H 73.7651 0.608117 3.61521 0
M  V30 824 H 73.4131 -1.57916 4.77568 0
M  V30 825 H 73.1131 -0.20767 5.87233 0
M  V30 826 H 74.6371 -1.13128 6.00029 0
M  V30 827 H 76.0511 1.1089 5.62473 0
M  V30 828 H 74.4481 1.89711 5.69324 0
M  V30 829 H 75.5181 2.21181 4.31517 0
M  V30 830 N 76.8612 -1.46375 0.584142 0
M  V30 831 C 78.1082 -2.02378 0.0702675 0
M  V30 832 C 78.4362 -1.45545 -1.29023 0
M  V30 833 O 77.6912 -0.610967 -1.85918 0
M  V30 834 C 77.9902 -3.57373 -0.0439342 0
M  V30 835 C 77.6562 -4.33252 1.24915 0
M  V30 836 C 76.3182 -4.53701 1.60341 0
M  V30 837 C 78.6702 -4.7681 2.1048 0
M  V30 838 C 75.9982 -5.1496 2.81128 0
M  V30 839 C 78.3502 -5.39404 3.30494 0
M  V30 840 C 77.0142 -5.5808 3.66201 0
M  V30 841 H 76.2842 -0.740554 0.0257127 0
M  V30 842 H 78.9312 -1.75727 0.761065 0
M  V30 843 H 77.2362 -3.83169 -0.817869 0
M  V30 844 H 78.9332 -3.98384 -0.457318 0
M  V30 845 H 75.5232 -4.17633 0.963364 0
M  V30 846 H 79.7072 -4.60766 1.84414 0
M  V30 847 H 74.9632 -5.27611 3.08928 0
M  V30 848 H 79.1372 -5.72114 3.97063 0
M  V30 849 H 76.7642 -6.05318 4.59885 0
M  V30 850 N 78.3393 -0.321999 -1.54275 0
M  V30 851 C 79.5793 0.281657 -2.0245 0
M  V30 852 C 79.9433 1.49468 -1.20513 0
M  V30 853 O 81.1443 2.17109 -1.58484 0
M  V30 854 C 79.4153 0.609014 -3.52173 0
M  V30 855 S 80.9743 1.19255 -4.22284 0
M  V30 856 H 77.7923 0.0852825 -0.705867 0
M  V30 857 H 80.3943 -0.454758 -1.90137 0
M  V30 858 H 79.0983 -0.281982 -4.0943 0
M  V30 859 H 78.6293 1.37567 -3.68563 0
M  V30 860 H 80.6443 2.47944 -4.29812 0
M  V30 861 N 79.8174 1.5752 -0.0501392 0
M  V30 862 C 80.7644 2.1147 0.924603 0
M  V30 863 C 81.7344 1.02182 1.30951 0
M  V30 864 O 82.9194 1.29723 1.39916 0
M  V30 865 C 80.0594 2.66337 2.19451 0
M  V30 866 C 79.1724 3.89708 1.86418 0
M  V30 867 C 78.3074 4.32893 3.07859 0
M  V30 868 C 77.3464 5.48967 2.70742 0
M  V30 869 N 76.4834 5.87211 3.84874 0
M  V30 870 H 81.3234 2.94465 0.457639 0
M  V30 871 H 78.8604 1.45531 0.214266 0
M  V30 872 H 80.8184 2.96247 2.93758 0
M  V30 873 H 79.4484 1.86141 2.63726 0
M  V30 874 H 78.5004 3.66396 1.02264 0
M  V30 875 H 79.8124 4.74074 1.55096 0
M  V30 876 H 78.9664 4.6435 3.90466 0
M  V30 877 H 77.7054 3.47336 3.42358 0
M  V30 878 H 76.7104 5.17183 1.86551 0
M  V30 879 H 77.9354 6.3624 2.37436 0
M  V30 880 H 75.8814 5.04607 4.19175 0
M  V30 881 H 75.7984 6.66266 3.57247 0
M  V30 882 H 77.0664 6.23282 4.68123 0
M  V30 883 N 81.2955 -0.223234 1.56011 0
M  V30 884 C 82.5435 -0.946003 1.78592 0
M  V30 885 C 82.8645 -1.84936 0.618349 0
M  V30 886 O 82.1345 -1.92473 -0.364833 0
M  V30 887 H 80.7145 -0.352298 0.658707 0
M  V30 888 H 83.3765 -0.235494 1.93472 0
M  V30 889 H 82.4725 -1.55381 2.70672 0
M  V30 890 N 82.7736 -1.49793 -0.48987 0
M  V30 891 C 84.0216 -1.59525 -1.24081 0
M  V30 892 C 84.3426 -0.288953 -1.92847 0
M  V30 893 O 83.6126 0.692436 -1.83254 0
M  V30 894 H 82.1926 -0.587796 -0.460983 0
M  V30 895 H 84.8546 -1.86477 -0.566778 0
M  V30 896 H 83.9506 -2.39696 -1.99881 0
M  V30 897 N 84.2517 0.741722 -1.39055 0
M  V30 898 C 85.1817 1.869 -1.39966 0
M  V30 899 C 86.1627 1.6804 -0.26392 0
M  V30 900 O 87.3477 1.88458 -0.468755 0
M  V30 901 C 84.4777 3.24572 -1.23574 0
M  V30 902 C 83.4317 3.58056 -2.34477 0
M  V30 903 C 82.7577 4.94593 -2.0318 0
M  V30 904 C 84.0577 3.61716 -3.76774 0
M  V30 905 H 85.7517 1.86395 -2.34302 0
M  V30 906 H 83.2977 0.895361 -1.1278 0
M  V30 907 H 85.2507 4.031 -1.22834 0
M  V30 908 H 83.9747 3.25587 -0.257045 0
M  V30 909 H 82.6337 2.81854 -2.34423 0
M  V30 910 H 82.2817 4.92181 -1.03765 0
M  V30 911 H 81.9817 5.17964 -2.77465 0
M  V30 912 H 83.5057 5.75486 -2.04079 0
M  V30 913 H 84.9197 4.30335 -3.78794 0
M  V30 914 H 83.3167 3.96603 -4.50362 0
M  V30 915 H 84.3867 2.61672 -4.08235 0
M  V30 916 N 85.7298 1.2412 0.971189 0
M  V30 917 C 86.9548 1.10667 1.75407 0
M  V30 918 C 87.3798 -0.337048 1.85056 0
M  V30 919 O 86.7378 -1.24396 1.31892 0
M  V30 920 C 86.7858 1.74726 3.15441 0
M  V30 921 O 85.8898 1.01566 3.99697 0
M  V30 922 H 85.2308 0.387341 0.539317 0
M  V30 923 H 87.7608 1.64358 1.2185 0
M  V30 924 H 87.7708 1.80341 3.6598 0
M  V30 925 H 86.4458 2.79773 3.07734 0
M  V30 926 H 85.0228 1.03713 3.58187 0
M  V30 927 N 87.2079 -1.17134 1.05439 0
M  V30 928 C 88.6239 -1.39454 0.776201 0
M  V30 929 C 88.8239 -1.91454 -0.628307 0
M  V30 930 O 87.8799 -2.10777 -1.39031 0
M  V30 931 C 89.1929 -2.38305 1.83388 0
M  V30 932 C 90.7409 -2.52006 1.85639 0
M  V30 933 C 91.2159 -3.54133 2.90437 0
M  V30 934 N 92.7069 -3.61653 2.89415 0
M  V30 935 C 93.4419 -4.4044 3.67152 0
M  V30 936 N 92.9379 -5.22721 4.54681 0
M  V30 937 N 94.7309 -4.35337 3.55581 0
M  V30 938 H 86.8819 -0.817134 1.96053 0
M  V30 939 H 89.1449 -0.421626 0.849079 0
M  V30 940 H 88.8509 -2.07173 2.84204 0
M  V30 941 H 88.7249 -3.37841 1.67761 0
M  V30 942 H 91.1119 -2.82447 0.85486 0
M  V30 943 H 91.1929 -1.52537 2.05344 0
M  V30 944 H 90.8369 -3.24431 3.90777 0
M  V30 945 H 90.7669 -4.53313 2.67983 0
M  V30 946 H 93.2579 -3.02909 2.25952 0
M  V30 947 H 93.5709 -5.80027 5.10674 0
M  V30 948 H 91.9159 -5.22093 4.58741 0
M  V30 949 H 95.1069 -3.70112 2.86592 0
M  V30 950 H 95.2799 -4.96494 4.1641 0
M  V30 951 N 88.686 -0.835752 -1.33615 0
M  V30 952 C 89.616 -0.281739 -2.31794 0
M  V30 953 C 90.597 0.608833 -1.58831 0
M  V30 954 O 91.782 0.533035 -1.86741 0
M  V30 955 C 88.912 0.546612 -3.42971 0
M  V30 956 C 87.866 -0.247904 -4.27281 0
M  V30 957 C 87.192 0.704001 -5.30045 0
M  V30 958 C 88.492 -1.46324 -5.01385 0
M  V30 959 H 90.186 -1.10206 -2.78379 0
M  V30 960 H 87.732 -0.531388 -1.33837 0
M  V30 961 H 89.685 0.944467 -4.1068 0
M  V30 962 H 88.409 1.40011 -2.95067 0
M  V30 963 H 87.068 -0.627281 -3.61194 0
M  V30 964 H 86.716 1.55381 -4.78399 0
M  V30 965 H 86.416 0.176524 -5.87335 0
M  V30 966 H 87.94 1.09944 -6.0062 0
M  V30 967 H 89.354 -1.13871 -5.61877 0
M  V30 968 H 87.751 -1.92728 -5.6831 0
M  V30 969 H 88.821 -2.23467 -4.30338 0
M  V30 970 N 90.1641 1.46063 -0.591896 0
M  V30 971 C 91.1141 2.27458 0.157172 0
M  V30 972 C 92.0981 1.3641 0.853301 0
M  V30 973 O 93.2901 1.60517 0.74588 0
M  V30 974 C 90.4191 3.22956 1.16423 0
M  V30 975 C 89.5051 4.2149 0.469742 0
M  V30 976 N 89.8961 5.03519 -0.479839 0
M  V30 977 C 88.1941 4.40161 0.719319 0
M  V30 978 C 88.8951 5.74904 -0.886591 0
M  V30 979 N 87.8711 5.43097 -0.233731 0
M  V30 980 H 91.6731 2.88272 -0.572392 0
M  V30 981 H 89.1871 1.57024 -0.414375 0
M  V30 982 H 91.1841 3.79986 1.71513 0
M  V30 983 H 89.8441 2.63701 1.89451 0
M  V30 984 H 90.8551 5.1078 -0.855823 0
M  V30 985 H 87.5321 3.92046 1.43548 0
M  V30 986 H 88.9221 6.50844 -1.66888 0
M  V30 987 N 91.6422 0.330177 1.54103 0
M  V30 988 C 92.5522 -0.541534 2.28264 0
M  V30 989 C 93.5682 -1.12351 1.32866 0
M  V30 990 O 94.7442 -1.14206 1.65888 0
M  V30 991 C 91.8092 -1.68322 3.03098 0
M  V30 992 C 90.8702 -1.13238 4.14096 0
M  V30 993 C 90.1032 -2.21966 4.85352 0
M  V30 994 O 90.3262 -3.42437 4.56172 0
M  V30 995 O 89.2602 -1.87013 5.7211 0
M  V30 996 H 93.0862 0.060938 3.03639 0
M  V30 997 H 90.6712 0.09565 1.49093 0
M  V30 998 H 92.5532 -2.34777 3.49939 0
M  V30 999 H 91.2282 -2.27176 2.30593 0
M  V30 1000 H 90.1352 -0.432736 3.71589 0
M  V30 1001 H 91.4682 -0.588898 4.88664 0
M  V30 1002 N 93.1203 -1.57491 0.0584922 0
M  V30 1003 C 94.0503 -2.14988 -0.911178 0
M  V30 1004 C 95.0313 -1.07343 -1.31952 0
M  V30 1005 O 96.2163 -1.35318 -1.39294 0
M  V30 1006 C 93.3463 -2.70078 -2.18347 0
M  V30 1007 C 92.3003 -3.82771 -1.91495 0
M  V30 1008 C 91.6263 -4.24408 -3.25241 0
M  V30 1009 C 92.9263 -5.07592 -1.23075 0
M  V30 1010 H 94.6203 -2.96263 -0.432246 0
M  V30 1011 H 92.1663 -1.42512 -0.206469 0
M  V30 1012 H 94.1193 -3.08943 -2.86587 0
M  V30 1013 H 92.8433 -1.86005 -2.68458 0
M  V30 1014 H 91.5023 -3.44389 -1.25664 0
M  V30 1015 H 91.1503 -3.37275 -3.73168 0
M  V30 1016 H 90.8503 -5.00366 -3.08071 0
M  V30 1017 H 92.3743 -4.65879 -3.94701 0
M  V30 1018 H 93.7883 -5.43857 -1.81362 0
M  V30 1019 H 92.1853 -5.88741 -1.16207 0
M  V30 1020 H 93.2553 -4.84454 -0.207847 0
M  V30 1021 N 94.5984 0.214957 -1.56127 0
M  V30 1022 C 95.5304 1.29004 -1.89448 0
M  V30 1023 C 96.5434 1.42716 -0.783326 0
M  V30 1024 O 97.7324 1.43496 -1.06166 0
M  V30 1025 C 94.8324 2.66482 -2.09381 0
M  V30 1026 C 94.0054 2.74633 -3.40434 0
M  V30 1027 C 93.0644 3.9317 -3.49719 0
M  V30 1028 O 92.0904 3.812 -4.227 0
M  V30 1029 N 93.2924 5.07765 -2.81346 0
M  V30 1030 H 96.0574 1.00743 -2.82261 0
M  V30 1031 H 93.6184 0.40497 -1.56753 0
M  V30 1032 H 95.6104 3.44173 -2.12901 0
M  V30 1033 H 94.1804 2.87314 -1.23163 0
M  V30 1034 H 93.4004 1.83368 -3.48955 0
M  V30 1035 H 94.6884 2.77054 -4.26754 0
M  V30 1036 H 94.0864 5.20386 -2.21843 0
M  V30 1037 H 92.6434 5.83474 -2.90519 0
M  V30 1038 N 96.0765 1.50051 0.48192 0
M  V30 1039 C 97.3225 1.60736 1.2366 0
M  V30 1040 C 97.6555 0.301786 1.91841 0
M  V30 1041 O 96.9305 -0.696025 1.8162 0
M  V30 1042 C 97.2135 2.78009 2.28874 0
M  V30 1043 C 97.0665 4.18416 1.65069 0
M  V30 1044 C 98.3855 2.90867 3.30279 0
M  V30 1045 H 95.5045 0.585031 0.448228 0
M  V30 1046 H 98.1465 1.82402 0.531946 0
M  V30 1047 H 96.2965 2.59667 2.88973 0
M  V30 1048 H 97.9685 4.48322 1.0865 0
M  V30 1049 H 96.2115 4.23177 0.954148 0
M  V30 1050 H 96.8825 4.96381 2.41474 0
M  V30 1051 H 99.3585 3.07623 2.80191 0
M  V30 1052 H 98.2345 3.74566 4.01238 0
M  V30 1053 H 98.4955 2.01021 3.93755 0
M  V30 1054 N 97.5546 -0.734337 1.39446 0
M  V30 1055 C 98.4866 -1.85861 1.34121 0
M  V30 1056 C 99.4996 -1.60871 0.249864 0
M  V30 1057 O 100.689 -1.71093 0.508865 0
M  V30 1058 C 97.7886 -3.21899 1.05991 0
M  V30 1059 C 96.9616 -3.74239 2.26415 0
M  V30 1060 C 96.0206 -4.88841 1.94733 0
M  V30 1061 O 95.0466 -5.02468 2.67422 0
M  V30 1062 N 96.2486 -5.73261 0.913884 0
M  V30 1063 H 99.0136 -1.90934 2.31007 0
M  V30 1064 H 96.5746 -0.915102 1.33557 0
M  V30 1065 H 98.5666 -3.96136 0.828147 0
M  V30 1066 H 97.1366 -3.12091 0.178361 0
M  V30 1067 H 96.3566 -2.91347 2.65539 0
M  V30 1068 H 97.6446 -4.05942 3.06738 0
M  V30 1069 H 97.0426 -5.64842 0.311476 0
M  V30 1070 H 95.5996 -6.47563 0.742015 0
M  V30 1071 N 99.0327 -1.24633 -0.964593 0
M  V30 1072 C 100.281 -1.08573 -1.70459 0
M  V30 1073 C 100.602 0.375655 -1.91347 0
M  V30 1074 O 99.8717 1.26779 -1.49345 0
M  V30 1075 H 98.4517 -0.398784 -0.631649 0
M  V30 1076 H 101.114 -1.56601 -1.16026 0
M  V30 1077 H 100.21 -1.58623 -2.68785 0
M  V30 1078 N 100.511 1.16574 -1.06058 0
M  V30 1079 C 101.474 2.19085 -0.673392 0
M  V30 1080 C 102.474 1.5835 0.279648 0
M  V30 1081 O 103.664 1.74088 0.0623488 0
M  V30 1082 C 100.796 3.40899 0.00954234 0
M  V30 1083 H 101.989 2.54853 -1.58081 0
M  V30 1084 H 99.5418 1.30808 -0.855516 0
M  V30 1085 H 100.277 3.10684 0.929826 0
M  V30 1086 H 100.062 3.86233 -0.67573 0
M  V30 1087 H 101.552 4.1675 0.266245 0
M  V30 1088 N 101.989 0.842826 1.3317 0
M  V30 1089 C 102.952 0.284065 2.27433 0
M  V30 1090 C 103.952 -0.54948 1.5112 0
M  V30 1091 O 105.142 -0.362699 1.70382 0
M  V30 1092 C 102.274 -0.599384 3.35589 0
M  V30 1093 H 103.467 1.11589 2.78366 0
M  V30 1094 H 101.02 0.616221 1.4364 0
M  V30 1095 H 101.755 -1.45349 2.89904 0
M  V30 1096 H 101.54 -0.00291266 3.921 0
M  V30 1097 H 103.03 -0.983488 4.05854 0
M  V30 1098 N 103.467 -1.45747 0.599634 0
M  V30 1099 C 104.417 -2.27538 -0.145107 0
M  V30 1100 C 105.401 -1.3686 -0.846055 0
M  V30 1101 O 106.593 -1.6091 -0.737357 0
M  V30 1102 C 103.722 -3.23569 -1.14708 0
M  V30 1103 C 102.808 -4.21734 -0.447383 0
M  V30 1104 N 103.199 -5.03257 0.506535 0
M  V30 1105 C 101.497 -4.40536 -0.695966 0
M  V30 1106 C 102.198 -5.74426 0.917068 0
M  V30 1107 N 101.174 -5.42966 0.26253 0
M  V30 1108 H 104.976 -2.87965 0.587672 0
M  V30 1109 H 102.49 -1.56803 0.422697 0
M  V30 1110 H 104.487 -3.8089 -1.69495 0
M  V30 1111 H 103.147 -2.64702 -1.8805 0
M  V30 1112 H 104.158 -5.10319 0.882899 0
M  V30 1113 H 100.835 -3.92802 -1.41467 0
M  V30 1114 H 102.225 -6.4995 1.70338 0
M  V30 1115 N 104.945 -0.338344 -1.53925 0
M  V30 1116 C 106.192 0.259758 -2.00827 0
M  V30 1117 C 106.52 1.50973 -1.22628 0
M  V30 1118 O 105.775 1.93379 -0.300509 0
M  V30 1119 C 106.074 0.62448 -3.51902 0
M  V30 1120 C 105.74 -0.528006 -4.47798 0
M  V30 1121 C 104.402 -0.844298 -4.73735 0
M  V30 1122 C 106.754 -1.30143 -5.0469 0
M  V30 1123 C 104.082 -1.93648 -5.53821 0
M  V30 1124 C 106.434 -2.38382 -5.85967 0
M  V30 1125 C 105.098 -2.70576 -6.10201 0
M  V30 1126 H 104.368 0.0950523 -0.734878 0
M  V30 1127 H 107.015 -0.465182 -1.85764 0
M  V30 1128 H 105.32 1.43006 -3.64769 0
M  V30 1129 H 107.017 1.09905 -3.85645 0
M  V30 1130 H 103.607 -0.271421 -4.2774 0
M  V30 1131 H 107.791 -1.07033 -4.84621 0
M  V30 1132 H 103.047 -2.19021 -5.70824 0
M  V30 1133 H 107.221 -2.98746 -6.29066 0
M  V30 1134 H 104.848 -3.55333 -6.72044 0
M  V30 1135 N 106.423 1.57458 -0.0668435 0
M  V30 1136 C 107.671 1.92919 0.602214 0
M  V30 1137 C 107.992 0.947215 1.70449 0
M  V30 1138 O 107.262 -0.00544117 1.95899 0
M  V30 1139 H 105.842 0.71217 0.22544 0
M  V30 1140 H 108.504 1.94508 -0.123535 0
M  V30 1141 H 107.6 2.94589 1.03073 0
M  V30 1142 N 107.901 -0.206675 1.56239 0
M  V30 1143 C 109.312 -0.772383 1.69974 0
M  V30 1144 C 109.663 -1.84353 0.671436 0
M  V30 1145 O 108.788 -2.15695 -0.174491 0
M  V30 1146 C 109.383 -1.40779 3.08167 0
M  V30 1147 C 107.942 -1.92072 3.23706 0
M  V30 1148 C 107.089 -0.786347 2.65917 0
M  V30 1149 H 110.04 0.0182223 1.5869 0
M  V30 1150 H 110.061 -2.27696 3.04852 0
M  V30 1151 H 109.573 -0.627958 3.82986 0
M  V30 1152 H 107.674 -2.7281 2.53782 0
M  V30 1153 H 107.787 -2.09046 4.31087 0
M  V30 1154 H 106.151 -1.1976 2.24788 0
M  V30 1155 H 106.934 -0.0189416 3.43295 0
M  V30 1156 N 109.379 -1.50304 -0.473955 0
M  V30 1157 C 110.625 -1.61389 -1.22806 0
M  V30 1158 C 110.958 -0.311955 -1.91678 0
M  V30 1159 O 110.233 0.686384 -1.81986 0
M  V30 1160 C 110.516 -2.79219 -2.27396 0
M  V30 1161 C 110.369 -4.19286 -1.62848 0
M  V30 1162 C 111.688 -2.92614 -3.28732 0
M  V30 1163 H 108.807 -0.587399 -0.445119 0
M  V30 1164 H 111.449 -1.82681 -0.522265 0
M  V30 1165 H 109.599 -2.61195 -2.87592 0
M  V30 1166 H 111.271 -4.48892 -1.06271 0
M  V30 1167 H 109.514 -4.23677 -0.931693 0
M  V30 1168 H 110.185 -4.97655 -2.38838 0
M  V30 1169 H 112.661 -3.09105 -2.78556 0
M  V30 1170 H 111.537 -3.76688 -3.99246 0
M  V30 1171 H 111.798 -2.03107 -3.92683 0
M  V30 1172 N 110.857 0.726932 -1.39834 0
M  V30 1173 C 112.103 1.48771 -1.38704 0
M  V30 1174 C 112.458 1.92394 0.0146387 0
M  V30 1175 O 111.751 1.64474 0.982797 0
M  V30 1176 C 111.945 2.73495 -2.30077 0
M  V30 1177 C 111.774 2.42068 -3.78989 0
M  V30 1178 C 110.544 2.33966 -4.4787 0
M  V30 1179 C 112.742 2.0708 -4.70768 0
M  V30 1180 N 110.724 1.95095 -5.82075 0
M  V30 1181 C 112.095 1.78719 -5.93683 0
M  V30 1182 C 114.15 1.93618 -4.58712 0
M  V30 1183 C 112.853 1.3825 -7.05889 0
M  V30 1184 C 114.879 1.54553 -5.70848 0
M  V30 1185 C 114.241 1.27082 -6.92842 0
M  V30 1186 H 110.34 0.542919 -0.562817 0
M  V30 1187 H 112.924 0.84408 -1.75452 0
M  V30 1188 H 111.095 3.35625 -1.95474 0
M  V30 1189 H 112.827 3.39755 -2.19883 0
M  V30 1190 H 109.582 2.51331 -4.0141 0
M  V30 1191 H 110.006 1.7823 -6.53118 0
M  V30 1192 H 114.648 2.13522 -3.64922 0
M  V30 1193 H 112.366 1.17088 -7.99572 0
M  V30 1194 H 115.952 1.44731 -5.6351 0
M  V30 1195 H 114.832 0.973069 -7.78139 0
M  V30 1196 N 112.336 1.25143 0.95797 0
M  V30 1197 C 113.266 1.07711 2.07173 0
M  V30 1198 C 114.247 -0.0128462 1.70095 0
M  V30 1199 O 115.432 0.156061 1.93572 0
M  V30 1200 C 112.562 0.691503 3.40346 0
M  V30 1201 C 111.516 1.73132 3.9142 0
M  V30 1202 C 110.842 1.20049 5.21049 0
M  V30 1203 C 112.142 3.1294 4.1817 0
M  V30 1204 H 113.836 2.00873 2.22014 0
M  V30 1205 H 111.382 0.967191 1.06684 0
M  V30 1206 H 113.335 0.556505 4.17709 0
M  V30 1207 H 112.059 -0.275819 3.25433 0
M  V30 1208 H 110.718 1.8547 3.16222 0
M  V30 1209 H 110.366 0.223499 5.02503 0
M  V30 1210 H 110.066 1.89545 5.56189 0
M  V30 1211 H 111.59 1.07782 6.01012 0
M  V30 1212 H 113.004 3.03775 4.86203 0
M  V30 1213 H 111.401 3.79875 4.64559 0
M  V30 1214 H 112.471 3.6025 3.24573 0
M  V30 1215 N 113.814 -1.1601 1.06675 0
M  V30 1216 C 114.777 -2.18724 0.685001 0
M  V30 1217 C 115.777 -1.58496 -0.271246 0
M  V30 1218 O 116.967 -1.74119 -0.0531156 0
M  V30 1219 C 114.099 -3.40899 0.00853648 0
M  V30 1220 H 115.292 -2.54011 1.59431 0
M  V30 1221 H 112.845 -1.30352 0.862441 0
M  V30 1222 H 113.58 -3.11173 -0.913337 0
M  V30 1223 H 113.365 -3.8587 0.696204 0
M  V30 1224 H 114.855 -4.16886 -0.24414 0
M  V30 1225 N 115.292 -0.849877 -1.32721 0
M  V30 1226 C 116.517 -0.463856 -2.02146 0
M  V30 1227 C 116.942 0.930449 -1.63476 0
M  V30 1228 O 116.3 1.61033 -0.832952 0
M  V30 1229 C 116.348 -0.604955 -3.55489 0
M  V30 1230 O 115.452 0.36425 -4.10788 0
M  V30 1231 H 114.793 -0.187046 -0.637111 0
M  V30 1232 H 117.323 -1.14775 -1.69375 0
M  V30 1233 H 117.333 -0.490696 -4.05038 0
M  V30 1234 H 116.008 -1.62174 -3.82978 0
M  V30 1235 H 114.585 0.206628 -3.72327 0
M  V30 1236 N 116.77 1.45427 -0.607355 0
M  V30 1237 C 118.017 2.02241 -0.102455 0
M  V30 1238 C 118.345 1.4758 1.26691 0
M  V30 1239 O 117.6 0.640468 1.84923 0
M  V30 1240 C 117.899 3.57398 -0.0129263 0
M  V30 1241 C 117.565 4.3121 -1.31792 0
M  V30 1242 C 116.227 4.51092 -1.67539 0
M  V30 1243 C 118.579 4.73401 -2.18039 0
M  V30 1244 C 115.907 5.10422 -2.89285 0
M  V30 1245 C 118.259 5.34078 -3.39034 0
M  V30 1246 C 116.923 5.52184 -3.75033 0
M  V30 1247 H 116.193 0.740051 -0.037491 0
M  V30 1248 H 118.84 1.74494 -0.788926 0
M  V30 1249 H 117.145 3.84421 0.756806 0
M  V30 1250 H 118.842 3.99061 0.393881 0
M  V30 1251 H 115.432 4.16047 -1.02968 0
M  V30 1252 H 119.616 4.57774 -1.91721 0
M  V30 1253 H 114.872 5.22629 -3.17283 0
M  V30 1254 H 119.046 5.65724 -4.06115 0
M  V30 1255 H 116.673 5.97925 -4.69457 0
M  V30 1256 N 118.248 0.346503 1.53744 0
M  V30 1257 C 119.496 -0.248612 2.00565 0
M  V30 1258 C 119.817 -1.5083 1.23593 0
M  V30 1259 O 119.087 -1.92858 0.343912 0
M  V30 1260 H 117.667 -0.0948564 0.740953 0
M  V30 1261 H 120.329 0.468341 1.89189 0
M  V30 1262 H 119.425 -0.488994 3.08245 0
M  V30 1263 N 119.726 -1.57421 0.075193 0
M  V30 1264 C 120.954 -1.97946 -0.602076 0
M  V30 1265 C 121.369 -0.953674 -1.62943 0
M  V30 1266 O 120.726 0.0592551 -1.82404 0
M  V30 1267 C 120.777 -3.38546 -1.26762 0
M  V30 1268 O 120.498 -4.37195 -0.281376 0
M  V30 1269 C 121.999 -3.93966 -2.03239 0
M  V30 1270 H 119.219 -0.650918 -0.162931 0
M  V30 1271 H 121.763 -2.03959 0.148601 0
M  V30 1272 H 119.918 -3.33609 -1.96936 0
M  V30 1273 H 120.332 -5.18975 -0.759267 0
M  V30 1274 H 121.806 -4.94555 -2.45193 0
M  V30 1275 H 122.283 -3.30693 -2.8903 0
M  V30 1276 H 122.889 -4.02315 -1.37924 0
M  V30 1277 N 121.204 0.198386 -1.56346 0
M  V30 1278 C 122.45 0.920648 -1.80698 0
M  V30 1279 C 122.783 1.83045 -0.648697 0
M  V30 1280 O 122.058 1.91308 0.350925 0
M  V30 1281 C 122.341 1.73971 -3.15287 0
M  V30 1282 C 122.194 0.85485 -4.41602 0
M  V30 1283 C 123.513 2.71296 -3.46535 0
M  V30 1284 H 120.632 0.333261 -0.657348 0
M  V30 1285 H 123.274 0.188198 -1.89066 0
M  V30 1286 H 121.424 2.36416 -3.08285 0
M  V30 1287 H 123.096 0.245362 -4.60647 0
M  V30 1288 H 121.339 0.161398 -4.335 0
M  V30 1289 H 122.01 1.46286 -5.32264 0
M  V30 1290 H 124.486 2.18983 -3.53816 0
M  V30 1291 H 123.362 3.2569 -4.41834 0
M  V30 1292 H 123.623 3.5018 -2.69864 0
M  V30 1293 N 122.682 1.50554 0.465978 0
M  V30 1294 C 124.098 1.38093 0.800154 0
M  V30 1295 C 124.298 0.440988 1.96615 0
M  V30 1296 O 123.354 -0.114499 2.5224 0
M  V30 1297 C 124.667 2.79565 1.10742 0
M  V30 1298 C 126.215 2.88516 1.21357 0
M  V30 1299 C 126.69 4.30833 1.55393 0
M  V30 1300 N 128.181 4.33807 1.62375 0
M  V30 1301 C 128.916 5.40927 1.90225 0
M  V30 1302 N 128.412 6.58247 2.16062 0
M  V30 1303 N 130.205 5.28376 1.9177 0
M  V30 1304 H 122.356 2.10237 -0.302366 0
M  V30 1305 H 124.619 0.945203 -0.0727746 0
M  V30 1306 H 124.325 3.50208 0.323661 0
M  V30 1307 H 124.199 3.17125 2.04234 0
M  V30 1308 H 126.586 2.1809 1.98799 0
M  V30 1309 H 126.667 2.54492 0.258321 0
M  V30 1310 H 126.311 5.01799 0.784889 0
M  V30 1311 H 126.241 4.62347 2.52076 0
M  V30 1312 H 128.732 3.49212 1.44427 0
M  V30 1313 H 129.045 7.3569 2.36601 0
M  V30 1314 H 127.39 6.61413 2.13444 0
M  V30 1315 H 130.581 4.35715 1.71085 0
M  V30 1316 H 130.754 6.11944 2.13139 0
M  V30 1317 N 124.16 -0.719506 1.40217 0
M  V30 1318 C 125.388 -1.50864 1.41589 0
M  V30 1319 C 125.803 -1.88794 0.0145275 0
M  V30 1320 O 125.16 -1.55174 -0.960594 0
M  V30 1321 C 125.211 -2.78646 2.30302 0
M  V30 1322 O 124.932 -2.42321 3.64983 0
M  V30 1323 C 126.433 -3.72569 2.40224 0
M  V30 1324 H 123.653 -0.465709 0.48307 0
M  V30 1325 H 126.197 -0.88785 1.84221 0
M  V30 1326 H 124.352 -3.37019 1.91042 0
M  V30 1327 H 124.766 -3.24514 4.12057 0
M  V30 1328 H 126.24 -4.5908 3.06512 0
M  V30 1329 H 126.717 -4.15403 1.42608 0
M  V30 1330 H 127.323 -3.20109 2.80019 0
M  V30 1331 N 125.638 -1.25649 -0.95132 0
M  V30 1332 C 126.884 -1.10757 -1.69884 0
M  V30 1333 C 127.217 0.350061 -1.91019 0
M  V30 1334 O 126.492 1.25783 -1.48354 0
M  V30 1335 C 126.775 -1.86606 -3.07978 0
M  V30 1336 C 126.628 -3.40217 -2.94232 0
M  V30 1337 C 127.947 -1.65182 -4.07925 0
M  V30 1338 H 125.066 -0.40374 -0.616574 0
M  V30 1339 H 127.708 -1.54521 -1.10558 0
M  V30 1340 H 125.858 -1.49409 -3.58621 0
M  V30 1341 H 127.53 -3.87108 -2.50889 0
M  V30 1342 H 125.773 -3.67759 -2.30078 0
M  V30 1343 H 126.444 -3.88505 -3.92133 0
M  V30 1344 H 128.92 -1.9757 -3.66204 0
M  V30 1345 H 127.796 -2.20683 -5.02583 0
M  V30 1346 H 128.057 -0.593933 -4.38092 0
M  V30 1347 N 127.117 1.15442 -1.07289 0
M  V30 1348 C 128.347 1.89821 -0.815576 0
M  V30 1349 C 128.755 1.7823 0.634867 0
M  V30 1350 O 128.098 1.13152 1.44715 0
M  V30 1351 C 128.16 3.40817 -1.14385 0
M  V30 1352 C 127.824 3.76193 -2.59476 0
M  V30 1353 C 128.821 3.77269 -3.57721 0
M  V30 1354 C 126.506 4.0652 -2.95037 0
M  V30 1355 C 128.5 4.08176 -4.89562 0
M  V30 1356 C 126.187 4.37092 -4.27076 0
M  V30 1357 C 127.185 4.37902 -5.24148 0
M  V30 1358 O 126.873 4.67741 -6.53815 0
M  V30 1359 H 126.605 0.608465 -0.294528 0
M  V30 1360 H 129.159 1.472 -1.43252 0
M  V30 1361 H 127.389 3.83835 -0.469865 0
M  V30 1362 H 129.078 3.96485 -0.869179 0
M  V30 1363 H 129.844 3.5394 -3.3159 0
M  V30 1364 H 125.723 4.05049 -2.20128 0
M  V30 1365 H 129.267 4.08723 -5.65324 0
M  V30 1366 H 125.164 4.59889 -4.5296 0
M  V30 1367 H 125.932 4.85509 -6.58957 0
M  V30 1368 N 128.595 0.856903 1.32268 0
M  V30 1369 C 129.841 0.462069 1.97466 0
M  V30 1370 C 130.174 -0.980298 1.67642 0
M  V30 1371 O 129.449 -1.68824 0.965858 0
M  V30 1372 C 129.732 0.704336 3.53145 0
M  V30 1373 C 129.585 2.19529 3.9259 0
M  V30 1374 C 130.904 0.1622 4.39801 0
M  V30 1375 H 128.023 0.169357 0.717278 0
M  V30 1376 H 130.665 1.07574 1.56614 0
M  V30 1377 H 128.815 0.181999 3.88073 0
M  V30 1378 H 130.487 2.78387 3.67829 0
M  V30 1379 H 128.73 2.67292 3.41668 0
M  V30 1380 H 129.401 2.31549 5.01088 0
M  V30 1381 H 131.877 0.608905 4.11621 0
M  V30 1382 H 130.753 0.361265 5.4771 0
M  V30 1383 H 131.014 -0.935158 4.32096 0
M  V30 1384 N 130.073 -1.45103 0.615059 0
M  V30 1385 C 131.036 -2.29025 -0.0895485 0
M  V30 1386 C 132.036 -1.40174 -0.787906 0
M  V30 1387 O 133.226 -1.62217 -0.634933 0
M  V30 1388 C 130.358 -3.21376 -1.13711 0
M  V30 1389 H 131.551 -2.92807 0.648382 0
M  V30 1390 H 129.104 -1.51749 0.374444 0
M  V30 1391 H 129.839 -2.6241 -1.90556 0
M  V30 1392 H 129.624 -3.86834 -0.640475 0
M  V30 1393 H 131.114 -3.84459 -1.63036 0
M  V30 1394 N 131.551 -0.354651 -1.53558 0
M  V30 1395 C 132.514 0.484566 -2.24019 0
M  V30 1396 C 133.514 1.01861 -1.24422 0
M  V30 1397 O 134.704 0.906097 -1.4878 0
M  V30 1398 C 131.836 1.67615 -2.96847 0
M  V30 1399 H 133.029 -0.131843 -2.9961 0
M  V30 1400 H 130.582 -0.106165 -1.55939 0
M  V30 1401 H 131.317 2.33095 -2.25471 0
M  V30 1402 H 131.102 1.30029 -3.69912 0
M  V30 1403 H 132.592 2.27114 -3.50441 0
M  V30 1404 N 133.029 1.57378 -0.0835403 0
M  V30 1405 C 134.44 1.81261 0.447358 0
M  V30 1406 C 134.791 0.998331 1.68902 0
M  V30 1407 O 133.916 0.224282 2.15235 0
M  V30 1408 C 134.511 3.28767 0.818386 0
M  V30 1409 C 133.07 3.53455 1.29409 0
M  V30 1410 C 132.217 2.75831 0.285024 0
M  V30 1411 H 135.168 1.5566 -0.309115 0
M  V30 1412 H 135.189 3.41459 1.67887 0
M  V30 1413 H 134.701 3.88006 -0.0855019 0
M  V30 1414 H 132.802 2.99534 2.21608 0
M  V30 1415 H 132.915 4.62128 1.2639 0
M  V30 1416 H 131.279 2.42947 0.764767 0
M  V30 1417 H 132.062 3.37813 -0.611341 0
M  V30 1418 N 134.507 -0.190092 1.56449 0
M  V30 1419 C 135.47 -1.21925 1.9408 0
M  V30 1420 C 136.47 -1.38176 0.822431 0
M  V30 1421 O 137.66 -1.35903 1.08977 0
M  V30 1422 C 134.792 -2.58773 2.21922 0
M  V30 1423 H 135.985 -0.897464 2.86157 0
M  V30 1424 H 133.538 -0.43181 1.50217 0
M  V30 1425 H 134.273 -2.95998 1.32499 0
M  V30 1426 H 134.058 -2.48348 3.03424 0
M  V30 1427 H 135.548 -3.32978 2.52022 0
M  V30 1428 N 135.985 -1.50799 -0.457987 0
M  V30 1429 C 136.915 -1.73553 -1.5621 0
M  V30 1430 C 137.896 -0.584774 -1.59732 0
M  V30 1431 O 139.081 -0.825314 -1.7579 0
M  V30 1432 C 136.211 -1.84169 -2.94447 0
M  V30 1433 C 135.165 -2.99461 -3.0579 0
M  V30 1434 C 134.491 -2.95235 -4.45803 0
M  V30 1435 C 135.791 -4.39766 -2.81786 0
M  V30 1436 H 137.485 -2.66 -1.37421 0
M  V30 1437 H 135.031 -1.28002 -0.659662 0
M  V30 1438 H 136.984 -1.98672 -3.71628 0
M  V30 1439 H 135.708 -0.883545 -3.14422 0
M  V30 1440 H 134.367 -2.8463 -2.31044 0
M  V30 1441 H 134.015 -1.97239 -4.62715 0
M  V30 1442 H 133.715 -3.72642 -4.54326 0
M  V30 1443 H 135.239 -3.11803 -5.24987 0
M  V30 1444 H 136.653 -4.55054 -3.4871 0
M  V30 1445 H 135.05 -5.18722 -3.0174 0
M  V30 1446 H 136.12 -4.51229 -1.7754 0
M  V30 1447 N 137.463 0.71206 -1.40597 0
M  V30 1448 C 138.709 1.47416 -1.39271 0
M  V30 1449 C 139.042 1.942 0.00388791 0
M  V30 1450 O 138.317 1.68403 0.973179 0
M  V30 1451 C 138.6 2.69774 -2.38525 0
M  V30 1452 C 138.453 2.28861 -3.87224 0
M  V30 1453 C 139.772 3.71939 -2.35264 0
M  V30 1454 H 136.891 0.534713 -0.5072 0
M  V30 1455 H 139.533 0.812375 -1.71757 0
M  V30 1456 H 137.683 3.26238 -2.10953 0
M  V30 1457 H 139.355 1.77852 -4.25636 0
M  V30 1458 H 137.598 1.60824 -4.02887 0
M  V30 1459 H 138.269 3.16584 -4.52193 0
M  V30 1460 H 140.745 3.25113 -2.59694 0
M  V30 1461 H 139.621 4.55186 -3.06753 0
M  V30 1462 H 139.882 4.20484 -1.36549 0
M  V30 1463 N 138.941 1.26152 0.944643 0
M  V30 1464 C 139.851 1.09176 2.07648 0
M  V30 1465 C 140.867 0.0261935 1.7398 0
M  V30 1466 O 142.043 0.229208 2.00091 0
M  V30 1467 C 139.108 0.722915 3.39079 0
M  V30 1468 C 138.169 1.86752 3.86552 0
M  V30 1469 C 137.402 1.51617 5.11711 0
M  V30 1470 O 137.625 0.416331 5.68879 0
M  V30 1471 O 136.559 2.34975 5.54139 0
M  V30 1472 H 140.385 2.0412 2.24875 0
M  V30 1473 H 137.97 1.05182 1.061 0
M  V30 1474 H 139.852 0.529787 4.18056 0
M  V30 1475 H 138.527 -0.197159 3.23099 0
M  V30 1476 H 137.434 2.11558 3.08535 0
M  V30 1477 H 138.767 2.76719 4.07047 0
M  V30 1478 N 140.419 -1.14872 1.07899 0
M  V30 1479 C 141.329 -2.2341 0.715915 0
M  V30 1480 C 142.345 -1.71808 -0.275306 0
M  V30 1481 O 143.521 -2.01039 -0.120545 0
M  V30 1482 C 140.586 -3.46474 0.125168 0
M  V30 1483 C 139.647 -4.13039 1.17034 0
M  V30 1484 C 138.88 -5.30229 0.607688 0
M  V30 1485 O 139.103 -5.675 -0.574497 0
M  V30 1486 O 138.037 -5.86444 1.35526 0
M  V30 1487 H 141.863 -2.56808 1.62121 0
M  V30 1488 H 139.448 -1.22702 0.852322 0
M  V30 1489 H 141.33 -4.20917 -0.201729 0
M  V30 1490 H 140.005 -3.14811 -0.753364 0
M  V30 1491 H 138.912 -3.40493 1.54968 0
M  V30 1492 H 140.245 -4.48796 2.02097 0
M  V30 1493 N 141.898 -0.863906 -1.31812 0
M  V30 1494 C 142.828 -0.330843 -2.31144 0
M  V30 1495 C 143.809 0.575005 -1.60087 0
M  V30 1496 O 144.994 0.493304 -1.8783 0
M  V30 1497 C 142.124 0.47374 -3.44054 0
M  V30 1498 C 141.078 -0.338481 -4.26659 0
M  V30 1499 C 140.404 0.591412 -5.31419 0
M  V30 1500 C 141.704 -1.56926 -4.98168 0
M  V30 1501 H 143.398 -1.16086 -2.75979 0
M  V30 1502 H 140.944 -0.559657 -1.32679 0
M  V30 1503 H 142.897 0.857143 -4.12591 0
M  V30 1504 H 141.621 1.33721 -2.9797 0
M  V30 1505 H 140.28 -0.703754 -3.59782 0
M  V30 1506 H 139.928 1.45199 -4.81587 0
M  V30 1507 H 139.628 0.0519022 -5.87577 0
M  V30 1508 H 141.152 0.97179 -6.02817 0
M  V30 1509 H 142.566 -1.25764 -5.59336 0
M  V30 1510 H 140.963 -2.04739 -5.64094 0
M  V30 1511 H 142.033 -2.32544 -4.25501 0
M  V30 1512 N 143.376 1.44774 -0.622745 0
M  V30 1513 C 144.306 2.33382 0.0741861 0
M  V30 1514 C 145.287 1.47719 0.843387 0
M  V30 1515 O 146.472 1.76458 0.810934 0
M  V30 1516 C 143.602 3.30663 1.06204 0
M  V30 1517 C 142.556 4.26079 0.405037 0
M  V30 1518 C 141.882 5.13165 1.5022 0
M  V30 1519 C 143.182 5.1781 -0.683414 0
M  V30 1520 H 144.876 2.91905 -0.665713 0
M  V30 1521 H 142.422 1.40363 -0.321587 0
M  V30 1522 H 144.375 3.9153 1.55827 0
M  V30 1523 H 143.099 2.70331 1.83272 0
M  V30 1524 H 141.758 3.66532 -0.0704683 0
M  V30 1525 H 141.406 4.49191 2.26355 0
M  V30 1526 H 141.106 5.77812 1.06803 0
M  V30 1527 H 142.63 5.76902 2.00041 0
M  V30 1528 H 144.044 5.72661 -0.270631 0
M  V30 1529 H 142.441 5.91015 -1.04023 0
M  V30 1530 H 143.511 4.59326 -1.55395 0
M  V30 1531 N 144.854 0.36279 1.53368 0
M  V30 1532 C 146.27 0.0116182 1.59596 0
M  V30 1533 C 146.47 -1.47012 1.37803 0
M  V30 1534 O 145.526 -2.23136 1.18181 0
M  V30 1535 C 146.839 0.465052 2.97082 0
M  V30 1536 C 148.387 0.419033 3.10182 0
M  V30 1537 C 148.862 0.848235 4.50077 0
M  V30 1538 N 150.353 0.803183 4.56183 0
M  V30 1539 C 151.088 1.107 5.62613 0
M  V30 1540 N 150.584 1.47996 6.76808 0
M  V30 1541 N 152.377 1.02998 5.52583 0
M  V30 1542 H 144.528 1.32775 1.65785 0
M  V30 1543 H 146.791 0.542518 0.777417 0
M  V30 1544 H 146.497 1.49892 3.18159 0
M  V30 1545 H 146.371 -0.149786 3.76902 0
M  V30 1546 H 148.758 -0.605696 2.88817 0
M  V30 1547 H 148.839 1.06933 2.32377 0
M  V30 1548 H 148.483 1.87107 4.7218 0
M  V30 1549 H 148.413 0.175218 5.26308 0
M  V30 1550 H 150.904 0.52838 3.74188 0
M  V30 1551 H 151.217 1.69613 7.53957 0
M  V30 1552 H 149.562 1.51859 6.78206 0
M  V30 1553 H 152.753 0.737817 4.62249 0
M  V30 1554 H 152.926 1.2701 6.35431 0
M  V30 1555 N 146.332 -1.57332 0.0918853 0
M  V30 1556 C 147.264 -2.10869 -0.898168 0
M  V30 1557 C 148.277 -1.04521 -1.24817 0
M  V30 1558 O 149.466 -1.31977 -1.20184 0
M  V30 1559 C 146.566 -2.57083 -2.2082 0
M  V30 1560 C 145.739 -3.87229 -2.03402 0
M  V30 1561 C 144.798 -4.19324 -3.17889 0
M  V30 1562 O 143.824 -4.88598 -2.91994 0
M  V30 1563 N 145.026 -3.74471 -4.43567 0
M  V30 1564 H 147.791 -2.96439 -0.440943 0
M  V30 1565 H 145.352 -1.61631 -0.0933064 0
M  V30 1566 H 147.344 -2.75602 -2.96354 0
M  V30 1567 H 145.914 -1.76541 -2.57977 0
M  V30 1568 H 145.134 -3.7789 -1.12218 0
M  V30 1569 H 146.422 -4.72379 -1.89038 0
M  V30 1570 H 145.82 -3.18546 -4.67488 0
M  V30 1571 H 144.377 -3.98151 -5.16061 0
M  V30 1572 N 147.81 0.181792 -1.56548 0
M  V30 1573 C 148.72 1.24538 -1.98815 0
M  V30 1574 C 149.736 1.49045 -0.897861 0
M  V30 1575 O 150.912 1.61399 -1.20467 0
M  V30 1576 C 147.977 2.56683 -2.33055 0
M  V30 1577 C 147.038 2.40131 -3.55859 0
M  V30 1578 C 146.271 3.65975 -3.88456 0
M  V30 1579 O 146.494 4.70711 -3.22161 0
M  V30 1580 O 145.428 3.6071 -4.81842 0
M  V30 1581 H 149.254 0.916647 -2.89536 0
M  V30 1582 H 146.839 0.387842 -1.44278 0
M  V30 1583 H 148.721 3.34655 -2.56094 0
M  V30 1584 H 147.396 2.89157 -1.45498 0
M  V30 1585 H 146.303 1.60226 -3.38051 0
M  V30 1586 H 147.636 2.12585 -4.43924 0
M  V30 1587 N 149.288 1.51039 0.449983 0
M  V30 1588 C 150.536 1.62759 1.19808 0
M  V30 1589 C 150.857 0.339981 1.92013 0
M  V30 1590 O 150.127 -0.643606 1.85026 0
M  V30 1591 H 148.707 0.599811 0.445237 0
M  V30 1592 H 151.369 1.87914 0.517138 0
M  V30 1593 H 150.465 2.44911 1.93455 0
M  V30 1594 N 150.766 -0.704594 1.40972 0
M  V30 1595 C 152.177 -1.28418 1.3552 0
M  V30 1596 C 152.528 -1.96171 0.0339434 0
M  V30 1597 O 151.653 -1.98231 -0.867944 0
M  V30 1598 C 152.248 -2.33528 2.45459 0
M  V30 1599 C 150.807 -2.87085 2.43433 0
M  V30 1600 C 149.954 -1.61007 2.2577 0
M  V30 1601 H 152.905 -0.499963 1.50619 0
M  V30 1602 H 152.926 -3.14619 2.13998 0
M  V30 1603 H 152.438 -1.84187 3.41609 0
M  V30 1604 H 150.539 -3.40626 1.51013 0
M  V30 1605 H 150.652 -3.3813 3.39419 0
M  V30 1606 H 149.016 -1.86482 1.73483 0
M  V30 1607 H 149.799 -1.13675 3.23933 0
M  V30 1608 N 152.244 -1.26651 -0.937939 0
M  V30 1609 C 153.66 -1.03834 -1.21205 0
M  V30 1610 C 153.86 0.234502 -2.00131 0
M  V30 1611 O 152.916 0.942767 -2.3424 0
M  V30 1612 C 154.229 -2.27167 -1.97017 0
M  V30 1613 C 155.777 -2.32101 -2.09996 0
M  V30 1614 C 156.252 -3.55136 -2.8921 0
M  V30 1615 N 157.743 -3.55632 -2.96783 0
M  V30 1616 C 158.478 -4.475 -3.58512 0
M  V30 1617 N 157.974 -5.4966 -4.21717 0
M  V30 1618 N 159.767 -4.35145 -3.55816 0
M  V30 1619 H 151.918 -2.08398 -0.410391 0
M  V30 1620 H 154.181 -0.916031 -0.244114 0
M  V30 1621 H 153.887 -3.19765 -1.46434 0
M  V30 1622 H 153.761 -2.31672 -2.97671 0
M  V30 1623 H 156.148 -1.40015 -2.59769 0
M  V30 1624 H 156.229 -2.31605 -1.08594 0
M  V30 1625 H 155.873 -4.47553 -2.40123 0
M  V30 1626 H 155.803 -3.5288 -3.90875 0
M  V30 1627 H 158.294 -2.81743 -2.51852 0
M  V30 1628 H 158.607 -6.15943 -4.66727 0
M  V30 1629 H 156.952 -5.53514 -4.20294 0
M  V30 1630 H 160.143 -3.5455 -3.05634 0
M  V30 1631 H 160.316 -5.06934 -4.03636 0
M  V30 1632 N 153.722 1.14298 -1.08507 0
M  V30 1633 C 155.133 1.66926 -0.836227 0
M  V30 1634 C 155.484 1.85576 0.63686 0
M  V30 1635 O 154.609 1.56767 1.49175 0
M  V30 1636 C 155.204 3.03219 -1.51142 0
M  V30 1637 C 153.763 3.52876 -1.30979 0
M  V30 1638 C 152.91 2.2833 -1.57356 0
M  V30 1639 H 155.861 0.983491 -1.24552 0
M  V30 1640 H 155.882 3.68726 -0.939211 0
M  V30 1641 H 155.394 2.89612 -2.58353 0
M  V30 1642 H 153.495 3.71703 -0.258429 0
M  V30 1643 H 153.608 4.33586 -2.03814 0
M  V30 1644 H 151.972 2.34454 -0.995164 0
M  V30 1645 H 152.755 2.17298 -2.65775 0
M  V30 1646 N 155.201 0.870884 1.31352 0
M  V30 1647 C 156.111 0.330783 2.32256 0
M  V30 1648 C 157.127 -0.559767 1.6475 0
M  V30 1649 O 158.303 -0.456263 1.96164 0
M  V30 1650 C 155.368 -0.458137 3.4366 0
M  V30 1651 C 154.429 0.460482 4.26823 0
M  V30 1652 C 153.662 -0.290881 5.32907 0
M  V30 1653 O 153.885 -1.51885 5.49806 0
M  V30 1654 O 152.819 0.351732 6.00871 0
M  V30 1655 H 156.645 1.16718 2.80376 0
M  V30 1656 H 154.23 0.634285 1.35267 0
M  V30 1657 H 156.112 -0.905343 4.1156 0
M  V30 1658 H 154.787 -1.27106 2.97701 0
M  V30 1659 H 153.694 0.956207 3.61673 0
M  V30 1660 H 155.027 1.23903 4.7635 0
M  V30 1661 N 156.679 -1.44442 0.630414 0
M  V30 1662 C 158.095 -1.56832 0.295973 0
M  V30 1663 C 158.295 -1.61806 -1.20088 0
M  V30 1664 O 157.351 -1.5607 -1.9849 0
M  V30 1665 C 158.664 -2.84031 0.987264 0
M  V30 1666 C 160.212 -2.97742 0.96534 0
M  V30 1667 C 160.687 -4.27743 1.63708 0
M  V30 1668 N 162.178 -4.34555 1.60364 0
M  V30 1669 C 162.913 -5.33862 2.09234 0
M  V30 1670 N 162.409 -6.39578 2.66292 0
M  V30 1671 N 164.202 -5.25366 1.99867 0
M  V30 1672 H 156.353 -1.39457 1.60205 0
M  V30 1673 H 158.616 -0.668237 0.672431 0
M  V30 1674 H 158.322 -2.86338 2.04215 0
M  V30 1675 H 158.196 -3.73534 0.524588 0
M  V30 1676 H 160.583 -2.94989 -0.0810639 0
M  V30 1677 H 160.664 -2.09589 1.4665 0
M  V30 1678 H 160.308 -4.31255 2.68293 0
M  V30 1679 H 160.238 -5.14752 1.11076 0
M  V30 1680 H 162.729 -3.58772 1.18705 0
M  V30 1681 H 163.042 -7.11637 3.01317 0
M  V30 1682 H 161.387 -6.40265 2.70343 0
M  V30 1683 H 164.578 -4.41688 1.55013 0
M  V30 1684 H 164.751 -6.02606 2.38265 0
M  V30 1685 N 158.157 -0.370918 -1.53173 0
M  V30 1686 C 159.397 0.217106 -2.03244 0
M  V30 1687 C 159.761 1.45558 -1.25207 0
M  V30 1688 O 160.962 2.11957 -1.65311 0
M  V30 1689 C 159.233 0.496664 -3.53932 0
M  V30 1690 S 160.792 1.0576 -4.25864 0
M  V30 1691 H 157.61 0.0627827 -0.708223 0
M  V30 1692 H 160.212 -0.515019 -1.88594 0
M  V30 1693 H 158.916 -0.412096 -4.08326 0
M  V30 1694 H 158.447 1.25772 -3.72753 0
M  V30 1695 H 160.462 2.34145 -4.37482 0
M  V30 1696 N 159.635 1.57281 -0.100228 0
M  V30 1697 C 160.86 1.99302 0.573881 0
M  V30 1698 C 161.285 0.979059 1.60611 0
M  V30 1699 O 160.643 -0.0517803 1.81226 0
M  V30 1700 C 160.691 3.40274 1.19358 0
M  V30 1701 O 159.795 3.41676 2.30935 0
M  V30 1702 H 159.136 0.647944 0.145138 0
M  V30 1703 H 161.666 2.03779 -0.183156 0
M  V30 1704 H 161.676 3.78078 1.53365 0
M  V30 1705 H 160.351 4.13594 0.437385 0
M  V30 1706 H 158.928 3.15672 1.98509 0
M  V30 1707 N 161.113 -0.173488 1.56642 0
M  V30 1708 C 162.36 -0.890465 1.81871 0
M  V30 1709 C 162.688 -1.82339 0.67696 0
M  V30 1710 O 161.943 -1.92795 -0.335926 0
M  V30 1711 C 162.242 -1.72069 3.13252 0
M  V30 1712 C 161.908 -0.936878 4.41059 0
M  V30 1713 C 160.57 -0.720545 4.75775 0
M  V30 1714 C 162.922 -0.386919 5.19762 0
M  V30 1715 C 160.25 0.0568829 5.86672 0
M  V30 1716 C 162.602 0.37741 6.31473 0
M  V30 1717 C 161.266 0.604563 6.64757 0
M  V30 1718 H 160.536 -0.325844 0.665512 0
M  V30 1719 H 163.183 -0.155527 1.90867 0
M  V30 1720 H 161.488 -2.52496 2.99588 0
M  V30 1721 H 163.185 -2.27844 3.29982 0
M  V30 1722 H 159.775 -1.11553 4.13828 0
M  V30 1723 H 163.959 -0.541398 4.93338 0
M  V30 1724 H 159.215 0.242635 6.10918 0
M  V30 1725 H 163.389 0.810825 6.91664 0
M  V30 1726 H 161.016 1.20885 7.50527 0
M  V30 1727 N 162.591 -1.51276 -0.441967 0
M  V30 1728 C 163.816 -1.67799 -1.21895 0
M  V30 1729 C 164.241 -0.372864 -1.84367 0
M  V30 1730 O 163.599 0.666501 -1.68604 0
M  V30 1731 C 163.647 -2.79199 -2.28211 0
M  V30 1732 O 162.751 -2.42479 -3.33583 0
M  V30 1733 H 162.092 -0.559649 -0.357336 0
M  V30 1734 H 164.622 -1.97815 -0.522522 0
M  V30 1735 H 164.632 -3.03146 -2.73069 0
M  V30 1736 H 163.307 -3.73906 -1.82118 0
M  V30 1737 H 161.884 -2.29087 -2.94234 0
M  V30 1738 N 164.069 0.697108 -1.41344 0
M  V30 1739 C 165.48 1.27697 -1.36199 0
M  V30 1740 C 165.831 1.9615 -0.0443463 0
M  V30 1741 O 164.956 1.98689 0.857419 0
M  V30 1742 C 165.551 2.32223 -2.46694 0
M  V30 1743 C 164.11 2.8579 -2.44952 0
M  V30 1744 C 163.257 1.59807 -2.26621 0
M  V30 1745 H 166.208 0.491968 -1.50882 0
M  V30 1746 H 166.229 3.1348 -2.15664 0
M  V30 1747 H 165.741 1.82373 -3.42581 0
M  V30 1748 H 163.842 3.3982 -1.52817 0
M  V30 1749 H 163.955 3.36325 -3.41207 0
M  V30 1750 H 162.319 1.8556 -1.7447 0
M  V30 1751 H 163.102 1.11956 -3.24532 0
M  V30 1752 N 165.547 1.27147 0.931209 0
M  V30 1753 C 166.793 1.14455 1.68141 0
M  V30 1754 C 167.148 -0.307172 1.89932 0
M  V30 1755 O 166.441 -1.22158 1.47607 0
M  V30 1756 C 166.635 1.8579 3.05314 0
M  V30 1757 C 166.464 3.3775 2.96909 0
M  V30 1758 C 165.234 4.07062 2.99381 0
M  V30 1759 C 167.432 4.33783 2.76291 0
M  V30 1760 N 165.414 5.45618 2.8138 0
M  V30 1761 C 166.785 5.59582 2.6696 0
M  V30 1762 C 168.84 4.23915 2.61152 0
M  V30 1763 C 167.543 6.76639 2.44033 0
M  V30 1764 C 169.569 5.40689 2.39602 0
M  V30 1765 C 168.931 6.65443 2.3101 0
M  V30 1766 H 165.03 0.473667 0.622225 0
M  V30 1767 H 167.614 1.60568 1.10118 0
M  V30 1768 H 165.785 1.42138 3.61457 0
M  V30 1769 H 167.517 1.65634 3.69253 0
M  V30 1770 H 164.272 3.585 3.09475 0
M  V30 1771 H 164.696 6.184 2.75519 0
M  V30 1772 H 169.338 3.28189 2.66555 0
M  V30 1773 H 167.056 7.72451 2.3737 0
M  V30 1774 H 170.642 5.34932 2.28778 0
M  V30 1775 H 169.522 7.54277 2.14558 0
M  V30 1776 N 167.025 -1.13721 1.09112 0
M  V30 1777 C 168.253 -1.88773 0.846899 0
M  V30 1778 C 168.668 -1.7896 -0.601572 0
M  V30 1779 O 168.025 -1.15394 -1.41388 0
M  V30 1780 C 168.076 -3.3849 1.26913 0
M  V30 1781 O 167.797 -3.48043 2.66079 0
M  V30 1782 C 169.298 -4.30518 1.05682 0
M  V30 1783 H 166.518 -0.59772 0.304914 0
M  V30 1784 H 169.062 -1.43977 1.45227 0
M  V30 1785 H 167.217 -3.80881 0.707723 0
M  V30 1786 H 167.631 -4.4109 2.83795 0
M  V30 1787 H 169.105 -5.3391 1.40156 0
M  V30 1788 H 169.582 -4.392 -0.00563416 0
M  V30 1789 H 170.188 -3.93893 1.60402 0
M  V30 1790 N 168.503 -0.877838 -1.30888 0
M  V30 1791 C 169.413 -0.343096 -2.32078 0
M  V30 1792 C 170.429 0.551022 -1.65045 0
M  V30 1793 O 171.605 0.445854 -1.96403 0
M  V30 1794 C 168.67 0.439905 -3.43898 0
M  V30 1795 C 167.731 -0.483111 -4.26573 0
M  V30 1796 C 166.964 0.262616 -5.33053 0
M  V30 1797 O 167.187 1.48967 -5.50604 0
M  V30 1798 O 166.121 -0.383593 -6.00676 0
M  V30 1799 H 169.947 -1.18203 -2.79753 0
M  V30 1800 H 167.532 -0.64145 -1.34929 0
M  V30 1801 H 169.414 0.883504 -4.12034 0
M  V30 1802 H 168.089 1.25526 -2.98371 0
M  V30 1803 H 166.996 -0.975374 -3.61161 0
M  V30 1804 H 168.329 -1.26427 -4.75686 0
M  V30 1805 N 169.982 1.44106 -0.638065 0
M  V30 1806 C 170.932 2.27843 0.0847285 0
M  V30 1807 C 171.916 1.39055 0.809471 0
M  V30 1808 O 173.108 1.62808 0.694435 0
M  V30 1809 C 170.237 3.26497 1.06089 0
M  V30 1810 C 169.323 4.22772 0.33541 0
M  V30 1811 N 169.714 5.01737 -0.639787 0
M  V30 1812 C 168.012 4.42227 0.578921 0
M  V30 1813 C 168.713 5.71792 -1.06904 0
M  V30 1814 N 167.689 5.42079 -0.406395 0
M  V30 1815 H 171.491 2.86305 -0.663814 0
M  V30 1816 H 169.005 1.55627 -0.464122 0
M  V30 1817 H 171.002 3.8525 1.59337 0
M  V30 1818 H 169.662 2.69595 1.80966 0
M  V30 1819 H 170.673 5.07799 -1.01789 0
M  V30 1820 H 167.35 3.96415 1.31003 0
M  V30 1821 H 168.74 6.45205 -1.8751 0
M  V30 1822 N 171.46 0.379036 1.52974 0
M  V30 1823 C 172.876 0.0285448 1.59574 0
M  V30 1824 C 173.076 -1.45542 1.39355 0
M  V30 1825 O 172.132 -2.2187 1.20541 0
M  V30 1826 C 173.445 0.496535 2.96572 0
M  V30 1827 C 174.993 0.451909 3.0972 0
M  V30 1828 C 175.468 0.895924 4.49152 0
M  V30 1829 N 176.959 0.851522 4.55306 0
M  V30 1830 C 177.694 1.16661 5.61407 0
M  V30 1831 N 177.19 1.55166 6.752 0
M  V30 1832 N 178.983 1.08853 5.51459 0
M  V30 1833 H 171.134 1.34525 1.64367 0
M  V30 1834 H 173.397 0.550733 0.771619 0
M  V30 1835 H 173.103 1.53258 3.16552 0
M  V30 1836 H 172.977 -0.109802 3.7704 0
M  V30 1837 H 175.364 -0.575029 2.89443 0
M  V30 1838 H 175.445 1.09392 2.3123 0
M  V30 1839 H 175.089 1.92104 4.70168 0
M  V30 1840 H 175.019 0.23103 5.26093 0
M  V30 1841 H 177.51 0.568038 3.73606 0
M  V30 1842 H 177.823 1.776 7.52116 0
M  V30 1843 H 176.168 1.59044 6.76557 0
M  V30 1844 H 179.359 0.786803 4.6144 0
M  V30 1845 H 179.532 1.33742 6.34048 0
M  V30 1846 N 172.938 -1.57226 0.108567 0
M  V30 1847 C 174.354 -1.5766 -0.248058 0
M  V30 1848 C 174.554 -1.12063 -1.67464 0
M  V30 1849 O 173.61 -0.803236 -2.39383 0
M  V30 1850 C 174.923 -3.0069 -0.0242287 0
M  V30 1851 C 176.471 -3.12868 -0.0909372 0
M  V30 1852 C 176.946 -4.57879 0.105067 0
M  V30 1853 N 178.437 -4.63172 0.0506846 0
M  V30 1854 C 179.172 -5.73126 0.177396 0
M  V30 1855 N 178.668 -6.91866 0.359696 0
M  V30 1856 N 180.461 -5.61977 0.117709 0
M  V30 1857 H 172.612 -1.85169 1.04049 0
M  V30 1858 H 174.875 -0.85529 0.40888 0
M  V30 1859 H 174.581 -3.38299 0.961604 0
M  V30 1860 H 174.455 -3.6945 -0.76068 0
M  V30 1861 H 176.842 -2.75124 -1.06729 0
M  V30 1862 H 176.923 -2.46672 0.677225 0
M  V30 1863 H 176.567 -4.96321 1.07834 0
M  V30 1864 H 176.497 -5.22153 -0.682954 0
M  V30 1865 H 178.988 -3.778 -0.0871266 0
M  V30 1866 H 179.301 -7.71503 0.447529 0
M  V30 1867 H 177.646 -6.93874 0.395536 0
M  V30 1868 H 180.837 -4.68094 -0.0236741 0
M  V30 1869 H 181.01 -6.47627 0.219905 0
M  V30 1870 N 174.416 0.165178 -1.56732 0
M  V30 1871 C 175.656 0.887231 -1.8414 0
M  V30 1872 C 176.02 1.79159 -0.690353 0
M  V30 1873 O 177.221 2.55172 -0.845032 0
M  V30 1874 C 175.492 1.65674 -3.16681 0
M  V30 1875 S 177.051 2.42671 -3.6559 0
M  V30 1876 H 173.869 0.297042 -0.645978 0
M  V30 1877 H 176.471 0.148439 -1.94936 0
M  V30 1878 H 175.175 0.983507 -3.98441 0
M  V30 1879 H 174.706 2.43679 -3.08843 0
M  V30 1880 H 176.721 3.67499 -3.33406 0
M  V30 1881 N 175.894 1.51508 0.433938 0
M  V30 1882 C 177.31 1.39759 0.770682 0
M  V30 1883 C 177.51 0.482594 1.95636 0
M  V30 1884 O 176.566 -0.0609691 2.52426 0
M  V30 1885 C 177.879 2.81851 1.04787 0
M  V30 1886 C 179.427 2.91025 1.1521 0
M  V30 1887 C 179.902 4.34032 1.46219 0
M  V30 1888 N 181.393 4.37154 1.53136 0
M  V30 1889 C 182.128 5.4484 1.78709 0
M  V30 1890 N 181.624 6.62682 2.02051 0
M  V30 1891 N 183.417 5.32324 1.80519 0
M  V30 1892 H 175.568 2.09548 -0.346892 0
M  V30 1893 H 177.831 0.943446 -0.0928074 0
M  V30 1894 H 177.537 3.50815 0.249304 0
M  V30 1895 H 177.411 3.21386 1.97461 0
M  V30 1896 H 179.798 2.22257 1.94128 0
M  V30 1897 H 179.879 2.54983 0.204281 0
M  V30 1898 H 179.523 5.03351 0.678274 0
M  V30 1899 H 179.453 4.6759 2.42212 0
M  V30 1900 H 181.944 3.52197 1.36987 0
M  V30 1901 H 182.257 7.40543 2.20943 0
M  V30 1902 H 180.602 6.65791 1.99366 0
M  V30 1903 H 183.793 4.39246 1.61805 0
M  V30 1904 H 183.966 6.16328 2.00111 0
M  V30 1905 N 177.372 -0.689602 1.41712 0
M  V30 1906 C 178.304 -1.815 1.39966 0
M  V30 1907 C 179.317 -1.59995 0.300917 0
M  V30 1908 O 180.506 -1.69387 0.563039 0
M  V30 1909 C 177.606 -3.18364 1.16179 0
M  V30 1910 C 176.779 -3.66847 2.38206 0
M  V30 1911 C 175.838 -4.82398 2.10186 0
M  V30 1912 O 174.864 -4.93706 2.83272 0
M  V30 1913 N 176.066 -5.70064 1.0958 0
M  V30 1914 H 178.831 -1.83488 2.36965 0
M  V30 1915 H 176.392 -0.872149 1.36401 0
M  V30 1916 H 178.384 -3.93301 0.953756 0
M  V30 1917 H 176.954 -3.11365 0.27756 0
M  V30 1918 H 176.174 -2.82751 2.74673 0
M  V30 1919 H 177.462 -3.95978 3.19498 0
M  V30 1920 H 176.86 -5.63565 0.491019 0
M  V30 1921 H 175.417 -6.44874 0.947656 0
M  V30 1922 N 178.85 -1.27639 -0.924453 0
M  V30 1923 C 180.266 -1.05113 -1.20097 0
M  V30 1924 C 180.466 0.213262 -2.00368 0
M  V30 1925 O 179.522 0.91787 -2.35226 0
M  V30 1926 C 180.835 -2.29244 -1.94596 0
M  V30 1927 C 182.383 -2.34315 -2.07522 0
M  V30 1928 C 182.858 -3.58183 -2.85427 0
M  V30 1929 N 184.349 -3.5876 -2.92994 0
M  V30 1930 C 185.084 -4.51277 -3.53746 0
M  V30 1931 N 184.58 -5.54102 -4.15863 0
M  V30 1932 N 186.373 -4.38894 -3.51181 0
M  V30 1933 H 178.524 -2.08821 -0.388264 0
M  V30 1934 H 180.787 -0.918568 -0.234385 0
M  V30 1935 H 180.493 -3.21301 -1.43034 0
M  V30 1936 H 180.367 -2.34816 -2.95197 0
M  V30 1937 H 182.754 -1.42762 -2.58269 0
M  V30 1938 H 182.835 -2.32744 -1.06131 0
M  V30 1939 H 182.479 -4.50074 -2.35363 0
M  V30 1940 H 182.409 -3.57006 -3.8711 0
M  V30 1941 H 184.9 -2.84398 -2.4885 0
M  V30 1942 H 185.213 -6.20859 -4.60168 0
M  V30 1943 H 183.558 -5.57941 -4.144 0
M  V30 1944 H 186.749 -3.57772 -3.01856 0
M  V30 1945 H 186.922 -5.11186 -3.98237 0
M  V30 1946 N 180.328 1.1314 -1.09713 0
M  V30 1947 C 181.291 2.16831 -0.742751 0
M  V30 1948 C 182.291 1.59159 0.229129 0
M  V30 1949 O 183.481 1.74199 0.00693237 0
M  V30 1950 C 180.613 3.40756 -0.0989168 0
M  V30 1951 H 181.806 2.49695 -1.66109 0
M  V30 1952 H 179.359 1.2802 -0.896699 0
M  V30 1953 H 180.094 3.13485 0.830514 0
M  V30 1954 H 179.879 3.83888 -0.798265 0
M  V30 1955 H 181.369 4.17386 0.133524 0
M  V30 1956 N 181.806 0.884767 1.30421 0
M  V30 1957 C 183.046 0.509806 1.9794 0
M  V30 1958 C 183.41 -0.923736 1.68319 0
M  V30 1959 O 184.611 -1.40481 2.29169 0
M  V30 1960 C 182.882 0.776732 3.48858 0
M  V30 1961 S 184.441 0.503843 4.35898 0
M  V30 1962 H 181.259 0.189699 0.685227 0
M  V30 1963 H 183.861 1.14399 1.58535 0
M  V30 1964 H 182.565 1.81857 3.67908 0
M  V30 1965 H 182.096 0.1301 3.93185 0
M  V30 1966 H 184.111 -0.657625 4.91823 0
M  V30 1967 N 183.284 -1.43765 0.645699 0
M  V30 1968 C 184.532 -2.01499 0.155731 0
M  V30 1969 C 184.853 -1.51151 -1.232 0
M  V30 1970 O 184.123 -0.721044 -1.82148 0
M  V30 1971 H 182.703 -0.745003 0.0545817 0
M  V30 1972 H 185.365 -1.76075 0.835677 0
M  V30 1973 H 184.461 -3.1181 0.134577 0
M  V30 1974 N 184.763 -0.387143 -1.52771 0
M  V30 1975 C 185.693 0.440551 -2.29306 0
M  V30 1976 C 186.674 1.06535 -1.32606 0
M  V30 1977 O 187.859 1.07853 -1.61497 0
M  V30 1978 C 184.989 1.56919 -3.09829 0
M  V30 1979 C 183.943 1.07054 -4.14395 0
M  V30 1980 C 183.269 2.29109 -4.83129 0
M  V30 1981 C 184.569 0.140015 -5.22112 0
M  V30 1982 H 186.263 -0.198026 -2.98744 0
M  V30 1983 H 183.809 -0.09668 -1.43675 0
M  V30 1984 H 185.762 2.15503 -3.62128 0
M  V30 1985 H 184.486 2.23532 -2.3812 0
M  V30 1986 H 183.145 0.507247 -3.63074 0
M  V30 1987 H 182.793 2.94227 -4.0797 0
M  V30 1988 H 182.493 1.96406 -5.53804 0
M  V30 1989 H 184.017 2.88339 -5.38231 0
M  V30 1990 H 185.431 0.633978 -5.69784 0
M  V30 1991 H 183.828 -0.0971485 -6.00021 0
M  V30 1992 H 184.898 -0.811711 -4.78058 0
M  V30 1993 N 186.241 1.57166 -0.116904 0
M  V30 1994 C 187.171 2.18222 0.830759 0
M  V30 1995 C 188.152 1.12167 1.27877 0
M  V30 1996 O 189.337 1.40394 1.34176 0
M  V30 1997 C 186.467 2.77996 2.08172 0
M  V30 1998 C 185.421 3.89614 1.77157 0
M  V30 1999 C 184.747 4.36187 3.09265 0
M  V30 2000 C 186.047 5.1181 1.04151 0
M  V30 2001 H 187.741 2.97664 0.321992 0
M  V30 2002 H 185.287 1.4318 0.153434 0
M  V30 2003 H 187.24 3.19366 2.74924 0
M  V30 2004 H 185.964 1.9584 2.6137 0
M  V30 2005 H 184.623 3.48816 1.12796 0
M  V30 2006 H 184.271 3.50893 3.60393 0
M  V30 2007 H 183.971 5.11455 2.89288 0
M  V30 2008 H 185.495 4.80207 3.77139 0
M  V30 2009 H 186.909 5.50214 1.61052 0
M  V30 2010 H 185.306 5.92648 0.942762 0
M  V30 2011 H 186.376 4.84892 0.0279022 0
M  V30 2012 N 187.719 -0.156864 1.56817 0
M  V30 2013 C 188.947 -0.886316 1.86955 0
M  V30 2014 C 189.362 -1.75185 0.703975 0
M  V30 2015 O 188.719 -1.79555 -0.326552 0
M  V30 2016 C 188.77 -1.75117 3.16253 0
M  V30 2017 O 188.491 -0.920537 4.2832 0
M  V30 2018 C 189.992 -2.58905 3.59837 0
M  V30 2019 H 187.212 -0.25678 0.619923 0
M  V30 2020 H 189.756 -0.152615 2.0393 0
M  V30 2021 H 187.911 -2.43805 3.01062 0
M  V30 2022 H 188.325 -1.51337 5.02192 0
M  V30 2023 H 189.799 -3.1518 4.53172 0
M  V30 2024 H 190.276 -3.34472 2.84649 0
M  V30 2025 H 190.882 -1.95526 3.7769 0
M  V30 2026 N 189.197 -1.51736 -0.425897 0
M  V30 2027 C 190.16 -1.73271 -1.50032 0
M  V30 2028 C 191.16 -0.602639 -1.4908 0
M  V30 2029 O 192.35 -0.87033 -1.509 0
M  V30 2030 C 189.482 -1.79969 -2.89523 0
M  V30 2031 H 190.675 -2.69172 -1.32237 0
M  V30 2032 H 188.228 -1.41899 -0.65532 0
M  V30 2033 H 188.963 -0.859241 -3.1271 0
M  V30 2034 H 188.748 -2.62109 -2.91619 0
M  V30 2035 H 190.238 -1.9843 -3.67444 0
M  V30 2036 N 190.675 0.682077 -1.42076 0
M  V30 2037 C 191.585 1.82535 -1.47371 0
M  V30 2038 C 192.601 1.7017 -0.363079 0
M  V30 2039 O 193.777 1.91848 -0.612875 0
M  V30 2040 C 190.842 3.18624 -1.36674 0
M  V30 2041 C 189.903 3.42999 -2.58167 0
M  V30 2042 C 189.136 4.72595 -2.4797 0
M  V30 2043 O 189.359 5.50006 -1.5116 0
M  V30 2044 O 188.293 4.98054 -3.37974 0
M  V30 2045 H 192.119 1.81023 -2.43853 0
M  V30 2046 H 189.704 0.836887 -1.2376 0
M  V30 2047 H 191.586 3.99847 -1.33043 0
M  V30 2048 H 190.261 3.20789 -0.433138 0
M  V30 2049 H 189.168 2.61653 -2.67373 0
M  V30 2050 H 190.501 3.45659 -3.50401 0
M  V30 2051 N 192.153 1.28127 0.917671 0
M  V30 2052 C 193.401 1.14825 1.66312 0
M  V30 2053 C 193.722 -0.304379 1.9261 0
M  V30 2054 O 192.992 -1.21149 1.53947 0
M  V30 2055 H 191.572 0.421953 0.616413 0
M  V30 2056 H 194.234 1.608 1.10134 0
M  V30 2057 H 193.33 1.68489 2.62712 0
M  V30 2058 N 193.631 -1.12557 1.10312 0
M  V30 2059 C 194.541 -2.21841 0.763142 0
M  V30 2060 C 195.557 -1.72354 -0.238801 0
M  V30 2061 O 196.733 -2.01249 -0.0778746 0
M  V30 2062 C 193.798 -3.46131 0.198632 0
M  V30 2063 C 192.859 -4.10464 1.25769 0
M  V30 2064 C 192.092 -5.28821 0.72002 0
M  V30 2065 O 192.315 -5.6859 -0.453993 0
M  V30 2066 O 191.249 -5.83437 1.47935 0
M  V30 2067 H 195.075 -2.53312 1.67532 0
M  V30 2068 H 192.66 -1.20867 0.878157 0
M  V30 2069 H 194.542 -4.2125 -0.112401 0
M  V30 2070 H 193.217 -3.16338 -0.686419 0
M  V30 2071 H 192.124 -3.3713 1.62156 0
M  V30 2072 H 193.457 -4.44408 2.11571 0
M  V30 2073 N 195.109 -0.891671 -1.2995 0
M  V30 2074 C 196.019 -0.367691 -2.31701 0
M  V30 2075 C 197.035 0.533486 -1.6562 0
M  V30 2076 O 198.211 0.424997 -1.96865 0
M  V30 2077 C 195.276 0.403406 -3.44345 0
M  V30 2078 C 194.337 -0.528328 -4.26037 0
M  V30 2079 C 193.57 0.206063 -5.33302 0
M  V30 2080 O 193.793 1.43119 -5.52153 0
M  V30 2081 O 192.727 -0.447281 -6.00236 0
M  V30 2082 H 196.553 -1.21163 -2.78484 0
M  V30 2083 H 194.138 -0.655725 -1.34241 0
M  V30 2084 H 196.02 0.839753 -4.12948 0
M  V30 2085 H 194.695 1.22354 -2.99685 0
M  V30 2086 H 193.602 -1.01362 -3.60106 0
M  V30 2087 H 194.935 -1.31465 -4.74318 0
M  V30 2088 N 196.587 1.43421 -0.653314 0
M  V30 2089 C 197.833 2.02641 -0.175593 0
M  V30 2090 C 198.188 1.5062 1.19713 0
M  V30 2091 O 197.481 0.689697 1.78756 0
M  V30 2092 C 197.675 3.57176 -0.126623 0
M  V30 2093 C 197.504 4.24191 -1.49306 0
M  V30 2094 C 196.274 4.60257 -2.08547 0
M  V30 2095 C 198.472 4.53193 -2.43148 0
M  V30 2096 N 196.454 5.12345 -3.38194 0
M  V30 2097 C 197.825 5.06601 -3.57429 0
M  V30 2098 C 199.88 4.35161 -2.41949 0
M  V30 2099 C 198.583 5.43875 -4.70736 0
M  V30 2100 C 200.609 4.73498 -3.54336 0
M  V30 2101 C 199.971 5.27039 -4.67343 0
M  V30 2102 H 196.07 0.77441 -0.108686 0
M  V30 2103 H 198.654 1.74596 -0.861638 0
M  V30 2104 H 196.825 3.84784 0.528766 0
M  V30 2105 H 198.557 4.03078 0.36198 0
M  V30 2106 H 195.312 4.45302 -1.61255 0
M  V30 2107 H 195.736 5.42842 -4.04538 0
M  V30 2108 H 200.378 3.9304 -1.55818 0
M  V30 2109 H 198.096 5.8494 -5.57558 0
M  V30 2110 H 201.682 4.61241 -3.5461 0
M  V30 2111 H 200.562 5.56153 -5.52868 0
M  V30 2112 N 198.065 0.39524 1.52563 0
M  V30 2113 C 198.997 -0.472201 2.24283 0
M  V30 2114 C 200.01 -1.02178 1.26742 0
M  V30 2115 O 201.199 -0.923097 1.52778 0
M  V30 2116 C 198.299 -1.66775 2.95024 0
M  V30 2117 C 197.472 -1.2445 4.19322 0
M  V30 2118 C 196.531 -2.30539 4.7301 0
M  V30 2119 O 195.557 -1.91702 5.35947 0
M  V30 2120 N 196.759 -3.6253 4.53379 0
M  V30 2121 H 199.524 0.142282 2.99362 0
M  V30 2122 H 197.085 0.2219 1.60372 0
M  V30 2123 H 199.077 -2.37283 3.27839 0
M  V30 2124 H 197.647 -2.18845 2.23217 0
M  V30 2125 H 196.867 -0.368069 3.92478 0
M  V30 2126 H 198.155 -0.938457 5.0007 0
M  V30 2127 H 197.553 -3.96841 4.03154 0
M  V30 2128 H 196.11 -4.29055 4.90668 0
M  V30 2129 N 199.544 -1.57102 0.125237 0
M  V30 2130 C 200.96 -1.57915 -0.231322 0
M  V30 2131 C 201.16 -1.13833 -1.66266 0
M  V30 2132 O 200.216 -0.828581 -2.38518 0
M  V30 2133 C 201.529 -3.00699 0.00766489 0
M  V30 2134 C 203.077 -3.12947 -0.0577483 0
M  V30 2135 C 203.552 -4.57742 0.153626 0
M  V30 2136 N 205.043 -4.63092 0.0998073 0
M  V30 2137 C 205.778 -5.72905 0.238174 0
M  V30 2138 N 205.274 -6.91445 0.433057 0
M  V30 2139 N 207.067 -5.6182 0.177308 0
M  V30 2140 H 199.218 -1.84055 1.06007 0
M  V30 2141 H 201.481 -0.850905 0.417929 0
M  V30 2142 H 201.187 -3.3726 0.997431 0
M  V30 2143 H 201.061 -3.70236 -0.721452 0
M  V30 2144 H 203.448 -2.7624 -1.03804 0
M  V30 2145 H 203.529 -2.4594 0.70335 0
M  V30 2146 H 203.173 -4.95149 1.13092 0
M  V30 2147 H 203.103 -5.22848 -0.627534 0
M  V30 2148 H 205.594 -3.77871 -0.047051 0
M  V30 2149 H 205.907 -7.70985 0.529332 0
M  V30 2150 H 204.252 -6.93415 0.469109 0
M  V30 2151 H 207.443 -4.68093 0.0259748 0
M  V30 2152 H 207.616 -6.47357 0.288582 0
M  V30 2153 N 201.022 0.148545 -1.56898 0
M  V30 2154 C 201.952 1.18524 -2.01182 0
M  V30 2155 C 202.933 1.4489 -0.891123 0
M  V30 2156 O 204.118 1.55836 -1.15882 0
M  V30 2157 C 201.248 2.51879 -2.39112 0
M  V30 2158 C 200.202 2.40038 -3.54353 0
M  V30 2159 C 199.528 3.78089 -3.78091 0
M  V30 2160 C 200.828 1.88577 -4.87069 0
M  V30 2161 H 202.522 0.817029 -2.88036 0
M  V30 2162 H 200.068 0.391575 -1.38574 0
M  V30 2163 H 202.021 3.24627 -2.68692 0
M  V30 2164 H 200.745 2.90532 -1.49193 0
M  V30 2165 H 199.404 1.69742 -3.24936 0
M  V30 2166 H 199.052 4.14175 -2.85426 0
M  V30 2167 H 198.752 3.71028 -4.55645 0
M  V30 2168 H 200.276 4.52387 -4.10095 0
M  V30 2169 H 201.69 2.51117 -5.15377 0
M  V30 2170 H 200.087 1.9241 -5.68417 0
M  V30 2171 H 201.157 0.84136 -4.77545 0
M  V30 2172 N 202.5 1.5196 0.417844 0
M  V30 2173 C 203.916 1.40569 0.755816 0
M  V30 2174 C 204.116 0.503316 1.95113 0
M  V30 2175 O 203.172 -0.0341925 2.52477 0
M  V30 2176 C 204.485 2.82947 1.01791 0
M  V30 2177 C 206.033 2.92231 1.12116 0
M  V30 2178 C 206.508 4.35559 1.41608 0
M  V30 2179 N 207.999 4.38753 1.48491 0
M  V30 2180 C 208.734 5.46705 1.7292 0
M  V30 2181 N 208.23 6.64788 1.95011 0
M  V30 2182 N 210.023 5.34209 1.74863 0
M  V30 2183 H 202.174 2.09168 -0.369098 0
M  V30 2184 H 204.437 0.942409 -0.102809 0
M  V30 2185 H 204.143 3.5106 0.212081 0
M  V30 2186 H 204.017 3.23462 1.94042 0
M  V30 2187 H 206.404 2.24304 1.9176 0
M  V30 2188 H 206.485 2.55185 0.177225 0
M  V30 2189 H 206.129 5.04042 0.624848 0
M  V30 2190 H 206.059 4.70133 2.37239 0
M  V30 2191 H 208.55 3.5363 1.33244 0
M  V30 2192 H 208.863 7.42845 2.13076 0
M  V30 2193 H 207.208 6.67869 1.92293 0
M  V30 2194 H 210.399 4.40937 1.57137 0
M  V30 2195 H 210.572 6.18415 1.93563 0
M  V30 2196 N 203.978 -0.674533 1.42435 0
M  V30 2197 C 205.203 -1.46784 1.46524 0
M  V30 2198 C 205.628 -1.87938 0.078066 0
M  V30 2199 O 204.986 -1.56014 -0.92354 0
M  V30 2200 C 205.034 -2.69307 2.39805 0
M  V30 2201 O 204.138 -3.67587 1.86959 0
M  V30 2202 H 203.479 -0.440959 0.496439 0
M  V30 2203 H 206.009 -0.827326 1.87127 0
M  V30 2204 H 206.019 -3.17374 2.56393 0
M  V30 2205 H 204.694 -2.38692 3.40586 0
M  V30 2206 H 203.271 -3.2662 1.79927 0
M  V30 2207 N 205.456 -1.28612 -0.910864 0
M  V30 2208 C 206.386 -1.15326 -2.03032 0
M  V30 2209 C 207.367 -0.0502924 -1.70026 0
M  V30 2210 O 208.552 -0.227797 -1.92859 0
M  V30 2211 C 205.682 -0.817343 -3.37545 0
M  V30 2212 C 204.636 -1.8754 -3.84724 0
M  V30 2213 C 203.962 -1.39305 -5.16235 0
M  V30 2214 C 205.262 -3.28244 -4.06267 0
M  V30 2215 H 206.956 -2.08975 -2.14406 0
M  V30 2216 H 204.502 -1.00612 -1.03021 0
M  V30 2217 H 206.455 -0.711151 -4.15356 0
M  V30 2218 H 205.179 0.154846 -3.26233 0
M  V30 2219 H 203.838 -1.97079 -3.09121 0
M  V30 2220 H 203.486 -0.409846 -5.01328 0
M  V30 2221 H 203.186 -2.10057 -5.48771 0
M  V30 2222 H 204.71 -1.30014 -5.96598 0
M  V30 2223 H 206.124 -3.21611 -4.74594 0
M  V30 2224 H 204.521 -3.96855 -4.5014 0
M  V30 2225 H 205.591 -3.72048 -3.10979 0
M  V30 2226 N 206.934 1.1197 -1.10907 0
M  V30 2227 C 207.864 2.19928 -0.784473 0
M  V30 2228 C 208.845 1.6833 0.244726 0
M  V30 2229 O 210.03 1.93892 0.109418 0
M  V30 2230 C 207.16 3.46597 -0.220827 0
M  V30 2231 C 206.114 4.11376 -1.18127 0
M  V30 2232 C 205.44 5.32554 -0.478594 0
M  V30 2233 C 206.74 4.56945 -2.52979 0
M  V30 2234 H 208.434 2.47337 -1.68715 0
M  V30 2235 H 205.98 1.18879 -0.812642 0
M  V30 2236 H 207.933 4.21396 0.0184278 0
M  V30 2237 H 206.657 3.1863 0.717113 0
M  V30 2238 H 205.316 3.38564 -1.40606 0
M  V30 2239 H 204.964 5.00856 0.463976 0
M  V30 2240 H 204.664 5.76844 -1.11912 0
M  V30 2241 H 206.188 6.10096 -0.248 0
M  V30 2242 H 207.602 5.23093 -2.3462 0
M  V30 2243 H 205.999 5.1203 -3.12962 0
M  V30 2244 H 207.069 3.70676 -3.12614 0
M  V30 2245 N 208.412 0.89855 1.29475 0
M  V30 2246 C 209.375 0.380272 2.26023 0
M  V30 2247 C 210.375 -0.484891 1.53315 0
M  V30 2248 O 211.565 -0.290108 1.71767 0
M  V30 2249 C 208.697 -0.45651 3.3783 0
M  V30 2250 H 209.89 1.23295 2.73383 0
M  V30 2251 H 207.443 0.676589 1.40897 0
M  V30 2252 H 208.178 -1.32922 2.95808 0
M  V30 2253 H 207.963 0.163393 3.91759 0
M  V30 2254 H 209.453 -0.810466 4.0966 0
M  V30 2255 N 209.89 -1.43072 0.660911 0
M  V30 2256 C 211.301 -1.84932 0.256348 0
M  V30 2257 C 211.652 -1.55325 -1.19868 0
M  V30 2258 O 210.777 -1.00607 -1.91591 0
M  V30 2259 C 211.372 -3.35684 0.458475 0
M  V30 2260 C 209.931 -3.76245 0.108161 0
M  V30 2261 C 209.078 -2.66749 0.757641 0
M  V30 2262 H 212.029 -1.33116 0.864051 0
M  V30 2263 H 212.05 -3.79365 -0.293683 0
M  V30 2264 H 211.562 -3.572 1.51755 0
M  V30 2265 H 209.663 -3.60338 -0.948014 0
M  V30 2266 H 209.776 -4.76058 0.538992 0
M  V30 2267 H 208.14 -2.53989 0.190185 0
M  V30 2268 H 208.923 -2.91092 1.81989 0
M  V30 2269 N 211.368 -0.403325 -1.52352 0
M  V30 2270 C 212.298 0.416205 -2.29761 0
M  V30 2271 C 213.279 1.05123 -1.33728 0
M  V30 2272 O 214.464 1.06134 -1.62632 0
M  V30 2273 C 211.594 1.53624 -3.11475 0
M  V30 2274 C 210.548 1.02653 -4.15507 0
M  V30 2275 C 209.874 2.23971 -4.85532 0
M  V30 2276 C 211.174 0.08463 -5.22231 0
M  V30 2277 H 212.868 -0.229701 -2.98518 0
M  V30 2278 H 210.414 -0.111913 -1.43564 0
M  V30 2279 H 212.367 2.1165 -3.64393 0
M  V30 2280 H 211.091 2.20994 -2.40477 0
M  V30 2281 H 209.75 0.46871 -3.63591 0
M  V30 2282 H 209.398 2.89883 -4.11068 0
M  V30 2283 H 209.098 1.90521 -5.55856 0
M  V30 2284 H 210.622 2.82614 -5.41259 0
M  V30 2285 H 212.036 0.573509 -5.70424 0
M  V30 2286 H 210.433 -0.160783 -5.99885 0
M  V30 2287 H 211.503 -0.86237 -4.7717 0
M  V30 2288 N 212.846 1.57033 -0.133567 0
M  V30 2289 C 213.776 2.1909 0.807567 0
M  V30 2290 C 214.757 1.13517 1.26681 0
M  V30 2291 O 215.942 1.41809 1.32679 0
M  V30 2292 C 213.072 2.80188 2.05212 0
M  V30 2293 C 212.026 3.91471 1.73015 0
M  V30 2294 C 211.352 4.39443 3.04622 0
M  V30 2295 C 212.652 5.12886 0.987168 0
M  V30 2296 H 214.346 2.97988 0.290403 0
M  V30 2297 H 211.892 1.43335 0.138239 0
M  V30 2298 H 213.845 3.22264 2.71521 0
M  V30 2299 H 212.569 1.98601 2.59278 0
M  V30 2300 H 211.228 3.49993 1.0909 0
M  V30 2301 H 210.876 3.54695 3.56651 0
M  V30 2302 H 210.576 5.14495 2.83847 0
M  V30 2303 H 212.1 4.8418 3.72024 0
M  V30 2304 H 213.514 5.51891 1.55208 0
M  V30 2305 H 211.911 5.93615 0.87985 0
M  V30 2306 H 212.981 4.84894 -0.0235286 0
M  V30 2307 N 214.325 -0.140222 1.56975 0
M  V30 2308 C 215.255 -1.17456 2.01808 0
M  V30 2309 C 216.236 -1.44415 0.898794 0
M  V30 2310 O 217.421 -1.5522 1.16707 0
M  V30 2311 C 214.551 -2.50607 2.40444 0
M  V30 2312 C 213.505 -2.38155 3.55621 0
M  V30 2313 C 212.831 -3.76078 3.80091 0
M  V30 2314 C 214.131 -1.85991 4.88062 0
M  V30 2315 H 215.825 -0.801743 2.88466 0
M  V30 2316 H 213.371 -0.38422 1.38779 0
M  V30 2317 H 215.324 -3.23197 2.7041 0
M  V30 2318 H 214.048 -2.89737 1.50732 0
M  V30 2319 H 212.707 -1.68016 3.25832 0
M  V30 2320 H 212.355 -4.12656 2.87618 0
M  V30 2321 H 212.055 -3.68606 4.57606 0
M  V30 2322 H 213.579 -4.50206 4.12488 0
M  V30 2323 H 214.993 -2.4838 5.16701 0
M  V30 2324 H 213.39 -1.89393 5.6943 0
M  V30 2325 H 214.46 -0.816023 4.77984 0
M  V30 2326 N 215.803 -1.52179 -0.40978 0
M  V30 2327 C 217.219 -1.40968 -0.74835 0
M  V30 2328 C 217.419 -0.513657 -1.94843 0
M  V30 2329 O 216.475 0.0208026 -2.52491 0
M  V30 2330 C 217.788 -2.83483 -1.0029 0
M  V30 2331 C 219.336 -2.92821 -1.10565 0
M  V30 2332 C 219.811 -4.36303 -1.39296 0
M  V30 2333 N 221.302 -4.39535 -1.46162 0
M  V30 2334 C 222.037 -5.47614 -1.70018 0
M  V30 2335 N 221.533 -6.65812 -1.91483 0
M  V30 2336 N 223.326 -5.35129 -1.72027 0
M  V30 2337 H 215.477 -2.0897 0.380186 0
M  V30 2338 H 217.74 -0.94185 0.107805 0
M  V30 2339 H 217.446 -3.51168 -0.193461 0
M  V30 2340 H 217.32 -3.24487 -1.92323 0
M  V30 2341 H 219.707 -2.25318 -1.90568 0
M  V30 2342 H 219.788 -2.55276 -0.16369 0
M  V30 2343 H 219.432 -5.04366 -0.598109 0
M  V30 2344 H 219.362 -4.71385 -2.34743 0
M  V30 2345 H 221.853 -3.54332 -1.31367 0
M  V30 2346 H 222.166 -7.43964 -2.09134 0
M  V30 2347 H 220.511 -6.68879 -1.88749 0
M  V30 2348 H 223.702 -4.41764 -1.54796 0
M  V30 2349 H 223.875 -6.19433 -1.9028 0
M  V30 2350 N 217.281 0.66697 -1.42791 0
M  V30 2351 C 218.692 1.2478 -1.38877 0
M  V30 2352 C 219.043 1.96012 -0.0859426 0
M  V30 2353 O 218.168 2.00463 0.815081 0
M  V30 2354 C 218.763 2.26938 -2.51564 0
M  V30 2355 C 217.322 2.80529 -2.50959 0
M  V30 2356 C 216.469 1.54965 -2.29959 0
M  V30 2357 H 219.42 0.459853 -1.51892 0
M  V30 2358 H 219.441 3.08834 -2.22265 0
M  V30 2359 H 218.953 1.75065 -3.46372 0
M  V30 2360 H 217.054 3.36502 -1.59991 0
M  V30 2361 H 217.167 3.29012 -3.48265 0
M  V30 2362 H 215.531 1.81817 -1.78366 0
M  V30 2363 H 216.314 1.05047 -3.26833 0
M  V30 2364 N 218.759 1.29093 0.90403 0
M  V30 2365 C 219.691 1.09658 2.01266 0
M  V30 2366 C 220.704 0.0453729 1.62737 0
M  V30 2367 O 221.893 0.289446 1.76138 0
M  V30 2368 C 218.993 0.646278 3.32681 0
M  V30 2369 C 218.166 1.77505 3.99763 0
M  V30 2370 C 217.225 1.31649 5.09465 0
M  V30 2371 O 216.251 2.02045 5.32134 0
M  V30 2372 N 217.453 0.184997 5.80205 0
M  V30 2373 H 220.218 2.05135 2.18494 0
M  V30 2374 H 217.779 1.20975 1.07594 0
M  V30 2375 H 219.771 0.322906 4.0341 0
M  V30 2376 H 218.341 -0.215916 3.11853 0
M  V30 2377 H 217.561 2.26752 3.22455 0
M  V30 2378 H 218.849 2.53198 4.41325 0
M  V30 2379 H 218.247 -0.402021 5.6427 0
M  V30 2380 H 216.804 -0.0790358 6.51752 0
M  V30 2381 N 220.237 -1.11381 1.11499 0
M  V30 2382 C 221.2 -2.15622 0.777153 0
M  V30 2383 C 222.2 -1.59504 -0.203779 0
M  V30 2384 O 223.39 -1.74188 0.020782 0
M  V30 2385 C 220.522 -3.40556 0.153116 0
M  V30 2386 H 221.715 -2.47021 1.70061 0
M  V30 2387 H 219.268 -1.26577 0.916952 0
M  V30 2388 H 220.003 -3.14767 -0.780536 0
M  V30 2389 H 219.788 -3.8257 0.859238 0
M  V30 2390 H 221.278 -4.17546 -0.0671044 0
M  V30 2391 N 221.715 -0.905404 -1.28997 0
M  V30 2392 C 222.678 -0.392253 -2.25819 0
M  V30 2393 C 223.678 0.476753 -1.5357 0
M  V30 2394 O 224.868 0.280994 -1.71919 0
M  V30 2395 C 222 0.438588 -3.38067 0
M  V30 2396 H 223.193 -1.24743 -2.72725 0
M  V30 2397 H 220.746 -0.684051 -1.40536 0
M  V30 2398 H 221.481 1.31352 -2.96508 0
M  V30 2399 H 221.266 -0.184167 -3.91667 0
M  V30 2400 H 222.756 0.78873 -4.10084 0
M  V30 2401 N 223.193 1.4272 -0.668489 0
M  V30 2402 C 224.156 2.292 0.00448567 0
M  V30 2403 C 225.156 1.43001 0.735339 0
M  V30 2404 O 226.346 1.64461 0.57429 0
M  V30 2405 C 223.478 3.25375 1.01705 0
M  V30 2406 H 224.671 2.90199 -0.756608 0
M  V30 2407 H 222.224 1.50254 -0.430506 0
M  V30 2408 H 222.959 2.69301 1.80686 0
M  V30 2409 H 222.744 3.88944 0.496463 0
M  V30 2410 H 224.234 3.90245 1.48655 0
M  V30 2411 N 224.671 0.411399 1.52136 0
M  V30 2412 C 226.087 0.0623865 1.59478 0
M  V30 2413 C 226.287 -1.42554 1.4241 0
M  V30 2414 O 225.343 -2.19263 1.2522 0
M  V30 2415 C 226.656 0.559331 2.95452 0
M  V30 2416 C 228.204 0.517503 3.08692 0
M  V30 2417 C 228.679 0.990994 4.4715 0
M  V30 2418 N 230.17 0.947908 4.53397 0
M  V30 2419 C 230.905 1.28544 5.58806 0
M  V30 2420 N 230.401 1.69454 6.71757 0
M  V30 2421 N 232.194 1.20526 5.49026 0
M  V30 2422 H 224.345 1.37982 1.61477 0
M  V30 2423 H 226.608 0.566977 0.759764 0
M  V30 2424 H 226.314 1.59938 3.1323 0
M  V30 2425 H 226.188 -0.0298014 3.77188 0
M  V30 2426 H 228.575 -0.513505 2.90598 0
M  V30 2427 H 228.656 1.14272 2.28857 0
M  V30 2428 H 228.3 2.02034 4.65988 0
M  V30 2429 H 228.23 0.34257 5.25485 0
M  V30 2430 H 230.721 0.647157 3.72317 0
M  V30 2431 H 231.034 1.93513 7.48179 0
M  V30 2432 H 229.379 1.73359 6.73032 0
M  V30 2433 H 232.57 0.884505 4.59667 0
M  V30 2434 H 232.743 1.47161 6.31069 0
M  V30 2435 N 226.149 -1.5696 0.141893 0
M  V30 2436 C 227.379 -2.00031 -0.516828 0
M  V30 2437 C 227.787 -1.02091 -1.59293 0
M  V30 2438 O 227.13 -0.00909657 -1.83698 0
M  V30 2439 C 227.192 -3.39534 -1.1814 0
M  V30 2440 C 226.856 -4.56313 -0.250513 0
M  V30 2441 C 227.853 -5.17295 0.519839 0
M  V30 2442 C 225.538 -5.02061 -0.154907 0
M  V30 2443 C 227.532 -6.2243 1.3733 0
M  V30 2444 C 225.219 -6.07053 0.702161 0
M  V30 2445 C 226.217 -6.67106 1.46487 0
M  V30 2446 O 225.905 -7.70066 2.30767 0
M  V30 2447 H 225.637 -0.661451 -0.139493 0
M  V30 2448 H 228.191 -2.04086 0.231926 0
M  V30 2449 H 226.421 -3.32302 -1.97769 0
M  V30 2450 H 228.11 -3.66745 -1.73933 0
M  V30 2451 H 228.876 -4.82852 0.45598 0
M  V30 2452 H 224.755 -4.5505 -0.7383 0
M  V30 2453 H 228.299 -6.69233 1.96909 0
M  V30 2454 H 224.196 -6.40923 0.76733 0
M  V30 2455 H 224.964 -7.87264 2.23959 0
M  V30 2456 N 227.627 0.131896 -1.57047 0
M  V30 2457 C 228.59 1.14638 -1.98471 0
M  V30 2458 C 229.59 1.35029 -0.873148 0
M  V30 2459 O 230.78 1.31764 -1.13946 0
M  V30 2460 C 227.912 2.50358 -2.31373 0
M  V30 2461 H 229.105 0.79064 -2.8929 0
M  V30 2462 H 226.658 0.375761 -1.51716 0
M  V30 2463 H 227.393 2.90876 -1.43393 0
M  V30 2464 H 227.178 2.36915 -3.12432 0
M  V30 2465 H 228.668 3.23395 -2.64207 0
M  V30 2466 N 229.106 1.52395 0.401703 0
M  V30 2467 C 230.354 1.66488 1.14569 0
M  V30 2468 C 230.675 0.400897 1.90835 0
M  V30 2469 O 229.945 -0.584415 1.8698 0
M  V30 2470 H 228.525 0.613672 0.425929 0
M  V30 2471 H 231.187 1.89464 0.457093 0
M  V30 2472 H 230.283 2.50942 1.85566 0
M  V30 2473 N 230.584 -0.659388 1.43143 0
M  V30 2474 C 231.812 -1.44723 1.47861 0
M  V30 2475 C 232.227 -1.88563 0.0945886 0
M  V30 2476 O 231.584 -1.59108 -0.893915 0
M  V30 2477 C 231.635 -2.68627 2.41913 0
M  V30 2478 O 231.356 -2.26623 3.74932 0
M  V30 2479 C 232.857 -3.62045 2.55809 0
M  V30 2480 H 230.077 -0.444801 0.502387 0
M  V30 2481 H 232.621 -0.808916 1.87821 0
M  V30 2482 H 230.776 -3.28613 2.05164 0
M  V30 2483 H 231.19 -3.06745 4.2545 0
M  V30 2484 H 232.664 -4.45666 3.25708 0
M  V30 2485 H 233.141 -4.08981 1.60099 0
M  V30 2486 H 233.747 -3.07944 2.93344 0
M  V30 2487 N 232.062 -1.29571 -0.897171 0
M  V30 2488 C 232.992 -1.17473 -2.01798 0
M  V30 2489 C 233.973 -0.068323 -1.69963 0
M  V30 2490 O 235.158 -0.248239 -1.92607 0
M  V30 2491 C 232.288 -0.853099 -3.36659 0
M  V30 2492 C 231.242 -1.9161 -3.82713 0
M  V30 2493 C 230.568 -1.44773 -5.14728 0
M  V30 2494 C 231.868 -3.32535 -4.02763 0
M  V30 2495 H 233.562 -2.11237 -2.12177 0
M  V30 2496 H 231.108 -1.01699 -1.01948 0
M  V30 2497 H 233.061 -0.755165 -4.14578 0
M  V30 2498 H 231.785 0.120236 -3.26379 0
M  V30 2499 H 230.444 -2.00346 -3.07013 0
M  V30 2500 H 230.092 -0.462995 -5.00865 0
M  V30 2501 H 229.792 -2.15865 -5.46513 0
M  V30 2502 H 231.316 -1.36334 -5.95185 0
M  V30 2503 H 232.73 -3.26626 -4.71156 0
M  V30 2504 H 231.127 -4.01607 -4.45905 0
M  V30 2505 H 232.197 -3.75326 -3.07016 0
M  V30 2506 N 233.54 1.10788 -1.12088 0
M  V30 2507 C 234.488 2.19111 -0.780587 0
M  V30 2508 C 235.482 1.67818 0.230961 0
M  V30 2509 O 236.688 1.79777 0.0895427 0
M  V30 2510 H 233.063 0.714477 -0.234578 0
M  V30 2511 H 235.034 2.45055 -1.70266 0
M  V30 2512 C 233.783 3.46818 -0.24747 0
M  V30 2513 H 233.106 3.86646 -1.01712 0
M  V30 2514 H 234.546 4.23973 -0.0476291 0
M  V30 2515 C 233.005 3.20968 1.02378 0
M  V30 2516 O 233.535 3.42298 2.10226 0
M  V30 2517 N 231.741 2.74658 0.949271 0
M  V30 2518 H 231.288 2.57501 0.0715173 0
M  V30 2519 H 231.246 2.57739 1.80049 0
M  V30 2520 N 235.018 0.912232 1.28515 0
M  V30 2521 C 235.966 0.389597 2.29314 0
M  V30 2522 C 236.96 -0.517915 1.61289 0
M  V30 2523 O 238.166 -0.399328 1.75515 0
M  V30 2524 H 234.541 0.107386 0.744293 0
M  V30 2525 H 236.512 1.25286 2.70825 0
M  V30 2526 C 235.261 -0.356496 3.45868 0
M  V30 2527 H 234.584 0.332608 3.98414 0
M  V30 2528 H 236.024 -0.686851 4.184 0
M  V30 2529 C 234.483 -1.56383 2.98406 0
M  V30 2530 O 235.013 -2.66294 3.00749 0
M  V30 2531 N 233.219 -1.41029 2.54085 0
M  V30 2532 H 232.766 -0.516089 2.52377 0
M  V30 2533 H 232.724 -2.21939 2.22689 0
M  V30 2534 N 236.496 -1.42363 0.676048 0
M  V30 2535 C 237.742 -2.0182 0.199125 0
M  V30 2536 C 238.075 -1.53339 -1.19168 0
M  V30 2537 O 237.35 -0.736124 -1.80032 0
M  V30 2538 C 237.633 -3.59331 0.235144 0
M  V30 2539 C 237.486 -4.17989 1.66149 0
M  V30 2540 C 238.805 -4.3813 -0.41595 0
M  V30 2541 H 235.924 -0.733293 0.0738311 0
M  V30 2542 H 238.566 -1.69368 0.86107 0
M  V30 2543 H 236.716 -3.87109 -0.328487 0
M  V30 2544 H 238.388 -4.0116 2.27747 0
M  V30 2545 H 236.631 -3.7377 2.20178 0
M  V30 2546 H 237.302 -5.27126 1.63837 0
M  V30 2547 H 239.778 -4.16051 0.0638529 0
M  V30 2548 H 238.654 -5.47717 -0.360115 0
M  V30 2549 H 238.915 -4.16101 -1.49373 0
M  V30 2550 N 237.974 -0.419461 -1.51915 0
M  V30 2551 C 239.22 0.153166 -2.02221 0
M  V30 2552 C 239.553 1.43907 -1.30401 0
M  V30 2553 O 238.828 1.90055 -0.413438 0
M  V30 2554 C 239.111 0.390291 -3.57979 0
M  V30 2555 C 238.964 -0.913014 -4.40436 0
M  V30 2556 C 240.283 1.16794 -4.2432 0
M  V30 2557 H 237.402 0.0541924 -0.735005 0
M  V30 2558 H 240.044 -0.554955 -1.81715 0
M  V30 2559 H 238.194 0.993491 -3.75582 0
M  V30 2560 H 239.866 -1.54882 -4.34522 0
M  V30 2561 H 238.109 -1.52168 -4.06236 0
M  V30 2562 H 238.78 -0.701361 -5.47526 0
M  V30 2563 H 241.256 0.657161 -4.10878 0
M  V30 2564 H 240.132 1.3026 -5.3322 0
M  V30 2565 H 240.393 2.19132 -3.83971 0
M  V30 2566 N 239.452 1.56882 -0.150215 0
M  V30 2567 C 240.692 1.98119 0.502804 0
M  V30 2568 C 241.056 1.03327 1.61826 0
M  V30 2569 O 242.257 1.33621 2.33236 0
M  V30 2570 C 240.528 3.43329 0.992988 0
M  V30 2571 S 242.087 4.0659 1.65015 0
M  V30 2572 H 238.905 0.692189 0.162467 0
M  V30 2573 H 241.507 1.93988 -0.242689 0
M  V30 2574 H 240.211 4.10046 0.170436 0
M  V30 2575 H 239.742 3.5118 1.77303 0
M  V30 2576 H 241.757 3.99906 2.93752 0
M  V30 2577 N 240.93 -0.123565 1.57115 0
M  V30 2578 C 242.207 -0.862196 1.75572 0
M  V30 2579 C 242.587 -1.98279 0.724475 0
M  V30 2580 O 241.935 -2.27102 -0.252407 0
M  V30 2581 C 242.145 -1.38309 3.20424 0
M  V30 2582 C 243.493 -1.83724 3.82793 0
M  V30 2583 O 244.517 -1.47999 3.23998 0
M  V30 2584 O 243.376 -2.49685 4.86127 0
M  V30 2585 H 240.47 -0.409113 0.718718 0
M  V30 2586 H 243.016 -0.107661 1.69358 0
M  V30 2587 H 241.788 -0.578889 3.86994 0
M  V30 2588 H 241.411 -2.20046 3.31158 0
M  V30 2589 N 242.408 -1.52605 -0.393616 0
M  V30 2590 C 243.338 -1.80022 -1.48709 0
M  V30 2591 C 244.319 -0.651995 -1.57108 0
M  V30 2592 O 245.504 -0.89913 -1.72132 0
M  V30 2593 C 242.634 -1.96492 -2.86371 0
M  V30 2594 C 241.588 -3.12161 -2.92813 0
M  V30 2595 C 240.914 -3.13877 -4.3288 0
M  V30 2596 C 242.214 -4.51322 -2.6288 0
M  V30 2597 H 243.908 -2.71589 -1.26015 0
M  V30 2598 H 241.454 -1.30684 -0.604778 0
M  V30 2599 H 243.407 -2.14255 -3.62867 0
M  V30 2600 H 242.131 -1.01611 -3.10391 0
M  V30 2601 H 240.79 -2.94173 -2.18764 0
M  V30 2602 H 240.438 -2.16687 -4.53933 0
M  V30 2603 H 240.138 -3.91576 -4.38112 0
M  V30 2604 H 241.662 -3.33789 -5.1129 0
M  V30 2605 H 243.076 -4.69435 -3.29096 0
M  V30 2606 H 241.473 -5.31053 -2.79468 0
M  V30 2607 H 242.543 -4.58353 -1.58242 0
M  V30 2608 N 243.887 0.651787 -1.4349 0
M  V30 2609 C 245.133 1.41376 -1.45398 0
M  V30 2610 C 245.466 1.94041 -0.0784823 0
M  V30 2611 O 244.741 1.72379 0.900878 0
M  V30 2612 C 245.024 2.59414 -2.49752 0
M  V30 2613 C 244.877 2.12232 -3.96582 0
M  V30 2614 C 246.196 3.61626 -2.50827 0
M  V30 2615 H 243.315 0.512719 -0.529422 0
M  V30 2616 H 245.957 0.738796 -1.75048 0
M  V30 2617 H 244.107 3.16997 -2.246 0
M  V30 2618 H 245.779 1.59639 -4.32797 0
M  V30 2619 H 244.022 1.43592 -4.09346 0
M  V30 2620 H 244.693 2.9712 -4.65214 0
M  V30 2621 H 247.169 3.13805 -2.7325 0
M  V30 2622 H 246.045 4.41766 -3.25783 0
M  V30 2623 H 246.306 4.14314 -1.5426 0
M  V30 2624 N 245.365 1.30045 0.890287 0
M  V30 2625 C 246.781 1.08261 1.17268 0
M  V30 2626 C 246.981 -0.160063 2.00863 0
M  V30 2627 O 246.037 -0.855181 2.37577 0
M  V30 2628 C 247.35 2.34323 1.8845 0
M  V30 2629 C 248.898 2.39735 2.01237 0
M  V30 2630 C 249.373 3.65625 2.7583 0
M  V30 2631 N 250.864 3.66402 2.83379 0
M  V30 2632 C 251.599 4.60498 3.41657 0
M  V30 2633 N 251.095 5.64933 4.01026 0
M  V30 2634 N 252.888 4.48051 3.39421 0
M  V30 2635 H 245.039 2.09777 0.332762 0
M  V30 2636 H 247.302 0.92446 0.209948 0
M  V30 2637 H 247.008 3.2498 1.34465 0
M  V30 2638 H 246.882 2.4256 2.88867 0
M  V30 2639 H 249.269 1.4956 2.54393 0
M  V30 2640 H 249.35 2.35476 0.999232 0
M  V30 2641 H 248.994 4.56156 2.23347 0
M  V30 2642 H 248.924 3.67144 3.77509 0
M  V30 2643 H 251.415 2.90896 2.41222 0
M  V30 2644 H 251.728 6.32841 4.43545 0
M  V30 2645 H 250.073 5.68732 3.99461 0
M  V30 2646 H 253.264 3.65649 2.92264 0
M  V30 2647 H 253.437 5.21565 3.84544 0
M  V30 2648 N 246.843 -1.10192 1.12674 0
M  V30 2649 C 248.259 -1.34235 0.863317 0
M  V30 2650 C 248.459 -1.95062 -0.505277 0
M  V30 2651 O 247.515 -2.19192 -1.25345 0
M  V30 2652 C 248.828 -2.2616 1.98172 0
M  V30 2653 C 250.376 -2.3969 2.0129 0
M  V30 2654 C 250.851 -3.34946 3.1237 0
M  V30 2655 N 252.342 -3.42515 3.11829 0
M  V30 2656 C 253.077 -4.16199 3.94419 0
M  V30 2657 N 252.573 -4.92747 4.87004 0
M  V30 2658 N 254.366 -4.11843 3.82547 0
M  V30 2659 H 246.517 -0.690798 2.00853 0
M  V30 2660 H 248.78 -0.366774 0.874174 0
M  V30 2661 H 248.486 -1.8868 2.96804 0
M  V30 2662 H 248.36 -3.26488 1.88906 0
M  V30 2663 H 250.747 -2.76438 1.03276 0
M  V30 2664 H 250.828 -1.39169 2.14629 0
M  V30 2665 H 250.472 -2.98923 4.10619 0
M  V30 2666 H 250.402 -4.35353 2.96269 0
M  V30 2667 H 252.893 -2.87926 2.44759 0
M  V30 2668 H 253.206 -5.46376 5.46528 0
M  V30 2669 H 251.551 -4.91862 4.91016 0
M  V30 2670 H 254.742 -3.51136 3.0955 0
M  V30 2671 H 254.915 -4.69007 4.47142 0
M  V30 2672 N 248.321 -0.919034 -1.28029 0
M  V30 2673 C 249.251 -0.428581 -2.29533 0
M  V30 2674 C 250.232 0.50659 -1.62381 0
M  V30 2675 O 251.417 0.413195 -1.89753 0
M  V30 2676 C 248.547 0.327388 -3.45753 0
M  V30 2677 C 247.501 -0.519137 -4.2484 0
M  V30 2678 C 246.827 0.365486 -5.33449 0
M  V30 2679 C 248.127 -1.77914 -4.91064 0
M  V30 2680 H 249.821 -1.27687 -2.70807 0
M  V30 2681 H 247.367 -0.615428 -1.30186 0
M  V30 2682 H 249.32 0.681378 -4.15855 0
M  V30 2683 H 248.044 1.20963 -3.03374 0
M  V30 2684 H 246.703 -0.855717 -3.56473 0
M  V30 2685 H 246.351 1.24642 -4.87312 0
M  V30 2686 H 246.051 -0.197356 -5.87268 0
M  V30 2687 H 247.575 0.715241 -6.06396 0
M  V30 2688 H 248.989 -1.49374 -5.53498 0
M  V30 2689 H 247.386 -2.2848 -5.54903 0
M  V30 2690 H 248.456 -2.50382 -4.15255 0
M  V30 2691 N 249.799 1.42003 -0.683588 0
M  V30 2692 C 251.215 1.55625 -0.353976 0
M  V30 2693 C 251.415 1.66151 1.14 0
M  V30 2694 O 250.471 1.63329 1.92561 0
M  V30 2695 C 251.784 2.80171 -1.092 0
M  V30 2696 C 253.332 2.93954 -1.07518 0
M  V30 2697 C 253.807 4.21372 -1.79471 0
M  V30 2698 N 255.298 4.28303 -1.76381 0
M  V30 2699 C 256.033 5.25729 -2.28904 0
M  V30 2700 N 255.529 6.29254 -2.89846 0
M  V30 2701 N 257.322 5.17586 -2.19228 0
M  V30 2702 H 249.473 1.33415 -1.6527 0
M  V30 2703 H 251.736 0.64282 -0.696769 0
M  V30 2704 H 251.442 2.78561 -2.14701 0
M  V30 2705 H 251.316 3.7133 -0.662862 0
M  V30 2706 H 253.703 2.95086 -0.028475 0
M  V30 2707 H 253.784 2.04002 -1.54328 0
M  V30 2708 H 253.428 4.21001 -2.84114 0
M  V30 2709 H 253.358 5.10275 -1.30104 0
M  V30 2710 H 255.849 3.54119 -1.31939 0
M  V30 2711 H 256.162 6.99964 -3.27522 0
M  V30 2712 H 254.507 6.29791 -2.93919 0
M  V30 2713 H 257.698 4.35631 -1.71299 0
M  V30 2714 H 257.871 5.93348 -2.60466 0
M  V30 2715 N 251.277 0.427512 1.51691 0
M  V30 2716 C 252.693 0.0792977 1.59403 0
M  V30 2717 C 252.893 -1.41035 1.43914 0
M  V30 2718 O 251.949 -2.17922 1.27539 0
M  V30 2719 C 253.262 0.590636 2.94842 0
M  V30 2720 C 254.81 0.550215 3.08126 0
M  V30 2721 C 255.285 1.03836 4.46074 0
M  V30 2722 N 256.776 0.995943 4.52366 0
M  V30 2723 C 257.511 1.34463 5.57411 0
M  V30 2724 N 257.007 1.76569 6.69922 0
M  V30 2725 N 258.8 1.26343 5.47717 0
M  V30 2726 H 250.951 1.39687 1.60004 0
M  V30 2727 H 253.214 0.575003 0.753708 0
M  V30 2728 H 252.92 1.63251 3.11516 0
M  V30 2729 H 252.794 0.0102061 3.77199 0
M  V30 2730 H 255.181 -0.482654 2.91126 0
M  V30 2731 H 255.262 1.16693 2.27632 0
M  V30 2732 H 254.906 2.06965 4.63819 0
M  V30 2733 H 254.836 0.398286 5.25092 0
M  V30 2734 H 257.327 0.68661 3.7161 0
M  V30 2735 H 257.64 2.01438 7.46085 0
M  V30 2736 H 255.985 1.80488 6.71155 0
M  V30 2737 H 259.176 0.933209 4.58703 0
M  V30 2738 H 259.349 1.53846 6.29472 0
M  V30 2739 N 252.755 -1.56801 0.158532 0
M  V30 2740 C 253.687 -2.14488 -0.807923 0
M  V30 2741 C 254.7 -1.09721 -1.20271 0
M  V30 2742 O 255.889 -1.36956 -1.14478 0
M  V30 2743 C 252.989 -2.66217 -2.09718 0
M  V30 2744 C 252.162 -3.95507 -1.86796 0
M  V30 2745 C 251.221 -4.3243 -2.99818 0
M  V30 2746 O 250.247 -5.00543 -2.71008 0
M  V30 2747 N 251.449 -3.92947 -4.27285 0
M  V30 2748 H 254.214 -2.98042 -0.314816 0
M  V30 2749 H 251.775 -1.61881 -0.0246692 0
M  V30 2750 H 253.767 -2.87924 -2.84398 0
M  V30 2751 H 252.337 -1.87324 -2.50257 0
M  V30 2752 H 251.557 -3.82309 -0.96089 0
M  V30 2753 H 252.845 -4.79972 -1.68833 0
M  V30 2754 H 252.243 -3.38087 -4.53557 0
M  V30 2755 H 250.8 -4.19681 -4.9871 0
M  V30 2756 N 254.233 0.115231 -1.57178 0
M  V30 2757 C 255.649 0.468877 -1.52557 0
M  V30 2758 C 255.849 1.81649 -0.872125 0
M  V30 2759 O 254.905 2.48347 -0.45606 0
M  V30 2760 C 256.218 0.4499 -2.97315 0
M  V30 2761 C 257.766 0.533185 -3.08425 0
M  V30 2762 C 258.241 0.54456 -4.54751 0
M  V30 2763 N 259.732 0.605892 -4.5922 0
M  V30 2764 C 260.467 0.636203 -5.6986 0
M  V30 2765 N 259.963 0.623931 -6.89985 0
M  V30 2766 N 261.756 0.679496 -5.57978 0
M  V30 2767 H 253.907 -0.767712 -1.9804 0
M  V30 2768 H 256.17 -0.283609 -0.904583 0
M  V30 2769 H 255.876 -0.472721 -3.48509 0
M  V30 2770 H 255.75 1.27632 -3.5495 0
M  V30 2771 H 258.137 1.44623 -2.57232 0
M  V30 2772 H 258.218 -0.320995 -2.53778 0
M  V30 2773 H 257.862 -0.364452 -5.06591 0
M  V30 2774 H 257.792 1.41568 -5.07214 0
M  V30 2775 H 260.283 0.621386 -3.72756 0
M  V30 2776 H 260.596 0.649787 -7.70063 0
M  V30 2777 H 258.941 0.591296 -6.9248 0
M  V30 2778 H 262.132 0.686472 -4.63039 0
M  V30 2779 H 262.305 0.69965 -6.44212 0
M  V30 2780 N 255.711 1.52812 0.385517 0
M  V30 2781 C 256.959 1.67694 1.12797 0
M  V30 2782 C 257.28 0.421115 1.90399 0
M  V30 2783 O 256.55 -0.564551 1.87589 0
M  V30 2784 H 255.13 0.618155 0.419396 0
M  V30 2785 H 257.792 1.89938 0.436972 0
M  V30 2786 H 256.888 2.52896 1.82894 0
M  V30 2787 N 257.189 -0.644168 1.43834 0
M  V30 2788 C 258.605 -0.960875 1.27434 0
M  V30 2789 C 258.805 -2.00499 0.200618 0
M  V30 2790 O 257.861 -2.49018 -0.417906 0
M  V30 2791 C 259.174 -1.43653 2.64167 0
M  V30 2792 C 260.722 -1.55271 2.71772 0
M  V30 2793 C 261.197 -2.06224 4.08944 0
M  V30 2794 N 262.688 -2.13513 4.11055 0
M  V30 2795 C 263.423 -2.54081 5.14033 0
M  V30 2796 N 262.919 -2.9388 6.27381 0
M  V30 2797 N 264.712 -2.54101 5.01387 0
M  V30 2798 H 256.863 0.0465779 2.12349 0
M  V30 2799 H 259.126 -0.0417638 0.94708 0
M  V30 2800 H 258.832 -0.743706 3.43747 0
M  V30 2801 H 258.706 -2.40993 2.90176 0
M  V30 2802 H 261.093 -2.23653 1.92519 0
M  V30 2803 H 261.174 -0.563395 2.49519 0
M  V30 2804 H 260.818 -1.38441 4.88668 0
M  V30 2805 H 260.748 -3.06003 4.28567 0
M  V30 2806 H 263.239 -1.85493 3.29242 0
M  V30 2807 H 263.552 -3.2361 7.01781 0
M  V30 2808 H 261.897 -2.91663 6.30839 0
M  V30 2809 H 265.088 -2.22391 4.11898 0
M  V30 2810 H 265.261 -2.85394 5.81768 0
M  V30 2811 N 258.668 -1.30515 -0.883378 0
M  V30 2812 C 259.916 -1.19194 -1.63209 0
M  V30 2813 C 260.237 0.253205 -1.93349 0
M  V30 2814 O 259.507 1.17025 -1.57105 0
M  V30 2815 H 258.087 -0.438148 -0.605009 0
M  V30 2816 H 260.749 -1.63663 -1.05832 0
M  V30 2817 H 259.845 -1.75396 -2.58153 0
M  V30 2818 N 260.146 1.09593 -1.13257 0
M  V30 2819 C 261.374 1.855 -0.916378 0
M  V30 2820 C 261.789 1.81069 0.534738 0
M  V30 2821 O 261.146 1.20562 1.37007 0
M  V30 2822 C 261.197 3.33546 -1.39388 0
M  V30 2823 O 260.918 3.37927 -2.78813 0
M  V30 2824 C 262.419 4.26299 -1.21588 0
M  V30 2825 H 259.639 0.585991 -0.326887 0
M  V30 2826 H 262.183 1.38488 -1.5047 0
M  V30 2827 H 260.338 3.77992 -0.848597 0
M  V30 2828 H 260.752 4.30254 -2.9997 0
M  V30 2829 H 262.226 5.28341 -1.59876 0
M  V30 2830 H 262.703 4.38918 -0.157376 0
M  V30 2831 H 263.309 3.87668 -1.7491 0
M  V30 2832 N 261.624 0.925811 1.2754 0
M  V30 2833 C 262.872 0.564138 1.94067 0
M  V30 2834 C 263.193 -0.897188 1.73134 0
M  V30 2835 O 262.463 -1.63573 1.07799 0
M  V30 2836 H 261.043 0.205645 0.718136 0
M  V30 2837 H 263.705 1.1778 1.55287 0
M  V30 2838 H 262.801 0.76881 3.02483 0
M  V30 2839 N 263.102 -1.41638 0.69111 0
M  V30 2840 C 264.513 -1.84346 0.295517 0
M  V30 2841 C 264.864 -1.57833 -1.16547 0
M  V30 2842 O 263.989 -1.04648 -1.89414 0
M  V30 2843 C 264.584 -3.34636 0.529575 0
M  V30 2844 C 263.143 -3.7593 0.187944 0
M  V30 2845 C 262.29 -2.65082 0.814052 0
M  V30 2846 H 265.241 -1.31253 0.892092 0
M  V30 2847 H 265.262 -3.79903 -0.213148 0
M  V30 2848 H 264.774 -3.53901 1.59297 0
M  V30 2849 H 262.875 -3.62268 -0.871367 0
M  V30 2850 H 262.988 -4.74808 0.63985 0
M  V30 2851 H 261.352 -2.53528 0.244017 0
M  V30 2852 H 262.135 -2.87167 1.88123 0
M  V30 2853 N 264.58 -0.43555 -1.51462 0
M  V30 2854 C 265.991 0.0279871 -1.86679 0
M  V30 2855 C 266.342 1.42104 -1.35281 0
M  V30 2856 O 265.467 2.04667 -0.702878 0
M  V30 2857 C 266.062 0.0575626 -3.38751 0
M  V30 2858 C 264.621 0.465507 -3.7351 0
M  V30 2859 C 263.768 -0.342996 -2.75171 0
M  V30 2860 H 266.719 -0.651473 -1.44712 0
M  V30 2861 H 266.74 0.867421 -3.70481 0
M  V30 2862 H 266.252 -0.956448 -3.7613 0
M  V30 2863 H 264.353 1.48519 -3.41721 0
M  V30 2864 H 264.466 0.191546 -4.78717 0
M  V30 2865 H 262.83 0.198442 -2.53926 0
M  V30 2866 H 263.613 -1.35585 -3.15391 0
M  V30 2867 N 266.058 1.56714 -0.166846 0
M  V30 2868 C 267.021 2.16539 0.751232 0
M  V30 2869 C 268.021 1.11228 1.16125 0
M  V30 2870 O 269.211 1.36765 1.07894 0
M  V30 2871 C 266.343 2.74462 2.02196 0
M  V30 2872 H 267.536 2.99013 0.230499 0
M  V30 2873 H 265.089 1.56081 0.0826982 0
M  V30 2874 H 265.824 1.95709 2.58589 0
M  V30 2875 H 265.609 3.51527 1.73698 0
M  V30 2876 H 267.099 3.20489 2.67725 0
M  V30 2877 N 267.536 -0.106894 1.57237 0
M  V30 2878 C 268.466 -1.13148 2.04254 0
M  V30 2879 C 269.447 -1.42476 0.929224 0
M  V30 2880 O 270.632 -1.52709 1.19973 0
M  V30 2881 C 267.762 -2.4545 2.45706 0
M  V30 2882 C 266.716 -2.30558 3.60592 0
M  V30 2883 C 266.042 -3.67931 3.87983 0
M  V30 2884 C 267.342 -1.75597 4.91897 0
M  V30 2885 H 269.036 -0.740374 2.90101 0
M  V30 2886 H 266.582 -0.354696 1.39563 0
M  V30 2887 H 268.535 -3.17389 2.77205 0
M  V30 2888 H 267.259 -2.86475 1.56843 0
M  V30 2889 H 265.918 -1.61067 3.29322 0
M  V30 2890 H 265.566 -4.06462 2.96306 0
M  V30 2891 H 265.266 -3.58817 4.65322 0
M  V30 2892 H 266.79 -4.41356 4.21945 0
M  V30 2893 H 268.204 -2.37364 5.21854 0
M  V30 2894 H 266.601 -1.77272 5.73319 0
M  V30 2895 H 267.671 -0.714451 4.79608 0
M  V30 2896 N 269.014 -1.53014 -0.377408 0
M  V30 2897 C 270.26 -1.68872 -1.12294 0
M  V30 2898 C 270.593 -0.433224 -1.89306 0
M  V30 2899 O 269.868 0.569258 -1.85983 0
M  V30 2900 C 270.151 -2.93115 -2.09179 0
M  V30 2901 C 270.004 -4.28794 -1.35853 0
M  V30 2902 C 271.323 -3.12928 -3.09458 0
M  V30 2903 H 268.442 -0.614518 -0.406862 0
M  V30 2904 H 271.084 -1.85633 -0.40503 0
M  V30 2905 H 269.234 -2.78956 -2.70399 0
M  V30 2906 H 270.906 -4.54742 -0.775082 0
M  V30 2907 H 269.149 -4.28744 -0.660364 0
M  V30 2908 H 269.82 -5.11837 -2.06706 0
M  V30 2909 H 272.296 -3.26194 -2.58334 0
M  V30 2910 H 271.172 -4.01316 -3.74482 0
M  V30 2911 H 271.433 -2.27669 -3.78971 0
M  V30 2912 N 270.492 0.636531 -1.44174 0
M  V30 2913 C 271.908 0.954104 -1.27941 0
M  V30 2914 C 272.108 2.0039 -0.211248 0
M  V30 2915 O 271.164 2.49236 0.404695 0
M  V30 2916 C 272.477 1.4225 -2.64925 0
M  V30 2917 C 274.025 1.53827 -2.72592 0
M  V30 2918 C 274.5 2.04053 -4.10032 0
M  V30 2919 N 275.991 2.11331 -4.12182 0
M  V30 2920 C 276.726 2.51352 -5.15374 0
M  V30 2921 N 276.222 2.90549 -6.2893 0
M  V30 2922 N 278.015 2.51438 -5.02728 0
M  V30 2923 H 270.166 -0.0578386 -2.12321 0
M  V30 2924 H 272.429 0.0367406 -0.947288 0
M  V30 2925 H 272.135 0.725466 -3.44136 0
M  V30 2926 H 272.009 2.39451 -2.9145 0
M  V30 2927 H 274.396 2.22628 -1.93702 0
M  V30 2928 H 274.477 0.550154 -2.49814 0
M  V30 2929 H 274.121 1.35848 -4.89395 0
M  V30 2930 H 274.051 3.03726 -4.30184 0
M  V30 2931 H 276.542 1.83745 -3.30222 0
M  V30 2932 H 276.855 3.19884 -7.03487 0
M  V30 2933 H 275.2 2.88313 -6.32377 0
M  V30 2934 H 278.391 2.20203 -4.13072 0
M  V30 2935 H 278.564 2.82304 -5.83274 0
M  V30 2936 N 271.97 1.30982 0.876444 0
M  V30 2937 C 273.247 1.10942 1.61094 0
M  V30 2938 C 273.627 -0.338223 2.08373 0
M  V30 2939 O 272.975 -1.33122 1.85717 0
M  V30 2940 C 273.185 2.11789 2.77392 0
M  V30 2941 C 274.533 2.43965 3.47514 0
M  V30 2942 O 275.557 2.10166 2.87591 0
M  V30 2943 O 274.416 3.01817 4.55597 0
M  V30 2944 H 271.51 0.42667 0.708436 0
M  V30 2945 H 274.056 1.42438 0.922474 0
M  V30 2946 H 272.828 3.09194 2.39823 0
M  V30 2947 H 272.451 1.81161 3.5393 0
M  V30 2948 N 273.449 -1.08991 1.13837 0
M  V30 2949 C 274.695 -1.81526 0.90422 0
M  V30 2950 C 275.028 -1.85706 -0.568066 0
M  V30 2951 O 274.303 -1.32855 -1.42056 0
M  V30 2952 C 274.586 -3.27447 1.49835 0
M  V30 2953 C 274.439 -3.31512 3.04006 0
M  V30 2954 C 275.758 -4.24256 1.17025 0
M  V30 2955 H 272.877 -0.659029 0.329923 0
M  V30 2956 H 275.519 -1.27644 1.40737 0
M  V30 2957 H 273.669 -3.73462 1.07044 0
M  V30 2958 H 275.341 -2.93867 3.55584 0
M  V30 2959 H 273.584 -2.70963 3.38765 0
M  V30 2960 H 274.255 -4.34329 3.40679 0
M  V30 2961 H 276.731 -3.86549 1.54009 0
M  V30 2962 H 275.607 -5.24684 1.61237 0
M  V30 2963 H 275.868 -4.42019 0.0846274 0
M  V30 2964 N 274.927 -0.932562 -1.27047 0
M  V30 2965 C 275.89 -0.440064 -2.24936 0
M  V30 2966 C 276.89 0.444071 -1.54547 0
M  V30 2967 O 278.08 0.244465 -1.72476 0
M  V30 2968 C 275.212 0.36678 -3.38921 0
M  V30 2969 H 276.405 -1.305 -2.70018 0
M  V30 2970 H 273.958 -0.713707 -1.39054 0
M  V30 2971 H 274.693 1.25033 -2.99228 0
M  V30 2972 H 274.478 -0.267204 -3.91188 0
M  V30 2973 H 275.968 0.701567 -4.11665 0
M  V30 2974 N 276.405 1.4127 -0.698611 0
M  V30 2975 C 277.653 2.00782 -0.230409 0
M  V30 2976 C 277.974 1.5562 1.17505 0
M  V30 2977 O 277.244 0.78815 1.79346 0
M  V30 2978 H 275.824 0.742464 -0.0821944 0
M  V30 2979 H 278.486 1.72852 -0.90045 0
M  V30 2980 H 277.582 3.11095 -0.25021 0
M  V30 2981 N 277.883 0.443576 1.51229 0
M  V30 2982 C 278.793 -0.370721 2.31652 0
M  V30 2983 C 279.809 -1.02186 1.40833 0
M  V30 2984 O 280.985 -1.01586 1.73903 0
M  V30 2985 C 278.05 -1.45376 3.14749 0
M  V30 2986 C 277.111 -0.822099 4.21355 0
M  V30 2987 C 276.344 -1.85353 5.0048 0
M  V30 2988 O 276.567 -3.07656 4.80316 0
M  V30 2989 O 275.501 -1.4406 5.84406 0
M  V30 2990 H 279.327 0.286002 3.0235 0
M  V30 2991 H 276.912 0.20598 1.47973 0
M  V30 2992 H 278.794 -2.08173 3.66391 0
M  V30 2993 H 277.469 -2.09445 2.46809 0
M  V30 2994 H 276.376 -0.155909 3.73775 0
M  V30 2995 H 277.709 -0.224797 4.91686 0
M  V30 2996 N 279.361 -1.56624 0.175154 0
M  V30 2997 C 280.608 -1.96999 -0.468811 0
M  V30 2998 C 280.936 -1.06129 -1.62994 0
M  V30 2999 O 280.191 -0.0961771 -1.95464 0
M  V30 3000 C 280.49 -3.43419 -0.989864 0
M  V30 3001 C 280.156 -4.50866 0.0557687 0
M  V30 3002 C 278.818 -4.79975 0.343134 0
M  V30 3003 C 281.17 -5.15551 0.765308 0
M  V30 3004 C 278.498 -5.71066 1.34536 0
M  V30 3005 C 280.85 -6.07724 1.75654 0
M  V30 3006 C 279.514 -6.35199 2.05132 0
M  V30 3007 H 278.784 -0.720869 -0.17155 0
M  V30 3008 H 281.431 -1.89616 0.267924 0
M  V30 3009 H 279.736 -3.47772 -1.80449 0
M  V30 3010 H 281.433 -3.72002 -1.49719 0
M  V30 3011 H 278.023 -4.28229 -0.178381 0
M  V30 3012 H 282.207 -4.9317 0.556513 0
M  V30 3013 H 277.463 -5.90635 1.57988 0
M  V30 3014 H 281.637 -6.56912 2.31169 0
M  V30 3015 H 279.264 -7.05584 2.8294 0
M  V30 3016 N 280.839 0.0985539 -1.57292 0
M  V30 3017 C 282.069 0.815135 -1.8984 0
M  V30 3018 C 282.477 1.7297 -0.766679 0
M  V30 3019 O 281.82 1.81698 0.270483 0
M  V30 3020 C 281.882 1.6842 -3.17608 0
M  V30 3021 C 281.546 0.94182 -4.4719 0
M  V30 3022 C 282.543 0.273212 -5.19182 0
M  V30 3023 C 280.228 0.916927 -4.9386 0
M  V30 3024 C 282.222 -0.410361 -6.36078 0
M  V30 3025 C 279.909 0.229567 -6.10669 0
M  V30 3026 C 280.907 -0.432902 -6.81627 0
M  V30 3027 O 280.595 -1.10925 -7.9621 0
M  V30 3028 H 280.327 0.238501 -0.632529 0
M  V30 3029 H 282.881 0.0812659 -2.05239 0
M  V30 3030 H 281.111 2.46022 -2.98345 0
M  V30 3031 H 282.8 2.27704 -3.36015 0
M  V30 3032 H 283.566 0.283927 -4.84168 0
M  V30 3033 H 279.445 1.42201 -4.3852 0
M  V30 3034 H 282.989 -0.928013 -6.914 0
M  V30 3035 H 278.886 0.216686 -6.45136 0
M  V30 3036 H 279.654 -1.01579 -8.12172 0
M  V30 3037 N 282.317 1.53212 0.369288 0
M  V30 3038 C 283.264 1.79388 1.45219 0
M  V30 3039 C 284.234 0.638059 1.53356 0
M  V30 3040 O 285.419 0.879852 1.69302 0
M  V30 3041 C 282.559 1.98623 2.82211 0
M  V30 3042 C 281.672 3.26337 2.8307 0
M  V30 3043 C 280.807 3.35779 4.11614 0
M  V30 3044 C 279.846 4.5754 4.06601 0
M  V30 3045 N 278.983 4.64155 5.26787 0
M  V30 3046 H 283.823 2.71794 1.22198 0
M  V30 3047 H 281.36 1.34642 0.592444 0
M  V30 3048 H 283.318 2.07761 3.61789 0
M  V30 3049 H 281.948 1.09558 3.03639 0
M  V30 3050 H 281 3.26171 1.95747 0
M  V30 3051 H 282.312 4.15988 2.75237 0
M  V30 3052 H 281.466 3.44208 4.99606 0
M  V30 3053 H 280.205 2.44137 4.22195 0
M  V30 3054 H 279.21 4.49215 3.16996 0
M  V30 3055 H 280.435 5.50519 3.97625 0
M  V30 3056 H 278.381 3.75413 5.3796 0
M  V30 3057 H 278.298 5.47706 5.21109 0
M  V30 3058 H 279.566 4.76863 6.16621 0
M  V30 3059 N 283.795 -0.628877 1.44509 0
M  V30 3060 C 285.042 -1.38839 1.47411 0
M  V30 3061 C 285.37 -1.94202 0.10757 0
M  V30 3062 O 284.625 -1.74243 -0.890947 0
M  V30 3063 C 284.924 -2.56995 2.48371 0
M  V30 3064 C 284.59 -2.19908 3.93639 0
M  V30 3065 C 283.252 -2.09506 4.33198 0
M  V30 3066 C 285.604 -1.9064 4.85083 0
M  V30 3067 C 282.932 -1.68028 5.62124 0
M  V30 3068 C 285.284 -1.50655 6.14399 0
M  V30 3069 C 283.948 -1.38796 6.5291 0
M  V30 3070 H 283.218 -0.508048 0.539414 0
M  V30 3071 H 285.865 -0.712913 1.77735 0
M  V30 3072 H 284.17 -3.29786 2.11538 0
M  V30 3073 H 285.867 -3.15223 2.47861 0
M  V30 3074 H 282.457 -2.28922 3.62343 0
M  V30 3075 H 286.641 -1.97585 4.55273 0
M  V30 3076 H 281.897 -1.57452 5.90778 0
M  V30 3077 H 286.071 -1.27048 6.84713 0
M  V30 3078 H 283.698 -1.06429 7.52713 0
M  V30 3079 N 285.273 -1.31445 -0.869486 0
M  V30 3080 C 286.521 -1.20918 -1.61936 0
M  V30 3081 C 286.842 0.232683 -1.93607 0
M  V30 3082 O 286.112 1.15352 -1.58338 0
M  V30 3083 H 284.692 -0.44454 -0.600328 0
M  V30 3084 H 287.354 -1.64776 -1.0409 0
M  V30 3085 H 286.45 -1.78124 -2.56278 0
M  V30 3086 N 286.751 1.08385 -1.14413 0
M  V30 3087 C 287.681 2.17321 -0.854044 0
M  V30 3088 C 288.662 1.69024 0.191049 0
M  V30 3089 O 289.847 1.94141 0.0476779 0
M  V30 3090 C 286.977 3.45719 -0.330983 0
M  V30 3091 C 285.931 4.07409 -1.31155 0
M  V30 3092 C 285.257 5.30762 -0.64778 0
M  V30 3093 C 286.557 4.48665 -2.67388 0
M  V30 3094 H 288.251 2.41845 -1.76498 0
M  V30 3095 H 285.797 1.16233 -0.850051 0
M  V30 3096 H 287.75 4.21241 -0.115645 0
M  V30 3097 H 286.474 3.2075 0.615381 0
M  V30 3098 H 285.133 3.33919 -1.51306 0
M  V30 3099 H 284.781 5.02078 0.304398 0
M  V30 3100 H 284.481 5.72992 -1.30207 0
M  V30 3101 H 286.005 6.08998 -0.441972 0
M  V30 3102 H 287.419 5.15364 -2.51143 0
M  V30 3103 H 285.816 5.01814 -3.29093 0
M  V30 3104 H 286.886 3.60543 -3.24248 0
M  V30 3105 N 288.23 0.939286 1.26551 0
M  V30 3106 C 289.14 0.453432 2.30176 0
M  V30 3107 C 290.156 -0.471649 1.67486 0
M  V30 3108 O 291.332 -0.35164 1.98306 0
M  V30 3109 C 288.397 -0.275326 3.45605 0
M  V30 3110 C 287.458 0.686084 4.23782 0
M  V30 3111 C 286.691 -0.00798994 5.33699 0
M  V30 3112 O 286.914 -1.22528 5.57085 0
M  V30 3113 O 285.848 0.669746 5.98162 0
M  V30 3114 H 289.674 1.31416 2.73795 0
M  V30 3115 H 287.259 0.705095 1.31715 0
M  V30 3116 H 289.141 -0.685911 4.1578 0
M  V30 3117 H 287.816 -1.11147 3.0402 0
M  V30 3118 H 286.723 1.14658 3.56096 0
M  V30 3119 H 288.056 1.48979 4.69112 0
M  V30 3120 N 289.708 -1.40897 0.706093 0
M  V30 3121 C 290.956 -2.00657 0.241054 0
M  V30 3122 C 291.277 -1.56241 -1.16678 0
M  V30 3123 O 290.547 -0.79765 -1.78926 0
M  V30 3124 H 289.127 -0.742018 0.0861308 0
M  V30 3125 H 291.789 -1.72372 0.909604 0
M  V30 3126 H 290.885 -3.10958 0.266705 0
M  V30 3127 N 291.186 -0.45159 -1.50991 0
M  V30 3128 C 292.435 0.111653 -2.01391 0
M  V30 3129 C 292.748 1.42529 -1.33959 0
M  V30 3130 O 293.954 2.07232 -1.75405 0
M  V30 3131 C 292.41 0.249514 -3.59034 0
M  V30 3132 C 292.018 -1.05453 -4.35412 0
M  V30 3133 C 293.762 0.765762 -4.17536 0
M  V30 3134 C 291.669 -0.881529 -5.84793 0
M  V30 3135 H 290.599 0.0455022 -0.752626 0
M  V30 3136 H 293.25 -0.583524 -1.73975 0
M  V30 3137 H 291.632 1.00803 -3.82955 0
M  V30 3138 H 292.806 -1.82248 -4.23229 0
M  V30 3139 H 291.121 -1.50039 -3.88429 0
M  V30 3140 H 293.718 0.911913 -5.26866 0
M  V30 3141 H 294.061 1.75201 -3.77638 0
M  V30 3142 H 294.594 0.0651744 -3.97747 0
M  V30 3143 H 291.333 -1.84057 -6.29129 0
M  V30 3144 H 290.853 -0.153625 -5.99603 0
M  V30 3145 H 292.532 -0.540363 -6.4474 0
M  V30 3146 N 292.664 1.56529 -0.183458 0
M  V30 3147 C 293.627 2.17324 0.728223 0
M  V30 3148 C 294.627 1.12453 1.14939 0
M  V30 3149 O 295.817 1.37902 1.06437 0
M  V30 3150 C 292.949 2.76591 1.99274 0
M  V30 3151 H 294.142 2.99241 0.198772 0
M  V30 3152 H 291.695 1.5616 0.0661391 0
M  V30 3153 H 292.43 1.98441 2.56499 0
M  V30 3154 H 292.215 3.5335 1.69959 0
M  V30 3155 H 293.705 3.23311 2.6431 0
M  V30 3156 N 294.142 -0.090211 1.57342 0
M  V30 3157 C 295.105 -1.09335 2.01441 0
M  V30 3158 C 296.105 -1.32666 0.908641 0
M  V30 3159 O 297.295 -1.28697 1.174 0
M  V30 3160 C 294.427 -2.44136 2.3793 0
M  V30 3161 H 295.62 -0.713662 2.91285 0
M  V30 3162 H 293.173 -0.335404 1.52659 0
M  V30 3163 H 293.908 -2.86972 1.51055 0
M  V30 3164 H 293.693 -2.28548 3.18603 0
M  V30 3165 H 295.183 -3.16277 2.72688 0
M  V30 3166 N 295.62 -1.53406 -0.361157 0
M  V30 3167 C 296.866 -1.70054 -1.10496 0
M  V30 3168 C 297.199 -0.453278 -1.88836 0
M  V30 3169 O 296.474 0.5495 -1.86576 0
M  V30 3170 C 296.757 -2.95317 -2.06058 0
M  V30 3171 C 296.61 -4.3021 -1.31298 0
M  V30 3172 C 297.929 -3.16193 -3.06121 0
M  V30 3173 H 295.048 -0.618799 -0.400321 0
M  V30 3174 H 297.69 -1.86052 -0.385318 0
M  V30 3175 H 295.84 -2.81809 -2.67425 0
M  V30 3176 H 297.512 -4.55538 -0.726807 0
M  V30 3177 H 295.755 -4.29421 -0.614853 0
M  V30 3178 H 296.426 -5.14 -2.01265 0
M  V30 3179 H 298.902 -3.28916 -2.5486 0
M  V30 3180 H 297.778 -4.05266 -3.70204 0
M  V30 3181 H 298.039 -2.31676 -3.76535 0
M  V30 3182 N 297.098 0.621204 -1.44841 0
M  V30 3183 C 298.028 1.74366 -1.55303 0
M  V30 3184 C 299.009 1.65199 -0.405385 0
M  V30 3185 O 300.194 1.83807 -0.626787 0
M  V30 3186 C 297.324 3.12931 -1.50637 0
M  V30 3187 C 296.278 3.36896 -2.63979 0
M  V30 3188 C 295.604 4.75594 -2.44366 0
M  V30 3189 C 296.904 3.28483 -4.06074 0
M  V30 3190 H 298.598 1.65867 -2.49256 0
M  V30 3191 H 296.144 0.796558 -1.19962 0
M  V30 3192 H 298.097 3.9124 -1.56555 0
M  V30 3193 H 296.821 3.22237 -0.532057 0
M  V30 3194 H 295.48 2.60972 -2.57467 0
M  V30 3195 H 295.128 4.81616 -1.45105 0
M  V30 3196 H 294.828 4.92586 -3.20364 0
M  V30 3197 H 296.352 5.5612 -2.52117 0
M  V30 3198 H 297.766 3.96684 -4.13902 0
M  V30 3199 H 296.163 3.57008 -4.82354 0
M  V30 3200 H 297.233 2.26133 -4.28943 0
M  V30 3201 N 298.576 1.31904 0.862503 0
M  V30 3202 C 299.506 1.22782 1.98612 0
M  V30 3203 C 300.487 0.113362 1.69722 0
M  V30 3204 O 301.672 0.299218 1.91881 0
M  V30 3205 C 298.802 0.942058 3.34279 0
M  V30 3206 C 297.756 2.0169 3.77499 0
M  V30 3207 C 297.082 1.58369 5.10709 0
M  V30 3208 C 298.382 3.43096 3.93805 0
M  V30 3209 H 300.076 2.16788 2.06502 0
M  V30 3210 H 297.622 1.04366 0.992154 0
M  V30 3211 H 299.575 0.864818 4.1243 0
M  V30 3212 H 298.299 -0.0336603 3.26583 0
M  V30 3213 H 296.958 2.08416 3.01593 0
M  V30 3214 H 296.606 0.595628 4.99461 0
M  V30 3215 H 296.306 2.30279 5.40597 0
M  V30 3216 H 297.83 1.52067 5.91361 0
M  V30 3217 H 299.244 3.39003 4.62331 0
M  V30 3218 H 297.641 4.13288 4.35101 0
M  V30 3219 H 298.711 3.83334 2.96957 0
M  V30 3220 N 300.054 -1.07777 1.14986 0
M  V30 3221 C 301.302 -1.79934 0.920235 0
M  V30 3222 C 301.623 -1.86955 -0.554336 0
M  V30 3223 O 300.893 -1.36731 -1.40291 0
M  V30 3224 H 299.473 -0.666424 0.337473 0
M  V30 3225 H 302.135 -1.3027 1.44968 0
M  V30 3226 H 301.231 -2.82539 1.32583 0
M  V30 3227 N 301.532 -0.945985 -1.26051 0
M  V30 3228 C 302.757 -0.612525 -1.98149 0
M  V30 3229 C 303.182 0.806623 -1.69927 0
M  V30 3230 O 302.54 1.54411 -0.950108 0
M  V30 3231 C 302.588 -0.866981 -3.50023 0
M  V30 3232 O 301.692 0.0585333 -4.12358 0
M  V30 3233 H 301.033 -0.23379 -0.621481 0
M  V30 3234 H 303.563 -1.27023 -1.60395 0
M  V30 3235 H 303.573 -0.789792 -4.00283 0
M  V30 3236 H 302.248 -1.90135 -3.69894 0
M  V30 3237 H 300.825 -0.0701241 -3.72834 0
M  V30 3238 N 303.011 1.40521 -0.713556 0
M  V30 3239 C 304.427 1.54839 -0.386907 0
M  V30 3240 C 304.627 1.68532 1.1045 0
M  V30 3241 O 303.683 1.67377 1.89053 0
M  V30 3242 C 304.996 2.77792 -1.15118 0
M  V30 3243 C 306.544 2.91607 -1.13729 0
M  V30 3244 C 307.019 4.1747 -1.88368 0
M  V30 3245 N 308.51 4.24466 -1.85427 0
M  V30 3246 C 309.245 5.20755 -2.40004 0
M  V30 3247 N 308.741 6.22965 -3.03129 0
M  V30 3248 N 310.534 5.1282 -2.30158 0
M  V30 3249 H 302.685 1.29879 -1.68063 0
M  V30 3250 H 304.948 0.627896 -0.710247 0
M  V30 3251 H 304.654 2.73944 -2.20561 0
M  V30 3252 H 304.528 3.6984 -0.741477 0
M  V30 3253 H 306.915 2.94959 -0.0910608 0
M  V30 3254 H 306.996 2.00682 -1.5862 0
M  V30 3255 H 306.64 4.1488 -2.9298 0
M  V30 3256 H 306.57 5.074 -1.40898 0
M  V30 3257 H 309.061 3.51241 -1.3942 0
M  V30 3258 H 309.374 6.92859 -3.42295 0
M  V30 3259 H 307.719 6.23415 -3.07212 0
M  V30 3260 H 310.91 4.31899 -1.80501 0
M  V30 3261 H 311.083 5.87689 -2.72993 0
M  V30 3262 N 304.489 0.459591 1.5075 0
M  V30 3263 C 305.419 -0.330644 2.31147 0
M  V30 3264 C 306.4 -1.00087 1.37538 0
M  V30 3265 O 307.585 -1.00025 1.66459 0
M  V30 3266 C 304.715 -1.41958 3.16962 0
M  V30 3267 C 303.669 -0.871608 4.19031 0
M  V30 3268 C 302.995 -2.05797 4.9351 0
M  V30 3269 C 304.295 0.109251 5.22186 0
M  V30 3270 H 305.989 0.340336 2.97459 0
M  V30 3271 H 303.535 0.165119 1.4305 0
M  V30 3272 H 305.488 -1.9798 3.71997 0
M  V30 3273 H 304.212 -2.11917 2.48513 0
M  V30 3274 H 302.871 -0.333442 3.6508 0
M  V30 3275 H 302.519 -2.74427 4.21544 0
M  V30 3276 H 302.219 -1.6976 5.62544 0
M  V30 3277 H 303.743 -2.62331 5.51375 0
M  V30 3278 H 305.157 -0.361405 5.7216 0
M  V30 3279 H 303.554 0.383316 5.98875 0
M  V30 3280 H 304.624 1.03887 4.73641 0
M  V30 3281 N 305.967 -1.56429 0.191757 0
M  V30 3282 C 307.215 -1.97095 -0.447006 0
M  V30 3283 C 307.536 -1.07967 -1.62383 0
M  V30 3284 O 306.806 -0.150248 -1.95323 0
M  V30 3285 H 305.386 -0.727832 -0.168135 0
M  V30 3286 H 308.048 -1.92911 0.27771 0
M  V30 3287 H 307.144 -3.01848 -0.793371 0
M  V30 3288 N 307.445 0.0818655 -1.57387 0
M  V30 3289 C 308.685 0.788375 -1.88584 0
M  V30 3290 C 309.049 1.75248 -0.784351 0
M  V30 3291 O 310.25 2.50334 -0.979105 0
M  V30 3292 C 308.521 1.48654 -3.25018 0
M  V30 3293 S 310.08 2.22951 -3.7794 0
M  V30 3294 H 306.898 0.262383 -0.660815 0
M  V30 3295 H 309.5 0.0448995 -1.95448 0
M  V30 3296 H 308.204 0.770919 -4.03094 0
M  V30 3297 H 307.735 2.26965 -3.21326 0
M  V30 3298 H 309.75 3.49309 -3.52417 0
M  V30 3299 N 308.923 1.53595 0.353017 0
M  V30 3300 C 309.853 1.83902 1.43883 0
M  V30 3301 C 310.834 0.693421 1.55324 0
M  V30 3302 O 312.019 0.944452 1.69687 0
M  V30 3303 C 309.149 2.04016 2.8106 0
M  V30 3304 C 308.103 3.19814 2.84434 0
M  V30 3305 C 307.429 3.25244 4.24406 0
M  V30 3306 C 308.729 4.58133 2.50822 0
M  V30 3307 H 310.423 2.74835 1.1877 0
M  V30 3308 H 307.969 1.32242 0.569917 0
M  V30 3309 H 309.922 2.238 3.57059 0
M  V30 3310 H 308.646 1.09804 3.07588 0
M  V30 3311 H 307.305 2.9987 2.10887 0
M  V30 3312 H 306.953 2.28646 4.48029 0
M  V30 3313 H 306.653 4.03054 4.27576 0
M  V30 3314 H 308.177 3.47228 5.0226 0
M  V30 3315 H 309.591 4.77995 3.16534 0
M  V30 3316 H 307.988 5.38276 2.6529 0
M  V30 3317 H 309.058 4.62387 1.46034 0
M  V30 3318 N 310.401 -0.613514 1.45168 0
M  V30 3319 C 311.311 -1.75296 1.55912 0
M  V30 3320 C 312.327 -1.68244 0.443856 0
M  V30 3321 O 313.503 -1.88706 0.70371 0
M  V30 3322 C 310.568 -3.1174 1.5172 0
M  V30 3323 C 309.629 -3.30291 2.74238 0
M  V30 3324 C 308.862 -4.60226 2.70236 0
M  V30 3325 O 309.085 -5.42168 1.77229 0
M  V30 3326 O 308.019 -4.81361 3.61352 0
M  V30 3327 H 311.845 -1.69183 2.52212 0
M  V30 3328 H 309.43 -0.776886 1.27612 0
M  V30 3329 H 311.312 -3.93044 1.51968 0
M  V30 3330 H 309.987 -3.18357 0.585697 0
M  V30 3331 H 308.894 -2.48598 2.79553 0
M  V30 3332 H 310.227 -3.28547 3.66494 0
M  V30 3333 N 311.879 -1.3236 -0.855495 0
M  V30 3334 C 312.842 -1.21164 -1.94556 0
M  V30 3335 C 313.842 -0.134908 -1.60233 0
M  V30 3336 O 315.032 -0.385249 -1.69887 0
M  V30 3337 C 312.164 -0.863192 -3.29791 0
M  V30 3338 H 313.357 -2.18038 -2.05911 0
M  V30 3339 H 310.91 -1.16179 -1.04557 0
M  V30 3340 H 311.645 0.103769 -3.24134 0
M  V30 3341 H 311.43 -1.64166 -3.56078 0
M  V30 3342 H 312.92 -0.809156 -4.09686 0
M  V30 3343 N 313.357 1.07166 -1.15556 0
M  V30 3344 C 314.289 2.14341 -0.811815 0
M  V30 3345 C 315.302 1.61835 0.177015 0
M  V30 3346 O 316.491 1.78439 -0.0464996 0
M  V30 3347 C 313.591 3.38387 -0.186481 0
M  V30 3348 C 312.764 4.20238 -1.21321 0
M  V30 3349 C 311.823 5.2266 -0.609302 0
M  V30 3350 O 310.849 5.54719 -1.27576 0
M  V30 3351 N 312.051 5.77306 0.608099 0
M  V30 3352 H 314.816 2.44431 -1.73417 0
M  V30 3353 H 312.377 1.23089 -1.0517 0
M  V30 3354 H 314.369 4.04044 0.230339 0
M  V30 3355 H 312.939 3.05994 0.639249 0
M  V30 3356 H 312.159 3.50369 -1.80652 0
M  V30 3357 H 313.447 4.71736 -1.90638 0
M  V30 3358 H 312.845 5.53513 1.1679 0
M  V30 3359 H 311.402 6.44583 0.96725 0
M  V30 3360 N 314.835 0.952656 1.25548 0
M  V30 3361 C 316.081 0.607272 1.93494 0
M  V30 3362 C 316.414 -0.853245 1.74452 0
M  V30 3363 O 315.689 -1.61194 1.08843 0
M  V30 3364 C 315.972 0.96435 3.46947 0
M  V30 3365 C 315.825 2.48045 3.75225 0
M  V30 3366 C 317.144 0.487987 4.37386 0
M  V30 3367 H 314.263 0.222096 0.702739 0
M  V30 3368 H 316.905 1.18895 1.48203 0
M  V30 3369 H 315.055 0.469361 3.85654 0
M  V30 3370 H 316.727 3.04905 3.46166 0
M  V30 3371 H 314.97 2.919 3.209 0
M  V30 3372 H 315.641 2.6808 4.82532 0
M  V30 3373 H 318.117 0.912558 4.0597 0
M  V30 3374 H 316.993 0.766547 5.43521 0
M  V30 3375 H 317.254 -0.612063 4.37843 0
M  V30 3376 N 316.313 -1.40141 0.720998 0
M  V30 3377 C 317.724 -1.83678 0.334553 0
M  V30 3378 C 318.075 -1.6027 -1.13173 0
M  V30 3379 O 317.2 -1.08643 -1.87152 0
M  V30 3380 C 317.795 -3.33437 0.600437 0
M  V30 3381 C 316.354 -3.75447 0.267642 0
M  V30 3382 C 315.501 -2.63296 0.870097 0
M  V30 3383 H 318.452 -1.29331 0.919732 0
M  V30 3384 H 318.473 -3.80269 -0.132517 0
M  V30 3385 H 317.985 -3.50442 1.66768 0
M  V30 3386 H 316.086 -3.64035 -0.794329 0
M  V30 3387 H 316.199 -4.73344 0.74042 0
M  V30 3388 H 314.563 -2.52954 0.297739 0
M  V30 3389 H 315.346 -2.83112 1.94172 0
M  V30 3390 N 317.792 -0.46758 -1.50504 0
M  V30 3391 C 319.203 -0.0116166 -1.86696 0
M  V30 3392 C 319.554 1.39202 -1.38265 0
M  V30 3393 O 318.679 2.0313 -0.746132 0
M  V30 3394 C 319.274 -0.0143044 -3.38797 0
M  V30 3395 C 317.833 0.386175 -3.74414 0
M  V30 3396 C 316.98 -0.401287 -2.74381 0
M  V30 3397 H 319.931 -0.682022 -1.43297 0
M  V30 3398 H 319.952 0.788641 -3.72237 0
M  V30 3399 H 319.464 -1.03602 -3.74016 0
M  V30 3400 H 317.565 1.41237 -3.44794 0
M  V30 3401 H 317.678 0.0899596 -4.79016 0
M  V30 3402 H 316.042 0.144536 -2.5429 0
M  V30 3403 H 316.825 -1.42244 -3.12444 0
M  V30 3404 N 319.27 1.56325 -0.20005 0
M  V30 3405 C 320.547 1.89484 0.48529 0
M  V30 3406 C 320.927 1.1143 1.79294 0
M  V30 3407 O 320.275 0.216919 2.27468 0
M  V30 3408 C 320.485 3.41923 0.699243 0
M  V30 3409 C 321.833 4.12256 1.01638 0
M  V30 3410 O 322.857 3.47402 0.786792 0
M  V30 3411 O 321.716 5.26887 1.45095 0
M  V30 3412 H 318.81 0.787144 0.253639 0
M  V30 3413 H 321.356 1.67985 -0.240633 0
M  V30 3414 H 320.128 3.90658 -0.224008 0
M  V30 3415 H 319.751 3.69131 1.47744 0
M  V30 3416 N 320.748 -0.0735177 1.57428 0
M  V30 3417 C 321.976 -0.785969 1.9139 0
M  V30 3418 C 322.391 -1.71207 0.795847 0
M  V30 3419 O 321.748 -1.81033 -0.230915 0
M  V30 3420 C 321.799 -1.58107 3.25091 0
M  V30 3421 O 321.52 -0.6922 4.32597 0
M  V30 3422 C 323.021 -2.39467 3.73055 0
M  V30 3423 H 320.241 -0.223558 0.632663 0
M  V30 3424 H 322.785 -0.044302 2.04452 0
M  V30 3425 H 320.94 -2.27503 3.13562 0
M  V30 3426 H 321.354 -1.24504 5.09508 0
M  V30 3427 H 322.828 -2.90716 4.69242 0
M  V30 3428 H 323.305 -3.18913 3.01979 0
M  V30 3429 H 323.911 -1.7523 3.87523 0
M  V30 3430 N 322.226 -1.5378 -0.344866 0
M  V30 3431 C 323.136 -1.84667 -1.4469 0
M  V30 3432 C 324.152 -0.736704 -1.57635 0
M  V30 3433 O 325.328 -1.02888 -1.73136 0
M  V30 3434 C 322.393 -2.04869 -2.79696 0
M  V30 3435 C 321.454 -3.28731 -2.76106 0
M  V30 3436 C 320.687 -3.4796 -4.04673 0
M  V30 3437 O 320.91 -2.71052 -5.01883 0
M  V30 3438 O 319.844 -4.41383 -4.09224 0
M  V30 3439 H 323.67 -2.78334 -1.21506 0
M  V30 3440 H 321.255 -1.39418 -0.536921 0
M  V30 3441 H 323.137 -2.19609 -3.59652 0
M  V30 3442 H 321.812 -1.14391 -3.02814 0
M  V30 3443 H 320.719 -3.19396 -1.94774 0
M  V30 3444 H 322.052 -4.19198 -2.57941 0
M  V30 3445 N 323.704 0.605807 -1.45491 0
M  V30 3446 C 324.932 1.39136 -1.5313 0
M  V30 3447 C 325.347 1.88082 -0.164507 0
M  V30 3448 O 324.704 1.62316 0.834247 0
M  V30 3449 C 324.755 2.59463 -2.51716 0
M  V30 3450 O 324.476 2.12551 -3.83084 0
M  V30 3451 C 325.977 3.52301 -2.6907 0
M  V30 3452 H 323.197 0.425849 -0.51855 0
M  V30 3453 H 325.741 0.73865 -1.90694 0
M  V30 3454 H 323.896 3.20772 -2.17219 0
M  V30 3455 H 324.31 2.90744 -4.36541 0
M  V30 3456 H 325.784 4.33271 -3.42024 0
M  V30 3457 H 326.261 4.02757 -1.75167 0
M  V30 3458 H 326.867 2.96845 -3.04571 0
M  V30 3459 N 325.182 1.32811 0.848464 0
M  V30 3460 C 326.429 1.23724 1.60308 0
M  V30 3461 C 326.757 -0.1994 1.93475 0
M  V30 3462 O 326.012 -1.15406 1.5805 0
M  V30 3463 C 326.311 2.04831 2.92881 0
M  V30 3464 C 325.977 3.54125 2.79117 0
M  V30 3465 C 324.639 3.94829 2.7507 0
M  V30 3466 C 326.991 4.49036 2.64606 0
M  V30 3467 C 324.319 5.28675 2.544 0
M  V30 3468 C 326.671 5.83033 2.4547 0
M  V30 3469 C 325.335 6.22931 2.39819 0
M  V30 3470 H 324.605 0.452737 0.586609 0
M  V30 3471 H 327.252 1.64301 0.983743 0
M  V30 3472 H 325.557 1.57001 3.58968 0
M  V30 3473 H 327.254 1.95164 3.50303 0
M  V30 3474 H 323.844 3.21801 2.83094 0
M  V30 3475 H 328.028 4.18505 2.66772 0
M  V30 3476 H 323.284 5.58637 2.48465 0
M  V30 3477 H 327.458 6.56186 2.33222 0
M  V30 3478 H 325.085 7.26584 2.23562 0
M  V30 3479 N 326.66 -1.06551 1.16123 0
M  V30 3480 C 327.909 -1.78687 0.935622 0
M  V30 3481 C 328.222 -1.88056 -0.538001 0
M  V30 3482 O 329.428 -2.56794 -0.88143 0
M  V30 3483 C 327.884 -3.21143 1.62466 0
M  V30 3484 C 327.492 -3.19949 3.13587 0
M  V30 3485 C 329.236 -3.9783 1.48092 0
M  V30 3486 C 327.143 -4.57108 3.75241 0
M  V30 3487 H 326.073 -0.669712 0.346412 0
M  V30 3488 H 328.724 -1.19534 1.39226 0
M  V30 3489 H 327.106 -3.80539 1.09572 0
M  V30 3490 H 328.28 -2.70151 3.73303 0
M  V30 3491 H 326.595 -2.5676 3.27816 0
M  V30 3492 H 329.192 -4.99217 1.91538 0
M  V30 3493 H 329.535 -4.14078 0.429507 0
M  V30 3494 H 330.068 -3.4495 1.98127 0
M  V30 3495 H 326.807 -4.46065 4.80319 0
M  V30 3496 H 326.327 -5.07111 3.20309 0
M  V30 3497 H 328.006 -5.26069 3.76644 0
M  V30 3498 N 328.138 -0.959301 -1.25041 0
M  V30 3499 C 329.554 -0.664474 -1.4511 0
M  V30 3500 C 329.754 0.776481 -1.85938 0
M  V30 3501 O 328.81 1.55128 -1.99227 0
M  V30 3502 C 330.123 -1.64139 -2.5195 0
M  V30 3503 C 331.671 -1.65309 -2.65786 0
M  V30 3504 C 332.146 -2.61777 -3.75815 0
M  V30 3505 N 333.637 -2.60169 -3.83231 0
M  V30 3506 C 334.372 -3.31489 -4.6787 0
M  V30 3507 N 333.868 -4.12298 -5.56761 0
M  V30 3508 N 335.661 -3.20354 -4.61876 0
M  V30 3509 H 327.812 -1.89043 -0.968332 0
M  V30 3510 H 330.075 -0.813408 -0.4869 0
M  V30 3511 H 329.781 -2.67086 -2.28819 0
M  V30 3512 H 329.655 -1.40756 -3.49954 0
M  V30 3513 H 332.042 -0.630778 -2.8828 0
M  V30 3514 H 332.123 -1.92753 -1.68167 0
M  V30 3515 H 331.767 -3.64137 -3.54071 0
M  V30 3516 H 331.697 -2.31616 -4.72929 0
M  V30 3517 H 334.188 -2.01507 -3.19692 0
M  V30 3518 H 334.501 -4.63625 -6.18281 0
M  V30 3519 H 332.846 -4.16395 -5.56454 0
M  V30 3520 H 336.037 -2.56692 -3.91442 0
M  V30 3521 H 336.21 -3.76201 -5.27614 0
M  V30 3522 N 329.616 1.39756 -0.72842 0
M  V30 3523 C 330.579 2.29012 -0.0927297 0
M  V30 3524 C 331.579 1.45992 0.674025 0
M  V30 3525 O 332.769 1.66749 0.50402 0
M  V30 3526 C 329.901 3.29396 0.878137 0
M  V30 3527 H 331.094 2.86729 -0.879011 0
M  V30 3528 H 328.647 1.48293 -0.493847 0
M  V30 3529 H 329.382 2.76722 1.69101 0
M  V30 3530 H 329.167 3.907 0.331051 0
M  V30 3531 H 330.657 3.96199 1.3197 0
M  V30 3532 N 331.094 0.475555 1.50254 0
M  V30 3533 C 332.34 -0.0780073 2.0265 0
M  V30 3534 C 332.673 -1.38968 1.35652 0
M  V30 3535 O 331.948 -1.8839 0.483691 0
M  V30 3536 C 332.231 -0.257161 3.59181 0
M  V30 3537 C 332.084 1.07585 4.36744 0
M  V30 3538 C 333.403 -1.00965 4.28362 0
M  V30 3539 H 330.522 -0.0268758 0.73651 0
M  V30 3540 H 333.164 0.622015 1.7953 0
M  V30 3541 H 331.314 -0.853412 3.79011 0
M  V30 3542 H 332.986 1.70902 4.28474 0
M  V30 3543 H 331.229 1.6714 4.00308 0
M  V30 3544 H 331.9 0.904088 5.44546 0
M  V30 3545 H 334.376 -0.504214 4.13034 0
M  V30 3546 H 333.252 -1.10381 5.37687 0
M  V30 3547 H 333.513 -2.04731 3.91839 0
M  V30 3548 N 332.573 -1.56217 0.208337 0
M  V30 3549 C 333.821 -1.97558 -0.426076 0
M  V30 3550 C 334.142 -1.09683 -1.61229 0
M  V30 3551 O 333.412 -0.170956 -1.95153 0
M  V30 3552 H 331.992 -0.729575 -0.160405 0
M  V30 3553 H 334.654 -1.92606 0.298155 0
M  V30 3554 H 333.75 -3.02672 -0.761312 0
M  V30 3555 N 334.051 0.0651679 -1.57465 0
M  V30 3556 C 335.276 0.779605 -1.9219 0
M  V30 3557 C 335.701 1.69988 -0.805333 0
M  V30 3558 O 335.059 1.79685 0.241435 0
M  V30 3559 C 335.107 1.54364 -3.2589 0
M  V30 3560 O 334.211 2.65474 -3.1559 0
M  V30 3561 H 333.552 0.212249 -0.629163 0
M  V30 3562 H 336.082 0.0314294 -2.04576 0
M  V30 3563 H 336.092 1.92146 -3.59922 0
M  V30 3564 H 334.767 0.868457 -4.06732 0
M  V30 3565 H 333.344 2.30501 -2.93128 0
M  V30 3566 N 335.529 1.53961 0.336706 0
M  V30 3567 C 336.775 1.7179 1.07777 0
M  V30 3568 C 337.108 0.483263 1.88091 0
M  V30 3569 O 336.383 -0.519747 1.87427 0
M  V30 3570 C 336.666 2.98558 2.01334 0
M  V30 3571 C 336.519 4.32245 1.24437 0
M  V30 3572 C 337.838 3.21023 3.01052 0
M  V30 3573 H 334.957 0.625089 0.390426 0
M  V30 3574 H 337.599 1.86641 0.35567 0
M  V30 3575 H 335.749 2.86028 2.62908 0
M  V30 3576 H 337.421 4.56637 0.654243 0
M  V30 3577 H 335.664 4.30344 0.546458 0
M  V30 3578 H 336.335 5.17137 1.93063 0
M  V30 3579 H 338.811 3.32929 2.49595 0
M  V30 3580 H 337.687 4.11104 3.6371 0
M  V30 3581 H 337.948 2.37637 3.72802 0
M  V30 3582 N 337.007 -0.598083 1.45811 0
M  V30 3583 C 338.254 -1.35681 1.50323 0
M  V30 3584 C 338.582 -1.9393 0.148739 0
M  V30 3585 O 337.837 -1.76094 -0.853787 0
M  V30 3586 C 338.136 -2.51669 2.53766 0
M  V30 3587 C 337.802 -2.11508 3.98215 0
M  V30 3588 C 336.464 -2.0027 4.37545 0
M  V30 3589 C 338.816 -1.80308 4.89018 0
M  V30 3590 C 336.144 -1.56067 5.65562 0
M  V30 3591 C 338.496 -1.37589 6.17456 0
M  V30 3592 C 337.16 -1.24916 6.55708 0
M  V30 3593 H 336.43 -0.496492 0.550069 0
M  V30 3594 H 339.077 -0.675052 1.79207 0
M  V30 3595 H 337.382 -3.25225 2.18486 0
M  V30 3596 H 339.079 -3.09895 2.54492 0
M  V30 3597 H 335.669 -2.21185 3.67117 0
M  V30 3598 H 339.853 -1.87884 4.59362 0
M  V30 3599 H 335.109 -1.44886 5.93985 0
M  V30 3600 H 339.283 -1.12495 6.87254 0
M  V30 3601 H 336.91 -0.904386 7.54801 0
M  V30 3602 N 338.485 -1.33259 -0.841409 0
M  V30 3603 C 339.731 -1.24757 -1.59886 0
M  V30 3604 C 340.064 0.186913 -1.93298 0
M  V30 3605 O 339.339 1.12757 -1.5848 0
M  V30 3606 C 339.622 -2.12036 -2.91055 0
M  V30 3607 C 339.475 -3.63929 -2.6434 0
M  V30 3608 C 340.794 -1.9916 -3.92458 0
M  V30 3609 H 337.913 -0.454542 -0.580138 0
M  V30 3610 H 340.555 -1.63335 -0.970647 0
M  V30 3611 H 338.705 -1.79265 -3.44669 0
M  V30 3612 H 340.377 -4.06978 -2.17178 0
M  V30 3613 H 338.62 -3.85935 -1.98082 0
M  V30 3614 H 339.291 -4.20341 -3.57796 0
M  V30 3615 H 341.767 -2.27895 -3.48143 0
M  V30 3616 H 340.643 -2.62484 -4.82072 0
M  V30 3617 H 340.904 -0.963082 -4.31482 0
M  V30 3618 N 339.963 1.05934 -1.16686 0
M  V30 3619 C 341.188 1.83029 -0.975455 0
M  V30 3620 C 341.613 1.82096 0.471452 0
M  V30 3621 O 340.971 1.22443 1.33706 0
M  V30 3622 C 341.019 3.27372 -1.51195 0
M  V30 3623 O 340.123 4.06054 -0.720701 0
M  V30 3624 H 339.464 0.566194 -0.346872 0
M  V30 3625 H 341.994 1.33541 -1.55009 0
M  V30 3626 H 342.004 3.78186 -1.53099 0
M  V30 3627 H 340.679 3.27366 -2.56523 0
M  V30 3628 H 339.256 3.64812 -0.772458 0
M  V30 3629 N 341.441 0.965919 1.2453 0
M  V30 3630 C 342.669 0.644385 1.96609 0
M  V30 3631 C 343.084 -0.785823 1.71669 0
M  V30 3632 O 342.441 -1.52703 0.999399 0
M  V30 3633 C 342.492 0.907375 3.49927 0
M  V30 3634 O 342.213 2.28136 3.74013 0
M  V30 3635 C 343.714 0.599784 4.39224 0
M  V30 3636 H 340.934 0.240588 0.626385 0
M  V30 3637 H 343.478 1.29337 1.58405 0
M  V30 3638 H 341.633 0.304631 3.862 0
M  V30 3639 H 342.047 2.36002 4.68405 0
M  V30 3640 H 343.521 0.834263 5.45659 0
M  V30 3641 H 343.998 -0.465921 4.36722 0
M  V30 3642 H 344.604 1.18235 4.08535 0
M  V30 3643 N 342.919 -1.39368 0.735821 0
M  V30 3644 C 343.849 -2.33234 0.111506 0
M  V30 3645 C 344.83 -1.53954 -0.723334 0
M  V30 3646 O 346.015 -1.82344 -0.668147 0
M  V30 3647 C 343.145 -3.38057 -0.795917 0
M  V30 3648 C 342.099 -4.2795 -0.065172 0
M  V30 3649 C 341.425 -5.23479 -1.08967 0
M  V30 3650 C 342.725 -5.10741 1.09273 0
M  V30 3651 H 344.419 -2.85692 0.895571 0
M  V30 3652 H 341.965 -1.37364 0.432109 0
M  V30 3653 H 343.918 -4.02675 -1.24221 0
M  V30 3654 H 342.642 -2.8404 -1.61211 0
M  V30 3655 H 341.301 -3.64813 0.361511 0
M  V30 3656 H 340.949 -4.65758 -1.89944 0
M  V30 3657 H 340.649 -5.84472 -0.605489 0
M  V30 3658 H 342.173 -5.90974 -1.53565 0
M  V30 3659 H 343.587 -5.68699 0.724841 0
M  V30 3660 H 341.984 -5.8088 1.50659 0
M  V30 3661 H 343.054 -4.45525 1.91404 0
M  V30 3662 N 344.397 -0.483516 -1.5 0
M  V30 3663 C 345.327 0.293829 -2.31644 0
M  V30 3664 C 346.308 0.978864 -1.39112 0
M  V30 3665 O 347.493 0.973644 -1.68029 0
M  V30 3666 C 344.623 1.36897 -3.19181 0
M  V30 3667 C 343.577 0.804833 -4.20365 0
M  V30 3668 C 342.903 1.9792 -4.96721 0
M  V30 3669 C 344.203 -0.192313 -5.21946 0
M  V30 3670 H 345.897 -0.387616 -2.9688 0
M  V30 3671 H 343.443 -0.187856 -1.42769 0
M  V30 3672 H 345.396 1.92037 -3.751 0
M  V30 3673 H 344.12 2.07936 -2.51853 0
M  V30 3674 H 342.779 0.275319 -3.65565 0
M  V30 3675 H 342.427 2.67686 -4.25856 0
M  V30 3676 H 342.127 1.60789 -5.65173 0
M  V30 3677 H 343.651 2.53526 -5.55479 0
M  V30 3678 H 345.065 0.270333 -5.72662 0
M  V30 3679 H 343.462 -0.478543 -5.98189 0
M  V30 3680 H 344.532 -1.11409 -4.71928 0
M  V30 3681 N 345.875 1.56104 -0.216619 0
M  V30 3682 C 347.103 2.02563 0.421413 0
M  V30 3683 C 347.518 1.0965 1.53695 0
M  V30 3684 O 346.875 0.10521 1.82196 0
M  V30 3685 C 346.926 3.48584 0.957665 0
M  V30 3686 O 346.647 4.37953 -0.113389 0
M  V30 3687 C 348.148 4.10664 1.66943 0
M  V30 3688 H 345.368 0.662944 0.103665 0
M  V30 3689 H 347.912 2.01793 -0.331629 0
M  V30 3690 H 346.067 3.49985 1.661 0
M  V30 3691 H 346.481 5.23704 0.288932 0
M  V30 3692 H 347.955 5.14622 1.99671 0
M  V30 3693 H 348.432 3.55373 2.58083 0
M  V30 3694 H 349.038 4.13098 1.01142 0
M  V30 3695 N 347.353 -0.0568162 1.57498 0
M  V30 3696 C 348.286 -1.09817 2.00039 0
M  V30 3697 C 349.264 -1.3674 0.879819 0
M  V30 3698 O 350.448 -1.49863 1.14338 0
M  V30 3699 C 347.575 -2.43924 2.34986 0
M  V30 3700 C 346.621 -2.33039 3.57204 0
M  V30 3701 S 347.454 -1.7102 5.07457 0
M  V30 3702 C 348.61 -3.06674 5.45621 0
M  V30 3703 H 348.843 -0.735701 2.88053 0
M  V30 3704 H 346.376 -0.265871 1.52094 0
M  V30 3705 H 348.334 -3.2106 2.55795 0
M  V30 3706 H 346.995 -2.77327 1.47474 0
M  V30 3707 H 346.188 -3.31973 3.79223 0
M  V30 3708 H 345.79 -1.64043 3.36104 0
M  V30 3709 H 348.082 -4.03 5.44608 0
M  V30 3710 H 349.025 -2.8942 6.46252 0
M  V30 3711 H 349.433 -3.07969 4.73091 0
M  V30 3712 N 348.832 -1.54138 -0.328536 0
M  V30 3713 C 349.795 -1.82462 -1.38709 0
M  V30 3714 C 350.795 -0.696229 -1.44946 0
M  V30 3715 O 351.985 -0.964535 -1.4506 0
M  V30 3716 C 349.117 -1.98018 -2.77492 0
M  V30 3717 H 350.31 -2.77037 -1.14851 0
M  V30 3718 H 347.863 -1.45779 -0.563751 0
M  V30 3719 H 348.598 -1.05637 -3.06613 0
M  V30 3720 H 348.383 -2.80124 -2.74359 0
M  V30 3721 H 349.873 -2.21396 -3.54081 0
M  V30 3722 N 350.31 0.590341 -1.46126 0
M  V30 3723 C 351.243 1.71434 -1.50617 0
M  V30 3724 C 352.221 1.58543 -0.360948 0
M  V30 3725 O 353.405 1.79865 -0.563985 0
M  V30 3726 C 350.532 3.09422 -1.37753 0
M  V30 3727 C 349.578 3.40854 -2.5636 0
M  V30 3728 S 350.411 3.33773 -4.18755 0
M  V30 3729 C 351.567 4.74312 -4.08386 0
M  V30 3730 H 351.8 1.67364 -2.45717 0
M  V30 3731 H 349.333 0.76845 -1.33919 0
M  V30 3732 H 351.291 3.8903 -1.31018 0
M  V30 3733 H 349.952 3.10989 -0.440949 0
M  V30 3734 H 349.145 4.41368 -2.43332 0
M  V30 3735 H 348.747 2.68798 -2.60046 0
M  V30 3736 H 351.039 5.64522 -3.74595 0
M  V30 3737 H 351.982 4.92397 -5.08872 0
M  V30 3738 H 352.39 4.50803 -3.3976 0
M  V30 3739 N 351.788 1.33704 0.83433 0
M  V30 3740 C 353.199 1.22813 1.4062 0
M  V30 3741 C 353.55 -0.151107 1.95617 0
M  V30 3742 O 352.675 -1.05092 1.89168 0
M  V30 3743 C 353.27 2.22355 2.55624 0
M  V30 3744 C 351.829 2.1529 3.08751 0
M  V30 3745 C 350.976 2.09589 1.8157 0
M  V30 3746 H 353.927 1.45236 0.639702 0
M  V30 3747 H 353.948 1.83391 3.33389 0
M  V30 3748 H 353.46 3.22728 2.15566 0
M  V30 3749 H 351.561 1.18235 3.53343 0
M  V30 3750 H 351.674 3.06038 3.68616 0
M  V30 3751 H 350.038 1.55134 2.02004 0
M  V30 3752 H 350.821 3.11777 1.43701 0
M  V30 3753 N 353.266 -1.05314 1.17247 0
M  V30 3754 C 354.216 -2.11313 0.856196 0
M  V30 3755 C 355.2 -1.60013 -0.168694 0
M  V30 3756 O 356.392 -1.76968 0.0335624 0
M  V30 3757 C 353.521 -3.41301 0.369917 0
M  V30 3758 C 352.607 -3.99401 1.42616 0
M  V30 3759 N 352.998 -4.31481 2.63928 0
M  V30 3760 C 351.296 -4.27126 1.28373 0
M  V30 3761 C 351.997 -4.77799 3.31787 0
M  V30 3762 N 350.973 -4.77843 2.59166 0
M  V30 3763 H 354.775 -2.33976 1.77856 0
M  V30 3764 H 352.289 -1.2295 1.06099 0
M  V30 3765 H 354.286 -4.16713 0.124897 0
M  V30 3766 H 352.946 -3.20072 -0.546253 0
M  V30 3767 H 353.957 -4.21519 3.00902 0
M  V30 3768 H 350.634 -4.15289 0.429111 0
M  V30 3769 H 352.024 -5.11743 4.35395 0
M  V30 3770 N 354.744 -0.972509 -1.24016 0
M  V30 3771 C 355.99 -0.647583 -1.92816 0
M  V30 3772 C 356.345 0.809015 -1.74564 0
M  V30 3773 O 355.638 1.57502 -1.09103 0
M  V30 3774 C 355.832 -0.963694 -3.44162 0
M  V30 3775 C 355.661 -2.44947 -3.77135 0
M  V30 3776 C 354.431 -3.11012 -3.98246 0
M  V30 3777 C 356.629 -3.42978 -3.83237 0
M  V30 3778 N 354.611 -4.49277 -4.18358 0
M  V30 3779 C 355.982 -4.66619 -4.08248 0
M  V30 3780 C 358.037 -3.37569 -3.65994 0
M  V30 3781 C 356.74 -5.85516 -4.17808 0
M  V30 3782 C 358.766 -4.55822 -3.76802 0
M  V30 3783 C 358.128 -5.78256 -4.02243 0
M  V30 3784 H 354.227 -0.287894 -0.727077 0
M  V30 3785 H 356.811 -1.24835 -1.49413 0
M  V30 3786 H 354.982 -0.391692 -3.8642 0
M  V30 3787 H 356.714 -0.596849 -4.00275 0
M  V30 3788 H 353.469 -2.61529 -3.94841 0
M  V30 3789 H 353.893 -5.20935 -4.32384 0
M  V30 3790 H 358.535 -2.43945 -3.45327 0
M  V30 3791 H 356.253 -6.79564 -4.37285 0
M  V30 3792 H 359.839 -4.53204 -3.64825 0
M  V30 3793 H 358.719 -6.68231 -4.10411 0
M  V30 3794 N 356.222 1.38976 -0.743202 0
M  V30 3795 C 357.152 2.33171 -0.123873 0
M  V30 3796 C 358.133 1.54336 0.71516 0
M  V30 3797 O 359.318 1.82696 0.658467 0
M  V30 3798 C 356.448 3.38474 0.777978 0
M  V30 3799 C 355.402 4.27979 0.0424758 0
M  V30 3800 C 354.728 5.2405 1.06189 0
M  V30 3801 C 356.028 5.10155 -1.1198 0
M  V30 3802 H 357.722 2.85213 -0.910709 0
M  V30 3803 H 355.268 1.37133 -0.439388 0
M  V30 3804 H 357.221 4.03328 1.22084 0
M  V30 3805 H 355.945 2.84891 1.59702 0
M  V30 3806 H 354.604 3.64616 -0.380853 0
M  V30 3807 H 354.252 4.66758 1.87472 0
M  V30 3808 H 353.952 5.84785 0.574485 0
M  V30 3809 H 355.476 5.9178 1.50428 0
M  V30 3810 H 356.89 5.68307 -0.75499 0
M  V30 3811 H 355.287 5.80073 -1.53738 0
M  V30 3812 H 356.357 4.44504 -1.93764 0
M  V30 3813 N 357.7 0.491464 1.49741 0
M  V30 3814 C 359.116 0.146835 1.58923 0
M  V30 3815 C 359.316 -1.34804 1.49767 0
M  V30 3816 O 358.372 -2.12317 1.36667 0
M  V30 3817 C 359.685 0.715157 2.92072 0
M  V30 3818 C 361.233 0.680407 3.05515 0
M  V30 3819 C 361.708 1.22663 4.41269 0
M  V30 3820 N 363.199 1.18691 4.47735 0
M  V30 3821 C 363.934 1.57984 5.51207 0
M  V30 3822 N 363.43 2.04824 6.6183 0
M  V30 3823 N 365.223 1.49459 5.41866 0
M  V30 3824 H 357.374 1.46347 1.53936 0
M  V30 3825 H 359.637 0.606453 0.728642 0
M  V30 3826 H 359.343 1.76317 3.04311 0
M  V30 3827 H 359.217 0.17018 3.76816 0
M  V30 3828 H 361.604 -0.358743 2.92911 0
M  V30 3829 H 361.685 1.26242 2.22478 0
M  V30 3830 H 361.329 2.26451 4.54623 0
M  V30 3831 H 361.259 0.620637 5.2293 0
M  V30 3832 H 363.75 0.843605 3.68364 0
M  V30 3833 H 364.063 2.32901 7.3687 0
M  V30 3834 H 362.408 2.08791 6.62896 0
M  V30 3835 H 365.599 1.12692 4.54333 0
M  V30 3836 H 365.772 1.80406 6.22381 0
M  V30 3837 N 359.178 -1.55987 0.224894 0
M  V30 3838 C 360.128 -2.17076 -0.697296 0
M  V30 3839 C 361.112 -1.12006 -1.15514 0
M  V30 3840 O 362.304 -1.37985 -1.10857 0
M  V30 3841 C 359.433 -2.85679 -1.90374 0
M  V30 3842 C 358.519 -3.97977 -1.46543 0
M  V30 3843 N 358.91 -5.00359 -0.739909 0
M  V30 3844 C 357.208 -4.10128 -1.75245 0
M  V30 3845 C 357.909 -5.79407 -0.515939 0
M  V30 3846 N 356.885 -5.32892 -1.07364 0
M  V30 3847 H 360.687 -2.93592 -0.134594 0
M  V30 3848 H 358.201 -1.62379 0.0262885 0
M  V30 3849 H 360.198 -3.27857 -2.57518 0
M  V30 3850 H 358.858 -2.1066 -2.47088 0
M  V30 3851 H 359.869 -5.16412 -0.392253 0
M  V30 3852 H 356.546 -3.46263 -2.33255 0
M  V30 3853 H 357.936 -6.71872 0.0617349 0
M  V30 3854 N 360.656 0.0484629 -1.57525 0
M  V30 3855 C 361.586 1.0549 -2.08313 0
M  V30 3856 C 362.567 1.38929 -0.981463 0
M  V30 3857 O 363.752 1.48151 -1.25558 0
M  V30 3858 C 360.882 2.36162 -2.54646 0
M  V30 3859 C 359.836 2.17016 -3.68901 0
M  V30 3860 C 359.162 3.53278 -4.01371 0
M  V30 3861 C 360.462 1.57219 -4.98076 0
M  V30 3862 H 362.156 0.632195 -2.92649 0
M  V30 3863 H 359.702 0.302654 -1.40784 0
M  V30 3864 H 361.655 3.06882 -2.88793 0
M  V30 3865 H 360.379 2.80456 -1.67368 0
M  V30 3866 H 359.038 1.48733 -3.35073 0
M  V30 3867 H 358.686 3.95185 -3.11188 0
M  V30 3868 H 358.386 3.41299 -4.78318 0
M  V30 3869 H 359.91 4.25391 -4.38035 0
M  V30 3870 H 361.324 2.17832 -5.30304 0
M  V30 3871 H 359.721 1.55871 -5.79503 0
M  V30 3872 H 360.791 0.535956 -4.81929 0
M  V30 3873 N 362.134 1.5431 0.320358 0
M  V30 3874 C 363.38 1.72924 1.05949 0
M  V30 3875 C 363.713 0.503185 1.87568 0
M  V30 3876 O 362.988 -0.499839 1.87968 0
M  V30 3877 C 363.271 3.00676 1.98156 0
M  V30 3878 C 363.124 4.3354 1.19845 0
M  V30 3879 C 364.443 3.24198 2.9763 0
M  V30 3880 H 361.562 0.629195 0.383774 0
M  V30 3881 H 364.204 1.87008 0.335854 0
M  V30 3882 H 362.354 2.888 2.59859 0
M  V30 3883 H 364.026 4.57305 0.605773 0
M  V30 3884 H 362.269 4.309 0.500784 0
M  V30 3885 H 362.94 5.19156 1.87567 0
M  V30 3886 H 365.416 3.35557 2.4605 0
M  V30 3887 H 364.292 4.14938 3.59329 0
M  V30 3888 H 364.553 2.41577 3.7026 0
M  V30 3889 N 363.613 -0.582584 1.46437 0
M  V30 3890 C 365.024 -1.1647 1.45916 0
M  V30 3891 C 365.375 -1.95177 0.200077 0
M  V30 3892 O 364.5 -2.04874 -0.696819 0
M  V30 3893 C 365.095 -2.11885 2.64367 0
M  V30 3894 C 363.654 -2.65421 2.66887 0
M  V30 3895 C 362.801 -1.41294 2.38603 0
M  V30 3896 H 365.752 -0.370514 1.54314 0
M  V30 3897 H 365.773 -2.9535 2.39892 0
M  V30 3898 H 365.285 -1.54573 3.5599 0
M  V30 3899 H 363.386 -3.26602 1.79338 0
M  V30 3900 H 363.499 -3.08147 3.66854 0
M  V30 3901 H 361.863 -1.71109 1.88663 0
M  V30 3902 H 362.646 -0.858125 3.32402 0
M  V30 3903 N 365.091 -1.34144 -0.827227 0
M  V30 3904 C 366.339 -1.26009 -1.58007 0
M  V30 3905 C 366.66 0.170971 -1.94249 0
M  V30 3906 O 365.93 1.10256 -1.61927 0
M  V30 3907 H 364.51 -0.463414 -0.585881 0
M  V30 3908 H 367.172 -1.68005 -0.987951 0
M  V30 3909 H 366.268 -1.86187 -2.50481 0
M  V30 3910 N 366.569 1.04691 -1.17803 0
M  V30 3911 C 367.98 1.59238 -0.974689 0
M  V30 3912 C 368.331 1.90306 0.477292 0
M  V30 3913 O 367.456 1.68846 1.35352 0
M  V30 3914 C 368.051 2.89318 -1.76296 0
M  V30 3915 C 366.61 3.40506 -1.60414 0
M  V30 3916 C 365.757 2.14172 -1.76141 0
M  V30 3917 H 368.708 0.874395 -1.32439 0
M  V30 3918 H 368.729 3.5944 -1.24833 0
M  V30 3919 H 368.241 2.66675 -2.81968 0
M  V30 3920 H 366.342 3.68175 -0.572519 0
M  V30 3921 H 366.455 4.14753 -2.39827 0
M  V30 3922 H 364.819 2.25176 -1.19028 0
M  V30 3923 H 365.602 1.93992 -2.83235 0
M  V30 3924 N 368.047 0.979072 1.23499 0
M  V30 3925 C 369.293 0.6578 1.9247 0
M  V30 3926 C 369.648 -0.799746 1.74991 0
M  V30 3927 O 368.941 -1.56922 1.09937 0
M  V30 3928 C 369.135 0.981932 3.43646 0
M  V30 3929 C 368.964 2.46944 3.75831 0
M  V30 3930 C 367.734 3.13119 3.96591 0
M  V30 3931 C 369.932 3.45006 3.81412 0
M  V30 3932 N 367.914 4.51489 4.15969 0
M  V30 3933 C 369.285 4.68778 4.05768 0
M  V30 3934 C 371.34 3.39505 3.64198 0
M  V30 3935 C 370.043 5.87723 4.14697 0
M  V30 3936 C 372.069 4.57814 3.7438 0
M  V30 3937 C 371.431 5.80381 3.99171 0
M  V30 3938 H 367.53 0.291746 0.72554 0
M  V30 3939 H 370.114 1.25626 1.48749 0
M  V30 3940 H 368.285 0.412179 3.86207 0
M  V30 3941 H 370.017 0.618068 3.99953 0
M  V30 3942 H 366.772 2.63619 3.93449 0
M  V30 3943 H 367.196 5.23221 4.29615 0
M  V30 3944 H 371.838 2.45773 3.44029 0
M  V30 3945 H 369.556 6.81874 4.33675 0
M  V30 3946 H 373.142 4.55132 3.62417 0
M  V30 3947 H 372.022 6.70398 4.06861 0
M  V30 3948 N 369.525 -1.3858 0.750561 0
M  V30 3949 C 370.773 -1.99789 0.30477 0
M  V30 3950 C 371.094 -1.59874 -1.11649 0
M  V30 3951 O 370.364 -0.85417 -1.76297 0
M  V30 3952 H 368.944 -0.738902 0.109694 0
M  V30 3953 H 371.606 -1.69391 0.963983 0
M  V30 3954 H 370.702 -3.09952 0.365499 0
M  V30 3955 N 371.003 -0.499398 -1.49478 0
M  V30 3956 C 372.419 -0.155261 -1.58843 0
M  V30 3957 C 372.619 1.34008 -1.50479 0
M  V30 3958 O 371.675 2.11589 -1.37791 0
M  V30 3959 C 372.988 -0.730636 -2.91689 0
M  V30 3960 C 374.536 -0.696599 -3.0515 0
M  V30 3961 C 375.011 -1.25001 -4.40612 0
M  V30 3962 N 376.502 -1.21064 -4.47099 0
M  V30 3963 C 377.237 -1.60905 -5.50361 0
M  V30 3964 N 376.733 -2.08331 -6.60735 0
M  V30 3965 N 378.526 -1.52331 -5.41065 0
M  V30 3966 H 370.677 -1.47162 -1.53158 0
M  V30 3967 H 372.94 -0.610309 -0.725415 0
M  V30 3968 H 372.646 -1.77928 -3.03372 0
M  V30 3969 H 372.52 -0.190161 -3.7672 0
M  V30 3970 H 374.907 0.343204 -2.93097 0
M  V30 3971 H 374.988 -1.2742 -2.21806 0
M  V30 3972 H 374.632 -2.28859 -4.53416 0
M  V30 3973 H 374.562 -0.64836 -5.22593 0
M  V30 3974 H 377.053 -0.863128 -3.67911 0
M  V30 3975 H 377.366 -2.36805 -7.35624 0
M  V30 3976 H 375.711 -2.12304 -6.6178 0
M  V30 3977 H 378.902 -1.151 -4.53729 0
M  V30 3978 H 379.075 -1.83704 -6.21415 0
M  V30 3979 N 372.481 1.55866 -0.233164 0
M  V30 3980 C 373.411 2.23783 0.666599 0
M  V30 3981 C 374.392 1.21343 1.19205 0
M  V30 3982 O 375.577 1.4996 1.23392 0
M  V30 3983 C 372.707 2.92671 1.86978 0
M  V30 3984 C 371.661 4.01682 1.47768 0
M  V30 3985 C 370.987 4.57926 2.76058 0
M  V30 3986 C 372.287 5.18126 0.658993 0
M  V30 3987 H 373.981 2.99232 0.100306 0
M  V30 3988 H 371.527 1.43924 0.046804 0
M  V30 3989 H 373.48 3.3888 2.50476 0
M  V30 3990 H 372.204 2.14688 2.46123 0
M  V30 3991 H 370.863 3.56222 0.866106 0
M  V30 3992 H 370.511 3.76659 3.33372 0
M  V30 3993 H 370.211 5.31505 2.50552 0
M  V30 3994 H 371.735 5.06859 3.40479 0
M  V30 3995 H 373.149 5.60644 1.19795 0
M  V30 3996 H 371.546 5.98009 0.500552 0
M  V30 3997 H 372.616 4.83763 -0.331856 0
M  V30 3998 N 373.959 -0.0401083 1.57549 0
M  V30 3999 C 375.199 -0.738098 1.90608 0
M  V30 4000 C 375.563 -1.73107 0.830539 0
M  V30 4001 O 376.764 -2.4765 1.04513 0
M  V30 4002 C 375.035 -1.39985 3.28845 0
M  V30 4003 S 376.594 -2.12852 3.83718 0
M  V30 4004 H 373.412 -0.24477 0.667539 0
M  V30 4005 H 376.014 0.00693599 1.95499 0
M  V30 4006 H 374.718 -0.663775 4.04997 0
M  V30 4007 H 374.249 -2.18366 3.2723 0
M  V30 4008 H 376.264 -3.39842 3.61555 0
M  V30 4009 N 375.437 -1.54477 -0.31217 0
M  V30 4010 C 376.853 -1.45442 -0.657185 0
M  V30 4011 C 377.053 -0.63653 -1.91182 0
M  V30 4012 O 376.109 -0.139815 -2.52113 0
M  V30 4013 C 377.422 -2.89287 -0.82058 0
M  V30 4014 C 378.97 -2.9926 -0.917188 0
M  V30 4015 C 379.445 -4.44279 -1.11267 0
M  V30 4016 N 380.936 -4.4794 -1.17914 0
M  V30 4017 C 381.671 -5.57318 -1.34848 0
M  V30 4018 N 381.167 -6.76642 -1.48752 0
M  V30 4019 N 382.96 -5.44986 -1.37647 0
M  V30 4020 H 375.111 -2.06129 0.512313 0
M  V30 4021 H 377.374 -0.933088 0.167485 0
M  V30 4022 H 377.08 -3.51687 0.0302604 0
M  V30 4023 H 376.954 -3.36061 -1.71298 0
M  V30 4024 H 379.341 -2.36981 -1.75852 0
M  V30 4025 H 379.422 -2.558 -0.00101257 0
M  V30 4026 H 379.066 -5.07149 -0.27614 0
M  V30 4027 H 378.996 -4.85359 -2.04289 0
M  V30 4028 H 381.487 -3.61969 -1.08567 0
M  V30 4029 H 381.8 -7.55758 -1.61397 0
M  V30 4030 H 380.145 -6.79529 -1.45828 0
M  V30 4031 H 383.336 -4.50715 -1.26388 0
M  V30 4032 H 383.509 -6.3028 -1.50501 0
M  V30 4033 N 376.915 0.57481 -1.46744 0
M  V30 4034 C 378.192 1.3352 -1.4294 0
M  V30 4035 C 378.572 2.10775 -0.117009 0
M  V30 4036 O 377.92 2.09966 0.901474 0
M  V30 4037 C 378.13 2.25456 -2.66403 0
M  V30 4038 C 379.478 2.87035 -3.12883 0
M  V30 4039 O 380.502 2.35766 -2.67007 0
M  V30 4040 O 379.361 3.80179 -3.92589 0
M  V30 4041 H 376.455 0.600318 -0.568812 0
M  V30 4042 H 379.001 0.595171 -1.58921 0
M  V30 4043 H 377.773 1.67851 -3.53471 0
M  V30 4044 H 377.396 3.06785 -2.52921 0
M  V30 4045 N 378.394 1.34581 0.820102 0
M  V30 4046 C 379.64 1.28294 1.57836 0
M  V30 4047 C 379.995 -0.145099 1.91852 0
M  V30 4048 O 379.288 -1.09209 1.57429 0
M  V30 4049 C 379.482 2.10997 2.8847 0
M  V30 4050 C 379.311 3.61698 2.67216 0
M  V30 4051 C 378.081 4.3097 2.63805 0
M  V30 4052 C 380.279 4.55638 2.38534 0
M  V30 4053 N 378.261 5.67502 2.34126 0
M  V30 4054 C 379.632 5.80194 2.18574 0
M  V30 4055 C 381.687 4.44523 2.24285 0
M  V30 4056 C 380.39 6.94886 1.8581 0
M  V30 4057 C 382.416 5.5905 1.92916 0
M  V30 4058 C 381.778 6.82627 1.73782 0
M  V30 4059 H 377.877 0.524697 0.579842 0
M  V30 4060 H 380.461 1.69323 0.961139 0
M  V30 4061 H 378.632 1.7226 3.48111 0
M  V30 4062 H 380.364 1.96333 3.53886 0
M  V30 4063 H 377.119 3.83438 2.77978 0
M  V30 4064 H 377.543 6.39525 2.22118 0
M  V30 4065 H 382.185 3.49599 2.37782 0
M  V30 4066 H 379.903 7.89789 1.7105 0
M  V30 4067 H 383.489 5.52396 1.82619 0
M  V30 4068 H 382.369 7.69748 1.49861 0
M  V30 4069 N 379.872 -1.04064 1.18357 0
M  V30 4070 C 381.149 -1.74252 0.888581 0
M  V30 4071 C 381.529 -2.02138 -0.60856 0
M  V30 4072 O 380.877 -1.66656 -1.56327 0
M  V30 4073 C 381.087 -3.0277 1.73584 0
M  V30 4074 C 382.435 -3.76506 1.96286 0
M  V30 4075 O 383.459 -3.12668 1.70637 0
M  V30 4076 O 382.318 -4.91243 2.39464 0
M  V30 4077 H 379.412 -0.758271 0.330082 0
M  V30 4078 H 381.958 -1.1013 1.2911 0
M  V30 4079 H 380.73 -2.78299 2.75073 0
M  V30 4080 H 380.353 -3.74631 1.33183 0
M  V30 4081 N 381.35 -0.985608 -1.22978 0
M  V30 4082 C 382.282 -0.488154 -2.23941 0
M  V30 4083 C 383.295 0.41282 -1.57479 0
M  V30 4084 O 384.484 0.216121 -1.77187 0
M  V30 4085 C 381.584 0.312611 -3.37455 0
M  V30 4086 C 380.757 -0.582741 -4.33501 0
M  V30 4087 C 379.816 0.165064 -5.25941 0
M  V30 4088 O 378.842 -0.447077 -5.67442 0
M  V30 4089 N 380.044 1.44953 -5.62111 0
M  V30 4090 H 382.809 -1.3563 -2.67254 0
M  V30 4091 H 380.37 -0.859477 -1.37203 0
M  V30 4092 H 382.362 0.821357 -3.96277 0
M  V30 4093 H 380.932 1.0818 -2.93285 0
M  V30 4094 H 380.152 -1.27225 -3.73105 0
M  V30 4095 H 381.44 -1.19275 -4.94622 0
M  V30 4096 H 380.838 1.9683 -5.30353 0
M  V30 4097 H 379.395 1.90361 -6.23383 0
M  V30 4098 N 382.828 1.3818 -0.7579 0
M  V30 4099 C 383.761 2.28055 -0.0814093 0
M  V30 4100 C 384.739 1.45603 0.723779 0
M  V30 4101 O 385.923 1.74961 0.701491 0
M  V30 4102 C 383.05 3.2676 0.891394 0
M  V30 4103 C 382.096 4.26153 0.171909 0
M  V30 4104 S 382.929 5.23434 -1.13035 0
M  V30 4105 C 384.085 6.25694 -0.160727 0
M  V30 4106 H 384.318 2.85082 -0.84353 0
M  V30 4107 H 381.851 1.44246 -0.550671 0
M  V30 4108 H 383.809 3.8414 1.44731 0
M  V30 4109 H 382.47 2.68706 1.62652 0
M  V30 4110 H 381.663 4.95738 0.908843 0
M  V30 4111 H 381.265 3.72691 -0.312606 0
M  V30 4112 H 383.557 6.74161 0.671773 0
M  V30 4113 H 384.5 7.03285 -0.824353 0
M  V30 4114 H 384.908 5.64064 0.221892 0
M  V30 4115 N 384.306 0.507319 1.49211 0
M  V30 4116 C 385.553 -0.0349529 2.0247 0
M  V30 4117 C 385.881 -1.36409 1.38647 0
M  V30 4118 O 385.136 -1.88841 0.513566 0
M  V30 4119 C 385.435 -0.229513 3.56662 0
M  V30 4120 C 385.101 1.02241 4.39156 0
M  V30 4121 C 383.763 1.36557 4.61417 0
M  V30 4122 C 386.115 1.85428 4.871 0
M  V30 4123 C 383.443 2.53999 5.28868 0
M  V30 4124 C 385.795 3.02028 5.55843 0
M  V30 4125 C 384.459 3.36717 5.76349 0
M  V30 4126 H 383.729 -0.0127902 0.74089 0
M  V30 4127 H 386.376 0.668756 1.79443 0
M  V30 4128 H 384.681 -1.0158 3.78403 0
M  V30 4129 H 386.378 -0.663641 3.9547 0
M  V30 4130 H 382.968 0.745124 4.22073 0
M  V30 4131 H 387.152 1.6023 4.69723 0
M  V30 4132 H 382.408 2.81105 5.42946 0
M  V30 4133 H 386.582 3.66808 5.91967 0
M  V30 4134 H 384.209 4.27821 6.28389 0
M  V30 4135 N 385.784 -1.5574 0.241426 0
M  V30 4136 C 386.747 -2.19877 -0.647063 0
M  V30 4137 C 387.747 -1.16642 -1.10686 0
M  V30 4138 O 388.937 -1.41757 -1.01245 0
M  V30 4139 C 386.069 -2.83797 -1.88871 0
M  V30 4140 H 387.262 -2.99772 -0.087574 0
M  V30 4141 H 384.815 -1.56298 -0.00813574 0
M  V30 4142 H 385.55 -2.07824 -2.48957 0
M  V30 4143 H 385.335 -3.59414 -1.56728 0
M  V30 4144 H 386.825 -3.32898 -2.52129 0
M  V30 4145 N 387.262 0.0317525 -1.57568 0
M  V30 4146 C 388.509 0.723104 -1.89149 0
M  V30 4147 C 388.837 1.75504 -0.838377 0
M  V30 4148 O 388.092 1.95037 0.160982 0
M  V30 4149 C 388.391 1.43167 -3.27472 0
M  V30 4150 C 388.057 0.535972 -4.47703 0
M  V30 4151 C 386.719 0.289262 -4.8033 0
M  V30 4152 C 389.071 -0.0826125 -5.21135 0
M  V30 4153 C 386.399 -0.584853 -5.83778 0
M  V30 4154 C 388.751 -0.944414 -6.25511 0
M  V30 4155 C 387.415 -1.20061 -6.56614 0
M  V30 4156 H 386.685 0.264602 -0.692146 0
M  V30 4157 H 389.332 -0.0169496 -1.91492 0
M  V30 4158 H 387.637 2.24497 -3.21105 0
M  V30 4159 H 389.334 1.97209 -3.49155 0
M  V30 4160 H 385.924 0.738414 -4.22191 0
M  V30 4161 H 390.108 0.0950302 -4.96209 0
M  V30 4162 H 385.364 -0.79168 -6.06253 0
M  V30 4163 H 389.538 -1.43026 -6.81554 0
M  V30 4164 H 387.165 -1.87967 -7.36595 0
M  V30 4165 N 388.74 1.54641 0.303973 0
M  V30 4166 C 389.703 1.84646 1.35789 0
M  V30 4167 C 390.703 0.7192 1.4382 0
M  V30 4168 O 391.893 0.987491 1.43507 0
M  V30 4169 C 389.025 2.02407 2.74307 0
M  V30 4170 H 390.218 2.78829 1.10429 0
M  V30 4171 H 387.771 1.46658 0.540487 0
M  V30 4172 H 388.506 1.10502 3.04893 0
M  V30 4173 H 388.291 2.84453 2.69868 0
M  V30 4174 H 389.781 2.27002 3.50514 0
M  V30 4175 N 390.218 -0.567019 1.47046 0
M  V30 4176 C 391.15 -1.68985 1.54844 0
M  V30 4177 C 392.163 -1.56869 0.435431 0
M  V30 4178 O 393.352 -1.64006 0.70457 0
M  V30 4179 C 390.452 -3.07373 1.42742 0
M  V30 4180 C 389.625 -3.45339 2.6844 0
M  V30 4181 C 388.684 -4.62849 2.50314 0
M  V30 4182 O 387.71 -4.67922 3.24095 0
M  V30 4183 N 388.912 -5.58726 1.57499 0
M  V30 4184 H 391.677 -1.62745 2.51663 0
M  V30 4185 H 389.238 -0.753411 1.43302 0
M  V30 4186 H 391.23 -3.83803 1.28365 0
M  V30 4187 H 389.8 -3.07893 0.540445 0
M  V30 4188 H 389.02 -2.58455 2.97648 0
M  V30 4189 H 390.308 -3.67476 3.51907 0
M  V30 4190 H 389.706 -5.57376 0.966876 0
M  V30 4191 H 388.263 -6.34523 1.49078 0
M  V30 4192 N 391.696 -1.35014 -0.812953 0
M  V30 4193 C 393.112 -1.14914 -1.10757 0
M  V30 4194 C 393.312 0.0426818 -2.01455 0
M  V30 4195 O 392.368 0.715212 -2.42159 0
M  V30 4196 C 393.681 -2.44911 -1.74468 0
M  V30 4197 C 395.229 -2.5106 -1.86917 0
M  V30 4198 C 395.704 -3.81085 -2.54044 0
M  V30 4199 N 397.195 -3.82301 -2.61535 0
M  V30 4200 C 397.93 -4.79634 -3.14227 0
M  V30 4201 N 397.426 -5.87353 -3.67407 0
M  V30 4202 N 399.219 -4.67078 -3.12721 0
M  V30 4203 H 391.37 -2.1136 -0.20989 0
M  V30 4204 H 393.633 -0.935128 -0.155692 0
M  V30 4205 H 393.339 -3.32267 -1.15289 0
M  V30 4206 H 393.213 -2.58989 -2.74234 0
M  V30 4207 H 395.6 -1.64137 -2.45241 0
M  V30 4208 H 395.681 -2.40901 -0.860242 0
M  V30 4209 H 395.325 -4.68402 -1.96372 0
M  V30 4210 H 395.255 -3.88529 -3.55461 0
M  V30 4211 H 397.746 -3.04465 -2.23851 0
M  V30 4212 H 398.059 -6.57624 -4.05894 0
M  V30 4213 H 396.404 -5.91054 -3.65623 0
M  V30 4214 H 399.595 -3.82067 -2.70449 0
M  V30 4215 H 399.768 -5.43098 -3.53481 0
M  V30 4216 N 393.175 1.03435 -1.18907 0
M  V30 4217 C 394.125 2.09924 -0.889706 0
M  V30 4218 C 395.109 1.60261 0.143216 0
M  V30 4219 O 396.301 1.76892 -0.0617122 0
M  V30 4220 C 393.43 3.40669 -0.424168 0
M  V30 4221 C 392.516 3.97082 -1.48952 0
M  V30 4222 N 392.907 4.27227 -2.70759 0
M  V30 4223 C 391.205 4.25029 -1.35152 0
M  V30 4224 C 391.906 4.7246 -3.39347 0
M  V30 4225 N 390.882 4.7366 -2.66735 0
M  V30 4226 H 394.684 2.31116 -1.81555 0
M  V30 4227 H 392.198 1.21246 -1.08042 0
M  V30 4228 H 394.195 4.16461 -0.191176 0
M  V30 4229 H 392.855 3.20901 0.495263 0
M  V30 4230 H 393.866 4.16678 -3.0757 0
M  V30 4231 H 390.543 4.14554 -0.495126 0
M  V30 4232 H 391.933 5.04751 -4.43481 0
M  V30 4233 N 394.653 0.992116 1.22453 0
M  V30 4234 C 395.899 0.668523 1.91464 0
M  V30 4235 C 396.232 -0.797313 1.77078 0
M  V30 4236 O 395.507 -1.5765 1.13916 0
M  V30 4237 C 395.79 1.07424 3.43703 0
M  V30 4238 C 395.643 2.59857 3.67143 0
M  V30 4239 C 396.962 0.626891 4.35612 0
M  V30 4240 H 394.081 0.244341 0.695318 0
M  V30 4241 H 396.723 1.2355 1.44345 0
M  V30 4242 H 394.873 0.591816 3.83966 0
M  V30 4243 H 396.545 3.15764 3.3629 0
M  V30 4244 H 394.788 3.01961 3.11451 0
M  V30 4245 H 395.459 2.83296 4.73759 0
M  V30 4246 H 397.935 1.04125 4.02861 0
M  V30 4247 H 396.811 0.939076 5.40807 0
M  V30 4248 H 397.072 -0.472457 4.39568 0
M  V30 4249 N 396.131 -1.37776 0.765217 0
M  V30 4250 C 397.041 -2.34135 0.147666 0
M  V30 4251 C 398.057 -1.59854 -0.687215 0
M  V30 4252 O 399.233 -1.91983 -0.608659 0
M  V30 4253 C 396.298 -3.3901 -0.72617 0
M  V30 4254 C 395.359 -4.2912 0.124417 0
M  V30 4255 C 394.592 -5.28986 -0.707807 0
M  V30 4256 O 394.815 -5.36205 -1.94525 0
M  V30 4257 O 393.749 -6.01779 -0.12046 0
M  V30 4258 H 397.575 -2.88664 0.943758 0
M  V30 4259 H 395.16 -1.39824 0.526277 0
M  V30 4260 H 397.042 -4.03195 -1.22524 0
M  V30 4261 H 395.717 -2.86819 -1.50056 0
M  V30 4262 H 394.624 -3.68057 0.669696 0
M  V30 4263 H 395.957 -4.84598 0.861736 0
M  V30 4264 N 397.609 -0.515225 -1.4894 0
M  V30 4265 C 399.025 -0.172099 -1.58669 0
M  V30 4266 C 399.225 1.32405 -1.51892 0
M  V30 4267 O 398.281 2.10116 -1.40027 0
M  V30 4268 C 399.594 -0.761533 -2.90897 0
M  V30 4269 C 401.142 -0.728926 -3.04394 0
M  V30 4270 C 401.617 -1.29667 -4.39261 0
M  V30 4271 N 403.108 -1.25799 -4.4579 0
M  V30 4272 C 403.843 -1.66733 -5.48623 0
M  V30 4273 N 403.339 -2.15327 -6.58488 0
M  V30 4274 N 405.132 -1.58061 -5.39419 0
M  V30 4275 H 397.283 -1.48778 -1.51588 0
M  V30 4276 H 399.546 -0.617968 -0.718901 0
M  V30 4277 H 399.252 -1.81136 -3.01468 0
M  V30 4278 H 399.126 -0.230106 -3.76497 0
M  V30 4279 H 401.513 0.312098 -2.93445 0
M  V30 4280 H 401.594 -1.29766 -2.20442 0
M  V30 4281 H 401.238 -2.33655 -4.50963 0
M  V30 4282 H 401.168 -0.703752 -5.21876 0
M  V30 4283 H 403.659 -0.902102 -3.66975 0
M  V30 4284 H 403.972 -2.44594 -7.33071 0
M  V30 4285 H 402.317 -2.19311 -6.59491 0
M  V30 4286 H 405.508 -1.19906 -4.52482 0
M  V30 4287 H 405.681 -1.90284 -6.19432 0
M  V30 4288 N 399.087 1.5561 -0.249682 0
M  V30 4289 C 400.503 1.59254 0.105103 0
M  V30 4290 C 400.703 1.26685 1.56694 0
M  V30 4291 O 399.759 1.0155 2.31179 0
M  V30 4292 C 401.072 2.99687 -0.246592 0
M  V30 4293 C 402.62 3.12416 -0.191118 0
M  V30 4294 C 403.095 4.55074 -0.516885 0
M  V30 4295 N 404.586 4.60835 -0.467489 0
M  V30 4296 C 405.321 5.69201 -0.69268 0
M  V30 4297 N 404.817 6.85817 -0.981146 0
M  V30 4298 N 406.61 5.58635 -0.623198 0
M  V30 4299 H 398.761 1.75049 -1.20298 0
M  V30 4300 H 401.024 0.815003 -0.484225 0
M  V30 4301 H 400.73 3.28267 -1.26228 0
M  V30 4302 H 400.604 3.74798 0.424962 0
M  V30 4303 H 402.991 2.83615 0.815247 0
M  V30 4304 H 403.072 2.39573 -0.896563 0
M  V30 4305 H 402.716 4.84596 -1.52082 0
M  V30 4306 H 402.646 5.26181 0.210068 0
M  V30 4307 H 405.137 3.7705 -0.253373 0
M  V30 4308 H 405.45 7.64341 -1.14032 0
M  V30 4309 H 403.795 6.87494 -1.01865 0
M  V30 4310 H 406.986 4.66406 -0.397863 0
M  V30 4311 H 407.159 6.43017 -0.802093 0
M  V30 4312 N 400.565 -0.0233959 1.57583 0
M  V30 4313 C 401.475 -1.03907 2.10334 0
M  V30 4314 C 402.491 -1.39257 1.04323 0
M  V30 4315 O 403.667 -1.48462 1.36091 0
M  V30 4316 C 400.732 -2.31938 2.57693 0
M  V30 4317 C 399.793 -2.03117 3.78209 0
M  V30 4318 C 399.026 -3.25043 4.233 0
M  V30 4319 O 399.249 -4.35916 3.67876 0
M  V30 4320 O 398.183 -3.10411 5.15683 0
M  V30 4321 H 402.009 -0.620748 2.97288 0
M  V30 4322 H 399.594 -0.240743 1.47448 0
M  V30 4323 H 401.476 -3.07196 2.88458 0
M  V30 4324 H 400.151 -2.73055 1.73847 0
M  V30 4325 H 399.058 -1.25408 3.52454 0
M  V30 4326 H 400.391 -1.66852 4.63056 0
M  V30 4327 N 402.043 -1.548 -0.295768 0
M  V30 4328 C 403.006 -1.85363 -1.34808 0
M  V30 4329 C 404.006 -0.726817 -1.43436 0
M  V30 4330 O 405.196 -0.995088 -1.42981 0
M  V30 4331 C 402.328 -2.03859 -2.73229 0
M  V30 4332 H 403.521 -2.7941 -1.08949 0
M  V30 4333 H 401.074 -1.46942 -0.532702 0
M  V30 4334 H 401.809 -1.12117 -3.04303 0
M  V30 4335 H 401.594 -2.8588 -2.68356 0
M  V30 4336 H 403.084 -2.28857 -3.49305 0
M  V30 4337 N 403.521 0.559213 -1.47345 0
M  V30 4338 C 404.431 1.69388 -1.62311 0
M  V30 4339 C 405.447 1.6648 -0.505993 0
M  V30 4340 O 406.623 1.85964 -0.773262 0
M  V30 4341 C 403.688 3.05894 -1.63185 0
M  V30 4342 C 402.749 3.19885 -2.86307 0
M  V30 4343 C 401.982 4.49879 -2.87131 0
M  V30 4344 O 402.205 5.35217 -1.97229 0
M  V30 4345 O 401.139 4.67618 -3.78968 0
M  V30 4346 H 404.965 1.59706 -2.58317 0
M  V30 4347 H 402.55 0.728989 -1.30407 0
M  V30 4348 H 404.432 3.87133 -1.66451 0
M  V30 4349 H 403.107 3.15964 -0.70345 0
M  V30 4350 H 402.014 2.38052 -2.88587 0
M  V30 4351 H 403.347 3.14718 -3.78435 0
M  V30 4352 N 404.999 1.35443 0.805782 0
M  V30 4353 C 405.962 1.28301 1.89925 0
M  V30 4354 C 406.962 0.194285 1.59622 0
M  V30 4355 O 408.152 0.448036 1.6834 0
M  V30 4356 C 405.284 0.984997 3.2636 0
M  V30 4357 H 406.477 2.2553 1.97677 0
M  V30 4358 H 404.03 1.19979 1.00173 0
M  V30 4359 H 404.765 0.016603 3.24296 0
M  V30 4360 H 404.55 1.77269 3.4974 0
M  V30 4361 H 406.04 0.960651 4.064 0
M  V30 4362 N 406.477 -1.02803 1.19454 0
M  V30 4363 C 407.44 -2.09264 0.934955 0
M  V30 4364 C 408.44 -1.60576 -0.0849015 0
M  V30 4365 O 409.63 -1.73554 0.149933 0
M  V30 4366 C 406.762 -3.38482 0.40531 0
M  V30 4367 H 407.955 -2.33726 1.87916 0
M  V30 4368 H 405.508 -1.19426 1.00832 0
M  V30 4369 H 406.243 -3.19689 -0.544899 0
M  V30 4370 H 406.028 -3.75142 1.14065 0
M  V30 4371 H 407.518 -4.16894 0.242806 0
M  V30 4372 N 407.956 -0.998596 -1.21925 0
M  V30 4373 C 408.889 -0.498517 -2.22688 0
M  V30 4374 C 409.867 0.444301 -1.56412 0
M  V30 4375 O 411.051 0.368518 -1.84863 0
M  V30 4376 C 408.178 0.276639 -3.37568 0
M  V30 4377 C 407.224 -0.61302 -4.22071 0
M  V30 4378 S 408.057 -2.07168 -4.93803 0
M  V30 4379 C 409.213 -1.30617 -6.12119 0
M  V30 4380 H 409.446 -1.35234 -2.64762 0
M  V30 4381 H 406.979 -0.806018 -1.31692 0
M  V30 4382 H 408.937 0.717817 -4.04175 0
M  V30 4383 H 407.598 1.10581 -2.93991 0
M  V30 4384 H 406.791 -0.0162909 -5.03997 0
M  V30 4385 H 406.393 -0.991202 -3.60626 0
M  V30 4386 H 408.685 -0.57675 -6.75041 0
M  V30 4387 H 409.628 -2.10091 -6.76215 0
M  V30 4388 H 410.036 -0.816957 -5.58557 0
M  V30 4389 N 409.434 1.37368 -0.772513 0
M  V30 4390 C 410.85 1.53059 -0.452231 0
M  V30 4391 C 411.05 1.73065 1.03203 0
M  V30 4392 O 410.106 1.75245 1.81784 0
M  V30 4393 C 411.419 2.72659 -1.26797 0
M  V30 4394 C 412.967 2.86521 -1.25995 0
M  V30 4395 C 413.442 4.09105 -2.05905 0
M  V30 4396 N 414.933 4.16219 -2.03263 0
M  V30 4397 C 415.668 5.10107 -2.61875 0
M  V30 4398 N 415.164 6.09547 -3.29278 0
M  V30 4399 N 416.957 5.02596 -2.51701 0
M  V30 4400 H 409.108 1.22634 -1.7342 0
M  V30 4401 H 411.371 0.597206 -0.736239 0
M  V30 4402 H 411.077 2.64343 -2.31982 0
M  V30 4403 H 410.951 3.66363 -0.897672 0
M  V30 4404 H 413.338 2.94308 -0.216081 0
M  V30 4405 H 413.419 1.93774 -1.66989 0
M  V30 4406 H 413.063 4.0208 -3.10313 0
M  V30 4407 H 412.993 5.00968 -1.62292 0
M  V30 4408 H 415.484 3.45012 -1.54192 0
M  V30 4409 H 415.797 6.77718 -3.71374 0
M  V30 4410 H 414.142 6.09824 -3.33377 0
M  V30 4411 H 417.333 4.23855 -1.98657 0
M  V30 4412 H 417.506 5.75582 -2.97673 0
M  V30 4413 N 410.912 0.523116 1.48665 0
M  V30 4414 C 411.86 -0.256859 2.31177 0
M  V30 4415 C 412.854 -0.94199 1.40794 0
M  V30 4416 O 414.06 -0.867157 1.57735 0
M  V30 4417 H 410.435 -0.1017 0.745091 0
M  V30 4418 H 412.406 0.458739 2.94853 0
M  V30 4419 C 411.155 -1.29503 3.22683 0
M  V30 4420 H 410.478 -0.777248 3.92172 0
M  V30 4421 H 411.918 -1.81233 3.83315 0
M  V30 4422 C 410.377 -2.32501 2.43813 0
M  V30 4423 O 410.907 -3.3881 2.15803 0
M  V30 4424 N 409.113 -2.05538 2.05432 0
M  V30 4425 H 408.66 -1.19104 2.28412 0
M  V30 4426 H 408.618 -2.74676 1.52973 0
M  V30 4427 N 412.39 -1.55475 0.257931 0
M  V30 4428 C 413.638 -1.98813 -0.363009 0
M  V30 4429 C 413.959 -1.14757 -1.57657 0
M  V30 4430 O 413.229 -0.232956 -1.9451 0
M  V30 4431 H 411.809 -0.734308 -0.137113 0
M  V30 4432 H 414.471 -1.9156 0.359281 0
M  V30 4433 H 413.567 -3.04941 -0.664634 0
M  V30 4434 N 413.868 0.0150385 -1.57593 0
M  V30 4435 C 415.116 0.701613 -1.8953 0
M  V30 4436 C 415.437 1.75139 -0.857396 0
M  V30 4437 O 414.707 1.95607 0.107194 0
M  V30 4438 H 413.287 0.26213 -0.699498 0
M  V30 4439 H 415.949 -0.0223304 -1.94887 0
M  V30 4440 H 415.045 1.18236 -2.88837 0
M  V30 4441 N 415.346 1.54954 0.287554 0
M  V30 4442 C 416.278 1.83224 1.37701 0
M  V30 4443 C 417.291 0.715898 1.46215 0
M  V30 4444 O 418.48 0.993565 1.48292 0
M  V30 4445 C 415.58 1.96723 2.75959 0
M  V30 4446 C 414.753 3.27253 2.90215 0
M  V30 4447 C 413.812 3.30998 4.09056 0
M  V30 4448 O 412.838 4.04457 4.00503 0
M  V30 4449 N 414.04 2.57353 5.20336 0
M  V30 4450 H 416.805 2.77254 1.138 0
M  V30 4451 H 414.366 1.54694 0.477652 0
M  V30 4452 H 416.358 1.96615 3.5373 0
M  V30 4453 H 414.928 1.09626 2.92747 0
M  V30 4454 H 414.148 3.40022 1.99447 0
M  V30 4455 H 415.436 4.13365 2.96659 0
M  V30 4456 H 414.834 1.97327 5.30169 0
M  V30 4457 H 413.391 2.62984 5.96391 0
M  V30 4458 N 416.824 -0.551391 1.4764 0
M  V30 4459 C 418.235 -1.13349 1.48354 0
M  V30 4460 C 418.586 -1.94709 0.241432 0
M  V30 4461 O 417.711 -2.06306 -0.653205 0
M  V30 4462 C 418.306 -2.0623 2.68802 0
M  V30 4463 C 416.865 -2.597 2.72457 0
M  V30 4464 C 416.012 -1.36201 2.41546 0
M  V30 4465 H 418.963 -0.337698 1.55065 0
M  V30 4466 H 418.984 -2.90196 2.46103 0
M  V30 4467 H 418.496 -1.46987 3.59188 0
M  V30 4468 H 416.597 -3.22724 1.86225 0
M  V30 4469 H 416.71 -3.00296 3.73308 0
M  V30 4470 H 415.074 -1.67068 1.9225 0
M  V30 4471 H 415.857 -0.787425 3.34147 0
M  V30 4472 N 418.302 -1.35869 -0.798587 0
M  V30 4473 C 419.212 -1.31578 -1.94228 0
M  V30 4474 C 420.228 -0.21939 -1.72611 0
M  V30 4475 O 421.404 -0.450167 -1.96305 0
M  V30 4476 C 418.469 -1.09528 -3.28944 0
M  V30 4477 C 417.53 -2.28556 -3.63402 0
M  V30 4478 C 416.763 -2.07549 -4.9169 0
M  V30 4479 O 416.986 -1.046 -5.60727 0
M  V30 4480 O 415.92 -2.95106 -5.24591 0
M  V30 4481 H 419.746 -2.27847 -2.00796 0
M  V30 4482 H 417.331 -1.16322 -0.937526 0
M  V30 4483 H 419.213 -0.991127 -4.09579 0
M  V30 4484 H 417.888 -0.16315 -3.23289 0
M  V30 4485 H 416.795 -2.44538 -2.83112 0
M  V30 4486 H 418.128 -3.20244 -3.73771 0
M  V30 4487 N 419.78 1.02168 -1.19998 0
M  V30 4488 C 420.727 2.10601 -0.944228 0
M  V30 4489 C 421.697 1.65639 0.123664 0
M  V30 4490 O 422.882 1.9079 -0.0199941 0
M  V30 4491 C 420.022 3.41504 -0.496865 0
M  V30 4492 C 419.135 3.99973 -1.63234 0
M  V30 4493 C 418.27 5.18915 -1.13579 0
M  V30 4494 C 417.309 5.69456 -2.24468 0
M  V30 4495 N 416.446 6.79665 -1.76068 0
M  V30 4496 H 421.286 2.31814 -1.8726 0
M  V30 4497 H 418.823 1.13686 -0.933483 0
M  V30 4498 H 420.781 4.16626 -0.218843 0
M  V30 4499 H 419.411 3.2038 0.394508 0
M  V30 4500 H 418.463 3.21997 -2.0254 0
M  V30 4501 H 419.775 4.33492 -2.46752 0
M  V30 4502 H 418.929 6.01222 -0.813429 0
M  V30 4503 H 417.668 4.8695 -0.270434 0
M  V30 4504 H 416.673 4.85757 -2.57526 0
M  V30 4505 H 417.898 6.03459 -3.11472 0
M  V30 4506 H 415.844 6.49538 -0.918516 0
M  V30 4507 H 415.761 7.12349 -2.5317 0
M  V30 4508 H 417.029 7.65549 -1.46817 0
M  V30 4509 N 421.258 1.00505 1.21394 0
M  V30 4510 C 422.535 0.603277 1.86064 0
M  V30 4511 C 422.915 -0.919095 1.90042 0
M  V30 4512 O 422.263 -1.80607 1.39977 0
M  V30 4513 C 422.473 1.23772 3.26315 0
M  V30 4514 C 423.821 1.34586 4.02705 0
M  V30 4515 O 424.845 1.19304 3.35626 0
M  V30 4516 O 423.704 1.59169 5.22807 0
M  V30 4517 H 420.798 0.206634 0.800769 0
M  V30 4518 H 423.344 1.1017 1.29076 0
M  V30 4519 H 422.116 2.27848 3.18121 0
M  V30 4520 H 421.739 0.725648 3.90922 0
M  V30 4521 N 422.737 -1.36956 0.779787 0
M  V30 4522 C 423.667 -2.32761 0.185651 0
M  V30 4523 C 424.648 -1.56177 -0.673989 0
M  V30 4524 O 425.833 -1.84378 -0.609797 0
M  V30 4525 C 422.963 -3.40418 -0.687964 0
M  V30 4526 C 421.917 -4.27941 0.0710102 0
M  V30 4527 C 421.243 -5.26681 -0.922573 0
M  V30 4528 C 422.543 -5.07006 1.25467 0
M  V30 4529 H 424.237 -2.82698 0.986008 0
M  V30 4530 H 421.783 -1.3592 0.475592 0
M  V30 4531 H 423.736 -4.06423 -1.11348 0
M  V30 4532 H 422.46 -2.89025 -1.52093 0
M  V30 4533 H 421.119 -3.63478 0.47739 0
M  V30 4534 H 420.767 -4.71565 -1.7503 0
M  V30 4535 H 420.467 -5.86103 -0.419237 0
M  V30 4536 H 421.991 -5.9556 -1.34686 0
M  V30 4537 H 423.405 -5.66105 0.905401 0
M  V30 4538 H 421.802 -5.75793 1.69063 0
M  V30 4539 H 422.872 -4.3921 2.05481 0
M  V30 4540 N 424.215 -0.530993 -1.48385 0
M  V30 4541 C 425.125 0.23503 -2.3342 0
M  V30 4542 C 426.141 0.93801 -1.46552 0
M  V30 4543 O 427.317 0.912745 -1.7953 0
M  V30 4544 C 424.382 1.26778 -3.22689 0
M  V30 4545 C 423.443 0.575038 -4.25431 0
M  V30 4546 C 422.676 1.55858 -5.10435 0
M  V30 4547 O 422.899 2.79129 -4.97437 0
M  V30 4548 O 421.833 1.09742 -5.91811 0
M  V30 4549 H 425.659 -0.461794 -3.00169 0
M  V30 4550 H 423.244 -0.291903 -1.46521 0
M  V30 4551 H 425.126 1.86457 -3.77904 0
M  V30 4552 H 423.801 1.94699 -2.586 0
M  V30 4553 H 422.708 -0.0622782 -3.74048 0
M  V30 4554 H 424.041 -0.062253 -4.92161 0
M  V30 4555 N 425.693 1.55336 -0.266172 0
M  V30 4556 C 426.918 2.04258 0.359661 0
M  V30 4557 C 427.343 1.14359 1.49344 0
M  V30 4558 O 426.701 0.140369 1.80756 0
M  V30 4559 C 426.749 3.50997 0.826635 0
M  V30 4560 O 425.853 3.64204 1.93466 0
M  V30 4561 H 425.194 0.659668 0.075727 0
M  V30 4562 H 427.724 2.00694 -0.39786 0
M  V30 4563 H 427.734 3.9219 1.12477 0
M  V30 4564 H 426.409 4.159 -0.00293032 0
M  V30 4565 H 424.986 3.34913 1.63974 0
M  V30 4566 N 427.171 -0.0066808 1.57599 0
M  V30 4567 C 428.419 -0.691552 1.899 0
M  V30 4568 C 428.74 -1.74682 0.866672 0
M  V30 4569 O 428.01 -1.95661 -0.0968189 0
M  V30 4570 H 426.59 -0.258416 0.700878 0
M  V30 4571 H 429.252 0.0326655 1.94873 0
M  V30 4572 H 428.348 -1.16702 2.8946 0
M  V30 4573 N 428.649 -1.55105 -0.279332 0
M  V30 4574 C 429.612 -1.86783 -1.32834 0
M  V30 4575 C 430.612 -0.74199 -1.42657 0
M  V30 4576 O 431.802 -1.0102 -1.41918 0
M  V30 4577 C 428.934 -2.06746 -2.71052 0
M  V30 4578 H 430.127 -2.8055 -1.05979 0
M  V30 4579 H 427.68 -1.47499 -0.517087 0
M  V30 4580 H 428.415 -1.15339 -3.03097 0
M  V30 4581 H 428.2 -2.88711 -2.65309 0
M  V30 4582 H 429.69 -2.32549 -3.46858 0
M  V30 4583 N 430.127 0.543554 -1.4793 0
M  V30 4584 C 431.077 1.64527 -1.57844 0
M  V30 4585 C 432.061 1.54869 -0.436408 0
M  V30 4586 O 433.253 1.63119 -0.687101 0
M  V30 4587 C 430.382 3.03281 -1.6086 0
M  V30 4588 C 429.468 3.18093 -2.80495 0
M  V30 4589 N 429.859 3.02923 -4.05057 0
M  V30 4590 C 428.157 3.49121 -2.77543 0
M  V30 4591 C 428.858 3.20791 -4.85251 0
M  V30 4592 N 427.834 3.47749 -4.17818 0
M  V30 4593 H 431.636 1.51388 -2.5191 0
M  V30 4594 H 429.15 0.748671 -1.44113 0
M  V30 4595 H 431.147 3.82403 -1.66054 0
M  V30 4596 H 429.807 3.17521 -0.678996 0
M  V30 4597 H 430.818 2.79966 -4.35705 0
M  V30 4598 H 427.495 3.69804 -1.93781 0
M  V30 4599 H 428.885 3.13915 -5.9406 0
M  V30 4600 N 431.605 1.3629 0.791371 0
M  V30 4601 C 432.535 1.33137 1.91825 0
M  V30 4602 C 433.516 0.203168 1.68882 0
M  V30 4603 O 434.701 0.400509 1.90025 0
M  V30 4604 C 431.831 1.11793 3.28816 0
M  V30 4605 C 430.785 2.21417 3.66277 0
M  V30 4606 C 430.111 1.85218 5.01596 0
M  V30 4607 C 431.411 3.63489 3.75064 0
M  V30 4608 H 433.105 2.2743 1.9472 0
M  V30 4609 H 430.651 1.09479 0.935437 0
M  V30 4610 H 432.604 1.08222 4.07266 0
M  V30 4611 H 431.328 0.139501 3.26302 0
M  V30 4612 H 429.987 2.2411 2.90121 0
M  V30 4613 H 429.635 0.859544 4.95602 0
M  V30 4614 H 429.335 2.58611 5.27631 0
M  V30 4615 H 430.859 1.832 5.82469 0
M  V30 4616 H 432.273 3.63034 4.43711 0
M  V30 4617 H 430.67 4.35771 4.12582 0
M  V30 4618 H 431.74 3.98536 2.76219 0
M  V30 4619 N 433.083 -1.0153 1.20538 0
M  V30 4620 C 434.311 -1.78746 1.04199 0
M  V30 4621 C 434.726 -1.84323 -0.408733 0
M  V30 4622 O 434.083 -1.29714 -1.28377 0
M  V30 4623 C 434.134 -3.23152 1.62035 0
M  V30 4624 O 433.855 -3.17918 3.0143 0
M  V30 4625 C 435.356 -4.16911 1.50666 0
M  V30 4626 H 432.576 -0.56208 0.366479 0
M  V30 4627 H 435.12 -1.27794 1.59653 0
M  V30 4628 H 433.275 -3.71248 1.10697 0
M  V30 4629 H 433.689 -4.08567 3.28897 0
M  V30 4630 H 435.163 -5.16072 1.95892 0
M  V30 4631 H 435.64 -4.36791 0.459363 0
M  V30 4632 H 436.246 -3.74698 2.01201 0
M  V30 4633 N 434.561 -1.01147 -1.20859 0
M  V30 4634 C 435.511 -0.548247 -2.2131 0
M  V30 4635 C 436.495 0.393646 -1.5601 0
M  V30 4636 O 437.687 0.217445 -1.75659 0
M  V30 4637 C 434.816 0.117252 -3.431 0
M  V30 4638 C 433.902 -0.846043 -4.15575 0
M  V30 4639 N 434.293 -2.00149 -4.64515 0
M  V30 4640 C 432.591 -0.665783 -4.41003 0
M  V30 4641 C 433.292 -2.60764 -5.19978 0
M  V30 4642 N 432.268 -1.88868 -5.09735 0
M  V30 4643 H 436.07 -1.42921 -2.56809 0
M  V30 4644 H 433.584 -0.876142 -1.36739 0
M  V30 4645 H 435.581 0.46662 -4.1428 0
M  V30 4646 H 434.241 0.994115 -3.09107 0
M  V30 4647 H 435.252 -2.38162 -4.5989 0
M  V30 4648 H 431.929 0.163456 -4.1718 0
M  V30 4649 H 433.319 -3.58519 -5.68255 0
M  V30 4650 N 436.039 1.36541 -0.78704 0
M  V30 4651 C 437.286 1.99304 -0.358341 0
M  V30 4652 C 437.614 1.62467 1.06933 0
M  V30 4653 O 436.869 0.870019 1.75297 0
M  V30 4654 C 437.168 3.54343 -0.466485 0
M  V30 4655 C 436.834 4.10993 -1.85461 0
M  V30 4656 C 435.496 4.26177 -2.23443 0
M  V30 4657 C 437.848 4.41895 -2.76366 0
M  V30 4658 C 435.176 4.69573 -3.51736 0
M  V30 4659 C 437.528 4.86722 -4.04084 0
M  V30 4660 C 436.192 5.00112 -4.42091 0
M  V30 4661 H 435.462 0.729306 -0.131126 0
M  V30 4662 H 438.109 1.63068 -1.00404 0
M  V30 4663 H 436.414 3.90918 0.262719 0
M  V30 4664 H 438.111 4.00833 -0.115854 0
M  V30 4665 H 434.701 3.99612 -1.54946 0
M  V30 4666 H 438.885 4.29735 -2.48277 0
M  V30 4667 H 434.141 4.78127 -3.81057 0
M  V30 4668 H 438.315 5.09598 -4.7464 0
M  V30 4669 H 435.942 5.33498 -5.41557 0
M  V30 4670 N 437.518 0.538854 1.48102 0
M  V30 4671 C 438.448 -0.207654 2.32575 0
M  V30 4672 C 439.429 -0.926559 1.4265 0
M  V30 4673 O 440.614 -0.91061 1.71527 0
M  V30 4674 C 437.744 -1.24957 3.24042 0
M  V30 4675 C 436.698 -0.648263 4.23062 0
M  V30 4676 C 436.024 -1.79348 5.03725 0
M  V30 4677 C 437.324 0.385897 5.20872 0
M  V30 4678 H 439.018 0.497534 2.95237 0
M  V30 4679 H 436.564 0.240715 1.41974 0
M  V30 4680 H 438.517 -1.77983 3.81969 0
M  V30 4681 H 437.241 -1.98446 2.59397 0
M  V30 4682 H 435.9 -0.139452 3.66335 0
M  V30 4683 H 435.548 -2.51696 4.35498 0
M  V30 4684 H 435.248 -1.39702 5.70751 0
M  V30 4685 H 436.772 -2.32735 5.64506 0
M  V30 4686 H 438.186 -0.057607 5.73271 0
M  V30 4687 H 436.583 0.700227 5.96001 0
M  V30 4688 H 437.653 1.28848 4.67468 0
M  V30 4689 N 438.996 -1.55193 0.274407 0
M  V30 4690 C 440.243 -1.99581 -0.342579 0
M  V30 4691 C 440.571 -1.1628 -1.55914 0
M  V30 4692 O 439.826 -0.22029 -1.94456 0
M  V30 4693 C 440.125 -3.49019 -0.769458 0
M  V30 4694 C 439.791 -4.49598 0.342389 0
M  V30 4695 C 438.453 -4.76821 0.647686 0
M  V30 4696 C 440.805 -5.0964 1.09163 0
M  V30 4697 C 438.133 -5.61354 1.70581 0
M  V30 4698 C 440.485 -5.95323 2.13948 0
M  V30 4699 C 439.149 -6.20867 2.45113 0
M  V30 4700 H 438.419 -0.730319 -0.125358 0
M  V30 4701 H 441.066 -1.87529 0.387971 0
M  V30 4702 H 439.371 -3.58544 -1.57967 0
M  V30 4703 H 441.068 -3.8077 -1.25757 0
M  V30 4704 H 437.658 -4.28496 0.094318 0
M  V30 4705 H 441.842 -4.88632 0.869024 0
M  V30 4706 H 437.098 -5.79392 1.9523 0
M  V30 4707 H 441.272 -6.40881 2.72478 0
M  V30 4708 H 438.899 -6.86162 3.27239 0
M  V30 4709 N 440.474 -0.00167713 -1.576 0
M  V30 4710 C 441.89 0.354422 -1.55615 0
M  V30 4711 C 442.09 1.74679 -1.00447 0
M  V30 4712 O 441.146 2.4428 -0.639022 0
M  V30 4713 C 442.459 0.22812 -2.99833 0
M  V30 4714 C 444.007 0.302934 -3.11531 0
M  V30 4715 C 444.482 0.205737 -4.57538 0
M  V30 4716 N 445.973 0.263584 -4.62449 0
M  V30 4717 C 446.708 0.211742 -5.73009 0
M  V30 4718 N 446.204 0.110399 -6.92712 0
M  V30 4719 N 447.997 0.263729 -5.61481 0
M  V30 4720 H 440.148 -0.912498 -1.918 0
M  V30 4721 H 442.411 -0.349928 -0.881053 0
M  V30 4722 H 442.117 -0.729934 -3.44042 0
M  V30 4723 H 441.991 1.00951 -3.6344 0
M  V30 4724 H 444.378 1.25143 -2.67251 0
M  V30 4725 H 444.459 -0.508357 -2.50698 0
M  V30 4726 H 444.103 -0.739225 -5.02492 0
M  V30 4727 H 444.033 1.03554 -5.16318 0
M  V30 4728 H 446.524 0.343173 -3.76339 0
M  V30 4729 H 446.837 0.0767828 -7.72762 0
M  V30 4730 H 445.182 0.0760025 -6.94958 0
M  V30 4731 H 448.373 0.34111 -4.66855 0
M  V30 4732 H 448.546 0.219862 -6.47627 0
M  V30 4733 N 441.952 1.55251 0.271103 0
M  V30 4734 C 442.862 1.9136 1.35714 0
M  V30 4735 C 443.878 0.811075 1.5394 0
M  V30 4736 O 445.054 1.11031 1.6803 0
M  V30 4737 C 442.119 2.1798 2.69603 0
M  V30 4738 C 441.18 3.4153 2.60107 0
M  V30 4739 C 440.413 3.66871 3.8761 0
M  V30 4740 O 440.636 2.94689 4.8838 0
M  V30 4741 O 439.57 4.60405 3.87699 0
M  V30 4742 H 443.396 2.83815 1.08088 0
M  V30 4743 H 440.981 1.41821 0.469792 0
M  V30 4744 H 442.863 2.36518 3.48765 0
M  V30 4745 H 441.538 1.28708 2.97012 0
M  V30 4746 H 440.445 3.28325 1.79314 0
M  V30 4747 H 441.778 4.31027 2.37647 0
M  V30 4748 N 443.43 -0.535701 1.48216 0
M  V30 4749 C 444.34 -1.66785 1.64985 0
M  V30 4750 C 445.356 -1.65654 0.532414 0
M  V30 4751 O 446.532 -1.8471 0.80275 0
M  V30 4752 C 443.597 -3.0326 1.68031 0
M  V30 4753 C 442.658 -3.1529 2.9136 0
M  V30 4754 C 441.891 -4.45255 2.94252 0
M  V30 4755 O 442.114 -5.32011 2.05719 0
M  V30 4756 O 441.048 -4.6153 3.86359 0
M  V30 4757 H 444.874 -1.55576 2.60825 0
M  V30 4758 H 442.459 -0.70815 1.31551 0
M  V30 4759 H 444.341 -3.84436 1.72589 0
M  V30 4760 H 443.016 -3.14805 0.753628 0
M  V30 4761 H 441.923 -2.3343 2.92337 0
M  V30 4762 H 443.256 -3.08658 3.83394 0
M  V30 4763 N 444.908 -1.36708 -0.784132 0
M  V30 4764 C 445.838 -1.34153 -1.91116 0
M  V30 4765 C 446.819 -0.212121 -1.68772 0
M  V30 4766 O 448.004 -0.410581 -1.8981 0
M  V30 4767 C 445.134 -1.13535 -3.28218 0
M  V30 4768 C 444.088 -2.23356 -3.65097 0
M  V30 4769 C 443.414 -1.87875 -5.00607 0
M  V30 4770 C 444.714 -3.65473 -3.73131 0
M  V30 4771 H 446.408 -2.28459 -1.93512 0
M  V30 4772 H 443.954 -1.09973 -0.929618 0
M  V30 4773 H 445.907 -1.10381 -4.06687 0
M  V30 4774 H 444.631 -0.156804 -3.26223 0
M  V30 4775 H 443.29 -2.25645 -2.88929 0
M  V30 4776 H 442.938 -0.885814 -4.95139 0
M  V30 4777 H 442.638 -2.61406 -5.26252 0
M  V30 4778 H 444.162 -1.86286 -5.81489 0
M  V30 4779 H 445.576 -3.65382 -4.41779 0
M  V30 4780 H 443.973 -4.37953 -4.10265 0
M  V30 4781 H 445.043 -3.99995 -2.74102 0
M  V30 4782 N 446.386 1.0089 -1.21074 0
M  V30 4783 C 447.797 1.56056 -1.02486 0
M  V30 4784 C 448.148 1.91728 0.416506 0
M  V30 4785 O 447.273 1.73066 1.29912 0
M  V30 4786 C 447.868 2.83563 -1.85411 0
M  V30 4787 C 446.427 3.3523 -1.71166 0
M  V30 4788 C 445.574 2.0846 -1.82865 0
M  V30 4789 H 448.525 0.831818 -1.35154 0
M  V30 4790 H 448.546 3.55286 -1.36205 0
M  V30 4791 H 448.058 2.57569 -2.9031 0
M  V30 4792 H 446.159 3.66167 -0.689361 0
M  V30 4793 H 446.272 4.06913 -2.52901 0
M  V30 4794 H 444.636 2.21275 -1.26132 0
M  V30 4795 H 445.419 1.84883 -2.89263 0
M  V30 4796 N 447.864 1.01787 1.20321 0
M  V30 4797 C 448.827 0.593972 2.2137 0
M  V30 4798 C 449.827 -0.336553 1.57239 0
M  V30 4799 O 451.017 -0.125069 1.7375 0
M  V30 4800 C 448.149 -0.132433 3.40643 0
M  V30 4801 H 449.342 1.48791 2.60387 0
M  V30 4802 H 446.895 0.807803 1.33807 0
M  V30 4803 H 447.63 -1.04123 3.0713 0
M  V30 4804 H 447.415 0.53605 3.88418 0
M  V30 4805 H 448.905 -0.416314 4.1552 0
M  V30 4806 N 449.342 -1.36122 0.79427 0
M  V30 4807 C 450.274 -2.28683 0.153903 0
M  V30 4808 C 451.287 -1.49707 -0.639669 0
M  V30 4809 O 452.476 -1.7209 -0.474054 0
M  V30 4810 C 449.576 -3.29202 -0.804921 0
M  V30 4811 C 448.749 -4.37358 -0.060366 0
M  V30 4812 C 447.808 -5.17811 -0.935849 0
M  V30 4813 O 446.834 -5.67853 -0.391309 0
M  V30 4814 N 448.036 -5.34721 -2.25951 0
M  V30 4815 H 450.801 -2.84278 0.949008 0
M  V30 4816 H 448.362 -1.4834 0.648611 0
M  V30 4817 H 450.354 -3.79914 -1.39455 0
M  V30 4818 H 448.924 -2.74212 -1.50088 0
M  V30 4819 H 448.144 -3.87746 0.710382 0
M  V30 4820 H 449.432 -5.06777 0.45324 0
M  V30 4821 H 448.83 -4.95687 -2.72601 0
M  V30 4822 H 447.387 -5.88657 -2.79867 0
M  V30 4823 N 450.82 -0.546701 -1.47814 0
M  V30 4824 C 452.045 -0.021268 -2.07389 0
M  V30 4825 C 452.47 1.25822 -1.39822 0
M  V30 4826 O 451.828 1.75111 -0.46968 0
M  V30 4827 C 451.876 0.168502 -3.60206 0
M  V30 4828 O 450.98 1.23347 -3.93522 0
M  V30 4829 H 450.321 -0.0466108 -0.662362 0
M  V30 4830 H 452.851 -0.759387 -1.89985 0
M  V30 4831 H 452.861 0.385982 -4.0617 0
M  V30 4832 H 451.536 -0.766075 -4.08784 0
M  V30 4833 H 450.113 0.997319 -3.59316 0
M  V30 4834 N 452.299 1.55045 -0.282633 0
M  V30 4835 C 453.548 1.98938 0.332667 0
M  V30 4836 C 453.861 1.17455 1.56409 0
M  V30 4837 O 455.067 1.51527 2.25282 0
M  V30 4838 C 453.523 3.54105 0.643226 0
M  V30 4839 C 453.131 4.44374 -0.568814 0
M  V30 4840 C 454.875 4.06569 1.22074 0
M  V30 4841 C 452.782 5.90943 -0.232426 0
M  V30 4842 H 451.712 0.743043 0.128075 0
M  V30 4843 H 454.363 1.79341 -0.388464 0
M  V30 4844 H 452.745 3.69532 1.42346 0
M  V30 4845 H 453.919 4.40718 -1.34551 0
M  V30 4846 H 452.234 4.02585 -1.06369 0
M  V30 4847 H 454.831 5.13626 1.48635 0
M  V30 4848 H 455.174 3.56057 2.15707 0
M  V30 4849 H 455.707 3.94612 0.502621 0
M  V30 4850 H 452.446 6.45567 -1.13683 0
M  V30 4851 H 451.966 5.9765 0.507357 0
M  V30 4852 H 453.645 6.4677 0.172657 0
M  V30 4853 N 453.777 0.010035 1.57597 0
M  V30 4854 C 454.707 -0.976857 2.12084 0
M  V30 4855 C 455.688 -1.35191 1.03235 0
M  V30 4856 O 456.873 -1.43389 1.3097 0
M  V30 4857 C 454.003 -2.26548 2.63236 0
M  V30 4858 C 452.957 -2.03175 3.76701 0
M  V30 4859 C 452.283 -3.38138 4.14206 0
M  V30 4860 C 453.583 -1.38625 5.03568 0
M  V30 4861 H 455.277 -0.523145 2.94794 0
M  V30 4862 H 452.823 -0.250195 1.4181 0
M  V30 4863 H 454.776 -2.95952 2.99984 0
M  V30 4864 H 453.5 -2.74051 1.77661 0
M  V30 4865 H 452.159 -1.36195 3.40362 0
M  V30 4866 H 451.807 -3.83363 3.25641 0
M  V30 4867 H 451.507 -3.23312 4.90656 0
M  V30 4868 H 453.031 -4.08841 4.53521 0
M  V30 4869 H 454.445 -1.98 5.38023 0
M  V30 4870 H 452.842 -1.34256 5.84889 0
M  V30 4871 H 453.912 -0.356722 4.83586 0
M  V30 4872 N 455.255 -1.55392 -0.262866 0
M  V30 4873 C 456.503 -1.76127 -0.991147 0
M  V30 4874 C 456.824 -0.571083 -1.8645 0
M  V30 4875 O 456.094 0.413698 -1.91482 0
M  V30 4876 H 454.674 -0.649528 -0.368948 0
M  V30 4877 H 457.336 -1.9281 -0.284655 0
M  V30 4878 H 456.432 -2.6663 -1.62219 0
M  V30 4879 N 456.733 0.527833 -1.48498 0
M  V30 4880 C 457.681 1.65313 -1.63628 0
M  V30 4881 C 458.675 1.6177 -0.502676 0
M  V30 4882 O 459.881 1.66601 -0.681469 0
M  V30 4883 H 456.256 0.547518 -0.515488 0
M  V30 4884 H 458.227 1.49696 -2.58135 0
M  V30 4885 C 456.976 3.03576 -1.6952 0
M  V30 4886 H 456.299 3.06997 -2.56111 0
M  V30 4887 H 457.739 3.81923 -1.84149 0
M  V30 4888 C 456.198 3.34089 -0.43432 0
M  V30 4889 O 456.728 3.99151 0.451852 0
M  V30 4890 N 454.934 2.88991 -0.305368 0
M  V30 4891 H 454.481 2.36222 -1.02747 0
M  V30 4892 H 454.439 3.09776 0.537249 0
M  V30 4893 N 458.211 1.37122 0.776871 0
M  V30 4894 C 459.457 1.32243 1.53752 0
M  V30 4895 C 459.79 -0.0944745 1.9397 0
M  V30 4896 O 459.065 -1.05068 1.6368 0
M  V30 4897 C 459.348 2.25681 2.80607 0
M  V30 4898 C 459.201 3.76127 2.46676 0
M  V30 4899 C 460.52 2.17657 3.82509 0
M  V30 4900 H 457.639 0.481704 0.557791 0
M  V30 4901 H 460.281 1.6778 0.891612 0
M  V30 4902 H 458.431 1.95505 3.35723 0
M  V30 4903 H 460.103 4.16877 1.97513 0
M  V30 4904 H 458.346 3.94946 1.79443 0
M  V30 4905 H 459.017 4.36933 3.37333 0
M  V30 4906 H 461.493 2.44245 3.36873 0
M  V30 4907 H 460.369 2.85185 4.69 0
M  V30 4908 H 460.63 1.16785 4.26396 0
M  V30 4909 N 459.689 -1.00246 1.21608 0
M  V30 4910 C 460.917 -1.77631 1.06089 0
M  V30 4911 C 461.332 -1.84746 -0.38916 0
M  V30 4912 O 460.689 -1.31068 -1.26994 0
M  V30 4913 C 460.74 -3.21415 1.65453 0
M  V30 4914 O 460.461 -3.14703 3.04785 0
M  V30 4915 C 461.962 -4.15289 1.55079 0
M  V30 4916 H 459.182 -0.558162 0.37242 0
M  V30 4917 H 461.726 -1.26093 1.60999 0
M  V30 4918 H 459.881 -3.70053 1.14629 0
M  V30 4919 H 460.295 -4.05056 3.33212 0
M  V30 4920 H 461.769 -5.13965 2.01355 0
M  V30 4921 H 462.246 -4.36279 0.505665 0
M  V30 4922 H 462.852 -3.72543 2.05163 0
M  V30 4923 N 461.167 -1.02423 -1.1978 0
M  V30 4924 C 462.077 -0.610919 -2.26506 0
M  V30 4925 C 463.093 0.355152 -1.70337 0
M  V30 4926 O 464.269 0.214195 -2.00258 0
M  V30 4927 C 461.334 0.0365921 -3.46681 0
M  V30 4928 C 460.395 -0.976389 -4.18049 0
M  V30 4929 C 459.628 -0.359683 -5.32487 0
M  V30 4930 O 459.851 0.838601 -5.64202 0
M  V30 4931 O 458.785 -1.08022 -5.92127 0
M  V30 4932 H 462.611 -1.49965 -2.64091 0
M  V30 4933 H 460.196 -0.794156 -1.26545 0
M  V30 4934 H 462.078 0.39786 -4.19518 0
M  V30 4935 H 460.753 0.899398 -3.10954 0
M  V30 4936 H 459.66 -1.38916 -3.47352 0
M  V30 4937 H 460.993 -1.80941 -4.57735 0
M  V30 4938 N 462.645 1.35699 -0.801477 0
M  V30 4939 C 463.575 2.32436 -0.222658 0
M  V30 4940 C 464.556 1.5723 0.649057 0
M  V30 4941 O 465.741 1.85324 0.580387 0
M  V30 4942 C 462.871 3.41469 0.633719 0
M  V30 4943 C 461.825 4.27774 -0.139083 0
M  V30 4944 C 461.151 5.28082 0.838666 0
M  V30 4945 C 462.451 5.04946 -1.33517 0
M  V30 4946 H 464.145 2.81094 -1.03086 0
M  V30 4947 H 461.691 1.35146 -0.497155 0
M  V30 4948 H 463.644 4.08143 1.04868 0
M  V30 4949 H 462.368 2.91408 1.47475 0
M  V30 4950 H 461.027 3.62673 -0.535156 0
M  V30 4951 H 460.675 4.7429 1.67506 0
M  V30 4952 H 460.375 5.86695 0.32594 0
M  V30 4953 H 461.899 5.97628 1.25194 0
M  V30 4954 H 463.313 5.64593 -0.995349 0
M  V30 4955 H 461.71 5.7303 -1.78202 0
M  V30 4956 H 462.78 4.35886 -2.12442 0
M  V30 4957 N 464.123 0.554532 1.47522 0
M  V30 4958 C 465.053 -0.182974 2.32782 0
M  V30 4959 C 466.034 -0.911377 1.43624 0
M  V30 4960 O 467.219 -0.892366 1.72483 0
M  V30 4961 C 464.349 -1.21513 3.25349 0
M  V30 4962 C 463.303 -0.603355 4.23726 0
M  V30 4963 C 462.629 -1.73995 5.05598 0
M  V30 4964 C 463.929 0.441121 5.20434 0
M  V30 4965 H 465.623 0.52882 2.94693 0
M  V30 4966 H 463.169 0.255759 1.41711 0
M  V30 4967 H 465.122 -1.73922 3.83835 0
M  V30 4968 H 463.846 -1.95683 2.61487 0
M  V30 4969 H 462.505 -0.10059 3.66462 0
M  V30 4970 H 462.153 -2.47063 4.38143 0
M  V30 4971 H 461.853 -1.3364 5.72201 0
M  V30 4972 H 463.377 -2.26735 5.66942 0
M  V30 4973 H 464.791 0.00319931 5.733 0
M  V30 4974 H 463.188 0.763402 5.95224 0
M  V30 4975 H 464.258 1.33799 4.66075 0
M  V30 4976 N 465.601 -1.54893 0.290851 0
M  V30 4977 C 466.531 -2.26103 -0.583084 0
M  V30 4978 C 467.512 -1.25684 -1.14619 0
M  V30 4979 O 468.697 -1.54436 -1.17741 0
M  V30 4980 C 465.827 -2.99409 -1.75987 0
M  V30 4981 C 464.781 -4.0689 -1.32758 0
M  V30 4982 C 464.107 -4.67856 -2.58872 0
M  V30 4983 C 465.407 -5.20215 -0.46624 0
M  V30 4984 H 467.101 -2.99398 0.0108214 0
M  V30 4985 H 464.647 -1.43998 0.00664468 0
M  V30 4986 H 466.6 -3.47943 -2.37727 0
M  V30 4987 H 465.324 -2.23675 -2.37985 0
M  V30 4988 H 463.983 -3.59191 -0.733299 0
M  V30 4989 H 463.631 -3.88772 -3.19163 0
M  V30 4990 H 463.331 -5.40438 -2.30653 0
M  V30 4991 H 464.855 -5.19147 -3.21433 0
M  V30 4992 H 466.269 -5.64704 -0.989047 0
M  V30 4993 H 464.666 -5.99455 -0.27826 0
M  V30 4994 H 465.736 -4.82198 0.511173 0
M  V30 4995 N 467.08 -0.0183926 -1.57589 0
M  V30 4996 C 468.043 0.951986 -2.08494 0
M  V30 4997 C 469.043 1.26092 -0.997874 0
M  V30 4998 O 470.233 1.20304 -1.25987 0
M  V30 4999 C 467.365 2.27165 -2.54182 0
M  V30 5000 H 468.558 0.511307 -2.95509 0
M  V30 5001 H 466.111 0.229444 -1.54607 0
M  V30 5002 H 466.846 2.75884 -1.70465 0
M  V30 5003 H 466.631 2.06057 -3.33591 0
M  V30 5004 H 468.121 2.9674 -2.93828 0
M  V30 5005 N 468.558 1.5553 0.254621 0
M  V30 5006 C 469.806 1.7665 0.981793 0
M  V30 5007 C 470.127 0.580963 1.86145 0
M  V30 5008 O 469.397 -0.403537 1.91699 0
M  V30 5009 H 467.977 0.651475 0.365498 0
M  V30 5010 H 470.639 1.92958 0.274426 0
M  V30 5011 H 469.735 2.67486 1.60802 0
M  V30 5012 N 470.036 -0.519951 1.48776 0
M  V30 5013 C 471.282 -1.27711 1.57536 0
M  V30 5014 C 471.615 -1.92547 0.252866 0
M  V30 5015 O 470.89 -1.7979 -0.742021 0
M  V30 5016 C 471.173 -2.35875 2.72094 0
M  V30 5017 C 471.026 -1.75664 4.1408 0
M  V30 5018 C 472.345 -3.37575 2.82367 0
M  V30 5019 H 469.464 -0.462971 0.573434 0
M  V30 5020 H 472.106 -0.578194 1.80989 0
M  V30 5021 H 470.256 -2.95488 2.52228 0
M  V30 5022 H 471.928 -1.20025 4.45412 0
M  V30 5023 H 470.171 -1.06154 4.20611 0
M  V30 5024 H 470.842 -2.54029 4.90075 0
M  V30 5025 H 473.318 -2.87929 3.00393 0
M  V30 5026 H 472.194 -4.1064 3.64233 0
M  V30 5027 H 472.455 -3.98743 1.90936 0
M  V30 5028 N 471.514 -1.37532 -0.769588 0
M  V30 5029 C 472.791 -1.23392 -1.51768 0
M  V30 5030 C 473.171 0.17157 -2.10402 0
M  V30 5031 O 472.519 1.17943 -1.95708 0
M  V30 5032 C 472.729 -2.33163 -2.59685 0
M  V30 5033 C 474.077 -2.70809 -3.27028 0
M  V30 5034 O 475.101 -2.32355 -2.69981 0
M  V30 5035 O 473.96 -3.37066 -4.30173 0
M  V30 5036 H 471.054 -0.481617 -0.67229 0
M  V30 5037 H 473.6 -1.49318 -0.806368 0
M  V30 5038 H 472.372 -3.27273 -2.14494 0
M  V30 5039 H 471.995 -2.08713 -3.38415 0
M  V30 5040 N 472.992 0.995999 -1.22138 0
M  V30 5041 C 474.22 1.77066 -1.07029 0
M  V30 5042 C 474.635 1.8495 0.379357 0
M  V30 5043 O 473.992 1.3174 1.26297 0
M  V30 5044 C 474.043 3.20533 -1.67155 0
M  V30 5045 O 473.764 3.13082 -3.06449 0
M  V30 5046 C 475.265 4.14461 -1.5728 0
M  V30 5047 H 472.485 0.556179 -0.375374 0
M  V30 5048 H 475.029 1.25238 -1.61666 0
M  V30 5049 H 473.184 3.6944 -1.16589 0
M  V30 5050 H 473.598 4.03283 -3.35355 0
M  V30 5051 H 475.072 5.1289 -2.04078 0
M  V30 5052 H 475.549 4.36005 -0.528795 0
M  V30 5053 H 476.155 3.71449 -2.07136 0
M  V30 5054 N 474.47 1.03057 1.19235 0
M  V30 5055 C 475.716 0.729098 1.89241 0
M  V30 5056 C 476.049 -0.740573 1.79525 0
M  V30 5057 O 475.324 -1.53946 1.18874 0
M  V30 5058 C 475.607 1.18304 3.40112 0
M  V30 5059 C 475.46 2.71406 3.5869 0
M  V30 5060 C 476.779 0.765161 4.33397 0
M  V30 5061 H 473.898 0.266338 0.687192 0
M  V30 5062 H 476.54 1.28079 1.40341 0
M  V30 5063 H 474.69 0.713672 3.81889 0
M  V30 5064 H 476.362 3.26303 3.26074 0
M  V30 5065 H 474.605 3.11717 3.01687 0
M  V30 5066 H 475.276 2.98225 4.64506 0
M  V30 5067 H 477.752 1.16889 3.99345 0
M  V30 5068 H 476.628 1.11065 5.37546 0
M  V30 5069 H 476.889 -0.332372 4.40849 0
M  V30 5070 N 475.948 -1.35272 0.808662 0
M  V30 5071 C 477.173 -2.03477 0.401475 0
M  V30 5072 C 477.598 -1.60537 -0.980279 0
M  V30 5073 O 476.956 -0.78304 -1.63518 0
M  V30 5074 C 477.004 -3.57181 0.495354 0
M  V30 5075 O 476.108 -4.09474 -0.490397 0
M  V30 5076 H 475.449 -0.642561 0.167366 0
M  V30 5077 H 477.979 -1.72824 1.09512 0
M  V30 5078 H 477.989 -4.06356 0.365912 0
M  V30 5079 H 476.664 -3.87784 1.5032 0
M  V30 5080 H 475.241 -3.71516 -0.321023 0
M  V30 5081 N 477.426 -0.562348 -1.47226 0
M  V30 5082 C 478.374 0.195476 -2.31777 0
M  V30 5083 C 479.368 0.90433 -1.43242 0
M  V30 5084 O 480.574 0.825031 -1.59979 0
M  V30 5085 H 476.949 0.0819095 -0.747526 0
M  V30 5086 H 478.92 -0.536753 -2.93533 0
M  V30 5087 C 477.669 1.20902 -3.26003 0
M  V30 5088 H 476.992 0.672997 -3.94095 0
M  V30 5089 H 478.432 1.71006 -3.87986 0
M  V30 5090 C 476.891 2.25955 -2.49891 0
M  V30 5091 O 477.421 3.32969 -2.2471 0
M  V30 5092 N 475.627 2.00019 -2.1081 0
M  V30 5093 H 475.174 1.13006 -2.31489 0
M  V30 5094 H 475.132 2.70523 -1.60201 0
M  V30 5095 N 478.904 1.54736 -0.299062 0
M  V30 5096 C 480.132 2.04512 0.313447 0
M  V30 5097 C 480.547 1.17643 1.47667 0
M  V30 5098 O 479.904 0.20164 1.81383 0
M  V30 5099 C 479.955 3.53171 0.771542 0
M  V30 5100 O 479.676 4.36736 -0.345379 0
M  V30 5101 C 481.177 4.18936 1.4494 0
M  V30 5102 H 478.397 0.667507 0.0683784 0
M  V30 5103 H 480.941 1.99752 -0.438129 0
M  V30 5104 H 479.096 3.58298 1.47314 0
M  V30 5105 H 479.51 5.24499 0.0109219 0
M  V30 5106 H 480.984 5.24482 1.72111 0
M  V30 5107 H 481.461 3.68554 2.38883 0
M  V30 5108 H 482.067 4.17879 0.791028 0
M  V30 5109 N 480.382 0.0267497 1.57577 0
M  V30 5110 C 481.312 -0.954308 2.13108 0
M  V30 5111 C 482.293 -1.34088 1.04663 0
M  V30 5112 O 483.478 -1.41992 1.32484 0
M  V30 5113 C 480.608 -2.23744 2.65624 0
M  V30 5114 C 479.562 -1.99168 3.78835 0
M  V30 5115 C 478.888 -3.33726 4.17769 0
M  V30 5116 C 480.188 -1.33277 5.0501 0
M  V30 5117 H 481.882 -0.491848 2.95332 0
M  V30 5118 H 479.428 -0.23514 1.42067 0
M  V30 5119 H 481.381 -2.92754 3.03106 0
M  V30 5120 H 480.105 -2.72151 1.80558 0
M  V30 5121 H 478.764 -1.32577 3.41788 0
M  V30 5122 H 478.412 -3.79888 3.29688 0
M  V30 5123 H 478.112 -3.18089 4.94058 0
M  V30 5124 H 479.636 -4.04008 4.57832 0
M  V30 5125 H 481.05 -1.92283 5.40093 0
M  V30 5126 H 479.447 -1.28045 5.8628 0
M  V30 5127 H 480.517 -0.305411 4.83937 0
M  V30 5128 N 481.861 -1.55662 -0.24637 0
M  V30 5129 C 483.086 -1.81914 -0.996093 0
M  V30 5130 C 483.511 -0.603875 -1.78143 0
M  V30 5131 O 482.869 0.447091 -1.75701 0
M  V30 5132 C 482.917 -3.05908 -1.90925 0
M  V30 5133 O 482.021 -2.82861 -3.00105 0
M  V30 5134 H 481.362 -0.600481 -0.283406 0
M  V30 5135 H 483.892 -2.02848 -0.267199 0
M  V30 5136 H 483.902 -3.35356 -2.3238 0
M  V30 5137 H 482.577 -3.93999 -1.33183 0
M  V30 5138 H 481.154 -2.64583 -2.62775 0
M  V30 5139 N 483.339 0.512053 -1.4905 0
M  V30 5140 C 484.585 1.26613 -1.59187 0
M  V30 5141 C 484.94 1.90494 -0.270163 0
M  V30 5142 O 484.233 1.77204 0.728648 0
M  V30 5143 C 484.427 2.36446 -2.68008 0
M  V30 5144 C 484.256 1.83334 -4.10632 0
M  V30 5145 C 483.026 1.65131 -4.77556 0
M  V30 5146 C 485.224 1.35153 -4.96224 0
M  V30 5147 N 483.206 1.06833 -6.04533 0
M  V30 5148 C 484.577 0.889186 -6.13591 0
M  V30 5149 C 486.632 1.23623 -4.82309 0
M  V30 5150 C 485.335 0.322953 -7.18575 0
M  V30 5151 C 487.361 0.683978 -5.87431 0
M  V30 5152 C 486.723 0.2318 -7.04018 0
M  V30 5153 H 482.822 0.453678 -0.636946 0
M  V30 5154 H 485.406 0.575217 -1.86009 0
M  V30 5155 H 483.577 3.03012 -2.42978 0
M  V30 5156 H 485.309 3.03485 -2.67729 0
M  V30 5157 H 482.064 1.89178 -4.34176 0
M  V30 5158 H 482.488 0.796425 -6.72299 0
M  V30 5159 H 487.13 1.57184 -3.92496 0
M  V30 5160 H 484.848 -0.024943 -8.08096 0
M  V30 5161 H 488.434 0.597694 -5.78722 0
M  V30 5162 H 487.314 -0.188869 -7.83973 0
M  V30 5163 N 484.817 1.37938 0.762283 0
M  V30 5164 C 485.78 1.34279 1.85747 0
M  V30 5165 C 486.78 0.244969 1.58923 0
M  V30 5166 O 487.97 0.501365 1.66829 0
M  V30 5167 C 485.102 1.08833 3.23061 0
M  V30 5168 H 486.295 2.31705 1.90401 0
M  V30 5169 H 483.848 1.23105 0.963057 0
M  V30 5170 H 484.583 0.119767 3.24079 0
M  V30 5171 H 484.368 1.88306 3.43923 0
M  V30 5172 H 485.858 1.08946 4.03138 0
M  V30 5173 N 486.295 -0.989507 1.22664 0
M  V30 5174 C 487.225 -2.09847 1.02404 0
M  V30 5175 C 488.206 -1.70007 -0.0561303 0
M  V30 5176 O 489.391 -1.93906 0.106748 0
M  V30 5177 C 486.521 -3.41996 0.604663 0
M  V30 5178 C 485.475 -3.95699 1.63115 0
M  V30 5179 C 484.801 -5.23936 1.0675 0
M  V30 5180 C 486.101 -4.25999 3.02196 0
M  V30 5181 H 487.795 -2.27054 1.95158 0
M  V30 5182 H 485.341 -1.09111 0.939727 0
M  V30 5183 H 487.294 -4.1899 0.45002 0
M  V30 5184 H 486.018 -3.24626 -0.35855 0
M  V30 5185 H 484.677 -3.2084 1.77362 0
M  V30 5186 H 484.325 -5.02909 0.0955422 0
M  V30 5187 H 484.025 -5.60833 1.75328 0
M  V30 5188 H 485.549 -6.0356 0.924516 0
M  V30 5189 H 486.963 -4.93777 2.91303 0
M  V30 5190 H 485.36 -4.74076 3.67929 0
M  V30 5191 H 486.43 -3.33636 3.51873 0
M  V30 5192 N 487.773 -1.03688 -1.18687 0
M  V30 5193 C 489.003 -0.756819 -1.92239 0
M  V30 5194 C 489.411 0.689374 -1.76194 0
M  V30 5195 O 488.754 1.48126 -1.08648 0
M  V30 5196 C 488.816 -1.03851 -3.44173 0
M  V30 5197 C 488.48 -2.47785 -3.83994 0
M  V30 5198 C 489.477 -3.4595 -3.88091 0
M  V30 5199 C 487.162 -2.82397 -4.154 0
M  V30 5200 C 489.156 -4.76779 -4.23038 0
M  V30 5201 C 486.843 -4.13433 -4.50018 0
M  V30 5202 C 487.841 -5.10434 -4.53813 0
M  V30 5203 O 487.529 -6.39122 -4.87625 0
M  V30 5204 H 487.261 -0.275678 -0.617234 0
M  V30 5205 H 489.815 -1.38658 -1.51536 0
M  V30 5206 H 488.045 -0.351612 -3.85098 0
M  V30 5207 H 489.734 -0.746846 -3.9897 0
M  V30 5208 H 490.5 -3.20549 -3.63969 0
M  V30 5209 H 486.379 -2.07568 -4.11627 0
M  V30 5210 H 489.923 -5.52488 -4.25914 0
M  V30 5211 H 485.82 -4.38604 -4.736 0
M  V30 5212 H 486.588 -6.43715 -5.05542 0
M  V30 5213 N 489.251 1.34841 -0.815825 0
M  V30 5214 C 490.161 2.33425 -0.234462 0
M  V30 5215 C 491.177 1.62295 0.627413 0
M  V30 5216 O 492.353 1.94109 0.536987 0
M  V30 5217 C 489.418 3.41471 0.599849 0
M  V30 5218 C 488.479 4.28362 -0.283596 0
M  V30 5219 C 487.712 5.31248 0.51099 0
M  V30 5220 O 487.935 5.43056 1.7449 0
M  V30 5221 O 486.869 6.01812 -0.10297 0
M  V30 5222 H 490.695 2.84962 -1.05024 0
M  V30 5223 H 488.28 1.37774 -0.577809 0
M  V30 5224 H 490.162 4.07464 1.07475 0
M  V30 5225 H 488.837 2.9219 1.39308 0
M  V30 5226 H 487.744 3.65318 -0.805836 0
M  V30 5227 H 489.077 4.81066 -1.041 0
M  V30 5228 N 490.729 0.570148 1.46925 0
M  V30 5229 C 491.659 -0.158274 2.32963 0
M  V30 5230 C 492.64 -0.896093 1.44583 0
M  V30 5231 O 493.825 -0.874022 1.7342 0
M  V30 5232 C 490.955 -1.18055 3.26619 0
M  V30 5233 C 489.909 -0.558379 4.24342 0
M  V30 5234 C 489.235 -1.68623 5.07415 0
M  V30 5235 C 490.535 0.496295 5.19937 0
M  V30 5236 H 492.229 0.560046 2.94115 0
M  V30 5237 H 489.775 0.270775 1.41431 0
M  V30 5238 H 491.728 -1.69841 3.85658 0
M  V30 5239 H 490.452 -1.92899 2.63548 0
M  V30 5240 H 489.111 -0.0617157 3.66548 0
M  V30 5241 H 488.759 -2.42402 4.40738 0
M  V30 5242 H 488.459 -1.27564 5.73586 0
M  V30 5243 H 489.983 -2.20709 5.69315 0
M  V30 5244 H 491.397 0.0640052 5.73264 0
M  V30 5245 H 489.794 0.82649 5.94381 0
M  V30 5246 H 490.864 1.38735 4.6463 0
M  V30 5247 N 492.207 -1.54576 0.307264 0
M  V30 5248 C 493.432 -2.05139 -0.305379 0
M  V30 5249 C 493.857 -1.18278 -1.46259 0
M  V30 5250 O 493.215 -0.188243 -1.8032 0
M  V30 5251 C 493.263 -3.53066 -0.733283 0
M  V30 5252 O 492.367 -3.69206 -1.83741 0
M  V30 5253 H 491.708 -0.661444 -0.0582105 0
M  V30 5254 H 494.238 -1.99569 0.450931 0
M  V30 5255 H 494.248 -3.95034 -1.02039 0
M  V30 5256 H 492.923 -4.15746 0.113198 0
M  V30 5257 H 491.5 -3.39143 -1.55037 0
M  V30 5258 N 493.685 -0.035106 -1.57561 0
M  V30 5259 C 495.101 0.321334 -1.56332 0
M  V30 5260 C 495.301 1.72509 -1.04129 0
M  V30 5261 O 494.357 2.4287 -0.690694 0
M  V30 5262 C 495.67 0.164469 -3.0025 0
M  V30 5263 C 497.218 0.236786 -3.12103 0
M  V30 5264 C 497.693 0.10864 -4.57871 0
M  V30 5265 N 499.184 0.165433 -4.62904 0
M  V30 5266 C 499.919 0.0901506 -5.73329 0
M  V30 5267 N 499.415 -0.0365606 -6.9279 0
M  V30 5268 N 501.208 0.144572 -5.61914 0
M  V30 5269 H 493.359 -0.952976 -1.89821 0
M  V30 5270 H 495.622 -0.368537 -0.873432 0
M  V30 5271 H 495.328 -0.802746 -3.42416 0
M  V30 5272 H 495.202 0.932194 -3.655 0
M  V30 5273 H 497.589 1.19446 -2.69845 0
M  V30 5274 H 497.67 -0.561419 -2.49563 0
M  V30 5275 H 497.314 -0.845644 -5.00811 0
M  V30 5276 H 497.244 0.925786 -5.18398 0
M  V30 5277 H 499.735 0.263269 -3.76982 0
M  V30 5278 H 500.048 -0.0871487 -7.72751 0
M  V30 5279 H 498.393 -0.0714256 -6.94963 0
M  V30 5280 H 501.584 0.242006 -4.67474 0
M  V30 5281 H 501.757 0.0824413 -6.47948 0
M  V30 5282 N 495.163 1.55791 0.238111 0
M  V30 5283 C 496.113 1.87444 1.29803 0
M  V30 5284 C 497.097 0.736043 1.43078 0
M  V30 5285 O 498.289 0.998146 1.46171 0
M  V30 5286 C 495.418 2.18028 2.65177 0
M  V30 5287 C 494.504 3.38217 2.55871 0
M  V30 5288 N 494.895 4.57264 2.16202 0
M  V30 5289 C 493.193 3.41502 2.86866 0
M  V30 5290 C 493.894 5.3941 2.17744 0
M  V30 5291 N 492.87 4.78695 2.57589 0
M  V30 5292 H 496.672 2.7701 0.981965 0
M  V30 5293 H 494.186 1.56135 0.44672 0
M  V30 5294 H 496.183 2.38873 3.4168 0
M  V30 5295 H 494.843 1.29765 2.97643 0
M  V30 5296 H 495.854 4.82727 1.87602 0
M  V30 5297 H 492.531 2.63536 3.23813 0
M  V30 5298 H 493.921 6.44671 1.89339 0
M  V30 5299 N 496.642 -0.504142 1.49319 0
M  V30 5300 C 498.053 -1.08572 1.51885 0
M  V30 5301 C 498.404 -1.93842 0.303255 0
M  V30 5302 O 497.529 -2.0828 -0.58724 0
M  V30 5303 C 498.124 -1.97574 2.75227 0
M  V30 5304 C 496.683 -2.509 2.80581 0
M  V30 5305 C 495.83 -1.28447 2.45757 0
M  V30 5306 H 498.781 -0.288194 1.56061 0
M  V30 5307 H 498.802 -2.82219 2.55211 0
M  V30 5308 H 498.314 -1.35486 3.63683 0
M  V30 5309 H 496.415 -3.16636 1.96398 0
M  V30 5310 H 496.528 -2.88268 3.82673 0
M  V30 5311 H 494.892 -1.60868 1.97468 0
M  V30 5312 H 495.675 -0.68072 3.36483 0
M  V30 5313 N 498.12 -1.38341 -0.754957 0
M  V30 5314 C 499.03 -1.3769 -1.89944 0
M  V30 5315 C 500.046 -0.274194 -1.71826 0
M  V30 5316 O 501.222 -0.512391 -1.94773 0
M  V30 5317 C 498.287 -1.19938 -3.25293 0
M  V30 5318 C 497.348 -2.40001 -3.55946 0
M  V30 5319 C 496.581 -2.23087 -4.84838 0
M  V30 5320 O 496.804 -1.22386 -5.57116 0
M  V30 5321 O 495.738 -3.11646 -5.14937 0
M  V30 5322 H 499.564 -2.3412 -1.93446 0
M  V30 5323 H 497.149 -1.19246 -0.900044 0
M  V30 5324 H 499.031 -1.12093 -4.06218 0
M  V30 5325 H 497.706 -0.265919 -3.22606 0
M  V30 5326 H 496.613 -2.53421 -2.75188 0
M  V30 5327 H 497.946 -3.31973 -3.63394 0
M  V30 5328 N 499.598 0.982988 -1.23187 0
M  V30 5329 C 500.844 1.72648 -1.06398 0
M  V30 5330 C 501.177 1.90066 0.398561 0
M  V30 5331 O 500.452 1.45105 1.29518 0
M  V30 5332 C 500.735 3.12627 -1.78707 0
M  V30 5333 C 500.588 3.02795 -3.32618 0
M  V30 5334 C 501.907 4.11997 -1.54747 0
M  V30 5335 H 499.026 0.626649 -0.387918 0
M  V30 5336 H 501.668 1.14455 -1.51658 0
M  V30 5337 H 499.818 3.62308 -1.40234 0
M  V30 5338 H 501.49 2.60659 -3.80598 0
M  V30 5339 H 499.733 2.39362 -3.61785 0
M  V30 5340 H 500.404 4.01893 -3.78399 0
M  V30 5341 H 502.88 3.71114 -1.88186 0
M  V30 5342 H 501.756 5.08037 -2.07821 0
M  V30 5343 H 502.017 4.39462 -0.482249 0
M  V30 5344 N 501.076 1.04316 1.18135 0
M  V30 5345 C 502.008 0.594444 2.21357 0
M  V30 5346 C 503.021 -0.337215 1.59269 0
M  V30 5347 O 504.21 -0.131337 1.78016 0
M  V30 5348 C 501.31 -0.151251 3.38562 0
M  V30 5349 C 500.483 0.788907 4.30227 0
M  V30 5350 C 499.542 0.0860572 5.2613 0
M  V30 5351 O 498.568 0.717302 5.64662 0
M  V30 5352 N 499.77 -1.17969 5.68387 0
M  V30 5353 H 502.535 1.48227 2.60478 0
M  V30 5354 H 500.096 0.92396 1.32946 0
M  V30 5355 H 502.088 -0.631352 3.99745 0
M  V30 5356 H 500.658 -0.940639 2.98112 0
M  V30 5357 H 499.878 1.44882 3.6661 0
M  V30 5358 H 501.166 1.42738 4.88368 0
M  V30 5359 H 500.564 -1.71302 5.3914 0
M  V30 5360 H 499.121 -1.60402 6.31755 0
M  V30 5361 N 502.554 -1.34406 0.822964 0
M  V30 5362 C 503.782 -2.02508 0.424039 0
M  V30 5363 C 504.197 -1.61975 -0.970022 0
M  V30 5364 O 503.554 -0.825228 -1.62777 0
M  V30 5365 C 503.605 -3.57789 0.516657 0
M  V30 5366 O 503.326 -3.96853 1.85577 0
M  V30 5367 C 504.827 -4.43157 0.112637 0
M  V30 5368 H 502.047 -0.649063 0.170173 0
M  V30 5369 H 504.591 -1.7168 1.11113 0
M  V30 5370 H 502.746 -3.87207 -0.122353 0
M  V30 5371 H 503.16 -4.91538 1.83005 0
M  V30 5372 H 504.634 -5.51527 0.228526 0
M  V30 5373 H 505.111 -4.28939 -0.943837 0
M  V30 5374 H 505.717 -4.19067 0.725449 0
M  V30 5375 N 504.032 -0.577932 -1.46621 0
M  V30 5376 C 504.995 0.147805 -2.28723 0
M  V30 5377 C 505.995 0.823325 -1.38123 0
M  V30 5378 O 507.185 0.676011 -1.60548 0
M  V30 5379 C 504.317 1.21853 -3.18378 0
M  V30 5380 H 505.51 -0.573654 -2.94362 0
M  V30 5381 H 503.063 -0.335703 -1.52652 0
M  V30 5382 H 503.798 1.97173 -2.57475 0
M  V30 5383 H 503.583 0.738714 -3.85078 0
M  V30 5384 H 505.073 1.72768 -3.80186 0
M  V30 5385 N 505.51 1.54411 -0.315457 0
M  V30 5386 C 506.44 2.27002 0.547039 0
M  V30 5387 C 507.421 1.27492 1.12605 0
M  V30 5388 O 508.606 1.5629 1.15269 0
M  V30 5389 C 505.736 3.02171 1.71201 0
M  V30 5390 C 504.69 4.0895 1.26268 0
M  V30 5391 C 504.016 4.71915 2.51396 0
M  V30 5392 C 505.316 5.20891 0.383419 0
M  V30 5393 H 507.01 2.99343 -0.0584517 0
M  V30 5394 H 504.556 1.4397 -0.0295527 0
M  V30 5395 H 506.509 3.51681 2.32161 0
M  V30 5396 H 505.233 2.27433 2.34397 0
M  V30 5397 H 503.892 3.60312 0.676062 0
M  V30 5398 H 503.54 3.93801 3.12937 0
M  V30 5399 H 503.24 5.44039 2.22026 0
M  V30 5400 H 504.764 5.24195 3.13133 0
M  V30 5401 H 506.178 5.66206 0.899082 0
M  V30 5402 H 504.575 5.99821 0.182857 0
M  V30 5403 H 505.645 4.81324 -0.587821 0
M  V30 5404 N 506.988 0.0434614 1.5754 0
M  V30 5405 C 507.938 -0.943039 2.07583 0
M  V30 5406 C 508.922 -1.27662 0.979342 0
M  V30 5407 O 510.114 -1.26034 1.24276 0
M  V30 5408 C 507.243 -2.22056 2.61813 0
M  V30 5409 C 506.329 -1.91471 3.78417 0
M  V30 5410 N 506.72 -1.31214 4.88484 0
M  V30 5411 C 505.018 -2.21384 3.87176 0
M  V30 5412 C 505.719 -1.18084 5.69588 0
M  V30 5413 N 504.695 -1.68116 5.16951 0
M  V30 5414 H 508.497 -0.472354 2.90079 0
M  V30 5415 H 506.011 -0.161191 1.61598 0
M  V30 5416 H 508.008 -2.93618 2.95963 0
M  V30 5417 H 506.668 -2.69738 1.80752 0
M  V30 5418 H 507.679 -0.985318 5.08441 0
M  V30 5419 H 504.356 -2.7164 3.17046 0
M  V30 5420 H 505.746 -0.713684 6.68099 0
M  V30 5421 N 508.466 -1.55915 -0.229846 0
M  V30 5422 C 509.691 -1.8296 -0.976743 0
M  V30 5423 C 510.116 -0.622735 -1.77493 0
M  V30 5424 O 509.474 0.428431 -1.76165 0
M  V30 5425 C 509.522 -3.07916 -1.8767 0
M  V30 5426 O 508.626 -2.86028 -2.97088 0
M  V30 5427 H 507.967 -0.603453 -0.277021 0
M  V30 5428 H 510.497 -2.0312 -0.245669 0
M  V30 5429 H 510.507 -3.37802 -2.2881 0
M  V30 5430 H 509.182 -3.95389 -1.28996 0
M  V30 5431 H 507.759 -2.67355 -2.59954 0
M  V30 5432 N 509.944 0.496216 -1.49584 0
M  V30 5433 C 510.854 1.62352 -1.69349 0
M  V30 5434 C 511.87 1.64184 -0.576147 0
M  V30 5435 O 513.046 1.82517 -0.85144 0
M  V30 5436 C 510.111 2.98698 -1.76013 0
M  V30 5437 C 509.172 3.07454 -2.99617 0
M  V30 5438 C 508.405 4.37296 -3.05953 0
M  V30 5439 O 508.628 5.2637 -2.19752 0
M  V30 5440 O 507.562 4.51124 -3.9846 0
M  V30 5441 H 511.388 1.48606 -2.64859 0
M  V30 5442 H 508.973 0.673022 -1.33382 0
M  V30 5443 H 510.855 3.79725 -1.82721 0
M  V30 5444 H 509.53 3.12696 -0.836828 0
M  V30 5445 H 508.437 2.25597 -2.98424 0
M  V30 5446 H 509.77 2.98385 -3.91443 0
M  V30 5447 N 511.423 1.38739 0.74761 0
M  V30 5448 C 512.672 1.3459 1.50228 0
M  V30 5449 C 512.985 -0.0595592 1.95509 0
M  V30 5450 O 514.191 -0.22361 2.70578 0
M  V30 5451 C 512.647 2.36377 2.71393 0
M  V30 5452 C 512.255 3.82573 2.33113 0
M  V30 5453 C 513.999 2.41281 3.49262 0
M  V30 5454 C 511.906 4.76032 3.50924 0
M  V30 5455 H 510.836 0.500312 0.564096 0
M  V30 5456 H 513.487 1.64324 0.8167 0
M  V30 5457 H 511.869 1.99694 3.41962 0
M  V30 5458 H 513.043 4.28227 1.70171 0
M  V30 5459 H 511.358 3.80844 1.68365 0
M  V30 5460 H 513.955 3.08301 4.36869 0
M  V30 5461 H 514.298 1.43353 3.9084 0
M  V30 5462 H 514.831 2.76793 2.85711 0
M  V30 5463 H 511.57 5.75177 3.14408 0
M  V30 5464 H 511.09 4.35066 4.12889 0
M  V30 5465 H 512.769 4.94331 4.17427 0
M  V30 5466 N 512.901 -0.976442 1.23707 0
M  V30 5467 C 514.129 -1.75341 1.09833 0
M  V30 5468 C 514.544 -1.8553 -0.349885 0
M  V30 5469 O 513.901 -1.33732 -1.24185 0
M  V30 5470 C 513.952 -3.17833 1.72233 0
M  V30 5471 O 513.673 -3.08167 3.11391 0
M  V30 5472 C 515.174 -4.11906 1.63853 0
M  V30 5473 H 512.394 -0.550137 0.384175 0
M  V30 5474 H 514.938 -1.2265 1.63638 0
M  V30 5475 H 513.093 -3.67538 1.22452 0
M  V30 5476 H 513.507 -3.97897 3.41729 0
M  V30 5477 H 514.981 -5.09579 2.12211 0
M  V30 5478 H 515.458 -4.35109 0.598092 0
M  V30 5479 H 516.064 -3.68107 2.13019 0
M  V30 5480 N 514.379 -1.04941 -1.1758 0
M  V30 5481 C 515.342 -0.652456 -2.19717 0
M  V30 5482 C 516.342 0.294745 -1.58076 0
M  V30 5483 O 517.532 0.0789579 -1.74021 0
M  V30 5484 C 514.664 0.0420712 -3.40874 0
M  V30 5485 H 515.857 -1.55642 -2.5635 0
M  V30 5486 H 513.41 -0.842995 -1.31618 0
M  V30 5487 H 514.145 0.95943 -3.09783 0
M  V30 5488 H 513.93 -0.638844 -3.86861 0
M  V30 5489 H 515.42 0.306 -4.16477 0
M  V30 5490 N 515.857 1.33968 -0.830081 0
M  V30 5491 C 516.82 2.27694 -0.26235 0
M  V30 5492 C 517.82 1.50589 0.563876 0
M  V30 5493 O 519.01 1.70028 0.378941 0
M  V30 5494 C 516.142 3.35002 0.63138 0
M  V30 5495 H 517.335 2.79419 -1.08928 0
M  V30 5496 H 514.888 1.44221 -0.602486 0
M  V30 5497 H 515.623 2.88504 1.48109 0
M  V30 5498 H 515.408 3.92079 0.0403276 0
M  V30 5499 H 516.898 4.04897 1.02217 0
M  V30 5500 N 517.335 0.585699 1.46312 0
M  V30 5501 C 518.265 -0.133556 2.33118 0
M  V30 5502 C 519.246 -0.880707 1.45525 0
M  V30 5503 O 520.431 -0.855579 1.74337 0
M  V30 5504 C 517.561 -1.14585 3.27853 0
M  V30 5505 C 516.515 -0.513341 4.2491 0
M  V30 5506 C 515.841 -1.63231 5.09175 0
M  V30 5507 C 517.141 0.551413 5.19381 0
M  V30 5508 H 518.835 0.59121 2.93505 0
M  V30 5509 H 516.381 0.285761 1.41136 0
M  V30 5510 H 518.334 -1.65741 3.87438 0
M  V30 5511 H 517.058 -1.90093 2.65579 0
M  V30 5512 H 515.717 -0.0228349 3.66593 0
M  V30 5513 H 515.365 -2.37713 4.43285 0
M  V30 5514 H 515.065 -1.21473 5.74907 0
M  V30 5515 H 516.589 -2.14658 5.71624 0
M  V30 5516 H 518.003 0.124804 5.73164 0
M  V30 5517 H 516.4 0.889486 5.93471 0
M  V30 5518 H 517.47 1.43655 4.63132 0
M  V30 5519 N 518.813 -1.54241 0.323641 0
M  V30 5520 C 520.038 -2.05452 -0.283605 0
M  V30 5521 C 520.463 -1.19823 -1.44997 0
M  V30 5522 O 519.821 -0.207358 -1.8011 0
M  V30 5523 C 519.869 -3.53823 -0.695795 0
M  V30 5524 O 518.973 -3.71134 -1.79815 0
M  V30 5525 H 518.314 -0.662024 -0.0511917 0
M  V30 5526 H 520.844 -1.99079 0.472073 0
M  V30 5527 H 520.854 -3.96094 -0.978434 0
M  V30 5528 H 519.529 -4.15602 0.157287 0
M  V30 5529 H 518.106 -3.40768 -1.51431 0
M  V30 5530 N 520.291 -0.0518155 -1.57515 0
M  V30 5531 C 521.702 0.483787 -1.80323 0
M  V30 5532 C 522.053 1.70879 -0.964099 0
M  V30 5533 O 521.178 2.15643 -0.180872 0
M  V30 5534 C 521.773 0.884459 -3.27052 0
M  V30 5535 C 520.332 1.36504 -3.50776 0
M  V30 5536 C 519.479 0.340539 -2.75201 0
M  V30 5537 H 522.43 -0.277691 -1.56252 0
M  V30 5538 H 522.451 1.74733 -3.38007 0
M  V30 5539 H 521.963 -0.00731093 -3.88099 0
M  V30 5540 H 520.064 2.27598 -2.95009 0
M  V30 5541 H 520.177 1.35675 -4.59488 0
M  V30 5542 H 518.541 0.81356 -2.41357 0
M  V30 5543 H 519.324 -0.543156 -3.38976 0
M  V30 5544 N 521.769 1.56035 0.221574 0
M  V30 5545 C 523.017 1.78693 0.944102 0
M  V30 5546 C 523.338 0.620317 1.8487 0
M  V30 5547 O 522.608 -0.362784 1.92512 0
M  V30 5548 H 521.188 0.659082 0.351597 0
M  V30 5549 H 523.85 1.93497 0.233435 0
M  V30 5550 H 522.946 2.70837 1.55093 0
M  V30 5551 N 523.247 -0.488276 1.49845 0
M  V30 5552 C 524.472 -1.26997 1.63971 0
M  V30 5553 C 524.897 -1.85427 0.315994 0
M  V30 5554 O 524.255 -1.66475 -0.718032 0
M  V30 5555 C 524.303 -2.36689 2.72049 0
M  V30 5556 O 523.407 -3.40882 2.32107 0
M  V30 5557 H 522.748 -0.374376 0.548396 0
M  V30 5558 H 525.278 -0.583104 1.96115 0
M  V30 5559 H 525.288 -2.82262 2.94605 0
M  V30 5560 H 523.963 -1.93529 3.68129 0
M  V30 5561 H 522.54 -3.01139 2.19931 0
M  V30 5562 N 524.725 -1.39134 -0.740242 0
M  V30 5563 C 525.95 -1.39518 -1.53459 0
M  V30 5564 C 526.375 0.00968883 -1.88098 0
M  V30 5565 O 525.733 0.995312 -1.51536 0
M  V30 5566 C 525.781 -2.26981 -2.802 0
M  V30 5567 O 524.885 -1.69609 -3.75908 0
M  V30 5568 H 524.226 -0.475328 -0.463637 0
M  V30 5569 H 526.756 -1.83064 -0.913717 0
M  V30 5570 H 526.766 -2.41309 -3.28989 0
M  V30 5571 H 525.441 -3.29081 -2.5432 0
M  V30 5572 H 524.018 -1.64495 -3.34658 0
M  V30 5573 N 526.204 0.969867 -1.24223 0
M  V30 5574 C 527.167 2.04564 -1.03373 0
M  V30 5575 C 528.167 1.60798 0.00819206 0
M  V30 5576 O 529.357 1.72641 -0.232567 0
M  V30 5577 C 526.489 3.36163 -0.566343 0
M  V30 5578 H 527.682 2.24494 -1.98853 0
M  V30 5579 H 525.235 1.1448 -1.06415 0
M  V30 5580 H 525.97 3.21925 0.391751 0
M  V30 5581 H 525.755 3.69273 -1.31834 0
M  V30 5582 H 527.245 4.1526 -0.441435 0
M  V30 5583 N 527.682 1.05563 1.17022 0
M  V30 5584 C 528.912 0.787307 1.91011 0
M  V30 5585 C 529.32 -0.661256 1.77268 0
M  V30 5586 O 528.663 -1.46379 1.10991 0
M  V30 5587 C 528.725 1.09313 3.42478 0
M  V30 5588 C 528.389 2.53863 3.80004 0
M  V30 5589 C 529.386 3.52081 3.82538 0
M  V30 5590 C 527.071 2.88969 4.10855 0
M  V30 5591 C 529.065 4.83449 4.15399 0
M  V30 5592 C 526.752 4.2054 4.43384 0
M  V30 5593 C 527.75 5.17589 4.45635 0
M  V30 5594 O 527.438 6.46799 4.77395 0
M  V30 5595 H 527.17 0.285463 0.61277 0
M  V30 5596 H 529.724 1.41051 1.49311 0
M  V30 5597 H 527.954 0.412833 3.8449 0
M  V30 5598 H 529.643 0.810224 3.97731 0
M  V30 5599 H 530.409 3.26299 3.58823 0
M  V30 5600 H 526.288 2.1409 4.08272 0
M  V30 5601 H 529.832 5.59194 4.1707 0
M  V30 5602 H 525.729 4.46083 4.66563 0
M  V30 5603 H 526.497 6.51677 4.95237 0
M  V30 5604 N 529.16 -1.33526 0.837174 0
M  V30 5605 C 530.571 -1.80182 0.489017 0
M  V30 5606 C 530.922 -1.69285 -0.991826 0
M  V30 5607 O 530.047 -1.24113 -1.77271 0
M  V30 5608 C 530.642 -3.27149 0.880866 0
M  V30 5609 C 529.201 -3.71828 0.584872 0
M  V30 5610 C 528.348 -2.54974 1.09011 0
M  V30 5611 H 531.299 -1.21071 1.02603 0
M  V30 5612 H 531.32 -3.80024 0.190239 0
M  V30 5613 H 530.832 -3.35048 1.95869 0
M  V30 5614 H 528.933 -3.69457 -0.48295 0
M  V30 5615 H 529.046 -4.65366 1.13892 0
M  V30 5616 H 527.41 -2.4952 0.511047 0
M  V30 5617 H 528.193 -2.65637 2.17467 0
M  V30 5618 N 530.638 -0.59345 -1.46 0
M  V30 5619 C 531.863 -0.0872365 -2.07216 0
M  V30 5620 C 532.288 1.2131 -1.43755 0
M  V30 5621 O 531.646 1.73528 -0.525152 0
M  V30 5622 C 531.694 0.0538197 -3.6056 0
M  V30 5623 O 530.798 1.10765 -3.97247 0
M  V30 5624 H 530.139 -0.0676598 -0.660544 0
M  V30 5625 H 532.669 -0.819445 -1.87473 0
M  V30 5626 H 532.679 0.256567 -4.07193 0
M  V30 5627 H 531.354 -0.895739 -4.0614 0
M  V30 5628 H 529.931 0.882501 -3.62307 0
M  V30 5629 N 532.116 1.54067 -0.331816 0
M  V30 5630 C 533.079 2.23275 0.517768 0
M  V30 5631 C 534.079 1.22897 1.03697 0
M  V30 5632 O 535.269 1.47419 0.928084 0
M  V30 5633 C 532.401 2.94326 1.72004 0
M  V30 5634 H 533.594 2.99773 -0.0873507 0
M  V30 5635 H 531.147 1.56079 -0.0830042 0
M  V30 5636 H 531.882 2.21986 2.36417 0
M  V30 5637 H 531.667 3.67941 1.35507 0
M  V30 5638 H 533.157 3.47031 2.32291 0
M  V30 5639 N 533.594 0.0601682 1.57485 0
M  V30 5640 C 534.822 -0.620937 1.97363 0
M  V30 5641 C 535.237 -1.63846 0.938082 0
M  V30 5642 O 534.594 -1.82339 -0.0766578 0
M  V30 5643 C 534.645 -1.29987 3.37321 0
M  V30 5644 O 534.366 -0.323081 4.36907 0
M  V30 5645 C 535.867 -2.06989 3.92008 0
M  V30 5646 H 533.087 -0.169135 0.649334 0
M  V30 5647 H 535.631 0.129132 2.04092 0
M  V30 5648 H 533.786 -2.0011 3.31715 0
M  V30 5649 H 534.2 -0.808754 5.18227 0
M  V30 5650 H 535.674 -2.49901 4.92192 0
M  V30 5651 H 536.151 -2.92173 3.2792 0
M  V30 5652 H 536.757 -1.41757 4.0098 0
M  V30 5653 N 535.072 -1.5615 -0.213296 0
M  V30 5654 C 536.318 -1.79812 -0.937849 0
M  V30 5655 C 536.651 -0.631201 -1.83656 0
M  V30 5656 O 535.926 0.369165 -1.90964 0
M  V30 5657 C 536.209 -3.13613 -1.76972 0
M  V30 5658 C 536.062 -4.40766 -0.89695 0
M  V30 5659 C 537.381 -3.43931 -2.7459 0
M  V30 5660 H 534.5 -0.654138 -0.339518 0
M  V30 5661 H 537.142 -1.88877 -0.20623 0
M  V30 5662 H 535.292 -3.06015 -2.39347 0
M  V30 5663 H 536.964 -4.60392 -0.289306 0
M  V30 5664 H 535.207 -4.33326 -0.202756 0
M  V30 5665 H 535.878 -5.30843 -1.51358 0
M  V30 5666 H 538.354 -3.5171 -2.22349 0
M  V30 5667 H 537.23 -4.38706 -3.29891 0
M  V30 5668 H 537.491 -2.6651 -3.52739 0
M  V30 5669 N 536.55 0.480323 -1.50102 0
M  V30 5670 C 537.48 1.58769 -1.71215 0
M  V30 5671 C 538.461 1.60583 -0.560997 0
M  V30 5672 O 539.646 1.76996 -0.799127 0
M  V30 5673 C 536.776 2.97148 -1.79778 0
M  V30 5674 C 535.73 3.10201 -2.94888 0
M  V30 5675 C 535.056 4.50137 -2.88584 0
M  V30 5676 C 536.356 2.88283 -4.35534 0
M  V30 5677 H 538.05 1.41354 -2.6393 0
M  V30 5678 H 535.596 0.678591 -1.27008 0
M  V30 5679 H 537.549 3.74536 -1.93133 0
M  V30 5680 H 536.273 3.15699 -0.836772 0
M  V30 5681 H 534.932 2.35244 -2.81169 0
M  V30 5682 H 534.58 4.65593 -1.90349 0
M  V30 5683 H 534.28 4.59808 -3.65856 0
M  V30 5684 H 535.804 5.29558 -3.03976 0
M  V30 5685 H 537.218 3.55427 -4.49827 0
M  V30 5686 H 535.615 3.09408 -5.14186 0
M  V30 5687 H 536.685 1.84219 -4.48544 0
M  V30 5688 N 538.028 1.39524 0.732853 0
M  V30 5689 C 539.253 1.40329 1.52717 0
M  V30 5690 C 539.678 0.000286574 1.881 0
M  V30 5691 O 539.036 -0.987262 1.52062 0
M  V30 5692 C 539.084 2.28464 2.78992 0
M  V30 5693 O 538.188 1.716 3.75003 0
M  V30 5694 H 537.529 0.47778 0.461109 0
M  V30 5695 H 540.059 1.83546 0.903996 0
M  V30 5696 H 540.069 2.43051 3.27705 0
M  V30 5697 H 538.744 3.30425 2.52572 0
M  V30 5698 H 537.321 1.66267 3.33781 0
M  V30 5699 N 539.506 -0.963266 1.24736 0
M  V30 5700 C 540.438 -2.06162 1.0015 0
M  V30 5701 C 541.451 -1.62771 -0.0305905 0
M  V30 5702 O 542.64 -1.77296 0.206966 0
M  V30 5703 C 539.74 -3.35333 0.490385 0
M  V30 5704 C 538.913 -4.07609 1.58663 0
M  V30 5705 C 537.972 -5.15052 1.0774 0
M  V30 5706 O 536.998 -5.4098 1.77002 0
M  V30 5707 N 538.2 -5.80436 -0.0858605 0
M  V30 5708 H 540.965 -2.27825 1.94719 0
M  V30 5709 H 538.526 -1.13121 1.15825 0
M  V30 5710 H 540.518 -4.04477 0.134371 0
M  V30 5711 H 539.088 -3.10507 -0.361155 0
M  V30 5712 H 538.308 -3.32681 2.11463 0
M  V30 5713 H 539.596 -4.52656 2.32336 0
M  V30 5714 H 538.994 -5.6178 -0.664806 0
M  V30 5715 H 537.551 -6.50674 -0.382981 0
M  V30 5716 N 540.985 -1.06182 -1.16461 0
M  V30 5717 C 541.915 -0.692861 -2.22984 0
M  V30 5718 C 542.896 0.314122 -1.67174 0
M  V30 5719 O 544.081 0.189499 -1.93273 0
M  V30 5720 C 541.211 -0.07732 -3.47214 0
M  V30 5721 C 540.165 -1.01015 -4.15909 0
M  V30 5722 C 539.491 -0.257973 -5.34077 0
M  V30 5723 C 540.791 -2.33868 -4.67015 0
M  V30 5724 H 542.485 -1.58343 -2.54102 0
M  V30 5725 H 540.031 -0.76279 -1.22137 0
M  V30 5726 H 541.984 0.19266 -4.20959 0
M  V30 5727 H 540.708 0.848254 -3.15392 0
M  V30 5728 H 539.367 -1.26486 -3.44088 0
M  V30 5729 H 539.015 0.670684 -4.98509 0
M  V30 5730 H 538.715 -0.879638 -5.80979 0
M  V30 5731 H 540.239 0.00448788 -6.106 0
M  V30 5732 H 541.653 -2.1279 -5.32347 0
M  V30 5733 H 540.05 -2.91522 -5.24533 0
M  V30 5734 H 541.12 -2.97019 -3.83286 0
M  V30 5735 N 542.463 1.3308 -0.844243 0
M  V30 5736 C 543.874 1.7992 -0.498566 0
M  V30 5737 C 544.225 1.69808 0.982834 0
M  V30 5738 O 543.35 1.25051 1.7661 0
M  V30 5739 C 543.945 3.26677 -0.898204 0
M  V30 5740 C 542.504 3.71513 -0.604583 0
M  V30 5741 C 541.651 2.54393 -1.10362 0
M  V30 5742 H 544.602 1.20526 -1.03244 0
M  V30 5743 H 544.623 3.79918 -0.21039 0
M  V30 5744 H 544.135 3.34004 -1.97643 0
M  V30 5745 H 542.236 3.69708 0.46335 0
M  V30 5746 H 542.349 4.64755 -1.16358 0
M  V30 5747 H 540.713 2.49246 -0.524273 0
M  V30 5748 H 541.496 2.6448 -2.18873 0
M  V30 5749 N 543.941 0.601185 1.45683 0
M  V30 5750 C 544.871 -0.108824 2.33246 0
M  V30 5751 C 545.852 -0.865223 1.46451 0
M  V30 5752 O 547.037 -0.83704 1.75235 0
M  V30 5753 C 544.167 -1.11101 3.2905 0
M  V30 5754 C 543.121 -0.468244 4.25431 0
M  V30 5755 C 542.447 -1.57822 5.10878 0
M  V30 5756 C 543.747 0.606469 5.18767 0
M  V30 5757 H 545.441 0.622306 2.92861 0
M  V30 5758 H 542.987 0.300714 1.40825 0
M  V30 5759 H 544.94 -1.61622 3.89174 0
M  V30 5760 H 543.664 -1.87265 2.67581 0
M  V30 5761 H 542.323 0.0160484 3.66596 0
M  V30 5762 H 541.971 -2.32998 4.45781 0
M  V30 5763 H 541.671 -1.15369 5.76163 0
M  V30 5764 H 543.195 -2.08583 5.73869 0
M  V30 5765 H 544.609 0.185589 5.73 0
M  V30 5766 H 543.006 0.952381 5.92494 0
M  V30 5767 H 544.076 1.48559 4.61582 0
M  V30 5768 N 545.419 -1.53889 0.339982 0
M  V30 5769 C 546.349 -2.27843 -0.510856 0
M  V30 5770 C 547.33 -1.29267 -1.10563 0
M  V30 5771 O 548.515 -1.58104 -1.12768 0
M  V30 5772 C 545.645 -3.04857 -1.66372 0
M  V30 5773 C 544.599 -4.10907 -1.19746 0
M  V30 5774 C 543.925 -4.75855 -2.43857 0
M  V30 5775 C 545.225 -5.21435 -0.300501 0
M  V30 5776 H 546.919 -2.99212 0.106067 0
M  V30 5777 H 544.465 -1.43904 0.0524533 0
M  V30 5778 H 546.418 -3.5533 -2.26537 0
M  V30 5779 H 545.142 -2.31133 -2.30749 0
M  V30 5780 H 543.801 -3.61342 -0.618654 0
M  V30 5781 H 543.449 -3.9873 -3.06633 0
M  V30 5782 H 543.149 -5.47502 -2.13343 0
M  V30 5783 H 544.673 -5.2911 -3.04754 0
M  V30 5784 H 546.087 -5.67565 -0.80889 0
M  V30 5785 H 544.484 -6.00036 -0.0874076 0
M  V30 5786 H 545.554 -4.80328 0.664321 0
M  V30 5787 N 546.897 -0.0685191 -1.57451 0
M  V30 5788 C 547.844 0.899861 -2.12535 0
M  V30 5789 C 548.814 1.29749 -1.03703 0
M  V30 5790 O 549.999 1.38392 -1.31348 0
M  V30 5791 C 547.139 2.16328 -2.6888 0
M  V30 5792 C 546.252 1.81857 -3.91857 0
M  V30 5793 C 545.387 3.02786 -4.36457 0
M  V30 5794 C 544.426 2.64317 -5.5209 0
M  V30 5795 N 543.563 3.77994 -5.91663 0
M  V30 5796 H 548.403 0.423243 -2.94979 0
M  V30 5797 H 545.94 0.197268 -1.45771 0
M  V30 5798 H 547.898 2.90281 -2.99655 0
M  V30 5799 H 546.528 2.61536 -1.89206 0
M  V30 5800 H 545.58 0.979808 -3.67565 0
M  V30 5801 H 546.892 1.49553 -4.75852 0
M  V30 5802 H 546.046 3.85021 -4.68875 0
M  V30 5803 H 544.785 3.38281 -3.51308 0
M  V30 5804 H 543.79 1.80503 -5.19325 0
M  V30 5805 H 545.015 2.29995 -6.38967 0
M  V30 5806 H 542.961 4.13258 -5.09464 0
M  V30 5807 H 542.878 3.49447 -6.7039 0
M  V30 5808 H 544.146 4.60818 -6.28703 0
M  V30 5809 N 548.375 1.56261 0.205012 0
M  V30 5810 C 549.338 1.92908 1.23771 0
M  V30 5811 C 550.338 0.809208 1.38955 0
M  V30 5812 O 551.528 1.07676 1.36936 0
M  V30 5813 C 548.66 2.19442 2.60879 0
M  V30 5814 H 549.853 2.85287 0.924728 0
M  V30 5815 H 547.406 1.49798 0.446125 0
M  V30 5816 H 548.141 1.29668 2.97248 0
M  V30 5817 H 547.926 3.0104 2.51232 0
M  V30 5818 H 549.416 2.48833 3.35368 0
M  V30 5819 N 549.853 -0.472356 1.50355 0
M  V30 5820 C 551.099 -1.22634 1.6152 0
M  V30 5821 C 551.432 -1.91645 0.313995 0
M  V30 5822 O 550.707 -1.82059 -0.684446 0
M  V30 5823 C 550.99 -2.27099 2.7946 0
M  V30 5824 C 550.843 -1.62402 4.19459 0
M  V30 5825 C 552.162 -3.28421 2.92964 0
M  V30 5826 H 549.281 -0.444494 0.587873 0
M  V30 5827 H 551.923 -0.520321 1.82737 0
M  V30 5828 H 550.073 -2.87314 2.61501 0
M  V30 5829 H 551.745 -1.05793 4.49005 0
M  V30 5830 H 549.988 -0.927184 4.23776 0
M  V30 5831 H 550.659 -2.38309 4.97909 0
M  V30 5832 H 553.135 -2.78227 3.09401 0
M  V30 5833 H 552.011 -3.98845 3.77113 0
M  V30 5834 H 552.272 -3.92467 2.03525 0
M  V30 5835 N 551.331 -1.39911 -0.725443 0
M  V30 5836 C 552.577 -1.37858 -1.48738 0
M  V30 5837 C 552.91 0.0224187 -1.94187 0
M  V30 5838 O 552.185 0.989204 -1.67466 0
M  V30 5839 C 552.468 -2.3594 -2.72038 0
M  V30 5840 C 552.321 -3.85023 -2.32546 0
M  V30 5841 C 553.64 -2.31704 -3.74167 0
M  V30 5842 H 550.759 -0.502074 -0.539528 0
M  V30 5843 H 553.401 -1.70974 -0.828728 0
M  V30 5844 H 551.551 -2.0783 -3.28236 0
M  V30 5845 H 553.223 -4.2392 -1.81905 0
M  V30 5846 H 551.466 -4.01334 -1.64661 0
M  V30 5847 H 552.137 -4.49152 -3.20884 0
M  V30 5848 H 554.613 -2.5658 -3.27576 0
M  V30 5849 H 553.489 -3.02395 -4.58092 0
M  V30 5850 H 553.75 -1.3253 -4.21768 0
M  V30 5851 N 552.809 0.956637 -1.25245 0
M  V30 5852 C 553.756 2.053 -1.05454 0
M  V30 5853 C 554.726 1.66062 0.0356889 0
M  V30 5854 O 555.911 1.90415 -0.121099 0
M  V30 5855 C 553.051 3.38391 -0.677191 0
M  V30 5856 C 552.164 3.90758 -1.84206 0
M  V30 5857 C 551.299 5.12165 -1.40926 0
M  V30 5858 C 550.338 5.56757 -2.54338 0
M  V30 5859 N 549.475 6.69376 -2.11848 0
M  V30 5860 H 554.315 2.21562 -1.99284 0
M  V30 5861 H 551.852 1.08578 -0.992434 0
M  V30 5862 H 553.81 4.1488 -0.43938 0
M  V30 5863 H 552.44 3.22021 0.224127 0
M  V30 5864 H 551.492 3.10808 -2.19323 0
M  V30 5865 H 552.804 4.19802 -2.69383 0
M  V30 5866 H 551.958 5.96065 -1.13098 0
M  V30 5867 H 550.697 4.84832 -0.528175 0
M  V30 5868 H 549.702 4.71423 -2.82913 0
M  V30 5869 H 550.927 5.861 -3.43022 0
M  V30 5870 H 548.873 6.43756 -1.26153 0
M  V30 5871 H 548.79 6.97927 -2.90574 0
M  V30 5872 H 550.058 7.5669 -1.87191 0
M  V30 5873 N 554.287 1.06798 1.15896 0
M  V30 5874 C 555.197 0.694564 2.24083 0
M  V30 5875 C 556.213 -0.291687 1.71538 0
M  V30 5876 O 557.389 -0.139723 2.00915 0
M  V30 5877 C 554.454 0.0921014 3.46578 0
M  V30 5878 C 553.515 1.13087 4.14137 0
M  V30 5879 C 552.748 0.557064 5.30785 0
M  V30 5880 O 552.971 -0.628623 5.66925 0
M  V30 5881 O 551.905 1.29924 5.8771 0
M  V30 5882 H 555.731 1.59663 2.58344 0
M  V30 5883 H 553.316 0.840575 1.2351 0
M  V30 5884 H 555.198 -0.241884 4.20705 0
M  V30 5885 H 553.873 -0.78337 3.14078 0
M  V30 5886 H 552.78 1.51712 3.41957 0
M  V30 5887 H 554.113 1.97805 4.50704 0
M  V30 5888 N 555.766 -1.3263 0.851289 0
M  V30 5889 C 557.012 -1.9766 0.453694 0
M  V30 5890 C 557.345 -1.67225 -0.987396 0
M  V30 5891 O 556.62 -0.958693 -1.69232 0
M  V30 5892 C 556.903 -3.5344 0.68936 0
M  V30 5893 C 556.756 -3.93517 2.17862 0
M  V30 5894 C 558.075 -4.39866 0.143555 0
M  V30 5895 H 555.194 -0.717989 0.166314 0
M  V30 5896 H 557.836 -1.57068 1.06909 0
M  V30 5897 H 555.986 -3.88147 0.165546 0
M  V30 5898 H 557.658 -3.69006 2.76826 0
M  V30 5899 H 555.901 -3.42798 2.65841 0
M  V30 5900 H 556.572 -5.02065 2.29422 0
M  V30 5901 H 559.048 -4.11875 0.591451 0
M  V30 5902 H 557.924 -5.47858 0.338043 0
M  V30 5903 H 558.185 -4.31696 -0.953466 0
M  V30 5904 N 557.244 -0.608902 -1.45362 0
M  V30 5905 C 558.174 0.0964526 -2.33301 0
M  V30 5906 C 559.155 0.857444 -1.46908 0
M  V30 5907 O 560.34 0.827735 -1.75676 0
M  V30 5908 C 557.47 1.09354 -3.29635 0
M  V30 5909 C 556.424 0.445676 -4.25673 0
M  V30 5910 C 555.75 1.5511 -5.11708 0
M  V30 5911 C 557.05 -0.633972 -5.18438 0
M  V30 5912 H 558.744 -0.637829 -2.92527 0
M  V30 5913 H 556.29 -0.308178 -1.40664 0
M  V30 5914 H 558.243 1.59556 -3.90025 0
M  V30 5915 H 556.967 1.85843 -2.6857 0
M  V30 5916 H 555.626 -0.0354897 -3.66583 0
M  V30 5917 H 555.274 2.30631 -4.4701 0
M  V30 5918 H 554.974 1.12311 -5.76767 0
M  V30 5919 H 556.498 2.05537 -5.74967 0
M  V30 5920 H 557.912 -0.215974 -5.72893 0
M  V30 5921 H 556.309 -0.983789 -5.91981 0
M  V30 5922 H 557.379 -1.51005 -4.60788 0
M  V30 5923 N 558.722 1.53707 -0.348139 0
M  V30 5924 C 560.138 1.596 0.00361134 0
M  V30 5925 C 560.338 1.36394 1.4832 0
M  V30 5926 O 559.394 1.16046 2.24253 0
M  V30 5927 C 560.707 2.97512 -0.436682 0
M  V30 5928 C 562.255 3.10568 -0.389416 0
M  V30 5929 C 562.73 4.50866 -0.805249 0
M  V30 5930 N 564.221 4.56929 -0.759616 0
M  V30 5931 C 564.956 5.63643 -1.05327 0
M  V30 5932 N 564.452 6.78189 -1.41531 0
M  V30 5933 N 566.245 5.5354 -0.977207 0
M  V30 5934 H 558.396 1.67044 -1.31187 0
M  V30 5935 H 560.659 0.782559 -0.535075 0
M  V30 5936 H 560.365 3.19575 -1.46849 0
M  V30 5937 H 560.239 3.76742 0.185744 0
M  V30 5938 H 562.626 2.88226 0.633228 0
M  V30 5939 H 562.707 2.33387 -1.04711 0
M  V30 5940 H 562.351 4.73943 -1.82593 0
M  V30 5941 H 562.281 5.26452 -0.124989 0
M  V30 5942 H 564.772 3.74675 -0.49265 0
M  V30 5943 H 565.085 7.55541 -1.62411 0
M  V30 5944 H 563.43 6.79624 -1.45381 0
M  V30 5945 H 566.621 4.62932 -0.693675 0
M  V30 5946 H 566.794 6.36614 -1.2094 0
M  V30 5947 N 560.2 0.0768682 1.57412 0
M  V30 5948 C 561.13 -0.886026 2.16037 0
M  V30 5949 C 562.111 -1.30691 1.08876 0
M  V30 5950 O 563.296 -1.37705 1.36934 0
M  V30 5951 C 560.426 -2.1518 2.72608 0
M  V30 5952 C 559.38 -1.87015 3.8498 0
M  V30 5953 C 558.706 -3.20266 4.28175 0
M  V30 5954 C 560.006 -1.17143 5.08994 0
M  V30 5955 H 561.7 -0.397642 2.96748 0
M  V30 5956 H 559.246 -0.189823 1.42743 0
M  V30 5957 H 561.199 -2.82962 3.12266 0
M  V30 5958 H 559.923 -2.66269 1.89125 0
M  V30 5959 H 558.582 -1.21636 3.45833 0
M  V30 5960 H 558.23 -3.69207 3.41607 0
M  V30 5961 H 557.93 -3.0221 5.03927 0
M  V30 5962 H 559.454 -3.89237 4.70454 0
M  V30 5963 H 560.868 -1.75003 5.45937 0
M  V30 5964 H 559.265 -1.09328 5.90057 0
M  V30 5965 H 560.335 -0.151295 4.84664 0
M  V30 5966 N 561.678 -1.56367 -0.196722 0
M  V30 5967 C 562.908 -1.84371 -0.932254 0
M  V30 5968 C 563.316 -0.657013 -1.77426 0
M  V30 5969 O 562.659 0.383576 -1.79651 0
M  V30 5970 C 562.721 -3.06454 -1.87952 0
M  V30 5971 C 562.385 -4.40425 -1.21962 0
M  V30 5972 C 563.382 -5.16457 -0.597343 0
M  V30 5973 C 561.067 -4.8716 -1.22396 0
M  V30 5974 C 563.061 -6.37399 0.0117913 0
M  V30 5975 C 560.748 -6.08038 -0.610995 0
M  V30 5976 C 561.746 -6.83 0.00580487 0
M  V30 5977 O 561.434 -8.01589 0.609173 0
M  V30 5978 H 561.166 -0.616377 -0.277589 0
M  V30 5979 H 563.72 -2.04329 -0.209452 0
M  V30 5980 H 561.95 -2.82377 -2.64197 0
M  V30 5981 H 563.639 -3.21118 -2.48271 0
M  V30 5982 H 564.405 -4.81445 -0.586142 0
M  V30 5983 H 560.284 -4.2877 -1.69345 0
M  V30 5984 H 563.828 -6.9585 0.493836 0
M  V30 5985 H 559.725 -6.42519 -0.619693 0
M  V30 5986 H 560.493 -8.16935 0.505919 0
M  V30 5987 N 563.156 0.464375 -1.50603 0
M  V30 5988 C 564.567 1.04507 -1.5471 0
M  V30 5989 C 564.918 1.9297 -0.354542 0
M  V30 5990 O 564.043 2.09763 0.531812 0
M  V30 5991 C 564.638 1.90207 -2.80369 0
M  V30 5992 C 563.197 2.43373 -2.87135 0
M  V30 5993 C 562.344 1.21886 -2.49076 0
M  V30 5994 H 565.295 0.246716 -1.56771 0
M  V30 5995 H 565.316 2.75353 -2.62604 0
M  V30 5996 H 564.828 1.25796 -3.67147 0
M  V30 5997 H 562.929 3.11318 -2.04724 0
M  V30 5998 H 563.042 2.7802 -3.90181 0
M  V30 5999 H 561.406 1.55575 -2.01664 0
M  V30 6000 H 562.189 0.591268 -3.3817 0
M  V30 6001 N 564.634 1.40294 0.718013 0
M  V30 6002 C 565.88 1.38645 1.48005 0
M  V30 6003 C 566.213 -0.0121202 1.94196 0
M  V30 6004 O 565.488 -0.980309 1.67989 0
M  V30 6005 C 565.771 2.37379 2.70782 0
M  V30 6006 C 565.624 3.8625 2.30501 0
M  V30 6007 C 566.943 2.33685 3.72933 0
M  V30 6008 H 564.062 0.504928 0.536858 0
M  V30 6009 H 566.704 1.71411 0.819649 0
M  V30 6010 H 564.854 2.09568 3.27129 0
M  V30 6011 H 566.526 4.24879 1.79655 0
M  V30 6012 H 564.769 4.02202 1.6253 0
M  V30 6013 H 565.44 4.50847 3.18498 0
M  V30 6014 H 567.916 2.58314 3.2621 0
M  V30 6015 H 566.792 3.0482 4.56482 0
M  V30 6016 H 567.053 1.34765 4.21059 0
M  V30 6017 N 566.112 -0.949982 1.2575 0
M  V30 6018 C 567.358 -1.69766 1.10938 0
M  V30 6019 C 567.691 -1.91056 -0.348028 0
M  V30 6020 O 566.966 -1.48488 -1.25625 0
M  V30 6021 C 567.249 -3.07779 1.86933 0
M  V30 6022 C 567.102 -2.9387 3.4053 0
M  V30 6023 C 568.421 -4.07749 1.65616 0
M  V30 6024 H 565.54 -0.616144 0.404396 0
M  V30 6025 H 568.182 -1.10394 1.54639 0
M  V30 6026 H 566.332 -3.58462 1.4979 0
M  V30 6027 H 568.004 -2.50476 3.87375 0
M  V30 6028 H 566.247 -2.29686 3.68004 0
M  V30 6029 H 566.918 -3.91719 3.88922 0
M  V30 6030 H 569.394 -3.65994 1.97959 0
M  V30 6031 H 568.27 -5.02348 2.21218 0
M  V30 6032 H 568.531 -4.38029 0.598595 0
M  V30 6033 N 567.59 -1.07411 -1.15328 0
M  V30 6034 C 569.001 -0.820261 -1.67716 0
M  V30 6035 C 569.352 0.654539 -1.8496 0
M  V30 6036 O 568.477 1.50664 -1.55337 0
M  V30 6037 C 569.072 -1.48242 -3.04647 0
M  V30 6038 C 567.631 -1.27606 -3.5411 0
M  V30 6039 C 566.778 -1.5517 -2.29821 0
M  V30 6040 H 569.729 -1.23608 -0.995332 0
M  V30 6041 H 569.75 -0.903984 -3.69606 0
M  V30 6042 H 569.262 -2.55578 -2.92064 0
M  V30 6043 H 567.363 -0.222948 -3.71932 0
M  V30 6044 H 567.476 -1.99667 -4.35511 0
M  V30 6045 H 565.84 -0.972747 -2.35393 0
M  V30 6046 H 566.623 -2.63689 -2.19824 0
M  V30 6047 N 569.068 1.32177 -0.85831 0
M  V30 6048 C 570.316 1.96735 -0.462568 0
M  V30 6049 C 570.637 1.6824 0.985911 0
M  V30 6050 O 569.907 0.991564 1.68952 0
M  V30 6051 H 568.487 0.727849 -0.168064 0
M  V30 6052 H 571.149 1.61195 -1.09554 0
M  V30 6053 H 570.245 3.06068 -0.610647 0
M  V30 6054 N 570.547 0.616602 1.45037 0
M  V30 6055 C 571.495 -0.109318 2.32343 0
M  V30 6056 C 572.489 -0.850543 1.465 0
M  V30 6057 O 573.695 -0.765088 1.62931 0
M  V30 6058 H 570.07 -0.0541091 0.750051 0
M  V30 6059 H 572.041 0.645326 2.91338 0
M  V30 6060 C 570.79 -1.0872 3.30266 0
M  V30 6061 H 570.113 -0.526267 3.96321 0
M  V30 6062 H 571.553 -1.56489 3.94065 0
M  V30 6063 C 570.012 -2.16525 2.58105 0
M  V30 6064 O 570.542 -3.244 2.36913 0
M  V30 6065 N 568.748 -1.92057 2.18088 0
M  V30 6066 H 568.295 -1.04337 2.35524 0
M  V30 6067 H 568.253 -2.64391 1.70131 0
M  V30 6068 N 572.025 -1.5352 0.356285 0
M  V30 6069 C 573.25 -2.06007 -0.239961 0
M  V30 6070 C 573.675 -1.22872 -1.42422 0
M  V30 6071 O 573.033 -0.245516 -1.7963 0
M  V30 6072 C 573.081 -3.5522 -0.620587 0
M  V30 6073 O 572.185 -3.74864 -1.71902 0
M  V30 6074 H 571.526 -0.662961 -0.0371377 0
M  V30 6075 H 574.056 -1.98033 0.514194 0
M  V30 6076 H 574.066 -3.98081 -0.894197 0
M  V30 6077 H 572.741 -4.15175 0.245407 0
M  V30 6078 H 571.318 -3.43904 -1.44169 0
M  V30 6079 N 573.503 -0.0852151 -1.57369 0
M  V30 6080 C 574.919 0.271436 -1.57275 0
M  V30 6081 C 575.119 1.69109 -1.09565 0
M  V30 6082 O 574.175 2.40549 -0.767611 0
M  V30 6083 C 575.488 0.0688638 -3.00621 0
M  V30 6084 C 577.036 0.137373 -3.12698 0
M  V30 6085 C 577.511 -0.0370832 -4.57985 0
M  V30 6086 N 579.002 0.0180794 -4.63196 0
M  V30 6087 C 579.737 -0.0922953 -5.73326 0
M  V30 6088 N 579.233 -0.256948 -6.92323 0
M  V30 6089 N 581.026 -0.0342702 -5.6209 0
M  V30 6090 H 573.177 -1.01288 -1.86693 0
M  V30 6091 H 575.44 -0.396138 -0.861266 0
M  V30 6092 H 575.146 -0.911277 -3.39689 0
M  V30 6093 H 575.02 0.815442 -3.6828 0
M  V30 6094 H 577.407 1.10801 -2.73509 0
M  V30 6095 H 577.488 -0.640532 -2.47651 0
M  V30 6096 H 577.132 -1.00455 -4.97867 0
M  V30 6097 H 577.062 0.760392 -5.21081 0
M  V30 6098 H 579.553 0.143202 -3.77629 0
M  V30 6099 H 579.866 -0.332949 -7.72082 0
M  V30 6100 H 578.211 -0.292487 -6.94384 0
M  V30 6101 H 581.402 0.0931605 -4.68007 0
M  V30 6102 H 581.575 -0.12374 -6.47882 0
M  V30 6103 N 574.981 1.5647 0.188427 0
M  V30 6104 C 576.227 1.81281 0.909124 0
M  V30 6105 C 576.56 0.66034 1.82628 0
M  V30 6106 O 575.835 -0.338737 1.91528 0
M  V30 6107 C 576.118 3.16388 1.7196 0
M  V30 6108 C 575.971 4.42137 0.826714 0
M  V30 6109 C 577.29 3.48256 2.69083 0
M  V30 6110 H 574.409 0.659457 0.329068 0
M  V30 6111 H 577.051 1.89182 0.176156 0
M  V30 6112 H 575.201 3.09784 2.34448 0
M  V30 6113 H 576.873 4.60794 0.216025 0
M  V30 6114 H 575.116 4.33594 0.133792 0
M  V30 6115 H 575.787 5.33184 1.42893 0
M  V30 6116 H 578.263 3.55203 2.16726 0
M  V30 6117 H 577.139 4.43899 3.2287 0
M  V30 6118 H 577.4 2.72088 3.48455 0
M  V30 6119 N 576.459 -0.456382 1.50847 0
M  V30 6120 C 577.87 -1.03685 1.55262 0
M  V30 6121 C 578.221 -1.92779 0.364771 0
M  V30 6122 O 577.346 -2.10043 -0.52068 0
M  V30 6123 C 577.941 -1.88718 2.81374 0
M  V30 6124 C 576.5 -2.41847 2.88422 0
M  V30 6125 C 575.647 -1.20564 2.49719 0
M  V30 6126 H 578.598 -0.238399 1.56899 0
M  V30 6127 H 578.619 -2.73957 2.6406 0
M  V30 6128 H 578.131 -1.23847 3.67809 0
M  V30 6129 H 576.232 -3.10228 2.06372 0
M  V30 6130 H 576.345 -2.75947 3.9165 0
M  V30 6131 H 574.709 -1.54504 2.02486 0
M  V30 6132 H 575.492 -0.573326 3.38479 0
M  V30 6133 N 577.937 -1.40673 -0.710563 0
M  V30 6134 C 579.214 -1.29718 -1.46398 0
M  V30 6135 C 579.594 0.082177 -2.1094 0
M  V30 6136 O 578.942 1.09536 -2.00534 0
M  V30 6137 C 579.152 -2.43967 -2.49562 0
M  V30 6138 C 580.5 -2.84436 -3.15248 0
M  V30 6139 O 581.524 -2.43597 -2.59883 0
M  V30 6140 O 580.383 -3.55008 -4.1549 0
M  V30 6141 H 577.477 -0.509697 -0.651258 0
M  V30 6142 H 580.023 -1.52603 -0.742312 0
M  V30 6143 H 578.795 -3.36076 -2.0042 0
M  V30 6144 H 578.418 -2.22879 -3.29258 0
M  V30 6145 N 579.415 0.9433 -1.26252 0
M  V30 6146 C 580.362 2.0417 -1.07625 0
M  V30 6147 C 581.332 1.6609 0.0180738 0
M  V30 6148 O 582.517 1.90276 -0.141289 0
M  V30 6149 C 579.657 3.37653 -0.713043 0
M  V30 6150 C 578.77 3.88783 -1.8834 0
M  V30 6151 C 577.905 5.10642 -1.4635 0
M  V30 6152 C 576.944 5.54028 -2.60229 0
M  V30 6153 N 576.081 6.67092 -2.18936 0
M  V30 6154 H 580.921 2.19436 -2.01623 0
M  V30 6155 H 578.458 1.07519 -1.00389 0
M  V30 6156 H 580.416 4.14391 -0.483358 0
M  V30 6157 H 579.046 3.22241 0.18996 0
M  V30 6158 H 578.098 3.08464 -2.22608 0
M  V30 6159 H 579.41 4.16922 -2.73821 0
M  V30 6160 H 578.564 5.94832 -1.19414 0
M  V30 6161 H 577.303 4.84244 -0.579568 0
M  V30 6162 H 576.308 4.68396 -2.87898 0
M  V30 6163 H 577.533 5.82429 -3.49219 0
M  V30 6164 H 575.479 6.42381 -1.32974 0
M  V30 6165 H 575.396 6.94806 -2.97961 0
M  V30 6166 H 576.664 7.54662 -1.95206 0
M  V30 6167 N 580.893 1.08022 1.14757 0
M  V30 6168 C 582.17 0.720386 1.81851 0
M  V30 6169 C 582.55 -0.796375 1.95502 0
M  V30 6170 O 581.898 -1.71339 1.51179 0
M  V30 6171 C 582.108 1.44273 3.17783 0
M  V30 6172 C 583.456 1.59925 3.93331 0
M  V30 6173 O 584.48 1.40407 3.2736 0
M  V30 6174 O 583.339 1.92096 5.11626 0
M  V30 6175 H 580.433 0.257142 0.786007 0
M  V30 6176 H 582.979 1.18155 1.21809 0
M  V30 6177 H 581.751 2.47618 3.02987 0
M  V30 6178 H 581.374 0.97279 3.85516 0
M  V30 6179 N 582.371 -1.3172 0.865308 0
M  V30 6180 C 583.62 -1.96145 0.470098 0
M  V30 6181 C 583.933 -1.69182 -0.981674 0
M  V30 6182 O 585.139 -2.27431 -1.48281 0
M  V30 6183 C 583.595 -3.51129 0.789732 0
M  V30 6184 C 583.203 -3.86938 2.25795 0
M  V30 6185 C 584.947 -4.2197 0.462765 0
M  V30 6186 C 582.854 -5.35012 2.52024 0
M  V30 6187 H 581.784 -0.734105 0.172065 0
M  V30 6188 H 584.435 -1.49959 1.05757 0
M  V30 6189 H 582.817 -3.95781 0.131571 0
M  V30 6190 H 583.991 -3.5326 2.95879 0
M  V30 6191 H 582.306 -3.29149 2.55049 0
M  V30 6192 H 584.903 -5.30904 0.636019 0
M  V30 6193 H 585.246 -4.12005 -0.59645 0
M  V30 6194 H 585.779 -3.82936 1.07727 0
M  V30 6195 H 582.518 -5.50008 3.56611 0
M  V30 6196 H 582.038 -5.70058 1.8653 0
M  V30 6197 H 583.717 -6.0222 2.36515 0
M  V30 6198 N 583.85 -0.624285 -1.44708 0
M  V30 6199 C 584.8 0.106466 -2.27751 0
M  V30 6200 C 585.784 0.822703 -1.38277 0
M  V30 6201 O 586.976 0.709939 -1.62138 0
M  V30 6202 C 584.105 1.092 -3.25469 0
M  V30 6203 C 583.191 0.375737 -4.22432 0
M  V30 6204 N 583.582 -0.591881 -5.02325 0
M  V30 6205 C 581.88 0.621093 -4.41654 0
M  V30 6206 C 582.581 -1.01443 -5.72786 0
M  V30 6207 N 581.557 -0.354651 -5.42442 0
M  V30 6208 H 585.359 -0.636464 -2.86926 0
M  V30 6209 H 582.873 -0.44925 -1.56062 0
M  V30 6210 H 584.87 1.63006 -3.83712 0
M  V30 6211 H 583.529 1.8353 -2.67856 0
M  V30 6212 H 584.541 -0.969389 -5.08747 0
M  V30 6213 H 581.218 1.34779 -3.95147 0
M  V30 6214 H 582.608 -1.81345 -6.46965 0
M  V30 6215 N 585.328 1.53329 -0.364422 0
M  V30 6216 C 586.574 2.01537 0.225969 0
M  V30 6217 C 586.907 1.25128 1.48515 0
M  V30 6218 O 586.182 0.344653 1.91422 0
M  V30 6219 C 586.465 3.56339 0.519092 0
M  V30 6220 C 586.318 4.43441 -0.753639 0
M  V30 6221 C 587.637 4.19833 1.32015 0
M  V30 6222 H 584.756 0.732573 0.0806548 0
M  V30 6223 H 587.398 1.83597 -0.489084 0
M  V30 6224 H 585.548 3.71756 1.12825 0
M  V30 6225 H 587.22 4.39823 -1.39116 0
M  V30 6226 H 585.463 4.11457 -1.37424 0
M  V30 6227 H 586.134 5.49699 -0.503517 0
M  V30 6228 H 588.61 4.08242 0.804859 0
M  V30 6229 H 587.486 5.28177 1.49399 0
M  V30 6230 H 587.747 3.75821 2.32832 0
M  V30 6231 N 586.806 0.0935595 1.57322 0
M  V30 6232 C 588.054 -0.569383 1.93913 0
M  V30 6233 C 588.375 -1.68817 0.976009 0
M  V30 6234 O 587.645 -1.9588 0.0278099 0
M  V30 6235 H 586.225 -0.21332 0.715894 0
M  V30 6236 H 588.887 0.156531 1.9427 0
M  V30 6237 H 587.983 -0.980577 2.96296 0
M  V30 6238 N 588.284 -1.56567 -0.180126 0
M  V30 6239 C 589.561 -1.7235 -0.924931 0
M  V30 6240 C 589.941 -0.652523 -2.00762 0
M  V30 6241 O 589.289 0.334115 -2.26044 0
M  V30 6242 C 589.499 -3.1523 -1.49771 0
M  V30 6243 C 590.847 -3.75921 -1.97405 0
M  V30 6244 O 591.871 -3.18452 -1.59583 0
M  V30 6245 O 590.73 -4.7681 -2.67048 0
M  V30 6246 H 587.824 -0.703502 -0.434758 0
M  V30 6247 H 590.37 -1.6886 -0.168647 0
M  V30 6248 H 589.142 -3.84656 -0.718027 0
M  V30 6249 H 588.765 -3.23009 -2.31842 0
M  V30 6250 N 589.762 0.448376 -1.51087 0
M  V30 6251 C 590.992 1.21965 -1.66757 0
M  V30 6252 C 591.4 1.85748 -0.359753 0
M  V30 6253 O 590.743 1.71022 0.670604 0
M  V30 6254 C 590.805 2.35284 -2.71812 0
M  V30 6255 C 590.469 1.91957 -4.1473 0
M  V30 6256 C 591.466 1.42921 -4.9987 0
M  V30 6257 C 589.151 1.99985 -4.60772 0
M  V30 6258 C 591.145 1.02485 -6.29107 0
M  V30 6259 C 588.832 1.5916 -5.90009 0
M  V30 6260 C 589.83 1.10491 -6.74004 0
M  V30 6261 O 589.518 0.702413 -8.00825 0
M  V30 6262 H 589.25 0.374125 -0.563034 0
M  V30 6263 H 591.804 0.538927 -1.98204 0
M  V30 6264 H 590.034 3.06599 -2.35657 0
M  V30 6265 H 591.723 2.97184 -2.76472 0
M  V30 6266 H 592.489 1.36123 -4.65506 0
M  V30 6267 H 588.368 2.36814 -3.95525 0
M  V30 6268 H 591.912 0.644271 -6.94619 0
M  V30 6269 H 587.809 1.65626 -6.2389 0
M  V30 6270 H 588.577 0.829248 -8.14288 0
M  V30 6271 N 591.24 1.41047 0.703093 0
M  V30 6272 C 592.489 1.39301 1.4587 0
M  V30 6273 C 592.802 0.00267077 1.956 0
M  V30 6274 O 594.008 -0.137414 2.71152 0
M  V30 6275 C 592.464 2.44891 2.63735 0
M  V30 6276 C 592.072 3.89796 2.20824 0
M  V30 6277 C 593.816 2.5227 3.41409 0
M  V30 6278 C 591.723 4.86955 3.35602 0
M  V30 6279 H 590.653 0.518005 0.547893 0
M  V30 6280 H 593.304 1.66839 0.764009 0
M  V30 6281 H 591.686 2.10472 3.35436 0
M  V30 6282 H 592.86 4.33424 1.56461 0
M  V30 6283 H 591.175 3.86008 1.56163 0
M  V30 6284 H 593.772 3.22044 4.26839 0
M  V30 6285 H 594.115 1.55714 3.86081 0
M  V30 6286 H 594.648 2.85742 2.7676 0
M  V30 6287 H 591.387 5.84888 2.9595 0
M  V30 6288 H 590.907 4.47982 3.98839 0
M  V30 6289 H 592.586 5.07361 4.01489 0
M  V30 6290 N 592.718 -0.936591 1.26751 0
M  V30 6291 C 593.967 -1.67778 1.11953 0
M  V30 6292 C 594.28 -1.92694 -0.33589 0
M  V30 6293 O 595.486 -2.64682 -0.604618 0
M  V30 6294 C 593.942 -3.02138 1.95551 0
M  V30 6295 C 593.55 -2.84953 3.45696 0
M  V30 6296 C 595.294 -3.79917 1.89377 0
M  V30 6297 C 593.201 -4.14814 4.21525 0
M  V30 6298 H 592.131 -0.629275 0.415366 0
M  V30 6299 H 594.782 -1.04122 1.51099 0
M  V30 6300 H 593.164 -3.668 1.49243 0
M  V30 6301 H 594.338 -2.29112 3.99805 0
M  V30 6302 H 592.653 -2.20612 3.53156 0
M  V30 6303 H 595.25 -4.76134 2.43312 0
M  V30 6304 H 595.593 -4.07204 0.865464 0
M  V30 6305 H 596.126 -3.22037 2.33532 0
M  V30 6306 H 592.865 -3.92709 5.24843 0
M  V30 6307 H 592.385 -4.70352 3.72195 0
M  V30 6308 H 594.064 -4.83239 4.3022 0
M  V30 6309 N 594.196 -1.08629 -1.14182 0
M  V30 6310 C 595.607 -0.838003 -1.66836 0
M  V30 6311 C 595.958 0.634885 -1.85644 0
M  V30 6312 O 595.083 1.49008 -1.56926 0
M  V30 6313 C 595.678 -1.51465 -3.03058 0
M  V30 6314 C 594.237 -1.31355 -3.52736 0
M  V30 6315 C 593.384 -1.57599 -2.28162 0
M  V30 6316 H 596.335 -1.24656 -0.982165 0
M  V30 6317 H 596.356 -0.943134 -3.68626 0
M  V30 6318 H 595.868 -2.58661 -2.89337 0
M  V30 6319 H 593.969 -0.262384 -3.71675 0
M  V30 6320 H 594.082 -2.04275 -4.33369 0
M  V30 6321 H 592.446 -0.997659 -2.34348 0
M  V30 6322 H 593.229 -2.66006 -2.17015 0
M  V30 6323 N 595.674 1.31259 -0.872281 0
M  V30 6324 C 596.621 2.28459 -0.327857 0
M  V30 6325 C 597.591 1.55831 0.574957 0
M  V30 6326 O 598.776 1.83965 0.506101 0
M  V30 6327 C 595.916 3.41985 0.462644 0
M  V30 6328 C 595.029 4.29458 -0.467949 0
M  V30 6329 C 594.164 5.30131 0.336903 0
M  V30 6330 C 593.203 6.0925 -0.58997 0
M  V30 6331 N 592.34 7.01872 0.178775 0
M  V30 6332 H 597.18 2.74414 -1.16193 0
M  V30 6333 H 594.717 1.34994 -0.584376 0
M  V30 6334 H 596.675 4.06547 0.936759 0
M  V30 6335 H 595.305 2.97134 1.2614 0
M  V30 6336 H 594.357 3.65318 -1.06052 0
M  V30 6337 H 595.669 4.84677 -1.17856 0
M  V30 6338 H 594.823 6.0038 0.873427 0
M  V30 6339 H 593.562 4.75573 1.08079 0
M  V30 6340 H 592.567 5.37889 -1.13823 0
M  V30 6341 H 593.792 6.65894 -1.33275 0
M  V30 6342 H 591.738 6.49721 0.905435 0
M  V30 6343 H 591.655 7.54522 -0.472452 0
M  V30 6344 H 592.923 7.76382 0.696454 0
M  V30 6345 N 597.152 0.631951 1.44375 0
M  V30 6346 C 598.1 -0.0846693 2.32446 0
M  V30 6347 C 599.094 -0.834957 1.47393 0
M  V30 6348 O 600.3 -0.747764 1.63733 0
M  V30 6349 H 596.675 -0.0461508 0.750583 0
M  V30 6350 H 598.646 0.67619 2.90638 0
M  V30 6351 C 597.395 -1.05211 3.314 0
M  V30 6352 H 596.718 -0.484203 3.96857 0
M  V30 6353 H 598.158 -1.523 3.95703 0
M  V30 6354 C 596.617 -2.13776 2.60387 0
M  V30 6355 O 597.147 -3.21869 2.4034 0
M  V30 6356 N 595.353 -1.89733 2.20113 0
M  V30 6357 H 594.9 -1.01833 2.36618 0
M  V30 6358 H 594.858 -2.62572 1.72926 0
M  V30 6359 N 598.631 -1.53133 0.372548 0
M  V30 6360 C 599.859 -2.05774 -0.215515 0
M  V30 6361 C 600.274 -1.24555 -1.41886 0
M  V30 6362 O 599.631 -0.287951 -1.80214 0
M  V30 6363 C 599.682 -3.5645 -0.602161 0
M  V30 6364 O 599.403 -4.34591 0.553359 0
M  V30 6365 C 600.904 -4.25374 -1.24787 0
M  V30 6366 H 598.124 -0.670009 -0.0364529 0
M  V30 6367 H 600.668 -1.97434 0.532934 0
M  V30 6368 H 598.823 -3.64918 -1.30052 0
M  V30 6369 H 599.237 -5.23954 0.239336 0
M  V30 6370 H 600.711 -5.32097 -1.46891 0
M  V30 6371 H 601.188 -3.79531 -2.21026 0
M  V30 6372 H 601.794 -4.21177 -0.590752 0
M  V30 6373 N 600.109 -0.101901 -1.5727 0
M  V30 6374 C 601.039 0.851544 -2.17419 0
M  V30 6375 C 602.02 1.28942 -1.10941 0
M  V30 6376 O 603.205 1.35509 -1.39107 0
M  V30 6377 C 600.335 2.10816 -2.75996 0
M  V30 6378 C 599.289 1.80867 -3.87906 0
M  V30 6379 C 598.615 3.13413 -4.33216 0
M  V30 6380 C 599.915 1.0903 -5.10793 0
M  V30 6381 H 601.609 0.350381 -2.97343 0
M  V30 6382 H 599.155 0.16709 -1.43027 0
M  V30 6383 H 601.108 2.77959 -3.16729 0
M  V30 6384 H 599.832 2.63227 -1.93337 0
M  V30 6385 H 598.491 1.16119 -3.47724 0
M  V30 6386 H 598.139 3.63725 -3.47438 0
M  V30 6387 H 597.839 2.94155 -5.08671 0
M  V30 6388 H 599.363 3.81704 -4.76586 0
M  V30 6389 H 600.777 1.66295 -5.48652 0
M  V30 6390 H 599.174 0.99927 -5.91722 0
M  V30 6391 H 600.244 0.0741704 -4.84843 0
M  V30 6392 N 601.587 1.56661 0.17182 0
M  V30 6393 C 602.833 1.82235 0.889845 0
M  V30 6394 C 603.166 0.679673 1.81918 0
M  V30 6395 O 602.441 -0.318404 1.91876 0
M  V30 6396 C 602.724 3.18195 1.68595 0
M  V30 6397 C 602.577 4.42989 0.779773 0
M  V30 6398 C 603.896 3.5109 2.65375 0
M  V30 6399 H 601.015 0.66291 0.322056 0
M  V30 6400 H 603.657 1.89358 0.15608 0
M  V30 6401 H 601.807 3.12253 2.3115 0
M  V30 6402 H 603.479 4.60997 0.16714 0
M  V30 6403 H 601.722 4.33711 0.0877964 0
M  V30 6404 H 602.393 5.3467 1.3723 0
M  V30 6405 H 604.869 3.57482 2.12946 0
M  V30 6406 H 603.745 4.47298 3.18144 0
M  V30 6407 H 604.006 2.75768 3.45549 0
M  V30 6408 N 603.065 -0.440357 1.51323 0
M  V30 6409 C 604.293 -1.21255 1.67645 0
M  V30 6410 C 604.708 -1.85088 0.37252 0
M  V30 6411 O 604.065 -1.70582 -0.648683 0
M  V30 6412 C 604.116 -2.29881 2.78993 0
M  V30 6413 O 603.837 -1.68659 4.04334 0
M  V30 6414 C 605.338 -3.20214 3.06558 0
M  V30 6415 H 602.558 -0.36558 0.562666 0
M  V30 6416 H 605.102 -0.52214 1.97722 0
M  V30 6417 H 603.257 -2.94643 2.51524 0
M  V30 6418 H 603.671 -2.40426 4.6615 0
M  V30 6419 H 605.145 -3.92575 3.88058 0
M  V30 6420 H 605.622 -3.80794 2.18844 0
M  V30 6421 H 606.228 -2.61156 3.35675 0
M  V30 6422 N 604.543 -1.41418 -0.695603 0
M  V30 6423 C 605.473 -1.46035 -1.82197 0
M  V30 6424 C 606.454 -0.319025 -1.67082 0
M  V30 6425 O 607.639 -0.530462 -1.86815 0
M  V30 6426 C 604.769 -1.34179 -3.20333 0
M  V30 6427 C 603.723 -2.46123 -3.50154 0
M  V30 6428 C 603.049 -2.19332 -4.87645 0
M  V30 6429 C 604.349 -3.88463 -3.49133 0
M  V30 6430 H 606.043 -2.40303 -1.78591 0
M  V30 6431 H 603.589 -1.15663 -0.857797 0
M  V30 6432 H 605.542 -1.36021 -3.98844 0
M  V30 6433 H 604.266 -0.363952 -3.24566 0
M  V30 6434 H 602.925 -2.43563 -2.73994 0
M  V30 6435 H 602.573 -1.19891 -4.88503 0
M  V30 6436 H 602.273 -2.94344 -5.08562 0
M  V30 6437 H 603.797 -2.22889 -5.68465 0
M  V30 6438 H 605.211 -3.92738 -4.17648 0
M  V30 6439 H 603.608 -4.63158 -3.81582 0
M  V30 6440 H 604.678 -4.16617 -2.48109 0
M  V30 6441 N 606.021 0.929856 -1.27246 0
M  V30 6442 C 607.261 1.6919 -1.14691 0
M  V30 6443 C 607.625 1.896 0.302621 0
M  V30 6444 O 608.826 2.63102 0.550543 0
M  V30 6445 C 607.097 3.02291 -1.9067 0
M  V30 6446 S 608.656 3.93436 -1.94303 0
M  V30 6447 H 605.474 0.581248 -0.409477 0
M  V30 6448 H 608.076 1.10722 -1.61124 0
M  V30 6449 H 606.78 2.85125 -2.95181 0
M  V30 6450 H 606.311 3.65813 -1.44723 0
M  V30 6451 H 608.326 4.85224 -1.0379 0
M  V30 6452 N 607.499 1.09233 1.13605 0
M  V30 6453 C 608.449 0.6994 2.17008 0
M  V30 6454 C 609.433 -0.285238 1.58352 0
M  V30 6455 O 610.625 -0.09592 1.7674 0
M  V30 6456 C 607.754 0.11938 3.43092 0
M  V30 6457 C 606.84 1.13031 4.0876 0
M  V30 6458 N 607.231 2.31673 4.49623 0
M  V30 6459 C 605.529 0.967999 4.35369 0
M  V30 6460 C 606.23 2.95964 5.00779 0
M  V30 6461 N 605.206 2.23534 4.95513 0
M  V30 6462 H 609.008 1.60272 2.46354 0
M  V30 6463 H 606.522 0.968257 1.30378 0
M  V30 6464 H 608.519 -0.180122 4.16511 0
M  V30 6465 H 607.179 -0.778816 3.15221 0
M  V30 6466 H 608.19 2.69277 4.42391 0
M  V30 6467 H 604.867 0.124319 4.17315 0
M  V30 6468 H 606.257 3.96813 5.42208 0
M  V30 6469 N 608.977 -1.30795 0.87923 0
M  V30 6470 C 610.207 -2.00237 0.50881 0
M  V30 6471 C 610.615 -1.66115 -0.905682 0
M  V30 6472 O 609.958 -0.89138 -1.60624 0
M  V30 6473 C 610.02 -3.54508 0.597003 0
M  V30 6474 C 609.684 -4.12131 1.97477 0
M  V30 6475 C 610.681 -4.28552 2.94346 0
M  V30 6476 C 608.366 -4.47644 2.2786 0
M  V30 6477 C 610.36 -4.79689 4.19735 0
M  V30 6478 C 608.047 -4.98481 3.53496 0
M  V30 6479 C 609.045 -5.14456 4.49248 0
M  V30 6480 O 608.733 -5.64199 5.72656 0
M  V30 6481 H 608.465 -0.647026 0.195788 0
M  V30 6482 H 611.019 -1.67785 1.1848 0
M  V30 6483 H 609.249 -3.86461 -0.135945 0
M  V30 6484 H 610.938 -4.05198 0.238684 0
M  V30 6485 H 611.704 -4.01424 2.72183 0
M  V30 6486 H 607.583 -4.34481 1.54102 0
M  V30 6487 H 611.127 -4.92073 4.9448 0
M  V30 6488 H 607.024 -5.25044 3.75498 0
M  V30 6489 H 607.792 -5.82551 5.74957 0
M  V30 6490 N 610.455 -0.639598 -1.44038 0
M  V30 6491 C 611.418 0.0506628 -2.29144 0
M  V30 6492 C 612.418 0.764001 -1.41491 0
M  V30 6493 O 613.608 0.607309 -1.63271 0
M  V30 6494 C 610.74 1.0824 -3.2326 0
M  V30 6495 H 611.933 -0.697987 -2.91664 0
M  V30 6496 H 609.486 -0.400146 -1.51091 0
M  V30 6497 H 610.221 1.86075 -2.65606 0
M  V30 6498 H 610.006 0.574725 -3.87865 0
M  V30 6499 H 611.496 1.56487 -3.87171 0
M  V30 6500 N 611.933 1.52934 -0.380664 0
M  V30 6501 C 613.161 2.05886 0.204599 0
M  V30 6502 C 613.576 1.25305 1.41223 0
M  V30 6503 O 612.933 0.297504 1.80059 0
M  V30 6504 C 612.984 3.56764 0.583249 0
M  V30 6505 O 612.705 4.34292 -0.576398 0
M  V30 6506 C 614.206 4.2603 1.2253 0
M  V30 6507 H 611.426 0.670193 0.0328991 0
M  V30 6508 H 613.97 1.97148 -0.543397 0
M  V30 6509 H 612.125 3.65603 1.28115 0
M  V30 6510 H 612.539 5.23819 -0.267119 0
M  V30 6511 H 614.013 5.32868 1.44068 0
M  V30 6512 H 614.49 3.80698 2.19011 0
M  V30 6513 H 615.096 4.21485 0.568407 0
M  V30 6514 N 613.412 0.11024 1.57214 0
M  V30 6515 C 614.637 -0.561179 1.99664 0
M  V30 6516 C 615.062 -1.59985 0.989266 0
M  V30 6517 O 614.42 -1.81255 -0.0402399 0
M  V30 6518 C 614.468 -1.17189 3.41027 0
M  V30 6519 O 613.572 -2.28755 3.4314 0
M  V30 6520 H 612.913 -0.14101 0.648855 0
M  V30 6521 H 615.443 0.196128 2.03658 0
M  V30 6522 H 615.453 -1.50954 3.79047 0
M  V30 6523 H 614.128 -0.411041 4.13864 0
M  V30 6524 H 612.705 -1.96495 3.16929 0
M  V30 6525 N 614.89 -1.56749 -0.16351 0
M  V30 6526 C 616.306 -1.51043 -0.515567 0
M  V30 6527 C 616.506 -0.815855 -1.84245 0
M  V30 6528 O 615.562 -0.379477 -2.49632 0
M  V30 6529 C 616.875 -2.95791 -0.541114 0
M  V30 6530 C 618.423 -3.0664 -0.627776 0
M  V30 6531 C 618.898 -4.52861 -0.684141 0
M  V30 6532 N 620.389 -4.5714 -0.746818 0
M  V30 6533 C 621.124 -5.67634 -0.811137 0
M  V30 6534 N 620.62 -6.8774 -0.835811 0
M  V30 6535 N 622.413 -5.55624 -0.850756 0
M  V30 6536 H 614.564 -2.00307 0.70645 0
M  V30 6537 H 616.827 -0.912876 0.255659 0
M  V30 6538 H 616.533 -3.49797 0.365329 0
M  V30 6539 H 616.407 -3.50858 -1.38487 0
M  V30 6540 H 618.794 -2.52663 -1.52464 0
M  V30 6541 H 618.875 -2.54645 0.242805 0
M  V30 6542 H 618.519 -5.07472 0.2085 0
M  V30 6543 H 618.449 -5.02621 -1.57098 0
M  V30 6544 H 620.94 -3.70669 -0.735717 0
M  V30 6545 H 621.253 -7.67701 -0.886279 0
M  V30 6546 H 619.598 -6.90334 -0.803958 0
M  V30 6547 H 622.789 -4.60709 -0.828535 0
M  V30 6548 H 622.962 -6.41756 -0.897418 0
M  V30 6549 N 616.368 0.432326 -1.51554 0
M  V30 6550 C 617.645 1.19288 -1.55015 0
M  V30 6551 C 618.025 2.08701 -0.317375 0
M  V30 6552 O 617.373 2.17602 0.697243 0
M  V30 6553 C 617.583 1.99037 -2.86679 0
M  V30 6554 C 618.931 2.55907 -3.38817 0
M  V30 6555 O 619.955 2.09243 -2.88263 0
M  V30 6556 O 618.814 3.41029 -4.27038 0
M  V30 6557 H 615.908 0.543369 -0.623441 0
M  V30 6558 H 618.454 0.440988 -1.6387 0
M  V30 6559 H 617.226 1.33397 -3.6786 0
M  V30 6560 H 616.849 2.81281 -2.8101 0
M  V30 6561 N 617.846 1.41785 0.688094 0
M  V30 6562 C 619.257 1.3701 1.26828 0
M  V30 6563 C 619.608 0.056835 1.96118 0
M  V30 6564 O 618.733 -0.84475 1.99231 0
M  V30 6565 C 619.328 2.48168 2.30648 0
M  V30 6566 C 617.887 2.46766 2.84224 0
M  V30 6567 C 617.034 2.27633 1.58361 0
M  V30 6568 H 619.985 1.51192 0.482351 0
M  V30 6569 H 620.006 2.17655 3.121 0
M  V30 6570 H 619.518 3.43735 1.80188 0
M  V30 6571 H 617.619 1.54978 3.3884 0
M  V30 6572 H 617.732 3.43342 3.34145 0
M  V30 6573 H 616.096 1.75648 1.84445 0
M  V30 6574 H 616.879 3.25238 1.09887 0
M  V30 6575 N 619.324 -0.923095 1.27737 0
M  V30 6576 C 620.287 -2.00587 1.10894 0
M  V30 6577 C 621.287 -1.60718 0.0514927 0
M  V30 6578 O 622.477 -1.71658 0.296481 0
M  V30 6579 C 619.609 -3.33829 0.690717 0
M  V30 6580 H 620.802 -2.16959 2.07048 0
M  V30 6581 H 618.355 -1.10451 1.1059 0
M  V30 6582 H 619.09 -3.23157 -0.272 0
M  V30 6583 H 618.875 -3.64125 1.45448 0
M  V30 6584 H 620.365 -4.13336 0.595252 0
M  V30 6585 N 620.802 -1.09834 -1.13024 0
M  V30 6586 C 621.734 -0.699379 -2.18269 0
M  V30 6587 C 622.747 0.260841 -1.60697 0
M  V30 6588 O 623.936 0.0462538 -1.7844 0
M  V30 6589 C 621.036 -0.0104537 -3.38898 0
M  V30 6590 C 620.209 -0.993275 -4.25973 0
M  V30 6591 C 619.268 -0.336982 -5.2512 0
M  V30 6592 O 618.294 -0.985892 -5.60597 0
M  V30 6593 N 619.496 0.90716 -5.73368 0
M  V30 6594 H 622.261 -1.60486 -2.5311 0
M  V30 6595 H 619.822 -0.986337 -1.28386 0
M  V30 6596 H 621.814 0.43991 -4.02302 0
M  V30 6597 H 620.384 0.797335 -3.0226 0
M  V30 6598 H 619.604 -1.62208 -3.5928 0
M  V30 6599 H 620.892 -1.65876 -4.81002 0
M  V30 6600 H 620.29 1.45384 -5.46699 0
M  V30 6601 H 618.847 1.30077 -6.38689 0
M  V30 6602 N 622.28 1.30327 -0.886154 0
M  V30 6603 C 623.527 1.96097 -0.505192 0
M  V30 6604 C 623.855 1.69952 0.945868 0
M  V30 6605 O 623.11 0.997653 1.68361 0
M  V30 6606 C 623.409 3.49906 -0.728042 0
M  V30 6607 C 623.075 3.96103 -2.15437 0
M  V30 6608 C 621.737 4.08428 -2.5444 0
M  V30 6609 C 624.089 4.20177 -3.08384 0
M  V30 6610 C 621.417 4.42189 -3.85598 0
M  V30 6611 C 623.769 4.55407 -4.39075 0
M  V30 6612 C 622.433 4.65941 -4.7797 0
M  V30 6613 H 621.703 0.71757 -0.184863 0
M  V30 6614 H 624.35 1.55171 -1.12223 0
M  V30 6615 H 622.655 3.9179 -0.027978 0
M  V30 6616 H 624.352 3.98869 -0.412862 0
M  V30 6617 H 620.942 3.87017 -1.84162 0
M  V30 6618 H 625.126 4.10134 -2.7947 0
M  V30 6619 H 620.382 4.48544 -4.15473 0
M  V30 6620 H 624.556 4.72986 -5.11133 0
M  V30 6621 H 622.183 4.91856 -5.79639 0
M  V30 6622 N 623.758 0.647228 1.43697 0
M  V30 6623 C 625.169 0.238689 1.85168 0
M  V30 6624 C 625.52 -1.21345 1.54175 0
M  V30 6625 O 624.645 -1.92542 0.987743 0
M  V30 6626 C 625.24 0.426422 3.36106 0
M  V30 6627 C 623.799 0.0722541 3.76331 0
M  V30 6628 C 622.946 0.732153 2.6746 0
M  V30 6629 H 625.897 0.851309 1.33934 0
M  V30 6630 H 625.918 -0.32987 3.79067 0
M  V30 6631 H 625.43 1.48339 3.58632 0
M  V30 6632 H 623.531 -0.982355 3.59417 0
M  V30 6633 H 623.644 0.493541 4.76551 0
M  V30 6634 H 622.008 0.16594 2.54159 0
M  V30 6635 H 622.791 1.79204 2.92816 0
M  V30 6636 N 625.236 -1.5273 0.388769 0
M  V30 6637 C 626.146 -2.30165 -0.453993 0
M  V30 6638 C 627.162 -1.37058 -1.07197 0
M  V30 6639 O 628.338 -1.70127 -1.0779 0
M  V30 6640 C 625.403 -3.09303 -1.56628 0
M  V30 6641 C 624.464 -4.18117 -0.973467 0
M  V30 6642 C 623.697 -4.93472 -2.03275 0
M  V30 6643 O 623.92 -4.68913 -3.24772 0
M  V30 6644 O 622.854 -5.78833 -1.65034 0
M  V30 6645 H 626.68 -3.03185 0.176816 0
M  V30 6646 H 624.265 -1.4862 0.152501 0
M  V30 6647 H 626.147 -3.58648 -2.21246 0
M  V30 6648 H 624.822 -2.39098 -2.18206 0
M  V30 6649 H 623.729 -3.7297 -0.290556 0
M  V30 6650 H 625.062 -4.90556 -0.401908 0
M  V30 6651 N 626.714 -0.118576 -1.57153 0
M  V30 6652 C 628.125 0.40687 -1.82213 0
M  V30 6653 C 628.476 1.66636 -1.03571 0
M  V30 6654 O 627.601 2.14682 -0.272171 0
M  V30 6655 C 628.196 0.744949 -3.30509 0
M  V30 6656 C 626.755 1.21503 -3.5625 0
M  V30 6657 C 625.902 0.223511 -2.76398 0
M  V30 6658 H 628.853 -0.343712 -1.54933 0
M  V30 6659 H 628.874 1.6024 -3.45114 0
M  V30 6660 H 628.386 -0.171911 -3.87719 0
M  V30 6661 H 626.487 2.1488 -3.04396 0
M  V30 6662 H 626.6 1.16065 -4.64829 0
M  V30 6663 H 624.964 0.71046 -2.44591 0
M  V30 6664 H 625.747 -0.686439 -3.36367 0
M  V30 6665 N 628.193 1.56834 0.155195 0
M  V30 6666 C 629.141 1.98584 1.21107 0
M  V30 6667 C 630.135 0.876987 1.44932 0
M  V30 6668 O 631.341 1.06215 1.45322 0
M  V30 6669 H 627.716 0.632039 0.407469 0
M  V30 6670 H 629.687 2.86561 0.832195 0
M  V30 6671 C 628.436 2.37555 2.53895 0
M  V30 6672 H 627.759 3.22428 2.3639 0
M  V30 6673 H 629.199 2.70598 3.26424 0
M  V30 6674 C 627.658 1.22507 3.13837 0
M  V30 6675 O 628.188 0.521388 3.98302 0
M  V30 6676 N 626.394 0.991444 2.73164 0
M  V30 6677 H 625.941 1.56544 2.04577 0
M  V30 6678 H 625.899 0.223546 3.13604 0
M  V30 6679 N 629.671 -0.424282 1.51781 0
M  V30 6680 C 630.896 -1.19928 1.6921 0
M  V30 6681 C 631.321 -1.8392 0.394355 0
M  V30 6682 O 630.679 -1.69371 -0.646778 0
M  V30 6683 C 630.727 -2.24937 2.81843 0
M  V30 6684 O 629.831 -3.3073 2.46356 0
M  V30 6685 H 629.172 -0.35078 0.563781 0
M  V30 6686 H 631.702 -0.499401 1.98412 0
M  V30 6687 H 631.712 -2.69512 3.06312 0
M  V30 6688 H 630.387 -1.77742 3.76006 0
M  V30 6689 H 628.964 -2.9154 2.32505 0
M  V30 6690 N 631.149 -1.42148 -0.680565 0
M  V30 6691 C 632.396 -1.4231 -1.44063 0
M  V30 6692 C 632.724 -0.037488 -1.94464 0
M  V30 6693 O 631.979 0.953184 -1.70918 0
M  V30 6694 C 632.278 -2.38945 -2.65782 0
M  V30 6695 C 631.944 -3.85455 -2.33956 0
M  V30 6696 C 630.606 -4.25364 -2.24987 0
M  V30 6697 C 632.958 -4.77895 -2.08004 0
M  V30 6698 C 630.286 -5.55701 -1.88184 0
M  V30 6699 C 632.638 -6.08568 -1.72706 0
M  V30 6700 C 631.302 -6.47482 -1.62244 0
M  V30 6701 H 630.572 -0.520748 -0.527164 0
M  V30 6702 H 633.219 -1.7505 -0.776524 0
M  V30 6703 H 631.524 -1.99511 -3.37198 0
M  V30 6704 H 633.221 -2.36336 -3.23954 0
M  V30 6705 H 629.811 -3.53855 -2.41836 0
M  V30 6706 H 633.995 -4.47854 -2.1387 0
M  V30 6707 H 629.251 -5.84718 -1.78648 0
M  V30 6708 H 633.425 -6.79688 -1.5165 0
M  V30 6709 H 631.052 -7.48387 -1.33496 0
M  V30 6710 N 632.627 0.916307 -1.28225 0
M  V30 6711 C 634.043 1.19425 -1.05876 0
M  V30 6712 C 634.243 2.005 0.2005 0
M  V30 6713 O 633.299 2.35806 0.902873 0
M  V30 6714 C 634.612 1.93133 -2.30478 0
M  V30 6715 C 636.16 2.06026 -2.35632 0
M  V30 6716 C 636.635 2.83141 -3.59994 0
M  V30 6717 N 638.126 2.90704 -3.60618 0
M  V30 6718 C 638.861 3.50865 -4.53521 0
M  V30 6719 N 638.357 4.12327 -5.56739 0
M  V30 6720 N 640.15 3.48379 -4.41122 0
M  V30 6721 H 632.301 0.37496 -2.09064 0
M  V30 6722 H 634.564 0.228531 -0.920042 0
M  V30 6723 H 634.27 1.40985 -3.22205 0
M  V30 6724 H 634.144 2.93696 -2.36691 0
M  V30 6725 H 636.531 2.57355 -1.44404 0
M  V30 6726 H 636.612 1.04647 -2.33415 0
M  V30 6727 H 636.256 2.32492 -4.51564 0
M  V30 6728 H 636.186 3.84829 -3.59464 0
M  V30 6729 H 638.677 2.47034 -2.85977 0
M  V30 6730 H 638.99 4.56205 -6.23776 0
M  V30 6731 H 637.335 4.10839 -5.60568 0
M  V30 6732 H 640.526 2.99572 -3.59686 0
M  V30 6733 H 640.699 3.94974 -5.13712 0
M  V30 6734 N 634.105 1.10431 1.1244 0
M  V30 6735 C 635.516 0.864439 1.65482 0
M  V30 6736 C 635.867 -0.60527 1.8663 0
M  V30 6737 O 634.992 -1.46492 1.59276 0
M  V30 6738 C 635.587 1.56267 3.0061 0
M  V30 6739 C 634.146 1.3695 3.50602 0
M  V30 6740 C 633.293 1.61209 2.25626 0
M  V30 6741 H 636.244 1.26203 0.962209 0
M  V30 6742 H 636.265 1.00166 3.67079 0
M  V30 6743 H 635.777 2.63231 2.85186 0
M  V30 6744 H 633.878 0.321481 3.71211 0
M  V30 6745 H 633.991 2.11143 4.30064 0
M  V30 6746 H 632.355 1.03482 2.32731 0
M  V30 6747 H 633.138 2.69425 2.12756 0
M  V30 6748 N 635.583 -1.29855 0.893053 0
M  V30 6749 C 636.546 -2.26183 0.370687 0
M  V30 6750 C 637.546 -1.53108 -0.491385 0
M  V30 6751 O 638.736 -1.71643 -0.297386 0
M  V30 6752 C 635.868 -3.37633 -0.470827 0
M  V30 6753 H 637.061 -2.73903 1.22135 0
M  V30 6754 H 634.614 -1.41183 0.67061 0
M  V30 6755 H 635.349 -2.95241 -1.34175 0
M  V30 6756 H 635.134 -3.91825 0.146784 0
M  V30 6757 H 636.624 -4.09313 -0.827825 0
M  V30 6758 N 637.061 -0.65484 -1.43351 0
M  V30 6759 C 638.477 -0.32255 -1.56307 0
M  V30 6760 C 638.677 1.17324 -1.63821 0
M  V30 6761 O 637.733 1.95813 -1.59417 0
M  V30 6762 C 639.046 -1.03533 -2.82314 0
M  V30 6763 C 640.594 -1.01574 -2.9606 0
M  V30 6764 C 641.069 -1.70945 -4.24902 0
M  V30 6765 N 642.56 -1.67716 -4.3177 0
M  V30 6766 C 643.295 -2.18265 -5.30234 0
M  V30 6767 N 642.791 -2.7711 -6.34966 0
M  V30 6768 N 644.584 -2.08756 -5.21898 0
M  V30 6769 H 636.735 -1.62549 -1.36717 0
M  V30 6770 H 638.998 -0.683676 -0.656727 0
M  V30 6771 H 638.704 -2.09045 -2.8283 0
M  V30 6772 H 638.578 -0.587913 -3.7259 0
M  V30 6773 H 640.965 0.0309834 -2.95084 0
M  V30 6774 H 641.046 -1.50186 -2.07069 0
M  V30 6775 H 640.69 -2.75574 -4.26639 0
M  V30 6776 H 640.62 -1.19797 -5.12793 0
M  V30 6777 H 643.111 -1.24777 -3.56706 0
M  V30 6778 H 643.424 -3.13353 -7.06421 0
M  V30 6779 H 641.769 -2.81171 -6.35585 0
M  V30 6780 H 644.96 -1.62488 -4.38994 0
M  V30 6781 H 645.133 -2.48459 -5.98475 0
M  V30 6782 N 638.539 1.52521 -0.396863 0
M  V30 6783 C 639.785 2.02641 0.175606 0
M  V30 6784 C 640.14 1.27782 1.43839 0
M  V30 6785 O 639.433 0.371921 1.87956 0
M  V30 6786 C 639.627 3.5403 0.489677 0
M  V30 6787 C 639.456 4.43551 -0.741113 0
M  V30 6788 C 638.226 4.8927 -1.26265 0
M  V30 6789 C 640.424 4.88263 -1.61565 0
M  V30 6790 N 638.406 5.62884 -2.4502 0
M  V30 6791 C 639.777 5.60534 -2.64955 0
M  V30 6792 C 641.832 4.70294 -1.63486 0
M  V30 6793 C 640.535 6.16744 -3.70162 0
M  V30 6794 C 642.561 5.27392 -2.67603 0
M  V30 6795 C 641.923 5.99575 -3.69715 0
M  V30 6796 H 638.022 0.781563 0.0261477 0
M  V30 6797 H 640.606 1.86816 -0.548454 0
M  V30 6798 H 638.777 3.69952 1.18279 0
M  V30 6799 H 640.509 3.90843 1.04996 0
M  V30 6800 H 637.264 4.66403 -0.822509 0
M  V30 6801 H 637.688 6.04339 -3.05128 0
M  V30 6802 H 642.33 4.13985 -0.858848 0
M  V30 6803 H 640.048 6.72131 -4.48626 0
M  V30 6804 H 643.634 5.15365 -2.69982 0
M  V30 6805 H 642.514 6.42967 -4.48958 0
M  V30 6806 N 640.017 0.126909 1.57088 0
M  V30 6807 C 640.947 -0.816847 2.18746 0
M  V30 6808 C 641.928 -1.27161 1.12979 0
M  V30 6809 O 643.113 -1.33279 1.41246 0
M  V30 6810 C 640.243 -2.06398 2.79315 0
M  V30 6811 C 639.197 -1.74673 3.90735 0
M  V30 6812 C 638.523 -3.06482 4.38147 0
M  V30 6813 C 639.823 -1.0089 5.12463 0
M  V30 6814 H 641.517 -0.303032 2.97863 0
M  V30 6815 H 639.063 -0.144314 1.43275 0
M  V30 6816 H 641.016 -2.72885 3.2111 0
M  V30 6817 H 639.74 -2.60118 1.975 0
M  V30 6818 H 638.399 -1.10572 3.49527 0
M  V30 6819 H 638.047 -3.58152 3.5318 0
M  V30 6820 H 637.747 -2.86025 5.13287 0
M  V30 6821 H 639.271 -3.74073 4.82599 0
M  V30 6822 H 640.685 -1.57546 5.51228 0
M  V30 6823 H 639.082 -0.905006 5.93237 0
M  V30 6824 H 640.152 0.00297335 4.849 0
M  V30 6825 N 641.495 -1.56914 -0.146875 0
M  V30 6826 C 642.743 -1.82994 -0.85777 0
M  V30 6827 C 643.064 -0.707814 -1.817 0
M  V30 6828 O 642.334 0.270521 -1.94023 0
M  V30 6829 H 640.914 -0.675106 -0.319751 0
M  V30 6830 H 643.576 -1.9439 -0.140849 0
M  V30 6831 H 642.672 -2.77928 -1.41994 0
M  V30 6832 N 642.974 0.416227 -1.52004 0
M  V30 6833 C 643.884 1.53147 -1.77717 0
M  V30 6834 C 644.9 1.609 -0.662368 0
M  V30 6835 O 646.076 1.77747 -0.946991 0
M  V30 6836 C 643.141 2.88948 -1.91598 0
M  V30 6837 C 642.202 2.9114 -3.15493 0
M  V30 6838 C 641.435 4.20464 -3.28703 0
M  V30 6839 O 641.658 5.13981 -2.47345 0
M  V30 6840 O 640.592 4.29368 -4.21813 0
M  V30 6841 H 644.418 1.34357 -2.72363 0
M  V30 6842 H 642.003 0.601373 -1.36762 0
M  V30 6843 H 643.885 3.69505 -2.02593 0
M  V30 6844 H 642.56 3.07821 -1.00141 0
M  V30 6845 H 641.467 2.09461 -3.09962 0
M  V30 6846 H 642.8 2.77216 -4.06709 0
M  V30 6847 N 644.452 1.42507 0.673017 0
M  V30 6848 C 645.7 1.42789 1.43023 0
M  V30 6849 C 646.021 0.0459738 1.94946 0
M  V30 6850 O 645.291 -0.915765 1.73178 0
M  V30 6851 H 643.871 0.525657 0.530748 0
M  V30 6852 H 646.533 1.77944 0.795113 0
M  V30 6853 H 645.629 2.12872 2.28237 0
M  V30 6854 N 645.93 -0.909495 1.28709 0
M  V30 6855 C 647.341 -1.47419 1.14563 0
M  V30 6856 C 647.692 -1.94432 -0.262832 0
M  V30 6857 O 646.817 -1.82842 -1.15748 0
M  V30 6858 C 647.412 -2.67933 2.07358 0
M  V30 6859 C 645.971 -3.20568 1.97264 0
M  V30 6860 C 645.118 -1.93269 1.98852 0
M  V30 6861 H 648.069 -0.721787 1.41336 0
M  V30 6862 H 648.09 -3.43339 1.64007 0
M  V30 6863 H 647.602 -2.33685 3.09859 0
M  V30 6864 H 645.703 -3.59531 0.978157 0
M  V30 6865 H 645.816 -3.85529 2.84436 0
M  V30 6866 H 644.18 -2.10553 1.43317 0
M  V30 6867 H 644.963 -1.61312 3.0304 0
M  V30 6868 N 647.408 -1.11026 -1.11852 0
M  V30 6869 C 648.636 -0.878818 -1.87308 0
M  V30 6870 C 649.051 0.57111 -1.79955 0
M  V30 6871 O 648.408 1.39409 -1.17777 0
M  V30 6872 C 648.459 -1.3264 -3.36287 0
M  V30 6873 O 648.18 -2.71948 -3.43476 0
M  V30 6874 C 649.681 -1.12974 -4.28663 0
M  V30 6875 H 646.901 -0.315015 -0.592458 0
M  V30 6876 H 649.445 -1.47649 -1.41492 0
M  V30 6877 H 647.6 -0.772269 -3.79625 0
M  V30 6878 H 648.014 -2.91241 -4.3621 0
M  V30 6879 H 649.488 -1.49198 -5.31454 0
M  V30 6880 H 649.965 -0.0689127 -4.39146 0
M  V30 6881 H 650.571 -1.67064 -3.91113 0
M  V30 6882 N 648.886 1.2938 -0.899927 0
M  V30 6883 C 650.297 1.77644 -0.574427 0
M  V30 6884 C 650.648 1.73824 0.909928 0
M  V30 6885 O 649.773 1.32429 1.71147 0
M  V30 6886 C 650.368 3.22573 -1.03595 0
M  V30 6887 C 648.927 3.68614 -0.76161 0
M  V30 6888 C 648.074 2.49483 -1.21052 0
M  V30 6889 H 651.025 1.16038 -1.08263 0
M  V30 6890 H 651.046 3.78684 -0.371337 0
M  V30 6891 H 650.558 3.25321 -2.11631 0
M  V30 6892 H 648.659 3.7134 0.306127 0
M  V30 6893 H 648.772 4.59402 -1.35965 0
M  V30 6894 H 647.136 2.46798 -0.629515 0
M  V30 6895 H 647.919 2.54959 -2.29893 0
M  V30 6896 N 650.364 0.662433 1.43002 0
M  V30 6897 C 651.314 -0.0460442 2.27954 0
M  V30 6898 C 652.298 -0.785753 1.40409 0
M  V30 6899 O 653.49 -0.666701 1.63964 0
M  V30 6900 C 650.619 -1.00532 3.2825 0
M  V30 6901 C 649.705 -0.263604 4.2328 0
M  V30 6902 N 650.096 0.724855 5.00579 0
M  V30 6903 C 648.394 -0.503778 4.43146 0
M  V30 6904 C 649.095 1.16594 5.69895 0
M  V30 6905 N 648.071 0.498345 5.41311 0
M  V30 6906 H 651.873 0.712314 2.85137 0
M  V30 6907 H 649.387 0.490469 1.54817 0
M  V30 6908 H 651.384 -1.52775 3.87899 0
M  V30 6909 H 650.044 -1.76364 2.72628 0
M  V30 6910 H 651.055 1.10393 5.05998 0
M  V30 6911 H 647.732 -1.24255 3.98581 0
M  V30 6912 H 649.122 1.98434 6.4193 0
M  V30 6913 N 651.842 -1.52309 0.404946 0
M  V30 6914 C 653.253 -1.86585 -0.0655926 0
M  V30 6915 C 653.604 -1.3239 -1.44801 0
M  V30 6916 O 652.729 -0.6615 -2.06042 0
M  V30 6917 C 653.324 -3.38566 -0.125801 0
M  V30 6918 C 651.883 -3.72497 -0.540666 0
M  V30 6919 C 651.03 -2.75806 0.287487 0
M  V30 6920 H 653.981 -1.45995 0.622185 0
M  V30 6921 H 654.002 -3.68658 -0.941888 0
M  V30 6922 H 653.514 -3.77981 0.880473 0
M  V30 6923 H 651.615 -3.38659 -1.55373 0
M  V30 6924 H 651.728 -4.78234 -0.287956 0
M  V30 6925 H 650.092 -2.53474 -0.249561 0
M  V30 6926 H 650.875 -3.18059 1.29203 0
M  V30 6927 N 653.32 -0.135238 -1.57019 0
M  V30 6928 C 654.567 0.518794 -1.95742 0
M  V30 6929 C 654.895 1.65642 -1.01947 0
M  V30 6930 O 654.15 1.95645 -0.0464016 0
M  V30 6931 C 654.449 1.07694 -3.40788 0
M  V30 6932 C 654.115 0.058992 -4.50861 0
M  V30 6933 C 652.777 -0.220872 -4.80693 0
M  V30 6934 C 655.129 -0.633856 -5.17331 0
M  V30 6935 C 652.457 -1.19959 -5.74305 0
M  V30 6936 C 654.809 -1.60131 -6.11997 0
M  V30 6937 C 653.473 -1.889 -6.40213 0
M  V30 6938 H 652.743 0.18984 -0.716269 0
M  V30 6939 H 655.39 -0.219581 -1.90237 0
M  V30 6940 H 653.695 1.89241 -3.43067 0
M  V30 6941 H 655.392 1.59137 -3.68071 0
M  V30 6942 H 651.982 0.287304 -4.27636 0
M  V30 6943 H 656.166 -0.430823 -4.94427 0
M  V30 6944 H 651.422 -1.42905 -5.94465 0
M  V30 6945 H 655.596 -2.14376 -6.62583 0
M  V30 6946 H 653.223 -2.64891 -7.12556 0
M  V30 6947 N 654.798 1.5699 0.138552 0
M  V30 6948 C 655.761 1.97984 1.15478 0
M  V30 6949 C 656.761 0.867416 1.35398 0
M  V30 6950 O 657.951 1.13387 1.32246 0
M  V30 6951 C 655.083 2.3031 2.51337 0
M  V30 6952 H 656.276 2.88953 0.802896 0
M  V30 6953 H 653.829 1.51555 0.382189 0
M  V30 6954 H 654.564 1.42159 2.91481 0
M  V30 6955 H 654.349 3.11425 2.38237 0
M  V30 6956 H 655.839 2.62834 3.24512 0
M  V30 6957 N 656.276 -0.40816 1.52223 0
M  V30 6958 C 657.501 -1.18127 1.70472 0
M  V30 6959 C 657.926 -1.83491 0.41384 0
M  V30 6960 O 657.284 -1.70047 -0.628778 0
M  V30 6961 C 657.332 -2.21935 2.84213 0
M  V30 6962 O 656.436 -3.28099 2.4985 0
M  V30 6963 H 655.777 -0.344781 0.56747 0
M  V30 6964 H 658.307 -0.478328 1.9893 0
M  V30 6965 H 658.317 -2.66248 3.09153 0
M  V30 6966 H 656.992 -1.73744 3.7787 0
M  V30 6967 H 655.569 -2.89058 2.35584 0
M  V30 6968 N 657.755 -1.42862 -0.66545 0
M  V30 6969 C 658.685 -1.49867 -1.79059 0
M  V30 6970 C 659.666 -0.354394 -1.66367 0
M  V30 6971 O 660.851 -0.569969 -1.85647 0
M  V30 6972 C 657.981 -1.40943 -3.17415 0
M  V30 6973 C 656.935 -2.53495 -3.44854 0
M  V30 6974 C 656.261 -2.29626 -4.82883 0
M  V30 6975 C 657.561 -3.95781 -3.40815 0
M  V30 6976 H 659.255 -2.44037 -1.73453 0
M  V30 6977 H 656.801 -1.17456 -0.833071 0
M  V30 6978 H 658.754 -1.4445 -3.95869 0
M  V30 6979 H 657.478 -0.432716 -3.23721 0
M  V30 6980 H 656.137 -2.4932 -2.68766 0
M  V30 6981 H 655.785 -1.30226 -4.8585 0
M  V30 6982 H 655.485 -3.05065 -5.02204 0
M  V30 6983 H 657.009 -2.34897 -5.63609 0
M  V30 6984 H 658.423 -4.01508 -4.09224 0
M  V30 6985 H 656.82 -4.71148 -3.71672 0
M  V30 6986 H 657.89 -4.21786 -2.39216 0
M  V30 6987 N 659.233 0.902656 -1.29189 0
M  V30 6988 C 660.644 1.46809 -1.15343 0
M  V30 6989 C 660.995 1.94568 0.252517 0
M  V30 6990 O 660.12 1.83454 1.14777 0
M  V30 6991 C 660.715 2.66829 -2.08776 0
M  V30 6992 C 659.274 3.19518 -1.98961 0
M  V30 6993 C 658.421 1.92212 -1.99874 0
M  V30 6994 H 661.372 0.714282 -1.41717 0
M  V30 6995 H 661.393 3.42465 -1.65826 0
M  V30 6996 H 660.905 2.32039 -3.11094 0
M  V30 6997 H 659.006 3.59008 -0.99721 0
M  V30 6998 H 659.119 3.84016 -2.86477 0
M  V30 6999 H 657.483 2.0979 -1.44431 0
M  V30 7000 H 658.266 1.59702 -3.03891 0
M  V30 7001 N 660.711 1.11618 1.11262 0
M  V30 7002 C 661.958 0.86618 1.8304 0
M  V30 7003 C 662.286 -0.608149 1.84748 0
M  V30 7004 O 661.541 -1.46508 1.29745 0
M  V30 7005 C 661.84 1.37529 3.2988 0
M  V30 7006 C 661.506 2.86317 3.4833 0
M  V30 7007 C 660.168 3.26945 3.53073 0
M  V30 7008 C 662.52 3.82136 3.54431 0
M  V30 7009 C 659.848 4.62117 3.61475 0
M  V30 7010 C 662.2 5.17128 3.64365 0
M  V30 7011 C 660.864 5.57312 3.67369 0
M  V30 7012 H 660.134 0.316958 0.66979 0
M  V30 7013 H 662.781 1.3949 1.31205 0
M  V30 7014 H 661.086 0.766842 3.84222 0
M  V30 7015 H 662.783 1.15817 3.83911 0
M  V30 7016 H 659.373 2.53889 3.45309 0
M  V30 7017 H 663.557 3.51847 3.50025 0
M  V30 7018 H 658.813 4.92655 3.62079 0
M  V30 7019 H 662.987 5.91208 3.68029 0
M  V30 7020 H 660.614 6.62045 3.73632 0
M  V30 7021 N 662.189 -1.289 0.906776 0
M  V30 7022 C 663.437 -1.94883 0.535266 0
M  V30 7023 C 663.758 -1.71784 -0.922791 0
M  V30 7024 O 663.028 -1.05359 -1.65156 0
M  V30 7025 H 661.608 -0.721109 0.194962 0
M  V30 7026 H 664.27 -1.57018 1.15461 0
M  V30 7027 H 663.366 -3.03591 0.723821 0
M  V30 7028 N 663.667 -0.670007 -1.42649 0
M  V30 7029 C 664.914 -0.190286 -2.01604 0
M  V30 7030 C 665.242 1.20155 -1.52948 0
M  V30 7031 O 664.497 1.81964 -0.72026 0
M  V30 7032 C 664.796 -0.168298 -3.57004 0
M  V30 7033 C 664.462 -1.50415 -4.25072 0
M  V30 7034 C 663.124 -1.86992 -4.43382 0
M  V30 7035 C 665.476 -2.38414 -4.63474 0
M  V30 7036 C 662.804 -3.11203 -4.97363 0
M  V30 7037 C 665.156 -3.61933 -5.18833 0
M  V30 7038 C 663.82 -3.98685 -5.35356 0
M  V30 7039 H 663.09 -0.0696305 -0.737721 0
M  V30 7040 H 665.737 -0.864044 -1.70899 0
M  V30 7041 H 664.042 0.588958 -3.87348 0
M  V30 7042 H 665.739 0.22001 -4.00396 0
M  V30 7043 H 662.329 -1.20959 -4.11177 0
M  V30 7044 H 666.513 -2.11442 -4.49006 0
M  V30 7045 H 661.769 -3.39705 -5.08341 0
M  V30 7046 H 665.943 -4.30326 -5.47533 0
M  V30 7047 H 663.57 -4.95009 -5.76949 0
M  V30 7048 N 665.145 1.52092 -0.413018 0
M  V30 7049 C 666.393 2.01456 0.161178 0
M  V30 7050 C 666.714 1.30034 1.45314 0
M  V30 7051 O 665.984 0.427435 1.9118 0
M  V30 7052 H 664.564 0.744376 0.0625526 0
M  V30 7053 H 667.226 1.86974 -0.550151 0
M  V30 7054 H 666.322 3.1008 0.354517 0
M  V30 7055 N 666.623 0.143563 1.56945 0
M  V30 7056 C 667.57 -0.797433 2.16586 0
M  V30 7057 C 668.54 -1.24654 1.09775 0
M  V30 7058 O 669.725 -1.31968 1.37801 0
M  V30 7059 C 666.865 -2.03253 2.78895 0
M  V30 7060 C 665.978 -1.62954 4.00087 0
M  V30 7061 C 665.113 -2.81617 4.50406 0
M  V30 7062 C 664.152 -2.37675 5.64072 0
M  V30 7063 N 663.289 -3.49335 6.09023 0
M  V30 7064 H 668.129 -0.282023 2.96662 0
M  V30 7065 H 665.666 -0.127494 1.46546 0
M  V30 7066 H 667.624 -2.75653 3.13163 0
M  V30 7067 H 666.254 -2.52211 2.01469 0
M  V30 7068 H 665.306 -0.803322 3.71821 0
M  V30 7069 H 666.618 -1.26679 4.82446 0
M  V30 7070 H 665.772 -3.62212 4.86711 0
M  V30 7071 H 664.511 -3.21134 3.67048 0
M  V30 7072 H 663.516 -1.55519 5.27346 0
M  V30 7073 H 664.741 -1.99247 6.49213 0
M  V30 7074 H 662.687 -3.8848 5.28601 0
M  V30 7075 H 662.604 -3.17064 6.86299 0
M  V30 7076 H 663.872 -4.30297 6.49973 0
M  V30 7077 N 668.101 -1.57061 -0.130224 0
M  V30 7078 C 669.517 -1.52103 -0.483413 0
M  V30 7079 C 669.717 -0.854752 -1.82473 0
M  V30 7080 O 668.773 -0.432342 -2.48771 0
M  V30 7081 C 670.086 -2.96872 -0.47825 0
M  V30 7082 C 671.634 -3.07902 -0.562592 0
M  V30 7083 C 672.109 -4.54211 -0.587929 0
M  V30 7084 N 673.6 -4.58621 -0.649684 0
M  V30 7085 C 674.335 -5.69227 -0.690551 0
M  V30 7086 N 673.831 -6.89358 -0.689743 0
M  V30 7087 N 675.624 -5.57304 -0.732708 0
M  V30 7088 H 667.775 -1.98764 0.748779 0
M  V30 7089 H 670.038 -0.907248 0.274965 0
M  V30 7090 H 669.744 -3.48944 0.439444 0
M  V30 7091 H 669.618 -3.53716 -1.31013 0
M  V30 7092 H 672.005 -2.5584 -1.47071 0
M  V30 7093 H 672.086 -2.54073 0.296764 0
M  V30 7094 H 671.73 -5.06915 0.316096 0
M  V30 7095 H 671.66 -5.0584 -1.46401 0
M  V30 7096 H 674.151 -3.72146 -0.656927 0
M  V30 7097 H 674.464 -7.69408 -0.723239 0
M  V30 7098 H 672.809 -6.91884 -0.657347 0
M  V30 7099 H 676 -4.62363 -0.730625 0
M  V30 7100 H 676.173 -6.43515 -0.76109 0
M  V30 7101 N 669.579 0.400081 -1.52437 0
M  V30 7102 C 670.804 1.17221 -1.71096 0
M  V30 7103 C 671.229 1.83269 -0.423565 0
M  V30 7104 O 670.587 1.70378 0.619751 0
M  V30 7105 C 670.635 2.20425 -2.85386 0
M  V30 7106 O 669.739 3.26769 -2.51586 0
M  V30 7107 H 669.08 0.341766 -0.569291 0
M  V30 7108 H 671.61 0.467772 -1.99181 0
M  V30 7109 H 671.62 2.64605 -3.10561 0
M  V30 7110 H 670.295 1.71737 -3.78786 0
M  V30 7111 H 668.872 2.87804 -2.37114 0
M  V30 7112 N 671.057 1.43213 0.657864 0
M  V30 7113 C 672.297 1.46083 1.42965 0
M  V30 7114 C 672.661 0.0809712 1.91829 0
M  V30 7115 O 673.862 -0.0156305 2.68795 0
M  V30 7116 C 672.133 2.47044 2.58271 0
M  V30 7117 S 673.692 2.68753 3.46868 0
M  V30 7118 H 670.51 0.517015 0.488074 0
M  V30 7119 H 673.112 1.79945 0.764213 0
M  V30 7120 H 671.816 3.46044 2.20639 0
M  V30 7121 H 671.347 2.14665 3.2967 0
M  V30 7122 H 673.362 1.98329 4.54841 0
M  V30 7123 N 672.536 -0.895792 1.29666 0
M  V30 7124 C 673.469 -2.00238 1.09453 0
M  V30 7125 C 674.447 -1.62599 0.00527044 0
M  V30 7126 O 675.631 -1.87847 0.156729 0
M  V30 7127 C 672.758 -3.32066 0.667054 0
M  V30 7128 C 671.804 -3.88691 1.7556 0
M  V30 7129 S 672.637 -4.17317 3.35569 0
M  V30 7130 C 673.793 -5.52181 2.94698 0
M  V30 7131 H 674.026 -2.17076 2.03138 0
M  V30 7132 H 671.559 -1.04287 1.13858 0
M  V30 7133 H 673.517 -4.08272 0.427136 0
M  V30 7134 H 672.178 -3.13101 -0.250256 0
M  V30 7135 H 671.371 -4.83918 1.40853 0
M  V30 7136 H 670.973 -3.19187 1.94924 0
M  V30 7137 H 673.265 -6.3281 2.41986 0
M  V30 7138 H 674.208 -5.91817 3.88791 0
M  V30 7139 H 674.616 -5.14225 2.32879 0
M  V30 7140 N 674.014 -1.12206 -1.10668 0
M  V30 7141 C 675.262 -0.874144 -1.82217 0
M  V30 7142 C 675.583 0.601736 -1.85484 0
M  V30 7143 O 674.853 1.43725 -1.33116 0
M  V30 7144 H 673.433 -0.320404 -0.674797 0
M  V30 7145 H 676.095 -1.41606 -1.33917 0
M  V30 7146 H 675.191 -1.25349 -2.85822 0
M  V30 7147 N 675.492 1.28418 -0.913599 0
M  V30 7148 C 676.908 1.47411 -0.611728 0
M  V30 7149 C 677.108 1.83018 0.843008 0
M  V30 7150 O 676.164 1.93505 1.6221 0
M  V30 7151 C 677.477 2.57703 -1.5495 0
M  V30 7152 C 679.025 2.71572 -1.5562 0
M  V30 7153 C 679.5 3.85008 -2.48058 0
M  V30 7154 N 680.991 3.92361 -2.46184 0
M  V30 7155 C 681.726 4.79516 -3.14407 0
M  V30 7156 N 681.222 5.71262 -3.91958 0
M  V30 7157 N 683.015 4.73125 -3.03495 0
M  V30 7158 H 675.166 1.03585 -1.85429 0
M  V30 7159 H 677.429 0.515907 -0.795326 0
M  V30 7160 H 677.135 2.38298 -2.58663 0
M  V30 7161 H 677.009 3.54801 -1.28048 0
M  V30 7162 H 679.396 2.90366 -0.526441 0
M  V30 7163 H 679.477 1.75006 -1.86565 0
M  V30 7164 H 679.121 3.66969 -3.51136 0
M  V30 7165 H 679.051 4.80971 -2.14416 0
M  V30 7166 H 681.542 3.26749 -1.89851 0
M  V30 7167 H 681.855 6.34593 -4.41034 0
M  V30 7168 H 680.2 5.71103 -3.96063 0
M  V30 7169 H 683.391 4.00442 -2.42413 0
M  V30 7170 H 683.564 5.40834 -3.56935 0
M  V30 7171 N 676.97 0.677563 1.42291 0
M  V30 7172 C 678.386 0.347376 1.55774 0
M  V30 7173 C 678.586 -1.14703 1.65667 0
M  V30 7174 O 677.642 -1.93252 1.62512 0
M  V30 7175 C 678.955 1.08011 2.80631 0
M  V30 7176 C 680.503 1.06271 2.94407 0
M  V30 7177 C 680.978 1.77683 4.22129 0
M  V30 7178 N 682.469 1.74564 4.29047 0
M  V30 7179 C 683.204 2.26673 5.26694 0
M  V30 7180 N 682.7 2.87176 6.30477 0
M  V30 7181 N 684.493 2.17032 5.18511 0
M  V30 7182 H 676.644 1.64703 1.34114 0
M  V30 7183 H 678.907 0.694038 0.645768 0
M  V30 7184 H 678.613 2.13518 2.79469 0
M  V30 7185 H 678.487 0.647115 3.71608 0
M  V30 7186 H 680.874 0.0159658 2.95096 0
M  V30 7187 H 680.955 1.53461 2.04654 0
M  V30 7188 H 680.599 2.82327 4.22201 0
M  V30 7189 H 680.529 1.2794 5.10822 0
M  V30 7190 H 683.02 1.30436 3.54676 0
M  V30 7191 H 683.333 3.24551 7.01346 0
M  V30 7192 H 681.678 2.91247 6.31031 0
M  V30 7193 H 684.869 1.69451 4.36353 0
M  V30 7194 H 685.042 2.57948 5.94446 0
M  V30 7195 N 678.448 -1.51871 0.421078 0
M  V30 7196 C 679.378 -2.30231 -0.389363 0
M  V30 7197 C 680.359 -1.34946 -1.03555 0
M  V30 7198 O 681.544 -1.63859 -1.04229 0
M  V30 7199 C 678.674 -3.13247 -1.49979 0
M  V30 7200 C 677.628 -4.16677 -0.977966 0
M  V30 7201 C 676.954 -4.88112 -2.1829 0
M  V30 7202 C 678.254 -5.22295 -0.0236775 0
M  V30 7203 H 679.948 -2.98229 0.264524 0
M  V30 7204 H 677.494 -1.43424 0.12866 0
M  V30 7205 H 679.447 -3.66838 -2.07383 0
M  V30 7206 H 678.171 -2.4304 -2.18173 0
M  V30 7207 H 676.83 -3.64114 -0.426245 0
M  V30 7208 H 676.478 -4.14423 -2.85066 0
M  V30 7209 H 676.178 -5.58041 -1.84021 0
M  V30 7210 H 677.702 -5.44521 -2.76278 0
M  V30 7211 H 679.116 -5.71055 -0.506899 0
M  V30 7212 H 677.513 -5.99656 0.230782 0
M  V30 7213 H 678.583 -4.76131 0.917999 0
M  V30 7214 N 679.926 -0.151884 -1.56866 0
M  V30 7215 C 680.889 0.771861 -2.15812 0
M  V30 7216 C 681.889 1.17181 -1.10115 0
M  V30 7217 O 683.079 1.09194 -1.35729 0
M  V30 7218 C 680.211 2.04806 -2.7252 0
M  V30 7219 H 681.404 0.259021 -2.98779 0
M  V30 7220 H 678.957 0.097588 -1.55995 0
M  V30 7221 H 679.692 2.60445 -1.93233 0
M  V30 7222 H 679.477 1.77044 -3.49854 0
M  V30 7223 H 680.967 2.70771 -3.1792 0
M  V30 7224 N 681.404 1.57128 0.121893 0
M  V30 7225 C 682.314 2.03425 1.16857 0
M  V30 7226 C 683.33 0.954108 1.45509 0
M  V30 7227 O 684.506 1.26541 1.56682 0
M  V30 7228 C 681.571 2.42685 2.47599 0
M  V30 7229 C 680.632 3.64767 2.2637 0
M  V30 7230 C 679.865 4.02145 3.50878 0
M  V30 7231 O 680.088 3.39897 4.58068 0
M  V30 7232 O 679.022 4.95262 3.42051 0
M  V30 7233 H 682.848 2.92825 0.80544 0
M  V30 7234 H 680.433 1.45654 0.332477 0
M  V30 7235 H 682.315 2.68684 3.24634 0
M  V30 7236 H 680.99 1.56432 2.83392 0
M  V30 7237 H 679.897 3.43922 1.47203 0
M  V30 7238 H 681.23 4.51716 1.95482 0
M  V30 7239 N 682.882 -0.391992 1.52647 0
M  V30 7240 C 683.812 -1.48517 1.8018 0
M  V30 7241 C 684.793 -1.57039 0.653667 0
M  V30 7242 O 685.978 -1.72036 0.900962 0
M  V30 7243 C 683.108 -2.86161 1.96797 0
M  V30 7244 C 682.062 -2.92481 3.12472 0
M  V30 7245 C 681.388 -4.32546 3.14338 0
M  V30 7246 C 682.688 -2.624 4.51601 0
M  V30 7247 H 684.382 -1.25726 2.71723 0
M  V30 7248 H 681.928 -0.603387 1.30749 0
M  V30 7249 H 683.881 -3.62639 2.14641 0
M  V30 7250 H 682.605 -3.10283 1.01941 0
M  V30 7251 H 681.264 -2.18451 2.94406 0
M  V30 7252 H 680.912 -4.53703 2.1717 0
M  V30 7253 H 680.612 -4.37695 3.92042 0
M  V30 7254 H 682.136 -5.10934 3.34333 0
M  V30 7255 H 683.55 -3.28596 4.69785 0
M  V30 7256 H 681.947 -2.78903 5.3135 0
M  V30 7257 H 683.017 -1.57754 4.58521 0
M  V30 7258 N 684.36 -1.4356 -0.65026 0
M  V30 7259 C 685.27 -1.514 -1.79207 0
M  V30 7260 C 686.286 -0.400895 -1.69319 0
M  V30 7261 O 687.462 -0.655458 -1.90436 0
M  V30 7262 C 684.527 -1.43737 -3.155 0
M  V30 7263 C 683.588 -2.65743 -3.37163 0
M  V30 7264 C 682.821 -2.58436 -4.66954 0
M  V30 7265 O 683.044 -1.63374 -5.46503 0
M  V30 7266 O 681.978 -3.48984 -4.90402 0
M  V30 7267 H 685.804 -2.47825 -1.75547 0
M  V30 7268 H 683.389 -1.25594 -0.809111 0
M  V30 7269 H 685.271 -1.41916 -3.96784 0
M  V30 7270 H 683.946 -0.504488 -3.19745 0
M  V30 7271 H 682.853 -2.73136 -2.55632 0
M  V30 7272 H 684.186 -3.58014 -3.37768 0
M  V30 7273 N 685.838 0.888903 -1.30139 0
M  V30 7274 C 686.768 2.01046 -1.18755 0
M  V30 7275 C 687.749 1.69916 -0.0791438 0
M  V30 7276 O 688.934 1.92445 -0.260498 0
M  V30 7277 C 686.064 3.36109 -0.874518 0
M  V30 7278 C 685.018 3.81486 -1.94043 0
M  V30 7279 C 684.344 5.13796 -1.48047 0
M  V30 7280 C 685.644 4.00637 -3.35093 0
M  V30 7281 H 687.338 2.10828 -2.12584 0
M  V30 7282 H 684.884 1.01298 -1.02346 0
M  V30 7283 H 686.837 4.14089 -0.781548 0
M  V30 7284 H 685.561 3.26449 0.0994519 0
M  V30 7285 H 684.22 3.05731 -2.02297 0
M  V30 7286 H 683.868 5.0056 -0.494878 0
M  V30 7287 H 683.568 5.45127 -2.19341 0
M  V30 7288 H 685.092 5.94305 -1.40121 0
M  V30 7289 H 686.506 4.69067 -3.2962 0
M  V30 7290 H 684.903 4.43339 -4.04438 0
M  V30 7291 H 685.973 3.0462 -3.77273 0
M  V30 7292 N 687.317 1.12792 1.10072 0
M  V30 7293 C 688.249 0.757003 2.16338 0
M  V30 7294 C 689.262 -0.218144 1.61332 0
M  V30 7295 O 690.451 0.0010727 1.785 0
M  V30 7296 C 687.551 0.100303 3.38752 0
M  V30 7297 C 686.724 1.10586 4.2319 0
M  V30 7298 C 685.783 0.47609 5.24042 0
M  V30 7299 O 684.809 1.13418 5.57786 0
M  V30 7300 N 686.011 -0.754823 5.75572 0
M  V30 7301 H 688.776 1.6714 2.48766 0
M  V30 7302 H 686.337 1.02003 1.25726 0
M  V30 7303 H 688.329 -0.333092 4.03327 0
M  V30 7304 H 686.899 -0.716915 3.04268 0
M  V30 7305 H 686.119 1.71677 3.54853 0
M  V30 7306 H 687.407 1.78571 4.76435 0
M  V30 7307 H 686.805 -1.30838 5.50362 0
M  V30 7308 H 685.362 -1.13098 6.41913 0
M  V30 7309 N 688.795 -1.27931 0.920396 0
M  V30 7310 C 689.728 -2.2537 0.358285 0
M  V30 7311 C 690.706 -1.53328 -0.541242 0
M  V30 7312 O 691.89 -1.82196 -0.483399 0
M  V30 7313 C 689.017 -3.35178 -0.487193 0
M  V30 7314 C 688.063 -4.25079 0.347881 0
M  V30 7315 S 688.896 -5.05792 1.75883 0
M  V30 7316 C 690.052 -6.19089 0.920832 0
M  V30 7317 H 690.285 -2.72701 1.18413 0
M  V30 7318 H 687.818 -1.36474 0.722088 0
M  V30 7319 H 689.776 -3.98895 -0.96916 0
M  V30 7320 H 688.437 -2.865 -1.28749 0
M  V30 7321 H 687.63 -5.03113 -0.298912 0
M  V30 7322 H 687.232 -3.66119 0.763748 0
M  V30 7323 H 689.524 -6.77326 0.15349 0
M  V30 7324 H 690.467 -6.8803 1.67394 0
M  V30 7325 H 690.875 -5.62573 0.466069 0
M  V30 7326 N 690.273 -0.685099 -1.4193 0
M  V30 7327 C 691.236 -0.0222632 -2.29189 0
M  V30 7328 C 692.236 0.7186 -1.4385 0
M  V30 7329 O 693.426 0.555058 -1.6512 0
M  V30 7330 C 690.558 0.979013 -3.2654 0
M  V30 7331 H 691.751 -0.790424 -2.89296 0
M  V30 7332 H 689.304 -0.448012 -1.49742 0
M  V30 7333 H 690.039 1.77531 -2.71392 0
M  V30 7334 H 689.824 0.451037 -3.89497 0
M  V30 7335 H 691.314 1.44091 -3.91954 0
M  V30 7336 N 691.751 1.51645 -0.429126 0
M  V30 7337 C 692.681 2.30434 0.377148 0
M  V30 7338 C 693.662 1.35493 1.02838 0
M  V30 7339 O 694.847 1.6441 1.03359 0
M  V30 7340 C 691.977 3.14038 1.48315 0
M  V30 7341 C 690.931 4.1719 0.955855 0
M  V30 7342 C 690.257 4.89263 2.15698 0
M  V30 7343 C 691.557 5.223 -0.00402136 0
M  V30 7344 H 693.251 2.98085 -0.280336 0
M  V30 7345 H 690.797 1.43354 -0.136265 0
M  V30 7346 H 692.75 3.67933 2.05435 0
M  V30 7347 H 691.474 2.44193 2.16881 0
M  V30 7348 H 690.133 3.64335 0.406929 0
M  V30 7349 H 689.781 4.15929 2.82864 0
M  V30 7350 H 689.481 5.59009 1.81059 0
M  V30 7351 H 691.005 5.45978 2.73387 0
M  V30 7352 H 692.419 5.71315 0.476607 0
M  V30 7353 H 690.816 5.99525 -0.26258 0
M  V30 7354 H 691.886 4.75638 -0.943236 0
M  V30 7355 N 693.229 0.160201 1.56784 0
M  V30 7356 C 694.192 -0.760405 2.16219 0
M  V30 7357 C 695.192 -1.16595 1.10735 0
M  V30 7358 O 696.382 -1.08472 1.36306 0
M  V30 7359 C 693.514 -2.03358 2.73603 0
M  V30 7360 H 694.707 -0.243173 2.98912 0
M  V30 7361 H 692.26 -0.0893139 1.56045 0
M  V30 7362 H 692.995 -2.59416 1.94612 0
M  V30 7363 H 692.78 -1.75186 3.50788 0
M  V30 7364 H 694.27 -2.69081 3.19351 0
M  V30 7365 N 694.707 -1.5719 -0.113559 0
M  V30 7366 C 695.639 -1.97393 -1.16484 0
M  V30 7367 C 696.652 -0.873964 -1.37352 0
M  V30 7368 O 697.841 -1.15222 -1.36331 0
M  V30 7369 C 694.941 -2.26174 -2.52386 0
M  V30 7370 C 694.114 -3.57479 -2.52046 0
M  V30 7371 C 693.173 -3.74409 -3.69735 0
M  V30 7372 O 692.199 -4.46463 -3.53071 0
M  V30 7373 N 693.401 -3.13588 -4.88511 0
M  V30 7374 H 696.166 -2.88184 -0.822814 0
M  V30 7375 H 693.727 -1.59044 -0.302769 0
M  V30 7376 H 695.719 -2.3471 -3.29687 0
M  V30 7377 H 694.289 -1.41483 -2.7875 0
M  V30 7378 H 693.509 -3.60081 -1.60421 0
M  V30 7379 H 694.797 -4.43775 -2.48881 0
M  V30 7380 H 694.195 -2.55026 -5.04953 0
M  V30 7381 H 692.752 -3.27637 -5.63469 0
M  V30 7382 N 696.185 0.383891 -1.52853 0
M  V30 7383 C 697.434 1.12563 -1.67369 0
M  V30 7384 C 697.747 1.90982 -0.422533 0
M  V30 7385 O 698.953 2.6778 -0.447914 0
M  V30 7386 C 697.409 2.05011 -2.95801 0
M  V30 7387 C 697.017 1.31991 -4.28115 0
M  V30 7388 C 698.761 2.79289 -3.19684 0
M  V30 7389 C 696.668 2.23235 -5.4765 0
M  V30 7390 H 695.598 0.42391 -0.623552 0
M  V30 7391 H 698.249 0.388016 -1.79351 0
M  V30 7392 H 696.631 2.82429 -2.77578 0
M  V30 7393 H 697.805 0.597633 -4.56908 0
M  V30 7394 H 696.12 0.696517 -4.10533 0
M  V30 7395 H 698.717 3.47749 -4.06171 0
M  V30 7396 H 699.06 3.43649 -2.3497 0
M  V30 7397 H 699.593 2.08962 -3.38496 0
M  V30 7398 H 696.332 1.63482 -6.34786 0
M  V30 7399 H 695.852 2.93364 -5.23161 0
M  V30 7400 H 697.531 2.83205 -5.81725 0
M  V30 7401 N 697.663 1.43903 0.642637 0
M  V30 7402 C 698.593 1.52697 1.76652 0
M  V30 7403 C 699.574 0.380816 1.65782 0
M  V30 7404 O 700.759 0.599432 1.84717 0
M  V30 7405 C 697.889 1.45975 3.15133 0
M  V30 7406 C 696.843 2.58949 3.40778 0
M  V30 7407 C 696.169 2.37279 4.79169 0
M  V30 7408 C 697.469 4.01153 3.34475 0
M  V30 7409 H 699.163 2.46766 1.69549 0
M  V30 7410 H 696.709 1.18767 0.814279 0
M  V30 7411 H 698.662 1.5073 3.93521 0
M  V30 7412 H 697.386 0.484162 3.22991 0
M  V30 7413 H 696.045 2.53564 2.64765 0
M  V30 7414 H 695.693 1.37939 4.83717 0
M  V30 7415 H 695.393 3.13016 4.97287 0
M  V30 7416 H 696.917 2.43834 5.59801 0
M  V30 7417 H 698.331 4.07968 4.02784 0
M  V30 7418 H 696.728 4.77001 3.64129 0
M  V30 7419 H 697.798 4.25539 2.32475 0
M  V30 7420 N 699.141 -0.881989 1.30609 0
M  V30 7421 C 700.369 -1.66711 1.22536 0
M  V30 7422 C 700.784 -1.87614 -0.2113 0
M  V30 7423 O 700.141 -1.42576 -1.13923 0
M  V30 7424 C 700.192 -3.04182 1.95335 0
M  V30 7425 O 699.913 -2.8422 3.33393 0
M  V30 7426 C 701.414 -3.98617 1.93956 0
M  V30 7427 H 698.634 -0.520124 0.423925 0
M  V30 7428 H 701.178 -1.10174 1.72285 0
M  V30 7429 H 699.333 -3.57442 1.49378 0
M  V30 7430 H 699.747 -3.71452 3.70302 0
M  V30 7431 H 701.221 -4.92433 2.49426 0
M  V30 7432 H 701.698 -4.29473 0.919198 0
M  V30 7433 H 702.304 -3.51292 2.39738 0
M  V30 7434 N 700.619 -1.13374 -1.09472 0
M  V30 7435 C 701.569 -0.77946 -2.14263 0
M  V30 7436 C 702.553 0.226271 -1.59301 0
M  V30 7437 O 703.745 0.0302581 -1.76974 0
M  V30 7438 C 700.874 -0.246635 -3.42413 0
M  V30 7439 C 699.96 -1.28124 -4.04283 0
M  V30 7440 N 700.351 -2.48201 -4.40715 0
M  V30 7441 C 698.649 -1.12892 -4.31476 0
M  V30 7442 C 699.35 -3.14347 -4.8945 0
M  V30 7443 N 698.326 -2.41771 -4.86876 0
M  V30 7444 H 702.128 -1.69305 -2.40235 0
M  V30 7445 H 699.642 -1.01598 -1.26695 0
M  V30 7446 H 701.639 0.0254131 -4.16892 0
M  V30 7447 H 700.299 0.661287 -3.17895 0
M  V30 7448 H 701.31 -2.85511 -4.32093 0
M  V30 7449 H 697.987 -0.279117 -4.16566 0
M  V30 7450 H 699.377 -4.16663 -5.27107 0
M  V30 7451 N 702.098 1.27442 -0.927168 0
M  V30 7452 C 703.345 1.94391 -0.567324 0
M  V30 7453 C 703.673 1.72875 0.891321 0
M  V30 7454 O 702.928 1.05071 1.65102 0
M  V30 7455 C 703.227 3.47413 -0.838994 0
M  V30 7456 C 702.893 3.89049 -2.2793 0
M  V30 7457 C 701.555 4.00127 -2.67305 0
M  V30 7458 C 703.907 4.10154 -3.21595 0
M  V30 7459 C 701.235 4.29697 -3.99471 0
M  V30 7460 C 703.587 4.41208 -4.53341 0
M  V30 7461 C 702.251 4.50499 -4.92551 0
M  V30 7462 H 701.521 0.711325 -0.207598 0
M  V30 7463 H 704.168 1.51523 -1.17103 0
M  V30 7464 H 702.473 3.91503 -0.152609 0
M  V30 7465 H 704.17 3.97354 -0.53955 0
M  V30 7466 H 700.76 3.80962 -1.96381 0
M  V30 7467 H 704.944 4.01036 -2.92377 0
M  V30 7468 H 700.2 4.35099 -4.29533 0
M  V30 7469 H 704.374 4.56486 -5.25922 0
M  V30 7470 H 702.001 4.73167 -5.94994 0
M  V30 7471 N 703.576 0.692616 1.41565 0
M  V30 7472 C 704.486 0.0258451 2.34586 0
M  V30 7473 C 705.502 -0.769324 1.56069 0
M  V30 7474 O 706.678 -0.707563 1.88562 0
M  V30 7475 C 703.743 -0.901289 3.3478 0
M  V30 7476 C 702.804 -0.0986579 4.29187 0
M  V30 7477 C 702.037 -0.981634 5.24595 0
M  V30 7478 O 702.26 -2.22115 5.25377 0
M  V30 7479 O 701.194 -0.432892 6.00341 0
M  V30 7480 H 705.02 0.792537 2.93177 0
M  V30 7481 H 702.605 0.452935 1.42369 0
M  V30 7482 H 704.487 -1.43302 3.96286 0
M  V30 7483 H 703.162 -1.64752 2.78637 0
M  V30 7484 H 702.069 0.477604 3.71039 0
M  V30 7485 H 703.402 0.608848 4.8842 0
M  V30 7486 N 705.054 -1.51416 0.437162 0
M  V30 7487 C 706.3 -2.02386 -0.129555 0
M  V30 7488 C 706.633 -1.32071 -1.42376 0
M  V30 7489 O 705.908 -0.43559 -1.8956 0
M  V30 7490 C 706.191 -3.5841 -0.348487 0
M  V30 7491 C 706.044 -4.39341 0.964352 0
M  V30 7492 C 707.363 -4.25654 -1.11834 0
M  V30 7493 H 704.482 -0.735587 -0.0456109 0
M  V30 7494 H 707.124 -1.81055 0.576124 0
M  V30 7495 H 705.274 -3.76716 -0.949592 0
M  V30 7496 H 706.946 -4.32685 1.59942 0
M  V30 7497 H 705.189 -4.04432 1.56898 0
M  V30 7498 H 705.86 -5.4667 0.765212 0
M  V30 7499 H 708.336 -4.11617 -0.609165 0
M  V30 7500 H 707.212 -5.34704 -1.24029 0
M  V30 7501 H 707.473 -3.86502 -2.14636 0
M  V30 7502 N 706.532 -0.168513 -1.56696 0
M  V30 7503 C 707.464 0.794249 -2.14998 0
M  V30 7504 C 708.477 1.1957 -1.10485 0
M  V30 7505 O 709.666 1.13604 -1.37682 0
M  V30 7506 C 706.766 2.08018 -2.67547 0
M  V30 7507 C 705.939 1.84274 -3.96689 0
M  V30 7508 C 704.998 2.97059 -4.3433 0
M  V30 7509 O 704.024 2.67815 -5.02259 0
M  V30 7510 N 705.226 4.24775 -3.9566 0
M  V30 7511 H 707.991 0.295832 -2.98236 0
M  V30 7512 H 705.552 0.0143611 -1.61894 0
M  V30 7513 H 707.544 2.82559 -2.89729 0
M  V30 7514 H 706.114 2.49059 -1.88914 0
M  V30 7515 H 705.334 0.936528 -3.82914 0
M  V30 7516 H 706.622 1.65773 -4.81037 0
M  V30 7517 H 706.02 4.51395 -3.40968 0
M  V30 7518 H 704.577 4.96027 -4.22848 0
M  V30 7519 N 708.01 1.57248 0.105221 0
M  V30 7520 C 709.421 1.74612 0.660865 0
M  V30 7521 C 709.772 0.789231 1.79626 0
M  V30 7522 O 708.897 -0.0346611 2.16372 0
M  V30 7523 C 709.492 3.16624 1.20559 0
M  V30 7524 C 708.051 3.35447 1.7074 0
M  V30 7525 C 707.198 2.70445 0.612764 0
M  V30 7526 H 710.149 1.5824 -0.12079 0
M  V30 7527 H 710.17 3.18937 2.07508 0
M  V30 7528 H 709.682 3.86245 0.379012 0
M  V30 7529 H 707.783 2.7089 2.5583 0
M  V30 7530 H 707.896 4.43702 1.80736 0
M  V30 7531 H 706.26 2.32061 1.04975 0
M  V30 7532 H 707.043 3.42699 -0.203066 0
M  V30 7533 N 709.488 -0.375779 1.53054 0
M  V30 7534 C 710.398 -1.48381 1.81715 0
M  V30 7535 C 711.414 -1.59087 0.704795 0
M  V30 7536 O 712.59 -1.75174 0.993785 0
M  V30 7537 C 709.655 -2.83767 1.99192 0
M  V30 7538 C 708.716 -2.82673 3.23102 0
M  V30 7539 C 707.949 -4.11601 3.39736 0
M  V30 7540 O 708.172 -5.07243 2.60885 0
M  V30 7541 O 707.106 -4.18034 4.33049 0
M  V30 7542 H 710.932 -1.27089 2.7583 0
M  V30 7543 H 708.517 -0.564902 1.38308 0
M  V30 7544 H 710.399 -3.64004 2.12318 0
M  V30 7545 H 709.074 -3.05057 1.08267 0
M  V30 7546 H 707.981 -2.0117 3.15407 0
M  V30 7547 H 709.314 -2.66335 4.13916 0
M  V30 7548 N 710.966 -1.44241 -0.634997 0
M  V30 7549 C 712.377 -1.41622 -1.21655 0
M  V30 7550 C 712.728 -0.129584 -1.95772 0
M  V30 7551 O 711.853 0.770225 -2.02229 0
M  V30 7552 C 712.448 -2.56557 -2.21278 0
M  V30 7553 C 711.007 -2.57145 -2.7487 0
M  V30 7554 C 710.154 -2.33354 -1.49804 0
M  V30 7555 H 713.105 -1.52878 -0.425905 0
M  V30 7556 H 713.126 -2.29089 -3.03807 0
M  V30 7557 H 712.638 -3.50186 -1.67306 0
M  V30 7558 H 710.739 -1.67447 -3.32855 0
M  V30 7559 H 710.852 -3.55507 -3.21172 0
M  V30 7560 H 709.216 -1.82372 -1.77799 0
M  V30 7561 H 709.999 -3.29092 -0.977402 0
M  V30 7562 N 712.444 0.87505 -1.31075 0
M  V30 7563 C 713.692 1.62447 -1.20231 0
M  V30 7564 C 714.013 1.93506 0.240888 0
M  V30 7565 O 713.283 1.57847 1.16022 0
M  V30 7566 H 711.863 0.602207 -0.441991 0
M  V30 7567 H 714.525 1.04788 -1.64334 0
M  V30 7568 H 713.621 2.57031 -1.77036 0
M  V30 7569 N 713.922 1.13953 1.08869 0
M  V30 7570 C 714.885 0.824991 2.13838 0
M  V30 7571 C 715.885 -0.168198 1.59918 0
M  V30 7572 O 717.075 0.0595778 1.74098 0
M  V30 7573 C 714.207 0.228938 3.4013 0
M  V30 7574 H 715.4 1.75521 2.43171 0
M  V30 7575 H 712.953 0.94492 1.24503 0
M  V30 7576 H 713.688 -0.710227 3.16427 0
M  V30 7577 H 713.473 0.944243 3.80561 0
M  V30 7578 H 714.963 0.0259223 4.17592 0
M  V30 7579 N 715.4 -1.26948 0.933913 0
M  V30 7580 C 716.363 -2.24889 0.442457 0
M  V30 7581 C 717.363 -1.54594 -0.442426 0
M  V30 7582 O 718.553 -1.72502 -0.242629 0
M  V30 7583 C 715.685 -3.3896 -0.363173 0
M  V30 7584 H 716.878 -2.69879 1.30787 0
M  V30 7585 H 714.431 -1.38978 0.715187 0
M  V30 7586 H 715.166 -2.99361 -1.24714 0
M  V30 7587 H 714.951 -3.9116 0.271366 0
M  V30 7588 H 716.441 -4.11739 -0.697186 0
M  V30 7589 N 716.879 -0.700114 -1.41195 0
M  V30 7590 C 718.29 -0.307249 -1.84154 0
M  V30 7591 C 718.641 1.15539 -1.58572 0
M  V30 7592 O 717.766 1.88744 -1.05852 0
M  V30 7593 C 718.361 -0.550872 -3.34292 0
M  V30 7594 C 716.92 -0.211877 -3.75803 0
M  V30 7595 C 716.067 -0.830915 -2.64558 0
M  V30 7596 H 719.018 -0.900431 -1.30683 0
M  V30 7597 H 719.039 0.188954 -3.80031 0
M  V30 7598 H 718.551 -1.61548 -3.5288 0
M  V30 7599 H 716.652 0.848283 -3.62815 0
M  V30 7600 H 716.765 -0.67007 -4.74391 0
M  V30 7601 H 715.129 -0.260155 -2.53368 0
M  V30 7602 H 715.912 -1.89948 -2.85963 0
M  V30 7603 N 718.357 1.51182 -0.445186 0
M  V30 7604 C 719.603 2.02452 0.11882 0
M  V30 7605 C 719.936 1.32824 1.41673 0
M  V30 7606 O 719.211 0.445637 1.89326 0
M  V30 7607 C 719.494 3.5859 0.329475 0
M  V30 7608 C 719.347 4.38823 -0.987638 0
M  V30 7609 C 720.666 4.26241 1.09575 0
M  V30 7610 H 717.785 0.735819 0.0417092 0
M  V30 7611 H 720.427 1.80747 -0.585718 0
M  V30 7612 H 718.577 3.77214 0.9296 0
M  V30 7613 H 720.249 4.3183 -1.62235 0
M  V30 7614 H 718.492 4.03594 -1.59041 0
M  V30 7615 H 719.163 5.46257 -0.794192 0
M  V30 7616 H 721.639 4.11934 0.587328 0
M  V30 7617 H 720.515 5.35354 1.21191 0
M  V30 7618 H 720.776 3.87635 2.12584 0
M  V30 7619 N 719.835 0.176821 1.56605 0
M  V30 7620 C 721.251 -0.179278 1.5859 0
M  V30 7621 C 721.451 -1.62433 1.19238 0
M  V30 7622 O 720.507 -2.35665 0.906552 0
M  V30 7623 C 721.82 0.106524 3.00511 0
M  V30 7624 C 723.368 0.0451731 3.12967 0
M  V30 7625 C 723.843 0.304038 4.5699 0
M  V30 7626 N 725.334 0.252008 4.62514 0
M  V30 7627 C 726.069 0.426404 5.71812 0
M  V30 7628 N 725.565 0.660155 6.89648 0
M  V30 7629 N 727.358 0.361926 5.60934 0
M  V30 7630 H 719.509 1.12001 1.8047 0
M  V30 7631 H 721.772 0.445679 0.836704 0
M  V30 7632 H 721.478 1.10778 3.33798 0
M  V30 7633 H 721.352 -0.599337 3.72408 0
M  V30 7634 H 723.739 -0.946662 2.79504 0
M  V30 7635 H 723.82 0.78383 2.43495 0
M  V30 7636 H 723.464 1.29311 4.91163 0
M  V30 7637 H 723.394 -0.455294 5.24628 0
M  V30 7638 H 725.885 0.0772102 3.77821 0
M  V30 7639 H 726.198 0.782529 7.68828 0
M  V30 7640 H 724.543 0.696835 6.91498 0
M  V30 7641 H 727.734 0.17986 4.67754 0
M  V30 7642 H 727.907 0.501263 6.46058 0
M  V30 7643 N 721.313 -1.57302 -0.09688 0
M  V30 7644 C 722.724 -1.7496 -0.651595 0
M  V30 7645 C 723.075 -0.798746 -1.79205 0
M  V30 7646 O 722.2 0.0231858 -2.16388 0
M  V30 7647 C 722.795 -3.17259 -1.18878 0
M  V30 7648 C 721.354 -3.36348 -1.68958 0
M  V30 7649 C 720.501 -2.70766 -0.598413 0
M  V30 7650 H 723.452 -1.58173 0.12918 0
M  V30 7651 H 723.473 -3.20033 -2.05814 0
M  V30 7652 H 722.985 -3.8644 -0.358523 0
M  V30 7653 H 721.086 -2.72243 -2.5439 0
M  V30 7654 H 721.199 -4.44654 -1.7838 0
M  V30 7655 H 719.563 -2.32615 -1.03743 0
M  V30 7656 H 720.346 -3.42586 0.221238 0
M  V30 7657 N 722.791 0.367657 -1.53252 0
M  V30 7658 C 723.738 1.45028 -1.79543 0
M  V30 7659 C 724.708 1.53288 -0.63969 0
M  V30 7660 O 725.893 1.69209 -0.881653 0
M  V30 7661 C 723.033 2.82 -1.98923 0
M  V30 7662 C 722.146 2.82722 -3.26638 0
M  V30 7663 C 721.281 4.11257 -3.36216 0
M  V30 7664 C 720.32 4.06113 -4.57972 0
M  V30 7665 N 719.457 5.26293 -4.64715 0
M  V30 7666 H 724.297 1.21908 -2.71923 0
M  V30 7667 H 721.834 0.591011 -1.34705 0
M  V30 7668 H 723.792 3.61568 -2.08146 0
M  V30 7669 H 722.422 3.03523 -1.09881 0
M  V30 7670 H 721.474 1.95399 -3.26379 0
M  V30 7671 H 722.786 2.74794 -4.16281 0
M  V30 7672 H 721.94 4.99239 -3.44739 0
M  V30 7673 H 720.679 4.21935 -2.44586 0
M  V30 7674 H 719.684 3.16517 -4.49552 0
M  V30 7675 H 720.909 3.97039 -5.50942 0
M  V30 7676 H 718.855 5.37561 -3.75985 0
M  V30 7677 H 718.772 5.20526 -5.4826 0
M  V30 7678 H 720.04 6.16113 -4.77519 0
M  V30 7679 N 724.269 1.44576 0.627338 0
M  V30 7680 C 725.497 1.51048 1.41394 0
M  V30 7681 C 725.912 0.136568 1.88305 0
M  V30 7682 O 725.269 -0.858251 1.6106 0
M  V30 7683 C 725.32 2.47837 2.63172 0
M  V30 7684 O 725.041 3.79887 2.18215 0
M  V30 7685 C 726.542 2.63811 3.56257 0
M  V30 7686 H 723.762 0.512171 0.4335 0
M  V30 7687 H 726.306 1.89576 0.766878 0
M  V30 7688 H 724.461 2.12433 3.23961 0
M  V30 7689 H 724.875 4.32177 2.97192 0
M  V30 7690 H 726.349 3.35554 4.38301 0
M  V30 7691 H 726.826 1.69169 4.05313 0
M  V30 7692 H 727.432 3.0013 3.01333 0
M  V30 7693 N 725.747 -0.868086 1.31537 0
M  V30 7694 C 727.163 -1.15414 1.10235 0
M  V30 7695 C 727.363 -2.01106 -0.125947 0
M  V30 7696 O 726.419 -2.38994 -0.814734 0
M  V30 7697 C 727.732 -1.84445 2.37488 0
M  V30 7698 C 729.28 -1.97139 2.43116 0
M  V30 7699 C 729.755 -2.69585 3.70254 0
M  V30 7700 N 731.246 -2.77119 3.71159 0
M  V30 7701 C 731.981 -3.33791 4.6623 0
M  V30 7702 N 731.477 -3.9138 5.71659 0
M  V30 7703 N 733.27 -3.31767 4.53747 0
M  V30 7704 H 725.421 -0.297109 2.10312 0
M  V30 7705 H 727.684 -0.194227 0.92789 0
M  V30 7706 H 727.39 -1.2893 3.27215 0
M  V30 7707 H 727.264 -2.84709 2.47428 0
M  V30 7708 H 729.651 -2.51818 1.53856 0
M  V30 7709 H 729.732 -0.95912 2.37138 0
M  V30 7710 H 729.376 -2.15572 4.59881 0
M  V30 7711 H 729.306 -3.71223 3.73499 0
M  V30 7712 H 731.797 -2.3625 2.94948 0
M  V30 7713 H 732.11 -4.3274 6.40278 0
M  V30 7714 H 730.455 -3.8975 5.7543 0
M  V30 7715 H 733.646 -2.86016 3.70557 0
M  V30 7716 H 733.819 -3.75636 5.28017 0
M  V30 7717 N 727.225 -1.14528 -1.08264 0
M  V30 7718 C 728.453 -0.937964 -1.84418 0
M  V30 7719 C 728.868 0.51357 -1.81681 0
M  V30 7720 O 728.225 1.35591 -1.22153 0
M  V30 7721 C 728.276 -1.43272 -3.31897 0
M  V30 7722 O 727.997 -2.82738 -3.34651 0
M  V30 7723 C 729.498 -1.26555 -4.24851 0
M  V30 7724 H 726.718 -0.333704 -0.582136 0
M  V30 7725 H 729.262 -1.52076 -1.36723 0
M  V30 7726 H 727.417 -0.892653 -3.76975 0
M  V30 7727 H 727.831 -3.04971 -4.26724 0
M  V30 7728 H 729.305 -1.66031 -5.26439 0
M  V30 7729 H 729.782 -0.208589 -4.38704 0
M  V30 7730 H 730.388 -1.79423 -3.856 0
M  V30 7731 N 728.703 1.26451 -0.940633 0
M  V30 7732 C 729.949 1.94065 -0.58878 0
M  V30 7733 C 730.282 1.7363 0.869853 0
M  V30 7734 O 729.557 1.073 1.62225 0
M  V30 7735 C 729.84 3.47852 -0.931199 0
M  V30 7736 C 729.693 3.77575 -2.44453 0
M  V30 7737 C 731.012 4.37832 -0.446229 0
M  V30 7738 H 728.131 0.704827 -0.21538 0
M  V30 7739 H 730.773 1.4933 -1.17475 0
M  V30 7740 H 728.923 3.86085 -0.432539 0
M  V30 7741 H 730.595 3.49059 -3.01588 0
M  V30 7742 H 728.838 3.23671 -2.88825 0
M  V30 7743 H 729.509 4.85068 -2.63464 0
M  V30 7744 H 731.985 4.06822 -0.873778 0
M  V30 7745 H 730.861 5.44228 -0.714648 0
M  V30 7746 H 731.122 4.37239 0.653815 0
M  V30 7747 N 730.181 0.707592 1.40822 0
M  V30 7748 C 731.111 0.0644925 2.33411 0
M  V30 7749 C 732.092 -0.754205 1.52466 0
M  V30 7750 O 733.277 -0.704749 1.80961 0
M  V30 7751 C 730.407 -0.863865 3.36385 0
M  V30 7752 C 729.361 -0.15138 4.27732 0
M  V30 7753 C 728.687 -1.19491 5.21177 0
M  V30 7754 C 729.987 0.989607 5.12839 0
M  V30 7755 H 731.681 0.837829 2.87438 0
M  V30 7756 H 729.227 0.404346 1.38207 0
M  V30 7757 H 731.18 -1.32309 4.0009 0
M  V30 7758 H 729.904 -1.66901 2.80734 0
M  V30 7759 H 728.563 0.287937 3.65467 0
M  V30 7760 H 728.211 -1.9929 4.61836 0
M  V30 7761 H 727.911 -0.723123 5.83134 0
M  V30 7762 H 729.435 -1.6544 5.8776 0
M  V30 7763 H 730.849 0.610114 5.70044 0
M  V30 7764 H 729.246 1.38926 5.83798 0
M  V30 7765 H 730.316 1.82389 4.49291 0
M  V30 7766 N 731.66 -1.50943 0.453197 0
M  V30 7767 C 732.906 -2.02512 -0.108082 0
M  V30 7768 C 733.239 -1.33574 -1.40967 0
M  V30 7769 O 732.514 -0.455671 -1.89087 0
M  V30 7770 C 732.797 -3.58759 -0.310453 0
M  V30 7771 C 732.65 -4.38293 1.0109 0
M  V30 7772 C 733.969 -4.26816 -1.07313 0
M  V30 7773 H 731.088 -0.73603 -0.0378064 0
M  V30 7774 H 733.73 -1.80433 0.595295 0
M  V30 7775 H 731.88 -3.77702 -0.909582 0
M  V30 7776 H 733.552 -4.30964 1.64523 0
M  V30 7777 H 731.795 -4.02745 1.61179 0
M  V30 7778 H 732.466 -5.45828 0.82315 0
M  V30 7779 H 734.942 -4.1224 -0.565473 0
M  V30 7780 H 733.818 -5.35989 -1.1835 0
M  V30 7781 H 734.079 -3.88757 -2.10525 0
M  V30 7782 N 733.138 -0.185124 -1.56509 0
M  V30 7783 C 734.549 0.329221 -1.83774 0
M  V30 7784 C 734.9 1.62093 -1.10545 0
M  V30 7785 O 734.025 2.13334 -0.36298 0
M  V30 7786 C 734.62 0.604099 -3.33371 0
M  V30 7787 C 733.179 1.06284 -3.61083 0
M  V30 7788 C 732.326 0.10608 -2.77097 0
M  V30 7789 H 735.277 -0.409116 -1.53336 0
M  V30 7790 H 735.298 1.45458 -3.51599 0
M  V30 7791 H 734.81 -0.336201 -3.86641 0
M  V30 7792 H 732.911 2.01777 -3.13236 0
M  V30 7793 H 733.024 0.962453 -4.69333 0
M  V30 7794 H 731.388 0.606082 -2.47384 0
M  V30 7795 H 732.171 -0.828486 -3.33153 0
M  V30 7796 N 734.616 1.57351 0.0885366 0
M  V30 7797 C 735.526 2.05858 1.12516 0
M  V30 7798 C 736.542 0.984758 1.43452 0
M  V30 7799 O 737.718 1.29836 1.53963 0
M  V30 7800 C 734.783 2.47882 2.42395 0
M  V30 7801 C 733.844 3.69487 2.18582 0
M  V30 7802 C 733.077 4.09497 3.42268 0
M  V30 7803 O 733.3 3.49536 4.50755 0
M  V30 7804 O 732.234 5.02406 3.31469 0
M  V30 7805 H 736.06 2.94467 0.743146 0
M  V30 7806 H 733.645 1.46326 0.301507 0
M  V30 7807 H 735.527 2.75509 3.18862 0
M  V30 7808 H 734.202 1.62408 2.8001 0
M  V30 7809 H 733.109 3.46967 1.39875 0
M  V30 7810 H 734.442 4.55761 1.85857 0
M  V30 7811 N 736.094 -0.359525 1.53444 0
M  V30 7812 C 737.51 -0.701599 1.43352 0
M  V30 7813 C 737.71 -1.93049 0.577439 0
M  V30 7814 O 736.766 -2.52423 0.0622224 0
M  V30 7815 C 738.079 -0.90915 2.86627 0
M  V30 7816 C 739.627 -1.00878 2.96298 0
M  V30 7817 C 740.102 -1.24876 4.40647 0
M  V30 7818 N 741.593 -1.31632 4.44103 0
M  V30 7819 C 742.328 -1.51922 5.52908 0
M  V30 7820 N 741.824 -1.69489 6.71748 0
M  V30 7821 N 743.617 -1.54341 5.40496 0
M  V30 7822 H 735.768 0.448685 2.07607 0
M  V30 7823 H 738.031 0.138713 0.937797 0
M  V30 7824 H 737.737 -0.0778997 3.51614 0
M  V30 7825 H 737.611 -1.81551 3.30634 0
M  V30 7826 H 739.998 -1.83057 2.31461 0
M  V30 7827 H 740.079 -0.0796721 2.55676 0
M  V30 7828 H 739.723 -0.431961 5.0606 0
M  V30 7829 H 739.653 -2.19118 4.78848 0
M  V30 7830 H 742.144 -1.19646 3.5846 0
M  V30 7831 H 742.457 -1.84561 7.50438 0
M  V30 7832 H 740.802 -1.66655 6.74723 0
M  V30 7833 H 743.993 -1.40188 4.46615 0
M  V30 7834 H 744.166 -1.69812 6.25354 0
M  V30 7835 N 737.572 -1.44907 -0.619662 0
M  V30 7836 C 738.797 -1.52021 -1.41083 0
M  V30 7837 C 739.222 -0.14976 -1.87503 0
M  V30 7838 O 738.58 0.863303 -1.59426 0
M  V30 7839 C 738.628 -2.49911 -2.59955 0
M  V30 7840 O 737.732 -2.00857 -3.60181 0
M  V30 7841 H 737.073 -0.512912 -0.421684 0
M  V30 7842 H 739.603 -1.90149 -0.755282 0
M  V30 7843 H 739.613 -2.68323 -3.07354 0
M  V30 7844 H 738.288 -3.4945 -2.25516 0
M  V30 7845 H 736.865 -1.92265 -3.19513 0
M  V30 7846 N 739.05 0.861098 -1.31996 0
M  V30 7847 C 740.299 1.60965 -1.21545 0
M  V30 7848 C 740.612 1.94325 0.222972 0
M  V30 7849 O 741.818 2.67757 0.449272 0
M  V30 7850 C 740.274 2.90223 -2.12834 0
M  V30 7851 C 739.882 2.64313 -3.61722 0
M  V30 7852 C 741.626 3.68229 -2.11205 0
M  V30 7853 C 739.533 3.89532 -4.44993 0
M  V30 7854 H 738.463 0.603988 -0.451348 0
M  V30 7855 H 741.114 0.951358 -1.56912 0
M  V30 7856 H 739.496 3.57475 -1.70375 0
M  V30 7857 H 740.67 2.05413 -4.12483 0
M  V30 7858 H 738.985 1.99647 -3.65418 0
M  V30 7859 H 741.582 4.61138 -2.70658 0
M  V30 7860 H 741.925 4.01466 -1.1014 0
M  V30 7861 H 742.458 3.07873 -2.51911 0
M  V30 7862 H 739.197 3.61441 -5.46846 0
M  V30 7863 H 738.717 4.47851 -3.98985 0
M  V30 7864 H 740.396 4.57334 -4.57663 0
M  V30 7865 N 740.528 1.15101 1.07655 0
M  V30 7866 C 741.476 0.840714 2.16875 0
M  V30 7867 C 742.47 -0.184594 1.68391 0
M  V30 7868 O 743.676 -0.0399315 1.79956 0
M  V30 7869 H 740.051 0.254192 0.707736 0
M  V30 7870 H 742.022 1.76959 2.40266 0
M  V30 7871 C 740.771 0.343018 3.46004 0
M  V30 7872 H 740.094 1.12335 3.83694 0
M  V30 7873 H 741.534 0.16453 4.23681 0
M  V30 7874 C 739.993 -0.934881 3.23669 0
M  V30 7875 O 740.523 -2.00706 3.47965 0
M  V30 7876 N 738.729 -0.873167 2.77172 0
M  V30 7877 H 738.276 -0.000479072 2.576 0
M  V30 7878 H 738.234 -1.72873 2.62607 0
M  V30 7879 N 742.006 -1.2595 0.947325 0
M  V30 7880 C 742.936 -2.28521 0.479604 0
M  V30 7881 C 743.917 -1.63469 -0.470293 0
M  V30 7882 O 745.102 -1.90627 -0.370824 0
M  V30 7883 C 742.232 -3.46397 -0.250289 0
M  V30 7884 C 741.186 -4.23578 0.613643 0
M  V30 7885 C 740.512 -5.34131 -0.246568 0
M  V30 7886 C 741.812 -4.86979 1.88809 0
M  V30 7887 H 743.506 -2.67895 1.33688 0
M  V30 7888 H 741.052 -1.28783 0.644274 0
M  V30 7889 H 743.005 -4.17269 -0.588576 0
M  V30 7890 H 741.729 -3.05993 -1.14175 0
M  V30 7891 H 740.388 -3.54478 0.93491 0
M  V30 7892 H 740.036 -4.89968 -1.13756 0
M  V30 7893 H 739.736 -5.86683 0.328123 0
M  V30 7894 H 741.26 -6.07839 -0.579986 0
M  V30 7895 H 742.674 -5.50034 1.61666 0
M  V30 7896 H 741.071 -5.49675 2.40784 0
M  V30 7897 H 742.141 -4.09575 2.5957 0
M  V30 7898 N 743.484 -0.715051 -1.40445 0
M  V30 7899 C 744.416 -0.0227516 -2.29189 0
M  V30 7900 C 745.429 0.724313 -1.458 0
M  V30 7901 O 746.618 0.571781 -1.69094 0
M  V30 7902 C 743.718 0.992038 -3.24055 0
M  V30 7903 C 742.891 0.310613 -4.36296 0
M  V30 7904 C 741.95 1.23071 -5.11605 0
M  V30 7905 O 740.976 0.71571 -5.64682 0
M  V30 7906 N 742.178 2.56188 -5.2091 0
M  V30 7907 H 744.943 -0.78473 -2.89244 0
M  V30 7908 H 742.504 -0.562637 -1.51809 0
M  V30 7909 H 744.496 1.60973 -3.71308 0
M  V30 7910 H 743.066 1.65538 -2.65171 0
M  V30 7911 H 742.286 -0.487269 -3.91177 0
M  V30 7912 H 743.574 -0.162415 -5.08541 0
M  V30 7913 H 742.972 3.00527 -4.7927 0
M  V30 7914 H 741.529 3.13103 -5.71673 0
M  V30 7915 N 744.962 1.50701 -0.461195 0
M  V30 7916 C 746.209 2.02267 0.0971971 0
M  V30 7917 C 746.537 1.34387 1.40608 0
M  V30 7918 O 745.792 0.455254 1.90331 0
M  V30 7919 C 746.091 3.55788 0.33908 0
M  V30 7920 C 745.757 4.42092 -0.886885 0
M  V30 7921 C 744.419 4.65398 -1.22304 0
M  V30 7922 C 746.771 4.92571 -1.70361 0
M  V30 7923 C 744.099 5.36429 -2.37616 0
M  V30 7924 C 746.451 5.64868 -2.84793 0
M  V30 7925 C 745.115 5.86431 -3.18834 0
M  V30 7926 H 744.385 0.740146 0.0355669 0
M  V30 7927 H 747.032 1.81415 -0.61326 0
M  V30 7928 H 745.337 3.751 1.13168 0
M  V30 7929 H 747.034 3.93243 0.784937 0
M  V30 7930 H 743.624 4.24165 -0.614981 0
M  V30 7931 H 747.808 4.74428 -1.4571 0
M  V30 7932 H 743.064 5.51333 -2.64276 0
M  V30 7933 H 747.238 6.02966 -3.48432 0
M  V30 7934 H 744.865 6.41248 -4.08296 0
M  V30 7935 N 746.441 0.193421 1.56409 0
M  V30 7936 C 747.371 -0.723334 2.22014 0
M  V30 7937 C 748.352 -1.22254 1.1827 0
M  V30 7938 O 749.537 -1.27168 1.46771 0
M  V30 7939 C 746.667 -1.94366 2.87818 0
M  V30 7940 C 745.621 -1.57943 3.97791 0
M  V30 7941 C 744.947 -2.87623 4.50752 0
M  V30 7942 C 746.247 -0.790639 5.16281 0
M  V30 7943 H 747.941 -0.176426 2.9888 0
M  V30 7944 H 745.487 -0.0834166 1.43758 0
M  V30 7945 H 747.44 -2.5902 3.32396 0
M  V30 7946 H 746.164 -2.51507 2.08355 0
M  V30 7947 H 744.823 -0.956482 3.53903 0
M  V30 7948 H 744.471 -3.4285 3.68053 0
M  V30 7949 H 744.171 -2.63998 5.24956 0
M  V30 7950 H 745.695 -3.53268 4.9803 0
M  V30 7951 H 747.109 -1.34024 5.57414 0
M  V30 7952 H 745.506 -0.65258 5.96541 0
M  V30 7953 H 746.576 0.208633 4.84451 0
M  V30 7954 N 747.919 -1.57396 -0.0801906 0
M  V30 7955 C 749.196 -1.77883 -0.813451 0
M  V30 7956 C 749.576 -0.778879 -1.96206 0
M  V30 7957 O 748.924 0.189683 -2.27711 0
M  V30 7958 C 749.134 -3.24116 -1.2942 0
M  V30 7959 C 750.482 -3.87714 -1.73098 0
M  V30 7960 O 751.506 -3.27956 -1.39007 0
M  V30 7961 O 750.365 -4.92828 -2.36184 0
M  V30 7962 H 747.459 -0.729727 -0.389138 0
M  V30 7963 H 750.005 -1.69591 -0.0609166 0
M  V30 7964 H 748.777 -3.88443 -0.471947 0
M  V30 7965 H 748.4 -3.371 -2.1083 0
M  V30 7966 N 749.397 0.351382 -1.53633 0
M  V30 7967 C 750.813 0.693987 -1.43722 0
M  V30 7968 C 751.013 1.9274 -0.587669 0
M  V30 7969 O 750.069 2.52387 -0.0756082 0
M  V30 7970 C 751.382 0.893937 -2.87105 0
M  V30 7971 C 752.93 0.993051 -2.96829 0
M  V30 7972 C 753.405 1.22537 -4.41303 0
M  V30 7973 N 754.896 1.29275 -4.44795 0
M  V30 7974 C 755.631 1.48988 -5.53706 0
M  V30 7975 N 755.127 1.65924 -6.72637 0
M  V30 7976 N 756.92 1.51472 -5.41306 0
M  V30 7977 H 749.071 -0.459688 -2.07366 0
M  V30 7978 H 751.334 -0.143684 -0.937048 0
M  V30 7979 H 751.04 0.0592517 -3.5165 0
M  V30 7980 H 750.914 1.79795 -3.31592 0
M  V30 7981 H 753.301 1.81827 -2.32429 0
M  V30 7982 H 753.382 0.0661119 -2.55715 0
M  V30 7983 H 753.026 0.405117 -5.06282 0
M  V30 7984 H 752.956 2.16575 -4.80003 0
M  V30 7985 H 755.447 1.17743 -3.59089 0
M  V30 7986 H 755.76 1.80578 -7.51406 0
M  V30 7987 H 754.105 1.63075 -6.75597 0
M  V30 7988 H 757.296 1.37818 -4.47352 0
M  V30 7989 H 757.469 1.66493 -6.26246 0
M  V30 7990 O 750.914 1.53651 0.497361 0
M  V30 7991 H 751.605 1.55706 1.15218 0
M  V30 END ATOM
M  V30 BEGIN BOND
M  V30 END BOND
M  V30 END CTAB
M  END
$$$$
