drugbank_target|O15511 Actin-related protein 2/3 complex subunit 5 (DB08235; DB08236)
 OpenBabel12092120503D

  0  0  0     0  0            999 V3000
M  V30 BEGIN CTAB
M  V30 COUNTS 2292 2305 0 0 0
M  V30 BEGIN ATOM
M  V30 1 H -0.908 1.98254 -0.117106 0
M  V30 2 N 0 1.576 0 0
M  V30 3 C 0.933 2.03868 1.02534 0
M  V30 4 C 1.911 0.928543 1.3348 0
M  V30 5 O 3.095 1.19667 1.45644 0
M  V30 6 C 0.222 2.43627 2.35294 0
M  V30 7 C -0.732 3.65373 2.2001 0
M  V30 8 S 0.101 5.13292 1.52614 0
M  V30 9 C 1.257 5.56322 2.86805 0
M  V30 10 H 1.49 2.90518 0.631377 0
M  V30 11 H -0.977 1.52953 0.210867 0
M  V30 12 H 0.981 2.67203 3.11629 0
M  V30 13 H -0.358 1.57376 2.7183 0
M  V30 14 H -1.165 3.90944 3.18086 0
M  V30 15 H -1.563 3.418 1.51819 0
M  V30 16 H 0.729 5.58782 3.83104 0
M  V30 17 H 1.672 6.56266 2.65933 0
M  V30 18 H 2.08 4.83886 2.90714 0
M  V30 19 N 1.4781 -0.272755 1.55222 0
M  V30 20 C 2.7031 -1.02683 1.80197 0
M  V30 21 C 3.1281 -1.79142 0.573551 0
M  V30 22 O 2.4861 -1.74917 -0.476849 0
M  V30 23 C 2.5341 -1.9609 3.02624 0
M  V30 24 O 1.6381 -3.04863 2.77727 0
M  V30 25 H 0.9791 -0.293557 0.595584 0
M  V30 26 H 3.5091 -0.30159 2.02365 0
M  V30 27 H 3.5191 -2.38039 3.31363 0
M  V30 28 H 2.1941 -1.39851 3.91682 0
M  V30 29 H 0.7711 -2.67228 2.60084 0
M  V30 30 N 2.9562 -1.48159 -0.537278 0
M  V30 31 C 3.9032 -1.62138 -1.64256 0
M  V30 32 C 4.8732 -0.463668 -1.59497 0
M  V30 33 O 6.0582 -0.686241 -1.78032 0
M  V30 34 C 3.1982 -1.66028 -3.02537 0
M  V30 35 C 2.3112 -2.92855 -3.17585 0
M  V30 36 C 1.4462 -2.87952 -4.46382 0
M  V30 37 C 0.4852 -4.09516 -4.54932 0
M  V30 38 N -0.3778 -4.02733 -5.75109 0
M  V30 39 H 4.4622 -2.56529 -1.51647 0
M  V30 40 H 1.9992 -1.27224 -0.738414 0
M  V30 41 H 3.9572 -1.66265 -3.82638 0
M  V30 42 H 2.5872 -0.751331 -3.13934 0
M  V30 43 H 1.6392 -3.02395 -2.30784 0
M  V30 44 H 2.9512 -3.82822 -3.19764 0
M  V30 45 H 2.1052 -2.8655 -5.34765 0
M  V30 46 H 0.8442 -1.95702 -4.46712 0
M  V30 47 H -0.1508 -4.11201 -3.64957 0
M  V30 48 H 1.0742 -5.02917 -4.56346 0
M  V30 49 H -0.9798 -3.13299 -5.76351 0
M  V30 50 H -1.0628 -4.86397 -5.78752 0
M  V30 51 H 0.2052 -4.05379 -6.65799 0
M  V30 52 N 4.4343 0.785586 -1.36625 0
M  V30 53 C 5.3823 1.91978 -1.31329 0
M  V30 54 C 6.3763 1.68162 -0.204416 0
M  V30 55 O 7.5823 1.76122 -0.371645 0
M  V30 56 H 3.9573 0.631087 -0.408942 0
M  V30 57 H 5.9283 1.93562 -2.27104 0
M  V30 58 C 4.6773 3.29055 -1.12329 0
M  V30 59 H 4.0003 3.4795 -1.96903 0
M  V30 60 H 5.4403 4.08756 -1.12671 0
M  V30 61 C 3.8993 3.36461 0.171861 0
M  V30 62 O 4.4293 3.84576 1.16035 0
M  V30 63 N 2.6353 2.89782 0.217846 0
M  V30 64 H 2.1823 2.50819 -0.587183 0
M  V30 65 H 2.1403 2.95119 1.08408 0
M  V30 66 N 5.9124 1.20967 1.01018 0
M  V30 67 C 7.1404 1.04956 1.78303 0
M  V30 68 C 7.5554 -0.400915 1.84494 0
M  V30 69 O 6.9124 -1.27826 1.30257 0
M  V30 70 C 6.9634 1.63403 3.22462 0
M  V30 71 O 6.6844 3.02775 3.16637 0
M  V30 72 C 8.1854 1.52432 4.16268 0
M  V30 73 H 5.4054 0.368858 0.560522 0
M  V30 74 H 7.9494 1.60193 1.27116 0
M  V30 75 H 6.1044 1.1227 3.70775 0
M  V30 76 H 6.5184 3.30626 4.07169 0
M  V30 77 H 7.9924 1.98078 5.15237 0
M  V30 78 H 8.4694 0.477875 4.36592 0
M  V30 79 H 9.0754 2.02787 3.73841 0
M  V30 80 N 7.3905 -1.2043 1.01659 0
M  V30 81 C 8.6365 -1.90079 0.706963 0
M  V30 82 C 8.9695 -1.78648 -0.761474 0
M  V30 83 O 8.2445 -1.17069 -1.55323 0
M  V30 84 C 8.5275 -3.41469 1.14327 0
M  V30 85 C 8.3805 -3.61833 2.67201 0
M  V30 86 C 9.6995 -4.34261 0.714529 0
M  V30 87 H 6.8185 -0.690254 0.2583 0
M  V30 88 H 9.4605 -1.41826 1.26433 0
M  V30 89 H 7.6105 -3.82696 0.669056 0
M  V30 90 H 9.2825 -3.2986 3.22475 0
M  V30 91 H 7.5255 -3.05304 3.08175 0
M  V30 92 H 8.1965 -4.67955 2.92783 0
M  V30 93 H 10.6725 -4.00682 1.12221 0
M  V30 94 H 9.5485 -5.38806 1.04784 0
M  V30 95 H 9.8095 -4.40431 -0.383799 0
M  V30 96 N 8.8686 -0.792821 -1.36206 0
M  V30 97 C 10.0936 -0.377701 -2.03932 0
M  V30 98 C 10.5186 0.998947 -1.59382 0
M  V30 99 O 9.8766 1.64421 -0.763903 0
M  V30 100 C 9.9246 -0.453635 -3.57735 0
M  V30 101 O 9.0286 0.538151 -4.08874 0
M  V30 102 H 8.3696 -0.159855 -0.644471 0
M  V30 103 H 10.8996 -1.07488 -1.7409 0
M  V30 104 H 10.9096 -0.318464 -4.06755 0
M  V30 105 H 9.5846 -1.45784 -3.89512 0
M  V30 106 H 8.1616 0.364359 -3.71116 0
M  V30 107 N 10.3467 1.47872 -0.545128 0
M  V30 108 C 11.5717 2.07391 -0.0190611 0
M  V30 109 C 11.9967 1.39688 1.25971 0
M  V30 110 O 11.3547 0.467816 1.7516 0
M  V30 111 C 11.4027 3.60188 0.172335 0
M  V30 112 O 10.5067 3.9339 1.23766 0
M  V30 113 H 9.8477 0.662411 -0.0459059 0
M  V30 114 H 12.3777 1.90066 -0.757365 0
M  V30 115 H 12.3877 4.06129 0.390305 0
M  V30 116 H 11.0627 4.08865 -0.761725 0
M  V30 117 H 9.6397 3.5921 1.00114 0
M  V30 118 N 11.8248 0.280983 1.55075 0
M  V30 119 C 12.7878 -0.590896 2.21452 0
M  V30 120 C 13.7878 -1.07682 1.19421 0
M  V30 121 O 14.9778 -0.97605 1.44288 0
M  V30 122 C 12.1098 -1.81587 2.88511 0
M  V30 123 H 13.3028 -0.0112554 2.99898 0
M  V30 124 H 10.8558 0.0316438 1.56268 0
M  V30 125 H 11.5908 -2.43587 2.14093 0
M  V30 126 H 11.3758 -1.4753 3.63287 0
M  V30 127 H 12.8658 -2.43575 3.39206 0
M  V30 128 N 13.3029 -1.57598 0.00835791 0
M  V30 129 C 14.7189 -1.55764 -0.347822 0
M  V30 130 C 14.9189 -1.01186 -1.74252 0
M  V30 131 O 13.9749 -0.649371 -2.44007 0
M  V30 132 C 15.2879 -2.99927 -0.215407 0
M  V30 133 C 16.8359 -3.11656 -0.289725 0
M  V30 134 C 17.3109 -4.57621 -0.18634 0
M  V30 135 N 18.8019 -4.62557 -0.243978 0
M  V30 136 C 19.5369 -5.73094 -0.18745 0
M  V30 137 N 19.0329 -6.92753 -0.0810331 0
M  V30 138 N 20.8259 -5.61588 -0.239925 0
M  V30 139 H 12.9769 -1.91411 0.92062 0
M  V30 140 H 15.2399 -0.879562 0.353659 0
M  V30 141 H 14.9459 -3.43729 0.744512 0
M  V30 142 H 14.8199 -3.63865 -0.994097 0
M  V30 143 H 17.2069 -2.67779 -1.24009 0
M  V30 144 H 17.2879 -2.5048 0.51898 0
M  V30 145 H 16.9319 -5.02174 0.760519 0
M  V30 146 H 16.8619 -5.16752 -1.01364 0
M  V30 147 H 19.3529 -3.76481 -0.327217 0
M  V30 148 H 19.6659 -7.72787 -0.0440241 0
M  V30 149 H 18.0109 -6.94984 -0.0465419 0
M  V30 150 H 21.2019 -4.66996 -0.321317 0
M  V30 151 H 21.3749 -6.47714 -0.192407 0
M  V30 152 N 14.781 0.264519 -1.55364 0
M  V30 153 C 16.028 0.994986 -1.7637 0
M  V30 154 C 16.356 1.85976 -0.5695 0
M  V30 155 O 15.611 1.90509 0.44776 0
M  V30 156 C 15.91 1.9004 -3.02687 0
M  V30 157 C 15.576 1.19243 -4.34847 0
M  V30 158 C 14.238 0.996709 -4.70764 0
M  V30 159 C 16.59 0.689296 -5.16622 0
M  V30 160 C 13.918 0.285261 -5.86006 0
M  V30 161 C 16.27 -0.00860079 -6.32599 0
M  V30 162 C 14.934 -0.215963 -6.67151 0
M  V30 163 H 14.204 0.364091 -0.645383 0
M  V30 164 H 16.851 0.266543 -1.89636 0
M  V30 165 H 15.156 2.69533 -2.84357 0
M  V30 166 H 16.853 2.46695 -3.16137 0
M  V30 167 H 13.443 1.3549 -4.06621 0
M  V30 168 H 17.627 0.828108 -4.89342 0
M  V30 169 H 12.883 0.113961 -6.11294 0
M  V30 170 H 17.057 -0.406186 -6.95214 0
M  V30 171 H 14.684 -0.769217 -7.56298 0
M  V30 172 N 16.2591 1.48442 0.529413 0
M  V30 173 C 17.6751 1.34575 0.858004 0
M  V30 174 C 17.8751 0.3572 1.98309 0
M  V30 175 O 16.9311 -0.221379 2.51528 0
M  V30 176 C 18.2441 2.74617 1.22499 0
M  V30 177 C 19.7921 2.83109 1.33484 0
M  V30 178 C 20.2671 4.23854 1.73526 0
M  V30 179 N 21.7581 4.2653 1.80628 0
M  V30 180 C 22.4931 5.32372 2.12997 0
M  V30 181 N 21.9891 6.48491 2.43786 0
M  V30 182 N 23.7821 5.19766 2.14008 0
M  V30 183 H 15.9331 2.1133 -0.212925 0
M  V30 184 H 18.1961 0.947439 -0.0326199 0
M  V30 185 H 17.9021 3.4852 0.471905 0
M  V30 186 H 17.7761 3.08177 2.17501 0
M  V30 187 H 20.1631 2.09462 2.0787 0
M  V30 188 H 20.2441 2.53168 0.366027 0
M  V30 189 H 19.8881 4.98018 0.997013 0
M  V30 190 H 19.8181 4.5124 2.71459 0
M  V30 191 H 22.3091 3.42772 1.59108 0
M  V30 192 H 22.6221 7.24993 2.67592 0
M  V30 193 H 20.9671 6.51765 2.41304 0
M  V30 194 H 24.1581 4.28066 1.89412 0
M  V30 195 H 24.3311 6.02354 2.38902 0
M  V30 196 N 17.7372 -0.778329 1.37039 0
M  V30 197 C 18.6842 -1.89139 1.32269 0
M  V30 198 C 19.6542 -1.65017 0.189387 0
M  V30 199 O 20.8392 -1.87024 0.377693 0
M  V30 200 C 17.9792 -3.26112 1.12894 0
M  V30 201 C 17.0922 -3.62233 2.35396 0
M  V30 202 C 16.2272 -4.8838 2.08946 0
M  V30 203 C 15.2662 -5.17212 3.2735 0
M  V30 204 N 14.4032 -6.34546 3.00492 0
M  V30 205 H 19.2432 -1.92552 2.27437 0
M  V30 206 H 16.7802 -0.941473 1.13025 0
M  V30 207 H 18.7382 -4.05116 0.996835 0
M  V30 208 H 17.3682 -3.22091 0.213758 0
M  V30 209 H 16.4202 -2.78265 2.5937 0
M  V30 210 H 17.7322 -3.79481 3.23721 0
M  V30 211 H 16.8862 -5.75274 1.92729 0
M  V30 212 H 15.6252 -4.73222 1.17949 0
M  V30 213 H 14.6302 -4.28796 3.44113 0
M  V30 214 H 15.8552 -5.34283 4.19188 0
M  V30 215 H 13.8012 -6.20759 2.12118 0
M  V30 216 H 13.7182 -6.52179 3.82358 0
M  V30 217 H 14.9862 -7.24394 2.87879 0
M  V30 218 N 19.2153 -1.21501 -1.00376 0
M  V30 219 C 20.4613 -1.03452 -1.74429 0
M  V30 220 C 20.7943 0.430764 -1.89362 0
M  V30 221 O 20.0693 1.31962 -1.42886 0
M  V30 222 C 20.3523 -1.73375 -3.15615 0
M  V30 223 C 20.2053 -3.27431 -3.08397 0
M  V30 224 C 21.5243 -1.47732 -4.14564 0
M  V30 225 H 18.6433 -0.377226 -0.633143 0
M  V30 226 H 21.2853 -1.49693 -1.17013 0
M  V30 227 H 19.4353 -1.34064 -3.64636 0
M  V30 228 H 21.1073 -3.76119 -2.67081 0
M  V30 229 H 19.3503 -3.5767 -2.45468 0
M  V30 230 H 20.0213 -3.71524 -4.08258 0
M  V30 231 H 22.4973 -1.8186 -3.74254 0
M  V30 232 H 21.3733 -1.99169 -5.11491 0
M  V30 233 H 21.6343 -0.407589 -4.40217 0
M  V30 234 N 20.6934 1.19889 -1.02296 0
M  V30 235 C 21.9704 1.85148 -0.630832 0
M  V30 236 C 22.3504 1.91385 0.890782 0
M  V30 237 O 21.6984 1.42642 1.78509 0
M  V30 238 C 21.9084 3.24442 -1.28602 0
M  V30 239 C 23.2564 4.00663 -1.4055 0
M  V30 240 O 24.2804 3.33818 -1.24273 0
M  V30 241 O 23.1394 5.20387 -1.66913 0
M  V30 242 H 20.2334 0.797613 -0.218499 0
M  V30 243 H 22.7794 1.27427 -1.12074 0
M  V30 244 H 21.5514 3.14704 -2.32545 0
M  V30 245 H 21.1744 3.89802 -0.7836 0
M  V30 246 N 22.1715 0.800033 1.35784 0
M  V30 247 C 23.4175 0.377901 1.99248 0
M  V30 248 C 23.7505 -1.05052 1.63333 0
M  V30 249 O 23.0255 -1.72768 0.893385 0
M  V30 250 C 23.3085 0.553922 3.55814 0
M  V30 251 C 23.1615 2.0268 4.01548 0
M  V30 252 C 24.4805 -0.0244802 4.40093 0
M  V30 253 H 21.5995 0.138782 0.723815 0
M  V30 254 H 24.2415 1.00835 1.61035 0
M  V30 255 H 22.3915 0.0172398 3.88496 0
M  V30 256 H 24.0635 2.62536 3.79305 0
M  V30 257 H 22.3065 2.5256 3.52698 0
M  V30 258 H 22.9775 2.10087 5.10458 0
M  V30 259 H 25.4535 0.433775 4.13833 0
M  V30 260 H 24.3295 0.128637 5.48749 0
M  V30 261 H 24.5905 -1.11758 4.27741 0
M  V30 262 N 23.6496 -1.47581 0.552962 0
M  V30 263 C 24.9266 -1.95563 -0.0381515 0
M  V30 264 C 25.3066 -1.49552 -1.48988 0
M  V30 265 O 24.6546 -0.732414 -2.16444 0
M  V30 266 C 24.8646 -3.48848 0.102919 0
M  V30 267 C 26.2126 -4.24577 -0.0446082 0
M  V30 268 O 27.2366 -3.56187 0.0302548 0
M  V30 269 O 26.0956 -5.46116 -0.204923 0
M  V30 270 H 23.1896 -0.824321 -0.0665067 0
M  V30 271 H 25.7356 -1.58001 0.619186 0
M  V30 272 H 24.5076 -3.75129 1.11328 0
M  V30 273 H 24.1306 -3.93165 -0.592224 0
M  V30 274 N 25.1277 -0.289203 -1.54924 0
M  V30 275 C 26.0377 0.601863 -2.26748 0
M  V30 276 C 27.0537 1.15834 -1.2984 0
M  V30 277 O 28.2297 1.18564 -1.62802 0
M  V30 278 C 25.2947 1.76299 -2.98529 0
M  V30 279 C 24.3557 1.24178 -4.10948 0
M  V30 280 C 23.5887 2.34757 -4.79296 0
M  V30 281 O 23.8117 3.54411 -4.46933 0
M  V30 282 O 22.7457 2.02115 -5.66951 0
M  V30 283 H 26.5717 0.0195879 -3.03694 0
M  V30 284 H 24.1567 -0.0560868 -1.49295 0
M  V30 285 H 26.0387 2.43973 -3.43592 0
M  V30 286 H 24.7137 2.33209 -2.24488 0
M  V30 287 H 23.6207 0.531104 -3.70311 0
M  V30 288 H 24.9537 0.718252 -4.86931 0
M  V30 289 N 26.6058 1.57591 -0.0167156 0
M  V30 290 C 27.8358 1.95292 0.674149 0
M  V30 291 C 28.2438 0.891097 1.66901 0
M  V30 292 O 27.5868 -0.136908 1.83189 0
M  V30 293 C 27.6488 3.29072 1.44747 0
M  V30 294 C 27.3128 4.52879 0.612331 0
M  V30 295 C 28.3098 5.1979 -0.107126 0
M  V30 296 C 25.9948 4.99242 0.553381 0
M  V30 297 C 27.9888 6.31375 -0.874339 0
M  V30 298 C 25.6758 6.10713 -0.217546 0
M  V30 299 C 26.6738 6.76637 -0.930123 0
M  V30 300 O 26.3618 7.85969 -1.68844 0
M  V30 301 H 26.0938 0.648275 0.191615 0
M  V30 302 H 28.6478 2.05284 -0.0690148 0
M  V30 303 H 26.8778 3.15535 2.2355 0
M  V30 304 H 28.5668 3.51764 2.02526 0
M  V30 305 H 29.3328 4.84948 -0.0708392 0
M  V30 306 H 25.2118 4.47744 1.09757 0
M  V30 307 H 28.7558 6.82764 -1.43106 0
M  V30 308 H 24.6528 6.44994 -0.255593 0
M  V30 309 H 25.4208 8.02571 -1.6069 0
M  V30 310 N 28.0839 -0.256276 1.55502 0
M  V30 311 C 29.3609 -1.00789 1.67633 0
M  V30 312 C 29.7409 -2.03706 0.553826 0
M  V30 313 O 29.0889 -2.24145 -0.443969 0
M  V30 314 C 29.2989 -1.64968 3.07549 0
M  V30 315 C 30.6469 -2.15505 3.65845 0
M  V30 316 O 31.6709 -1.74925 3.1029 0
M  V30 317 O 30.5299 -2.89986 4.63217 0
M  V30 318 H 27.6239 -0.468553 0.681459 0
M  V30 319 H 30.1699 -0.250806 1.67836 0
M  V30 320 H 28.9419 -0.904785 3.80696 0
M  V30 321 H 28.5649 -2.47321 3.11317 0
M  V30 322 N 29.562 -1.4872 -0.521534 0
M  V30 323 C 30.472 -1.66569 -1.65203 0
M  V30 324 C 31.488 -0.548197 -1.65139 0
M  V30 325 O 32.664 -0.820339 -1.83936 0
M  V30 326 C 29.729 -1.70917 -3.01642 0
M  V30 327 C 28.79 -2.94356 -3.12495 0
M  V30 328 C 28.023 -2.98487 -4.42426 0
M  V30 329 O 28.246 -2.10786 -5.30024 0
M  V30 330 O 27.18 -3.90746 -4.57822 0
M  V30 331 H 31.006 -2.62298 -1.5308 0
M  V30 332 H 28.591 -1.3222 -0.695565 0
M  V30 333 H 30.473 -1.7625 -3.82771 0
M  V30 334 H 29.148 -0.783633 -3.14071 0
M  V30 335 H 28.055 -2.94552 -2.3063 0
M  V30 336 H 29.388 -3.86322 -3.04986 0
M  V30 337 N 31.0401 0.771051 -1.3745 0
M  V30 338 C 31.9881 1.90574 -1.33358 0
M  V30 339 C 32.9821 1.67936 -0.22224 0
M  V30 340 O 34.1881 1.75717 -0.390304 0
M  V30 341 H 30.5631 0.626714 -0.415612 0
M  V30 342 H 32.5341 1.91142 -2.29144 0
M  V30 343 C 31.2831 3.27845 -1.15813 0
M  V30 344 H 30.6061 3.45842 -2.00583 0
M  V30 345 H 32.0461 4.07538 -1.17 0
M  V30 346 C 30.5051 3.36625 0.136165 0
M  V30 347 O 31.0351 3.85785 1.11949 0
M  V30 348 N 29.2411 2.89997 0.187099 0
M  V30 349 H 28.7881 2.50182 -0.613753 0
M  V30 350 H 28.7461 2.96252 1.05272 0
M  V30 351 N 32.5182 1.22032 0.997298 0
M  V30 352 C 33.4652 0.986467 2.08656 0
M  V30 353 C 34.4352 -0.0902671 1.65855 0
M  V30 354 O 35.6202 0.0584294 1.90711 0
M  V30 355 C 32.7602 0.565569 3.40434 0
M  V30 356 C 31.8732 1.71259 3.96604 0
M  V30 357 C 31.0082 1.24011 5.16522 0
M  V30 358 C 30.0472 2.35896 5.64818 0
M  V30 359 N 29.1842 1.89726 6.7598 0
M  V30 360 H 34.0242 1.91892 2.27994 0
M  V30 361 H 31.5612 0.956199 1.11782 0
M  V30 362 H 33.5192 0.302738 4.161 0
M  V30 363 H 32.1492 -0.329879 3.2111 0
M  V30 364 H 31.2012 2.08986 3.17851 0
M  V30 365 H 32.5132 2.55436 4.28432 0
M  V30 366 H 31.6672 0.934395 5.99461 0
M  V30 367 H 30.4062 0.368487 4.86306 0
M  V30 368 H 29.4112 2.67261 4.8047 0
M  V30 369 H 30.6362 3.23567 5.97061 0
M  V30 370 H 28.5822 1.0492 6.47555 0
M  V30 371 H 28.4992 2.67471 7.07103 0
M  V30 372 H 29.7672 1.62211 7.62435 0
M  V30 373 N 33.9963 -1.19345 1.0293 0
M  V30 374 C 35.2433 -1.89038 0.726008 0
M  V30 375 C 35.5713 -1.79649 -0.745427 0
M  V30 376 O 34.8263 -1.18354 -1.55855 0
M  V30 377 C 35.1253 -3.39292 1.12319 0
M  V30 378 C 34.7913 -3.68885 2.59297 0
M  V30 379 C 33.4533 -3.76671 2.99453 0
M  V30 380 C 35.8053 -3.82178 3.54386 0
M  V30 381 C 33.1333 -3.9522 4.33611 0
M  V30 382 C 35.4853 -4.0224 4.88248 0
M  V30 383 C 34.1493 -4.08259 5.28092 0
M  V30 384 H 33.4193 -0.691739 0.265665 0
M  V30 385 H 36.0663 -1.41328 1.29223 0
M  V30 386 H 34.3713 -3.88903 0.475584 0
M  V30 387 H 36.0683 -3.91536 0.866037 0
M  V30 388 H 32.6583 -3.63433 2.27189 0
M  V30 389 H 36.8423 -3.75505 3.24514 0
M  V30 390 H 32.0983 -3.98119 4.64016 0
M  V30 391 H 36.2723 -4.11468 5.61843 0
M  V30 392 H 33.8993 -4.22384 6.32057 0
M  V30 393 N 35.4744 -0.807222 -1.35358 0
M  V30 394 C 36.7204 -0.388463 -1.99045 0
M  V30 395 C 37.0534 1.04184 -1.63888 0
M  V30 396 O 36.3284 1.72292 -0.902535 0
M  V30 397 C 36.6114 -0.572783 -3.55515 0
M  V30 398 C 36.4644 -2.04807 -4.00468 0
M  V30 399 C 37.7834 0.00114064 -4.401 0
M  V30 400 H 34.9024 -0.142619 -0.723069 0
M  V30 401 H 37.5444 -1.01687 -1.60498 0
M  V30 402 H 35.6944 -0.0378425 -3.88482 0
M  V30 403 H 37.3664 -2.64544 -3.77908 0
M  V30 404 H 35.6094 -2.54427 -3.51353 0
M  V30 405 H 36.2804 -2.12792 -5.09337 0
M  V30 406 H 38.7564 -0.455716 -4.13597 0
M  V30 407 H 37.6324 -0.157737 -5.48673 0
M  V30 408 H 37.8934 1.09488 -4.28328 0
M  V30 409 N 36.9525 1.47285 -0.560781 0
M  V30 410 C 38.2295 1.9558 0.0277798 0
M  V30 411 C 38.6095 1.5034 1.48192 0
M  V30 412 O 37.9575 0.743882 2.16052 0
M  V30 413 C 38.1675 3.48789 -0.121418 0
M  V30 414 C 39.5155 4.24594 0.0220912 0
M  V30 415 O 40.5395 3.56166 -0.0491439 0
M  V30 416 O 39.3985 5.46217 0.175958 0
M  V30 417 H 36.4925 0.824663 0.0621342 0
M  V30 418 H 39.0385 1.5767 -0.627556 0
M  V30 419 H 37.8105 3.74533 -1.13316 0
M  V30 420 H 37.4335 3.93473 0.571366 0
M  V30 421 N 38.4306 0.297415 1.54768 0
M  V30 422 C 39.3406 -0.58983 2.27064 0
M  V30 423 C 40.3566 -1.15144 1.30453 0
M  V30 424 O 41.5326 -1.17699 1.63428 0
M  V30 425 C 38.5976 -1.74714 2.9946 0
M  V30 426 C 37.6586 -1.21997 4.11601 0
M  V30 427 C 36.8916 -2.32212 4.80535 0
M  V30 428 O 37.1146 -3.52036 4.48806 0
M  V30 429 O 36.0486 -1.99106 5.68014 0
M  V30 430 H 39.8746 -0.00348199 3.037 0
M  V30 431 H 37.4596 0.0640035 1.49263 0
M  V30 432 H 39.3416 -2.42147 3.44881 0
M  V30 433 H 38.0166 -2.32016 2.25722 0
M  V30 434 H 36.9236 -0.511458 3.70587 0
M  V30 435 H 38.2566 -0.692419 4.87305 0
M  V30 436 N 39.9087 -1.5758 0.0250728 0
M  V30 437 C 40.8187 -2.1343 -0.973905 0
M  V30 438 C 41.8347 -1.08556 -1.35984 0
M  V30 439 O 43.0107 -1.40592 -1.44207 0
M  V30 440 C 40.0757 -2.64703 -2.23904 0
M  V30 441 C 39.1367 -3.84276 -1.91391 0
M  V30 442 C 38.3697 -4.33095 -3.11873 0
M  V30 443 O 38.5927 -3.81107 -4.24398 0
M  V30 444 O 37.5267 -5.24984 -2.94406 0
M  V30 445 H 41.3527 -2.99057 -0.529036 0
M  V30 446 H 38.9377 -1.48118 -0.195288 0
M  V30 447 H 40.8197 -2.97769 -2.98181 0
M  V30 448 H 39.4947 -1.82161 -2.6758 0
M  V30 449 H 38.4017 -3.56143 -1.14511 0
M  V30 450 H 39.7347 -4.67968 -1.52534 0
M  V30 451 N 41.3868 0.248026 -1.55636 0
M  V30 452 C 42.6638 0.998988 -1.68165 0
M  V30 453 C 43.0438 2.03409 -0.564621 0
M  V30 454 O 42.3918 2.24378 0.432076 0
M  V30 455 C 42.6018 1.63334 -3.0842 0
M  V30 456 C 43.9498 2.13562 -3.66983 0
M  V30 457 O 44.9738 1.73277 -3.11213 0
M  V30 458 O 43.8328 2.87526 -4.64749 0
M  V30 459 H 40.9268 0.464933 -0.683935 0
M  V30 460 H 43.4728 0.241902 -1.67967 0
M  V30 461 H 42.2448 0.884583 -3.8117 0
M  V30 462 H 41.8678 2.45666 -3.12624 0
M  V30 463 N 42.8649 1.48995 0.513639 0
M  V30 464 C 44.1129 1.57531 1.26604 0
M  V30 465 C 44.4339 0.258236 1.93283 0
M  V30 466 O 43.7039 -0.721502 1.8213 0
M  V30 467 H 42.2839 0.580387 0.470276 0
M  V30 468 H 44.9459 1.85552 0.596373 0
M  V30 469 H 44.0419 2.36486 2.03669 0
M  V30 470 N 44.343 -0.763751 1.37857 0
M  V30 471 C 45.591 -1.51957 1.33243 0
M  V30 472 C 45.912 -1.94835 -0.0801709 0
M  V30 473 O 45.182 -1.66894 -1.02582 0
M  V30 474 H 43.762 -0.563626 0.49024 0
M  V30 475 H 46.424 -0.908504 1.7243 0
M  V30 476 H 45.52 -2.41523 1.97669 0
M  V30 477 N 45.8211 -1.22559 -0.990812 0
M  V30 478 C 47.0981 -0.959875 -1.70428 0
M  V30 479 C 47.4781 0.524455 -2.04481 0
M  V30 480 O 46.8261 1.49302 -1.72977 0
M  V30 481 C 47.0361 -1.85955 -2.95333 0
M  V30 482 C 48.3841 -2.11687 -3.68068 0
M  V30 483 O 49.4081 -1.8342 -3.05345 0
M  V30 484 O 48.2671 -2.59572 -4.80921 0
M  V30 485 H 45.3611 -0.361154 -0.743974 0
M  V30 486 H 47.9071 -1.33554 -1.04697 0
M  V30 487 H 46.6791 -2.86346 -2.66687 0
M  V30 488 H 46.3021 -1.4856 -3.68803 0
M  V30 489 N 47.2992 1.18797 -1.03562 0
M  V30 490 C 48.5472 1.88278 -0.734569 0
M  V30 491 C 48.8682 1.8043 0.739586 0
M  V30 492 O 48.1382 1.21925 1.53333 0
M  V30 493 H 46.7182 0.696991 -0.268725 0
M  V30 494 H 49.3802 1.44192 -1.31129 0
M  V30 495 H 48.4762 2.94443 -1.03489 0
M  V30 496 N 48.7773 0.814389 1.34928 0
M  V30 497 C 49.7093 0.187834 2.28429 0
M  V30 498 C 50.7223 -0.617374 1.5064 0
M  V30 499 O 51.9113 -0.448454 1.72775 0
M  V30 500 C 49.0113 -0.755962 3.30361 0
M  V30 501 C 48.1843 0.00456686 4.374 0
M  V30 502 C 47.2433 -0.858876 5.19143 0
M  V30 503 O 46.2693 -0.306968 5.68372 0
M  V30 504 N 47.4713 -2.17988 5.38016 0
M  V30 505 H 50.2363 0.991105 2.82838 0
M  V30 506 H 47.7973 0.670561 1.4736 0
M  V30 507 H 49.7893 -1.338 3.81942 0
M  V30 508 H 48.3593 -1.46001 2.7641 0
M  V30 509 H 47.5793 0.767865 3.86649 0
M  V30 510 H 48.8673 0.528422 5.06049 0
M  V30 511 H 48.2653 -2.65212 4.99679 0
M  V30 512 H 46.8223 -2.71098 5.92747 0
M  V30 513 N 50.2554 -1.46986 0.568584 0
M  V30 514 C 51.2184 -2.28624 -0.162366 0
M  V30 515 C 52.2184 -1.37596 -0.832103 0
M  V30 516 O 53.4084 -1.60115 -0.68622 0
M  V30 517 C 50.5404 -3.17596 -1.23878 0
M  V30 518 H 51.7334 -2.94722 0.554899 0
M  V30 519 H 49.2864 -1.52863 0.325976 0
M  V30 520 H 50.0214 -2.56214 -1.98808 0
M  V30 521 H 49.8064 -3.846 -0.763219 0
M  V30 522 H 51.2964 -3.79078 -1.75185 0
M  V30 523 N 51.7335 -0.305618 -1.54608 0
M  V30 524 C 52.9815 0.301701 -1.99835 0
M  V30 525 C 53.3025 1.54054 -1.19551 0
M  V30 526 O 52.5725 1.93702 -0.292658 0
M  V30 527 H 51.1525 0.114468 -0.738178 0
M  V30 528 H 53.8145 -0.418016 -1.90364 0
M  V30 529 H 52.9105 0.570548 -3.06841 0
M  V30 530 N 53.2116 1.57565 -0.0334293 0
M  V30 531 C 54.6226 1.79746 0.504798 0
M  V30 532 C 54.9736 0.944091 1.71992 0
M  V30 533 O 54.0986 0.155694 2.15839 0
M  V30 534 C 54.6936 3.25997 0.922567 0
M  V30 535 C 53.2526 3.49159 1.40588 0
M  V30 536 C 52.3996 2.74785 0.372633 0
M  V30 537 H 55.3506 1.56565 -0.259436 0
M  V30 538 H 55.3716 3.35945 1.78666 0
M  V30 539 H 54.8836 3.88081 0.0379825 0
M  V30 540 H 52.9846 2.92332 2.31025 0
M  V30 541 H 53.0976 4.57873 1.41028 0
M  V30 542 H 51.4616 2.40391 0.841672 0
M  V30 543 H 52.2446 3.39587 -0.503559 0
M  V30 544 N 54.6897 -0.239769 1.55765 0
M  V30 545 C 55.9667 -0.990056 1.68693 0
M  V30 546 C 56.3467 -2.03107 0.5754 0
M  V30 547 O 55.6947 -2.24604 -0.42017 0
M  V30 548 C 55.9047 -1.61696 3.09282 0
M  V30 549 C 57.2527 -2.11613 3.6811 0
M  V30 550 O 58.2767 -1.71624 3.12127 0
M  V30 551 O 57.1357 -2.85057 4.66267 0
M  V30 552 H 54.2297 -0.461299 0.686391 0
M  V30 553 H 56.7757 -0.232991 1.68093 0
M  V30 554 H 55.5477 -0.864357 3.81634 0
M  V30 555 H 55.1707 -2.44005 3.13923 0
M  V30 556 N 56.1678 -1.49265 -0.50573 0
M  V30 557 C 57.0778 -1.68312 -1.63427 0
M  V30 558 C 58.0938 -0.565682 -1.64548 0
M  V30 559 O 59.2698 -0.839801 -1.83055 0
M  V30 560 C 56.3348 -1.74107 -2.99813 0
M  V30 561 C 55.3958 -2.97653 -3.09356 0
M  V30 562 C 54.6288 -3.03163 -4.39236 0
M  V30 563 O 54.8518 -2.16396 -5.27758 0
M  V30 564 O 53.7858 -3.9558 -4.53652 0
M  V30 565 H 57.6118 -2.63907 -1.50289 0
M  V30 566 H 55.1968 -1.32951 -0.681502 0
M  V30 567 H 57.0788 -1.803 -3.80881 0
M  V30 568 H 55.7538 -0.816901 -3.13223 0
M  V30 569 H 54.6608 -2.96981 -2.27493 0
M  V30 570 H 55.9938 -3.89535 -3.00871 0
M  V30 571 N 57.6459 0.756429 -1.3826 0
M  V30 572 C 58.8939 1.51248 -1.34047 0
M  V30 573 C 59.2149 1.94875 0.0698372 0
M  V30 574 O 58.4849 1.67436 1.01696 0
M  V30 575 H 57.0649 0.561018 -0.493222 0
M  V30 576 H 59.7269 0.899347 -1.7291 0
M  V30 577 H 58.8229 2.40472 -1.98947 0
M  V30 578 N 59.124 1.23083 0.984299 0
M  V30 579 C 60.034 1.02515 2.11016 0
M  V30 580 C 61.05 -0.0291702 1.73976 0
M  V30 581 O 62.226 0.165434 2.00719 0
M  V30 582 C 59.291 0.614673 3.41208 0
M  V30 583 C 58.352 1.74359 3.92297 0
M  V30 584 C 57.585 1.35261 5.16275 0
M  V30 585 O 57.808 0.235136 5.69915 0
M  V30 586 O 56.742 2.17227 5.61334 0
M  V30 587 H 60.568 1.96862 2.31255 0
M  V30 588 H 58.153 1.01753 1.09392 0
M  V30 589 H 60.035 0.396518 4.1953 0
M  V30 590 H 58.71 -0.299851 3.22308 0
M  V30 591 H 57.617 2.01635 3.1511 0
M  V30 592 H 58.95 2.63629 4.15645 0
M  V30 593 N 60.6021 -1.18246 1.0419 0
M  V30 594 C 61.8481 -1.88536 0.747122 0
M  V30 595 C 62.1811 -1.80223 -0.723409 0
M  V30 596 O 61.4561 -1.20337 -1.52804 0
M  V30 597 C 61.7391 -3.38968 1.21544 0
M  V30 598 C 61.5921 -3.56084 2.74816 0
M  V30 599 C 62.9111 -4.32648 0.806482 0
M  V30 600 H 60.0301 -0.684619 0.272883 0
M  V30 601 H 62.6721 -1.39113 1.29413 0
M  V30 602 H 60.8221 -3.8119 0.750081 0
M  V30 603 H 62.4941 -3.22946 3.29399 0
M  V30 604 H 60.7371 -2.98699 3.14582 0
M  V30 605 H 61.4081 -4.61639 3.02644 0
M  V30 606 H 63.8841 -3.98211 1.20695 0
M  V30 607 H 62.7601 -5.36462 1.1619 0
M  V30 608 H 63.0211 -4.41146 -0.29029 0
M  V30 609 N 62.0802 -0.821533 -1.34494 0
M  V30 610 C 63.3572 -0.33159 -1.92769 0
M  V30 611 C 63.7372 1.18088 -1.74981 0
M  V30 612 O 63.0852 1.98733 -1.12772 0
M  V30 613 C 63.2952 -0.759398 -3.40638 0
M  V30 614 C 64.6432 -0.757433 -4.1779 0
M  V30 615 O 65.6672 -0.70189 -3.49216 0
M  V30 616 O 64.5262 -0.829361 -5.4017 0
M  V30 617 H 61.6202 -0.0902502 -0.822061 0
M  V30 618 H 64.1662 -0.906231 -1.43477 0
M  V30 619 H 62.9382 -1.8012 -3.47379 0
M  V30 620 H 62.5612 -0.160378 -3.97276 0
M  V30 621 N 63.5583 1.46682 -0.576371 0
M  V30 622 C 64.7833 2.07304 -0.0630475 0
M  V30 623 C 65.2083 1.42329 1.2298 0
M  V30 624 O 64.5663 0.504865 1.74129 0
M  V30 625 C 64.6143 3.60472 0.095895 0
M  V30 626 O 63.7183 3.95927 1.15394 0
M  V30 627 H 63.0593 0.661288 -0.0599463 0
M  V30 628 H 65.5893 1.88417 -0.797511 0
M  V30 629 H 65.5993 4.06865 0.304071 0
M  V30 630 H 64.2743 4.07157 -0.84828 0
M  V30 631 H 62.8513 3.61252 0.924724 0
M  V30 632 N 65.0364 0.313813 1.54444 0
M  V30 633 C 66.2764 -0.292389 2.02298 0
M  V30 634 C 66.6404 -1.50105 1.19719 0
M  V30 635 O 67.8414 -2.17947 1.5733 0
M  V30 636 C 66.1124 -0.627682 3.51845 0
M  V30 637 S 67.6714 -1.21493 4.21646 0
M  V30 638 H 64.4894 -0.0890247 0.705405 0
M  V30 639 H 67.0914 0.444668 1.90376 0
M  V30 640 H 65.7954 0.260265 4.09574 0
M  V30 641 H 65.3264 -1.39519 3.67829 0
M  V30 642 H 67.3414 -2.5022 4.28491 0
M  V30 643 N 66.5145 -1.57545 0.0417849 0
M  V30 644 C 67.4445 -2.14009 -0.933929 0
M  V30 645 C 68.4255 -1.05938 -1.33083 0
M  V30 646 O 69.6105 -1.33833 -1.40721 0
M  V30 647 C 66.7405 -2.67747 -2.21199 0
M  V30 648 C 65.6945 -3.80718 -1.95544 0
M  V30 649 C 65.0205 -4.20935 -3.29724 0
M  V30 650 C 66.3205 -5.06258 -1.28452 0
M  V30 651 H 68.0145 -2.95788 -0.463645 0
M  V30 652 H 65.5605 -1.42285 -0.221573 0
M  V30 653 H 67.5135 -3.05886 -2.89848 0
M  V30 654 H 66.2375 -1.83147 -2.70416 0
M  V30 655 H 64.8965 -3.43037 -1.2931 0
M  V30 656 H 64.5445 -3.33298 -3.76724 0
M  V30 657 H 64.2445 -4.9707 -3.13361 0
M  V30 658 H 65.7685 -4.61666 -3.9962 0
M  V30 659 H 67.1825 -5.41903 -1.8712 0
M  V30 660 H 65.5795 -5.87475 -1.22445 0
M  V30 661 H 66.6495 -4.84207 -0.259219 0
M  V30 662 N 67.9926 0.231505 -1.5589 0
M  V30 663 C 69.4086 0.580748 -1.48659 0
M  V30 664 C 69.6086 1.87617 -0.73498 0
M  V30 665 O 68.6646 2.51046 -0.270586 0
M  V30 666 C 69.9776 0.669202 -2.93159 0
M  V30 667 C 71.5256 0.760499 -3.03621 0
M  V30 668 C 72.0006 0.880383 -4.49459 0
M  V30 669 N 73.4916 0.944861 -4.53461 0
M  V30 670 C 74.2266 1.05716 -5.63571 0
M  V30 671 N 73.7226 1.13403 -6.83456 0
M  V30 672 N 75.5156 1.09152 -5.514 0
M  V30 673 H 67.6666 -0.618695 -2.03189 0
M  V30 674 H 69.9296 -0.215728 -0.923128 0
M  V30 675 H 69.6356 -0.212904 -3.51055 0
M  V30 676 H 69.5096 1.5361 -3.44505 0
M  V30 677 H 71.8966 1.63305 -2.45796 0
M  V30 678 H 71.9776 -0.131864 -2.5546 0
M  V30 679 H 71.6216 0.0123284 -5.07899 0
M  V30 680 H 71.5516 1.78802 -4.95316 0
M  V30 681 H 74.0426 0.896176 -3.6712 0
M  V30 682 H 74.3556 1.21921 -7.63122 0
M  V30 683 H 72.7006 1.10333 -6.86186 0
M  V30 684 H 75.8916 1.02805 -4.56671 0
M  V30 685 H 76.0646 1.17558 -6.37247 0
M  V30 686 N 69.4707 1.49531 0.497807 0
M  V30 687 C 70.4027 1.62559 1.61578 0
M  V30 688 C 71.4157 0.508134 1.54667 0
M  V30 689 O 72.6047 0.780309 1.60541 0
M  V30 690 C 69.7047 1.56925 3.00379 0
M  V30 691 C 68.8777 2.84257 3.3244 0
M  V30 692 C 67.9367 2.71632 4.50669 0
M  V30 693 O 66.9627 3.4557 4.52294 0
M  V30 694 N 68.1647 1.83391 5.5077 0
M  V30 695 H 70.9297 2.58981 1.50828 0
M  V30 696 H 68.4907 1.4666 0.685743 0
M  V30 697 H 70.4827 1.46129 3.77397 0
M  V30 698 H 69.0527 0.683483 3.05037 0
M  V30 699 H 68.2727 3.09381 2.44289 0
M  V30 700 H 69.5607 3.68666 3.5066 0
M  V30 701 H 68.9587 1.22583 5.52259 0
M  V30 702 H 67.5157 1.78515 6.26878 0
M  V30 703 N 70.9488 -0.749086 1.3866 0
M  V30 704 C 72.1968 -1.50535 1.34847 0
M  V30 705 C 72.5178 -1.94909 -0.0595016 0
M  V30 706 O 71.7878 -1.67973 -1.00806 0
M  V30 707 H 70.3678 -0.558395 0.49619 0
M  V30 708 H 73.0298 -0.890165 1.73384 0
M  V30 709 H 72.1258 -2.39413 2.00219 0
M  V30 710 N 72.4269 -1.23603 -0.977757 0
M  V30 711 C 73.3749 -1.01704 -2.09187 0
M  V30 712 C 74.3689 0.0448214 -1.69341 0
M  V30 713 O 75.5749 -0.108902 -1.7967 0
M  V30 714 H 71.9499 -0.311803 -0.684312 0
M  V30 715 H 73.9209 -1.96207 -2.24823 0
M  V30 716 C 72.6699 -0.627746 -3.41986 0
M  V30 717 H 71.9929 -1.43656 -3.73099 0
M  V30 718 H 73.4329 -0.514053 -4.20872 0
M  V30 719 C 71.8919 0.664238 -3.30287 0
M  V30 720 O 72.4219 1.71268 -3.6336 0
M  V30 721 N 70.6279 0.641156 -2.83439 0
M  V30 722 H 70.1749 -0.212376 -2.56723 0
M  V30 723 H 70.1329 1.50583 -2.75993 0
M  V30 724 N 73.905 1.17692 -1.04816 0
M  V30 725 C 74.838 2.20436 -0.590173 0
M  V30 726 C 75.816 1.58115 0.379244 0
M  V30 727 O 77 1.86228 0.291762 0
M  V30 728 C 74.127 3.38424 0.136817 0
M  V30 729 C 73.173 4.19176 -0.787023 0
M  V30 730 S 74.006 4.84815 -2.27409 0
M  V30 731 C 75.162 6.06195 -1.55817 0
M  V30 732 H 75.395 2.58944 -1.46067 0
M  V30 733 H 72.928 1.28246 -0.859784 0
M  V30 734 H 74.886 4.06798 0.550076 0
M  V30 735 H 73.547 2.98312 0.983299 0
M  V30 736 H 72.74 5.03499 -0.224681 0
M  V30 737 H 72.342 3.56219 -1.13947 0
M  V30 738 H 74.634 6.72078 -0.855387 0
M  V30 739 H 75.577 6.6695 -2.37873 0
M  V30 740 H 75.985 5.54701 -1.04722 0
M  V30 741 N 75.3831 0.828654 1.34056 0
M  V30 742 C 76.6111 0.43262 2.02326 0
M  V30 743 C 77.0261 -0.963147 1.62385 0
M  V30 744 O 76.3831 -1.62425 0.832121 0
M  V30 745 C 76.4341 0.53182 3.57567 0
M  V30 746 O 76.1551 1.87258 3.96063 0
M  V30 747 C 77.6561 0.131422 4.43105 0
M  V30 748 H 74.8761 0.172923 0.648335 0
M  V30 749 H 77.4201 1.1184 1.71208 0
M  V30 750 H 75.5751 -0.105938 3.87255 0
M  V30 751 H 75.9891 1.85087 4.90758 0
M  V30 752 H 77.4631 0.251904 5.51425 0
M  V30 753 H 77.9401 -0.925645 4.29335 0
M  V30 754 H 78.5461 0.743207 4.18756 0
M  V30 755 N 76.8612 -1.46375 0.584142 0
M  V30 756 C 77.8242 -2.28784 -0.138108 0
M  V30 757 C 78.8242 -1.38471 -0.817462 0
M  V30 758 O 80.0142 -1.60833 -0.669199 0
M  V30 759 C 77.1462 -3.18892 -1.20503 0
M  V30 760 H 78.3392 -2.94117 0.586127 0
M  V30 761 H 75.8922 -1.52509 0.342171 0
M  V30 762 H 76.6272 -2.58309 -1.96079 0
M  V30 763 H 76.4122 -3.85388 -0.722384 0
M  V30 764 H 77.9022 -3.80914 -1.71155 0
M  V30 765 N 78.3393 -0.321999 -1.54275 0
M  V30 766 C 79.3023 0.531975 -2.22941 0
M  V30 767 C 80.3023 1.04478 -1.22234 0
M  V30 768 O 81.4923 0.937452 -1.46825 0
M  V30 769 C 78.6243 1.73874 -2.93224 0
M  V30 770 H 79.8173 -0.0682612 -2.99822 0
M  V30 771 H 77.3703 -0.0730644 -1.56129 0
M  V30 772 H 78.1053 2.37825 -2.20476 0
M  V30 773 H 77.8903 1.37847 -3.6707 0
M  V30 774 H 79.3803 2.34496 -3.45545 0
M  V30 775 N 79.8174 1.5752 -0.0501392 0
M  V30 776 C 80.7474 2.14502 0.922566 0
M  V30 777 C 81.7284 1.06642 1.3252 0
M  V30 778 O 82.9134 1.34577 1.4001 0
M  V30 779 C 80.0434 2.68916 2.19776 0
M  V30 780 C 78.9974 3.8175 1.93523 0
M  V30 781 C 78.3234 4.22677 3.27487 0
M  V30 782 C 79.6234 5.06932 1.25765 0
M  V30 783 H 81.3174 2.9603 0.447952 0
M  V30 784 H 78.8634 1.42401 0.214024 0
M  V30 785 H 80.8164 3.07419 2.88222 0
M  V30 786 H 79.5404 1.84578 2.69441 0
M  V30 787 H 78.1994 3.43718 1.27489 0
M  V30 788 H 77.8474 3.35291 3.74952 0
M  V30 789 H 77.5474 4.98725 3.1072 0
M  V30 790 H 79.0714 4.63779 3.97166 0
M  V30 791 H 80.4854 5.42888 1.84244 0
M  V30 792 H 78.8824 5.88116 1.19328 0
M  V30 793 H 79.9524 4.84337 0.233536 0
M  V30 794 N 81.2955 -0.223234 1.56011 0
M  V30 795 C 82.2275 -1.30006 1.88762 0
M  V30 796 C 83.2405 -1.43129 0.775746 0
M  V30 797 O 84.4295 -1.44057 1.05403 0
M  V30 798 C 81.5295 -2.67589 2.07965 0
M  V30 799 C 80.7025 -2.76434 3.38973 0
M  V30 800 C 79.7615 -3.95019 3.47629 0
M  V30 801 O 78.7875 -3.83436 4.20672 0
M  V30 802 N 79.9895 -5.09249 2.78649 0
M  V30 803 H 82.7545 -1.02238 2.81722 0
M  V30 804 H 80.3155 -0.413278 1.56536 0
M  V30 805 H 82.3075 -3.45297 2.11073 0
M  V30 806 H 80.8775 -2.87964 1.21638 0
M  V30 807 H 80.0975 -1.85216 3.47978 0
M  V30 808 H 81.3855 -2.79313 4.25278 0
M  V30 809 H 80.7835 -5.21556 2.19081 0
M  V30 810 H 79.3405 -5.85007 2.8742 0
M  V30 811 N 82.7736 -1.49793 -0.48987 0
M  V30 812 C 83.7366 -1.66752 -1.57246 0
M  V30 813 C 84.7366 -0.538867 -1.51502 0
M  V30 814 O 85.9266 -0.805545 -1.54456 0
M  V30 815 C 83.0586 -1.67528 -2.96896 0
M  V30 816 H 84.2516 -2.63321 -1.43534 0
M  V30 817 H 81.8046 -1.38992 -0.714914 0
M  V30 818 H 82.5396 -0.725837 -3.16073 0
M  V30 819 H 82.3246 -2.49504 -3.02473 0
M  V30 820 H 83.8146 -1.82667 -3.7553 0
M  V30 821 N 84.2517 0.741722 -1.39055 0
M  V30 822 C 85.2147 1.83733 -1.37021 0
M  V30 823 C 86.2147 1.58542 -0.268534 0
M  V30 824 O 87.4047 1.66067 -0.526076 0
M  V30 825 C 84.5367 3.2141 -1.13617 0
M  V30 826 H 85.7297 1.86941 -2.34506 0
M  V30 827 H 83.2827 0.944676 -1.24521 0
M  V30 828 H 84.0177 3.23865 -0.167863 0
M  V30 829 H 83.8027 3.4109 -1.93391 0
M  V30 830 H 85.2927 4.01477 -1.14918 0
M  V30 831 N 85.7298 1.2412 0.971189 0
M  V30 832 C 86.6598 1.05508 2.08304 0
M  V30 833 C 87.6408 -0.0308864 1.70072 0
M  V30 834 O 88.8258 0.135521 1.93727 0
M  V30 835 C 85.9558 0.655365 3.4106 0
M  V30 836 C 84.9098 1.68971 3.93234 0
M  V30 837 C 84.2358 1.14516 5.22293 0
M  V30 838 C 85.5358 3.08487 4.21465 0
M  V30 839 H 87.2298 1.98507 2.24132 0
M  V30 840 H 84.7758 0.955821 1.07704 0
M  V30 841 H 86.7288 0.51217 4.18276 0
M  V30 842 H 85.4528 -0.31032 3.25122 0
M  V30 843 H 84.1118 1.82106 3.18171 0
M  V30 844 H 83.7598 0.170189 5.02712 0
M  V30 845 H 83.4598 1.83635 5.58168 0
M  V30 846 H 84.9838 1.01401 6.02121 0
M  V30 847 H 86.3978 2.98601 4.89398 0
M  V30 848 H 84.7948 3.74926 4.68562 0
M  V30 849 H 85.8648 3.56787 3.28376 0
M  V30 850 N 87.2079 -1.17134 1.05439 0
M  V30 851 C 88.1549 -2.21235 0.657539 0
M  V30 852 C 89.1249 -1.62551 -0.341543 0
M  V30 853 O 90.3099 -1.89379 -0.232393 0
M  V30 854 C 87.4499 -3.45076 0.0410575 0
M  V30 855 C 86.5629 -4.18042 1.08927 0
M  V30 856 C 85.6979 -5.29376 0.439848 0
M  V30 857 C 84.7369 -5.94132 1.4722 0
M  V30 858 N 83.8739 -6.96975 0.846756 0
M  V30 859 H 88.7139 -2.54534 1.54972 0
M  V30 860 H 86.2509 -1.25028 0.775006 0
M  V30 861 H 88.2089 -4.15862 -0.33383 0
M  V30 862 H 86.8389 -3.12353 -0.814568 0
M  V30 863 H 85.8909 -3.45945 1.58196 0
M  V30 864 H 87.2029 -4.62306 1.87282 0
M  V30 865 H 86.3569 -6.06699 0.0115125 0
M  V30 866 H 85.0959 -4.86251 -0.375656 0
M  V30 867 H 84.1009 -5.15538 1.91052 0
M  V30 868 H 85.3259 -6.39337 2.28965 0
M  V30 869 H 83.2719 -6.5598 0.0518075 0
M  V30 870 H 83.1889 -7.39565 1.5678 0
M  V30 871 H 84.4569 -7.78239 0.443277 0
M  V30 872 N 88.686 -0.835752 -1.33615 0
M  V30 873 C 89.634 -0.255238 -2.31195 0
M  V30 874 C 90.628 0.61107 -1.57995 0
M  V30 875 O 91.834 0.500979 -1.72888 0
M  V30 876 H 88.209 -0.0638085 -0.749288 0
M  V30 877 H 90.18 -1.09283 -2.77669 0
M  V30 878 C 88.929 0.55754 -3.43201 0
M  V30 879 H 88.252 -0.0997553 -3.99676 0
M  V30 880 H 89.692 0.929622 -4.13683 0
M  V30 881 C 88.151 1.73515 -2.88781 0
M  V30 882 O 88.681 2.83376 -2.84712 0
M  V30 883 N 86.887 1.55603 -2.4543 0
M  V30 884 H 86.434 0.662354 -2.48939 0
M  V30 885 H 86.392 2.34545 -2.09371 0
M  V30 886 N 90.1641 1.46063 -0.591896 0
M  V30 887 C 91.5751 1.85944 -0.167822 0
M  V30 888 C 91.9261 1.49429 1.27143 0
M  V30 889 O 91.0511 0.913515 1.96173 0
M  V30 890 C 91.6461 3.37489 -0.297794 0
M  V30 891 C 90.2051 3.76332 0.0714732 0
M  V30 892 C 89.3521 2.7006 -0.629509 0
M  V30 893 H 92.3031 1.37087 -0.799555 0
M  V30 894 H 92.3241 3.77532 0.474349 0
M  V30 895 H 91.8361 3.64034 -1.3454 0
M  V30 896 H 89.9371 3.55405 1.11886 0
M  V30 897 H 90.0501 4.78088 -0.311245 0
M  V30 898 H 88.4141 2.54607 -0.0687867 0
M  V30 899 H 89.1971 2.99444 -1.67894 0
M  V30 900 N 91.6422 0.330177 1.54103 0
M  V30 901 C 93.0532 -0.15652 1.86043 0
M  V30 902 C 93.4042 -1.51086 1.2517 0
M  V30 903 O 92.5292 -2.09023 0.560217 0
M  V30 904 C 93.1242 -0.290784 3.3755 0
M  V30 905 C 91.6832 -0.721705 3.69416 0
M  V30 906 C 90.8302 0.152622 2.7688 0
M  V30 907 H 93.7812 0.550237 1.48856 0
M  V30 908 H 93.8022 -1.12058 3.63625 0
M  V30 909 H 93.3142 0.695068 3.81825 0
M  V30 910 H 91.4152 -1.71706 3.30678 0
M  V30 911 H 91.5282 -0.520869 4.7626 0
M  V30 912 H 89.8922 -0.372894 2.51956 0
M  V30 913 H 90.6752 1.13536 3.23982 0
M  V30 914 N 93.1203 -1.57491 0.0584922 0
M  V30 915 C 94.3693 -1.92155 -0.613146 0
M  V30 916 C 94.6823 -0.939334 -1.71569 0
M  V30 917 O 95.8883 -1.17829 -2.44599 0
M  V30 918 C 94.3443 -3.41303 -1.14195 0
M  V30 919 C 93.9523 -4.47944 -0.0711265 0
M  V30 920 C 95.6963 -3.84988 -1.78841 0
M  V30 921 C 93.6033 -5.88212 -0.613225 0
M  V30 922 H 92.5333 -0.717162 -0.232796 0
M  V30 923 H 95.1843 -1.83049 0.12857 0
M  V30 924 H 93.5663 -3.45437 -1.93621 0
M  V30 925 H 94.7403 -4.55408 0.702836 0
M  V30 926 H 93.0553 -4.13644 0.478313 0
M  V30 927 H 95.6523 -4.87159 -2.20408 0
M  V30 928 H 95.9953 -3.21632 -2.64308 0
M  V30 929 H 96.5283 -3.83401 -1.06059 0
M  V30 930 H 93.2673 -6.55183 0.203978 0
M  V30 931 H 92.7873 -5.84294 -1.35501 0
M  V30 932 H 94.4663 -6.37687 -1.09383 0
M  V30 933 N 94.5984 0.214957 -1.56127 0
M  V30 934 C 95.5464 1.28601 -1.93816 0
M  V30 935 C 96.5404 1.48175 -0.821016 0
M  V30 936 O 97.7464 1.49271 -1.0059 0
M  V30 937 H 94.1214 0.431302 -0.616022 0
M  V30 938 H 96.0924 0.940991 -2.83175 0
M  V30 939 C 94.8414 2.62779 -2.27689 0
M  V30 940 H 94.1644 2.48527 -3.13168 0
M  V30 941 H 95.6044 3.36517 -2.57939 0
M  V30 942 C 94.0634 3.18285 -1.10436 0
M  V30 943 O 94.5934 4.00002 -0.368945 0
M  V30 944 N 92.7994 2.7675 -0.886433 0
M  V30 945 H 92.3464 2.10404 -1.48619 0
M  V30 946 H 92.3044 3.14229 -0.103656 0
M  V30 947 N 96.0765 1.50051 0.48192 0
M  V30 948 C 97.3045 1.64237 1.25832 0
M  V30 949 C 97.7195 0.321336 1.86045 0
M  V30 950 O 97.0765 -0.695478 1.68729 0
M  V30 951 C 97.1275 2.72548 2.37487 0
M  V30 952 O 96.8485 3.99529 1.79745 0
M  V30 953 C 98.3495 2.9761 3.28547 0
M  V30 954 H 95.5695 0.55237 0.380957 0
M  V30 955 H 98.1135 1.96207 0.576467 0
M  V30 956 H 96.2685 2.43303 3.01467 0
M  V30 957 H 96.6825 4.59342 2.5319 0
M  V30 958 H 98.1565 3.77084 4.03127 0
M  V30 959 H 98.6335 2.0826 3.86684 0
M  V30 960 H 99.2395 3.28345 2.70314 0
M  V30 961 N 97.5546 -0.734337 1.39446 0
M  V30 962 C 98.5016 -1.84835 1.38219 0
M  V30 963 C 99.4716 -1.64331 0.24179 0
M  V30 964 O 100.657 -1.85728 0.437002 0
M  V30 965 C 97.7966 -3.22355 1.23212 0
M  V30 966 C 96.9096 -3.5456 2.46801 0
M  V30 967 C 96.0446 -4.81485 2.24377 0
M  V30 968 C 95.0836 -5.06536 3.43639 0
M  V30 969 N 94.2206 -6.24665 3.20528 0
M  V30 970 H 99.0606 -1.85219 2.33448 0
M  V30 971 H 96.5976 -0.905039 1.15963 0
M  V30 972 H 98.5556 -4.0174 1.12522 0
M  V30 973 H 97.1856 -3.21248 0.316121 0
M  V30 974 H 96.2376 -2.69872 2.68092 0
M  V30 975 H 97.5496 -3.6899 3.3563 0
M  V30 976 H 96.7036 -5.68852 2.10933 0
M  V30 977 H 95.4426 -4.6923 1.32944 0
M  V30 978 H 94.4476 -4.17632 3.5758 0
M  V30 979 H 95.6726 -5.20676 4.35974 0
M  V30 980 H 93.6186 -6.13696 2.3176 0
M  V30 981 H 93.5356 -6.39685 4.02913 0
M  V30 982 H 94.8036 -7.14868 3.10779 0
M  V30 983 N 99.0327 -1.24633 -0.964593 0
M  V30 984 C 100.258 -1.11596 -1.74818 0
M  V30 985 C 100.683 0.32723 -1.85232 0
M  V30 986 O 100.041 1.23695 -1.32549 0
M  V30 987 C 100.089 -1.76397 -3.1451 0
M  V30 988 O 99.1927 -1.03685 -3.99153 0
M  V30 989 H 98.5337 -0.390196 -0.537255 0
M  V30 990 H 101.064 -1.65002 -1.20977 0
M  V30 991 H 101.074 -1.8228 -3.65018 0
M  V30 992 H 99.7487 -2.81401 -3.06246 0
M  V30 993 H 98.3257 -1.05611 -3.57632 0
M  V30 994 N 100.511 1.16574 -1.06058 0
M  V30 995 C 101.443 2.2045 -0.627239 0
M  V30 996 C 102.456 1.59752 0.313534 0
M  V30 997 O 103.645 1.78192 0.104896 0
M  V30 998 C 100.745 3.3875 0.100974 0
M  V30 999 C 99.9178 4.29008 -0.852687 0
M  V30 1000 C 98.9768 5.25944 -0.164152 0
M  V30 1001 O 98.0028 5.63535 -0.801047 0
M  V30 1002 N 99.2048 5.70075 1.09518 0
M  V30 1003 H 101.97 2.58249 -1.52077 0
M  V30 1004 H 99.5308 1.3156 -0.943594 0
M  V30 1005 H 101.523 4.00638 0.57194 0
M  V30 1006 H 100.093 2.99476 0.89628 0
M  V30 1007 H 99.3128 3.64419 -1.50308 0
M  V30 1008 H 100.601 4.86195 -1.49972 0
M  V30 1009 H 99.9988 5.41624 1.6328 0
M  V30 1010 H 98.5558 6.34067 1.51006 0
M  V30 1011 N 101.989 0.842826 1.3317 0
M  V30 1012 C 102.952 0.284065 2.27433 0
M  V30 1013 C 103.952 -0.54948 1.5112 0
M  V30 1014 O 105.142 -0.362699 1.70382 0
M  V30 1015 C 102.274 -0.599384 3.35589 0
M  V30 1016 H 103.467 1.11589 2.78366 0
M  V30 1017 H 101.02 0.616221 1.4364 0
M  V30 1018 H 101.755 -1.45349 2.89904 0
M  V30 1019 H 101.54 -0.00291266 3.921 0
M  V30 1020 H 103.03 -0.983488 4.05854 0
M  V30 1021 N 103.467 -1.45747 0.599634 0
M  V30 1022 C 104.713 -2.02592 0.0918643 0
M  V30 1023 C 105.046 -1.46806 -1.27128 0
M  V30 1024 O 104.321 -0.639658 -1.83681 0
M  V30 1025 C 104.604 -3.60073 0.0443398 0
M  V30 1026 C 104.457 -4.26208 1.43759 0
M  V30 1027 C 105.776 -4.35309 -0.647608 0
M  V30 1028 H 102.895 -0.736175 0.034857 0
M  V30 1029 H 105.537 -1.73694 0.770081 0
M  V30 1030 H 103.687 -3.84823 -0.533224 0
M  V30 1031 H 105.359 -4.12668 2.06162 0
M  V30 1032 H 103.602 -3.84916 2.00056 0
M  V30 1033 H 104.273 -5.35069 1.35665 0
M  V30 1034 H 106.749 -4.15805 -0.156776 0
M  V30 1035 H 105.625 -5.45038 -0.649942 0
M  V30 1036 H 105.886 -4.07598 -1.71219 0
M  V30 1037 N 104.945 -0.338344 -1.53925 0
M  V30 1038 C 105.892 0.520845 -2.24846 0
M  V30 1039 C 106.862 1.09976 -1.24477 0
M  V30 1040 O 108.047 1.13735 -1.53196 0
M  V30 1041 C 105.187 1.6685 -3.02084 0
M  V30 1042 C 104.3 1.11739 -4.17299 0
M  V30 1043 C 103.435 2.23193 -4.82036 0
M  V30 1044 C 102.474 1.65407 -5.89328 0
M  V30 1045 N 101.611 2.70582 -6.47866 0
M  V30 1046 H 106.451 -0.0904881 -2.97863 0
M  V30 1047 H 103.988 -0.0564282 -1.46992 0
M  V30 1048 H 105.946 2.34407 -3.45122 0
M  V30 1049 H 104.576 2.2509 -2.31375 0
M  V30 1050 H 103.628 0.332919 -3.7894 0
M  V30 1051 H 104.94 0.654677 -4.94485 0
M  V30 1052 H 104.094 2.98626 -5.28117 0
M  V30 1053 H 102.833 2.72807 -4.04262 0
M  V30 1054 H 101.838 0.884779 -5.42634 0
M  V30 1055 H 103.063 1.16652 -6.69006 0
M  V30 1056 H 101.009 3.1946 -5.72959 0
M  V30 1057 H 100.926 2.28917 -7.20509 0
M  V30 1058 H 102.194 3.45799 -6.98601 0
M  V30 1059 N 106.423 1.57458 -0.0668435 0
M  V30 1060 C 107.7 1.8469 0.644132 0
M  V30 1061 C 108.08 0.958343 1.88093 0
M  V30 1062 O 107.428 0.0233579 2.28488 0
M  V30 1063 C 107.638 3.34767 0.986509 0
M  V30 1064 C 108.986 4.02159 1.36212 0
M  V30 1065 O 110.01 3.39484 1.07839 0
M  V30 1066 O 108.869 5.12694 1.89227 0
M  V30 1067 H 105.963 0.762816 0.319437 0
M  V30 1068 H 108.509 1.6942 -0.0973986 0
M  V30 1069 H 107.281 3.91151 0.107883 0
M  V30 1070 H 106.904 3.55281 1.78497 0
M  V30 1071 N 107.901 -0.206675 1.56239 0
M  V30 1072 C 109.317 -0.557025 1.49564 0
M  V30 1073 C 109.517 -1.86424 0.764735 0
M  V30 1074 O 108.573 -2.50584 0.310491 0
M  V30 1075 C 109.886 -0.622478 2.94186 0
M  V30 1076 C 111.434 -0.712099 3.04792 0
M  V30 1077 C 111.909 -0.808767 4.50803 0
M  V30 1078 N 113.4 -0.8726 4.54907 0
M  V30 1079 C 114.135 -0.967365 5.65181 0
M  V30 1080 N 113.631 -1.02515 6.85173 0
M  V30 1081 N 115.424 -1.00366 5.53067 0
M  V30 1082 H 107.575 0.650943 2.02179 0
M  V30 1083 H 109.838 0.230387 0.919579 0
M  V30 1084 H 109.544 0.268727 3.50672 0
M  V30 1085 H 109.418 -1.4811 3.46905 0
M  V30 1086 H 111.805 -1.59374 2.48363 0
M  V30 1087 H 111.886 0.172489 2.55218 0
M  V30 1088 H 111.53 0.0684754 5.07854 0
M  V30 1089 H 111.46 -1.70899 4.98098 0
M  V30 1090 H 113.951 -0.837657 3.68499 0
M  V30 1091 H 114.264 -1.09765 7.64965 0
M  V30 1092 H 112.609 -0.994026 6.87855 0
M  V30 1093 H 115.8 -0.95527 4.58249 0
M  V30 1094 H 115.973 -1.07405 6.39037 0
M  V30 1095 N 109.379 -1.50304 -0.473955 0
M  V30 1096 C 110.342 -1.6841 -1.55469 0
M  V30 1097 C 111.342 -0.554905 -1.50922 0
M  V30 1098 O 112.532 -0.821882 -1.53593 0
M  V30 1099 C 109.664 -1.70667 -2.95102 0
M  V30 1100 H 110.857 -2.64828 -1.40733 0
M  V30 1101 H 108.41 -1.39742 -0.700132 0
M  V30 1102 H 109.145 -0.75932 -3.15285 0
M  V30 1103 H 108.93 -2.52698 -2.9981 0
M  V30 1104 H 110.42 -1.8664 -3.73571 0
M  V30 1105 N 110.857 0.726932 -1.39834 0
M  V30 1106 C 112.105 1.4837 -1.37225 0
M  V30 1107 C 112.426 1.94979 0.0284857 0
M  V30 1108 O 111.696 1.69555 0.981213 0
M  V30 1109 H 110.276 0.55043 -0.505011 0
M  V30 1110 H 112.938 0.862468 -1.74778 0
M  V30 1111 H 112.034 2.36198 -2.04003 0
M  V30 1112 N 112.336 1.25143 0.95797 0
M  V30 1113 C 113.561 1.12521 1.74223 0
M  V30 1114 C 113.986 -0.317402 1.85403 0
M  V30 1115 O 113.344 -1.2299 1.33204 0
M  V30 1116 C 113.392 1.78062 3.1357 0
M  V30 1117 O 112.496 1.058 3.98598 0
M  V30 1118 H 111.837 0.39304 0.535178 0
M  V30 1119 H 114.367 1.65641 1.201 0
M  V30 1120 H 114.377 1.84213 3.64046 0
M  V30 1121 H 113.052 2.83021 3.04749 0
M  V30 1122 H 111.629 1.07506 3.57067 0
M  V30 1123 N 113.814 -1.1601 1.06675 0
M  V30 1124 C 115.063 -1.85973 0.780818 0
M  V30 1125 C 115.376 -1.82819 -0.695444 0
M  V30 1126 O 116.582 -2.484 -1.09589 0
M  V30 1127 C 115.038 -3.33757 1.34665 0
M  V30 1128 C 114.646 -3.45374 2.85343 0
M  V30 1129 C 116.39 -4.0895 1.13843 0
M  V30 1130 C 114.297 -4.87266 3.35151 0
M  V30 1131 H 113.227 -0.696661 0.288407 0
M  V30 1132 H 115.878 -1.30903 1.28595 0
M  V30 1133 H 114.26 -3.88456 0.769274 0
M  V30 1134 H 115.434 -3.00816 3.49065 0
M  V30 1135 H 113.749 -2.83619 3.04876 0
M  V30 1136 H 116.346 -5.13654 1.4854 0
M  V30 1137 H 116.689 -4.16229 0.0770282 0
M  V30 1138 H 117.222 -3.605 1.68179 0
M  V30 1139 H 113.961 -4.85168 4.40786 0
M  V30 1140 H 113.481 -5.32433 2.76179 0
M  V30 1141 H 115.16 -5.56097 3.30704 0
M  V30 1142 N 115.292 -0.849877 -1.32721 0
M  V30 1143 C 116.538 -0.451591 -1.97708 0
M  V30 1144 C 116.871 0.989175 -1.6712 0
M  V30 1145 O 116.146 1.69334 -0.956891 0
M  V30 1146 C 116.429 -0.685598 -3.53513 0
M  V30 1147 C 116.282 -2.17444 -3.93749 0
M  V30 1148 C 117.601 -0.138874 -4.39881 0
M  V30 1149 H 114.72 -0.16555 -0.718166 0
M  V30 1150 H 117.362 -1.06742 -1.57182 0
M  V30 1151 H 115.512 -0.161416 -3.88165 0
M  V30 1152 H 117.184 -2.76433 -3.693 0
M  V30 1153 H 115.427 -2.65476 -3.43081 0
M  V30 1154 H 116.098 -2.28888 -5.02309 0
M  V30 1155 H 118.574 -0.587068 -4.11938 0
M  V30 1156 H 117.45 -0.332213 -5.47894 0
M  V30 1157 H 117.711 0.95806 -4.31594 0
M  V30 1158 N 116.77 1.45427 -0.607355 0
M  V30 1159 C 117.7 2.3329 0.0989352 0
M  V30 1160 C 118.681 1.46816 0.859007 0
M  V30 1161 O 119.866 1.75588 0.829604 0
M  V30 1162 C 116.996 3.29518 1.09705 0
M  V30 1163 C 115.95 4.25626 0.450206 0
M  V30 1164 C 115.276 5.11542 1.55655 0
M  V30 1165 C 116.576 5.18505 -0.628455 0
M  V30 1166 H 118.27 2.92595 -0.634716 0
M  V30 1167 H 115.816 1.40696 -0.306681 0
M  V30 1168 H 117.769 3.89855 1.59971 0
M  V30 1169 H 116.493 2.68372 1.86129 0
M  V30 1170 H 115.152 3.66586 -0.0315886 0
M  V30 1171 H 114.8 4.46765 2.31107 0
M  V30 1172 H 114.5 5.76647 1.12925 0
M  V30 1173 H 116.024 5.74748 2.06148 0
M  V30 1174 H 117.438 5.72916 -0.209877 0
M  V30 1175 H 115.835 5.92085 -0.977489 0
M  V30 1176 H 116.905 4.60948 -1.50514 0
M  V30 1177 N 118.248 0.346503 1.53744 0
M  V30 1178 C 119.195 -0.508914 2.25119 0
M  V30 1179 C 120.165 -1.09315 1.25058 0
M  V30 1180 O 121.35 -1.12921 1.53797 0
M  V30 1181 C 118.49 -1.65246 3.02965 0
M  V30 1182 C 117.603 -1.09525 4.17886 0
M  V30 1183 C 116.738 -2.20634 4.83212 0
M  V30 1184 C 115.777 -1.62279 5.90196 0
M  V30 1185 N 114.914 -2.67143 6.49291 0
M  V30 1186 H 119.754 0.106283 2.9781 0
M  V30 1187 H 117.291 0.0642227 1.4696 0
M  V30 1188 H 119.249 -2.32574 3.4636 0
M  V30 1189 H 117.879 -2.2386 2.32565 0
M  V30 1190 H 116.931 -0.312818 3.79112 0
M  V30 1191 H 118.243 -0.628444 4.94825 0
M  V30 1192 H 117.397 -2.95821 5.29693 0
M  V30 1193 H 116.136 -2.70659 4.05703 0
M  V30 1194 H 115.141 -0.855989 5.43096 0
M  V30 1195 H 116.366 -1.13102 6.69615 0
M  V30 1196 H 114.312 -3.16417 5.74645 0
M  V30 1197 H 114.229 -2.25093 7.21713 0
M  V30 1198 H 115.497 -3.4209 7.00425 0
M  V30 1199 N 119.726 -1.57421 0.075193 0
M  V30 1200 C 120.972 -1.93905 -0.594025 0
M  V30 1201 C 121.305 -0.955701 -1.69056 0
M  V30 1202 O 120.58 0.0145373 -1.94495 0
M  V30 1203 C 120.863 -3.40638 -1.1678 0
M  V30 1204 C 120.716 -4.49733 -0.0776792 0
M  V30 1205 C 122.035 -3.88259 -2.07228 0
M  V30 1206 H 119.154 -0.705105 -0.214466 0
M  V30 1207 H 121.796 -1.8947 0.141854 0
M  V30 1208 H 119.946 -3.44549 -1.79494 0
M  V30 1209 H 121.618 -4.57942 0.555573 0
M  V30 1210 H 119.861 -4.29751 0.591286 0
M  V30 1211 H 120.532 -5.49549 -0.519603 0
M  V30 1212 H 123.008 -3.86376 -1.54445 0
M  V30 1213 H 121.884 -4.91533 -2.44308 0
M  V30 1214 H 122.145 -3.26396 -2.98191 0
M  V30 1215 N 121.204 0.198386 -1.56346 0
M  V30 1216 C 122.134 1.24865 -1.9731 0
M  V30 1217 C 123.115 1.47651 -0.844576 0
M  V30 1218 O 124.3 1.59444 -1.10866 0
M  V30 1219 C 121.43 2.59358 -2.30977 0
M  V30 1220 C 120.384 2.5119 -3.46537 0
M  V30 1221 C 119.71 3.89926 -3.65871 0
M  V30 1222 C 121.01 2.03977 -4.80823 0
M  V30 1223 H 122.704 0.908252 -2.85291 0
M  V30 1224 H 120.25 0.435462 -1.37258 0
M  V30 1225 H 122.203 3.33011 -2.58228 0
M  V30 1226 H 120.927 2.95132 -1.39874 0
M  V30 1227 H 119.586 1.79993 -3.19371 0
M  V30 1228 H 119.234 4.23046 -2.72105 0
M  V30 1229 H 118.934 3.85336 -4.4361 0
M  V30 1230 H 120.458 4.65205 -3.95495 0
M  V30 1231 H 121.872 2.67386 -5.07127 0
M  V30 1232 H 120.269 2.10397 -5.62008 0
M  V30 1233 H 121.339 0.992861 -4.74626 0
M  V30 1234 N 122.682 1.50554 0.465978 0
M  V30 1235 C 123.931 1.61038 1.21448 0
M  V30 1236 C 124.244 0.31865 1.92987 0
M  V30 1237 O 125.45 0.302469 2.6981 0
M  V30 1238 C 123.906 2.84283 2.20706 0
M  V30 1239 C 123.514 4.20352 1.54946 0
M  V30 1240 C 125.258 3.04115 2.96166 0
M  V30 1241 C 123.165 5.34778 2.5252 0
M  V30 1242 H 122.095 0.599718 0.457005 0
M  V30 1243 H 124.746 1.7699 0.484424 0
M  V30 1244 H 123.128 2.61901 2.97025 0
M  V30 1245 H 124.302 4.53008 0.843811 0
M  V30 1246 H 122.617 4.06167 0.917475 0
M  V30 1247 H 125.214 3.86774 3.69202 0
M  V30 1248 H 125.557 2.16045 3.55852 0
M  V30 1249 H 126.09 3.26702 2.26959 0
M  V30 1250 H 122.829 6.25018 1.97566 0
M  V30 1251 H 122.349 5.06534 3.21222 0
M  V30 1252 H 124.028 5.65561 3.14245 0
M  V30 1253 N 124.16 -0.719506 1.40217 0
M  V30 1254 C 125.385 -1.51371 1.4178 0
M  V30 1255 C 125.81 -1.88091 0.0182355 0
M  V30 1256 O 125.168 -1.52997 -0.972707 0
M  V30 1257 C 125.216 -2.768 2.31115 0
M  V30 1258 O 124.32 -3.73349 1.7517 0
M  V30 1259 H 123.661 -0.456529 0.482159 0
M  V30 1260 H 126.191 -0.88644 1.844 0
M  V30 1261 H 126.201 -3.25371 2.46167 0
M  V30 1262 H 124.876 -2.49407 3.3282 0
M  V30 1263 H 123.453 -3.32179 1.69444 0
M  V30 1264 N 125.638 -1.25649 -0.95132 0
M  V30 1265 C 126.885 -1.10594 -1.69633 0
M  V30 1266 C 127.213 0.352515 -1.91279 0
M  V30 1267 O 126.468 1.27601 -1.4838 0
M  V30 1268 C 126.767 -1.80909 -3.08231 0
M  V30 1269 C 126.433 -3.30825 -3.06375 0
M  V30 1270 C 125.095 -3.71722 -3.05576 0
M  V30 1271 C 127.447 -4.26589 -2.99452 0
M  V30 1272 C 124.775 -5.06788 -2.95606 0
M  V30 1273 C 127.127 -5.61683 -2.91024 0
M  V30 1274 C 125.791 -6.01904 -2.88562 0
M  V30 1275 H 125.061 -0.404691 -0.620731 0
M  V30 1276 H 127.708 -1.55964 -1.11119 0
M  V30 1277 H 126.013 -1.27979 -3.70309 0
M  V30 1278 H 127.71 -1.6671 -3.64704 0
M  V30 1279 H 124.3 -2.98287 -3.07771 0
M  V30 1280 H 128.484 -3.95982 -2.99185 0
M  V30 1281 H 123.74 -5.37126 -2.92071 0
M  V30 1282 H 127.914 -6.35578 -2.84629 0
M  V30 1283 H 125.541 -7.06521 -2.80593 0
M  V30 1284 N 127.117 1.15442 -1.07289 0
M  V30 1285 C 128.064 2.20161 -0.692653 0
M  V30 1286 C 129.034 1.63073 0.31564 0
M  V30 1287 O 130.219 1.89725 0.202235 0
M  V30 1288 C 127.359 3.44967 -0.0959509 0
M  V30 1289 C 126.472 4.16256 -1.15564 0
M  V30 1290 C 125.607 5.28609 -0.524011 0
M  V30 1291 C 124.646 5.91715 -1.56653 0
M  V30 1292 N 123.783 6.9554 -0.957531 0
M  V30 1293 H 128.623 2.52037 -1.59002 0
M  V30 1294 H 126.16 1.2378 -0.794798 0
M  V30 1295 H 128.118 4.16341 0.267628 0
M  V30 1296 H 126.748 3.1361 0.764772 0
M  V30 1297 H 125.8 3.43385 -1.6368 0
M  V30 1298 H 127.112 4.59268 -1.94613 0
M  V30 1299 H 126.266 6.06604 -0.108032 0
M  V30 1300 H 125.005 4.86787 0.29825 0
M  V30 1301 H 124.01 5.12433 -1.9923 0
M  V30 1302 H 125.235 6.35614 -2.39107 0
M  V30 1303 H 123.181 6.55814 -0.156162 0
M  V30 1304 H 123.098 7.36977 -1.68526 0
M  V30 1305 H 124.366 7.77435 -0.567032 0
M  V30 1306 N 128.595 0.856903 1.32268 0
M  V30 1307 C 129.558 0.308171 2.27119 0
M  V30 1308 C 130.558 -0.533421 1.51695 0
M  V30 1309 O 131.748 -0.344607 1.70757 0
M  V30 1310 C 128.88 -0.563757 3.36206 0
M  V30 1311 H 130.073 1.14535 2.77167 0
M  V30 1312 H 127.626 0.631421 1.42978 0
M  V30 1313 H 128.361 -1.42266 2.91429 0
M  V30 1314 H 128.146 0.0386749 3.92081 0
M  V30 1315 H 129.636 -0.940386 4.06874 0
M  V30 1316 N 130.073 -1.45103 0.615059 0
M  V30 1317 C 131.021 -2.32331 -0.111791 0
M  V30 1318 C 132.015 -1.46409 -0.852102 0
M  V30 1319 O 133.221 -1.62849 -0.766821 0
M  V30 1320 H 129.596 -0.749993 -0.0549072 0
M  V30 1321 H 131.567 -2.91407 0.642225 0
M  V30 1322 C 130.316 -3.3015 -1.09071 0
M  V30 1323 H 129.639 -3.96265 -0.530485 0
M  V30 1324 H 131.079 -3.93898 -1.56908 0
M  V30 1325 C 129.538 -2.57875 -2.168 0
M  V30 1326 O 130.068 -2.36567 -3.24652 0
M  V30 1327 N 128.274 -2.17884 -1.92289 0
M  V30 1328 H 127.821 -2.35413 -1.04587 0
M  V30 1329 H 127.779 -1.6985 -2.64572 0
M  V30 1330 N 131.551 -0.354651 -1.53558 0
M  V30 1331 C 132.828 0.294281 -1.93374 0
M  V30 1332 C 133.208 1.67313 -1.28723 0
M  V30 1333 O 132.556 2.24179 -0.442247 0
M  V30 1334 C 132.766 0.355445 -3.47185 0
M  V30 1335 C 134.114 0.601007 -4.20325 0
M  V30 1336 O 135.138 0.437106 -3.53508 0
M  V30 1337 O 133.997 0.919322 -5.38712 0
M  V30 1338 H 131.091 0.174033 -0.808481 0
M  V30 1339 H 133.637 -0.406638 -1.64756 0
M  V30 1340 H 132.409 -0.611729 -3.86489 0
M  V30 1341 H 132.032 1.1027 -3.82003 0
M  V30 1342 N 133.029 1.57378 -0.0835403 0
M  V30 1343 C 134.278 1.93106 0.582498 0
M  V30 1344 C 134.591 0.96651 1.70053 0
M  V30 1345 O 135.797 1.21705 2.42693 0
M  V30 1346 C 134.253 3.43076 1.08751 0
M  V30 1347 C 133.861 4.48 -0.000146404 0
M  V30 1348 C 135.605 3.87785 1.72694 0
M  V30 1349 C 133.512 5.89113 0.519568 0
M  V30 1350 H 132.442 0.720775 0.221358 0
M  V30 1351 H 135.093 1.82821 -0.157675 0
M  V30 1352 H 133.475 3.48474 1.88101 0
M  V30 1353 H 134.649 4.54233 -0.775199 0
M  V30 1354 H 132.964 4.1283 -0.54406 0
M  V30 1355 H 135.561 4.90604 2.1263 0
M  V30 1356 H 135.904 3.25796 2.59158 0
M  V30 1357 H 136.437 3.8504 0.999457 0
M  V30 1358 H 133.176 6.54775 -0.308186 0
M  V30 1359 H 132.696 5.86376 1.26188 0
M  V30 1360 H 134.375 6.39346 0.992237 0
M  V30 1361 N 134.507 -0.190092 1.56449 0
M  V30 1362 C 135.417 -1.25591 1.98152 0
M  V30 1363 C 136.433 -1.49519 0.889944 0
M  V30 1364 O 137.609 -1.62036 1.19609 0
M  V30 1365 C 134.674 -2.57916 2.3169 0
M  V30 1366 C 133.735 -2.42015 3.5458 0
M  V30 1367 C 132.968 -3.6803 3.8651 0
M  V30 1368 O 133.191 -4.72413 3.1966 0
M  V30 1369 O 132.125 -3.6326 4.79923 0
M  V30 1370 H 135.951 -0.931988 2.89046 0
M  V30 1371 H 133.536 -0.395488 1.4407 0
M  V30 1372 H 135.418 -3.36008 2.54316 0
M  V30 1373 H 134.093 -2.89925 1.43963 0
M  V30 1374 H 133 -1.62017 3.37196 0
M  V30 1375 H 134.333 -2.14937 4.4279 0
M  V30 1376 N 135.985 -1.50799 -0.457987 0
M  V30 1377 C 136.932 -1.70617 -1.5543 0
M  V30 1378 C 137.902 -0.547562 -1.56815 0
M  V30 1379 O 139.087 -0.779647 -1.74144 0
M  V30 1380 C 136.227 -1.81831 -2.93311 0
M  V30 1381 C 135.34 -3.09278 -3.01615 0
M  V30 1382 C 134.475 -3.11209 -4.30491 0
M  V30 1383 C 133.514 -4.33055 -4.32585 0
M  V30 1384 N 132.651 -4.32652 -5.52952 0
M  V30 1385 H 137.491 -2.64207 -1.37836 0
M  V30 1386 H 135.028 -1.30959 -0.669937 0
M  V30 1387 H 136.986 -1.86314 -3.73287 0
M  V30 1388 H 135.616 -0.916685 -3.0951 0
M  V30 1389 H 134.668 -3.14203 -2.1443 0
M  V30 1390 H 135.98 -3.99233 -2.99022 0
M  V30 1391 H 135.134 -3.14494 -5.18824 0
M  V30 1392 H 133.873 -2.19106 -4.35711 0
M  V30 1393 H 132.878 -4.29969 -3.42647 0
M  V30 1394 H 134.103 -5.264 -4.29046 0
M  V30 1395 H 132.049 -3.43409 -5.58933 0
M  V30 1396 H 131.966 -5.16392 -5.52155 0
M  V30 1397 H 133.234 -4.40101 -6.43375 0
M  V30 1398 N 137.463 0.71206 -1.40597 0
M  V30 1399 C 138.426 1.80785 -1.40888 0
M  V30 1400 C 139.426 1.57937 -0.302103 0
M  V30 1401 O 140.616 1.64913 -0.561182 0
M  V30 1402 C 137.748 3.18927 -1.20409 0
M  V30 1403 H 138.941 1.81924 -2.38419 0
M  V30 1404 H 136.494 0.91805 -1.26497 0
M  V30 1405 H 137.229 3.23436 -0.236522 0
M  V30 1406 H 137.014 3.36911 -2.00582 0
M  V30 1407 H 138.504 3.98949 -1.23408 0
M  V30 1408 N 138.941 1.26152 0.944643 0
M  V30 1409 C 140.187 1.11657 1.69294 0
M  V30 1410 C 140.52 -0.339926 1.91202 0
M  V30 1411 O 139.795 -1.24994 1.49019 0
M  V30 1412 C 140.078 1.88236 3.06984 0
M  V30 1413 C 139.931 3.41772 2.92424 0
M  V30 1414 C 141.25 1.67343 4.07043 0
M  V30 1415 H 138.369 0.407004 0.614424 0
M  V30 1416 H 141.011 1.55106 1.09737 0
M  V30 1417 H 139.161 1.51308 3.57824 0
M  V30 1418 H 140.833 3.88433 2.48832 0
M  V30 1419 H 139.076 3.68974 2.28124 0
M  V30 1420 H 139.747 3.90579 3.90067 0
M  V30 1421 H 142.223 1.99509 3.65151 0
M  V30 1422 H 141.099 2.23346 5.01406 0
M  V30 1423 H 141.36 0.617158 4.37771 0
M  V30 1424 N 140.419 -1.14872 1.07899 0
M  V30 1425 C 141.351 -2.19425 0.662231 0
M  V30 1426 C 142.364 -1.60231 -0.288079 0
M  V30 1427 O 143.553 -1.78336 -0.076534 0
M  V30 1428 C 140.653 -3.38867 -0.0470695 0
M  V30 1429 C 139.826 -4.27597 0.920831 0
M  V30 1430 C 138.885 -5.25616 0.247805 0
M  V30 1431 O 137.911 -5.62189 0.890599 0
M  V30 1432 N 139.113 -5.71746 -1.00435 0
M  V30 1433 H 141.878 -2.55797 1.56166 0
M  V30 1434 H 139.439 -1.30042 0.964404 0
M  V30 1435 H 141.431 -4.01497 -0.50813 0
M  V30 1436 H 140.001 -3.00864 -0.848523 0
M  V30 1437 H 139.221 -3.61982 1.56087 0
M  V30 1438 H 140.509 -4.83748 1.57688 0
M  V30 1439 H 139.907 -5.44153 -1.54642 0
M  V30 1440 H 138.464 -6.36389 -1.40899 0
M  V30 1441 N 141.898 -0.863906 -1.31812 0
M  V30 1442 C 143.123 -0.48527 -2.01643 0
M  V30 1443 C 143.548 0.913058 -1.64453 0
M  V30 1444 O 142.906 1.6014 -0.849985 0
M  V30 1445 C 142.954 -0.642625 -3.54828 0
M  V30 1446 O 142.058 0.320659 -4.11151 0
M  V30 1447 H 141.399 -0.193793 -0.635091 0
M  V30 1448 H 143.929 -1.16565 -1.68148 0
M  V30 1449 H 143.939 -0.533628 -4.04495 0
M  V30 1450 H 142.614 -1.66227 -3.81237 0
M  V30 1451 H 141.191 0.167126 -3.72525 0
M  V30 1452 N 143.376 1.44774 -0.622745 0
M  V30 1453 C 144.306 2.33382 0.0741861 0
M  V30 1454 C 145.287 1.47719 0.843387 0
M  V30 1455 O 146.472 1.76458 0.810934 0
M  V30 1456 C 143.602 3.30663 1.06204 0
M  V30 1457 C 142.556 4.26079 0.405037 0
M  V30 1458 C 141.882 5.13165 1.5022 0
M  V30 1459 C 143.182 5.1781 -0.683414 0
M  V30 1460 H 144.876 2.91905 -0.665713 0
M  V30 1461 H 142.422 1.40363 -0.321587 0
M  V30 1462 H 144.375 3.9153 1.55827 0
M  V30 1463 H 143.099 2.70331 1.83272 0
M  V30 1464 H 141.758 3.66532 -0.0704683 0
M  V30 1465 H 141.406 4.49191 2.26355 0
M  V30 1466 H 141.106 5.77812 1.06803 0
M  V30 1467 H 142.63 5.76902 2.00041 0
M  V30 1468 H 144.044 5.72661 -0.270631 0
M  V30 1469 H 142.441 5.91015 -1.04023 0
M  V30 1470 H 143.511 4.59326 -1.55395 0
M  V30 1471 N 144.854 0.36279 1.53368 0
M  V30 1472 C 146.131 -0.284021 1.93527 0
M  V30 1473 C 146.511 -1.66628 1.29608 0
M  V30 1474 O 145.859 -2.23942 0.45413 0
M  V30 1475 C 146.069 -0.337028 3.47369 0
M  V30 1476 C 147.417 -0.578708 4.20638 0
M  V30 1477 O 148.441 -0.418352 3.53735 0
M  V30 1478 O 147.3 -0.89074 5.39192 0
M  V30 1479 H 144.394 -0.169743 0.809393 0
M  V30 1480 H 146.94 0.41537 1.64538 0
M  V30 1481 H 145.712 0.632217 3.86159 0
M  V30 1482 H 145.335 -1.08243 3.82582 0
M  V30 1483 N 146.332 -1.57332 0.0918853 0
M  V30 1484 C 147.279 -2.13847 -0.868211 0
M  V30 1485 C 148.249 -1.05618 -1.28196 0
M  V30 1486 O 149.434 -1.33387 -1.36427 0
M  V30 1487 C 146.574 -2.72062 -2.12312 0
M  V30 1488 C 145.687 -3.94514 -1.7602 0
M  V30 1489 C 144.822 -4.40903 -2.96273 0
M  V30 1490 C 143.861 -5.55953 -2.56092 0
M  V30 1491 N 142.998 -5.97209 -3.69169 0
M  V30 1492 H 147.838 -2.95575 -0.379406 0
M  V30 1493 H 145.375 -1.46048 -0.175606 0
M  V30 1494 H 147.333 -3.03931 -2.858 0
M  V30 1495 H 145.963 -1.93068 -2.58698 0
M  V30 1496 H 145.015 -3.68979 -0.925135 0
M  V30 1497 H 146.327 -4.7802 -1.42472 0
M  V30 1498 H 145.481 -4.74539 -3.78018 0
M  V30 1499 H 144.22 -3.56291 -3.33029 0
M  V30 1500 H 143.225 -5.21948 -1.72773 0
M  V30 1501 H 144.45 -6.42311 -2.20484 0
M  V30 1502 H 142.396 -5.15543 -4.05649 0
M  V30 1503 H 142.313 -6.75504 -3.39456 0
M  V30 1504 H 143.581 -6.35475 -4.51434 0
M  V30 1505 N 147.81 0.181792 -1.56548 0
M  V30 1506 C 148.758 1.24461 -1.965 0
M  V30 1507 C 149.752 1.464 -0.852261 0
M  V30 1508 O 150.958 1.47103 -1.03733 0
M  V30 1509 H 147.333 0.418138 -0.625031 0
M  V30 1510 H 149.304 0.880714 -2.85107 0
M  V30 1511 C 148.053 2.57891 -2.33212 0
M  V30 1512 H 147.376 2.41829 -3.18369 0
M  V30 1513 H 148.816 3.3097 -2.65019 0
M  V30 1514 C 147.275 3.15871 -1.17163 0
M  V30 1515 O 147.805 3.9913 -0.453708 0
M  V30 1516 N 146.011 2.74808 -0.944936 0
M  V30 1517 H 145.558 2.07205 -1.53049 0
M  V30 1518 H 145.516 3.13939 -0.170286 0
M  V30 1519 N 149.288 1.51039 0.449983 0
M  V30 1520 C 150.536 1.62759 1.19808 0
M  V30 1521 C 150.857 0.339981 1.92013 0
M  V30 1522 O 150.127 -0.643606 1.85026 0
M  V30 1523 H 148.707 0.599811 0.445237 0
M  V30 1524 H 151.369 1.87914 0.517138 0
M  V30 1525 H 150.465 2.44911 1.93455 0
M  V30 1526 N 150.766 -0.704594 1.40972 0
M  V30 1527 C 152.012 -1.46675 1.40051 0
M  V30 1528 C 152.345 -1.94199 0.00641102 0
M  V30 1529 O 151.62 -1.68916 -0.964235 0
M  V30 1530 C 151.903 -2.68505 2.39952 0
M  V30 1531 C 151.756 -2.26805 3.88432 0
M  V30 1532 C 153.075 -3.70686 2.37233 0
M  V30 1533 H 150.194 -0.532015 0.510028 0
M  V30 1534 H 152.836 -0.803255 1.72185 0
M  V30 1535 H 150.986 -3.25114 2.1268 0
M  V30 1536 H 152.658 -1.75592 4.26574 0
M  V30 1537 H 150.901 -1.58685 4.03734 0
M  V30 1538 H 151.572 -3.14181 4.53866 0
M  V30 1539 H 154.048 -3.23731 2.61415 0
M  V30 1540 H 152.924 -4.53553 3.09162 0
M  V30 1541 H 153.185 -4.19754 1.38777 0
M  V30 1542 N 152.244 -1.26651 -0.937939 0
M  V30 1543 C 153.521 -1.0313 -1.66204 0
M  V30 1544 C 153.901 0.437256 -2.06522 0
M  V30 1545 O 153.249 1.41831 -1.79154 0
M  V30 1546 C 153.459 -1.98314 -2.87181 0
M  V30 1547 C 154.807 -2.27107 -3.58758 0
M  V30 1548 O 155.831 -1.96205 -2.97291 0
M  V30 1549 O 154.69 -2.79736 -4.69479 0
M  V30 1550 H 151.784 -0.392384 -0.727986 0
M  V30 1551 H 154.33 -1.37874 -0.989382 0
M  V30 1552 H 153.102 -2.97399 -2.54302 0
M  V30 1553 H 152.725 -1.64068 -3.6217 0
M  V30 1554 N 153.722 1.14298 -1.08507 0
M  V30 1555 C 154.652 2.21542 -0.737646 0
M  V30 1556 C 155.633 1.67773 0.280377 0
M  V30 1557 O 156.818 1.93616 0.150521 0
M  V30 1558 C 153.948 3.46988 -0.147259 0
M  V30 1559 C 152.902 4.13789 -1.09374 0
M  V30 1560 C 152.228 5.33449 -0.365524 0
M  V30 1561 C 153.528 4.62208 -2.4323 0
M  V30 1562 H 155.222 2.5086 -1.6343 0
M  V30 1563 H 152.768 1.20576 -0.787243 0
M  V30 1564 H 154.721 4.21262 0.107808 0
M  V30 1565 H 153.445 3.17037 0.784538 0
M  V30 1566 H 152.104 3.4147 -1.33393 0
M  V30 1567 H 151.752 4.99759 0.57011 0
M  V30 1568 H 151.452 5.79088 -0.996512 0
M  V30 1569 H 152.976 6.10485 -0.118534 0
M  V30 1570 H 154.39 5.27952 -2.23472 0
M  V30 1571 H 152.787 5.18553 -3.02031 0
M  V30 1572 H 153.857 3.77224 -3.04681 0
M  V30 1573 N 155.201 0.870884 1.31352 0
M  V30 1574 C 156.131 0.343096 2.30966 0
M  V30 1575 C 157.112 -0.566507 1.60389 0
M  V30 1576 O 158.297 -0.483336 1.88089 0
M  V30 1577 C 155.427 -0.455487 3.443 0
M  V30 1578 C 154.381 0.361103 4.26474 0
M  V30 1579 C 153.707 -0.563221 5.31725 0
M  V30 1580 C 155.007 1.59566 4.97329 0
M  V30 1581 H 156.701 1.17548 2.75359 0
M  V30 1582 H 154.247 0.566686 1.32381 0
M  V30 1583 H 156.2 -0.83525 4.13039 0
M  V30 1584 H 154.924 -1.32139 2.98675 0
M  V30 1585 H 153.583 0.722825 3.59403 0
M  V30 1586 H 153.231 -1.42643 4.82351 0
M  V30 1587 H 152.931 -0.0207409 5.87596 0
M  V30 1588 H 154.455 -0.939808 6.03324 0
M  V30 1589 H 155.869 1.28728 5.58661 0
M  V30 1590 H 154.266 2.07728 5.63 0
M  V30 1591 H 155.336 2.34798 4.24262 0
M  V30 1592 N 156.679 -1.44442 0.630414 0
M  V30 1593 C 157.612 -2.27862 -0.124247 0
M  V30 1594 C 158.59 -1.38495 -0.851931 0
M  V30 1595 O 159.774 -1.67935 -0.856166 0
M  V30 1596 C 156.901 -3.17407 -1.18197 0
M  V30 1597 C 155.947 -4.22875 -0.554892 0
M  V30 1598 S 156.78 -5.31485 0.654489 0
M  V30 1599 C 157.936 -6.246 -0.40326 0
M  V30 1600 H 158.169 -2.91519 0.583435 0
M  V30 1601 H 155.702 -1.48618 0.418565 0
M  V30 1602 H 157.66 -3.69549 -1.78728 0
M  V30 1603 H 156.321 -2.52971 -1.86184 0
M  V30 1604 H 155.514 -4.85542 -1.35148 0
M  V30 1605 H 155.116 -3.73992 -0.0242105 0
M  V30 1606 H 157.408 -6.65375 -1.27602 0
M  V30 1607 H 158.351 -7.07851 0.187813 0
M  V30 1608 H 158.759 -5.59775 -0.728837 0
M  V30 1609 N 158.157 -0.370918 -1.53173 0
M  V30 1610 C 159.104 0.473035 -2.259 0
M  V30 1611 C 160.074 1.07311 -1.26781 0
M  V30 1612 O 161.259 1.1046 -1.55574 0
M  V30 1613 C 158.399 1.60405 -3.05556 0
M  V30 1614 C 157.512 1.02863 -4.19575 0
M  V30 1615 C 156.647 2.12918 -4.86661 0
M  V30 1616 C 155.686 1.52869 -5.92704 0
M  V30 1617 N 154.823 2.56779 -6.53459 0
M  V30 1618 H 159.663 -0.153649 -2.97604 0
M  V30 1619 H 157.2 -0.0875946 -1.46839 0
M  V30 1620 H 159.158 2.27034 -3.50016 0
M  V30 1621 H 157.788 2.20131 -2.36097 0
M  V30 1622 H 156.84 0.252465 -3.79561 0
M  V30 1623 H 158.152 0.549642 -4.95762 0
M  V30 1624 H 157.306 2.87356 -5.34333 0
M  V30 1625 H 156.045 2.6417 -4.09958 0
M  V30 1626 H 155.05 0.769479 -5.44389 0
M  V30 1627 H 156.275 1.02435 -6.7133 0
M  V30 1628 H 154.221 3.07235 -5.79606 0
M  V30 1629 H 154.138 2.13583 -7.25202 0
M  V30 1630 H 155.406 3.30903 -7.05779 0
M  V30 1631 N 159.635 1.57281 -0.100228 0
M  V30 1632 C 160.865 1.98591 0.569681 0
M  V30 1633 C 161.273 0.978315 1.61943 0
M  V30 1634 O 160.616 -0.0396108 1.83657 0
M  V30 1635 C 160.678 3.36282 1.271 0
M  V30 1636 C 160.342 4.55488 0.371409 0
M  V30 1637 C 161.339 5.18491 -0.382504 0
M  V30 1638 C 159.024 5.01474 0.287965 0
M  V30 1639 C 161.018 6.25852 -1.20779 0
M  V30 1640 C 158.705 6.08701 -0.540965 0
M  V30 1641 C 159.703 6.70755 -1.28749 0
M  V30 1642 O 159.391 7.75914 -2.10269 0
M  V30 1643 H 159.123 0.65752 0.156982 0
M  V30 1644 H 161.677 2.0463 -0.177734 0
M  V30 1645 H 159.907 3.26941 2.0651 0
M  V30 1646 H 161.596 3.62005 1.83595 0
M  V30 1647 H 162.362 4.83891 -0.3278 0
M  V30 1648 H 158.241 4.52932 0.858689 0
M  V30 1649 H 161.785 6.74218 -1.79096 0
M  V30 1650 H 157.682 6.42732 -0.597131 0
M  V30 1651 H 158.45 7.92925 -2.03007 0
M  V30 1652 N 161.113 -0.173488 1.56642 0
M  V30 1653 C 162.362 -0.888758 1.81063 0
M  V30 1654 C 162.675 -1.83506 0.67712 0
M  V30 1655 O 163.881 -2.59254 0.806206 0
M  V30 1656 C 162.337 -1.63091 3.20826 0
M  V30 1657 C 161.945 -0.728357 4.4204 0
M  V30 1658 C 163.689 -2.33454 3.54541 0
M  V30 1659 C 161.596 -1.47062 5.72823 0
M  V30 1660 H 160.526 -0.335618 0.675186 0
M  V30 1661 H 163.177 -0.141712 1.82952 0
M  V30 1662 H 161.559 -2.42263 3.13248 0
M  V30 1663 H 162.733 0.0262449 4.60793 0
M  V30 1664 H 161.048 -0.134492 4.16183 0
M  V30 1665 H 163.645 -2.89578 4.49498 0
M  V30 1666 H 163.988 -3.08687 2.79317 0
M  V30 1667 H 164.521 -1.61227 3.63663 0
M  V30 1668 H 161.26 -0.760658 6.51072 0
M  V30 1669 H 160.78 -2.1986 5.58052 0
M  V30 1670 H 162.459 -2.01868 6.14702 0
M  V30 1671 N 162.591 -1.51276 -0.441967 0
M  V30 1672 C 163.821 -1.67273 -1.21257 0
M  V30 1673 C 164.229 -0.367624 -1.85594 0
M  V30 1674 O 163.572 0.663349 -1.71305 0
M  V30 1675 C 163.634 -2.72807 -2.34129 0
M  V30 1676 C 163.298 -4.1554 -1.90198 0
M  V30 1677 C 164.295 -5.00471 -1.40801 0
M  V30 1678 C 161.98 -4.61616 -1.9803 0
M  V30 1679 C 163.974 -6.29536 -0.998174 0
M  V30 1680 C 161.661 -5.90679 -1.56658 0
M  V30 1681 C 162.659 -6.74466 -1.07633 0
M  V30 1682 O 162.347 -8.01116 -0.668459 0
M  V30 1683 H 162.079 -0.564614 -0.371734 0
M  V30 1684 H 164.633 -1.9843 -0.530521 0
M  V30 1685 H 162.863 -2.36954 -3.05597 0
M  V30 1686 H 164.552 -2.77729 -2.96009 0
M  V30 1687 H 165.318 -4.66079 -1.34148 0
M  V30 1688 H 161.197 -3.96526 -2.35135 0
M  V30 1689 H 164.741 -6.94885 -0.61482 0
M  V30 1690 H 160.638 -6.24586 -1.62979 0
M  V30 1691 H 161.406 -8.14633 -0.794722 0
M  V30 1692 N 164.069 0.697108 -1.41344 0
M  V30 1693 C 165.016 1.81106 -1.43071 0
M  V30 1694 C 165.986 1.63632 -0.285275 0
M  V30 1695 O 167.171 1.84504 -0.486091 0
M  V30 1696 C 164.311 3.18975 -1.31715 0
M  V30 1697 C 163.424 3.47892 -2.56115 0
M  V30 1698 C 162.559 4.75367 -2.37064 0
M  V30 1699 C 161.598 4.97247 -3.56948 0
M  V30 1700 N 160.735 6.15947 -3.36977 0
M  V30 1701 H 165.575 1.78965 -2.38276 0
M  V30 1702 H 163.112 0.873975 -1.18322 0
M  V30 1703 H 165.07 3.98615 -1.23133 0
M  V30 1704 H 163.7 3.20297 -0.401183 0
M  V30 1705 H 162.752 2.62669 -2.75153 0
M  V30 1706 H 164.064 3.59962 -3.45295 0
M  V30 1707 H 163.218 5.63059 -2.25941 0
M  V30 1708 H 161.957 4.65541 -1.45338 0
M  V30 1709 H 160.962 4.08004 -3.68527 0
M  V30 1710 H 162.187 5.08934 -4.49626 0
M  V30 1711 H 160.133 6.07336 -2.47949 0
M  V30 1712 H 160.05 6.28777 -4.19732 0
M  V30 1713 H 161.318 7.06377 -3.29623 0
M  V30 1714 N 165.547 1.27147 0.931209 0
M  V30 1715 C 166.795 1.13055 1.6752 0
M  V30 1716 C 167.116 -0.324791 1.92276 0
M  V30 1717 O 166.386 -1.22775 1.52654 0
M  V30 1718 H 164.966 0.415391 0.620854 0
M  V30 1719 H 167.628 1.59623 1.11833 0
M  V30 1720 H 166.724 1.65694 2.64485 0
M  V30 1721 N 167.025 -1.13721 1.09112 0
M  V30 1722 C 168.272 -1.84924 0.825192 0
M  V30 1723 C 168.6 -1.83347 -0.649151 0
M  V30 1724 O 167.855 -1.26449 -1.49362 0
M  V30 1725 C 168.154 -3.32861 1.30146 0
M  V30 1726 C 167.82 -3.54621 2.78486 0
M  V30 1727 C 166.482 -3.60268 3.18999 0
M  V30 1728 C 168.834 -3.62855 3.74146 0
M  V30 1729 C 166.162 -3.71679 4.53951 0
M  V30 1730 C 168.514 -3.75793 5.08883 0
M  V30 1731 C 167.178 -3.79692 5.4899 0
M  V30 1732 H 166.448 -0.676684 0.301959 0
M  V30 1733 H 169.095 -1.3428 1.36533 0
M  V30 1734 H 167.4 -3.85835 0.681064 0
M  V30 1735 H 169.097 -3.86395 1.07236 0
M  V30 1736 H 165.687 -3.50879 2.46134 0
M  V30 1737 H 169.871 -3.57775 3.43963 0
M  V30 1738 H 165.127 -3.72963 4.84467 0
M  V30 1739 H 169.301 -3.81107 5.82864 0
M  V30 1740 H 166.928 -3.88287 6.53558 0
M  V30 1741 N 168.503 -0.877838 -1.30888 0
M  V30 1742 C 169.413 -0.343096 -2.32078 0
M  V30 1743 C 170.429 0.551022 -1.65045 0
M  V30 1744 O 171.605 0.445854 -1.96403 0
M  V30 1745 C 168.67 0.439905 -3.43898 0
M  V30 1746 C 167.731 -0.483111 -4.26573 0
M  V30 1747 C 166.964 0.262616 -5.33053 0
M  V30 1748 O 167.187 1.48967 -5.50604 0
M  V30 1749 O 166.121 -0.383593 -6.00676 0
M  V30 1750 H 169.947 -1.18203 -2.79753 0
M  V30 1751 H 167.532 -0.64145 -1.34929 0
M  V30 1752 H 169.414 0.883504 -4.12034 0
M  V30 1753 H 168.089 1.25526 -2.98371 0
M  V30 1754 H 166.996 -0.975374 -3.61161 0
M  V30 1755 H 168.329 -1.26427 -4.75686 0
M  V30 1756 N 169.982 1.44106 -0.638065 0
M  V30 1757 C 171.207 2.0685 -0.150916 0
M  V30 1758 C 171.632 1.47417 1.16833 0
M  V30 1759 O 170.99 0.578264 1.71831 0
M  V30 1760 C 171.038 3.60555 -0.05708 0
M  V30 1761 O 170.142 4.00465 0.984972 0
M  V30 1762 H 169.483 0.658151 -0.0879399 0
M  V30 1763 H 172.013 1.84865 -0.876707 0
M  V30 1764 H 172.023 4.07789 0.131232 0
M  V30 1765 H 170.698 4.03193 -1.02021 0
M  V30 1766 H 169.275 3.64849 0.770672 0
M  V30 1767 N 171.46 0.379036 1.52974 0
M  V30 1768 C 172.871 -0.0972525 1.86447 0
M  V30 1769 C 173.222 -1.47027 1.29914 0
M  V30 1770 O 172.347 -2.07135 0.626433 0
M  V30 1771 C 172.942 -0.183248 3.38304 0
M  V30 1772 C 171.501 -0.603812 3.71525 0
M  V30 1773 C 170.648 0.240632 2.76254 0
M  V30 1774 H 173.599 0.597316 1.4703 0
M  V30 1775 H 173.62 -1.00432 3.67006 0
M  V30 1776 H 173.132 0.816191 3.79421 0
M  V30 1777 H 171.233 -1.61099 3.35973 0
M  V30 1778 H 171.346 -0.369086 4.77676 0
M  V30 1779 H 169.71 -0.292548 2.53014 0
M  V30 1780 H 170.493 1.23786 3.20206 0
M  V30 1781 N 172.938 -1.57226 0.108567 0
M  V30 1782 C 174.163 -1.99604 -0.563303 0
M  V30 1783 C 174.588 -0.987563 -1.6009 0
M  V30 1784 O 173.946 0.0421687 -1.81251 0
M  V30 1785 C 173.994 -3.40902 -1.17552 0
M  V30 1786 O 173.098 -3.42896 -2.2912 0
M  V30 1787 H 172.439 -0.648704 -0.1417 0
M  V30 1788 H 174.969 -2.03679 0.193961 0
M  V30 1789 H 174.979 -3.78886 -1.51357 0
M  V30 1790 H 173.654 -4.1382 -0.415445 0
M  V30 1791 H 172.231 -3.1672 -1.96832 0
M  V30 1792 N 174.416 0.165178 -1.56732 0
M  V30 1793 C 175.693 0.908443 -1.73224 0
M  V30 1794 C 176.073 2.0013 -0.67165 0
M  V30 1795 O 175.421 2.26353 0.31253 0
M  V30 1796 C 175.631 1.46756 -3.16644 0
M  V30 1797 C 176.979 1.93809 -3.77787 0
M  V30 1798 O 178.003 1.56537 -3.1996 0
M  V30 1799 O 176.862 2.62486 -4.79336 0
M  V30 1800 H 173.956 0.428025 -0.707618 0
M  V30 1801 H 176.502 0.152526 -1.69013 0
M  V30 1802 H 175.274 0.68129 -3.85323 0
M  V30 1803 H 174.897 2.28749 -3.25207 0
M  V30 1804 N 175.894 1.51508 0.433938 0
M  V30 1805 C 176.842 1.73646 1.54757 0
M  V30 1806 C 177.836 0.602854 1.5831 0
M  V30 1807 O 179.042 0.784318 1.62014 0
M  V30 1808 H 175.417 0.548718 0.51421 0
M  V30 1809 H 177.388 2.66991 1.33261 0
M  V30 1810 C 176.137 1.88172 2.92381 0
M  V30 1811 H 175.46 2.74808 2.90381 0
M  V30 1812 H 176.9 2.07672 3.6966 0
M  V30 1813 C 175.359 0.64239 3.30719 0
M  V30 1814 O 175.889 -0.201362 4.01195 0
M  V30 1815 N 174.095 0.485489 2.86516 0
M  V30 1816 H 173.642 1.17318 2.29334 0
M  V30 1817 H 173.6 -0.342482 3.12529 0
M  V30 1818 N 177.372 -0.689602 1.41712 0
M  V30 1819 C 178.597 -1.48329 1.44959 0
M  V30 1820 C 179.022 -1.8801 0.0581283 0
M  V30 1821 O 178.38 -1.55026 -0.940035 0
M  V30 1822 C 178.428 -2.71835 2.36935 0
M  V30 1823 O 177.532 -3.69549 1.8305 0
M  V30 1824 H 176.873 -0.446199 0.491734 0
M  V30 1825 H 179.403 -0.847127 1.86239 0
M  V30 1826 H 179.413 -3.20076 2.53013 0
M  V30 1827 H 178.088 -2.42291 3.38035 0
M  V30 1828 H 176.665 -3.2851 1.76452 0
M  V30 1829 N 178.85 -1.27639 -0.924453 0
M  V30 1830 C 180.075 -1.17101 -1.71179 0
M  V30 1831 C 180.5 0.268134 -1.86179 0
M  V30 1832 O 179.858 1.19415 -1.36418 0
M  V30 1833 C 179.906 -1.86313 -3.08739 0
M  V30 1834 O 179.01 -1.16331 -3.95652 0
M  V30 1835 H 178.351 -0.407091 -0.524569 0
M  V30 1836 H 180.881 -1.68767 -1.15666 0
M  V30 1837 H 180.891 -1.938 -3.59034 0
M  V30 1838 H 179.566 -2.91001 -2.97138 0
M  V30 1839 H 178.143 -1.16935 -3.54091 0
M  V30 1840 N 180.328 1.1314 -1.09713 0
M  V30 1841 C 181.291 2.16831 -0.742751 0
M  V30 1842 C 182.291 1.59159 0.229129 0
M  V30 1843 O 183.481 1.74199 0.00693237 0
M  V30 1844 C 180.613 3.40756 -0.0989168 0
M  V30 1845 H 181.806 2.49695 -1.66109 0
M  V30 1846 H 179.359 1.2802 -0.896699 0
M  V30 1847 H 180.094 3.13485 0.830514 0
M  V30 1848 H 179.879 3.83888 -0.798265 0
M  V30 1849 H 181.369 4.17386 0.133524 0
M  V30 1850 N 181.806 0.884767 1.30421 0
M  V30 1851 C 182.739 0.295999 2.26272 0
M  V30 1852 C 183.717 -0.58332 1.51777 0
M  V30 1853 O 184.901 -0.53346 1.80794 0
M  V30 1854 C 182.028 -0.57944 3.33707 0
M  V30 1855 C 181.074 0.230525 4.25877 0
M  V30 1856 S 181.907 1.61867 5.1045 0
M  V30 1857 C 183.063 0.749756 6.21393 0
M  V30 1858 H 183.296 1.10848 2.75862 0
M  V30 1859 H 180.829 0.684178 1.38414 0
M  V30 1860 H 182.787 -1.07879 3.96071 0
M  V30 1861 H 181.448 -1.36601 2.82841 0
M  V30 1862 H 180.641 -0.437542 5.02097 0
M  V30 1863 H 180.243 0.662493 3.68086 0
M  V30 1864 H 182.535 -0.0333547 6.77492 0
M  V30 1865 H 183.478 1.48356 6.92384 0
M  V30 1866 H 183.886 0.310751 5.63644 0
M  V30 1867 N 183.284 -1.43765 0.645699 0
M  V30 1868 C 184.214 -2.33471 -0.0370477 0
M  V30 1869 C 185.195 -1.49042 -0.819779 0
M  V30 1870 O 186.38 -1.77726 -0.782758 0
M  V30 1871 C 183.51 -3.32311 -1.0093 0
M  V30 1872 C 182.464 -4.2667 -0.337201 0
M  V30 1873 C 181.79 -5.1549 -1.42037 0
M  V30 1874 C 183.09 -5.16657 0.765706 0
M  V30 1875 H 184.784 -2.90809 0.712069 0
M  V30 1876 H 182.33 -1.39834 0.343876 0
M  V30 1877 H 184.283 -3.9396 -1.49578 0
M  V30 1878 H 183.007 -2.73213 -1.78948 0
M  V30 1879 H 181.666 -3.66374 0.128771 0
M  V30 1880 H 181.314 -4.52735 -2.1918 0
M  V30 1881 H 181.014 -5.79438 -0.975966 0
M  V30 1882 H 182.538 -5.80012 -1.90838 0
M  V30 1883 H 183.952 -5.72158 0.361702 0
M  V30 1884 H 182.349 -5.89286 1.13413 0
M  V30 1885 H 183.419 -4.56796 1.62683 0
M  V30 1886 N 184.763 -0.387143 -1.52771 0
M  V30 1887 C 185.693 0.440551 -2.29306 0
M  V30 1888 C 186.674 1.06535 -1.32606 0
M  V30 1889 O 187.859 1.07853 -1.61497 0
M  V30 1890 C 184.989 1.56919 -3.09829 0
M  V30 1891 C 183.943 1.07054 -4.14395 0
M  V30 1892 C 183.269 2.29109 -4.83129 0
M  V30 1893 C 184.569 0.140015 -5.22112 0
M  V30 1894 H 186.263 -0.198026 -2.98744 0
M  V30 1895 H 183.809 -0.09668 -1.43675 0
M  V30 1896 H 185.762 2.15503 -3.62128 0
M  V30 1897 H 184.486 2.23532 -2.3812 0
M  V30 1898 H 183.145 0.507247 -3.63074 0
M  V30 1899 H 182.793 2.94227 -4.0797 0
M  V30 1900 H 182.493 1.96406 -5.53804 0
M  V30 1901 H 184.017 2.88339 -5.38231 0
M  V30 1902 H 185.431 0.633978 -5.69784 0
M  V30 1903 H 183.828 -0.0971485 -6.00021 0
M  V30 1904 H 184.898 -0.811711 -4.78058 0
M  V30 1905 N 186.241 1.57166 -0.116904 0
M  V30 1906 C 187.173 2.12271 0.864507 0
M  V30 1907 C 188.186 1.06494 1.23138 0
M  V30 1908 O 189.375 1.33873 1.18069 0
M  V30 1909 C 186.475 2.60564 2.16702 0
M  V30 1910 C 185.648 3.90416 1.97216 0
M  V30 1911 C 184.707 4.24329 3.11178 0
M  V30 1912 O 183.733 4.93182 2.84184 0
M  V30 1913 N 184.935 3.8148 4.37554 0
M  V30 1914 H 187.7 2.97102 0.393726 0
M  V30 1915 H 185.261 1.61759 0.0675805 0
M  V30 1916 H 187.253 2.80282 2.91932 0
M  V30 1917 H 185.823 1.80623 2.55135 0
M  V30 1918 H 185.043 3.79627 1.06192 0
M  V30 1919 H 186.331 4.75327 1.81499 0
M  V30 1920 H 185.729 3.25943 4.62361 0
M  V30 1921 H 184.286 4.06311 5.09661 0
M  V30 1922 N 187.719 -0.156864 1.56817 0
M  V30 1923 C 188.965 -0.867645 1.83966 0
M  V30 1924 C 189.32 -1.79233 0.699511 0
M  V30 1925 O 188.613 -1.89186 -0.303176 0
M  V30 1926 C 188.807 -1.68737 3.1506 0
M  V30 1927 C 188.636 -0.843548 4.41718 0
M  V30 1928 C 187.406 -0.512994 5.02689 0
M  V30 1929 C 189.604 -0.178416 5.1399 0
M  V30 1930 N 187.586 0.345456 6.12927 0
M  V30 1931 C 188.957 0.540586 6.17639 0
M  V30 1932 C 191.012 -0.0980696 4.97803 0
M  V30 1933 C 189.715 1.33233 7.06853 0
M  V30 1934 C 191.741 0.680387 5.87473 0
M  V30 1935 C 191.103 1.3877 6.90596 0
M  V30 1936 H 187.202 -0.295642 0.723961 0
M  V30 1937 H 189.786 -0.13365 1.94241 0
M  V30 1938 H 187.957 -2.39268 3.0595 0
M  V30 1939 H 189.689 -2.34056 3.30151 0
M  V30 1940 H 186.444 -0.846476 4.65974 0
M  V30 1941 H 186.868 0.765415 6.72659 0
M  V30 1942 H 191.51 -0.630562 4.18071 0
M  V30 1943 H 189.228 1.87612 7.8602 0
M  V30 1944 H 192.814 0.744415 5.77018 0
M  V30 1945 H 191.694 1.9804 7.58782 0
M  V30 1946 N 189.197 -1.51736 -0.425897 0
M  V30 1947 C 190.147 -1.70258 -1.51645 0
M  V30 1948 C 191.131 -0.556488 -1.5097 0
M  V30 1949 O 192.323 -0.812879 -1.5723 0
M  V30 1950 C 189.452 -1.84143 -2.89735 0
M  V30 1951 C 188.538 -3.04572 -2.95122 0
M  V30 1952 N 188.929 -4.2756 -2.70233 0
M  V30 1953 C 187.227 -3.04061 -3.26286 0
M  V30 1954 C 187.928 -5.08908 -2.81757 0
M  V30 1955 N 186.904 -4.43797 -3.13919 0
M  V30 1956 H 190.706 -2.63004 -1.31172 0
M  V30 1957 H 188.22 -1.4954 -0.633375 0
M  V30 1958 H 190.217 -1.95525 -3.68206 0
M  V30 1959 H 188.877 -0.925857 -3.1122 0
M  V30 1960 H 189.888 -4.56315 -2.44943 0
M  V30 1961 H 186.565 -2.22179 -3.53473 0
M  V30 1962 H 187.955 -6.16843 -2.66372 0
M  V30 1963 N 190.675 0.682077 -1.42076 0
M  V30 1964 C 191.585 1.82535 -1.47371 0
M  V30 1965 C 192.601 1.7017 -0.363079 0
M  V30 1966 O 193.777 1.91848 -0.612875 0
M  V30 1967 C 190.842 3.18624 -1.36674 0
M  V30 1968 C 189.903 3.42999 -2.58167 0
M  V30 1969 C 189.136 4.72595 -2.4797 0
M  V30 1970 O 189.359 5.50006 -1.5116 0
M  V30 1971 O 188.293 4.98054 -3.37974 0
M  V30 1972 H 192.119 1.81023 -2.43853 0
M  V30 1973 H 189.704 0.836887 -1.2376 0
M  V30 1974 H 191.586 3.99847 -1.33043 0
M  V30 1975 H 190.261 3.20789 -0.433138 0
M  V30 1976 H 189.168 2.61653 -2.67373 0
M  V30 1977 H 190.501 3.45659 -3.50401 0
M  V30 1978 N 192.153 1.28127 0.917671 0
M  V30 1979 C 193.1 1.11717 2.0196 0
M  V30 1980 C 194.07 0.0153929 1.66093 0
M  V30 1981 O 195.255 0.179596 1.89953 0
M  V30 1982 C 192.395 0.780927 3.36148 0
M  V30 1983 C 191.508 1.96135 3.84909 0
M  V30 1984 C 190.643 1.56609 5.0759 0
M  V30 1985 C 189.682 2.71339 5.48673 0
M  V30 1986 N 188.819 2.32332 6.62545 0
M  V30 1987 H 193.659 2.06003 2.15329 0
M  V30 1988 H 191.196 1.02535 1.05475 0
M  V30 1989 H 193.154 0.56675 4.13333 0
M  V30 1990 H 191.784 -0.124998 3.22558 0
M  V30 1991 H 190.836 2.28777 3.03916 0
M  V30 1992 H 192.148 2.82165 4.1132 0
M  V30 1993 H 191.302 1.31374 5.92305 0
M  V30 1994 H 190.041 0.677014 4.82978 0
M  V30 1995 H 189.046 2.97276 4.62501 0
M  V30 1996 H 190.271 3.60882 5.75274 0
M  V30 1997 H 188.217 1.45889 6.39572 0
M  V30 1998 H 188.134 3.11899 6.88662 0
M  V30 1999 H 189.402 2.10371 7.50576 0
M  V30 2000 N 193.631 -1.12557 1.10312 0
M  V30 2001 C 194.594 -2.16434 0.75424 0
M  V30 2002 C 195.594 -1.59278 -0.220685 0
M  V30 2003 O 196.784 -1.742 0.00230591 0
M  V30 2004 C 193.916 -3.40699 0.116987 0
M  V30 2005 H 195.109 -2.48811 1.67431 0
M  V30 2006 H 192.662 -1.27542 0.903475 0
M  V30 2007 H 193.397 -3.13921 -0.813877 0
M  V30 2008 H 193.182 -3.83459 0.818613 0
M  V30 2009 H 194.672 -4.17451 -0.111387 0
M  V30 2010 N 195.109 -0.891671 -1.2995 0
M  V30 2011 C 196.039 -0.379797 -2.30391 0
M  V30 2012 C 197.02 0.540919 -1.6127 0
M  V30 2013 O 198.205 0.453352 -1.88834 0
M  V30 2014 C 195.335 0.400654 -3.44981 0
M  V30 2015 C 194.289 -0.428905 -4.25846 0
M  V30 2016 C 193.615 0.478557 -5.32554 0
M  V30 2017 C 194.915 -1.67458 -4.94727 0
M  V30 2018 H 196.609 -1.21914 -2.73454 0
M  V30 2019 H 194.155 -0.587675 -1.31462 0
M  V30 2020 H 196.108 0.769434 -4.14316 0
M  V30 2021 H 194.832 1.27371 -3.0074 0
M  V30 2022 H 193.491 -0.779911 -3.58208 0
M  V30 2023 H 193.139 1.34951 -4.84559 0
M  V30 2024 H 192.839 -0.0727433 -5.87555 0
M  V30 2025 H 194.363 0.843705 -6.04743 0
M  V30 2026 H 195.777 -1.376 -5.56542 0
M  V30 2027 H 194.174 -2.16659 -5.59624 0
M  V30 2028 H 195.244 -2.41518 -4.20473 0
M  V30 2029 N 196.587 1.43421 -0.653314 0
M  V30 2030 C 197.55 2.29182 0.0287951 0
M  V30 2031 C 198.55 1.42213 0.750465 0
M  V30 2032 O 199.74 1.63843 0.591701 0
M  V30 2033 C 196.872 3.24278 1.05151 0
M  V30 2034 H 198.065 2.90985 -0.725786 0
M  V30 2035 H 195.618 1.50702 -0.414545 0
M  V30 2036 H 196.353 2.6737 1.83532 0
M  V30 2037 H 196.138 3.88396 0.537687 0
M  V30 2038 H 197.628 3.88647 1.52786 0
M  V30 2039 N 198.065 0.39524 1.52563 0
M  V30 2040 C 199.028 -0.425001 2.25225 0
M  V30 2041 C 200.028 -0.985266 1.27079 0
M  V30 2042 O 201.218 -0.866332 1.5113 0
M  V30 2043 C 198.35 -1.59686 3.01186 0
M  V30 2044 H 199.543 0.211233 2.99155 0
M  V30 2045 H 197.096 0.147472 1.55603 0
M  V30 2046 H 197.831 -2.27035 2.31572 0
M  V30 2047 H 197.616 -1.20176 3.73229 0
M  V30 2048 H 199.106 -2.17743 3.5634 0
M  V30 2049 N 199.544 -1.57102 0.125237 0
M  V30 2050 C 200.792 -1.95021 -0.530198 0
M  V30 2051 C 201.113 -1.00982 -1.66816 0
M  V30 2052 O 200.383 -0.0672693 -1.95784 0
M  V30 2053 H 198.963 -0.720046 -0.198853 0
M  V30 2054 H 201.625 -1.93916 0.19564 0
M  V30 2055 H 200.721 -2.98211 -0.920681 0
M  V30 2056 N 201.022 0.148545 -1.56898 0
M  V30 2057 C 202.27 0.859717 -1.82902 0
M  V30 2058 C 202.591 1.81775 -0.70588 0
M  V30 2059 O 201.861 1.93994 0.272586 0
M  V30 2060 H 200.441 0.320469 -0.674766 0
M  V30 2061 H 203.103 0.142918 -1.94375 0
M  V30 2062 H 202.199 1.4229 -2.77777 0
M  V30 2063 N 202.5 1.5196 0.417844 0
M  V30 2064 C 203.746 1.65836 1.16732 0
M  V30 2065 C 204.079 0.382881 1.90388 0
M  V30 2066 O 203.354 -0.618368 1.84408 0
M  V30 2067 C 203.637 2.87466 2.16876 0
M  V30 2068 C 203.49 4.25041 1.47174 0
M  V30 2069 C 204.809 3.04613 3.17646 0
M  V30 2070 H 201.928 0.603515 0.423011 0
M  V30 2071 H 204.57 1.84494 0.454105 0
M  V30 2072 H 202.72 2.71689 2.777 0
M  V30 2073 H 204.392 4.52527 0.895376 0
M  V30 2074 H 202.635 4.26843 0.773806 0
M  V30 2075 H 203.306 5.06176 2.20204 0
M  V30 2076 H 205.782 3.1923 2.66892 0
M  V30 2077 H 204.658 3.91247 3.8499 0
M  V30 2078 H 204.919 2.17541 3.84874 0
M  V30 2079 N 203.978 -0.674533 1.42435 0
M  V30 2080 C 205.226 -1.43175 1.42637 0
M  V30 2081 C 205.547 -1.94951 0.0438992 0
M  V30 2082 O 204.817 -1.7308 -0.917607 0
M  V30 2083 H 203.397 -0.531307 0.525092 0
M  V30 2084 H 206.059 -0.797006 1.77859 0
M  V30 2085 H 205.155 -2.28463 2.12629 0
M  V30 2086 N 205.456 -1.28612 -0.910864 0
M  V30 2087 C 206.681 -1.1891 -1.69927 0
M  V30 2088 C 207.106 0.248372 -1.86453 0
M  V30 2089 O 206.464 1.17961 -1.37676 0
M  V30 2090 C 206.512 -1.89578 -3.06745 0
M  V30 2091 O 205.616 -1.20521 -3.94396 0
M  V30 2092 H 204.957 -0.412632 -0.520222 0
M  V30 2093 H 207.487 -1.69985 -1.1387 0
M  V30 2094 H 207.497 -1.97597 -3.56958 0
M  V30 2095 H 206.172 -2.94136 -2.94035 0
M  V30 2096 H 204.749 -1.20684 -3.52831 0
M  V30 2097 N 206.934 1.1197 -1.10907 0
M  V30 2098 C 208.183 1.82947 -0.849302 0
M  V30 2099 C 208.496 1.85275 0.627112 0
M  V30 2100 O 209.702 2.52296 1.00295 0
M  V30 2101 C 208.158 3.28529 -1.46959 0
M  V30 2102 C 207.766 3.34546 -2.97965 0
M  V30 2103 C 209.51 4.04443 -1.28942 0
M  V30 2104 C 207.417 4.74491 -3.53004 0
M  V30 2105 H 206.347 0.685477 -0.314065 0
M  V30 2106 H 208.998 1.2604 -1.33365 0
M  V30 2107 H 207.38 3.85333 -0.912917 0
M  V30 2108 H 208.554 2.87654 -3.59989 0
M  V30 2109 H 206.869 2.72108 -3.15192 0
M  V30 2110 H 209.466 5.07787 -1.67502 0
M  V30 2111 H 209.809 4.15656 -0.231456 0
M  V30 2112 H 210.342 3.5401 -1.81443 0
M  V30 2113 H 207.081 4.68474 -4.58489 0
M  V30 2114 H 206.601 5.21816 -2.9575 0
M  V30 2115 H 208.28 5.4344 -3.51115 0
M  V30 2116 N 208.412 0.89855 1.29475 0
M  V30 2117 C 209.658 0.524658 1.95896 0
M  V30 2118 C 209.991 -0.926468 1.70676 0
M  V30 2119 O 209.266 -1.65665 1.01908 0
M  V30 2120 C 209.549 0.81633 3.50725 0
M  V30 2121 C 209.402 2.31907 3.85408 0
M  V30 2122 C 210.721 0.302038 4.39062 0
M  V30 2123 H 207.84 0.19209 0.711527 0
M  V30 2124 H 210.482 1.12502 1.53112 0
M  V30 2125 H 208.632 0.305369 3.87298 0
M  V30 2126 H 210.304 2.89949 3.58786 0
M  V30 2127 H 208.547 2.78027 3.32992 0
M  V30 2128 H 209.218 2.47373 4.93468 0
M  V30 2129 H 211.694 0.739551 4.09475 0
M  V30 2130 H 210.57 0.535331 5.46283 0
M  V30 2131 H 210.831 -0.797216 4.34853 0
M  V30 2132 N 209.89 -1.43072 0.660911 0
M  V30 2133 C 211.306 -1.56169 0.329173 0
M  V30 2134 C 211.506 -1.64317 -1.16629 0
M  V30 2135 O 210.562 -1.60245 -1.95135 0
M  V30 2136 C 211.875 -2.81873 1.04729 0
M  V30 2137 C 213.423 -2.95627 1.02828 0
M  V30 2138 C 213.898 -4.24174 1.72744 0
M  V30 2139 N 215.389 -4.31055 1.69545 0
M  V30 2140 C 216.124 -5.29304 2.20511 0
M  V30 2141 N 215.62 -6.33786 2.79799 0
M  V30 2142 N 217.413 -5.21008 2.10966 0
M  V30 2143 H 209.564 -1.36027 1.63127 0
M  V30 2144 H 211.827 -0.653823 0.686454 0
M  V30 2145 H 211.533 -2.81942 2.10242 0
M  V30 2146 H 211.407 -3.72338 0.603702 0
M  V30 2147 H 213.794 -2.95094 -0.0184742 0
M  V30 2148 H 213.875 -2.06431 1.51063 0
M  V30 2149 H 213.519 -4.25467 2.7738 0
M  V30 2150 H 213.449 -5.1228 1.2197 0
M  V30 2151 H 215.94 -3.56174 1.26288 0
M  V30 2152 H 216.253 -7.05086 3.16344 0
M  V30 2153 H 214.598 -6.34387 2.83863 0
M  V30 2154 H 217.789 -4.38301 1.64347 0
M  V30 2155 H 217.962 -5.97416 2.50993 0
M  V30 2156 N 211.368 -0.403325 -1.52352 0
M  V30 2157 C 212.614 0.174605 -2.02047 0
M  V30 2158 C 212.947 1.45282 -1.28867 0
M  V30 2159 O 212.222 1.90483 -0.393257 0
M  V30 2160 C 212.505 0.428238 -3.57545 0
M  V30 2161 C 212.358 -0.866248 -4.4138 0
M  V30 2162 C 213.677 1.21287 -4.23057 0
M  V30 2163 H 210.796 0.0619851 -0.734389 0
M  V30 2164 H 213.438 -0.53565 -1.82293 0
M  V30 2165 H 211.588 1.03327 -3.74507 0
M  V30 2166 H 213.26 -1.50265 -4.3614 0
M  V30 2167 H 211.503 -1.47851 -4.07827 0
M  V30 2168 H 212.174 -0.643249 -5.48239 0
M  V30 2169 H 214.65 0.700703 -4.10158 0
M  V30 2170 H 213.526 1.35909 -5.31808 0
M  V30 2171 H 213.787 2.23193 -3.81625 0
M  V30 2172 N 212.846 1.57033 -0.133567 0
M  V30 2173 C 213.776 2.1909 0.807567 0
M  V30 2174 C 214.757 1.13517 1.26681 0
M  V30 2175 O 215.942 1.41809 1.32679 0
M  V30 2176 C 213.072 2.80188 2.05212 0
M  V30 2177 C 212.026 3.91471 1.73015 0
M  V30 2178 C 211.352 4.39443 3.04622 0
M  V30 2179 C 212.652 5.12886 0.987168 0
M  V30 2180 H 214.346 2.97988 0.290403 0
M  V30 2181 H 211.892 1.43335 0.138239 0
M  V30 2182 H 213.845 3.22264 2.71521 0
M  V30 2183 H 212.569 1.98601 2.59278 0
M  V30 2184 H 211.228 3.49993 1.0909 0
M  V30 2185 H 210.876 3.54695 3.56651 0
M  V30 2186 H 210.576 5.14495 2.83847 0
M  V30 2187 H 212.1 4.8418 3.72024 0
M  V30 2188 H 213.514 5.51891 1.55208 0
M  V30 2189 H 211.911 5.93615 0.87985 0
M  V30 2190 H 212.981 4.84894 -0.0235286 0
M  V30 2191 N 214.325 -0.140222 1.56975 0
M  V30 2192 C 215.553 -0.866437 1.87884 0
M  V30 2193 C 215.968 -1.74428 0.722517 0
M  V30 2194 O 215.325 -1.79891 -0.30749 0
M  V30 2195 C 215.376 -1.71753 3.18093 0
M  V30 2196 O 215.097 -0.875056 4.29272 0
M  V30 2197 C 216.598 -2.55074 3.62563 0
M  V30 2198 H 213.818 -0.25019 0.622612 0
M  V30 2199 H 216.362 -0.130977 2.0408 0
M  V30 2200 H 214.517 -2.40598 3.03631 0
M  V30 2201 H 214.931 -1.46002 5.03769 0
M  V30 2202 H 216.405 -3.10356 4.5649 0
M  V30 2203 H 216.882 -3.31434 2.88181 0
M  V30 2204 H 217.488 -1.91509 3.79743 0
M  V30 2205 N 215.803 -1.52179 -0.40978 0
M  V30 2206 C 216.766 -1.74853 -1.48186 0
M  V30 2207 C 217.766 -0.618417 -1.48433 0
M  V30 2208 O 218.956 -0.886286 -1.49969 0
M  V30 2209 C 216.088 -1.8303 -2.87598 0
M  V30 2210 H 217.281 -2.70559 -1.29374 0
M  V30 2211 H 214.834 -1.42586 -0.640233 0
M  V30 2212 H 215.569 -0.89236 -3.11781 0
M  V30 2213 H 215.354 -2.65187 -2.88822 0
M  V30 2214 H 216.844 -2.02316 -3.65319 0
M  V30 2215 N 217.281 0.66697 -1.42791 0
M  V30 2216 C 218.697 0.981027 -1.25889 0
M  V30 2217 C 218.897 2.00793 -0.168695 0
M  V30 2218 O 217.953 2.48321 0.45747 0
M  V30 2219 C 219.266 1.47838 -2.61848 0
M  V30 2220 C 220.814 1.59575 -2.69267 0
M  V30 2221 C 221.289 2.12704 -4.05612 0
M  V30 2222 N 222.78 2.20026 -4.07606 0
M  V30 2223 C 223.515 2.62227 -5.09926 0
M  V30 2224 N 223.011 3.03824 -6.22626 0
M  V30 2225 N 224.804 2.62045 -4.97281 0
M  V30 2226 H 216.955 -0.0127891 -2.12396 0
M  V30 2227 H 219.218 0.0568258 -0.946295 0
M  V30 2228 H 218.924 0.798299 -3.4252 0
M  V30 2229 H 218.798 2.45579 -2.86305 0
M  V30 2230 H 221.185 2.26687 -1.88936 0
M  V30 2231 H 221.266 0.60302 -2.48591 0
M  V30 2232 H 220.91 1.46198 -4.86404 0
M  V30 2233 H 220.84 3.12782 -4.23645 0
M  V30 2234 H 223.331 1.90708 -3.2625 0
M  V30 2235 H 223.644 3.34734 -6.96544 0
M  V30 2236 H 221.989 3.01662 -6.26119 0
M  V30 2237 H 225.18 2.28916 -4.08308 0
M  V30 2238 H 225.353 2.94613 -5.77154 0
M  V30 2239 N 218.759 1.29093 0.90403 0
M  V30 2240 C 219.706 1.13853 2.00764 0
M  V30 2241 C 220.676 0.0330084 1.66067 0
M  V30 2242 O 221.861 0.199733 1.89752 0
M  V30 2243 C 219.001 0.816537 3.35301 0
M  V30 2244 C 218.114 2.00206 3.82807 0
M  V30 2245 C 217.249 1.61983 5.059 0
M  V30 2246 C 216.288 2.77143 5.45764 0
M  V30 2247 N 215.425 2.39346 6.60044 0
M  V30 2248 H 220.265 2.08276 2.13132 0
M  V30 2249 H 217.802 1.03648 1.04381 0
M  V30 2250 H 219.76 0.610557 4.12708 0
M  V30 2251 H 218.39 -0.090779 3.22672 0
M  V30 2252 H 217.442 2.31988 3.01473 0
M  V30 2253 H 218.754 2.86512 4.08304 0
M  V30 2254 H 217.908 1.37649 5.90879 0
M  V30 2255 H 216.647 0.728202 4.82233 0
M  V30 2256 H 215.652 3.02165 4.59322 0
M  V30 2257 H 216.877 3.66964 5.71414 0
M  V30 2258 H 214.823 1.52665 6.37989 0
M  V30 2259 H 214.74 3.19185 6.85315 0
M  V30 2260 H 216.008 2.1832 7.48303 0
M  V30 2261 N 220.237 -1.11381 1.11499 0
M  V30 2262 C 221.465 -1.86934 0.88675 0
M  V30 2263 C 221.88 -1.80195 -0.563476 0
M  V30 2264 O 221.237 -1.18367 -1.38908 0
M  V30 2265 C 221.288 -3.35722 1.34064 0
M  V30 2266 O 221.009 -3.4232 2.73401 0
M  V30 2267 C 222.51 -4.2818 1.14791 0
M  V30 2268 H 219.73 -0.591117 0.317523 0
M  V30 2269 H 222.274 -1.40865 1.48248 0
M  V30 2270 H 220.429 -3.79294 0.788355 0
M  V30 2271 H 220.843 -4.34971 2.93087 0
M  V30 2272 H 222.317 -5.30817 1.5145 0
M  V30 2273 H 222.794 -4.39113 0.0875279 0
M  V30 2274 H 223.4 -3.90402 1.68721 0
M  V30 2275 N 221.715 -0.905404 -1.28997 0
M  V30 2276 C 222.961 -0.535039 -1.95615 0
M  V30 2277 C 223.294 0.917404 -1.71165 0
M  V30 2278 O 222.569 1.65123 -1.02785 0
M  V30 2279 C 222.852 -0.834918 -3.50287 0
M  V30 2280 C 222.705 -2.33948 -3.84172 0
M  V30 2281 C 224.024 -0.325318 -4.38896 0
M  V30 2282 H 221.143 -0.195861 -0.710498 0
M  V30 2283 H 223.785 -1.13313 -1.52513 0
M  V30 2284 H 221.935 -0.325904 -3.87131 0
M  V30 2285 H 223.607 -2.91847 -3.57243 0
M  V30 2286 H 221.85 -2.79789 -3.31513 0
M  V30 2287 H 222.521 -2.49987 -4.92149 0
M  V30 2288 H 224.997 -0.761256 -4.09077 0
M  V30 2289 H 223.873 -0.564295 -5.45992 0
M  V30 2290 H 224.134 0.774144 -4.35269 0
M  V30 2291 O 223.232 1.39848 -0.807758 0
M  V30 2292 H 223.923 1.89847 -0.38441 0
M  V30 END ATOM
M  V30 BEGIN BOND
M  V30 END BOND
M  V30 END CTAB
M  END
$$$$
