drugbank_target|O15547 P2X purinoceptor 6 (DB01069)
 OpenBabel12092121213D

  0  0  0     0  0            999 V3000
M  V30 BEGIN CTAB
M  V30 COUNTS 6809 6914 0 0 0
M  V30 BEGIN ATOM
M  V30 1 H -0.908 1.98254 -0.117106 0
M  V30 2 N 0 1.576 0 0
M  V30 3 C 0.933 2.03868 1.02534 0
M  V30 4 C 1.911 0.928543 1.3348 0
M  V30 5 O 3.095 1.19667 1.45644 0
M  V30 6 C 0.222 2.43627 2.35294 0
M  V30 7 C -0.732 3.65373 2.2001 0
M  V30 8 S 0.101 5.13292 1.52614 0
M  V30 9 C 1.257 5.56322 2.86805 0
M  V30 10 H 1.49 2.90518 0.631377 0
M  V30 11 H -0.977 1.52953 0.210867 0
M  V30 12 H 0.981 2.67203 3.11629 0
M  V30 13 H -0.358 1.57376 2.7183 0
M  V30 14 H -1.165 3.90944 3.18086 0
M  V30 15 H -1.563 3.418 1.51819 0
M  V30 16 H 0.729 5.58782 3.83104 0
M  V30 17 H 1.672 6.56266 2.65933 0
M  V30 18 H 2.08 4.83886 2.90714 0
M  V30 19 N 1.4781 -0.272755 1.55222 0
M  V30 20 C 2.7181 -1.01197 1.77591 0
M  V30 21 C 3.0821 -1.8349 0.565294 0
M  V30 22 O 4.2831 -2.60387 0.667242 0
M  V30 23 C 2.5541 -1.87096 3.04516 0
M  V30 24 S 4.1131 -2.67279 3.48004 0
M  V30 25 H 0.9311 -0.340836 0.62398 0
M  V30 26 H 3.5331 -0.282374 1.9345 0
M  V30 27 H 2.2371 -1.25565 3.90719 0
M  V30 28 H 1.7681 -2.64376 2.91323 0
M  V30 29 H 3.7831 -3.89593 3.07297 0
M  V30 30 N 2.9562 -1.48159 -0.537278 0
M  V30 31 C 4.3672 -1.49429 -1.11928 0
M  V30 32 C 4.7182 -0.26 -1.9447 0
M  V30 33 O 3.8432 0.633489 -2.0692 0
M  V30 34 C 4.4382 -2.70758 -2.03656 0
M  V30 35 C 2.9972 -2.74923 -2.57088 0
M  V30 36 C 2.1442 -2.42835 -1.3389 0
M  V30 37 H 5.0952 -1.55381 -0.322886 0
M  V30 38 H 5.1162 -2.48861 -2.87834 0
M  V30 39 H 4.6282 -3.60575 -1.43553 0
M  V30 40 H 2.7292 -1.89296 -3.20933 0
M  V30 41 H 2.8422 -3.76157 -2.9672 0
M  V30 42 H 1.2062 -1.93836 -1.65226 0
M  V30 43 H 1.9892 -3.34884 -0.755504 0
M  V30 44 N 4.4343 0.785586 -1.36625 0
M  V30 45 C 5.3663 1.90711 -1.2713 0
M  V30 46 C 6.3793 1.61688 -0.189986 0
M  V30 47 O 7.5683 1.72864 -0.445014 0
M  V30 48 C 4.6683 3.25611 -0.939713 0
M  V30 49 C 3.8413 3.82385 -2.12369 0
M  V30 50 C 2.9003 4.95732 -1.76456 0
M  V30 51 O 1.9263 5.12047 -2.48589 0
M  V30 52 N 3.1283 5.76258 -0.700492 0
M  V30 53 H 5.8933 1.99376 -2.23762 0
M  V30 54 H 3.4543 0.964041 -1.30069 0
M  V30 55 H 5.4463 3.98937 -0.680554 0
M  V30 56 H 4.0163 3.12538 -0.0624074 0
M  V30 57 H 3.2363 3.01001 -2.54543 0
M  V30 58 H 4.5243 4.17047 -2.9146 0
M  V30 59 H 3.9223 5.65609 -0.101624 0
M  V30 60 H 2.4793 6.4987 -0.501165 0
M  V30 61 N 5.9124 1.20967 1.01018 0
M  V30 62 C 6.8424 0.988272 2.11555 0
M  V30 63 C 7.8234 -0.0849778 1.69888 0
M  V30 64 O 9.0084 0.0738202 1.9406 0
M  V30 65 C 6.1384 0.546528 3.42973 0
M  V30 66 C 5.0924 1.56375 3.9841 0
M  V30 67 C 4.4184 0.97842 5.25672 0
M  V30 68 C 5.7184 2.94922 4.31066 0
M  V30 69 H 7.4124 1.91276 2.30334 0
M  V30 70 H 4.9584 0.921073 1.1069 0
M  V30 71 H 6.9114 0.378839 4.19694 0
M  V30 72 H 5.6354 -0.413598 3.23971 0
M  V30 73 H 4.2944 1.71891 3.23804 0
M  V30 74 H 3.9424 0.0101688 5.02999 0
M  V30 75 H 3.6424 1.65784 5.63728 0
M  V30 76 H 5.1664 0.821939 6.05043 0
M  V30 77 H 6.5804 2.8288 4.9865 0
M  V30 78 H 4.9774 3.5983 4.80253 0
M  V30 79 H 6.0474 3.4616 3.39561 0
M  V30 80 N 7.3905 -1.2043 1.01659 0
M  V30 81 C 8.3535 -2.21433 0.591616 0
M  V30 82 C 9.3535 -1.57203 -0.338226 0
M  V30 83 O 10.5435 -1.73737 -0.126918 0
M  V30 84 C 7.6755 -3.40628 -0.136058 0
M  V30 85 H 8.8685 -2.60545 1.48514 0
M  V30 86 H 6.4215 -1.33893 0.806379 0
M  V30 87 H 7.1565 -3.07019 -1.04449 0
M  V30 88 H 6.9415 -3.88475 0.531917 0
M  V30 89 H 8.4315 -4.15475 -0.420735 0
M  V30 90 N 8.8686 -0.792821 -1.36206 0
M  V30 91 C 10.1166 -0.366062 -1.98757 0
M  V30 92 C 10.4376 1.0668 -1.63231 0
M  V30 93 O 9.7076 1.73587 -0.907978 0
M  V30 94 H 8.2876 -0.132364 -0.735179 0
M  V30 95 H 10.9496 -1.01562 -1.66347 0
M  V30 96 H 10.0456 -0.460638 -3.08682 0
M  V30 97 N 10.3467 1.47872 -0.545128 0
M  V30 98 C 11.3097 2.28337 0.198717 0
M  V30 99 C 12.3097 1.36255 0.853888 0
M  V30 100 O 13.4997 1.59003 0.711606 0
M  V30 101 C 10.6317 3.15585 1.28915 0
M  V30 102 H 11.8247 2.95567 -0.507941 0
M  V30 103 H 9.3777 1.53362 -0.301616 0
M  V30 104 H 10.1127 2.53019 2.02859 0
M  V30 105 H 9.8977 3.83337 0.824309 0
M  V30 106 H 11.3877 3.76243 1.81194 0
M  V30 107 N 11.8248 0.280983 1.55075 0
M  V30 108 C 13.0728 -0.333455 1.9933 0
M  V30 109 C 13.3938 -1.55937 1.17085 0
M  V30 110 O 12.6638 -1.94143 0.261805 0
M  V30 111 H 11.2438 -0.126197 0.736263 0
M  V30 112 H 13.9058 0.387678 1.91005 0
M  V30 113 H 13.0018 -0.619292 3.05894 0
M  V30 114 N 13.3029 -1.57598 0.00835791 0
M  V30 115 C 14.5279 -1.95617 -0.689103 0
M  V30 116 C 14.9529 -0.883753 -1.66046 0
M  V30 117 O 14.3109 0.157352 -1.80616 0
M  V30 118 C 14.3589 -3.32736 -1.38994 0
M  V30 119 O 13.4629 -3.27631 -2.50463 0
M  V30 120 H 12.8039 -0.638379 -0.182668 0
M  V30 121 H 15.3339 -2.045 0.064036 0
M  V30 122 H 15.3439 -3.68494 -1.75147 0
M  V30 123 H 14.0189 -4.1034 -0.677778 0
M  V30 124 H 12.5959 -3.03561 -2.16576 0
M  V30 125 N 14.781 0.264519 -1.55364 0
M  V30 126 C 15.714 1.35297 -1.83766 0
M  V30 127 C 16.692 1.47171 -0.691336 0
M  V30 128 O 17.876 1.63663 -0.935238 0
M  V30 129 C 15.003 2.72847 -2.00679 0
M  V30 130 C 14.049 2.78214 -3.23263 0
M  V30 131 S 14.882 2.36601 -4.80396 0
M  V30 132 C 16.038 3.7611 -5.00292 0
M  V30 133 H 16.271 1.11003 -2.758 0
M  V30 134 H 13.804 0.464596 -1.47244 0
M  V30 135 H 15.762 3.52057 -2.11108 0
M  V30 136 H 14.423 2.94388 -1.09518 0
M  V30 137 H 13.616 3.7919 -3.3201 0
M  V30 138 H 13.218 2.07034 -3.11469 0
M  V30 139 H 15.51 4.71457 -4.86554 0
M  V30 140 H 16.453 3.7231 -6.02321 0
M  V30 141 H 16.861 3.67806 -4.28228 0
M  V30 142 N 16.2591 1.48442 0.529413 0
M  V30 143 C 17.5071 1.56179 1.28267 0
M  V30 144 C 17.8281 0.237721 1.93546 0
M  V30 145 O 17.0981 -0.740779 1.81354 0
M  V30 146 H 15.6781 0.575367 0.476405 0
M  V30 147 H 18.3401 1.84909 0.61602 0
M  V30 148 H 17.4361 2.34312 2.06165 0
M  V30 149 N 17.7372 -0.778329 1.37039 0
M  V30 150 C 18.9622 -1.57248 1.35233 0
M  V30 151 C 19.3872 -1.87999 -0.0615568 0
M  V30 152 O 18.7452 -1.48734 -1.03672 0
M  V30 153 C 18.7932 -2.86353 2.19167 0
M  V30 154 O 17.8972 -3.80442 1.59178 0
M  V30 155 H 17.2382 -0.476569 0.462362 0
M  V30 156 H 19.7682 -0.963853 1.80474 0
M  V30 157 H 19.7782 -3.35519 2.32145 0
M  V30 158 H 18.4532 -2.63299 3.21942 0
M  V30 159 H 17.0302 -3.39067 1.55203 0
M  V30 160 N 19.2153 -1.21501 -1.00376 0
M  V30 161 C 20.6263 -1.03146 -1.55621 0
M  V30 162 C 20.9773 0.408375 -1.91903 0
M  V30 163 O 20.1023 1.29177 -1.73616 0
M  V30 164 C 20.6973 -1.86612 -2.82775 0
M  V30 165 C 19.2563 -1.72586 -3.34501 0
M  V30 166 C 18.4033 -1.83747 -2.07683 0
M  V30 167 H 21.3543 -1.35505 -0.826081 0
M  V30 168 H 21.3753 -1.3771 -3.54706 0
M  V30 169 H 20.8873 -2.91399 -2.56336 0
M  V30 170 H 18.9883 -0.704877 -3.65872 0
M  V30 171 H 19.1013 -2.54623 -4.05837 0
M  V30 172 H 17.4653 -1.27069 -2.20739 0
M  V30 173 H 18.2483 -2.90044 -1.83655 0
M  V30 174 N 20.6934 1.19889 -1.02296 0
M  V30 175 C 21.9414 1.89046 -0.714558 0
M  V30 176 C 22.2624 1.79636 0.758681 0
M  V30 177 O 21.5324 1.20292 1.54618 0
M  V30 178 H 20.1124 0.699802 -0.261317 0
M  V30 179 H 22.7744 1.45574 -1.29592 0
M  V30 180 H 21.8704 2.95524 -1.0036 0
M  V30 181 N 22.1715 0.800033 1.35784 0
M  V30 182 C 23.1345 0.211565 2.28221 0
M  V30 183 C 24.1345 -0.59728 1.49296 0
M  V30 184 O 25.3245 -0.416721 1.69142 0
M  V30 185 C 22.4565 -0.705846 3.33513 0
M  V30 186 H 23.6495 1.02677 2.81776 0
M  V30 187 H 21.2025 0.570211 1.45528 0
M  V30 188 H 21.9375 -1.54498 2.85133 0
M  V30 189 H 21.7225 -0.127655 3.91892 0
M  V30 190 H 23.2125 -1.11211 4.02519 0
M  V30 191 N 23.6496 -1.47581 0.552962 0
M  V30 192 C 24.8776 -2.06875 0.0320556 0
M  V30 193 C 25.2926 -1.40625 -1.25976 0
M  V30 194 O 24.6496 -0.501349 -1.75479 0
M  V30 195 C 24.7006 -3.61092 -0.17167 0
M  V30 196 O 24.4216 -4.24858 1.06899 0
M  V30 197 C 25.9226 -4.37242 -0.730344 0
M  V30 198 H 23.1426 -0.669561 0.043915 0
M  V30 199 H 25.6866 -1.89646 0.765163 0
M  V30 200 H 23.8416 -3.7785 -0.854894 0
M  V30 201 H 24.2556 -5.17334 0.864059 0
M  V30 202 H 25.7296 -5.45842 -0.822203 0
M  V30 203 H 26.2066 -4.03235 -1.74064 0
M  V30 204 H 26.8126 -4.25219 -0.0829543 0
M  V30 205 N 25.1277 -0.289203 -1.54924 0
M  V30 206 C 26.3557 0.326463 -2.04308 0
M  V30 207 C 26.7707 1.48413 -1.16701 0
M  V30 208 O 26.1277 1.81507 -0.190087 0
M  V30 209 C 26.1787 0.794014 -3.52672 0
M  V30 210 O 25.8997 -0.317564 -4.36948 0
M  V30 211 C 27.4007 1.47605 -4.18004 0
M  V30 212 H 24.6207 0.0726272 -0.667058 0
M  V30 213 H 27.1647 -0.425401 -2.00026 0
M  V30 214 H 25.3197 1.49593 -3.57352 0
M  V30 215 H 25.7337 0.0443186 -5.24481 0
M  V30 216 H 27.2077 1.75447 -5.23376 0
M  V30 217 H 27.6847 2.41224 -3.67025 0
M  V30 218 H 28.2907 0.81762 -4.17367 0
M  V30 219 N 26.6058 1.57591 -0.0167156 0
M  V30 220 C 27.8538 1.90906 0.663285 0
M  V30 221 C 28.1748 0.892509 1.73376 0
M  V30 222 O 27.4448 -0.0677623 1.95783 0
M  V30 223 H 26.0248 0.704637 0.247983 0
M  V30 224 H 28.6868 1.94803 -0.0615909 0
M  V30 225 H 27.7828 2.9116 1.12393 0
M  V30 226 N 28.0839 -0.256276 1.55502 0
M  V30 227 C 29.3299 -0.982884 1.78076 0
M  V30 228 C 29.6849 -1.83319 0.584109 0
M  V30 229 O 28.9779 -1.86875 -0.422877 0
M  V30 230 C 29.1719 -1.88432 3.03691 0
M  V30 231 C 29.0009 -1.12276 4.35459 0
M  V30 232 C 27.7709 -0.831647 4.98409 0
M  V30 233 C 29.9689 -0.504933 5.11815 0
M  V30 234 N 27.9509 -0.0450423 6.13883 0
M  V30 235 C 29.3219 0.146696 6.19826 0
M  V30 236 C 31.3769 -0.414455 4.96172 0
M  V30 237 C 30.0799 0.880103 7.13895 0
M  V30 238 C 32.1059 0.305398 5.90611 0
M  V30 239 C 31.4679 0.945701 6.98023 0
M  V30 240 H 27.5669 -0.341084 0.703694 0
M  V30 241 H 30.1509 -0.256909 1.92998 0
M  V30 242 H 28.3219 -2.58241 2.90114 0
M  V30 243 H 30.0539 -2.54579 3.14598 0
M  V30 244 H 26.8089 -1.14111 4.59647 0
M  V30 245 H 27.2329 0.336079 6.76165 0
M  V30 246 H 31.8749 -0.895163 4.13215 0
M  V30 247 H 29.5929 1.37244 7.9636 0
M  V30 248 H 33.1789 0.375946 5.80584 0
M  V30 249 H 32.0589 1.49383 7.6984 0
M  V30 250 N 29.562 -1.4872 -0.521534 0
M  V30 251 C 30.81 -1.56857 -1.27437 0
M  V30 252 C 31.131 -0.247982 -1.93417 0
M  V30 253 O 30.401 0.731151 -1.81744 0
M  V30 254 H 28.981 -0.577885 -0.473347 0
M  V30 255 H 31.643 -1.85233 -0.606205 0
M  V30 256 H 30.739 -2.35402 -2.0492 0
M  V30 257 N 31.0401 0.771051 -1.3745 0
M  V30 258 C 31.9701 1.89827 -1.3597 0
M  V30 259 C 32.9511 1.68562 -0.228216 0
M  V30 260 O 34.1361 1.8941 -0.428675 0
M  V30 261 C 31.2661 3.2712 -1.16662 0
M  V30 262 C 30.2201 3.6295 -2.2683 0
M  V30 263 C 29.5461 4.98791 -1.92644 0
M  V30 264 C 30.8461 3.69627 -3.69017 0
M  V30 265 H 32.5401 1.91323 -2.30295 0
M  V30 266 H 30.0861 0.919082 -1.10855 0
M  V30 267 H 32.0391 4.05615 -1.14256 0
M  V30 268 H 30.7631 3.26059 -0.187926 0
M  V30 269 H 29.4221 2.86763 -2.28392 0
M  V30 270 H 29.0701 4.94271 -0.933021 0
M  V30 271 H 28.7701 5.23733 -2.66416 0
M  V30 272 H 30.2941 5.79685 -1.91826 0
M  V30 273 H 31.7081 4.38273 -3.69581 0
M  V30 274 H 30.1051 4.06067 -4.41848 0
M  V30 275 H 31.1751 2.70273 -4.02592 0
M  V30 276 N 32.5182 1.22032 0.997298 0
M  V30 277 C 33.4482 1.01065 2.10495 0
M  V30 278 C 34.4292 -0.0669542 1.69968 0
M  V30 279 O 35.6142 0.0943987 1.9397 0
M  V30 280 C 32.7442 0.582874 3.42374 0
M  V30 281 C 31.6982 1.60592 3.96729 0
M  V30 282 C 31.0242 1.03412 5.24605 0
M  V30 283 C 32.3242 2.99478 4.27914 0
M  V30 284 H 34.0182 1.93708 2.28292 0
M  V30 285 H 31.5642 0.932761 1.09707 0
M  V30 286 H 33.5172 0.423332 4.19268 0
M  V30 287 H 32.2412 -0.379213 3.24391 0
M  V30 288 H 30.9002 1.75316 3.21963 0
M  V30 289 H 30.5482 0.063518 5.0296 0
M  V30 290 H 30.2482 1.71754 5.61938 0
M  V30 291 H 31.7722 0.886066 6.04137 0
M  V30 292 H 33.1862 2.88153 4.95622 0
M  V30 293 H 31.5832 3.64903 4.76409 0
M  V30 294 H 32.6532 3.49742 3.3587 0
M  V30 295 N 33.9963 -1.19345 1.0293 0
M  V30 296 C 35.2733 -1.84811 0.640642 0
M  V30 297 C 35.6533 -1.91855 -0.88062 0
M  V30 298 O 35.0013 -1.43587 -1.7775 0
M  V30 299 C 35.2113 -3.23755 1.30321 0
M  V30 300 C 36.5593 -3.99912 1.42673 0
M  V30 301 O 37.5833 -3.33155 1.26041 0
M  V30 302 O 36.4423 -5.19494 1.6967 0
M  V30 303 H 33.5363 -0.796443 0.222726 0
M  V30 304 H 36.0823 -1.26831 1.12748 0
M  V30 305 H 34.8543 -3.13466 2.34211 0
M  V30 306 H 34.4773 -3.89381 0.804261 0
M  V30 307 N 35.4744 -0.807222 -1.35358 0
M  V30 308 C 36.7044 -0.399796 -2.02695 0
M  V30 309 C 37.1124 0.994176 -1.60974 0
M  V30 310 O 36.4554 1.65209 -0.803226 0
M  V30 311 C 36.5174 -0.404445 -3.57218 0
M  V30 312 C 36.1814 -1.74904 -4.22206 0
M  V30 313 C 37.1784 -2.70743 -4.4384 0
M  V30 314 C 34.8634 -2.03322 -4.5931 0
M  V30 315 C 36.8574 -3.93183 -5.01683 0
M  V30 316 C 34.5444 -3.26026 -5.16866 0
M  V30 317 C 35.5424 -4.20774 -5.37994 0
M  V30 318 O 35.2304 -5.41312 -5.94337 0
M  V30 319 H 34.9624 -0.160517 -0.656666 0
M  V30 320 H 37.5164 -1.09235 -1.73945 0
M  V30 321 H 35.7464 0.344707 -3.85161 0
M  V30 322 H 37.4354 -0.0192429 -4.05895 0
M  V30 323 H 38.2014 -2.5008 -4.15554 0
M  V30 324 H 34.0804 -1.30384 -4.42178 0
M  V30 325 H 37.6244 -4.6715 -5.1809 0
M  V30 326 H 33.5214 -3.46559 -5.44579 0
M  V30 327 H 34.2894 -5.42618 -6.12787 0
M  V30 328 N 36.9525 1.47285 -0.560781 0
M  V30 329 C 37.8995 2.30058 0.18491 0
M  V30 330 C 38.8695 1.39281 0.904986 0
M  V30 331 O 40.0545 1.68241 0.899979 0
M  V30 332 C 37.1945 3.23317 1.20666 0
M  V30 333 C 36.3075 4.29186 0.492285 0
M  V30 334 C 35.4425 5.09592 1.49964 0
M  V30 335 C 34.4815 6.07232 0.770439 0
M  V30 336 N 33.6185 6.80584 1.72479 0
M  V30 337 H 38.4585 2.93302 -0.527048 0
M  V30 338 H 35.9955 1.44568 -0.271738 0
M  V30 339 H 37.9535 3.75811 1.81168 0
M  V30 340 H 36.5835 2.61929 1.88661 0
M  V30 341 H 35.6355 3.7972 -0.227333 0
M  V30 342 H 36.9475 4.98738 -0.0787929 0
M  V30 343 H 36.1015 5.66254 2.17809 0
M  V30 344 H 34.8405 4.3995 2.10464 0
M  V30 345 H 33.8455 5.49745 0.0780846 0
M  V30 346 H 35.0705 6.78884 0.171134 0
M  V30 347 H 33.0165 6.1367 2.3183 0
M  V30 348 H 32.9335 7.46319 1.20596 0
M  V30 349 H 34.2015 7.41818 2.39428 0
M  V30 350 N 38.4306 0.297415 1.54768 0
M  V30 351 C 39.6586 -0.315623 2.04478 0
M  V30 352 C 40.0736 -1.47792 1.17486 0
M  V30 353 O 39.4306 -1.81404 0.19971 0
M  V30 354 C 39.4816 -0.7753 3.53088 0
M  V30 355 O 39.2026 0.340732 4.36773 0
M  V30 356 C 40.7036 -1.45386 4.18781 0
M  V30 357 H 37.9236 -0.0690887 0.667434 0
M  V30 358 H 40.4676 0.436003 1.99798 0
M  V30 359 H 38.6226 -1.47696 3.58141 0
M  V30 360 H 39.0366 -0.0165035 5.24497 0
M  V30 361 H 40.5106 -1.72669 5.24299 0
M  V30 362 H 40.9876 -2.39275 3.68299 0
M  V30 363 H 41.5936 -0.795475 4.17795 0
M  V30 364 N 39.9087 -1.5758 0.0250728 0
M  V30 365 C 40.8187 -2.1343 -0.973905 0
M  V30 366 C 41.8347 -1.08556 -1.35984 0
M  V30 367 O 43.0107 -1.40592 -1.44207 0
M  V30 368 C 40.0757 -2.64703 -2.23904 0
M  V30 369 C 39.1367 -3.84276 -1.91391 0
M  V30 370 C 38.3697 -4.33095 -3.11873 0
M  V30 371 O 38.5927 -3.81107 -4.24398 0
M  V30 372 O 37.5267 -5.24984 -2.94406 0
M  V30 373 H 41.3527 -2.99057 -0.529036 0
M  V30 374 H 38.9377 -1.48118 -0.195288 0
M  V30 375 H 40.8197 -2.97769 -2.98181 0
M  V30 376 H 39.4947 -1.82161 -2.6758 0
M  V30 377 H 38.4017 -3.56143 -1.14511 0
M  V30 378 H 39.7347 -4.67968 -1.52534 0
M  V30 379 N 41.3868 0.248026 -1.55636 0
M  V30 380 C 42.3338 1.30707 -1.90222 0
M  V30 381 C 43.3038 1.47881 -0.756332 0
M  V30 382 O 44.4888 1.61883 -1.00988 0
M  V30 383 C 41.6288 2.65769 -2.20138 0
M  V30 384 C 40.7418 2.56612 -3.47526 0
M  V30 385 C 39.8768 3.8402 -3.67017 0
M  V30 386 C 38.9158 3.69476 -4.8801 0
M  V30 387 N 38.0528 4.88774 -5.04029 0
M  V30 388 H 42.8928 1.00512 -2.80538 0
M  V30 389 H 40.4298 0.485055 -1.38873 0
M  V30 390 H 42.3878 3.44386 -2.35487 0
M  V30 391 H 41.0178 2.94115 -1.33027 0
M  V30 392 H 40.0698 1.69571 -3.40514 0
M  V30 393 H 41.3818 2.41774 -4.36287 0
M  V30 394 H 40.5358 4.7108 -3.8232 0
M  V30 395 H 39.2748 4.01754 -2.76487 0
M  V30 396 H 38.2798 2.80799 -4.72686 0
M  V30 397 H 39.5048 3.53238 -5.8 0
M  V30 398 H 37.4508 5.0687 -4.16435 0
M  V30 399 H 37.3678 4.76562 -5.86877 0
M  V30 400 H 38.6358 5.77335 -5.23741 0
M  V30 401 N 42.8649 1.48995 0.513639 0
M  V30 402 C 44.0949 1.61297 1.291 0
M  V30 403 C 44.5029 0.278656 1.87137 0
M  V30 404 O 43.8459 -0.744325 1.67945 0
M  V30 405 C 43.9079 2.61326 2.46879 0
M  V30 406 C 43.5719 4.05993 2.09807 0
M  V30 407 C 44.5689 4.93183 1.64519 0
M  V30 408 C 42.2539 4.51642 2.19829 0
M  V30 409 C 44.2479 6.24056 1.2974 0
M  V30 410 C 41.9349 5.82532 1.84662 0
M  V30 411 C 42.9329 6.68562 1.3969 0
M  V30 412 O 42.6209 7.97014 1.04992 0
M  V30 413 H 42.3529 0.546236 0.39825 0
M  V30 414 H 44.9069 1.95673 0.62459 0
M  V30 415 H 43.1369 2.22104 3.16554 0
M  V30 416 H 44.8259 2.6329 3.08923 0
M  V30 417 H 45.5919 4.59147 1.56233 0
M  V30 418 H 41.4709 3.84855 2.53786 0
M  V30 419 H 45.0149 6.91161 0.945659 0
M  V30 420 H 40.9119 6.16099 1.92594 0
M  V30 421 H 41.6799 8.09913 1.18249 0
M  V30 422 N 44.343 -0.763751 1.37857 0
M  V30 423 C 45.589 -1.52483 1.33704 0
M  V30 424 C 45.922 -1.94051 -0.0759612 0
M  V30 425 O 45.197 -1.64675 -1.03501 0
M  V30 426 C 45.48 -2.78441 2.28348 0
M  V30 427 C 45.333 -2.43075 3.78463 0
M  V30 428 C 46.652 -3.80415 2.21298 0
M  V30 429 H 43.771 -0.553169 0.487005 0
M  V30 430 H 46.413 -0.875562 1.68624 0
M  V30 431 H 44.563 -3.33842 1.987 0
M  V30 432 H 46.235 -1.93527 4.18742 0
M  V30 433 H 44.478 -1.75666 3.96641 0
M  V30 434 H 45.149 -3.33149 4.40132 0
M  V30 435 H 47.625 -3.34527 2.47449 0
M  V30 436 H 46.501 -4.66257 2.89647 0
M  V30 437 H 46.762 -4.25262 1.20849 0
M  V30 438 N 45.8211 -1.22559 -0.990812 0
M  V30 439 C 46.7541 -0.940773 -2.07905 0
M  V30 440 C 47.7321 0.117082 -1.62178 0
M  V30 441 O 48.9161 -0.0149506 -1.88494 0
M  V30 442 C 46.0431 -0.415321 -3.36144 0
M  V30 443 C 45.0891 -1.45818 -4.00799 0
M  V30 444 S 45.9221 -3.03219 -4.41382 0
M  V30 445 C 47.0781 -2.52317 -5.72789 0
M  V30 446 H 47.3111 -1.8623 -2.31745 0
M  V30 447 H 44.8441 -1.05688 -1.12558 0
M  V30 448 H 46.8021 -0.118747 -4.10328 0
M  V30 449 H 45.4631 0.485121 -3.10331 0
M  V30 450 H 44.6561 -1.04044 -4.93144 0
M  V30 451 H 44.2581 -1.70356 -3.32949 0
M  V30 452 H 46.5501 -1.93688 -6.49224 0
M  V30 453 H 47.4931 -3.43161 -6.19392 0
M  V30 454 H 47.9011 -1.93529 -5.30289 0
M  V30 455 N 47.2992 1.18797 -1.03562 0
M  V30 456 C 48.5272 1.92599 -0.755869 0
M  V30 457 C 48.9422 1.75886 0.686271 0
M  V30 458 O 48.2992 1.08517 1.46732 0
M  V30 459 C 48.3502 3.44159 -1.10619 0
M  V30 460 O 48.0712 3.60341 -2.4917 0
M  V30 461 C 49.5722 4.3507 -0.850214 0
M  V30 462 H 46.7922 0.611587 -0.276048 0
M  V30 463 H 49.3362 1.50742 -1.38192 0
M  V30 464 H 47.4912 3.83823 -0.525194 0
M  V30 465 H 47.9052 4.54128 -2.62427 0
M  V30 466 H 49.3792 5.39989 -1.14523 0
M  V30 467 H 49.8562 4.38673 0.215176 0
M  V30 468 H 50.4622 4.01097 -1.41426 0
M  V30 469 N 48.7773 0.814389 1.34928 0
M  V30 470 C 50.1933 0.499084 1.51596 0
M  V30 471 C 50.3933 -0.978319 1.76157 0
M  V30 472 O 49.4493 -1.76309 1.80752 0
M  V30 473 C 50.7623 1.35121 2.68631 0
M  V30 474 C 52.3103 1.34746 2.82511 0
M  V30 475 C 52.7853 2.18388 4.0258 0
M  V30 476 N 54.2763 2.15966 4.09772 0
M  V30 477 C 55.0113 2.77437 5.01813 0
M  V30 478 N 54.5073 3.47866 5.99134 0
M  V30 479 N 56.3003 2.67037 4.94619 0
M  V30 480 H 48.4513 1.7711 1.17243 0
M  V30 481 H 50.7143 0.754256 0.574284 0
M  V30 482 H 50.4203 2.40001 2.57085 0
M  V30 483 H 50.2943 1.00991 3.63429 0
M  V30 484 H 52.6813 0.30648 2.93504 0
M  V30 485 H 52.7623 1.72869 1.88547 0
M  V30 486 H 52.4063 3.2253 3.92347 0
M  V30 487 H 52.3363 1.77621 4.9574 0
M  V30 488 H 54.8273 1.64729 3.40107 0
M  V30 489 H 55.1403 3.92038 6.65977 0
M  V30 490 H 53.4853 3.51972 5.99284 0
M  V30 491 H 56.6763 2.11597 4.17546 0
M  V30 492 H 56.8493 3.15232 5.66156 0
M  V30 493 N 50.2554 -1.46986 0.568584 0
M  V30 494 C 51.2034 -2.31858 -0.185649 0
M  V30 495 C 52.1974 -1.43624 -0.898249 0
M  V30 496 O 53.4034 -1.60327 -0.818242 0
M  V30 497 H 49.7784 -0.747866 -0.0787399 0
M  V30 498 H 51.7494 -2.93303 0.549191 0
M  V30 499 C 50.4984 -3.26513 -1.19519 0
M  V30 500 H 49.8214 -3.94377 -0.656285 0
M  V30 501 H 51.2614 -3.88707 -1.6936 0
M  V30 502 C 49.7204 -2.50847 -2.24894 0
M  V30 503 O 50.2504 -2.26119 -3.32014 0
M  V30 504 N 48.4564 -2.11656 -1.99124 0
M  V30 505 H 48.0034 -2.31966 -1.12024 0
M  V30 506 H 47.9614 -1.61347 -2.69842 0
M  V30 507 N 51.7335 -0.305618 -1.54608 0
M  V30 508 C 52.9795 0.295595 -2.01241 0
M  V30 509 C 53.3345 1.51171 -1.19018 0
M  V30 510 O 52.6275 1.89832 -0.259684 0
M  V30 511 C 52.8215 0.698983 -3.50498 0
M  V30 512 C 52.6505 -0.476491 -4.47168 0
M  V30 513 C 51.4205 -0.969963 -4.95903 0
M  V30 514 C 53.6185 -1.32294 -4.96994 0
M  V30 515 N 51.6005 -2.11172 -5.76437 0
M  V30 516 C 52.9715 -2.31212 -5.75275 0
M  V30 517 C 55.0265 -1.35278 -4.7917 0
M  V30 518 C 53.7295 -3.32896 -6.37631 0
M  V30 519 C 55.7555 -2.35823 -5.42348 0
M  V30 520 C 55.1175 -3.33469 -6.20466 0
M  V30 521 H 51.2165 0.0724992 -0.778632 0
M  V30 522 H 53.8005 -0.436583 -1.89742 0
M  V30 523 H 51.9715 1.40032 -3.62278 0
M  V30 524 H 53.7035 1.28013 -3.8392 0
M  V30 525 H 50.4585 -0.544178 -4.70463 0
M  V30 526 H 50.8825 -2.68714 -6.21387 0
M  V30 527 H 55.5245 -0.61157 -4.18354 0
M  V30 528 H 53.2425 -4.07933 -6.97579 0
M  V30 529 H 56.8285 -2.38911 -5.30484 0
M  V30 530 H 55.7085 -4.09996 -6.68485 0
M  V30 531 N 53.2116 1.57565 -0.0334293 0
M  V30 532 C 54.6276 1.56297 0.322997 0
M  V30 533 C 54.8276 1.03945 1.7262 0
M  V30 534 O 53.8836 0.688109 2.42943 0
M  V30 535 C 55.1966 3.00232 0.167664 0
M  V30 536 C 56.7446 3.12078 0.240107 0
M  V30 537 C 57.2196 4.57859 0.113513 0
M  V30 538 N 58.7106 4.62887 0.170359 0
M  V30 539 C 59.4456 5.73319 0.0962517 0
M  V30 540 N 58.9416 6.92794 -0.0291881 0
M  V30 541 N 60.7346 5.61898 0.150551 0
M  V30 542 H 52.8856 1.89923 -0.950956 0
M  V30 543 H 55.1486 0.873824 -0.367608 0
M  V30 544 H 54.8546 3.42501 -0.799102 0
M  V30 545 H 54.7286 3.654 0.936083 0
M  V30 546 H 57.1156 2.69718 1.19733 0
M  V30 547 H 57.1966 2.49623 -0.558763 0
M  V30 548 H 56.8406 5.009 -0.840314 0
M  V30 549 H 56.7706 5.18299 0.931302 0
M  V30 550 H 59.2616 3.76954 0.26728 0
M  V30 551 H 59.5746 7.7276 -0.0789252 0
M  V30 552 H 57.9196 6.94971 -0.0640299 0
M  V30 553 H 61.1106 4.67448 0.246981 0
M  V30 554 H 61.2836 6.47938 0.0893365 0
M  V30 555 N 54.6897 -0.239769 1.55765 0
M  V30 556 C 55.9357 -0.968234 1.78194 0
M  V30 557 C 56.2687 -1.84701 0.599938 0
M  V30 558 O 55.5437 -1.9031 -0.401524 0
M  V30 559 C 55.8267 -1.8227 3.10564 0
M  V30 560 C 55.6797 -0.971633 4.3918 0
M  V30 561 C 56.9987 -2.80388 3.39221 0
M  V30 562 H 54.1177 -0.350572 0.648281 0
M  V30 563 H 56.7597 -0.238259 1.885 0
M  V30 564 H 54.9097 -2.44507 3.01908 0
M  V30 565 H 56.5817 -0.367408 4.59835 0
M  V30 566 H 54.8247 -0.276276 4.32919 0
M  V30 567 H 55.4957 -1.60346 5.28198 0
M  V30 568 H 57.9717 -2.28287 3.47885 0
M  V30 569 H 56.8477 -3.3729 4.33044 0
M  V30 570 H 57.1087 -3.57212 2.60484 0
M  V30 571 N 56.1678 -1.49265 -0.50573 0
M  V30 572 C 57.4158 -1.582 -1.25766 0
M  V30 573 C 57.7368 -0.268482 -1.93143 0
M  V30 574 O 57.0068 0.711833 -1.8251 0
M  V30 575 H 55.5868 -0.582873 -0.467191 0
M  V30 576 H 58.2488 -1.85865 -0.586525 0
M  V30 577 H 57.3448 -2.37563 -2.02412 0
M  V30 578 N 57.6459 0.756429 -1.3826 0
M  V30 579 C 58.6089 1.85176 -1.35065 0
M  V30 580 C 59.6089 1.58818 -0.251703 0
M  V30 581 O 60.7989 1.66615 -0.508433 0
M  V30 582 C 57.9309 3.22596 -1.10201 0
M  V30 583 H 59.1239 1.89417 -2.3251 0
M  V30 584 H 56.6769 0.95783 -1.23512 0
M  V30 585 H 57.4119 3.24025 -0.133504 0
M  V30 586 H 57.1969 3.43122 -1.89762 0
M  V30 587 H 58.6869 4.02673 -1.10654 0
M  V30 588 N 59.124 1.23083 0.984299 0
M  V30 589 C 60.054 1.03292 2.09411 0
M  V30 590 C 61.035 -0.048923 1.7003 0
M  V30 591 O 62.22 0.114967 1.93859 0
M  V30 592 C 59.35 0.619155 3.41736 0
M  V30 593 C 58.304 1.64791 3.95004 0
M  V30 594 C 57.63 1.0897 5.23478 0
M  V30 595 C 58.93 3.03999 4.24714 0
M  V30 596 H 60.624 1.96119 2.26225 0
M  V30 597 H 58.17 0.944344 1.08711 0
M  V30 598 H 60.123 0.467777 4.18796 0
M  V30 599 H 58.847 -0.344786 3.24775 0
M  V30 600 H 57.506 1.78721 3.20085 0
M  V30 601 H 57.154 0.11686 5.02864 0
M  V30 602 H 56.854 1.77704 5.60085 0
M  V30 603 H 58.378 0.950093 6.03163 0
M  V30 604 H 59.792 2.93393 4.92538 0
M  V30 605 H 58.189 3.69936 4.72512 0
M  V30 606 H 59.259 3.53285 3.32142 0
M  V30 607 N 60.6021 -1.18246 1.0419 0
M  V30 608 C 61.5341 -2.2142 0.592088 0
M  V30 609 C 62.5471 -1.59233 -0.338909 0
M  V30 610 O 63.7361 -1.78002 -0.133231 0
M  V30 611 C 60.8361 -3.38546 -0.154854 0
M  V30 612 C 60.0091 -4.3031 0.784328 0
M  V30 613 C 59.0681 -5.26138 0.0804583 0
M  V30 614 O 58.0941 -5.64738 0.711292 0
M  V30 615 N 59.2961 -5.68261 -1.18574 0
M  V30 616 H 62.0611 -2.60636 1.47949 0
M  V30 617 H 59.6221 -1.33044 0.922544 0
M  V30 618 H 61.6141 -3.99678 -0.635606 0
M  V30 619 H 60.1841 -2.98012 -0.943811 0
M  V30 620 H 59.4041 -3.66764 1.44491 0
M  V30 621 H 60.6921 -4.8852 1.42218 0
M  V30 622 H 60.0901 -5.38957 -1.71876 0
M  V30 623 H 58.6471 -6.31584 -1.61074 0
M  V30 624 N 62.0802 -0.821533 -1.34494 0
M  V30 625 C 63.4962 -0.507117 -1.51329 0
M  V30 626 C 63.6962 0.968964 -1.76673 0
M  V30 627 O 62.7522 1.75348 -1.81685 0
M  V30 628 C 64.0652 -1.36544 -2.67911 0
M  V30 629 C 65.6132 -1.36242 -2.81793 0
M  V30 630 C 66.0882 -2.2052 -4.01416 0
M  V30 631 N 67.5792 -2.18136 -4.08621 0
M  V30 632 C 68.3142 -2.80095 -5.00334 0
M  V30 633 N 67.8102 -3.51039 -5.9728 0
M  V30 634 N 69.6032 -2.69656 -4.93196 0
M  V30 635 H 61.7542 -1.77729 -1.16302 0
M  V30 636 H 64.0172 -0.757291 -0.570276 0
M  V30 637 H 63.7232 -2.41361 -2.55808 0
M  V30 638 H 63.5972 -1.02917 -3.62888 0
M  V30 639 H 65.9842 -0.322041 -2.93338 0
M  V30 640 H 66.0652 -1.73866 -1.87628 0
M  V30 641 H 65.7092 -3.24607 -3.90631 0
M  V30 642 H 65.6392 -1.80247 -4.94791 0
M  V30 643 H 68.1302 -1.6653 -3.39229 0
M  V30 644 H 68.4432 -3.95565 -6.63889 0
M  V30 645 H 66.7882 -3.55145 -5.97409 0
M  V30 646 H 69.9792 -2.13808 -4.16418 0
M  V30 647 H 70.1522 -3.1823 -5.64476 0
M  V30 648 N 63.5583 1.46682 -0.576371 0
M  V30 649 C 64.4883 2.33028 0.148397 0
M  V30 650 C 65.4693 1.44961 0.889956 0
M  V30 651 O 66.6543 1.73789 0.866662 0
M  V30 652 C 63.7843 3.27117 1.1667 0
M  V30 653 C 62.7383 4.24575 0.540386 0
M  V30 654 C 62.0643 5.08126 1.6647 0
M  V30 655 C 63.3643 5.19722 -0.518331 0
M  V30 656 H 65.0583 2.93875 -0.572509 0
M  V30 657 H 62.6043 1.41315 -0.276768 0
M  V30 658 H 64.5573 3.86374 1.68204 0
M  V30 659 H 63.2813 2.64364 1.9178 0
M  V30 660 H 61.9403 3.66571 0.0461769 0
M  V30 661 H 61.5883 4.41762 2.40531 0
M  V30 662 H 61.2883 5.74122 1.25131 0
M  V30 663 H 62.8123 5.70246 2.18293 0
M  V30 664 H 64.2263 5.73232 -0.0883058 0
M  V30 665 H 62.6233 5.94026 -0.851679 0
M  V30 666 H 63.6933 4.64037 -1.40703 0
M  V30 667 N 65.0364 0.313813 1.54444 0
M  V30 668 C 65.9664 -0.549454 2.26943 0
M  V30 669 C 66.9474 -1.12741 1.27372 0
M  V30 670 O 68.1324 -1.15436 1.56167 0
M  V30 671 C 65.2624 -1.71523 3.01989 0
M  V30 672 C 64.2164 -1.26703 4.08816 0
M  V30 673 C 63.5424 -2.51898 4.71647 0
M  V30 674 C 64.8424 -0.388962 5.2085 0
M  V30 675 H 66.5364 0.0552661 2.99349 0
M  V30 676 H 64.0824 0.0280207 1.43973 0
M  V30 677 H 66.0354 -2.32535 3.51433 0
M  V30 678 H 64.7594 -2.34639 2.27183 0
M  V30 679 H 63.4184 -0.679896 3.6024 0
M  V30 680 H 63.0664 -3.13356 3.93468 0
M  V30 681 H 62.7664 -2.22605 5.43802 0
M  V30 682 H 64.2904 -3.1369 5.23861 0
M  V30 683 H 65.7044 -0.905107 5.6611 0
M  V30 684 H 64.1014 -0.18924 5.99802 0
M  V30 685 H 65.1714 0.582699 4.81386 0
M  V30 686 N 66.5145 -1.57545 0.0417849 0
M  V30 687 C 67.4465 -2.07904 -0.964799 0
M  V30 688 C 68.4595 -1.00497 -1.28079 0
M  V30 689 O 69.6485 -1.28087 -1.24322 0
M  V30 690 C 66.7485 -2.49928 -2.28887 0
M  V30 691 C 65.9215 -3.80562 -2.15619 0
M  V30 692 C 64.9805 -4.08999 -3.31069 0
M  V30 693 O 64.0065 -4.79061 -3.0739 0
M  V30 694 N 65.2085 -3.6017 -4.55256 0
M  V30 695 H 67.9735 -2.94886 -0.535029 0
M  V30 696 H 65.5345 -1.61252 -0.144681 0
M  V30 697 H 67.5265 -2.66034 -3.04972 0
M  V30 698 H 66.0965 -1.68245 -2.63463 0
M  V30 699 H 65.3165 -3.74129 -1.24183 0
M  V30 700 H 66.6045 -4.66126 -2.03971 0
M  V30 701 H 66.0025 -3.03512 -4.77386 0
M  V30 702 H 64.5595 -3.81532 -5.28466 0
M  V30 703 N 67.9926 0.231505 -1.5589 0
M  V30 704 C 69.2396 0.957352 -1.78441 0
M  V30 705 C 69.5676 1.84726 -0.60882 0
M  V30 706 O 68.8226 1.91416 0.40725 0
M  V30 707 C 69.1216 1.83577 -3.0665 0
M  V30 708 C 68.7876 1.09993 -4.37278 0
M  V30 709 C 67.4496 0.896629 -4.72773 0
M  V30 710 C 69.8016 0.579558 -5.17968 0
M  V30 711 C 67.1296 0.160896 -5.86479 0
M  V30 712 C 69.4816 -0.142783 -6.32439 0
M  V30 713 C 68.1456 -0.357427 -6.66542 0
M  V30 714 H 67.4156 0.35032 -0.65296 0
M  V30 715 H 70.0626 0.226259 -1.90159 0
M  V30 716 H 68.3676 2.63441 -2.90011 0
M  V30 717 H 70.0646 2.39934 -3.21298 0
M  V30 718 H 66.6546 1.26835 -4.09403 0
M  V30 719 H 70.8386 0.724125 -4.90989 0
M  V30 720 H 66.0946 -0.0157293 -6.11398 0
M  V30 721 H 70.2686 -0.553559 -6.94196 0
M  V30 722 H 67.8956 -0.929466 -7.54497 0
M  V30 723 N 69.4707 1.49531 0.497807 0
M  V30 724 C 70.7187 1.58865 1.24926 0
M  V30 725 C 71.0397 0.278721 1.92998 0
M  V30 726 O 70.3097 -0.702144 1.82885 0
M  V30 727 H 68.8897 0.585343 0.464094 0
M  V30 728 H 71.5517 1.86174 0.57666 0
M  V30 729 H 70.6477 2.38633 2.01149 0
M  V30 730 N 70.9488 -0.749086 1.3866 0
M  V30 731 C 72.1978 -1.50371 1.3443 0
M  V30 732 C 72.5108 -1.95503 -0.0616397 0
M  V30 733 O 73.7168 -2.70554 -0.226489 0
M  V30 734 C 72.1728 -2.71644 2.36088 0
M  V30 735 C 71.7808 -2.3352 3.82325 0
M  V30 736 C 73.5248 -3.49518 2.40909 0
M  V30 737 C 71.4318 -3.51431 4.75658 0
M  V30 738 H 70.3618 -0.564628 0.499712 0
M  V30 739 H 73.0128 -0.818449 1.64237 0
M  V30 740 H 71.3948 -3.42175 1.9933 0
M  V30 741 H 72.5688 -1.70627 4.28046 0
M  V30 742 H 70.8838 -1.6877 3.80665 0
M  V30 743 H 73.4808 -4.37197 3.07836 0
M  V30 744 H 73.8238 -3.90992 1.42937 0
M  V30 745 H 74.3568 -2.86005 2.76489 0
M  V30 746 H 71.0958 -3.15019 5.74842 0
M  V30 747 H 70.6158 -4.13352 4.34627 0
M  V30 748 H 72.2948 -4.17953 4.93887 0
M  V30 749 N 72.4269 -1.23603 -0.977757 0
M  V30 750 C 73.6729 -1.07129 -1.72195 0
M  V30 751 C 74.0059 0.390501 -1.90233 0
M  V30 752 O 73.2809 1.28902 -1.45653 0
M  V30 753 C 73.5639 -1.80031 -3.11867 0
M  V30 754 C 73.4169 -3.33899 -3.01383 0
M  V30 755 C 74.7359 -1.56492 -4.11337 0
M  V30 756 H 71.8549 -0.390571 -0.624999 0
M  V30 757 H 74.4969 -1.52142 -1.13811 0
M  V30 758 H 72.6469 -1.41768 -3.6171 0
M  V30 759 H 74.3189 -3.81699 -2.59043 0
M  V30 760 H 72.5619 -3.62796 -2.37827 0
M  V30 761 H 73.2329 -3.801 -4.00285 0
M  V30 762 H 75.7089 -1.89757 -3.70313 0
M  V30 763 H 74.5849 -2.09973 -5.07151 0
M  V30 764 H 74.8459 -0.500874 -4.39254 0
M  V30 765 N 73.905 1.17692 -1.04816 0
M  V30 766 C 75.151 1.88137 -0.75711 0
M  V30 767 C 75.484 1.80604 0.713841 0
M  V30 768 O 74.759 1.21146 1.52164 0
M  V30 769 C 75.042 3.38318 -1.2334 0
M  V30 770 C 74.895 3.54622 -2.76701 0
M  V30 771 C 76.214 4.32214 -0.829415 0
M  V30 772 H 73.333 0.683163 -0.27651 0
M  V30 773 H 75.975 1.38424 -1.30149 0
M  V30 774 H 74.125 3.80787 -0.770286 0
M  V30 775 H 75.797 3.21194 -3.31107 0
M  V30 776 H 74.04 2.97026 -3.16161 0
M  V30 777 H 74.711 4.60028 -3.05088 0
M  V30 778 H 77.187 3.97565 -1.22805 0
M  V30 779 H 76.063 5.35838 -1.19033 0
M  V30 780 H 76.324 4.41294 0.266891 0
M  V30 781 N 75.3831 0.828654 1.34056 0
M  V30 782 C 76.6131 0.431993 2.02033 0
M  V30 783 C 77.0211 -0.96844 1.62536 0
M  V30 784 O 76.3641 -1.6391 0.829408 0
M  V30 785 C 76.4261 0.461224 3.56529 0
M  V30 786 C 76.0901 1.81599 4.1937 0
M  V30 787 C 77.0871 2.7777 4.39477 0
M  V30 788 C 74.7721 2.10604 4.56017 0
M  V30 789 C 76.7661 4.01115 4.95364 0
M  V30 790 C 74.4531 3.34207 5.11614 0
M  V30 791 C 75.4511 4.2928 5.31232 0
M  V30 792 O 75.1391 5.50699 5.8565 0
M  V30 793 H 74.8711 0.170943 0.654029 0
M  V30 794 H 77.4251 1.11988 1.72185 0
M  V30 795 H 75.6551 -0.283388 3.8566 0
M  V30 796 H 77.3441 0.0838149 4.05813 0
M  V30 797 H 78.1101 2.56659 4.11523 0
M  V30 798 H 73.9891 1.37402 4.40047 0
M  V30 799 H 77.5331 4.75333 5.10592 0
M  V30 800 H 73.4301 3.55179 5.38997 0
M  V30 801 H 74.1981 5.52298 6.04077 0
M  V30 802 N 76.8612 -1.46375 0.584142 0
M  V30 803 C 78.1072 -2.02678 0.0703716 0
M  V30 804 C 78.4402 -1.4545 -1.28678 0
M  V30 805 O 77.7152 -0.62014 -1.84349 0
M  V30 806 C 77.9982 -3.60099 0.00614674 0
M  V30 807 C 77.8512 -4.27709 1.3923 0
M  V30 808 C 79.1702 -4.34598 -0.693742 0
M  V30 809 H 76.2892 -0.736504 0.027047 0
M  V30 810 H 78.9312 -1.74501 0.751615 0
M  V30 811 H 77.0812 -3.84236 -0.574009 0
M  V30 812 H 78.7532 -4.14832 2.01773 0
M  V30 813 H 76.9962 -3.87016 1.95962 0
M  V30 814 H 77.6672 -5.36478 1.29982 0
M  V30 815 H 80.1432 -4.15615 -0.200869 0
M  V30 816 H 79.0192 -5.44318 -0.707714 0
M  V30 817 H 79.2802 -4.05759 -1.75533 0
M  V30 818 N 78.3393 -0.321999 -1.54275 0
M  V30 819 C 79.5853 0.281461 -2.00837 0
M  V30 820 C 79.9183 1.51909 -1.20985 0
M  V30 821 O 79.1933 1.923 -0.291733 0
M  V30 822 C 79.4763 0.617162 -3.54772 0
M  V30 823 C 79.3293 -0.631064 -4.45351 0
M  V30 824 C 80.6483 1.43542 -4.16033 0
M  V30 825 H 77.7673 0.100826 -0.730071 0
M  V30 826 H 80.4093 -0.438268 -1.84876 0
M  V30 827 H 78.5593 1.23034 -3.68504 0
M  V30 828 H 80.2313 -1.26934 -4.43492 0
M  V30 829 H 78.4743 -1.26025 -4.15091 0
M  V30 830 H 79.1453 -0.351735 -5.50878 0
M  V30 831 H 81.6213 0.917134 -4.05867 0
M  V30 832 H 80.4973 1.63907 -5.23856 0
M  V30 833 H 80.7583 2.43108 -3.69257 0
M  V30 834 N 79.8174 1.5752 -0.0501392 0
M  V30 835 C 81.0654 1.9227 0.622642 0
M  V30 836 C 81.3864 0.929083 1.71444 0
M  V30 837 O 80.6564 -0.0262186 1.95882 0
M  V30 838 H 79.2364 0.709739 0.232981 0
M  V30 839 H 81.8984 1.94628 -0.102898 0
M  V30 840 H 80.9944 2.93479 1.06191 0
M  V30 841 N 81.2955 -0.223234 1.56011 0
M  V30 842 C 82.5415 -0.944891 1.8012 0
M  V30 843 C 82.8965 -1.82039 0.622862 0
M  V30 844 O 82.1895 -1.8773 -0.383143 0
M  V30 845 C 82.3835 -1.81948 3.0762 0
M  V30 846 C 82.2125 -1.03014 4.37742 0
M  V30 847 C 80.9825 -0.72574 5.00061 0
M  V30 848 C 83.1805 -0.396256 5.12771 0
M  V30 849 N 81.1625 0.0851816 6.13841 0
M  V30 850 C 82.5335 0.278137 6.19376 0
M  V30 851 C 84.5885 -0.309117 4.9694 0
M  V30 852 C 83.2915 1.03133 7.11868 0
M  V30 853 C 85.3175 0.430607 5.8983 0
M  V30 854 C 84.6795 1.09355 6.9586 0
M  V30 855 H 80.7785 -0.326081 0.710771 0
M  V30 856 H 83.3625 -0.215914 1.93499 0
M  V30 857 H 81.5335 -2.52029 2.95527 0
M  V30 858 H 83.2655 -2.47848 3.19927 0
M  V30 859 H 80.0205 -1.04335 4.61964 0
M  V30 860 H 80.4445 0.479428 6.753 0
M  V30 861 H 85.0865 -0.807313 4.15021 0
M  V30 862 H 82.8045 1.54105 7.9327 0
M  V30 863 H 86.3905 0.499012 5.79656 0
M  V30 864 H 85.2705 1.65679 7.66499 0
M  V30 865 N 82.7736 -1.49793 -0.48987 0
M  V30 866 C 83.7366 -1.66752 -1.57246 0
M  V30 867 C 84.7366 -0.538867 -1.51502 0
M  V30 868 O 85.9266 -0.805545 -1.54456 0
M  V30 869 C 83.0586 -1.67528 -2.96896 0
M  V30 870 H 84.2516 -2.63321 -1.43534 0
M  V30 871 H 81.8046 -1.38992 -0.714914 0
M  V30 872 H 82.5396 -0.725837 -3.16073 0
M  V30 873 H 82.3246 -2.49504 -3.02473 0
M  V30 874 H 83.8146 -1.82667 -3.7553 0
M  V30 875 N 84.2517 0.741722 -1.39055 0
M  V30 876 C 85.1817 1.869 -1.39966 0
M  V30 877 C 86.1627 1.6804 -0.26392 0
M  V30 878 O 87.3477 1.88458 -0.468755 0
M  V30 879 C 84.4777 3.24572 -1.23574 0
M  V30 880 C 83.4317 3.58056 -2.34477 0
M  V30 881 C 82.7577 4.94593 -2.0318 0
M  V30 882 C 84.0577 3.61716 -3.76774 0
M  V30 883 H 85.7517 1.86395 -2.34302 0
M  V30 884 H 83.2977 0.895361 -1.1278 0
M  V30 885 H 85.2507 4.031 -1.22834 0
M  V30 886 H 83.9747 3.25587 -0.257045 0
M  V30 887 H 82.6337 2.81854 -2.34423 0
M  V30 888 H 82.2817 4.92181 -1.03765 0
M  V30 889 H 81.9817 5.17964 -2.77465 0
M  V30 890 H 83.5057 5.75486 -2.04079 0
M  V30 891 H 84.9197 4.30335 -3.78794 0
M  V30 892 H 83.3167 3.96603 -4.50362 0
M  V30 893 H 84.3867 2.61672 -4.08235 0
M  V30 894 N 85.7298 1.2412 0.971189 0
M  V30 895 C 86.6598 1.05508 2.08304 0
M  V30 896 C 87.6408 -0.0308864 1.70072 0
M  V30 897 O 88.8258 0.135521 1.93727 0
M  V30 898 C 85.9558 0.655365 3.4106 0
M  V30 899 C 84.9098 1.68971 3.93234 0
M  V30 900 C 84.2358 1.14516 5.22293 0
M  V30 901 C 85.5358 3.08487 4.21465 0
M  V30 902 H 87.2298 1.98507 2.24132 0
M  V30 903 H 84.7758 0.955821 1.07704 0
M  V30 904 H 86.7288 0.51217 4.18276 0
M  V30 905 H 85.4528 -0.31032 3.25122 0
M  V30 906 H 84.1118 1.82106 3.18171 0
M  V30 907 H 83.7598 0.170189 5.02712 0
M  V30 908 H 83.4598 1.83635 5.58168 0
M  V30 909 H 84.9838 1.01401 6.02121 0
M  V30 910 H 86.3978 2.98601 4.89398 0
M  V30 911 H 84.7948 3.74926 4.68562 0
M  V30 912 H 85.8648 3.56787 3.28376 0
M  V30 913 N 87.2079 -1.17134 1.05439 0
M  V30 914 C 88.1709 -2.19439 0.661764 0
M  V30 915 C 89.1709 -1.58199 -0.288042 0
M  V30 916 O 90.3609 -1.74053 -0.0715803 0
M  V30 917 C 87.4929 -3.40889 -0.0276209 0
M  V30 918 H 88.6859 -2.55688 1.56728 0
M  V30 919 H 86.2389 -1.31259 0.848567 0
M  V30 920 H 86.9739 -3.10187 -0.94629 0
M  V30 921 H 86.7589 -3.86586 0.655238 0
M  V30 922 H 88.2489 -4.16603 -0.288342 0
M  V30 923 N 88.686 -0.835752 -1.33615 0
M  V30 924 C 89.633 -0.26473 -2.29277 0
M  V30 925 C 90.603 0.617712 -1.54187 0
M  V30 926 O 91.788 0.556641 -1.825 0
M  V30 927 C 88.928 0.556777 -3.40579 0
M  V30 928 C 88.041 -0.349339 -4.30585 0
M  V30 929 C 87.176 0.482969 -5.29 0
M  V30 930 C 86.215 -0.421732 -6.10645 0
M  V30 931 N 85.352 0.372262 -7.01112 0
M  V30 932 H 90.192 -1.08582 -2.77514 0
M  V30 933 H 87.729 -0.546927 -1.36554 0
M  V30 934 H 89.687 1.04852 -4.03809 0
M  V30 935 H 88.317 1.34286 -2.93542 0
M  V30 936 H 87.369 -0.959372 -3.68104 0
M  V30 937 H 88.681 -1.04445 -4.87742 0
M  V30 938 H 87.835 1.03866 -5.97743 0
M  V30 939 H 86.574 1.21153 -4.72412 0
M  V30 940 H 85.579 -0.989464 -5.40823 0
M  V30 941 H 86.804 -1.14861 -6.69316 0
M  V30 942 H 84.75 1.08426 -6.46977 0
M  V30 943 H 84.667 -0.264198 -7.55538 0
M  V30 944 H 85.935 0.910293 -7.74167 0
M  V30 945 N 90.1641 1.46063 -0.591896 0
M  V30 946 C 91.1111 2.30399 0.136069 0
M  V30 947 C 92.0811 1.41169 0.875238 0
M  V30 948 O 93.2661 1.70112 0.86409 0
M  V30 949 C 90.4061 3.25804 1.13781 0
M  V30 950 C 89.5191 4.30134 0.401137 0
M  V30 951 C 88.6541 5.12659 1.39121 0
M  V30 952 C 87.6931 6.0873 0.641462 0
M  V30 953 N 86.8301 6.8409 1.58004 0
M  V30 954 H 91.6701 2.92118 -0.589144 0
M  V30 955 H 89.2071 1.43959 -0.302342 0
M  V30 956 H 91.1651 3.79569 1.73156 0
M  V30 957 H 89.7951 2.65872 1.83062 0
M  V30 958 H 88.8471 3.79152 -0.307826 0
M  V30 959 H 90.1591 4.98458 -0.184565 0
M  V30 960 H 89.3131 5.70747 2.05749 0
M  V30 961 H 88.0521 4.44316 2.01084 0
M  V30 962 H 87.0571 5.49786 -0.0385419 0
M  V30 963 H 88.2821 6.79095 0.0270945 0
M  V30 964 H 86.2281 6.18449 2.18761 0
M  V30 965 H 86.1451 7.48709 1.04738 0
M  V30 966 H 87.4131 7.4673 2.23639 0
M  V30 967 N 91.6422 0.330177 1.54103 0
M  V30 968 C 92.8902 -0.269871 2.0029 0
M  V30 969 C 93.2112 -1.52133 1.21986 0
M  V30 970 O 92.4812 -1.93212 0.323438 0
M  V30 971 H 91.0612 -0.10271 0.739905 0
M  V30 972 H 93.7232 0.448249 1.89675 0
M  V30 973 H 92.8192 -0.52166 3.07709 0
M  V30 974 N 93.1203 -1.57491 0.0584922 0
M  V30 975 C 94.3503 -1.9701 -0.622134 0
M  V30 976 C 94.7583 -0.935034 -1.6448 0
M  V30 977 O 94.1013 0.0882904 -1.83488 0
M  V30 978 C 94.1633 -3.32794 -1.35972 0
M  V30 979 C 93.8273 -4.54343 -0.492043 0
M  V30 980 C 94.8243 -5.19323 0.244901 0
M  V30 981 C 92.5093 -5.00534 -0.420821 0
M  V30 982 C 94.5033 -6.28835 1.04143 0
M  V30 983 C 92.1903 -6.09921 0.379389 0
M  V30 984 C 93.1883 -6.73933 1.10919 0
M  V30 985 O 92.8763 -7.81216 1.89623 0
M  V30 986 H 92.6083 -0.653127 -0.174359 0
M  V30 987 H 95.1623 -2.05029 0.123418 0
M  V30 988 H 93.3923 -3.21351 -2.15105 0
M  V30 989 H 95.0813 -3.5701 -1.93129 0
M  V30 990 H 95.8473 -4.8459 0.19939 0
M  V30 991 H 91.7263 -4.50496 -0.978474 0
M  V30 992 H 95.2703 -6.7873 1.61157 0
M  V30 993 H 91.1673 -6.44089 0.426512 0
M  V30 994 H 91.9353 -7.98029 1.81913 0
M  V30 995 N 94.5984 0.214957 -1.56127 0
M  V30 996 C 95.5304 1.29004 -1.89448 0
M  V30 997 C 96.5434 1.42716 -0.783326 0
M  V30 998 O 97.7324 1.43496 -1.06166 0
M  V30 999 C 94.8324 2.66482 -2.09381 0
M  V30 1000 C 94.0054 2.74633 -3.40434 0
M  V30 1001 C 93.0644 3.9317 -3.49719 0
M  V30 1002 O 92.0904 3.812 -4.227 0
M  V30 1003 N 93.2924 5.07765 -2.81346 0
M  V30 1004 H 96.0574 1.00743 -2.82261 0
M  V30 1005 H 93.6184 0.40497 -1.56753 0
M  V30 1006 H 95.6104 3.44173 -2.12901 0
M  V30 1007 H 94.1804 2.87314 -1.23163 0
M  V30 1008 H 93.4004 1.83368 -3.48955 0
M  V30 1009 H 94.6884 2.77054 -4.26754 0
M  V30 1010 H 94.0864 5.20386 -2.21843 0
M  V30 1011 H 92.6434 5.83474 -2.90519 0
M  V30 1012 N 96.0765 1.50051 0.48192 0
M  V30 1013 C 96.9865 1.7089 1.60728 0
M  V30 1014 C 98.0025 0.591788 1.63627 0
M  V30 1015 O 99.1785 0.868817 1.81696 0
M  V30 1016 C 96.2435 1.78855 2.97005 0
M  V30 1017 C 95.3045 3.02537 3.04581 0
M  V30 1018 C 94.5375 3.10112 4.34357 0
M  V30 1019 O 94.7605 2.24765 5.24249 0
M  V30 1020 O 93.6945 4.02747 4.47301 0
M  V30 1021 H 97.5205 2.66264 1.46072 0
M  V30 1022 H 95.1055 1.34018 0.660264 0
M  V30 1023 H 96.9875 1.86336 3.77964 0
M  V30 1024 H 95.6625 0.866628 3.11883 0
M  V30 1025 H 94.5695 3.00563 2.22739 0
M  V30 1026 H 95.9025 3.94272 2.94636 0
M  V30 1027 N 97.5546 -0.734337 1.39446 0
M  V30 1028 C 98.9706 -1.03997 1.21065 0
M  V30 1029 C 99.1706 -2.01369 0.0727019 0
M  V30 1030 O 98.2266 -2.45856 -0.575426 0
M  V30 1031 C 99.5396 -1.60163 2.54496 0
M  V30 1032 C 101.088 -1.7224 2.61347 0
M  V30 1033 C 101.563 -2.31814 3.95002 0
M  V30 1034 N 103.054 -2.39223 3.96644 0
M  V30 1035 C 103.789 -2.86258 4.96834 0
M  V30 1036 N 103.285 -3.33184 6.07421 0
M  V30 1037 N 105.078 -2.85473 4.84213 0
M  V30 1038 H 97.2286 -0.0885624 2.12215 0
M  V30 1039 H 99.4916 -0.10191 0.942506 0
M  V30 1040 H 99.1976 -0.960811 3.38321 0
M  V30 1041 H 99.0716 -2.5896 2.74262 0
M  V30 1042 H 101.459 -2.35443 1.77906 0
M  V30 1043 H 101.54 -0.720939 2.4543 0
M  V30 1044 H 101.184 -1.69238 4.78875 0
M  V30 1045 H 101.114 -3.32638 4.08239 0
M  V30 1046 H 103.605 -2.06057 3.16779 0
M  V30 1047 H 103.918 -3.67586 6.7978 0
M  V30 1048 H 102.263 -3.31191 6.11013 0
M  V30 1049 H 105.454 -2.48136 3.96921 0
M  V30 1050 H 105.627 -3.21814 5.62441 0
M  V30 1051 N 99.0327 -1.24633 -0.964593 0
M  V30 1052 C 100.31 -0.995809 -1.68354 0
M  V30 1053 C 100.69 0.480964 -2.05548 0
M  V30 1054 O 100.038 1.45599 -1.76105 0
M  V30 1055 C 100.248 -1.92177 -2.91323 0
M  V30 1056 C 101.596 -2.19446 -3.63495 0
M  V30 1057 O 102.62 -1.89855 -3.01386 0
M  V30 1058 O 101.479 -2.69714 -4.75307 0
M  V30 1059 H 98.5727 -0.376854 -0.736146 0
M  V30 1060 H 101.119 -1.35745 -1.0184 0
M  V30 1061 H 99.8907 -2.91938 -2.60553 0
M  V30 1062 H 99.5137 -1.56349 -3.65569 0
M  V30 1063 N 100.511 1.16574 -1.06058 0
M  V30 1064 C 101.441 2.23057 -0.690488 0
M  V30 1065 C 102.422 1.67141 0.315901 0
M  V30 1066 O 103.607 1.93253 0.191556 0
M  V30 1067 C 100.737 3.47222 -0.073625 0
M  V30 1068 C 99.6908 4.16016 -1.00573 0
M  V30 1069 C 99.0168 5.34104 -0.252289 0
M  V30 1070 C 100.317 4.67264 -2.33371 0
M  V30 1071 H 102.011 2.54271 -1.58072 0
M  V30 1072 H 99.5568 1.22218 -0.76149 0
M  V30 1073 H 101.51 4.20939 0.19714 0
M  V30 1074 H 100.234 3.15302 0.85161 0
M  V30 1075 H 98.8928 3.44223 -1.2612 0
M  V30 1076 H 98.5408 4.98437 0.675988 0
M  V30 1077 H 98.2408 5.81072 -0.873455 0
M  V30 1078 H 99.7648 6.10599 0.0109857 0
M  V30 1079 H 101.179 5.32573 -2.12223 0
M  V30 1080 H 99.5758 5.24843 -2.90963 0
M  V30 1081 H 100.646 3.83602 -2.96611 0
M  V30 1082 N 101.989 0.842826 1.3317 0
M  V30 1083 C 102.899 0.281444 2.32906 0
M  V30 1084 C 103.915 -0.594587 1.63526 0
M  V30 1085 O 105.091 -0.49777 1.95152 0
M  V30 1086 C 102.156 -0.530929 3.42611 0
M  V30 1087 C 101.217 0.369843 4.27704 0
M  V30 1088 C 100.45 -0.403853 5.3217 0
M  V30 1089 O 100.673 -1.63513 5.46461 0
M  V30 1090 O 99.6069 0.224199 6.01482 0
M  V30 1091 H 103.433 1.10744 2.82789 0
M  V30 1092 H 101.018 0.60545 1.36582 0
M  V30 1093 H 102.9 -0.992437 4.09547 0
M  V30 1094 H 101.575 -1.33392 2.94938 0
M  V30 1095 H 100.482 0.879275 3.6362 0
M  V30 1096 H 101.815 1.13771 4.78871 0
M  V30 1097 N 103.467 -1.45747 0.599634 0
M  V30 1098 C 104.878 -1.85853 0.177681 0
M  V30 1099 C 105.229 -1.50102 -1.26348 0
M  V30 1100 O 104.354 -0.923905 -1.95686 0
M  V30 1101 C 104.949 -3.37326 0.315688 0
M  V30 1102 C 103.508 -3.76365 -0.0515144 0
M  V30 1103 C 102.655 -2.69722 0.643822 0
M  V30 1104 H 105.606 -1.36661 0.806814 0
M  V30 1105 H 105.627 -3.77778 -0.454321 0
M  V30 1106 H 105.139 -3.63315 1.36468 0
M  V30 1107 H 103.24 -3.55993 -1.09999 0
M  V30 1108 H 103.353 -4.77916 0.336594 0
M  V30 1109 H 101.717 -2.54567 0.0822881 0
M  V30 1110 H 102.5 -2.98549 1.6948 0
M  V30 1111 N 104.945 -0.338344 -1.53925 0
M  V30 1112 C 105.877 0.555117 -2.22376 0
M  V30 1113 C 106.89 1.06812 -1.22862 0
M  V30 1114 O 108.079 0.979163 -1.49247 0
M  V30 1115 C 105.179 1.77609 -2.88631 0
M  V30 1116 C 104.352 1.39927 -4.14414 0
M  V30 1117 C 103.411 2.47936 -4.64127 0
M  V30 1118 O 102.437 2.11461 -5.28463 0
M  V30 1119 N 103.639 3.79107 -4.39612 0
M  V30 1120 H 106.404 -0.0310778 -2.99684 0
M  V30 1121 H 103.965 -0.162226 -1.61085 0
M  V30 1122 H 105.957 2.49287 -3.18807 0
M  V30 1123 H 104.527 2.26978 -2.14941 0
M  V30 1124 H 103.747 0.513481 -3.90841 0
M  V30 1125 H 105.035 1.12341 -4.96243 0
M  V30 1126 H 104.433 4.11531 -3.88148 0
M  V30 1127 H 102.99 4.4697 -4.74406 0
M  V30 1128 N 106.423 1.57458 -0.0668435 0
M  V30 1129 C 107.67 1.93301 0.603406 0
M  V30 1130 C 107.998 0.946486 1.69917 0
M  V30 1131 O 107.253 -0.0387021 1.95662 0
M  V30 1132 C 107.552 3.35784 1.22409 0
M  V30 1133 C 107.218 4.50179 0.254955 0
M  V30 1134 C 105.88 4.81199 -0.0116746 0
M  V30 1135 C 108.232 5.19598 -0.408338 0
M  V30 1136 C 105.56 5.78978 -0.94877 0
M  V30 1137 C 107.912 6.18381 -1.33372 0
M  V30 1138 C 106.576 6.47821 -1.60887 0
M  V30 1139 H 105.846 0.707338 0.220802 0
M  V30 1140 H 108.493 1.91012 -0.136665 0
M  V30 1141 H 106.798 3.34515 2.03978 0
M  V30 1142 H 108.495 3.60804 1.74989 0
M  V30 1143 H 105.085 4.25983 0.472954 0
M  V30 1144 H 109.269 4.95832 -0.215456 0
M  V30 1145 H 104.525 6.00115 -1.16925 0
M  V30 1146 H 108.699 6.71277 -1.85367 0
M  V30 1147 H 106.326 7.23399 -2.33661 0
M  V30 1148 N 107.901 -0.206675 1.56239 0
M  V30 1149 C 109.126 -0.949474 1.8439 0
M  V30 1150 C 109.551 -1.76549 0.649016 0
M  V30 1151 O 108.909 -1.76782 -0.402231 0
M  V30 1152 C 108.957 -1.83078 3.10668 0
M  V30 1153 O 108.061 -2.9281 2.90407 0
M  V30 1154 H 107.402 -0.268033 0.607499 0
M  V30 1155 H 109.932 -0.215488 2.03462 0
M  V30 1156 H 109.942 -2.2377 3.41161 0
M  V30 1157 H 108.617 -1.23112 3.97261 0
M  V30 1158 H 107.194 -2.55956 2.71184 0
M  V30 1159 N 109.379 -1.50304 -0.473955 0
M  V30 1160 C 110.628 -1.60392 -1.22301 0
M  V30 1161 C 110.941 -0.308411 -1.93153 0
M  V30 1162 O 112.147 -0.288156 -2.69966 0
M  V30 1163 C 110.603 -2.83109 -2.2221 0
M  V30 1164 C 110.211 -4.19524 -1.57173 0
M  V30 1165 C 111.955 -3.0254 -2.97775 0
M  V30 1166 C 109.862 -5.33431 -2.55353 0
M  V30 1167 H 108.792 -0.597286 -0.460179 0
M  V30 1168 H 111.443 -1.76731 -0.493803 0
M  V30 1169 H 109.825 -2.60322 -2.9841 0
M  V30 1170 H 110.999 -4.52554 -0.867824 0
M  V30 1171 H 109.314 -4.05674 -0.939002 0
M  V30 1172 H 111.911 -3.84811 -3.71248 0
M  V30 1173 H 112.254 -2.14154 -3.56992 0
M  V30 1174 H 112.787 -3.25494 -2.28688 0
M  V30 1175 H 109.526 -6.23962 -2.00878 0
M  V30 1176 H 109.046 -5.04823 -3.23904 0
M  V30 1177 H 110.725 -5.63887 -3.17239 0
M  V30 1178 N 110.857 0.726932 -1.39834 0
M  V30 1179 C 112.106 1.48214 -1.36805 0
M  V30 1180 C 112.419 1.95576 0.0305291 0
M  V30 1181 O 113.625 2.7088 0.183417 0
M  V30 1182 C 112.081 2.67854 -2.40379 0
M  V30 1183 C 111.689 2.27408 -3.85992 0
M  V30 1184 C 113.433 3.45641 -2.46439 0
M  V30 1185 C 111.34 3.43819 -4.81189 0
M  V30 1186 H 110.27 0.556606 -0.508631 0
M  V30 1187 H 112.921 0.792216 -1.65518 0
M  V30 1188 H 111.303 3.3896 -2.04749 0
M  V30 1189 H 112.477 1.63795 -4.30706 0
M  V30 1190 H 110.792 1.62692 -3.83302 0
M  V30 1191 H 113.389 4.32244 -3.14753 0
M  V30 1192 H 113.732 3.88669 -1.49139 0
M  V30 1193 H 114.265 2.8157 -2.81004 0
M  V30 1194 H 111.004 3.05834 -5.79781 0
M  V30 1195 H 110.524 4.06385 -4.41148 0
M  V30 1196 H 112.203 4.10043 -5.00474 0
M  V30 1197 N 112.336 1.25143 0.95797 0
M  V30 1198 C 113.564 1.12424 1.73691 0
M  V30 1199 C 113.979 -0.322304 1.86029 0
M  V30 1200 O 113.336 -1.22186 1.35561 0
M  V30 1201 C 113.387 1.76933 3.15241 0
M  V30 1202 O 113.108 3.15932 3.03511 0
M  V30 1203 C 114.609 1.6995 4.09429 0
M  V30 1204 H 111.829 0.3923 0.544373 0
M  V30 1205 H 114.373 1.6544 1.20207 0
M  V30 1206 H 112.528 1.27895 3.6568 0
M  V30 1207 H 112.942 3.47598 3.9278 0
M  V30 1208 H 114.416 2.19753 5.06372 0
M  V30 1209 H 114.893 0.662619 4.34173 0
M  V30 1210 H 115.499 2.18461 3.64904 0
M  V30 1211 N 113.814 -1.1601 1.06675 0
M  V30 1212 C 114.761 -2.20525 0.680967 0
M  V30 1213 C 115.731 -1.62904 -0.324283 0
M  V30 1214 O 116.916 -1.89615 -0.212294 0
M  V30 1215 C 114.056 -3.45013 0.0776551 0
M  V30 1216 C 113.169 -4.16863 1.13355 0
M  V30 1217 C 112.304 -5.2888 0.49597 0
M  V30 1218 C 111.343 -5.92537 1.53513 0
M  V30 1219 N 110.48 -6.96038 0.920631 0
M  V30 1220 H 115.32 -2.52876 1.57663 0
M  V30 1221 H 112.857 -1.24199 0.788223 0
M  V30 1222 H 114.815 -4.16193 -0.289704 0
M  V30 1223 H 113.445 -3.132 -0.781393 0
M  V30 1224 H 112.497 -3.44248 1.61857 0
M  V30 1225 H 113.809 -4.60294 1.92174 0
M  V30 1226 H 112.963 -6.06653 0.0758604 0
M  V30 1227 H 111.702 -4.86622 -0.324062 0
M  V30 1228 H 110.707 -5.13482 1.9651 0
M  V30 1229 H 111.932 -6.36873 2.35733 0
M  V30 1230 H 109.878 -6.55888 0.12138 0
M  V30 1231 H 109.795 -7.3786 1.64616 0
M  V30 1232 H 111.063 -7.77725 0.525795 0
M  V30 1233 N 115.292 -0.849877 -1.32721 0
M  V30 1234 C 116.222 -0.306308 -2.31482 0
M  V30 1235 C 117.203 0.591952 -1.59468 0
M  V30 1236 O 118.388 0.513199 -1.87296 0
M  V30 1237 C 115.518 0.510204 -3.43532 0
M  V30 1238 C 114.472 -0.293209 -4.26994 0
M  V30 1239 C 113.798 0.647743 -5.30762 0
M  V30 1240 C 115.098 -1.51634 -4.99804 0
M  V30 1241 H 116.792 -1.13153 -2.77195 0
M  V30 1242 H 114.338 -0.545553 -1.33266 0
M  V30 1243 H 116.291 0.900856 -4.11658 0
M  V30 1244 H 115.015 1.36874 -2.96535 0
M  V30 1245 H 113.674 -0.665555 -3.60508 0
M  V30 1246 H 113.322 1.50299 -4.8002 0
M  V30 1247 H 113.022 0.11422 -5.87489 0
M  V30 1248 H 114.546 1.03567 -6.01753 0
M  V30 1249 H 115.96 -1.19824 -5.60638 0
M  V30 1250 H 114.357 -1.98745 -5.66234 0
M  V30 1251 H 115.427 -2.28018 -4.27943 0
M  V30 1252 N 116.77 1.45427 -0.607355 0
M  V30 1253 C 117.717 2.3053 0.111625 0
M  V30 1254 C 118.687 1.4209 0.860216 0
M  V30 1255 O 119.872 1.71019 0.845998 0
M  V30 1256 C 117.012 3.26992 1.10319 0
M  V30 1257 C 116.125 4.30535 0.355493 0
M  V30 1258 C 115.26 5.14105 1.33676 0
M  V30 1259 C 114.299 6.09376 0.576862 0
M  V30 1260 N 113.436 6.85727 1.5074 0
M  V30 1261 H 118.276 2.91477 -0.620093 0
M  V30 1262 H 115.813 1.43631 -0.317594 0
M  V30 1263 H 117.771 3.81385 1.6912 0
M  V30 1264 H 116.401 2.67799 1.80232 0
M  V30 1265 H 115.453 3.78805 -0.348023 0
M  V30 1266 H 116.765 4.98235 -0.237423 0
M  V30 1267 H 115.919 5.72897 1.99684 0
M  V30 1268 H 114.658 4.46423 1.9636 0
M  V30 1269 H 113.663 5.49715 -0.0968519 0
M  V30 1270 H 114.888 6.79085 -0.0449341 0
M  V30 1271 H 112.834 6.20735 2.12189 0
M  V30 1272 H 112.751 7.49778 0.967913 0
M  V30 1273 H 114.019 7.4906 2.15706 0
M  V30 1274 N 118.248 0.346503 1.53744 0
M  V30 1275 C 119.496 -0.248612 2.00565 0
M  V30 1276 C 119.817 -1.5083 1.23593 0
M  V30 1277 O 119.087 -1.92858 0.343912 0
M  V30 1278 H 117.667 -0.0948564 0.740953 0
M  V30 1279 H 120.329 0.468341 1.89189 0
M  V30 1280 H 119.425 -0.488994 3.08245 0
M  V30 1281 N 119.726 -1.57421 0.075193 0
M  V30 1282 C 120.972 -1.93905 -0.594025 0
M  V30 1283 C 121.305 -0.955701 -1.69056 0
M  V30 1284 O 120.58 0.0145373 -1.94495 0
M  V30 1285 C 120.863 -3.40638 -1.1678 0
M  V30 1286 C 120.716 -4.49733 -0.0776792 0
M  V30 1287 C 122.035 -3.88259 -2.07228 0
M  V30 1288 H 119.154 -0.705105 -0.214466 0
M  V30 1289 H 121.796 -1.8947 0.141854 0
M  V30 1290 H 119.946 -3.44549 -1.79494 0
M  V30 1291 H 121.618 -4.57942 0.555573 0
M  V30 1292 H 119.861 -4.29751 0.591286 0
M  V30 1293 H 120.532 -5.49549 -0.519603 0
M  V30 1294 H 123.008 -3.86376 -1.54445 0
M  V30 1295 H 121.884 -4.91533 -2.44308 0
M  V30 1296 H 122.145 -3.26396 -2.98191 0
M  V30 1297 N 121.204 0.198386 -1.56346 0
M  V30 1298 C 122.429 0.939682 -1.84891 0
M  V30 1299 C 122.854 1.76202 -0.658369 0
M  V30 1300 O 122.212 1.76993 0.392851 0
M  V30 1301 C 122.26 1.81428 -3.11635 0
M  V30 1302 O 121.364 2.91265 -2.91956 0
M  V30 1303 H 120.705 0.264807 -0.608912 0
M  V30 1304 H 123.235 0.204695 -2.03573 0
M  V30 1305 H 123.245 2.21958 -3.42343 0
M  V30 1306 H 121.92 1.21004 -3.97908 0
M  V30 1307 H 120.497 2.54514 -2.72538 0
M  V30 1308 N 122.682 1.50554 0.465978 0
M  V30 1309 C 123.928 1.62038 1.21949 0
M  V30 1310 C 124.261 0.322116 1.9151 0
M  V30 1311 O 123.536 -0.676723 1.82348 0
M  V30 1312 C 123.819 2.80421 2.25912 0
M  V30 1313 C 123.672 4.20144 1.60622 0
M  V30 1314 C 124.991 2.94354 3.27176 0
M  V30 1315 H 122.11 0.589752 0.441998 0
M  V30 1316 H 124.752 1.82956 0.51257 0
M  V30 1317 H 122.902 2.62717 2.86203 0
M  V30 1318 H 124.574 4.49449 1.03889 0
M  V30 1319 H 122.817 4.24165 0.909211 0
M  V30 1320 H 123.488 4.98914 2.36196 0
M  V30 1321 H 125.964 3.10578 2.76913 0
M  V30 1322 H 124.84 3.788 3.97242 0
M  V30 1323 H 125.101 2.05186 3.916 0
M  V30 1324 N 124.16 -0.719506 1.40217 0
M  V30 1325 C 125.388 -1.50864 1.41589 0
M  V30 1326 C 125.803 -1.88794 0.0145275 0
M  V30 1327 O 125.16 -1.55174 -0.960594 0
M  V30 1328 C 125.211 -2.78646 2.30302 0
M  V30 1329 O 124.932 -2.42321 3.64983 0
M  V30 1330 C 126.433 -3.72569 2.40224 0
M  V30 1331 H 123.653 -0.465709 0.48307 0
M  V30 1332 H 126.197 -0.88785 1.84221 0
M  V30 1333 H 124.352 -3.37019 1.91042 0
M  V30 1334 H 124.766 -3.24514 4.12057 0
M  V30 1335 H 126.24 -4.5908 3.06512 0
M  V30 1336 H 126.717 -4.15403 1.42608 0
M  V30 1337 H 127.323 -3.20109 2.80019 0
M  V30 1338 N 125.638 -1.25649 -0.95132 0
M  V30 1339 C 126.57 -1.02112 -2.05197 0
M  V30 1340 C 127.583 0.0150571 -1.62793 0
M  V30 1341 O 128.772 -0.223874 -1.77091 0
M  V30 1342 C 125.872 -0.522361 -3.3485 0
M  V30 1343 C 125.045 -1.62546 -4.06076 0
M  V30 1344 C 124.104 -1.12649 -5.14001 0
M  V30 1345 O 123.13 -1.82156 -5.39266 0
M  V30 1346 N 124.332 0.03047 -5.80492 0
M  V30 1347 H 127.097 -1.96885 -2.25957 0
M  V30 1348 H 124.658 -1.16899 -1.1201 0
M  V30 1349 H 126.65 -0.172961 -4.0433 0
M  V30 1350 H 125.22 0.33151 -3.10837 0
M  V30 1351 H 124.44 -2.14628 -3.30649 0
M  V30 1352 H 125.728 -2.36644 -4.50419 0
M  V30 1353 H 125.126 0.611169 -5.62389 0
M  V30 1354 H 123.683 0.320875 -6.5101 0
M  V30 1355 N 127.117 1.15442 -1.07289 0
M  V30 1356 C 128.366 1.85557 -0.790669 0
M  V30 1357 C 128.679 1.83186 0.685739 0
M  V30 1358 O 129.885 2.48977 1.0827 0
M  V30 1359 C 128.341 3.33038 -1.36433 0
M  V30 1360 C 127.949 3.43856 -2.8717 0
M  V30 1361 C 129.693 4.0834 -1.1601 0
M  V30 1362 C 127.6 4.85482 -3.3773 0
M  V30 1363 H 126.53 0.695122 -0.292098 0
M  V30 1364 H 129.181 1.30219 -1.29287 0
M  V30 1365 H 127.563 3.88043 -0.789864 0
M  V30 1366 H 128.737 2.98961 -3.50655 0
M  V30 1367 H 127.052 2.81998 -3.06376 0
M  V30 1368 H 129.649 5.12859 -1.51262 0
M  V30 1369 H 129.992 4.16182 -0.0991007 0
M  V30 1370 H 130.525 3.59603 -1.70089 0
M  V30 1371 H 127.264 4.82823 -4.43353 0
M  V30 1372 H 126.784 5.30961 -2.78999 0
M  V30 1373 H 128.463 5.54335 -3.33648 0
M  V30 1374 N 128.595 0.856903 1.32268 0
M  V30 1375 C 129.542 0.301172 2.28827 0
M  V30 1376 C 130.512 -0.593104 1.5515 0
M  V30 1377 O 131.697 -0.527537 1.83362 0
M  V30 1378 C 128.837 -0.502523 3.41422 0
M  V30 1379 C 127.95 0.417797 4.29975 0
M  V30 1380 C 127.085 -0.398749 5.29701 0
M  V30 1381 C 126.124 0.518827 6.09897 0
M  V30 1382 N 125.261 -0.260674 7.01616 0
M  V30 1383 H 130.101 1.12983 2.75751 0
M  V30 1384 H 127.638 0.568582 1.35667 0
M  V30 1385 H 129.596 -0.984141 4.05426 0
M  V30 1386 H 128.226 -1.29599 2.95642 0
M  V30 1387 H 127.278 1.01781 3.66531 0
M  V30 1388 H 128.59 1.12191 4.86019 0
M  V30 1389 H 127.744 -0.943435 5.9932 0
M  V30 1390 H 126.483 -1.13622 4.7428 0
M  V30 1391 H 125.488 1.07538 5.39181 0
M  V30 1392 H 126.713 1.25495 6.67404 0
M  V30 1393 H 124.659 -0.981198 6.4862 0
M  V30 1394 H 124.576 0.384364 7.55022 0
M  V30 1395 H 125.844 -0.787014 7.75517 0
M  V30 1396 N 130.073 -1.45103 0.615059 0
M  V30 1397 C 130.983 -2.34382 -0.101034 0
M  V30 1398 C 131.999 -1.51681 -0.852585 0
M  V30 1399 O 133.175 -1.8446 -0.808484 0
M  V30 1400 C 130.24 -3.29417 -1.08099 0
M  V30 1401 C 129.301 -4.28025 -0.330577 0
M  V30 1402 C 128.534 -5.1852 -1.26385 0
M  V30 1403 O 128.757 -5.12598 -2.50198 0
M  V30 1404 O 127.691 -5.97122 -0.756866 0
M  V30 1405 H 131.517 -2.97033 0.632855 0
M  V30 1406 H 129.102 -1.4461 0.375293 0
M  V30 1407 H 130.984 -3.87958 -1.6452 0
M  V30 1408 H 129.659 -2.69321 -1.79577 0
M  V30 1409 H 128.566 -3.73078 0.276283 0
M  V30 1410 H 129.899 -4.90997 0.343866 0
M  V30 1411 N 131.551 -0.354651 -1.53558 0
M  V30 1412 C 132.481 0.489091 -2.2832 0
M  V30 1413 C 133.462 1.09324 -1.30316 0
M  V30 1414 O 134.647 1.11255 -1.59173 0
M  V30 1415 C 131.777 1.63456 -3.0643 0
M  V30 1416 C 130.731 1.1582 -4.12031 0
M  V30 1417 C 130.057 2.39305 -4.7816 0
M  V30 1418 C 131.357 0.250731 -5.21698 0
M  V30 1419 H 133.051 -0.134614 -2.99097 0
M  V30 1420 H 130.597 -0.0661826 -1.43848 0
M  V30 1421 H 132.55 2.23136 -3.57475 0
M  V30 1422 H 131.274 2.28533 -2.33325 0
M  V30 1423 H 129.933 0.584146 -3.61916 0
M  V30 1424 H 129.581 3.02814 -4.01637 0
M  V30 1425 H 129.281 2.08109 -5.49513 0
M  V30 1426 H 130.805 2.99691 -5.31994 0
M  V30 1427 H 132.219 0.754695 -5.68311 0
M  V30 1428 H 130.616 0.0301468 -6.00092 0
M  V30 1429 H 131.686 -0.710125 -4.79672 0
M  V30 1430 N 133.029 1.57378 -0.0835403 0
M  V30 1431 C 134.277 1.93547 0.581718 0
M  V30 1432 C 134.598 0.96524 1.69435 0
M  V30 1433 O 133.868 0.0153369 1.95894 0
M  V30 1434 H 132.448 0.714521 0.217874 0
M  V30 1435 H 135.11 1.94366 -0.144158 0
M  V30 1436 H 134.206 2.95665 0.999423 0
M  V30 1437 N 134.507 -0.190092 1.56449 0
M  V30 1438 C 135.455 -1.25501 1.95837 0
M  V30 1439 C 136.449 -1.4685 0.844485 0
M  V30 1440 O 137.655 -1.47651 1.02952 0
M  V30 1441 H 134.03 -0.421447 0.622805 0
M  V30 1442 H 136.001 -0.895821 2.84636 0
M  V30 1443 C 134.75 -2.59124 2.31841 0
M  V30 1444 H 134.073 -2.43514 3.17082 0
M  V30 1445 H 135.513 -3.32371 2.6326 0
M  V30 1446 C 133.972 -3.16488 1.15486 0
M  V30 1447 O 134.502 -3.99365 0.432535 0
M  V30 1448 N 132.708 -2.75305 0.930349 0
M  V30 1449 H 132.255 -2.08013 1.51948 0
M  V30 1450 H 132.213 -3.14024 0.153634 0
M  V30 1451 N 135.985 -1.50799 -0.457987 0
M  V30 1452 C 137.401 -1.38515 -0.792819 0
M  V30 1453 C 137.601 -0.451409 -1.96379 0
M  V30 1454 O 136.657 0.10112 -2.52297 0
M  V30 1455 C 137.97 -2.80149 -1.09258 0
M  V30 1456 C 139.518 -2.89156 -1.19825 0
M  V30 1457 C 139.993 -4.31651 -1.53106 0
M  V30 1458 N 141.484 -4.34662 -1.60072 0
M  V30 1459 C 142.219 -5.41928 -1.87354 0
M  V30 1460 N 141.715 -6.59384 -2.12568 0
M  V30 1461 N 143.508 -5.29385 -1.88965 0
M  V30 1462 H 135.659 -2.10073 0.313511 0
M  V30 1463 H 137.922 -0.944803 0.0777862 0
M  V30 1464 H 137.628 -3.50374 -0.305084 0
M  V30 1465 H 137.502 -3.18204 -2.02549 0
M  V30 1466 H 139.889 -2.19141 -1.97639 0
M  V30 1467 H 139.97 -2.54626 -0.244821 0
M  V30 1468 H 139.614 -5.02208 -0.758266 0
M  V30 1469 H 139.544 -4.63678 -2.49621 0
M  V30 1470 H 142.035 -3.49973 -1.42573 0
M  V30 1471 H 142.348 -7.36934 -2.32696 0
M  V30 1472 H 140.693 -6.62535 -2.09933 0
M  V30 1473 H 143.884 -4.36616 -1.68772 0
M  V30 1474 H 144.057 -6.13066 -2.09891 0
M  V30 1475 N 137.463 0.71206 -1.40597 0
M  V30 1476 C 138.393 1.83889 -1.43899 0
M  V30 1477 C 139.374 1.67442 -0.299504 0
M  V30 1478 O 140.559 1.87421 -0.508624 0
M  V30 1479 C 137.689 3.21877 -1.30431 0
M  V30 1480 C 136.643 3.53002 -2.42019 0
M  V30 1481 C 135.969 4.90172 -2.13626 0
M  V30 1482 C 137.269 3.53643 -3.84362 0
M  V30 1483 H 138.963 1.81383 -2.38203 0
M  V30 1484 H 136.509 0.871237 -1.14654 0
M  V30 1485 H 138.462 4.00404 -1.31357 0
M  V30 1486 H 137.186 3.24968 -0.326049 0
M  V30 1487 H 135.845 2.76818 -2.40349 0
M  V30 1488 H 135.493 4.89869 -1.14182 0
M  V30 1489 H 135.193 5.11962 -2.88389 0
M  V30 1490 H 136.717 5.71028 -2.1624 0
M  V30 1491 H 138.131 4.22203 -3.87837 0
M  V30 1492 H 136.528 3.86961 -4.58673 0
M  V30 1493 H 137.598 2.52954 -4.13693 0
M  V30 1494 N 138.941 1.26152 0.944643 0
M  V30 1495 C 140.187 1.12665 1.69346 0
M  V30 1496 C 140.542 -0.3273 1.89596 0
M  V30 1497 O 139.835 -1.23717 1.46303 0
M  V30 1498 C 140.029 1.82541 3.07268 0
M  V30 1499 C 139.858 3.34582 3.00475 0
M  V30 1500 C 138.628 4.03863 3.03681 0
M  V30 1501 C 140.826 4.30828 2.80877 0
M  V30 1502 N 138.808 5.42603 2.87151 0
M  V30 1503 C 140.179 5.5672 2.7288 0
M  V30 1504 C 142.234 4.21122 2.65633 0
M  V30 1505 C 140.937 6.74013 2.51196 0
M  V30 1506 C 142.963 5.38118 2.45323 0
M  V30 1507 C 142.325 6.62955 2.38055 0
M  V30 1508 H 138.424 0.467041 0.627214 0
M  V30 1509 H 141.008 1.59391 1.11815 0
M  V30 1510 H 139.179 1.38296 3.62945 0
M  V30 1511 H 140.911 1.61708 3.70989 0
M  V30 1512 H 137.666 3.55198 3.1326 0
M  V30 1513 H 138.09 6.15443 2.82063 0
M  V30 1514 H 142.732 3.25344 2.70021 0
M  V30 1515 H 140.45 7.6989 2.4555 0
M  V30 1516 H 144.036 5.32475 2.34439 0
M  V30 1517 H 142.916 7.51959 2.22546 0
M  V30 1518 N 140.419 -1.14872 1.07899 0
M  V30 1519 C 141.696 -1.81928 0.71845 0
M  V30 1520 C 142.076 -1.95417 -0.798455 0
M  V30 1521 O 141.424 -1.50997 -1.715 0
M  V30 1522 C 141.634 -3.17937 1.43935 0
M  V30 1523 C 142.982 -3.93501 1.59506 0
M  V30 1524 O 144.006 -3.27509 1.40058 0
M  V30 1525 O 142.865 -5.1183 1.91551 0
M  V30 1526 H 139.959 -0.78628 0.256305 0
M  V30 1527 H 142.505 -1.21934 1.18026 0
M  V30 1528 H 141.277 -3.0325 2.47295 0
M  V30 1529 H 140.9 -3.85619 0.968687 0
M  V30 1530 N 141.898 -0.863906 -1.31812 0
M  V30 1531 C 143.144 -0.472535 -1.97218 0
M  V30 1532 C 143.477 0.971394 -1.68159 0
M  V30 1533 O 142.752 1.68309 -0.974798 0
M  V30 1534 C 143.035 -0.723054 -3.52766 0
M  V30 1535 C 142.888 -2.21608 -3.91421 0
M  V30 1536 C 144.207 -0.185522 -4.39709 0
M  V30 1537 H 141.326 -0.173158 -0.71637 0
M  V30 1538 H 143.968 -1.08403 -1.56041 0
M  V30 1539 H 142.118 -0.202577 -3.87971 0
M  V30 1540 H 143.79 -2.80334 -3.66347 0
M  V30 1541 H 142.033 -2.691 -3.40246 0
M  V30 1542 H 142.704 -2.34203 -4.99853 0
M  V30 1543 H 145.18 -0.630726 -4.11292 0
M  V30 1544 H 144.056 -0.390306 -5.47511 0
M  V30 1545 H 144.317 0.912229 -4.32586 0
M  V30 1546 N 143.376 1.44774 -0.622745 0
M  V30 1547 C 144.339 2.29069 0.0774015 0
M  V30 1548 C 145.339 1.4059 0.780461 0
M  V30 1549 O 146.529 1.62551 0.626322 0
M  V30 1550 C 143.661 3.21974 1.12006 0
M  V30 1551 H 144.854 2.92459 -0.663901 0
M  V30 1552 H 142.407 1.51548 -0.382486 0
M  V30 1553 H 143.142 2.63417 1.89162 0
M  V30 1554 H 142.927 3.87168 0.619951 0
M  V30 1555 H 144.417 3.85318 1.60995 0
M  V30 1556 N 144.854 0.36279 1.53368 0
M  V30 1557 C 146.131 -0.284021 1.93527 0
M  V30 1558 C 146.511 -1.66628 1.29608 0
M  V30 1559 O 145.859 -2.23942 0.45413 0
M  V30 1560 C 146.069 -0.337028 3.47369 0
M  V30 1561 C 147.417 -0.578708 4.20638 0
M  V30 1562 O 148.441 -0.418352 3.53735 0
M  V30 1563 O 147.3 -0.89074 5.39192 0
M  V30 1564 H 144.394 -0.169743 0.809393 0
M  V30 1565 H 146.94 0.41537 1.64538 0
M  V30 1566 H 145.712 0.632217 3.86159 0
M  V30 1567 H 145.335 -1.08243 3.82582 0
M  V30 1568 N 146.332 -1.57332 0.0918853 0
M  V30 1569 C 147.579 -1.94236 -0.572577 0
M  V30 1570 C 147.907 -0.973398 -1.6839 0
M  V30 1571 O 147.162 0.00756912 -1.95699 0
M  V30 1572 C 147.461 -3.37689 -1.17051 0
M  V30 1573 C 147.127 -4.50527 -0.183304 0
M  V30 1574 C 145.789 -4.81119 0.0882276 0
M  V30 1575 C 148.141 -5.18883 0.49095 0
M  V30 1576 C 145.469 -5.77395 1.04076 0
M  V30 1577 C 147.821 -6.1618 1.43193 0
M  V30 1578 C 146.485 -6.45179 1.71173 0
M  V30 1579 H 145.755 -0.710762 -0.209521 0
M  V30 1580 H 148.402 -1.9077 0.167036 0
M  V30 1581 H 146.707 -3.37718 -1.9863 0
M  V30 1582 H 148.404 -3.63543 -1.69227 0
M  V30 1583 H 144.994 -4.26681 -0.405124 0
M  V30 1584 H 149.178 -4.95427 0.294312 0
M  V30 1585 H 144.434 -5.98179 1.26457 0
M  V30 1586 H 148.608 -6.68243 1.96023 0
M  V30 1587 H 146.235 -7.1959 2.4514 0
M  V30 1588 N 147.81 0.181792 -1.56548 0
M  V30 1589 C 149.056 0.901431 -1.81665 0
M  V30 1590 C 149.389 1.82347 -0.668075 0
M  V30 1591 O 148.664 1.91669 0.330615 0
M  V30 1592 C 148.947 1.70618 -3.17115 0
M  V30 1593 C 148.8 0.807964 -4.42484 0
M  V30 1594 C 150.119 2.67605 -3.49393 0
M  V30 1595 H 147.238 0.32627 -0.660846 0
M  V30 1596 H 149.88 0.168134 -1.89255 0
M  V30 1597 H 148.03 2.33133 -3.10775 0
M  V30 1598 H 149.702 0.19649 -4.60881 0
M  V30 1599 H 147.945 0.115411 -4.33646 0
M  V30 1600 H 148.616 1.40632 -5.33785 0
M  V30 1601 H 151.092 2.15218 -3.56118 0
M  V30 1602 H 149.968 3.20985 -4.45264 0
M  V30 1603 H 150.229 3.47298 -2.73563 0
M  V30 1604 N 149.288 1.51039 0.449983 0
M  V30 1605 C 150.235 1.71439 1.54523 0
M  V30 1606 C 151.205 0.555871 1.56522 0
M  V30 1607 O 152.39 0.788871 1.73728 0
M  V30 1608 C 149.53 1.83384 2.92343 0
M  V30 1609 C 148.643 3.10873 2.9997 0
M  V30 1610 C 147.778 3.13488 4.28834 0
M  V30 1611 C 146.817 4.35343 4.30282 0
M  V30 1612 N 145.954 4.35579 5.5065 0
M  V30 1613 H 150.794 2.64934 1.36433 0
M  V30 1614 H 148.331 1.31312 0.662982 0
M  V30 1615 H 150.289 1.88291 3.72293 0
M  V30 1616 H 148.919 0.933086 3.0902 0
M  V30 1617 H 147.971 3.15336 2.12761 0
M  V30 1618 H 149.283 4.00814 2.96901 0
M  V30 1619 H 148.437 3.17241 5.17149 0
M  V30 1620 H 147.176 2.21414 4.34543 0
M  V30 1621 H 146.181 4.3178 3.40362 0
M  V30 1622 H 147.406 5.28668 4.26248 0
M  V30 1623 H 145.352 3.46369 5.57104 0
M  V30 1624 H 145.269 5.19313 5.49409 0
M  V30 1625 H 146.537 4.43507 6.41032 0
M  V30 1626 N 150.766 -0.704594 1.40972 0
M  V30 1627 C 152.177 -1.28418 1.3552 0
M  V30 1628 C 152.528 -1.96171 0.0339434 0
M  V30 1629 O 151.653 -1.98231 -0.867944 0
M  V30 1630 C 152.248 -2.33528 2.45459 0
M  V30 1631 C 150.807 -2.87085 2.43433 0
M  V30 1632 C 149.954 -1.61007 2.2577 0
M  V30 1633 H 152.905 -0.499963 1.50619 0
M  V30 1634 H 152.926 -3.14619 2.13998 0
M  V30 1635 H 152.438 -1.84187 3.41609 0
M  V30 1636 H 150.539 -3.40626 1.51013 0
M  V30 1637 H 150.652 -3.3813 3.39419 0
M  V30 1638 H 149.016 -1.86482 1.73483 0
M  V30 1639 H 149.799 -1.13675 3.23933 0
M  V30 1640 N 152.244 -1.26651 -0.937939 0
M  V30 1641 C 153.655 -1.1125 -1.49934 0
M  V30 1642 C 154.006 0.306077 -1.93798 0
M  V30 1643 O 153.131 1.19792 -1.80219 0
M  V30 1644 C 153.726 -2.01339 -2.72485 0
M  V30 1645 C 152.285 -1.90074 -3.24883 0
M  V30 1646 C 151.432 -1.94498 -1.97651 0
M  V30 1647 H 154.383 -1.39693 -0.753091 0
M  V30 1648 H 154.404 -1.56319 -3.46907 0
M  V30 1649 H 153.916 -3.04577 -2.40529 0
M  V30 1650 H 152.017 -0.897827 -3.61621 0
M  V30 1651 H 152.13 -2.75778 -3.9177 0
M  V30 1652 H 150.494 -1.38591 -2.13693 0
M  V30 1653 H 151.277 -2.99372 -1.68022 0
M  V30 1654 N 153.722 1.14298 -1.08507 0
M  V30 1655 C 154.654 2.1907 -0.673859 0
M  V30 1656 C 155.667 1.60381 0.279577 0
M  V30 1657 O 156.856 1.78374 0.0670754 0
M  V30 1658 C 153.956 3.38888 0.0290979 0
M  V30 1659 C 153.129 4.27103 -0.943494 0
M  V30 1660 C 152.188 5.25477 -0.275676 0
M  V30 1661 O 151.214 5.61709 -0.920401 0
M  V30 1662 N 152.416 5.7227 0.974013 0
M  V30 1663 H 155.181 2.54965 -1.57521 0
M  V30 1664 H 152.742 1.29528 -0.971287 0
M  V30 1665 H 154.734 4.01761 0.48683 0
M  V30 1666 H 153.304 3.01309 0.832555 0
M  V30 1667 H 152.524 3.61149 -1.58004 0
M  V30 1668 H 153.812 4.82905 -1.60251 0
M  V30 1669 H 153.21 5.44965 1.51755 0
M  V30 1670 H 151.767 6.37127 1.37522 0
M  V30 1671 N 155.201 0.870884 1.31352 0
M  V30 1672 C 156.449 0.48132 1.96285 0
M  V30 1673 C 156.77 -0.969813 1.69173 0
M  V30 1674 O 156.04 -1.67998 1.00764 0
M  V30 1675 H 154.62 0.175002 0.726212 0
M  V30 1676 H 157.282 1.11087 1.60143 0
M  V30 1677 H 156.378 0.639825 3.05471 0
M  V30 1678 N 156.679 -1.44442 0.630414 0
M  V30 1679 C 157.589 -2.34476 -0.0761693 0
M  V30 1680 C 158.605 -1.52576 -0.836449 0
M  V30 1681 O 159.781 -1.85307 -0.788874 0
M  V30 1682 C 156.846 -3.30545 -1.04599 0
M  V30 1683 C 155.907 -4.28352 -0.28516 0
M  V30 1684 C 155.14 -5.19831 -1.20878 0
M  V30 1685 O 155.363 -5.15223 -2.44747 0
M  V30 1686 O 154.297 -5.97892 -0.693491 0
M  V30 1687 H 158.123 -2.96345 0.664324 0
M  V30 1688 H 155.708 -1.44203 0.39061 0
M  V30 1689 H 157.59 -3.89681 -1.60396 0
M  V30 1690 H 156.265 -2.7121 -1.76711 0
M  V30 1691 H 155.172 -3.72764 0.315837 0
M  V30 1692 H 156.505 -4.90605 0.395924 0
M  V30 1693 N 158.157 -0.370918 -1.53173 0
M  V30 1694 C 159.105 0.488101 -2.27421 0
M  V30 1695 C 160.099 1.07884 -1.30604 0
M  V30 1696 O 161.305 1.02143 -1.48212 0
M  V30 1697 H 157.68 0.176134 -0.731082 0
M  V30 1698 H 159.651 -0.159815 -2.97972 0
M  V30 1699 C 158.4 1.61306 -3.08019 0
M  V30 1700 H 157.723 1.1678 -3.82364 0
M  V30 1701 H 159.163 2.18872 -3.63141 0
M  V30 1702 C 157.622 2.55848 -2.19188 0
M  V30 1703 O 158.152 3.58799 -1.80626 0
M  V30 1704 N 156.358 2.2516 -1.83715 0
M  V30 1705 H 155.905 1.41476 -2.15273 0
M  V30 1706 H 155.863 2.8867 -1.24567 0
M  V30 1707 N 159.635 1.57281 -0.100228 0
M  V30 1708 C 160.881 1.94826 0.563101 0
M  V30 1709 C 161.214 0.982475 1.67514 0
M  V30 1710 O 160.489 0.0164069 1.94493 0
M  V30 1711 C 160.772 3.42453 1.11346 0
M  V30 1712 C 160.625 4.498 0.00612081 0
M  V30 1713 C 161.944 3.91506 2.01024 0
M  V30 1714 H 159.063 0.708428 0.203221 0
M  V30 1715 H 161.705 1.8922 -0.171979 0
M  V30 1716 H 159.855 3.47361 1.7399 0
M  V30 1717 H 161.527 4.57 -0.628357 0
M  V30 1718 H 159.77 4.28756 -0.659581 0
M  V30 1719 H 160.441 5.50306 0.432109 0
M  V30 1720 H 162.917 3.88784 1.48278 0
M  V30 1721 H 161.793 4.95358 2.36457 0
M  V30 1722 H 162.054 3.31099 2.92961 0
M  V30 1723 N 161.113 -0.173488 1.56642 0
M  V30 1724 C 162.36 -0.890465 1.81871 0
M  V30 1725 C 162.688 -1.82339 0.67696 0
M  V30 1726 O 161.943 -1.92795 -0.335926 0
M  V30 1727 C 162.242 -1.72069 3.13252 0
M  V30 1728 C 161.908 -0.936878 4.41059 0
M  V30 1729 C 160.57 -0.720545 4.75775 0
M  V30 1730 C 162.922 -0.386919 5.19762 0
M  V30 1731 C 160.25 0.0568829 5.86672 0
M  V30 1732 C 162.602 0.37741 6.31473 0
M  V30 1733 C 161.266 0.604563 6.64757 0
M  V30 1734 H 160.536 -0.325844 0.665512 0
M  V30 1735 H 163.183 -0.155527 1.90867 0
M  V30 1736 H 161.488 -2.52496 2.99588 0
M  V30 1737 H 163.185 -2.27844 3.29982 0
M  V30 1738 H 159.775 -1.11553 4.13828 0
M  V30 1739 H 163.959 -0.541398 4.93338 0
M  V30 1740 H 159.215 0.242635 6.10918 0
M  V30 1741 H 163.389 0.810825 6.91664 0
M  V30 1742 H 161.016 1.20885 7.50527 0
M  V30 1743 N 162.591 -1.51276 -0.441967 0
M  V30 1744 C 163.838 -1.63715 -1.19179 0
M  V30 1745 C 164.166 -0.351175 -1.91303 0
M  V30 1746 O 163.421 0.664524 -1.84072 0
M  V30 1747 C 163.72 -2.78746 -2.23686 0
M  V30 1748 C 163.386 -4.18189 -1.68607 0
M  V30 1749 C 162.048 -4.56125 -1.53308 0
M  V30 1750 C 164.4 -5.05222 -1.28062 0
M  V30 1751 C 161.728 -5.78804 -0.959317 0
M  V30 1752 C 164.08 -6.28476 -0.721162 0
M  V30 1753 C 162.744 -6.65188 -0.55504 0
M  V30 1754 H 162.014 -0.599076 -0.436106 0
M  V30 1755 H 164.661 -1.85296 -0.48351 0
M  V30 1756 H 162.966 -2.51369 -3.00535 0
M  V30 1757 H 164.663 -2.8557 -2.81515 0
M  V30 1758 H 161.253 -3.88277 -1.8149 0
M  V30 1759 H 165.437 -4.76524 -1.38704 0
M  V30 1760 H 160.693 -6.05899 -0.81833 0
M  V30 1761 H 164.867 -6.95259 -0.398458 0
M  V30 1762 H 162.494 -7.60123 -0.108311 0
M  V30 1763 N 164.069 0.697108 -1.41344 0
M  V30 1764 C 164.999 1.82353 -1.45841 0
M  V30 1765 C 165.98 1.67115 -0.317247 0
M  V30 1766 O 167.165 1.86871 -0.528474 0
M  V30 1767 C 164.295 3.20476 -1.33838 0
M  V30 1768 C 163.249 3.50415 -2.4575 0
M  V30 1769 C 162.575 4.87878 -2.18813 0
M  V30 1770 C 163.875 3.49546 -3.88091 0
M  V30 1771 H 165.569 1.78846 -2.40113 0
M  V30 1772 H 163.115 0.859028 -1.15571 0
M  V30 1773 H 165.068 3.98988 -1.35596 0
M  V30 1774 H 163.792 3.24604 -0.360498 0
M  V30 1775 H 162.451 2.74253 -2.43271 0
M  V30 1776 H 162.099 4.8863 -1.19371 0
M  V30 1777 H 161.799 5.08875 -2.93803 0
M  V30 1778 H 163.323 5.68702 -2.22284 0
M  V30 1779 H 164.737 4.18066 -3.92293 0
M  V30 1780 H 163.134 3.82075 -4.62751 0
M  V30 1781 H 164.204 2.48552 -4.16353 0
M  V30 1782 N 165.547 1.27147 0.931209 0
M  V30 1783 C 166.793 1.13446 1.68101 0
M  V30 1784 C 167.126 -0.319628 1.91552 0
M  V30 1785 O 166.401 -1.23407 1.50336 0
M  V30 1786 C 166.684 1.91482 3.0497 0
M  V30 1787 C 166.537 3.44855 2.88782 0
M  V30 1788 C 167.856 1.71651 4.05246 0
M  V30 1789 H 164.975 0.413498 0.610072 0
M  V30 1790 H 167.617 1.56261 1.08086 0
M  V30 1791 H 165.767 1.55095 3.56199 0
M  V30 1792 H 167.439 3.9105 2.44698 0
M  V30 1793 H 165.682 3.71373 2.24198 0
M  V30 1794 H 166.353 3.94694 3.85902 0
M  V30 1795 H 168.829 2.0337 3.63015 0
M  V30 1796 H 167.705 2.28651 4.99009 0
M  V30 1797 H 167.966 0.663555 4.37092 0
M  V30 1798 N 167.025 -1.13721 1.09112 0
M  V30 1799 C 168.253 -1.88773 0.846899 0
M  V30 1800 C 168.668 -1.7896 -0.601572 0
M  V30 1801 O 168.025 -1.15394 -1.41388 0
M  V30 1802 C 168.076 -3.3849 1.26913 0
M  V30 1803 O 167.797 -3.48043 2.66079 0
M  V30 1804 C 169.298 -4.30518 1.05682 0
M  V30 1805 H 166.518 -0.59772 0.304914 0
M  V30 1806 H 169.062 -1.43977 1.45227 0
M  V30 1807 H 167.217 -3.80881 0.707723 0
M  V30 1808 H 167.631 -4.4109 2.83795 0
M  V30 1809 H 169.105 -5.3391 1.40156 0
M  V30 1810 H 169.582 -4.392 -0.00563416 0
M  V30 1811 H 170.188 -3.93893 1.60402 0
M  V30 1812 N 168.503 -0.877838 -1.30888 0
M  V30 1813 C 169.451 -0.328662 -2.30266 0
M  V30 1814 C 170.445 0.560496 -1.59859 0
M  V30 1815 O 171.651 0.445722 -1.74394 0
M  V30 1816 H 168.026 -0.0876142 -0.746879 0
M  V30 1817 H 169.997 -1.18061 -2.74051 0
M  V30 1818 C 168.746 0.448071 -3.44801 0
M  V30 1819 H 168.069 -0.226859 -3.99156 0
M  V30 1820 H 169.509 0.797541 -4.16432 0
M  V30 1821 C 167.968 1.64239 -2.94155 0
M  V30 1822 O 168.498 2.74175 -2.93583 0
M  V30 1823 N 166.704 1.47716 -2.50256 0
M  V30 1824 H 166.251 0.582821 -2.5092 0
M  V30 1825 H 166.209 2.27765 -2.16727 0
M  V30 1826 N 169.982 1.44106 -0.638065 0
M  V30 1827 C 171.229 2.01978 -0.14533 0
M  V30 1828 C 171.557 1.50234 1.23532 0
M  V30 1829 O 170.812 0.679548 1.83523 0
M  V30 1830 C 171.111 3.5729 -0.0887327 0
M  V30 1831 C 170.777 4.28317 -1.40909 0
M  V30 1832 C 169.439 4.47437 -1.77069 0
M  V30 1833 C 171.791 4.6867 -2.28031 0
M  V30 1834 C 169.119 5.04171 -3.00047 0
M  V30 1835 C 171.471 5.26766 -3.50286 0
M  V30 1836 C 170.135 5.44104 -3.86661 0
M  V30 1837 H 169.405 0.739089 -0.0531801 0
M  V30 1838 H 172.052 1.72781 -0.825761 0
M  V30 1839 H 170.357 3.8594 0.675095 0
M  V30 1840 H 172.054 3.99807 0.309145 0
M  V30 1841 H 168.644 4.1377 -1.1177 0
M  V30 1842 H 172.828 4.53604 -2.01388 0
M  V30 1843 H 168.084 5.15782 -3.28298 0
M  V30 1844 H 172.258 5.56983 -4.18023 0
M  V30 1845 H 169.885 5.87832 -4.82034 0
M  V30 1846 N 171.46 0.379036 1.52974 0
M  V30 1847 C 172.39 -0.452706 2.29069 0
M  V30 1848 C 173.371 -1.07237 1.32039 0
M  V30 1849 O 174.556 -1.08708 1.60923 0
M  V30 1850 C 171.686 -1.5856 3.08992 0
M  V30 1851 C 170.64 -1.0925 4.13822 0
M  V30 1852 C 169.966 -2.31668 4.81907 0
M  V30 1853 C 171.266 -0.167702 5.22031 0
M  V30 1854 H 172.96 0.182181 2.98845 0
M  V30 1855 H 170.506 0.0890592 1.43724 0
M  V30 1856 H 172.459 -2.1742 3.6098 0
M  V30 1857 H 171.183 -2.24792 2.36931 0
M  V30 1858 H 169.842 -0.526494 3.628 0
M  V30 1859 H 169.49 -2.96386 4.06404 0
M  V30 1860 H 169.19 -1.9934 5.52754 0
M  V30 1861 H 170.714 -2.91189 5.36695 0
M  V30 1862 H 172.128 -0.664186 5.6944 0
M  V30 1863 H 170.525 0.0653265 6.00064 0
M  V30 1864 H 171.595 0.786347 4.78482 0
M  V30 1865 N 172.938 -1.57226 0.108567 0
M  V30 1866 C 174.184 -1.95121 -0.552761 0
M  V30 1867 C 174.517 -0.991345 -1.66991 0
M  V30 1868 O 173.792 -0.0267211 -1.94482 0
M  V30 1869 C 174.075 -3.43039 -1.09528 0
M  V30 1870 C 173.928 -4.49797 0.0177332 0
M  V30 1871 C 175.247 -3.92567 -1.98945 0
M  V30 1872 H 172.366 -0.709496 -0.199461 0
M  V30 1873 H 175.008 -1.89126 0.182011 0
M  V30 1874 H 173.158 -3.48279 -1.72146 0
M  V30 1875 H 174.83 -4.56661 0.652584 0
M  V30 1876 H 173.073 -4.284 0.682309 0
M  V30 1877 H 173.744 -5.50528 -0.402919 0
M  V30 1878 H 176.22 -3.89565 -1.46214 0
M  V30 1879 H 175.096 -4.96605 -2.33827 0
M  V30 1880 H 175.357 -3.32648 -2.91201 0
M  V30 1881 N 174.416 0.165178 -1.56732 0
M  V30 1882 C 175.644 0.896218 -1.86482 0
M  V30 1883 C 176.059 1.75555 -0.694675 0
M  V30 1884 O 175.416 1.79379 0.33607 0
M  V30 1885 C 175.467 1.76792 -3.1532 0
M  V30 1886 O 175.188 0.943239 -4.27825 0
M  V30 1887 C 176.689 2.6081 -3.58459 0
M  V30 1888 H 173.909 0.260064 -0.618553 0
M  V30 1889 H 176.453 0.163428 -2.03846 0
M  V30 1890 H 174.608 2.45398 -2.99764 0
M  V30 1891 H 175.022 1.53998 -5.01383 0
M  V30 1892 H 176.496 3.17579 -4.51495 0
M  V30 1893 H 176.973 3.35977 -2.82872 0
M  V30 1894 H 177.579 1.97526 -3.76648 0
M  V30 1895 N 175.894 1.51508 0.433938 0
M  V30 1896 C 177.305 1.56784 1.01369 0
M  V30 1897 C 177.656 0.393349 1.92217 0
M  V30 1898 O 176.781 -0.489441 2.10792 0
M  V30 1899 C 177.376 2.84144 1.8452 0
M  V30 1900 C 175.935 2.9198 2.37539 0
M  V30 1901 C 175.082 2.51482 1.16843 0
M  V30 1902 H 178.033 1.57236 0.215081 0
M  V30 1903 H 178.054 2.68098 2.70007 0
M  V30 1904 H 177.566 3.69607 1.18373 0
M  V30 1905 H 175.667 2.10955 3.0713 0
M  V30 1906 H 175.78 3.95704 2.70103 0
M  V30 1907 H 174.144 2.04758 1.51481 0
M  V30 1908 H 174.927 3.39293 0.523015 0
M  V30 1909 N 177.372 -0.689602 1.41712 0
M  V30 1910 C 178.335 -1.78521 1.43746 0
M  V30 1911 C 179.335 -1.57436 0.327191 0
M  V30 1912 O 180.525 -1.64 0.587348 0
M  V30 1913 C 177.657 -3.16971 1.25467 0
M  V30 1914 H 178.85 -1.78108 2.41283 0
M  V30 1915 H 176.403 -0.89781 1.27942 0
M  V30 1916 H 177.138 -3.23019 0.287948 0
M  V30 1917 H 176.923 -3.33678 2.05917 0
M  V30 1918 H 178.413 -3.96935 1.2974 0
M  V30 1919 N 178.85 -1.27639 -0.924453 0
M  V30 1920 C 179.782 -1.06442 -2.02985 0
M  V30 1921 C 180.795 -0.0194771 -1.62788 0
M  V30 1922 O 181.984 -0.261388 -1.76576 0
M  V30 1923 C 179.084 -0.59327 -3.33667 0
M  V30 1924 C 178.257 -1.71123 -4.02537 0
M  V30 1925 C 177.316 -1.23527 -5.11495 0
M  V30 1926 O 176.342 -1.93553 -5.35281 0
M  V30 1927 N 177.544 -0.0926678 -5.80426 0
M  V30 1928 H 180.309 -2.01633 -2.2173 0
M  V30 1929 H 177.87 -1.19248 -1.09505 0
M  V30 1930 H 179.862 -0.258686 -4.03872 0
M  V30 1931 H 178.432 0.265502 -3.1147 0
M  V30 1932 H 177.652 -2.21593 -3.26022 0
M  V30 1933 H 178.94 -2.46145 -4.45298 0
M  V30 1934 H 178.338 0.491741 -5.63559 0
M  V30 1935 H 176.895 0.182714 -6.51544 0
M  V30 1936 N 180.328 1.1314 -1.09713 0
M  V30 1937 C 181.574 1.84757 -0.836224 0
M  V30 1938 C 181.907 1.8347 0.636598 0
M  V30 1939 O 181.182 1.27491 1.46889 0
M  V30 1940 C 181.465 3.32782 -1.37578 0
M  V30 1941 C 181.318 3.42567 -2.91493 0
M  V30 1942 C 182.637 4.28307 -1.01198 0
M  V30 1943 H 179.756 0.67082 -0.305236 0
M  V30 1944 H 182.398 1.3278 -1.35903 0
M  V30 1945 H 180.548 3.77177 -0.931097 0
M  V30 1946 H 182.22 3.06862 -3.44432 0
M  V30 1947 H 180.463 2.83349 -3.28475 0
M  V30 1948 H 181.134 4.46674 -3.24324 0
M  V30 1949 H 183.61 3.91999 -1.39556 0
M  V30 1950 H 182.486 5.30307 -1.41653 0
M  V30 1951 H 182.747 4.42029 0.0794833 0
M  V30 1952 N 181.806 0.884767 1.30421 0
M  V30 1953 C 182.738 0.308655 2.27112 0
M  V30 1954 C 183.751 -0.536655 1.53701 0
M  V30 1955 O 184.94 -0.35624 1.74909 0
M  V30 1956 C 182.04 -0.579782 3.33904 0
M  V30 1957 C 181.213 0.236417 4.36761 0
M  V30 1958 C 180.272 -0.582482 5.22966 0
M  V30 1959 O 179.298 -0.00525502 5.692 0
M  V30 1960 N 180.5 -1.89163 5.48815 0
M  V30 1961 H 183.265 1.13964 2.77186 0
M  V30 1962 H 180.826 0.747731 1.43599 0
M  V30 1963 H 182.818 -1.13366 3.88497 0
M  V30 1964 H 181.388 -1.31144 2.83761 0
M  V30 1965 H 180.608 0.97174 3.82035 0
M  V30 1966 H 181.896 0.795924 5.02536 0
M  V30 1967 H 181.294 -2.38352 5.13035 0
M  V30 1968 H 179.851 -2.39296 6.06284 0
M  V30 1969 N 183.284 -1.43765 0.645699 0
M  V30 1970 C 184.532 -2.01499 0.155731 0
M  V30 1971 C 184.853 -1.51151 -1.232 0
M  V30 1972 O 184.123 -0.721044 -1.82148 0
M  V30 1973 H 182.703 -0.745003 0.0545817 0
M  V30 1974 H 185.365 -1.76075 0.835677 0
M  V30 1975 H 184.461 -3.1181 0.134577 0
M  V30 1976 N 184.763 -0.387143 -1.52771 0
M  V30 1977 C 186.179 -0.037007 -1.59557 0
M  V30 1978 C 186.379 1.44801 -1.40124 0
M  V30 1979 O 185.435 2.21227 -1.21716 0
M  V30 1980 C 186.748 -0.512256 -2.96305 0
M  V30 1981 C 188.296 -0.468328 -3.09476 0
M  V30 1982 C 188.771 -0.919731 -4.4867 0
M  V30 1983 N 190.262 -0.875656 -4.54848 0
M  V30 1984 C 190.997 -1.19637 -5.6078 0
M  V30 1985 N 190.493 -1.58745 -6.74368 0
M  V30 1986 N 192.286 -1.11776 -5.50874 0
M  V30 1987 H 184.437 -1.35395 -1.63652 0
M  V30 1988 H 186.7 -0.554818 -0.768688 0
M  V30 1989 H 186.406 -1.54935 -3.15734 0
M  V30 1990 H 186.28 0.089805 -3.77093 0
M  V30 1991 H 188.667 0.559671 -2.89744 0
M  V30 1992 H 188.748 -1.10616 -2.30646 0
M  V30 1993 H 188.392 -1.94595 -4.69143 0
M  V30 1994 H 188.322 -0.258927 -5.25963 0
M  V30 1995 H 190.813 -0.587843 -3.733 0
M  V30 1996 H 191.126 -1.81586 -7.51163 0
M  V30 1997 H 189.471 -1.6263 -6.75705 0
M  V30 1998 H 192.662 -0.811264 -4.61016 0
M  V30 1999 H 192.835 -1.37103 -6.3333 0
M  V30 2000 N 186.241 1.57166 -0.116904 0
M  V30 2001 C 187.481 1.97008 0.544715 0
M  V30 2002 C 187.845 0.998713 1.63981 0
M  V30 2003 O 189.046 1.28644 2.36018 0
M  V30 2004 C 187.317 3.41145 1.06559 0
M  V30 2005 S 188.876 4.02998 1.73603 0
M  V30 2006 H 185.694 0.688587 0.177112 0
M  V30 2007 H 188.296 1.94459 -0.201487 0
M  V30 2008 H 187 4.09592 0.257374 0
M  V30 2009 H 186.531 3.4734 1.84712 0
M  V30 2010 H 188.546 3.93585 3.02168 0
M  V30 2011 N 187.719 -0.156864 1.56817 0
M  V30 2012 C 189.13 -0.717916 1.72345 0
M  V30 2013 C 189.481 -1.82124 0.729747 0
M  V30 2014 O 188.606 -2.16141 -0.105781 0
M  V30 2015 C 189.201 -1.30904 3.12489 0
M  V30 2016 C 187.76 -1.81676 3.29653 0
M  V30 2017 C 186.907 -0.701349 2.68284 0
M  V30 2018 H 189.858 0.0686989 1.58551 0
M  V30 2019 H 189.879 -2.17882 3.11942 0
M  V30 2020 H 189.391 -0.505796 3.8479 0
M  V30 2021 H 187.492 -2.64598 2.62333 0
M  V30 2022 H 187.605 -1.95226 4.3752 0
M  V30 2023 H 185.969 -1.12548 2.28484 0
M  V30 2024 H 186.752 0.0902846 3.43181 0
M  V30 2025 N 189.197 -1.51736 -0.425897 0
M  V30 2026 C 190.107 -1.76738 -1.54275 0
M  V30 2027 C 191.123 -0.65211 -1.61318 0
M  V30 2028 O 192.299 -0.935654 -1.78346 0
M  V30 2029 C 189.364 -1.89755 -2.90162 0
M  V30 2030 C 188.425 -3.13633 -2.93143 0
M  V30 2031 C 187.658 -3.2602 -4.22548 0
M  V30 2032 O 187.881 -2.44067 -5.15546 0
M  V30 2033 O 186.815 -4.19071 -4.32046 0
M  V30 2034 H 190.641 -2.71502 -1.36089 0
M  V30 2035 H 188.226 -1.36376 -0.610069 0
M  V30 2036 H 190.108 -2.00236 -3.70788 0
M  V30 2037 H 188.783 -0.981785 -3.08452 0
M  V30 2038 H 187.69 -3.08622 -2.11431 0
M  V30 2039 H 189.023 -4.04936 -2.798 0
M  V30 2040 N 190.675 0.682077 -1.42076 0
M  V30 2041 C 191.625 1.78823 -1.41444 0
M  V30 2042 C 192.609 1.58323 -0.28681 0
M  V30 2043 O 193.801 1.68926 -0.528498 0
M  V30 2044 C 190.93 3.17232 -1.3122 0
M  V30 2045 C 190.016 3.4338 -2.489 0
M  V30 2046 N 190.407 3.40152 -3.7434 0
M  V30 2047 C 188.705 3.73986 -2.43003 0
M  V30 2048 C 189.406 3.65581 -4.52466 0
M  V30 2049 N 188.382 3.85989 -3.8277 0
M  V30 2050 H 192.184 1.7471 -2.36334 0
M  V30 2051 H 189.698 0.882622 -1.36321 0
M  V30 2052 H 191.695 3.96489 -1.2885 0
M  V30 2053 H 190.355 3.22547 -0.373263 0
M  V30 2054 H 191.366 3.20221 -4.07037 0
M  V30 2055 H 188.043 3.86591 -1.57651 0
M  V30 2056 H 189.433 3.69108 -5.61435 0
M  V30 2057 N 192.153 1.28127 0.917671 0
M  V30 2058 C 193.564 1.13622 1.48145 0
M  V30 2059 C 193.915 -0.275207 1.9426 0
M  V30 2060 O 193.04 -1.1691 1.82102 0
M  V30 2061 C 193.635 2.05648 2.69248 0
M  V30 2062 C 192.194 1.95219 3.21818 0
M  V30 2063 C 191.341 1.97618 1.94532 0
M  V30 2064 H 194.292 1.40874 0.730772 0
M  V30 2065 H 194.313 1.61818 3.44377 0
M  V30 2066 H 193.825 3.08365 2.35653 0
M  V30 2067 H 191.926 0.955244 3.60147 0
M  V30 2068 H 192.039 2.81976 3.87333 0
M  V30 2069 H 190.403 1.41973 2.11461 0
M  V30 2070 H 191.186 3.02007 1.63238 0
M  V30 2071 N 193.631 -1.12557 1.10312 0
M  V30 2072 C 194.856 -1.88405 0.867085 0
M  V30 2073 C 195.281 -1.79038 -0.576817 0
M  V30 2074 O 194.639 -1.14439 -1.40618 0
M  V30 2075 C 194.687 -3.3563 1.31851 0
M  V30 2076 O 193.791 -4.09565 0.482734 0
M  V30 2077 H 193.132 -0.585455 0.313271 0
M  V30 2078 H 195.662 -1.42352 1.4696 0
M  V30 2079 H 195.672 -3.86469 1.3079 0
M  V30 2080 H 194.347 -3.41765 2.37001 0
M  V30 2081 H 192.924 -3.68695 0.558448 0
M  V30 2082 N 195.109 -0.891671 -1.2995 0
M  V30 2083 C 196.355 -0.514261 -1.96171 0
M  V30 2084 C 196.688 0.935506 -1.70182 0
M  V30 2085 O 195.963 1.66204 -1.01028 0
M  V30 2086 C 196.246 -0.797719 -3.51153 0
M  V30 2087 C 196.099 -2.2986 -3.86632 0
M  V30 2088 C 197.418 -0.278749 -4.39216 0
M  V30 2089 H 194.537 -0.188314 -0.712535 0
M  V30 2090 H 197.179 -1.11689 -1.53706 0
M  V30 2091 H 195.329 -0.284826 -3.87455 0
M  V30 2092 H 197.001 -2.88042 -3.60319 0
M  V30 2093 H 195.244 -2.76257 -3.34462 0
M  V30 2094 H 195.915 -2.44753 -4.94773 0
M  V30 2095 H 198.391 -0.717825 -4.09862 0
M  V30 2096 H 197.267 -0.506353 -5.46559 0
M  V30 2097 H 197.528 0.820266 -4.34424 0
M  V30 2098 N 196.587 1.43421 -0.653314 0
M  V30 2099 C 197.998 1.85065 -0.246537 0
M  V30 2100 C 198.349 1.54688 1.2069 0
M  V30 2101 O 197.474 0.995896 1.92122 0
M  V30 2102 C 198.069 3.35922 -0.440666 0
M  V30 2103 C 196.628 3.76297 -0.0882064 0
M  V30 2104 C 195.775 2.67147 -0.743484 0
M  V30 2105 H 198.726 1.33572 -0.856979 0
M  V30 2106 H 198.747 3.79204 0.313798 0
M  V30 2107 H 198.259 3.58 -1.49858 0
M  V30 2108 H 196.36 3.5983 0.96711 0
M  V30 2109 H 196.473 4.76338 -0.513738 0
M  V30 2110 H 194.837 2.54086 -0.176712 0
M  V30 2111 H 195.62 2.92053 -1.80443 0
M  V30 2112 N 198.065 0.39524 1.52563 0
M  V30 2113 C 198.995 -0.428384 2.29537 0
M  V30 2114 C 199.976 -1.05831 1.33169 0
M  V30 2115 O 201.161 -1.06995 1.62067 0
M  V30 2116 C 198.291 -1.55274 3.10656 0
M  V30 2117 C 197.245 -1.04855 4.14957 0
M  V30 2118 C 196.571 -2.26543 4.84337 0
M  V30 2119 C 197.871 -0.112324 5.22179 0
M  V30 2120 H 199.565 0.213867 2.98635 0
M  V30 2121 H 197.111 0.104298 1.43622 0
M  V30 2122 H 199.064 -2.1358 3.63265 0
M  V30 2123 H 197.788 -2.22266 2.39302 0
M  V30 2124 H 196.447 -0.487985 3.63338 0
M  V30 2125 H 196.095 -2.92059 4.09525 0
M  V30 2126 H 195.795 -1.93466 5.54837 0
M  V30 2127 H 197.319 -2.85481 5.39753 0
M  V30 2128 H 198.733 -0.603752 5.70112 0
M  V30 2129 H 197.13 0.128968 5.99961 0
M  V30 2130 H 198.2 0.837052 4.77621 0
M  V30 2131 N 199.544 -1.57102 0.125237 0
M  V30 2132 C 200.507 -2.14471 -0.80838 0
M  V30 2133 C 201.507 -1.0811 -1.19033 0
M  V30 2134 O 202.697 -1.33856 -1.11482 0
M  V30 2135 C 199.829 -2.69005 -2.09402 0
M  V30 2136 H 201.022 -2.98297 -0.309696 0
M  V30 2137 H 198.575 -1.55807 -0.124051 0
M  V30 2138 H 199.31 -1.88785 -2.63687 0
M  V30 2139 H 199.095 -3.46799 -1.82957 0
M  V30 2140 H 200.585 -3.13278 -2.76128 0
M  V30 2141 N 201.022 0.148545 -1.56898 0
M  V30 2142 C 201.97 1.20265 -1.99096 0
M  V30 2143 C 202.964 1.44559 -0.883123 0
M  V30 2144 O 204.17 1.4487 -1.0683 0
M  V30 2145 H 200.545 0.404786 -0.63376 0
M  V30 2146 H 202.516 0.82004 -2.86911 0
M  V30 2147 C 201.265 2.52886 -2.3863 0
M  V30 2148 H 200.588 2.35021 -3.23427 0
M  V30 2149 H 202.028 3.25274 -2.7198 0
M  V30 2150 C 200.487 3.13315 -1.23837 0
M  V30 2151 O 201.017 3.98077 -0.538268 0
M  V30 2152 N 199.223 2.72742 -1.00301 0
M  V30 2153 H 198.77 2.03912 -1.5741 0
M  V30 2154 H 198.728 3.13507 -0.236838 0
M  V30 2155 N 202.5 1.5196 0.417844 0
M  V30 2156 C 203.74 1.67262 1.17486 0
M  V30 2157 C 204.104 0.38983 1.88001 0
M  V30 2158 O 205.305 0.418845 2.65517 0
M  V30 2159 C 203.576 2.85526 2.14965 0
M  V30 2160 S 205.135 3.21263 2.98891 0
M  V30 2161 H 201.953 0.589077 0.398132 0
M  V30 2162 H 204.555 1.89927 0.463452 0
M  V30 2163 H 203.259 3.77145 1.61833 0
M  V30 2164 H 202.79 2.65107 2.90657 0
M  V30 2165 H 204.805 2.69208 4.16823 0
M  V30 2166 N 203.978 -0.674533 1.42435 0
M  V30 2167 C 205.224 -1.43521 1.4413 0
M  V30 2168 C 205.579 -1.92316 0.0567773 0
M  V30 2169 O 204.872 -1.68008 -0.921076 0
M  V30 2170 C 205.066 -2.64767 2.40069 0
M  V30 2171 C 204.895 -2.27836 3.87713 0
M  V30 2172 C 203.665 -2.17183 4.56245 0
M  V30 2173 C 205.863 -1.89466 4.78129 0
M  V30 2174 N 203.845 -1.73358 5.88915 0
M  V30 2175 C 205.216 -1.56561 5.99907 0
M  V30 2176 C 207.271 -1.7646 4.65582 0
M  V30 2177 C 205.974 -1.11957 7.10534 0
M  V30 2178 C 208 -1.3326 5.76191 0
M  V30 2179 C 207.362 -1.0128 6.97081 0
M  V30 2180 H 203.461 -0.521656 0.582579 0
M  V30 2181 H 206.045 -0.778381 1.78464 0
M  V30 2182 H 204.216 -3.28139 2.07796 0
M  V30 2183 H 205.948 -3.3136 2.32342 0
M  V30 2184 H 202.703 -2.3626 4.10461 0
M  V30 2185 H 203.127 -1.53867 6.59283 0
M  V30 2186 H 207.769 -1.99831 3.72595 0
M  V30 2187 H 205.487 -0.873318 8.03367 0
M  V30 2188 H 209.073 -1.23717 5.68494 0
M  V30 2189 H 207.953 -0.683597 7.81215 0
M  V30 2190 N 205.456 -1.28612 -0.910864 0
M  V30 2191 C 206.702 -1.16106 -1.66274 0
M  V30 2192 C 207.035 0.289113 -1.92036 0
M  V30 2193 O 206.31 1.21 -1.52281 0
M  V30 2194 C 206.593 -1.96309 -3.01885 0
M  V30 2195 C 206.446 -3.49405 -2.8326 0
M  V30 2196 C 207.765 -1.78076 -4.02463 0
M  V30 2197 H 204.884 -0.423152 -0.603417 0
M  V30 2198 H 207.526 -1.57961 -1.05586 0
M  V30 2199 H 205.676 -1.60742 -3.53687 0
M  V30 2200 H 207.348 -3.94894 -2.38446 0
M  V30 2201 H 205.591 -3.74893 -2.18261 0
M  V30 2202 H 206.262 -4.00784 -3.79574 0
M  V30 2203 H 208.738 -2.0912 -3.59733 0
M  V30 2204 H 207.614 -2.36561 -4.95308 0
M  V30 2205 H 207.875 -0.733008 -4.35981 0
M  V30 2206 N 206.934 1.1197 -1.10907 0
M  V30 2207 C 208.211 1.79959 -0.766432 0
M  V30 2208 C 208.591 1.97466 0.746363 0
M  V30 2209 O 207.939 1.55491 1.67436 0
M  V30 2210 C 208.149 3.14009 -1.52314 0
M  V30 2211 C 209.497 3.89134 -1.69883 0
M  V30 2212 O 210.521 3.2368 -1.48692 0
M  V30 2213 O 209.38 5.06572 -2.05054 0
M  V30 2214 H 206.474 0.779208 -0.277062 0
M  V30 2215 H 209.02 1.18762 -1.21217 0
M  V30 2216 H 207.792 2.96587 -2.55249 0
M  V30 2217 H 207.415 3.82915 -1.07059 0
M  V30 2218 N 208.412 0.89855 1.29475 0
M  V30 2219 C 209.322 0.379974 2.31502 0
M  V30 2220 C 210.338 -0.524695 1.659 0
M  V30 2221 O 211.514 -0.414551 1.97087 0
M  V30 2222 C 208.579 -0.385138 3.44554 0
M  V30 2223 C 207.64 0.550914 4.2575 0
M  V30 2224 C 206.873 -0.177778 5.33404 0
M  V30 2225 O 207.096 -1.40189 5.52904 0
M  V30 2226 O 206.03 0.479106 5.9999 0
M  V30 2227 H 209.856 1.22639 2.77837 0
M  V30 2228 H 207.441 0.662834 1.33891 0
M  V30 2229 H 209.323 -0.817841 4.13388 0
M  V30 2230 H 207.998 -1.20763 3.0033 0
M  V30 2231 H 206.905 1.03271 3.59564 0
M  V30 2232 H 208.238 1.33979 4.73614 0
M  V30 2233 N 209.89 -1.43072 0.660911 0
M  V30 2234 C 211.167 -1.95307 0.107017 0
M  V30 2235 C 211.547 -1.60192 -1.37484 0
M  V30 2236 O 210.895 -0.890949 -2.10415 0
M  V30 2237 C 211.105 -3.47124 0.361402 0
M  V30 2238 C 212.453 -4.23738 0.270455 0
M  V30 2239 O 213.477 -3.54981 0.294382 0
M  V30 2240 O 212.336 -5.46131 0.200737 0
M  V30 2241 H 209.43 -0.826984 -0.00517729 0
M  V30 2242 H 211.976 -1.52972 0.734681 0
M  V30 2243 H 210.748 -3.65837 1.38848 0
M  V30 2244 H 210.371 -3.96475 -0.298953 0
M  V30 2245 N 211.368 -0.403325 -1.52352 0
M  V30 2246 C 212.608 0.173946 -2.03659 0
M  V30 2247 C 212.972 1.42869 -1.28267 0
M  V30 2248 O 214.173 2.08403 -1.69769 0
M  V30 2249 C 212.444 0.421478 -3.54906 0
M  V30 2250 S 214.003 0.967027 -4.28012 0
M  V30 2251 H 210.821 0.0477461 -0.709395 0
M  V30 2252 H 213.423 -0.554906 -1.87459 0
M  V30 2253 H 212.127 -0.498616 -4.0736 0
M  V30 2254 H 211.658 1.17837 -3.75337 0
M  V30 2255 H 213.673 2.24812 -4.4235 0
M  V30 2256 N 212.846 1.57033 -0.133567 0
M  V30 2257 C 214.257 1.82593 0.389464 0
M  V30 2258 C 214.608 1.05156 1.6564 0
M  V30 2259 O 213.733 0.292644 2.14412 0
M  V30 2260 C 214.328 3.31204 0.713377 0
M  V30 2261 C 212.887 3.57393 1.18098 0
M  V30 2262 C 212.034 2.76598 0.197126 0
M  V30 2263 H 214.985 1.54598 -0.358481 0
M  V30 2264 H 215.006 3.46627 1.56939 0
M  V30 2265 H 214.518 3.87537 -0.2089 0
M  V30 2266 H 212.619 3.06433 2.11966 0
M  V30 2267 H 212.732 4.65915 1.11624 0
M  V30 2268 H 211.096 2.45257 0.687088 0
M  V30 2269 H 211.879 3.35697 -0.718504 0
M  V30 2270 N 214.325 -0.140222 1.56975 0
M  V30 2271 C 215.235 -1.19223 2.02047 0
M  V30 2272 C 216.251 -1.46612 0.937062 0
M  V30 2273 O 217.427 -1.58148 1.24704 0
M  V30 2274 C 214.492 -2.50414 2.39778 0
M  V30 2275 C 213.553 -2.30612 3.621 0
M  V30 2276 C 212.786 -3.55547 3.98023 0
M  V30 2277 O 213.009 -4.62004 3.34528 0
M  V30 2278 O 211.943 -3.47808 4.91237 0
M  V30 2279 H 215.769 -0.839559 2.91865 0
M  V30 2280 H 213.354 -0.349453 1.45256 0
M  V30 2281 H 215.236 -3.27747 2.64877 0
M  V30 2282 H 213.911 -2.85198 1.53114 0
M  V30 2283 H 212.818 -1.51207 3.4218 0
M  V30 2284 H 214.151 -2.00741 4.49404 0
M  V30 2285 N 215.803 -1.52179 -0.40978 0
M  V30 2286 C 217.051 -1.65878 -1.15451 0
M  V30 2287 C 217.372 -0.390771 -1.91044 0
M  V30 2288 O 216.642 0.594323 -1.86667 0
M  V30 2289 H 215.222 -0.611405 -0.429177 0
M  V30 2290 H 217.884 -1.89219 -0.467134 0
M  V30 2291 H 216.98 -2.49954 -1.86894 0
M  V30 2292 N 217.281 0.66697 -1.42791 0
M  V30 2293 C 218.191 1.80962 -1.49299 0
M  V30 2294 C 219.207 1.69775 -0.381108 0
M  V30 2295 O 220.383 1.91188 -0.633188 0
M  V30 2296 C 217.448 3.17156 -1.40045 0
M  V30 2297 C 216.509 3.40242 -2.6179 0
M  V30 2298 C 215.742 4.69939 -2.52969 0
M  V30 2299 O 215.965 5.48372 -1.56985 0
M  V30 2300 O 214.899 4.94441 -3.43237 0
M  V30 2301 H 218.725 1.78427 -2.45759 0
M  V30 2302 H 216.31 0.823713 -1.24641 0
M  V30 2303 H 218.192 3.98413 -1.37276 0
M  V30 2304 H 216.867 3.20312 -0.467138 0
M  V30 2305 H 215.774 2.58802 -2.70134 0
M  V30 2306 H 217.107 3.41923 -3.54047 0
M  V30 2307 N 218.759 1.29093 0.90403 0
M  V30 2308 C 220.007 1.16583 1.65085 0
M  V30 2309 C 220.328 -0.283933 1.92922 0
M  V30 2310 O 219.598 -1.19509 1.55224 0
M  V30 2311 H 218.178 0.428467 0.611903 0
M  V30 2312 H 220.84 1.61959 1.08422 0
M  V30 2313 H 219.936 1.71266 2.6091 0
M  V30 2314 N 220.237 -1.11381 1.11499 0
M  V30 2315 C 221.485 -1.8277 0.862524 0
M  V30 2316 C 221.806 -1.85097 -0.613534 0
M  V30 2317 O 221.076 -1.32198 -1.4457 0
M  V30 2318 H 219.656 -0.676823 0.316101 0
M  V30 2319 H 222.318 -1.34816 1.4075 0
M  V30 2320 H 221.414 -2.86614 1.23527 0
M  V30 2321 N 221.715 -0.905404 -1.28997 0
M  V30 2322 C 222.943 -0.549846 -1.9946 0
M  V30 2323 C 223.358 0.866834 -1.67724 0
M  V30 2324 O 222.715 1.57298 -0.925404 0
M  V30 2325 C 222.766 -0.739387 -3.53858 0
M  V30 2326 O 222.487 -2.10031 -3.84472 0
M  V30 2327 C 223.988 -0.389541 -4.41585 0
M  V30 2328 H 221.208 -0.210429 -0.637151 0
M  V30 2329 H 223.752 -1.21632 -1.64396 0
M  V30 2330 H 221.907 -0.120023 -3.87214 0
M  V30 2331 H 222.321 -2.13385 -4.79132 0
M  V30 2332 H 223.795 -0.572972 -5.49018 0
M  V30 2333 H 224.272 0.673756 -4.34001 0
M  V30 2334 H 224.878 -0.986089 -4.1371 0
M  V30 2335 N 223.193 1.4272 -0.668489 0
M  V30 2336 C 224.143 2.27971 0.0363806 0
M  V30 2337 C 225.127 1.40741 0.779794 0
M  V30 2338 O 226.319 1.64245 0.659745 0
M  V30 2339 C 223.448 3.28673 0.991398 0
M  V30 2340 C 222.534 4.23388 0.245658 0
M  V30 2341 N 222.925 5.00267 -0.746069 0
M  V30 2342 C 221.223 4.43355 0.484988 0
M  V30 2343 C 221.924 5.69396 -1.19009 0
M  V30 2344 N 220.9 5.41095 -0.521287 0
M  V30 2345 H 224.702 2.84833 -0.724394 0
M  V30 2346 H 222.216 1.54607 -0.497028 0
M  V30 2347 H 224.213 3.88543 1.51129 0
M  V30 2348 H 222.873 2.73373 1.75207 0
M  V30 2349 H 223.884 5.05525 -1.12537 0
M  V30 2350 H 220.561 3.99104 1.22565 0
M  V30 2351 H 221.951 6.41083 -2.01153 0
M  V30 2352 N 224.671 0.411399 1.52136 0
M  V30 2353 C 225.896 -0.165538 2.06738 0
M  V30 2354 C 226.321 -1.379 1.27926 0
M  V30 2355 O 225.679 -1.78628 0.310114 0
M  V30 2356 C 225.727 -0.492124 3.57226 0
M  V30 2357 O 224.831 -1.58276 3.80818 0
M  V30 2358 H 224.172 -0.0132132 0.663869 0
M  V30 2359 H 226.702 0.585253 1.96051 0
M  V30 2360 H 226.712 -0.750104 4.01045 0
M  V30 2361 H 225.387 0.394922 4.14021 0
M  V30 2362 H 223.964 -1.31677 3.48877 0
M  V30 2363 N 226.149 -1.5696 0.141893 0
M  V30 2364 C 227.099 -2.13074 -0.811383 0
M  V30 2365 C 228.083 -1.05726 -1.21288 0
M  V30 2366 O 229.275 -1.31914 -1.18015 0
M  V30 2367 C 226.404 -2.75186 -2.0525 0
M  V30 2368 C 225.49 -3.8965 -1.67432 0
M  V30 2369 N 225.881 -4.95733 -1.0041 0
M  V30 2370 C 224.179 -4.00262 -1.96739 0
M  V30 2371 C 224.88 -5.75858 -0.822345 0
M  V30 2372 N 223.856 -5.26452 -1.3546 0
M  V30 2373 H 227.658 -2.92465 -0.290031 0
M  V30 2374 H 225.172 -1.6229 -0.0598218 0
M  V30 2375 H 227.169 -3.13745 -2.74535 0
M  V30 2376 H 225.829 -1.97266 -2.57907 0
M  V30 2377 H 226.84 -5.13607 -0.665441 0
M  V30 2378 H 223.517 -3.33412 -2.51282 0
M  V30 2379 H 224.907 -6.71254 -0.294496 0
M  V30 2380 N 227.627 0.131896 -1.57047 0
M  V30 2381 C 228.875 0.840269 -1.83804 0
M  V30 2382 C 229.196 1.81017 -0.72512 0
M  V30 2383 O 228.466 1.94272 0.251995 0
M  V30 2384 H 227.046 0.313294 -0.678127 0
M  V30 2385 H 229.708 0.122294 -1.94516 0
M  V30 2386 H 228.804 1.39335 -2.79271 0
M  V30 2387 N 229.106 1.52395 0.401703 0
M  V30 2388 C 230.352 1.67065 1.14966 0
M  V30 2389 C 230.685 0.403052 1.89971 0
M  V30 2390 O 229.96 -0.598774 1.85054 0
M  V30 2391 C 230.243 2.8975 2.13815 0
M  V30 2392 C 230.096 4.26578 1.42658 0
M  V30 2393 C 231.415 3.07965 3.14397 0
M  V30 2394 H 228.534 0.607968 0.416587 0
M  V30 2395 H 231.176 1.84965 0.434511 0
M  V30 2396 H 229.326 2.74619 2.74803 0
M  V30 2397 H 230.998 4.53451 0.847329 0
M  V30 2398 H 229.241 4.27639 0.72849 0
M  V30 2399 H 229.912 5.08483 2.14823 0
M  V30 2400 H 232.388 3.22043 2.63491 0
M  V30 2401 H 231.264 3.95308 3.80819 0
M  V30 2402 H 231.525 2.21611 3.82545 0
M  V30 2403 N 230.584 -0.659388 1.43143 0
M  V30 2404 C 231.531 -1.77249 1.47822 0
M  V30 2405 C 232.501 -1.62818 0.328558 0
M  V30 2406 O 233.686 -1.83151 0.534838 0
M  V30 2407 C 230.826 -3.15371 1.40126 0
M  V30 2408 C 229.939 -3.4098 2.65249 0
M  V30 2409 C 229.074 -4.68915 2.49584 0
M  V30 2410 C 228.113 -4.87608 3.70006 0
M  V30 2411 N 227.25 -6.06796 3.53189 0
M  V30 2412 H 232.09 -1.72584 2.42938 0
M  V30 2413 H 229.627 -0.842297 1.20598 0
M  V30 2414 H 231.585 -3.9521 1.33659 0
M  V30 2415 H 230.215 -3.19121 0.485964 0
M  V30 2416 H 229.267 -2.55282 2.8202 0
M  V30 2417 H 230.579 -3.50681 3.54717 0
M  V30 2418 H 229.733 -5.56871 2.4079 0
M  V30 2419 H 228.472 -4.61524 1.5763 0
M  V30 2420 H 227.477 -3.9809 3.79215 0
M  V30 2421 H 228.702 -4.96834 4.62961 0
M  V30 2422 H 226.648 -6.00549 2.63965 0
M  V30 2423 H 226.565 -6.17428 4.36255 0
M  V30 2424 H 227.833 -6.9739 3.48236 0
M  V30 2425 N 232.062 -1.29571 -0.897171 0
M  V30 2426 C 233.29 -1.20583 -1.68129 0
M  V30 2427 C 233.705 0.233181 -1.87354 0
M  V30 2428 O 233.062 1.15579 -1.41236 0
M  V30 2429 C 233.113 -1.91772 -3.06441 0
M  V30 2430 O 232.834 -3.30053 -2.88091 0
M  V30 2431 C 234.335 -1.89291 -4.00854 0
M  V30 2432 H 231.555 -0.417826 -0.525036 0
M  V30 2433 H 234.099 -1.70987 -1.12177 0
M  V30 2434 H 232.254 -1.45196 -3.59161 0
M  V30 2435 H 232.668 -3.65942 -3.75748 0
M  V30 2436 H 234.142 -2.43662 -4.95311 0
M  V30 2437 H 234.619 -0.869014 -4.30517 0
M  V30 2438 H 235.225 -2.35622 -3.54066 0
M  V30 2439 N 233.54 1.10788 -1.12088 0
M  V30 2440 C 234.788 1.8231 -0.872205 0
M  V30 2441 C 235.109 1.85419 0.603709 0
M  V30 2442 O 234.379 1.32963 1.43867 0
M  V30 2443 H 232.959 0.675137 -0.319686 0
M  V30 2444 H 235.621 1.34068 -1.41463 0
M  V30 2445 H 234.717 2.85955 -1.25045 0
M  V30 2446 N 235.018 0.912232 1.28515 0
M  V30 2447 C 235.95 0.35676 2.26406 0
M  V30 2448 C 236.963 -0.503933 1.54804 0
M  V30 2449 O 238.152 -0.319059 1.75625 0
M  V30 2450 C 235.252 -0.508825 3.35058 0
M  V30 2451 C 234.425 0.329007 4.36161 0
M  V30 2452 C 233.484 -0.471422 5.24084 0
M  V30 2453 O 232.51 0.115482 5.69083 0
M  V30 2454 N 233.712 -1.77479 5.52704 0
M  V30 2455 H 236.477 1.19818 2.74707 0
M  V30 2456 H 234.038 0.778022 1.4198 0
M  V30 2457 H 236.03 -1.051 3.90815 0
M  V30 2458 H 234.6 -1.25095 2.86478 0
M  V30 2459 H 233.82 1.05256 3.79888 0
M  V30 2460 H 235.108 0.90234 5.00735 0
M  V30 2461 H 234.506 -2.27417 5.17975 0
M  V30 2462 H 233.063 -2.26382 6.11224 0
M  V30 2463 N 236.496 -1.42363 0.676048 0
M  V30 2464 C 237.736 -2.03392 0.20273 0
M  V30 2465 C 238.1 -1.52306 -1.16906 0
M  V30 2466 O 239.301 -2.05129 -1.73711 0
M  V30 2467 C 237.572 -3.56614 0.236947 0
M  V30 2468 S 239.131 -4.38489 -0.165186 0
M  V30 2469 H 235.949 -0.70611 0.0832418 0
M  V30 2470 H 238.551 -1.74093 0.88948 0
M  V30 2471 H 237.255 -3.91293 1.23767 0
M  V30 2472 H 236.786 -3.90587 -0.469596 0
M  V30 2473 H 238.801 -4.76093 -1.39822 0
M  V30 2474 N 237.974 -0.419461 -1.51915 0
M  V30 2475 C 239.22 0.153166 -2.02221 0
M  V30 2476 C 239.553 1.43907 -1.30401 0
M  V30 2477 O 238.828 1.90055 -0.413438 0
M  V30 2478 C 239.111 0.390291 -3.57979 0
M  V30 2479 C 238.964 -0.913014 -4.40436 0
M  V30 2480 C 240.283 1.16794 -4.2432 0
M  V30 2481 H 237.402 0.0541924 -0.735005 0
M  V30 2482 H 240.044 -0.554955 -1.81715 0
M  V30 2483 H 238.194 0.993491 -3.75582 0
M  V30 2484 H 239.866 -1.54882 -4.34522 0
M  V30 2485 H 238.109 -1.52168 -4.06236 0
M  V30 2486 H 238.78 -0.701361 -5.47526 0
M  V30 2487 H 241.256 0.657161 -4.10878 0
M  V30 2488 H 240.132 1.3026 -5.3322 0
M  V30 2489 H 240.393 2.19132 -3.83971 0
M  V30 2490 N 239.452 1.56882 -0.150215 0
M  V30 2491 C 240.698 1.96518 0.500834 0
M  V30 2492 C 241.031 1.03527 1.64304 0
M  V30 2493 O 240.306 0.0782751 1.94342 0
M  V30 2494 C 240.589 3.45822 1.00395 0
M  V30 2495 C 240.442 4.49591 -0.136983 0
M  V30 2496 C 241.761 3.97704 1.88467 0
M  V30 2497 H 238.88 0.714535 0.18058 0
M  V30 2498 H 241.522 1.88577 -0.232091 0
M  V30 2499 H 239.672 3.5272 1.62851 0
M  V30 2500 H 241.344 4.5477 -0.77343 0
M  V30 2501 H 239.587 4.26441 -0.795652 0
M  V30 2502 H 240.258 5.51402 0.256815 0
M  V30 2503 H 242.734 3.93304 1.35834 0
M  V30 2504 H 241.61 5.0263 2.20578 0
M  V30 2505 H 241.871 3.40252 2.82279 0
M  V30 2506 N 240.93 -0.123565 1.57115 0
M  V30 2507 C 242.177 -0.832153 1.84612 0
M  V30 2508 C 242.505 -1.80093 0.734627 0
M  V30 2509 O 241.76 -1.93766 -0.27442 0
M  V30 2510 C 242.059 -1.62016 3.18568 0
M  V30 2511 C 241.725 -0.796084 4.43817 0
M  V30 2512 C 240.387 -0.568816 4.77826 0
M  V30 2513 C 242.739 -0.221364 5.2073 0
M  V30 2514 C 240.067 0.243499 5.86194 0
M  V30 2515 C 242.419 0.578117 6.29953 0
M  V30 2516 C 241.083 0.815744 6.62497 0
M  V30 2517 H 240.353 -0.304507 0.675542 0
M  V30 2518 H 243 -0.0947248 1.91266 0
M  V30 2519 H 241.305 -2.42837 3.0747 0
M  V30 2520 H 243.002 -2.17231 3.37064 0
M  V30 2521 H 239.592 -0.983307 4.17168 0
M  V30 2522 H 243.776 -0.384173 4.94811 0
M  V30 2523 H 239.032 0.436871 6.09837 0
M  V30 2524 H 243.206 1.03046 6.88734 0
M  V30 2525 H 240.833 1.44701 7.46301 0
M  V30 2526 N 242.408 -1.52605 -0.393616 0
M  V30 2527 C 243.356 -1.77688 -1.50099 0
M  V30 2528 C 244.35 -0.644615 -1.56656 0
M  V30 2529 O 245.556 -0.826997 -1.59877 0
M  V30 2530 H 241.931 -0.562159 -0.499481 0
M  V30 2531 H 243.902 -2.7043 -1.26135 0
M  V30 2532 C 242.651 -1.95858 -2.87289 0
M  V30 2533 H 241.974 -2.8241 -2.82992 0
M  V30 2534 H 243.414 -2.174 -3.64024 0
M  V30 2535 C 241.873 -0.729848 -3.28899 0
M  V30 2536 O 242.403 0.0949217 -4.01588 0
M  V30 2537 N 240.609 -0.561283 -2.85128 0
M  V30 2538 H 240.156 -1.23357 -2.26143 0
M  V30 2539 H 240.114 0.2595 -3.13327 0
M  V30 2540 N 243.887 0.651787 -1.4349 0
M  V30 2541 C 245.135 1.40888 -1.44897 0
M  V30 2542 C 245.456 1.94856 -0.0749086 0
M  V30 2543 O 244.726 1.74518 0.889956 0
M  V30 2544 H 243.306 0.522887 -0.533478 0
M  V30 2545 H 245.968 0.768609 -1.79104 0
M  V30 2546 H 245.064 2.25052 -2.16236 0
M  V30 2547 N 245.365 1.30045 0.890287 0
M  V30 2548 C 246.593 1.21472 1.67487 0
M  V30 2549 C 247.008 -0.223241 1.87476 0
M  V30 2550 O 246.365 -1.14828 1.41847 0
M  V30 2551 C 246.416 1.93394 3.05419 0
M  V30 2552 O 246.137 3.31576 2.86337 0
M  V30 2553 C 247.638 1.91414 3.99844 0
M  V30 2554 H 244.858 0.420604 0.522813 0
M  V30 2555 H 247.402 1.7158 1.11268 0
M  V30 2556 H 245.557 1.47099 3.58386 0
M  V30 2557 H 245.971 3.67929 3.73802 0
M  V30 2558 H 247.445 2.46285 4.94012 0
M  V30 2559 H 247.922 0.891833 4.3005 0
M  V30 2560 H 248.528 2.37496 3.52811 0
M  V30 2561 N 246.843 -1.10192 1.12674 0
M  V30 2562 C 247.793 -2.14754 0.765801 0
M  V30 2563 C 248.777 -1.59154 -0.236409 0
M  V30 2564 O 249.969 -1.76951 -0.0415261 0
M  V30 2565 C 247.098 -3.42563 0.224827 0
M  V30 2566 C 246.184 -4.05091 1.25548 0
M  V30 2567 N 246.575 -4.42287 2.4539 0
M  V30 2568 C 244.873 -4.32186 1.10142 0
M  V30 2569 C 245.574 -4.91441 3.11224 0
M  V30 2570 N 244.55 -4.88405 2.38666 0
M  V30 2571 H 248.352 -2.41309 1.67772 0
M  V30 2572 H 245.866 -1.27339 1.00789 0
M  V30 2573 H 247.863 -4.16868 -0.0519578 0
M  V30 2574 H 246.523 -3.17467 -0.681515 0
M  V30 2575 H 247.534 -4.33902 2.82754 0
M  V30 2576 H 244.211 -4.16735 0.252587 0
M  V30 2577 H 245.601 -5.29749 4.13298 0
M  V30 2578 N 248.321 -0.919034 -1.28029 0
M  V30 2579 C 249.737 -0.617972 -1.4715 0
M  V30 2580 C 249.937 0.835242 -1.83374 0
M  V30 2581 O 248.993 1.61388 -1.94191 0
M  V30 2582 C 250.306 -1.56041 -2.57044 0
M  V30 2583 C 251.854 -1.56769 -2.7091 0
M  V30 2584 C 252.329 -2.49688 -3.83953 0
M  V30 2585 N 253.82 -2.47845 -3.91314 0
M  V30 2586 C 254.555 -3.16437 -4.78179 0
M  V30 2587 N 254.051 -3.94376 -5.69596 0
M  V30 2588 N 255.844 -3.05498 -4.71834 0
M  V30 2589 H 247.995 -1.85866 -1.02798 0
M  V30 2590 H 250.258 -0.797506 -0.512531 0
M  V30 2591 H 249.964 -2.59671 -2.372 0
M  V30 2592 H 249.838 -1.29551 -3.54255 0
M  V30 2593 H 252.225 -0.538745 -2.90141 0
M  V30 2594 H 252.306 -1.87305 -1.74214 0
M  V30 2595 H 251.95 -3.52688 -3.65477 0
M  V30 2596 H 251.88 -2.16453 -4.80058 0
M  V30 2597 H 254.371 -1.91234 -3.25941 0
M  V30 2598 H 254.684 -4.43721 -6.32718 0
M  V30 2599 H 253.029 -3.98481 -5.69419 0
M  V30 2600 H 256.22 -2.44108 -3.99411 0
M  V30 2601 H 256.393 -3.59225 -5.39316 0
M  V30 2602 N 249.799 1.42003 -0.683588 0
M  V30 2603 C 251.027 2.05746 -0.218182 0
M  V30 2604 C 251.442 1.51396 1.12804 0
M  V30 2605 O 250.799 0.657303 1.70252 0
M  V30 2606 C 250.85 3.61171 -0.154131 0
M  V30 2607 O 250.571 4.13508 -1.44716 0
M  V30 2608 C 252.072 4.42042 0.333713 0
M  V30 2609 H 249.292 0.662888 -0.10402 0
M  V30 2610 H 251.836 1.81987 -0.9328 0
M  V30 2611 H 249.991 3.84012 0.511231 0
M  V30 2612 H 250.405 5.07453 -1.32632 0
M  V30 2613 H 251.879 5.51028 0.327423 0
M  V30 2614 H 252.356 4.17269 1.37053 0
M  V30 2615 H 252.962 4.24239 -0.300222 0
M  V30 2616 N 251.277 0.427512 1.51691 0
M  V30 2617 C 252.517 -0.141524 2.03909 0
M  V30 2618 C 252.881 -1.40811 1.30523 0
M  V30 2619 O 254.082 -2.05676 1.73063 0
M  V30 2620 C 252.353 -0.364962 3.55532 0
M  V30 2621 S 253.912 -0.898812 4.29496 0
M  V30 2622 H 250.73 -0.0364542 0.710065 0
M  V30 2623 H 253.332 0.584659 1.86553 0
M  V30 2624 H 252.036 0.56336 4.06515 0
M  V30 2625 H 251.567 -1.1185 3.77164 0
M  V30 2626 H 253.582 -2.17747 4.45871 0
M  V30 2627 N 252.755 -1.56801 0.158532 0
M  V30 2628 C 253.665 -2.20916 -0.789518 0
M  V30 2629 C 254.681 -1.1969 -1.26294 0
M  V30 2630 O 255.857 -1.52308 -1.31773 0
M  V30 2631 C 252.922 -2.82727 -2.00665 0
M  V30 2632 C 251.983 -3.99114 -1.58134 0
M  V30 2633 C 251.216 -4.57968 -2.74045 0
M  V30 2634 O 251.439 -4.15704 -3.90572 0
M  V30 2635 O 250.373 -5.48047 -2.48855 0
M  V30 2636 H 254.199 -3.02464 -0.273681 0
M  V30 2637 H 251.784 -1.4924 -0.0690548 0
M  V30 2638 H 253.666 -3.21968 -2.71872 0
M  V30 2639 H 252.341 -2.04184 -2.51179 0
M  V30 2640 H 251.248 -3.64567 -0.839155 0
M  V30 2641 H 252.581 -4.79212 -1.12325 0
M  V30 2642 N 254.233 0.115231 -1.57178 0
M  V30 2643 C 255.482 0.820945 -1.84237 0
M  V30 2644 C 255.795 1.80866 -0.744761 0
M  V30 2645 O 257.001 2.56083 -0.901871 0
M  V30 2646 C 255.457 1.51072 -3.26658 0
M  V30 2647 C 255.065 0.563795 -4.44438 0
M  V30 2648 C 256.809 2.20134 -3.62962 0
M  V30 2649 C 254.716 1.25701 -5.77887 0
M  V30 2650 H 253.646 0.310328 -0.687177 0
M  V30 2651 H 256.297 0.0737134 -1.83352 0
M  V30 2652 H 254.679 2.30471 -3.22024 0
M  V30 2653 H 255.853 -0.197247 -4.60378 0
M  V30 2654 H 254.168 -0.0200638 -4.16395 0
M  V30 2655 H 256.765 2.72696 -4.59936 0
M  V30 2656 H 257.108 2.98107 -2.90582 0
M  V30 2657 H 257.641 1.47619 -3.69396 0
M  V30 2658 H 254.38 0.518493 -6.53446 0
M  V30 2659 H 253.9 1.98997 -5.65827 0
M  V30 2660 H 255.579 1.78915 -6.2177 0
M  V30 2661 N 255.711 1.52812 0.385517 0
M  V30 2662 C 256.957 1.69225 1.12847 0
M  V30 2663 C 257.312 0.42864 1.87564 0
M  V30 2664 O 256.605 -0.57779 1.8268 0
M  V30 2665 C 256.799 2.86856 2.13187 0
M  V30 2666 C 256.628 4.24535 1.48325 0
M  V30 2667 C 255.398 4.89701 1.24585 0
M  V30 2668 C 257.596 5.05794 0.931501 0
M  V30 2669 N 255.578 6.11353 0.558644 0
M  V30 2670 C 256.949 6.1888 0.372552 0
M  V30 2671 C 259.004 4.90963 0.828248 0
M  V30 2672 C 257.707 7.18757 -0.279556 0
M  V30 2673 C 259.733 5.91095 0.189956 0
M  V30 2674 C 259.095 7.03489 -0.358207 0
M  V30 2675 H 255.194 0.67268 0.39878 0
M  V30 2676 H 257.778 1.9017 0.417528 0
M  V30 2677 H 255.949 2.67484 2.81614 0
M  V30 2678 H 257.681 2.92188 2.80014 0
M  V30 2679 H 254.436 4.48485 1.52178 0
M  V30 2680 H 254.86 6.76606 0.230983 0
M  V30 2681 H 259.502 4.04274 1.23784 0
M  V30 2682 H 257.22 8.05052 -0.701152 0
M  V30 2683 H 260.806 5.81694 0.111264 0
M  V30 2684 H 259.686 7.79642 -0.844314 0
M  V30 2685 N 257.189 -0.644168 1.43834 0
M  V30 2686 C 258.414 -1.43642 1.49605 0
M  V30 2687 C 258.839 -1.8773 0.117913 0
M  V30 2688 O 258.197 -1.57938 -0.890239 0
M  V30 2689 C 258.245 -2.6416 2.45463 0
M  V30 2690 O 257.349 -3.63538 1.94714 0
M  V30 2691 H 256.69 -0.430329 0.50568 0
M  V30 2692 H 259.22 -0.787448 1.8884 0
M  V30 2693 H 259.23 -3.11864 2.63068 0
M  V30 2694 H 257.905 -2.31414 3.45572 0
M  V30 2695 H 256.482 -3.2273 1.86814 0
M  V30 2696 N 258.668 -1.30515 -0.883378 0
M  V30 2697 C 259.914 -1.20617 -1.63778 0
M  V30 2698 C 260.269 0.236469 -1.90941 0
M  V30 2699 O 259.562 1.16596 -1.52039 0
M  V30 2700 C 259.756 -1.96994 -2.98209 0
M  V30 2701 C 259.585 -3.48537 -2.84169 0
M  V30 2702 C 258.355 -4.17893 -2.84067 0
M  V30 2703 C 260.553 -4.43738 -2.60001 0
M  V30 2704 N 258.535 -5.55685 -2.60936 0
M  V30 2705 C 259.906 -5.69105 -2.46007 0
M  V30 2706 C 261.961 -4.33316 -2.45239 0
M  V30 2707 C 260.664 -6.8523 -2.18752 0
M  V30 2708 C 262.69 -5.4921 -2.19369 0
M  V30 2709 C 262.052 -6.73558 -2.06153 0
M  V30 2710 H 258.151 -0.496434 -0.604216 0
M  V30 2711 H 260.735 -1.64544 -1.04083 0
M  V30 2712 H 258.906 -1.55455 -3.55933 0
M  V30 2713 H 260.638 -1.79225 -3.62851 0
M  V30 2714 H 257.393 -3.69739 -2.95956 0
M  V30 2715 H 257.817 -6.28199 -2.52378 0
M  V30 2716 H 262.459 -3.37856 -2.54191 0
M  V30 2717 H 260.177 -7.80729 -2.08537 0
M  V30 2718 H 263.763 -5.43054 -2.08766 0
M  V30 2719 H 262.643 -7.61721 -1.86416 0
M  V30 2720 N 260.146 1.09593 -1.13257 0
M  V30 2721 C 261.386 1.83349 -0.903472 0
M  V30 2722 C 261.75 1.83641 0.560351 0
M  V30 2723 O 262.951 2.53037 0.906947 0
M  V30 2724 C 261.222 3.25629 -1.47311 0
M  V30 2725 S 262.781 4.16408 -1.38382 0
M  V30 2726 H 259.599 0.632014 -0.325699 0
M  V30 2727 H 262.201 1.31817 -1.44376 0
M  V30 2728 H 260.905 3.22991 -2.53189 0
M  V30 2729 H 260.436 3.82233 -0.930689 0
M  V30 2730 H 262.451 4.94884 -0.361113 0
M  V30 2731 N 261.624 0.925811 1.2754 0
M  V30 2732 C 263.035 0.610102 1.7645 0
M  V30 2733 C 263.386 -0.874723 1.75622 0
M  V30 2734 O 262.511 -1.68444 1.35851 0
M  V30 2735 C 263.106 1.10073 3.20421 0
M  V30 2736 C 261.665 0.835723 3.67005 0
M  V30 2737 C 260.812 1.26054 2.46993 0
M  V30 2738 H 263.763 1.10579 1.13833 0
M  V30 2739 H 263.784 0.447557 3.77859 0
M  V30 2740 H 263.296 2.18143 3.20991 0
M  V30 2741 H 261.397 -0.231249 3.71882 0
M  V30 2742 H 261.51 1.45193 4.56569 0
M  V30 2743 H 259.874 0.679111 2.45479 0
M  V30 2744 H 260.657 2.34984 2.50275 0
M  V30 2745 N 263.102 -1.41638 0.69111 0
M  V30 2746 C 264.348 -2.01598 0.220519 0
M  V30 2747 C 264.681 -1.54594 -1.17535 0
M  V30 2748 O 263.956 -0.755177 -1.79241 0
M  V30 2749 C 264.239 -3.59062 0.273243 0
M  V30 2750 C 264.092 -4.16203 1.70573 0
M  V30 2751 C 265.411 -4.38546 -0.369457 0
M  V30 2752 H 262.53 -0.732468 0.0816045 0
M  V30 2753 H 265.172 -1.68445 0.878986 0
M  V30 2754 H 263.322 -3.87435 -0.287411 0
M  V30 2755 H 264.994 -3.98722 2.31989 0
M  V30 2756 H 263.237 -3.71414 2.2413 0
M  V30 2757 H 263.908 -5.25358 1.69419 0
M  V30 2758 H 266.384 -4.1596 0.107977 0
M  V30 2759 H 265.26 -5.48069 -0.302002 0
M  V30 2760 H 265.521 -4.17662 -1.44951 0
M  V30 2761 N 264.58 -0.43555 -1.51462 0
M  V30 2762 C 265.49 0.383001 -2.31453 0
M  V30 2763 C 266.506 1.02931 -1.4029 0
M  V30 2764 O 267.682 1.02507 -1.73362 0
M  V30 2765 C 264.747 1.47043 -3.13973 0
M  V30 2766 C 263.808 0.844433 -4.20913 0
M  V30 2767 C 263.041 1.88004 -4.9949 0
M  V30 2768 O 263.264 3.10199 -4.78678 0
M  V30 2769 O 262.198 1.47157 -5.83634 0
M  V30 2770 H 266.024 -0.269964 -3.02498 0
M  V30 2771 H 263.609 -0.19813 -1.4808 0
M  V30 2772 H 265.491 2.10113 -3.65281 0
M  V30 2773 H 264.166 2.10751 -2.45695 0
M  V30 2774 H 263.073 0.175729 -3.73687 0
M  V30 2775 H 264.406 0.250869 -4.9156 0
M  V30 2776 N 266.058 1.56714 -0.166846 0
M  V30 2777 C 267.283 2.01557 0.488833 0
M  V30 2778 C 267.708 1.0463 1.56314 0
M  V30 2779 O 267.066 0.0251304 1.81283 0
M  V30 2780 C 267.114 3.4503 1.04818 0
M  V30 2781 O 266.218 3.51163 2.16236 0
M  V30 2782 H 265.559 0.653516 0.117526 0
M  V30 2783 H 268.089 2.02818 -0.269421 0
M  V30 2784 H 268.099 3.84243 1.37191 0
M  V30 2785 H 266.774 4.15077 0.261572 0
M  V30 2786 H 265.351 3.23807 1.84942 0
M  V30 2787 N 267.536 -0.106894 1.57237 0
M  V30 2788 C 268.784 -0.810921 1.85117 0
M  V30 2789 C 269.105 -1.7984 0.753827 0
M  V30 2790 O 268.375 -1.94649 -0.221056 0
M  V30 2791 H 266.955 -0.302466 0.683025 0
M  V30 2792 H 269.617 -0.0913324 1.94686 0
M  V30 2793 H 268.713 -1.34875 2.81452 0
M  V30 2794 N 269.014 -1.53014 -0.377408 0
M  V30 2795 C 270.26 -1.68872 -1.12294 0
M  V30 2796 C 270.593 -0.433224 -1.89306 0
M  V30 2797 O 269.868 0.569258 -1.85983 0
M  V30 2798 C 270.151 -2.93115 -2.09179 0
M  V30 2799 C 270.004 -4.28794 -1.35853 0
M  V30 2800 C 271.323 -3.12928 -3.09458 0
M  V30 2801 H 268.442 -0.614518 -0.406862 0
M  V30 2802 H 271.084 -1.85633 -0.40503 0
M  V30 2803 H 269.234 -2.78956 -2.70399 0
M  V30 2804 H 270.906 -4.54742 -0.775082 0
M  V30 2805 H 269.149 -4.28744 -0.660364 0
M  V30 2806 H 269.82 -5.11837 -2.06706 0
M  V30 2807 H 272.296 -3.26194 -2.58334 0
M  V30 2808 H 271.172 -4.01316 -3.74482 0
M  V30 2809 H 271.433 -2.27669 -3.78971 0
M  V30 2810 N 270.492 0.636531 -1.44174 0
M  V30 2811 C 271.738 1.39826 -1.4689 0
M  V30 2812 C 272.071 1.93947 -0.0990585 0
M  V30 2813 O 271.346 1.73325 0.882544 0
M  V30 2814 C 271.629 2.56751 -2.5249 0
M  V30 2815 C 271.482 2.08014 -3.98811 0
M  V30 2816 C 272.801 3.58946 -2.54649 0
M  V30 2817 H 269.92 0.507075 -0.53483 0
M  V30 2818 H 272.562 0.720188 -1.75822 0
M  V30 2819 H 270.712 3.14597 -2.2795 0
M  V30 2820 H 272.384 1.5504 -4.34466 0
M  V30 2821 H 270.627 1.39242 -4.10846 0
M  V30 2822 H 271.298 2.92169 -4.68339 0
M  V30 2823 H 273.774 3.1089 -2.76563 0
M  V30 2824 H 272.65 4.38286 -3.3045 0
M  V30 2825 H 272.911 4.12655 -1.58646 0
M  V30 2826 N 271.97 1.30982 0.876444 0
M  V30 2827 C 273.381 1.18277 1.44456 0
M  V30 2828 C 273.732 -0.213265 1.95037 0
M  V30 2829 O 272.857 -1.11057 1.85729 0
M  V30 2830 C 273.452 2.1411 2.62569 0
M  V30 2831 C 272.011 2.05358 3.15444 0
M  V30 2832 C 271.158 2.03706 1.88146 0
M  V30 2833 H 274.109 1.43127 0.685584 0
M  V30 2834 H 274.13 1.72692 3.39054 0
M  V30 2835 H 273.642 3.15706 2.25724 0
M  V30 2836 H 271.743 1.06934 3.56926 0
M  V30 2837 H 271.856 2.94156 3.78166 0
M  V30 2838 H 270.22 1.48629 2.06837 0
M  V30 2839 H 271.003 3.07047 1.53547 0
M  V30 2840 N 273.449 -1.08991 1.13837 0
M  V30 2841 C 274.674 -1.85551 0.926585 0
M  V30 2842 C 275.099 -1.80782 -0.519566 0
M  V30 2843 O 274.457 -1.18855 -1.36906 0
M  V30 2844 C 274.505 -3.31266 1.42462 0
M  V30 2845 O 273.609 -4.07822 0.612789 0
M  V30 2846 H 272.95 -0.575192 0.331738 0
M  V30 2847 H 275.48 -1.37604 1.51414 0
M  V30 2848 H 275.49 -3.82112 1.43019 0
M  V30 2849 H 274.165 -3.34052 2.47754 0
M  V30 2850 H 272.742 -3.66731 0.675463 0
M  V30 2851 N 274.927 -0.932562 -1.27047 0
M  V30 2852 C 276.343 -0.633544 -1.46487 0
M  V30 2853 C 276.543 0.815746 -1.84249 0
M  V30 2854 O 275.599 1.59319 -1.95892 0
M  V30 2855 C 276.912 -1.58758 -2.55375 0
M  V30 2856 C 278.46 -1.59634 -2.69232 0
M  V30 2857 C 278.935 -2.53747 -3.81283 0
M  V30 2858 N 280.426 -2.51982 -3.88664 0
M  V30 2859 C 281.161 -3.21491 -4.74796 0
M  V30 2860 N 280.657 -4.00395 -5.65381 0
M  V30 2861 N 282.45 -3.10485 -4.68568 0
M  V30 2862 H 274.601 -1.86946 -1.00821 0
M  V30 2863 H 276.864 -0.802897 -0.504044 0
M  V30 2864 H 276.57 -2.62172 -2.34432 0
M  V30 2865 H 276.444 -1.33301 -3.52861 0
M  V30 2866 H 278.831 -0.569488 -2.89553 0
M  V30 2867 H 278.912 -1.89142 -1.72218 0
M  V30 2868 H 278.556 -3.56545 -3.61715 0
M  V30 2869 H 278.486 -2.21532 -4.77735 0
M  V30 2870 H 280.977 -1.94681 -3.23895 0
M  V30 2871 H 281.29 -4.50406 -6.27976 0
M  V30 2872 H 279.635 -4.04498 -5.65161 0
M  V30 2873 H 282.826 -2.48331 -3.96799 0
M  V30 2874 H 282.999 -3.64925 -5.35475 0
M  V30 2875 N 276.405 1.4127 -0.698611 0
M  V30 2876 C 277.816 1.84187 -0.305289 0
M  V30 2877 C 278.167 1.58449 1.15708 0
M  V30 2878 O 277.292 1.05651 1.88856 0
M  V30 2879 C 277.887 3.3435 -0.547314 0
M  V30 2880 C 276.446 3.75826 -0.207878 0
M  V30 2881 C 275.593 2.64647 -0.828099 0
M  V30 2882 H 278.544 1.30778 -0.89904 0
M  V30 2883 H 278.565 3.8001 0.192998 0
M  V30 2884 H 278.077 3.53051 -1.61172 0
M  V30 2885 H 276.178 3.62725 0.852143 0
M  V30 2886 H 276.291 4.74462 -0.665021 0
M  V30 2887 H 274.655 2.53395 -0.257458 0
M  V30 2888 H 275.438 2.86165 -1.89643 0
M  V30 2889 N 277.883 0.443576 1.51229 0
M  V30 2890 C 278.813 -0.355142 2.30783 0
M  V30 2891 C 279.794 -1.0154 1.36468 0
M  V30 2892 O 280.979 -1.01785 1.65389 0
M  V30 2893 C 278.109 -1.45312 3.15439 0
M  V30 2894 C 277.063 -0.916002 4.18083 0
M  V30 2895 C 276.389 -2.1102 4.91299 0
M  V30 2896 C 277.689 0.0538602 5.22272 0
M  V30 2897 H 279.383 0.308767 2.97804 0
M  V30 2898 H 276.929 0.149937 1.43217 0
M  V30 2899 H 278.882 -2.01914 3.69876 0
M  V30 2900 H 277.606 -2.14541 2.46252 0
M  V30 2901 H 276.265 -0.372145 3.64706 0
M  V30 2902 H 275.913 -2.78882 4.18609 0
M  V30 2903 H 275.613 -1.75717 5.60712 0
M  V30 2904 H 277.137 -2.68164 5.48562 0
M  V30 2905 H 278.551 -0.422069 5.71744 0
M  V30 2906 H 276.948 0.319776 5.99247 0
M  V30 2907 H 278.018 0.98858 4.74716 0
M  V30 2908 N 279.361 -1.56624 0.175154 0
M  V30 2909 C 280.291 -2.21155 -0.749195 0
M  V30 2910 C 281.272 -1.16836 -1.23626 0
M  V30 2911 O 282.457 -1.45277 -1.28873 0
M  V30 2912 C 279.587 -2.8553 -1.97711 0
M  V30 2913 C 278.541 -3.95921 -1.62575 0
M  V30 2914 C 277.867 -4.47365 -2.92864 0
M  V30 2915 C 279.167 -5.15323 -0.850838 0
M  V30 2916 H 280.861 -2.98653 -0.211295 0
M  V30 2917 H 278.407 -1.43651 -0.100188 0
M  V30 2918 H 280.36 -3.2935 -2.62881 0
M  V30 2919 H 279.084 -2.05406 -2.53921 0
M  V30 2920 H 277.743 -3.52762 -0.997719 0
M  V30 2921 H 277.391 -3.64027 -3.47122 0
M  V30 2922 H 277.091 -5.21839 -2.70106 0
M  V30 2923 H 278.615 -4.93873 -3.59056 0
M  V30 2924 H 280.029 -5.55812 -1.40521 0
M  V30 2925 H 278.426 -5.95739 -0.722154 0
M  V30 2926 H 279.496 -4.84661 0.152082 0
M  V30 2927 N 280.839 0.0985539 -1.57292 0
M  V30 2928 C 281.802 1.10402 -2.00858 0
M  V30 2929 C 282.802 1.33146 -0.901593 0
M  V30 2930 O 283.992 1.29318 -1.16716 0
M  V30 2931 C 281.124 2.45394 -2.36632 0
M  V30 2932 H 282.317 0.729099 -2.90902 0
M  V30 2933 H 279.87 0.343495 -1.52479 0
M  V30 2934 H 280.605 2.87769 -1.49531 0
M  V30 2935 H 280.39 2.30235 -3.17387 0
M  V30 2936 H 281.88 3.17718 -2.71007 0
M  V30 2937 N 282.317 1.53212 0.369288 0
M  V30 2938 C 283.249 1.75668 1.47219 0
M  V30 2939 C 284.262 0.637387 1.49804 0
M  V30 2940 O 285.451 0.913561 1.5335 0
M  V30 2941 C 282.551 1.81818 2.85999 0
M  V30 2942 C 281.724 3.11409 3.07153 0
M  V30 2943 C 280.783 3.08849 4.26026 0
M  V30 2944 O 279.809 3.82659 4.2138 0
M  V30 2945 N 281.011 2.29409 5.33246 0
M  V30 2946 H 283.776 2.70832 1.28337 0
M  V30 2947 H 281.337 1.51944 0.55898 0
M  V30 2948 H 283.329 1.77588 3.63655 0
M  V30 2949 H 281.899 0.939544 2.98146 0
M  V30 2950 H 281.119 3.28971 2.1719 0
M  V30 2951 H 282.407 3.97059 3.18154 0
M  V30 2952 H 281.805 1.68946 5.39883 0
M  V30 2953 H 280.362 2.31001 6.09493 0
M  V30 2954 N 283.795 -0.628877 1.44509 0
M  V30 2955 C 284.758 -1.72263 1.51188 0
M  V30 2956 C 285.758 -1.55907 0.39367 0
M  V30 2957 O 286.948 -1.61361 0.656377 0
M  V30 2958 C 284.08 -3.11365 1.38798 0
M  V30 2959 H 285.273 -1.67714 2.4862 0
M  V30 2960 H 282.826 -0.842737 1.31634 0
M  V30 2961 H 283.561 -3.21507 0.424693 0
M  V30 2962 H 283.346 -3.24644 2.19884 0
M  V30 2963 H 284.836 -3.91075 1.46458 0
M  V30 2964 N 285.273 -1.31445 -0.869486 0
M  V30 2965 C 286.205 -1.14955 -1.98287 0
M  V30 2966 C 287.218 -0.0885037 -1.62559 0
M  V30 2967 O 288.407 -0.336044 -1.75308 0
M  V30 2968 C 285.507 -0.734255 -3.3085 0
M  V30 2969 C 284.68 -1.88042 -3.94917 0
M  V30 2970 C 283.739 -1.4511 -5.05796 0
M  V30 2971 O 282.765 -2.16082 -5.2659 0
M  V30 2972 N 283.967 -0.338763 -5.79511 0
M  V30 2973 H 286.732 -2.10856 -2.12979 0
M  V30 2974 H 284.293 -1.23786 -1.04349 0
M  V30 2975 H 286.285 -0.42975 -4.02412 0
M  V30 2976 H 284.855 0.133158 -3.12316 0
M  V30 2977 H 284.075 -2.35222 -3.1633 0
M  V30 2978 H 285.363 -2.6481 -4.34457 0
M  V30 2979 H 284.761 0.252274 -5.65137 0
M  V30 2980 H 283.318 -0.0937925 -6.51733 0
M  V30 2981 N 286.751 1.08385 -1.14413 0
M  V30 2982 C 287.699 2.17406 -0.826888 0
M  V30 2983 C 288.693 1.6827 0.195312 0
M  V30 2984 O 289.899 1.79927 0.0513892 0
M  V30 2985 H 286.274 0.70934 -0.249681 0
M  V30 2986 H 288.245 2.41388 -1.75426 0
M  V30 2987 C 286.994 3.46215 -0.320979 0
M  V30 2988 H 286.317 3.84401 -1.0989 0
M  V30 2989 H 287.757 4.23777 -0.137549 0
M  V30 2990 C 286.216 3.23067 0.955472 0
M  V30 2991 O 286.746 3.4668 2.02918 0
M  V30 2992 N 284.952 2.7661 0.890798 0
M  V30 2993 H 284.499 2.57594 0.0168815 0
M  V30 2994 H 284.457 2.61501 1.74542 0
M  V30 2995 N 288.23 0.939286 1.26551 0
M  V30 2996 C 289.477 0.585847 1.9384 0
M  V30 2997 C 289.805 -0.874784 1.73718 0
M  V30 2998 O 289.06 -1.64092 1.06642 0
M  V30 2999 C 289.359 0.872106 3.46596 0
M  V30 3000 C 289.025 2.31632 3.86856 0
M  V30 3001 C 287.687 2.71111 3.97558 0
M  V30 3002 C 290.039 3.25494 4.07066 0
M  V30 3003 C 287.367 4.03553 4.25866 0
M  V30 3004 C 289.719 4.57531 4.36862 0
M  V30 3005 C 288.383 4.96828 4.45778 0
M  V30 3006 H 287.653 0.214377 0.709312 0
M  V30 3007 H 290.3 1.18544 1.50398 0
M  V30 3008 H 288.605 0.18996 3.91339 0
M  V30 3009 H 290.302 0.577442 3.96821 0
M  V30 3010 H 286.892 2.00008 3.79071 0
M  V30 3011 H 291.076 2.9619 3.98227 0
M  V30 3012 H 286.332 4.33665 4.30981 0
M  V30 3013 H 290.506 5.30254 4.51446 0
M  V30 3014 H 288.133 5.99482 4.67468 0
M  V30 3015 N 289.708 -1.40897 0.706093 0
M  V30 3016 C 290.936 -2.05373 0.250887 0
M  V30 3017 C 291.351 -1.53172 -1.10381 0
M  V30 3018 O 290.708 -0.684305 -1.69185 0
M  V30 3019 C 290.759 -3.6088 0.211571 0
M  V30 3020 O 290.48 -4.11153 1.51276 0
M  V30 3021 C 291.981 -4.42517 -0.263346 0
M  V30 3022 H 289.201 -0.66115 0.114552 0
M  V30 3023 H 291.745 -1.80479 0.961635 0
M  V30 3024 H 289.9 -3.84777 -0.450073 0
M  V30 3025 H 290.314 -5.05279 1.40689 0
M  V30 3026 H 291.788 -5.51479 -0.239718 0
M  V30 3027 H 292.265 -4.19396 -1.30397 0
M  V30 3028 H 292.871 -4.23708 0.367677 0
M  V30 3029 N 291.186 -0.45159 -1.50991 0
M  V30 3030 C 292.116 0.342898 -2.30969 0
M  V30 3031 C 293.097 1.00815 -1.37005 0
M  V30 3032 O 294.282 1.00907 -1.65926 0
M  V30 3033 C 291.412 1.43637 -3.16205 0
M  V30 3034 C 290.366 0.893818 -4.18563 0
M  V30 3035 C 289.692 2.08411 -4.92411 0
M  V30 3036 C 290.992 -0.0815568 -5.22236 0
M  V30 3037 H 292.686 -0.324556 -2.97636 0
M  V30 3038 H 290.232 -0.157531 -1.43136 0
M  V30 3039 H 292.185 1.9995 -3.70942 0
M  V30 3040 H 290.909 2.13232 -2.47386 0
M  V30 3041 H 289.568 0.352798 -3.64898 0
M  V30 3042 H 289.216 2.76658 -4.20082 0
M  V30 3043 H 288.916 1.72741 -5.61636 0
M  V30 3044 H 290.44 2.65251 -5.49976 0
M  V30 3045 H 291.854 0.391742 -5.7196 0
M  V30 3046 H 290.251 -0.351551 -5.99069 0
M  V30 3047 H 291.321 -1.01374 -4.74185 0
M  V30 3048 N 292.664 1.56529 -0.183458 0
M  V30 3049 C 293.911 1.97244 0.458357 0
M  V30 3050 C 294.239 1.06992 1.62428 0
M  V30 3051 O 293.494 0.106542 1.9541 0
M  V30 3052 C 293.793 3.43939 0.971637 0
M  V30 3053 C 293.459 4.5083 -0.0796784 0
M  V30 3054 C 292.121 4.79786 -0.368584 0
M  V30 3055 C 294.473 5.15138 -0.792638 0
M  V30 3056 C 291.801 5.70345 -1.37563 0
M  V30 3057 C 294.153 6.06784 -1.78875 0
M  V30 3058 C 292.817 6.34102 -2.08497 0
M  V30 3059 H 292.087 0.721768 0.167725 0
M  V30 3060 H 294.734 1.89472 -0.277976 0
M  V30 3061 H 293.039 3.48724 1.78602 0
M  V30 3062 H 294.736 3.72791 1.47744 0
M  V30 3063 H 291.326 4.28317 0.155668 0
M  V30 3064 H 295.51 4.92868 -0.582659 0
M  V30 3065 H 290.766 5.89789 -1.61118 0
M  V30 3066 H 294.94 6.55677 -2.3465 0
M  V30 3067 H 292.567 7.04074 -2.86678 0
M  V30 3068 N 294.142 -0.090211 1.57342 0
M  V30 3069 C 295.391 -0.791531 1.8552 0
M  V30 3070 C 295.704 -1.79659 0.773441 0
M  V30 3071 O 296.91 -2.54616 0.942497 0
M  V30 3072 C 295.366 -1.45856 3.2902 0
M  V30 3073 C 294.974 -0.493017 4.45279 0
M  V30 3074 C 296.718 -2.14332 3.66418 0
M  V30 3075 C 294.625 -1.16491 5.79814 0
M  V30 3076 H 293.555 -0.299356 0.692027 0
M  V30 3077 H 296.206 -0.0445343 1.83446 0
M  V30 3078 H 294.588 -2.25318 3.2565 0
M  V30 3079 H 295.762 0.270464 4.60006 0
M  V30 3080 H 294.077 0.0863061 4.16311 0
M  V30 3081 H 296.674 -2.65344 4.64216 0
M  V30 3082 H 297.017 -2.93447 2.95287 0
M  V30 3083 H 297.55 -1.41724 3.71698 0
M  V30 3084 H 294.289 -0.41447 6.54188 0
M  V30 3085 H 293.809 -1.8997 5.68921 0
M  V30 3086 H 295.488 -1.69001 6.24538 0
M  V30 3087 N 295.62 -1.53406 -0.361157 0
M  V30 3088 C 296.567 -1.80156 -1.44265 0
M  V30 3089 C 297.537 -0.646183 -1.53015 0
M  V30 3090 O 298.722 -0.888818 -1.68833 0
M  V30 3091 C 295.862 -2.00116 -2.81154 0
M  V30 3092 C 294.975 -3.27833 -2.81335 0
M  V30 3093 C 294.11 -3.37957 -4.09828 0
M  V30 3094 C 293.149 -4.59689 -4.04168 0
M  V30 3095 N 292.286 -4.66942 -5.24318 0
M  V30 3096 H 297.126 -2.72438 -1.20754 0
M  V30 3097 H 294.663 -1.34954 -0.585296 0
M  V30 3098 H 296.621 -2.09677 -3.60682 0
M  V30 3099 H 295.251 -1.11167 -3.03054 0
M  V30 3100 H 294.303 -3.27204 -1.94014 0
M  V30 3101 H 295.615 -4.17442 -2.73027 0
M  V30 3102 H 294.769 -3.46853 -4.97773 0
M  V30 3103 H 293.508 -2.46372 -4.20894 0
M  V30 3104 H 292.513 -4.50889 -3.14609 0
M  V30 3105 H 293.738 -5.5262 -3.947 0
M  V30 3106 H 291.684 -3.7826 -5.35962 0
M  V30 3107 H 291.601 -5.50462 -5.18197 0
M  V30 3108 H 292.869 -4.80127 -6.14084 0
M  V30 3109 N 297.098 0.621204 -1.44841 0
M  V30 3110 C 298.046 1.75385 -1.52784 0
M  V30 3111 C 299.04 1.64639 -0.398779 0
M  V30 3112 O 300.246 1.70598 -0.574137 0
M  V30 3113 H 296.621 0.579193 -0.479625 0
M  V30 3114 H 298.592 1.6581 -2.48092 0
M  V30 3115 C 297.341 3.13742 -1.4987 0
M  V30 3116 H 296.664 3.22663 -2.36069 0
M  V30 3117 H 298.104 3.92861 -1.59487 0
M  V30 3118 C 296.563 3.36175 -0.220973 0
M  V30 3119 O 297.093 3.95469 0.704782 0
M  V30 3120 N 295.299 2.90348 -0.120963 0
M  V30 3121 H 294.846 2.42278 -0.875162 0
M  V30 3122 H 294.804 3.05732 0.733168 0
M  V30 3123 N 298.576 1.31904 0.862503 0
M  V30 3124 C 299.804 1.24998 1.64873 0
M  V30 3125 C 300.219 -0.183425 1.87907 0
M  V30 3126 O 299.576 -1.11794 1.44251 0
M  V30 3127 C 299.627 1.99829 3.01248 0
M  V30 3128 O 299.348 3.37575 2.79239 0
M  V30 3129 C 300.849 1.99852 3.95694 0
M  V30 3130 H 298.069 0.431599 0.513773 0
M  V30 3131 H 300.613 1.73901 1.07604 0
M  V30 3132 H 298.768 1.54668 3.55185 0
M  V30 3133 H 299.182 3.75776 3.65914 0
M  V30 3134 H 300.656 2.56709 4.88676 0
M  V30 3135 H 301.133 0.982852 4.28062 0
M  V30 3136 H 301.739 2.44926 3.47694 0
M  V30 3137 N 300.054 -1.07777 1.14986 0
M  V30 3138 C 301.3 -1.80557 0.923422 0
M  V30 3139 C 301.633 -1.86298 -0.548337 0
M  V30 3140 O 300.908 -1.34354 -1.40639 0
M  V30 3141 C 301.191 -3.25839 1.53299 0
M  V30 3142 C 301.044 -3.28269 3.07505 0
M  V30 3143 C 302.363 -4.22991 1.21518 0
M  V30 3144 H 299.482 -0.655493 0.336894 0
M  V30 3145 H 302.124 -1.26144 1.42083 0
M  V30 3146 H 300.274 -3.72306 1.10999 0
M  V30 3147 H 301.946 -2.90079 3.58681 0
M  V30 3148 H 300.189 -2.67355 3.4162 0
M  V30 3149 H 300.86 -4.30691 3.45266 0
M  V30 3150 H 303.336 -3.84894 1.581 0
M  V30 3151 H 302.212 -5.22945 1.66793 0
M  V30 3152 H 302.473 -4.41904 0.131505 0
M  V30 3153 N 301.532 -0.945985 -1.26051 0
M  V30 3154 C 302.76 -0.613025 -1.9761 0
M  V30 3155 C 303.175 0.813035 -1.70397 0
M  V30 3156 O 302.532 1.54274 -0.974979 0
M  V30 3157 C 302.583 -0.85159 -3.51326 0
M  V30 3158 O 302.304 -2.22157 -3.77595 0
M  V30 3159 C 303.805 -0.529831 -4.40122 0
M  V30 3160 H 301.025 -0.230593 -0.630133 0
M  V30 3161 H 303.569 -1.268 -1.60443 0
M  V30 3162 H 301.724 -0.243151 -3.86636 0
M  V30 3163 H 302.138 -2.2852 -4.721 0
M  V30 3164 H 303.612 -0.747348 -5.46917 0
M  V30 3165 H 304.089 0.535341 -4.35925 0
M  V30 3166 H 304.695 -1.11721 -4.10364 0
M  V30 3167 N 303.011 1.40521 -0.713556 0
M  V30 3168 C 304.258 2.00923 -0.25219 0
M  V30 3169 C 304.586 1.56571 1.15395 0
M  V30 3170 O 303.841 0.775874 1.79663 0
M  V30 3171 C 304.14 3.56317 -0.278 0
M  V30 3172 C 303.806 4.20246 -1.63415 0
M  V30 3173 C 302.468 4.37422 -2.00538 0
M  V30 3174 C 304.82 4.55923 -2.52554 0
M  V30 3175 C 302.148 4.87558 -3.2635 0
M  V30 3176 C 304.5 5.07458 -3.77716 0
M  V30 3177 C 303.164 5.22843 -4.14959 0
M  V30 3178 H 302.434 0.735231 -0.0922829 0
M  V30 3179 H 305.081 1.68161 -0.916188 0
M  V30 3180 H 303.386 3.88976 0.469567 0
M  V30 3181 H 305.083 4.00883 0.0967819 0
M  V30 3182 H 301.673 4.07263 -1.33546 0
M  V30 3183 H 305.857 4.42291 -2.25149 0
M  V30 3184 H 301.113 4.97654 -3.55176 0
M  V30 3185 H 305.287 5.34041 -4.4696 0
M  V30 3186 H 302.914 5.61454 -5.12516 0
M  V30 3187 N 304.489 0.459591 1.5075 0
M  V30 3188 C 305.714 -0.0996819 2.0716 0
M  V30 3189 C 306.139 -1.33761 1.32249 0
M  V30 3190 O 305.497 -1.77551 0.366786 0
M  V30 3191 C 305.545 -0.378226 3.58611 0
M  V30 3192 O 304.649 -1.46081 3.85661 0
M  V30 3193 H 303.99 0.00791392 0.663953 0
M  V30 3194 H 306.52 0.647329 1.9409 0
M  V30 3195 H 306.53 -0.622135 4.03229 0
M  V30 3196 H 305.205 0.526439 4.12555 0
M  V30 3197 H 303.782 -1.20511 3.5289 0
M  V30 3198 N 305.967 -1.56429 0.191757 0
M  V30 3199 C 306.914 -2.18936 -0.730454 0
M  V30 3200 C 307.884 -1.13557 -1.21219 0
M  V30 3201 O 309.069 -1.41794 -1.27668 0
M  V30 3202 C 306.209 -2.85013 -1.9458 0
M  V30 3203 C 305.322 -4.04909 -1.50574 0
M  V30 3204 C 304.457 -4.58853 -2.67634 0
M  V30 3205 C 303.496 -5.71114 -2.20217 0
M  V30 3206 N 302.633 -6.19478 -3.30442 0
M  V30 3207 H 307.473 -2.97389 -0.190664 0
M  V30 3208 H 305.01 -1.46869 -0.0823694 0
M  V30 3209 H 306.968 -3.21492 -2.65893 0
M  V30 3210 H 305.598 -2.09129 -2.45896 0
M  V30 3211 H 304.65 -3.74115 -0.688605 0
M  V30 3212 H 305.962 -4.86113 -1.11784 0
M  V30 3213 H 305.116 -4.97619 -3.47074 0
M  V30 3214 H 303.855 -3.76749 -3.09696 0
M  V30 3215 H 302.86 -5.31879 -1.3923 0
M  V30 3216 H 304.085 -6.55033 -1.79189 0
M  V30 3217 H 302.031 -5.40297 -3.72041 0
M  V30 3218 H 301.948 -6.95725 -2.9581 0
M  V30 3219 H 303.216 -6.62898 -4.10106 0
M  V30 3220 N 307.445 0.0818655 -1.57387 0
M  V30 3221 C 308.692 0.782914 -1.86753 0
M  V30 3222 C 309.02 1.78082 -0.782118 0
M  V30 3223 O 308.275 1.94426 0.22295 0
M  V30 3224 C 308.574 1.53513 -3.22752 0
M  V30 3225 C 308.24 0.678134 -4.45771 0
M  V30 3226 C 306.902 0.441929 -4.79166 0
M  V30 3227 C 309.254 0.0832243 -5.21134 0
M  V30 3228 C 306.582 -0.398833 -5.85343 0
M  V30 3229 C 308.934 -0.744935 -6.28199 0
M  V30 3230 C 307.598 -0.991107 -6.60101 0
M  V30 3231 H 306.868 0.286489 -0.683378 0
M  V30 3232 H 309.515 0.0439808 -1.91449 0
M  V30 3233 H 307.82 2.34599 -3.138 0
M  V30 3234 H 309.517 2.08218 -3.42705 0
M  V30 3235 H 306.107 0.872357 -4.19628 0
M  V30 3236 H 310.291 0.252847 -4.95655 0
M  V30 3237 H 305.547 -0.598405 -6.08465 0
M  V30 3238 H 309.721 -1.21271 -6.8576 0
M  V30 3239 H 307.348 -1.64437 -7.42202 0
M  V30 3240 N 308.923 1.53595 0.353017 0
M  V30 3241 C 309.871 1.81605 1.45335 0
M  V30 3242 C 310.865 0.685923 1.54892 0
M  V30 3243 O 312.071 0.869095 1.57628 0
M  V30 3244 H 308.446 0.575204 0.484401 0
M  V30 3245 H 310.417 2.73679 1.18921 0
M  V30 3246 C 309.166 2.03406 2.81995 0
M  V30 3247 H 308.489 2.89814 2.75405 0
M  V30 3248 H 309.929 2.26975 3.58132 0
M  V30 3249 C 308.388 0.816794 3.26849 0
M  V30 3250 O 308.918 0.0115856 4.01698 0
M  V30 3251 N 307.124 0.636682 2.8354 0
M  V30 3252 H 306.671 1.2931 2.22793 0
M  V30 3253 H 306.629 -0.176336 3.13905 0
M  V30 3254 N 310.401 -0.613514 1.45168 0
M  V30 3255 C 311.648 -1.37268 1.48875 0
M  V30 3256 C 311.976 -1.94077 0.128161 0
M  V30 3257 O 311.231 -1.75178 -0.872416 0
M  V30 3258 C 311.53 -2.54347 2.51083 0
M  V30 3259 C 311.196 -2.1572 3.95949 0
M  V30 3260 C 309.858 -2.04899 4.35396 0
M  V30 3261 C 312.21 -1.85485 4.87078 0
M  V30 3262 C 309.538 -1.62057 5.63875 0
M  V30 3263 C 311.89 -1.4413 6.15962 0
M  V30 3264 C 310.554 -1.31863 6.54346 0
M  V30 3265 H 309.824 -0.502299 0.544773 0
M  V30 3266 H 312.471 -0.694021 1.78481 0
M  V30 3267 H 310.776 -3.27524 2.15024 0
M  V30 3268 H 312.473 -3.12577 2.51191 0
M  V30 3269 H 309.063 -2.25066 3.64751 0
M  V30 3270 H 313.247 -1.92745 4.57343 0
M  V30 3271 H 308.503 -1.51177 5.92415 0
M  V30 3272 H 312.677 -1.19778 6.86022 0
M  V30 3273 H 310.304 -0.984392 7.538 0
M  V30 3274 N 311.879 -1.3236 -0.855495 0
M  V30 3275 C 313.104 -1.2601 -1.64731 0
M  V30 3276 C 313.529 0.169068 -1.87339 0
M  V30 3277 O 312.887 1.12016 -1.42556 0
M  V30 3278 C 312.935 -2.02417 -2.98429 0
M  V30 3279 O 312.039 -1.3714 -3.8893 0
M  V30 3280 H 311.38 -0.434325 -0.502253 0
M  V30 3281 H 313.91 -1.74661 -1.06558 0
M  V30 3282 H 313.92 -2.12559 -3.48257 0
M  V30 3283 H 312.595 -3.06343 -2.81295 0
M  V30 3284 H 311.172 -1.3554 -3.47395 0
M  V30 3285 N 313.357 1.07166 -1.15556 0
M  V30 3286 C 314.304 2.14417 -0.854055 0
M  V30 3287 C 315.274 1.64965 0.193806 0
M  V30 3288 O 316.459 1.90703 0.0609443 0
M  V30 3289 C 313.599 3.43304 -0.351574 0
M  V30 3290 C 312.712 4.06537 -1.46123 0
M  V30 3291 C 311.847 5.23266 -0.914677 0
M  V30 3292 C 310.886 5.78464 -2.00114 0
M  V30 3293 N 310.023 6.86521 -1.47083 0
M  V30 3294 H 314.863 2.39548 -1.77259 0
M  V30 3295 H 312.4 1.17543 -0.884425 0
M  V30 3296 H 314.358 4.17179 -0.0419409 0
M  V30 3297 H 312.988 3.18419 0.530037 0
M  V30 3298 H 312.04 3.30297 -1.88701 0
M  V30 3299 H 313.352 4.43567 -2.28144 0
M  V30 3300 H 312.506 6.04131 -0.557698 0
M  V30 3301 H 311.245 4.87658 -0.0636583 0
M  V30 3302 H 310.25 4.96243 -2.36692 0
M  V30 3303 H 311.475 6.16126 -2.85597 0
M  V30 3304 H 309.421 6.52849 -0.642198 0
M  V30 3305 H 309.338 7.22446 -2.22729 0
M  V30 3306 H 310.606 7.71087 -1.14215 0
M  V30 3307 N 314.835 0.952656 1.25548 0
M  V30 3308 C 316.06 0.623025 1.97821 0
M  V30 3309 C 316.485 -0.7976 1.70352 0
M  V30 3310 O 315.843 -1.53905 0.958283 0
M  V30 3311 C 315.891 0.885532 3.49558 0
M  V30 3312 O 314.995 -0.0366641 4.12384 0
M  V30 3313 H 314.336 0.237082 0.620232 0
M  V30 3314 H 316.866 1.27871 1.59719 0
M  V30 3315 H 316.876 0.811009 3.99858 0
M  V30 3316 H 315.551 1.92094 3.6888 0
M  V30 3317 H 314.128 0.0898954 3.72792 0
M  V30 3318 N 316.313 -1.40141 0.720998 0
M  V30 3319 C 317.261 -2.3252 0.0608547 0
M  V30 3320 C 318.255 -1.52326 -0.741152 0
M  V30 3321 O 319.461 -1.68089 -0.643911 0
M  V30 3322 H 315.836 -0.751999 0.000876664 0
M  V30 3323 H 317.807 -2.8584 0.856614 0
M  V30 3324 C 316.556 -3.37331 -0.842809 0
M  V30 3325 H 315.879 -3.99108 -0.235084 0
M  V30 3326 H 317.319 -4.04452 -1.27257 0
M  V30 3327 C 315.778 -2.73246 -1.97074 0
M  V30 3328 O 316.308 -2.59998 -3.06209 0
M  V30 3329 N 314.514 -2.31547 -1.75597 0
M  V30 3330 H 314.061 -2.42522 -0.868368 0
M  V30 3331 H 314.019 -1.89007 -2.51244 0
M  V30 3332 N 317.792 -0.46758 -1.50504 0
M  V30 3333 C 318.755 0.317059 -2.26996 0
M  V30 3334 C 319.755 0.923513 -1.31635 0
M  V30 3335 O 320.945 0.793239 -1.55091 0
M  V30 3336 C 318.077 1.45134 -3.08462 0
M  V30 3337 H 319.27 -0.353723 -2.97807 0
M  V30 3338 H 316.823 -0.221545 -1.54722 0
M  V30 3339 H 317.558 2.15728 -2.4214 0
M  V30 3340 H 317.343 1.02232 -3.78538 0
M  V30 3341 H 318.833 2.00493 -3.66323 0
M  V30 3342 N 319.27 1.56325 -0.20005 0
M  V30 3343 C 320.2 2.22318 0.713916 0
M  V30 3344 C 321.181 1.18788 1.21752 0
M  V30 3345 O 322.366 1.47309 1.26545 0
M  V30 3346 C 319.496 2.88639 1.93144 0
M  V30 3347 C 318.45 3.98457 1.56255 0
M  V30 3348 C 317.776 4.51967 2.85709 0
M  V30 3349 C 319.076 5.16612 0.768747 0
M  V30 3350 H 320.77 2.98952 0.163755 0
M  V30 3351 H 318.316 1.43792 0.0773219 0
M  V30 3352 H 320.269 3.33491 2.57608 0
M  V30 3353 H 318.993 2.09419 2.50621 0
M  V30 3354 H 317.652 3.54305 0.941471 0
M  V30 3355 H 317.3 3.69503 3.41287 0
M  V30 3356 H 317 5.26071 2.6177 0
M  V30 3357 H 318.524 4.99523 3.51154 0
M  V30 3358 H 319.938 5.57977 1.3166 0
M  V30 3359 H 318.335 5.96812 0.627286 0
M  V30 3360 H 319.405 4.84358 -0.229168 0
M  V30 3361 N 320.748 -0.0735177 1.57428 0
M  V30 3362 C 321.658 -1.10547 2.06922 0
M  V30 3363 C 322.674 -1.42506 0.998402 0
M  V30 3364 O 323.85 -1.52717 1.31299 0
M  V30 3365 C 320.915 -2.40019 2.50184 0
M  V30 3366 C 319.976 -2.15046 3.71556 0
M  V30 3367 C 319.209 -3.38345 4.12745 0
M  V30 3368 O 319.432 -4.47399 3.53822 0
M  V30 3369 O 318.366 -3.2666 5.05546 0
M  V30 3370 H 322.192 -0.715013 2.95163 0
M  V30 3371 H 319.777 -0.287531 1.46607 0
M  V30 3372 H 321.659 -3.16218 2.78539 0
M  V30 3373 H 320.334 -2.78447 1.65072 0
M  V30 3374 H 319.241 -1.36558 3.48285 0
M  V30 3375 H 320.574 -1.81499 4.57514 0
M  V30 3376 N 322.226 -1.5378 -0.344866 0
M  V30 3377 C 323.454 -1.74899 -1.10534 0
M  V30 3378 C 323.869 -0.487534 -1.82397 0
M  V30 3379 O 323.226 0.540741 -1.74305 0
M  V30 3380 C 323.277 -2.92822 -2.11984 0
M  V30 3381 O 322.998 -4.14089 -1.43044 0
M  V30 3382 C 324.499 -3.25982 -3.00417 0
M  V30 3383 H 321.719 -0.584426 -0.329678 0
M  V30 3384 H 324.263 -2.006 -0.397474 0
M  V30 3385 H 322.418 -2.69457 -2.78338 0
M  V30 3386 H 322.832 -4.80272 -2.10805 0
M  V30 3387 H 324.306 -4.11848 -3.67539 0
M  V30 3388 H 324.783 -2.42228 -3.66363 0
M  V30 3389 H 325.389 -3.51349 -2.39654 0
M  V30 3390 N 323.704 0.605807 -1.45491 0
M  V30 3391 C 324.95 1.36481 -1.50813 0
M  V30 3392 C 325.305 1.91826 -0.148469 0
M  V30 3393 O 324.598 1.72211 0.839869 0
M  V30 3394 C 324.792 2.53012 -2.52428 0
M  V30 3395 C 324.621 2.09078 -3.98141 0
M  V30 3396 C 323.391 1.95167 -4.66088 0
M  V30 3397 C 325.589 1.66438 -4.86624 0
M  V30 3398 N 323.571 1.45062 -5.96515 0
M  V30 3399 C 324.942 1.27761 -6.06694 0
M  V30 3400 C 326.997 1.54046 -4.7347 0
M  V30 3401 C 325.7 0.779286 -7.15066 0
M  V30 3402 C 327.726 1.05618 -5.81892 0
M  V30 3403 C 327.088 0.67906 -7.01119 0
M  V30 3404 H 323.187 0.493267 -0.606805 0
M  V30 3405 H 325.771 0.692347 -1.81974 0
M  V30 3406 H 323.942 3.17851 -2.23215 0
M  V30 3407 H 325.674 3.19897 -2.47887 0
M  V30 3408 H 322.429 2.16407 -4.21266 0
M  V30 3409 H 322.853 1.22237 -6.65873 0
M  V30 3410 H 327.495 1.81827 -3.81705 0
M  V30 3411 H 325.213 0.489026 -8.06619 0
M  V30 3412 H 328.799 0.964529 -5.73749 0
M  V30 3413 H 327.679 0.310091 -7.83587 0
M  V30 3414 N 325.182 1.32811 0.848464 0
M  V30 3415 C 326.459 1.14334 1.58704 0
M  V30 3416 C 326.839 -0.293948 2.09043 0
M  V30 3417 O 326.187 -1.29153 1.88499 0
M  V30 3418 C 326.397 2.17626 2.72837 0
M  V30 3419 C 327.745 2.51282 3.42261 0
M  V30 3420 O 328.769 2.16219 2.83068 0
M  V30 3421 O 327.628 3.11413 4.49093 0
M  V30 3422 H 324.722 0.441601 0.699226 0
M  V30 3423 H 327.268 1.44362 0.892053 0
M  V30 3424 H 326.04 3.14211 2.3321 0
M  V30 3425 H 325.663 1.88628 3.50008 0
M  V30 3426 N 326.66 -1.06551 1.16123 0
M  V30 3427 C 328.071 -1.60768 0.949232 0
M  V30 3428 C 328.422 -1.89523 -0.507508 0
M  V30 3429 O 327.547 -1.66671 -1.38021 0
M  V30 3430 C 328.142 -2.92086 1.71671 0
M  V30 3431 C 326.701 -3.43015 1.54977 0
M  V30 3432 C 325.848 -2.16947 1.72711 0
M  V30 3433 H 328.799 -0.895354 1.31031 0
M  V30 3434 H 328.82 -3.6138 1.19099 0
M  V30 3435 H 328.332 -2.71127 2.7769 0
M  V30 3436 H 326.433 -3.69039 0.513873 0
M  V30 3437 H 326.546 -4.18516 2.33198 0
M  V30 3438 H 324.91 -2.27041 1.15431 0
M  V30 3439 H 325.693 -1.98473 2.80113 0
M  V30 3440 N 328.138 -0.959301 -1.25041 0
M  V30 3441 C 329.366 -0.633949 -1.96948 0
M  V30 3442 C 329.781 0.794916 -1.7125 0
M  V30 3443 O 329.138 1.53231 -0.991287 0
M  V30 3444 C 329.189 -0.888805 -3.50403 0
M  V30 3445 O 328.91 -2.26149 -3.75218 0
M  V30 3446 C 330.411 -0.576482 -4.39536 0
M  V30 3447 H 327.631 -0.237263 -0.627652 0
M  V30 3448 H 330.175 -1.28495 -1.59089 0
M  V30 3449 H 328.33 -0.284145 -3.86357 0
M  V30 3450 H 328.744 -2.33514 -4.6965 0
M  V30 3451 H 330.218 -0.805314 -5.46094 0
M  V30 3452 H 330.695 0.489075 -4.36468 0
M  V30 3453 H 331.301 -1.16067 -4.09156 0
M  V30 3454 N 329.616 1.39756 -0.72842 0
M  V30 3455 C 330.846 2.04651 -0.283117 0
M  V30 3456 C 331.254 1.5502 1.08469 0
M  V30 3457 O 330.597 0.707343 1.69536 0
M  V30 3458 C 330.659 3.58947 -0.199309 0
M  V30 3459 C 330.323 4.31525 -1.5045 0
M  V30 3460 C 331.32 4.5861 -2.44894 0
M  V30 3461 C 329.005 4.70195 -1.76698 0
M  V30 3462 C 330.999 5.23366 -3.63822 0
M  V30 3463 C 328.686 5.3468 -2.95906 0
M  V30 3464 C 329.684 5.61198 -3.89289 0
M  V30 3465 O 329.372 6.24347 -5.06404 0
M  V30 3466 H 329.104 0.664777 -0.122666 0
M  V30 3467 H 331.658 1.79913 -0.990987 0
M  V30 3468 H 329.888 3.82556 0.56461 0
M  V30 3469 H 331.577 4.0534 0.213125 0
M  V30 3470 H 332.343 4.29187 -2.25883 0
M  V30 3471 H 328.222 4.48916 -1.04859 0
M  V30 3472 H 331.766 5.4398 -4.36728 0
M  V30 3473 H 327.663 5.63524 -3.14819 0
M  V30 3474 H 328.431 6.42842 -5.06652 0
M  V30 3475 N 331.094 0.475555 1.50254 0
M  V30 3476 C 332.341 -0.0778919 2.0235 0
M  V30 3477 C 332.669 -1.39319 1.35722 0
M  V30 3478 O 331.924 -1.89888 0.473395 0
M  V30 3479 C 332.223 -0.305114 3.56095 0
M  V30 3480 C 331.889 0.92903 4.41225 0
M  V30 3481 C 330.551 1.26739 4.6421 0
M  V30 3482 C 332.903 1.75054 4.90923 0
M  V30 3483 C 330.231 2.42724 5.34137 0
M  V30 3484 C 332.583 2.9017 5.62125 0
M  V30 3485 C 331.247 3.24416 5.83362 0
M  V30 3486 H 330.517 -0.0285027 0.740452 0
M  V30 3487 H 333.164 0.630543 1.80821 0
M  V30 3488 H 331.469 -1.09584 3.76163 0
M  V30 3489 H 333.166 -0.747377 3.93974 0
M  V30 3490 H 329.756 0.655428 4.23559 0
M  V30 3491 H 333.94 1.50231 4.73016 0
M  V30 3492 H 329.196 2.69525 5.48786 0
M  V30 3493 H 333.37 3.54169 5.99614 0
M  V30 3494 H 330.997 4.14396 6.37323 0
M  V30 3495 N 332.573 -1.56217 0.208337 0
M  V30 3496 C 333.52 -2.19699 -0.707192 0
M  V30 3497 C 334.49 -1.14836 -1.20008 0
M  V30 3498 O 335.675 -1.4314 -1.26157 0
M  V30 3499 C 332.815 -2.87061 -1.91546 0
M  V30 3500 C 331.928 -4.06483 -1.46271 0
M  V30 3501 C 331.063 -4.61665 -2.62752 0
M  V30 3502 C 330.102 -5.73417 -2.14147 0
M  V30 3503 N 329.239 -6.22948 -3.23853 0
M  V30 3504 H 334.079 -2.97575 -0.159111 0
M  V30 3505 H 331.616 -1.46948 -0.0667874 0
M  V30 3506 H 333.574 -3.24294 -2.62468 0
M  V30 3507 H 332.204 -2.11725 -2.43664 0
M  V30 3508 H 331.256 -3.74825 -0.648886 0
M  V30 3509 H 332.568 -4.87271 -1.06622 0
M  V30 3510 H 331.722 -5.01272 -3.41776 0
M  V30 3511 H 330.461 -3.80013 -3.05682 0
M  V30 3512 H 329.466 -5.33326 -1.33581 0
M  V30 3513 H 330.691 -6.56897 -1.72232 0
M  V30 3514 H 328.637 -5.44213 -3.6629 0
M  V30 3515 H 328.554 -6.98823 -2.88414 0
M  V30 3516 H 329.822 -6.6721 -4.03052 0
M  V30 3517 N 334.051 0.0651679 -1.57465 0
M  V30 3518 C 335.001 1.0838 -2.00594 0
M  V30 3519 C 335.985 1.34106 -0.889071 0
M  V30 3520 O 337.177 1.34295 -1.15299 0
M  V30 3521 C 334.306 2.39565 -2.45894 0
M  V30 3522 C 333.392 2.17085 -3.64328 0
M  V30 3523 N 333.783 1.64553 -4.78285 0
M  V30 3524 C 332.081 2.4753 -3.71006 0
M  V30 3525 C 332.782 1.57042 -5.60101 0
M  V30 3526 N 331.758 2.03328 -5.04141 0
M  V30 3527 H 335.56 0.671062 -2.86136 0
M  V30 3528 H 333.074 0.27213 -1.60104 0
M  V30 3529 H 335.071 3.13308 -2.75034 0
M  V30 3530 H 333.731 2.81549 -1.61741 0
M  V30 3531 H 334.742 1.33323 -5.00445 0
M  V30 3532 H 331.419 2.92835 -2.9758 0
M  V30 3533 H 332.809 1.17223 -6.61595 0
M  V30 3534 N 335.529 1.53961 0.336706 0
M  V30 3535 C 336.769 1.73254 1.08454 0
M  V30 3536 C 337.133 0.488937 1.8567 0
M  V30 3537 O 338.334 0.559001 2.62923 0
M  V30 3538 C 336.605 2.96519 1.99528 0
M  V30 3539 S 338.164 3.36655 2.81441 0
M  V30 3540 H 334.982 0.609353 0.366347 0
M  V30 3541 H 337.584 1.92117 0.362124 0
M  V30 3542 H 336.288 3.85193 1.41614 0
M  V30 3543 H 335.819 2.80142 2.76196 0
M  V30 3544 H 337.834 2.90925 4.01967 0
M  V30 3545 N 337.007 -0.598083 1.45811 0
M  V30 3546 C 338.423 -0.919847 1.30426 0
M  V30 3547 C 338.623 -1.99759 0.264303 0
M  V30 3548 O 337.679 -2.50221 -0.338472 0
M  V30 3549 C 338.992 -1.35176 2.68603 0
M  V30 3550 C 340.54 -1.46546 2.76574 0
M  V30 3551 C 341.015 -1.9311 4.15298 0
M  V30 3552 N 342.506 -2.00328 4.1764 0
M  V30 3553 C 343.241 -2.37599 5.21856 0
M  V30 3554 N 342.737 -2.73771 6.36413 0
M  V30 3555 N 344.53 -2.38021 5.09218 0
M  V30 3556 H 336.681 0.114111 2.12093 0
M  V30 3557 H 338.944 -0.0116121 0.947929 0
M  V30 3558 H 338.65 -0.633969 3.45939 0
M  V30 3559 H 338.524 -2.3164 2.97696 0
M  V30 3560 H 340.911 -2.17415 1.99537 0
M  V30 3561 H 340.992 -0.483727 2.51185 0
M  V30 3562 H 340.636 -1.22824 4.92825 0
M  V30 3563 H 340.566 -2.92213 4.38086 0
M  V30 3564 H 343.057 -1.74925 3.34977 0
M  V30 3565 H 343.37 -3.0112 7.11721 0
M  V30 3566 H 341.715 -2.71445 6.39799 0
M  V30 3567 H 344.906 -2.09174 4.18765 0
M  V30 3568 H 345.079 -2.66741 5.90554 0
M  V30 3569 N 338.485 -1.33259 -0.841409 0
M  V30 3570 C 339.715 -1.2742 -1.62628 0
M  V30 3571 C 340.123 0.157604 -1.88542 0
M  V30 3572 O 339.466 1.10938 -1.46419 0
M  V30 3573 C 339.528 -1.97797 -3.00194 0
M  V30 3574 C 339.192 -3.47109 -2.97261 0
M  V30 3575 C 340.189 -4.42358 -2.73159 0
M  V30 3576 C 337.874 -3.89247 -3.17478 0
M  V30 3577 C 339.868 -5.77718 -2.69296 0
M  V30 3578 C 337.555 -5.24713 -3.13241 0
M  V30 3579 C 338.553 -6.1876 -2.89181 0
M  V30 3580 O 338.241 -7.51745 -2.84843 0
M  V30 3581 H 337.973 -0.440436 -0.512827 0
M  V30 3582 H 340.527 -1.76153 -1.05638 0
M  V30 3583 H 338.757 -1.43652 -3.59028 0
M  V30 3584 H 340.446 -1.8549 -3.61038 0
M  V30 3585 H 341.212 -4.11127 -2.57294 0
M  V30 3586 H 337.091 -3.16456 -3.35226 0
M  V30 3587 H 340.635 -6.51097 -2.50436 0
M  V30 3588 H 336.532 -5.55569 -3.28654 0
M  V30 3589 H 337.3 -7.61262 -3.00702 0
M  V30 3590 N 339.963 1.05934 -1.16686 0
M  V30 3591 C 340.873 2.17014 -0.891183 0
M  V30 3592 C 341.889 1.73453 0.137907 0
M  V30 3593 O 343.065 2.01361 -0.039592 0
M  V30 3594 C 340.13 3.44384 -0.400099 0
M  V30 3595 C 339.191 4.02433 -1.49486 0
M  V30 3596 C 338.424 5.23723 -1.02711 0
M  V30 3597 O 338.647 5.7027 0.121716 0
M  V30 3598 O 337.581 5.7382 -1.81699 0
M  V30 3599 H 341.407 2.43113 -1.82015 0
M  V30 3600 H 338.992 1.15541 -0.947132 0
M  V30 3601 H 340.874 4.21189 -0.133392 0
M  V30 3602 H 339.549 3.19802 0.500817 0
M  V30 3603 H 338.456 3.27102 -1.81535 0
M  V30 3604 H 339.789 4.31317 -2.37121 0
M  V30 3605 N 341.441 0.965919 1.2453 0
M  V30 3606 C 342.852 0.665929 1.7442 0
M  V30 3607 C 343.203 -0.818407 1.78316 0
M  V30 3608 O 342.328 -1.64037 1.41141 0
M  V30 3609 C 342.923 1.20211 3.16757 0
M  V30 3610 C 341.482 0.952059 3.6416 0
M  V30 3611 C 340.629 1.33848 2.42858 0
M  V30 3612 H 343.58 1.14144 1.10258 0
M  V30 3613 H 343.601 0.567544 3.76244 0
M  V30 3614 H 343.113 2.28244 3.13889 0
M  V30 3615 H 341.214 -0.112821 3.72429 0
M  V30 3616 H 341.327 1.59645 4.51719 0
M  V30 3617 H 339.691 0.756864 2.43195 0
M  V30 3618 H 340.474 2.42827 2.42673 0
M  V30 3619 N 342.919 -1.39368 0.735821 0
M  V30 3620 C 343.851 -2.2913 0.0567723 0
M  V30 3621 C 344.864 -1.46859 -0.702589 0
M  V30 3622 O 346.053 -1.69925 -0.546616 0
M  V30 3623 C 343.153 -3.25492 -0.943823 0
M  V30 3624 C 342.326 -4.36709 -0.24581 0
M  V30 3625 C 341.385 -5.13376 -1.15463 0
M  V30 3626 O 340.411 -5.65683 -0.631803 0
M  V30 3627 N 341.613 -5.24656 -2.48427 0
M  V30 3628 H 344.378 -2.88047 0.827582 0
M  V30 3629 H 341.939 -1.50957 0.585112 0
M  V30 3630 H 343.931 -3.73657 -1.55443 0
M  V30 3631 H 342.501 -2.676 -1.61583 0
M  V30 3632 H 341.721 -3.9041 0.545286 0
M  V30 3633 H 343.009 -5.08244 0.237891 0
M  V30 3634 H 342.407 -4.83679 -2.93379 0
M  V30 3635 H 340.964 -5.76258 -3.04582 0
M  V30 3636 N 344.397 -0.483516 -1.5 0
M  V30 3637 C 345.644 0.0671597 -2.02389 0
M  V30 3638 C 345.972 1.38597 -1.36459 0
M  V30 3639 O 345.227 1.89634 -0.483458 0
M  V30 3640 C 345.526 0.286226 -3.56252 0
M  V30 3641 C 345.192 -0.952416 -4.40726 0
M  V30 3642 C 343.854 -1.29199 -4.63531 0
M  V30 3643 C 346.206 -1.77655 -4.89988 0
M  V30 3644 C 343.534 -2.45553 -5.32842 0
M  V30 3645 C 345.886 -2.93147 -5.60578 0
M  V30 3646 C 344.55 -3.27505 -5.81633 0
M  V30 3647 H 343.82 0.0245755 -0.740592 0
M  V30 3648 H 346.467 -0.640124 -1.80485 0
M  V30 3649 H 344.772 1.07587 -3.76739 0
M  V30 3650 H 346.469 0.726473 -3.94365 0
M  V30 3651 H 343.059 -0.677881 -4.23205 0
M  V30 3652 H 347.243 -1.52737 -4.72213 0
M  V30 3653 H 342.499 -2.72431 -5.47349 0
M  V30 3654 H 346.673 -3.57344 -5.97727 0
M  V30 3655 H 344.3 -4.1777 -6.35116 0
M  V30 3656 N 345.875 1.56104 -0.216619 0
M  V30 3657 C 347.1 2.0301 0.424462 0
M  V30 3658 C 347.525 1.0955 1.52907 0
M  V30 3659 O 346.883 0.0827914 1.81111 0
M  V30 3660 C 346.931 3.4819 0.937883 0
M  V30 3661 O 346.035 3.57865 2.04955 0
M  V30 3662 H 345.376 0.656925 0.0966755 0
M  V30 3663 H 347.906 2.01859 -0.33381 0
M  V30 3664 H 347.916 3.88413 1.24897 0
M  V30 3665 H 346.591 4.15699 0.129387 0
M  V30 3666 H 345.168 3.29527 1.74546 0
M  V30 3667 N 347.353 -0.0568162 1.57498 0
M  V30 3668 C 348.764 -0.606858 1.76562 0
M  V30 3669 C 349.115 -1.77114 0.844094 0
M  V30 3670 O 348.24 -2.16376 0.0318911 0
M  V30 3671 C 348.835 -1.10766 3.20182 0
M  V30 3672 C 347.394 -1.60344 3.40539 0
M  V30 3673 C 346.541 -0.529311 2.72201 0
M  V30 3674 H 349.492 0.169393 1.57793 0
M  V30 3675 H 349.513 -1.97602 3.25167 0
M  V30 3676 H 349.025 -0.26006 3.87228 0
M  V30 3677 H 347.126 -2.47379 2.78629 0
M  V30 3678 H 347.239 -1.67006 4.4905 0
M  V30 3679 H 345.603 -0.977893 2.35179 0
M  V30 3680 H 346.386 0.308352 3.41912 0
M  V30 3681 N 348.832 -1.54138 -0.328536 0
M  V30 3682 C 350.062 -1.75807 -1.08516 0
M  V30 3683 C 350.47 -0.50428 -1.82356 0
M  V30 3684 O 349.813 0.534451 -1.75754 0
M  V30 3685 C 349.875 -2.89423 -2.13248 0
M  V30 3686 C 349.539 -4.28504 -1.5885 0
M  V30 3687 C 350.536 -5.09536 -1.03289 0
M  V30 3688 C 348.221 -4.75034 -1.63243 0
M  V30 3689 C 350.215 -6.35206 -0.52845 0
M  V30 3690 C 347.902 -6.00672 -1.12411 0
M  V30 3691 C 348.9 -6.80592 -0.573062 0
M  V30 3692 O 348.588 -8.03867 -0.0723692 0
M  V30 3693 H 348.32 -0.590633 -0.328829 0
M  V30 3694 H 350.874 -2.01819 -0.381868 0
M  V30 3695 H 349.104 -2.5897 -2.87178 0
M  V30 3696 H 350.793 -2.98921 -2.74592 0
M  V30 3697 H 351.559 -4.74745 -0.99206 0
M  V30 3698 H 347.438 -4.12875 -2.05074 0
M  V30 3699 H 350.982 -6.97532 -0.0976774 0
M  V30 3700 H 346.879 -6.34955 -1.162 0
M  V30 3701 H 347.647 -8.18283 -0.188258 0
M  V30 3702 N 350.31 0.590341 -1.46126 0
M  V30 3703 C 351.55 1.35995 -1.52593 0
M  V30 3704 C 351.914 1.91243 -0.170368 0
M  V30 3705 O 353.115 2.68576 -0.109775 0
M  V30 3706 C 351.386 2.46465 -2.58823 0
M  V30 3707 S 352.945 3.33953 -2.84641 0
M  V30 3708 H 349.763 0.463425 -0.53922 0
M  V30 3709 H 352.365 0.67944 -1.83314 0
M  V30 3710 H 351.069 2.04256 -3.5596 0
M  V30 3711 H 350.6 3.19297 -2.2981 0
M  V30 3712 H 352.615 4.45094 -2.19331 0
M  V30 3713 N 351.788 1.33704 0.83433 0
M  V30 3714 C 353.199 1.22813 1.4062 0
M  V30 3715 C 353.55 -0.151107 1.95617 0
M  V30 3716 O 352.675 -1.05092 1.89168 0
M  V30 3717 C 353.27 2.22355 2.55624 0
M  V30 3718 C 351.829 2.1529 3.08751 0
M  V30 3719 C 350.976 2.09589 1.8157 0
M  V30 3720 H 353.927 1.45236 0.639702 0
M  V30 3721 H 353.948 1.83391 3.33389 0
M  V30 3722 H 353.46 3.22728 2.15566 0
M  V30 3723 H 351.561 1.18235 3.53343 0
M  V30 3724 H 351.674 3.06038 3.68616 0
M  V30 3725 H 350.038 1.55134 2.02004 0
M  V30 3726 H 350.821 3.11777 1.43701 0
M  V30 3727 N 353.266 -1.05314 1.17247 0
M  V30 3728 C 354.512 -1.78557 0.961513 0
M  V30 3729 C 354.845 -1.87419 -0.508697 0
M  V30 3730 O 354.12 -1.37307 -1.37757 0
M  V30 3731 C 354.403 -3.22514 1.60176 0
M  V30 3732 C 354.256 -3.21673 3.14399 0
M  V30 3733 C 355.575 -4.20318 1.30463 0
M  V30 3734 H 352.694 -0.6482 0.350723 0
M  V30 3735 H 355.336 -1.23102 1.44727 0
M  V30 3736 H 353.486 -3.69867 1.18871 0
M  V30 3737 H 355.158 -2.82405 3.64753 0
M  V30 3738 H 353.401 -2.60048 3.47214 0
M  V30 3739 H 354.072 -4.23271 3.54324 0
M  V30 3740 H 356.548 -3.81454 1.66229 0
M  V30 3741 H 355.424 -5.19289 1.77848 0
M  V30 3742 H 355.685 -4.41526 0.22521 0
M  V30 3743 N 354.744 -0.972509 -1.24016 0
M  V30 3744 C 355.991 -0.637034 -1.92219 0
M  V30 3745 C 356.319 0.828418 -1.75976 0
M  V30 3746 O 355.574 1.61206 -1.10955 0
M  V30 3747 C 355.873 -0.963694 -3.44162 0
M  V30 3748 C 355.539 -2.41807 -3.80579 0
M  V30 3749 C 354.201 -2.81556 -3.9023 0
M  V30 3750 C 356.553 -3.36172 -3.98293 0
M  V30 3751 C 353.881 -4.14702 -4.15017 0
M  V30 3752 C 356.233 -4.68952 -4.24578 0
M  V30 3753 C 354.897 -5.08472 -4.32449 0
M  V30 3754 H 354.167 -0.233107 -0.703379 0
M  V30 3755 H 356.814 -1.2249 -1.47202 0
M  V30 3756 H 355.119 -0.29365 -3.90698 0
M  V30 3757 H 356.816 -0.682449 -3.9515 0
M  V30 3758 H 353.406 -2.09988 -3.73635 0
M  V30 3759 H 357.59 -3.06644 -3.90234 0
M  V30 3760 H 352.846 -4.4494 -4.19331 0
M  V30 3761 H 357.02 -5.42037 -4.37229 0
M  V30 3762 H 354.647 -6.11665 -4.51409 0
M  V30 3763 N 356.222 1.38976 -0.743202 0
M  V30 3764 C 357.638 1.53984 -0.419664 0
M  V30 3765 C 357.838 1.70837 1.0685 0
M  V30 3766 O 356.894 1.7135 1.8546 0
M  V30 3767 C 358.207 2.75287 -1.20985 0
M  V30 3768 C 359.755 2.89129 -1.19889 0
M  V30 3769 C 360.23 4.13381 -1.97181 0
M  V30 3770 N 361.721 4.20437 -1.94389 0
M  V30 3771 C 362.456 5.15547 -2.50996 0
M  V30 3772 N 361.952 6.16395 -3.16274 0
M  V30 3773 N 363.745 5.07822 -2.40984 0
M  V30 3774 H 355.896 1.26285 -1.7078 0
M  V30 3775 H 358.159 0.612689 -0.723406 0
M  V30 3776 H 357.865 2.69204 -2.26323 0
M  V30 3777 H 357.739 3.68184 -0.819759 0
M  V30 3778 H 360.126 2.947 -0.153606 0
M  V30 3779 H 360.207 1.97272 -1.62841 0
M  V30 3780 H 359.851 4.08572 -3.01714 0
M  V30 3781 H 359.781 5.04298 -1.51629 0
M  V30 3782 H 362.272 3.48205 -1.46839 0
M  V30 3783 H 362.585 6.85443 -3.56915 0
M  V30 3784 H 360.93 6.16758 -3.20367 0
M  V30 3785 H 364.121 4.27973 -1.89622 0
M  V30 3786 H 364.294 5.81767 -2.85397 0
M  V30 3787 N 357.7 0.491464 1.49741 0
M  V30 3788 C 358.949 -0.0582189 2.01616 0
M  V30 3789 C 359.262 -1.38927 1.3769 0
M  V30 3790 O 360.468 -2.02509 1.80838 0
M  V30 3791 C 358.924 -0.154235 3.59569 0
M  V30 3792 C 358.532 1.1696 4.32463 0
M  V30 3793 C 360.276 -0.65479 4.1942 0
M  V30 3794 C 358.183 1.03627 5.8225 0
M  V30 3795 H 357.113 -0.0255317 0.753568 0
M  V30 3796 H 359.764 0.629445 1.72367 0
M  V30 3797 H 358.146 -0.906138 3.85493 0
M  V30 3798 H 359.32 1.93405 4.18248 0
M  V30 3799 H 357.635 1.60285 3.84315 0
M  V30 3800 H 360.232 -0.771903 5.29099 0
M  V30 3801 H 360.575 -1.65127 3.8215 0
M  V30 3802 H 361.108 0.040304 3.9778 0
M  V30 3803 H 357.847 2.00672 6.24028 0
M  V30 3804 H 357.367 0.312546 5.98985 0
M  V30 3805 H 359.046 0.711114 6.4308 0
M  V30 3806 N 359.178 -1.55987 0.224894 0
M  V30 3807 C 360.426 -1.97998 -0.405099 0
M  V30 3808 C 360.747 -1.11387 -1.60056 0
M  V30 3809 O 360.017 -0.191645 -1.9496 0
M  V30 3810 H 358.597 -0.731235 -0.152658 0
M  V30 3811 H 361.259 -1.92279 0.318567 0
M  V30 3812 H 360.355 -3.03463 -0.729167 0
M  V30 3813 N 360.656 0.0484629 -1.57525 0
M  V30 3814 C 361.933 0.777447 -1.79486 0
M  V30 3815 C 362.313 1.94597 -0.818251 0
M  V30 3816 O 361.661 2.28047 0.143767 0
M  V30 3817 C 361.871 1.22864 -3.26658 0
M  V30 3818 C 363.219 1.65251 -3.91123 0
M  V30 3819 O 364.243 1.32372 -3.3069 0
M  V30 3820 O 363.102 2.26207 -4.97486 0
M  V30 3821 H 360.196 0.374357 -0.737419 0
M  V30 3822 H 362.742 0.0267359 -1.69679 0
M  V30 3823 H 361.514 0.393589 -3.89316 0
M  V30 3824 H 361.137 2.03996 -3.41279 0
M  V30 3825 N 362.134 1.5431 0.320358 0
M  V30 3826 C 363.064 1.86912 1.3995 0
M  V30 3827 C 364.045 0.726211 1.53819 0
M  V30 3828 O 365.23 0.980233 1.67646 0
M  V30 3829 C 362.36 2.09932 2.7667 0
M  V30 3830 C 361.314 3.25776 2.77586 0
M  V30 3831 C 360.64 3.34173 4.17412 0
M  V30 3832 C 361.94 4.6335 2.41048 0
M  V30 3833 H 363.634 2.77292 1.12914 0
M  V30 3834 H 361.18 1.33421 0.541738 0
M  V30 3835 H 363.133 2.31324 3.52232 0
M  V30 3836 H 361.857 1.16304 3.0519 0
M  V30 3837 H 360.516 3.04276 2.04479 0
M  V30 3838 H 360.164 2.38098 4.43078 0
M  V30 3839 H 359.864 4.12033 4.18931 0
M  V30 3840 H 361.388 3.57803 4.94782 0
M  V30 3841 H 362.802 4.84602 3.06324 0
M  V30 3842 H 361.199 5.43782 2.53813 0
M  V30 3843 H 362.269 4.65381 1.36193 0
M  V30 3844 N 363.613 -0.582584 1.46437 0
M  V30 3845 C 364.859 -1.34278 1.51978 0
M  V30 3846 C 365.192 -1.93446 0.170973 0
M  V30 3847 O 364.467 -1.76481 -0.817608 0
M  V30 3848 C 364.75 -2.47203 2.61845 0
M  V30 3849 C 364.603 -1.93069 4.06257 0
M  V30 3850 C 365.922 -3.49247 2.67795 0
M  V30 3851 H 363.041 -0.486876 0.553282 0
M  V30 3852 H 365.683 -0.654437 1.78374 0
M  V30 3853 H 363.833 -3.0592 2.39469 0
M  V30 3854 H 365.505 -1.38808 4.3992 0
M  V30 3855 H 363.748 -1.23898 4.1573 0
M  V30 3856 H 364.419 -2.74586 4.7886 0
M  V30 3857 H 366.895 -3.00411 2.8791 0
M  V30 3858 H 365.771 -4.25719 3.46489 0
M  V30 3859 H 366.032 -4.06482 1.73852 0
M  V30 3860 N 365.091 -1.34144 -0.827227 0
M  V30 3861 C 366.054 -1.25264 -1.91942 0
M  V30 3862 C 367.054 -0.168866 -1.59911 0
M  V30 3863 O 368.244 -0.421198 -1.69031 0
M  V30 3864 C 365.376 -0.932952 -3.27885 0
M  V30 3865 H 366.569 -2.22357 -2.0124 0
M  V30 3866 H 364.122 -1.1837 -1.0207 0
M  V30 3867 H 364.857 0.0349917 -3.24281 0
M  V30 3868 H 364.642 -1.71682 -3.52516 0
M  V30 3869 H 366.132 -0.895874 -4.07877 0
M  V30 3870 N 366.569 1.04691 -1.17803 0
M  V30 3871 C 367.516 2.12557 -0.899343 0
M  V30 3872 C 368.486 1.65339 0.158771 0
M  V30 3873 O 369.671 1.90789 0.0204797 0
M  V30 3874 C 366.811 3.42481 -0.424315 0
M  V30 3875 C 365.924 4.03346 -1.54713 0
M  V30 3876 C 365.059 5.21208 -1.02546 0
M  V30 3877 C 364.098 5.74089 -2.12339 0
M  V30 3878 N 363.235 6.83247 -1.61612 0
M  V30 3879 H 368.075 2.35734 -1.823 0
M  V30 3880 H 365.612 1.1564 -0.909159 0
M  V30 3881 H 367.57 4.16996 -0.130421 0
M  V30 3882 H 366.2 3.19471 0.462377 0
M  V30 3883 H 365.252 3.2622 -1.95664 0
M  V30 3884 H 366.564 4.38628 -2.37501 0
M  V30 3885 H 365.718 6.02812 -0.685718 0
M  V30 3886 H 364.457 4.87414 -0.167084 0
M  V30 3887 H 363.462 4.91111 -2.47165 0
M  V30 3888 H 364.687 6.0993 -2.98601 0
M  V30 3889 H 362.633 6.5134 -0.780533 0
M  V30 3890 H 362.55 7.17559 -2.38003 0
M  V30 3891 H 363.818 7.68491 -1.30545 0
M  V30 3892 N 368.047 0.979072 1.23499 0
M  V30 3893 C 369.01 0.523244 2.23147 0
M  V30 3894 C 370.01 -0.386406 1.56088 0
M  V30 3895 O 371.2 -0.180283 1.73265 0
M  V30 3896 C 368.332 -0.240739 3.40049 0
M  V30 3897 H 369.525 1.40432 2.64989 0
M  V30 3898 H 367.078 0.764824 1.36309 0
M  V30 3899 H 367.813 -1.13841 3.03662 0
M  V30 3900 H 367.598 0.412207 3.89927 0
M  V30 3901 H 369.088 -0.548297 4.13985 0
M  V30 3902 N 369.525 -1.3858 0.750561 0
M  V30 3903 C 370.773 -1.99789 0.30477 0
M  V30 3904 C 371.094 -1.59874 -1.11649 0
M  V30 3905 O 370.364 -0.85417 -1.76297 0
M  V30 3906 H 368.944 -0.738902 0.109694 0
M  V30 3907 H 371.606 -1.69391 0.963983 0
M  V30 3908 H 370.702 -3.09952 0.365499 0
M  V30 3909 N 371.003 -0.499398 -1.49478 0
M  V30 3910 C 372.251 0.0455996 -2.02049 0
M  V30 3911 C 372.572 1.37633 -1.38138 0
M  V30 3912 O 371.842 1.8842 -0.536166 0
M  V30 3913 H 370.422 0.0198416 -0.746736 0
M  V30 3914 H 373.084 -0.656274 -1.83519 0
M  V30 3915 H 372.18 0.176445 -3.11601 0
M  V30 3916 N 372.481 1.55866 -0.233164 0
M  V30 3917 C 373.709 2.02998 0.399905 0
M  V30 3918 C 374.124 1.11274 1.52524 0
M  V30 3919 O 373.481 0.124528 1.82075 0
M  V30 3920 C 373.532 3.4958 0.920639 0
M  V30 3921 O 373.253 4.37808 -0.159834 0
M  V30 3922 C 374.754 4.12411 1.62578 0
M  V30 3923 H 371.974 0.664006 0.0966281 0
M  V30 3924 H 374.518 2.0143 -0.353013 0
M  V30 3925 H 372.673 3.51727 1.62379 0
M  V30 3926 H 373.087 5.23981 0.23337 0
M  V30 3927 H 374.561 5.16711 1.94201 0
M  V30 3928 H 375.038 3.5809 2.54299 0
M  V30 3929 H 375.644 4.14148 0.967553 0
M  V30 3930 N 373.959 -0.0401083 1.57549 0
M  V30 3931 C 375.206 -0.733125 1.88763 0
M  V30 3932 C 375.534 -1.75946 0.829058 0
M  V30 3933 O 374.789 -1.94949 -0.171323 0
M  V30 3934 C 375.088 -1.44902 3.26708 0
M  V30 3935 C 374.754 -0.559707 4.47413 0
M  V30 3936 C 373.416 -0.314731 4.8017 0
M  V30 3937 C 375.768 0.0549743 5.21171 0
M  V30 3938 C 373.096 0.553886 5.8408 0
M  V30 3939 C 375.448 0.911229 6.26003 0
M  V30 3940 C 374.112 1.16577 6.57241 0
M  V30 3941 H 373.382 -0.268269 0.690733 0
M  V30 3942 H 376.029 0.00679408 1.91499 0
M  V30 3943 H 374.334 -2.26197 3.1991 0
M  V30 3944 H 376.031 -1.99058 3.48105 0
M  V30 3945 H 372.621 -0.760793 4.21794 0
M  V30 3946 H 376.805 -0.121344 4.96152 0
M  V30 3947 H 372.061 0.759518 6.06664 0
M  V30 3948 H 376.235 1.3941 6.82303 0
M  V30 3949 H 373.862 1.84058 7.37582 0
M  V30 3950 N 375.437 -1.54477 -0.31217 0
M  V30 3951 C 376.347 -1.87695 -1.4074 0
M  V30 3952 C 377.363 -0.769975 -1.56036 0
M  V30 3953 O 378.539 -1.06537 -1.70915 0
M  V30 3954 C 375.604 -2.10755 -2.75287 0
M  V30 3955 C 374.665 -3.34514 -2.69071 0
M  V30 3956 C 373.898 -3.56465 -3.97201 0
M  V30 3957 O 374.121 -2.81637 -4.96021 0
M  V30 3958 O 373.055 -4.49964 -3.9977 0
M  V30 3959 H 376.881 -2.80849 -1.15574 0
M  V30 3960 H 374.466 -1.40526 -0.507228 0
M  V30 3961 H 376.348 -2.27188 -3.54913 0
M  V30 3962 H 375.023 -1.20788 -3.0032 0
M  V30 3963 H 373.93 -3.23456 -1.87955 0
M  V30 3964 H 375.263 -4.24575 -2.48992 0
M  V30 3965 N 376.915 0.57481 -1.46744 0
M  V30 3966 C 378.192 1.3352 -1.4294 0
M  V30 3967 C 378.572 2.10775 -0.117009 0
M  V30 3968 O 377.92 2.09966 0.901474 0
M  V30 3969 C 378.13 2.25456 -2.66403 0
M  V30 3970 C 379.478 2.87035 -3.12883 0
M  V30 3971 O 380.502 2.35766 -2.67007 0
M  V30 3972 O 379.361 3.80179 -3.92589 0
M  V30 3973 H 376.455 0.600318 -0.568812 0
M  V30 3974 H 379.001 0.595171 -1.58921 0
M  V30 3975 H 377.773 1.67851 -3.53471 0
M  V30 3976 H 377.396 3.06785 -2.52921 0
M  V30 3977 N 378.394 1.34581 0.820102 0
M  V30 3978 C 379.324 1.29038 1.94606 0
M  V30 3979 C 380.305 0.1673 1.69275 0
M  V30 3980 O 381.49 0.360112 1.90832 0
M  V30 3981 C 378.62 1.04793 3.31113 0
M  V30 3982 C 377.574 2.13597 3.70891 0
M  V30 3983 C 376.9 1.74537 5.05412 0
M  V30 3984 C 378.2 3.55451 3.8269 0
M  V30 3985 H 379.894 2.23248 1.99501 0
M  V30 3986 H 377.44 1.0747 0.958449 0
M  V30 3987 H 379.393 0.995592 4.0947 0
M  V30 3988 H 378.117 0.0702565 3.26524 0
M  V30 3989 H 376.776 2.17905 2.9481 0
M  V30 3990 H 376.424 0.754226 4.97313 0
M  V30 3991 H 376.124 2.47361 5.32997 0
M  V30 3992 H 377.648 1.70803 5.86224 0
M  V30 3993 H 379.062 3.5354 4.51312 0
M  V30 3994 H 377.459 4.26922 4.21732 0
M  V30 3995 H 378.529 3.92587 2.84611 0
M  V30 3996 N 379.872 -1.04064 1.18357 0
M  V30 3997 C 380.835 -2.10243 0.912707 0
M  V30 3998 C 381.835 -1.60477 -0.101928 0
M  V30 3999 O 383.025 -1.73703 0.131517 0
M  V30 4000 C 380.157 -3.38893 0.369387 0
M  V30 4001 H 381.35 -2.35706 1.85426 0
M  V30 4002 H 378.903 -1.20489 0.995594 0
M  V30 4003 H 379.638 -3.19094 -0.578776 0
M  V30 4004 H 379.423 -3.76331 1.1008 0
M  V30 4005 H 380.913 -4.17128 0.198575 0
M  V30 4006 N 381.35 -0.985608 -1.22978 0
M  V30 4007 C 382.28 -0.549649 -2.26939 0
M  V30 4008 C 383.261 0.419803 -1.64838 0
M  V30 4009 O 384.446 0.31203 -1.91677 0
M  V30 4010 C 381.576 0.143652 -3.47003 0
M  V30 4011 C 380.53 -0.743606 -4.21491 0
M  V30 4012 C 379.856 0.0822027 -5.34637 0
M  V30 4013 C 381.156 -2.03694 -4.80943 0
M  V30 4014 H 382.85 -1.41862 -2.63658 0
M  V30 4015 H 380.396 -0.683571 -1.26741 0
M  V30 4016 H 382.349 0.459985 -4.18882 0
M  V30 4017 H 381.073 1.04711 -3.09359 0
M  V30 4018 H 379.732 -1.04347 -3.51436 0
M  V30 4019 H 379.38 0.986359 -4.93234 0
M  V30 4020 H 379.08 -0.508377 -5.85397 0
M  V30 4021 H 380.604 0.392797 -6.09335 0
M  V30 4022 H 382.018 -1.78504 -5.44802 0
M  V30 4023 H 380.415 -2.57573 -5.42011 0
M  V30 4024 H 381.485 -2.72042 -4.01399 0
M  V30 4025 N 382.828 1.3818 -0.7579 0
M  V30 4026 C 383.758 2.33027 -0.148597 0
M  V30 4027 C 384.739 1.55085 0.69875 0
M  V30 4028 O 385.924 1.83384 0.639053 0
M  V30 4029 C 383.054 3.3928 0.742034 0
M  V30 4030 C 382.008 4.28 -0.00291946 0
M  V30 4031 C 381.334 5.25146 1.00625 0
M  V30 4032 C 382.634 5.08938 -1.17385 0
M  V30 4033 H 384.328 2.84231 -0.940909 0
M  V30 4034 H 381.874 1.36659 -0.453908 0
M  V30 4035 H 383.827 4.046 1.17799 0
M  V30 4036 H 382.551 2.86569 1.56671 0
M  V30 4037 H 381.21 3.64192 -0.419504 0
M  V30 4038 H 380.858 4.68721 1.8251 0
M  V30 4039 H 380.558 5.85361 0.512428 0
M  V30 4040 H 382.082 5.93342 1.44143 0
M  V30 4041 H 383.496 5.67474 -0.815224 0
M  V30 4042 H 381.893 5.7841 -1.59882 0
M  V30 4043 H 382.963 4.42424 -1.98468 0
M  V30 4044 N 384.306 0.507319 1.49211 0
M  V30 4045 C 385.554 -0.0348839 2.0207 0
M  V30 4046 C 385.875 -1.36898 1.38866 0
M  V30 4047 O 385.145 -1.88133 0.546151 0
M  V30 4048 H 383.725 -0.0158812 0.746831 0
M  V30 4049 H 386.387 0.665998 1.83168 0
M  V30 4050 H 385.483 -0.159917 3.1169 0
M  V30 4051 N 385.784 -1.5574 0.241426 0
M  V30 4052 C 387.032 -1.98417 -0.384075 0
M  V30 4053 C 387.353 -1.13078 -1.58866 0
M  V30 4054 O 386.623 -0.212312 -1.94746 0
M  V30 4055 H 385.203 -0.732813 -0.144894 0
M  V30 4056 H 387.865 -1.9193 0.338943 0
M  V30 4057 H 386.961 -3.04219 -0.696939 0
M  V30 4058 N 387.262 0.0317525 -1.57568 0
M  V30 4059 C 388.487 0.738664 -1.938 0
M  V30 4060 C 388.912 1.68242 -0.841208 0
M  V30 4061 O 388.27 1.80157 0.203267 0
M  V30 4062 C 388.318 1.47417 -3.29091 0
M  V30 4063 O 387.422 2.5872 -3.2115 0
M  V30 4064 H 386.763 0.198856 -0.633524 0
M  V30 4065 H 389.293 -0.0119713 -2.04596 0
M  V30 4066 H 389.303 1.84468 -3.63917 0
M  V30 4067 H 387.978 0.781988 -4.08482 0
M  V30 4068 H 386.555 2.24231 -2.97951 0
M  V30 4069 N 388.74 1.54641 0.303973 0
M  V30 4070 C 389.986 1.74038 1.04109 0
M  V30 4071 C 390.319 0.523051 1.87024 0
M  V30 4072 O 389.594 -0.479874 1.88487 0
M  V30 4073 C 389.877 3.02761 1.94955 0
M  V30 4074 C 389.73 4.34787 1.1524 0
M  V30 4075 C 391.049 3.27336 2.94175 0
M  V30 4076 H 388.168 0.63323 0.377079 0
M  V30 4077 H 390.81 1.87354 0.316001 0
M  V30 4078 H 388.96 2.9154 2.56782 0
M  V30 4079 H 390.632 4.57922 0.557236 0
M  V30 4080 H 388.875 4.31407 0.455053 0
M  V30 4081 H 389.546 5.21116 1.8205 0
M  V30 4082 H 392.022 3.38148 2.42477 0
M  V30 4083 H 390.898 4.18726 3.54908 0
M  V30 4084 H 391.159 2.45491 3.67677 0
M  V30 4085 N 390.218 -0.567019 1.47046 0
M  V30 4086 C 391.466 -1.322 1.52864 0
M  V30 4087 C 391.787 -1.94088 0.188388 0
M  V30 4088 O 391.057 -1.7941 -0.786693 0
M  V30 4089 H 389.637 -0.490894 0.563056 0
M  V30 4090 H 392.299 -0.662879 1.83281 0
M  V30 4091 H 391.395 -2.12062 2.2899 0
M  V30 4092 N 391.696 -1.35014 -0.812953 0
M  V30 4093 C 392.945 -1.27269 -1.56479 0
M  V30 4094 C 393.258 0.152771 -1.95002 0
M  V30 4095 O 394.464 0.352451 -2.69203 0
M  V30 4096 C 392.92 -2.23159 -2.82362 0
M  V30 4097 C 392.528 -3.71016 -2.511 0
M  V30 4098 C 394.272 -2.24342 -3.60376 0
M  V30 4099 C 392.179 -4.58746 -3.73237 0
M  V30 4100 H 391.109 -0.472829 -0.587324 0
M  V30 4101 H 393.76 -1.6024 -0.894171 0
M  V30 4102 H 392.142 -1.83151 -3.51101 0
M  V30 4103 H 393.316 -4.1962 -1.90409 0
M  V30 4104 H 391.631 -3.72378 -1.86343 0
M  V30 4105 H 394.228 -2.87107 -4.51081 0
M  V30 4106 H 394.571 -1.24542 -3.97234 0
M  V30 4107 H 395.104 -2.62846 -2.98591 0
M  V30 4108 H 391.843 -5.59521 -3.41492 0
M  V30 4109 H 391.363 -4.14871 -4.33176 0
M  V30 4110 H 393.042 -4.73852 -4.40537 0
M  V30 4111 N 393.175 1.03435 -1.18907 0
M  V30 4112 C 394.591 1.28973 -0.940111 0
M  V30 4113 C 394.791 1.97676 0.390691 0
M  V30 4114 O 393.847 2.26127 1.12352 0
M  V30 4115 C 395.16 2.14221 -2.11021 0
M  V30 4116 C 396.708 2.27547 -2.14922 0
M  V30 4117 C 397.183 3.16164 -3.31367 0
M  V30 4118 N 398.674 3.23752 -3.31269 0
M  V30 4119 C 399.409 3.92495 -4.18014 0
M  V30 4120 N 398.905 4.63515 -5.14904 0
M  V30 4121 N 400.698 3.88838 -4.05908 0
M  V30 4122 H 392.849 0.57252 -2.04538 0
M  V30 4123 H 395.112 0.315184 -0.894071 0
M  V30 4124 H 394.818 1.71054 -3.073 0
M  V30 4125 H 394.692 3.14919 -2.0762 0
M  V30 4126 H 397.079 2.69947 -1.19217 0
M  V30 4127 H 397.16 1.26418 -2.22378 0
M  V30 4128 H 396.804 2.74474 -4.27348 0
M  V30 4129 H 396.734 4.17339 -3.21148 0
M  V30 4130 H 399.225 2.73167 -2.61129 0
M  V30 4131 H 399.538 5.13583 -5.77453 0
M  V30 4132 H 397.883 4.62398 -5.18857 0
M  V30 4133 H 401.074 3.32491 -3.29495 0
M  V30 4134 H 401.247 4.4214 -4.73726 0
M  V30 4135 N 394.653 0.992116 1.22453 0
M  V30 4136 C 395.899 0.668523 1.91464 0
M  V30 4137 C 396.232 -0.797313 1.77078 0
M  V30 4138 O 395.507 -1.5765 1.13916 0
M  V30 4139 C 395.79 1.07424 3.43703 0
M  V30 4140 C 395.643 2.59857 3.67143 0
M  V30 4141 C 396.962 0.626891 4.35612 0
M  V30 4142 H 394.081 0.244341 0.695318 0
M  V30 4143 H 396.723 1.2355 1.44345 0
M  V30 4144 H 394.873 0.591816 3.83966 0
M  V30 4145 H 396.545 3.15764 3.3629 0
M  V30 4146 H 394.788 3.01961 3.11451 0
M  V30 4147 H 395.459 2.83296 4.73759 0
M  V30 4148 H 397.935 1.04125 4.02861 0
M  V30 4149 H 396.811 0.939076 5.40807 0
M  V30 4150 H 397.072 -0.472457 4.39568 0
M  V30 4151 N 396.131 -1.37776 0.765217 0
M  V30 4152 C 397.081 -2.2768 0.12075 0
M  V30 4153 C 398.065 -1.45778 -0.680988 0
M  V30 4154 O 399.257 -1.684 -0.545033 0
M  V30 4155 C 396.386 -3.34722 -0.762626 0
M  V30 4156 C 395.472 -4.24074 0.0465881 0
M  V30 4157 N 395.863 -4.93939 1.08892 0
M  V30 4158 C 394.161 -4.45643 -0.178418 0
M  V30 4159 C 394.862 -5.59845 1.57951 0
M  V30 4160 N 393.838 -5.36218 0.892797 0
M  V30 4161 H 397.64 -2.79166 0.918889 0
M  V30 4162 H 395.154 -1.50816 0.602353 0
M  V30 4163 H 397.151 -3.98031 -1.24005 0
M  V30 4164 H 395.811 -2.84793 -1.55959 0
M  V30 4165 H 396.822 -4.96572 1.47095 0
M  V30 4166 H 393.499 -4.06599 -0.9478 0
M  V30 4167 H 394.889 -6.25703 2.44838 0
M  V30 4168 N 397.609 -0.515225 -1.4894 0
M  V30 4169 C 398.855 0.016187 -2.03394 0
M  V30 4170 C 399.21 1.33377 -1.38666 0
M  V30 4171 O 398.503 1.84461 -0.518141 0
M  V30 4172 C 398.697 0.210595 -3.56779 0
M  V30 4173 C 398.526 -1.08659 -4.36375 0
M  V30 4174 C 397.296 -1.64237 -4.77864 0
M  V30 4175 C 399.494 -1.9935 -4.74093 0
M  V30 4176 N 397.476 -2.88398 -5.41941 0
M  V30 4177 C 398.847 -3.08088 -5.38035 0
M  V30 4178 C 400.902 -1.99856 -4.56029 0
M  V30 4179 C 399.605 -4.17377 -5.85823 0
M  V30 4180 C 401.631 -3.08129 -5.04787 0
M  V30 4181 C 400.993 -4.15586 -5.68742 0
M  V30 4182 H 397.092 -0.0352107 -0.781207 0
M  V30 4183 H 399.676 -0.693237 -1.8194 0
M  V30 4184 H 397.847 0.889088 -3.78087 0
M  V30 4185 H 399.579 0.740287 -3.97872 0
M  V30 4186 H 396.334 -1.18566 -4.58518 0
M  V30 4187 H 396.758 -3.51572 -5.78555 0
M  V30 4188 H 401.4 -1.18079 -4.05977 0
M  V30 4189 H 399.118 -4.99943 -6.34888 0
M  V30 4190 H 402.704 -3.09557 -4.92611 0
M  V30 4191 H 401.584 -4.97987 -6.05787 0
M  V30 4192 N 399.087 1.5561 -0.249682 0
M  V30 4193 C 400.364 1.90932 0.424761 0
M  V30 4194 C 400.744 1.17078 1.75658 0
M  V30 4195 O 400.092 0.289176 2.26663 0
M  V30 4196 C 400.302 3.43975 0.590109 0
M  V30 4197 C 401.65 4.15281 0.884714 0
M  V30 4198 O 402.674 3.49729 0.67587 0
M  V30 4199 O 401.533 5.31236 1.28259 0
M  V30 4200 H 398.627 0.794815 0.228468 0
M  V30 4201 H 401.173 1.67135 -0.293954 0
M  V30 4202 H 399.945 3.89748 -0.34818 0
M  V30 4203 H 399.568 3.73644 1.35926 0
M  V30 4204 N 400.565 -0.0233959 1.57583 0
M  V30 4205 C 401.805 -0.71784 1.9138 0
M  V30 4206 C 402.169 -1.72216 0.848853 0
M  V30 4207 O 403.37 -2.46527 1.07134 0
M  V30 4208 C 401.641 -1.36489 3.30311 0
M  V30 4209 S 403.2 -2.0877 3.85954 0
M  V30 4210 H 400.018 -0.237676 0.670098 0
M  V30 4211 H 402.62 0.0276709 1.9548 0
M  V30 4212 H 401.324 -0.620782 4.05678 0
M  V30 4213 H 400.855 -2.14883 3.29528 0
M  V30 4214 H 402.87 -3.35988 3.65139 0
M  V30 4215 N 402.043 -1.548 -0.295768 0
M  V30 4216 C 403.32 -1.65014 -1.05023 0
M  V30 4217 C 403.7 -0.501805 -2.05049 0
M  V30 4218 O 403.048 0.500869 -2.22943 0
M  V30 4219 C 403.258 -3.03252 -1.72741 0
M  V30 4220 C 404.606 -3.60242 -2.24746 0
M  V30 4221 O 405.63 -3.05737 -1.82765 0
M  V30 4222 O 404.489 -4.55687 -3.01681 0
M  V30 4223 H 401.583 -0.669314 -0.485744 0
M  V30 4224 H 404.129 -1.67144 -0.293438 0
M  V30 4225 H 402.901 -3.7827 -1.00138 0
M  V30 4226 H 402.524 -3.04922 -2.55163 0
M  V30 4227 N 403.521 0.559213 -1.47345 0
M  V30 4228 C 404.451 1.67622 -1.62558 0
M  V30 4229 C 405.432 1.63331 -0.475087 0
M  V30 4230 O 406.617 1.80983 -0.704182 0
M  V30 4231 C 403.747 3.0626 -1.63774 0
M  V30 4232 C 402.701 3.25397 -2.7803 0
M  V30 4233 C 402.027 4.64801 -2.64318 0
M  V30 4234 C 403.327 3.10965 -4.19641 0
M  V30 4235 H 405.021 1.55146 -2.56067 0
M  V30 4236 H 402.567 0.744961 -1.23233 0
M  V30 4237 H 404.52 3.84247 -1.73008 0
M  V30 4238 H 403.244 3.1969 -0.66825 0
M  V30 4239 H 401.903 2.49817 -2.68304 0
M  V30 4240 H 401.551 4.75028 -1.65401 0
M  V30 4241 H 401.251 4.78555 -3.40968 0
M  V30 4242 H 402.775 5.44926 -2.75478 0
M  V30 4243 H 404.189 3.78772 -4.30354 0
M  V30 4244 H 402.586 3.36229 -4.97062 0
M  V30 4245 H 403.656 2.07736 -4.38148 0
M  V30 4246 N 404.999 1.35443 0.805782 0
M  V30 4247 C 406.276 1.19325 1.54987 0
M  V30 4248 C 406.656 -0.227294 2.09873 0
M  V30 4249 O 406.004 -1.2309 1.92512 0
M  V30 4250 C 406.214 2.26196 2.65775 0
M  V30 4251 C 407.562 2.62043 3.34094 0
M  V30 4252 O 408.586 2.25115 2.76046 0
M  V30 4253 O 407.445 3.25542 4.38958 0
M  V30 4254 H 404.539 0.463623 0.684823 0
M  V30 4255 H 407.085 1.47127 0.845674 0
M  V30 4256 H 405.857 3.21471 2.23096 0
M  V30 4257 H 405.48 1.99667 3.43829 0
M  V30 4258 N 406.477 -1.02803 1.19454 0
M  V30 4259 C 407.705 -1.79841 1.02297 0
M  V30 4260 C 408.12 -1.83879 -0.428259 0
M  V30 4261 O 407.477 -1.28345 -1.29745 0
M  V30 4262 C 407.528 -3.24852 1.58598 0
M  V30 4263 O 407.249 -3.21097 2.98041 0
M  V30 4264 C 408.75 -4.18485 1.46236 0
M  V30 4265 H 405.97 -0.565936 0.360496 0
M  V30 4266 H 408.514 -1.2948 1.58288 0
M  V30 4267 H 406.669 -3.72401 1.06753 0
M  V30 4268 H 407.083 -4.12033 3.24545 0
M  V30 4269 H 408.557 -5.18121 1.90407 0
M  V30 4270 H 409.034 -4.37254 0.41301 0
M  V30 4271 H 409.64 -3.76811 1.97215 0
M  V30 4272 N 407.956 -0.998596 -1.21925 0
M  V30 4273 C 409.204 -0.676325 -1.90448 0
M  V30 4274 C 409.525 0.794719 -1.78071 0
M  V30 4275 O 408.795 1.5701 -1.17152 0
M  V30 4276 H 407.375 -0.247165 -0.704925 0
M  V30 4277 H 410.037 -1.26633 -1.48156 0
M  V30 4278 H 409.133 -0.943858 -2.97486 0
M  V30 4279 N 409.434 1.37368 -0.772513 0
M  V30 4280 C 410.711 1.93839 -0.26188 0
M  V30 4281 C 411.091 1.7061 1.24319 0
M  V30 4282 O 410.439 1.05534 2.02669 0
M  V30 4283 C 410.649 3.43154 -0.636102 0
M  V30 4284 C 411.997 4.20249 -0.606324 0
M  V30 4285 O 413.021 3.5152 -0.575538 0
M  V30 4286 O 411.88 5.42809 -0.634086 0
M  V30 4287 H 408.974 0.82478 -0.0605555 0
M  V30 4288 H 411.52 1.4665 -0.853917 0
M  V30 4289 H 410.292 3.53647 -1.6748 0
M  V30 4290 H 409.915 3.97596 -0.0170516 0
M  V30 4291 N 410.912 0.523116 1.48665 0
M  V30 4292 C 412.137 -0.0117284 2.07397 0
M  V30 4293 C 412.562 -1.28031 1.37803 0
M  V30 4294 O 411.92 -1.75836 0.441762 0
M  V30 4295 C 411.968 -0.225786 3.59892 0
M  V30 4296 O 411.072 -1.29592 3.91509 0
M  V30 4297 H 410.413 0.0360673 0.66302 0
M  V30 4298 H 412.943 0.729066 1.9117 0
M  V30 4299 H 412.953 -0.450552 4.05505 0
M  V30 4300 H 411.628 0.700944 4.09951 0
M  V30 4301 H 410.205 -1.05436 3.57684 0
M  V30 4302 N 412.39 -1.55475 0.257931 0
M  V30 4303 C 413.638 -1.98813 -0.363009 0
M  V30 4304 C 413.959 -1.14757 -1.57657 0
M  V30 4305 O 413.229 -0.232956 -1.9451 0
M  V30 4306 H 411.809 -0.734308 -0.137113 0
M  V30 4307 H 414.471 -1.9156 0.359281 0
M  V30 4308 H 413.567 -3.04941 -0.664634 0
M  V30 4309 N 413.868 0.0150385 -1.57593 0
M  V30 4310 C 415.108 0.70768 -1.91758 0
M  V30 4311 C 415.472 1.71764 -0.857974 0
M  V30 4312 O 416.673 2.45956 -1.0844 0
M  V30 4313 C 414.944 1.34736 -3.3103 0
M  V30 4314 S 416.503 2.06721 -3.87056 0
M  V30 4315 H 413.321 0.234119 -0.671349 0
M  V30 4316 H 415.923 -0.0380373 -1.95463 0
M  V30 4317 H 414.627 0.59926 -4.06001 0
M  V30 4318 H 414.158 2.13133 -3.30663 0
M  V30 4319 H 416.173 3.34047 -3.66915 0
M  V30 4320 N 415.346 1.54954 0.287554 0
M  V30 4321 C 416.592 1.76059 1.01856 0
M  V30 4322 C 416.947 0.547056 1.84459 0
M  V30 4323 O 416.24 -0.460442 1.85985 0
M  V30 4324 C 416.434 2.99833 1.94512 0
M  V30 4325 C 416.263 4.33108 1.21026 0
M  V30 4326 C 415.033 4.96632 0.931896 0
M  V30 4327 C 417.231 5.10694 0.607949 0
M  V30 4328 N 415.213 6.13668 0.168716 0
M  V30 4329 C 416.584 6.19996 -0.0217865 0
M  V30 4330 C 418.639 4.95236 0.514338 0
M  V30 4331 C 417.342 7.15524 -0.736092 0
M  V30 4332 C 419.368 5.91106 -0.186343 0
M  V30 4333 C 418.73 6.99786 -0.804875 0
M  V30 4334 H 414.829 0.696679 0.355193 0
M  V30 4335 H 417.413 1.92441 0.295741 0
M  V30 4336 H 415.584 2.84853 2.64033 0
M  V30 4337 H 417.316 3.09405 2.60865 0
M  V30 4338 H 414.071 4.57255 1.23348 0
M  V30 4339 H 414.495 6.76705 -0.199781 0
M  V30 4340 H 419.137 4.11328 0.978234 0
M  V30 4341 H 416.855 7.98964 -1.21172 0
M  V30 4342 H 420.441 5.81224 -0.258897 0
M  V30 4343 H 419.321 7.72694 -1.33843 0
M  V30 4344 N 416.824 -0.551391 1.4764 0
M  V30 4345 C 418.235 -1.13349 1.48354 0
M  V30 4346 C 418.586 -1.94709 0.241432 0
M  V30 4347 O 417.711 -2.06306 -0.653205 0
M  V30 4348 C 418.306 -2.0623 2.68802 0
M  V30 4349 C 416.865 -2.597 2.72457 0
M  V30 4350 C 416.012 -1.36201 2.41546 0
M  V30 4351 H 418.963 -0.337698 1.55065 0
M  V30 4352 H 418.984 -2.90196 2.46103 0
M  V30 4353 H 418.496 -1.46987 3.59188 0
M  V30 4354 H 416.597 -3.22724 1.86225 0
M  V30 4355 H 416.71 -3.00296 3.73308 0
M  V30 4356 H 415.074 -1.67068 1.9225 0
M  V30 4357 H 415.857 -0.787425 3.34147 0
M  V30 4358 N 418.302 -1.35869 -0.798587 0
M  V30 4359 C 419.252 -1.25982 -1.90033 0
M  V30 4360 C 420.236 -0.153303 -1.60168 0
M  V30 4361 O 421.428 -0.38527 -1.72756 0
M  V30 4362 C 418.557 -1.04211 -3.27101 0
M  V30 4363 C 417.643 -2.19289 -3.63006 0
M  V30 4364 N 418.034 -3.44559 -3.70287 0
M  V30 4365 C 416.332 -2.10852 -3.93011 0
M  V30 4366 C 417.033 -4.20283 -4.02166 0
M  V30 4367 N 416.009 -3.49124 -4.16669 0
M  V30 4368 H 419.811 -2.20883 -1.93876 0
M  V30 4369 H 417.325 -1.28457 -0.993614 0
M  V30 4370 H 419.322 -0.952155 -4.05881 0
M  V30 4371 H 417.982 -0.102013 -3.2454 0
M  V30 4372 H 418.993 -3.7881 -3.53162 0
M  V30 4373 H 415.67 -1.24744 -3.98428 0
M  V30 4374 H 417.06 -5.28575 -4.14799 0
M  V30 4375 N 419.78 1.02168 -1.19998 0
M  V30 4376 C 421.01 1.79036 -1.031 0
M  V30 4377 C 421.418 1.84409 0.423078 0
M  V30 4378 O 420.761 1.29228 1.30559 0
M  V30 4379 C 420.823 3.25185 -1.53281 0
M  V30 4380 C 420.487 3.43431 -3.01503 0
M  V30 4381 C 421.484 3.33063 -3.99206 0
M  V30 4382 C 419.169 3.69412 -3.40353 0
M  V30 4383 C 421.163 3.48413 -5.33748 0
M  V30 4384 C 418.85 3.84406 -4.75053 0
M  V30 4385 C 419.848 3.7391 -5.71559 0
M  V30 4386 O 419.536 3.88452 -7.03818 0
M  V30 4387 H 419.268 0.570043 -0.363355 0
M  V30 4388 H 421.822 1.29524 -1.59414 0
M  V30 4389 H 420.052 3.75756 -0.913483 0
M  V30 4390 H 421.741 3.83671 -1.32481 0
M  V30 4391 H 422.507 3.12934 -3.70537 0
M  V30 4392 H 418.386 3.76671 -2.65782 0
M  V30 4393 H 421.93 3.40137 -6.09059 0
M  V30 4394 H 417.827 4.04035 -5.03415 0
M  V30 4395 H 418.595 4.055 -7.10993 0
M  V30 4396 N 421.258 1.00505 1.21394 0
M  V30 4397 C 422.483 0.706367 1.95001 0
M  V30 4398 C 422.908 -0.72463 1.73582 0
M  V30 4399 O 422.266 -1.49702 1.0227 0
M  V30 4400 C 422.314 1.03299 3.45487 0
M  V30 4401 O 421.418 0.138275 4.12168 0
M  V30 4402 H 420.759 0.263175 0.609619 0
M  V30 4403 H 423.289 1.34531 1.54151 0
M  V30 4404 H 423.299 0.979872 3.96059 0
M  V30 4405 H 421.974 2.07567 3.60401 0
M  V30 4406 H 420.551 0.247928 3.72075 0
M  V30 4407 N 422.737 -1.36956 0.779787 0
M  V30 4408 C 423.984 -1.99491 0.347766 0
M  V30 4409 C 424.312 -1.61898 -1.07793 0
M  V30 4410 O 423.567 -0.86071 -1.75756 0
M  V30 4411 C 423.866 -3.54585 0.447686 0
M  V30 4412 C 423.532 -4.1197 1.83279 0
M  V30 4413 C 422.194 -4.27356 2.2118 0
M  V30 4414 C 424.546 -4.43354 2.74019 0
M  V30 4415 C 421.874 -4.71432 3.4924 0
M  V30 4416 C 424.226 -4.88858 4.01497 0
M  V30 4417 C 422.89 -5.0245 4.39432 0
M  V30 4418 H 422.16 -0.729991 0.127257 0
M  V30 4419 H 424.807 -1.63599 0.995376 0
M  V30 4420 H 423.112 -3.90773 -0.283447 0
M  V30 4421 H 424.809 -4.00888 0.0945948 0
M  V30 4422 H 421.399 -4.00428 1.52825 0
M  V30 4423 H 425.583 -4.31045 2.45995 0
M  V30 4424 H 420.839 -4.80141 3.78516 0
M  V30 4425 H 425.013 -5.12108 4.71931 0
M  V30 4426 H 422.64 -5.36362 5.38721 0
M  V30 4427 N 424.215 -0.530993 -1.48385 0
M  V30 4428 C 425.147 0.268353 -2.27624 0
M  V30 4429 C 426.16 0.903525 -1.35426 0
M  V30 4430 O 427.349 0.781796 -1.60469 0
M  V30 4431 C 424.449 1.39535 -3.08842 0
M  V30 4432 C 423.622 0.861913 -4.28824 0
M  V30 4433 C 422.681 1.87016 -4.91845 0
M  V30 4434 O 421.707 1.4267 -5.5103 0
M  V30 4435 N 422.909 3.20238 -4.84178 0
M  V30 4436 H 425.674 -0.41123 -2.96865 0
M  V30 4437 H 423.235 -0.365387 -1.57723 0
M  V30 4438 H 425.227 2.06803 -3.47871 0
M  V30 4439 H 423.797 1.97859 -2.42014 0
M  V30 4440 H 423.017 0.0132126 -3.94198 0
M  V30 4441 H 424.305 0.484415 -5.06489 0
M  V30 4442 H 423.703 3.58932 -4.37246 0
M  V30 4443 H 422.26 3.83136 -5.27305 0
M  V30 4444 N 425.693 1.55336 -0.266172 0
M  V30 4445 C 426.623 2.25146 0.618981 0
M  V30 4446 C 427.604 1.23845 1.16604 0
M  V30 4447 O 428.789 1.52544 1.20183 0
M  V30 4448 C 425.919 2.96572 1.80728 0
M  V30 4449 C 424.873 4.04726 1.39215 0
M  V30 4450 C 424.199 4.63678 2.66283 0
M  V30 4451 C 425.499 5.19407 0.548942 0
M  V30 4452 H 427.193 2.99377 0.0368116 0
M  V30 4453 H 424.739 1.43991 0.0162651 0
M  V30 4454 H 426.692 3.44116 2.43232 0
M  V30 4455 H 425.416 2.19861 2.41514 0
M  V30 4456 H 424.075 3.57979 0.790351 0
M  V30 4457 H 423.723 3.83646 3.25308 0
M  V30 4458 H 423.423 5.367 2.39222 0
M  V30 4459 H 424.947 5.13967 3.29651 0
M  V30 4460 H 426.361 5.63059 1.07876 0
M  V30 4461 H 424.758 5.98936 0.373593 0
M  V30 4462 H 425.828 4.8295 -0.434394 0
M  V30 4463 N 427.171 -0.0066808 1.57599 0
M  V30 4464 C 428.103 -1.02827 2.04839 0
M  V30 4465 C 429.116 -1.31108 0.965113 0
M  V30 4466 O 430.305 -1.28202 1.24203 0
M  V30 4467 C 427.405 -2.36464 2.42771 0
M  V30 4468 C 426.578 -2.27219 3.73751 0
M  V30 4469 C 425.637 -3.43489 3.98625 0
M  V30 4470 O 424.663 -3.21976 4.69382 0
M  V30 4471 N 425.865 -4.66116 3.46 0
M  V30 4472 H 428.63 -0.625455 2.93101 0
M  V30 4473 H 426.191 -0.194198 1.60731 0
M  V30 4474 H 428.183 -3.13008 2.56531 0
M  V30 4475 H 426.753 -2.68512 1.60063 0
M  V30 4476 H 425.973 -1.35629 3.70133 0
M  V30 4477 H 427.261 -2.18208 4.59633 0
M  V30 4478 H 426.659 -4.86493 2.88688 0
M  V30 4479 H 425.216 -5.39949 3.65101 0
M  V30 4480 N 428.649 -1.55105 -0.279332 0
M  V30 4481 C 429.559 -1.90638 -1.36727 0
M  V30 4482 C 430.575 -0.802899 -1.54368 0
M  V30 4483 O 431.751 -1.10138 -1.68616 0
M  V30 4484 C 428.816 -2.16547 -2.70755 0
M  V30 4485 C 427.877 -3.40146 -2.61915 0
M  V30 4486 C 427.11 -3.6481 -3.8955 0
M  V30 4487 O 427.333 -2.92095 -4.89935 0
M  V30 4488 O 426.267 -4.58343 -3.90135 0
M  V30 4489 H 430.093 -2.83237 -1.09591 0
M  V30 4490 H 427.678 -1.4157 -0.477306 0
M  V30 4491 H 429.56 -2.34665 -3.50014 0
M  V30 4492 H 428.235 -1.27131 -2.9769 0
M  V30 4493 H 427.142 -3.2737 -1.81052 0
M  V30 4494 H 428.475 -4.29761 -2.3993 0
M  V30 4495 N 430.127 0.543554 -1.4793 0
M  V30 4496 C 431.074 1.64942 -1.6144 0
M  V30 4497 C 432.044 1.59692 -0.456903 0
M  V30 4498 O 433.229 1.78321 -0.678688 0
M  V30 4499 C 430.369 3.03238 -1.64744 0
M  V30 4500 C 429.482 3.18823 -2.91506 0
M  V30 4501 C 428.617 4.47599 -2.86057 0
M  V30 4502 C 427.656 4.56664 -4.07584 0
M  V30 4503 N 426.793 5.76811 -4.00292 0
M  V30 4504 H 431.633 1.52733 -2.55884 0
M  V30 4505 H 429.17 0.7438 -1.2691 0
M  V30 4506 H 431.128 3.83339 -1.64641 0
M  V30 4507 H 429.758 3.1425 -0.738017 0
M  V30 4508 H 428.81 2.32064 -3.01414 0
M  V30 4509 H 430.122 3.21384 -3.81463 0
M  V30 4510 H 429.276 5.35975 -2.84281 0
M  V30 4511 H 428.015 4.47538 -1.93807 0
M  V30 4512 H 427.02 3.66697 -4.09651 0
M  V30 4513 H 428.245 4.58474 -5.00978 0
M  V30 4514 H 426.191 5.77673 -3.10853 0
M  V30 4515 H 426.108 5.80808 -4.8394 0
M  V30 4516 H 427.376 6.67512 -4.02553 0
M  V30 4517 N 431.605 1.3629 0.791371 0
M  V30 4518 C 432.83 1.33726 1.58531 0
M  V30 4519 C 433.255 -0.0794933 1.87932 0
M  V30 4520 O 432.613 -1.05087 1.47738 0
M  V30 4521 C 432.661 2.16425 2.88431 0
M  V30 4522 O 431.765 1.5554 3.81944 0
M  V30 4523 H 431.106 0.457793 0.480959 0
M  V30 4524 H 433.636 1.79547 0.981031 0
M  V30 4525 H 433.646 2.28933 3.37718 0
M  V30 4526 H 432.321 3.19415 2.66359 0
M  V30 4527 H 430.898 1.51961 3.40532 0
M  V30 4528 N 433.083 -1.0153 1.20538 0
M  V30 4529 C 434.313 -1.78487 1.04048 0
M  V30 4530 C 434.721 -1.84631 -0.413292 0
M  V30 4531 O 434.064 -1.29919 -1.29872 0
M  V30 4532 C 434.126 -3.24367 1.55003 0
M  V30 4533 C 433.79 -3.41827 3.0332 0
M  V30 4534 C 434.787 -3.30941 4.00966 0
M  V30 4535 C 432.472 -3.67602 3.42307 0
M  V30 4536 C 434.466 -3.45577 5.35589 0
M  V30 4537 C 432.153 -3.81881 4.77085 0
M  V30 4538 C 433.151 -3.70874 5.73534 0
M  V30 4539 O 432.839 -3.84714 7.05868 0
M  V30 4540 H 432.571 -0.568108 0.366373 0
M  V30 4541 H 435.125 -1.28677 1.60098 0
M  V30 4542 H 433.355 -3.75266 0.933397 0
M  V30 4543 H 435.044 -3.82963 1.34514 0
M  V30 4544 H 435.81 -3.10964 3.72191 0
M  V30 4545 H 431.689 -3.75256 2.67776 0
M  V30 4546 H 435.233 -3.36902 6.10854 0
M  V30 4547 H 431.13 -4.01359 5.0555 0
M  V30 4548 H 431.898 -4.01724 7.13134 0
M  V30 4549 N 434.561 -1.01147 -1.20859 0
M  V30 4550 C 435.509 -0.57059 -2.25493 0
M  V30 4551 C 436.503 0.388109 -1.64894 0
M  V30 4552 O 437.709 0.258592 -1.78133 0
M  V30 4553 H 434.084 -0.166191 -0.733406 0
M  V30 4554 H 436.055 -1.46411 -2.60012 0
M  V30 4555 C 434.804 0.0805241 -3.47607 0
M  V30 4556 H 434.127 -0.648156 -3.94511 0
M  V30 4557 H 435.567 0.352197 -4.22535 0
M  V30 4558 C 434.026 1.32175 -3.09889 0
M  V30 4559 O 434.556 2.41553 -3.20959 0
M  V30 4560 N 432.762 1.20392 -2.64488 0
M  V30 4561 H 432.309 0.313905 -2.5568 0
M  V30 4562 H 432.267 2.03541 -2.39621 0
M  V30 4563 N 436.039 1.36541 -0.78704 0
M  V30 4564 C 437.286 1.99304 -0.358341 0
M  V30 4565 C 437.614 1.62467 1.06933 0
M  V30 4566 O 436.869 0.870019 1.75297 0
M  V30 4567 C 437.168 3.54343 -0.466485 0
M  V30 4568 C 436.834 4.10993 -1.85461 0
M  V30 4569 C 435.496 4.26177 -2.23443 0
M  V30 4570 C 437.848 4.41895 -2.76366 0
M  V30 4571 C 435.176 4.69573 -3.51736 0
M  V30 4572 C 437.528 4.86722 -4.04084 0
M  V30 4573 C 436.192 5.00112 -4.42091 0
M  V30 4574 H 435.462 0.729306 -0.131126 0
M  V30 4575 H 438.109 1.63068 -1.00404 0
M  V30 4576 H 436.414 3.90918 0.262719 0
M  V30 4577 H 438.111 4.00833 -0.115854 0
M  V30 4578 H 434.701 3.99612 -1.54946 0
M  V30 4579 H 438.885 4.29735 -2.48277 0
M  V30 4580 H 434.141 4.78127 -3.81057 0
M  V30 4581 H 438.315 5.09598 -4.7464 0
M  V30 4582 H 435.942 5.33498 -5.41557 0
M  V30 4583 N 437.518 0.538854 1.48102 0
M  V30 4584 C 438.934 0.19732 1.58376 0
M  V30 4585 C 439.134 -1.29971 1.5398 0
M  V30 4586 O 438.19 -2.07861 1.43352 0
M  V30 4587 C 439.503 0.807716 2.89649 0
M  V30 4588 C 441.051 0.77726 3.03196 0
M  V30 4589 C 441.526 1.36639 4.37143 0
M  V30 4590 N 443.017 1.32875 4.43732 0
M  V30 4591 C 443.752 1.7544 5.45901 0
M  V30 4592 N 443.248 2.25776 6.54979 0
M  V30 4593 N 445.041 1.66623 5.36836 0
M  V30 4594 H 437.192 1.5117 1.49202 0
M  V30 4595 H 439.455 0.629327 0.708979 0
M  V30 4596 H 439.161 1.85909 2.98548 0
M  V30 4597 H 439.035 0.289975 3.76084 0
M  V30 4598 H 441.422 -0.265374 2.93904 0
M  V30 4599 H 441.503 1.33256 2.18349 0
M  V30 4600 H 441.147 2.408 4.47189 0
M  V30 4601 H 441.077 0.786689 5.20691 0
M  V30 4602 H 443.568 0.96037 3.65493 0
M  V30 4603 H 443.881 2.56226 7.29087 0
M  V30 4604 H 442.226 2.29775 6.55918 0
M  V30 4605 H 445.417 1.27089 4.50517 0
M  V30 4606 H 445.59 2.00115 6.16326 0
M  V30 4607 N 438.996 -1.55193 0.274407 0
M  V30 4608 C 440.224 -2.03987 -0.345943 0
M  V30 4609 C 440.639 -1.15279 -1.4952 0
M  V30 4610 O 439.996 -0.172759 -1.8168 0
M  V30 4611 C 440.047 -3.51898 -0.827631 0
M  V30 4612 O 439.768 -4.37231 0.275855 0
M  V30 4613 C 441.269 -4.16577 -1.51587 0
M  V30 4614 H 438.489 -0.666335 -0.0789892 0
M  V30 4615 H 441.033 -2.00423 0.406294 0
M  V30 4616 H 439.188 -3.55909 -1.52996 0
M  V30 4617 H 439.602 -5.24415 -0.0943638 0
M  V30 4618 H 441.076 -5.21678 -1.80433 0
M  V30 4619 H 441.553 -3.64707 -2.44716 0
M  V30 4620 H 442.159 -4.16568 -0.857409 0
M  V30 4621 N 440.474 -0.00167713 -1.576 0
M  V30 4622 C 441.437 0.974046 -2.07473 0
M  V30 4623 C 442.437 1.27143 -0.984444 0
M  V30 4624 O 443.627 1.21633 -1.24703 0
M  V30 4625 C 440.759 2.29849 -2.51759 0
M  V30 4626 H 441.952 0.54262 -2.9495 0
M  V30 4627 H 439.505 0.245829 -1.54355 0
M  V30 4628 H 440.24 2.77677 -1.67529 0
M  V30 4629 H 440.025 2.09584 -3.31386 0
M  V30 4630 H 441.515 2.9984 -2.90664 0
M  V30 4631 N 441.952 1.55251 0.271103 0
M  V30 4632 C 443.18 1.79974 1.02064 0
M  V30 4633 C 443.595 0.574003 1.79863 0
M  V30 4634 O 442.952 -0.456962 1.76686 0
M  V30 4635 C 443.003 3.02603 1.97772 0
M  V30 4636 O 442.724 4.20443 1.23124 0
M  V30 4637 C 444.225 3.39944 2.84522 0
M  V30 4638 H 441.445 0.599489 0.301419 0
M  V30 4639 H 443.989 2.02268 0.301313 0
M  V30 4640 H 442.144 2.8243 2.65165 0
M  V30 4641 H 442.558 4.89783 1.87651 0
M  V30 4642 H 444.032 4.28915 3.47471 0
M  V30 4643 H 444.509 2.59432 3.54389 0
M  V30 4644 H 445.115 3.62383 2.22618 0
M  V30 4645 N 443.43 -0.535701 1.48216 0
M  V30 4646 C 444.38 -1.63688 1.58714 0
M  V30 4647 C 445.364 -1.54635 0.444615 0
M  V30 4648 O 446.556 -1.62753 0.695742 0
M  V30 4649 C 443.685 -3.02423 1.62466 0
M  V30 4650 C 442.771 -3.16601 2.82178 0
M  V30 4651 N 443.162 -3.00771 4.06658 0
M  V30 4652 C 441.46 -3.47645 2.79391 0
M  V30 4653 C 442.161 -3.18213 4.86945 0
M  V30 4654 N 441.137 -3.45528 4.19656 0
M  V30 4655 H 444.939 -1.5005 2.5271 0
M  V30 4656 H 442.453 -0.741018 1.44508 0
M  V30 4657 H 444.45 -3.81517 1.6808 0
M  V30 4658 H 443.11 -3.17157 0.695826 0
M  V30 4659 H 444.121 -2.77652 4.37184 0
M  V30 4660 H 440.798 -3.68771 1.95739 0
M  V30 4661 H 442.188 -3.1076 5.95716 0
M  V30 4662 N 444.908 -1.36708 -0.784132 0
M  V30 4663 C 446.154 -1.32433 -1.54379 0
M  V30 4664 C 446.509 0.0941816 -1.92169 0
M  V30 4665 O 445.802 1.04997 -1.60269 0
M  V30 4666 C 445.996 -2.18571 -2.82774 0
M  V30 4667 C 445.825 -3.68656 -2.57533 0
M  V30 4668 C 444.595 -4.37813 -2.52286 0
M  V30 4669 C 446.793 -4.61802 -2.2637 0
M  V30 4670 N 444.775 -5.7351 -2.18997 0
M  V30 4671 C 446.146 -5.85785 -2.03115 0
M  V30 4672 C 448.201 -4.50313 -2.12421 0
M  V30 4673 C 446.904 -6.99569 -1.67321 0
M  V30 4674 C 448.93 -5.63969 -1.78026 0
M  V30 4675 C 448.292 -6.86994 -1.55622 0
M  V30 4676 H 444.391 -0.539886 -0.565727 0
M  V30 4677 H 446.975 -1.71812 -0.915908 0
M  V30 4678 H 445.146 -1.81429 -3.43421 0
M  V30 4679 H 446.878 -2.05646 -3.48557 0
M  V30 4680 H 443.633 -3.90674 -2.67714 0
M  V30 4681 H 444.057 -6.45189 -2.05084 0
M  V30 4682 H 448.699 -3.55781 -2.28429 0
M  V30 4683 H 446.417 -7.94047 -1.5005 0
M  V30 4684 H 450.003 -5.57044 -1.67909 0
M  V30 4685 H 448.883 -7.7345 -1.294 0
M  V30 4686 N 446.386 1.0089 -1.21074 0
M  V30 4687 C 447.632 1.7497 -1.03717 0
M  V30 4688 C 447.987 1.8764 0.425344 0
M  V30 4689 O 447.28 1.39679 1.3115 0
M  V30 4690 C 447.474 3.16335 -1.66334 0
M  V30 4691 C 447.303 3.17449 -3.18522 0
M  V30 4692 C 446.073 3.2425 -3.87543 0
M  V30 4693 C 448.271 3.02877 -4.15656 0
M  V30 4694 N 446.253 3.14949 -5.26954 0
M  V30 4695 C 447.624 3.0143 -5.41793 0
M  V30 4696 C 449.679 2.8715 -4.06755 0
M  V30 4697 C 448.382 2.85869 -6.60054 0
M  V30 4698 C 450.408 2.72944 -5.24648 0
M  V30 4699 C 449.77 2.72171 -6.49694 0
M  V30 4700 H 445.869 0.650627 -0.43383 0
M  V30 4701 H 448.453 1.19944 -1.53367 0
M  V30 4702 H 446.624 3.69638 -1.19256 0
M  V30 4703 H 448.356 3.78888 -1.42219 0
M  V30 4704 H 445.111 3.31288 -3.38446 0
M  V30 4705 H 445.535 3.13651 -5.9996 0
M  V30 4706 H 450.177 2.86557 -3.10878 0
M  V30 4707 H 447.895 2.8521 -7.56096 0
M  V30 4708 H 451.481 2.61782 -5.19578 0
M  V30 4709 H 450.361 2.61307 -7.39384 0
M  V30 4710 N 447.864 1.01787 1.20321 0
M  V30 4711 C 448.774 0.598898 2.26827 0
M  V30 4712 C 449.79 -0.36418 1.70146 0
M  V30 4713 O 450.966 -0.224812 2.00141 0
M  V30 4714 C 448.031 -0.0549769 3.46656 0
M  V30 4715 C 447.092 0.954205 4.18561 0
M  V30 4716 C 446.325 0.331439 5.3267 0
M  V30 4717 O 446.548 -0.86851 5.63749 0
M  V30 4718 O 445.482 1.0488 5.92692 0
M  V30 4719 H 449.308 1.48562 2.64883 0
M  V30 4720 H 446.893 0.787434 1.26964 0
M  V30 4721 H 448.775 -0.420102 4.19301 0
M  V30 4722 H 447.45 -0.915876 3.10473 0
M  V30 4723 H 446.357 1.37072 3.48083 0
M  V30 4724 H 447.69 1.78511 4.58688 0
M  V30 4725 N 449.342 -1.36122 0.79427 0
M  V30 4726 C 450.274 -2.28683 0.153903 0
M  V30 4727 C 451.287 -1.49707 -0.639669 0
M  V30 4728 O 452.476 -1.7209 -0.474054 0
M  V30 4729 C 449.576 -3.29202 -0.804921 0
M  V30 4730 C 448.749 -4.37358 -0.060366 0
M  V30 4731 C 447.808 -5.17811 -0.935849 0
M  V30 4732 O 446.834 -5.67853 -0.391309 0
M  V30 4733 N 448.036 -5.34721 -2.25951 0
M  V30 4734 H 450.801 -2.84278 0.949008 0
M  V30 4735 H 448.362 -1.4834 0.648611 0
M  V30 4736 H 450.354 -3.79914 -1.39455 0
M  V30 4737 H 448.924 -2.74212 -1.50088 0
M  V30 4738 H 448.144 -3.87746 0.710382 0
M  V30 4739 H 449.432 -5.06777 0.45324 0
M  V30 4740 H 448.83 -4.95687 -2.72601 0
M  V30 4741 H 447.387 -5.88657 -2.79867 0
M  V30 4742 N 450.82 -0.546701 -1.47814 0
M  V30 4743 C 452.231 -0.110564 -1.86372 0
M  V30 4744 C 452.582 1.31678 -1.45449 0
M  V30 4745 O 451.707 1.98889 -0.852758 0
M  V30 4746 C 452.302 -0.193873 -3.38245 0
M  V30 4747 C 450.861 0.187164 -3.75934 0
M  V30 4748 C 450.008 -0.546166 -2.71868 0
M  V30 4749 H 452.959 -0.757022 -1.39481 0
M  V30 4750 H 452.98 0.590218 -3.75895 0
M  V30 4751 H 452.492 -1.23282 -3.67999 0
M  V30 4752 H 450.593 1.22762 -3.51796 0
M  V30 4753 H 450.706 -0.164083 -4.78819 0
M  V30 4754 H 449.07 0.00953904 -2.54698 0
M  V30 4755 H 449.853 -1.58606 -3.04465 0
M  V30 4756 N 452.299 1.55045 -0.282633 0
M  V30 4757 C 453.547 1.99365 0.331334 0
M  V30 4758 C 453.868 1.1725 1.55812 0
M  V30 4759 O 453.138 0.263871 1.94115 0
M  V30 4760 H 451.718 0.736397 0.125414 0
M  V30 4761 H 454.38 1.90964 -0.389711 0
M  V30 4762 H 453.476 3.0596 0.616036 0
M  V30 4763 N 453.777 0.010035 1.57597 0
M  V30 4764 C 455.023 -0.673697 1.91283 0
M  V30 4765 C 455.356 -1.72863 0.884979 0
M  V30 4766 O 454.631 -1.94268 -0.0949487 0
M  V30 4767 C 454.914 -1.30766 3.35518 0
M  V30 4768 C 454.767 -0.263578 4.49027 0
M  V30 4769 C 456.086 -2.23105 3.79358 0
M  V30 4770 H 453.205 -0.243439 0.695634 0
M  V30 4771 H 455.847 0.0633864 1.89894 0
M  V30 4772 H 453.997 -1.93588 3.36832 0
M  V30 4773 H 455.669 0.365738 4.59848 0
M  V30 4774 H 453.912 0.413077 4.31829 0
M  V30 4775 H 454.583 -0.746398 5.4693 0
M  V30 4776 H 457.059 -1.70289 3.79659 0
M  V30 4777 H 455.935 -2.64424 4.81011 0
M  V30 4778 H 456.196 -3.11433 3.13787 0
M  V30 4779 N 455.255 -1.55392 -0.262866 0
M  V30 4780 C 456.165 -1.92077 -1.34698 0
M  V30 4781 C 457.181 -0.819227 -1.53508 0
M  V30 4782 O 458.357 -1.11921 -1.67439 0
M  V30 4783 C 455.422 -2.19407 -2.68443 0
M  V30 4784 C 454.483 -3.42905 -2.58292 0
M  V30 4785 C 453.716 -3.68921 -3.85659 0
M  V30 4786 O 453.939 -2.97275 -4.8681 0
M  V30 4787 O 452.873 -4.62455 -3.85252 0
M  V30 4788 H 456.699 -2.84384 -1.06581 0
M  V30 4789 H 454.284 -1.42069 -0.462264 0
M  V30 4790 H 456.166 -2.38365 -3.47506 0
M  V30 4791 H 454.841 -1.30282 -2.96325 0
M  V30 4792 H 453.748 -3.29272 -1.7757 0
M  V30 4793 H 455.081 -4.32282 -2.35358 0
M  V30 4794 N 456.733 0.527833 -1.48498 0
M  V30 4795 C 457.696 1.61439 -1.62696 0
M  V30 4796 C 458.696 1.52824 -0.500136 0
M  V30 4797 O 459.886 1.56456 -0.765976 0
M  V30 4798 C 457.018 3.01063 -1.59918 0
M  V30 4799 H 458.211 1.50189 -2.59583 0
M  V30 4800 H 455.764 0.750055 -1.37127 0
M  V30 4801 H 456.499 3.17818 -0.645163 0
M  V30 4802 H 456.284 3.08725 -2.41726 0
M  V30 4803 H 457.774 3.80057 -1.73051 0
M  V30 4804 N 458.211 1.37122 0.776871 0
M  V30 4805 C 459.627 1.1781 1.07671 0
M  V30 4806 C 459.827 0.0107454 2.01497 0
M  V30 4807 O 458.883 -0.650756 2.4397 0
M  V30 4808 C 460.196 2.49451 1.67913 0
M  V30 4809 C 461.744 2.55927 1.80195 0
M  V30 4810 C 462.219 3.87686 2.43851 0
M  V30 4811 N 463.71 3.891 2.51307 0
M  V30 4812 C 464.445 4.87797 3.014 0
M  V30 4813 N 463.941 5.96888 3.51705 0
M  V30 4814 N 465.734 4.75205 3.00227 0
M  V30 4815 H 457.885 2.11843 0.153778 0
M  V30 4816 H 460.148 0.938927 0.130844 0
M  V30 4817 H 459.854 3.35207 1.06439 0
M  V30 4818 H 459.728 2.66169 2.67271 0
M  V30 4819 H 462.115 1.70582 2.40803 0
M  V30 4820 H 462.196 2.43097 0.796069 0
M  V30 4821 H 461.84 4.73444 1.83884 0
M  V30 4822 H 461.77 3.97817 3.45035 0
M  V30 4823 H 464.261 3.10293 2.157 0
M  V30 4824 H 464.574 6.68155 3.88316 0
M  V30 4825 H 462.919 6.0054 3.49824 0
M  V30 4826 H 466.11 3.89103 2.60224 0
M  V30 4827 H 466.283 5.52279 3.38957 0
M  V30 4828 N 459.689 -1.00246 1.21608 0
M  V30 4829 C 460.917 -1.77631 1.06089 0
M  V30 4830 C 461.332 -1.84746 -0.38916 0
M  V30 4831 O 460.689 -1.31068 -1.26994 0
M  V30 4832 C 460.74 -3.21415 1.65453 0
M  V30 4833 O 460.461 -3.14703 3.04785 0
M  V30 4834 C 461.962 -4.15289 1.55079 0
M  V30 4835 H 459.182 -0.558162 0.37242 0
M  V30 4836 H 461.726 -1.26093 1.60999 0
M  V30 4837 H 459.881 -3.70053 1.14629 0
M  V30 4838 H 460.295 -4.05056 3.33212 0
M  V30 4839 H 461.769 -5.13965 2.01355 0
M  V30 4840 H 462.246 -4.36279 0.505665 0
M  V30 4841 H 462.852 -3.72543 2.05163 0
M  V30 4842 N 461.167 -1.02423 -1.1978 0
M  V30 4843 C 462.097 -0.62157 -2.25075 0
M  V30 4844 C 463.078 0.367148 -1.6609 0
M  V30 4845 O 464.263 0.250892 -1.92573 0
M  V30 4846 C 461.393 0.0331826 -3.47284 0
M  V30 4847 C 460.347 -0.877323 -4.18912 0
M  V30 4848 C 459.673 -0.0879296 -5.34628 0
M  V30 4849 C 460.973 -2.18892 -4.74219 0
M  V30 4850 H 462.667 -1.50179 -2.59011 0
M  V30 4851 H 460.213 -0.723547 -1.24502 0
M  V30 4852 H 462.166 0.326488 -4.20133 0
M  V30 4853 H 460.89 0.948164 -3.12534 0
M  V30 4854 H 459.549 -1.15475 -3.47938 0
M  V30 4855 H 459.197 0.828941 -4.96123 0
M  V30 4856 H 458.897 -0.694359 -5.83483 0
M  V30 4857 H 460.421 0.198743 -6.10276 0
M  V30 4858 H 461.835 -1.95746 -5.38847 0
M  V30 4859 H 460.232 -2.74686 -5.33542 0
M  V30 4860 H 461.302 -2.84674 -3.92541 0
M  V30 4861 N 462.645 1.35699 -0.801477 0
M  V30 4862 C 463.575 2.32436 -0.222658 0
M  V30 4863 C 464.556 1.5723 0.649057 0
M  V30 4864 O 465.741 1.85324 0.580387 0
M  V30 4865 C 462.871 3.41469 0.633719 0
M  V30 4866 C 461.825 4.27774 -0.139083 0
M  V30 4867 C 461.151 5.28082 0.838666 0
M  V30 4868 C 462.451 5.04946 -1.33517 0
M  V30 4869 H 464.145 2.81094 -1.03086 0
M  V30 4870 H 461.691 1.35146 -0.497155 0
M  V30 4871 H 463.644 4.08143 1.04868 0
M  V30 4872 H 462.368 2.91408 1.47475 0
M  V30 4873 H 461.027 3.62673 -0.535156 0
M  V30 4874 H 460.675 4.7429 1.67506 0
M  V30 4875 H 460.375 5.86695 0.32594 0
M  V30 4876 H 461.899 5.97628 1.25194 0
M  V30 4877 H 463.313 5.64593 -0.995349 0
M  V30 4878 H 461.71 5.7303 -1.78202 0
M  V30 4879 H 462.78 4.35886 -2.12442 0
M  V30 4880 N 464.123 0.554532 1.47522 0
M  V30 4881 C 465.07 -0.19466 2.29978 0
M  V30 4882 C 466.04 -0.910882 1.38896 0
M  V30 4883 O 467.225 -0.907102 1.67858 0
M  V30 4884 C 464.365 -1.22035 3.22802 0
M  V30 4885 C 463.478 -0.510474 4.28973 0
M  V30 4886 C 462.613 -1.52123 5.08952 0
M  V30 4887 C 461.652 -0.796173 6.069 0
M  V30 4888 N 460.789 -1.75363 6.79847 0
M  V30 4889 H 465.629 0.51461 2.93523 0
M  V30 4890 H 463.166 0.265607 1.44682 0
M  V30 4891 H 465.124 -1.8276 3.7504 0
M  V30 4892 H 463.754 -1.89769 2.61127 0
M  V30 4893 H 462.806 0.211234 3.79813 0
M  V30 4894 H 464.118 0.0576503 4.98767 0
M  V30 4895 H 463.272 -2.20207 5.65326 0
M  V30 4896 H 462.011 -2.12327 4.39054 0
M  V30 4897 H 461.016 -0.101388 5.49707 0
M  V30 4898 H 462.241 -0.199911 6.78806 0
M  V30 4899 H 460.187 -2.3443 6.12682 0
M  V30 4900 H 460.104 -1.23759 7.45801 0
M  V30 4901 H 461.372 -2.4257 7.40797 0
M  V30 4902 N 465.601 -1.54893 0.290851 0
M  V30 4903 C 466.531 -2.26103 -0.583084 0
M  V30 4904 C 467.512 -1.25684 -1.14619 0
M  V30 4905 O 468.697 -1.54436 -1.17741 0
M  V30 4906 C 465.827 -2.99409 -1.75987 0
M  V30 4907 C 464.781 -4.0689 -1.32758 0
M  V30 4908 C 464.107 -4.67856 -2.58872 0
M  V30 4909 C 465.407 -5.20215 -0.46624 0
M  V30 4910 H 467.101 -2.99398 0.0108214 0
M  V30 4911 H 464.647 -1.43998 0.00664468 0
M  V30 4912 H 466.6 -3.47943 -2.37727 0
M  V30 4913 H 465.324 -2.23675 -2.37985 0
M  V30 4914 H 463.983 -3.59191 -0.733299 0
M  V30 4915 H 463.631 -3.88772 -3.19163 0
M  V30 4916 H 463.331 -5.40438 -2.30653 0
M  V30 4917 H 464.855 -5.19147 -3.21433 0
M  V30 4918 H 466.269 -5.64704 -0.989047 0
M  V30 4919 H 464.666 -5.99455 -0.27826 0
M  V30 4920 H 465.736 -4.82198 0.511173 0
M  V30 4921 N 467.08 -0.0183926 -1.57589 0
M  V30 4922 C 468.31 0.67207 -1.95363 0
M  V30 4923 C 468.718 1.66807 -0.892872 0
M  V30 4924 O 468.061 1.83204 0.134958 0
M  V30 4925 C 468.123 1.44397 -3.29226 0
M  V30 4926 C 467.787 0.607511 -4.52944 0
M  V30 4927 C 468.784 -0.112657 -5.19778 0
M  V30 4928 C 466.469 0.548068 -4.99301 0
M  V30 4929 C 468.463 -0.881057 -6.31281 0
M  V30 4930 C 466.15 -0.224044 -6.10689 0
M  V30 4931 C 467.148 -0.937323 -6.76538 0
M  V30 4932 O 466.836 -1.6968 -7.85789 0
M  V30 4933 H 466.568 0.190925 -0.648478 0
M  V30 4934 H 469.122 -0.0711994 -2.05277 0
M  V30 4935 H 467.352 2.23214 -3.15773 0
M  V30 4936 H 469.041 2.02152 -3.51979 0
M  V30 4937 H 469.807 -0.0759998 -4.8494 0
M  V30 4938 H 465.686 1.09281 -4.4786 0
M  V30 4939 H 469.23 -1.43832 -6.82611 0
M  V30 4940 H 465.127 -0.262457 -6.44966 0
M  V30 4941 H 465.895 -1.61544 -8.024 0
M  V30 4942 N 468.558 1.5553 0.254621 0
M  V30 4943 C 469.806 1.7665 0.981793 0
M  V30 4944 C 470.127 0.580963 1.86145 0
M  V30 4945 O 469.397 -0.403537 1.91699 0
M  V30 4946 H 467.977 0.651475 0.365498 0
M  V30 4947 H 470.639 1.92958 0.274426 0
M  V30 4948 H 469.735 2.67486 1.60802 0
M  V30 4949 N 470.036 -0.519951 1.48776 0
M  V30 4950 C 471.285 -1.27175 1.56555 0
M  V30 4951 C 471.598 -1.9401 0.248869 0
M  V30 4952 O 472.804 -2.70725 0.205004 0
M  V30 4953 C 471.26 -2.30811 2.76142 0
M  V30 4954 C 470.868 -1.7 4.14493 0
M  V30 4955 C 472.612 -3.06937 2.9324 0
M  V30 4956 C 470.519 -2.71635 5.25327 0
M  V30 4957 H 469.449 -0.478329 0.582853 0
M  V30 4958 H 472.1 -0.547916 1.75129 0
M  V30 4959 H 470.482 -3.06274 2.51023 0
M  V30 4960 H 471.656 -1.00658 4.49672 0
M  V30 4961 H 469.971 -1.06331 4.02595 0
M  V30 4962 H 472.568 -3.82905 3.73213 0
M  V30 4963 H 472.911 -3.63409 2.03075 0
M  V30 4964 H 473.444 -2.38589 3.18308 0
M  V30 4965 H 470.183 -2.1997 6.1749 0
M  V30 4966 H 469.703 -3.39275 4.94624 0
M  V30 4967 H 471.382 -3.34429 5.53865 0
M  V30 4968 N 471.514 -1.37532 -0.769588 0
M  V30 4969 C 472.93 -1.18379 -1.07045 0
M  V30 4970 C 473.13 -0.0214312 -2.01489 0
M  V30 4971 O 472.186 0.637809 -2.44312 0
M  V30 4972 C 473.499 -2.50338 -1.66588 0
M  V30 4973 C 475.047 -2.56879 -1.78835 0
M  V30 4974 C 475.522 -3.88974 -2.41792 0
M  V30 4975 N 477.013 -3.90428 -2.4924 0
M  V30 4976 C 477.748 -4.89388 -2.98809 0
M  V30 4977 N 477.244 -5.98745 -3.48535 0
M  V30 4978 N 479.037 -4.76791 -2.97703 0
M  V30 4979 H 471.188 -2.11921 -0.142541 0
M  V30 4980 H 473.451 -0.939608 -0.125863 0
M  V30 4981 H 473.157 -3.35767 -1.0466 0
M  V30 4982 H 473.031 -2.67583 -2.65856 0
M  V30 4983 H 475.418 -1.71856 -2.39895 0
M  V30 4984 H 475.499 -2.43516 -0.783166 0
M  V30 4985 H 475.143 -4.74412 -1.81371 0
M  V30 4986 H 475.073 -3.99641 -3.4292 0
M  V30 4987 H 477.564 -3.11433 -2.14052 0
M  V30 4988 H 477.877 -6.70205 -3.84767 0
M  V30 4989 H 476.222 -6.02387 -3.46634 0
M  V30 4990 H 479.413 -3.90478 -2.58157 0
M  V30 4991 H 479.586 -5.54069 -3.36024 0
M  V30 4992 N 472.992 0.995999 -1.22138 0
M  V30 4993 C 474.239 1.7351 -1.04406 0
M  V30 4994 C 474.567 1.89884 0.421244 0
M  V30 4995 O 473.822 1.43683 1.32867 0
M  V30 4996 C 474.121 3.14553 -1.6968 0
M  V30 4997 C 473.787 3.18102 -3.19565 0
M  V30 4998 C 472.449 3.18778 -3.60464 0
M  V30 4999 C 474.801 3.14636 -4.15516 0
M  V30 5000 C 472.129 3.13684 -4.95801 0
M  V30 5001 C 474.481 3.11084 -5.50826 0
M  V30 5002 C 473.145 3.10074 -5.91109 0
M  V30 5003 H 472.415 0.634916 -0.38205 0
M  V30 5004 H 475.062 1.1667 -1.51857 0
M  V30 5005 H 473.367 3.74682 -1.14546 0
M  V30 5006 H 475.064 3.70477 -1.53454 0
M  V30 5007 H 471.654 3.18324 -2.86998 0
M  V30 5008 H 475.838 3.13266 -3.84939 0
M  V30 5009 H 471.094 3.11245 -5.26247 0
M  V30 5010 H 475.268 3.07357 -6.24904 0
M  V30 5011 H 472.895 3.05882 -6.95946 0
M  V30 5012 N 474.47 1.03057 1.19235 0
M  V30 5013 C 475.747 0.642608 1.84743 0
M  V30 5014 C 476.127 -0.878577 1.91948 0
M  V30 5015 O 475.475 -1.77597 1.43776 0
M  V30 5016 C 475.685 1.30665 3.23616 0
M  V30 5017 C 477.033 1.43098 3.9976 0
M  V30 5018 O 478.057 1.26396 3.3302 0
M  V30 5019 O 476.916 1.70223 5.19313 0
M  V30 5020 H 474.01 0.223573 0.796206 0
M  V30 5021 H 476.556 1.12883 1.26711 0
M  V30 5022 H 475.328 2.34544 3.13217 0
M  V30 5023 H 474.951 0.808405 3.89295 0
M  V30 5024 N 475.948 -1.35272 0.808662 0
M  V30 5025 C 477.197 -1.97963 0.386483 0
M  V30 5026 C 477.51 -1.64866 -1.05255 0
M  V30 5027 O 478.716 -2.20937 -1.57794 0
M  V30 5028 C 477.172 -3.54162 0.640096 0
M  V30 5029 C 476.78 -3.96166 2.0918 0
M  V30 5030 C 478.524 -4.23553 0.283376 0
M  V30 5031 C 476.431 -5.4522 2.29106 0
M  V30 5032 H 475.361 -0.740742 0.140774 0
M  V30 5033 H 478.012 -1.5431 0.993012 0
M  V30 5034 H 476.394 -3.95983 -0.0364117 0
M  V30 5035 H 477.568 -3.65491 2.80629 0
M  V30 5036 H 475.883 -3.3967 2.40859 0
M  V30 5037 H 478.48 -5.33124 0.410273 0
M  V30 5038 H 478.823 -4.09105 -0.770659 0
M  V30 5039 H 479.356 -3.8716 0.913884 0
M  V30 5040 H 476.095 -5.64638 3.32962 0
M  V30 5041 H 475.615 -5.77457 1.62184 0
M  V30 5042 H 477.294 -6.1171 2.1076 0
M  V30 5043 N 477.426 -0.562348 -1.47226 0
M  V30 5044 C 478.356 0.170627 -2.32876 0
M  V30 5045 C 479.337 0.903748 -1.44106 0
M  V30 5046 O 480.522 0.883206 -1.72954 0
M  V30 5047 C 477.652 1.19786 -3.25989 0
M  V30 5048 C 476.606 0.580875 -4.2404 0
M  V30 5049 C 475.932 1.71311 -5.06514 0
M  V30 5050 C 477.232 -0.468714 -5.20193 0
M  V30 5051 H 478.926 -0.544441 -2.94408 0
M  V30 5052 H 476.472 -0.263271 -1.41573 0
M  V30 5053 H 478.425 1.71884 -3.84752 0
M  V30 5054 H 477.149 1.94294 -2.62521 0
M  V30 5055 H 475.808 0.0811538 -3.6651 0
M  V30 5056 H 475.456 2.44736 -4.39447 0
M  V30 5057 H 475.156 1.30604 -5.72902 0
M  V30 5058 H 476.68 2.23725 -5.68137 0
M  V30 5059 H 478.094 -0.0336028 -5.7329 0
M  V30 5060 H 476.491 -0.794957 -5.94811 0
M  V30 5061 H 477.561 -1.36269 -4.65359 0
M  V30 5062 N 478.904 1.54736 -0.299062 0
M  V30 5063 C 480.15 2.00397 0.311244 0
M  V30 5064 C 480.483 1.18716 1.53688 0
M  V30 5065 O 479.758 0.263154 1.92712 0
M  V30 5066 C 480.041 3.53817 0.669761 0
M  V30 5067 C 479.894 4.46239 -0.564882 0
M  V30 5068 C 481.213 4.13856 1.49702 0
M  V30 5069 H 478.332 0.728493 0.111653 0
M  V30 5070 H 480.974 1.85506 -0.410774 0
M  V30 5071 H 479.124 3.66637 1.28491 0
M  V30 5072 H 480.796 4.45328 -1.20337 0
M  V30 5073 H 479.039 4.16916 -1.19849 0
M  V30 5074 H 479.71 5.5134 -0.269918 0
M  V30 5075 H 482.186 4.04461 0.977284 0
M  V30 5076 H 481.062 5.21365 1.71666 0
M  V30 5077 H 481.323 3.65608 2.48563 0
M  V30 5078 N 480.382 0.0267497 1.57577 0
M  V30 5079 C 481.61 -0.662661 1.96001 0
M  V30 5080 C 482.025 -1.65799 0.903117 0
M  V30 5081 O 481.382 -1.82135 -0.115317 0
M  V30 5082 C 481.433 -1.37112 3.34488 0
M  V30 5083 O 481.154 -0.415683 4.36123 0
M  V30 5084 C 482.655 -2.15257 3.8753 0
M  V30 5085 H 479.875 -0.18287 0.6456 0
M  V30 5086 H 482.419 0.0858116 2.0432 0
M  V30 5087 H 480.574 -2.07101 3.27395 0
M  V30 5088 H 480.988 -0.918496 5.16395 0
M  V30 5089 H 482.462 -2.60285 4.86781 0
M  V30 5090 H 482.939 -2.99063 3.21649 0
M  V30 5091 H 483.545 -1.50231 3.97883 0
M  V30 5092 N 481.861 -1.55662 -0.24637 0
M  V30 5093 C 483.109 -1.77168 -0.972411 0
M  V30 5094 C 483.43 -0.590827 -1.85834 0
M  V30 5095 O 482.7 0.393365 -1.9191 0
M  V30 5096 H 481.28 -0.653405 -0.362038 0
M  V30 5097 H 483.942 -1.93101 -0.264189 0
M  V30 5098 H 483.038 -2.68335 -1.59382 0
M  V30 5099 N 483.339 0.512053 -1.4905 0
M  V30 5100 C 484.271 1.63121 -1.6101 0
M  V30 5101 C 485.284 1.55145 -0.493352 0
M  V30 5102 O 486.473 1.61278 -0.764955 0
M  V30 5103 C 483.573 3.01863 -1.54052 0
M  V30 5104 C 482.746 3.35138 -2.81072 0
M  V30 5105 C 481.805 4.5324 -2.67319 0
M  V30 5106 O 480.831 4.55571 -3.41238 0
M  V30 5107 N 482.033 5.52495 -1.78127 0
M  V30 5108 H 484.798 1.53292 -2.5753 0
M  V30 5109 H 482.359 0.699706 -1.45999 0
M  V30 5110 H 484.351 3.78774 -1.42521 0
M  V30 5111 H 482.921 3.05675 -0.654345 0
M  V30 5112 H 482.141 2.4723 -3.07036 0
M  V30 5113 H 483.429 3.54162 -3.65304 0
M  V30 5114 H 482.827 5.53403 -1.17308 0
M  V30 5115 H 481.384 6.28553 -1.72525 0
M  V30 5116 N 484.817 1.37938 0.762283 0
M  V30 5117 C 485.78 1.34279 1.85747 0
M  V30 5118 C 486.78 0.244969 1.58923 0
M  V30 5119 O 487.97 0.501365 1.66829 0
M  V30 5120 C 485.102 1.08833 3.23061 0
M  V30 5121 H 486.295 2.31705 1.90401 0
M  V30 5122 H 483.848 1.23105 0.963057 0
M  V30 5123 H 484.583 0.119767 3.24079 0
M  V30 5124 H 484.368 1.88306 3.43923 0
M  V30 5125 H 485.858 1.08946 4.03138 0
M  V30 5126 N 486.295 -0.989507 1.22664 0
M  V30 5127 C 487.543 -1.72612 1.05117 0
M  V30 5128 C 487.864 -1.90552 -0.414131 0
M  V30 5129 O 487.134 -1.4676 -1.29762 0
M  V30 5130 H 485.714 -0.639555 0.385977 0
M  V30 5131 H 488.376 -1.19158 1.54232 0
M  V30 5132 H 487.472 -2.71926 1.53175 0
M  V30 5133 N 487.773 -1.03688 -1.18687 0
M  V30 5134 C 488.72 -0.624624 -2.22187 0
M  V30 5135 C 489.69 0.365636 -1.62026 0
M  V30 5136 O 490.875 0.260481 -1.89014 0
M  V30 5137 C 488.015 0.0101738 -3.45099 0
M  V30 5138 C 487.128 -1.02709 -4.19613 0
M  V30 5139 C 486.263 -0.361213 -5.2997 0
M  V30 5140 C 485.302 -1.38384 -5.96252 0
M  V30 5141 N 484.439 -0.743196 -6.98155 0
M  V30 5142 H 489.279 -1.51176 -2.56807 0
M  V30 5143 H 486.816 -0.75636 -1.26165 0
M  V30 5144 H 488.774 0.395528 -4.15321 0
M  V30 5145 H 487.404 0.860848 -3.1111 0
M  V30 5146 H 486.456 -1.53043 -3.48256 0
M  V30 5147 H 487.768 -1.80398 -4.65036 0
M  V30 5148 H 486.922 0.0785537 -6.06649 0
M  V30 5149 H 485.661 0.447799 -4.8564 0
M  V30 5150 H 484.666 -1.83378 -5.18317 0
M  V30 5151 H 485.891 -2.19448 -6.42666 0
M  V30 5152 H 483.837 0.0455789 -6.55984 0
M  V30 5153 H 483.754 -1.45784 -7.41811 0
M  V30 5154 H 485.022 -0.327698 -7.78811 0
M  V30 5155 N 489.251 1.34841 -0.815825 0
M  V30 5156 C 490.498 1.98499 -0.400535 0
M  V30 5157 C 490.826 1.64699 1.03463 0
M  V30 5158 O 490.081 0.907006 1.73412 0
M  V30 5159 C 490.38 3.53273 -0.541541 0
M  V30 5160 C 490.046 4.06966 -1.94138 0
M  V30 5161 C 488.708 4.21341 -2.32433 0
M  V30 5162 C 491.06 4.35933 -2.85677 0
M  V30 5163 C 488.388 4.62007 -3.61617 0
M  V30 5164 C 490.74 4.78042 -4.14317 0
M  V30 5165 C 489.404 4.90622 -4.52599 0
M  V30 5166 H 488.674 0.72636 -0.146566 0
M  V30 5167 H 491.321 1.60902 -1.0384 0
M  V30 5168 H 489.626 3.91387 0.179741 0
M  V30 5169 H 491.323 4.00497 -0.20085 0
M  V30 5170 H 487.913 3.96235 -1.63388 0
M  V30 5171 H 492.097 4.24372 -2.57337 0
M  V30 5172 H 487.353 4.69937 -3.91113 0
M  V30 5173 H 491.527 4.99415 -4.85342 0
M  V30 5174 H 489.154 5.2189 -5.52752 0
M  V30 5175 N 490.729 0.570148 1.46925 0
M  V30 5176 C 491.977 0.0508523 2.02036 0
M  V30 5177 C 492.298 -1.30885 1.44548 0
M  V30 5178 O 491.568 -1.85647 0.625453 0
M  V30 5179 H 490.148 0.0158088 0.746833 0
M  V30 5180 H 492.81 0.743086 1.80178 0
M  V30 5181 H 491.906 -0.027575 3.12088 0
M  V30 5182 N 492.207 -1.54576 0.307264 0
M  V30 5183 C 493.137 -2.26708 -0.55907 0
M  V30 5184 C 494.118 -1.26893 -1.1328 0
M  V30 5185 O 495.303 -1.55677 -1.16097 0
M  V30 5186 C 492.433 -3.01259 -1.72801 0
M  V30 5187 C 491.387 -4.08275 -1.28435 0
M  V30 5188 C 490.713 -4.70575 -2.53895 0
M  V30 5189 C 492.013 -5.2068 -0.411038 0
M  V30 5190 H 493.707 -2.9937 0.042576 0
M  V30 5191 H 491.253 -1.43983 0.0219173 0
M  V30 5192 H 493.206 -3.50444 -2.34023 0
M  V30 5193 H 491.93 -2.26187 -2.356 0
M  V30 5194 H 490.589 -3.59949 -0.695161 0
M  V30 5195 H 490.237 -3.92136 -3.15021 0
M  V30 5196 H 489.937 -5.42854 -2.24908 0
M  V30 5197 H 491.461 -5.22527 -3.15908 0
M  V30 5198 H 492.875 -5.65721 -0.929097 0
M  V30 5199 H 491.272 -5.99716 -0.214664 0
M  V30 5200 H 492.342 -4.81629 0.562287 0
M  V30 5201 N 493.685 -0.035106 -1.57561 0
M  V30 5202 C 494.934 0.641604 -1.91223 0
M  V30 5203 C 495.247 1.72944 -0.913761 0
M  V30 5204 O 496.453 2.46321 -1.14185 0
M  V30 5205 C 494.909 1.19249 -3.3957 0
M  V30 5206 C 494.517 0.137616 -4.47789 0
M  V30 5207 C 496.261 1.84537 -3.82291 0
M  V30 5208 C 494.168 0.700478 -5.87237 0
M  V30 5209 H 493.098 0.243417 -0.713627 0
M  V30 5210 H 495.749 -0.101382 -1.8322 0
M  V30 5211 H 494.131 1.98728 -3.42525 0
M  V30 5212 H 495.305 -0.635153 -4.56402 0
M  V30 5213 H 493.62 -0.416855 -4.14308 0
M  V30 5214 H 496.217 2.27616 -4.83834 0
M  V30 5215 H 496.56 2.69054 -3.17672 0
M  V30 5216 H 497.093 1.11739 -3.81784 0
M  V30 5217 H 493.832 -0.106693 -6.55413 0
M  V30 5218 H 493.352 1.4416 -5.82218 0
M  V30 5219 H 495.031 1.18837 -6.35993 0
M  V30 5220 N 495.163 1.55791 0.238111 0
M  V30 5221 C 496.574 1.68383 0.806472 0
M  V30 5222 C 496.925 0.634157 1.85669 0
M  V30 5223 O 496.05 -0.217913 2.153 0
M  V30 5224 C 496.645 3.05268 1.46959 0
M  V30 5225 C 495.204 3.1977 1.98555 0
M  V30 5226 C 494.351 2.64279 0.839763 0
M  V30 5227 H 497.302 1.58694 0.0137535 0
M  V30 5228 H 497.323 3.00203 2.33792 0
M  V30 5229 H 496.835 3.81643 0.704993 0
M  V30 5230 H 494.936 2.48234 2.77868 0
M  V30 5231 H 495.049 4.26788 2.17689 0
M  V30 5232 H 493.413 2.22329 1.24265 0
M  V30 5233 H 494.196 3.43187 0.0881032 0
M  V30 5234 N 496.642 -0.504142 1.49319 0
M  V30 5235 C 497.87 -1.28256 1.62351 0
M  V30 5236 C 498.285 -1.86502 0.293682 0
M  V30 5237 O 497.642 -1.67678 -0.720449 0
M  V30 5238 C 497.693 -2.41507 2.68992 0
M  V30 5239 O 497.414 -1.85656 3.96817 0
M  V30 5240 C 498.915 -3.32929 2.927 0
M  V30 5241 H 496.135 -0.389115 0.546654 0
M  V30 5242 H 498.679 -0.605531 1.95329 0
M  V30 5243 H 496.834 -3.05046 2.38801 0
M  V30 5244 H 497.248 -2.59981 4.55533 0
M  V30 5245 H 498.722 -4.0868 3.71058 0
M  V30 5246 H 499.199 -3.89733 2.02496 0
M  V30 5247 H 499.805 -2.75158 3.24296 0
M  V30 5248 N 498.12 -1.38341 -0.754957 0
M  V30 5249 C 499.083 -1.35262 -1.85032 0
M  V30 5250 C 500.083 -0.253393 -1.58791 0
M  V30 5251 O 501.273 -0.510205 -1.66561 0
M  V30 5252 C 498.405 -1.10544 -3.22479 0
M  V30 5253 H 499.598 -2.32712 -1.8917 0
M  V30 5254 H 497.151 -1.23614 -0.956515 0
M  V30 5255 H 497.886 -0.136952 -3.24011 0
M  V30 5256 H 497.671 -1.90127 -3.4292 0
M  V30 5257 H 499.161 -1.11082 -4.02555 0
M  V30 5258 N 499.598 0.982988 -1.23187 0
M  V30 5259 C 500.844 1.72648 -1.06398 0
M  V30 5260 C 501.177 1.90066 0.398561 0
M  V30 5261 O 500.452 1.45105 1.29518 0
M  V30 5262 C 500.735 3.12627 -1.78707 0
M  V30 5263 C 500.588 3.02795 -3.32618 0
M  V30 5264 C 501.907 4.11997 -1.54747 0
M  V30 5265 H 499.026 0.626649 -0.387918 0
M  V30 5266 H 501.668 1.14455 -1.51658 0
M  V30 5267 H 499.818 3.62308 -1.40234 0
M  V30 5268 H 501.49 2.60659 -3.80598 0
M  V30 5269 H 499.733 2.39362 -3.61785 0
M  V30 5270 H 500.404 4.01893 -3.78399 0
M  V30 5271 H 502.88 3.71114 -1.88186 0
M  V30 5272 H 501.756 5.08037 -2.07821 0
M  V30 5273 H 502.017 4.39462 -0.482249 0
M  V30 5274 N 501.076 1.04316 1.18135 0
M  V30 5275 C 502.304 0.768117 1.92113 0
M  V30 5276 C 502.719 -0.675057 1.76319 0
M  V30 5277 O 502.076 -1.46038 1.09449 0
M  V30 5278 C 502.127 1.12808 3.43448 0
M  V30 5279 O 501.848 2.5146 3.58747 0
M  V30 5280 C 503.349 0.8779 4.3452 0
M  V30 5281 H 500.569 0.279937 0.609817 0
M  V30 5282 H 503.113 1.39149 1.49859 0
M  V30 5283 H 501.268 0.549623 3.83481 0
M  V30 5284 H 501.682 2.65313 4.52448 0
M  V30 5285 H 503.156 1.17959 5.39249 0
M  V30 5286 H 503.633 -0.187239 4.38801 0
M  V30 5287 H 504.239 1.43977 4.00188 0
M  V30 5288 N 502.554 -1.34406 0.822964 0
M  V30 5289 C 503.484 -2.32052 0.259608 0
M  V30 5290 C 504.465 -1.58243 -0.623961 0
M  V30 5291 O 505.65 -1.86224 -0.55083 0
M  V30 5292 C 502.78 -3.42434 -0.579314 0
M  V30 5293 C 501.734 -4.27499 0.20712 0
M  V30 5294 C 501.06 -5.29349 -0.754547 0
M  V30 5295 C 502.36 -5.02758 1.41533 0
M  V30 5296 H 504.054 -2.79418 1.07545 0
M  V30 5297 H 501.6 -1.34338 0.518593 0
M  V30 5298 H 503.553 -4.0976 -0.983612 0
M  V30 5299 H 502.277 -2.93717 -1.4282 0
M  V30 5300 H 500.936 -3.61776 0.592787 0
M  V30 5301 H 500.584 -4.76895 -1.59939 0
M  V30 5302 H 500.284 -5.8714 -0.232561 0
M  V30 5303 H 501.808 -5.99544 -1.1567 0
M  V30 5304 H 503.222 -5.62938 1.08504 0
M  V30 5305 H 501.619 -5.70123 1.87296 0
M  V30 5306 H 502.689 -4.32451 2.1935 0
M  V30 5307 N 504.032 -0.577932 -1.46621 0
M  V30 5308 C 505.28 -0.061566 -2.02006 0
M  V30 5309 C 505.601 1.30117 -1.4524 0
M  V30 5310 O 504.871 1.85313 -0.63529 0
M  V30 5311 H 503.451 -0.0197692 -0.746738 0
M  V30 5312 H 506.113 -0.752631 -1.79782 0
M  V30 5313 H 505.209 0.0110238 -3.12098 0
M  V30 5314 N 505.51 1.54411 -0.315457 0
M  V30 5315 C 506.738 2.04833 0.291738 0
M  V30 5316 C 507.153 1.19203 1.46411 0
M  V30 5317 O 506.51 0.220867 1.81159 0
M  V30 5318 C 506.561 3.53969 0.73404 0
M  V30 5319 O 506.282 4.36346 -0.391682 0
M  V30 5320 C 507.783 4.2045 1.40489 0
M  V30 5321 H 505.003 0.668195 0.0612947 0
M  V30 5322 H 507.547 1.99276 -0.45929 0
M  V30 5323 H 505.702 3.5984 1.43506 0
M  V30 5324 H 506.116 5.24481 -0.0447088 0
M  V30 5325 H 507.59 5.26278 1.66539 0
M  V30 5326 H 508.067 3.71067 2.3496 0
M  V30 5327 H 508.673 4.18694 0.746662 0
M  V30 5328 N 506.988 0.0434614 1.5754 0
M  V30 5329 C 508.236 -0.630786 1.92004 0
M  V30 5330 C 508.557 -1.71836 0.921807 0
M  V30 5331 O 507.827 -1.9587 -0.034522 0
M  V30 5332 H 506.407 -0.235988 0.708745 0
M  V30 5333 H 509.069 0.0946462 1.9467 0
M  V30 5334 H 508.165 -1.07434 2.93026 0
M  V30 5335 N 508.466 -1.55915 -0.229846 0
M  V30 5336 C 509.429 -1.90914 -1.26824 0
M  V30 5337 C 510.429 -0.786999 -1.40225 0
M  V30 5338 O 511.619 -1.05484 -1.38632 0
M  V30 5339 C 508.751 -2.15264 -2.64337 0
M  V30 5340 H 509.944 -2.8378 -0.969998 0
M  V30 5341 H 507.497 -1.49069 -0.4699 0
M  V30 5342 H 508.232 -1.24923 -2.99274 0
M  V30 5343 H 508.017 -2.97005 -2.55989 0
M  V30 5344 H 509.507 -2.43467 -3.39284 0
M  V30 5345 N 509.944 0.496216 -1.49584 0
M  V30 5346 C 510.907 1.57952 -1.66084 0
M  V30 5347 C 511.907 1.51729 -0.53244 0
M  V30 5348 O 513.097 1.54796 -0.79899 0
M  V30 5349 C 510.229 2.97604 -1.66268 0
M  V30 5350 H 511.422 1.44649 -2.6271 0
M  V30 5351 H 508.975 0.7208 -1.38687 0
M  V30 5352 H 509.71 3.16378 -0.712432 0
M  V30 5353 H 509.495 3.03528 -2.4822 0
M  V30 5354 H 510.985 3.76301 -1.81073 0
M  V30 5355 N 511.423 1.38739 0.74761 0
M  V30 5356 C 512.669 1.3648 1.50814 0
M  V30 5357 C 513.024 -0.0431982 1.92351 0
M  V30 5358 O 512.317 -1.0071 1.62997 0
M  V30 5359 C 512.511 2.25992 2.7688 0
M  V30 5360 C 512.34 3.75354 2.47668 0
M  V30 5361 C 511.11 4.44348 2.40589 0
M  V30 5362 C 513.308 4.67642 2.14046 0
M  V30 5363 N 511.29 5.79114 2.03715 0
M  V30 5364 C 512.661 5.90965 1.87512 0
M  V30 5365 C 514.716 4.55787 2.00407 0
M  V30 5366 C 513.419 7.03759 1.48714 0
M  V30 5367 C 515.445 5.68491 1.63011 0
M  V30 5368 C 514.807 6.90879 1.37353 0
M  V30 5369 H 510.906 0.554695 0.551214 0
M  V30 5370 H 513.49 1.7418 0.870033 0
M  V30 5371 H 511.661 1.9047 3.3849 0
M  V30 5372 H 513.393 2.14815 3.42982 0
M  V30 5373 H 510.148 3.97634 2.57262 0
M  V30 5374 H 510.572 6.504 1.87906 0
M  V30 5375 H 515.214 3.61712 2.18916 0
M  V30 5376 H 512.932 7.97746 1.28945 0
M  V30 5377 H 516.518 5.613 1.53081 0
M  V30 5378 H 515.398 7.76609 1.08848 0
M  V30 5379 N 512.901 -0.976442 1.23707 0
M  V30 5380 C 513.831 -2.08749 1.04624 0
M  V30 5381 C 514.812 -1.70057 -0.0380956 0
M  V30 5382 O 515.997 -1.93782 0.127308 0
M  V30 5383 C 513.127 -3.41335 0.640902 0
M  V30 5384 C 512.081 -3.93947 1.67302 0
M  V30 5385 C 511.407 -5.22774 1.12301 0
M  V30 5386 C 512.707 -4.22769 3.06697 0
M  V30 5387 H 514.401 -2.24972 1.97555 0
M  V30 5388 H 511.947 -1.08108 0.951247 0
M  V30 5389 H 513.9 -4.18489 0.494434 0
M  V30 5390 H 512.624 -3.24988 -0.324099 0
M  V30 5391 H 511.283 -3.18941 1.80755 0
M  V30 5392 H 510.931 -5.0278 0.148877 0
M  V30 5393 H 510.631 -5.58942 1.81267 0
M  V30 5394 H 512.155 -6.02546 0.988479 0
M  V30 5395 H 513.569 -4.90659 2.96524 0
M  V30 5396 H 511.966 -4.70147 3.72937 0
M  V30 5397 H 513.036 -3.29885 3.55392 0
M  V30 5398 N 514.379 -1.04941 -1.1758 0
M  V30 5399 C 515.627 -0.756492 -1.87408 0
M  V30 5400 C 515.948 0.718478 -1.81281 0
M  V30 5401 O 515.218 1.519 -1.23706 0
M  V30 5402 H 513.798 -0.276841 -0.693807 0
M  V30 5403 H 516.46 -1.32803 -1.42652 0
M  V30 5404 H 515.556 -1.06918 -2.93215 0
M  V30 5405 N 515.857 1.33968 -0.830081 0
M  V30 5406 C 517.103 1.98357 -0.422191 0
M  V30 5407 C 517.436 1.65633 1.01387 0
M  V30 5408 O 516.711 0.931648 1.70735 0
M  V30 5409 C 516.994 3.54492 -0.633043 0
M  V30 5410 C 516.847 3.96934 -2.11574 0
M  V30 5411 C 518.166 4.40039 -0.0735584 0
M  V30 5412 H 515.285 0.720544 -0.154871 0
M  V30 5413 H 517.927 1.58749 -1.04397 0
M  V30 5414 H 516.077 3.88361 -0.103775 0
M  V30 5415 H 517.749 3.73363 -2.7092 0
M  V30 5416 H 515.992 3.46984 -2.60354 0
M  V30 5417 H 516.663 5.05651 -2.21406 0
M  V30 5418 H 519.139 4.12764 -0.52585 0
M  V30 5419 H 518.015 5.48327 -0.250841 0
M  V30 5420 H 518.276 4.30124 1.02202 0
M  V30 5421 N 517.335 0.585699 1.46312 0
M  V30 5422 C 518.581 0.0725284 2.0267 0
M  V30 5423 C 518.914 -1.28523 1.45586 0
M  V30 5424 O 518.189 -1.84283 0.622101 0
M  V30 5425 C 518.472 0.0099788 3.60099 0
M  V30 5426 C 518.325 1.39685 4.27561 0
M  V30 5427 C 519.644 -0.689117 4.34671 0
M  V30 5428 H 516.763 0.0278307 0.736474 0
M  V30 5429 H 519.405 0.753472 1.74421 0
M  V30 5430 H 517.555 -0.56992 3.84297 0
M  V30 5431 H 519.227 2.02215 4.14617 0
M  V30 5432 H 517.47 1.96374 3.86807 0
M  V30 5433 H 518.141 1.30553 5.36339 0
M  V30 5434 H 520.617 -0.196446 4.15636 0
M  V30 5435 H 519.493 -0.701921 5.44393 0
M  V30 5436 H 519.754 -1.75101 4.05946 0
M  V30 5437 N 518.813 -1.54241 0.323641 0
M  V30 5438 C 520.041 -2.04985 -0.280871 0
M  V30 5439 C 520.456 -1.19978 -1.45777 0
M  V30 5440 O 519.813 -0.230471 -1.81039 0
M  V30 5441 C 519.864 -3.54353 -0.715258 0
M  V30 5442 O 519.585 -4.36132 0.414817 0
M  V30 5443 C 521.086 -4.21189 -1.38257 0
M  V30 5444 H 518.306 -0.66851 -0.0577502 0
M  V30 5445 H 520.85 -1.99029 0.469852 0
M  V30 5446 H 519.005 -3.60596 -1.41596 0
M  V30 5447 H 519.419 -5.2445 0.0725227 0
M  V30 5448 H 520.893 -5.27154 -1.63745 0
M  V30 5449 H 521.37 -3.72307 -2.32989 0
M  V30 5450 H 521.976 -4.19085 -0.724447 0
M  V30 5451 N 520.291 -0.0518155 -1.57515 0
M  V30 5452 C 521.538 0.621823 -1.92716 0
M  V30 5453 C 521.866 1.70813 -0.930229 0
M  V30 5454 O 521.121 1.95616 0.0573708 0
M  V30 5455 C 521.42 1.25607 -3.34601 0
M  V30 5456 C 521.086 0.297901 -4.49915 0
M  V30 5457 C 519.748 0.034243 -4.81188 0
M  V30 5458 C 522.1 -0.358738 -5.19964 0
M  V30 5459 C 519.428 -0.893479 -5.79857 0
M  V30 5460 C 521.78 -1.27466 -6.19625 0
M  V30 5461 C 520.444 -1.54698 -6.49326 0
M  V30 5462 H 519.714 0.227541 -0.705199 0
M  V30 5463 H 522.361 -0.118432 -1.91133 0
M  V30 5464 H 520.666 2.07161 -3.32553 0
M  V30 5465 H 522.363 1.78424 -3.59118 0
M  V30 5466 H 518.953 0.513581 -4.25512 0
M  V30 5467 H 523.137 -0.168133 -4.96015 0
M  V30 5468 H 518.393 -1.11193 -6.01204 0
M  V30 5469 H 522.567 -1.78953 -6.73015 0
M  V30 5470 H 520.194 -2.26748 -7.25596 0
M  V30 5471 N 521.769 1.56035 0.221574 0
M  V30 5472 C 523.016 1.79047 0.94597 0
M  V30 5473 C 523.344 0.62057 1.84334 0
M  V30 5474 O 522.599 -0.395053 1.91671 0
M  V30 5475 C 522.898 3.07813 1.8162 0
M  V30 5476 C 522.564 4.3797 1.07206 0
M  V30 5477 C 521.226 4.73334 0.866508 0
M  V30 5478 C 523.578 5.18326 0.546565 0
M  V30 5479 C 520.906 5.8657 0.123549 0
M  V30 5480 C 523.258 6.32335 -0.18305 0
M  V30 5481 C 521.922 6.66301 -0.399861 0
M  V30 5482 H 521.192 0.655178 0.346155 0
M  V30 5483 H 523.839 1.90299 0.214146 0
M  V30 5484 H 522.144 2.91682 2.61589 0
M  V30 5485 H 523.841 3.2282 2.37884 0
M  V30 5486 H 520.431 4.10202 1.24226 0
M  V30 5487 H 524.615 4.9144 0.692847 0
M  V30 5488 H 519.871 6.11376 -0.0546591 0
M  V30 5489 H 524.045 6.9383 -0.59775 0
M  V30 5490 H 521.672 7.53889 -0.977489 0
M  V30 5491 N 523.247 -0.488276 1.49845 0
M  V30 5492 C 524.487 -1.2516 1.61599 0
M  V30 5493 C 524.851 -1.89615 0.301706 0
M  V30 5494 O 526.052 -2.67182 0.29453 0
M  V30 5495 C 524.323 -2.2805 2.75187 0
M  V30 5496 S 525.882 -3.13552 3.0697 0
M  V30 5497 H 522.7 -0.425178 0.569864 0
M  V30 5498 H 525.302 -0.551545 1.87559 0
M  V30 5499 H 524.006 -1.7925 3.69185 0
M  V30 5500 H 523.537 -3.02708 2.5126 0
M  V30 5501 H 525.552 -4.28927 2.49471 0
M  V30 5502 N 524.725 -1.39134 -0.740242 0
M  V30 5503 C 526.002 -1.26584 -1.49117 0
M  V30 5504 C 526.382 0.126902 -2.10718 0
M  V30 5505 O 525.73 1.13765 -1.98166 0
M  V30 5506 C 525.94 -2.38619 -2.54681 0
M  V30 5507 C 527.288 -2.77685 -3.21211 0
M  V30 5508 O 528.312 -2.38029 -2.64991 0
M  V30 5509 O 527.171 -3.46115 -4.22926 0
M  V30 5510 H 524.265 -0.495769 -0.661923 0
M  V30 5511 H 526.811 -1.50995 -0.774514 0
M  V30 5512 H 525.583 -3.3175 -2.07504 0
M  V30 5513 H 525.206 -2.15845 -3.33911 0
M  V30 5514 N 526.204 0.969867 -1.24223 0
M  V30 5515 C 527.134 2.08191 -1.05729 0
M  V30 5516 C 528.115 1.70075 0.0290765 0
M  V30 5517 O 529.3 1.93712 -0.137583 0
M  V30 5518 C 526.43 3.40991 -0.658995 0
M  V30 5519 C 525.384 3.93054 -1.69389 0
M  V30 5520 C 524.71 5.22171 -1.15072 0
M  V30 5521 C 526.01 4.21137 -3.08935 0
M  V30 5522 H 527.704 2.23921 -1.98746 0
M  V30 5523 H 525.25 1.07602 -0.956967 0
M  V30 5524 H 527.203 4.18221 -0.51662 0
M  V30 5525 H 525.927 3.25155 0.30686 0
M  V30 5526 H 524.586 3.17977 -1.82444 0
M  V30 5527 H 524.234 5.02694 -0.175539 0
M  V30 5528 H 523.934 5.57973 -1.84229 0
M  V30 5529 H 525.458 6.02013 -1.02042 0
M  V30 5530 H 526.872 4.8908 -2.99121 0
M  V30 5531 H 525.269 4.68163 -3.75425 0
M  V30 5532 H 526.339 3.27996 -3.57137 0
M  V30 5533 N 527.682 1.05563 1.17022 0
M  V30 5534 C 528.612 0.681026 2.23348 0
M  V30 5535 C 529.593 -0.322983 1.67005 0
M  V30 5536 O 530.778 -0.199746 1.9317 0
M  V30 5537 C 527.908 0.0589053 3.4725 0
M  V30 5538 C 526.862 0.988082 4.16438 0
M  V30 5539 C 526.188 0.229646 5.34207 0
M  V30 5540 C 527.488 2.31388 4.68249 0
M  V30 5541 H 529.182 1.56993 2.54938 0
M  V30 5542 H 526.728 0.756302 1.2254 0
M  V30 5543 H 528.681 -0.214982 4.20851 0
M  V30 5544 H 527.405 -0.864968 3.14938 0
M  V30 5545 H 526.064 1.24659 3.44754 0
M  V30 5546 H 525.712 -0.697111 4.98146 0
M  V30 5547 H 525.412 0.848815 5.81437 0
M  V30 5548 H 526.936 -0.0368694 6.10589 0
M  V30 5549 H 528.35 2.09964 5.33468 0
M  V30 5550 H 526.747 2.88736 5.26072 0
M  V30 5551 H 527.817 2.94982 3.84855 0
M  V30 5552 N 529.16 -1.33526 0.837174 0
M  V30 5553 C 530.09 -2.31764 0.284206 0
M  V30 5554 C 531.071 -1.58896 -0.607142 0
M  V30 5555 O 532.256 -1.86798 -0.531047 0
M  V30 5556 C 529.386 -3.43029 -0.542962 0
M  V30 5557 C 528.34 -4.27255 0.252451 0
M  V30 5558 C 527.666 -5.3012 -0.69836 0
M  V30 5559 C 528.966 -5.01229 1.46858 0
M  V30 5560 H 530.66 -2.78262 1.10502 0
M  V30 5561 H 528.206 -1.3378 0.532812 0
M  V30 5562 H 530.159 -4.1078 -0.940096 0
M  V30 5563 H 528.883 -2.95216 -1.39697 0
M  V30 5564 H 527.542 -3.61127 0.631124 0
M  V30 5565 H 527.19 -4.78564 -1.54872 0
M  V30 5566 H 526.89 -5.87353 -0.170274 0
M  V30 5567 H 528.414 -6.00737 -1.09305 0
M  V30 5568 H 529.828 -5.61756 1.14469 0
M  V30 5569 H 528.225 -5.68104 1.93333 0
M  V30 5570 H 529.295 -4.301 2.23924 0
M  V30 5571 N 530.638 -0.59345 -1.46 0
M  V30 5572 C 531.568 0.121192 -2.33185 0
M  V30 5573 C 532.549 0.872977 -1.4599 0
M  V30 5574 O 533.734 0.846321 -1.74789 0
M  V30 5575 C 530.864 1.12844 -3.28456 0
M  V30 5576 C 529.818 0.4908 -4.25177 0
M  V30 5577 C 529.144 1.60529 -5.10034 0
M  V30 5578 C 530.444 -0.578949 -5.19081 0
M  V30 5579 H 532.138 -0.606767 -2.93187 0
M  V30 5580 H 529.684 -0.293242 -1.40983 0
M  V30 5581 H 531.637 1.63684 -3.88311 0
M  V30 5582 H 530.361 1.88681 -2.66584 0
M  V30 5583 H 529.02 0.00339328 -3.666 0
M  V30 5584 H 528.668 2.35359 -4.44539 0
M  V30 5585 H 528.368 1.18422 -5.75543 0
M  V30 5586 H 529.892 2.11623 -5.72755 0
M  V30 5587 H 531.306 -0.155199 -5.7309 0
M  V30 5588 H 529.703 -0.920947 -5.92991 0
M  V30 5589 H 530.773 -1.46109 -4.62364 0
M  V30 5590 N 532.116 1.54067 -0.331816 0
M  V30 5591 C 533.346 2.04833 0.269605 0
M  V30 5592 C 533.754 1.20714 1.45687 0
M  V30 5593 O 533.097 0.232539 1.82222 0
M  V30 5594 C 533.159 3.51386 0.759499 0
M  V30 5595 C 532.823 4.55971 -0.306557 0
M  V30 5596 C 533.82 5.07126 -1.14538 0
M  V30 5597 C 531.505 5.00216 -0.457116 0
M  V30 5598 C 533.499 6.01096 -2.12042 0
M  V30 5599 C 531.186 5.93999 -1.43556 0
M  V30 5600 C 532.184 6.44326 -2.26568 0
M  V30 5601 O 531.872 7.36267 -3.22749 0
M  V30 5602 H 531.604 0.673509 0.0579763 0
M  V30 5603 H 534.158 1.99748 -0.478521 0
M  V30 5604 H 532.388 3.53896 1.55867 0
M  V30 5605 H 534.077 3.85184 1.28017 0
M  V30 5606 H 534.843 4.73716 -1.04009 0
M  V30 5607 H 530.722 4.60652 0.179142 0
M  V30 5608 H 534.266 6.40302 -2.76873 0
M  V30 5609 H 530.163 6.26825 -1.54146 0
M  V30 5610 H 530.931 7.54165 -3.18083 0
M  V30 5611 N 533.594 0.0601682 1.57485 0
M  V30 5612 C 534.84 -0.612501 1.93329 0
M  V30 5613 C 535.173 -1.6996 0.939526 0
M  V30 5614 O 534.448 -1.94472 -0.0330957 0
M  V30 5615 C 534.731 -1.20025 3.39508 0
M  V30 5616 C 534.584 -0.12059 4.49638 0
M  V30 5617 C 535.903 -2.10923 3.86264 0
M  V30 5618 H 533.022 -0.221185 0.703027 0
M  V30 5619 H 535.664 0.123768 1.89596 0
M  V30 5620 H 533.814 -1.82774 3.42821 0
M  V30 5621 H 535.486 0.51185 4.58452 0
M  V30 5622 H 533.729 0.550251 4.30296 0
M  V30 5623 H 534.4 -0.572019 5.49028 0
M  V30 5624 H 536.876 -1.58124 3.84884 0
M  V30 5625 H 535.752 -2.48987 4.8918 0
M  V30 5626 H 536.013 -3.01292 3.23536 0
M  V30 5627 N 535.072 -1.5615 -0.213296 0
M  V30 5628 C 536.349 -1.70349 -0.961281 0
M  V30 5629 C 536.729 -0.609791 -2.02101 0
M  V30 5630 O 536.077 0.381987 -2.25285 0
M  V30 5631 C 536.287 -3.11982 -1.56424 0
M  V30 5632 C 537.635 -3.71649 -2.05334 0
M  V30 5633 O 538.659 -3.14995 -1.66302 0
M  V30 5634 O 537.518 -4.71038 -2.77102 0
M  V30 5635 H 534.612 -0.694121 -0.449582 0
M  V30 5636 H 537.158 -1.68464 -0.204426 0
M  V30 5637 H 535.93 -3.83046 -0.799457 0
M  V30 5638 H 535.553 -3.18019 -2.38641 0
M  V30 5639 N 536.55 0.480323 -1.50102 0
M  V30 5640 C 537.966 0.813295 -1.37323 0
M  V30 5641 C 538.166 1.97027 -0.422206 0
M  V30 5642 O 537.222 2.5212 0.138563 0
M  V30 5643 C 538.535 1.13404 -2.78496 0
M  V30 5644 C 540.083 1.24104 -2.87345 0
M  V30 5645 C 540.558 1.59497 -4.29331 0
M  V30 5646 N 542.049 1.66507 -4.32238 0
M  V30 5647 C 542.784 1.95378 -5.39087 0
M  V30 5648 N 542.28 2.22333 -6.56155 0
M  V30 5649 N 544.073 1.96803 -5.26522 0
M  V30 5650 H 536.224 -0.282291 -2.10516 0
M  V30 5651 H 538.487 -0.063752 -0.945854 0
M  V30 5652 H 538.193 0.357064 -3.49883 0
M  V30 5653 H 538.067 2.07251 -3.15162 0
M  V30 5654 H 540.454 2.00871 -2.16183 0
M  V30 5655 H 540.535 0.282593 -2.54234 0
M  V30 5656 H 540.179 0.832736 -5.01027 0
M  V30 5657 H 540.109 2.56477 -4.59921 0
M  V30 5658 H 542.6 1.47753 -3.47818 0
M  V30 5659 H 542.913 2.43611 -7.33399 0
M  V30 5660 H 541.258 2.19745 -6.59346 0
M  V30 5661 H 544.449 1.75235 -4.34062 0
M  V30 5662 H 544.622 2.18969 -6.09883 0
M  V30 5663 N 538.028 1.39524 0.732853 0
M  V30 5664 C 538.938 1.40695 1.87729 0
M  V30 5665 C 539.954 0.301496 1.71368 0
M  V30 5666 O 541.13 0.543313 1.93933 0
M  V30 5667 C 538.195 1.25098 3.23344 0
M  V30 5668 C 537.256 2.45634 3.52083 0
M  V30 5669 C 536.489 2.30772 4.81228 0
M  V30 5670 O 536.712 1.31233 5.55098 0
M  V30 5671 O 535.646 3.19799 5.09914 0
M  V30 5672 H 539.472 2.37168 1.89697 0
M  V30 5673 H 537.057 1.20663 0.880959 0
M  V30 5674 H 538.939 1.18541 4.04383 0
M  V30 5675 H 537.614 0.317209 3.22142 0
M  V30 5676 H 536.521 2.57767 2.71122 0
M  V30 5677 H 537.854 3.37712 3.58066 0
M  V30 5678 N 539.506 -0.963266 1.24736 0
M  V30 5679 C 540.469 -2.04013 1.04457 0
M  V30 5680 C 541.469 -1.608 0.000335555 0
M  V30 5681 O 542.659 -1.72515 0.241719 0
M  V30 5682 C 539.791 -3.35858 0.584162 0
M  V30 5683 H 540.984 -2.23436 2.00041 0
M  V30 5684 H 538.537 -1.13914 1.07021 0
M  V30 5685 H 539.272 -3.22128 -0.374673 0
M  V30 5686 H 539.057 -3.68568 1.3379 0
M  V30 5687 H 540.547 -4.1502 0.463451 0
M  V30 5688 N 540.985 -1.06182 -1.16461 0
M  V30 5689 C 541.935 -0.641619 -2.18786 0
M  V30 5690 C 542.919 0.327122 -1.5754 0
M  V30 5691 O 544.111 0.142746 -1.76423 0
M  V30 5692 C 541.24 -0.0283734 -3.43288 0
M  V30 5693 C 540.326 -1.02154 -4.11613 0
M  V30 5694 N 540.717 -2.19671 -4.55608 0
M  V30 5695 C 539.015 -0.852229 -4.37782 0
M  V30 5696 C 539.716 -2.82583 -5.0845 0
M  V30 5697 N 538.692 -2.10318 -5.01266 0
M  V30 5698 H 542.494 -1.53684 -2.50516 0
M  V30 5699 H 540.008 -0.933349 -1.329 0
M  V30 5700 H 542.005 0.29049 -4.15887 0
M  V30 5701 H 540.665 0.862118 -3.13046 0
M  V30 5702 H 541.676 -2.57453 -4.49375 0
M  V30 5703 H 538.353 -0.0136314 -4.17498 0
M  V30 5704 H 539.743 -3.82298 -5.52538 0
M  V30 5705 N 542.463 1.3308 -0.844243 0
M  V30 5706 C 543.71 1.97605 -0.44255 0
M  V30 5707 C 544.038 1.66856 0.999458 0
M  V30 5708 O 543.293 0.943586 1.7145 0
M  V30 5709 C 543.592 3.52045 -0.616354 0
M  V30 5710 C 543.258 4.02757 -2.02726 0
M  V30 5711 C 541.92 4.16316 -2.41317 0
M  V30 5712 C 544.272 4.29776 -2.9486 0
M  V30 5713 C 541.6 4.54232 -3.71335 0
M  V30 5714 C 543.952 4.69146 -4.24364 0
M  V30 5715 C 542.616 4.80911 -4.62904 0
M  V30 5716 H 541.886 0.723088 -0.161941 0
M  V30 5717 H 544.533 1.58663 -1.0723 0
M  V30 5718 H 542.838 3.91681 0.0966812 0
M  V30 5719 H 544.535 3.99981 -0.285756 0
M  V30 5720 H 541.125 3.9268 -1.71756 0
M  V30 5721 H 545.309 4.18818 -2.6628 0
M  V30 5722 H 540.565 4.61535 -4.00993 0
M  V30 5723 H 544.739 4.89008 -4.95827 0
M  V30 5724 H 542.366 5.10048 -5.63698 0
M  V30 5725 N 543.941 0.601185 1.45683 0
M  V30 5726 C 545.171 0.0999093 2.06358 0
M  V30 5727 C 545.579 -1.21831 1.44754 0
M  V30 5728 O 544.922 -1.75157 0.553695 0
M  V30 5729 C 544.984 -0.12085 3.59297 0
M  V30 5730 C 544.648 1.11459 4.432 0
M  V30 5731 C 545.645 2.03118 4.7858 0
M  V30 5732 C 543.33 1.34162 4.84051 0
M  V30 5733 C 545.324 3.15814 5.53661 0
M  V30 5734 C 543.011 2.4716 5.58888 0
M  V30 5735 C 544.009 3.37814 5.93608 0
M  V30 5736 O 543.697 4.48846 6.66928 0
M  V30 5737 H 543.429 0.0630316 0.673055 0
M  V30 5738 H 545.983 0.826982 1.88016 0
M  V30 5739 H 544.213 -0.902744 3.76015 0
M  V30 5740 H 545.902 -0.572925 4.01836 0
M  V30 5741 H 546.668 1.86801 4.47583 0
M  V30 5742 H 542.547 0.645018 4.56465 0
M  V30 5743 H 546.091 3.86596 5.8068 0
M  V30 5744 H 541.988 2.63432 5.89299 0
M  V30 5745 H 542.756 4.47446 6.85371 0
M  V30 5746 N 545.419 -1.53889 0.339982 0
M  V30 5747 C 546.665 -2.01849 -0.250694 0
M  V30 5748 C 547.02 -1.22356 -1.48482 0
M  V30 5749 O 546.313 -0.301906 -1.89206 0
M  V30 5750 C 546.507 -3.51968 -0.620735 0
M  V30 5751 C 546.336 -4.45996 0.575981 0
M  V30 5752 C 545.106 -4.93619 1.08019 0
M  V30 5753 C 547.304 -4.93923 1.43332 0
M  V30 5754 N 545.286 -5.7159 2.2396 0
M  V30 5755 C 546.657 -5.69982 2.43969 0
M  V30 5756 C 548.712 -4.76038 1.45918 0
M  V30 5757 C 547.415 -6.30057 3.47016 0
M  V30 5758 C 549.441 -5.36961 2.47845 0
M  V30 5759 C 548.803 -6.12884 3.47208 0
M  V30 5760 H 544.902 -0.780054 -0.0551368 0
M  V30 5761 H 547.486 -1.88722 0.478741 0
M  V30 5762 H 545.657 -3.65308 -1.31928 0
M  V30 5763 H 547.389 -3.86677 -1.19429 0
M  V30 5764 H 544.144 -4.69134 0.64884 0
M  V30 5765 H 544.568 -6.15247 2.82489 0
M  V30 5766 H 549.21 -4.16887 0.704608 0
M  V30 5767 H 546.928 -6.88319 4.23371 0
M  V30 5768 H 550.514 -5.2503 2.50668 0
M  V30 5769 H 549.394 -6.59187 4.24785 0
M  V30 5770 N 546.897 -0.0685191 -1.57451 0
M  V30 5771 C 548.313 0.288101 -1.56978 0
M  V30 5772 C 548.513 1.70262 -1.07765 0
M  V30 5773 O 547.569 2.4135 -0.742054 0
M  V30 5774 C 548.882 0.100745 -3.00531 0
M  V30 5775 C 550.43 0.170531 -3.12535 0
M  V30 5776 C 550.905 0.0114944 -4.57999 0
M  V30 5777 N 552.396 0.0672065 -4.63151 0
M  V30 5778 C 553.131 -0.0314813 -5.73391 0
M  V30 5779 N 552.627 -0.183503 -6.92557 0
M  V30 5780 N 554.42 0.0253489 -5.62094 0
M  V30 5781 H 546.571 -0.993026 -1.87757 0
M  V30 5782 H 548.834 -0.386981 -0.865419 0
M  V30 5783 H 548.54 -0.875197 -3.40636 0
M  V30 5784 H 548.414 0.854457 -3.67395 0
M  V30 5785 H 550.801 1.13696 -2.72318 0
M  V30 5786 H 550.882 -0.614229 -2.48316 0
M  V30 5787 H 550.526 -0.951684 -4.98904 0
M  V30 5788 H 550.456 0.815617 -5.20245 0
M  V30 5789 H 552.947 0.183246 -3.77455 0
M  V30 5790 H 553.26 -0.251041 -7.72392 0
M  V30 5791 H 551.605 -0.218822 -6.94655 0
M  V30 5792 H 554.796 0.142794 -4.67882 0
M  V30 5793 H 554.969 -0.0550166 -6.47977 0
M  V30 5794 N 548.375 1.56261 0.205012 0
M  V30 5795 C 549.603 1.84141 0.943386 0
M  V30 5796 C 550.018 0.649772 1.77266 0
M  V30 5797 O 549.375 -0.381612 1.78466 0
M  V30 5798 C 549.426 3.10719 1.84759 0
M  V30 5799 O 549.147 4.25286 1.05181 0
M  V30 5800 C 550.648 3.51706 2.69848 0
M  V30 5801 H 547.868 0.611734 0.275721 0
M  V30 5802 H 550.412 2.03364 0.215253 0
M  V30 5803 H 548.567 2.93422 2.52947 0
M  V30 5804 H 548.981 4.97301 1.66709 0
M  V30 5805 H 550.455 4.43266 3.28967 0
M  V30 5806 H 550.932 2.7423 3.43067 0
M  V30 5807 H 551.538 3.71499 2.07047 0
M  V30 5808 N 549.853 -0.472356 1.50355 0
M  V30 5809 C 550.8 -1.57051 1.69126 0
M  V30 5810 C 551.77 -1.5733 0.532574 0
M  V30 5811 O 552.955 -1.7488 0.762994 0
M  V30 5812 C 550.095 -2.95033 1.79024 0
M  V30 5813 C 549.208 -3.04552 3.06386 0
M  V30 5814 C 548.343 -4.33441 3.07087 0
M  V30 5815 C 547.382 -4.36697 4.28908 0
M  V30 5816 N 546.519 -5.57056 4.27356 0
M  V30 5817 H 551.359 -1.40351 2.62879 0
M  V30 5818 H 548.896 -0.682403 1.30314 0
M  V30 5819 H 550.854 -3.75048 1.82744 0
M  V30 5820 H 549.484 -3.10371 0.887109 0
M  V30 5821 H 548.536 -2.17419 3.12143 0
M  V30 5822 H 549.848 -3.02818 3.96362 0
M  V30 5823 H 549.002 -5.21801 3.09529 0
M  V30 5824 H 547.741 -4.37782 2.14939 0
M  V30 5825 H 546.746 -3.46734 4.2668 0
M  V30 5826 H 547.971 -4.34049 5.22282 0
M  V30 5827 H 545.917 -5.62184 3.3806 0
M  V30 5828 H 545.834 -5.57058 5.111 0
M  V30 5829 H 547.102 -6.47545 4.33942 0
M  V30 5830 N 551.331 -1.39911 -0.725443 0
M  V30 5831 C 552.561 -1.40744 -1.51244 0
M  V30 5832 C 552.969 -0.00275403 -1.892 0
M  V30 5833 O 552.312 0.981299 -1.55294 0
M  V30 5834 C 552.374 -2.22527 -2.82351 0
M  V30 5835 C 552.038 -3.71053 -2.66774 0
M  V30 5836 C 553.035 -4.63916 -2.34686 0
M  V30 5837 C 550.72 -4.14753 -2.83347 0
M  V30 5838 C 552.714 -5.98463 -2.19366 0
M  V30 5839 C 550.401 -5.49372 -2.67644 0
M  V30 5840 C 551.399 -6.41042 -2.357 0
M  V30 5841 O 551.087 -7.73181 -2.20107 0
M  V30 5842 H 550.819 -0.482314 -0.473655 0
M  V30 5843 H 553.373 -1.84472 -0.903284 0
M  V30 5844 H 551.603 -1.73563 -3.45562 0
M  V30 5845 H 553.292 -2.15421 -3.44018 0
M  V30 5846 H 554.058 -4.31453 -2.21525 0
M  V30 5847 H 549.937 -3.43728 -3.072 0
M  V30 5848 H 553.481 -6.69979 -1.94354 0
M  V30 5849 H 549.378 -5.81424 -2.80387 0
M  V30 5850 H 550.146 -7.84008 -2.35103 0
M  V30 5851 N 552.809 0.956637 -1.25245 0
M  V30 5852 C 553.719 2.0868 -1.0719 0
M  V30 5853 C 554.735 1.73997 -0.00959074 0
M  V30 5854 O 555.911 2.00301 -0.210104 0
M  V30 5855 C 552.976 3.39754 -0.690526 0
M  V30 5856 C 552.037 3.88316 -1.83055 0
M  V30 5857 C 551.27 5.13134 -1.46728 0
M  V30 5858 O 551.493 5.6925 -0.362029 0
M  V30 5859 O 550.427 5.56356 -2.29677 0
M  V30 5860 H 554.253 2.26813 -2.01965 0
M  V30 5861 H 551.838 1.07098 -1.04165 0
M  V30 5862 H 553.72 4.18543 -0.489871 0
M  V30 5863 H 552.395 3.22896 0.227981 0
M  V30 5864 H 551.302 3.1054 -2.08604 0
M  V30 5865 H 552.635 4.09669 -2.72822 0
M  V30 5866 N 554.287 1.06798 1.15896 0
M  V30 5867 C 555.197 0.694564 2.24083 0
M  V30 5868 C 556.213 -0.291687 1.71538 0
M  V30 5869 O 557.389 -0.139723 2.00915 0
M  V30 5870 C 554.454 0.0921014 3.46578 0
M  V30 5871 C 553.515 1.13087 4.14137 0
M  V30 5872 C 552.748 0.557064 5.30785 0
M  V30 5873 O 552.971 -0.628623 5.66925 0
M  V30 5874 O 551.905 1.29924 5.8771 0
M  V30 5875 H 555.731 1.59663 2.58344 0
M  V30 5876 H 553.316 0.840575 1.2351 0
M  V30 5877 H 555.198 -0.241884 4.20705 0
M  V30 5878 H 553.873 -0.78337 3.14078 0
M  V30 5879 H 552.78 1.51712 3.41957 0
M  V30 5880 H 554.113 1.97805 4.50704 0
M  V30 5881 N 555.766 -1.3263 0.851289 0
M  V30 5882 C 556.729 -2.27247 0.298541 0
M  V30 5883 C 557.729 -1.51467 -0.539847 0
M  V30 5884 O 558.919 -1.7061 -0.351843 0
M  V30 5885 C 556.051 -3.35964 -0.578004 0
M  V30 5886 H 557.244 -2.7765 1.13359 0
M  V30 5887 H 554.797 -1.43245 0.625354 0
M  V30 5888 H 555.532 -2.90823 -1.435 0
M  V30 5889 H 555.317 -3.92094 0.0220539 0
M  V30 5890 H 556.807 -4.06472 -0.957626 0
M  V30 5891 N 557.244 -0.608902 -1.45362 0
M  V30 5892 C 558.191 0.109172 -2.30542 0
M  V30 5893 C 559.161 0.858704 -1.42181 0
M  V30 5894 O 560.346 0.844178 -1.71109 0
M  V30 5895 C 557.486 1.09971 -3.27109 0
M  V30 5896 C 556.599 0.350911 -4.30572 0
M  V30 5897 C 555.734 1.33129 -5.14247 0
M  V30 5898 C 554.773 0.570377 -6.09437 0
M  V30 5899 N 553.91 1.5001 -6.85887 0
M  V30 5900 H 558.75 -0.623195 -2.91411 0
M  V30 5901 H 556.287 -0.319122 -1.43597 0
M  V30 5902 H 558.245 1.68714 -3.81564 0
M  V30 5903 H 556.875 1.79947 -2.67991 0
M  V30 5904 H 555.927 -0.352054 -3.78767 0
M  V30 5905 H 557.239 -0.242725 -4.98209 0
M  V30 5906 H 556.393 1.99074 -5.73109 0
M  V30 5907 H 555.132 1.95885 -4.46632 0
M  V30 5908 H 554.137 -0.102702 -5.49704 0
M  V30 5909 H 555.362 -0.0521607 -6.7908 0
M  V30 5910 H 553.308 2.11529 -6.2096 0
M  V30 5911 H 553.225 0.959934 -7.49881 0
M  V30 5912 H 554.493 2.14909 -7.49289 0
M  V30 5913 N 558.722 1.53707 -0.348139 0
M  V30 5914 C 559.685 2.23812 0.494058 0
M  V30 5915 C 560.685 1.23989 1.02388 0
M  V30 5916 O 561.875 1.48395 0.912396 0
M  V30 5917 C 559.007 2.96133 1.68872 0
M  V30 5918 H 560.2 2.99663 -0.119141 0
M  V30 5919 H 557.753 1.55983 -0.0995539 0
M  V30 5920 H 558.488 2.24481 2.34049 0
M  V30 5921 H 558.273 3.69357 1.31596 0
M  V30 5922 H 559.763 3.49475 2.28597 0
M  V30 5923 N 560.2 0.0768682 1.57412 0
M  V30 5924 C 561.611 -0.455037 1.8107 0
M  V30 5925 C 561.962 -1.69323 0.991162 0
M  V30 5926 O 561.087 -2.15328 0.215156 0
M  V30 5927 C 561.682 -0.832316 3.28417 0
M  V30 5928 C 560.241 -1.30906 3.52903 0
M  V30 5929 C 559.388 -0.296714 2.75708 0
M  V30 5930 H 562.339 0.302514 1.5579 0
M  V30 5931 H 562.36 -1.69333 3.40744 0
M  V30 5932 H 561.872 0.0690532 3.88039 0
M  V30 5933 H 559.973 -2.22875 2.98592 0
M  V30 5934 H 560.086 -1.28348 4.61588 0
M  V30 5935 H 558.45 -0.775059 2.42621 0
M  V30 5936 H 559.233 0.597015 3.38069 0
M  V30 5937 N 561.678 -1.56367 -0.196722 0
M  V30 5938 C 562.625 -1.94417 -1.24382 0
M  V30 5939 C 563.595 -0.804543 -1.45315 0
M  V30 5940 O 564.78 -1.06256 -1.58475 0
M  V30 5941 C 561.92 -2.28757 -2.58388 0
M  V30 5942 C 561.033 -3.55775 -2.45047 0
M  V30 5943 C 560.168 -3.79445 -3.71746 0
M  V30 5944 C 559.207 -4.99894 -3.53231 0
M  V30 5945 N 558.344 -5.19826 -4.71938 0
M  V30 5946 H 563.184 -2.83691 -0.912338 0
M  V30 5947 H 560.721 -1.40392 -0.439135 0
M  V30 5948 H 562.679 -2.46682 -3.36457 0
M  V30 5949 H 561.309 -1.42625 -2.89582 0
M  V30 5950 H 560.361 -3.45905 -1.58284 0
M  V30 5951 H 561.673 -4.44 -2.27299 0
M  V30 5952 H 560.827 -3.97601 -4.58256 0
M  V30 5953 H 559.566 -2.89546 -3.92446 0
M  V30 5954 H 558.571 -4.81662 -2.65107 0
M  V30 5955 H 559.796 -5.913 -3.33978 0
M  V30 5956 H 557.742 -4.32875 -4.92905 0
M  V30 5957 H 557.659 -6.02228 -4.57009 0
M  V30 5958 H 558.927 -5.42439 -5.59803 0
M  V30 5959 N 563.156 0.464375 -1.50603 0
M  V30 5960 C 564.119 1.54393 -1.69397 0
M  V30 5961 C 565.119 1.50566 -0.564504 0
M  V30 5962 O 566.309 1.53066 -0.831645 0
M  V30 5963 C 563.441 2.9401 -1.72543 0
M  V30 5964 H 564.634 1.39044 -2.65719 0
M  V30 5965 H 562.187 0.69122 -1.40185 0
M  V30 5966 H 562.922 3.14795 -0.77938 0
M  V30 5967 H 562.707 2.98195 -2.54602 0
M  V30 5968 H 564.197 3.72375 -1.89015 0
M  V30 5969 N 564.634 1.40294 0.718013 0
M  V30 5970 C 565.862 1.4175 1.50714 0
M  V30 5971 C 566.277 0.0165366 1.88793 0
M  V30 5972 O 565.634 -0.958942 1.55276 0
M  V30 5973 C 565.685 2.30598 2.784 0
M  V30 5974 O 565.406 3.6524 2.41932 0
M  V30 5975 C 566.907 2.4062 3.72313 0
M  V30 5976 H 564.127 0.483565 0.465194 0
M  V30 5977 H 566.671 1.84316 0.885889 0
M  V30 5978 H 564.826 1.91401 3.36815 0
M  V30 5979 H 565.24 4.12402 3.24076 0
M  V30 5980 H 566.714 3.07001 4.58753 0
M  V30 5981 H 567.191 1.4305 4.15251 0
M  V30 5982 H 567.797 2.80359 3.19811 0
M  V30 5983 N 566.112 -0.949982 1.2575 0
M  V30 5984 C 567.075 -2.02894 1.06615 0
M  V30 5985 C 568.075 -1.60791 0.0173905 0
M  V30 5986 O 569.265 -1.72249 0.260003 0
M  V30 5987 C 566.397 -3.35219 0.619751 0
M  V30 5988 H 567.59 -2.21302 2.02399 0
M  V30 5989 H 565.143 -1.12772 1.08223 0
M  V30 5990 H 565.878 -3.22508 -0.340486 0
M  V30 5991 H 565.663 -3.67129 1.37692 0
M  V30 5992 H 567.153 -4.14505 0.507443 0
M  V30 5993 N 567.59 -1.07411 -1.15328 0
M  V30 5994 C 568.538 -0.689316 -2.22151 0
M  V30 5995 C 569.532 0.300156 -1.6672 0
M  V30 5996 O 570.738 0.163804 -1.79253 0
M  V30 5997 H 567.113 -0.204834 -0.723566 0
M  V30 5998 H 569.084 -1.59988 -2.51886 0
M  V30 5999 C 567.833 -0.103848 -3.47545 0
M  V30 6000 H 567.156 -0.856367 -3.90521 0
M  V30 6001 H 568.596 0.127725 -4.23808 0
M  V30 6002 C 567.055 1.15563 -3.1646 0
M  V30 6003 O 567.585 2.242 -3.33312 0
M  V30 6004 N 565.791 1.06203 -2.70498 0
M  V30 6005 H 565.338 0.177933 -2.56985 0
M  V30 6006 H 565.296 1.90553 -2.50074 0
M  V30 6007 N 569.068 1.32177 -0.85831 0
M  V30 6008 C 570.293 2.01847 -0.476718 0
M  V30 6009 C 570.718 1.64065 0.920021 0
M  V30 6010 O 570.076 0.843189 1.60499 0
M  V30 6011 C 570.124 3.55097 -0.627578 0
M  V30 6012 O 569.228 4.11012 0.338086 0
M  V30 6013 H 568.569 0.635907 -0.191099 0
M  V30 6014 H 571.099 1.68641 -1.15851 0
M  V30 6015 H 571.109 4.04718 -0.516476 0
M  V30 6016 H 569.784 3.81938 -1.64609 0
M  V30 6017 H 568.361 3.72451 0.182917 0
M  V30 6018 N 570.547 0.616602 1.45037 0
M  V30 6019 C 571.793 0.115501 2.02471 0
M  V30 6020 C 572.126 -1.25406 1.4828 0
M  V30 6021 O 571.401 -1.82922 0.661051 0
M  V30 6022 C 571.684 0.0863588 3.59996 0
M  V30 6023 C 571.537 1.48723 4.24501 0
M  V30 6024 C 572.856 -0.596762 4.36035 0
M  V30 6025 H 569.975 0.0434461 0.735718 0
M  V30 6026 H 572.617 0.7903 1.72784 0
M  V30 6027 H 570.767 -0.488277 3.85419 0
M  V30 6028 H 572.439 2.10964 4.10234 0
M  V30 6029 H 570.682 2.04534 3.82555 0
M  V30 6030 H 571.353 1.419 5.3345 0
M  V30 6031 H 573.829 -0.10824 4.15959 0
M  V30 6032 H 572.705 -0.586289 5.4576 0
M  V30 6033 H 572.966 -1.66451 4.09569 0
M  V30 6034 N 572.025 -1.5352 0.356285 0
M  V30 6035 C 573.271 -2.02104 -0.229271 0
M  V30 6036 C 573.626 -1.23923 -1.47176 0
M  V30 6037 O 572.919 -0.321957 -1.88876 0
M  V30 6038 C 573.113 -3.52607 -0.583369 0
M  V30 6039 C 572.942 -4.4536 0.623253 0
M  V30 6040 C 571.712 -4.92446 1.13248 0
M  V30 6041 C 573.91 -4.92375 1.48563 0
M  V30 6042 N 571.892 -5.69183 2.3001 0
M  V30 6043 C 573.263 -5.67362 2.50001 0
M  V30 6044 C 575.318 -4.74464 1.50959 0
M  V30 6045 C 574.021 -6.26341 3.5368 0
M  V30 6046 C 576.047 -5.34302 2.53526 0
M  V30 6047 C 575.409 -6.09166 3.53688 0
M  V30 6048 H 571.508 -0.780595 -0.0468602 0
M  V30 6049 H 574.092 -1.88204 0.49873 0
M  V30 6050 H 572.263 -3.66686 -1.28046 0
M  V30 6051 H 573.995 -3.87922 -1.15321 0
M  V30 6052 H 570.75 -4.6842 0.698562 0
M  V30 6053 H 571.174 -6.12216 2.88998 0
M  V30 6054 H 575.816 -4.16117 0.748785 0
M  V30 6055 H 573.534 -6.8379 4.30648 0
M  V30 6056 H 577.12 -5.22342 2.56223 0
M  V30 6057 H 576 -6.54644 4.31753 0
M  V30 6058 N 573.503 -0.0852151 -1.57369 0
M  V30 6059 C 574.919 0.271436 -1.57275 0
M  V30 6060 C 575.119 1.69109 -1.09565 0
M  V30 6061 O 574.175 2.40549 -0.767611 0
M  V30 6062 C 575.488 0.0688638 -3.00621 0
M  V30 6063 C 577.036 0.137373 -3.12698 0
M  V30 6064 C 577.511 -0.0370832 -4.57985 0
M  V30 6065 N 579.002 0.0180794 -4.63196 0
M  V30 6066 C 579.737 -0.0922953 -5.73326 0
M  V30 6067 N 579.233 -0.256948 -6.92323 0
M  V30 6068 N 581.026 -0.0342702 -5.6209 0
M  V30 6069 H 573.177 -1.01288 -1.86693 0
M  V30 6070 H 575.44 -0.396138 -0.861266 0
M  V30 6071 H 575.146 -0.911277 -3.39689 0
M  V30 6072 H 575.02 0.815442 -3.6828 0
M  V30 6073 H 577.407 1.10801 -2.73509 0
M  V30 6074 H 577.488 -0.640532 -2.47651 0
M  V30 6075 H 577.132 -1.00455 -4.97867 0
M  V30 6076 H 577.062 0.760392 -5.21081 0
M  V30 6077 H 579.553 0.143202 -3.77629 0
M  V30 6078 H 579.866 -0.332949 -7.72082 0
M  V30 6079 H 578.211 -0.292487 -6.94384 0
M  V30 6080 H 581.402 0.0931605 -4.68007 0
M  V30 6081 H 581.575 -0.12374 -6.47882 0
M  V30 6082 N 574.981 1.5647 0.188427 0
M  V30 6083 C 575.891 1.98285 1.2538 0
M  V30 6084 C 576.907 0.891535 1.49424 0
M  V30 6085 O 578.083 1.19782 1.61908 0
M  V30 6086 C 575.148 2.31965 2.57669 0
M  V30 6087 C 574.209 3.54838 2.41638 0
M  V30 6088 C 573.442 3.86901 3.67618 0
M  V30 6089 O 573.665 3.20163 4.72072 0
M  V30 6090 O 572.599 4.80309 3.62749 0
M  V30 6091 H 576.425 2.89145 0.928912 0
M  V30 6092 H 574.01 1.44112 0.393955 0
M  V30 6093 H 575.892 2.54673 3.35737 0
M  V30 6094 H 574.567 1.44271 2.89771 0
M  V30 6095 H 573.474 3.37369 1.61658 0
M  V30 6096 H 574.807 4.43019 2.14465 0
M  V30 6097 N 576.459 -0.456382 1.50847 0
M  V30 6098 C 577.389 -1.56025 1.73719 0
M  V30 6099 C 578.37 -1.5967 0.586473 0
M  V30 6100 O 579.555 -1.75702 0.827185 0
M  V30 6101 C 576.685 -2.94251 1.84483 0
M  V30 6102 C 575.639 -3.05471 2.99786 0
M  V30 6103 C 574.965 -4.45489 2.95709 0
M  V30 6104 C 576.265 -2.81318 4.40065 0
M  V30 6105 H 577.959 -1.37138 2.66146 0
M  V30 6106 H 575.505 -0.658299 1.28072 0
M  V30 6107 H 577.458 -3.71417 1.99067 0
M  V30 6108 H 576.182 -3.14328 0.886891 0
M  V30 6109 H 574.841 -2.30741 2.84876 0
M  V30 6110 H 574.489 -4.62505 1.97732 0
M  V30 6111 H 574.189 -4.53929 3.73125 0
M  V30 6112 H 575.713 -5.24655 3.12362 0
M  V30 6113 H 577.127 -3.48226 4.55425 0
M  V30 6114 H 575.524 -3.01188 5.19043 0
M  V30 6115 H 576.594 -1.7706 4.51418 0
M  V30 6116 N 577.937 -1.40673 -0.710563 0
M  V30 6117 C 578.9 -1.4108 -1.80635 0
M  V30 6118 C 579.9 -0.303783 -1.57904 0
M  V30 6119 O 581.09 -0.562937 -1.64853 0
M  V30 6120 C 578.222 -1.20748 -3.18799 0
M  V30 6121 H 579.415 -2.38612 -1.81671 0
M  V30 6122 H 576.968 -1.26595 -0.916704 0
M  V30 6123 H 577.703 -0.239964 -3.23411 0
M  V30 6124 H 577.488 -2.00941 -3.36698 0
M  V30 6125 H 578.978 -1.23833 -3.98817 0
M  V30 6126 N 579.415 0.9433 -1.26252 0
M  V30 6127 C 580.345 2.05902 -1.10122 0
M  V30 6128 C 581.326 1.70099 -0.00700552 0
M  V30 6129 O 582.511 1.93377 -0.178641 0
M  V30 6130 C 579.641 3.39516 -0.731175 0
M  V30 6131 C 578.595 3.89372 -1.77688 0
M  V30 6132 C 577.921 5.19613 -1.26122 0
M  V30 6133 C 579.221 4.14489 -3.17799 0
M  V30 6134 H 580.915 2.19655 -2.03451 0
M  V30 6135 H 578.461 1.05548 -0.979576 0
M  V30 6136 H 580.414 4.17031 -0.605215 0
M  V30 6137 H 579.138 3.25733 0.23782 0
M  V30 6138 H 577.797 3.14036 -1.89148 0
M  V30 6139 H 577.445 5.02208 -0.282128 0
M  V30 6140 H 577.145 5.53939 -1.96023 0
M  V30 6141 H 578.669 5.99713 -1.14789 0
M  V30 6142 H 580.083 4.82625 -3.09428 0
M  V30 6143 H 578.48 4.60094 -3.85271 0
M  V30 6144 H 579.55 3.20347 -3.64014 0
M  V30 6145 N 580.893 1.08022 1.14757 0
M  V30 6146 C 581.856 0.71048 2.1791 0
M  V30 6147 C 582.856 -0.252731 1.58801 0
M  V30 6148 O 584.046 -0.0327915 1.74169 0
M  V30 6149 C 581.178 0.0483203 3.40866 0
M  V30 6150 H 582.371 1.62384 2.52134 0
M  V30 6151 H 579.924 0.877595 1.29337 0
M  V30 6152 H 580.659 -0.876959 3.12218 0
M  V30 6153 H 580.444 0.741189 3.85031 0
M  V30 6154 H 581.934 -0.195471 4.17142 0
M  V30 6155 N 582.371 -1.3172 0.865308 0
M  V30 6156 C 583.596 -2.01591 0.487415 0
M  V30 6157 C 584.021 -1.6455 -0.911307 0
M  V30 6158 O 583.379 -0.851689 -1.6005 0
M  V30 6159 C 583.427 -3.54759 0.646401 0
M  V30 6160 O 582.531 -4.11185 -0.316284 0
M  V30 6161 H 581.872 -0.634884 0.194468 0
M  V30 6162 H 584.402 -1.68024 1.16744 0
M  V30 6163 H 584.412 -4.04438 0.537932 0
M  V30 6164 H 583.087 -3.8106 1.66632 0
M  V30 6165 H 581.664 -3.72543 -0.163162 0
M  V30 6166 N 583.85 -0.624285 -1.44708 0
M  V30 6167 C 584.782 0.12305 -2.28869 0
M  V30 6168 C 585.795 0.81557 -1.40898 0
M  V30 6169 O 586.984 0.678162 -1.65116 0
M  V30 6170 C 584.084 1.19612 -3.1709 0
M  V30 6171 C 583.257 0.587452 -4.33437 0
M  V30 6172 C 582.316 1.55358 -5.02743 0
M  V30 6173 O 581.341 1.07338 -5.58988 0
M  V30 6174 N 582.543 2.88798 -5.03563 0
M  V30 6175 H 585.308 -0.599193 -2.93649 0
M  V30 6176 H 582.87 -0.464954 -1.5508 0
M  V30 6177 H 584.861 1.84261 -3.60319 0
M  V30 6178 H 583.432 1.82067 -2.54107 0
M  V30 6179 H 582.652 -0.237509 -3.93484 0
M  V30 6180 H 583.94 0.161326 -5.08544 0
M  V30 6181 H 583.338 3.30399 -4.59188 0
M  V30 6182 H 581.894 3.48826 -5.50603 0
M  V30 6183 N 585.328 1.53329 -0.364422 0
M  V30 6184 C 586.291 2.24323 0.470292 0
M  V30 6185 C 587.291 1.25068 1.01067 0
M  V30 6186 O 588.481 1.49354 0.896605 0
M  V30 6187 C 585.613 2.97908 1.65722 0
M  V30 6188 H 586.806 2.9952 -0.150917 0
M  V30 6189 H 584.359 1.55868 -0.116092 0
M  V30 6190 H 585.094 2.2695 2.31655 0
M  V30 6191 H 584.879 3.70732 1.27671 0
M  V30 6192 H 586.369 3.5188 2.24878 0
M  V30 6193 N 586.806 0.0935595 1.57322 0
M  V30 6194 C 588.222 -0.263091 1.57417 0
M  V30 6195 C 588.422 -1.68526 1.1046 0
M  V30 6196 O 587.478 -2.40139 0.780357 0
M  V30 6197 C 588.791 -0.0529201 3.00653 0
M  V30 6198 C 590.339 -0.120788 3.12767 0
M  V30 6199 C 590.814 0.0613707 4.57959 0
M  V30 6200 N 592.305 0.00648534 4.632 0
M  V30 6201 C 593.04 0.122699 5.73269 0
M  V30 6202 N 592.536 0.29366 6.92177 0
M  V30 6203 N 594.329 0.0640787 5.62063 0
M  V30 6204 H 586.48 1.02277 1.86154 0
M  V30 6205 H 588.743 0.4007 0.859153 0
M  V30 6206 H 588.449 0.929279 3.39201 0
M  V30 6207 H 588.323 -0.795899 3.68708 0
M  V30 6208 H 590.71 -1.09349 2.74093 0
M  V30 6209 H 590.791 0.653656 2.47307 0
M  V30 6210 H 590.435 1.03093 4.97327 0
M  V30 6211 H 590.365 -0.732748 5.21477 0
M  V30 6212 H 592.856 -0.123173 3.77699 0
M  V30 6213 H 593.169 0.37389 7.71895 0
M  V30 6214 H 591.514 0.329307 6.94219 0
M  V30 6215 H 594.705 -0.0683396 4.6805 0
M  V30 6216 H 594.878 0.158097 6.47807 0
M  V30 6217 N 588.284 -1.56567 -0.180126 0
M  V30 6218 C 589.214 -1.98753 -1.22553 0
M  V30 6219 C 590.195 -0.86175 -1.46656 0
M  V30 6220 O 591.38 -1.12719 -1.58139 0
M  V30 6221 C 588.51 -2.33988 -2.56645 0
M  V30 6222 C 587.464 -3.49445 -2.47128 0
M  V30 6223 C 586.79 -3.70397 -3.8563 0
M  V30 6224 C 588.09 -4.83171 -1.98352 0
M  V30 6225 H 589.784 -2.86332 -0.874896 0
M  V30 6226 H 587.33 -1.37757 -0.419414 0
M  V30 6227 H 589.283 -2.62097 -3.29974 0
M  V30 6228 H 588.007 -1.43309 -2.93479 0
M  V30 6229 H 586.666 -3.2145 -1.76254 0
M  V30 6230 H 586.314 -2.77023 -4.19842 0
M  V30 6231 H 586.014 -4.48077 -3.80132 0
M  V30 6232 H 587.538 -4.00897 -4.60558 0
M  V30 6233 H 588.952 -5.10213 -2.61449 0
M  V30 6234 H 587.349 -5.64425 -2.03823 0
M  V30 6235 H 588.419 -4.75753 -0.937402 0
M  V30 6236 N 589.762 0.448376 -1.51087 0
M  V30 6237 C 590.725 1.52588 -1.71025 0
M  V30 6238 C 591.725 1.49958 -0.580442 0
M  V30 6239 O 592.915 1.52176 -0.847833 0
M  V30 6240 C 590.047 2.92163 -1.75652 0
M  V30 6241 H 591.24 1.36218 -2.67179 0
M  V30 6242 H 588.793 0.676313 -1.4091 0
M  V30 6243 H 589.528 3.13951 -0.812724 0
M  V30 6244 H 589.313 2.95478 -2.57751 0
M  V30 6245 H 590.803 3.70349 -1.92953 0
M  V30 6246 N 591.24 1.41047 0.703093 0
M  V30 6247 C 592.15 1.44645 1.84703 0
M  V30 6248 C 593.166 0.337778 1.7069 0
M  V30 6249 O 594.342 0.584327 1.92737 0
M  V30 6250 C 591.407 1.31928 3.20618 0
M  V30 6251 C 590.468 2.53047 3.46794 0
M  V30 6252 C 589.701 2.40927 4.76224 0
M  V30 6253 O 589.924 1.42978 5.5219 0
M  V30 6254 O 588.858 3.30543 5.03016 0
M  V30 6255 H 592.684 2.41139 1.84624 0
M  V30 6256 H 590.269 1.22504 0.855167 0
M  V30 6257 H 592.151 1.27092 4.01778 0
M  V30 6258 H 590.826 0.385469 3.21397 0
M  V30 6259 H 589.733 2.6346 2.65593 0
M  V30 6260 H 591.066 3.45231 3.50822 0
M  V30 6261 N 592.718 -0.936591 1.26751 0
M  V30 6262 C 593.958 -1.69796 1.13792 0
M  V30 6263 C 594.322 -1.89437 -0.312671 0
M  V30 6264 O 595.523 -2.62806 -0.564489 0
M  V30 6265 C 593.794 -3.03297 1.89065 0
M  V30 6266 S 595.353 -3.94461 1.92214 0
M  V30 6267 H 592.171 -0.583412 0.406389 0
M  V30 6268 H 594.773 -1.11575 1.60535 0
M  V30 6269 H 593.477 -2.86687 2.93665 0
M  V30 6270 H 593.008 -3.66575 1.42781 0
M  V30 6271 H 595.023 -4.85767 1.01215 0
M  V30 6272 N 594.196 -1.08629 -1.14182 0
M  V30 6273 C 595.126 -0.740003 -2.21464 0
M  V30 6274 C 596.107 0.278591 -1.67803 0
M  V30 6275 O 597.292 0.148461 -1.93632 0
M  V30 6276 C 594.422 -0.150952 -3.46972 0
M  V30 6277 C 593.376 -1.09815 -4.13672 0
M  V30 6278 C 592.702 -0.3712 -5.3341 0
M  V30 6279 C 594.002 -2.43722 -4.61949 0
M  V30 6280 H 595.696 -1.63697 -2.50686 0
M  V30 6281 H 593.242 -0.788526 -1.20492 0
M  V30 6282 H 595.195 0.103325 -4.21273 0
M  V30 6283 H 593.919 0.781164 -3.1712 0
M  V30 6284 H 592.578 -1.33756 -3.41328 0
M  V30 6285 H 592.226 0.564792 -4.99819 0
M  V30 6286 H 591.926 -1.00267 -5.78982 0
M  V30 6287 H 593.45 -0.12503 -6.10472 0
M  V30 6288 H 594.864 -2.24034 -5.27714 0
M  V30 6289 H 593.261 -3.02582 -5.18232 0
M  V30 6290 H 594.331 -3.05082 -3.76899 0
M  V30 6291 N 595.674 1.31259 -0.872281 0
M  V30 6292 C 597.09 1.49283 -0.564521 0
M  V30 6293 C 597.29 1.80243 0.900807 0
M  V30 6294 O 596.346 1.88246 1.68284 0
M  V30 6295 C 597.659 2.62503 -1.46673 0
M  V30 6296 C 599.207 2.76386 -1.46901 0
M  V30 6297 C 599.682 3.92705 -2.35684 0
M  V30 6298 N 601.173 3.99995 -2.33577 0
M  V30 6299 C 601.908 4.89276 -2.98992 0
M  V30 6300 N 601.404 5.83443 -3.73585 0
M  V30 6301 N 603.197 4.82541 -2.88289 0
M  V30 6302 H 595.348 1.09432 -1.82039 0
M  V30 6303 H 597.611 0.540949 -0.77851 0
M  V30 6304 H 597.317 2.46407 -2.50951 0
M  V30 6305 H 597.191 3.58695 -1.16696 0
M  V30 6306 H 599.578 2.91894 -0.433796 0
M  V30 6307 H 599.659 1.80853 -1.80903 0
M  V30 6308 H 599.303 3.77954 -3.39283 0
M  V30 6309 H 599.233 4.87549 -1.99006 0
M  V30 6310 H 601.724 3.32624 -1.7936 0
M  V30 6311 H 602.037 6.48303 -4.20622 0
M  V30 6312 H 600.382 5.83415 -3.77694 0
M  V30 6313 H 603.573 4.07951 -2.2955 0
M  V30 6314 H 603.746 5.51916 -3.39549 0
M  V30 6315 N 597.152 0.631951 1.44375 0
M  V30 6316 C 598.568 0.297642 1.568 0
M  V30 6317 C 598.768 -1.19916 1.61934 0
M  V30 6318 O 597.824 -1.98324 1.56281 0
M  V30 6319 C 599.137 0.990286 2.83926 0
M  V30 6320 C 600.685 0.968507 2.97639 0
M  V30 6321 C 601.16 1.64163 4.27568 0
M  V30 6322 N 602.651 1.60826 4.34384 0
M  V30 6323 C 603.386 2.09802 5.33639 0
M  V30 6324 N 602.882 2.66973 6.39294 0
M  V30 6325 N 604.675 2.00426 5.25153 0
M  V30 6326 H 596.826 1.60353 1.39286 0
M  V30 6327 H 599.089 0.673142 0.667521 0
M  V30 6328 H 598.795 2.04519 2.8612 0
M  V30 6329 H 598.669 0.528563 3.73478 0
M  V30 6330 H 601.056 -0.0779247 2.94997 0
M  V30 6331 H 601.137 1.46873 2.09433 0
M  V30 6332 H 600.781 2.68752 4.3097 0
M  V30 6333 H 600.711 1.11624 5.14634 0
M  V30 6334 H 603.202 1.19087 3.58646 0
M  V30 6335 H 603.515 3.02074 7.11316 0
M  V30 6336 H 601.86 2.71024 6.39977 0
M  V30 6337 H 605.051 1.55483 4.41523 0
M  V30 6338 H 605.224 2.38906 6.02352 0
M  V30 6339 N 598.631 -1.53133 0.372548 0
M  V30 6340 C 599.856 -2.0625 -0.218098 0
M  V30 6341 C 600.281 -1.24375 -1.41111 0
M  V30 6342 O 599.639 -0.264554 -1.79359 0
M  V30 6343 C 599.687 -3.55858 -0.582876 0
M  V30 6344 O 598.791 -3.76667 -1.67917 0
M  V30 6345 H 598.132 -0.663317 -0.030104 0
M  V30 6346 H 600.662 -1.97477 0.535169 0
M  V30 6347 H 600.672 -3.99007 -0.851925 0
M  V30 6348 H 599.347 -4.14892 0.289428 0
M  V30 6349 H 597.924 -3.45413 -1.40513 0
M  V30 6350 N 600.109 -0.101901 -1.5727 0
M  V30 6351 C 601.334 0.571759 -1.99363 0
M  V30 6352 C 601.759 1.60507 -0.980768 0
M  V30 6353 O 601.117 1.81231 0.0498517 0
M  V30 6354 C 601.165 1.18996 -3.404 0
M  V30 6355 O 600.269 2.30572 -3.41922 0
M  V30 6356 H 599.61 0.144449 -0.648098 0
M  V30 6357 H 602.14 -0.185325 -2.03759 0
M  V30 6358 H 602.15 1.52962 -3.78241 0
M  V30 6359 H 600.825 0.432984 -4.1364 0
M  V30 6360 H 599.402 1.98173 -3.15883 0
M  V30 6361 N 601.587 1.56661 0.17182 0
M  V30 6362 C 602.55 1.9549 1.19651 0
M  V30 6363 C 603.55 0.838501 1.37207 0
M  V30 6364 O 604.74 1.10556 1.34622 0
M  V30 6365 C 601.872 2.24927 2.56166 0
M  V30 6366 H 603.065 2.87184 0.864007 0
M  V30 6367 H 600.618 1.50711 0.41425 0
M  V30 6368 H 601.353 1.35944 2.94431 0
M  V30 6369 H 601.138 3.06301 2.4479 0
M  V30 6370 H 602.628 2.55891 3.30014 0
M  V30 6371 N 603.065 -0.440357 1.51323 0
M  V30 6372 C 604.476 -1.02032 1.56353 0
M  V30 6373 C 604.827 -1.92382 0.385197 0
M  V30 6374 O 603.952 -2.10583 -0.498373 0
M  V30 6375 C 604.547 -1.85723 2.83359 0
M  V30 6376 C 603.106 -2.38774 2.90971 0
M  V30 6377 C 602.253 -1.17908 2.50984 0
M  V30 6378 H 605.204 -0.221744 1.57143 0
M  V30 6379 H 605.225 -2.71141 2.66951 0
M  V30 6380 H 604.737 -1.19939 3.69102 0
M  V30 6381 H 602.838 -3.08021 2.09651 0
M  V30 6382 H 602.951 -2.71778 3.94555 0
M  V30 6383 H 601.315 -1.52347 2.04114 0
M  V30 6384 H 602.098 -0.537393 3.39068 0
M  V30 6385 N 604.543 -1.41418 -0.695603 0
M  V30 6386 C 605.506 -1.42988 -1.79129 0
M  V30 6387 C 606.506 -0.320514 -1.57573 0
M  V30 6388 O 607.696 -0.58039 -1.64247 0
M  V30 6389 C 604.828 -1.24122 -3.175 0
M  V30 6390 H 606.021 -2.40526 -1.7913 0
M  V30 6391 H 603.574 -1.2756 -0.903225 0
M  V30 6392 H 604.309 -0.274253 -3.23138 0
M  V30 6393 H 604.094 -2.045 -3.34547 0
M  V30 6394 H 605.584 -1.28056 -3.97481 0
M  V30 6395 N 606.021 0.929856 -1.27246 0
M  V30 6396 C 607.432 1.49223 -1.12203 0
M  V30 6397 C 607.783 1.93989 0.293731 0
M  V30 6398 O 606.908 1.80978 1.18642 0
M  V30 6399 C 607.503 2.71198 -2.0307 0
M  V30 6400 C 606.062 3.23666 -1.92139 0
M  V30 6401 C 605.209 1.96409 -1.95752 0
M  V30 6402 H 608.16 0.744181 -1.4017 0
M  V30 6403 H 608.181 3.45905 -1.58524 0
M  V30 6404 H 607.693 2.38585 -3.06102 0
M  V30 6405 H 605.794 3.61042 -0.920834 0
M  V30 6406 H 605.907 3.90006 -2.78267 0
M  V30 6407 H 604.271 2.12806 -1.39949 0
M  V30 6408 H 605.054 1.66113 -3.00436 0
M  V30 6409 N 607.499 1.09233 1.13605 0
M  V30 6410 C 608.727 0.848908 1.88683 0
M  V30 6411 C 609.142 -0.599667 1.79024 0
M  V30 6412 O 608.499 -1.41265 1.15544 0
M  V30 6413 C 608.55 1.27273 3.38355 0
M  V30 6414 O 608.271 2.66449 3.47759 0
M  V30 6415 C 609.772 1.0614 4.30406 0
M  V30 6416 H 606.992 0.305549 0.597395 0
M  V30 6417 H 609.536 1.4538 1.43823 0
M  V30 6418 H 607.691 0.711776 3.80805 0
M  V30 6419 H 608.105 2.84264 4.40788 0
M  V30 6420 H 609.579 1.40725 5.33761 0
M  V30 6421 H 610.056 -0.000960332 4.392 0
M  V30 6422 H 610.662 1.60821 3.93722 0
M  V30 6423 N 608.977 -1.30795 0.87923 0
M  V30 6424 C 609.94 -2.26563 0.346676 0
M  V30 6425 C 610.94 -1.52578 -0.507597 0
M  V30 6426 O 612.13 -1.71318 -0.315575 0
M  V30 6427 C 609.262 -3.37115 -0.506611 0
M  V30 6428 H 610.455 -2.75183 1.19223 0
M  V30 6429 H 608.008 -1.41886 0.655598 0
M  V30 6430 H 608.743 -2.93802 -1.37299 0
M  V30 6431 H 608.528 -3.91959 0.105218 0
M  V30 6432 H 610.018 -4.08412 -0.871192 0
M  V30 6433 N 610.455 -0.639598 -1.44038 0
M  V30 6434 C 611.683 -0.154811 -2.0632 0
M  V30 6435 C 612.098 1.17406 -1.47856 0
M  V30 6436 O 611.455 1.72193 -0.604638 0
M  V30 6437 C 611.506 -0.0429958 -3.61474 0
M  V30 6438 O 611.227 -1.31932 -4.17763 0
M  V30 6439 C 612.728 0.469486 -4.40807 0
M  V30 6440 H 609.948 -0.0835862 -0.665773 0
M  V30 6441 H 612.492 -0.876397 -1.84769 0
M  V30 6442 H 610.647 0.629075 -3.82258 0
M  V30 6443 H 611.061 -1.16965 -5.11292 0
M  V30 6444 H 612.535 0.496712 -5.49761 0
M  V30 6445 H 613.012 1.49819 -4.12857 0
M  V30 6446 H 613.618 -0.169624 -4.24962 0
M  V30 6447 N 611.933 1.52934 -0.380664 0
M  V30 6448 C 612.896 2.24809 0.446473 0
M  V30 6449 C 613.896 1.26133 0.997347 0
M  V30 6450 O 615.086 1.50297 0.880714 0
M  V30 6451 C 612.218 2.99649 1.62553 0
M  V30 6452 H 613.411 2.99343 -0.182677 0
M  V30 6453 H 610.964 1.55736 -0.132618 0
M  V30 6454 H 611.699 2.29395 2.29235 0
M  V30 6455 H 611.484 3.72066 1.23732 0
M  V30 6456 H 612.974 3.54246 2.21133 0
M  V30 6457 N 613.412 0.11024 1.57214 0
M  V30 6458 C 614.375 -0.828808 2.1369 0
M  V30 6459 C 615.375 -1.20059 1.06969 0
M  V30 6460 O 616.565 -1.12754 1.32786 0
M  V30 6461 C 613.697 -2.11959 2.66994 0
M  V30 6462 H 614.89 -0.338146 2.97988 0
M  V30 6463 H 612.443 -0.138913 1.55681 0
M  V30 6464 H 613.178 -2.65476 1.8626 0
M  V30 6465 H 612.963 -1.86258 3.45037 0
M  V30 6466 H 614.453 -2.79105 3.10629 0
M  V30 6467 N 614.89 -1.56749 -0.16351 0
M  V30 6468 C 616.138 -1.82074 -0.87713 0
M  V30 6469 C 616.459 -0.688503 -1.82441 0
M  V30 6470 O 615.729 0.291085 -1.93725 0
M  V30 6471 H 614.309 -0.671677 -0.326893 0
M  V30 6472 H 616.971 -1.9423 -0.161459 0
M  V30 6473 H 616.067 -2.76407 -1.44934 0
M  V30 6474 N 616.368 0.432326 -1.51554 0
M  V30 6475 C 617.593 1.20824 -1.68571 0
M  V30 6476 C 618.018 1.84126 -0.384596 0
M  V30 6477 O 617.376 1.69025 0.655751 0
M  V30 6478 C 617.424 2.26429 -2.80646 0
M  V30 6479 O 616.528 3.32032 -2.44598 0
M  V30 6480 H 615.869 0.353765 -0.561913 0
M  V30 6481 H 618.399 0.509916 -1.98144 0
M  V30 6482 H 618.409 2.71133 -3.04878 0
M  V30 6483 H 617.084 1.79733 -3.75058 0
M  V30 6484 H 615.661 2.92769 -2.30956 0
M  V30 6485 N 617.846 1.41785 0.688094 0
M  V30 6486 C 618.778 1.40159 1.81351 0
M  V30 6487 C 619.791 0.30262 1.59963 0
M  V30 6488 O 620.98 0.564841 1.69327 0
M  V30 6489 C 618.08 1.16517 3.1824 0
M  V30 6490 C 617.253 2.38597 3.66593 0
M  V30 6491 C 616.312 2.10699 4.82174 0
M  V30 6492 O 615.338 2.83798 4.93404 0
M  V30 6493 N 616.54 1.10187 5.69947 0
M  V30 6494 H 619.305 2.3716 1.83236 0
M  V30 6495 H 616.866 1.36494 0.870697 0
M  V30 6496 H 618.858 0.957941 3.93199 0
M  V30 6497 H 617.428 0.280873 3.11336 0
M  V30 6498 H 616.648 2.74974 2.82459 0
M  V30 6499 H 617.936 3.19919 3.95638 0
M  V30 6500 H 617.334 0.497016 5.63512 0
M  V30 6501 H 615.891 0.954518 6.44773 0
M  V30 6502 N 619.324 -0.923095 1.27737 0
M  V30 6503 C 620.552 -1.70525 1.17171 0
M  V30 6504 C 620.967 -1.86847 -0.270881 0
M  V30 6505 O 620.324 -1.38879 -1.18401 0
M  V30 6506 C 620.375 -3.10242 1.85559 0
M  V30 6507 O 620.096 -2.94683 3.24182 0
M  V30 6508 C 621.597 -4.04586 1.81176 0
M  V30 6509 H 618.817 -0.533347 0.407163 0
M  V30 6510 H 621.361 -1.15599 1.68692 0
M  V30 6511 H 619.516 -3.62014 1.3793 0
M  V30 6512 H 619.93 -3.83045 3.58297 0
M  V30 6513 H 621.404 -5.00119 2.33633 0
M  V30 6514 H 621.881 -4.3218 0.782099 0
M  V30 6515 H 622.487 -3.58741 2.2844 0
M  V30 6516 N 620.802 -1.09834 -1.13024 0
M  V30 6517 C 621.734 -0.699379 -2.18269 0
M  V30 6518 C 622.747 0.260841 -1.60697 0
M  V30 6519 O 623.936 0.0462538 -1.7844 0
M  V30 6520 C 621.036 -0.0104537 -3.38898 0
M  V30 6521 C 620.209 -0.993275 -4.25973 0
M  V30 6522 C 619.268 -0.336982 -5.2512 0
M  V30 6523 O 618.294 -0.985892 -5.60597 0
M  V30 6524 N 619.496 0.90716 -5.73368 0
M  V30 6525 H 622.261 -1.60486 -2.5311 0
M  V30 6526 H 619.822 -0.986337 -1.28386 0
M  V30 6527 H 621.814 0.43991 -4.02302 0
M  V30 6528 H 620.384 0.797335 -3.0226 0
M  V30 6529 H 619.604 -1.62208 -3.5928 0
M  V30 6530 H 620.892 -1.65876 -4.81002 0
M  V30 6531 H 620.29 1.45384 -5.46699 0
M  V30 6532 H 618.847 1.30077 -6.38689 0
M  V30 6533 N 622.28 1.30327 -0.886154 0
M  V30 6534 C 623.508 2.00254 -0.520176 0
M  V30 6535 C 623.923 1.66419 0.891637 0
M  V30 6536 O 623.28 0.901951 1.58654 0
M  V30 6537 C 623.331 3.54916 -0.686775 0
M  V30 6538 O 623.052 3.87547 -2.04301 0
M  V30 6539 C 624.553 4.42115 -0.323945 0
M  V30 6540 H 621.773 0.640204 -0.200947 0
M  V30 6541 H 624.317 1.66183 -1.19178 0
M  V30 6542 H 622.472 3.8735 -0.0625273 0
M  V30 6543 H 622.886 4.82247 -2.06249 0
M  V30 6544 H 624.36 5.49808 -0.491407 0
M  V30 6545 H 624.837 4.32953 0.73811 0
M  V30 6546 H 625.443 4.15129 -0.924565 0
M  V30 6547 N 623.758 0.647228 1.43697 0
M  V30 6548 C 625.169 0.238689 1.85168 0
M  V30 6549 C 625.52 -1.21345 1.54175 0
M  V30 6550 O 624.645 -1.92542 0.987743 0
M  V30 6551 C 625.24 0.426422 3.36106 0
M  V30 6552 C 623.799 0.0722541 3.76331 0
M  V30 6553 C 622.946 0.732153 2.6746 0
M  V30 6554 H 625.897 0.851309 1.33934 0
M  V30 6555 H 625.918 -0.32987 3.79067 0
M  V30 6556 H 625.43 1.48339 3.58632 0
M  V30 6557 H 623.531 -0.982355 3.59417 0
M  V30 6558 H 623.644 0.493541 4.76551 0
M  V30 6559 H 622.008 0.16594 2.54159 0
M  V30 6560 H 622.791 1.79204 2.92816 0
M  V30 6561 N 625.236 -1.5273 0.388769 0
M  V30 6562 C 626.484 -2.01174 -0.193208 0
M  V30 6563 C 626.805 -1.27705 -1.47365 0
M  V30 6564 O 626.075 -0.396966 -1.91836 0
M  V30 6565 H 624.655 -0.743287 -0.0743871 0
M  V30 6566 H 627.317 -1.87826 0.520336 0
M  V30 6567 H 626.413 -3.09477 -0.403803 0
M  V30 6568 N 626.714 -0.118576 -1.57153 0
M  V30 6569 C 627.96 0.534078 -1.96263 0
M  V30 6570 C 628.315 1.64316 -1.0009 0
M  V30 6571 O 627.608 1.91575 -0.0308582 0
M  V30 6572 C 627.802 1.11303 -3.39627 0
M  V30 6573 C 627.631 0.0615624 -4.49658 0
M  V30 6574 C 626.401 -0.370103 -5.03943 0
M  V30 6575 C 628.599 -0.719249 -5.09246 0
M  V30 6576 N 626.581 -1.40738 -5.9755 0
M  V30 6577 C 627.952 -1.60774 -5.98792 0
M  V30 6578 C 630.007 -0.770183 -4.91907 0
M  V30 6579 C 628.71 -2.54272 -6.72858 0
M  V30 6580 C 630.736 -1.69288 -5.66653 0
M  V30 6581 C 630.098 -2.56894 -6.55885 0
M  V30 6582 H 626.197 0.165072 -0.764379 0
M  V30 6583 H 628.781 -0.206596 -1.93601 0
M  V30 6584 H 626.952 1.82342 -3.42937 0
M  V30 6585 H 628.684 1.72996 -3.65861 0
M  V30 6586 H 625.439 0.0222121 -4.73595 0
M  V30 6587 H 625.863 -1.92493 -6.49057 0
M  V30 6588 H 630.505 -0.106999 -4.22665 0
M  V30 6589 H 628.223 -3.21605 -7.41347 0
M  V30 6590 H 631.809 -1.73772 -5.55243 0
M  V30 6591 H 630.689 -3.27131 -7.1271 0
M  V30 6592 N 628.193 1.56834 0.155195 0
M  V30 6593 C 629.604 1.72421 0.716082 0
M  V30 6594 C 629.955 0.731685 1.82046 0
M  V30 6595 O 629.08 -0.103481 2.16152 0
M  V30 6596 C 629.675 3.12629 1.30571 0
M  V30 6597 C 628.234 3.29846 1.81325 0
M  V30 6598 C 627.381 2.68359 0.698494 0
M  V30 6599 H 630.332 1.58544 -0.0703861 0
M  V30 6600 H 630.353 3.12174 2.1755 0
M  V30 6601 H 629.865 3.84844 0.501701 0
M  V30 6602 H 627.966 2.62614 2.64319 0
M  V30 6603 H 628.079 4.37727 1.9476 0
M  V30 6604 H 626.443 2.28604 1.12305 0
M  V30 6605 H 627.226 3.43171 -0.0939366 0
M  V30 6606 N 629.671 -0.424282 1.51781 0
M  V30 6607 C 630.911 -1.18194 1.66762 0
M  V30 6608 C 631.275 -1.88164 0.381857 0
M  V30 6609 O 632.476 -2.65692 0.407586 0
M  V30 6610 C 630.747 -2.16173 2.84612 0
M  V30 6611 S 632.306 -3.0025 3.19993 0
M  V30 6612 H 629.124 -0.400626 0.587384 0
M  V30 6613 H 631.726 -0.471499 1.89729 0
M  V30 6614 H 630.43 -1.6343 3.76455 0
M  V30 6615 H 629.961 -2.91778 2.63873 0
M  V30 6616 H 631.976 -4.1796 2.67439 0
M  V30 6617 N 631.149 -1.42148 -0.680565 0
M  V30 6618 C 632.56 -1.3768 -1.26099 0
M  V30 6619 C 632.911 -0.0672348 -1.96085 0
M  V30 6620 O 632.036 0.834172 -1.99676 0
M  V30 6621 C 632.631 -2.49387 -2.29328 0
M  V30 6622 C 631.19 -2.4827 -2.82911 0
M  V30 6623 C 630.337 -2.2847 -1.57152 0
M  V30 6624 H 633.288 -1.51446 -0.474326 0
M  V30 6625 H 633.309 -2.19307 -3.10941 0
M  V30 6626 H 632.821 -3.44686 -1.78363 0
M  V30 6627 H 630.922 -1.56773 -3.38013 0
M  V30 6628 H 631.035 -3.45109 -3.3232 0
M  V30 6629 H 629.399 -1.76623 -1.83511 0
M  V30 6630 H 630.182 -3.25816 -1.0816 0
M  V30 6631 N 632.627 0.916307 -1.28225 0
M  V30 6632 C 633.852 1.7043 -1.18188 0
M  V30 6633 C 634.277 1.86346 0.256274 0
M  V30 6634 O 633.635 1.37175 1.18544 0
M  V30 6635 C 633.683 3.07546 -1.88275 0
M  V30 6636 O 632.787 3.94904 -1.18848 0
M  V30 6637 H 632.128 0.521967 -0.410423 0
M  V30 6638 H 634.658 1.14589 -1.69501 0
M  V30 6639 H 634.668 3.57793 -1.96082 0
M  V30 6640 H 633.343 2.95279 -2.92887 0
M  V30 6641 H 631.92 3.53339 -1.19187 0
M  V30 6642 N 634.105 1.10431 1.1244 0
M  V30 6643 C 635.33 0.869089 1.88313 0
M  V30 6644 C 635.755 -0.574912 1.79099 0
M  V30 6645 O 635.113 -1.40496 1.14589 0
M  V30 6646 C 635.161 1.32208 3.3549 0
M  V30 6647 O 634.265 0.487092 4.09513 0
M  V30 6648 H 633.606 0.313894 0.585121 0
M  V30 6649 H 636.136 1.47111 1.42195 0
M  V30 6650 H 636.146 1.31201 3.86329 0
M  V30 6651 H 634.821 2.37364 3.41513 0
M  V30 6652 H 633.398 0.562372 3.68635 0
M  V30 6653 N 635.583 -1.29855 0.893053 0
M  V30 6654 C 636.86 -1.90694 0.435336 0
M  V30 6655 C 637.24 -1.8111 -1.08454 0
M  V30 6656 O 636.588 -1.23352 -1.92345 0
M  V30 6657 C 636.798 -3.36033 0.942472 0
M  V30 6658 C 638.146 -4.13083 0.982226 0
M  V30 6659 O 639.17 -3.4491 0.889686 0
M  V30 6660 O 638.029 -5.34896 1.12022 0
M  V30 6661 H 635.123 -0.815978 0.134567 0
M  V30 6662 H 637.669 -1.38367 0.982484 0
M  V30 6663 H 636.441 -3.37132 1.9864 0
M  V30 6664 H 636.064 -3.95828 0.374952 0
M  V30 6665 N 637.061 -0.65484 -1.43351 0
M  V30 6666 C 638.289 -0.176685 -2.06144 0
M  V30 6667 C 638.704 1.15831 -1.49093 0
M  V30 6668 O 638.061 1.71542 -0.622868 0
M  V30 6669 C 638.112 -0.0813326 -3.61408 0
M  V30 6670 O 637.833 -1.36355 -4.1634 0
M  V30 6671 C 639.334 0.422706 -4.4128 0
M  V30 6672 H 636.554 -0.0906429 -0.66485 0
M  V30 6673 H 639.098 -0.895945 -1.83829 0
M  V30 6674 H 637.253 0.588496 -3.82904 0
M  V30 6675 H 637.667 -1.22381 -5.10023 0
M  V30 6676 H 639.141 0.438375 -5.50257 0
M  V30 6677 H 639.618 1.45432 -4.14423 0
M  V30 6678 H 640.224 -0.214687 -4.24758 0
M  V30 6679 N 638.539 1.52521 -0.396863 0
M  V30 6680 C 639.489 2.2348 0.451722 0
M  V30 6681 C 640.473 1.2415 1.0235 0
M  V30 6682 O 641.665 1.4945 0.948348 0
M  V30 6683 C 638.794 3.05067 1.57445 0
M  V30 6684 C 637.88 4.11799 1.01404 0
M  V30 6685 N 638.271 5.05482 0.179234 0
M  V30 6686 C 636.569 4.27064 1.28578 0
M  V30 6687 C 637.27 5.81552 -0.131202 0
M  V30 6688 N 636.246 5.41523 0.474735 0
M  V30 6689 H 640.048 2.93269 -0.192534 0
M  V30 6690 H 637.562 1.61081 -0.206591 0
M  V30 6691 H 639.559 3.54446 2.19485 0
M  V30 6692 H 638.219 2.36816 2.22145 0
M  V30 6693 H 639.23 5.17573 -0.18411 0
M  V30 6694 H 635.907 3.70042 1.93327 0
M  V30 6695 H 637.297 6.67023 -0.808061 0
M  V30 6696 N 640.017 0.126909 1.57088 0
M  V30 6697 C 640.947 -0.816847 2.18746 0
M  V30 6698 C 641.928 -1.27161 1.12979 0
M  V30 6699 O 643.113 -1.33279 1.41246 0
M  V30 6700 C 640.243 -2.06398 2.79315 0
M  V30 6701 C 639.197 -1.74673 3.90735 0
M  V30 6702 C 638.523 -3.06482 4.38147 0
M  V30 6703 C 639.823 -1.0089 5.12463 0
M  V30 6704 H 641.517 -0.303032 2.97863 0
M  V30 6705 H 639.063 -0.144314 1.43275 0
M  V30 6706 H 641.016 -2.72885 3.2111 0
M  V30 6707 H 639.74 -2.60118 1.975 0
M  V30 6708 H 638.399 -1.10572 3.49527 0
M  V30 6709 H 638.047 -3.58152 3.5318 0
M  V30 6710 H 637.747 -2.86025 5.13287 0
M  V30 6711 H 639.271 -3.74073 4.82599 0
M  V30 6712 H 640.685 -1.57546 5.51228 0
M  V30 6713 H 639.082 -0.905006 5.93237 0
M  V30 6714 H 640.152 0.00297335 4.849 0
M  V30 6715 N 641.495 -1.56914 -0.146875 0
M  V30 6716 C 642.906 -1.72799 -0.706928 0
M  V30 6717 C 643.257 -0.741329 -1.81656 0
M  V30 6718 O 642.382 0.0920162 -2.16204 0
M  V30 6719 C 642.977 -3.13317 -1.28911 0
M  V30 6720 C 641.536 -3.30803 -1.79573 0
M  V30 6721 C 640.683 -2.68725 -0.684252 0
M  V30 6722 H 643.634 -1.58504 0.0787931 0
M  V30 6723 H 643.655 -3.13323 -2.15891 0
M  V30 6724 H 643.167 -3.85104 -0.481284 0
M  V30 6725 H 641.268 -2.64012 -2.62923 0
M  V30 6726 H 641.381 -4.38754 -1.92436 0
M  V30 6727 H 639.745 -2.29196 -1.11091 0
M  V30 6728 H 640.528 -3.43117 0.112134 0
M  V30 6729 N 642.974 0.416227 -1.52004 0
M  V30 6730 C 644.202 1.18573 -1.69553 0
M  V30 6731 C 644.617 1.84472 -0.401919 0
M  V30 6732 O 643.974 1.71593 0.621463 0
M  V30 6733 C 644.025 2.25413 -2.82615 0
M  V30 6734 O 643.746 1.62205 -4.06966 0
M  V30 6735 C 645.247 3.15297 -3.11613 0
M  V30 6736 H 642.467 0.356582 -0.56841 0
M  V30 6737 H 645.011 0.490618 -1.98528 0
M  V30 6738 H 643.166 2.90604 -2.56179 0
M  V30 6739 H 643.58 2.3298 -4.69916 0
M  V30 6740 H 645.054 3.86351 -3.94255 0
M  V30 6741 H 645.531 3.77264 -2.24874 0
M  V30 6742 H 646.137 2.55783 -3.39787 0
M  V30 6743 N 644.452 1.42507 0.673017 0
M  V30 6744 C 645.402 1.4258 1.77919 0
M  V30 6745 C 646.386 0.296885 1.58137 0
M  V30 6746 O 647.578 0.539243 1.68586 0
M  V30 6747 C 644.707 1.33238 3.1639 0
M  V30 6748 C 643.793 2.51081 3.41788 0
M  V30 6749 N 644.184 3.76498 3.37761 0
M  V30 6750 C 642.482 2.4538 3.72431 0
M  V30 6751 C 643.183 4.54784 3.62693 0
M  V30 6752 N 642.159 3.8522 3.83544 0
M  V30 6753 H 645.961 2.37442 1.73201 0
M  V30 6754 H 643.475 1.36881 0.873924 0
M  V30 6755 H 645.472 1.31372 3.9566 0
M  V30 6756 H 644.132 0.393794 3.22303 0
M  V30 6757 H 645.143 4.09068 3.17622 0
M  V30 6758 H 641.82 1.60109 3.85579 0
M  V30 6759 H 643.21 5.63774 3.65525 0
M  V30 6760 N 645.93 -0.909495 1.28709 0
M  V30 6761 C 647.155 -1.69801 1.1909 0
M  V30 6762 C 647.58 -1.86479 -0.246388 0
M  V30 6763 O 646.938 -1.37802 -1.17815 0
M  V30 6764 C 646.986 -3.06543 1.89904 0
M  V30 6765 O 646.09 -3.94268 1.2094 0
M  V30 6766 H 645.431 -0.519783 0.413185 0
M  V30 6767 H 647.961 -1.13689 1.70106 0
M  V30 6768 H 647.971 -3.56748 1.97977 0
M  V30 6769 H 646.646 -2.93722 2.94449 0
M  V30 6770 H 645.223 -3.52702 1.2106 0
M  V30 6771 N 647.408 -1.11026 -1.11852 0
M  V30 6772 C 648.656 -0.854769 -1.83134 0
M  V30 6773 C 648.977 0.621375 -1.84835 0
M  V30 6774 O 648.247 1.45129 -1.31584 0
M  V30 6775 H 646.827 -0.313229 -0.678157 0
M  V30 6776 H 649.489 -1.40178 -1.35411 0
M  V30 6777 H 648.585 -1.22311 -2.87135 0
M  V30 6778 N 648.886 1.2938 -0.899927 0
M  V30 6779 C 650.111 2.00228 -0.540692 0
M  V30 6780 C 650.536 1.66909 0.867359 0
M  V30 6781 O 649.894 0.893824 1.57735 0
M  V30 6782 C 649.942 3.52921 -0.740232 0
M  V30 6783 O 649.046 4.11879 0.207154 0
M  V30 6784 H 648.387 0.629505 -0.211233 0
M  V30 6785 H 650.917 1.6487 -1.21158 0
M  V30 6786 H 650.927 4.0287 -0.644973 0
M  V30 6787 H 649.602 3.76508 -1.76677 0
M  V30 6788 H 648.179 3.72845 0.0643315 0
M  V30 6789 N 650.364 0.662433 1.43002 0
M  V30 6790 C 651.294 -0.00979809 2.33498 0
M  V30 6791 C 652.275 -0.802329 1.49989 0
M  V30 6792 O 653.46 -0.761964 1.78627 0
M  V30 6793 C 650.59 -0.970446 3.33466 0
M  V30 6794 C 649.544 -0.287383 4.27034 0
M  V30 6795 C 648.87 -1.36012 5.17112 0
M  V30 6796 C 650.17 0.82595 5.15728 0
M  V30 6797 H 651.864 0.745959 2.89958 0
M  V30 6798 H 649.41 0.360172 1.39423 0
M  V30 6799 H 651.363 -1.44971 3.95679 0
M  V30 6800 H 650.087 -1.75748 2.75282 0
M  V30 6801 H 648.746 0.17152 3.66199 0
M  V30 6802 H 648.394 -2.13882 4.55262 0
M  V30 6803 H 648.094 -0.908276 5.80538 0
M  V30 6804 H 649.618 -1.84056 5.82199 0
M  V30 6805 H 651.032 0.42845 5.71697 0
M  V30 6806 H 649.429 1.20282 5.87922 0
M  V30 6807 H 650.499 1.68003 4.54866 0
M  V30 6808 O 651.881 -1.51951 0.5471 0
M  V30 6809 H 652.572 -1.93655 0.0418362 0
M  V30 END ATOM
M  V30 BEGIN BOND
M  V30 END BOND
M  V30 END CTAB
M  END
$$$$
