drugbank_target|O25096 NH(3)-dependent NAD(+) synthetase (DB04099)
 OpenBabel12092119593D

  0  0  0     0  0            999 V3000
M  V30 BEGIN CTAB
M  V30 COUNTS 4163 4204 0 0 0
M  V30 BEGIN ATOM
M  V30 1 H -0.908 1.98254 -0.117106 0
M  V30 2 N 0 1.576 0 0
M  V30 3 C 0.933 2.03868 1.02534 0
M  V30 4 C 1.911 0.928543 1.3348 0
M  V30 5 O 3.095 1.19667 1.45644 0
M  V30 6 C 0.222 2.43627 2.35294 0
M  V30 7 C -0.732 3.65373 2.2001 0
M  V30 8 S 0.101 5.13292 1.52614 0
M  V30 9 C 1.257 5.56322 2.86805 0
M  V30 10 H 1.49 2.90518 0.631377 0
M  V30 11 H -0.977 1.52953 0.210867 0
M  V30 12 H 0.981 2.67203 3.11629 0
M  V30 13 H -0.358 1.57376 2.7183 0
M  V30 14 H -1.165 3.90944 3.18086 0
M  V30 15 H -1.563 3.418 1.51819 0
M  V30 16 H 0.729 5.58782 3.83104 0
M  V30 17 H 1.672 6.56266 2.65933 0
M  V30 18 H 2.08 4.83886 2.90714 0
M  V30 19 N 1.4781 -0.272755 1.55222 0
M  V30 20 C 2.4101 -1.35946 1.8453 0
M  V30 21 C 3.4231 -1.45525 0.729818 0
M  V30 22 O 4.6121 -1.47337 1.00767 0
M  V30 23 C 1.7121 -2.74069 1.99347 0
M  V30 24 C 0.8851 -2.87079 3.30007 0
M  V30 25 C -0.0559 -4.05879 3.34886 0
M  V30 26 O -1.0299 -3.96626 4.08261 0
M  V30 27 N 0.1721 -5.17857 2.62307 0
M  V30 28 H 2.9371 -1.11149 2.78327 0
M  V30 29 H 0.4981 -0.462869 1.55142 0
M  V30 30 H 2.4901 -3.51838 1.99981 0
M  V30 31 H 1.0601 -2.91688 1.12415 0
M  V30 32 H 0.2801 -1.96193 3.41909 0
M  V30 33 H 1.5681 -2.92701 4.16177 0
M  V30 34 H 0.9661 -5.28261 2.02377 0
M  V30 35 H -0.4769 -5.93855 2.68663 0
M  V30 36 N 2.9562 -1.48159 -0.537278 0
M  V30 37 C 3.9032 -1.62138 -1.64256 0
M  V30 38 C 4.8732 -0.463668 -1.59497 0
M  V30 39 O 6.0582 -0.686241 -1.78032 0
M  V30 40 C 3.1982 -1.66028 -3.02537 0
M  V30 41 C 2.3112 -2.92855 -3.17585 0
M  V30 42 C 1.4462 -2.87952 -4.46382 0
M  V30 43 C 0.4852 -4.09516 -4.54932 0
M  V30 44 N -0.3778 -4.02733 -5.75109 0
M  V30 45 H 4.4622 -2.56529 -1.51647 0
M  V30 46 H 1.9992 -1.27224 -0.738414 0
M  V30 47 H 3.9572 -1.66265 -3.82638 0
M  V30 48 H 2.5872 -0.751331 -3.13934 0
M  V30 49 H 1.6392 -3.02395 -2.30784 0
M  V30 50 H 2.9512 -3.82822 -3.19764 0
M  V30 51 H 2.1052 -2.8655 -5.34765 0
M  V30 52 H 0.8442 -1.95702 -4.46712 0
M  V30 53 H -0.1508 -4.11201 -3.64957 0
M  V30 54 H 1.0742 -5.02917 -4.56346 0
M  V30 55 H -0.9798 -3.13299 -5.76351 0
M  V30 56 H -1.0628 -4.86397 -5.78752 0
M  V30 57 H 0.2052 -4.05379 -6.65799 0
M  V30 58 N 4.4343 0.785586 -1.36625 0
M  V30 59 C 5.7113 1.53198 -1.21613 0
M  V30 60 C 6.0913 2.10187 0.196113 0
M  V30 61 O 5.4393 1.94318 1.20219 0
M  V30 62 C 5.6493 2.62388 -2.30116 0
M  V30 63 C 6.9973 3.30167 -2.66974 0
M  V30 64 O 8.0213 2.72674 -2.29188 0
M  V30 65 O 6.8803 4.34077 -3.32023 0
M  V30 66 H 3.9743 0.677865 -0.473738 0
M  V30 67 H 6.5203 0.823739 -1.48367 0
M  V30 68 H 5.2923 2.18299 -3.24748 0
M  V30 69 H 4.9153 3.40827 -2.0475 0
M  V30 70 N 5.9124 1.20967 1.01018 0
M  V30 71 C 7.1424 1.04803 1.78044 0
M  V30 72 C 7.5504 -0.405462 1.84804 0
M  V30 73 O 6.8934 -1.2932 1.30468 0
M  V30 74 C 6.9554 1.56377 3.23707 0
M  V30 75 C 6.6194 3.04767 3.40538 0
M  V30 76 C 7.6164 4.02366 3.29239 0
M  V30 77 C 5.3014 3.43862 3.66147 0
M  V30 78 C 7.2954 5.37049 3.43304 0
M  V30 79 C 4.9824 4.78699 3.79855 0
M  V30 80 C 5.9804 5.75101 3.68439 0
M  V30 81 O 5.6684 7.07493 3.81719 0
M  V30 82 H 5.4004 0.368778 0.56655 0
M  V30 83 H 7.9544 1.60642 1.27997 0
M  V30 84 H 6.1844 0.949297 3.74867 0
M  V30 85 H 7.8734 1.36136 3.8239 0
M  V30 86 H 8.6394 3.73506 3.09384 0
M  V30 87 H 4.5184 2.69364 3.74118 0
M  V30 88 H 8.0624 6.12277 3.34309 0
M  V30 89 H 3.9594 5.07247 3.99213 0
M  V30 90 H 4.7274 7.1483 3.98697 0
M  V30 91 N 7.3905 -1.2043 1.01659 0
M  V30 92 C 8.3225 -2.22626 0.544988 0
M  V30 93 C 9.3355 -1.58479 -0.372609 0
M  V30 94 O 10.5245 -1.77679 -0.170958 0
M  V30 95 C 7.6245 -3.38141 -0.22663 0
M  V30 96 C 6.7975 -4.31877 0.692876 0
M  V30 97 C 5.8565 -5.26191 -0.0311616 0
M  V30 98 O 4.8825 -5.6612 0.591343 0
M  V30 99 N 6.0845 -5.65618 -1.30601 0
M  V30 100 H 8.8495 -2.63716 1.42388 0
M  V30 101 H 6.4105 -1.34971 0.894116 0
M  V30 102 H 8.4025 -3.98239 -0.72024 0
M  V30 103 H 6.9725 -2.95943 -1.00681 0
M  V30 104 H 6.1925 -3.69746 1.36679 0
M  V30 105 H 7.4805 -4.91426 1.31824 0
M  V30 106 H 6.8785 -5.3519 -1.83269 0
M  V30 107 H 5.4355 -6.28025 -1.74435 0
M  V30 108 N 8.8686 -0.792821 -1.36206 0
M  V30 109 C 9.8156 -0.191653 -2.30003 0
M  V30 110 C 10.7856 0.666453 -1.52143 0
M  V30 111 O 11.9706 0.61442 -1.80636 0
M  V30 112 C 9.1106 0.664848 -3.38635 0
M  V30 113 C 8.2236 -0.212175 -4.31479 0
M  V30 114 C 7.3586 0.651022 -5.27196 0
M  V30 115 C 6.3976 -0.227247 -6.11678 0
M  V30 116 N 5.5346 0.595127 -6.99573 0
M  V30 117 H 10.3746 -0.996978 -2.80828 0
M  V30 118 H 7.9116 -0.503206 -1.38225 0
M  V30 119 H 9.8696 1.17645 -4.00269 0
M  V30 120 H 8.4996 1.43557 -2.89122 0
M  V30 121 H 7.5516 -0.841777 -3.70969 0
M  V30 122 H 8.8636 -0.888751 -4.90818 0
M  V30 123 H 8.0176 1.2283 -5.94136 0
M  V30 124 H 6.7566 1.36121 -4.68319 0
M  V30 125 H 5.7616 -0.816904 -5.43697 0
M  V30 126 H 6.9866 -0.93509 -6.72631 0
M  V30 127 H 4.9326 1.28955 -6.432 0
M  V30 128 H 4.8496 -0.0236952 -7.55996 0
M  V30 129 H 6.1176 1.15613 -7.70879 0
M  V30 130 N 10.3467 1.47872 -0.545128 0
M  V30 131 C 11.2767 2.32661 0.197793 0
M  V30 132 C 12.2577 1.43041 0.920504 0
M  V30 133 O 13.4427 1.71912 0.90333 0
M  V30 134 C 10.5727 3.24569 1.23582 0
M  V30 135 C 9.5267 4.23333 0.630323 0
M  V30 136 C 8.8527 5.0448 1.77211 0
M  V30 137 C 10.1527 5.20704 -0.407974 0
M  V30 138 H 11.8467 2.95024 -0.510045 0
M  V30 139 H 9.3927 1.4187 -0.246731 0
M  V30 140 H 11.3457 3.8272 1.76362 0
M  V30 141 H 10.0697 2.60236 1.97344 0
M  V30 142 H 8.7287 3.6639 0.123922 0
M  V30 143 H 8.3767 4.36561 2.49847 0
M  V30 144 H 8.0767 5.71339 1.37281 0
M  V30 145 H 9.6007 5.65487 2.3034 0
M  V30 146 H 11.0147 5.7329 0.033305 0
M  V30 147 H 9.4117 5.95699 -0.725486 0
M  V30 148 H 10.4817 4.66917 -1.30828 0
M  V30 149 N 11.8248 0.280983 1.55075 0
M  V30 150 C 13.0738 -0.334784 1.98902 0
M  V30 151 C 13.3868 -1.56534 1.17288 0
M  V30 152 O 14.5928 -2.25443 1.51287 0
M  V30 153 C 13.0488 -0.646994 3.54037 0
M  V30 154 C 12.6568 0.564085 4.44435 0
M  V30 155 C 14.4008 -1.22506 4.06439 0
M  V30 156 C 12.3078 0.226137 5.90967 0
M  V30 157 H 11.2378 -0.128866 0.742906 0
M  V30 158 H 13.8888 0.386556 1.79382 0
M  V30 159 H 12.2708 -1.42739 3.6938 0
M  V30 160 H 13.4448 1.34082 4.40861 0
M  V30 161 H 11.7598 1.0594 4.02698 0
M  V30 162 H 14.3568 -1.49182 5.13468 0
M  V30 163 H 14.6998 -2.16085 3.55827 0
M  V30 164 H 15.2328 -0.50682 3.94558 0
M  V30 165 H 11.9718 1.12996 6.45687 0
M  V30 166 H 11.4918 -0.513717 5.97596 0
M  V30 167 H 13.1708 -0.179539 6.46751 0
M  V30 168 N 13.3029 -1.57598 0.00835791 0
M  V30 169 C 14.5489 -1.91211 -0.675732 0
M  V30 170 C 14.8819 -0.883139 -1.72958 0
M  V30 171 O 14.1569 0.097016 -1.94258 0
M  V30 172 C 14.4399 -3.35379 -1.31123 0
M  V30 173 C 14.2929 -4.48999 -0.268356 0
M  V30 174 C 15.6119 -3.7912 -2.23508 0
M  V30 175 H 12.7309 -0.695374 -0.244179 0
M  V30 176 H 15.3729 -1.89901 0.0613655 0
M  V30 177 H 13.5229 -3.36626 -1.93946 0
M  V30 178 H 15.1949 -4.59887 0.360844 0
M  V30 179 H 13.4379 -4.31873 0.408482 0
M  V30 180 H 14.1089 -5.46851 -0.752218 0
M  V30 181 H 16.5849 -3.79477 -1.70693 0
M  V30 182 H 15.4609 -4.80729 -2.64936 0
M  V30 183 H 15.7219 -3.13455 -3.11766 0
M  V30 184 N 14.781 0.264519 -1.55364 0
M  V30 185 C 16.011 1.01153 -1.80143 0
M  V30 186 C 16.419 1.80115 -0.579253 0
M  V30 187 O 15.762 1.77813 0.46132 0
M  V30 188 C 15.824 2.01098 -2.97993 0
M  V30 189 C 15.488 1.40995 -4.34706 0
M  V30 190 C 16.485 0.821316 -5.13372 0
M  V30 191 C 14.17 1.43461 -4.81378 0
M  V30 192 C 16.164 0.265339 -6.36847 0
M  V30 193 C 13.851 0.874771 -6.04807 0
M  V30 194 C 14.849 0.291146 -6.82379 0
M  V30 195 O 14.537 -0.260093 -8.03479 0
M  V30 196 H 14.269 0.304125 -0.603725 0
M  V30 197 H 16.823 0.298089 -2.03225 0
M  V30 198 H 15.053 2.76224 -2.70623 0
M  V30 199 H 16.742 2.61997 -3.1002 0
M  V30 200 H 17.508 0.794903 -4.78442 0
M  V30 201 H 13.387 1.87826 -4.21002 0
M  V30 202 H 16.931 -0.190837 -6.97339 0
M  V30 203 H 12.828 0.898452 -6.39217 0
M  V30 204 H 13.596 -0.150265 -8.18362 0
M  V30 205 N 16.2591 1.48442 0.529413 0
M  V30 206 C 17.1891 1.65902 1.64313 0
M  V30 207 C 18.1701 0.507897 1.6234 0
M  V30 208 O 19.3551 0.740503 1.79528 0
M  V30 209 C 16.4851 1.69911 3.02898 0
M  V30 210 C 15.4391 2.8453 3.19729 0
M  V30 211 C 14.7651 2.73629 4.59381 0
M  V30 212 C 16.0651 4.25821 3.02447 0
M  V30 213 H 17.7591 2.5914 1.49955 0
M  V30 214 H 15.3051 1.24709 0.719982 0
M  V30 215 H 17.2581 1.80715 3.80684 0
M  V30 216 H 15.9821 0.732524 3.18279 0
M  V30 217 H 14.6411 2.73283 2.44361 0
M  V30 218 H 14.2891 1.74938 4.71599 0
M  V30 219 H 13.9891 3.50541 4.71588 0
M  V30 220 H 15.5131 2.86401 5.39265 0
M  V30 221 H 16.9271 4.37898 3.70024 0
M  V30 222 H 15.3241 5.03735 3.26146 0
M  V30 223 H 16.3941 4.42244 1.98867 0
M  V30 224 N 17.7372 -0.778329 1.37039 0
M  V30 225 C 18.9772 -1.54973 1.33276 0
M  V30 226 C 19.3412 -1.91816 -0.0839376 0
M  V30 227 O 20.5422 -2.6767 -0.246228 0
M  V30 228 C 18.8132 -2.78517 2.23971 0
M  V30 229 S 20.3722 -3.6865 2.37997 0
M  V30 230 H 17.1902 -0.530639 0.473226 0
M  V30 231 H 19.7922 -0.915806 1.72723 0
M  V30 232 H 18.4962 -2.4952 3.25835 0
M  V30 233 H 18.0272 -3.46875 1.85584 0
M  V30 234 H 20.0422 -4.70182 1.58567 0
M  V30 235 N 19.2153 -1.21501 -1.00376 0
M  V30 236 C 20.4923 -0.941745 -1.71437 0
M  V30 237 C 20.8723 0.546114 -2.03914 0
M  V30 238 O 20.2203 1.51128 -1.71384 0
M  V30 239 C 20.4303 -1.82812 -2.97289 0
M  V30 240 C 21.7783 -2.07771 -3.70292 0
M  V30 241 O 22.8023 -1.80171 -3.07273 0
M  V30 242 O 21.6613 -2.54456 -4.83647 0
M  V30 243 H 18.7553 -0.353243 -0.747762 0
M  V30 244 H 21.3013 -1.32436 -1.06108 0
M  V30 245 H 20.0733 -2.83501 -2.69709 0
M  V30 246 H 19.6963 -1.4464 -3.70358 0
M  V30 247 N 20.6934 1.19889 -1.02296 0
M  V30 248 C 21.9404 1.8942 -0.715972 0
M  V30 249 C 22.2684 1.79251 0.754944 0
M  V30 250 O 21.5234 1.17526 1.56481 0
M  V30 251 C 21.8224 3.39883 -1.10518 0
M  V30 252 C 21.4884 3.70254 -2.57337 0
M  V30 253 C 20.1504 3.78254 -2.97452 0
M  V30 254 C 22.5024 3.84052 -3.52354 0
M  V30 255 C 19.8304 3.97514 -4.31509 0
M  V30 256 C 22.1824 4.04824 -4.86108 0
M  V30 257 C 20.8464 4.11054 -5.25919 0
M  V30 258 H 20.1164 0.693138 -0.261993 0
M  V30 259 H 22.7634 1.42012 -1.28472 0
M  V30 260 H 21.0684 3.8915 -0.454953 0
M  V30 261 H 22.7654 3.9199 -0.845261 0
M  V30 262 H 19.3554 3.64632 -2.25258 0
M  V30 263 H 23.5394 3.77221 -3.22518 0
M  V30 264 H 18.7954 4.00574 -4.61898 0
M  V30 265 H 22.9694 4.14442 -5.59653 0
M  V30 266 H 20.5964 4.2573 -6.29808 0
M  V30 267 N 22.1715 0.800033 1.35784 0
M  V30 268 C 23.1015 0.220184 2.3246 0
M  V30 269 C 24.0825 -0.65073 1.57161 0
M  V30 270 O 25.2675 -0.582359 1.85263 0
M  V30 271 C 22.3975 -0.637353 3.41402 0
M  V30 272 C 21.3515 0.134531 4.27789 0
M  V30 273 C 20.6775 -0.844285 5.27992 0
M  V30 274 C 21.9775 1.32979 5.05088 0
M  V30 275 H 23.6715 1.02787 2.81203 0
M  V30 276 H 21.2175 0.495717 1.35199 0
M  V30 277 H 23.1705 -1.05302 4.08031 0
M  V30 278 H 21.8945 -1.47785 2.91251 0
M  V30 279 H 20.5535 0.531296 3.6273 0
M  V30 280 H 20.2015 -1.68011 4.74111 0
M  V30 281 H 19.9015 -0.332184 5.8666 0
M  V30 282 H 21.4255 -1.2583 5.97494 0
M  V30 283 H 22.8395 0.98934 5.64699 0
M  V30 284 H 21.2365 1.77593 5.7322 0
M  V30 285 H 22.3065 2.11978 4.36111 0
M  V30 286 N 23.6496 -1.47581 0.552962 0
M  V30 287 C 24.5596 -2.33743 -0.200353 0
M  V30 288 C 25.5756 -1.47928 -0.916151 0
M  V30 289 O 26.7516 -1.80865 -0.885993 0
M  V30 290 C 23.8166 -3.24536 -1.21973 0
M  V30 291 C 22.8776 -4.26238 -0.511819 0
M  V30 292 C 22.1106 -5.12693 -1.48263 0
M  V30 293 O 22.3336 -5.01525 -2.71714 0
M  V30 294 O 21.2676 -5.93375 -1.00945 0
M  V30 295 H 25.0936 -2.9945 0.506304 0
M  V30 296 H 22.6786 -1.46071 0.313622 0
M  V30 297 H 24.5606 -3.80631 -1.80827 0
M  V30 298 H 23.2356 -2.61462 -1.90839 0
M  V30 299 H 22.1426 -3.73914 0.117799 0
M  V30 300 H 23.4756 -4.92014 0.135308 0
M  V30 301 N 25.1277 -0.289203 -1.54924 0
M  V30 302 C 26.0747 0.592115 -2.23075 0
M  V30 303 C 27.0447 1.13881 -1.20915 0
M  V30 304 O 28.2297 1.18551 -1.495 0
M  V30 305 C 25.3697 1.76376 -2.96623 0
M  V30 306 C 24.4827 1.24959 -4.13533 0
M  V30 307 C 23.6177 2.38416 -4.74691 0
M  V30 308 C 22.6567 1.84072 -5.83767 0
M  V30 309 N 21.7937 2.91057 -6.38929 0
M  V30 310 H 26.6337 0.00432038 -2.98 0
M  V30 311 H 24.1707 -0.00963529 -1.47097 0
M  V30 312 H 26.1287 2.45268 -3.3749 0
M  V30 313 H 24.7587 2.32337 -2.24097 0
M  V30 314 H 23.8107 0.453307 -3.77689 0
M  V30 315 H 25.1227 0.811662 -4.92152 0
M  V30 316 H 24.2767 3.15276 -5.18349 0
M  V30 317 H 23.0157 2.8553 -3.95378 0
M  V30 318 H 22.0207 1.05697 -5.39545 0
M  V30 319 H 23.2457 1.37877 -6.64956 0
M  V30 320 H 21.1917 3.37526 -5.62505 0
M  V30 321 H 21.1087 2.51724 -7.12861 0
M  V30 322 H 22.3767 3.6785 -6.87246 0
M  V30 323 N 26.6058 1.57591 -0.0167156 0
M  V30 324 C 27.5158 2.1291 0.98521 0
M  V30 325 C 28.5318 1.07834 1.36557 0
M  V30 326 O 29.7078 1.39826 1.44951 0
M  V30 327 C 26.7728 2.63512 2.25305 0
M  V30 328 C 25.8338 3.83256 1.93426 0
M  V30 329 C 25.0668 4.31435 3.14165 0
M  V30 330 O 25.2898 3.78851 4.26413 0
M  V30 331 O 24.2238 5.23416 2.97186 0
M  V30 332 H 28.0498 2.98772 0.544888 0
M  V30 333 H 25.6348 1.48012 0.203141 0
M  V30 334 H 27.5168 2.96183 2.99756 0
M  V30 335 H 26.1918 1.8074 2.68542 0
M  V30 336 H 25.0988 3.55531 1.16398 0
M  V30 337 H 26.4318 4.67153 1.55013 0
M  V30 338 N 28.0839 -0.256276 1.55502 0
M  V30 339 C 29.3299 -0.987079 1.77157 0
M  V30 340 C 29.6629 -1.85327 0.580315 0
M  V30 341 O 28.9379 -1.89874 -0.421686 0
M  V30 342 C 29.2209 -1.85553 3.08613 0
M  V30 343 C 29.0739 -1.01816 4.38125 0
M  V30 344 C 30.3929 -2.8397 3.36228 0
M  V30 345 H 27.5119 -0.357428 0.644526 0
M  V30 346 H 30.1539 -0.258239 1.88237 0
M  V30 347 H 28.3039 -2.47695 2.99298 0
M  V30 348 H 29.9759 -0.416159 4.59419 0
M  V30 349 H 28.2189 -0.322178 4.32602 0
M  V30 350 H 28.8899 -1.65939 5.26468 0
M  V30 351 H 31.3659 -2.31964 3.45445 0
M  V30 352 H 30.2419 -3.41864 4.29442 0
M  V30 353 H 30.5029 -3.59955 2.56681 0
M  V30 354 N 29.562 -1.4872 -0.521534 0
M  V30 355 C 30.494 -1.59968 -1.64143 0
M  V30 356 C 31.507 -0.483463 -1.55456 0
M  V30 357 O 32.696 -0.75467 -1.61762 0
M  V30 358 C 29.796 -1.52127 -3.02838 0
M  V30 359 C 28.969 -2.78932 -3.36921 0
M  V30 360 C 28.028 -2.64428 -4.54933 0
M  V30 361 O 27.054 -3.38331 -4.57735 0
M  V30 362 N 28.256 -1.74606 -5.53618 0
M  V30 363 H 31.021 -2.56548 -1.54929 0
M  V30 364 H 28.582 -1.45551 -0.708988 0
M  V30 365 H 30.574 -1.40106 -3.79674 0
M  V30 366 H 29.144 -0.634868 -3.06085 0
M  V30 367 H 28.364 -3.05455 -2.4918 0
M  V30 368 H 29.652 -3.63041 -3.56481 0
M  V30 369 H 29.05 -1.13782 -5.54139 0
M  V30 370 H 27.607 -1.6852 -6.29638 0
M  V30 371 N 31.0401 0.771051 -1.3745 0
M  V30 372 C 31.9871 1.88435 -1.3327 0
M  V30 373 C 32.9571 1.64914 -0.198136 0
M  V30 374 O 34.1421 1.86821 -0.387606 0
M  V30 375 C 31.2821 3.25509 -1.14622 0
M  V30 376 C 30.3951 3.60979 -2.37314 0
M  V30 377 C 29.5301 4.87265 -2.11533 0
M  V30 378 C 28.5691 5.15469 -3.30088 0
M  V30 379 N 27.7061 6.32944 -3.03853 0
M  V30 380 H 32.5461 1.91344 -2.28455 0
M  V30 381 H 30.0831 0.935466 -1.13523 0
M  V30 382 H 32.0411 4.04582 -1.01831 0
M  V30 383 H 30.6711 3.21974 -0.230837 0
M  V30 384 H 29.7231 2.76885 -2.60842 0
M  V30 385 H 31.0351 3.77759 -3.25729 0
M  V30 386 H 30.1891 5.74244 -1.95777 0
M  V30 387 H 28.9281 4.7259 -1.20457 0
M  V30 388 H 27.9331 4.26966 -3.46382 0
M  V30 389 H 29.1581 5.32052 -4.22016 0
M  V30 390 H 27.1041 6.19625 -2.15407 0
M  V30 391 H 27.0211 6.50143 -3.85812 0
M  V30 392 H 28.2891 7.22857 -2.91716 0
M  V30 393 N 32.5182 1.22032 0.997298 0
M  V30 394 C 33.9342 0.979326 1.26021 0
M  V30 395 C 34.1342 -0.32972 1.98784 0
M  V30 396 O 33.1902 -1.05345 2.29475 0
M  V30 397 C 34.5032 2.17509 2.07631 0
M  V30 398 C 36.0512 2.21817 2.2083 0
M  V30 399 C 36.5262 3.40933 3.05825 0
M  V30 400 N 38.0172 3.41067 3.13412 0
M  V30 401 C 38.7522 4.29885 3.79455 0
M  V30 402 N 38.2482 5.28914 4.47462 0
M  V30 403 N 40.0412 4.17673 3.76173 0
M  V30 404 H 32.1922 2.06202 0.509352 0
M  V30 405 H 34.4552 0.90334 0.287541 0
M  V30 406 H 34.1612 3.12415 1.61524 0
M  V30 407 H 34.0352 2.17206 3.08385 0
M  V30 408 H 36.4222 1.27462 2.66153 0
M  V30 409 H 36.5032 2.2616 1.1952 0
M  V30 410 H 36.1472 4.35586 2.61203 0
M  V30 411 H 36.0772 3.33829 4.07266 0
M  V30 412 H 38.5682 2.69406 2.65007 0
M  V30 413 H 38.8812 5.92973 4.95583 0
M  V30 414 H 37.2262 5.32831 4.46224 0
M  V30 415 H 40.4172 3.39564 3.22202 0
M  V30 416 H 40.5902 4.87098 4.27363 0
M  V30 417 N 33.9963 -1.19345 1.0293 0
M  V30 418 C 35.2443 -1.88665 0.724574 0
M  V30 419 C 35.5653 -1.80036 -0.749144 0
M  V30 420 O 34.8353 -1.2111 -1.53978 0
M  V30 421 H 33.4153 -0.698406 0.265025 0
M  V30 422 H 36.0773 -1.44885 1.30362 0
M  V30 423 H 35.1733 -2.94987 1.01926 0
M  V30 424 N 35.4744 -0.807222 -1.35358 0
M  V30 425 C 36.7214 -0.387888 -1.9875 0
M  V30 426 C 37.0494 1.04509 -1.64037 0
M  V30 427 O 36.3044 1.73986 -0.895946 0
M  V30 428 C 36.6034 -0.519036 -3.53611 0
M  V30 429 C 36.2694 -1.91542 -4.08194 0
M  V30 430 C 34.9314 -2.29745 -4.22813 0
M  V30 431 C 37.2834 -2.82896 -4.37744 0
M  V30 432 C 34.6114 -3.58668 -4.643 0
M  V30 433 C 36.9634 -4.11265 -4.8067 0
M  V30 434 C 35.6274 -4.49466 -4.93494 0
M  V30 435 H 34.8974 -0.141938 -0.727279 0
M  V30 436 H 37.5444 -1.02814 -1.6156 0
M  V30 437 H 35.8494 0.204658 -3.91265 0
M  V30 438 H 37.5464 -0.175345 -4.00616 0
M  V30 439 H 34.1364 -1.60862 -3.97268 0
M  V30 440 H 38.3204 -2.54629 -4.26002 0
M  V30 441 H 33.5764 -3.88113 -4.72418 0
M  V30 442 H 37.7504 -4.82153 -5.02496 0
M  V30 443 H 35.3774 -5.49418 -5.25399 0
M  V30 444 N 36.9525 1.47285 -0.560781 0
M  V30 445 C 37.8995 2.30058 0.18491 0
M  V30 446 C 38.8695 1.39281 0.904986 0
M  V30 447 O 40.0545 1.68241 0.899979 0
M  V30 448 C 37.1945 3.23317 1.20666 0
M  V30 449 C 36.3075 4.29186 0.492285 0
M  V30 450 C 35.4425 5.09592 1.49964 0
M  V30 451 C 34.4815 6.07232 0.770439 0
M  V30 452 N 33.6185 6.80584 1.72479 0
M  V30 453 H 38.4585 2.93302 -0.527048 0
M  V30 454 H 35.9955 1.44568 -0.271738 0
M  V30 455 H 37.9535 3.75811 1.81168 0
M  V30 456 H 36.5835 2.61929 1.88661 0
M  V30 457 H 35.6355 3.7972 -0.227333 0
M  V30 458 H 36.9475 4.98738 -0.0787929 0
M  V30 459 H 36.1015 5.66254 2.17809 0
M  V30 460 H 34.8405 4.3995 2.10464 0
M  V30 461 H 33.8455 5.49745 0.0780846 0
M  V30 462 H 35.0705 6.78884 0.171134 0
M  V30 463 H 33.0165 6.1367 2.3183 0
M  V30 464 H 32.9335 7.46319 1.20596 0
M  V30 465 H 34.2015 7.41818 2.39428 0
M  V30 466 N 38.4306 0.297415 1.54768 0
M  V30 467 C 39.3776 -0.580276 2.23386 0
M  V30 468 C 40.3476 -1.13238 1.21517 0
M  V30 469 O 41.5326 -1.17757 1.50126 0
M  V30 470 C 38.6726 -1.74801 2.97555 0
M  V30 471 C 37.7856 -1.22764 4.1419 0
M  V30 472 C 36.9206 -2.35895 4.75949 0
M  V30 473 C 35.9596 -1.80974 5.84735 0
M  V30 474 N 35.0966 -2.87664 6.40464 0
M  V30 475 H 39.9366 0.0114833 2.97998 0
M  V30 476 H 37.4736 0.0174361 1.4709 0
M  V30 477 H 39.4316 -2.43475 3.38786 0
M  V30 478 H 38.0616 -2.31145 2.25326 0
M  V30 479 H 37.1136 -0.433271 3.77924 0
M  V30 480 H 38.4256 -0.785551 4.92575 0
M  V30 481 H 37.5796 -3.12523 5.20014 0
M  V30 482 H 36.3186 -2.83429 3.96887 0
M  V30 483 H 35.3236 -1.02834 5.40097 0
M  V30 484 H 36.5486 -1.34348 6.65678 0
M  V30 485 H 34.4946 -3.34538 5.64287 0
M  V30 486 H 34.4116 -2.4794 7.14186 0
M  V30 487 H 35.6796 -3.642 6.89187 0
M  V30 488 N 39.9087 -1.5758 0.0250728 0
M  V30 489 C 41.1547 -1.91917 -0.655413 0
M  V30 490 C 41.4877 -0.901433 -1.72011 0
M  V30 491 O 40.7627 0.0764069 -1.9435 0
M  V30 492 C 41.0457 -3.36751 -1.27558 0
M  V30 493 C 40.8987 -4.49258 -0.220719 0
M  V30 494 C 42.2177 -3.81469 -2.19475 0
M  V30 495 H 39.3367 -0.697925 -0.23679 0
M  V30 496 H 41.9787 -1.89825 0.0815036 0
M  V30 497 H 40.1287 -3.38664 -1.90365 0
M  V30 498 H 41.8007 -4.59478 0.409601 0
M  V30 499 H 40.0437 -4.31415 0.454264 0
M  V30 500 H 40.7147 -5.47618 -0.694175 0
M  V30 501 H 43.1907 -3.81266 -1.66659 0
M  V30 502 H 42.0667 -4.83512 -2.59822 0
M  V30 503 H 42.3277 -3.16744 -3.08424 0
M  V30 504 N 41.3868 0.248026 -1.55636 0
M  V30 505 C 42.6328 0.97767 -1.77678 0
M  V30 506 C 42.9658 1.85016 -0.590135 0
M  V30 507 O 42.2408 1.90095 0.411611 0
M  V30 508 C 42.5238 1.83914 -3.09593 0
M  V30 509 C 42.3768 0.99491 -4.38659 0
M  V30 510 C 43.6958 2.82183 -3.37729 0
M  V30 511 H 40.8148 0.354005 -0.646413 0
M  V30 512 H 43.4568 0.248253 -1.88371 0
M  V30 513 H 41.6068 2.46104 -3.00608 0
M  V30 514 H 43.2788 0.391789 -4.59633 0
M  V30 515 H 41.5218 0.299231 -4.32767 0
M  V30 516 H 42.1928 1.63145 -5.2734 0
M  V30 517 H 44.6688 2.30129 -3.4667 0
M  V30 518 H 43.5448 3.39582 -4.31249 0
M  V30 519 H 43.8058 3.58588 -2.58586 0
M  V30 520 N 42.8649 1.48995 0.513639 0
M  V30 521 C 44.0949 1.61297 1.291 0
M  V30 522 C 44.5029 0.278656 1.87137 0
M  V30 523 O 43.8459 -0.744325 1.67945 0
M  V30 524 C 43.9079 2.61326 2.46879 0
M  V30 525 C 43.5719 4.05993 2.09807 0
M  V30 526 C 44.5689 4.93183 1.64519 0
M  V30 527 C 42.2539 4.51642 2.19829 0
M  V30 528 C 44.2479 6.24056 1.2974 0
M  V30 529 C 41.9349 5.82532 1.84662 0
M  V30 530 C 42.9329 6.68562 1.3969 0
M  V30 531 O 42.6209 7.97014 1.04992 0
M  V30 532 H 42.3529 0.546236 0.39825 0
M  V30 533 H 44.9069 1.95673 0.62459 0
M  V30 534 H 43.1369 2.22104 3.16554 0
M  V30 535 H 44.8259 2.6329 3.08923 0
M  V30 536 H 45.5919 4.59147 1.56233 0
M  V30 537 H 41.4709 3.84855 2.53786 0
M  V30 538 H 45.0149 6.91161 0.945659 0
M  V30 539 H 40.9119 6.16099 1.92594 0
M  V30 540 H 41.6799 8.09913 1.18249 0
M  V30 541 N 44.343 -0.763751 1.37857 0
M  V30 542 C 45.591 -1.51957 1.33243 0
M  V30 543 C 45.912 -1.94835 -0.0801709 0
M  V30 544 O 45.182 -1.66894 -1.02582 0
M  V30 545 H 43.762 -0.563626 0.49024 0
M  V30 546 H 46.424 -0.908504 1.7243 0
M  V30 547 H 45.52 -2.41523 1.97669 0
M  V30 548 N 45.8211 -1.22559 -0.990812 0
M  V30 549 C 46.7511 -1.0218 -2.09956 0
M  V30 550 C 47.7321 0.0579394 -1.70001 0
M  V30 551 O 48.9171 -0.104684 -1.93918 0
M  V30 552 C 46.0471 -0.601023 -3.4206 0
M  V30 553 C 45.0011 -1.62694 -3.95872 0
M  V30 554 C 44.3271 -1.06193 -5.24049 0
M  V30 555 C 45.6271 -3.01743 -4.2632 0
M  V30 556 H 47.3211 -1.94916 -2.27262 0
M  V30 557 H 44.8671 -0.938566 -1.09211 0
M  V30 558 H 46.8201 -0.445561 -4.19038 0
M  V30 559 H 45.5441 0.362005 -3.24588 0
M  V30 560 H 44.2031 -1.77021 -3.21028 0
M  V30 561 H 43.8511 -0.0901903 -5.02919 0
M  V30 562 H 43.5511 -1.74732 -5.61019 0
M  V30 563 H 45.0751 -0.918092 -6.03658 0
M  V30 564 H 46.4891 -2.90777 -4.94087 0
M  V30 565 H 44.8861 -3.67425 -4.74467 0
M  V30 566 H 45.9561 -3.51518 -3.34011 0
M  V30 567 N 47.2992 1.18797 -1.03562 0
M  V30 568 C 48.5242 1.9314 -0.755764 0
M  V30 569 C 48.9492 1.7537 0.68022 0
M  V30 570 O 48.3072 1.06046 1.47051 0
M  V30 571 C 48.3552 3.42747 -1.12058 0
M  V30 572 O 47.4592 4.11683 -0.243124 0
M  V30 573 H 46.8002 0.602724 -0.278604 0
M  V30 574 H 49.3302 1.50678 -1.3841 0
M  V30 575 H 49.3402 3.93437 -1.08035 0
M  V30 576 H 48.0152 3.55002 -2.16672 0
M  V30 577 H 46.5922 3.71323 -0.342539 0
M  V30 578 N 48.7773 0.814389 1.34928 0
M  V30 579 C 50.0253 0.397636 1.9815 0
M  V30 580 C 50.3463 -1.04069 1.64908 0
M  V30 581 O 49.6163 -1.72121 0.93548 0
M  V30 582 H 48.1963 0.144043 0.732981 0
M  V30 583 H 50.8583 1.04195 1.6471 0
M  V30 584 H 49.9543 0.509688 3.0791 0
M  V30 585 N 50.2554 -1.46986 0.568584 0
M  V30 586 C 51.5034 -2.02041 0.0487022 0
M  V30 587 C 51.8244 -1.44408 -1.31039 0
M  V30 588 O 51.0944 -0.623477 -1.85714 0
M  V30 589 H 49.6744 -0.746849 0.015014 0
M  V30 590 H 52.3364 -1.80257 0.741168 0
M  V30 591 H 51.4324 -3.12085 -0.0308961 0
M  V30 592 N 51.7335 -0.305618 -1.54608 0
M  V30 593 C 52.6635 0.561482 -2.26649 0
M  V30 594 C 53.6445 1.13415 -1.26772 0
M  V30 595 O 54.8295 1.16262 -1.55553 0
M  V30 596 C 51.9595 1.73122 -3.01075 0
M  V30 597 C 50.9135 1.2887 -4.08138 0
M  V30 598 C 50.2395 2.54396 -4.70305 0
M  V30 599 C 51.5395 0.416578 -5.20636 0
M  V30 600 H 53.2335 -0.0393902 -2.99374 0
M  V30 601 H 50.7795 -0.020385 -1.43986 0
M  V30 602 H 52.7325 2.34396 -3.50195 0
M  V30 603 H 51.4565 2.3584 -2.25936 0
M  V30 604 H 50.1155 0.698991 -3.59875 0
M  V30 605 H 49.7635 3.15439 -3.918 0
M  V30 606 H 49.4635 2.25486 -5.42614 0
M  V30 607 H 50.9875 3.16464 -5.2219 0
M  V30 608 H 52.4015 0.935116 -5.65622 0
M  V30 609 H 50.7985 0.221046 -5.99693 0
M  V30 610 H 51.8685 -0.557162 -4.81688 0
M  V30 611 N 53.2116 1.57565 -0.0334293 0
M  V30 612 C 54.4886 1.83282 0.683163 0
M  V30 613 C 54.8686 0.91823 1.90084 0
M  V30 614 O 54.2166 -0.025113 2.28486 0
M  V30 615 C 54.4266 3.32599 1.0573 0
M  V30 616 C 55.7746 3.99179 1.44711 0
M  V30 617 O 56.7986 3.3712 1.15015 0
M  V30 618 O 55.6576 5.08565 2.0006 0
M  V30 619 H 52.7516 0.755869 0.335546 0
M  V30 620 H 55.2976 1.69589 -0.0614402 0
M  V30 621 H 54.0696 3.90834 0.190828 0
M  V30 622 H 53.6926 3.51415 1.85993 0
M  V30 623 N 54.6897 -0.239769 1.55765 0
M  V30 624 C 55.9147 -0.988373 1.82335 0
M  V30 625 C 56.3397 -1.77886 0.611421 0
M  V30 626 O 55.6977 -1.75889 -0.439639 0
M  V30 627 C 55.7457 -1.89627 3.06715 0
M  V30 628 O 54.8497 -2.98904 2.84131 0
M  V30 629 H 54.1907 -0.280858 0.601677 0
M  V30 630 H 56.7207 -0.258597 2.02959 0
M  V30 631 H 56.7307 -2.30957 3.36338 0
M  V30 632 H 55.4057 -1.31511 3.9456 0
M  V30 633 H 53.9827 -2.61651 2.65694 0
M  V30 634 N 56.1678 -1.49265 -0.50573 0
M  V30 635 C 57.1308 -1.65075 -1.59006 0
M  V30 636 C 58.1308 -0.522768 -1.52065 0
M  V30 637 O 59.3208 -0.789117 -1.55302 0
M  V30 638 C 56.4528 -1.64369 -2.98656 0
M  V30 639 H 57.6458 -2.61784 -1.46319 0
M  V30 640 H 55.1988 -1.38226 -0.729616 0
M  V30 641 H 55.9338 -0.692272 -3.16825 0
M  V30 642 H 55.7188 -2.46282 -3.05103 0
M  V30 643 H 57.2088 -1.78674 -3.77446 0
M  V30 644 N 57.6459 0.756429 -1.3826 0
M  V30 645 C 58.8919 1.51772 -1.34511 0
M  V30 646 C 59.2249 1.94089 0.0656691 0
M  V30 647 O 58.4999 1.65221 1.02626 0
M  V30 648 C 58.7829 2.77226 -2.29821 0
M  V30 649 C 58.6359 2.41065 -3.79747 0
M  V30 650 C 59.9549 3.79236 -2.23312 0
M  V30 651 H 57.0739 0.550578 -0.489931 0
M  V30 652 H 59.7159 0.866607 -1.69086 0
M  V30 653 H 57.8659 3.32784 -2.00467 0
M  V30 654 H 59.5379 1.91303 -4.19763 0
M  V30 655 H 57.7809 1.7356 -3.97567 0
M  V30 656 H 58.4519 3.3081 -4.41892 0
M  V30 657 H 60.9279 3.3321 -2.49219 0
M  V30 658 H 59.8039 4.64714 -2.92116 0
M  V30 659 H 60.0649 4.24615 -1.23102 0
M  V30 660 N 59.124 1.23083 0.984299 0
M  V30 661 C 60.37 1.06214 1.72761 0
M  V30 662 C 60.703 -0.400584 1.90024 0
M  V30 663 O 59.978 -1.29672 1.44967 0
M  V30 664 C 60.261 1.78375 3.12817 0
M  V30 665 C 60.114 3.32296 3.03149 0
M  V30 666 C 61.433 1.54309 4.12161 0
M  V30 667 H 58.552 0.387251 0.627061 0
M  V30 668 H 61.194 1.51536 1.14616 0
M  V30 669 H 59.344 1.39848 3.62457 0
M  V30 670 H 61.016 3.8032 2.61064 0
M  V30 671 H 59.259 3.6153 2.39747 0
M  V30 672 H 59.93 3.77972 4.02295 0
M  V30 673 H 62.406 1.87791 3.71314 0
M  V30 674 H 61.282 2.07281 5.08258 0
M  V30 675 H 61.543 0.477572 4.39513 0
M  V30 676 N 60.6021 -1.18246 1.0419 0
M  V30 677 C 61.8501 -1.87886 0.744543 0
M  V30 678 C 62.1711 -1.8082 -0.730006 0
M  V30 679 O 61.4411 -1.22736 -1.52685 0
M  V30 680 H 60.0211 -0.695556 0.272417 0
M  V30 681 H 62.6831 -1.43494 1.31892 0
M  V30 682 H 61.7791 -2.9389 1.05049 0
M  V30 683 N 62.0802 -0.821533 -1.34494 0
M  V30 684 C 63.3262 -0.409552 -1.98622 0
M  V30 685 C 63.6592 1.0244 -1.64984 0
M  V30 686 O 62.9342 1.71325 -0.920758 0
M  V30 687 C 63.2172 -0.610458 -3.54888 0
M  V30 688 C 63.0702 -2.09043 -3.98273 0
M  V30 689 C 64.3892 -0.0455379 -4.40076 0
M  V30 690 H 61.5082 -0.15028 -0.721516 0
M  V30 691 H 64.1502 -1.03384 -1.59411 0
M  V30 692 H 62.3002 -0.079044 -3.8842 0
M  V30 693 H 63.9722 -2.68537 -3.75081 0
M  V30 694 H 62.2152 -2.58139 -3.48635 0
M  V30 695 H 62.8862 -2.18182 -5.07051 0
M  V30 696 H 65.3622 -0.499557 -4.1309 0
M  V30 697 H 64.2382 -0.215922 -5.48475 0
M  V30 698 H 64.4992 1.04939 -4.29465 0
M  V30 699 N 63.5583 1.46682 -0.576371 0
M  V30 700 C 64.4883 2.33028 0.148397 0
M  V30 701 C 65.4693 1.44961 0.889956 0
M  V30 702 O 66.6543 1.73789 0.866662 0
M  V30 703 C 63.7843 3.27117 1.1667 0
M  V30 704 C 62.7383 4.24575 0.540386 0
M  V30 705 C 62.0643 5.08126 1.6647 0
M  V30 706 C 63.3643 5.19722 -0.518331 0
M  V30 707 H 65.0583 2.93875 -0.572509 0
M  V30 708 H 62.6043 1.41315 -0.276768 0
M  V30 709 H 64.5573 3.86374 1.68204 0
M  V30 710 H 63.2813 2.64364 1.9178 0
M  V30 711 H 61.9403 3.66571 0.0461769 0
M  V30 712 H 61.5883 4.41762 2.40531 0
M  V30 713 H 61.2883 5.74122 1.25131 0
M  V30 714 H 62.8123 5.70246 2.18293 0
M  V30 715 H 64.2263 5.73232 -0.0883058 0
M  V30 716 H 62.6233 5.94026 -0.851679 0
M  V30 717 H 63.6933 4.64037 -1.40703 0
M  V30 718 N 65.0364 0.313813 1.54444 0
M  V30 719 C 66.2764 -0.292389 2.02298 0
M  V30 720 C 66.6404 -1.50105 1.19719 0
M  V30 721 O 67.8414 -2.17947 1.5733 0
M  V30 722 C 66.1124 -0.627682 3.51845 0
M  V30 723 S 67.6714 -1.21493 4.21646 0
M  V30 724 H 64.4894 -0.0890247 0.705405 0
M  V30 725 H 67.0914 0.444668 1.90376 0
M  V30 726 H 65.7954 0.260265 4.09574 0
M  V30 727 H 65.3264 -1.39519 3.67829 0
M  V30 728 H 67.3414 -2.5022 4.28491 0
M  V30 729 N 66.5145 -1.57545 0.0417849 0
M  V30 730 C 67.4465 -2.07904 -0.964799 0
M  V30 731 C 68.4595 -1.00497 -1.28079 0
M  V30 732 O 69.6485 -1.28087 -1.24322 0
M  V30 733 C 66.7485 -2.49928 -2.28887 0
M  V30 734 C 65.9215 -3.80562 -2.15619 0
M  V30 735 C 64.9805 -4.08999 -3.31069 0
M  V30 736 O 64.0065 -4.79061 -3.0739 0
M  V30 737 N 65.2085 -3.6017 -4.55256 0
M  V30 738 H 67.9735 -2.94886 -0.535029 0
M  V30 739 H 65.5345 -1.61252 -0.144681 0
M  V30 740 H 67.5265 -2.66034 -3.04972 0
M  V30 741 H 66.0965 -1.68245 -2.63463 0
M  V30 742 H 65.3165 -3.74129 -1.24183 0
M  V30 743 H 66.6045 -4.66126 -2.03971 0
M  V30 744 H 66.0025 -3.03512 -4.77386 0
M  V30 745 H 64.5595 -3.81532 -5.28466 0
M  V30 746 N 67.9926 0.231505 -1.5589 0
M  V30 747 C 68.9396 1.28682 -1.91598 0
M  V30 748 C 69.9096 1.47071 -0.771974 0
M  V30 749 O 71.0946 1.60802 -1.027 0
M  V30 750 C 68.2346 2.6342 -2.22944 0
M  V30 751 C 67.3476 2.52912 -3.50228 0
M  V30 752 C 66.4826 3.80106 -3.7107 0
M  V30 753 C 65.5216 3.64279 -4.91902 0
M  V30 754 N 64.6586 4.834 -5.09184 0
M  V30 755 H 69.4986 0.975305 -2.81588 0
M  V30 756 H 67.0356 0.470299 -1.39379 0
M  V30 757 H 68.9936 3.41869 -2.39126 0
M  V30 758 H 67.6236 2.92687 -1.36139 0
M  V30 759 H 66.6756 1.6595 -3.42294 0
M  V30 760 H 67.9876 2.37133 -4.38827 0
M  V30 761 H 67.1416 4.66999 -3.87295 0
M  V30 762 H 65.8806 3.98799 -2.80733 0
M  V30 763 H 64.8856 2.7577 -4.75637 0
M  V30 764 H 66.1106 3.47067 -5.83714 0
M  V30 765 H 64.0566 5.02425 -4.21788 0
M  V30 766 H 63.9736 4.70311 -5.91898 0
M  V30 767 H 65.2416 5.71747 -5.29835 0
M  V30 768 N 69.4707 1.49531 0.497807 0
M  V30 769 C 70.7167 1.59415 1.25358 0
M  V30 770 C 71.0497 0.281422 1.9215 0
M  V30 771 O 70.3247 -0.715249 1.80871 0
M  V30 772 C 70.6077 2.75566 2.3181 0
M  V30 773 C 70.4607 4.16642 1.69498 0
M  V30 774 C 71.7797 2.87347 3.33346 0
M  V30 775 H 68.8987 0.580244 0.454408 0
M  V30 776 H 71.5407 1.81827 0.551262 0
M  V30 777 H 69.6907 2.56587 2.91711 0
M  V30 778 H 71.3627 4.47145 1.13399 0
M  V30 779 H 69.6057 4.22141 0.998978 0
M  V30 780 H 70.2767 4.93792 2.46725 0
M  V30 781 H 72.7527 3.04634 2.83438 0
M  V30 782 H 71.6287 3.70289 4.05188 0
M  V30 783 H 71.8897 1.96834 3.95865 0
M  V30 784 N 70.9488 -0.749086 1.3866 0
M  V30 785 C 72.1958 -1.50833 1.35114 0
M  V30 786 C 72.5238 -1.94415 -0.0574049 0
M  V30 787 O 71.7788 -1.66065 -1.03541 0
M  V30 788 C 72.0778 -2.7712 2.25697 0
M  V30 789 C 71.7438 -2.52477 3.73585 0
M  V30 790 C 70.4058 -2.45466 4.13884 0
M  V30 791 C 72.7578 -2.31066 4.67181 0
M  V30 792 C 70.0858 -2.15064 5.45861 0
M  V30 793 C 72.4378 -2.02183 5.9942 0
M  V30 794 C 71.1018 -1.93631 6.38798 0
M  V30 795 H 70.3718 -0.551936 0.494416 0
M  V30 796 H 73.0188 -0.860979 1.71054 0
M  V30 797 H 71.3238 -3.46528 1.82827 0
M  V30 798 H 73.0208 -3.35096 2.20254 0
M  V30 799 H 69.6108 -2.58807 3.41638 0
M  V30 800 H 73.7948 -2.35459 4.3689 0
M  V30 801 H 69.0508 -2.06954 5.75308 0
M  V30 802 H 73.2248 -1.8462 6.71482 0
M  V30 803 H 70.8518 -1.69839 7.40985 0
M  V30 804 N 72.4269 -1.23603 -0.977757 0
M  V30 805 C 73.3739 -1.01954 -2.07061 0
M  V30 806 C 74.3439 0.0638697 -1.65977 0
M  V30 807 O 75.5289 -0.0887624 -1.90593 0
M  V30 808 C 72.6689 -0.619658 -3.39491 0
M  V30 809 C 71.7819 -1.77547 -3.93829 0
M  V30 810 C 70.9169 -1.32212 -5.14484 0
M  V30 811 C 69.9559 -2.44852 -5.60994 0
M  V30 812 N 69.0929 -2.00456 -6.72876 0
M  V30 813 H 73.9329 -1.95495 -2.24913 0
M  V30 814 H 71.4699 -0.973861 -1.10247 0
M  V30 815 H 73.4279 -0.368898 -4.15566 0
M  V30 816 H 72.0579 0.278752 -3.21594 0
M  V30 817 H 71.1099 -2.14016 -3.14486 0
M  V30 818 H 72.4219 -2.62219 -4.24314 0
M  V30 819 H 71.5759 -1.02965 -5.97899 0
M  V30 820 H 70.3149 -0.445808 -4.85658 0
M  V30 821 H 69.3199 -2.74871 -4.76157 0
M  V30 822 H 70.5449 -3.33024 -5.91837 0
M  V30 823 H 68.4909 -1.15208 -6.45804 0
M  V30 824 H 68.4079 -2.78687 -7.02759 0
M  V30 825 H 69.6759 -1.7432 -7.59758 0
M  V30 826 N 73.905 1.17692 -1.04816 0
M  V30 827 C 74.815 2.25229 -0.65643 0
M  V30 828 C 75.831 1.71018 0.320761 0
M  V30 829 O 77.007 2.00649 0.173805 0
M  V30 830 C 74.072 3.46684 -0.0332629 0
M  V30 831 C 73.133 4.15997 -1.06042 0
M  V30 832 C 72.366 5.31654 -0.466893 0
M  V30 833 O 72.589 5.65777 0.724758 0
M  V30 834 O 71.523 5.89831 -1.1993 0
M  V30 835 H 75.349 2.61016 -1.55255 0
M  V30 836 H 72.934 1.24919 -0.81949 0
M  V30 837 H 74.816 4.20234 0.313256 0
M  V30 838 H 73.491 3.12703 0.836566 0
M  V30 839 H 72.398 3.44482 -1.45886 0
M  V30 840 H 73.731 4.53996 -1.90127 0
M  V30 841 N 75.3831 0.828654 1.34056 0
M  V30 842 C 76.3311 0.242973 2.31327 0
M  V30 843 C 77.3251 -0.61944 1.57668 0
M  V30 844 O 78.5311 -0.51014 1.7262 0
M  V30 845 H 74.9061 0.059834 0.749616 0
M  V30 846 H 76.8771 1.07809 2.78244 0
M  V30 847 C 75.6261 -0.575733 3.429 0
M  V30 848 H 74.9491 0.0785582 3.99723 0
M  V30 849 H 76.3891 -0.951547 4.13185 0
M  V30 850 C 74.8481 -1.75044 2.87856 0
M  V30 851 O 75.3781 -2.84882 2.83205 0
M  V30 852 N 73.5841 -1.56903 2.44602 0
M  V30 853 H 73.1311 -0.675547 2.48584 0
M  V30 854 H 73.0891 -2.35652 2.08124 0
M  V30 855 N 76.8612 -1.46375 0.584142 0
M  V30 856 C 77.8242 -2.28784 -0.138108 0
M  V30 857 C 78.8242 -1.38471 -0.817462 0
M  V30 858 O 80.0142 -1.60833 -0.669199 0
M  V30 859 C 77.1462 -3.18892 -1.20503 0
M  V30 860 H 78.3392 -2.94117 0.586127 0
M  V30 861 H 75.8922 -1.52509 0.342171 0
M  V30 862 H 76.6272 -2.58309 -1.96079 0
M  V30 863 H 76.4122 -3.85388 -0.722384 0
M  V30 864 H 77.9022 -3.80914 -1.71155 0
M  V30 865 N 78.3393 -0.321999 -1.54275 0
M  V30 866 C 79.2893 0.560185 -2.21011 0
M  V30 867 C 80.2733 1.08283 -1.19011 0
M  V30 868 O 81.4653 1.02011 -1.44647 0
M  V30 869 C 78.5943 1.72137 -2.97025 0
M  V30 870 C 77.6803 1.21369 -4.06363 0
M  V30 871 N 78.0713 0.425566 -5.04007 0
M  V30 872 C 76.3693 1.49255 -4.20284 0
M  V30 873 C 77.0703 0.152601 -5.815 0
M  V30 874 N 76.0463 0.738294 -5.38563 0
M  V30 875 H 79.8483 -0.049265 -2.93859 0
M  V30 876 H 77.3623 -0.127779 -1.61897 0
M  V30 877 H 79.3593 2.36512 -3.43319 0
M  V30 878 H 78.0193 2.33431 -2.25699 0
M  V30 879 H 79.0303 0.068551 -5.17855 0
M  V30 880 H 75.7073 2.11145 -3.60172 0
M  V30 881 H 77.0973 -0.481764 -6.70171 0
M  V30 882 N 79.8174 1.5752 -0.0501392 0
M  V30 883 C 80.7804 2.1037 0.909786 0
M  V30 884 C 81.7804 1.02308 1.24056 0
M  V30 885 O 82.9704 1.28385 1.17741 0
M  V30 886 C 80.1024 2.58708 2.21998 0
M  V30 887 H 81.2954 2.96479 0.451665 0
M  V30 888 H 78.8484 1.55038 0.198248 0
M  V30 889 H 79.5834 1.75989 2.72394 0
M  V30 890 H 79.3684 3.37675 1.99295 0
M  V30 891 H 80.8584 2.99747 2.9076 0
M  V30 892 N 81.2955 -0.223234 1.56011 0
M  V30 893 C 82.2255 -1.27988 1.95298 0
M  V30 894 C 83.2065 -1.48976 0.820979 0
M  V30 895 O 84.3915 -1.61188 1.08315 0
M  V30 896 C 81.5215 -2.63 2.26822 0
M  V30 897 C 80.4755 -2.56671 3.42497 0
M  V30 898 C 79.8015 -3.95697 3.59622 0
M  V30 899 C 81.1015 -2.11601 4.77517 0
M  V30 900 H 82.7955 -0.953525 2.8381 0
M  V30 901 H 80.3415 -0.457244 1.36548 0
M  V30 902 H 82.2945 -3.37077 2.52898 0
M  V30 903 H 81.0185 -2.9732 1.35161 0
M  V30 904 H 79.6775 -1.85051 3.16467 0
M  V30 905 H 79.3255 -4.27322 2.6534 0
M  V30 906 H 79.0255 -3.92345 4.37424 0
M  V30 907 H 80.5495 -4.71438 3.88044 0
M  V30 908 H 81.9635 -2.7542 5.02809 0
M  V30 909 H 80.3605 -2.19311 5.5859 0
M  V30 910 H 81.4305 -1.06824 4.72987 0
M  V30 911 N 82.7736 -1.49793 -0.48987 0
M  V30 912 C 83.7036 -1.70201 -1.59856 0
M  V30 913 C 84.6846 -0.55076 -1.60937 0
M  V30 914 O 85.8696 -0.787841 -1.77501 0
M  V30 915 C 82.9996 -1.77882 -2.98287 0
M  V30 916 C 81.9536 -2.92907 -3.12073 0
M  V30 917 C 81.2796 -2.85712 -4.51965 0
M  V30 918 C 82.5796 -4.3369 -2.91051 0
M  V30 919 H 84.2736 -2.63025 -1.43032 0
M  V30 920 H 81.8196 -1.26574 -0.686664 0
M  V30 921 H 83.7726 -1.90744 -3.75759 0
M  V30 922 H 82.4966 -0.816653 -3.16225 0
M  V30 923 H 81.1556 -2.79665 -2.37029 0
M  V30 924 H 80.8036 -1.8738 -4.66795 0
M  V30 925 H 80.5036 -3.62921 -4.62128 0
M  V30 926 H 82.0276 -3.00598 -5.31482 0
M  V30 927 H 83.4416 -4.47555 -3.58284 0
M  V30 928 H 81.8386 -5.12205 -3.12675 0
M  V30 929 H 82.9086 -4.47362 -1.87071 0
M  V30 930 N 84.2517 0.741722 -1.39055 0
M  V30 931 C 85.1847 1.86416 -1.31622 0
M  V30 932 C 86.1627 1.61473 -0.191076 0
M  V30 933 O 87.3467 1.84825 -0.370399 0
M  V30 934 C 84.4737 3.22266 -1.04221 0
M  V30 935 C 83.5197 3.66079 -2.18834 0
M  V30 936 S 84.3527 3.7623 -3.81066 0
M  V30 937 C 85.5087 5.14881 -3.55877 0
M  V30 938 H 85.7417 1.92437 -2.26617 0
M  V30 939 H 83.2747 0.905907 -1.25031 0
M  V30 940 H 85.2327 4.00714 -0.890964 0
M  V30 941 H 83.8937 3.1391 -0.109237 0
M  V30 942 H 83.0867 4.64648 -1.95238 0
M  V30 943 H 82.6887 2.94817 -2.30128 0
M  V30 944 H 84.9807 6.01006 -3.12726 0
M  V30 945 H 85.9237 5.43503 -4.53884 0
M  V30 946 H 86.3317 4.84239 -2.90126 0
M  V30 947 N 85.7298 1.2412 0.971189 0
M  V30 948 C 87.1408 1.07236 1.52831 0
M  V30 949 C 87.4918 -0.357352 1.92918 0
M  V30 950 O 86.6168 -1.24528 1.76979 0
M  V30 951 C 87.2118 1.94043 2.77728 0
M  V30 952 C 85.7708 1.81394 3.29808 0
M  V30 953 C 84.9178 1.89189 2.02738 0
M  V30 954 H 87.8688 1.37648 0.789864 0
M  V30 955 H 87.8898 1.47066 3.5093 0
M  V30 956 H 87.4018 2.98093 2.4852 0
M  V30 957 H 85.5028 0.801634 3.63874 0
M  V30 958 H 85.6158 2.65294 3.98944 0
M  V30 959 H 83.9798 1.32877 2.17292 0
M  V30 960 H 84.7628 2.94812 1.759 0
M  V30 961 N 87.2079 -1.17134 1.05439 0
M  V30 962 C 88.4329 -1.91913 0.786396 0
M  V30 963 C 88.8579 -1.7643 -0.652234 0
M  V30 964 O 88.2159 -1.08372 -1.45345 0
M  V30 965 C 88.2639 -3.40921 1.17497 0
M  V30 966 O 87.3679 -4.11244 0.308589 0
M  V30 967 H 86.7089 -0.598215 0.288158 0
M  V30 968 H 89.2389 -1.48457 1.4079 0
M  V30 969 H 89.2489 -3.91668 1.14281 0
M  V30 970 H 87.9239 -3.5151 2.22292 0
M  V30 971 H 86.5009 -3.70731 0.40157 0
M  V30 972 N 88.686 -0.835752 -1.33615 0
M  V30 973 C 89.911 -0.442389 -2.02627 0
M  V30 974 C 90.336 0.947735 -1.62479 0
M  V30 975 O 89.694 1.61907 -0.815826 0
M  V30 976 C 89.742 -0.567216 -3.56111 0
M  V30 977 O 88.846 0.407799 -4.10379 0
M  V30 978 H 88.187 -0.180278 -0.639059 0
M  V30 979 H 90.717 -1.12972 -1.70583 0
M  V30 980 H 90.727 -0.447708 -4.05536 0
M  V30 981 H 89.402 -1.58103 -3.84677 0
M  V30 982 H 87.979 0.246107 -3.72087 0
M  V30 983 N 90.1641 1.46063 -0.591896 0
M  V30 984 C 91.4101 2.02638 -0.0811191 0
M  V30 985 C 91.7431 1.4613 1.27905 0
M  V30 986 O 91.0181 0.629908 1.84017 0
M  V30 987 C 91.3011 3.60091 -0.0252436 0
M  V30 988 C 91.1541 4.26965 -1.41496 0
M  V30 989 C 92.4731 4.3496 0.670685 0
M  V30 990 H 89.5921 0.73635 -0.0309524 0
M  V30 991 H 92.2341 1.741 -0.760859 0
M  V30 992 H 90.3841 3.84535 0.553624 0
M  V30 993 H 92.0561 4.13756 -2.0397 0
M  V30 994 H 90.2991 3.85971 -1.98011 0
M  V30 995 H 90.9701 5.35781 -1.32825 0
M  V30 996 H 93.4461 4.15716 0.178825 0
M  V30 997 H 92.3221 5.44686 0.678837 0
M  V30 998 H 92.5831 4.06685 1.73379 0
M  V30 999 N 91.6422 0.330177 1.54103 0
M  V30 1000 C 92.8672 -0.274893 2.0557 0
M  V30 1001 C 93.2922 -1.44487 1.20437 0
M  V30 1002 O 92.6502 -1.80021 0.214991 0
M  V30 1003 C 92.6982 -0.68079 3.54115 0
M  V30 1004 O 91.8022 -1.7824 3.71893 0
M  V30 1005 H 91.1432 -0.0483849 0.662235 0
M  V30 1006 H 93.6732 0.480508 1.98878 0
M  V30 1007 H 93.6832 -0.961635 3.96505 0
M  V30 1008 H 92.3582 0.174903 4.15532 0
M  V30 1009 H 90.9352 -1.49985 3.41407 0
M  V30 1010 N 93.1203 -1.57491 0.0584922 0
M  V30 1011 C 94.0533 -2.07533 -0.948969 0
M  V30 1012 C 95.0313 -0.977444 -1.29942 0
M  V30 1013 O 96.2153 -1.2499 -1.41102 0
M  V30 1014 C 93.3423 -2.52192 -2.2609 0
M  V30 1015 C 92.3883 -3.73287 -2.06298 0
M  V30 1016 S 93.2213 -5.18603 -1.33459 0
M  V30 1017 C 94.3773 -5.66583 -2.65959 0
M  V30 1018 H 94.6103 -2.92662 -0.523118 0
M  V30 1019 H 92.1433 -1.53631 -0.153954 0
M  V30 1020 H 94.1013 -2.78585 -3.01498 0
M  V30 1021 H 92.7623 -1.67356 -2.65802 0
M  V30 1022 H 91.9553 -4.0248 -3.03357 0
M  V30 1023 H 91.5573 -3.47199 -1.39029 0
M  V30 1024 H 93.8493 -5.72616 -3.62101 0
M  V30 1025 H 94.7923 -6.65684 -2.41393 0
M  V30 1026 H 95.2003 -4.94342 -2.72554 0
M  V30 1027 N 94.5984 0.214957 -1.56127 0
M  V30 1028 C 96.0094 0.781386 -1.69562 0
M  V30 1029 C 96.3604 1.84707 -0.66165 0
M  V30 1030 O 95.4854 2.156 0.185927 0
M  V30 1031 C 96.0804 1.42411 -3.07416 0
M  V30 1032 C 94.6394 1.93786 -3.22683 0
M  V30 1033 C 93.7864 0.800438 -2.65496 0
M  V30 1034 H 96.7374 -0.00980633 -1.58697 0
M  V30 1035 H 96.7584 2.29309 -3.0364 0
M  V30 1036 H 96.2704 0.64826 -3.82648 0
M  V30 1037 H 94.3714 2.74152 -2.52332 0
M  V30 1038 H 94.4844 2.1133 -4.29973 0
M  V30 1039 H 92.8484 1.2095 -2.2415 0
M  V30 1040 H 93.6314 0.0371471 -3.4328 0
M  V30 1041 N 96.0765 1.50051 0.48192 0
M  V30 1042 C 96.9865 1.7089 1.60728 0
M  V30 1043 C 98.0025 0.591788 1.63627 0
M  V30 1044 O 99.1785 0.868817 1.81696 0
M  V30 1045 C 96.2435 1.78855 2.97005 0
M  V30 1046 C 95.3045 3.02537 3.04581 0
M  V30 1047 C 94.5375 3.10112 4.34357 0
M  V30 1048 O 94.7605 2.24765 5.24249 0
M  V30 1049 O 93.6945 4.02747 4.47301 0
M  V30 1050 H 97.5205 2.66264 1.46072 0
M  V30 1051 H 95.1055 1.34018 0.660264 0
M  V30 1052 H 96.9875 1.86336 3.77964 0
M  V30 1053 H 95.6625 0.866628 3.11883 0
M  V30 1054 H 94.5695 3.00563 2.22739 0
M  V30 1055 H 95.9025 3.94272 2.94636 0
M  V30 1056 N 97.5546 -0.734337 1.39446 0
M  V30 1057 C 98.5026 -1.86971 1.38364 0
M  V30 1058 C 99.4966 -1.67288 0.266687 0
M  V30 1059 O 100.703 -1.74621 0.436755 0
M  V30 1060 H 97.0776 -0.615474 0.432082 0
M  V30 1061 H 99.0486 -1.85 2.34132 0
M  V30 1062 C 97.7976 -3.2466 1.24465 0
M  V30 1063 H 97.1206 -3.40402 2.09682 0
M  V30 1064 H 98.5606 -4.04292 1.27764 0
M  V30 1065 C 97.0196 -3.36867 -0.0468674 0
M  V30 1066 O 97.5496 -3.88618 -1.01681 0
M  V30 1067 N 95.7556 -2.90391 -0.110145 0
M  V30 1068 H 95.3026 -2.48466 0.679868 0
M  V30 1069 H 95.2606 -2.98939 -0.973799 0
M  V30 1070 N 99.0327 -1.24633 -0.964593 0
M  V30 1071 C 99.9797 -1.04144 -2.05968 0
M  V30 1072 C 100.95 0.046262 -1.66036 0
M  V30 1073 O 102.135 -0.108972 -1.90489 0
M  V30 1074 C 99.2747 -0.65563 -3.38815 0
M  V30 1075 C 98.3877 -1.81714 -3.91923 0
M  V30 1076 C 97.5227 -1.37662 -5.13052 0
M  V30 1077 C 96.5617 -2.50788 -5.58365 0
M  V30 1078 N 95.6987 -2.07582 -6.70712 0
M  V30 1079 H 100.539 -1.9787 -2.22827 0
M  V30 1080 H 98.0757 -0.9855 -1.09208 0
M  V30 1081 H 100.034 -0.412954 -4.15151 0
M  V30 1082 H 98.6637 0.244627 -3.21872 0
M  V30 1083 H 97.7157 -2.1734 -3.12198 0
M  V30 1084 H 99.0277 -2.66705 -4.21509 0
M  V30 1085 H 98.1817 -1.093 -5.96773 0
M  V30 1086 H 96.9207 -0.497293 -4.85158 0
M  V30 1087 H 95.9257 -2.79906 -4.73215 0
M  V30 1088 H 97.1507 -3.39283 -5.88272 0
M  V30 1089 H 95.0967 -1.22051 -6.44546 0
M  V30 1090 H 95.0137 -2.86125 -6.99763 0
M  V30 1091 H 96.2817 -1.82369 -7.57867 0
M  V30 1092 N 100.511 1.16574 -1.06058 0
M  V30 1093 C 101.739 1.90952 -0.796552 0
M  V30 1094 C 102.154 1.77302 0.648808 0
M  V30 1095 O 101.511 1.11605 1.44397 0
M  V30 1096 C 101.562 3.41736 -1.17894 0
M  V30 1097 O 101.283 3.54975 -2.56758 0
M  V30 1098 C 102.784 4.33169 -0.942308 0
M  V30 1099 H 100.004 0.605594 -0.288959 0
M  V30 1100 H 102.548 1.47777 -1.41358 0
M  V30 1101 H 100.703 3.82623 -0.606491 0
M  V30 1102 H 101.117 4.4846 -2.72 0
M  V30 1103 H 102.591 5.37439 -1.25952 0
M  V30 1104 H 103.068 4.3903 0.122078 0
M  V30 1105 H 103.674 3.98007 -1.49902 0
M  V30 1106 N 101.989 0.842826 1.3317 0
M  V30 1107 C 103.266 0.362216 1.92217 0
M  V30 1108 C 103.646 -1.15289 1.76838 0
M  V30 1109 O 102.994 -1.96914 1.15919 0
M  V30 1110 C 103.204 0.813495 3.39387 0
M  V30 1111 C 104.552 0.823804 4.16532 0
M  V30 1112 O 105.576 0.757358 3.48055 0
M  V30 1113 O 104.435 0.915193 5.38782 0
M  V30 1114 H 101.529 0.103317 0.820521 0
M  V30 1115 H 104.075 0.928942 1.42017 0
M  V30 1116 H 102.847 1.85624 3.4447 0
M  V30 1117 H 102.47 0.223561 3.96971 0
M  V30 1118 N 103.467 -1.45747 0.599634 0
M  V30 1119 C 104.43 -2.28917 -0.113835 0
M  V30 1120 C 105.43 -1.3933 -0.802729 0
M  V30 1121 O 106.62 -1.61534 -0.652103 0
M  V30 1122 C 103.752 -3.20152 -1.17114 0
M  V30 1123 H 104.945 -2.93478 0.617289 0
M  V30 1124 H 102.498 -1.52137 0.358327 0
M  V30 1125 H 103.233 -2.60374 -1.93329 0
M  V30 1126 H 103.018 -3.86133 -0.681468 0
M  V30 1127 H 104.508 -3.82708 -1.67105 0
M  V30 1128 N 104.945 -0.338344 -1.53925 0
M  V30 1129 C 105.875 0.51328 -2.27789 0
M  V30 1130 C 106.856 1.107 -1.29149 0
M  V30 1131 O 108.041 1.12937 -1.57984 0
M  V30 1132 C 105.171 1.66697 -3.04679 0
M  V30 1133 C 104.125 1.20183 -4.1078 0
M  V30 1134 C 103.451 2.44363 -4.75595 0
M  V30 1135 C 104.751 0.30605 -5.21403 0
M  V30 1136 H 106.445 -0.102883 -2.99223 0
M  V30 1137 H 103.991 -0.0509219 -1.4391 0
M  V30 1138 H 105.944 2.26915 -3.55088 0
M  V30 1139 H 104.668 2.30995 -2.30887 0
M  V30 1140 H 103.327 0.622499 -3.61276 0
M  V30 1141 H 102.975 3.07057 -3.98403 0
M  V30 1142 H 102.675 2.13925 -5.47275 0
M  V30 1143 H 104.199 3.05317 -5.28786 0
M  V30 1144 H 105.613 0.814929 -5.67478 0
M  V30 1145 H 104.01 0.0937929 -6.00027 0
M  V30 1146 H 105.08 -0.65921 -4.80398 0
M  V30 1147 N 106.423 1.57458 -0.0668435 0
M  V30 1148 C 107.371 2.13639 0.919851 0
M  V30 1149 C 108.365 1.07204 1.31163 0
M  V30 1150 O 109.571 1.25591 1.28945 0
M  V30 1151 H 105.946 0.683048 0.314562 0
M  V30 1152 H 107.917 2.95415 0.421047 0
M  V30 1153 C 106.666 2.70892 2.17975 0
M  V30 1154 H 105.989 3.5246 1.88711 0
M  V30 1155 H 107.429 3.13803 2.85138 0
M  V30 1156 C 105.888 1.65414 2.93496 0
M  V30 1157 O 106.418 1.07619 3.87015 0
M  V30 1158 N 104.624 1.36564 2.56512 0
M  V30 1159 H 104.171 1.83751 1.80536 0
M  V30 1160 H 104.129 0.66223 3.07347 0
M  V30 1161 N 107.901 -0.206675 1.56239 0
M  V30 1162 C 108.831 -1.25909 1.96645 0
M  V30 1163 C 109.812 -1.48097 0.836734 0
M  V30 1164 O 110.997 -1.6003 1.10019 0
M  V30 1165 C 108.127 -2.6058 2.29599 0
M  V30 1166 C 107.081 -2.53024 3.452 0
M  V30 1167 C 106.407 -3.91861 3.63798 0
M  V30 1168 C 107.707 -2.06524 4.79734 0
M  V30 1169 H 109.401 -0.923369 2.84806 0
M  V30 1170 H 106.947 -0.442735 1.37025 0
M  V30 1171 H 108.9 -3.34375 2.56459 0
M  V30 1172 H 107.624 -2.95869 1.38307 0
M  V30 1173 H 106.283 -1.81684 3.18412 0
M  V30 1174 H 105.931 -4.24483 2.69857 0
M  V30 1175 H 105.631 -3.87683 4.4156 0
M  V30 1176 H 107.155 -4.67296 3.93022 0
M  V30 1177 H 108.569 -2.70072 5.05702 0
M  V30 1178 H 106.966 -2.13374 5.60885 0
M  V30 1179 H 108.036 -1.01802 4.74093 0
M  V30 1180 N 109.379 -1.50304 -0.473955 0
M  V30 1181 C 110.619 -1.62786 -1.23612 0
M  V30 1182 C 110.983 -0.319786 -1.89318 0
M  V30 1183 O 112.184 -0.320012 -2.66888 0
M  V30 1184 C 110.455 -2.77351 -2.25414 0
M  V30 1185 S 112.014 -3.09948 -3.10608 0
M  V30 1186 H 108.832 -0.573895 -0.419721 0
M  V30 1187 H 111.434 -1.88076 -0.533623 0
M  V30 1188 H 110.138 -3.70879 -1.75719 0
M  V30 1189 H 109.669 -2.54137 -3.00296 0
M  V30 1190 H 111.684 -2.53553 -4.26527 0
M  V30 1191 N 110.857 0.726932 -1.39834 0
M  V30 1192 C 111.767 1.87131 -1.41489 0
M  V30 1193 C 112.783 1.71239 -0.308757 0
M  V30 1194 O 113.959 1.93701 -0.551529 0
M  V30 1195 C 111.024 3.22811 -1.26468 0
M  V30 1196 C 110.085 3.51039 -2.47124 0
M  V30 1197 C 109.318 4.80245 -2.3281 0
M  V30 1198 O 109.541 5.54537 -1.33585 0
M  V30 1199 O 108.475 5.08554 -3.21957 0
M  V30 1200 H 112.301 1.8869 -2.3797 0
M  V30 1201 H 109.886 0.875837 -1.21035 0
M  V30 1202 H 111.768 4.03877 -1.20255 0
M  V30 1203 H 110.443 3.22005 -0.330862 0
M  V30 1204 H 109.35 2.70027 -2.58914 0
M  V30 1205 H 110.683 3.56632 -3.39227 0
M  V30 1206 N 112.336 1.25143 0.95797 0
M  V30 1207 C 113.283 1.05235 2.05412 0
M  V30 1208 C 114.253 -0.0374561 1.66058 0
M  V30 1209 O 115.438 0.119073 1.90428 0
M  V30 1210 C 112.578 0.673589 3.38462 0
M  V30 1211 C 111.691 1.8379 3.90954 0
M  V30 1212 C 110.826 1.40381 5.12315 0
M  V30 1213 C 109.865 2.53746 5.57027 0
M  V30 1214 N 109.002 2.11136 6.69601 0
M  V30 1215 H 113.842 1.99048 2.21774 0
M  V30 1216 H 111.379 0.991277 1.08683 0
M  V30 1217 H 113.337 0.434964 4.14926 0
M  V30 1218 H 111.967 -0.227554 3.21997 0
M  V30 1219 H 111.019 2.18992 3.11041 0
M  V30 1220 H 112.331 2.68937 4.20089 0
M  V30 1221 H 111.485 1.12464 5.96185 0
M  V30 1222 H 110.224 0.523015 4.84887 0
M  V30 1223 H 109.229 2.82412 4.71724 0
M  V30 1224 H 110.454 3.42398 5.86464 0
M  V30 1225 H 108.4 1.25468 6.4389 0
M  V30 1226 H 108.317 2.89832 6.98236 0
M  V30 1227 H 109.585 1.86385 7.56889 0
M  V30 1228 N 113.814 -1.1601 1.06675 0
M  V30 1229 C 115.061 -1.86633 0.785781 0
M  V30 1230 C 115.389 -1.81929 -0.687896 0
M  V30 1231 O 114.644 -1.23253 -1.52011 0
M  V30 1232 C 114.943 -3.35547 1.23057 0
M  V30 1233 C 114.609 -3.60448 2.70902 0
M  V30 1234 C 113.271 -3.66954 3.11285 0
M  V30 1235 C 115.623 -3.7071 3.66365 0
M  V30 1236 C 112.951 -3.81225 4.45965 0
M  V30 1237 C 115.303 -3.86503 5.00797 0
M  V30 1238 C 113.967 -3.91252 5.40813 0
M  V30 1239 H 113.237 -0.682937 0.287538 0
M  V30 1240 H 115.884 -1.37146 1.33654 0
M  V30 1241 H 114.189 -3.87193 0.59907 0
M  V30 1242 H 115.886 -3.88583 0.990163 0
M  V30 1243 H 112.476 -3.56021 2.38636 0
M  V30 1244 H 116.66 -3.64991 3.36296 0
M  V30 1245 H 111.916 -3.83155 4.76447 0
M  V30 1246 H 116.09 -3.93385 5.74649 0
M  V30 1247 H 113.717 -4.02062 6.45174 0
M  V30 1248 N 115.292 -0.849877 -1.32721 0
M  V30 1249 C 116.517 -0.463856 -2.02146 0
M  V30 1250 C 116.942 0.930449 -1.63476 0
M  V30 1251 O 116.3 1.61033 -0.832952 0
M  V30 1252 C 116.348 -0.604955 -3.55489 0
M  V30 1253 O 115.452 0.36425 -4.10788 0
M  V30 1254 H 114.793 -0.187046 -0.637111 0
M  V30 1255 H 117.323 -1.14775 -1.69375 0
M  V30 1256 H 117.333 -0.490696 -4.05038 0
M  V30 1257 H 116.008 -1.62174 -3.82978 0
M  V30 1258 H 114.585 0.206628 -3.72327 0
M  V30 1259 N 116.77 1.45427 -0.607355 0
M  V30 1260 C 118.019 2.01452 -0.100036 0
M  V30 1261 C 118.332 1.48159 1.27704 0
M  V30 1262 O 119.538 1.96159 1.87707 0
M  V30 1263 C 117.994 3.59672 -0.128158 0
M  V30 1264 C 117.602 4.21962 -1.50507 0
M  V30 1265 C 119.346 4.23262 0.323932 0
M  V30 1266 C 117.253 5.72333 -1.48959 0
M  V30 1267 H 116.183 0.75325 -0.0336299 0
M  V30 1268 H 118.834 1.66901 -0.76265 0
M  V30 1269 H 117.216 3.91411 0.601105 0
M  V30 1270 H 118.39 4.01796 -2.25602 0
M  V30 1271 H 116.705 3.70565 -1.89923 0
M  V30 1272 H 119.302 5.33522 0.354691 0
M  V30 1273 H 119.645 3.93921 1.34656 0
M  V30 1274 H 120.178 3.96239 -0.352056 0
M  V30 1275 H 116.917 6.06373 -2.48981 0
M  V30 1276 H 116.437 5.94691 -0.781214 0
M  V30 1277 H 118.116 6.35525 -1.21313 0
M  V30 1278 N 118.248 0.346503 1.53744 0
M  V30 1279 C 119.659 -0.136779 1.86198 0
M  V30 1280 C 120.01 -1.49749 1.26766 0
M  V30 1281 O 119.135 -2.08417 0.582355 0
M  V30 1282 C 119.73 -0.254966 3.37839 0
M  V30 1283 C 118.289 -0.682482 3.70161 0
M  V30 1284 C 117.436 0.181981 2.76702 0
M  V30 1285 H 120.387 0.565994 1.48264 0
M  V30 1286 H 120.408 -1.08195 3.64793 0
M  V30 1287 H 119.92 0.735526 3.81066 0
M  V30 1288 H 118.021 -1.68189 3.3248 0
M  V30 1289 H 118.134 -0.470326 4.76786 0
M  V30 1290 H 116.498 -0.34615 2.52337 0
M  V30 1291 H 117.281 1.16966 3.2276 0
M  V30 1292 N 119.726 -1.57421 0.075193 0
M  V30 1293 C 120.956 -1.97659 -0.601203 0
M  V30 1294 C 121.364 -0.952427 -1.63479 0
M  V30 1295 O 120.707 0.0688241 -1.83571 0
M  V30 1296 C 120.769 -3.34218 -1.32434 0
M  V30 1297 C 120.433 -4.5484 -0.443826 0
M  V30 1298 C 121.43 -5.19034 0.299969 0
M  V30 1299 C 119.115 -5.00952 -0.367709 0
M  V30 1300 C 121.109 -6.27695 1.10807 0
M  V30 1301 C 118.796 -6.09484 0.444058 0
M  V30 1302 C 119.794 -6.72719 1.18061 0
M  V30 1303 O 119.482 -7.79161 1.97898 0
M  V30 1304 H 119.214 -0.65494 -0.167422 0
M  V30 1305 H 121.768 -2.04886 0.145157 0
M  V30 1306 H 119.998 -3.23615 -2.11685 0
M  V30 1307 H 121.687 -3.59038 -1.89331 0
M  V30 1308 H 122.453 -4.84351 0.250776 0
M  V30 1309 H 118.332 -4.51509 -0.930638 0
M  V30 1310 H 121.876 -6.76982 1.68347 0
M  V30 1311 H 117.773 -6.43601 0.494803 0
M  V30 1312 H 118.541 -7.96055 1.90367 0
M  V30 1313 N 121.204 0.198386 -1.56346 0
M  V30 1314 C 122.432 0.935572 -1.84539 0
M  V30 1315 C 122.847 1.76989 -0.657281 0
M  V30 1316 O 122.204 1.78626 0.374043 0
M  V30 1317 C 122.255 1.8344 -3.11499 0
M  V30 1318 O 121.976 1.03377 -4.25728 0
M  V30 1319 C 123.477 2.68355 -3.52846 0
M  V30 1320 H 120.697 0.273126 -0.612897 0
M  V30 1321 H 123.241 0.20663 -2.03453 0
M  V30 1322 H 121.396 2.51701 -2.94492 0
M  V30 1323 H 121.81 1.64599 -4.98003 0
M  V30 1324 H 123.284 3.27085 -4.44657 0
M  V30 1325 H 123.761 3.41901 -2.75681 0
M  V30 1326 H 124.367 2.05471 -3.72373 0
M  V30 1327 N 122.682 1.50554 0.465978 0
M  V30 1328 C 123.592 1.72585 1.58907 0
M  V30 1329 C 124.608 0.60911 1.6299 0
M  V30 1330 O 125.784 0.88804 1.80765 0
M  V30 1331 C 122.849 1.81995 2.95091 0
M  V30 1332 C 121.91 3.05751 3.01355 0
M  V30 1333 C 121.143 3.14702 4.31043 0
M  V30 1334 O 121.366 2.30313 5.21835 0
M  V30 1335 O 120.3 4.07468 4.43005 0
M  V30 1336 H 124.126 2.67799 1.43239 0
M  V30 1337 H 121.711 1.34711 0.646013 0
M  V30 1338 H 123.593 1.90335 3.75966 0
M  V30 1339 H 122.268 0.899659 3.10947 0
M  V30 1340 H 121.175 3.02908 2.19539 0
M  V30 1341 H 122.508 3.97375 2.90437 0
M  V30 1342 N 124.16 -0.719506 1.40217 0
M  V30 1343 C 125.39 -1.50646 1.41384 0
M  V30 1344 C 125.798 -1.89197 0.0107743 0
M  V30 1345 O 125.141 -1.55709 -0.974708 0
M  V30 1346 C 125.203 -2.81405 2.23722 0
M  V30 1347 C 124.867 -2.65199 3.72181 0
M  V30 1348 C 125.864 -2.32717 4.64907 0
M  V30 1349 C 123.549 -2.81586 4.1595 0
M  V30 1350 C 125.543 -2.16827 5.99387 0
M  V30 1351 C 123.23 -2.65313 5.50502 0
M  V30 1352 C 124.228 -2.32981 6.42035 0
M  V30 1353 O 123.916 -2.16827 7.74107 0
M  V30 1354 H 123.648 -0.471606 0.484318 0
M  V30 1355 H 126.202 -0.895456 1.84853 0
M  V30 1356 H 124.432 -3.44823 1.75026 0
M  V30 1357 H 126.121 -3.43102 2.16878 0
M  V30 1358 H 126.887 -2.19694 4.32388 0
M  V30 1359 H 122.766 -3.0574 3.45027 0
M  V30 1360 H 126.31 -1.91513 6.70797 0
M  V30 1361 H 122.207 -2.7792 5.82607 0
M  V30 1362 H 122.975 -2.31778 7.84998 0
M  V30 1363 N 125.638 -1.25649 -0.95132 0
M  V30 1364 C 126.863 -1.13443 -1.73624 0
M  V30 1365 C 127.288 0.307565 -1.85568 0
M  V30 1366 O 126.646 1.22282 -1.33854 0
M  V30 1367 C 126.694 -1.79723 -3.12621 0
M  V30 1368 O 125.798 -1.07912 -3.98031 0
M  V30 1369 H 125.139 -0.395872 -0.533086 0
M  V30 1370 H 127.669 -1.66276 -1.1922 0
M  V30 1371 H 127.679 -1.86141 -3.63064 0
M  V30 1372 H 126.354 -2.84633 -3.03244 0
M  V30 1373 H 124.931 -1.09398 -3.56492 0
M  V30 1374 N 127.117 1.15442 -1.07289 0
M  V30 1375 C 128.366 1.85557 -0.790669 0
M  V30 1376 C 128.679 1.83186 0.685739 0
M  V30 1377 O 129.885 2.48977 1.0827 0
M  V30 1378 C 128.341 3.33038 -1.36433 0
M  V30 1379 C 127.949 3.43856 -2.8717 0
M  V30 1380 C 129.693 4.0834 -1.1601 0
M  V30 1381 C 127.6 4.85482 -3.3773 0
M  V30 1382 H 126.53 0.695122 -0.292098 0
M  V30 1383 H 129.181 1.30219 -1.29287 0
M  V30 1384 H 127.563 3.88043 -0.789864 0
M  V30 1385 H 128.737 2.98961 -3.50655 0
M  V30 1386 H 127.052 2.81998 -3.06376 0
M  V30 1387 H 129.649 5.12859 -1.51262 0
M  V30 1388 H 129.992 4.16182 -0.0991007 0
M  V30 1389 H 130.525 3.59603 -1.70089 0
M  V30 1390 H 127.264 4.82823 -4.43353 0
M  V30 1391 H 126.784 5.30961 -2.78999 0
M  V30 1392 H 128.463 5.54335 -3.33648 0
M  V30 1393 N 128.595 0.856903 1.32268 0
M  V30 1394 C 129.558 0.308171 2.27119 0
M  V30 1395 C 130.558 -0.533421 1.51695 0
M  V30 1396 O 131.748 -0.344607 1.70757 0
M  V30 1397 C 128.88 -0.563757 3.36206 0
M  V30 1398 H 130.073 1.14535 2.77167 0
M  V30 1399 H 127.626 0.631421 1.42978 0
M  V30 1400 H 128.361 -1.42266 2.91429 0
M  V30 1401 H 128.146 0.0386749 3.92081 0
M  V30 1402 H 129.636 -0.940386 4.06874 0
M  V30 1403 N 130.073 -1.45103 0.615059 0
M  V30 1404 C 131.484 -1.85654 0.197383 0
M  V30 1405 C 131.835 -1.51433 -1.24749 0
M  V30 1406 O 130.96 -0.944608 -1.94695 0
M  V30 1407 C 131.555 -3.36972 0.351448 0
M  V30 1408 C 130.114 -3.76398 -0.011593 0
M  V30 1409 C 129.261 -2.69024 0.672394 0
M  V30 1410 H 132.212 -1.35797 0.821263 0
M  V30 1411 H 132.233 -3.78239 -0.414227 0
M  V30 1412 H 131.745 -3.61847 1.40314 0
M  V30 1413 H 129.846 -3.5714 -1.06217 0
M  V30 1414 H 129.959 -4.77532 0.387265 0
M  V30 1415 H 128.323 -2.54465 0.109284 0
M  V30 1416 H 129.106 -2.96735 1.72636 0
M  V30 1417 N 131.551 -0.354651 -1.53558 0
M  V30 1418 C 132.781 0.239167 -2.05211 0
M  V30 1419 C 133.189 1.43879 -1.22863 0
M  V30 1420 O 132.532 1.81857 -0.259565 0
M  V30 1421 C 132.594 0.707251 -3.52474 0
M  V30 1422 C 132.258 -0.374212 -4.55465 0
M  V30 1423 C 133.255 -1.22054 -5.0537 0
M  V30 1424 C 130.94 -0.531323 -4.99482 0
M  V30 1425 C 132.934 -2.20942 -5.97882 0
M  V30 1426 C 130.621 -1.52358 -5.91802 0
M  V30 1427 C 131.619 -2.36108 -6.40892 0
M  V30 1428 O 131.307 -3.33643 -7.31394 0
M  V30 1429 H 131.039 0.0479716 -0.674296 0
M  V30 1430 H 133.593 -0.508121 -1.99016 0
M  V30 1431 H 131.823 1.50596 -3.56171 0
M  V30 1432 H 133.512 1.22285 -3.87042 0
M  V30 1433 H 134.278 -1.1103 -4.7212 0
M  V30 1434 H 130.157 0.110738 -4.60867 0
M  V30 1435 H 133.701 -2.86348 -6.36121 0
M  V30 1436 H 129.598 -1.63434 -6.24467 0
M  V30 1437 H 130.366 -3.29244 -7.4936 0
M  V30 1438 N 133.029 1.57378 -0.0835403 0
M  V30 1439 C 134.306 1.85363 0.624507 0
M  V30 1440 C 134.686 0.978239 1.87066 0
M  V30 1441 O 134.034 0.0475908 2.2845 0
M  V30 1442 C 134.244 3.35795 0.950947 0
M  V30 1443 C 135.592 4.03581 1.31939 0
M  V30 1444 O 136.616 3.40609 1.04232 0
M  V30 1445 O 135.475 5.14672 1.83779 0
M  V30 1446 H 132.569 0.766162 0.311329 0
M  V30 1447 H 135.115 1.69307 -0.115362 0
M  V30 1448 H 133.887 3.91244 0.0663899 0
M  V30 1449 H 133.51 3.57154 1.74719 0
M  V30 1450 N 134.507 -0.190092 1.56449 0
M  V30 1451 C 135.47 -1.21925 1.9408 0
M  V30 1452 C 136.47 -1.38176 0.822431 0
M  V30 1453 O 137.66 -1.35903 1.08977 0
M  V30 1454 C 134.792 -2.58773 2.21922 0
M  V30 1455 H 135.985 -0.897464 2.86157 0
M  V30 1456 H 133.538 -0.43181 1.50217 0
M  V30 1457 H 134.273 -2.95998 1.32499 0
M  V30 1458 H 134.058 -2.48348 3.03424 0
M  V30 1459 H 135.548 -3.32978 2.52022 0
M  V30 1460 N 135.985 -1.50799 -0.457987 0
M  V30 1461 C 137.234 -1.6168 -1.20593 0
M  V30 1462 C 137.547 -0.32888 -1.92815 0
M  V30 1463 O 138.753 -0.316773 -2.69646 0
M  V30 1464 C 137.209 -2.8545 -2.19195 0
M  V30 1465 C 136.817 -4.21168 -1.52715 0
M  V30 1466 C 138.561 -3.05681 -2.94549 0
M  V30 1467 C 136.468 -5.3611 -2.4968 0
M  V30 1468 H 135.398 -0.602134 -0.453818 0
M  V30 1469 H 138.049 -1.77245 -0.475031 0
M  V30 1470 H 136.431 -2.63472 -2.95632 0
M  V30 1471 H 137.605 -4.53449 -0.819775 0
M  V30 1472 H 135.92 -4.06648 -0.895922 0
M  V30 1473 H 138.517 -3.88727 -3.67145 0
M  V30 1474 H 138.86 -2.17929 -3.54701 0
M  V30 1475 H 139.393 -3.27901 -2.25223 0
M  V30 1476 H 136.132 -6.26057 -1.94249 0
M  V30 1477 H 135.652 -5.0823 -3.18532 0
M  V30 1478 H 137.331 -5.6722 -3.11241 0
M  V30 1479 N 137.463 0.71206 -1.40597 0
M  V30 1480 C 138.71 1.47197 -1.39065 0
M  V30 1481 C 139.038 1.94499 0.00583891 0
M  V30 1482 O 138.293 1.68752 0.99102 0
M  V30 1483 C 138.592 2.71039 -2.32965 0
M  V30 1484 C 138.258 2.42484 -3.80148 0
M  V30 1485 C 136.92 2.34406 -4.20247 0
M  V30 1486 C 139.272 2.18598 -4.73143 0
M  V30 1487 C 136.6 2.00516 -5.51371 0
M  V30 1488 C 138.952 1.8622 -6.0457 0
M  V30 1489 C 137.616 1.76626 -6.43708 0
M  V30 1490 H 136.886 0.538634 -0.508876 0
M  V30 1491 H 139.533 0.815325 -1.73276 0
M  V30 1492 H 137.838 3.41558 -1.91951 0
M  V30 1493 H 139.535 3.29138 -2.29061 0
M  V30 1494 H 136.125 2.49659 -3.4838 0
M  V30 1495 H 140.309 2.23793 -4.42979 0
M  V30 1496 H 135.565 1.91628 -5.80593 0
M  V30 1497 H 139.739 1.66752 -6.76141 0
M  V30 1498 H 137.366 1.50133 -7.45228 0
M  V30 1499 N 138.941 1.26152 0.944643 0
M  V30 1500 C 140.166 1.14363 1.7302 0
M  V30 1501 C 140.591 -0.29772 1.85729 0
M  V30 1502 O 139.949 -1.2157 1.34501 0
M  V30 1503 C 139.997 1.81378 3.11664 0
M  V30 1504 O 139.101 1.10022 3.97453 0
M  V30 1505 H 138.442 0.398694 0.53098 0
M  V30 1506 H 140.972 1.66906 1.18337 0
M  V30 1507 H 140.982 1.88064 3.62072 0
M  V30 1508 H 139.657 2.86237 3.0173 0
M  V30 1509 H 138.234 1.11287 3.55907 0
M  V30 1510 N 140.419 -1.14872 1.07899 0
M  V30 1511 C 141.644 -1.90202 0.826926 0
M  V30 1512 C 142.069 -1.77774 -0.614664 0
M  V30 1513 O 141.427 -1.11431 -1.43013 0
M  V30 1514 C 141.475 -3.38352 1.24702 0
M  V30 1515 O 140.579 -4.10497 0.39575 0
M  V30 1516 H 139.92 -0.591968 0.300782 0
M  V30 1517 H 142.45 -1.45437 1.43907 0
M  V30 1518 H 142.46 -3.89156 1.22563 0
M  V30 1519 H 141.135 -3.46715 2.29698 0
M  V30 1520 H 139.712 -3.69796 0.480117 0
M  V30 1521 N 141.898 -0.863906 -1.31812 0
M  V30 1522 C 142.848 -0.286898 -2.26188 0
M  V30 1523 C 143.832 0.572577 -1.50367 0
M  V30 1524 O 145.024 0.420447 -1.71934 0
M  V30 1525 C 142.153 0.515849 -3.39402 0
M  V30 1526 C 141.239 -0.356531 -4.22599 0
M  V30 1527 N 141.63 -1.44716 -4.84656 0
M  V30 1528 C 139.928 -0.147898 -4.45755 0
M  V30 1529 C 140.629 -1.98462 -5.46798 0
M  V30 1530 N 139.605 -1.28247 -5.28255 0
M  V30 1531 H 143.407 -1.12055 -2.717 0
M  V30 1532 H 140.921 -0.711012 -1.46008 0
M  V30 1533 H 142.918 0.945701 -4.06032 0
M  V30 1534 H 141.578 1.34718 -2.95434 0
M  V30 1535 H 142.589 -1.83008 -4.84488 0
M  V30 1536 H 139.266 0.647973 -4.12441 0
M  V30 1537 H 140.656 -2.89932 -6.06126 0
M  V30 1538 N 143.376 1.44774 -0.622745 0
M  V30 1539 C 144.623 2.02121 -0.1239 0
M  V30 1540 C 144.951 1.48915 1.25118 0
M  V30 1541 O 144.206 0.660045 1.84233 0
M  V30 1542 C 144.505 3.57364 -0.0508323 0
M  V30 1543 C 144.171 4.29787 -1.36358 0
M  V30 1544 C 142.833 4.4929 -1.72314 0
M  V30 1545 C 145.185 4.71062 -2.23048 0
M  V30 1546 C 142.513 5.07325 -2.94682 0
M  V30 1547 C 144.865 5.30452 -3.44679 0
M  V30 1548 C 143.529 5.48175 -3.80868 0
M  V30 1549 H 142.799 0.739612 -0.0453381 0
M  V30 1550 H 145.446 1.73648 -0.807389 0
M  V30 1551 H 143.751 3.85202 0.715991 0
M  V30 1552 H 145.448 3.99456 0.351533 0
M  V30 1553 H 142.038 4.14932 -1.07375 0
M  V30 1554 H 146.222 4.55715 -1.96565 0
M  V30 1555 H 141.478 5.19235 -3.22809 0
M  V30 1556 H 145.652 5.61385 -4.12092 0
M  V30 1557 H 143.279 5.92912 -4.75773 0
M  V30 1558 N 144.854 0.36279 1.53368 0
M  V30 1559 C 145.801 -0.485008 2.25646 0
M  V30 1560 C 146.771 -1.07982 1.2621 0
M  V30 1561 O 147.956 -1.11284 1.54986 0
M  V30 1562 C 145.096 -1.62023 3.04701 0
M  V30 1563 C 144.209 -1.05086 4.19024 0
M  V30 1564 C 143.344 -2.15496 4.85525 0
M  V30 1565 C 142.383 -1.5601 5.91884 0
M  V30 1566 N 141.52 -2.60241 6.52088 0
M  V30 1567 H 146.36 0.137864 2.97681 0
M  V30 1568 H 143.897 0.0798061 1.46883 0
M  V30 1569 H 145.855 -2.28887 3.48807 0
M  V30 1570 H 144.485 -2.2138 2.34927 0
M  V30 1571 H 143.537 -0.27259 3.79422 0
M  V30 1572 H 144.849 -0.575926 4.95464 0
M  V30 1573 H 144.003 -2.90186 5.32801 0
M  V30 1574 H 142.742 -2.66341 4.08551 0
M  V30 1575 H 141.747 -0.798338 5.43973 0
M  V30 1576 H 142.972 -1.05994 6.70777 0
M  V30 1577 H 140.918 -3.10304 5.77968 0
M  V30 1578 H 140.835 -2.17426 7.24059 0
M  V30 1579 H 142.103 -3.34641 7.04014 0
M  V30 1580 N 146.332 -1.57332 0.0918853 0
M  V30 1581 C 147.609 -1.85691 -0.614668 0
M  V30 1582 C 147.989 -0.988146 -1.86545 0
M  V30 1583 O 147.337 -0.0597055 -2.28422 0
M  V30 1584 C 147.547 -3.36294 -0.933126 0
M  V30 1585 C 148.895 -4.04275 -1.29796 0
M  V30 1586 O 149.919 -3.41157 -1.02424 0
M  V30 1587 O 148.778 -5.1564 -1.81047 0
M  V30 1588 H 145.872 -0.767802 -0.307261 0
M  V30 1589 H 148.418 -1.69244 0.12434 0
M  V30 1590 H 147.19 -3.91273 -0.0456404 0
M  V30 1591 H 146.813 -3.58076 -1.72822 0
M  V30 1592 N 147.81 0.181792 -1.56548 0
M  V30 1593 C 148.773 1.20894 -1.94724 0
M  V30 1594 C 149.773 1.37738 -0.829747 0
M  V30 1595 O 150.963 1.35323 -1.09697 0
M  V30 1596 C 148.095 2.57593 -2.23291 0
M  V30 1597 H 149.288 0.882275 -2.86629 0
M  V30 1598 H 146.841 0.423838 -1.50444 0
M  V30 1599 H 147.576 2.95291 -1.34067 0
M  V30 1600 H 147.361 2.46735 -3.04736 0
M  V30 1601 H 148.851 3.31637 -2.53785 0
M  V30 1602 N 149.288 1.51039 0.449983 0
M  V30 1603 C 150.513 1.6715 1.22783 0
M  V30 1604 C 150.938 0.363081 1.84563 0
M  V30 1605 O 150.296 -0.675433 1.68249 0
M  V30 1606 C 150.344 2.77985 2.29689 0
M  V30 1607 O 149.448 2.40707 3.34864 0
M  V30 1608 H 148.789 0.557746 0.360299 0
M  V30 1609 H 151.319 1.97535 0.533005 0
M  V30 1610 H 151.329 3.01693 2.74673 0
M  V30 1611 H 150.004 3.72935 1.84098 0
M  V30 1612 H 148.581 2.27523 2.95445 0
M  V30 1613 N 150.766 -0.704594 1.40972 0
M  V30 1614 C 151.696 -1.83124 1.44872 0
M  V30 1615 C 152.677 -1.67281 0.30838 0
M  V30 1616 O 153.862 -1.87149 0.518556 0
M  V30 1617 C 150.992 -3.21181 1.32136 0
M  V30 1618 C 149.946 -3.51714 2.43888 0
M  V30 1619 C 149.272 -4.89032 2.16222 0
M  V30 1620 C 150.572 -3.516 3.86232 0
M  V30 1621 H 152.266 -1.80117 2.39161 0
M  V30 1622 H 149.812 -0.865145 1.15114 0
M  V30 1623 H 151.765 -3.99702 1.33479 0
M  V30 1624 H 150.489 -3.24791 0.343279 0
M  V30 1625 H 149.148 -2.75539 2.41813 0
M  V30 1626 H 148.796 -4.89256 1.16778 0
M  V30 1627 H 148.496 -5.10426 2.911 0
M  V30 1628 H 150.02 -5.69873 2.19265 0
M  V30 1629 H 151.434 -4.2014 3.9007 0
M  V30 1630 H 149.831 -3.84523 4.60719 0
M  V30 1631 H 150.901 -2.50757 4.15029 0
M  V30 1632 N 152.244 -1.26651 -0.937939 0
M  V30 1633 C 153.472 -1.15173 -1.7188 0
M  V30 1634 C 153.887 0.292668 -1.86518 0
M  V30 1635 O 153.244 1.20014 -1.37488 0
M  V30 1636 C 153.295 -1.81925 -3.12387 0
M  V30 1637 O 153.016 -3.2072 -2.98446 0
M  V30 1638 C 154.517 -1.76442 -4.06673 0
M  V30 1639 H 151.737 -0.400911 -0.538063 0
M  V30 1640 H 154.281 -1.67332 -1.1756 0
M  V30 1641 H 152.436 -1.33696 -3.63599 0
M  V30 1642 H 152.85 -3.53802 -3.872 0
M  V30 1643 H 154.324 -2.27781 -5.02812 0
M  V30 1644 H 154.801 -0.731608 -4.33064 0
M  V30 1645 H 155.407 -2.24238 -3.61382 0
M  V30 1646 N 153.722 1.14298 -1.08507 0
M  V30 1647 C 155.138 1.37347 -0.812901 0
M  V30 1648 C 155.338 1.93052 0.577325 0
M  V30 1649 O 154.394 2.14389 1.33393 0
M  V30 1650 C 155.707 2.33359 -1.89642 0
M  V30 1651 C 157.255 2.46996 -1.92255 0
M  V30 1652 C 157.73 3.46309 -2.99724 0
M  V30 1653 N 159.221 3.53853 -2.98902 0
M  V30 1654 C 159.956 4.3055 -3.787 0
M  V30 1655 N 159.452 5.10482 -4.6838 0
M  V30 1656 N 161.245 4.25757 -3.66998 0
M  V30 1657 H 153.396 0.764867 -1.9815 0
M  V30 1658 H 155.659 0.398966 -0.859959 0
M  V30 1659 H 155.365 1.99565 -2.89597 0
M  V30 1660 H 155.239 3.33274 -1.76659 0
M  V30 1661 H 157.626 2.80081 -0.929445 0
M  V30 1662 H 157.707 1.47039 -2.09316 0
M  V30 1663 H 157.351 3.13957 -3.99241 0
M  V30 1664 H 157.281 4.46049 -2.79907 0
M  V30 1665 H 159.772 2.96812 -2.33904 0
M  V30 1666 H 160.085 5.66284 -5.25873 0
M  V30 1667 H 158.43 5.09747 -4.72422 0
M  V30 1668 H 161.621 3.62383 -2.96304 0
M  V30 1669 H 161.794 4.85279 -4.29427 0
M  V30 1670 N 155.201 0.870884 1.31352 0
M  V30 1671 C 156.148 0.325425 2.28494 0
M  V30 1672 C 157.118 -0.576615 1.5577 0
M  V30 1673 O 158.303 -0.508059 1.83911 0
M  V30 1674 C 155.443 -0.466283 3.41935 0
M  V30 1675 C 154.556 0.463378 4.29508 0
M  V30 1676 C 153.691 -0.342544 5.30094 0
M  V30 1677 C 152.73 0.583486 6.09313 0
M  V30 1678 N 151.867 -0.186244 7.01853 0
M  V30 1679 H 156.707 1.15901 2.74538 0
M  V30 1680 H 154.244 0.58294 1.35056 0
M  V30 1681 H 156.202 -0.941085 4.06447 0
M  V30 1682 H 154.832 -1.26456 2.97 0
M  V30 1683 H 153.884 1.05663 3.65431 0
M  V30 1684 H 155.196 1.1734 4.84802 0
M  V30 1685 H 154.35 -0.879816 6.00287 0
M  V30 1686 H 153.089 -1.08585 4.75458 0
M  V30 1687 H 152.094 1.13251 5.3801 0
M  V30 1688 H 153.319 1.32566 6.66035 0
M  V30 1689 H 151.265 -0.912348 6.49625 0
M  V30 1690 H 151.182 0.464422 7.54572 0
M  V30 1691 H 152.45 -0.704716 7.76308 0
M  V30 1692 N 156.679 -1.44442 0.630414 0
M  V30 1693 C 157.927 -2.01653 0.134351 0
M  V30 1694 C 158.248 -1.49836 -1.24796 0
M  V30 1695 O 157.518 -0.701684 -1.82902 0
M  V30 1696 H 156.098 -0.74554 0.0466769 0
M  V30 1697 H 158.76 -1.76952 0.816955 0
M  V30 1698 H 157.856 -3.11935 0.101498 0
M  V30 1699 N 158.157 -0.370918 -1.53173 0
M  V30 1700 C 159.105 0.488101 -2.27421 0
M  V30 1701 C 160.099 1.07884 -1.30604 0
M  V30 1702 O 161.305 1.02143 -1.48212 0
M  V30 1703 H 157.68 0.176134 -0.731082 0
M  V30 1704 H 159.651 -0.159815 -2.97972 0
M  V30 1705 C 158.4 1.61306 -3.08019 0
M  V30 1706 H 157.723 1.1678 -3.82364 0
M  V30 1707 H 159.163 2.18872 -3.63141 0
M  V30 1708 C 157.622 2.55848 -2.19188 0
M  V30 1709 O 158.152 3.58799 -1.80626 0
M  V30 1710 N 156.358 2.2516 -1.83715 0
M  V30 1711 H 155.905 1.41476 -2.15273 0
M  V30 1712 H 155.863 2.8867 -1.24567 0
M  V30 1713 N 159.635 1.57281 -0.100228 0
M  V30 1714 C 160.882 1.94537 0.562268 0
M  V30 1715 C 161.21 0.982315 1.67871 0
M  V30 1716 O 160.465 0.00280936 1.957 0
M  V30 1717 C 160.764 3.38305 1.15259 0
M  V30 1718 C 160.43 4.50618 0.159409 0
M  V30 1719 C 159.092 4.81066 -0.113741 0
M  V30 1720 C 161.444 5.18615 -0.518461 0
M  V30 1721 C 158.772 5.76835 -1.07137 0
M  V30 1722 C 161.124 6.15412 -1.46459 0
M  V30 1723 C 159.788 6.44262 -1.74592 0
M  V30 1724 H 159.058 0.711863 0.205748 0
M  V30 1725 H 161.705 1.90679 -0.17715 0
M  V30 1726 H 160.01 3.38766 1.96836 0
M  V30 1727 H 161.707 3.64435 1.67297 0
M  V30 1728 H 158.297 4.2689 0.382491 0
M  V30 1729 H 162.481 4.95264 -0.320581 0
M  V30 1730 H 157.737 5.975 -1.29628 0
M  V30 1731 H 161.911 6.67194 -1.99564 0
M  V30 1732 H 159.538 7.1828 -2.48953 0
M  V30 1733 N 161.113 -0.173488 1.56642 0
M  V30 1734 C 162.353 -0.896984 1.83667 0
M  V30 1735 C 162.717 -1.79523 0.680842 0
M  V30 1736 O 163.918 -2.55616 0.831488 0
M  V30 1737 C 162.189 -1.67351 3.15798 0
M  V30 1738 S 163.748 -2.44607 3.64298 0
M  V30 1739 H 160.566 -0.300464 0.644393 0
M  V30 1740 H 163.168 -0.158775 1.94854 0
M  V30 1741 H 161.872 -1.00462 3.97914 0
M  V30 1742 H 161.403 -2.45313 3.07546 0
M  V30 1743 H 163.418 -3.69261 3.31452 0
M  V30 1744 N 162.591 -1.51276 -0.441967 0
M  V30 1745 C 163.554 -1.7167 -1.51862 0
M  V30 1746 C 164.554 -0.586793 -1.49711 0
M  V30 1747 O 165.744 -0.854276 -1.51815 0
M  V30 1748 C 162.876 -1.76889 -2.91416 0
M  V30 1749 H 164.069 -2.67754 -1.35084 0
M  V30 1750 H 161.622 -1.41196 -0.670333 0
M  V30 1751 H 162.357 -0.826026 -3.13604 0
M  V30 1752 H 162.142 -2.59001 -2.94382 0
M  V30 1753 H 163.632 -1.94522 -3.69528 0
M  V30 1754 N 164.069 0.697108 -1.41344 0
M  V30 1755 C 165.485 1.00751 -1.2378 0
M  V30 1756 C 165.685 2.01105 -0.126066 0
M  V30 1757 O 164.741 2.47295 0.51004 0
M  V30 1758 C 166.054 1.53359 -2.58653 0
M  V30 1759 C 167.602 1.6525 -2.65822 0
M  V30 1760 C 168.077 2.2126 -4.01009 0
M  V30 1761 N 169.568 2.28622 -4.02847 0
M  V30 1762 C 170.303 2.72984 -5.04249 0
M  V30 1763 N 169.799 3.16962 -6.16041 0
M  V30 1764 N 171.592 2.72534 -4.91611 0
M  V30 1765 H 163.743 0.0322662 -2.12375 0
M  V30 1766 H 166.006 0.0768853 -0.944877 0
M  V30 1767 H 165.712 0.870773 -3.4075 0
M  V30 1768 H 165.586 2.51597 -2.81032 0
M  V30 1769 H 167.973 2.30644 -1.84086 0
M  V30 1770 H 168.054 0.655614 -2.47256 0
M  V30 1771 H 167.698 1.56482 -4.83193 0
M  V30 1772 H 167.628 3.21698 -4.16915 0
M  V30 1773 H 170.119 1.97585 -3.22131 0
M  V30 1774 H 170.432 3.49434 -6.89287 0
M  V30 1775 H 168.777 3.14875 -6.1958 0
M  V30 1776 H 171.968 2.37525 -4.0336 0
M  V30 1777 H 172.141 3.06789 -5.70775 0
M  V30 1778 N 165.547 1.27147 0.931209 0
M  V30 1779 C 166.477 1.12081 2.04842 0
M  V30 1780 C 167.458 0.0232364 1.70084 0
M  V30 1781 O 168.643 0.197085 1.93197 0
M  V30 1782 C 165.773 0.76354 3.38803 0
M  V30 1783 C 164.727 1.81396 3.87659 0
M  V30 1784 C 164.053 1.31075 5.18385 0
M  V30 1785 C 165.353 3.21739 4.11438 0
M  V30 1786 H 167.047 2.05537 2.17703 0
M  V30 1787 H 164.593 0.989603 1.04608 0
M  V30 1788 H 166.546 0.644982 4.16435 0
M  V30 1789 H 165.27 -0.206727 3.25945 0
M  V30 1790 H 163.929 1.92136 3.12217 0
M  V30 1791 H 163.577 0.330037 5.01916 0
M  V30 1792 H 163.277 2.013 5.52044 0
M  V30 1793 H 164.801 1.20506 5.98591 0
M  V30 1794 H 166.215 3.14019 4.79651 0
M  V30 1795 H 164.612 3.89644 4.56397 0
M  V30 1796 H 165.682 3.67054 3.16859 0
M  V30 1797 N 167.025 -1.13721 1.09112 0
M  V30 1798 C 168.441 -1.36914 0.820174 0
M  V30 1799 C 168.641 -1.93356 -0.567079 0
M  V30 1800 O 167.697 -2.15093 -1.32255 0
M  V30 1801 C 169.01 -2.3235 1.90877 0
M  V30 1802 C 170.558 -2.45973 1.93562 0
M  V30 1803 C 171.033 -3.44714 3.01556 0
M  V30 1804 N 172.524 -3.52263 3.00775 0
M  V30 1805 C 173.259 -4.28536 3.80978 0
M  V30 1806 N 172.755 -5.07991 4.71081 0
M  V30 1807 N 174.548 -4.23804 3.69251 0
M  V30 1808 H 166.699 -0.754348 1.98553 0
M  V30 1809 H 168.962 -0.3944 0.862063 0
M  V30 1810 H 168.668 -1.98027 2.90651 0
M  V30 1811 H 168.542 -3.32332 1.78424 0
M  V30 1812 H 170.929 -2.79584 0.944286 0
M  V30 1813 H 171.01 -1.45926 2.10093 0
M  V30 1814 H 170.654 -3.11835 4.00901 0
M  V30 1815 H 170.584 -4.44558 2.82269 0
M  V30 1816 H 173.075 -2.95567 2.35475 0
M  V30 1817 H 173.388 -5.63487 5.28869 0
M  V30 1818 H 171.733 -5.07235 4.75119 0
M  V30 1819 H 174.924 -3.60806 2.98222 0
M  V30 1820 H 175.097 -4.82995 4.31995 0
M  V30 1821 N 168.503 -0.877838 -1.30888 0
M  V30 1822 C 169.436 -0.283995 -2.26426 0
M  V30 1823 C 170.414 0.591361 -1.51465 0
M  V30 1824 O 171.598 0.54304 -1.80509 0
M  V30 1825 C 168.725 0.597129 -3.33395 0
M  V30 1826 C 167.771 -0.207937 -4.25993 0
M  V30 1827 S 168.604 -1.59158 -5.11301 0
M  V30 1828 C 169.76 -0.716791 -6.21782 0
M  V30 1829 H 169.993 -1.09383 -2.76446 0
M  V30 1830 H 167.526 -0.676828 -1.38775 0
M  V30 1831 H 169.484 1.09978 -3.95493 0
M  V30 1832 H 168.145 1.38099 -2.82113 0
M  V30 1833 H 167.338 0.464163 -5.01858 0
M  V30 1834 H 166.94 -0.642963 -3.68432 0
M  V30 1835 H 169.232 0.0692833 -6.77465 0
M  V30 1836 H 170.175 -1.44682 -6.93161 0
M  V30 1837 H 170.583 -0.280855 -5.63801 0
M  V30 1838 N 169.982 1.44106 -0.638065 0
M  V30 1839 C 170.945 2.29138 0.0531013 0
M  V30 1840 C 171.945 1.41409 0.765506 0
M  V30 1841 O 173.135 1.63206 0.609046 0
M  V30 1842 C 170.267 3.23144 1.08584 0
M  V30 1843 H 171.46 2.91739 -0.694883 0
M  V30 1844 H 169.013 1.51134 -0.398538 0
M  V30 1845 H 169.748 2.65408 1.86357 0
M  V30 1846 H 169.533 3.87804 0.578852 0
M  V30 1847 H 171.023 3.87004 1.56899 0
M  V30 1848 N 171.46 0.379036 1.52974 0
M  V30 1849 C 172.707 -0.206421 2.01445 0
M  V30 1850 C 173.035 -1.47668 1.26587 0
M  V30 1851 O 172.29 -1.92514 0.351675 0
M  V30 1852 C 172.589 -0.53096 3.53434 0
M  V30 1853 C 172.255 0.646546 4.46241 0
M  V30 1854 C 170.917 0.969604 4.7133 0
M  V30 1855 C 173.269 1.43479 5.01062 0
M  V30 1856 C 170.597 2.08263 5.48492 0
M  V30 1857 C 172.949 2.53834 5.7944 0
M  V30 1858 C 171.613 2.86659 6.02812 0
M  V30 1859 H 170.883 -0.0755349 0.73714 0
M  V30 1860 H 173.53 0.514271 1.84465 0
M  V30 1861 H 171.835 -1.33285 3.68432 0
M  V30 1862 H 173.532 -0.996417 3.88423 0
M  V30 1863 H 170.122 0.384734 4.2687 0
M  V30 1864 H 174.306 1.19844 4.81613 0
M  V30 1865 H 169.562 2.34078 5.64816 0
M  V30 1866 H 173.736 3.15319 6.20924 0
M  V30 1867 H 171.363 3.73026 6.62387 0
M  V30 1868 N 172.938 -1.57226 0.108567 0
M  V30 1869 C 173.868 -2.17778 -0.84232 0
M  V30 1870 C 174.849 -1.11487 -1.2847 0
M  V30 1871 O 176.034 -1.39681 -1.34918 0
M  V30 1872 C 173.164 -2.76888 -2.09644 0
M  V30 1873 C 172.118 -3.88669 -1.79221 0
M  V30 1874 C 171.444 -4.34541 -3.11574 0
M  V30 1875 C 172.744 -5.11251 -1.06864 0
M  V30 1876 H 174.438 -2.97489 -0.337774 0
M  V30 1877 H 171.984 -1.43097 -0.161025 0
M  V30 1878 H 173.937 -3.17904 -2.76614 0
M  V30 1879 H 172.661 -1.94451 -2.62405 0
M  V30 1880 H 171.32 -3.48213 -1.14644 0
M  V30 1881 H 170.968 -3.48977 -3.62249 0
M  V30 1882 H 170.668 -5.09914 -2.91996 0
M  V30 1883 H 172.192 -4.782 -3.7968 0
M  V30 1884 H 173.606 -5.49352 -1.63968 0
M  V30 1885 H 172.003 -5.9214 -0.974178 0
M  V30 1886 H 173.073 -4.8487 -0.0536168 0
M  V30 1887 N 174.416 0.165178 -1.56732 0
M  V30 1888 C 175.646 0.894919 -1.86212 0
M  V30 1889 C 176.054 1.76066 -0.692627 0
M  V30 1890 O 175.397 1.80387 0.347303 0
M  V30 1891 C 175.459 1.8174 -3.10179 0
M  V30 1892 C 175.123 1.13064 -4.42793 0
M  V30 1893 C 176.12 0.493169 -5.17556 0
M  V30 1894 C 173.805 1.12556 -4.89527 0
M  V30 1895 C 175.799 -0.140209 -6.37246 0
M  V30 1896 C 173.486 0.488366 -6.09145 0
M  V30 1897 C 174.484 -0.143411 -6.82849 0
M  V30 1898 O 174.172 -0.77055 -8.00199 0
M  V30 1899 H 173.904 0.265114 -0.621844 0
M  V30 1900 H 176.458 0.168242 -2.0471 0
M  V30 1901 H 174.688 2.58455 -2.87642 0
M  V30 1902 H 176.377 2.4175 -3.26055 0
M  V30 1903 H 177.143 0.489023 -4.82528 0
M  V30 1904 H 173.022 1.60672 -4.32094 0
M  V30 1905 H 176.566 -0.633932 -6.94714 0
M  V30 1906 H 172.463 0.490116 -6.43637 0
M  V30 1907 H 173.231 -0.670408 -8.1575 0
M  V30 1908 N 175.894 1.51508 0.433938 0
M  V30 1909 C 177.171 1.54888 1.19453 0
M  V30 1910 C 177.551 0.315154 2.08734 0
M  V30 1911 O 176.899 -0.699558 2.17528 0
M  V30 1912 C 177.109 2.86467 1.99342 0
M  V30 1913 C 178.457 3.38545 2.56267 0
M  V30 1914 O 179.481 2.88041 2.0955 0
M  V30 1915 O 178.34 4.26675 3.41483 0
M  V30 1916 H 175.434 0.622863 0.544032 0
M  V30 1917 H 177.98 1.63823 0.442732 0
M  V30 1918 H 176.752 3.67718 1.33788 0
M  V30 1919 H 176.375 2.8071 2.8158 0
M  V30 1920 N 177.372 -0.689602 1.41712 0
M  V30 1921 C 178.602 -1.47613 1.44548 0
M  V30 1922 C 179.01 -1.89132 0.0509034 0
M  V30 1923 O 178.353 -1.57741 -0.94146 0
M  V30 1924 C 178.415 -2.76596 2.2964 0
M  V30 1925 C 178.079 -2.57245 3.77722 0
M  V30 1926 C 179.076 -2.22804 4.69739 0
M  V30 1927 C 176.761 -2.727 4.2183 0
M  V30 1928 C 178.755 -2.04064 6.03851 0
M  V30 1929 C 176.442 -2.53576 5.56006 0
M  V30 1930 C 177.44 -2.1931 6.46832 0
M  V30 1931 O 177.128 -2.00359 7.78532 0
M  V30 1932 H 176.86 -0.461227 0.494212 0
M  V30 1933 H 179.414 -0.856045 1.86711 0
M  V30 1934 H 177.644 -3.41033 1.82301 0
M  V30 1935 H 179.333 -3.38424 2.24107 0
M  V30 1936 H 180.099 -2.10473 4.36951 0
M  V30 1937 H 175.978 -2.98353 3.51435 0
M  V30 1938 H 179.522 -1.77241 6.74708 0
M  V30 1939 H 175.419 -2.65499 5.88371 0
M  V30 1940 H 176.187 -2.15075 7.89737 0
M  V30 1941 N 178.85 -1.27639 -0.924453 0
M  V30 1942 C 180.075 -1.17101 -1.71179 0
M  V30 1943 C 180.5 0.268134 -1.86179 0
M  V30 1944 O 179.858 1.19415 -1.36418 0
M  V30 1945 C 179.906 -1.86313 -3.08739 0
M  V30 1946 O 179.01 -1.16331 -3.95652 0
M  V30 1947 H 178.351 -0.407091 -0.524569 0
M  V30 1948 H 180.881 -1.68767 -1.15666 0
M  V30 1949 H 180.891 -1.938 -3.59034 0
M  V30 1950 H 179.566 -2.91001 -2.97138 0
M  V30 1951 H 178.143 -1.16935 -3.54091 0
M  V30 1952 N 180.328 1.1314 -1.09713 0
M  V30 1953 C 181.258 2.20748 -0.761102 0
M  V30 1954 C 182.239 1.68061 0.262566 0
M  V30 1955 O 183.424 1.93765 0.129977 0
M  V30 1956 C 180.554 3.46812 -0.184054 0
M  V30 1957 C 179.508 4.12606 -1.13757 0
M  V30 1958 C 178.834 5.33031 -0.422083 0
M  V30 1959 C 180.134 4.59603 -2.48118 0
M  V30 1960 H 181.828 2.49113 -1.66082 0
M  V30 1961 H 179.374 1.19734 -0.799987 0
M  V30 1962 H 181.327 4.21353 0.0631215 0
M  V30 1963 H 180.051 3.17851 0.750868 0
M  V30 1964 H 178.71 3.40036 -1.37007 0
M  V30 1965 H 178.358 5.00335 0.517072 0
M  V30 1966 H 178.058 5.77999 -1.05788 0
M  V30 1967 H 179.582 6.10325 -0.183277 0
M  V30 1968 H 180.996 5.25552 -2.29059 0
M  V30 1969 H 179.393 5.15321 -3.07514 0
M  V30 1970 H 180.463 3.73971 -3.08665 0
M  V30 1971 N 181.806 0.884767 1.30421 0
M  V30 1972 C 182.753 0.349642 2.28136 0
M  V30 1973 C 183.723 -0.560061 1.56373 0
M  V30 1974 O 184.908 -0.488524 1.8444 0
M  V30 1975 C 182.048 -0.42999 3.42411 0
M  V30 1976 C 181.161 0.508907 4.28992 0
M  V30 1977 C 180.296 -0.286301 5.30428 0
M  V30 1978 C 179.335 0.648079 6.08659 0
M  V30 1979 N 178.472 -0.111792 7.02011 0
M  V30 1980 H 183.312 1.18807 2.73293 0
M  V30 1981 H 180.849 0.597231 1.3443 0
M  V30 1982 H 182.807 -0.897923 4.07423 0
M  V30 1983 H 181.437 -1.23299 2.98324 0
M  V30 1984 H 180.489 1.09533 3.64289 0
M  V30 1985 H 181.801 1.22475 4.8353 0
M  V30 1986 H 180.955 -0.816098 6.01186 0
M  V30 1987 H 179.694 -1.03536 4.76583 0
M  V30 1988 H 178.699 1.18951 5.36778 0
M  V30 1989 H 179.924 1.39623 6.64592 0
M  V30 1990 H 177.87 -0.843395 6.50556 0
M  V30 1991 H 177.787 0.544429 7.54037 0
M  V30 1992 H 179.055 -0.622339 7.77012 0
M  V30 1993 N 183.284 -1.43765 0.645699 0
M  V30 1994 C 184.509 -2.06767 0.161883 0
M  V30 1995 C 184.934 -1.48034 -1.16049 0
M  V30 1996 O 184.292 -0.587369 -1.71522 0
M  V30 1997 C 184.34 -3.60519 0.0762003 0
M  V30 1998 O 183.444 -4.00982 -0.963721 0
M  V30 1999 H 182.785 -0.657675 0.091429 0
M  V30 2000 H 185.315 -1.84397 0.886499 0
M  V30 2001 H 185.325 -4.07853 -0.109604 0
M  V30 2002 H 184 -4.02646 1.04157 0
M  V30 2003 H 182.577 -3.65253 -0.751312 0
M  V30 2004 N 184.763 -0.387143 -1.52771 0
M  V30 2005 C 186.04 0.253197 -1.93954 0
M  V30 2006 C 186.42 1.64545 -1.32243 0
M  V30 2007 O 185.768 2.23191 -0.489699 0
M  V30 2008 C 185.978 0.281722 -3.47861 0
M  V30 2009 C 187.326 0.511715 -4.21505 0
M  V30 2010 O 188.35 0.362023 -3.54356 0
M  V30 2011 O 187.209 0.804847 -5.40541 0
M  V30 2012 H 184.303 0.156845 -0.811991 0
M  V30 2013 H 186.849 -0.441494 -1.63856 0
M  V30 2014 H 185.621 -0.693571 -3.85104 0
M  V30 2015 H 185.244 1.02142 -3.84256 0
M  V30 2016 N 186.241 1.57166 -0.116904 0
M  V30 2017 C 187.466 1.999 0.55271 0
M  V30 2018 C 187.891 0.996039 1.59564 0
M  V30 2019 O 187.249 -0.032556 1.81271 0
M  V30 2020 C 187.297 3.4152 1.15742 0
M  V30 2021 O 186.401 3.44106 2.27299 0
M  V30 2022 H 185.742 0.649447 0.138258 0
M  V30 2023 H 188.272 2.03573 -0.204759 0
M  V30 2024 H 188.282 3.79684 1.49346 0
M  V30 2025 H 186.957 4.14034 0.393493 0
M  V30 2026 H 185.534 3.17759 1.9515 0
M  V30 2027 N 187.719 -0.156864 1.56817 0
M  V30 2028 C 188.649 -1.19589 2.00551 0
M  V30 2029 C 189.63 -1.4536 0.883426 0
M  V30 2030 O 190.815 -1.56449 1.15054 0
M  V30 2031 C 187.945 -2.53143 2.37773 0
M  V30 2032 C 186.899 -2.41913 3.53075 0
M  V30 2033 C 186.225 -3.80088 3.76081 0
M  V30 2034 C 187.525 -1.91157 4.86062 0
M  V30 2035 H 189.219 -0.832293 2.87599 0
M  V30 2036 H 186.765 -0.398918 1.38364 0
M  V30 2037 H 188.718 -3.26047 2.66967 0
M  V30 2038 H 187.442 -2.91319 1.4765 0
M  V30 2039 H 186.101 -1.71462 3.24031 0
M  V30 2040 H 185.749 -4.15683 2.83225 0
M  V30 2041 H 185.449 -3.73439 4.53671 0
M  V30 2042 H 186.973 -4.54556 4.0769 0
M  V30 2043 H 188.387 -2.53846 5.14038 0
M  V30 2044 H 186.784 -1.95422 5.67389 0
M  V30 2045 H 187.854 -0.866673 4.77092 0
M  V30 2046 N 189.197 -1.51736 -0.425897 0
M  V30 2047 C 190.443 -1.65214 -1.1761 0
M  V30 2048 C 190.776 -0.372778 -1.90589 0
M  V30 2049 O 190.051 0.628139 -1.84078 0
M  V30 2050 C 190.334 -2.86312 -2.18398 0
M  V30 2051 C 190.187 -4.24254 -1.49426 0
M  V30 2052 C 191.506 -3.02925 -3.19256 0
M  V30 2053 H 188.625 -0.601263 -0.426206 0
M  V30 2054 H 191.267 -1.8425 -0.463882 0
M  V30 2055 H 189.417 -2.70213 -2.79137 0
M  V30 2056 H 191.089 -4.52046 -0.919362 0
M  V30 2057 H 189.332 -4.26426 -0.796432 0
M  V30 2058 H 190.003 -5.05001 -2.22885 0
M  V30 2059 H 192.479 -3.1781 -2.68581 0
M  V30 2060 H 191.355 -3.89199 -3.8706 0
M  V30 2061 H 191.616 -2.15497 -3.86023 0
M  V30 2062 N 190.675 0.682077 -1.42076 0
M  V30 2063 C 191.924 1.43786 -1.41451 0
M  V30 2064 C 192.237 1.95574 -0.0317074 0
M  V30 2065 O 193.443 2.71326 0.0971462 0
M  V30 2066 C 191.899 2.60071 -2.48779 0
M  V30 2067 C 191.507 2.15013 -3.93031 0
M  V30 2068 C 193.251 3.37626 -2.57311 0
M  V30 2069 C 191.158 3.28336 -4.91883 0
M  V30 2070 H 190.088 0.540143 -0.526082 0
M  V30 2071 H 192.739 0.739157 -1.67955 0
M  V30 2072 H 191.121 3.32275 -2.15429 0
M  V30 2073 H 192.295 1.5001 -4.35699 0
M  V30 2074 H 190.61 1.50416 -3.88284 0
M  V30 2075 H 193.207 4.22012 -3.28345 0
M  V30 2076 H 193.55 3.83727 -1.61429 0
M  V30 2077 H 194.083 2.72488 -2.89819 0
M  V30 2078 H 190.822 2.87234 -5.89217 0
M  V30 2079 H 190.342 3.92145 -4.53853 0
M  V30 2080 H 192.021 3.93913 -5.13265 0
M  V30 2081 N 192.153 1.28127 0.917671 0
M  V30 2082 C 193.401 1.14825 1.66312 0
M  V30 2083 C 193.722 -0.304379 1.9261 0
M  V30 2084 O 192.992 -1.21149 1.53947 0
M  V30 2085 H 191.572 0.421953 0.616413 0
M  V30 2086 H 194.234 1.608 1.10134 0
M  V30 2087 H 193.33 1.68489 2.62712 0
M  V30 2088 N 193.631 -1.12557 1.10312 0
M  V30 2089 C 194.859 -1.87864 0.866873 0
M  V30 2090 C 195.274 -1.79588 -0.582557 0
M  V30 2091 O 194.631 -1.16887 -1.40156 0
M  V30 2092 C 194.682 -3.37125 1.30496 0
M  V30 2093 O 194.403 -3.45201 2.69755 0
M  V30 2094 C 195.904 -4.29373 1.10243 0
M  V30 2095 H 193.124 -0.594452 0.311236 0
M  V30 2096 H 195.668 -1.42429 1.46745 0
M  V30 2097 H 193.823 -3.80109 0.748081 0
M  V30 2098 H 194.237 -4.38056 2.88457 0
M  V30 2099 H 195.711 -5.32394 1.45811 0
M  V30 2100 H 196.188 -4.39181 0.0409492 0
M  V30 2101 H 196.794 -3.92169 1.64571 0
M  V30 2102 N 195.109 -0.891671 -1.2995 0
M  V30 2103 C 196.334 -0.527932 -2.00568 0
M  V30 2104 C 196.759 0.877969 -1.66353 0
M  V30 2105 O 196.117 1.58301 -0.883762 0
M  V30 2106 C 196.165 -0.717745 -3.53385 0
M  V30 2107 O 195.269 0.233376 -4.11739 0
M  V30 2108 H 194.61 -0.20722 -0.630837 0
M  V30 2109 H 197.14 -1.20105 -1.65638 0
M  V30 2110 H 197.15 -0.619307 -4.03272 0
M  V30 2111 H 195.825 -1.74276 -3.77625 0
M  V30 2112 H 194.402 0.0880706 -3.72796 0
M  V30 2113 N 196.587 1.43421 -0.653314 0
M  V30 2114 C 197.535 2.32546 0.0501531 0
M  V30 2115 C 198.529 1.48617 0.812985 0
M  V30 2116 O 199.735 1.64825 0.723375 0
M  V30 2117 H 196.11 0.751185 0.0350032 0
M  V30 2118 H 198.081 2.89602 -0.719261 0
M  V30 2119 C 196.83 3.32925 1.00279 0
M  V30 2120 H 196.153 3.97532 0.425236 0
M  V30 2121 H 197.593 3.9792 1.46409 0
M  V30 2122 C 196.052 2.63532 2.09886 0
M  V30 2123 O 196.582 2.45092 3.18265 0
M  V30 2124 N 194.788 2.22905 1.86445 0
M  V30 2125 H 194.335 2.38103 0.98309 0
M  V30 2126 H 194.293 1.76805 2.59976 0
M  V30 2127 N 198.065 0.39524 1.52563 0
M  V30 2128 C 199.012 -0.437036 2.26624 0
M  V30 2129 C 199.982 -1.05281 1.28472 0
M  V30 2130 O 201.167 -1.07971 1.57311 0
M  V30 2131 C 198.307 -1.55524 3.08069 0
M  V30 2132 C 197.42 -0.961745 4.21158 0
M  V30 2133 C 196.555 -2.05149 4.89987 0
M  V30 2134 C 195.594 -1.4342 5.95061 0
M  V30 2135 N 194.731 -2.46351 6.57462 0
M  V30 2136 H 199.571 0.200976 2.97322 0
M  V30 2137 H 197.108 0.110944 1.46681 0
M  V30 2138 H 199.066 -2.21437 3.53584 0
M  V30 2139 H 197.696 -2.16348 2.3957 0
M  V30 2140 H 196.748 -0.192048 3.79915 0
M  V30 2141 H 198.06 -0.470701 4.96574 0
M  V30 2142 H 197.214 -2.78819 5.38837 0
M  V30 2143 H 195.953 -2.57615 4.14109 0
M  V30 2144 H 194.958 -0.682774 5.45544 0
M  V30 2145 H 196.183 -0.917416 6.72875 0
M  V30 2146 H 194.129 -2.97975 5.8442 0
M  V30 2147 H 194.046 -2.02019 7.28508 0
M  V30 2148 H 195.314 -3.19633 7.10954 0
M  V30 2149 N 199.544 -1.57102 0.125237 0
M  V30 2150 C 200.769 -2.0019 -0.542101 0
M  V30 2151 C 201.194 -1.00449 -1.59034 0
M  V30 2152 O 200.552 0.0229423 -1.81285 0
M  V30 2153 C 200.6 -3.42129 -1.13929 0
M  V30 2154 O 199.704 -3.45307 -2.2547 0
M  V30 2155 H 199.045 -0.650171 -0.134812 0
M  V30 2156 H 201.575 -2.03461 0.215553 0
M  V30 2157 H 201.585 -3.80471 -1.4733 0
M  V30 2158 H 200.26 -4.14237 -0.371531 0
M  V30 2159 H 198.837 -3.1879 -1.93462 0
M  V30 2160 N 201.022 0.148545 -1.56898 0
M  V30 2161 C 201.932 1.20293 -2.01412 0
M  V30 2162 C 202.948 1.47107 -0.929273 0
M  V30 2163 O 204.124 1.58807 -1.23863 0
M  V30 2164 C 201.189 2.51682 -2.38447 0
M  V30 2165 C 200.25 2.32529 -3.60872 0
M  V30 2166 C 199.483 3.57653 -3.96132 0
M  V30 2167 O 199.706 4.63771 -3.32073 0
M  V30 2168 O 198.64 3.50408 -4.89385 0
M  V30 2169 H 202.466 0.855025 -2.91416 0
M  V30 2170 H 200.051 0.357151 -1.45068 0
M  V30 2171 H 201.933 3.29147 -2.63135 0
M  V30 2172 H 200.608 2.86006 -1.51599 0
M  V30 2173 H 199.515 1.53019 -3.41373 0
M  V30 2174 H 200.848 2.03121 -4.48333 0
M  V30 2175 N 202.5 1.5196 0.417844 0
M  V30 2176 C 203.916 1.40569 0.755816 0
M  V30 2177 C 204.116 0.503316 1.95113 0
M  V30 2178 O 203.172 -0.0341925 2.52477 0
M  V30 2179 C 204.485 2.82947 1.01791 0
M  V30 2180 C 206.033 2.92231 1.12116 0
M  V30 2181 C 206.508 4.35559 1.41608 0
M  V30 2182 N 207.999 4.38753 1.48491 0
M  V30 2183 C 208.734 5.46705 1.7292 0
M  V30 2184 N 208.23 6.64788 1.95011 0
M  V30 2185 N 210.023 5.34209 1.74863 0
M  V30 2186 H 202.174 2.09168 -0.369098 0
M  V30 2187 H 204.437 0.942409 -0.102809 0
M  V30 2188 H 204.143 3.5106 0.212081 0
M  V30 2189 H 204.017 3.23462 1.94042 0
M  V30 2190 H 206.404 2.24304 1.9176 0
M  V30 2191 H 206.485 2.55185 0.177225 0
M  V30 2192 H 206.129 5.04042 0.624848 0
M  V30 2193 H 206.059 4.70133 2.37239 0
M  V30 2194 H 208.55 3.5363 1.33244 0
M  V30 2195 H 208.863 7.42845 2.13076 0
M  V30 2196 H 207.208 6.67869 1.92293 0
M  V30 2197 H 210.399 4.40937 1.57137 0
M  V30 2198 H 210.572 6.18415 1.93563 0
M  V30 2199 N 203.978 -0.674533 1.42435 0
M  V30 2200 C 204.911 -1.79924 1.40366 0
M  V30 2201 C 205.889 -1.60378 0.267899 0
M  V30 2202 O 207.073 -1.82847 0.458159 0
M  V30 2203 C 204.2 -3.16927 1.19478 0
M  V30 2204 C 203.246 -3.55221 2.36051 0
M  V30 2205 S 204.079 -3.5762 3.98583 0
M  V30 2206 C 205.235 -4.97315 3.80038 0
M  V30 2207 H 205.468 -1.81405 2.35541 0
M  V30 2208 H 203.001 -0.845221 1.29211 0
M  V30 2209 H 204.959 -3.96007 1.08114 0
M  V30 2210 H 203.62 -3.13031 0.258883 0
M  V30 2211 H 202.813 -4.54804 2.17185 0
M  V30 2212 H 202.415 -2.83502 2.43932 0
M  V30 2213 H 204.707 -5.85401 3.41045 0
M  V30 2214 H 205.65 -5.21228 4.79298 0
M  V30 2215 H 206.058 -4.69845 3.12899 0
M  V30 2216 N 205.456 -1.28612 -0.910864 0
M  V30 2217 C 206.386 -1.15326 -2.03032 0
M  V30 2218 C 207.367 -0.0502924 -1.70026 0
M  V30 2219 O 208.552 -0.227797 -1.92859 0
M  V30 2220 C 205.682 -0.817343 -3.37545 0
M  V30 2221 C 204.636 -1.8754 -3.84724 0
M  V30 2222 C 203.962 -1.39305 -5.16235 0
M  V30 2223 C 205.262 -3.28244 -4.06267 0
M  V30 2224 H 206.956 -2.08975 -2.14406 0
M  V30 2225 H 204.502 -1.00612 -1.03021 0
M  V30 2226 H 206.455 -0.711151 -4.15356 0
M  V30 2227 H 205.179 0.154846 -3.26233 0
M  V30 2228 H 203.838 -1.97079 -3.09121 0
M  V30 2229 H 203.486 -0.409846 -5.01328 0
M  V30 2230 H 203.186 -2.10057 -5.48771 0
M  V30 2231 H 204.71 -1.30014 -5.96598 0
M  V30 2232 H 206.124 -3.21611 -4.74594 0
M  V30 2233 H 204.521 -3.96855 -4.5014 0
M  V30 2234 H 205.591 -3.72048 -3.10979 0
M  V30 2235 N 206.934 1.1197 -1.10907 0
M  V30 2236 C 208.182 1.83225 -0.852819 0
M  V30 2237 C 208.503 1.84769 0.623341 0
M  V30 2238 O 207.773 1.3143 1.45269 0
M  V30 2239 H 206.353 0.67849 -0.312507 0
M  V30 2240 H 209.015 1.3556 -1.40033 0
M  V30 2241 H 208.111 2.87265 -1.22005 0
M  V30 2242 N 208.412 0.89855 1.29475 0
M  V30 2243 C 209.642 0.538479 1.99459 0
M  V30 2244 C 210.05 -0.880922 1.67441 0
M  V30 2245 O 209.393 -1.59283 0.915127 0
M  V30 2246 C 209.455 0.649564 3.53583 0
M  V30 2247 C 209.119 2.03573 4.09154 0
M  V30 2248 C 210.116 3.00675 4.24135 0
M  V30 2249 C 207.801 2.3448 4.44212 0
M  V30 2250 C 209.795 4.26809 4.73405 0
M  V30 2251 C 207.482 3.60857 4.93179 0
M  V30 2252 C 208.48 4.56836 5.0773 0
M  V30 2253 O 208.168 5.80969 5.55635 0
M  V30 2254 H 207.9 0.205372 0.644048 0
M  V30 2255 H 210.454 1.20958 1.66007 0
M  V30 2256 H 208.684 -0.0785592 3.8662 0
M  V30 2257 H 210.373 0.29881 4.04799 0
M  V30 2258 H 211.139 2.78112 3.97339 0
M  V30 2259 H 207.018 1.60534 4.32145 0
M  V30 2260 H 210.562 5.0173 4.84678 0
M  V30 2261 H 206.459 3.83251 5.19412 0
M  V30 2262 H 207.227 5.83542 5.73952 0
M  V30 2263 N 209.89 -1.43072 0.660911 0
M  V30 2264 C 211.138 -2.01323 0.177094 0
M  V30 2265 C 211.459 -1.5245 -1.2159 0
M  V30 2266 O 210.729 -0.740322 -1.81373 0
M  V30 2267 H 209.309 -0.744382 0.0624804 0
M  V30 2268 H 211.971 -1.75179 0.854305 0
M  V30 2269 H 211.067 -3.11649 0.167641 0
M  V30 2270 N 211.368 -0.403325 -1.52352 0
M  V30 2271 C 212.596 0.174012 -2.06167 0
M  V30 2272 C 213.011 1.39347 -1.27388 0
M  V30 2273 O 212.368 1.79597 -0.324201 0
M  V30 2274 C 212.419 0.530223 -3.5759 0
M  V30 2275 O 212.14 -0.640806 -4.33388 0
M  V30 2276 C 213.641 1.16192 -4.27802 0
M  V30 2277 H 210.861 0.0229464 -0.670608 0
M  V30 2278 H 213.405 -0.572604 -1.9632 0
M  V30 2279 H 211.56 1.22673 -3.67464 0
M  V30 2280 H 211.974 -0.344851 -5.23365 0
M  V30 2281 H 213.448 1.36141 -5.34948 0
M  V30 2282 H 213.925 2.13335 -3.83907 0
M  V30 2283 H 214.531 0.505775 -4.22282 0
M  V30 2284 N 212.846 1.57033 -0.133567 0
M  V30 2285 C 213.776 2.1909 0.807567 0
M  V30 2286 C 214.757 1.13517 1.26681 0
M  V30 2287 O 215.942 1.41809 1.32679 0
M  V30 2288 C 213.072 2.80188 2.05212 0
M  V30 2289 C 212.026 3.91471 1.73015 0
M  V30 2290 C 211.352 4.39443 3.04622 0
M  V30 2291 C 212.652 5.12886 0.987168 0
M  V30 2292 H 214.346 2.97988 0.290403 0
M  V30 2293 H 211.892 1.43335 0.138239 0
M  V30 2294 H 213.845 3.22264 2.71521 0
M  V30 2295 H 212.569 1.98601 2.59278 0
M  V30 2296 H 211.228 3.49993 1.0909 0
M  V30 2297 H 210.876 3.54695 3.56651 0
M  V30 2298 H 210.576 5.14495 2.83847 0
M  V30 2299 H 212.1 4.8418 3.72024 0
M  V30 2300 H 213.514 5.51891 1.55208 0
M  V30 2301 H 211.911 5.93615 0.87985 0
M  V30 2302 H 212.981 4.84894 -0.0235286 0
M  V30 2303 N 214.325 -0.140222 1.56975 0
M  V30 2304 C 215.572 -0.851687 1.83719 0
M  V30 2305 C 215.9 -1.80862 0.715485 0
M  V30 2306 O 215.155 -1.93464 -0.294956 0
M  V30 2307 C 215.454 -1.65386 3.16832 0
M  V30 2308 C 215.12 -0.843112 4.42947 0
M  V30 2309 C 213.782 -0.619464 4.77196 0
M  V30 2310 C 216.134 -0.276582 5.20466 0
M  V30 2311 C 213.462 0.181312 5.8642 0
M  V30 2312 C 215.814 0.51127 6.30531 0
M  V30 2313 C 214.478 0.745432 6.63325 0
M  V30 2314 H 213.748 -0.311654 0.672274 0
M  V30 2315 H 216.395 -0.115006 1.91154 0
M  V30 2316 H 214.7 -2.46084 3.04877 0
M  V30 2317 H 216.397 -2.20793 3.34741 0
M  V30 2318 H 212.987 -1.0275 4.16101 0
M  V30 2319 H 217.171 -0.436632 4.94376 0
M  V30 2320 H 212.427 0.372165 6.10266 0
M  V30 2321 H 216.601 0.957354 6.89788 0
M  V30 2322 H 214.228 1.36778 7.47794 0
M  V30 2323 N 215.803 -1.52179 -0.40978 0
M  V30 2324 C 217.051 -1.65878 -1.15451 0
M  V30 2325 C 217.372 -0.390771 -1.91044 0
M  V30 2326 O 216.642 0.594323 -1.86667 0
M  V30 2327 H 215.222 -0.611405 -0.429177 0
M  V30 2328 H 217.884 -1.89219 -0.467134 0
M  V30 2329 H 216.98 -2.49954 -1.86894 0
M  V30 2330 N 217.281 0.66697 -1.42791 0
M  V30 2331 C 218.558 1.4234 -1.34159 0
M  V30 2332 C 218.938 2.11093 0.0172729 0
M  V30 2333 O 218.286 2.03808 1.03318 0
M  V30 2334 C 218.496 2.41942 -2.51526 0
M  V30 2335 C 219.844 3.06353 -2.93995 0
M  V30 2336 O 220.868 2.52269 -2.51473 0
M  V30 2337 O 219.727 4.04376 -3.67617 0
M  V30 2338 H 216.821 0.635277 -0.529483 0
M  V30 2339 H 219.367 0.695034 -1.54814 0
M  V30 2340 H 218.139 1.89991 -3.42081 0
M  V30 2341 H 217.762 3.22249 -2.32898 0
M  V30 2342 N 218.759 1.29093 0.90403 0
M  V30 2343 C 219.689 1.16401 2.02418 0
M  V30 2344 C 220.67 0.0593085 1.69997 0
M  V30 2345 O 221.855 0.238021 1.92736 0
M  V30 2346 C 218.985 0.835233 3.37107 0
M  V30 2347 C 217.939 1.89578 3.83724 0
M  V30 2348 C 217.265 1.42041 5.15489 0
M  V30 2349 C 218.565 3.30394 4.04521 0
M  V30 2350 H 220.259 2.10109 2.13295 0
M  V30 2351 H 217.805 1.01157 1.02486 0
M  V30 2352 H 219.758 0.733169 4.14973 0
M  V30 2353 H 218.482 -0.137543 3.2631 0
M  V30 2354 H 217.141 1.98715 3.08071 0
M  V30 2355 H 216.789 0.436426 5.01103 0
M  V30 2356 H 216.489 2.12964 5.4765 0
M  V30 2357 H 218.013 1.33176 5.959 0
M  V30 2358 H 219.427 3.24123 4.72882 0
M  V30 2359 H 217.824 3.99237 4.48029 0
M  V30 2360 H 218.894 3.73692 3.09002 0
M  V30 2361 N 220.237 -1.11381 1.11499 0
M  V30 2362 C 221.2 -2.15622 0.777153 0
M  V30 2363 C 222.2 -1.59504 -0.203779 0
M  V30 2364 O 223.39 -1.74188 0.020782 0
M  V30 2365 C 220.522 -3.40556 0.153116 0
M  V30 2366 H 221.715 -2.47021 1.70061 0
M  V30 2367 H 219.268 -1.26577 0.916952 0
M  V30 2368 H 220.003 -3.14767 -0.780536 0
M  V30 2369 H 219.788 -3.8257 0.859238 0
M  V30 2370 H 221.278 -4.17546 -0.0671044 0
M  V30 2371 N 221.715 -0.905404 -1.28997 0
M  V30 2372 C 222.955 -0.541232 -1.97104 0
M  V30 2373 C 223.319 0.896841 -1.69767 0
M  V30 2374 O 224.52 1.36817 -2.31375 0
M  V30 2375 C 222.791 -0.832134 -3.47578 0
M  V30 2376 S 224.35 -0.573127 -4.35041 0
M  V30 2377 H 221.168 -0.200576 -0.682122 0
M  V30 2378 H 223.77 -1.16906 -1.56694 0
M  V30 2379 H 222.474 -1.87687 -3.64968 0
M  V30 2380 H 222.005 -0.192636 -3.92928 0
M  V30 2381 H 224.02 0.579297 -4.92807 0
M  V30 2382 N 223.193 1.4272 -0.668489 0
M  V30 2383 C 224.156 2.292 0.00448567 0
M  V30 2384 C 225.156 1.43001 0.735339 0
M  V30 2385 O 226.346 1.64461 0.57429 0
M  V30 2386 C 223.478 3.25375 1.01705 0
M  V30 2387 H 224.671 2.90199 -0.756608 0
M  V30 2388 H 222.224 1.50254 -0.430506 0
M  V30 2389 H 222.959 2.69301 1.80686 0
M  V30 2390 H 222.744 3.88944 0.496463 0
M  V30 2391 H 224.234 3.90245 1.48655 0
M  V30 2392 N 224.671 0.411399 1.52136 0
M  V30 2393 C 225.92 -0.165009 2.01024 0
M  V30 2394 C 226.233 -1.4603 1.30133 0
M  V30 2395 O 227.439 -2.1181 1.69849 0
M  V30 2396 C 225.895 -0.344618 3.58246 0
M  V30 2397 C 225.503 0.938716 4.38055 0
M  V30 2398 C 227.247 -0.876195 4.15359 0
M  V30 2399 C 225.154 0.726172 5.86925 0
M  V30 2400 H 224.084 -0.0654407 0.751155 0
M  V30 2401 H 226.735 0.537192 1.75461 0
M  V30 2402 H 225.117 -1.10921 3.80148 0
M  V30 2403 H 226.291 1.70963 4.27912 0
M  V30 2404 H 224.606 1.39688 3.92271 0
M  V30 2405 H 227.203 -1.05128 5.24263 0
M  V30 2406 H 227.546 -1.85152 3.7286 0
M  V30 2407 H 228.079 -0.170607 3.97434 0
M  V30 2408 H 224.818 1.67312 6.33788 0
M  V30 2409 H 224.338 -0.00540283 5.998 0
M  V30 2410 H 226.017 0.369231 6.45946 0
M  V30 2411 N 226.149 -1.5696 0.141893 0
M  V30 2412 C 227.097 -2.17784 -0.816874 0
M  V30 2413 C 228.091 -1.1334 -1.25899 0
M  V30 2414 O 229.297 -1.316 -1.22806 0
M  V30 2415 H 225.672 -0.697278 -0.281615 0
M  V30 2416 H 227.643 -2.97087 -0.279621 0
M  V30 2417 C 226.392 -2.80983 -2.04802 0
M  V30 2418 H 225.715 -3.61062 -1.7168 0
M  V30 2419 H 227.155 -3.2705 -2.69841 0
M  V30 2420 C 225.614 -1.79228 -2.8527 0
M  V30 2421 O 226.144 -1.25962 -3.8144 0
M  V30 2422 N 224.35 -1.48647 -2.49704 0
M  V30 2423 H 223.897 -1.92155 -1.71564 0
M  V30 2424 H 223.855 -0.808115 -3.03837 0
M  V30 2425 N 227.627 0.131896 -1.57047 0
M  V30 2426 C 229.038 0.690407 -1.73465 0
M  V30 2427 C 229.389 1.8094 -0.758629 0
M  V30 2428 O 228.514 2.16282 0.0713813 0
M  V30 2429 C 229.109 1.25916 -3.14532 0
M  V30 2430 C 227.668 1.76409 -3.32501 0
M  V30 2431 C 226.815 0.658579 -2.69366 0
M  V30 2432 H 229.766 -0.0939144 -1.58422 0
M  V30 2433 H 229.787 2.12892 -3.15369 0
M  V30 2434 H 229.299 0.444515 -3.85546 0
M  V30 2435 H 227.4 2.60391 -2.66509 0
M  V30 2436 H 227.513 1.88241 -4.4057 0
M  V30 2437 H 225.877 1.08899 -2.30246 0
M  V30 2438 H 226.66 -0.14487 -3.42994 0
M  V30 2439 N 229.106 1.52395 0.401703 0
M  V30 2440 C 230.355 1.66044 1.14509 0
M  V30 2441 C 230.668 0.400216 1.91462 0
M  V30 2442 O 231.874 0.416632 2.68284 0
M  V30 2443 C 230.33 2.93388 2.0845 0
M  V30 2444 C 229.938 4.26545 1.36978 0
M  V30 2445 C 231.682 3.16402 2.83001 0
M  V30 2446 C 229.589 5.45007 2.29611 0
M  V30 2447 H 228.519 0.618562 0.431158 0
M  V30 2448 H 231.17 1.78886 0.40892 0
M  V30 2449 H 229.552 2.74263 2.8565 0
M  V30 2450 H 230.726 4.56179 0.650916 0
M  V30 2451 H 229.041 4.09692 0.74438 0
M  V30 2452 H 231.638 4.02085 3.52465 0
M  V30 2453 H 231.981 2.30943 3.46368 0
M  V30 2454 H 232.514 3.36034 2.12898 0
M  V30 2455 H 229.253 6.32835 1.70879 0
M  V30 2456 H 228.773 5.19702 2.9945 0
M  V30 2457 H 230.452 5.7838 2.89974 0
M  V30 2458 N 230.584 -0.659388 1.43143 0
M  V30 2459 C 231.832 -1.41654 1.44147 0
M  V30 2460 C 232.153 -1.94893 0.0645739 0
M  V30 2461 O 231.423 -1.74044 -0.899198 0
M  V30 2462 H 230.003 -0.525708 0.530697 0
M  V30 2463 H 232.665 -0.778097 1.78694 0
M  V30 2464 H 231.761 -2.26195 2.1504 0
M  V30 2465 N 232.062 -1.29571 -0.897171 0
M  V30 2466 C 232.972 -1.16808 -2.03453 0
M  V30 2467 C 233.988 -0.0907471 -1.73763 0
M  V30 2468 O 235.164 -0.303312 -1.99103 0
M  V30 2469 C 232.229 -0.848264 -3.36163 0
M  V30 2470 C 231.29 -2.0097 -3.79354 0
M  V30 2471 C 230.523 -1.70505 -5.05731 0
M  V30 2472 O 230.746 -0.62718 -5.66941 0
M  V30 2473 O 229.68 -2.5538 -5.45036 0
M  V30 2474 H 233.506 -2.12325 -2.17144 0
M  V30 2475 H 231.091 -1.09047 -1.02123 0
M  V30 2476 H 232.973 -0.684581 -4.15802 0
M  V30 2477 H 231.648 0.0771071 -3.23608 0
M  V30 2478 H 230.555 -2.22863 -3.00471 0
M  V30 2479 H 231.888 -2.91636 -3.96496 0
M  V30 2480 N 233.54 1.10788 -1.12088 0
M  V30 2481 C 234.47 2.19083 -0.807755 0
M  V30 2482 C 235.451 1.6858 0.226859 0
M  V30 2483 O 236.636 1.93997 0.0888475 0
M  V30 2484 C 233.766 3.46344 -0.257576 0
M  V30 2485 C 232.72 4.101 -1.22483 0
M  V30 2486 C 232.046 5.32016 -0.535052 0
M  V30 2487 C 233.346 4.54236 -2.57811 0
M  V30 2488 H 235.04 2.45534 -1.71328 0
M  V30 2489 H 232.586 1.1801 -0.825205 0
M  V30 2490 H 234.539 4.21392 -0.0262679 0
M  V30 2491 H 233.263 3.19373 0.683278 0
M  V30 2492 H 231.922 3.37054 -1.44189 0
M  V30 2493 H 231.57 5.01319 0.410827 0
M  V30 2494 H 231.27 5.75625 -1.18024 0
M  V30 2495 H 232.794 6.09799 -0.312695 0
M  V30 2496 H 234.208 5.20575 -2.40155 0
M  V30 2497 H 232.605 5.08682 -3.18375 0
M  V30 2498 H 233.675 3.6734 -3.16528 0
M  V30 2499 N 235.018 0.912232 1.28515 0
M  V30 2500 C 236.265 0.544599 1.95039 0
M  V30 2501 C 236.593 -0.911435 1.71823 0
M  V30 2502 O 235.848 -1.66317 1.03137 0
M  V30 2503 C 236.147 0.798392 3.48368 0
M  V30 2504 C 235.813 2.23374 3.91682 0
M  V30 2505 C 234.475 2.62617 4.03219 0
M  V30 2506 C 236.827 3.16786 4.13879 0
M  V30 2507 C 234.155 3.94429 4.3433 0
M  V30 2508 C 236.507 4.48161 4.46469 0
M  V30 2509 C 235.171 4.8726 4.56217 0
M  V30 2510 H 234.441 0.199283 0.7137 0
M  V30 2511 H 237.088 1.15327 1.52879 0
M  V30 2512 H 235.393 0.106908 3.91654 0
M  V30 2513 H 237.09 0.493141 3.97956 0
M  V30 2514 H 233.68 1.91922 3.83228 0
M  V30 2515 H 237.864 2.87677 4.0442 0
M  V30 2516 H 233.12 4.24426 4.40082 0
M  V30 2517 H 237.294 5.20559 4.62592 0
M  V30 2518 H 234.921 5.89431 4.80078 0
M  V30 2519 N 236.496 -1.42363 0.676048 0
M  V30 2520 C 237.443 -2.308 -0.00150904 0
M  V30 2521 C 238.413 -1.46032 -0.791444 0
M  V30 2522 O 239.598 -1.74861 -0.76344 0
M  V30 2523 C 236.738 -3.31883 -0.945919 0
M  V30 2524 C 235.851 -4.31741 -0.149675 0
M  V30 2525 C 234.986 -5.19898 -1.08995 0
M  V30 2526 C 234.025 -6.11434 -0.285465 0
M  V30 2527 N 233.162 -6.92138 -1.17851 0
M  V30 2528 H 238.002 -2.88187 0.758455 0
M  V30 2529 H 235.539 -1.41952 0.38576 0
M  V30 2530 H 237.497 -3.89019 -1.50731 0
M  V30 2531 H 236.127 -2.76093 -1.6725 0
M  V30 2532 H 235.179 -3.76713 0.528359 0
M  V30 2533 H 236.491 -4.96534 0.474866 0
M  V30 2534 H 235.645 -5.81772 -1.72123 0
M  V30 2535 H 234.384 -4.55284 -1.74837 0
M  V30 2536 H 233.389 -5.48627 0.359018 0
M  V30 2537 H 234.614 -6.78097 0.368883 0
M  V30 2538 H 232.56 -6.30152 -1.82332 0
M  V30 2539 H 232.477 -7.53542 -0.609082 0
M  V30 2540 H 233.745 -7.58499 -1.79722 0
M  V30 2541 N 237.974 -0.419461 -1.51915 0
M  V30 2542 C 239.202 0.152136 -2.0634 0
M  V30 2543 C 239.617 1.37988 -1.28859 0
M  V30 2544 O 238.974 1.79243 -0.343232 0
M  V30 2545 C 239.025 0.492266 -3.58133 0
M  V30 2546 O 238.746 -0.686736 -4.32684 0
M  V30 2547 C 240.247 1.11648 -4.2901 0
M  V30 2548 H 237.467 0.0158325 -0.670813 0
M  V30 2549 H 240.011 -0.593394 -1.95702 0
M  V30 2550 H 238.166 1.18769 -3.68745 0
M  V30 2551 H 238.58 -0.400341 -5.2297 0
M  V30 2552 H 240.054 1.3046 -5.36362 0
M  V30 2553 H 240.531 2.09251 -3.86148 0
M  V30 2554 H 241.137 0.460958 -4.22795 0
M  V30 2555 N 239.452 1.56882 -0.150215 0
M  V30 2556 C 240.362 2.20494 0.801222 0
M  V30 2557 C 241.378 1.19019 1.26927 0
M  V30 2558 O 242.554 1.51607 1.32579 0
M  V30 2559 C 239.619 2.81659 2.02161 0
M  V30 2560 C 238.68 3.9827 1.60249 0
M  V30 2561 C 237.913 4.56508 2.7647 0
M  V30 2562 O 238.136 4.13627 3.92771 0
M  V30 2563 O 237.07 5.46719 2.51757 0
M  V30 2564 H 240.896 3.02315 0.289717 0
M  V30 2565 H 238.481 1.49202 0.0769684 0
M  V30 2566 H 240.363 3.20522 2.73576 0
M  V30 2567 H 239.038 2.02849 2.52258 0
M  V30 2568 H 237.945 3.64117 0.858477 0
M  V30 2569 H 239.278 4.78609 1.14864 0
M  V30 2570 N 240.93 -0.123565 1.57115 0
M  V30 2571 C 242.176 -0.833386 1.84885 0
M  V30 2572 C 242.509 -1.79742 0.735292 0
M  V30 2573 O 241.784 -1.92764 -0.25925 0
M  V30 2574 C 242.067 -1.5873 3.23228 0
M  V30 2575 C 241.92 -0.643183 4.45178 0
M  V30 2576 C 243.239 -2.54453 3.59085 0
M  V30 2577 H 240.358 -0.301518 0.6725 0
M  V30 2578 H 243 -0.097778 1.89748 0
M  V30 2579 H 241.15 -2.21438 3.19214 0
M  V30 2580 H 242.822 -0.0253015 4.61293 0
M  V30 2581 H 241.065 0.0456139 4.33776 0
M  V30 2582 H 241.736 -1.20724 5.38637 0
M  V30 2583 H 244.212 -2.01853 3.63861 0
M  V30 2584 H 243.088 -3.04238 4.5687 0
M  V30 2585 H 243.349 -3.36906 2.86264 0
M  V30 2586 N 242.408 -1.52605 -0.393616 0
M  V30 2587 C 243.638 -1.71046 -1.15874 0
M  V30 2588 C 244.046 -0.426483 -1.84331 0
M  V30 2589 O 243.389 0.608513 -1.73329 0
M  V30 2590 C 243.451 -2.80118 -2.25332 0
M  V30 2591 C 243.115 -4.21381 -1.76881 0
M  V30 2592 C 244.112 -5.04697 -1.24808 0
M  V30 2593 C 241.797 -4.67683 -1.83244 0
M  V30 2594 C 243.791 -6.32393 -0.797387 0
M  V30 2595 C 241.478 -5.95364 -1.37787 0
M  V30 2596 C 242.476 -6.77549 -0.861208 0
M  V30 2597 O 242.164 -8.02837 -0.413252 0
M  V30 2598 H 241.896 -0.576155 -0.353583 0
M  V30 2599 H 244.45 -2.00018 -0.467123 0
M  V30 2600 H 242.68 -2.46557 -2.97904 0
M  V30 2601 H 244.369 -2.87006 -2.87023 0
M  V30 2602 H 245.135 -4.70111 -1.19252 0
M  V30 2603 H 241.014 -4.03805 -2.22401 0
M  V30 2604 H 244.558 -6.9649 -0.393437 0
M  V30 2605 H 240.455 -6.29455 -1.43026 0
M  V30 2606 H 241.223 -8.16749 -0.53515 0
M  V30 2607 N 243.887 0.651787 -1.4349 0
M  V30 2608 C 244.797 1.79368 -1.5121 0
M  V30 2609 C 245.813 1.69361 -0.399093 0
M  V30 2610 O 246.989 1.90505 -0.653431 0
M  V30 2611 C 244.054 3.15653 -1.43401 0
M  V30 2612 C 243.115 3.37446 -2.65384 0
M  V30 2613 C 242.348 4.67229 -2.57939 0
M  V30 2614 O 242.571 5.46676 -1.62792 0
M  V30 2615 O 241.505 4.90773 -3.48462 0
M  V30 2616 H 245.331 1.7581 -2.47638 0
M  V30 2617 H 242.916 0.810447 -1.25507 0
M  V30 2618 H 244.798 3.96935 -1.41494 0
M  V30 2619 H 243.473 3.19798 -0.501085 0
M  V30 2620 H 242.38 2.55923 -2.72863 0
M  V30 2621 H 243.713 3.38148 -3.57654 0
M  V30 2622 N 245.365 1.30045 0.890287 0
M  V30 2623 C 246.295 1.18541 2.01172 0
M  V30 2624 C 247.276 0.0773356 1.69924 0
M  V30 2625 O 248.461 0.25845 1.92473 0
M  V30 2626 C 245.591 0.870941 3.36202 0
M  V30 2627 C 244.545 1.93637 3.81692 0
M  V30 2628 C 243.871 1.475 5.13953 0
M  V30 2629 C 245.171 3.34666 4.00994 0
M  V30 2630 H 246.865 2.12359 2.11054 0
M  V30 2631 H 244.411 1.02238 1.01407 0
M  V30 2632 H 246.364 0.777141 4.14172 0
M  V30 2633 H 245.088 -0.102926 3.26438 0
M  V30 2634 H 243.747 2.01972 3.05946 0
M  V30 2635 H 243.395 0.489551 5.00612 0
M  V30 2636 H 243.095 2.1876 5.4536 0
M  V30 2637 H 244.619 1.39489 5.94454 0
M  V30 2638 H 246.033 3.2912 4.69417 0
M  V30 2639 H 244.43 4.03966 4.43769 0
M  V30 2640 H 245.5 3.76949 3.05021 0
M  V30 2641 N 246.843 -1.10192 1.12674 0
M  V30 2642 C 247.806 -2.14786 0.799979 0
M  V30 2643 C 248.806 -1.59711 -0.18685 0
M  V30 2644 O 249.996 -1.74156 0.0392558 0
M  V30 2645 C 247.128 -3.40374 0.189228 0
M  V30 2646 H 248.321 -2.45203 1.72671 0
M  V30 2647 H 245.874 -1.25597 0.930326 0
M  V30 2648 H 246.609 -3.15577 -0.747107 0
M  V30 2649 H 246.394 -3.81637 0.899766 0
M  V30 2650 H 247.884 -4.17594 -0.0228143 0
M  V30 2651 N 248.321 -0.919034 -1.28029 0
M  V30 2652 C 249.737 -0.617972 -1.4715 0
M  V30 2653 C 249.937 0.835242 -1.83374 0
M  V30 2654 O 248.993 1.61388 -1.94191 0
M  V30 2655 C 250.306 -1.56041 -2.57044 0
M  V30 2656 C 251.854 -1.56769 -2.7091 0
M  V30 2657 C 252.329 -2.49688 -3.83953 0
M  V30 2658 N 253.82 -2.47845 -3.91314 0
M  V30 2659 C 254.555 -3.16437 -4.78179 0
M  V30 2660 N 254.051 -3.94376 -5.69596 0
M  V30 2661 N 255.844 -3.05498 -4.71834 0
M  V30 2662 H 247.995 -1.85866 -1.02798 0
M  V30 2663 H 250.258 -0.797506 -0.512531 0
M  V30 2664 H 249.964 -2.59671 -2.372 0
M  V30 2665 H 249.838 -1.29551 -3.54255 0
M  V30 2666 H 252.225 -0.538745 -2.90141 0
M  V30 2667 H 252.306 -1.87305 -1.74214 0
M  V30 2668 H 251.95 -3.52688 -3.65477 0
M  V30 2669 H 251.88 -2.16453 -4.80058 0
M  V30 2670 H 254.371 -1.91234 -3.25941 0
M  V30 2671 H 254.684 -4.43721 -6.32718 0
M  V30 2672 H 253.029 -3.98481 -5.69419 0
M  V30 2673 H 256.22 -2.44108 -3.99411 0
M  V30 2674 H 256.393 -3.59225 -5.39316 0
M  V30 2675 N 249.799 1.42003 -0.683588 0
M  V30 2676 C 251.215 1.55625 -0.353976 0
M  V30 2677 C 251.415 1.66151 1.14 0
M  V30 2678 O 250.471 1.63329 1.92561 0
M  V30 2679 C 251.784 2.80171 -1.092 0
M  V30 2680 C 253.332 2.93954 -1.07518 0
M  V30 2681 C 253.807 4.21372 -1.79471 0
M  V30 2682 N 255.298 4.28303 -1.76381 0
M  V30 2683 C 256.033 5.25729 -2.28904 0
M  V30 2684 N 255.529 6.29254 -2.89846 0
M  V30 2685 N 257.322 5.17586 -2.19228 0
M  V30 2686 H 249.473 1.33415 -1.6527 0
M  V30 2687 H 251.736 0.64282 -0.696769 0
M  V30 2688 H 251.442 2.78561 -2.14701 0
M  V30 2689 H 251.316 3.7133 -0.662862 0
M  V30 2690 H 253.703 2.95086 -0.028475 0
M  V30 2691 H 253.784 2.04002 -1.54328 0
M  V30 2692 H 253.428 4.21001 -2.84114 0
M  V30 2693 H 253.358 5.10275 -1.30104 0
M  V30 2694 H 255.849 3.54119 -1.31939 0
M  V30 2695 H 256.162 6.99964 -3.27522 0
M  V30 2696 H 254.507 6.29791 -2.93919 0
M  V30 2697 H 257.698 4.35631 -1.71299 0
M  V30 2698 H 257.871 5.93348 -2.60466 0
M  V30 2699 N 251.277 0.427512 1.51691 0
M  V30 2700 C 252.207 -0.3796 2.30394 0
M  V30 2701 C 253.188 -1.02982 1.35384 0
M  V30 2702 O 254.373 -1.03534 1.643 0
M  V30 2703 C 251.503 -1.48649 3.1388 0
M  V30 2704 C 250.457 -0.960294 4.17088 0
M  V30 2705 C 249.783 -2.16219 4.89033 0
M  V30 2706 C 251.083 -0.00153679 5.223 0
M  V30 2707 H 252.777 0.277164 2.98114 0
M  V30 2708 H 250.323 0.134739 1.43368 0
M  V30 2709 H 252.276 -2.05826 3.67714 0
M  V30 2710 H 251 -2.1714 2.43962 0
M  V30 2711 H 249.659 -0.410806 3.64291 0
M  V30 2712 H 249.307 -2.83307 4.15628 0
M  V30 2713 H 249.007 -1.81654 5.58816 0
M  V30 2714 H 250.531 -2.73968 5.45687 0
M  V30 2715 H 251.945 -0.482687 5.71264 0
M  V30 2716 H 250.342 0.256199 5.99553 0
M  V30 2717 H 251.412 0.938174 4.75738 0
M  V30 2718 N 252.755 -1.56801 0.158532 0
M  V30 2719 C 253.703 -2.18638 -0.793729 0
M  V30 2720 C 254.697 -1.14669 -1.24689 0
M  V30 2721 O 255.903 -1.32895 -1.21403 0
M  V30 2722 H 252.278 -0.700226 -0.274204 0
M  V30 2723 H 254.249 -2.97367 -0.248095 0
M  V30 2724 C 252.998 -2.83139 -2.0181 0
M  V30 2725 H 252.321 -3.62863 -1.67841 0
M  V30 2726 H 253.761 -3.29894 -2.66357 0
M  V30 2727 C 252.22 -1.82244 -2.83353 0
M  V30 2728 O 252.75 -1.3 -3.80083 0
M  V30 2729 N 250.956 -1.51288 -2.48114 0
M  V30 2730 H 250.503 -1.93964 -1.69516 0
M  V30 2731 H 250.461 -0.840296 -3.02963 0
M  V30 2732 N 254.233 0.115231 -1.57178 0
M  V30 2733 C 255.482 0.820945 -1.84237 0
M  V30 2734 C 255.795 1.80866 -0.744761 0
M  V30 2735 O 257.001 2.56083 -0.901871 0
M  V30 2736 C 255.457 1.51072 -3.26658 0
M  V30 2737 C 255.065 0.563795 -4.44438 0
M  V30 2738 C 256.809 2.20134 -3.62962 0
M  V30 2739 C 254.716 1.25701 -5.77887 0
M  V30 2740 H 253.646 0.310328 -0.687177 0
M  V30 2741 H 256.297 0.0737134 -1.83352 0
M  V30 2742 H 254.679 2.30471 -3.22024 0
M  V30 2743 H 255.853 -0.197247 -4.60378 0
M  V30 2744 H 254.168 -0.0200638 -4.16395 0
M  V30 2745 H 256.765 2.72696 -4.59936 0
M  V30 2746 H 257.108 2.98107 -2.90582 0
M  V30 2747 H 257.641 1.47619 -3.69396 0
M  V30 2748 H 254.38 0.518493 -6.53446 0
M  V30 2749 H 253.9 1.98997 -5.65827 0
M  V30 2750 H 255.579 1.78915 -6.2177 0
M  V30 2751 N 255.711 1.52812 0.385517 0
M  V30 2752 C 257.122 1.5993 0.963293 0
M  V30 2753 C 257.473 0.454302 1.90868 0
M  V30 2754 O 256.598 -0.422132 2.12243 0
M  V30 2755 C 257.193 2.89871 1.75387 0
M  V30 2756 C 255.752 2.99389 2.28129 0
M  V30 2757 C 254.899 2.55071 1.08783 0
M  V30 2758 H 257.85 1.5784 0.164948 0
M  V30 2759 H 257.871 2.76553 2.61341 0
M  V30 2760 H 257.383 3.73186 1.06554 0
M  V30 2761 H 255.484 2.20619 3.00263 0
M  V30 2762 H 255.597 4.04096 2.57377 0
M  V30 2763 H 253.961 2.09473 1.4489 0
M  V30 2764 H 254.744 3.40785 0.414807 0
M  V30 2765 N 257.189 -0.644168 1.43834 0
M  V30 2766 C 258.136 -1.75671 1.49694 0
M  V30 2767 C 259.106 -1.6246 0.345809 0
M  V30 2768 O 260.291 -1.82573 0.554234 0
M  V30 2769 C 257.431 -3.13867 1.43463 0
M  V30 2770 C 256.544 -3.38147 2.6885 0
M  V30 2771 C 255.679 -4.66241 2.54544 0
M  V30 2772 C 254.718 -4.83657 3.75157 0
M  V30 2773 N 253.855 -6.03016 3.59605 0
M  V30 2774 H 258.695 -1.69998 2.44754 0
M  V30 2775 H 256.232 -0.829458 1.21484 0
M  V30 2776 H 258.19 -3.9377 1.37843 0
M  V30 2777 H 256.82 -3.18588 0.519783 0
M  V30 2778 H 255.872 -2.52276 2.84712 0
M  V30 2779 H 257.184 -3.46899 3.58417 0
M  V30 2780 H 256.338 -5.54285 2.46683 0
M  V30 2781 H 255.077 -4.59826 1.62516 0
M  V30 2782 H 254.082 -3.94046 3.83416 0
M  V30 2783 H 255.307 -4.91896 4.68204 0
M  V30 2784 H 253.253 -5.97715 2.7032 0
M  V30 2785 H 253.17 -6.12766 4.42779 0
M  V30 2786 H 254.438 -6.93657 3.55613 0
M  V30 2787 N 258.668 -1.30515 -0.883378 0
M  V30 2788 C 259.615 -1.17032 -1.98927 0
M  V30 2789 C 260.585 -0.0594241 -1.65994 0
M  V30 2790 O 261.77 -0.229895 -1.8941 0
M  V30 2791 C 258.91 -0.869777 -3.33959 0
M  V30 2792 C 258.023 -2.06271 -3.79574 0
M  V30 2793 C 257.158 -1.70011 -5.03259 0
M  V30 2794 C 256.197 -2.8579 -5.41286 0
M  V30 2795 N 255.334 -2.49816 -6.56153 0
M  V30 2796 H 260.174 -2.1164 -2.09792 0
M  V30 2797 H 257.711 -1.05296 -1.02719 0
M  V30 2798 H 259.669 -0.676138 -4.11685 0
M  V30 2799 H 258.299 0.0394332 -3.22776 0
M  V30 2800 H 257.351 -2.36755 -2.97744 0
M  V30 2801 H 258.663 -2.92971 -4.03694 0
M  V30 2802 H 257.817 -1.47032 -5.88614 0
M  V30 2803 H 256.556 -0.804829 -4.81013 0
M  V30 2804 H 255.561 -3.09434 -4.54456 0
M  V30 2805 H 256.786 -3.76008 -5.65504 0
M  V30 2806 H 254.732 -1.62795 -6.35479 0
M  V30 2807 H 254.649 -3.30048 -6.8015 0
M  V30 2808 H 255.917 -2.30197 -7.44735 0
M  V30 2809 N 260.146 1.09593 -1.13257 0
M  V30 2810 C 261.395 1.81105 -0.887917 0
M  V30 2811 C 261.708 1.86563 0.587672 0
M  V30 2812 O 262.914 2.54367 0.949204 0
M  V30 2813 C 261.37 3.25338 -1.53895 0
M  V30 2814 C 260.978 3.28151 -3.04994 0
M  V30 2815 C 262.722 4.01617 -1.37492 0
M  V30 2816 C 260.629 4.66897 -3.6299 0
M  V30 2817 H 259.559 0.678661 -0.328534 0
M  V30 2818 H 262.21 1.23183 -1.36008 0
M  V30 2819 H 260.592 3.8331 -0.994446 0
M  V30 2820 H 261.766 2.79953 -3.66009 0
M  V30 2821 H 260.081 2.65361 -3.20893 0
M  V30 2822 H 262.678 5.04119 -1.78235 0
M  V30 2823 H 263.021 4.15072 -0.31957 0
M  V30 2824 H 263.554 3.50082 -1.88912 0
M  V30 2825 H 260.293 4.58643 -4.68323 0
M  V30 2826 H 259.813 5.15426 -3.06752 0
M  V30 2827 H 261.492 5.3587 -3.62563 0
M  V30 2828 N 261.624 0.925811 1.2754 0
M  V30 2829 C 262.554 0.440748 2.29303 0
M  V30 2830 C 263.535 -0.497971 1.62648 0
M  V30 2831 O 264.72 -0.403126 1.8997 0
M  V30 2832 C 261.85 -0.309048 3.45922 0
M  V30 2833 C 260.804 0.54166 4.24559 0
M  V30 2834 C 260.13 -0.337191 5.33636 0
M  V30 2835 C 261.43 1.80516 4.90114 0
M  V30 2836 H 263.124 1.29121 2.70126 0
M  V30 2837 H 260.67 0.622323 1.29858 0
M  V30 2838 H 262.623 -0.659315 4.1621 0
M  V30 2839 H 261.347 -1.19352 3.04011 0
M  V30 2840 H 260.006 0.874609 3.56014 0
M  V30 2841 H 259.654 -1.22056 4.87966 0
M  V30 2842 H 259.354 0.228497 5.87156 0
M  V30 2843 H 260.878 -0.683072 6.06767 0
M  V30 2844 H 262.292 1.52307 5.52698 0
M  V30 2845 H 260.689 2.3142 5.53683 0
M  V30 2846 H 261.759 2.52581 4.13921 0
M  V30 2847 N 263.102 -1.41638 0.69111 0
M  V30 2848 C 264.05 -2.32597 0.0115199 0
M  V30 2849 C 265.044 -1.5072 -0.773296 0
M  V30 2850 O 266.25 -1.66685 -0.67942 0
M  V30 2851 H 262.625 -0.751849 -0.0150746 0
M  V30 2852 H 264.596 -2.87593 0.795791 0
M  V30 2853 C 263.345 -3.35467 -0.914172 0
M  V30 2854 H 262.668 -3.9852 -0.319687 0
M  V30 2855 H 264.108 -4.01662 -1.35808 0
M  V30 2856 C 262.567 -2.69004 -2.02826 0
M  V30 2857 O 263.097 -2.53444 -3.11655 0
M  V30 2858 N 261.303 -2.2777 -1.80469 0
M  V30 2859 H 260.85 -2.40626 -0.919615 0
M  V30 2860 H 260.808 -1.83635 -2.55197 0
M  V30 2861 N 264.58 -0.43555 -1.51462 0
M  V30 2862 C 265.527 0.376797 -2.27703 0
M  V30 2863 C 266.497 1.01838 -1.31219 0
M  V30 2864 O 267.682 1.03762 -1.60119 0
M  V30 2865 C 264.822 1.47301 -3.12084 0
M  V30 2866 C 263.935 0.849744 -4.2356 0
M  V30 2867 C 263.07 1.92086 -4.95254 0
M  V30 2868 C 262.109 1.27593 -5.98654 0
M  V30 2869 N 261.246 2.28833 -6.63762 0
M  V30 2870 H 266.086 -0.279734 -2.96684 0
M  V30 2871 H 263.623 -0.149795 -1.46335 0
M  V30 2872 H 265.581 2.11984 -3.59331 0
M  V30 2873 H 264.211 2.0992 -2.45221 0
M  V30 2874 H 263.263 0.0912529 -3.80291 0
M  V30 2875 H 264.575 0.338878 -4.97648 0
M  V30 2876 H 263.729 2.64435 -5.46039 0
M  V30 2877 H 262.468 2.46545 -4.20793 0
M  V30 2878 H 261.473 0.537893 -5.47162 0
M  V30 2879 H 262.698 0.738693 -6.7507 0
M  V30 2880 H 260.644 2.82375 -5.92115 0
M  V30 2881 H 260.561 1.82632 -7.33608 0
M  V30 2882 H 261.829 3.00671 -7.19178 0
M  V30 2883 N 266.058 1.56714 -0.166846 0
M  V30 2884 C 267.469 1.83378 0.350646 0
M  V30 2885 C 267.82 1.08646 1.63372 0
M  V30 2886 O 266.945 0.338058 2.13743 0
M  V30 2887 C 267.54 3.32643 0.642963 0
M  V30 2888 C 266.099 3.59818 1.10491 0
M  V30 2889 C 265.246 2.76954 0.138411 0
M  V30 2890 H 268.197 1.53803 -0.391193 0
M  V30 2891 H 268.218 3.49878 1.49551 0
M  V30 2892 H 267.73 3.87007 -0.291055 0
M  V30 2893 H 265.831 3.1086 2.05418 0
M  V30 2894 H 265.944 4.68178 1.01716 0
M  V30 2895 H 264.308 2.4666 0.634911 0
M  V30 2896 H 265.091 3.34097 -0.789549 0
M  V30 2897 N 267.536 -0.106894 1.57237 0
M  V30 2898 C 268.947 -0.662723 1.74542 0
M  V30 2899 C 269.298 -1.7971 0.787319 0
M  V30 2900 O 268.423 -2.16368 -0.0369636 0
M  V30 2901 C 269.018 -1.20896 3.16496 0
M  V30 2902 C 267.577 -1.71096 3.35266 0
M  V30 2903 C 266.724 -0.615642 2.7038 0
M  V30 2904 H 269.675 0.119106 1.58252 0
M  V30 2905 H 269.696 -2.07847 3.18716 0
M  V30 2906 H 269.208 -0.383122 3.86204 0
M  V30 2907 H 267.309 -2.56119 2.70618 0
M  V30 2908 H 267.422 -1.81208 4.43509 0
M  V30 2909 H 265.786 -1.05222 2.31949 0
M  V30 2910 H 266.569 0.199419 3.4272 0
M  V30 2911 N 269.014 -1.53014 -0.377408 0
M  V30 2912 C 270.239 -1.72818 -1.14668 0
M  V30 2913 C 270.664 -0.450725 -1.8262 0
M  V30 2914 O 270.022 0.59439 -1.7128 0
M  V30 2915 C 270.07 -2.88627 -2.16164 0
M  V30 2916 O 269.174 -2.56409 -3.22998 0
M  V30 2917 H 268.515 -0.574301 -0.333278 0
M  V30 2918 H 271.045 -1.99853 -0.438152 0
M  V30 2919 H 271.055 -3.14455 -2.59966 0
M  V30 2920 H 269.73 -3.81294 -1.66095 0
M  V30 2921 H 268.307 -2.4136 -2.84253 0
M  V30 2922 N 270.492 0.636531 -1.44174 0
M  V30 2923 C 271.455 1.73063 -1.50273 0
M  V30 2924 C 272.455 1.56113 -0.385397 0
M  V30 2925 O 273.645 1.61707 -0.64781 0
M  V30 2926 C 270.777 3.12096 -1.37145 0
M  V30 2927 H 271.97 1.69031 -2.47727 0
M  V30 2928 H 269.523 0.849706 -1.31186 0
M  V30 2929 H 270.258 3.21728 -0.407636 0
M  V30 2930 H 270.043 3.25805 -2.18159 0
M  V30 2931 H 271.533 3.91846 -1.44382 0
M  V30 2932 N 271.97 1.30982 0.876444 0
M  V30 2933 C 273.247 1.10942 1.61094 0
M  V30 2934 C 273.627 -0.338223 2.08373 0
M  V30 2935 O 272.975 -1.33122 1.85717 0
M  V30 2936 C 273.185 2.11789 2.77392 0
M  V30 2937 C 274.533 2.43965 3.47514 0
M  V30 2938 O 275.557 2.10166 2.87591 0
M  V30 2939 O 274.416 3.01817 4.55597 0
M  V30 2940 H 271.51 0.42667 0.708436 0
M  V30 2941 H 274.056 1.42438 0.922474 0
M  V30 2942 H 272.828 3.09194 2.39823 0
M  V30 2943 H 272.451 1.81161 3.5393 0
M  V30 2944 N 273.449 -1.08991 1.13837 0
M  V30 2945 C 274.379 -2.17771 0.842507 0
M  V30 2946 C 275.36 -1.6892 -0.20001 0
M  V30 2947 O 276.545 -1.94113 -0.0579731 0
M  V30 2948 C 273.675 -3.4589 0.312644 0
M  V30 2949 C 272.629 -4.08099 1.28992 0
M  V30 2950 C 271.955 -5.31098 0.619623 0
M  V30 2951 C 273.255 -4.50077 2.65005 0
M  V30 2952 H 274.949 -2.42777 1.75213 0
M  V30 2953 H 272.495 -1.16682 0.843875 0
M  V30 2954 H 274.448 -4.21297 0.0933043 0
M  V30 2955 H 273.172 -3.20419 -0.632382 0
M  V30 2956 H 271.831 -3.34717 1.49533 0
M  V30 2957 H 271.479 -5.0191 -0.33102 0
M  V30 2958 H 271.179 -5.73674 1.27167 0
M  V30 2959 H 272.703 -6.09224 0.409669 0
M  V30 2960 H 274.117 -5.16688 2.48407 0
M  V30 2961 H 272.514 -5.03553 3.26427 0
M  V30 2962 H 273.584 -3.62257 3.22332 0
M  V30 2963 N 274.927 -0.932562 -1.27047 0
M  V30 2964 C 276.174 -0.575559 -1.94148 0
M  V30 2965 C 276.502 0.883984 -1.73251 0
M  V30 2966 O 275.757 1.64655 -1.0577 0
M  V30 2967 C 276.056 -0.853713 -3.47054 0
M  V30 2968 C 275.722 -2.29577 -3.88079 0
M  V30 2969 C 274.384 -2.68999 -3.9899 0
M  V30 2970 C 276.736 -3.23331 -4.08787 0
M  V30 2971 C 274.064 -4.01289 -4.28 0
M  V30 2972 C 276.416 -4.55207 -4.39282 0
M  V30 2973 C 275.08 -4.94457 -4.48407 0
M  V30 2974 H 274.35 -0.210612 -0.710439 0
M  V30 2975 H 276.997 -1.17744 -1.51025 0
M  V30 2976 H 275.302 -0.169204 -3.91434 0
M  V30 2977 H 276.999 -0.55639 -3.97121 0
M  V30 2978 H 273.589 -1.97994 -3.80127 0
M  V30 2979 H 277.773 -2.94074 -3.99793 0
M  V30 2980 H 273.029 -4.31374 -4.33275 0
M  V30 2981 H 277.203 -5.27852 -4.54252 0
M  V30 2982 H 274.83 -5.96994 -4.7064 0
M  V30 2983 N 276.405 1.4127 -0.698611 0
M  V30 2984 C 277.651 2.01478 -0.231207 0
M  V30 2985 C 277.984 1.55215 1.16713 0
M  V30 2986 O 277.259 0.764672 1.78838 0
M  V30 2987 C 277.542 3.58912 -0.292281 0
M  V30 2988 C 277.395 4.15293 -1.72778 0
M  V30 2989 C 278.714 4.38736 0.346194 0
M  V30 2990 H 275.833 0.732025 -0.0854878 0
M  V30 2991 H 278.475 1.67977 -0.887906 0
M  V30 2992 H 276.625 3.87582 0.26686 0
M  V30 2993 H 278.297 3.97486 -2.341 0
M  V30 2994 H 276.54 3.7022 -2.26096 0
M  V30 2995 H 277.211 5.24452 -1.72202 0
M  V30 2996 H 279.687 4.15897 -0.130035 0
M  V30 2997 H 278.563 5.48221 0.272932 0
M  V30 2998 H 278.824 4.18425 1.42734 0
M  V30 2999 N 277.883 0.443576 1.51229 0
M  V30 3000 C 279.131 -0.120557 2.0174 0
M  V30 3001 C 279.452 -1.42665 1.32935 0
M  V30 3002 O 278.722 -1.9028 0.465866 0
M  V30 3003 H 277.302 -0.0475426 0.745486 0
M  V30 3004 H 279.964 0.587711 1.85828 0
M  V30 3005 H 279.06 -0.291972 3.10731 0
M  V30 3006 N 279.361 -1.56624 0.175154 0
M  V30 3007 C 280.293 -2.15333 -0.785128 0
M  V30 3008 C 281.306 -1.1099 -1.19101 0
M  V30 3009 O 282.495 -1.38162 -1.13019 0
M  V30 3010 C 279.595 -2.68427 -2.06882 0
M  V30 3011 C 278.768 -3.97466 -1.8259 0
M  V30 3012 C 277.827 -4.35585 -2.95215 0
M  V30 3013 O 276.853 -5.03389 -2.65684 0
M  V30 3014 N 278.055 -3.97457 -4.23094 0
M  V30 3015 H 280.82 -2.98359 -0.283187 0
M  V30 3016 H 278.381 -1.61898 -0.00749817 0
M  V30 3017 H 280.373 -2.90924 -2.81328 0
M  V30 3018 H 278.943 -1.89968 -2.48256 0
M  V30 3019 H 278.163 -3.83307 -0.920287 0
M  V30 3020 H 279.451 -4.81736 -1.63733 0
M  V30 3021 H 278.849 -3.42878 -4.49945 0
M  V30 3022 H 277.406 -4.24947 -4.9423 0
M  V30 3023 N 280.839 0.0985539 -1.57292 0
M  V30 3024 C 282.064 0.820196 -1.90493 0
M  V30 3025 C 282.489 1.71658 -0.769094 0
M  V30 3026 O 281.847 1.79133 0.279495 0
M  V30 3027 C 281.895 1.61242 -3.22542 0
M  V30 3028 O 280.999 2.72108 -3.09888 0
M  V30 3029 H 280.34 0.225547 -0.62452 0
M  V30 3030 H 282.87 0.0748159 -2.04463 0
M  V30 3031 H 282.88 1.99737 -3.55766 0
M  V30 3032 H 281.555 0.954535 -4.04798 0
M  V30 3033 H 280.132 2.36667 -2.88172 0
M  V30 3034 N 282.317 1.53212 0.369288 0
M  V30 3035 C 283.594 1.59815 1.12776 0
M  V30 3036 C 283.974 0.403402 2.0721 0
M  V30 3037 O 283.322 -0.606667 2.20299 0
M  V30 3038 C 283.532 2.94664 1.87013 0
M  V30 3039 C 284.88 3.49109 2.41677 0
M  V30 3040 O 285.904 2.96669 1.97144 0
M  V30 3041 O 284.763 4.40775 3.23079 0
M  V30 3042 H 281.857 0.645376 0.517125 0
M  V30 3043 H 284.403 1.65553 0.37285 0
M  V30 3044 H 283.175 3.73061 1.18071 0
M  V30 3045 H 282.798 2.92401 2.69421 0
M  V30 3046 N 283.795 -0.628877 1.44509 0
M  V30 3047 C 284.705 -1.7694 1.54044 0
M  V30 3048 C 285.721 -1.68705 0.425987 0
M  V30 3049 O 286.897 -1.89442 0.683656 0
M  V30 3050 C 283.962 -3.13332 1.48405 0
M  V30 3051 C 283.023 -3.33181 2.70719 0
M  V30 3052 C 282.256 -4.63067 2.6534 0
M  V30 3053 O 282.479 -5.44017 1.71469 0
M  V30 3054 O 281.413 -4.85167 3.56226 0
M  V30 3055 H 285.239 -1.71848 2.50403 0
M  V30 3056 H 282.824 -0.790378 1.26781 0
M  V30 3057 H 284.706 -3.94634 1.47791 0
M  V30 3058 H 283.381 -3.1896 0.551898 0
M  V30 3059 H 282.288 -2.51549 2.769 0
M  V30 3060 H 283.621 -3.32416 3.62988 0
M  V30 3061 N 285.273 -1.31445 -0.869486 0
M  V30 3062 C 286.22 -1.19135 -1.97675 0
M  V30 3063 C 287.19 -0.0770266 -1.65921 0
M  V30 3064 O 288.375 -0.249972 -1.89155 0
M  V30 3065 C 285.515 -0.905149 -3.33018 0
M  V30 3066 C 284.628 -2.10285 -3.77365 0
M  V30 3067 C 283.763 -1.75339 -5.01427 0
M  V30 3068 C 282.802 -2.91515 -5.38224 0
M  V30 3069 N 281.939 -2.56762 -6.53466 0
M  V30 3070 H 286.779 -2.13853 -2.07535 0
M  V30 3071 H 284.316 -1.06379 -1.01597 0
M  V30 3072 H 286.274 -0.719765 -4.10944 0
M  V30 3073 H 284.904 0.00519624 -3.228 0
M  V30 3074 H 283.956 -2.39899 -2.95216 0
M  V30 3075 H 285.268 -2.97237 -4.00564 0
M  V30 3076 H 284.422 -1.53266 -5.87022 0
M  V30 3077 H 283.161 -0.855801 -4.80133 0
M  V30 3078 H 282.166 -3.14237 -4.51149 0
M  V30 3079 H 283.391 -3.81985 -5.61484 0
M  V30 3080 H 281.337 -1.69526 -6.33717 0
M  V30 3081 H 281.254 -3.37243 -6.76612 0
M  V30 3082 H 282.522 -2.38083 -7.42251 0
M  V30 3083 N 286.751 1.08385 -1.14413 0
M  V30 3084 C 288.028 1.77429 -0.823297 0
M  V30 3085 C 288.408 1.9974 0.683163 0
M  V30 3086 O 287.756 1.60739 1.62405 0
M  V30 3087 C 287.966 3.09004 -1.62227 0
M  V30 3088 C 289.314 3.83532 -1.82177 0
M  V30 3089 O 290.338 3.18786 -1.58915 0
M  V30 3090 O 289.197 4.99792 -2.21067 0
M  V30 3091 H 286.291 0.769999 -0.301712 0
M  V30 3092 H 288.837 1.14846 -1.24934 0
M  V30 3093 H 287.609 2.88316 -2.64555 0
M  V30 3094 H 287.232 3.79316 -1.19187 0
M  V30 3095 N 288.23 0.939286 1.26551 0
M  V30 3096 C 289.16 0.465044 2.28822 0
M  V30 3097 C 290.141 -0.480692 1.63167 0
M  V30 3098 O 291.326 -0.382955 1.90387 0
M  V30 3099 C 288.456 -0.27234 3.46231 0
M  V30 3100 C 287.41 0.58666 4.2396 0
M  V30 3101 C 286.736 -0.280573 5.33963 0
M  V30 3102 C 288.036 1.85704 4.88171 0
M  V30 3103 H 289.73 1.31979 2.68741 0
M  V30 3104 H 287.276 0.636061 1.29191 0
M  V30 3105 H 289.229 -0.615133 4.16886 0
M  V30 3106 H 287.953 -1.16121 3.0526 0
M  V30 3107 H 286.612 0.91232 3.55067 0
M  V30 3108 H 286.26 -1.16874 4.89234 0
M  V30 3109 H 285.96 0.29076 5.8688 0
M  V30 3110 H 287.484 -0.618678 6.07458 0
M  V30 3111 H 288.898 1.58161 5.51052 0
M  V30 3112 H 287.295 2.37279 5.51197 0
M  V30 3113 H 288.365 2.56957 4.11219 0
M  V30 3114 N 289.708 -1.40897 0.706093 0
M  V30 3115 C 290.956 -2.00657 0.241054 0
M  V30 3116 C 291.277 -1.56241 -1.16678 0
M  V30 3117 O 290.547 -0.79765 -1.78926 0
M  V30 3118 H 289.127 -0.742018 0.0861308 0
M  V30 3119 H 291.789 -1.72372 0.909604 0
M  V30 3120 H 290.885 -3.10958 0.266705 0
M  V30 3121 N 291.186 -0.45159 -1.50991 0
M  V30 3122 C 292.416 0.108177 -2.06317 0
M  V30 3123 C 292.824 1.35774 -1.31765 0
M  V30 3124 O 292.167 1.79838 -0.374694 0
M  V30 3125 C 292.229 0.481659 -3.56259 0
M  V30 3126 C 291.893 -0.663114 -4.52163 0
M  V30 3127 C 292.89 -1.53947 -4.96585 0
M  V30 3128 C 290.575 -0.8479 -4.95092 0
M  V30 3129 C 292.569 -2.58518 -5.82621 0
M  V30 3130 C 290.256 -1.89686 -5.80915 0
M  V30 3131 C 291.254 -2.76388 -6.24579 0
M  V30 3132 O 290.942 -3.79482 -7.08695 0
M  V30 3133 H 290.674 0.00499183 -0.675982 0
M  V30 3134 H 293.228 -0.633659 -1.95381 0
M  V30 3135 H 291.458 1.27641 -3.65027 0
M  V30 3136 H 293.147 0.974233 -3.94035 0
M  V30 3137 H 293.913 -1.4083 -4.64103 0
M  V30 3138 H 289.792 -0.18258 -4.60638 0
M  V30 3139 H 293.336 -3.26224 -6.16623 0
M  V30 3140 H 289.233 -2.02817 -6.12809 0
M  V30 3141 H 290.001 -3.76234 -7.26905 0
M  V30 3142 N 292.664 1.56529 -0.183458 0
M  V30 3143 C 294.075 1.83739 0.331177 0
M  V30 3144 C 294.426 1.10373 1.62211 0
M  V30 3145 O 293.551 0.36071 2.13373 0
M  V30 3146 C 294.146 3.33306 0.607646 0
M  V30 3147 C 292.705 3.60969 1.06668 0
M  V30 3148 C 291.852 2.77086 0.109029 0
M  V30 3149 H 294.803 1.53379 -0.407484 0
M  V30 3150 H 294.824 3.51444 1.45832 0
M  V30 3151 H 294.336 3.86677 -0.332086 0
M  V30 3152 H 292.437 3.13021 2.0211 0
M  V30 3153 H 292.55 4.69231 0.967447 0
M  V30 3154 H 290.914 2.47319 0.608714 0
M  V30 3155 H 291.697 3.33241 -0.82494 0
M  V30 3156 N 294.142 -0.090211 1.57342 0
M  V30 3157 C 295.372 -0.805055 1.90269 0
M  V30 3158 C 295.78 -1.72561 0.775842 0
M  V30 3159 O 295.123 -1.81839 -0.260843 0
M  V30 3160 C 295.185 -1.66734 3.18497 0
M  V30 3161 C 294.849 -0.918092 4.47683 0
M  V30 3162 C 295.846 -0.245674 5.19319 0
M  V30 3163 C 293.531 -0.890724 4.94339 0
M  V30 3164 C 295.525 0.444088 6.35851 0
M  V30 3165 C 293.212 -0.197179 6.10782 0
M  V30 3166 C 294.21 0.469044 6.81388 0
M  V30 3167 O 293.898 1.15146 7.95611 0
M  V30 3168 H 293.63 -0.235143 0.633785 0
M  V30 3169 H 296.184 -0.0703805 2.05279 0
M  V30 3170 H 294.414 -2.44437 2.99646 0
M  V30 3171 H 296.103 -2.25919 3.37217 0
M  V30 3172 H 296.869 -0.258246 4.84312 0
M  V30 3173 H 292.748 -1.39873 4.39268 0
M  V30 3174 H 296.292 0.964667 6.90898 0
M  V30 3175 H 292.189 -0.18247 6.45242 0
M  V30 3176 H 292.957 1.05885 8.11622 0
M  V30 3177 N 295.62 -1.53406 -0.361157 0
M  V30 3178 C 296.845 -1.74024 -1.12829 0
M  V30 3179 C 297.27 -0.470069 -1.82132 0
M  V30 3180 O 296.628 0.57619 -1.719 0
M  V30 3181 C 296.676 -2.90903 -2.13091 0
M  V30 3182 O 295.78 -2.59821 -3.20261 0
M  V30 3183 H 295.121 -0.577804 -0.327168 0
M  V30 3184 H 297.651 -2.00307 -0.41693 0
M  V30 3185 H 297.661 -3.17194 -2.56616 0
M  V30 3186 H 296.336 -3.83034 -1.62042 0
M  V30 3187 H 294.913 -2.44362 -2.81677 0
M  V30 3188 N 297.098 0.621204 -1.44841 0
M  V30 3189 C 298.344 1.3826 -1.48365 0
M  V30 3190 C 298.677 1.93831 -0.119624 0
M  V30 3191 O 297.952 1.74251 0.864111 0
M  V30 3192 C 298.235 2.54058 -2.55199 0
M  V30 3193 C 298.088 2.03772 -4.00995 0
M  V30 3194 C 299.407 3.56225 -2.58442 0
M  V30 3195 H 296.526 0.501374 -0.540179 0
M  V30 3196 H 299.168 0.7015 -1.76576 0
M  V30 3197 H 297.318 3.12162 -2.31274 0
M  V30 3198 H 298.99 1.50423 -4.36086 0
M  V30 3199 H 297.233 1.34876 -4.12299 0
M  V30 3200 H 297.904 2.87185 -4.71411 0
M  V30 3201 H 300.38 3.07939 -2.79844 0
M  V30 3202 H 299.256 4.34756 -3.3508 0
M  V30 3203 H 299.517 4.10949 -1.63013 0
M  V30 3204 N 298.576 1.31904 0.862503 0
M  V30 3205 C 299.825 1.21373 1.61094 0
M  V30 3206 C 300.138 -0.22504 1.94301 0
M  V30 3207 O 301.344 -0.452121 2.67709 0
M  V30 3208 C 299.8 2.12525 2.9045 0
M  V30 3209 C 299.408 3.61441 2.64697 0
M  V30 3210 C 301.152 2.10813 3.68454 0
M  V30 3211 C 299.059 4.44578 3.90006 0
M  V30 3212 H 297.989 0.450705 0.604468 0
M  V30 3213 H 300.64 1.56811 0.953027 0
M  V30 3214 H 299.022 1.69994 3.57656 0
M  V30 3215 H 300.196 4.12264 2.05851 0
M  V30 3216 H 298.511 3.65205 2.00036 0
M  V30 3217 H 301.108 2.70167 4.61426 0
M  V30 3218 H 301.451 1.09713 4.01583 0
M  V30 3219 H 301.984 2.51583 3.08141 0
M  V30 3220 H 298.723 5.46461 3.62023 0
M  V30 3221 H 298.243 3.98508 4.48276 0
M  V30 3222 H 299.922 4.57176 4.5782 0
M  V30 3223 N 300.054 -1.07777 1.14986 0
M  V30 3224 C 301.331 -1.7699 0.832695 0
M  V30 3225 C 301.711 -2.001 -0.672561 0
M  V30 3226 O 301.059 -1.61598 -1.6155 0
M  V30 3227 C 301.269 -3.08139 1.63863 0
M  V30 3228 C 302.617 -3.8256 1.84208 0
M  V30 3229 O 303.641 -3.17939 1.60603 0
M  V30 3230 O 302.5 -4.98612 2.23714 0
M  V30 3231 H 299.594 -0.768389 0.305791 0
M  V30 3232 H 302.14 -1.14182 1.25541 0
M  V30 3233 H 300.912 -2.86909 2.6608 0
M  V30 3234 H 300.535 -3.78678 1.21197 0
M  V30 3235 N 301.532 -0.945985 -1.26051 0
M  V30 3236 C 302.943 -0.638096 -1.75457 0
M  V30 3237 C 303.294 0.846672 -1.76991 0
M  V30 3238 O 302.419 1.66262 -1.38513 0
M  V30 3239 C 303.014 -1.15157 -3.18629 0
M  V30 3240 C 301.573 -0.894004 -3.65629 0
M  V30 3241 C 300.72 -1.29967 -2.44957 0
M  V30 3242 H 303.671 -1.12376 -1.1206 0
M  V30 3243 H 303.692 -0.507615 -3.77099 0
M  V30 3244 H 303.204 -2.23222 -3.1748 0
M  V30 3245 H 301.305 0.172057 -3.72203 0
M  V30 3246 H 301.418 -1.52439 -4.54202 0
M  V30 3247 H 299.782 -0.718078 -2.44368 0
M  V30 3248 H 300.565 -2.38935 -2.46505 0
M  V30 3249 N 303.011 1.40521 -0.713556 0
M  V30 3250 C 303.941 2.33381 -0.0743864 0
M  V30 3251 C 304.922 1.52784 0.747735 0
M  V30 3252 O 306.107 1.81258 0.697071 0
M  V30 3253 C 303.237 3.36748 0.849598 0
M  V30 3254 C 302.191 4.27793 0.133247 0
M  V30 3255 C 301.517 5.21679 1.17281 0
M  V30 3256 C 302.817 5.12415 -1.01134 0
M  V30 3257 H 304.511 2.87081 -0.850007 0
M  V30 3258 H 302.057 1.38034 -0.410201 0
M  V30 3259 H 304.01 4.00648 1.30612 0
M  V30 3260 H 302.734 2.81439 1.65709 0
M  V30 3261 H 301.393 3.65342 -0.303426 0
M  V30 3262 H 301.041 4.62677 1.9733 0
M  V30 3263 H 300.741 5.83435 0.698397 0
M  V30 3264 H 302.265 5.88456 1.62947 0
M  V30 3265 H 303.679 5.69781 -0.634274 0
M  V30 3266 H 302.076 5.83203 -1.41399 0
M  V30 3267 H 303.146 4.48514 -1.84292 0
M  V30 3268 N 304.489 0.459591 1.5075 0
M  V30 3269 C 305.419 -0.330644 2.31147 0
M  V30 3270 C 306.4 -1.00087 1.37538 0
M  V30 3271 O 307.585 -1.00025 1.66459 0
M  V30 3272 C 304.715 -1.41958 3.16962 0
M  V30 3273 C 303.669 -0.871608 4.19031 0
M  V30 3274 C 302.995 -2.05797 4.9351 0
M  V30 3275 C 304.295 0.109251 5.22186 0
M  V30 3276 H 305.989 0.340336 2.97459 0
M  V30 3277 H 303.535 0.165119 1.4305 0
M  V30 3278 H 305.488 -1.9798 3.71997 0
M  V30 3279 H 304.212 -2.11917 2.48513 0
M  V30 3280 H 302.871 -0.333442 3.6508 0
M  V30 3281 H 302.519 -2.74427 4.21544 0
M  V30 3282 H 302.219 -1.6976 5.62544 0
M  V30 3283 H 303.743 -2.62331 5.51375 0
M  V30 3284 H 305.157 -0.361405 5.7216 0
M  V30 3285 H 303.554 0.383316 5.98875 0
M  V30 3286 H 304.624 1.03887 4.73641 0
M  V30 3287 N 305.967 -1.56429 0.191757 0
M  V30 3288 C 306.914 -2.18936 -0.730454 0
M  V30 3289 C 307.884 -1.13557 -1.21219 0
M  V30 3290 O 309.069 -1.41794 -1.27668 0
M  V30 3291 C 306.209 -2.85013 -1.9458 0
M  V30 3292 C 305.322 -4.04909 -1.50574 0
M  V30 3293 C 304.457 -4.58853 -2.67634 0
M  V30 3294 C 303.496 -5.71114 -2.20217 0
M  V30 3295 N 302.633 -6.19478 -3.30442 0
M  V30 3296 H 307.473 -2.97389 -0.190664 0
M  V30 3297 H 305.01 -1.46869 -0.0823694 0
M  V30 3298 H 306.968 -3.21492 -2.65893 0
M  V30 3299 H 305.598 -2.09129 -2.45896 0
M  V30 3300 H 304.65 -3.74115 -0.688605 0
M  V30 3301 H 305.962 -4.86113 -1.11784 0
M  V30 3302 H 305.116 -4.97619 -3.47074 0
M  V30 3303 H 303.855 -3.76749 -3.09696 0
M  V30 3304 H 302.86 -5.31879 -1.3923 0
M  V30 3305 H 304.085 -6.55033 -1.79189 0
M  V30 3306 H 302.031 -5.40297 -3.72041 0
M  V30 3307 H 301.948 -6.95725 -2.9581 0
M  V30 3308 H 303.216 -6.62898 -4.10106 0
M  V30 3309 N 307.445 0.0818655 -1.57387 0
M  V30 3310 C 308.722 0.815343 -1.77796 0
M  V30 3311 C 309.102 1.96289 -0.77679 0
M  V30 3312 O 308.45 2.27691 0.192106 0
M  V30 3313 C 308.66 1.29765 -3.23978 0
M  V30 3314 C 310.008 1.7351 -3.8753 0
M  V30 3315 O 311.032 1.39356 -3.27808 0
M  V30 3316 O 309.891 2.36708 -4.92576 0
M  V30 3317 H 306.985 0.389914 -0.729312 0
M  V30 3318 H 309.531 0.0627213 -1.69584 0
M  V30 3319 H 308.303 0.47608 -3.88393 0
M  V30 3320 H 307.926 2.11189 -3.36875 0
M  V30 3321 N 308.923 1.53595 0.353017 0
M  V30 3322 C 310.172 1.69603 1.09168 0
M  V30 3323 C 310.485 0.460925 1.90092 0
M  V30 3324 O 311.691 0.501774 2.66823 0
M  V30 3325 C 310.147 2.99872 1.9901 0
M  V30 3326 C 309.755 4.30687 1.23339 0
M  V30 3327 C 311.499 3.25246 2.72792 0
M  V30 3328 C 309.406 5.52036 2.12156 0
M  V30 3329 H 308.336 0.631966 0.411261 0
M  V30 3330 H 310.987 1.80096 0.351802 0
M  V30 3331 H 309.369 2.83212 2.7678 0
M  V30 3332 H 310.543 4.58019 0.505456 0
M  V30 3333 H 308.858 4.11853 0.613663 0
M  V30 3334 H 311.455 4.13095 3.39495 0
M  V30 3335 H 311.798 2.41846 3.38846 0
M  V30 3336 H 312.331 3.42638 2.021 0
M  V30 3337 H 309.07 6.37951 1.50659 0
M  V30 3338 H 308.59 5.28966 2.82764 0
M  V30 3339 H 310.269 5.87313 2.71427 0
M  V30 3340 N 310.401 -0.613514 1.45168 0
M  V30 3341 C 311.311 -1.75296 1.55912 0
M  V30 3342 C 312.327 -1.68244 0.443856 0
M  V30 3343 O 313.503 -1.88706 0.70371 0
M  V30 3344 C 310.568 -3.1174 1.5172 0
M  V30 3345 C 309.629 -3.30291 2.74238 0
M  V30 3346 C 308.862 -4.60226 2.70236 0
M  V30 3347 O 309.085 -5.42168 1.77229 0
M  V30 3348 O 308.019 -4.81361 3.61352 0
M  V30 3349 H 311.845 -1.69183 2.52212 0
M  V30 3350 H 309.43 -0.776886 1.27612 0
M  V30 3351 H 311.312 -3.93044 1.51968 0
M  V30 3352 H 309.987 -3.18357 0.585697 0
M  V30 3353 H 308.894 -2.48598 2.79553 0
M  V30 3354 H 310.227 -3.28547 3.66494 0
M  V30 3355 N 311.879 -1.3236 -0.855495 0
M  V30 3356 C 312.842 -1.21164 -1.94556 0
M  V30 3357 C 313.842 -0.134908 -1.60233 0
M  V30 3358 O 315.032 -0.385249 -1.69887 0
M  V30 3359 C 312.164 -0.863192 -3.29791 0
M  V30 3360 H 313.357 -2.18038 -2.05911 0
M  V30 3361 H 310.91 -1.16179 -1.04557 0
M  V30 3362 H 311.645 0.103769 -3.24134 0
M  V30 3363 H 311.43 -1.64166 -3.56078 0
M  V30 3364 H 312.92 -0.809156 -4.09686 0
M  V30 3365 N 313.357 1.07166 -1.15556 0
M  V30 3366 C 314.287 2.16403 -0.877046 0
M  V30 3367 C 315.268 1.69217 0.173111 0
M  V30 3368 O 316.453 1.94181 0.027084 0
M  V30 3369 C 313.583 3.45349 -0.367632 0
M  V30 3370 C 312.537 4.05995 -1.35468 0
M  V30 3371 C 311.863 5.30045 -0.704038 0
M  V30 3372 C 313.163 4.45804 -2.72132 0
M  V30 3373 H 314.857 2.39959 -1.79053 0
M  V30 3374 H 312.403 1.15325 -0.862331 0
M  V30 3375 H 314.356 4.21095 -0.160317 0
M  V30 3376 H 313.08 3.21385 0.581326 0
M  V30 3377 H 311.739 3.32296 -1.54839 0
M  V30 3378 H 311.387 5.02373 0.251128 0
M  V30 3379 H 311.087 5.71579 -1.36277 0
M  V30 3380 H 312.611 6.08495 -0.50654 0
M  V30 3381 H 314.025 5.12671 -2.56595 0
M  V30 3382 H 312.422 4.98296 -3.34397 0
M  V30 3383 H 313.492 3.57083 -3.28054 0
M  V30 3384 N 314.835 0.952656 1.25548 0
M  V30 3385 C 316.082 0.606373 1.93208 0
M  V30 3386 C 316.41 -0.85631 1.74636 0
M  V30 3387 O 315.665 -1.62951 1.08376 0
M  V30 3388 C 315.964 0.908818 3.45652 0
M  V30 3389 C 315.63 2.35722 3.84378 0
M  V30 3390 C 314.292 2.75312 3.9466 0
M  V30 3391 C 316.644 3.29793 4.03591 0
M  V30 3392 C 313.972 4.08047 4.21562 0
M  V30 3393 C 316.324 4.62138 4.31985 0
M  V30 3394 C 314.988 5.01528 4.40484 0
M  V30 3395 H 314.258 0.221888 0.706998 0
M  V30 3396 H 316.905 1.20132 1.49133 0
M  V30 3397 H 315.21 0.231456 3.91116 0
M  V30 3398 H 316.907 0.619498 3.96186 0
M  V30 3399 H 313.497 2.04017 3.76928 0
M  V30 3400 H 317.681 3.00397 3.95064 0
M  V30 3401 H 312.937 4.38212 4.26357 0
M  V30 3402 H 317.111 5.35012 4.45797 0
M  V30 3403 H 314.738 6.04406 4.61083 0
M  V30 3404 N 316.313 -1.40141 0.720998 0
M  V30 3405 C 317.245 -2.29177 0.0324669 0
M  V30 3406 C 318.258 -1.46105 -0.718126 0
M  V30 3407 O 319.447 -1.69335 -0.564608 0
M  V30 3408 C 316.547 -3.24473 -0.978292 0
M  V30 3409 C 315.72 -4.36423 -0.292115 0
M  V30 3410 C 314.779 -5.12122 -1.20901 0
M  V30 3411 O 313.805 -5.64981 -0.691766 0
M  V30 3412 N 315.007 -5.21992 -2.53978 0
M  V30 3413 H 317.772 -2.88909 0.796984 0
M  V30 3414 H 315.333 -1.51569 0.569068 0
M  V30 3415 H 317.325 -3.71987 -1.59398 0
M  V30 3416 H 315.895 -2.65871 -1.64413 0
M  V30 3417 H 315.115 -3.90967 0.503847 0
M  V30 3418 H 316.403 -5.08467 0.183971 0
M  V30 3419 H 315.801 -4.8054 -2.98493 0
M  V30 3420 H 314.358 -5.72995 -3.10677 0
M  V30 3421 N 317.792 -0.46758 -1.50504 0
M  V30 3422 C 319.02 0.0864133 -2.06719 0
M  V30 3423 C 319.435 1.33819 -1.33184 0
M  V30 3424 O 318.792 1.78061 -0.400083 0
M  V30 3425 C 318.843 0.378079 -3.59517 0
M  V30 3426 O 318.564 -0.824044 -4.3028 0
M  V30 3427 C 320.065 0.979426 -4.32345 0
M  V30 3428 H 317.285 -0.00551697 -0.670977 0
M  V30 3429 H 319.829 -0.655354 -1.93715 0
M  V30 3430 H 317.984 1.06977 -3.72337 0
M  V30 3431 H 318.398 -0.566518 -5.21432 0
M  V30 3432 H 319.872 1.1333 -5.40241 0
M  V30 3433 H 320.349 1.9686 -3.9261 0
M  V30 3434 H 320.955 0.326216 -4.24047 0
M  V30 3435 N 319.27 1.56325 -0.20005 0
M  V30 3436 C 320.217 2.1932 0.718833 0
M  V30 3437 C 321.187 1.14198 1.20615 0
M  V30 3438 O 322.372 1.42469 1.26914 0
M  V30 3439 C 319.512 2.86041 1.93066 0
M  V30 3440 C 318.625 4.05702 1.48425 0
M  V30 3441 C 317.76 4.60266 2.65196 0
M  V30 3442 C 316.799 5.72273 2.17185 0
M  V30 3443 N 315.936 6.21221 3.27152 0
M  V30 3444 H 320.776 2.97486 0.17489 0
M  V30 3445 H 318.313 1.46911 0.0745794 0
M  V30 3446 H 320.271 3.22897 2.64184 0
M  V30 3447 H 318.901 2.1043 2.44783 0
M  V30 3448 H 317.953 3.74475 0.668755 0
M  V30 3449 H 319.265 4.86699 1.09204 0
M  V30 3450 H 318.419 4.99453 3.4443 0
M  V30 3451 H 317.158 3.78386 3.07693 0
M  V30 3452 H 316.163 5.3261 1.36407 0
M  V30 3453 H 317.388 6.55974 1.75713 0
M  V30 3454 H 315.334 5.42263 3.69171 0
M  V30 3455 H 315.251 6.97284 2.92116 0
M  V30 3456 H 316.519 6.65063 4.06585 0
M  V30 3457 N 320.748 -0.0735177 1.57428 0
M  V30 3458 C 322.159 -0.625551 1.75908 0
M  V30 3459 C 322.51 -1.78 0.825261 0
M  V30 3460 O 321.635 -2.16398 0.00893964 0
M  V30 3461 C 322.23 -1.14155 3.18989 0
M  V30 3462 C 320.789 -1.63946 3.38819 0
M  V30 3463 C 319.936 -0.558151 2.71625 0
M  V30 3464 H 322.887 0.152647 1.57964 0
M  V30 3465 H 322.908 -2.0104 3.23053 0
M  V30 3466 H 322.42 -0.301116 3.8693 0
M  V30 3467 H 320.521 -2.50321 2.7599 0
M  V30 3468 H 320.634 -1.71759 4.47253 0
M  V30 3469 H 318.998 -1.00278 2.34129 0
M  V30 3470 H 319.781 0.272071 3.4222 0
M  V30 3471 N 322.226 -1.5378 -0.344866 0
M  V30 3472 C 323.475 -1.7018 -1.08267 0
M  V30 3473 C 323.788 -0.471 -1.89845 0
M  V30 3474 O 324.994 -0.515917 -2.66553 0
M  V30 3475 C 323.45 -3.00923 -1.97417 0
M  V30 3476 C 323.058 -4.31335 -1.21053 0
M  V30 3477 C 324.802 -3.26688 -2.71063 0
M  V30 3478 C 322.709 -5.53153 -2.09225 0
M  V30 3479 H 321.639 -0.634138 -0.407903 0
M  V30 3480 H 324.29 -1.8028 -0.342246 0
M  V30 3481 H 322.672 -2.84676 -2.75274 0
M  V30 3482 H 323.846 -4.58281 -0.481159 0
M  V30 3483 H 322.161 -4.12173 -0.591813 0
M  V30 3484 H 324.758 -4.1489 -3.37299 0
M  V30 3485 H 325.101 -2.43639 -3.37558 0
M  V30 3486 H 325.634 -3.43705 -2.0028 0
M  V30 3487 H 322.373 -6.38741 -1.47274 0
M  V30 3488 H 321.893 -5.30458 -2.79955 0
M  V30 3489 H 323.572 -5.88744 -2.68308 0
M  V30 3490 N 323.704 0.605807 -1.45491 0
M  V30 3491 C 324.981 1.36522 -1.40075 0
M  V30 3492 C 325.361 2.10976 -0.0722744 0
M  V30 3493 O 324.709 2.08007 0.945808 0
M  V30 3494 C 324.919 2.31056 -2.61561 0
M  V30 3495 C 326.267 2.93608 -3.06724 0
M  V30 3496 O 327.291 2.41376 -2.61946 0
M  V30 3497 O 326.15 3.88421 -3.84437 0
M  V30 3498 H 323.244 0.612248 -0.555951 0
M  V30 3499 H 325.79 0.628747 -1.57623 0
M  V30 3500 H 324.562 1.75311 -3.49831 0
M  V30 3501 H 324.185 3.12081 -2.46356 0
M  V30 3502 N 325.182 1.32811 0.848464 0
M  V30 3503 C 326.41 1.26739 1.63538 0
M  V30 3504 C 326.825 -0.163484 1.88091 0
M  V30 3505 O 326.182 -1.10258 1.45429 0
M  V30 3506 C 326.233 2.03013 2.99112 0
M  V30 3507 O 325.954 3.40518 2.75643 0
M  V30 3508 C 327.455 2.04038 3.93552 0
M  V30 3509 H 324.675 0.437024 0.509167 0
M  V30 3510 H 327.219 1.75033 1.05753 0
M  V30 3511 H 325.374 1.58426 3.53525 0
M  V30 3512 H 325.788 3.79635 3.61908 0
M  V30 3513 H 327.262 2.61877 4.85926 0
M  V30 3514 H 327.739 1.0282 4.26995 0
M  V30 3515 H 328.345 2.486 3.45077 0
M  V30 3516 N 326.66 -1.06551 1.16123 0
M  V30 3517 C 327.57 -2.17484 0.879662 0
M  V30 3518 C 328.586 -1.73377 -0.147104 0
M  V30 3519 O 329.762 -2.01379 0.0289128 0
M  V30 3520 C 326.827 -3.44591 0.381829 0
M  V30 3521 C 325.888 -4.0322 1.4735 0
M  V30 3522 C 325.121 -5.24261 0.999324 0
M  V30 3523 O 325.344 -5.70198 -0.151957 0
M  V30 3524 O 324.278 -5.74775 1.78653 0
M  V30 3525 H 328.104 -2.44075 1.80724 0
M  V30 3526 H 325.689 -1.16042 0.940992 0
M  V30 3527 H 327.571 -4.21254 0.111053 0
M  V30 3528 H 326.246 -3.19532 -0.51777 0
M  V30 3529 H 325.153 -3.2806 1.79798 0
M  V30 3530 H 326.486 -4.32568 2.34831 0
M  V30 3531 N 328.138 -0.959301 -1.25041 0
M  V30 3532 C 329.366 -0.633949 -1.96948 0
M  V30 3533 C 329.781 0.794916 -1.7125 0
M  V30 3534 O 329.138 1.53231 -0.991287 0
M  V30 3535 C 329.189 -0.888805 -3.50403 0
M  V30 3536 O 328.91 -2.26149 -3.75218 0
M  V30 3537 C 330.411 -0.576482 -4.39536 0
M  V30 3538 H 327.631 -0.237263 -0.627652 0
M  V30 3539 H 330.175 -1.28495 -1.59089 0
M  V30 3540 H 328.33 -0.284145 -3.86357 0
M  V30 3541 H 328.744 -2.33514 -4.6965 0
M  V30 3542 H 330.218 -0.805314 -5.46094 0
M  V30 3543 H 330.695 0.489075 -4.36468 0
M  V30 3544 H 331.301 -1.16067 -4.09156 0
M  V30 3545 N 329.616 1.39756 -0.72842 0
M  V30 3546 C 330.546 2.33289 -0.0991354 0
M  V30 3547 C 331.527 1.53568 0.731489 0
M  V30 3548 O 332.712 1.81987 0.677807 0
M  V30 3549 C 329.842 3.3763 0.813834 0
M  V30 3550 C 328.796 4.2791 0.0878663 0
M  V30 3551 C 328.122 5.22894 1.11741 0
M  V30 3552 C 329.422 5.11314 -1.06563 0
M  V30 3553 H 331.116 2.86163 -0.880408 0
M  V30 3554 H 328.662 1.37591 -0.424819 0
M  V30 3555 H 330.615 4.0201 1.26355 0
M  V30 3556 H 329.339 2.83181 1.62715 0
M  V30 3557 H 327.998 3.65 -0.342159 0
M  V30 3558 H 327.646 4.64744 1.92412 0
M  V30 3559 H 327.346 5.84143 0.636477 0
M  V30 3560 H 328.87 5.90151 1.56697 0
M  V30 3561 H 330.284 5.69076 -0.694671 0
M  V30 3562 H 328.681 5.81671 -1.47577 0
M  V30 3563 H 329.751 4.46534 -1.89038 0
M  V30 3564 N 331.094 0.475555 1.50254 0
M  V30 3565 C 332.057 -0.305016 2.27161 0
M  V30 3566 C 333.057 -0.916519 1.32123 0
M  V30 3567 O 334.247 -0.785003 1.5551 0
M  V30 3568 C 331.379 -1.43496 3.09227 0
M  V30 3569 H 332.572 0.369511 2.97615 0
M  V30 3570 H 330.125 0.229747 1.54602 0
M  V30 3571 H 330.86 -2.14441 2.43281 0
M  V30 3572 H 330.645 -1.00223 3.79075 0
M  V30 3573 H 332.135 -1.98548 3.67381 0
M  V30 3574 N 332.573 -1.56217 0.208337 0
M  V30 3575 C 333.505 -2.1695 -0.739276 0
M  V30 3576 C 334.518 -1.13492 -1.1672 0
M  V30 3577 O 335.707 -1.40529 -1.10063 0
M  V30 3578 C 332.807 -2.72755 -2.01142 0
M  V30 3579 C 331.98 -4.0125 -1.74118 0
M  V30 3580 C 331.039 -4.41749 -2.85909 0
M  V30 3581 O 330.065 -5.08912 -2.54946 0
M  V30 3582 N 331.267 -4.06342 -4.14568 0
M  V30 3583 H 334.032 -2.98893 -0.219837 0
M  V30 3584 H 331.593 -1.61878 0.0268445 0
M  V30 3585 H 333.585 -2.96826 -2.75094 0
M  V30 3586 H 332.155 -1.95191 -2.4417 0
M  V30 3587 H 331.375 -3.85173 -0.838775 0
M  V30 3588 H 332.663 -4.851 -1.53477 0
M  V30 3589 H 332.061 -3.52345 -4.42571 0
M  V30 3590 H 330.618 -4.35335 -4.85105 0
M  V30 3591 N 334.051 0.0651679 -1.57465 0
M  V30 3592 C 334.981 1.07693 -2.07182 0
M  V30 3593 C 335.962 1.39962 -0.966673 0
M  V30 3594 O 337.147 1.49475 -1.2398 0
M  V30 3595 C 334.277 2.3885 -2.52127 0
M  V30 3596 C 333.231 2.20917 -3.66579 0
M  V30 3597 C 332.557 3.57515 -3.97601 0
M  V30 3598 C 333.857 1.62493 -4.9638 0
M  V30 3599 H 335.551 0.663199 -2.91962 0
M  V30 3600 H 333.097 0.317569 -1.40455 0
M  V30 3601 H 335.05 3.09928 -2.85522 0
M  V30 3602 H 333.774 2.82215 -1.64384 0
M  V30 3603 H 332.433 1.52279 -3.33477 0
M  V30 3604 H 332.081 3.98463 -3.06979 0
M  V30 3605 H 331.781 3.46353 -4.74672 0
M  V30 3606 H 333.305 4.30013 -4.33499 0
M  V30 3607 H 334.719 2.23445 -5.27963 0
M  V30 3608 H 333.116 1.62009 -5.77818 0
M  V30 3609 H 334.186 0.587041 -4.81333 0
M  V30 3610 N 335.529 1.53961 0.336706 0
M  V30 3611 C 336.777 1.71197 1.07405 0
M  V30 3612 C 337.098 0.481475 1.88962 0
M  V30 3613 O 336.368 -0.504585 1.8929 0
M  V30 3614 H 334.948 0.631185 0.399517 0
M  V30 3615 H 337.61 1.91232 0.376323 0
M  V30 3616 H 336.706 2.58587 1.74755 0
M  V30 3617 N 337.007 -0.598083 1.45811 0
M  V30 3618 C 338.237 -1.38121 1.53643 0
M  V30 3619 C 338.645 -1.88425 0.171081 0
M  V30 3620 O 337.988 -1.63409 -0.839237 0
M  V30 3621 C 338.05 -2.61432 2.46766 0
M  V30 3622 C 337.714 -2.32702 3.93318 0
M  V30 3623 C 338.711 -1.92479 4.82957 0
M  V30 3624 C 336.396 -2.45321 4.38318 0
M  V30 3625 C 338.39 -1.65248 6.15607 0
M  V30 3626 C 336.077 -2.17703 5.71007 0
M  V30 3627 C 337.075 -1.7773 6.5947 0
M  V30 3628 O 336.763 -1.50441 7.89698 0
M  V30 3629 H 336.495 -0.428863 0.522544 0
M  V30 3630 H 339.049 -0.73557 1.91777 0
M  V30 3631 H 337.279 -3.28749 2.0362 0
M  V30 3632 H 338.968 -3.23487 2.45175 0
M  V30 3633 H 339.734 -1.82258 4.49452 0
M  V30 3634 H 335.613 -2.75399 3.69697 0
M  V30 3635 H 339.157 -1.33973 6.84614 0
M  V30 3636 H 335.054 -2.27544 6.04065 0
M  V30 3637 H 335.822 -1.64415 8.01817 0
M  V30 3638 N 338.485 -1.33259 -0.841409 0
M  V30 3639 C 339.762 -1.15174 -1.58096 0
M  V30 3640 C 340.142 0.282858 -2.09196 0
M  V30 3641 O 339.49 1.28151 -1.89181 0
M  V30 3642 C 339.7 -2.1907 -2.71679 0
M  V30 3643 C 341.048 -2.53093 -3.40924 0
M  V30 3644 O 342.072 -2.17717 -2.81918 0
M  V30 3645 O 340.931 -3.1379 -4.47435 0
M  V30 3646 H 338.025 -0.445303 -0.696875 0
M  V30 3647 H 340.571 -1.44833 -0.884385 0
M  V30 3648 H 339.343 -3.15443 -2.31541 0
M  V30 3649 H 338.966 -1.90481 -3.49002 0
M  V30 3650 N 339.963 1.05934 -1.16686 0
M  V30 3651 C 340.873 2.17014 -0.891183 0
M  V30 3652 C 341.889 1.73453 0.137907 0
M  V30 3653 O 343.065 2.01361 -0.039592 0
M  V30 3654 C 340.13 3.44384 -0.400099 0
M  V30 3655 C 339.191 4.02433 -1.49486 0
M  V30 3656 C 338.424 5.23723 -1.02711 0
M  V30 3657 O 338.647 5.7027 0.121716 0
M  V30 3658 O 337.581 5.7382 -1.81699 0
M  V30 3659 H 341.407 2.43113 -1.82015 0
M  V30 3660 H 338.992 1.15541 -0.947132 0
M  V30 3661 H 340.874 4.21189 -0.133392 0
M  V30 3662 H 339.549 3.19802 0.500817 0
M  V30 3663 H 338.456 3.27102 -1.81535 0
M  V30 3664 H 339.789 4.31317 -2.37121 0
M  V30 3665 N 341.441 0.965919 1.2453 0
M  V30 3666 C 342.69 0.622437 1.91856 0
M  V30 3667 C 343.003 -0.846006 1.76358 0
M  V30 3668 O 344.209 -1.29993 2.38357 0
M  V30 3669 C 342.665 1.0626 3.43856 0
M  V30 3670 C 342.273 2.55437 3.68043 0
M  V30 3671 C 344.017 0.792183 4.17043 0
M  V30 3672 C 341.924 2.93196 5.13605 0
M  V30 3673 H 340.854 0.229092 0.718354 0
M  V30 3674 H 343.505 1.17189 1.41206 0
M  V30 3675 H 341.887 0.441476 3.93531 0
M  V30 3676 H 343.061 3.22665 3.28974 0
M  V30 3677 H 341.376 2.8007 3.08139 0
M  V30 3678 H 343.973 1.05031 5.24283 0
M  V30 3679 H 344.316 -0.271584 4.15413 0
M  V30 3680 H 344.849 1.37419 3.73311 0
M  V30 3681 H 341.588 3.98636 5.20355 0
M  V30 3682 H 341.108 2.30651 5.53679 0
M  V30 3683 H 342.787 2.83004 5.81823 0
M  V30 3684 N 342.919 -1.39368 0.735821 0
M  V30 3685 C 343.849 -2.33234 0.111506 0
M  V30 3686 C 344.83 -1.53954 -0.723334 0
M  V30 3687 O 346.015 -1.82344 -0.668147 0
M  V30 3688 C 343.145 -3.38057 -0.795917 0
M  V30 3689 C 342.099 -4.2795 -0.065172 0
M  V30 3690 C 341.425 -5.23479 -1.08967 0
M  V30 3691 C 342.725 -5.10741 1.09273 0
M  V30 3692 H 344.419 -2.85692 0.895571 0
M  V30 3693 H 341.965 -1.37364 0.432109 0
M  V30 3694 H 343.918 -4.02675 -1.24221 0
M  V30 3695 H 342.642 -2.8404 -1.61211 0
M  V30 3696 H 341.301 -3.64813 0.361511 0
M  V30 3697 H 340.949 -4.65758 -1.89944 0
M  V30 3698 H 340.649 -5.84472 -0.605489 0
M  V30 3699 H 342.173 -5.90974 -1.53565 0
M  V30 3700 H 343.587 -5.68699 0.724841 0
M  V30 3701 H 341.984 -5.8088 1.50659 0
M  V30 3702 H 343.054 -4.45525 1.91404 0
M  V30 3703 N 344.397 -0.483516 -1.5 0
M  V30 3704 C 345.643 0.0672592 -2.02688 0
M  V30 3705 C 345.976 1.38247 -1.36387 0
M  V30 3706 O 345.251 1.88131 -0.493675 0
M  V30 3707 C 345.534 0.238109 -3.59312 0
M  V30 3708 C 345.387 -1.099 -4.36168 0
M  V30 3709 C 346.706 0.986916 -4.28892 0
M  V30 3710 H 343.825 0.0229696 -0.736642 0
M  V30 3711 H 346.467 -0.631527 -1.79197 0
M  V30 3712 H 344.617 0.8333 -3.79458 0
M  V30 3713 H 346.289 -1.73172 -4.27562 0
M  V30 3714 H 344.532 -1.69261 -3.99416 0
M  V30 3715 H 345.203 -0.932954 -5.44059 0
M  V30 3716 H 347.679 0.482302 -4.13295 0
M  V30 3717 H 346.555 1.07527 -5.38265 0
M  V30 3718 H 346.816 2.0265 -3.92919 0
M  V30 3719 N 345.875 1.56104 -0.216619 0
M  V30 3720 C 346.822 2.2007 0.695531 0
M  V30 3721 C 347.792 1.15471 1.19397 0
M  V30 3722 O 348.977 1.43807 1.25396 0
M  V30 3723 C 346.117 2.88073 1.90021 0
M  V30 3724 C 345.23 4.07253 1.44113 0
M  V30 3725 C 344.365 4.63052 2.603 0
M  V30 3726 C 343.404 5.74545 2.11103 0
M  V30 3727 N 342.541 6.24656 3.20545 0
M  V30 3728 H 347.381 2.97655 0.143327 0
M  V30 3729 H 344.918 1.46982 0.0589934 0
M  V30 3730 H 346.876 3.25681 2.60745 0
M  V30 3731 H 345.506 2.13015 2.42538 0
M  V30 3732 H 344.558 3.75164 0.628999 0
M  V30 3733 H 345.87 4.8783 1.04036 0
M  V30 3734 H 345.024 5.03078 3.39113 0
M  V30 3735 H 343.763 3.81628 3.03663 0
M  V30 3736 H 342.768 5.34027 1.3075 0
M  V30 3737 H 343.993 6.57801 1.68746 0
M  V30 3738 H 341.939 5.46148 3.63399 0
M  V30 3739 H 341.856 7.00343 2.84704 0
M  V30 3740 H 343.124 6.69338 3.99508 0
M  V30 3741 N 347.353 -0.0568162 1.57498 0
M  V30 3742 C 348.301 -1.08452 2.05769 0
M  V30 3743 C 349.295 -1.39164 0.965903 0
M  V30 3744 O 350.501 -1.38395 1.15095 0
M  V30 3745 H 346.876 -0.367148 0.656282 0
M  V30 3746 H 348.847 -0.651368 2.91204 0
M  V30 3747 C 347.596 -2.38543 2.52968 0
M  V30 3748 H 346.919 -2.15765 3.36579 0
M  V30 3749 H 348.359 -3.08863 2.90481 0
M  V30 3750 C 346.818 -3.05562 1.41893 0
M  V30 3751 O 347.348 -3.94262 0.769442 0
M  V30 3752 N 345.554 -2.6643 1.16032 0
M  V30 3753 H 345.101 -1.94387 1.6903 0
M  V30 3754 H 345.059 -3.11593 0.419219 0
M  V30 3755 N 348.832 -1.54138 -0.328536 0
M  V30 3756 C 350.081 -1.71318 -1.06456 0
M  V30 3757 C 350.394 -0.491109 -1.89334 0
M  V30 3758 O 351.6 -0.54416 -2.65991 0
M  V30 3759 C 350.056 -3.03 -1.94214 0
M  V30 3760 C 349.664 -4.32595 -1.16471 0
M  V30 3761 C 351.408 -3.29544 -2.67583 0
M  V30 3762 C 349.315 -5.55341 -2.03347 0
M  V30 3763 H 348.245 -0.638429 -0.401155 0
M  V30 3764 H 350.896 -1.80633 -0.323106 0
M  V30 3765 H 349.278 -2.87579 -2.72239 0
M  V30 3766 H 350.452 -4.58766 -0.432525 0
M  V30 3767 H 348.767 -4.12777 -0.548063 0
M  V30 3768 H 351.364 -4.18444 -3.3288 0
M  V30 3769 H 351.707 -2.47206 -3.34955 0
M  V30 3770 H 352.24 -3.45809 -1.96623 0
M  V30 3771 H 348.979 -6.40268 -1.40491 0
M  V30 3772 H 348.499 -5.33397 -2.74313 0
M  V30 3773 H 350.178 -5.91557 -2.62049 0
M  V30 3774 N 350.31 0.590341 -1.46126 0
M  V30 3775 C 351.538 1.37504 -1.54597 0
M  V30 3776 C 351.953 1.87897 -0.184447 0
M  V30 3777 O 351.31 1.63192 0.816984 0
M  V30 3778 C 351.361 2.56779 -2.54454 0
M  V30 3779 O 351.082 2.08476 -3.85317 0
M  V30 3780 C 352.583 3.49427 -2.72792 0
M  V30 3781 H 349.803 0.420325 -0.523037 0
M  V30 3782 H 352.347 0.718383 -1.91467 0
M  V30 3783 H 350.502 3.1845 -2.20609 0
M  V30 3784 H 350.916 2.86097 -4.396 0
M  V30 3785 H 352.39 4.29619 -3.466 0
M  V30 3786 H 352.867 4.00876 -1.79429 0
M  V30 3787 H 353.473 2.93598 -3.07702 0
M  V30 3788 N 351.788 1.33704 0.83433 0
M  V30 3789 C 353.013 1.28615 1.62705 0
M  V30 3790 C 353.438 -0.139242 1.87584 0
M  V30 3791 O 352.796 -1.09734 1.4432 0
M  V30 3792 C 352.844 2.07139 2.95171 0
M  V30 3793 O 351.948 1.4331 3.86699 0
M  V30 3794 H 351.289 0.44226 0.49528 0
M  V30 3795 H 353.819 1.76335 1.03766 0
M  V30 3796 H 353.829 2.18073 3.44831 0
M  V30 3797 H 352.504 3.10779 2.76386 0
M  V30 3798 H 351.081 1.4105 3.45195 0
M  V30 3799 N 353.266 -1.05314 1.17247 0
M  V30 3800 C 354.682 -1.30452 0.919473 0
M  V30 3801 C 354.882 -1.9703 -0.42209 0
M  V30 3802 O 353.938 -2.24311 -1.15935 0
M  V30 3803 C 355.251 -2.17551 2.07586 0
M  V30 3804 C 356.799 -2.30937 2.11275 0
M  V30 3805 C 357.274 -3.21396 3.26296 0
M  V30 3806 N 358.765 -3.28981 3.26076 0
M  V30 3807 C 359.5 -3.99095 4.11716 0
M  V30 3808 N 358.996 -4.71648 5.07465 0
M  V30 3809 N 360.789 -3.95247 3.9967 0
M  V30 3810 H 352.94 -0.604988 2.03602 0
M  V30 3811 H 355.203 -0.329368 0.888944 0
M  V30 3812 H 354.909 -1.75921 3.0454 0
M  V30 3813 H 354.783 -3.18182 2.02584 0
M  V30 3814 H 357.17 -2.71809 1.14907 0
M  V30 3815 H 357.251 -1.2994 2.20339 0
M  V30 3816 H 356.895 -2.81238 4.22927 0
M  V30 3817 H 356.825 -4.22395 3.14467 0
M  V30 3818 H 359.316 -2.77286 2.5675 0
M  V30 3819 H 359.629 -5.22705 5.6921 0
M  V30 3820 H 357.974 -4.70594 5.11435 0
M  V30 3821 H 361.165 -3.37691 3.24164 0
M  V30 3822 H 361.338 -4.4962 4.66632 0
M  V30 3823 N 354.744 -0.972509 -1.24016 0
M  V30 3824 C 355.993 -0.632603 -1.91523 0
M  V30 3825 C 356.306 0.836641 -1.76804 0
M  V30 3826 O 357.512 1.28728 -2.39043 0
M  V30 3827 C 355.968 -1.08082 -3.43287 0
M  V30 3828 C 355.576 -2.57386 -3.66683 0
M  V30 3829 C 357.32 -0.814288 -4.16617 0
M  V30 3830 C 355.227 -2.95915 -5.12043 0
M  V30 3831 H 354.157 -0.232898 -0.717129 0
M  V30 3832 H 356.808 -1.17936 -1.40582 0
M  V30 3833 H 355.19 -0.462339 -3.93292 0
M  V30 3834 H 356.364 -3.24405 -3.27258 0
M  V30 3835 H 354.679 -2.81701 -3.06649 0
M  V30 3836 H 357.276 -1.0781 -5.23718 0
M  V30 3837 H 357.619 0.24955 -4.15551 0
M  V30 3838 H 358.152 -1.39397 -3.72577 0
M  V30 3839 H 354.891 -4.0139 -5.18234 0
M  V30 3840 H 354.411 -2.33584 -5.52448 0
M  V30 3841 H 356.09 -2.86086 -5.80314 0
M  V30 3842 N 356.222 1.38976 -0.743202 0
M  V30 3843 C 357.154 2.29096 -0.0689228 0
M  V30 3844 C 358.167 1.47229 0.694791 0
M  V30 3845 O 359.356 1.70212 0.537597 0
M  V30 3846 C 356.456 3.25988 0.926548 0
M  V30 3847 C 355.629 4.36833 0.222647 0
M  V30 3848 C 354.688 5.13981 1.12739 0
M  V30 3849 O 353.714 5.6601 0.601795 0
M  V30 3850 N 354.916 5.25966 2.45641 0
M  V30 3851 H 357.681 2.87604 -0.842846 0
M  V30 3852 H 355.242 1.50645 -0.593109 0
M  V30 3853 H 357.234 3.74476 1.5346 0
M  V30 3854 H 355.804 2.68453 1.60162 0
M  V30 3855 H 355.024 3.90116 -0.565983 0
M  V30 3856 H 356.312 5.0811 -0.264841 0
M  V30 3857 H 355.71 4.85228 2.9081 0
M  V30 3858 H 354.267 5.77865 3.01522 0
M  V30 3859 N 357.7 0.491464 1.49741 0
M  V30 3860 C 358.647 -0.292027 2.28945 0
M  V30 3861 C 359.617 -0.968973 1.34908 0
M  V30 3862 O 360.802 -0.97748 1.6386 0
M  V30 3863 C 357.942 -1.35617 3.17336 0
M  V30 3864 C 357.055 -0.691957 4.26422 0
M  V30 3865 C 356.19 -1.73572 5.02042 0
M  V30 3866 C 355.229 -1.05286 6.02977 0
M  V30 3867 N 354.366 -2.0404 6.71798 0
M  V30 3868 H 359.206 0.389654 2.95442 0
M  V30 3869 H 356.743 0.204003 1.45679 0
M  V30 3870 H 358.701 -1.98502 3.66951 0
M  V30 3871 H 357.331 -2.00674 2.52844 0
M  V30 3872 H 356.383 0.0499523 3.80367 0
M  V30 3873 H 357.695 -0.153946 4.98562 0
M  V30 3874 H 356.849 -2.43987 5.55478 0
M  V30 3875 H 355.588 -2.30757 4.29654 0
M  V30 3876 H 354.593 -0.334446 5.48782 0
M  V30 3877 H 355.818 -0.487636 6.77347 0
M  V30 3878 H 353.764 -2.60205 6.02187 0
M  V30 3879 H 353.681 -1.55279 7.39881 0
M  V30 3880 H 354.949 -2.73772 7.29842 0
M  V30 3881 N 359.178 -1.55987 0.224894 0
M  V30 3882 C 360.126 -2.21808 -0.700283 0
M  V30 3883 C 361.12 -1.19854 -1.19714 0
M  V30 3884 O 362.326 -1.37925 -1.15658 0
M  V30 3885 H 358.701 -0.711226 -0.244258 0
M  V30 3886 H 360.672 -2.98152 -0.121749 0
M  V30 3887 C 359.421 -2.91444 -1.8962 0
M  V30 3888 H 358.744 -3.69655 -1.52299 0
M  V30 3889 H 360.184 -3.40894 -2.52125 0
M  V30 3890 C 358.643 -1.94098 -2.75368 0
M  V30 3891 O 359.173 -1.46004 -3.74227 0
M  V30 3892 N 357.379 -1.61675 -2.41474 0
M  V30 3893 H 356.926 -2.00979 -1.61137 0
M  V30 3894 H 356.884 -0.968036 -2.99126 0
M  V30 3895 N 360.656 0.0484629 -1.57525 0
M  V30 3896 C 361.619 1.03956 -2.04269 0
M  V30 3897 C 362.619 1.30211 -0.943496 0
M  V30 3898 O 363.809 1.25539 -1.20771 0
M  V30 3899 C 360.941 2.37742 -2.44319 0
M  V30 3900 H 362.134 0.636182 -2.93075 0
M  V30 3901 H 359.687 0.294811 -1.53494 0
M  V30 3902 H 360.422 2.82866 -1.5861 0
M  V30 3903 H 360.207 2.20021 -3.24551 0
M  V30 3904 H 361.697 3.08936 -2.80978 0
M  V30 3905 N 362.134 1.5431 0.320358 0
M  V30 3906 C 363.381 1.72668 1.05792 0
M  V30 3907 C 363.709 0.502084 1.87908 0
M  V30 3908 O 362.964 -0.516149 1.88771 0
M  V30 3909 C 363.263 2.95639 2.00828 0
M  V30 3910 C 362.929 4.30265 1.34843 0
M  V30 3911 C 361.591 4.66865 1.16578 0
M  V30 3912 C 363.943 5.13801 0.875095 0
M  V30 3913 C 361.271 5.84597 0.496336 0
M  V30 3914 C 363.623 6.32219 0.219463 0
M  V30 3915 C 362.287 6.67495 0.0246915 0
M  V30 3916 H 361.557 0.631837 0.387121 0
M  V30 3917 H 364.204 1.88552 0.334735 0
M  V30 3918 H 362.509 2.74456 2.79609 0
M  V30 3919 H 364.206 3.07038 2.57932 0
M  V30 3920 H 360.796 4.01472 1.50061 0
M  V30 3921 H 364.98 4.86039 1.00398 0
M  V30 3922 H 360.236 6.10486 0.334264 0
M  V30 3923 H 364.41 6.96227 -0.155291 0
M  V30 3924 H 362.037 7.5858 -0.496065 0
M  V30 3925 N 363.613 -0.582584 1.46437 0
M  V30 3926 C 364.56 -1.69164 1.5701 0
M  V30 3927 C 365.53 -1.60847 0.414403 0
M  V30 3928 O 366.715 -1.80058 0.631171 0
M  V30 3929 C 363.855 -3.075 1.56646 0
M  V30 3930 C 362.968 -3.2644 2.82951 0
M  V30 3931 C 362.103 -4.55026 2.7409 0
M  V30 3932 C 361.142 -4.6731 3.95333 0
M  V30 3933 N 360.279 -5.87221 3.84858 0
M  V30 3934 H 365.119 -1.59464 2.51744 0
M  V30 3935 H 362.656 -0.777186 1.24893 0
M  V30 3936 H 364.614 -3.8757 1.5442 0
M  V30 3937 H 363.244 -3.16096 0.654439 0
M  V30 3938 H 362.296 -2.39974 2.95155 0
M  V30 3939 H 363.608 -3.31385 3.72808 0
M  V30 3940 H 362.762 -5.43324 2.6997 0
M  V30 3941 H 361.501 -4.52519 1.81873 0
M  V30 3942 H 360.506 -3.77429 3.99784 0
M  V30 3943 H 361.731 -4.71595 4.88646 0
M  V30 3944 H 359.677 -5.85712 2.95427 0
M  V30 3945 H 359.594 -5.93435 4.6837 0
M  V30 3946 H 360.862 -6.7795 3.84713 0
M  V30 3947 N 365.091 -1.34144 -0.827227 0
M  V30 3948 C 366.021 -1.28005 -1.95287 0
M  V30 3949 C 367.002 -0.158321 -1.69362 0
M  V30 3950 O 368.187 -0.349987 -1.9102 0
M  V30 3951 C 365.317 -1.03036 -3.31664 0
M  V30 3952 C 364.271 -2.11628 -3.72019 0
M  V30 3953 C 363.597 -1.71854 -5.0633 0
M  V30 3954 C 364.897 -3.53417 -3.8457 0
M  V30 3955 H 366.591 -2.22187 -2.00682 0
M  V30 3956 H 364.137 -1.0696 -0.964135 0
M  V30 3957 H 366.09 -0.973863 -4.09993 0
M  V30 3958 H 364.814 -0.0529391 -3.26557 0
M  V30 3959 H 363.473 -2.16339 -2.95961 0
M  V30 3960 H 363.121 -0.727841 -4.97706 0
M  V30 3961 H 362.821 -2.44531 -5.34302 0
M  V30 3962 H 364.345 -1.67692 -5.87122 0
M  V30 3963 H 365.759 -3.51142 -4.5318 0
M  V30 3964 H 364.156 -4.24679 -4.2399 0
M  V30 3965 H 365.226 -3.91072 -2.86689 0
M  V30 3966 N 366.569 1.04691 -1.17803 0
M  V30 3967 C 367.479 2.16057 -0.914151 0
M  V30 3968 C 368.495 1.73589 0.119503 0
M  V30 3969 O 369.671 2.01308 -0.0609468 0
M  V30 3970 C 366.736 3.4394 -0.436603 0
M  V30 3971 C 365.797 4.00825 -1.53746 0
M  V30 3972 C 365.03 5.22604 -1.0826 0
M  V30 3973 O 365.253 5.70367 0.0612244 0
M  V30 3974 O 364.187 5.7186 -1.87775 0
M  V30 3975 H 368.013 2.41169 -1.84584 0
M  V30 3976 H 365.598 1.1453 -0.959334 0
M  V30 3977 H 367.48 4.21024 -0.178057 0
M  V30 3978 H 366.155 3.20316 0.466869 0
M  V30 3979 H 365.062 3.25158 -1.84995 0
M  V30 3980 H 366.395 4.28778 -2.41683 0
M  V30 3981 N 368.047 0.979072 1.23499 0
M  V30 3982 C 368.977 0.537606 2.27227 0
M  V30 3983 C 369.958 -0.428539 1.64613 0
M  V30 3984 O 371.143 -0.322191 1.91509 0
M  V30 3985 C 368.273 -0.162052 3.46922 0
M  V30 3986 C 367.227 0.721242 4.21879 0
M  V30 3987 C 366.553 -0.110555 5.34586 0
M  V30 3988 C 367.853 2.01141 4.82016 0
M  V30 3989 H 369.547 1.40462 2.64406 0
M  V30 3990 H 367.093 0.67684 1.27102 0
M  V30 3991 H 369.046 -0.482192 4.18632 0
M  V30 3992 H 367.77 -1.06351 3.08799 0
M  V30 3993 H 366.429 1.02482 3.51984 0
M  V30 3994 H 366.077 -1.0125 4.92704 0
M  V30 3995 H 365.777 0.477325 5.85658 0
M  V30 3996 H 367.301 -0.425107 6.09118 0
M  V30 3997 H 368.715 1.75612 5.45741 0
M  V30 3998 H 367.112 2.54695 5.43369 0
M  V30 3999 H 368.182 2.69909 4.02836 0
M  V30 4000 N 369.525 -1.3858 0.750561 0
M  V30 4001 C 370.936 -1.82927 0.373438 0
M  V30 4002 C 371.287 -1.62634 -1.09748 0
M  V30 4003 O 370.412 -1.12588 -1.84805 0
M  V30 4004 C 371.007 -3.32088 0.671029 0
M  V30 4005 C 369.566 -3.74795 0.34722 0
M  V30 4006 C 368.713 -2.61391 0.92575 0
M  V30 4007 H 371.664 -1.27351 0.946958 0
M  V30 4008 H 371.685 -3.80465 -0.0518269 0
M  V30 4009 H 371.197 -3.46826 1.74164 0
M  V30 4010 H 369.298 -3.65638 -0.716933 0
M  V30 4011 H 369.411 -4.71667 0.840656 0
M  V30 4012 H 367.775 -2.52265 0.351327 0
M  V30 4013 H 368.558 -2.78929 2.00133 0
M  V30 4014 N 371.003 -0.499398 -1.49478 0
M  V30 4015 C 371.966 0.268838 -2.27618 0
M  V30 4016 C 372.966 0.895383 -1.33565 0
M  V30 4017 O 374.156 0.760164 -1.56739 0
M  V30 4018 C 371.288 1.38559 -3.11471 0
M  V30 4019 H 372.481 -0.416812 -2.96989 0
M  V30 4020 H 370.034 -0.254313 -1.54217 0
M  V30 4021 H 370.769 2.10544 -2.46661 0
M  V30 4022 H 370.554 0.941797 -3.80621 0
M  V30 4023 H 372.044 1.92678 -3.70493 0
M  V30 4024 N 372.481 1.55866 -0.233164 0
M  V30 4025 C 373.73 1.97779 0.39579 0
M  V30 4026 C 374.043 1.12419 1.60066 0
M  V30 4027 O 375.249 1.44283 2.29988 0
M  V30 4028 C 373.705 3.5188 0.755556 0
M  V30 4029 C 373.313 4.45959 -0.427152 0
M  V30 4030 C 375.057 4.02479 1.34946 0
M  V30 4031 C 372.964 5.91383 -0.0443043 0
M  V30 4032 H 371.894 0.738592 0.15165 0
M  V30 4033 H 374.545 1.80486 -0.331212 0
M  V30 4034 H 372.927 3.64816 1.5403 0
M  V30 4035 H 374.101 4.44776 -1.20462 0
M  V30 4036 H 372.416 4.05765 -0.935068 0
M  V30 4037 H 375.013 5.08637 1.649 0
M  V30 4038 H 375.356 3.49014 2.26925 0
M  V30 4039 H 375.889 3.92813 0.62791 0
M  V30 4040 H 372.628 6.48857 -0.930874 0
M  V30 4041 H 372.148 5.95734 0.697238 0
M  V30 4042 H 373.827 6.45893 0.378334 0
M  V30 4043 N 373.959 -0.0401083 1.57549 0
M  V30 4044 C 374.922 -1.02871 2.04817 0
M  V30 4045 C 375.922 -1.29708 0.950388 0
M  V30 4046 O 377.112 -1.24897 1.21435 0
M  V30 4047 C 374.244 -2.36443 2.45576 0
M  V30 4048 H 375.437 -0.620631 2.93408 0
M  V30 4049 H 372.99 -0.286667 1.53649 0
M  V30 4050 H 373.725 -2.82021 1.60108 0
M  V30 4051 H 373.51 -2.18296 3.25713 0
M  V30 4052 H 375 -3.07441 2.82612 0
M  V30 4053 N 375.437 -1.54477 -0.31217 0
M  V30 4054 C 376.384 -1.84655 -1.38461 0
M  V30 4055 C 377.354 -0.694536 -1.50882 0
M  V30 4056 O 378.539 -0.942081 -1.6592 0
M  V30 4057 C 375.679 -2.0896 -2.74645 0
M  V30 4058 C 374.792 -3.36618 -2.70763 0
M  V30 4059 C 373.927 -3.50824 -3.98868 0
M  V30 4060 C 372.966 -4.72315 -3.89339 0
M  V30 4061 N 372.103 -4.83387 -5.09197 0
M  V30 4062 H 376.943 -2.76142 -1.12026 0
M  V30 4063 H 374.48 -1.36748 -0.542065 0
M  V30 4064 H 376.438 -2.21045 -3.53829 0
M  V30 4065 H 375.068 -1.20752 -2.99364 0
M  V30 4066 H 374.12 -3.33211 -1.83506 0
M  V30 4067 H 375.432 -4.25917 -2.59608 0
M  V30 4068 H 374.586 -3.62513 -4.86486 0
M  V30 4069 H 373.325 -2.59638 -4.12843 0
M  V30 4070 H 372.33 -4.6067 -3.00105 0
M  V30 4071 H 373.555 -5.64897 -3.76919 0
M  V30 4072 H 371.501 -3.9512 -5.23657 0
M  V30 4073 H 371.418 -5.66669 -5.00422 0
M  V30 4074 H 372.686 -4.9942 -5.98498 0
M  V30 4075 N 376.915 0.57481 -1.46744 0
M  V30 4076 C 378.331 0.898981 -1.31873 0
M  V30 4077 C 378.531 1.99313 -0.29605 0
M  V30 4078 O 377.587 2.50728 0.298621 0
M  V30 4079 C 378.9 1.30886 -2.7072 0
M  V30 4080 C 380.448 1.42127 -2.78871 0
M  V30 4081 C 380.923 1.86478 -4.18318 0
M  V30 4082 N 382.414 1.93658 -4.20774 0
M  V30 4083 C 383.149 2.29267 -5.2557 0
M  V30 4084 N 382.645 2.63612 -6.40688 0
M  V30 4085 N 384.438 2.29889 -5.1294 0
M  V30 4086 H 376.589 -0.147839 -2.11885 0
M  V30 4087 H 378.852 -0.00347013 -0.947994 0
M  V30 4088 H 378.558 0.578853 -3.46904 0
M  V30 4089 H 378.432 2.26874 -3.01343 0
M  V30 4090 H 380.819 2.14213 -2.0297 0
M  V30 4091 H 380.9 0.443705 -2.51922 0
M  V30 4092 H 380.544 1.14968 -4.94717 0
M  V30 4093 H 380.474 2.85207 -4.42679 0
M  V30 4094 H 382.965 1.69574 -3.37718 0
M  V30 4095 H 383.278 2.89759 -7.16421 0
M  V30 4096 H 381.623 2.61232 -6.44036 0
M  V30 4097 H 384.814 2.02485 -4.22039 0
M  V30 4098 H 384.987 2.57312 -5.94722 0
M  V30 4099 N 378.394 1.34581 0.820102 0
M  V30 4100 C 379.641 1.27096 1.57648 0
M  V30 4101 C 379.969 -0.158317 1.93855 0
M  V30 4102 O 379.224 -1.12028 1.60463 0
M  V30 4103 C 379.523 2.10997 2.8847 0
M  V30 4104 C 379.189 3.59966 2.71543 0
M  V30 4105 C 377.851 4.00575 2.66634 0
M  V30 4106 C 380.203 4.54548 2.55021 0
M  V30 4107 C 377.531 5.33953 2.43128 0
M  V30 4108 C 379.883 5.88109 2.33047 0
M  V30 4109 C 378.547 6.27878 2.26552 0
M  V30 4110 H 377.817 0.465078 0.576874 0
M  V30 4111 H 380.464 1.6635 0.948671 0
M  V30 4112 H 378.769 1.6458 3.55557 0
M  V30 4113 H 380.466 2.0255 3.46084 0
M  V30 4114 H 377.056 3.27733 2.76205 0
M  V30 4115 H 381.24 4.24069 2.57835 0
M  V30 4116 H 376.496 5.63781 2.3656 0
M  V30 4117 H 380.67 6.60985 2.19251 0
M  V30 4118 H 378.297 7.31162 2.081 0
M  V30 4119 N 379.872 -1.04064 1.18357 0
M  V30 4120 C 380.82 -2.14187 0.907007 0
M  V30 4121 C 381.814 -1.68879 -0.132725 0
M  V30 4122 O 383.02 -1.79993 0.0154248 0
M  V30 4123 H 379.395 -0.699585 0.275835 0
M  V30 4124 H 381.366 -2.34711 1.84264 0
M  V30 4125 C 380.115 -3.44785 0.449254 0
M  V30 4126 H 379.438 -3.80058 1.24081 0
M  V30 4127 H 380.878 -4.22974 0.294737 0
M  V30 4128 C 379.337 -3.26391 -0.834909 0
M  V30 4129 O 379.867 -3.53973 -1.89911 0
M  V30 4130 N 378.073 -2.79726 -0.787523 0
M  V30 4131 H 377.62 -2.5748 0.0787347 0
M  V30 4132 H 377.578 -2.67798 -1.64716 0
M  V30 4133 N 381.35 -0.985608 -1.22978 0
M  V30 4134 C 382.761 -0.693593 -1.73338 0
M  V30 4135 C 383.112 0.789935 -1.79595 0
M  V30 4136 O 382.237 1.61771 -1.43733 0
M  V30 4137 C 382.832 -1.25235 -3.14804 0
M  V30 4138 C 381.391 -1.00987 -3.626 0
M  V30 4139 C 380.538 -1.37695 -2.40698 0
M  V30 4140 H 383.489 -1.15884 -1.08428 0
M  V30 4141 H 383.51 -0.627329 -3.75293 0
M  V30 4142 H 383.022 -2.33209 -3.10218 0
M  V30 4143 H 381.123 0.0535565 -3.72562 0
M  V30 4144 H 381.236 -1.66812 -4.49122 0
M  V30 4145 H 379.6 -0.795459 -2.4196 0
M  V30 4146 H 380.383 -2.46657 -2.38779 0
M  V30 4147 N 382.828 1.3818 -0.7579 0
M  V30 4148 C 383.738 2.3421 -0.135247 0
M  V30 4149 C 384.754 1.59487 0.695683 0
M  V30 4150 O 385.93 1.91657 0.618832 0
M  V30 4151 C 382.995 3.3862 0.744139 0
M  V30 4152 C 382.056 4.2918 -0.101658 0
M  V30 4153 C 381.289 5.28603 0.735851 0
M  V30 4154 O 381.512 5.35166 1.97366 0
M  V30 4155 O 380.446 6.01707 0.152372 0
M  V30 4156 H 384.272 2.8916 -0.928436 0
M  V30 4157 H 381.857 1.40101 -0.518855 0
M  V30 4158 H 383.739 4.02539 1.2466 0
M  V30 4159 H 382.414 2.86019 1.51575 0
M  V30 4160 H 381.321 3.68407 -0.650167 0
M  V30 4161 H 382.654 4.85048 -0.836024 0
M  V30 4162 O 384.345 0.648902 1.4789 0
M  V30 4163 H 385.036 0.173089 1.92925 0
M  V30 END ATOM
M  V30 BEGIN BOND
M  V30 END BOND
M  V30 END CTAB
M  END
$$$$
