drugbank_target|O25608 Oxygen-insensitive NADPH nitroreductase (DB00916)
 OpenBabel12092120533D

  0  0  0     0  0            999 V3000
M  V30 BEGIN CTAB
M  V30 COUNTS 3386 3420 0 0 0
M  V30 BEGIN ATOM
M  V30 1 H -0.908 1.98254 -0.117106 0
M  V30 2 N 0 1.576 0 0
M  V30 3 C 0.933 2.03868 1.02534 0
M  V30 4 C 1.911 0.928543 1.3348 0
M  V30 5 O 3.095 1.19667 1.45644 0
M  V30 6 C 0.222 2.43627 2.35294 0
M  V30 7 C -0.732 3.65373 2.2001 0
M  V30 8 S 0.101 5.13292 1.52614 0
M  V30 9 C 1.257 5.56322 2.86805 0
M  V30 10 H 1.49 2.90518 0.631377 0
M  V30 11 H -0.977 1.52953 0.210867 0
M  V30 12 H 0.981 2.67203 3.11629 0
M  V30 13 H -0.358 1.57376 2.7183 0
M  V30 14 H -1.165 3.90944 3.18086 0
M  V30 15 H -1.563 3.418 1.51819 0
M  V30 16 H 0.729 5.58782 3.83104 0
M  V30 17 H 1.672 6.56266 2.65933 0
M  V30 18 H 2.08 4.83886 2.90714 0
M  V30 19 N 1.4781 -0.272755 1.55222 0
M  V30 20 C 2.4251 -1.33716 1.88119 0
M  V30 21 C 3.3951 -1.49066 0.73271 0
M  V30 22 O 4.5801 -1.63469 0.984002 0
M  V30 23 C 1.7201 -2.69238 2.15882 0
M  V30 24 C 0.8331 -2.62108 3.43399 0
M  V30 25 C -0.0319 -3.89811 3.60861 0
M  V30 26 C -0.9929 -3.77193 4.8207 0
M  V30 27 N -1.8559 -4.9673 4.96189 0
M  V30 28 H 2.9841 -1.04962 2.78903 0
M  V30 29 H 0.5211 -0.507088 1.38083 0
M  V30 30 H 2.4791 -3.48089 2.29978 0
M  V30 31 H 1.1091 -2.96194 1.28331 0
M  V30 32 H 0.1611 -1.74967 3.37773 0
M  V30 33 H 1.4731 -2.48685 4.32386 0
M  V30 34 H 0.6271 -4.77103 3.74777 0
M  V30 35 H -0.6339 -4.06102 2.7006 0
M  V30 36 H -1.6289 -2.88284 4.68159 0
M  V30 37 H -0.4039 -3.62421 5.74307 0
M  V30 38 H -2.4579 -5.13431 4.08319 0
M  V30 39 H -2.5409 -4.85839 5.79221 0
M  V30 40 H -1.2729 -5.85594 5.1449 0
M  V30 41 N 2.9562 -1.48159 -0.537278 0
M  V30 42 C 4.2032 -1.55804 -1.29349 0
M  V30 43 C 4.5312 -0.228802 -1.9315 0
M  V30 44 O 3.7862 0.780242 -1.79473 0
M  V30 45 C 4.0852 -2.63956 -2.40961 0
M  V30 46 C 3.7512 -4.0662 -1.94861 0
M  V30 47 C 2.4132 -4.45452 -1.82006 0
M  V30 48 C 4.7652 -4.96055 -1.59933 0
M  V30 49 C 2.0932 -5.71531 -1.32547 0
M  V30 50 C 4.4452 -6.22617 -1.11939 0
M  V30 51 C 3.1092 -6.60312 -0.976951 0
M  V30 52 H 2.3792 -0.570129 -0.473322 0
M  V30 53 H 5.0262 -1.81845 -0.600372 0
M  V30 54 H 3.3312 -2.31747 -3.15912 0
M  V30 55 H 5.0282 -2.67089 -2.99107 0
M  V30 56 H 1.6182 -3.75949 -2.05815 0
M  V30 57 H 5.8022 -4.66738 -1.68728 0
M  V30 58 H 1.0582 -5.99468 -1.202 0
M  V30 59 H 5.2322 -6.91318 -0.839811 0
M  V30 60 H 2.8592 -7.57895 -0.591501 0
M  V30 61 N 4.4343 0.785586 -1.36625 0
M  V30 62 C 5.3643 1.91259 -1.33949 0
M  V30 63 C 6.3453 1.68795 -0.210325 0
M  V30 64 O 7.5303 1.89854 -0.408561 0
M  V30 65 C 4.6603 3.28339 -1.13186 0
M  V30 66 C 3.6143 3.65335 -2.22967 0
M  V30 67 C 2.9403 5.00806 -1.87342 0
M  V30 68 C 4.2403 3.7352 -3.65075 0
M  V30 69 H 5.9343 1.93755 -2.28253 0
M  V30 70 H 3.4803 0.930788 -1.09874 0
M  V30 71 H 5.4333 4.06804 -1.09948 0
M  V30 72 H 4.1573 3.2624 -0.153332 0
M  V30 73 H 2.8163 2.89169 -2.25337 0
M  V30 74 H 2.4643 4.95233 -0.880545 0
M  V30 75 H 2.1643 5.26529 -2.60846 0
M  V30 76 H 3.6883 5.81687 -1.85667 0
M  V30 77 H 5.1023 4.42168 -3.64911 0
M  V30 78 H 3.4993 4.10731 -4.37516 0
M  V30 79 H 4.5693 2.74527 -3.99703 0
M  V30 80 N 5.9124 1.20967 1.01018 0
M  V30 81 C 7.1894 0.93264 1.71934 0
M  V30 82 C 7.5694 -0.55692 2.03621 0
M  V30 83 O 6.9174 -1.52035 1.7058 0
M  V30 84 C 7.1274 1.81233 2.98254 0
M  V30 85 C 8.4754 2.05804 3.71389 0
M  V30 86 O 9.4994 1.78539 3.08225 0
M  V30 87 O 8.3584 2.51888 4.84989 0
M  V30 88 H 5.4524 0.349272 0.749625 0
M  V30 89 H 7.9984 1.31871 1.06808 0
M  V30 90 H 6.7704 2.82067 2.71208 0
M  V30 91 H 6.3934 1.42674 3.7112 0
M  V30 92 N 7.3905 -1.2043 1.01659 0
M  V30 93 C 8.3225 -2.22626 0.544988 0
M  V30 94 C 9.3355 -1.58479 -0.372609 0
M  V30 95 O 10.5245 -1.77679 -0.170958 0
M  V30 96 C 7.6245 -3.38141 -0.22663 0
M  V30 97 C 6.7975 -4.31877 0.692876 0
M  V30 98 C 5.8565 -5.26191 -0.0311616 0
M  V30 99 O 4.8825 -5.6612 0.591343 0
M  V30 100 N 6.0845 -5.65618 -1.30601 0
M  V30 101 H 8.8495 -2.63716 1.42388 0
M  V30 102 H 6.4105 -1.34971 0.894116 0
M  V30 103 H 8.4025 -3.98239 -0.72024 0
M  V30 104 H 6.9725 -2.95943 -1.00681 0
M  V30 105 H 6.1925 -3.69746 1.36679 0
M  V30 106 H 7.4805 -4.91426 1.31824 0
M  V30 107 H 6.8785 -5.3519 -1.83269 0
M  V30 108 H 5.4355 -6.28025 -1.74435 0
M  V30 109 N 8.8686 -0.792821 -1.36206 0
M  V30 110 C 9.7786 -0.194808 -2.3379 0
M  V30 111 C 10.7946 0.654869 -1.61206 0
M  V30 112 O 11.9706 0.569856 -1.9317 0
M  V30 113 C 9.0356 0.657721 -3.40404 0
M  V30 114 C 8.0966 -0.210849 -4.28782 0
M  V30 115 C 7.3296 0.601086 -5.30304 0
M  V30 116 O 7.5526 1.83682 -5.40016 0
M  V30 117 O 6.4866 -0.000808277 -6.019 0
M  V30 118 H 10.3126 -1.00172 -2.86704 0
M  V30 119 H 7.8976 -0.554341 -1.38735 0
M  V30 120 H 9.7796 1.14375 -4.05581 0
M  V30 121 H 8.4546 1.44247 -2.89784 0
M  V30 122 H 7.3616 -0.743714 -3.66633 0
M  V30 123 H 8.6946 -0.959195 -4.82763 0
M  V30 124 N 10.3467 1.47872 -0.545128 0
M  V30 125 C 11.2937 2.29849 0.2093 0
M  V30 126 C 12.2637 1.38313 0.919707 0
M  V30 127 O 13.4487 1.67277 0.917772 0
M  V30 128 C 10.5887 3.22019 1.24088 0
M  V30 129 C 9.7017 4.2864 0.537778 0
M  V30 130 C 8.8367 5.07973 1.5536 0
M  V30 131 C 7.8757 6.06381 0.8348 0
M  V30 132 N 7.0127 6.78717 1.79688 0
M  V30 133 H 11.8527 2.93845 -0.49591 0
M  V30 134 H 9.3897 1.44848 -0.256389 0
M  V30 135 H 11.3477 3.73868 1.85144 0
M  V30 136 H 9.9777 2.59914 1.91428 0
M  V30 137 H 9.0297 3.7994 -0.187046 0
M  V30 138 H 10.3417 4.98793 -0.0258907 0
M  V30 139 H 9.4957 5.63912 2.23803 0
M  V30 140 H 8.2347 4.37693 2.15118 0
M  V30 141 H 7.2397 5.49631 0.136388 0
M  V30 142 H 8.4647 6.78665 0.24313 0
M  V30 143 H 6.4107 6.11177 2.38326 0
M  V30 144 H 6.3277 7.44998 1.28505 0
M  V30 145 H 7.5957 7.39237 2.47282 0
M  V30 146 N 11.8248 0.280983 1.55075 0
M  V30 147 C 13.2408 -0.0729964 1.59433 0
M  V30 148 C 13.4408 -1.5411 1.29817 0
M  V30 149 O 12.4968 -2.29086 1.06187 0
M  V30 150 C 13.8098 0.306921 2.9913 0
M  V30 151 C 15.3578 0.254023 3.11968 0
M  V30 152 C 15.8328 0.608467 4.5394 0
M  V30 153 N 17.3238 0.560241 4.59799 0
M  V30 154 C 18.0588 0.80722 5.6769 0
M  V30 155 N 17.5548 1.11912 6.83701 0
M  V30 156 N 19.3478 0.735623 5.57266 0
M  V30 157 H 11.4988 1.238 1.7259 0
M  V30 158 H 13.7618 0.500547 0.805082 0
M  V30 159 H 13.4678 1.32816 3.25657 0
M  V30 160 H 13.3418 -0.349363 3.75579 0
M  V30 161 H 15.7288 -0.75794 2.852 0
M  V30 162 H 15.8098 0.944649 2.37718 0
M  V30 163 H 15.4538 1.61814 4.81434 0
M  V30 164 H 15.3838 -0.104013 5.26497 0
M  V30 165 H 17.8748 0.329288 3.76463 0
M  V30 166 H 18.1878 1.29409 7.61888 0
M  V30 167 H 16.5328 1.15695 6.85303 0
M  V30 168 H 19.7238 0.491752 4.6551 0
M  V30 169 H 19.8968 0.931482 6.4127 0
M  V30 170 N 13.3029 -1.57598 0.00835791 0
M  V30 171 C 14.7189 -1.55764 -0.347822 0
M  V30 172 C 14.9189 -1.01186 -1.74252 0
M  V30 173 O 13.9749 -0.649371 -2.44007 0
M  V30 174 C 15.2879 -2.99927 -0.215407 0
M  V30 175 C 16.8359 -3.11656 -0.289725 0
M  V30 176 C 17.3109 -4.57621 -0.18634 0
M  V30 177 N 18.8019 -4.62557 -0.243978 0
M  V30 178 C 19.5369 -5.73094 -0.18745 0
M  V30 179 N 19.0329 -6.92753 -0.0810331 0
M  V30 180 N 20.8259 -5.61588 -0.239925 0
M  V30 181 H 12.9769 -1.91411 0.92062 0
M  V30 182 H 15.2399 -0.879562 0.353659 0
M  V30 183 H 14.9459 -3.43729 0.744512 0
M  V30 184 H 14.8199 -3.63865 -0.994097 0
M  V30 185 H 17.2069 -2.67779 -1.24009 0
M  V30 186 H 17.2879 -2.5048 0.51898 0
M  V30 187 H 16.9319 -5.02174 0.760519 0
M  V30 188 H 16.8619 -5.16752 -1.01364 0
M  V30 189 H 19.3529 -3.76481 -0.327217 0
M  V30 190 H 19.6659 -7.72787 -0.0440241 0
M  V30 191 H 18.0109 -6.94984 -0.0465419 0
M  V30 192 H 21.2019 -4.66996 -0.321317 0
M  V30 193 H 21.3749 -6.47714 -0.192407 0
M  V30 194 N 14.781 0.264519 -1.55364 0
M  V30 195 C 15.713 1.34965 -1.85248 0
M  V30 196 C 16.726 1.45136 -0.737525 0
M  V30 197 O 17.915 1.46801 -1.01547 0
M  V30 198 C 15.015 2.73008 -2.00797 0
M  V30 199 C 14.188 2.85324 -3.31525 0
M  V30 200 C 13.247 4.04097 -3.37034 0
M  V30 201 O 12.273 3.94455 -4.10358 0
M  V30 202 N 13.475 5.16458 -2.65049 0
M  V30 203 H 16.24 1.09672 -2.78913 0
M  V30 204 H 13.801 0.454635 -1.55386 0
M  V30 205 H 15.793 3.50772 -2.01844 0
M  V30 206 H 14.363 2.91087 -1.1396 0
M  V30 207 H 13.583 1.94377 -3.42945 0
M  V30 208 H 14.871 2.9049 -4.17724 0
M  V30 209 H 14.269 5.27181 -2.05175 0
M  V30 210 H 12.826 5.92422 -2.71809 0
M  V30 211 N 16.2591 1.48442 0.529413 0
M  V30 212 C 17.1891 1.65902 1.64313 0
M  V30 213 C 18.1701 0.507897 1.6234 0
M  V30 214 O 19.3551 0.740503 1.79528 0
M  V30 215 C 16.4851 1.69911 3.02898 0
M  V30 216 C 15.4391 2.8453 3.19729 0
M  V30 217 C 14.7651 2.73629 4.59381 0
M  V30 218 C 16.0651 4.25821 3.02447 0
M  V30 219 H 17.7591 2.5914 1.49955 0
M  V30 220 H 15.3051 1.24709 0.719982 0
M  V30 221 H 17.2581 1.80715 3.80684 0
M  V30 222 H 15.9821 0.732524 3.18279 0
M  V30 223 H 14.6411 2.73283 2.44361 0
M  V30 224 H 14.2891 1.74938 4.71599 0
M  V30 225 H 13.9891 3.50541 4.71588 0
M  V30 226 H 15.5131 2.86401 5.39265 0
M  V30 227 H 16.9271 4.37898 3.70024 0
M  V30 228 H 15.3241 5.03735 3.26146 0
M  V30 229 H 16.3941 4.42244 1.98867 0
M  V30 230 N 17.7372 -0.778329 1.37039 0
M  V30 231 C 18.6672 -1.90546 1.34962 0
M  V30 232 C 19.6482 -1.68681 0.219274 0
M  V30 233 O 20.8332 -1.89634 0.418624 0
M  V30 234 C 17.9632 -3.27734 1.14925 0
M  V30 235 C 16.9172 -3.64147 2.24902 0
M  V30 236 C 16.2432 -4.99806 1.89996 0
M  V30 237 C 17.5432 -3.71579 3.67051 0
M  V30 238 H 19.2372 -1.92541 2.29277 0
M  V30 239 H 16.7832 -0.924948 1.10366 0
M  V30 240 H 18.7362 -4.06215 1.12104 0
M  V30 241 H 17.4602 -3.26154 0.170631 0
M  V30 242 H 16.1192 -2.8797 2.26868 0
M  V30 243 H 15.7672 -4.94759 0.906796 0
M  V30 244 H 15.4672 -5.25139 2.63634 0
M  V30 245 H 16.9912 -5.80694 1.88749 0
M  V30 246 H 18.4052 -4.40227 3.67251 0
M  V30 247 H 16.8022 -4.08405 4.39688 0
M  V30 248 H 17.8722 -2.72404 4.01154 0
M  V30 249 N 19.2153 -1.21501 -1.00376 0
M  V30 250 C 20.1633 -0.972442 -2.11297 0
M  V30 251 C 21.1573 0.080731 -1.69208 0
M  V30 252 O 22.3633 -0.0707666 -1.79861 0
M  V30 253 H 18.7383 -0.297218 -0.690772 0
M  V30 254 H 20.7093 -1.91394 -2.28934 0
M  V30 255 C 19.4583 -0.555065 -3.43241 0
M  V30 256 H 18.7813 -1.35709 -3.76062 0
M  V30 257 H 20.2213 -0.424664 -4.21868 0
M  V30 258 C 18.6803 0.734147 -3.28804 0
M  V30 259 O 19.2103 1.78937 -3.59645 0
M  V30 260 N 17.4163 0.701133 -2.82015 0
M  V30 261 H 16.9633 -0.157874 -2.57116 0
M  V30 262 H 16.9213 1.56403 -2.72737 0
M  V30 263 N 20.6934 1.19889 -1.02296 0
M  V30 264 C 21.6034 2.26571 -0.608508 0
M  V30 265 C 22.6194 1.70299 0.356964 0
M  V30 266 O 23.7954 2.00235 0.216326 0
M  V30 267 C 20.8604 3.46677 0.0402814 0
M  V30 268 C 19.9214 4.18153 -0.97194 0
M  V30 269 C 19.1544 5.32525 -0.354016 0
M  V30 270 O 19.3774 5.64112 0.844604 0
M  V30 271 O 18.3114 5.92242 -1.07391 0
M  V30 272 H 22.1374 2.64251 -1.49684 0
M  V30 273 H 19.7224 1.26629 -0.792809 0
M  V30 274 H 21.6044 4.19475 0.402324 0
M  V30 275 H 20.2794 3.10858 0.902707 0
M  V30 276 H 19.1864 3.47499 -1.38546 0
M  V30 277 H 20.5194 4.57927 -1.80454 0
M  V30 278 N 22.1715 0.800033 1.35784 0
M  V30 279 C 23.5875 0.482977 1.52117 0
M  V30 280 C 23.7875 -0.996948 1.75109 0
M  V30 281 O 22.8435 -1.78216 1.78872 0
M  V30 282 C 24.1565 1.32264 2.70049 0
M  V30 283 C 25.7045 1.31742 2.83924 0
M  V30 284 C 26.1795 2.14106 4.04874 0
M  V30 285 N 27.6705 2.11607 4.12039 0
M  V30 286 C 28.4055 2.72099 5.04727 0
M  V30 287 N 27.9015 3.41492 6.02789 0
M  V30 288 N 29.6945 2.61776 4.97423 0
M  V30 289 H 21.8455 1.75856 1.19115 0
M  V30 290 H 24.1085 0.748122 0.582252 0
M  V30 291 H 23.8145 2.37261 2.59616 0
M  V30 292 H 23.6885 0.971303 3.6448 0
M  V30 293 H 26.0755 0.275333 2.93813 0
M  V30 294 H 26.1565 1.70859 1.9037 0
M  V30 295 H 25.8005 3.18351 3.95746 0
M  V30 296 H 25.7305 1.72353 4.97596 0
M  V30 297 H 28.2215 1.61112 3.41835 0
M  V30 298 H 28.5345 3.84953 6.70098 0
M  V30 299 H 26.8795 3.45596 6.02983 0
M  V30 300 H 30.0705 2.07157 4.19766 0
M  V30 301 H 30.2435 3.0921 5.69468 0
M  V30 302 N 23.6496 -1.47581 0.552962 0
M  V30 303 C 24.5996 -2.26961 -0.217423 0
M  V30 304 C 25.5836 -1.34099 -0.889168 0
M  V30 305 O 26.7756 -1.58483 -0.788176 0
M  V30 306 C 23.9046 -3.19756 -1.24944 0
M  V30 307 C 22.9906 -4.20097 -0.581327 0
M  V30 308 N 23.3816 -5.04614 0.346171 0
M  V30 309 C 21.6796 -4.38099 -0.835767 0
M  V30 310 C 22.3806 -5.77052 0.733854 0
M  V30 311 N 21.3566 -5.43526 0.0896567 0
M  V30 312 H 25.1586 -2.89688 0.495761 0
M  V30 313 H 22.6726 -1.58068 0.372597 0
M  V30 314 H 24.6696 -3.75305 -1.81527 0
M  V30 315 H 23.3296 -2.58585 -1.96376 0
M  V30 316 H 24.3406 -5.12869 0.720098 0
M  V30 317 H 21.0176 -3.88102 -1.53892 0
M  V30 318 H 22.4076 -6.5504 1.49574 0
M  V30 319 N 25.1277 -0.289203 -1.54924 0
M  V30 320 C 26.3527 0.329299 -2.04769 0
M  V30 321 C 26.7777 1.4763 -1.16564 0
M  V30 322 O 26.1357 1.80527 -0.167186 0
M  V30 323 C 26.1837 0.774438 -3.52186 0
M  V30 324 O 25.2877 1.88038 -3.67036 0
M  V30 325 H 24.6287 0.0659259 -0.660719 0
M  V30 326 H 27.1587 -0.42761 -2.00082 0
M  V30 327 H 27.1687 1.06642 -3.93816 0
M  V30 328 H 25.8437 -0.0646707 -4.1585 0
M  V30 329 H 24.4207 1.58985 -3.3731 0
M  V30 330 N 26.6058 1.57591 -0.0167156 0
M  V30 331 C 27.8458 1.93145 0.668902 0
M  V30 332 C 28.2098 0.892406 1.7 0
M  V30 333 O 29.4108 1.13373 2.43721 0
M  V30 334 C 27.6818 3.33678 1.28039 0
M  V30 335 S 29.2408 3.91142 1.9888 0
M  V30 336 H 26.0588 0.67593 0.220545 0
M  V30 337 H 28.6608 1.95347 -0.0774105 0
M  V30 338 H 27.3648 4.07126 0.517339 0
M  V30 339 H 26.8958 3.3489 2.06427 0
M  V30 340 H 28.9108 3.73571 3.26587 0
M  V30 341 N 28.0839 -0.256276 1.55502 0
M  V30 342 C 29.0309 -1.31714 1.89526 0
M  V30 343 C 30.0009 -1.4828 0.748479 0
M  V30 344 O 31.1859 -1.62416 1.00128 0
M  V30 345 C 28.3259 -2.66933 2.18725 0
M  V30 346 C 27.4389 -2.58452 3.4616 0
M  V30 347 C 26.5739 -3.85961 3.64976 0
M  V30 348 C 25.6129 -3.72059 4.86044 0
M  V30 349 N 24.7499 -4.9144 5.01429 0
M  V30 350 H 29.5899 -1.01998 2.80001 0
M  V30 351 H 27.1269 -0.492413 1.38613 0
M  V30 352 H 29.0849 -3.4563 2.33657 0
M  V30 353 H 27.7149 -2.94816 1.31466 0
M  V30 354 H 26.7669 -1.71374 3.3961 0
M  V30 355 H 28.0789 -2.44085 4.34999 0
M  V30 356 H 27.2329 -4.73101 3.79816 0
M  V30 357 H 25.9719 -4.03215 2.74353 0
M  V30 358 H 24.9769 -2.83302 4.7119 0
M  V30 359 H 26.2019 -3.56309 5.78118 0
M  V30 360 H 24.1479 -5.09072 4.13741 0
M  V30 361 H 24.0649 -4.79668 5.84341 0
M  V30 362 H 25.3329 -5.80104 5.20672 0
M  V30 363 N 29.562 -1.4872 -0.521534 0
M  V30 364 C 30.495 -1.58451 -1.64221 0
M  V30 365 C 31.473 -0.434513 -1.56687 0
M  V30 366 O 32.657 -0.647275 -1.77038 0
M  V30 367 C 29.784 -1.52037 -3.02659 0
M  V30 368 C 28.83 -2.71981 -3.28525 0
M  V30 369 S 29.663 -4.33869 -3.13876 0
M  V30 370 C 30.819 -4.30067 -4.54745 0
M  V30 371 H 31.052 -2.53256 -1.55719 0
M  V30 372 H 28.585 -1.37358 -0.705143 0
M  V30 373 H 30.543 -1.49023 -3.82495 0
M  V30 374 H 29.204 -0.585541 -3.08594 0
M  V30 375 H 28.397 -2.63656 -4.29536 0
M  V30 376 H 27.999 -2.72302 -2.56374 0
M  V30 377 H 30.291 -4.00521 -5.46433 0
M  V30 378 H 31.234 -5.31287 -4.68123 0
M  V30 379 H 31.642 -3.60419 -4.34463 0
M  V30 380 N 31.0401 0.771051 -1.3745 0
M  V30 381 C 32.2871 1.52963 -1.32697 0
M  V30 382 C 32.6151 1.94299 0.0883274 0
M  V30 383 O 31.8701 1.64397 1.0617 0
M  V30 384 C 32.1691 2.80676 -2.2126 0
M  V30 385 C 31.8351 2.58389 -3.69521 0
M  V30 386 C 30.4971 2.52019 -4.09927 0
M  V30 387 C 32.8491 2.38469 -4.63446 0
M  V30 388 C 30.1771 2.23721 -5.42371 0
M  V30 389 C 32.5291 2.11694 -5.96128 0
M  V30 390 C 31.1931 2.03769 -6.35637 0
M  V30 391 H 30.4631 0.559732 -0.485573 0
M  V30 392 H 33.1101 0.888083 -1.69662 0
M  V30 393 H 31.4151 3.49392 -1.77291 0
M  V30 394 H 33.1121 3.38557 -2.14895 0
M  V30 395 H 29.7021 2.6421 -3.37478 0
M  V30 396 H 33.8861 2.4238 -4.33089 0
M  V30 397 H 29.1421 2.16081 -5.71943 0
M  V30 398 H 33.3161 1.9528 -6.6846 0
M  V30 399 H 30.9431 1.81606 -7.38189 0
M  V30 400 N 32.5182 1.22032 0.997298 0
M  V30 401 C 33.7952 0.950823 1.70935 0
M  V30 402 C 34.1752 -0.535292 2.042 0
M  V30 403 O 33.5232 -1.50217 1.72183 0
M  V30 404 C 33.7332 1.84386 2.96315 0
M  V30 405 C 35.0812 2.09732 3.69185 0
M  V30 406 O 36.1052 1.81798 3.06314 0
M  V30 407 O 34.9642 2.57018 4.82291 0
M  V30 408 H 32.0582 0.357204 0.745878 0
M  V30 409 H 34.6042 1.32997 1.05404 0
M  V30 410 H 33.3762 2.84928 2.68201 0
M  V30 411 H 32.9992 1.46602 3.69586 0
M  V30 412 N 33.9963 -1.19345 1.0293 0
M  V30 413 C 35.2213 -1.93538 0.745511 0
M  V30 414 C 35.6463 -1.75007 -0.689511 0
M  V30 415 O 35.0043 -1.05265 -1.47611 0
M  V30 416 C 35.0523 -3.43336 1.10239 0
M  V30 417 O 34.1563 -4.11806 0.221289 0
M  V30 418 H 33.4973 -0.604193 0.275404 0
M  V30 419 H 36.0273 -1.5141 1.37609 0
M  V30 420 H 36.0373 -3.94004 1.05947 0
M  V30 421 H 34.7123 -3.56146 2.14786 0
M  V30 422 H 33.2893 -3.715 0.322842 0
M  V30 423 N 35.4744 -0.807222 -1.35358 0
M  V30 424 C 36.4244 -0.190706 -2.27201 0
M  V30 425 C 37.4084 0.635838 -1.47804 0
M  V30 426 O 38.6004 0.492991 -1.69996 0
M  V30 427 C 35.7294 0.659337 -3.36909 0
M  V30 428 C 34.8154 -0.176971 -4.23731 0
M  V30 429 N 35.2064 -1.24029 -4.90357 0
M  V30 430 C 33.5044 0.0412953 -4.45981 0
M  V30 431 C 34.2054 -1.75092 -5.54723 0
M  V30 432 N 33.1814 -1.05727 -5.33219 0
M  V30 433 H 36.9834 -1.0043 -2.76208 0
M  V30 434 H 34.4974 -0.648445 -1.48892 0
M  V30 435 H 36.4944 1.11706 -4.01656 0
M  V30 436 H 35.1544 1.47127 -2.89454 0
M  V30 437 H 36.1654 -1.62295 -4.91814 0
M  V30 438 H 32.8424 0.82232 -4.09322 0
M  V30 439 H 34.2324 -2.63963 -6.17878 0
M  V30 440 N 36.9525 1.47285 -0.560781 0
M  V30 441 C 38.1825 2.06555 -0.0429638 0
M  V30 442 C 38.5905 1.41339 1.25777 0
M  V30 443 O 37.9335 0.505182 1.76617 0
M  V30 444 C 37.9955 3.58827 0.219887 0
M  V30 445 C 37.6595 4.46105 -0.991944 0
M  V30 446 C 38.6565 4.84 -1.89843 0
M  V30 447 C 36.3415 4.87567 -1.20762 0
M  V30 448 C 38.3355 5.6216 -3.00425 0
M  V30 449 C 36.0225 5.65491 -2.31653 0
M  V30 450 C 37.0205 6.02699 -3.21315 0
M  V30 451 O 36.7085 6.79052 -4.30283 0
M  V30 452 H 36.4405 0.674537 -0.0444468 0
M  V30 453 H 38.9945 1.90225 -0.774818 0
M  V30 454 H 37.2245 3.73383 1.00609 0
M  V30 455 H 38.9135 4.00103 0.683522 0
M  V30 456 H 39.6795 4.52564 -1.74387 0
M  V30 457 H 35.5585 4.5807 -0.518893 0
M  V30 458 H 39.1025 5.9112 -3.70436 0
M  V30 459 H 34.9995 5.9634 -2.47081 0
M  V30 460 H 35.7675 6.9745 -4.28376 0
M  V30 461 N 38.4306 0.297415 1.54768 0
M  V30 462 C 39.3406 -0.58983 2.27064 0
M  V30 463 C 40.3566 -1.15144 1.30453 0
M  V30 464 O 41.5326 -1.17699 1.63428 0
M  V30 465 C 38.5976 -1.74714 2.9946 0
M  V30 466 C 37.6586 -1.21997 4.11601 0
M  V30 467 C 36.8916 -2.32212 4.80535 0
M  V30 468 O 37.1146 -3.52036 4.48806 0
M  V30 469 O 36.0486 -1.99106 5.68014 0
M  V30 470 H 39.8746 -0.00348199 3.037 0
M  V30 471 H 37.4596 0.0640035 1.49263 0
M  V30 472 H 39.3416 -2.42147 3.44881 0
M  V30 473 H 38.0166 -2.32016 2.25722 0
M  V30 474 H 36.9236 -0.511458 3.70587 0
M  V30 475 H 38.2566 -0.692419 4.87305 0
M  V30 476 N 39.9087 -1.5758 0.0250728 0
M  V30 477 C 41.1557 -1.91633 -0.654444 0
M  V30 478 C 41.4837 -0.901103 -1.72367 0
M  V30 479 O 40.7387 0.0905647 -1.9549 0
M  V30 480 C 41.0377 -3.32421 -1.31268 0
M  V30 481 C 40.7037 -4.49344 -0.374223 0
M  V30 482 C 39.3657 -4.8106 -0.115911 0
M  V30 483 C 41.7177 -5.20498 0.270432 0
M  V30 484 C 39.0457 -5.8129 0.79493 0
M  V30 485 C 41.3977 -6.21699 1.1693 0
M  V30 486 C 40.0617 -6.51859 1.43655 0
M  V30 487 H 39.3317 -0.701236 -0.239478 0
M  V30 488 H 41.9787 -1.91307 0.0859734 0
M  V30 489 H 40.2837 -3.28989 -2.12775 0
M  V30 490 H 41.9807 -3.56038 -1.84494 0
M  V30 491 H 38.5707 -4.24579 -0.58573 0
M  V30 492 H 42.7547 -4.96229 0.0839194 0
M  V30 493 H 38.0107 -6.03005 1.00973 0
M  V30 494 H 42.1847 -6.75955 1.67504 0
M  V30 495 H 39.8117 -7.2934 2.144 0
M  V30 496 N 41.3868 0.248026 -1.55636 0
M  V30 497 C 42.6118 0.998028 -1.81808 0
M  V30 498 C 43.0368 1.78207 -0.601979 0
M  V30 499 O 42.3948 1.75653 0.448961 0
M  V30 500 C 42.4428 1.9125 -3.05705 0
M  V30 501 O 41.5468 3.00406 -2.82542 0
M  V30 502 H 40.8878 0.284045 -0.600179 0
M  V30 503 H 43.4178 0.269357 -2.02819 0
M  V30 504 H 43.4278 2.32737 -3.35108 0
M  V30 505 H 42.1028 1.33602 -3.93857 0
M  V30 506 H 40.6798 2.63056 -2.64303 0
M  V30 507 N 42.8649 1.48995 0.513639 0
M  V30 508 C 44.0899 1.61792 1.29762 0
M  V30 509 C 44.5149 0.284475 1.85936 0
M  V30 510 O 43.8729 -0.746185 1.65232 0
M  V30 511 C 43.9209 2.67993 2.41272 0
M  V30 512 O 43.0249 2.26287 3.44772 0
M  V30 513 H 42.3659 0.541963 0.38363 0
M  V30 514 H 44.8959 1.95097 0.616307 0
M  V30 515 H 44.9059 2.89772 2.87221 0
M  V30 516 H 43.5809 3.64791 1.9975 0
M  V30 517 H 42.1579 2.14788 3.04829 0
M  V30 518 N 44.343 -0.763751 1.37857 0
M  V30 519 C 45.571 -1.55293 1.36718 0
M  V30 520 C 45.986 -1.88745 -0.0455434 0
M  V30 521 O 45.343 -1.52039 -1.00947 0
M  V30 522 C 45.394 -2.85831 2.2132 0
M  V30 523 O 45.115 -2.5381 3.57089 0
M  V30 524 C 46.616 -3.80023 2.28249 0
M  V30 525 H 43.836 -0.480841 0.468009 0
M  V30 526 H 46.38 -0.946009 1.81303 0
M  V30 527 H 44.535 -3.42926 1.80223 0
M  V30 528 H 44.949 -3.37459 4.01524 0
M  V30 529 H 46.423 -4.68599 2.91752 0
M  V30 530 H 46.9 -4.1973 1.2932 0
M  V30 531 H 47.506 -3.28855 2.69693 0
M  V30 532 N 45.8211 -1.22559 -0.990812 0
M  V30 533 C 46.7311 -1.01394 -2.11557 0
M  V30 534 C 47.7471 0.0383962 -1.73958 0
M  V30 535 O 48.9231 -0.154787 -2.00804 0
M  V30 536 C 45.9881 -0.596569 -3.41529 0
M  V30 537 C 45.0491 -1.72276 -3.93217 0
M  V30 538 C 44.2821 -1.32521 -5.16985 0
M  V30 539 O 44.5051 -0.204909 -5.70032 0
M  V30 540 O 43.4391 -2.14247 -5.62478 0
M  V30 541 H 47.2651 -1.95633 -2.32296 0
M  V30 542 H 44.8501 -1.01172 -1.0993 0
M  V30 543 H 46.7321 -0.374263 -4.19735 0
M  V30 544 H 45.4071 0.316939 -3.22145 0
M  V30 545 H 44.3141 -1.99961 -3.16174 0
M  V30 546 H 45.6471 -2.61421 -4.17037 0
M  V30 547 N 47.2992 1.18797 -1.03562 0
M  V30 548 C 48.2292 2.24472 -0.643019 0
M  V30 549 C 49.2102 1.66433 0.351283 0
M  V30 550 O 50.3952 1.92803 0.232505 0
M  V30 551 C 47.5252 3.473 4.24935e-05 0
M  V30 552 C 46.4792 4.18055 -0.917257 0
M  V30 553 C 45.8052 5.34519 -0.138941 0
M  V30 554 C 47.1052 4.72109 -2.23407 0
M  V30 555 H 48.7992 2.57566 -1.52643 0
M  V30 556 H 46.3452 1.23806 -0.735394 0
M  V30 557 H 48.2982 4.20426 0.286383 0
M  V30 558 H 47.0222 3.13424 0.918299 0
M  V30 559 H 45.6812 3.46821 -1.1879 0
M  V30 560 H 45.3292 4.96891 0.781562 0
M  V30 561 H 45.0292 5.82794 -0.750005 0
M  V30 562 H 46.5532 6.10438 0.1405 0
M  V30 563 H 47.9672 5.36955 -2.00879 0
M  V30 564 H 46.3642 5.30897 -2.79765 0
M  V30 565 H 47.4342 3.89807 -2.88407 0
M  V30 566 N 48.7773 0.814389 1.34928 0
M  V30 567 C 49.6873 0.231978 2.3345 0
M  V30 568 C 50.7033 -0.629139 1.62228 0
M  V30 569 O 51.8793 -0.539052 1.94052 0
M  V30 570 C 48.9443 -0.603482 3.41407 0
M  V30 571 C 48.0053 0.279037 4.28392 0
M  V30 572 C 47.2383 -0.516643 5.31193 0
M  V30 573 O 47.4613 -1.75068 5.4287 0
M  V30 574 O 46.3953 0.0965652 6.01823 0
M  V30 575 H 50.2213 1.04721 2.85074 0
M  V30 576 H 47.8063 0.576343 1.37836 0
M  V30 577 H 49.6883 -1.07908 4.0735 0
M  V30 578 H 48.3633 -1.39618 2.92042 0
M  V30 579 H 47.2703 0.801948 3.65403 0
M  V30 580 H 48.6033 1.03588 4.81176 0
M  V30 581 N 50.2554 -1.46986 0.568584 0
M  V30 582 C 51.1654 -2.33942 -0.17555 0
M  V30 583 C 52.1814 -1.48891 -0.90041 0
M  V30 584 O 53.3574 -1.81794 -0.86676 0
M  V30 585 C 50.4224 -3.25811 -1.18524 0
M  V30 586 C 49.4834 -4.26757 -0.466582 0
M  V30 587 C 48.7164 -5.14236 -1.42817 0
M  V30 588 O 48.9394 -5.04379 -2.66379 0
M  V30 589 O 47.8734 -5.94412 -0.946453 0
M  V30 590 H 51.6994 -2.98896 0.538036 0
M  V30 591 H 49.2844 -1.4573 0.329097 0
M  V30 592 H 51.1664 -3.82527 -1.76779 0
M  V30 593 H 49.8414 -2.63471 -1.88055 0
M  V30 594 H 48.7484 -3.73769 0.157451 0
M  V30 595 H 50.0814 -4.91843 0.187485 0
M  V30 596 N 51.7335 -0.305618 -1.54608 0
M  V30 597 C 52.9825 0.303098 -1.9941 0
M  V30 598 C 53.2955 1.54648 -1.19764 0
M  V30 599 O 54.5015 2.23007 -1.54855 0
M  V30 600 C 52.9575 0.590588 -3.55021 0
M  V30 601 C 52.5655 -0.634719 -4.43481 0
M  V30 602 C 54.3095 1.16025 -4.08336 0
M  V30 603 C 52.2165 -0.320126 -5.90533 0
M  V30 604 H 51.1465 0.117031 -0.744862 0
M  V30 605 H 53.7975 -0.415045 -1.78745 0
M  V30 606 H 52.1795 1.36845 -3.71604 0
M  V30 607 H 53.3535 -1.41079 -4.38672 0
M  V30 608 H 51.6685 -1.12333 -4.00962 0
M  V30 609 H 54.2655 1.40994 -5.15776 0
M  V30 610 H 54.6085 2.10397 -3.5922 0
M  V30 611 H 55.1415 0.443985 -3.95315 0
M  V30 612 H 51.8805 -1.23254 -6.43808 0
M  V30 613 H 51.4005 0.418579 -5.98338 0
M  V30 614 H 53.0795 0.0766241 -6.46955 0
M  V30 615 N 53.2116 1.57565 -0.0334293 0
M  V30 616 C 54.1746 2.09393 0.932048 0
M  V30 617 C 55.1746 1.00986 1.25134 0
M  V30 618 O 56.3646 1.27129 1.19096 0
M  V30 619 C 53.4966 2.56338 2.2473 0
M  V30 620 H 54.6896 2.95984 0.483085 0
M  V30 621 H 52.2426 1.54819 0.21468 0
M  V30 622 H 52.9776 1.7309 2.74245 0
M  V30 623 H 52.7626 3.35542 2.02865 0
M  V30 624 H 54.2526 2.96646 2.93923 0
M  V30 625 N 54.6897 -0.239769 1.55765 0
M  V30 626 C 55.5997 -1.31831 1.94056 0
M  V30 627 C 56.6157 -1.52275 0.841925 0
M  V30 628 O 57.7917 -1.65759 1.14394 0
M  V30 629 C 54.8567 -2.65156 2.23368 0
M  V30 630 C 53.9177 -2.53173 3.46701 0
M  V30 631 C 53.1507 -3.8014 3.74606 0
M  V30 632 O 53.3737 -4.82343 3.04469 0
M  V30 633 O 52.3077 -3.78344 4.68123 0
M  V30 634 H 56.1337 -1.02347 2.85935 0
M  V30 635 H 53.7187 -0.441123 1.42739 0
M  V30 636 H 55.6007 -3.43929 2.43497 0
M  V30 637 H 54.2757 -2.94358 1.34666 0
M  V30 638 H 53.1827 -1.72662 3.31871 0
M  V30 639 H 54.5157 -2.28915 4.35728 0
M  V30 640 N 56.1678 -1.49265 -0.50573 0
M  V30 641 C 57.4168 -1.57761 -1.25675 0
M  V30 642 C 57.7298 -0.267371 -1.93764 0
M  V30 643 O 58.9358 -0.230827 -2.70517 0
M  V30 644 C 57.3918 -2.78332 -2.28165 0
M  V30 645 C 56.9998 -4.16096 -1.66037 0
M  V30 646 C 58.7438 -2.96155 -3.04125 0
M  V30 647 C 56.6508 -5.27895 -2.6661 0
M  V30 648 H 55.5808 -0.587391 -0.472745 0
M  V30 649 H 58.2318 -1.75644 -0.53118 0
M  V30 650 H 56.6138 -2.53934 -3.03865 0
M  V30 651 H 57.7878 -4.50612 -0.963622 0
M  V30 652 H 56.1028 -4.03591 -1.02484 0
M  V30 653 H 58.6998 -3.76849 -3.79327 0
M  V30 654 H 59.0428 -2.06534 -3.61455 0
M  V30 655 H 59.5758 -3.2057 -2.35541 0
M  V30 656 H 56.3148 -6.1956 -2.14068 0
M  V30 657 H 55.8348 -4.97839 -3.34539 0
M  V30 658 H 57.5138 -5.57031 -3.29129 0
M  V30 659 N 57.6459 0.756429 -1.3826 0
M  V30 660 C 58.6089 1.85176 -1.35065 0
M  V30 661 C 59.6089 1.58818 -0.251703 0
M  V30 662 O 60.7989 1.66615 -0.508433 0
M  V30 663 C 57.9309 3.22596 -1.10201 0
M  V30 664 H 59.1239 1.89417 -2.3251 0
M  V30 665 H 56.6769 0.95783 -1.23512 0
M  V30 666 H 57.4119 3.24025 -0.133504 0
M  V30 667 H 57.1969 3.43122 -1.89762 0
M  V30 668 H 58.6869 4.02673 -1.10654 0
M  V30 669 N 59.124 1.23083 0.984299 0
M  V30 670 C 60.54 0.992637 1.24975 0
M  V30 671 C 60.74 -0.308618 1.99123 0
M  V30 672 O 59.796 -1.02905 2.30579 0
M  V30 673 C 61.109 2.19698 2.05312 0
M  V30 674 C 62.657 2.24147 2.18465 0
M  V30 675 C 63.132 3.44157 3.02192 0
M  V30 676 N 64.623 3.44372 3.09777 0
M  V30 677 C 65.358 4.33886 3.74874 0
M  V30 678 N 64.854 5.3363 4.41827 0
M  V30 679 N 66.647 4.21639 3.71721 0
M  V30 680 H 58.798 2.06731 0.487453 0
M  V30 681 H 61.061 0.906339 0.277944 0
M  V30 682 H 60.767 3.1411 1.58201 0
M  V30 683 H 60.641 2.20465 3.06064 0
M  V30 684 H 63.028 1.30277 2.64786 0
M  V30 685 H 63.109 2.27415 1.17115 0
M  V30 686 H 62.753 4.38332 2.56568 0
M  V30 687 H 62.683 3.3813 4.03702 0
M  V30 688 H 65.174 2.72201 2.62135 0
M  V30 689 H 65.487 5.98196 4.89266 0
M  V30 690 H 63.832 5.37534 4.40548 0
M  V30 691 H 67.023 3.42962 3.18582 0
M  V30 692 H 67.196 4.91604 4.22173 0
M  V30 693 N 60.6021 -1.18246 1.0419 0
M  V30 694 C 61.5321 -2.24127 0.654914 0
M  V30 695 C 62.5131 -1.66617 -0.342451 0
M  V30 696 O 63.6981 -1.92924 -0.222277 0
M  V30 697 C 60.8281 -3.47295 0.0183757 0
M  V30 698 C 59.7821 -4.17563 0.939414 0
M  V30 699 C 59.1081 -5.34438 0.167286 0
M  V30 700 C 60.4081 -4.70917 2.25908 0
M  V30 701 H 62.1021 -2.56753 1.54007 0
M  V30 702 H 59.6481 -1.23414 0.74195 0
M  V30 703 H 61.6011 -4.20572 -0.264082 0
M  V30 704 H 60.3251 -3.13907 -0.901664 0
M  V30 705 H 58.9841 -3.46186 1.20628 0
M  V30 706 H 58.6321 -4.97298 -0.7552 0
M  V30 707 H 58.3321 -5.82388 0.780901 0
M  V30 708 H 59.8561 -6.10504 -0.108125 0
M  V30 709 H 61.2701 -5.35882 2.03724 0
M  V30 710 H 59.6671 -5.29406 2.82577 0
M  V30 711 H 60.7371 -3.88272 2.9047 0
M  V30 712 N 62.0802 -0.821533 -1.34494 0
M  V30 713 C 63.3052 -0.420873 -2.03085 0
M  V30 714 C 63.7302 0.964915 -1.61465 0
M  V30 715 O 63.0882 1.62763 -0.798607 0
M  V30 716 C 63.1362 -0.529414 -3.56693 0
M  V30 717 O 62.2402 0.451302 -4.09923 0
M  V30 718 H 61.5812 -0.173489 -0.640935 0
M  V30 719 H 64.1112 -1.11157 -1.71771 0
M  V30 720 H 64.1212 -0.404671 -4.05988 0
M  V30 721 H 62.7962 -1.54014 -3.86332 0
M  V30 722 H 61.3732 0.285558 -3.71805 0
M  V30 723 N 63.5583 1.46682 -0.576371 0
M  V30 724 C 64.9693 1.86112 -0.148091 0
M  V30 725 C 65.3203 1.48073 1.2872 0
M  V30 726 O 64.4453 0.892656 1.97131 0
M  V30 727 C 65.0403 3.37786 -0.261982 0
M  V30 728 C 63.5993 3.76235 0.111384 0
M  V30 729 C 62.7463 2.70713 -0.60083 0
M  V30 730 H 65.6973 1.37927 -0.78497 0
M  V30 731 H 65.7183 3.77007 0.514364 0
M  V30 732 H 65.2303 3.6544 -1.30671 0
M  V30 733 H 63.3313 3.54198 1.15649 0
M  V30 734 H 63.4443 4.78391 -0.26052 0
M  V30 735 H 61.8083 2.54666 -0.0417783 0
M  V30 736 H 62.5913 3.01208 -1.64708 0
M  V30 737 N 65.0364 0.313813 1.54444 0
M  V30 738 C 66.2614 -0.296681 2.05267 0
M  V30 739 C 66.6864 -1.45757 1.18897 0
M  V30 740 O 66.0444 -1.80239 0.195886 0
M  V30 741 C 66.0924 -0.71831 3.53373 0
M  V30 742 O 65.1964 -1.82175 3.69981 0
M  V30 743 H 64.5374 -0.0554061 0.661684 0
M  V30 744 H 67.0674 0.459387 1.99376 0
M  V30 745 H 67.0774 -1.00364 3.95463 0
M  V30 746 H 65.7524 0.130821 4.15694 0
M  V30 747 H 64.3294 -1.53598 3.39797 0
M  V30 748 N 66.5145 -1.57545 0.0417849 0
M  V30 749 C 67.7395 -1.97035 -0.647455 0
M  V30 750 C 68.1645 -0.918775 -1.64135 0
M  V30 751 O 67.5225 0.119006 -1.80909 0
M  V30 752 C 67.5705 -3.35609 -1.31905 0
M  V30 753 O 66.6745 -3.3287 -2.43457 0
M  V30 754 H 66.0155 -0.64211 -0.169086 0
M  V30 755 H 68.5455 -2.04318 0.107399 0
M  V30 756 H 68.5555 -3.72126 -1.67291 0
M  V30 757 H 67.2305 -4.11685 -0.590586 0
M  V30 758 H 65.8075 -3.08087 -2.10088 0
M  V30 759 N 67.9926 0.231505 -1.5589 0
M  V30 760 C 69.2226 0.973092 -1.82248 0
M  V30 761 C 69.6306 1.78845 -0.617328 0
M  V30 762 O 68.9736 1.78752 0.423499 0
M  V30 763 C 69.0356 1.94732 -3.02192 0
M  V30 764 C 68.6996 1.31743 -4.37599 0
M  V30 765 C 69.6966 0.712238 -5.14998 0
M  V30 766 C 67.3816 1.33218 -4.84312 0
M  V30 767 C 69.3756 0.130195 -6.37267 0
M  V30 768 C 67.0626 0.746286 -6.06526 0
M  V30 769 C 68.0606 0.146337 -6.82843 0
M  V30 770 O 67.7486 -0.430465 -8.02747 0
M  V30 771 H 67.4806 0.29125 -0.61004 0
M  V30 772 H 70.0346 0.254915 -2.03812 0
M  V30 773 H 68.2646 2.70422 -2.76422 0
M  V30 774 H 69.9536 2.55362 -3.15508 0
M  V30 775 H 70.7196 0.69324 -4.8002 0
M  V30 776 H 66.5986 1.78854 -4.24891 0
M  V30 777 H 70.1426 -0.33871 -6.96777 0
M  V30 778 H 66.0396 0.762663 -6.40979 0
M  V30 779 H 66.8076 -0.323818 -8.17859 0
M  V30 780 N 69.4707 1.49531 0.497807 0
M  V30 781 C 70.4187 1.66926 1.61983 0
M  V30 782 C 71.4127 0.535167 1.60724 0
M  V30 783 O 72.6187 0.714896 1.65195 0
M  V30 784 H 68.9937 0.526415 0.537021 0
M  V30 785 H 70.9647 2.61098 1.44465 0
M  V30 786 C 69.7137 1.75602 3.00099 0
M  V30 787 H 69.0367 2.62244 3.01775 0
M  V30 788 H 70.4767 1.91807 3.78135 0
M  V30 789 C 68.9357 0.501543 3.33146 0
M  V30 790 O 69.4657 -0.371342 3.9998 0
M  V30 791 N 67.6717 0.363531 2.88317 0
M  V30 792 H 67.2187 1.07485 2.34104 0
M  V30 793 H 67.1767 -0.474728 3.10795 0
M  V30 794 N 70.9488 -0.749086 1.3866 0
M  V30 795 C 72.1768 -1.53834 1.38358 0
M  V30 796 C 72.5918 -1.88783 -0.0255219 0
M  V30 797 O 71.9488 -1.53101 -0.993292 0
M  V30 798 C 71.9998 -2.83468 2.2434 0
M  V30 799 O 71.7208 -2.50008 3.5976 0
M  V30 800 C 73.2218 -3.7758 2.32267 0
M  V30 801 H 70.4418 -0.47585 0.473083 0
M  V30 802 H 72.9858 -0.926726 1.82297 0
M  V30 803 H 71.1408 -3.40995 1.83851 0
M  V30 804 H 71.5548 -3.33182 4.05081 0
M  V30 805 H 73.0288 -4.65478 2.96706 0
M  V30 806 H 73.5058 -4.18334 1.33765 0
M  V30 807 H 74.1118 -3.25976 2.73166 0
M  V30 808 N 72.4269 -1.23603 -0.977757 0
M  V30 809 C 73.3589 -0.977369 -2.07317 0
M  V30 810 C 74.3719 0.0495845 -1.62724 0
M  V30 811 O 75.5609 -0.186261 -1.77526 0
M  V30 812 C 72.6609 -0.451216 -3.35883 0
M  V30 813 C 71.8339 -1.53896 -4.09432 0
M  V30 814 C 70.8929 -1.01721 -5.16274 0
M  V30 815 O 69.9189 -1.70676 -5.43009 0
M  V30 816 N 71.1209 0.153594 -5.80297 0
M  V30 817 H 73.8859 -1.92047 -2.30082 0
M  V30 818 H 71.4469 -1.14497 -1.14465 0
M  V30 819 H 73.4389 -0.0871574 -4.04606 0
M  V30 820 H 72.0089 0.397368 -3.10064 0
M  V30 821 H 71.2289 -2.07566 -3.35127 0
M  V30 822 H 72.5169 -2.27037 -4.55337 0
M  V30 823 H 71.9149 0.730323 -5.60966 0
M  V30 824 H 70.4719 0.458892 -6.50183 0
M  V30 825 N 73.905 1.17692 -1.04816 0
M  V30 826 C 75.316 1.69501 -0.782698 0
M  V30 827 C 75.667 1.83456 0.695577 0
M  V30 828 O 74.792 1.51942 1.54086 0
M  V30 829 C 75.387 3.07874 -1.41419 0
M  V30 830 C 73.946 3.56864 -1.19686 0
M  V30 831 C 73.093 2.3322 -1.50012 0
M  V30 832 H 76.044 1.02262 -1.2136 0
M  V30 833 H 76.065 3.71528 -0.821428 0
M  V30 834 H 75.577 2.97685 -2.49009 0
M  V30 835 H 73.678 3.72337 -0.140043 0
M  V30 836 H 73.791 4.39851 -1.89916 0
M  V30 837 H 72.155 2.37501 -0.920071 0
M  V30 838 H 72.938 2.25644 -2.58727 0
M  V30 839 N 75.3831 0.828654 1.34056 0
M  V30 840 C 76.6291 0.429279 1.98818 0
M  V30 841 C 76.9841 -0.998011 1.64492 0
M  V30 842 O 76.2771 -1.68652 0.909228 0
M  V30 843 C 76.4711 0.575226 3.52741 0
M  V30 844 C 76.3001 2.01515 4.02022 0
M  V30 845 C 75.0701 2.64825 4.30344 0
M  V30 846 C 77.2681 2.98261 4.18981 0
M  V30 847 N 75.2501 3.99998 4.65698 0
M  V30 848 C 76.6211 4.18356 4.57578 0
M  V30 849 C 78.6761 2.94802 4.01243 0
M  V30 850 C 77.3791 5.35454 4.80293 0
M  V30 851 C 79.4051 4.11121 4.25128 0
M  V30 852 C 78.7671 5.29969 4.64018 0
M  V30 853 H 74.8661 0.205304 0.754569 0
M  V30 854 H 77.4501 1.07457 1.62361 0
M  V30 855 H 75.6211 -0.0401962 3.88379 0
M  V30 856 H 77.3531 0.148292 4.04428 0
M  V30 857 H 74.1081 2.16027 4.21461 0
M  V30 858 H 74.5321 4.69653 4.87601 0
M  V30 859 H 79.1741 2.04054 3.70299 0
M  V30 860 H 76.8921 6.26755 5.10102 0
M  V30 861 H 80.4781 4.0985 4.12934 0
M  V30 862 H 79.3581 6.18479 4.82134 0
M  V30 863 N 76.8612 -1.46375 0.584142 0
M  V30 864 C 77.8112 -2.27371 -0.169232 0
M  V30 865 C 78.7952 -1.35955 -0.860523 0
M  V30 866 O 79.9872 -1.60119 -0.754382 0
M  V30 867 C 77.1162 -3.22334 -1.18134 0
M  V30 868 C 76.2022 -4.21235 -0.492088 0
M  V30 869 N 76.5932 -5.03766 0.453129 0
M  V30 870 C 74.8912 -4.39773 -0.742652 0
M  V30 871 C 75.5922 -5.75366 0.85609 0
M  V30 872 N 74.5682 -5.43214 0.204926 0
M  V30 873 H 78.3702 -2.88572 0.557097 0
M  V30 874 H 75.8842 -1.57242 0.406042 0
M  V30 875 H 77.8812 -3.79071 -1.73525 0
M  V30 876 H 76.5412 -2.62693 -1.90847 0
M  V30 877 H 77.5522 -5.11227 0.828723 0
M  V30 878 H 74.2292 -3.91279 -1.45625 0
M  V30 879 H 75.6192 -6.5172 1.63434 0
M  V30 880 N 78.3393 -0.321999 -1.54275 0
M  V30 881 C 79.5863 0.281044 -2.0054 0
M  V30 882 C 79.9143 1.52265 -1.21019 0
M  V30 883 O 79.1693 1.93687 -0.279982 0
M  V30 884 C 79.4683 0.661769 -3.5122 0
M  V30 885 C 79.1343 -0.480482 -4.48333 0
M  V30 886 C 77.7963 -0.794005 -4.74604 0
M  V30 887 C 80.1483 -1.24783 -5.06042 0
M  V30 888 C 77.4763 -1.87763 -5.55844 0
M  V30 889 C 79.8283 -2.32153 -5.88462 0
M  V30 890 C 78.4923 -2.64089 -6.13036 0
M  V30 891 H 77.7623 0.102841 -0.733829 0
M  V30 892 H 80.4093 -0.445453 -1.86247 0
M  V30 893 H 78.7143 1.46867 -3.63232 0
M  V30 894 H 80.4113 1.13989 -3.84457 0
M  V30 895 H 77.0013 -0.226039 -4.28004 0
M  V30 896 H 81.1853 -1.01887 -4.85729 0
M  V30 897 H 76.4413 -2.12954 -5.73115 0
M  V30 898 H 80.6153 -2.92057 -6.32199 0
M  V30 899 H 78.2423 -3.48185 -6.75775 0
M  V30 900 N 79.8174 1.5752 -0.0501392 0
M  V30 901 C 81.0634 1.92936 0.624798 0
M  V30 902 C 81.3964 0.928685 1.70555 0
M  V30 903 O 80.6714 -0.0454779 1.94447 0
M  V30 904 C 80.9544 3.38737 1.22185 0
M  V30 905 C 80.8074 4.49552 0.149218 0
M  V30 906 C 82.1264 3.84913 2.13378 0
M  V30 907 H 79.2454 0.701604 0.225657 0
M  V30 908 H 81.8874 1.89671 -0.111693 0
M  V30 909 H 80.0374 3.4165 1.84953 0
M  V30 910 H 81.7094 4.58768 -0.482648 0
M  V30 911 H 79.9524 4.30638 -0.522841 0
M  V30 912 H 80.6234 5.48653 0.606966 0
M  V30 913 H 83.0994 3.8387 1.60572 0
M  V30 914 H 81.9754 4.87584 2.52097 0
M  V30 915 H 82.2364 3.21611 3.03346 0
M  V30 916 N 81.2955 -0.223234 1.56011 0
M  V30 917 C 82.2285 -1.30377 1.87289 0
M  V30 918 C 83.2065 -1.45286 0.730112 0
M  V30 919 O 84.3905 -1.61126 0.978302 0
M  V30 920 C 81.5175 -2.67431 2.07843 0
M  V30 921 C 80.5635 -2.69546 3.30526 0
M  V30 922 S 81.3965 -2.23781 4.865 0
M  V30 923 C 82.5525 -3.62714 5.10088 0
M  V30 924 H 82.7855 -1.03652 2.78646 0
M  V30 925 H 80.3185 -0.425393 1.48424 0
M  V30 926 H 82.2765 -3.46336 2.20368 0
M  V30 927 H 80.9375 -2.91381 1.17285 0
M  V30 928 H 80.1305 -3.70255 3.41947 0
M  V30 929 H 79.7325 -1.98703 3.16849 0
M  V30 930 H 82.0245 -4.58391 4.98883 0
M  V30 931 H 82.9675 -3.5621 6.11981 0
M  V30 932 H 83.3755 -3.56323 4.37829 0
M  V30 933 N 82.7736 -1.49793 -0.48987 0
M  V30 934 C 84.0196 -1.60078 -1.24511 0
M  V30 935 C 84.3526 -0.291608 -1.91998 0
M  V30 936 O 83.6276 0.705647 -1.81248 0
M  V30 937 C 83.9106 -2.76791 -2.30345 0
M  V30 938 C 83.7636 -4.17535 -1.67286 0
M  V30 939 C 85.0826 -2.89111 -3.31817 0
M  V30 940 H 82.2016 -0.582645 -0.451324 0
M  V30 941 H 84.8436 -1.82117 -0.541612 0
M  V30 942 H 82.9936 -2.5813 -2.90346 0
M  V30 943 H 84.6656 -4.4774 -1.11026 0
M  V30 944 H 82.9086 -4.22665 -0.976577 0
M  V30 945 H 83.5796 -4.95094 -2.44103 0
M  V30 946 H 86.0556 -3.06133 -2.81819 0
M  V30 947 H 84.9316 -3.72433 -4.03219 0
M  V30 948 H 85.1926 -1.9893 -3.94815 0
M  V30 949 N 84.2517 0.741722 -1.39055 0
M  V30 950 C 85.4797 1.53098 -1.39171 0
M  V30 951 C 85.8947 1.88794 0.0155099 0
M  V30 952 O 85.2517 1.53626 0.985159 0
M  V30 953 C 85.3027 2.82274 -2.2584 0
M  V30 954 O 85.0237 2.48097 -3.61081 0
M  V30 955 C 86.5247 3.76343 -2.34266 0
M  V30 956 H 83.7447 0.473335 -0.4756 0
M  V30 957 H 86.2887 0.917045 -1.82785 0
M  V30 958 H 84.4437 3.40015 -1.85656 0
M  V30 959 H 84.8577 3.31029 -4.06842 0
M  V30 960 H 86.3317 4.63898 -2.9917 0
M  V30 961 H 86.8087 4.17619 -1.35982 0
M  V30 962 H 87.4147 3.24523 -2.74891 0
M  V30 963 N 85.7298 1.2412 0.971189 0
M  V30 964 C 87.0068 0.986867 1.6888 0
M  V30 965 C 87.3868 -0.491857 2.0529 0
M  V30 966 O 86.7348 -1.46531 1.75331 0
M  V30 967 C 86.9448 1.9063 2.92338 0
M  V30 968 C 88.2928 2.17515 3.64654 0
M  V30 969 O 89.3168 1.88254 3.02388 0
M  V30 970 O 88.1758 2.6719 4.7673 0
M  V30 971 H 85.2698 0.372944 0.738134 0
M  V30 972 H 87.8158 1.35203 1.02559 0
M  V30 973 H 86.5878 2.90552 2.62097 0
M  V30 974 H 86.2108 1.54408 3.66393 0
M  V30 975 N 87.2079 -1.17134 1.05439 0
M  V30 976 C 88.1549 -2.21235 0.657539 0
M  V30 977 C 89.1249 -1.62551 -0.341543 0
M  V30 978 O 90.3099 -1.89379 -0.232393 0
M  V30 979 C 87.4499 -3.45076 0.0410575 0
M  V30 980 C 86.5629 -4.18042 1.08927 0
M  V30 981 C 85.6979 -5.29376 0.439848 0
M  V30 982 C 84.7369 -5.94132 1.4722 0
M  V30 983 N 83.8739 -6.96975 0.846756 0
M  V30 984 H 88.7139 -2.54534 1.54972 0
M  V30 985 H 86.2509 -1.25028 0.775006 0
M  V30 986 H 88.2089 -4.15862 -0.33383 0
M  V30 987 H 86.8389 -3.12353 -0.814568 0
M  V30 988 H 85.8909 -3.45945 1.58196 0
M  V30 989 H 87.2029 -4.62306 1.87282 0
M  V30 990 H 86.3569 -6.06699 0.0115125 0
M  V30 991 H 85.0959 -4.86251 -0.375656 0
M  V30 992 H 84.1009 -5.15538 1.91052 0
M  V30 993 H 85.3259 -6.39337 2.28965 0
M  V30 994 H 83.2719 -6.5598 0.0518075 0
M  V30 995 H 83.1889 -7.39565 1.5678 0
M  V30 996 H 84.4569 -7.78239 0.443277 0
M  V30 997 N 88.686 -0.835752 -1.33615 0
M  V30 998 C 89.963 -0.352017 -1.92406 0
M  V30 999 C 90.343 1.16225 -1.76224 0
M  V30 1000 O 89.691 1.97526 -1.14873 0
M  V30 1001 C 89.901 -0.795485 -3.39813 0
M  V30 1002 C 91.249 -0.801703 -4.16963 0
M  V30 1003 O 92.273 -0.738889 -3.48452 0
M  V30 1004 O 91.132 -0.886607 -5.3926 0
M  V30 1005 H 88.226 -0.0989641 -0.821057 0
M  V30 1006 H 90.772 -0.921397 -1.42507 0
M  V30 1007 H 89.544 -1.83795 -3.45449 0
M  V30 1008 H 89.167 -0.202505 -3.97084 0
M  V30 1009 N 90.1641 1.46063 -0.591896 0
M  V30 1010 C 91.0941 2.33172 0.123673 0
M  V30 1011 C 92.0751 1.45897 0.87453 0
M  V30 1012 O 93.2601 1.74698 0.848181 0
M  V30 1013 C 90.3901 3.28336 1.13194 0
M  V30 1014 C 89.3441 4.25124 0.495324 0
M  V30 1015 C 88.6701 5.09863 1.61071 0
M  V30 1016 C 89.9701 5.19143 -0.573425 0
M  V30 1017 H 91.6641 2.93252 -0.603646 0
M  V30 1018 H 89.2101 1.41014 -0.291741 0
M  V30 1019 H 91.1631 3.88137 1.64097 0
M  V30 1020 H 89.8871 2.66383 1.88965 0
M  V30 1021 H 88.5461 3.66599 0.00729452 0
M  V30 1022 H 88.1941 4.44288 2.35832 0
M  V30 1023 H 87.8941 5.75417 1.19035 0
M  V30 1024 H 89.4181 5.72529 2.12233 0
M  V30 1025 H 90.8321 5.73106 -0.1491 0
M  V30 1026 H 89.2291 5.93089 -0.914636 0
M  V30 1027 H 90.2991 4.62519 -1.45617 0
M  V30 1028 N 91.6422 0.330177 1.54103 0
M  V30 1029 C 92.5892 -0.532762 2.24567 0
M  V30 1030 C 93.5592 -1.10635 1.23892 0
M  V30 1031 O 94.7442 -1.14546 1.5259 0
M  V30 1032 C 91.8842 -1.6845 3.01195 0
M  V30 1033 C 90.9972 -1.13951 4.167 0
M  V30 1034 C 90.1322 -2.25746 4.80845 0
M  V30 1035 C 89.1712 -1.6853 5.88442 0
M  V30 1036 N 88.3082 -2.74014 6.46421 0
M  V30 1037 H 93.1482 0.0746905 2.97906 0
M  V30 1038 H 90.6852 0.048632 1.4702 0
M  V30 1039 H 92.6432 -2.36234 3.43874 0
M  V30 1040 H 91.2732 -2.26314 2.30178 0
M  V30 1041 H 90.3252 -0.35301 3.78758 0
M  V30 1042 H 91.6372 -0.680892 4.94131 0
M  V30 1043 H 90.7912 -3.01422 5.26526 0
M  V30 1044 H 89.5302 -2.74947 4.0281 0
M  V30 1045 H 88.5352 -0.913543 5.42157 0
M  V30 1046 H 89.7602 -1.20198 6.68378 0
M  V30 1047 H 87.7062 -3.22494 5.71256 0
M  V30 1048 H 87.6232 -2.32735 7.19285 0
M  V30 1049 H 88.8912 -3.49499 6.96757 0
M  V30 1050 N 93.1203 -1.57491 0.0584922 0
M  V30 1051 C 94.0673 -2.11958 -0.913376 0
M  V30 1052 C 95.0373 -1.02875 -1.30407 0
M  V30 1053 O 96.2223 -1.30464 -1.39226 0
M  V30 1054 C 93.3623 -2.67497 -2.18035 0
M  V30 1055 C 92.4753 -3.90691 -1.84349 0
M  V30 1056 C 91.6103 -4.3452 -3.05559 0
M  V30 1057 C 90.6493 -5.50395 -2.67827 0
M  V30 1058 N 89.7863 -5.89244 -3.81754 0
M  V30 1059 H 94.6263 -2.94704 -0.442017 0
M  V30 1060 H 92.1633 -1.45643 -0.206545 0
M  V30 1061 H 94.1213 -2.978 -2.92183 0
M  V30 1062 H 92.7513 -1.87537 -2.62735 0
M  V30 1063 H 91.8033 -3.66934 -1.00319 0
M  V30 1064 H 93.1153 -4.7489 -1.5258 0
M  V30 1065 H 92.2693 -4.66414 -3.87998 0
M  V30 1066 H 91.0083 -3.49147 -3.40511 0
M  V30 1067 H 90.0133 -5.18165 -1.83806 0
M  V30 1068 H 91.2383 -6.3749 -2.34059 0
M  V30 1069 H 89.1843 -5.06823 -4.16493 0
M  V30 1070 H 89.1013 -6.68151 -3.53708 0
M  V30 1071 H 90.3693 -6.25756 -4.64811 0
M  V30 1072 N 94.5984 0.214957 -1.56127 0
M  V30 1073 C 95.5304 1.29004 -1.89448 0
M  V30 1074 C 96.5434 1.42716 -0.783326 0
M  V30 1075 O 97.7324 1.43496 -1.06166 0
M  V30 1076 C 94.8324 2.66482 -2.09381 0
M  V30 1077 C 94.0054 2.74633 -3.40434 0
M  V30 1078 C 93.0644 3.9317 -3.49719 0
M  V30 1079 O 92.0904 3.812 -4.227 0
M  V30 1080 N 93.2924 5.07765 -2.81346 0
M  V30 1081 H 96.0574 1.00743 -2.82261 0
M  V30 1082 H 93.6184 0.40497 -1.56753 0
M  V30 1083 H 95.6104 3.44173 -2.12901 0
M  V30 1084 H 94.1804 2.87314 -1.23163 0
M  V30 1085 H 93.4004 1.83368 -3.48955 0
M  V30 1086 H 94.6884 2.77054 -4.26754 0
M  V30 1087 H 94.0864 5.20386 -2.21843 0
M  V30 1088 H 92.6434 5.83474 -2.90519 0
M  V30 1089 N 96.0765 1.50051 0.48192 0
M  V30 1090 C 97.3255 1.59741 1.23149 0
M  V30 1091 C 97.6385 0.298163 1.93314 0
M  V30 1092 O 98.8445 0.273835 2.70116 0
M  V30 1093 C 97.3005 2.81926 2.23708 0
M  V30 1094 C 96.9085 4.18685 1.59396 0
M  V30 1095 C 98.6525 3.00956 2.99375 0
M  V30 1096 C 96.5595 5.3207 2.58178 0
M  V30 1097 H 95.4895 0.594838 0.46334 0
M  V30 1098 H 98.1405 1.76467 0.503169 0
M  V30 1099 H 96.5225 2.58736 2.99786 0
M  V30 1100 H 97.6965 4.52088 0.891811 0
M  V30 1101 H 96.0115 4.05171 0.960503 0
M  V30 1102 H 98.6085 3.82836 3.73283 0
M  V30 1103 H 98.9515 2.12258 3.58123 0
M  V30 1104 H 99.4845 3.24277 2.30411 0
M  V30 1105 H 96.2235 6.22888 2.04184 0
M  V30 1106 H 95.7435 5.03098 3.26577 0
M  V30 1107 H 97.4225 5.62196 3.20225 0
M  V30 1108 N 97.5546 -0.734337 1.39446 0
M  V30 1109 C 98.5176 -1.83004 1.37994 0
M  V30 1110 C 99.5176 -1.58397 0.276938 0
M  V30 1111 O 100.708 -1.65785 0.534875 0
M  V30 1112 C 97.8396 -3.20802 1.1532 0
M  V30 1113 H 99.0326 -1.85694 2.35494 0
M  V30 1114 H 96.5856 -0.938059 1.25021 0
M  V30 1115 H 97.3206 -3.23772 0.185036 0
M  V30 1116 H 97.1056 -3.4006 1.95197 0
M  V30 1117 H 98.5956 -4.00862 1.17046 0
M  V30 1118 N 99.0327 -1.24633 -0.964593 0
M  V30 1119 C 99.9957 -1.0424 -2.04124 0
M  V30 1120 C 100.996 0.00137563 -1.608 0
M  V30 1121 O 102.186 -0.239883 -1.7254 0
M  V30 1122 C 99.3177 -0.580588 -3.3592 0
M  V30 1123 H 100.511 -1.99803 -2.23649 0
M  V30 1124 H 98.0637 -1.06899 -1.14027 0
M  V30 1125 H 98.7987 0.3781 -3.22088 0
M  V30 1126 H 98.5837 -1.33398 -3.6871 0
M  V30 1127 H 100.074 -0.459034 -4.15069 0
M  V30 1128 N 100.511 1.16574 -1.06058 0
M  V30 1129 C 101.461 2.18854 -0.63929 0
M  V30 1130 C 102.445 1.57505 0.328798 0
M  V30 1131 O 103.637 1.76408 0.144623 0
M  V30 1132 C 100.766 3.43291 -0.0247203 0
M  V30 1133 C 99.8518 4.11722 -1.01716 0
M  V30 1134 N 100.243 4.55841 -2.19186 0
M  V30 1135 C 98.5408 4.37872 -0.847569 0
M  V30 1136 C 99.2418 5.08751 -2.82042 0
M  V30 1137 N 98.2178 5.01489 -2.09784 0
M  V30 1138 H 102.02 2.5068 -1.53417 0
M  V30 1139 H 99.5338 1.32999 -0.931935 0
M  V30 1140 H 101.531 4.15856 0.294915 0
M  V30 1141 H 100.191 3.12954 0.865448 0
M  V30 1142 H 101.202 4.49649 -2.56975 0
M  V30 1143 H 97.8788 4.17499 -0.00918848 0
M  V30 1144 H 99.2688 5.52944 -3.81709 0
M  V30 1145 N 101.989 0.842826 1.3317 0
M  V30 1146 C 103.214 0.453129 2.02389 0
M  V30 1147 C 103.639 -0.939105 1.6298 0
M  V30 1148 O 102.997 -1.61472 0.8244 0
M  V30 1149 C 103.045 0.586094 3.55805 0
M  V30 1150 O 102.149 -0.386029 4.10589 0
M  V30 1151 H 101.49 0.183664 0.638094 0
M  V30 1152 H 104.02 1.13875 1.69981 0
M  V30 1153 H 104.03 0.469209 4.05293 0
M  V30 1154 H 102.705 1.6014 3.83833 0
M  V30 1155 H 101.282 -0.226371 3.72212 0
M  V30 1156 N 103.467 -1.45747 0.599634 0
M  V30 1157 C 104.697 -2.06369 0.0977132 0
M  V30 1158 C 105.105 -1.44624 -1.21985 0
M  V30 1159 O 104.448 -0.551831 -1.75216 0
M  V30 1160 C 104.51 -3.59284 -0.124673 0
M  V30 1161 C 104.174 -4.43318 1.10987 0
M  V30 1162 C 105.171 -4.78796 2.02609 0
M  V30 1163 C 102.856 -4.84194 1.33647 0
M  V30 1164 C 104.85 -5.53997 3.15224 0
M  V30 1165 C 102.537 -5.5915 2.46565 0
M  V30 1166 C 103.535 -5.93968 3.37182 0
M  V30 1167 O 103.223 -6.67405 4.48136 0
M  V30 1168 H 102.955 -0.673122 0.0623153 0
M  V30 1169 H 105.509 -1.88104 0.824981 0
M  V30 1170 H 103.739 -3.75919 -0.906745 0
M  V30 1171 H 105.428 -4.01775 -0.577201 0
M  V30 1172 H 106.194 -4.47781 1.86325 0
M  V30 1173 H 102.073 -4.56534 0.64016 0
M  V30 1174 H 105.617 -5.81091 3.85978 0
M  V30 1175 H 101.514 -5.89579 2.62805 0
M  V30 1176 H 102.282 -6.85847 4.46717 0
M  V30 1177 N 104.945 -0.338344 -1.53925 0
M  V30 1178 C 106.192 0.259758 -2.00827 0
M  V30 1179 C 106.52 1.50973 -1.22628 0
M  V30 1180 O 105.775 1.93379 -0.300509 0
M  V30 1181 C 106.074 0.62448 -3.51902 0
M  V30 1182 C 105.74 -0.528006 -4.47798 0
M  V30 1183 C 104.402 -0.844298 -4.73735 0
M  V30 1184 C 106.754 -1.30143 -5.0469 0
M  V30 1185 C 104.082 -1.93648 -5.53821 0
M  V30 1186 C 106.434 -2.38382 -5.85967 0
M  V30 1187 C 105.098 -2.70576 -6.10201 0
M  V30 1188 H 104.368 0.0950523 -0.734878 0
M  V30 1189 H 107.015 -0.465182 -1.85764 0
M  V30 1190 H 105.32 1.43006 -3.64769 0
M  V30 1191 H 107.017 1.09905 -3.85645 0
M  V30 1192 H 103.607 -0.271421 -4.2774 0
M  V30 1193 H 107.791 -1.07033 -4.84621 0
M  V30 1194 H 103.047 -2.19021 -5.70824 0
M  V30 1195 H 107.221 -2.98746 -6.29066 0
M  V30 1196 H 104.848 -3.55333 -6.72044 0
M  V30 1197 N 106.423 1.57458 -0.0668435 0
M  V30 1198 C 107.371 2.13639 0.919851 0
M  V30 1199 C 108.365 1.07204 1.31163 0
M  V30 1200 O 109.571 1.25591 1.28945 0
M  V30 1201 H 105.946 0.683048 0.314562 0
M  V30 1202 H 107.917 2.95415 0.421047 0
M  V30 1203 C 106.666 2.70892 2.17975 0
M  V30 1204 H 105.989 3.5246 1.88711 0
M  V30 1205 H 107.429 3.13803 2.85138 0
M  V30 1206 C 105.888 1.65414 2.93496 0
M  V30 1207 O 106.418 1.07619 3.87015 0
M  V30 1208 N 104.624 1.36564 2.56512 0
M  V30 1209 H 104.171 1.83751 1.80536 0
M  V30 1210 H 104.129 0.66223 3.07347 0
M  V30 1211 N 107.901 -0.206675 1.56239 0
M  V30 1212 C 108.811 -1.27686 1.96808 0
M  V30 1213 C 109.827 -1.50455 0.874035 0
M  V30 1214 O 111.003 -1.63295 1.17884 0
M  V30 1215 C 108.068 -2.60358 2.28942 0
M  V30 1216 C 107.129 -2.45762 3.51994 0
M  V30 1217 C 106.362 -3.72108 3.82585 0
M  V30 1218 O 106.585 -4.75776 3.14631 0
M  V30 1219 O 105.519 -3.6833 4.76043 0
M  V30 1220 H 109.345 -0.962593 2.88041 0
M  V30 1221 H 106.93 -0.410746 1.43643 0
M  V30 1222 H 108.812 -3.38687 2.50737 0
M  V30 1223 H 107.487 -2.91435 1.4088 0
M  V30 1224 H 106.394 -1.65584 3.35459 0
M  V30 1225 H 107.727 -2.19621 4.40486 0
M  V30 1226 N 109.379 -1.50304 -0.473955 0
M  V30 1227 C 110.289 -1.7174 -1.5982 0
M  V30 1228 C 111.305 -0.600457 -1.63311 0
M  V30 1229 O 112.481 -0.878441 -1.81233 0
M  V30 1230 C 109.546 -1.80427 -2.96052 0
M  V30 1231 C 108.607 -3.04148 -3.02972 0
M  V30 1232 C 107.84 -3.12411 -4.32706 0
M  V30 1233 O 108.063 -2.27542 -5.23049 0
M  V30 1234 O 106.997 -4.05113 -4.45159 0
M  V30 1235 H 110.823 -2.67035 -1.44657 0
M  V30 1236 H 108.408 -1.34366 -0.653148 0
M  V30 1237 H 110.29 -1.88338 -3.7697 0
M  V30 1238 H 108.965 -0.883156 -3.11419 0
M  V30 1239 H 107.872 -3.0174 -2.21142 0
M  V30 1240 H 109.205 -3.95829 -2.92541 0
M  V30 1241 N 110.857 0.726932 -1.39834 0
M  V30 1242 C 111.79 1.8501 -1.33592 0
M  V30 1243 C 112.768 1.61262 -0.208191 0
M  V30 1244 O 113.952 1.84422 -0.389981 0
M  V30 1245 C 111.079 3.21143 -1.07633 0
M  V30 1246 C 110.125 3.63737 -2.22705 0
M  V30 1247 S 110.958 3.72167 -3.85035 0
M  V30 1248 C 112.114 5.11077 -3.61318 0
M  V30 1249 H 112.347 1.90022 -2.28646 0
M  V30 1250 H 109.88 0.892595 -1.25985 0
M  V30 1251 H 111.838 3.99747 -0.933415 0
M  V30 1252 H 110.499 3.13776 -0.142526 0
M  V30 1253 H 109.692 4.62551 -2.00155 0
M  V30 1254 H 109.294 2.9236 -2.33242 0
M  V30 1255 H 111.586 5.97656 -3.19083 0
M  V30 1256 H 112.529 5.38658 -4.59623 0
M  V30 1257 H 112.937 4.81135 -2.95245 0
M  V30 1258 N 112.336 1.25143 0.95797 0
M  V30 1259 C 113.585 1.0909 1.69654 0
M  V30 1260 C 113.898 -0.368548 1.92097 0
M  V30 1261 O 115.104 -0.649455 2.63618 0
M  V30 1262 C 113.56 1.90395 3.05414 0
M  V30 1263 C 113.168 3.4081 2.90779 0
M  V30 1264 C 114.912 1.82901 3.83076 0
M  V30 1265 C 112.819 4.14423 4.21909 0
M  V30 1266 H 111.749 0.404625 0.636235 0
M  V30 1267 H 114.4 1.4931 1.06672 0
M  V30 1268 H 112.782 1.42996 3.69281 0
M  V30 1269 H 113.956 3.95859 2.35865 0
M  V30 1270 H 112.271 3.49361 2.26575 0
M  V30 1271 H 114.868 2.35196 4.80195 0
M  V30 1272 H 115.211 0.796224 4.08615 0
M  V30 1273 H 115.744 2.28033 3.25954 0
M  V30 1274 H 112.483 5.18102 4.01561 0
M  V30 1275 H 112.003 3.64159 4.76601 0
M  V30 1276 H 113.682 4.21956 4.90471 0
M  V30 1277 N 113.814 -1.1601 1.06675 0
M  V30 1278 C 114.761 -2.20525 0.680967 0
M  V30 1279 C 115.731 -1.62904 -0.324283 0
M  V30 1280 O 116.916 -1.89615 -0.212294 0
M  V30 1281 C 114.056 -3.45013 0.0776551 0
M  V30 1282 C 113.169 -4.16863 1.13355 0
M  V30 1283 C 112.304 -5.2888 0.49597 0
M  V30 1284 C 111.343 -5.92537 1.53513 0
M  V30 1285 N 110.48 -6.96038 0.920631 0
M  V30 1286 H 115.32 -2.52876 1.57663 0
M  V30 1287 H 112.857 -1.24199 0.788223 0
M  V30 1288 H 114.815 -4.16193 -0.289704 0
M  V30 1289 H 113.445 -3.132 -0.781393 0
M  V30 1290 H 112.497 -3.44248 1.61857 0
M  V30 1291 H 113.809 -4.60294 1.92174 0
M  V30 1292 H 112.963 -6.06653 0.0758604 0
M  V30 1293 H 111.702 -4.86622 -0.324062 0
M  V30 1294 H 110.707 -5.13482 1.9651 0
M  V30 1295 H 111.932 -6.36873 2.35733 0
M  V30 1296 H 109.878 -6.55888 0.12138 0
M  V30 1297 H 109.795 -7.3786 1.64616 0
M  V30 1298 H 111.063 -7.77725 0.525795 0
M  V30 1299 N 115.292 -0.849877 -1.32721 0
M  V30 1300 C 116.517 -0.463856 -2.02146 0
M  V30 1301 C 116.942 0.930449 -1.63476 0
M  V30 1302 O 116.3 1.61033 -0.832952 0
M  V30 1303 C 116.348 -0.604955 -3.55489 0
M  V30 1304 O 115.452 0.36425 -4.10788 0
M  V30 1305 H 114.793 -0.187046 -0.637111 0
M  V30 1306 H 117.323 -1.14775 -1.69375 0
M  V30 1307 H 117.333 -0.490696 -4.05038 0
M  V30 1308 H 116.008 -1.62174 -3.82978 0
M  V30 1309 H 114.585 0.206628 -3.72327 0
M  V30 1310 N 116.77 1.45427 -0.607355 0
M  V30 1311 C 117.733 2.28974 0.101693 0
M  V30 1312 C 118.733 1.39754 0.795329 0
M  V30 1313 O 119.923 1.61878 0.643527 0
M  V30 1314 C 117.055 3.20768 1.15414 0
M  V30 1315 H 118.248 2.93147 -0.632844 0
M  V30 1316 H 115.801 1.51945 -0.366391 0
M  V30 1317 H 116.536 2.61395 1.91945 0
M  V30 1318 H 116.321 3.86489 0.66098 0
M  V30 1319 H 117.811 3.83589 1.65073 0
M  V30 1320 N 118.248 0.346503 1.53744 0
M  V30 1321 C 119.473 -0.253074 2.0585 0
M  V30 1322 C 119.898 -1.43202 1.21962 0
M  V30 1323 O 119.256 -1.79783 0.234073 0
M  V30 1324 C 119.304 -0.643193 3.54817 0
M  V30 1325 O 118.408 -1.74286 3.73762 0
M  V30 1326 H 117.749 -0.0413583 0.662711 0
M  V30 1327 H 120.279 0.501574 1.98357 0
M  V30 1328 H 120.289 -0.919526 3.97503 0
M  V30 1329 H 118.964 0.218966 4.15323 0
M  V30 1330 H 117.541 -1.46356 3.42979 0
M  V30 1331 N 119.726 -1.57421 0.075193 0
M  V30 1332 C 120.689 -2.11791 -0.876203 0
M  V30 1333 C 121.689 -1.04268 -1.22412 0
M  V30 1334 O 122.879 -1.30242 -1.15684 0
M  V30 1335 C 120.011 -2.62207 -2.17854 0
M  V30 1336 H 121.204 -2.9716 -0.40444 0
M  V30 1337 H 118.757 -1.55333 -0.173557 0
M  V30 1338 H 119.492 -1.803 -2.6956 0
M  V30 1339 H 119.277 -3.40802 -1.93897 0
M  V30 1340 H 120.767 -3.04335 -2.85955 0
M  V30 1341 N 121.204 0.198386 -1.56346 0
M  V30 1342 C 122.134 1.24865 -1.9731 0
M  V30 1343 C 123.115 1.47651 -0.844576 0
M  V30 1344 O 124.3 1.59444 -1.10866 0
M  V30 1345 C 121.43 2.59358 -2.30977 0
M  V30 1346 C 120.384 2.5119 -3.46537 0
M  V30 1347 C 119.71 3.89926 -3.65871 0
M  V30 1348 C 121.01 2.03977 -4.80823 0
M  V30 1349 H 122.704 0.908252 -2.85291 0
M  V30 1350 H 120.25 0.435462 -1.37258 0
M  V30 1351 H 122.203 3.33011 -2.58228 0
M  V30 1352 H 120.927 2.95132 -1.39874 0
M  V30 1353 H 119.586 1.79993 -3.19371 0
M  V30 1354 H 119.234 4.23046 -2.72105 0
M  V30 1355 H 118.934 3.85336 -4.4361 0
M  V30 1356 H 120.458 4.65205 -3.95495 0
M  V30 1357 H 121.872 2.67386 -5.07127 0
M  V30 1358 H 120.269 2.10397 -5.62008 0
M  V30 1359 H 121.339 0.992861 -4.74626 0
M  V30 1360 N 122.682 1.50554 0.465978 0
M  V30 1361 C 123.615 1.64436 1.58227 0
M  V30 1362 C 124.593 0.492367 1.54966 0
M  V30 1363 O 125.777 0.712536 1.74514 0
M  V30 1364 C 122.904 1.63165 2.96808 0
M  V30 1365 C 121.95 2.83987 3.18204 0
M  V30 1366 S 122.783 4.45219 2.97557 0
M  V30 1367 C 123.939 4.46649 4.3847 0
M  V30 1368 H 124.172 2.58861 1.46213 0
M  V30 1369 H 121.705 1.3988 0.653678 0
M  V30 1370 H 123.663 1.63116 3.76701 0
M  V30 1371 H 122.324 0.69967 3.06208 0
M  V30 1372 H 121.517 2.79416 4.19455 0
M  V30 1373 H 121.119 2.81629 2.46092 0
M  V30 1374 H 123.411 4.20526 5.31191 0
M  V30 1375 H 124.354 5.48295 4.48082 0
M  V30 1376 H 124.762 3.76296 4.20787 0
M  V30 1377 N 124.16 -0.719506 1.40217 0
M  V30 1378 C 125.406 -1.48152 1.38488 0
M  V30 1379 C 125.739 -1.94195 -0.0141867 0
M  V30 1380 O 125.014 -1.67884 -0.982096 0
M  V30 1381 C 125.297 -2.71035 2.37091 0
M  V30 1382 C 125.15 -2.30912 3.86005 0
M  V30 1383 C 126.469 -3.73182 2.33288 0
M  V30 1384 H 123.588 -0.537395 0.504357 0
M  V30 1385 H 126.23 -0.821472 1.71324 0
M  V30 1386 H 124.38 -3.27352 2.0922 0
M  V30 1387 H 126.052 -1.80107 4.24687 0
M  V30 1388 H 124.295 -1.62958 4.02029 0
M  V30 1389 H 124.966 -3.18978 4.50508 0
M  V30 1390 H 127.442 -3.26485 2.57966 0
M  V30 1391 H 126.318 -4.56806 3.04334 0
M  V30 1392 H 126.579 -4.21202 1.34317 0
M  V30 1393 N 125.638 -1.25649 -0.95132 0
M  V30 1394 C 126.884 -1.10757 -1.69884 0
M  V30 1395 C 127.217 0.350061 -1.91019 0
M  V30 1396 O 126.492 1.25783 -1.48354 0
M  V30 1397 C 126.775 -1.86606 -3.07978 0
M  V30 1398 C 126.628 -3.40217 -2.94232 0
M  V30 1399 C 127.947 -1.65182 -4.07925 0
M  V30 1400 H 125.066 -0.40374 -0.616574 0
M  V30 1401 H 127.708 -1.54521 -1.10558 0
M  V30 1402 H 125.858 -1.49409 -3.58621 0
M  V30 1403 H 127.53 -3.87108 -2.50889 0
M  V30 1404 H 125.773 -3.67759 -2.30078 0
M  V30 1405 H 126.444 -3.88505 -3.92133 0
M  V30 1406 H 128.92 -1.9757 -3.66204 0
M  V30 1407 H 127.796 -2.20683 -5.02583 0
M  V30 1408 H 128.057 -0.593933 -4.38092 0
M  V30 1409 N 127.117 1.15442 -1.07289 0
M  V30 1410 C 128.357 1.8788 -0.805012 0
M  V30 1411 C 128.721 1.80413 0.656907 0
M  V30 1412 O 129.922 2.47874 1.0398 0
M  V30 1413 C 128.193 3.3298 -1.29843 0
M  V30 1414 S 129.752 4.23158 -1.16114 0
M  V30 1415 H 126.57 0.64839 -0.291739 0
M  V30 1416 H 129.172 1.39285 -1.37186 0
M  V30 1417 H 127.876 3.35958 -2.35712 0
M  V30 1418 H 127.407 3.86629 -0.726767 0
M  V30 1419 H 129.422 4.96103 -0.0982778 0
M  V30 1420 N 128.595 0.856903 1.32268 0
M  V30 1421 C 129.82 0.474569 2.01897 0
M  V30 1422 C 130.245 -0.921766 1.63967 0
M  V30 1423 O 129.603 -1.60589 0.84148 0
M  V30 1424 C 129.651 0.623799 3.55164 0
M  V30 1425 O 128.755 -0.342459 4.10976 0
M  V30 1426 H 128.096 0.190422 0.63611 0
M  V30 1427 H 130.626 1.15672 1.68764 0
M  V30 1428 H 130.636 0.512169 4.04773 0
M  V30 1429 H 129.311 1.64202 3.82113 0
M  V30 1430 H 127.888 -0.18688 3.72431 0
M  V30 1431 N 130.073 -1.45103 0.615059 0
M  V30 1432 C 131.003 -2.33339 -0.0865619 0
M  V30 1433 C 131.984 -1.4727 -0.851209 0
M  V30 1434 O 133.169 -1.76026 -0.820281 0
M  V30 1435 C 130.299 -3.30095 -1.07956 0
M  V30 1436 C 129.253 -4.25858 -0.427628 0
M  V30 1437 C 128.579 -5.12361 -1.5294 0
M  V30 1438 C 129.879 -5.18165 0.655944 0
M  V30 1439 H 131.573 -2.92254 0.650224 0
M  V30 1440 H 129.119 -1.40532 0.314138 0
M  V30 1441 H 131.072 -3.90698 -1.57901 0
M  V30 1442 H 129.796 -2.69355 -1.84703 0
M  V30 1443 H 128.455 -3.66564 0.0510292 0
M  V30 1444 H 128.103 -4.47984 -2.28734 0
M  V30 1445 H 127.803 -5.77238 -1.09865 0
M  V30 1446 H 129.327 -5.75833 -2.03098 0
M  V30 1447 H 130.741 -5.72796 0.240257 0
M  V30 1448 H 129.138 -5.91559 1.00888 0
M  V30 1449 H 130.208 -4.60144 1.52957 0
M  V30 1450 N 131.551 -0.354651 -1.53558 0
M  V30 1451 C 132.967 -0.00315426 -1.596 0
M  V30 1452 C 133.167 1.47741 -1.37021 0
M  V30 1453 O 132.223 2.23759 -1.16996 0
M  V30 1454 C 133.536 -0.44929 -2.97325 0
M  V30 1455 C 135.084 -0.402578 -3.104 0
M  V30 1456 C 135.559 -0.824355 -4.5052 0
M  V30 1457 N 137.05 -0.778979 -4.56603 0
M  V30 1458 C 137.785 -1.07715 -5.63192 0
M  V30 1459 N 137.281 -1.44405 -6.77583 0
M  V30 1460 N 139.074 -1.00066 -5.53121 0
M  V30 1461 H 131.225 -1.31893 -1.66487 0
M  V30 1462 H 133.488 -0.538388 -0.780284 0
M  V30 1463 H 133.194 -1.48202 -3.1895 0
M  V30 1464 H 133.068 0.169772 -3.76818 0
M  V30 1465 H 135.455 0.621004 -2.88492 0
M  V30 1466 H 135.536 -1.05699 -2.32941 0
M  V30 1467 H 135.18 -1.846 -4.73165 0
M  V30 1468 H 135.11 -0.147304 -5.26394 0
M  V30 1469 H 137.601 -0.508528 -3.74463 0
M  V30 1470 H 137.914 -1.65612 -7.54846 0
M  V30 1471 H 136.259 -1.4826 -6.79002 0
M  V30 1472 H 139.45 -0.713293 -4.62633 0
M  V30 1473 H 139.623 -1.23638 -6.36096 0
M  V30 1474 N 133.029 1.57378 -0.0835403 0
M  V30 1475 C 134.44 1.81261 0.447358 0
M  V30 1476 C 134.791 0.998331 1.68902 0
M  V30 1477 O 133.916 0.224282 2.15235 0
M  V30 1478 C 134.511 3.28767 0.818386 0
M  V30 1479 C 133.07 3.53455 1.29409 0
M  V30 1480 C 132.217 2.75831 0.285024 0
M  V30 1481 H 135.168 1.5566 -0.309115 0
M  V30 1482 H 135.189 3.41459 1.67887 0
M  V30 1483 H 134.701 3.88006 -0.0855019 0
M  V30 1484 H 132.802 2.99534 2.21608 0
M  V30 1485 H 132.915 4.62128 1.2639 0
M  V30 1486 H 131.279 2.42947 0.764767 0
M  V30 1487 H 132.062 3.37813 -0.611341 0
M  V30 1488 N 134.507 -0.190092 1.56449 0
M  V30 1489 C 135.732 -0.929864 1.85387 0
M  V30 1490 C 136.157 -1.7585 0.667704 0
M  V30 1491 O 135.515 -1.77198 -0.383459 0
M  V30 1492 C 135.563 -1.79773 3.12593 0
M  V30 1493 O 134.667 -2.89713 2.93496 0
M  V30 1494 H 134.008 -0.261574 0.610307 0
M  V30 1495 H 136.538 -0.193896 2.03679 0
M  V30 1496 H 136.548 -2.20139 3.43515 0
M  V30 1497 H 135.223 -1.18892 3.98544 0
M  V30 1498 H 133.8 -2.53065 2.73884 0
M  V30 1499 N 135.985 -1.50799 -0.457987 0
M  V30 1500 C 136.895 -1.73426 -1.57989 0
M  V30 1501 C 137.911 -0.617745 -1.62665 0
M  V30 1502 O 139.087 -0.897614 -1.80291 0
M  V30 1503 C 136.152 -1.83557 -2.94122 0
M  V30 1504 C 135.213 -3.07345 -2.99729 0
M  V30 1505 C 134.446 -3.16983 -4.29368 0
M  V30 1506 O 134.669 -2.33077 -5.20607 0
M  V30 1507 O 133.603 -4.09812 -4.40837 0
M  V30 1508 H 137.429 -2.68555 -1.41817 0
M  V30 1509 H 135.014 -1.35052 -0.638859 0
M  V30 1510 H 136.896 -1.92326 -3.74952 0
M  V30 1511 H 135.571 -0.916137 -3.10465 0
M  V30 1512 H 134.478 -3.04068 -2.1793 0
M  V30 1513 H 135.811 -3.9891 -2.88326 0
M  V30 1514 N 137.463 0.71206 -1.40597 0
M  V30 1515 C 138.393 1.83889 -1.43899 0
M  V30 1516 C 139.374 1.67442 -0.299504 0
M  V30 1517 O 140.559 1.87421 -0.508624 0
M  V30 1518 C 137.689 3.21877 -1.30431 0
M  V30 1519 C 136.643 3.53002 -2.42019 0
M  V30 1520 C 135.969 4.90172 -2.13626 0
M  V30 1521 C 137.269 3.53643 -3.84362 0
M  V30 1522 H 138.963 1.81383 -2.38203 0
M  V30 1523 H 136.509 0.871237 -1.14654 0
M  V30 1524 H 138.462 4.00404 -1.31357 0
M  V30 1525 H 137.186 3.24968 -0.326049 0
M  V30 1526 H 135.845 2.76818 -2.40349 0
M  V30 1527 H 135.493 4.89869 -1.14182 0
M  V30 1528 H 135.193 5.11962 -2.88389 0
M  V30 1529 H 136.717 5.71028 -2.1624 0
M  V30 1530 H 138.131 4.22203 -3.87837 0
M  V30 1531 H 136.528 3.86961 -4.58673 0
M  V30 1532 H 137.598 2.52954 -4.13693 0
M  V30 1533 N 138.941 1.26152 0.944643 0
M  V30 1534 C 139.871 1.09902 2.06019 0
M  V30 1535 C 140.852 0.00519538 1.70099 0
M  V30 1536 O 142.037 0.176583 1.93396 0
M  V30 1537 C 139.167 0.727562 3.39594 0
M  V30 1538 C 138.121 1.77274 3.89561 0
M  V30 1539 C 137.447 1.25569 5.19747 0
M  V30 1540 C 138.747 3.17357 4.14827 0
M  V30 1541 H 140.441 2.03217 2.19871 0
M  V30 1542 H 137.987 0.978452 1.05652 0
M  V30 1543 H 139.94 0.600777 4.17095 0
M  V30 1544 H 138.664 -0.241287 3.25707 0
M  V30 1545 H 137.323 1.88814 3.14237 0
M  V30 1546 H 136.971 0.276783 5.02238 0
M  V30 1547 H 136.671 1.95433 5.54148 0
M  V30 1548 H 138.195 1.1415 5.99835 0
M  V30 1549 H 139.609 3.08914 4.82954 0
M  V30 1550 H 138.006 3.84781 4.60504 0
M  V30 1551 H 139.076 3.63673 3.20734 0
M  V30 1552 N 140.419 -1.14872 1.07899 0
M  V30 1553 C 141.83 -1.67367 0.827363 0
M  V30 1554 C 142.181 -1.85236 -0.646693 0
M  V30 1555 O 141.306 -1.55974 -1.50004 0
M  V30 1556 C 141.901 -3.04016 1.49532 0
M  V30 1557 C 140.46 -3.53566 1.29106 0
M  V30 1558 C 139.607 -2.29161 1.56143 0
M  V30 1559 H 142.558 -0.990083 1.24028 0
M  V30 1560 H 142.579 -3.69219 0.919643 0
M  V30 1561 H 142.091 -2.90978 2.56814 0
M  V30 1562 H 140.192 -3.71835 0.238713 0
M  V30 1563 H 140.305 -4.34661 2.01511 0
M  V30 1564 H 138.669 -2.34978 0.982717 0
M  V30 1565 H 139.452 -2.18705 2.64619 0
M  V30 1566 N 141.898 -0.863906 -1.31812 0
M  V30 1567 C 142.848 -0.286898 -2.26188 0
M  V30 1568 C 143.832 0.572577 -1.50367 0
M  V30 1569 O 145.024 0.420447 -1.71934 0
M  V30 1570 C 142.153 0.515849 -3.39402 0
M  V30 1571 C 141.239 -0.356531 -4.22599 0
M  V30 1572 N 141.63 -1.44716 -4.84656 0
M  V30 1573 C 139.928 -0.147898 -4.45755 0
M  V30 1574 C 140.629 -1.98462 -5.46798 0
M  V30 1575 N 139.605 -1.28247 -5.28255 0
M  V30 1576 H 143.407 -1.12055 -2.717 0
M  V30 1577 H 140.921 -0.711012 -1.46008 0
M  V30 1578 H 142.918 0.945701 -4.06032 0
M  V30 1579 H 141.578 1.34718 -2.95434 0
M  V30 1580 H 142.589 -1.83008 -4.84488 0
M  V30 1581 H 139.266 0.647973 -4.12441 0
M  V30 1582 H 140.656 -2.89932 -6.06126 0
M  V30 1583 N 143.376 1.44774 -0.622745 0
M  V30 1584 C 144.624 2.01721 -0.123655 0
M  V30 1585 C 144.945 1.49172 1.25589 0
M  V30 1586 O 144.215 0.691974 1.83272 0
M  V30 1587 H 142.795 0.745777 -0.0427225 0
M  V30 1588 H 145.457 1.77382 -0.807559 0
M  V30 1589 H 144.553 3.11984 -0.0849534 0
M  V30 1590 N 144.854 0.36279 1.53368 0
M  V30 1591 C 145.804 -0.501391 2.22419 0
M  V30 1592 C 146.788 -1.0509 1.2184 0
M  V30 1593 O 147.98 -0.981404 1.47301 0
M  V30 1594 C 145.109 -1.64201 3.01484 0
M  V30 1595 C 144.195 -1.10552 4.09438 0
M  V30 1596 N 144.586 -0.291788 5.04958 0
M  V30 1597 C 142.884 -1.3806 4.24094 0
M  V30 1598 C 143.585 0.00162655 5.817 0
M  V30 1599 N 142.561 -0.595244 5.40331 0
M  V30 1600 H 146.363 0.127159 2.93625 0
M  V30 1601 H 143.877 0.170658 1.61501 0
M  V30 1602 H 145.874 -2.27326 3.49469 0
M  V30 1603 H 144.534 -2.27365 2.31809 0
M  V30 1604 H 145.545 0.0687731 5.17854 0
M  V30 1605 H 142.222 -2.01522 3.65644 0
M  V30 1606 H 143.612 0.659278 6.68658 0
M  V30 1607 N 146.332 -1.57332 0.0918853 0
M  V30 1608 C 147.562 -1.98286 -0.580205 0
M  V30 1609 C 147.97 -0.969713 -1.6246 0
M  V30 1610 O 147.313 0.0493501 -1.83634 0
M  V30 1611 C 147.375 -3.35603 -1.28882 0
M  V30 1612 C 147.039 -4.55285 -0.395559 0
M  V30 1613 C 148.036 -5.18687 0.355002 0
M  V30 1614 C 145.721 -5.01314 -0.314556 0
M  V30 1615 C 147.715 -6.26484 1.17458 0
M  V30 1616 C 145.402 -6.08979 0.508677 0
M  V30 1617 C 146.4 -6.71429 1.2519 0
M  V30 1618 O 146.088 -7.77018 2.06151 0
M  V30 1619 H 145.82 -0.656678 -0.160466 0
M  V30 1620 H 148.374 -2.04721 0.16688 0
M  V30 1621 H 146.604 -3.25842 -2.08241 0
M  V30 1622 H 148.293 -3.61026 -1.85512 0
M  V30 1623 H 149.059 -4.84058 0.302134 0
M  V30 1624 H 144.938 -4.5247 -0.882697 0
M  V30 1625 H 148.482 -6.75159 1.75518 0
M  V30 1626 H 144.379 -6.4304 0.563037 0
M  V30 1627 H 145.147 -7.93991 1.98799 0
M  V30 1628 N 147.81 0.181792 -1.56548 0
M  V30 1629 C 148.743 1.25366 -1.90679 0
M  V30 1630 C 149.721 1.43299 -0.768376 0
M  V30 1631 O 150.905 1.58475 -1.02068 0
M  V30 1632 C 148.032 2.61826 -2.1486 0
M  V30 1633 C 147.078 2.60688 -3.37556 0
M  V30 1634 S 147.911 2.10804 -4.92262 0
M  V30 1635 C 149.067 3.49062 -5.19525 0
M  V30 1636 H 149.3 0.962277 -2.81296 0
M  V30 1637 H 146.833 0.385892 -1.495 0
M  V30 1638 H 148.791 3.40371 -2.29473 0
M  V30 1639 H 147.452 2.88169 -1.24969 0
M  V30 1640 H 146.645 3.61058 -3.51643 0
M  V30 1641 H 146.247 1.90232 -3.22006 0
M  V30 1642 H 148.539 4.45003 -5.10861 0
M  V30 1643 H 149.482 3.39859 -6.2121 0
M  V30 1644 H 149.89 3.4459 -4.47122 0
M  V30 1645 N 149.288 1.51039 0.449983 0
M  V30 1646 C 150.22 1.67617 1.56324 0
M  V30 1647 C 151.233 0.557083 1.52972 0
M  V30 1648 O 152.422 0.830989 1.57977 0
M  V30 1649 C 149.522 1.66402 2.95235 0
M  V30 1650 C 148.695 2.9469 3.23229 0
M  V30 1651 C 147.754 2.85832 4.41799 0
M  V30 1652 O 146.78 3.59785 4.41071 0
M  V30 1653 N 147.982 2.00821 5.44657 0
M  V30 1654 H 150.747 2.63648 1.42512 0
M  V30 1655 H 148.308 1.48767 0.638737 0
M  V30 1656 H 150.3 1.58062 3.72557 0
M  V30 1657 H 148.87 0.780182 3.02708 0
M  V30 1658 H 148.09 3.16996 2.34323 0
M  V30 1659 H 149.378 3.79636 3.38754 0
M  V30 1660 H 148.776 1.40091 5.48079 0
M  V30 1661 H 147.333 1.98368 6.20881 0
M  V30 1662 N 150.766 -0.704594 1.40972 0
M  V30 1663 C 151.714 -1.83994 1.42299 0
M  V30 1664 C 152.708 -1.66684 0.302111 0
M  V30 1665 O 153.914 -1.73655 0.473697 0
M  V30 1666 H 150.289 -0.606171 0.44504 0
M  V30 1667 H 152.26 -1.79992 2.38003 0
M  V30 1668 C 151.009 -3.21946 1.31323 0
M  V30 1669 H 150.332 -3.35878 2.16855 0
M  V30 1670 H 151.772 -4.01491 1.36311 0
M  V30 1671 C 150.231 -3.36891 0.0245977 0
M  V30 1672 O 150.761 -3.90687 -0.934153 0
M  V30 1673 N 148.967 -2.90559 -0.0485243 0
M  V30 1674 H 148.514 -2.46968 0.732419 0
M  V30 1675 H 148.472 -3.00937 -0.910171 0
M  V30 1676 N 152.244 -1.26651 -0.937939 0
M  V30 1677 C 153.174 -1.10993 -2.05433 0
M  V30 1678 C 154.155 -0.0142161 -1.70094 0
M  V30 1679 O 155.34 -0.186837 -1.93299 0
M  V30 1680 C 152.47 -0.745561 -3.39203 0
M  V30 1681 C 151.424 -1.79337 -3.88616 0
M  V30 1682 C 150.75 -1.28324 -5.19073 0
M  V30 1683 C 152.05 -3.19553 -4.13138 0
M  V30 1684 H 153.744 -2.0438 -2.1879 0
M  V30 1685 H 151.29 -0.984041 -1.05131 0
M  V30 1686 H 153.243 -0.622888 -4.16771 0
M  V30 1687 H 151.967 0.22401 -3.25831 0
M  V30 1688 H 150.626 -1.90477 -3.13231 0
M  V30 1689 H 150.274 -0.303414 -5.02084 0
M  V30 1690 H 149.974 -1.98369 -5.53103 0
M  V30 1691 H 151.498 -1.1733 -5.99221 0
M  V30 1692 H 152.912 -3.11471 -4.81309 0
M  V30 1693 H 151.309 -3.87218 -4.58457 0
M  V30 1694 H 152.379 -3.65368 -3.18801 0
M  V30 1695 N 153.722 1.14298 -1.08507 0
M  V30 1696 C 154.952 1.88945 -0.835663 0
M  V30 1697 C 155.36 1.78894 0.615928 0
M  V30 1698 O 154.703 1.1468 1.43506 0
M  V30 1699 C 154.765 3.39585 -1.17994 0
M  V30 1700 C 154.429 3.7342 -2.63451 0
M  V30 1701 C 155.426 3.73454 -3.61702 0
M  V30 1702 C 153.111 4.03368 -2.99332 0
M  V30 1703 C 155.105 4.02961 -4.93864 0
M  V30 1704 C 152.792 4.32538 -4.31687 0
M  V30 1705 C 153.79 4.32318 -5.28763 0
M  V30 1706 O 153.478 4.6078 -6.58739 0
M  V30 1707 H 153.21 0.605307 -0.300965 0
M  V30 1708 H 155.764 1.45673 -1.44806 0
M  V30 1709 H 153.994 3.83315 -0.51055 0
M  V30 1710 H 155.683 3.9554 -0.911182 0
M  V30 1711 H 156.449 3.50403 -3.35325 0
M  V30 1712 H 152.328 4.02692 -2.24411 0
M  V30 1713 H 155.872 4.02704 -5.69627 0
M  V30 1714 H 151.769 4.55059 -4.57812 0
M  V30 1715 H 152.537 4.78492 -6.64069 0
M  V30 1716 N 155.201 0.870884 1.31352 0
M  V30 1717 C 156.612 0.534714 1.78879 0
M  V30 1718 C 156.963 -0.948423 1.71754 0
M  V30 1719 O 156.088 -1.74055 1.28584 0
M  V30 1720 C 156.683 0.963839 3.24801 0
M  V30 1721 C 155.242 0.679311 3.70219 0
M  V30 1722 C 154.389 1.15465 2.52117 0
M  V30 1723 H 157.34 1.05651 1.18421 0
M  V30 1724 H 157.361 0.286892 3.79417 0
M  V30 1725 H 156.873 2.04332 3.29955 0
M  V30 1726 H 154.974 -0.388769 3.70566 0
M  V30 1727 H 155.087 1.25698 4.62317 0
M  V30 1728 H 153.451 0.574383 2.48139 0
M  V30 1729 H 154.234 2.24157 2.60016 0
M  V30 1730 N 156.679 -1.44442 0.630414 0
M  V30 1731 C 157.589 -2.34476 -0.0761693 0
M  V30 1732 C 158.605 -1.52576 -0.836449 0
M  V30 1733 O 159.781 -1.85307 -0.788874 0
M  V30 1734 C 156.846 -3.30545 -1.04599 0
M  V30 1735 C 155.907 -4.28352 -0.28516 0
M  V30 1736 C 155.14 -5.19831 -1.20878 0
M  V30 1737 O 155.363 -5.15223 -2.44747 0
M  V30 1738 O 154.297 -5.97892 -0.693491 0
M  V30 1739 H 158.123 -2.96345 0.664324 0
M  V30 1740 H 155.708 -1.44203 0.39061 0
M  V30 1741 H 157.59 -3.89681 -1.60396 0
M  V30 1742 H 156.265 -2.7121 -1.76711 0
M  V30 1743 H 155.172 -3.72764 0.315837 0
M  V30 1744 H 156.505 -4.90605 0.395924 0
M  V30 1745 N 158.157 -0.370918 -1.53173 0
M  V30 1746 C 159.382 0.220293 -2.06227 0
M  V30 1747 C 159.807 1.41243 -1.24225 0
M  V30 1748 O 159.165 1.79387 -0.262645 0
M  V30 1749 C 159.213 0.586663 -3.55796 0
M  V30 1750 O 158.317 1.68317 -3.76488 0
M  V30 1751 H 157.658 0.0308099 -0.663285 0
M  V30 1752 H 160.188 -0.533068 -1.97534 0
M  V30 1753 H 160.198 0.85617 -3.98916 0
M  V30 1754 H 158.873 -0.285013 -4.14922 0
M  V30 1755 H 157.45 1.40881 -3.45264 0
M  V30 1756 N 159.635 1.57281 -0.100228 0
M  V30 1757 C 160.865 1.98591 0.569681 0
M  V30 1758 C 161.273 0.978315 1.61943 0
M  V30 1759 O 160.616 -0.0396108 1.83657 0
M  V30 1760 C 160.678 3.36282 1.271 0
M  V30 1761 C 160.342 4.55488 0.371409 0
M  V30 1762 C 161.339 5.18491 -0.382504 0
M  V30 1763 C 159.024 5.01474 0.287965 0
M  V30 1764 C 161.018 6.25852 -1.20779 0
M  V30 1765 C 158.705 6.08701 -0.540965 0
M  V30 1766 C 159.703 6.70755 -1.28749 0
M  V30 1767 O 159.391 7.75914 -2.10269 0
M  V30 1768 H 159.123 0.65752 0.156982 0
M  V30 1769 H 161.677 2.0463 -0.177734 0
M  V30 1770 H 159.907 3.26941 2.0651 0
M  V30 1771 H 161.596 3.62005 1.83595 0
M  V30 1772 H 162.362 4.83891 -0.3278 0
M  V30 1773 H 158.241 4.52932 0.858689 0
M  V30 1774 H 161.785 6.74218 -1.79096 0
M  V30 1775 H 157.682 6.42732 -0.597131 0
M  V30 1776 H 158.45 7.92925 -2.03007 0
M  V30 1777 N 161.113 -0.173488 1.56642 0
M  V30 1778 C 162.06 -1.21482 1.96242 0
M  V30 1779 C 163.03 -1.44104 0.826027 0
M  V30 1780 O 164.215 -1.5688 1.08597 0
M  V30 1781 C 161.355 -2.54964 2.32567 0
M  V30 1782 C 160.468 -2.39739 3.59373 0
M  V30 1783 C 159.603 -3.66072 3.84921 0
M  V30 1784 C 158.642 -3.45771 5.05083 0
M  V30 1785 N 157.779 -4.64169 5.26775 0
M  V30 1786 H 162.619 -0.870123 2.85014 0
M  V30 1787 H 160.156 -0.418245 1.41029 0
M  V30 1788 H 162.114 -3.32758 2.5165 0
M  V30 1789 H 160.744 -2.87433 1.46908 0
M  V30 1790 H 159.796 -1.53131 3.48217 0
M  V30 1791 H 161.108 -2.20683 4.47326 0
M  V30 1792 H 160.262 -4.52303 4.0436 0
M  V30 1793 H 159.001 -3.88105 2.9534 0
M  V30 1794 H 158.006 -2.57927 4.85545 0
M  V30 1795 H 159.231 -3.25163 5.96193 0
M  V30 1796 H 157.177 -4.86425 4.40144 0
M  V30 1797 H 157.094 -4.48019 6.08946 0
M  V30 1798 H 158.362 -5.51689 5.5069 0
M  V30 1799 N 162.591 -1.51276 -0.441967 0
M  V30 1800 C 163.837 -1.63958 -1.19355 0
M  V30 1801 C 164.17 -0.352543 -1.90973 0
M  V30 1802 O 163.445 0.647627 -1.83401 0
M  V30 1803 C 163.728 -2.83979 -2.21422 0
M  V30 1804 C 163.581 -4.22646 -1.53918 0
M  V30 1805 C 164.9 -2.99521 -3.22451 0
M  V30 1806 H 162.019 -0.596709 -0.432559 0
M  V30 1807 H 164.661 -1.83748 -0.483398 0
M  V30 1808 H 162.811 -2.67237 -2.81987 0
M  V30 1809 H 164.483 -4.51045 -0.967256 0
M  V30 1810 H 162.726 -4.25558 -0.841615 0
M  V30 1811 H 163.397 -5.02609 -2.28229 0
M  V30 1812 H 165.873 -3.14944 -2.71937 0
M  V30 1813 H 164.749 -3.85072 -3.91166 0
M  V30 1814 H 165.01 -2.11391 -3.88287 0
M  V30 1815 N 164.069 0.697108 -1.41344 0
M  V30 1816 C 165.485 1.00751 -1.2378 0
M  V30 1817 C 165.685 2.01105 -0.126066 0
M  V30 1818 O 164.741 2.47295 0.51004 0
M  V30 1819 C 166.054 1.53359 -2.58653 0
M  V30 1820 C 167.602 1.6525 -2.65822 0
M  V30 1821 C 168.077 2.2126 -4.01009 0
M  V30 1822 N 169.568 2.28622 -4.02847 0
M  V30 1823 C 170.303 2.72984 -5.04249 0
M  V30 1824 N 169.799 3.16962 -6.16041 0
M  V30 1825 N 171.592 2.72534 -4.91611 0
M  V30 1826 H 163.743 0.0322662 -2.12375 0
M  V30 1827 H 166.006 0.0768853 -0.944877 0
M  V30 1828 H 165.712 0.870773 -3.4075 0
M  V30 1829 H 165.586 2.51597 -2.81032 0
M  V30 1830 H 167.973 2.30644 -1.84086 0
M  V30 1831 H 168.054 0.655614 -2.47256 0
M  V30 1832 H 167.698 1.56482 -4.83193 0
M  V30 1833 H 167.628 3.21698 -4.16915 0
M  V30 1834 H 170.119 1.97585 -3.22131 0
M  V30 1835 H 170.432 3.49434 -6.89287 0
M  V30 1836 H 168.777 3.14875 -6.1958 0
M  V30 1837 H 171.968 2.37525 -4.0336 0
M  V30 1838 H 172.141 3.06789 -5.70775 0
M  V30 1839 N 165.547 1.27147 0.931209 0
M  V30 1840 C 166.793 1.13446 1.68101 0
M  V30 1841 C 167.126 -0.319628 1.91552 0
M  V30 1842 O 166.401 -1.23407 1.50336 0
M  V30 1843 C 166.684 1.91482 3.0497 0
M  V30 1844 C 166.537 3.44855 2.88782 0
M  V30 1845 C 167.856 1.71651 4.05246 0
M  V30 1846 H 164.975 0.413498 0.610072 0
M  V30 1847 H 167.617 1.56261 1.08086 0
M  V30 1848 H 165.767 1.55095 3.56199 0
M  V30 1849 H 167.439 3.9105 2.44698 0
M  V30 1850 H 165.682 3.71373 2.24198 0
M  V30 1851 H 166.353 3.94694 3.85902 0
M  V30 1852 H 168.829 2.0337 3.63015 0
M  V30 1853 H 167.705 2.28651 4.99009 0
M  V30 1854 H 167.966 0.663555 4.37092 0
M  V30 1855 N 167.025 -1.13721 1.09112 0
M  V30 1856 C 168.274 -1.84275 0.82009 0
M  V30 1857 C 168.587 -1.84253 -0.656509 0
M  V30 1858 O 169.793 -2.50668 -1.04296 0
M  V30 1859 C 168.249 -3.30825 1.41714 0
M  V30 1860 C 167.857 -3.39244 2.92605 0
M  V30 1861 C 169.601 -4.06443 1.22492 0
M  V30 1862 C 167.508 -4.80047 3.45411 0
M  V30 1863 H 166.438 -0.690387 0.30312 0
M  V30 1864 H 169.089 -1.28146 1.31343 0
M  V30 1865 H 167.471 -3.86737 0.851498 0
M  V30 1866 H 168.645 -2.93344 3.55367 0
M  V30 1867 H 166.96 -2.77088 3.10823 0
M  V30 1868 H 169.557 -5.10387 1.59402 0
M  V30 1869 H 169.9 -4.15972 0.165299 0
M  V30 1870 H 170.433 -3.56852 1.75788 0
M  V30 1871 H 167.172 -4.75709 4.50978 0
M  V30 1872 H 166.692 -5.26455 2.87411 0
M  V30 1873 H 168.371 -5.48957 3.42425 0
M  V30 1874 N 168.503 -0.877838 -1.30888 0
M  V30 1875 C 169.914 -0.544193 -1.78593 0
M  V30 1876 C 170.265 0.939301 -1.72254 0
M  V30 1877 O 169.39 1.7337 -1.29505 0
M  V30 1878 C 169.985 -0.98105 -3.24285 0
M  V30 1879 C 168.544 -0.698935 -3.69854 0
M  V30 1880 C 167.691 -1.168 -2.51502 0
M  V30 1881 H 170.642 -1.06278 -1.17859 0
M  V30 1882 H 170.663 -0.307009 -3.79259 0
M  V30 1883 H 170.175 -2.06079 -3.28866 0
M  V30 1884 H 168.276 0.369112 -3.70767 0
M  V30 1885 H 168.389 -1.28148 -4.61644 0
M  V30 1886 H 166.753 -0.587535 -2.47831 0
M  V30 1887 H 167.536 -2.25533 -2.58824 0
M  V30 1888 N 169.982 1.44106 -0.638065 0
M  V30 1889 C 171.207 2.0685 -0.150916 0
M  V30 1890 C 171.632 1.47417 1.16833 0
M  V30 1891 O 170.99 0.578264 1.71831 0
M  V30 1892 C 171.038 3.60555 -0.05708 0
M  V30 1893 O 170.142 4.00465 0.984972 0
M  V30 1894 H 169.483 0.658151 -0.0879399 0
M  V30 1895 H 172.013 1.84865 -0.876707 0
M  V30 1896 H 172.023 4.07789 0.131232 0
M  V30 1897 H 170.698 4.03193 -1.02021 0
M  V30 1898 H 169.275 3.64849 0.770672 0
M  V30 1899 N 171.46 0.379036 1.52974 0
M  V30 1900 C 172.707 -0.206421 2.01445 0
M  V30 1901 C 173.035 -1.47668 1.26587 0
M  V30 1902 O 172.29 -1.92514 0.351675 0
M  V30 1903 C 172.589 -0.53096 3.53434 0
M  V30 1904 C 172.255 0.646546 4.46241 0
M  V30 1905 C 170.917 0.969604 4.7133 0
M  V30 1906 C 173.269 1.43479 5.01062 0
M  V30 1907 C 170.597 2.08263 5.48492 0
M  V30 1908 C 172.949 2.53834 5.7944 0
M  V30 1909 C 171.613 2.86659 6.02812 0
M  V30 1910 H 170.883 -0.0755349 0.73714 0
M  V30 1911 H 173.53 0.514271 1.84465 0
M  V30 1912 H 171.835 -1.33285 3.68432 0
M  V30 1913 H 173.532 -0.996417 3.88423 0
M  V30 1914 H 170.122 0.384734 4.2687 0
M  V30 1915 H 174.306 1.19844 4.81613 0
M  V30 1916 H 169.562 2.34078 5.64816 0
M  V30 1917 H 173.736 3.15319 6.20924 0
M  V30 1918 H 171.363 3.73026 6.62387 0
M  V30 1919 N 172.938 -1.57226 0.108567 0
M  V30 1920 C 173.901 -2.13602 -0.831082 0
M  V30 1921 C 174.901 -1.06841 -1.20173 0
M  V30 1922 O 176.091 -1.32666 -1.12895 0
M  V30 1923 C 173.223 -2.66769 -2.12243 0
M  V30 1924 H 174.416 -2.97951 -0.341317 0
M  V30 1925 H 171.969 -1.55667 -0.14057 0
M  V30 1926 H 172.704 -1.85977 -2.65675 0
M  V30 1927 H 172.489 -3.44839 -1.86625 0
M  V30 1928 H 173.979 -3.10332 -2.79435 0
M  V30 1929 N 174.416 0.165178 -1.56732 0
M  V30 1930 C 175.348 1.22911 -1.93457 0
M  V30 1931 C 176.361 1.40152 -0.828333 0
M  V30 1932 O 177.55 1.40046 -1.10677 0
M  V30 1933 C 174.65 2.59686 -2.17753 0
M  V30 1934 C 173.823 2.63663 -3.48999 0
M  V30 1935 C 172.882 3.81845 -3.62051 0
M  V30 1936 O 171.908 3.67559 -4.34613 0
M  V30 1937 N 173.11 4.98557 -2.97357 0
M  V30 1938 H 175.875 0.917118 -2.85323 0
M  V30 1939 H 173.436 0.354895 -1.57962 0
M  V30 1940 H 175.428 3.37225 -2.23743 0
M  V30 1941 H 173.998 2.83251 -1.32242 0
M  V30 1942 H 173.218 1.72173 -3.54612 0
M  V30 1943 H 174.506 2.63336 -4.35352 0
M  V30 1944 H 173.904 5.13065 -2.38287 0
M  V30 1945 H 172.461 5.73936 -3.08934 0
M  V30 1946 N 175.894 1.51508 0.433938 0
M  V30 1947 C 176.827 1.67756 1.54704 0
M  V30 1948 C 177.805 0.525127 1.53887 0
M  V30 1949 O 178.989 0.749393 1.72963 0
M  V30 1950 C 176.116 1.69424 2.9328 0
M  V30 1951 C 175.162 2.90673 3.12108 0
M  V30 1952 S 175.995 4.51431 2.88046 0
M  V30 1953 C 177.151 4.55849 4.28897 0
M  V30 1954 H 177.384 2.61904 1.40689 0
M  V30 1955 H 174.917 1.41235 0.62386 0
M  V30 1956 H 176.875 1.7107 3.73156 0
M  V30 1957 H 175.536 0.764464 3.04655 0
M  V30 1958 H 174.729 2.88251 4.13434 0
M  V30 1959 H 174.331 2.86786 2.40062 0
M  V30 1960 H 176.623 4.31699 5.22152 0
M  V30 1961 H 177.566 5.57676 4.36351 0
M  V30 1962 H 177.974 3.85137 4.12711 0
M  V30 1963 N 177.372 -0.689602 1.41712 0
M  V30 1964 C 178.302 -1.81577 1.46806 0
M  V30 1965 C 179.283 -1.66945 0.326105 0
M  V30 1966 O 180.468 -1.86588 0.538377 0
M  V30 1967 C 177.598 -3.19762 1.35535 0
M  V30 1968 C 176.552 -3.49107 2.47605 0
M  V30 1969 C 175.878 -4.86711 2.21397 0
M  V30 1970 C 177.178 -3.47483 3.89939 0
M  V30 1971 H 178.872 -1.7757 2.41058 0
M  V30 1972 H 176.418 -0.852887 1.16025 0
M  V30 1973 H 178.371 -3.98263 1.3771 0
M  V30 1974 H 177.095 -3.24409 0.377708 0
M  V30 1975 H 175.754 -2.72959 2.44722 0
M  V30 1976 H 175.402 -4.8799 1.21961 0
M  V30 1977 H 175.102 -5.0731 2.96497 0
M  V30 1978 H 176.626 -5.67515 2.25297 0
M  V30 1979 H 178.04 -4.1598 3.94505 0
M  V30 1980 H 176.437 -3.79615 4.64771 0
M  V30 1981 H 177.507 -2.46341 4.17665 0
M  V30 1982 N 178.85 -1.27639 -0.924453 0
M  V30 1983 C 180.098 -1.13941 -1.66918 0
M  V30 1984 C 180.419 0.314589 -1.92446 0
M  V30 1985 O 179.689 1.21964 -1.53303 0
M  V30 1986 H 178.269 -0.418678 -0.618642 0
M  V30 1987 H 180.931 -1.60213 -1.10985 0
M  V30 1988 H 180.027 -1.67094 -2.63602 0
M  V30 1989 N 180.328 1.1314 -1.09713 0
M  V30 1990 C 181.574 1.84757 -0.836224 0
M  V30 1991 C 181.907 1.8347 0.636598 0
M  V30 1992 O 181.182 1.27491 1.46889 0
M  V30 1993 C 181.465 3.32782 -1.37578 0
M  V30 1994 C 181.318 3.42567 -2.91493 0
M  V30 1995 C 182.637 4.28307 -1.01198 0
M  V30 1996 H 179.756 0.67082 -0.305236 0
M  V30 1997 H 182.398 1.3278 -1.35903 0
M  V30 1998 H 180.548 3.77177 -0.931097 0
M  V30 1999 H 182.22 3.06862 -3.44432 0
M  V30 2000 H 180.463 2.83349 -3.28475 0
M  V30 2001 H 181.134 4.46674 -3.24324 0
M  V30 2002 H 183.61 3.91999 -1.39556 0
M  V30 2003 H 182.486 5.30307 -1.41653 0
M  V30 2004 H 182.747 4.42029 0.0794833 0
M  V30 2005 N 181.806 0.884767 1.30421 0
M  V30 2006 C 183.222 0.57874 1.48737 0
M  V30 2007 C 183.422 -0.883567 1.81095 0
M  V30 2008 O 182.478 -1.6648 1.89844 0
M  V30 2009 C 183.791 1.49171 2.61091 0
M  V30 2010 C 185.339 1.49532 2.74971 0
M  V30 2011 C 185.814 2.39421 3.90438 0
M  V30 2012 N 187.305 2.37383 3.97748 0
M  V30 2013 C 188.04 3.03647 4.86401 0
M  V30 2014 N 187.536 3.79136 5.79852 0
M  V30 2015 N 189.329 2.9288 4.79768 0
M  V30 2016 H 181.48 1.83075 1.0769 0
M  V30 2017 H 183.743 0.783637 0.533495 0
M  V30 2018 H 183.449 2.53291 2.44001 0
M  V30 2019 H 183.323 1.20113 3.57565 0
M  V30 2020 H 185.71 0.46163 2.91467 0
M  V30 2021 H 185.791 1.8262 1.79119 0
M  V30 2022 H 185.435 3.42874 3.74699 0
M  V30 2023 H 185.365 2.03649 4.85628 0
M  V30 2024 H 187.856 1.82525 3.30897 0
M  V30 2025 H 188.169 4.26789 6.4426 0
M  V30 2026 H 186.514 3.83243 5.79784 0
M  V30 2027 H 189.705 2.33433 4.05742 0
M  V30 2028 H 189.878 3.448 5.4865 0
M  V30 2029 N 183.284 -1.43765 0.645699 0
M  V30 2030 C 184.531 -2.01898 0.15604 0
M  V30 2031 C 184.859 -1.50887 -1.22733 0
M  V30 2032 O 184.114 -0.689271 -1.8316 0
M  V30 2033 C 184.413 -3.57238 0.107679 0
M  V30 2034 C 184.079 -4.27564 1.43178 0
M  V30 2035 C 182.741 -4.46492 1.7944 0
M  V30 2036 C 185.093 -4.67454 2.30513 0
M  V30 2037 C 182.421 -5.02573 3.02716 0
M  V30 2038 C 184.773 -5.24901 3.53074 0
M  V30 2039 C 183.437 -5.42046 3.89541 0
M  V30 2040 H 182.707 -0.738797 0.057099 0
M  V30 2041 H 185.354 -1.72341 0.834912 0
M  V30 2042 H 183.659 -3.86293 -0.654618 0
M  V30 2043 H 185.356 -3.99965 -0.287938 0
M  V30 2044 H 181.946 -4.13171 1.13963 0
M  V30 2045 H 186.13 -4.5253 2.0379 0
M  V30 2046 H 181.386 -5.14033 3.31028 0
M  V30 2047 H 185.56 -5.54758 4.20971 0
M  V30 2048 H 183.187 -5.85268 4.85145 0
M  V30 2049 N 184.763 -0.387143 -1.52771 0
M  V30 2050 C 185.711 0.463953 -2.27926 0
M  V30 2051 C 186.705 1.06493 -1.31741 0
M  V30 2052 O 187.911 1.00565 -1.49287 0
M  V30 2053 H 184.286 0.16837 -0.732909 0
M  V30 2054 H 186.257 -0.19141 -2.97785 0
M  V30 2055 C 185.006 1.5803 -3.09713 0
M  V30 2056 H 184.329 1.12718 -3.83581 0
M  V30 2057 H 185.769 2.15008 -3.65442 0
M  V30 2058 C 184.228 2.53509 -2.2189 0
M  V30 2059 O 184.758 3.56863 -1.84422 0
M  V30 2060 N 182.964 2.23199 -1.86093 0
M  V30 2061 H 182.511 1.39185 -2.16761 0
M  V30 2062 H 182.469 2.87333 -1.27621 0
M  V30 2063 N 186.241 1.57166 -0.116904 0
M  V30 2064 C 187.191 2.11756 0.845178 0
M  V30 2065 C 188.175 1.03783 1.22955 0
M  V30 2066 O 189.367 1.3002 1.20099 0
M  V30 2067 C 186.496 2.71886 2.09602 0
M  V30 2068 C 185.582 3.86937 1.7361 0
M  V30 2069 N 185.973 4.94073 1.08284 0
M  V30 2070 C 184.271 3.97082 2.03082 0
M  V30 2071 C 184.972 5.74477 0.913855 0
M  V30 2072 N 183.948 5.2423 1.43818 0
M  V30 2073 H 187.75 2.91967 0.336523 0
M  V30 2074 H 185.264 1.62174 0.0856332 0
M  V30 2075 H 187.261 3.09338 2.79492 0
M  V30 2076 H 185.921 1.93138 2.61013 0
M  V30 2077 H 186.932 5.12483 0.747067 0
M  V30 2078 H 183.609 3.29372 2.56554 0
M  V30 2079 H 184.999 6.70701 0.40125 0
M  V30 2080 N 187.719 -0.156864 1.56817 0
M  V30 2081 C 188.944 -0.890331 1.87318 0
M  V30 2082 C 189.369 -1.74394 0.704855 0
M  V30 2083 O 188.727 -1.77972 -0.345786 0
M  V30 2084 C 188.775 -1.73102 3.16336 0
M  V30 2085 O 187.879 -2.83422 2.99576 0
M  V30 2086 H 187.22 -0.24857 0.615718 0
M  V30 2087 H 189.75 -0.150649 2.04045 0
M  V30 2088 H 189.76 -2.12803 3.48107 0
M  V30 2089 H 188.435 -1.10412 4.00976 0
M  V30 2090 H 187.012 -2.47199 2.7919 0
M  V30 2091 N 189.197 -1.51736 -0.425897 0
M  V30 2092 C 190.13 -1.68574 -1.53812 0
M  V30 2093 C 191.108 -0.53328 -1.53606 0
M  V30 2094 O 192.292 -0.758555 -1.72564 0
M  V30 2095 C 189.419 -1.70977 -2.92377 0
M  V30 2096 C 188.465 -2.92324 -3.10563 0
M  V30 2097 S 189.298 -4.52952 -2.85648 0
M  V30 2098 C 190.454 -4.58117 -4.26474 0
M  V30 2099 H 190.687 -2.62647 -1.39298 0
M  V30 2100 H 188.22 -1.41564 -0.616361 0
M  V30 2101 H 190.178 -1.73047 -3.72243 0
M  V30 2102 H 188.839 -0.78061 -3.04245 0
M  V30 2103 H 188.032 -2.90439 -4.11899 0
M  V30 2104 H 187.634 -2.88055 -2.38538 0
M  V30 2105 H 189.926 -4.34462 -5.19855 0
M  V30 2106 H 190.869 -5.59983 -4.33388 0
M  V30 2107 H 191.277 -3.8732 -4.10662 0
M  V30 2108 N 190.675 0.682077 -1.42076 0
M  V30 2109 C 191.607 1.80755 -1.40926 0
M  V30 2110 C 192.62 1.59833 -0.309398 0
M  V30 2111 O 193.809 1.69087 -0.572014 0
M  V30 2112 C 190.909 3.17744 -1.17865 0
M  V30 2113 C 190.082 3.65578 -2.40149 0
M  V30 2114 C 189.141 4.81277 -2.12742 0
M  V30 2115 O 188.167 4.92197 -2.85887 0
M  V30 2116 N 189.369 5.69474 -1.12602 0
M  V30 2117 H 192.134 1.82229 -2.37935 0
M  V30 2118 H 189.695 0.864903 -1.36861 0
M  V30 2119 H 191.687 3.9279 -0.9746 0
M  V30 2120 H 190.257 3.11214 -0.294068 0
M  V30 2121 H 189.477 2.81291 -2.76169 0
M  V30 2122 H 190.765 3.94278 -3.21593 0
M  V30 2123 H 190.163 5.63297 -0.520899 0
M  V30 2124 H 188.72 6.44363 -0.981842 0
M  V30 2125 N 192.153 1.28127 0.917671 0
M  V30 2126 C 193.569 1.05749 1.19538 0
M  V30 2127 C 193.769 -0.202633 2.00479 0
M  V30 2128 O 192.825 -0.905382 2.3571 0
M  V30 2129 C 194.138 2.30273 1.93378 0
M  V30 2130 C 195.686 2.35412 2.06277 0
M  V30 2131 C 196.161 3.59692 2.83524 0
M  V30 2132 N 197.652 3.60309 2.91087 0
M  V30 2133 C 198.387 4.53147 3.51348 0
M  V30 2134 N 197.883 5.563 4.12919 0
M  V30 2135 N 199.676 4.40751 3.48849 0
M  V30 2136 H 191.827 2.09024 0.377184 0
M  V30 2137 H 194.09 0.919798 0.22951 0
M  V30 2138 H 193.796 3.22055 1.41328 0
M  V30 2139 H 193.67 2.36378 2.93947 0
M  V30 2140 H 196.057 1.4413 2.57508 0
M  V30 2141 H 196.138 2.33304 1.04895 0
M  V30 2142 H 195.782 4.51316 2.32973 0
M  V30 2143 H 195.712 3.59054 3.85211 0
M  V30 2144 H 198.203 2.85714 2.47338 0
M  V30 2145 H 198.516 6.2329 4.56869 0
M  V30 2146 H 196.861 5.60131 4.11435 0
M  V30 2147 H 200.052 3.59367 2.99955 0
M  V30 2148 H 200.225 5.13291 3.9552 0
M  V30 2149 N 193.631 -1.12557 1.10312 0
M  V30 2150 C 194.561 -2.20341 0.772798 0
M  V30 2151 C 195.542 -1.68198 -0.25365 0
M  V30 2152 O 196.727 -1.93831 -0.119699 0
M  V30 2153 C 193.857 -3.46709 0.202443 0
M  V30 2154 C 192.811 -4.11996 1.15943 0
M  V30 2155 C 192.137 -5.328 0.450345 0
M  V30 2156 C 193.437 -4.5828 2.50552 0
M  V30 2157 H 195.131 -2.48229 1.674 0
M  V30 2158 H 192.677 -1.19308 0.806326 0
M  V30 2159 H 194.63 -4.2138 -0.0407752 0
M  V30 2160 H 193.354 -3.18245 -0.734001 0
M  V30 2161 H 192.013 -3.39305 1.38808 0
M  V30 2162 H 191.661 -5.00602 -0.490531 0
M  V30 2163 H 191.361 -5.7743 1.08851 0
M  V30 2164 H 192.885 -6.10219 0.215642 0
M  V30 2165 H 194.299 -5.2433 2.31843 0
M  V30 2166 H 192.696 -5.13683 3.10242 0
M  V30 2167 H 193.766 -3.72329 3.10643 0
M  V30 2168 N 195.109 -0.891671 -1.2995 0
M  V30 2169 C 196.019 -0.367691 -2.31701 0
M  V30 2170 C 197.035 0.533486 -1.6562 0
M  V30 2171 O 198.211 0.424997 -1.96865 0
M  V30 2172 C 195.276 0.403406 -3.44345 0
M  V30 2173 C 194.337 -0.528328 -4.26037 0
M  V30 2174 C 193.57 0.206063 -5.33302 0
M  V30 2175 O 193.793 1.43119 -5.52153 0
M  V30 2176 O 192.727 -0.447281 -6.00236 0
M  V30 2177 H 196.553 -1.21163 -2.78484 0
M  V30 2178 H 194.138 -0.655725 -1.34241 0
M  V30 2179 H 196.02 0.839753 -4.12948 0
M  V30 2180 H 194.695 1.22354 -2.99685 0
M  V30 2181 H 193.602 -1.01362 -3.60106 0
M  V30 2182 H 194.935 -1.31465 -4.74318 0
M  V30 2183 N 196.587 1.43421 -0.653314 0
M  V30 2184 C 197.812 2.06678 -0.172846 0
M  V30 2185 C 198.237 1.48648 1.15262 0
M  V30 2186 O 197.595 0.596457 1.71208 0
M  V30 2187 C 197.643 3.60474 -0.0953184 0
M  V30 2188 O 196.747 4.01487 0.942442 0
M  V30 2189 H 196.088 0.657181 -0.0949155 0
M  V30 2190 H 198.618 1.83925 -0.896265 0
M  V30 2191 H 198.628 4.07905 0.0879728 0
M  V30 2192 H 197.303 4.02088 -1.06291 0
M  V30 2193 H 195.88 3.65646 0.731932 0
M  V30 2194 N 198.065 0.39524 1.52563 0
M  V30 2195 C 199.295 -0.184675 2.05773 0
M  V30 2196 C 199.703 -1.40571 1.26635 0
M  V30 2197 O 199.046 -1.81105 0.30769 0
M  V30 2198 C 199.108 -0.613551 3.54226 0
M  V30 2199 C 198.772 0.49484 4.54313 0
M  V30 2200 C 199.769 1.3541 5.01956 0
M  V30 2201 C 197.454 0.663565 4.97898 0
M  V30 2202 C 199.448 2.36716 5.91814 0
M  V30 2203 C 197.135 1.67996 5.87555 0
M  V30 2204 C 198.133 2.53017 6.34406 0
M  V30 2205 O 197.821 3.52917 7.22291 0
M  V30 2206 H 197.553 -0.030077 0.675331 0
M  V30 2207 H 200.107 0.560708 1.97599 0
M  V30 2208 H 198.337 -1.411 3.60038 0
M  V30 2209 H 200.026 -1.11981 3.90148 0
M  V30 2210 H 200.792 1.23509 4.6901 0
M  V30 2211 H 196.671 0.0114913 4.60999 0
M  V30 2212 H 200.215 3.03113 6.28306 0
M  V30 2213 H 196.112 1.79933 6.19915 0
M  V30 2214 H 196.88 3.48996 7.40367 0
M  V30 2215 N 199.544 -1.57102 0.125237 0
M  V30 2216 C 200.793 -1.94582 -0.531095 0
M  V30 2217 C 201.106 -1.01126 -1.6743 0
M  V30 2218 O 202.312 -1.28097 -2.39381 0
M  V30 2219 C 200.768 -3.45839 -0.996164 0
M  V30 2220 C 200.376 -4.47842 0.118926 0
M  V30 2221 C 202.12 -3.92227 -1.62352 0
M  V30 2222 C 200.027 -5.90284 -0.363192 0
M  V30 2223 H 198.957 -0.726391 -0.20217 0
M  V30 2224 H 201.608 -1.82339 0.206092 0
M  V30 2225 H 199.99 -3.53338 -1.78796 0
M  V30 2226 H 201.164 -4.52018 0.895358 0
M  V30 2227 H 199.479 -4.11243 0.653324 0
M  V30 2228 H 202.076 -4.96069 -1.99548 0
M  V30 2229 H 202.419 -3.32552 -2.50429 0
M  V30 2230 H 202.952 -3.87554 -0.897019 0
M  V30 2231 H 199.691 -6.53728 0.481679 0
M  V30 2232 H 199.211 -5.89515 -1.10597 0
M  V30 2233 H 200.89 -6.41752 -0.822377 0
M  V30 2234 N 201.022 0.148545 -1.56898 0
M  V30 2235 C 201.952 1.18524 -2.01182 0
M  V30 2236 C 202.933 1.4489 -0.891123 0
M  V30 2237 O 204.118 1.55836 -1.15882 0
M  V30 2238 C 201.248 2.51879 -2.39112 0
M  V30 2239 C 200.202 2.40038 -3.54353 0
M  V30 2240 C 199.528 3.78089 -3.78091 0
M  V30 2241 C 200.828 1.88577 -4.87069 0
M  V30 2242 H 202.522 0.817029 -2.88036 0
M  V30 2243 H 200.068 0.391575 -1.38574 0
M  V30 2244 H 202.021 3.24627 -2.68692 0
M  V30 2245 H 200.745 2.90532 -1.49193 0
M  V30 2246 H 199.404 1.69742 -3.24936 0
M  V30 2247 H 199.052 4.14175 -2.85426 0
M  V30 2248 H 198.752 3.71028 -4.55645 0
M  V30 2249 H 200.276 4.52387 -4.10095 0
M  V30 2250 H 201.69 2.51117 -5.15377 0
M  V30 2251 H 200.087 1.9241 -5.68417 0
M  V30 2252 H 201.157 0.84136 -4.77545 0
M  V30 2253 N 202.5 1.5196 0.417844 0
M  V30 2254 C 203.41 1.77554 1.53336 0
M  V30 2255 C 204.426 0.660655 1.6097 0
M  V30 2256 O 205.602 0.945099 1.77848 0
M  V30 2257 C 202.667 1.91291 2.89152 0
M  V30 2258 C 201.728 3.15183 2.91475 0
M  V30 2259 C 200.961 3.28256 4.20813 0
M  V30 2260 O 201.184 2.46798 5.14244 0
M  V30 2261 O 200.118 4.21356 4.29817 0
M  V30 2262 H 203.944 2.7222 1.34647 0
M  V30 2263 H 201.529 1.36698 0.602828 0
M  V30 2264 H 203.411 2.02199 3.69721 0
M  V30 2265 H 202.086 0.998129 3.07927 0
M  V30 2266 H 200.993 3.09739 2.09791 0
M  V30 2267 H 202.326 4.06414 2.77648 0
M  V30 2268 N 203.978 -0.674533 1.42435 0
M  V30 2269 C 204.91 -1.80005 1.41883 0
M  V30 2270 C 205.923 -1.59667 0.31787 0
M  V30 2271 O 207.112 -1.68781 0.580973 0
M  V30 2272 C 204.212 -3.17114 1.19549 0
M  V30 2273 C 203.385 -3.64299 2.42084 0
M  V30 2274 C 202.444 -4.80142 2.15291 0
M  V30 2275 O 201.47 -4.90673 2.88493 0
M  V30 2276 N 202.672 -5.68869 1.1562 0
M  V30 2277 H 205.437 -1.80964 2.38898 0
M  V30 2278 H 202.998 -0.857633 1.37318 0
M  V30 2279 H 204.99 -3.92267 0.995417 0
M  V30 2280 H 203.56 -3.11053 0.310569 0
M  V30 2281 H 202.78 -2.79822 2.77657 0
M  V30 2282 H 204.068 -3.92567 3.23679 0
M  V30 2283 H 203.466 -5.63012 0.550765 0
M  V30 2284 H 202.023 -6.43833 1.016 0
M  V30 2285 N 205.456 -1.28612 -0.910864 0
M  V30 2286 C 206.696 -1.1719 -1.67469 0
M  V30 2287 C 207.06 0.274441 -1.90028 0
M  V30 2288 O 208.261 0.511425 -2.6389 0
M  V30 2289 C 206.532 -1.95137 -2.99427 0
M  V30 2290 S 208.091 -2.00122 -3.90508 0
M  V30 2291 H 204.909 -0.41806 -0.575106 0
M  V30 2292 H 207.511 -1.6275 -1.08317 0
M  V30 2293 H 206.215 -2.99381 -2.80712 0
M  V30 2294 H 205.746 -1.50137 -3.63624 0
M  V30 2295 H 207.761 -1.10981 -4.8363 0
M  V30 2296 N 206.934 1.1197 -1.10907 0
M  V30 2297 C 208.164 1.8713 -0.875553 0
M  V30 2298 C 208.572 1.8016 0.577843 0
M  V30 2299 O 207.915 1.17699 1.41042 0
M  V30 2300 C 207.977 3.37005 -1.2517 0
M  V30 2301 C 207.641 3.67748 -2.71313 0
M  V30 2302 C 208.638 3.65698 -3.69542 0
M  V30 2303 C 206.323 3.96928 -3.07821 0
M  V30 2304 C 208.317 3.92395 -5.023 0
M  V30 2305 C 206.004 4.23284 -4.40765 0
M  V30 2306 C 207.002 4.21005 -5.37814 0
M  V30 2307 O 206.69 4.46704 -6.68364 0
M  V30 2308 H 206.422 0.598786 -0.313737 0
M  V30 2309 H 208.976 1.42568 -1.47863 0
M  V30 2310 H 207.206 3.82146 -0.591741 0
M  V30 2311 H 208.895 3.93519 -0.994877 0
M  V30 2312 H 209.661 3.43211 -3.42682 0
M  V30 2313 H 205.54 3.97841 -2.32902 0
M  V30 2314 H 209.084 3.90531 -5.78041 0
M  V30 2315 H 204.981 4.45246 -4.67361 0
M  V30 2316 H 205.749 4.64299 -6.74069 0
M  V30 2317 N 208.412 0.89855 1.29475 0
M  V30 2318 C 209.661 0.519863 1.94885 0
M  V30 2319 C 209.974 -0.9383 1.71625 0
M  V30 2320 O 211.18 -1.42445 2.31131 0
M  V30 2321 C 209.636 0.878836 3.49005 0
M  V30 2322 C 209.244 2.35569 3.81066 0
M  V30 2323 C 210.988 0.570004 4.20656 0
M  V30 2324 C 208.895 2.65558 5.28425 0
M  V30 2325 H 207.825 0.190692 0.729488 0
M  V30 2326 H 210.476 1.09539 1.47219 0
M  V30 2327 H 208.858 0.232253 3.95318 0
M  V30 2328 H 210.032 3.04773 3.45616 0
M  V30 2329 H 208.347 2.63343 3.22552 0
M  V30 2330 H 210.944 0.770925 5.29113 0
M  V30 2331 H 211.287 -0.491404 4.1339 0
M  V30 2332 H 211.82 1.17438 3.8007 0
M  V30 2333 H 208.559 3.70493 5.40754 0
M  V30 2334 H 208.079 2.00977 5.65127 0
M  V30 2335 H 209.758 2.51765 5.96006 0
M  V30 2336 N 209.89 -1.43072 0.660911 0
M  V30 2337 C 210.853 -2.29194 -0.0166406 0
M  V30 2338 C 211.853 -1.42609 -0.742912 0
M  V30 2339 O 213.043 -1.64155 -0.583004 0
M  V30 2340 C 210.175 -3.24831 -1.0343 0
M  V30 2341 H 211.368 -2.90596 0.741208 0
M  V30 2342 H 208.921 -1.5048 0.422532 0
M  V30 2343 H 209.656 -2.68339 -1.82111 0
M  V30 2344 H 209.441 -3.88676 -0.517082 0
M  V30 2345 H 210.931 -3.89451 -1.50723 0
M  V30 2346 N 211.368 -0.403325 -1.52352 0
M  V30 2347 C 212.614 0.174605 -2.02047 0
M  V30 2348 C 212.947 1.45282 -1.28867 0
M  V30 2349 O 212.222 1.90483 -0.393257 0
M  V30 2350 C 212.505 0.428238 -3.57545 0
M  V30 2351 C 212.358 -0.866248 -4.4138 0
M  V30 2352 C 213.677 1.21287 -4.23057 0
M  V30 2353 H 210.796 0.0619851 -0.734389 0
M  V30 2354 H 213.438 -0.53565 -1.82293 0
M  V30 2355 H 211.588 1.03327 -3.74507 0
M  V30 2356 H 213.26 -1.50265 -4.3614 0
M  V30 2357 H 211.503 -1.47851 -4.07827 0
M  V30 2358 H 212.174 -0.643249 -5.48239 0
M  V30 2359 H 214.65 0.700703 -4.10158 0
M  V30 2360 H 213.526 1.35909 -5.31808 0
M  V30 2361 H 213.787 2.23193 -3.81625 0
M  V30 2362 N 212.846 1.57033 -0.133567 0
M  V30 2363 C 214.094 1.953 0.519848 0
M  V30 2364 C 214.415 1.01866 1.66278 0
M  V30 2365 O 213.685 0.0776513 1.95746 0
M  V30 2366 H 212.265 0.721091 0.195032 0
M  V30 2367 H 214.927 1.93809 -0.205921 0
M  V30 2368 H 214.023 2.98695 0.904854 0
M  V30 2369 N 214.325 -0.140222 1.56975 0
M  V30 2370 C 215.257 -1.19818 1.95388 0
M  V30 2371 C 216.27 -1.38816 0.850525 0
M  V30 2372 O 217.459 -1.38267 1.12891 0
M  V30 2373 C 214.559 -2.56189 2.21857 0
M  V30 2374 C 213.732 -2.58077 3.5315 0
M  V30 2375 C 212.791 -3.76037 3.6808 0
M  V30 2376 O 211.817 -3.60598 4.40406 0
M  V30 2377 N 213.019 -4.93763 3.05251 0
M  V30 2378 H 215.784 -0.871609 2.86746 0
M  V30 2379 H 213.345 -0.32972 1.58507 0
M  V30 2380 H 215.337 -3.33623 2.2908 0
M  V30 2381 H 213.907 -2.81111 1.36731 0
M  V30 2382 H 213.127 -1.6651 3.57307 0
M  V30 2383 H 214.415 -2.56377 4.39486 0
M  V30 2384 H 213.813 -5.09209 2.46419 0
M  V30 2385 H 212.37 -5.68949 3.18026 0
M  V30 2386 N 215.803 -1.52179 -0.40978 0
M  V30 2387 C 217.052 -1.65434 -1.15388 0
M  V30 2388 C 217.365 -0.390056 -1.91671 0
M  V30 2389 O 218.571 -0.402399 -2.68501 0
M  V30 2390 C 217.027 -2.92279 -2.10003 0
M  V30 2391 C 216.635 -4.25813 -1.39239 0
M  V30 2392 C 218.379 -3.14897 -2.84675 0
M  V30 2393 C 216.286 -5.43782 -2.32498 0
M  V30 2394 H 215.216 -0.616267 -0.434432 0
M  V30 2395 H 217.867 -1.78666 -0.418401 0
M  V30 2396 H 216.249 -2.72744 -2.871 0
M  V30 2397 H 217.423 -4.55828 -0.675099 0
M  V30 2398 H 215.738 -4.09292 -0.766097 0
M  V30 2399 H 218.335 -4.0021 -3.54593 0
M  V30 2400 H 218.678 -2.29103 -3.47588 0
M  V30 2401 H 219.211 -3.34901 -2.14677 0
M  V30 2402 H 215.95 -6.3192 -1.74233 0
M  V30 2403 H 215.47 -5.18106 -3.02201 0
M  V30 2404 H 217.149 -5.76834 -2.93038 0
M  V30 2405 N 217.281 0.66697 -1.42791 0
M  V30 2406 C 218.521 1.43892 -1.4517 0
M  V30 2407 C 218.885 1.91877 -0.0687551 0
M  V30 2408 O 220.086 2.6878 0.0327455 0
M  V30 2409 C 218.357 2.59839 -2.45395 0
M  V30 2410 S 219.916 3.48572 -2.66539 0
M  V30 2411 H 216.734 0.491356 -0.513897 0
M  V30 2412 H 219.336 0.775656 -1.79454 0
M  V30 2413 H 218.04 2.22838 -3.44632 0
M  V30 2414 H 217.571 3.3103 -2.12562 0
M  V30 2415 H 219.586 4.56094 -1.95429 0
M  V30 2416 N 218.759 1.29093 0.90403 0
M  V30 2417 C 219.692 1.08176 2.00931 0
M  V30 2418 C 220.67 -0.005083 1.62599 0
M  V30 2419 O 221.854 0.144765 1.87943 0
M  V30 2420 C 218.981 0.645897 3.32484 0
M  V30 2421 C 218.027 1.73081 3.89801 0
M  V30 2422 S 218.86 3.32905 4.19446 0
M  V30 2423 C 220.016 2.91176 5.54046 0
M  V30 2424 H 220.249 2.01752 2.18365 0
M  V30 2425 H 217.782 1.13191 1.0501 0
M  V30 2426 H 219.74 0.401131 4.08535 0
M  V30 2427 H 218.401 -0.270188 3.12936 0
M  V30 2428 H 217.594 1.37768 4.84805 0
M  V30 2429 H 217.196 1.92888 3.20422 0
M  V30 2430 H 219.488 2.37952 6.34338 0
M  V30 2431 H 220.431 3.85014 5.94281 0
M  V30 2432 H 220.839 2.296 5.15698 0
M  V30 2433 N 220.237 -1.11381 1.11499 0
M  V30 2434 C 221.485 -1.8277 0.862524 0
M  V30 2435 C 221.806 -1.85097 -0.613534 0
M  V30 2436 O 221.076 -1.32198 -1.4457 0
M  V30 2437 H 219.656 -0.676823 0.316101 0
M  V30 2438 H 222.318 -1.34816 1.4075 0
M  V30 2439 H 221.414 -2.86614 1.23527 0
M  V30 2440 N 221.715 -0.905404 -1.28997 0
M  V30 2441 C 222.961 -0.535039 -1.95615 0
M  V30 2442 C 223.294 0.917404 -1.71165 0
M  V30 2443 O 222.569 1.65123 -1.02785 0
M  V30 2444 C 222.852 -0.834918 -3.50287 0
M  V30 2445 C 222.705 -2.33948 -3.84172 0
M  V30 2446 C 224.024 -0.325318 -4.38896 0
M  V30 2447 H 221.143 -0.195861 -0.710498 0
M  V30 2448 H 223.785 -1.13313 -1.52513 0
M  V30 2449 H 221.935 -0.325904 -3.87131 0
M  V30 2450 H 223.607 -2.91847 -3.57243 0
M  V30 2451 H 221.85 -2.79789 -3.31513 0
M  V30 2452 H 222.521 -2.49987 -4.92149 0
M  V30 2453 H 224.997 -0.761256 -4.09077 0
M  V30 2454 H 223.873 -0.564295 -5.45992 0
M  V30 2455 H 224.134 0.774144 -4.35269 0
M  V30 2456 N 223.193 1.4272 -0.668489 0
M  V30 2457 C 224.418 2.06484 -0.194758 0
M  V30 2458 C 224.843 1.49862 1.13679 0
M  V30 2459 O 224.201 0.614582 1.70565 0
M  V30 2460 C 224.249 3.60353 -0.133546 0
M  V30 2461 O 223.353 4.02464 0.899806 0
M  V30 2462 H 222.694 0.656137 -0.10188 0
M  V30 2463 H 225.224 1.82964 -0.915722 0
M  V30 2464 H 225.234 4.07976 0.0447041 0
M  V30 2465 H 223.909 4.00938 -1.1055 0
M  V30 2466 H 222.486 3.66402 0.693109 0
M  V30 2467 N 224.671 0.411399 1.52136 0
M  V30 2468 C 225.601 -0.404015 2.29978 0
M  V30 2469 C 226.582 -1.04412 1.34284 0
M  V30 2470 O 227.767 -1.0527 1.63192 0
M  V30 2471 C 224.897 -1.5197 3.12286 0
M  V30 2472 C 223.851 -1.00448 4.16046 0
M  V30 2473 C 223.177 -2.21393 4.86712 0
M  V30 2474 C 224.477 -0.0569336 5.22269 0
M  V30 2475 H 226.171 0.245529 2.98392 0
M  V30 2476 H 223.717 0.119525 1.43503 0
M  V30 2477 H 225.67 -2.09715 3.6551 0
M  V30 2478 H 224.394 -2.19716 2.41646 0
M  V30 2479 H 223.053 -0.449421 3.63835 0
M  V30 2480 H 222.701 -2.87699 4.12599 0
M  V30 2481 H 222.401 -1.87571 5.56858 0
M  V30 2482 H 223.925 -2.7974 5.4275 0
M  V30 2483 H 225.339 -0.54325 5.7072 0
M  V30 2484 H 223.736 0.192594 5.99791 0
M  V30 2485 H 224.806 0.887663 4.76706 0
M  V30 2486 N 226.149 -1.5696 0.141893 0
M  V30 2487 C 227.082 -2.12271 -0.837627 0
M  V30 2488 C 228.06 -1.04495 -1.24578 0
M  V30 2489 O 229.244 -1.32293 -1.34278 0
M  V30 2490 C 226.371 -2.63822 -2.12404 0
M  V30 2491 C 225.417 -3.83698 -1.86221 0
M  V30 2492 S 226.25 -5.24948 -1.05781 0
M  V30 2493 C 227.406 -5.79884 -2.35552 0
M  V30 2494 H 227.639 -2.95023 -0.367249 0
M  V30 2495 H 225.172 -1.54231 -0.0723014 0
M  V30 2496 H 227.13 -2.94175 -2.86307 0
M  V30 2497 H 225.791 -1.8121 -2.56557 0
M  V30 2498 H 224.984 -4.17995 -2.81596 0
M  V30 2499 H 224.586 -3.5408 -1.20429 0
M  V30 2500 H 226.878 -5.91005 -3.31239 0
M  V30 2501 H 227.821 -6.77544 -2.05767 0
M  V30 2502 H 228.229 -5.08095 -2.45967 0
M  V30 2503 N 227.627 0.131896 -1.57047 0
M  V30 2504 C 228.875 0.840269 -1.83804 0
M  V30 2505 C 229.196 1.81017 -0.72512 0
M  V30 2506 O 228.466 1.94272 0.251995 0
M  V30 2507 H 227.046 0.313294 -0.678127 0
M  V30 2508 H 229.708 0.122294 -1.94516 0
M  V30 2509 H 228.804 1.39335 -2.79271 0
M  V30 2510 N 229.106 1.52395 0.401703 0
M  V30 2511 C 230.036 1.79231 1.49661 0
M  V30 2512 C 231.017 0.643654 1.57452 0
M  V30 2513 O 232.202 0.889989 1.72606 0
M  V30 2514 C 229.332 1.94971 2.87409 0
M  V30 2515 C 228.286 3.10604 2.94465 0
M  V30 2516 C 227.612 3.11577 4.34538 0
M  V30 2517 C 228.912 4.49921 2.6527 0
M  V30 2518 H 230.606 2.70917 1.27454 0
M  V30 2519 H 228.152 1.30362 0.6117 0
M  V30 2520 H 230.105 2.12328 3.63999 0
M  V30 2521 H 228.829 0.999632 3.10926 0
M  V30 2522 H 227.488 2.93009 2.20321 0
M  V30 2523 H 227.136 2.14277 4.55076 0
M  V30 2524 H 226.836 3.89247 4.40183 0
M  V30 2525 H 228.36 3.31073 5.13053 0
M  V30 2526 H 229.774 4.67683 3.31581 0
M  V30 2527 H 228.171 5.29564 2.82281 0
M  V30 2528 H 229.241 4.57507 1.60671 0
M  V30 2529 N 230.584 -0.659388 1.43143 0
M  V30 2530 C 231.861 -1.41627 1.34912 0
M  V30 2531 C 232.241 -2.11099 -0.00607785 0
M  V30 2532 O 231.589 -2.04353 -1.02236 0
M  V30 2533 C 231.799 -2.40604 2.52805 0
M  V30 2534 C 233.147 -3.04789 2.95616 0
M  V30 2535 O 234.171 -2.50932 2.52807 0
M  V30 2536 O 233.03 -4.02421 3.69756 0
M  V30 2537 H 230.124 -0.63246 0.532844 0
M  V30 2538 H 232.67 -0.686814 1.5518 0
M  V30 2539 H 231.442 -1.88174 3.43083 0
M  V30 2540 H 231.065 -3.21009 2.34604 0
M  V30 2541 N 232.062 -1.29571 -0.897171 0
M  V30 2542 C 233.287 -1.20705 -1.68656 0
M  V30 2543 C 233.712 0.228582 -1.86706 0
M  V30 2544 O 233.07 1.16494 -1.3892 0
M  V30 2545 C 233.118 -1.9282 -3.04717 0
M  V30 2546 O 232.222 -1.24697 -3.93096 0
M  V30 2547 H 231.563 -0.418126 -0.515816 0
M  V30 2548 H 234.093 -1.71183 -1.12061 0
M  V30 2549 H 234.103 -2.01372 -3.54843 0
M  V30 2550 H 232.778 -2.97239 -2.90899 0
M  V30 2551 H 231.355 -1.2442 -3.51531 0
M  V30 2552 N 233.54 1.10788 -1.12088 0
M  V30 2553 C 234.78 1.84297 -0.883974 0
M  V30 2554 C 235.144 1.83036 0.579797 0
M  V30 2555 O 236.345 2.52061 0.933734 0
M  V30 2556 C 234.616 3.27173 -1.43849 0
M  V30 2557 S 236.175 4.17853 -1.33957 0
M  V30 2558 H 232.993 0.635433 -0.318977 0
M  V30 2559 H 235.595 1.33341 -1.4297 0
M  V30 2560 H 234.299 3.25658 -2.49749 0
M  V30 2561 H 233.83 3.83198 -0.890096 0
M  V30 2562 H 235.845 4.95239 -0.308603 0
M  V30 2563 N 235.018 0.912232 1.28515 0
M  V30 2564 C 236.267 0.540504 1.94323 0
M  V30 2565 C 236.58 -0.920044 1.72611 0
M  V30 2566 O 237.786 -1.39986 2.32629 0
M  V30 2567 C 236.242 0.915803 3.48053 0
M  V30 2568 C 235.85 2.39598 3.78546 0
M  V30 2569 C 237.594 0.614588 4.20027 0
M  V30 2570 C 235.501 2.71148 5.25578 0
M  V30 2571 H 234.431 0.198418 0.727424 0
M  V30 2572 H 237.082 1.11094 1.46049 0
M  V30 2573 H 235.464 0.274168 3.9505 0
M  V30 2574 H 236.638 3.08422 3.42364 0
M  V30 2575 H 234.953 2.66749 3.1974 0
M  V30 2576 H 237.55 0.827002 5.28266 0
M  V30 2577 H 237.893 -0.447531 4.13887 0
M  V30 2578 H 238.426 1.21462 3.78803 0
M  V30 2579 H 235.165 3.76207 5.36794 0
M  V30 2580 H 234.685 2.0696 5.62963 0
M  V30 2581 H 236.364 2.58072 5.93302 0
M  V30 2582 N 236.496 -1.42363 0.676048 0
M  V30 2583 C 237.745 -2.00745 0.196037 0
M  V30 2584 C 238.058 -1.54083 -1.20489 0
M  V30 2585 O 239.264 -2.04891 -1.78134 0
M  V30 2586 C 237.72 -3.58651 0.299616 0
M  V30 2587 C 237.328 -4.143 1.70468 0
M  V30 2588 C 239.072 -4.24326 -0.121619 0
M  V30 2589 C 236.979 -5.64574 1.76096 0
M  V30 2590 H 235.909 -0.750787 0.0695301 0
M  V30 2591 H 238.56 -1.63072 0.841412 0
M  V30 2592 H 236.942 -3.93833 -0.413673 0
M  V30 2593 H 238.116 -3.90575 2.44515 0
M  V30 2594 H 236.431 -3.61081 2.07387 0
M  V30 2595 H 239.028 -5.34607 -0.0997362 0
M  V30 2596 H 239.371 -3.99897 -1.15708 0
M  V30 2597 H 239.904 -3.94108 0.540706 0
M  V30 2598 H 236.643 -5.93804 2.77628 0
M  V30 2599 H 236.163 -5.90286 1.06406 0
M  V30 2600 H 237.842 -6.29013 1.51496 0
M  V30 2601 N 237.974 -0.419461 -1.51915 0
M  V30 2602 C 239.222 0.152637 -2.01523 0
M  V30 2603 C 239.543 1.44762 -1.30649 0
M  V30 2604 O 238.813 1.90997 -0.435535 0
M  V30 2605 H 237.393 0.0593966 -0.744635 0
M  V30 2606 H 240.055 -0.558073 -1.86739 0
M  V30 2607 H 239.151 0.341369 -3.10227 0
M  V30 2608 N 239.452 1.56882 -0.150215 0
M  V30 2609 C 240.7 1.9584 0.499105 0
M  V30 2610 C 241.021 1.03623 1.65188 0
M  V30 2611 O 240.291 0.0984084 1.95653 0
M  V30 2612 H 238.871 0.723119 0.187373 0
M  V30 2613 H 241.533 1.9358 -0.226466 0
M  V30 2614 H 240.629 2.99638 0.873122 0
M  V30 2615 N 240.93 -0.123565 1.57115 0
M  V30 2616 C 242.177 -0.832153 1.84612 0
M  V30 2617 C 242.505 -1.80093 0.734627 0
M  V30 2618 O 241.76 -1.93766 -0.27442 0
M  V30 2619 C 242.059 -1.62016 3.18568 0
M  V30 2620 C 241.725 -0.796084 4.43817 0
M  V30 2621 C 240.387 -0.568816 4.77826 0
M  V30 2622 C 242.739 -0.221364 5.2073 0
M  V30 2623 C 240.067 0.243499 5.86194 0
M  V30 2624 C 242.419 0.578117 6.29953 0
M  V30 2625 C 241.083 0.815744 6.62497 0
M  V30 2626 H 240.353 -0.304507 0.675542 0
M  V30 2627 H 243 -0.0947248 1.91266 0
M  V30 2628 H 241.305 -2.42837 3.0747 0
M  V30 2629 H 243.002 -2.17231 3.37064 0
M  V30 2630 H 239.592 -0.983307 4.17168 0
M  V30 2631 H 243.776 -0.384173 4.94811 0
M  V30 2632 H 239.032 0.436871 6.09837 0
M  V30 2633 H 243.206 1.03046 6.88734 0
M  V30 2634 H 240.833 1.44701 7.46301 0
M  V30 2635 N 242.408 -1.52605 -0.393616 0
M  V30 2636 C 243.685 -1.58001 -1.15304 0
M  V30 2637 C 244.065 -0.370385 -2.07825 0
M  V30 2638 O 243.413 0.641638 -2.19306 0
M  V30 2639 C 243.623 -2.91652 -1.91677 0
M  V30 2640 C 244.971 -3.4522 -2.47201 0
M  V30 2641 O 245.995 -2.93495 -2.01839 0
M  V30 2642 O 244.854 -4.35579 -3.3005 0
M  V30 2643 H 241.948 -0.637068 -0.527327 0
M  V30 2644 H 244.494 -1.64939 -0.399141 0
M  V30 2645 H 243.266 -3.71136 -1.23992 0
M  V30 2646 H 242.889 -2.88077 -2.74039 0
M  V30 2647 N 243.887 0.651787 -1.4349 0
M  V30 2648 C 245.298 1.233 -1.40193 0
M  V30 2649 C 245.649 1.9591 -0.106727 0
M  V30 2650 O 244.774 2.01316 0.793773 0
M  V30 2651 C 245.369 2.24257 -2.53957 0
M  V30 2652 C 243.928 2.77852 -2.5392 0
M  V30 2653 C 243.075 1.52517 -2.3159 0
M  V30 2654 H 246.026 0.443717 -1.52371 0
M  V30 2655 H 246.047 3.0646 -2.25528 0
M  V30 2656 H 245.559 1.71382 -3.4821 0
M  V30 2657 H 243.66 3.34786 -1.63551 0
M  V30 2658 H 243.773 3.25299 -3.51735 0
M  V30 2659 H 242.137 1.79915 -1.80285 0
M  V30 2660 H 242.92 1.01574 -3.27929 0
M  V30 2661 N 245.365 1.30045 0.890287 0
M  V30 2662 C 246.295 1.18541 2.01172 0
M  V30 2663 C 247.276 0.0773356 1.69924 0
M  V30 2664 O 248.461 0.25845 1.92473 0
M  V30 2665 C 245.591 0.870941 3.36202 0
M  V30 2666 C 244.545 1.93637 3.81692 0
M  V30 2667 C 243.871 1.475 5.13953 0
M  V30 2668 C 245.171 3.34666 4.00994 0
M  V30 2669 H 246.865 2.12359 2.11054 0
M  V30 2670 H 244.411 1.02238 1.01407 0
M  V30 2671 H 246.364 0.777141 4.14172 0
M  V30 2672 H 245.088 -0.102926 3.26438 0
M  V30 2673 H 243.747 2.01972 3.05946 0
M  V30 2674 H 243.395 0.489551 5.00612 0
M  V30 2675 H 243.095 2.1876 5.4536 0
M  V30 2676 H 244.619 1.39489 5.94454 0
M  V30 2677 H 246.033 3.2912 4.69417 0
M  V30 2678 H 244.43 4.03966 4.43769 0
M  V30 2679 H 245.5 3.76949 3.05021 0
M  V30 2680 N 246.843 -1.10192 1.12674 0
M  V30 2681 C 247.79 -2.16606 0.796906 0
M  V30 2682 C 248.76 -1.64394 -0.237476 0
M  V30 2683 O 249.945 -1.90474 -0.111484 0
M  V30 2684 C 247.085 -3.44116 0.26043 0
M  V30 2685 C 246.198 -4.10268 1.35293 0
M  V30 2686 C 245.333 -5.25507 0.775621 0
M  V30 2687 C 244.372 -5.83567 1.84706 0
M  V30 2688 N 243.509 -6.90179 1.28829 0
M  V30 2689 H 248.349 -2.44163 1.70846 0
M  V30 2690 H 245.886 -1.19846 0.85295 0
M  V30 2691 H 247.844 -4.17143 -0.0686814 0
M  V30 2692 H 246.474 -3.16901 -0.614274 0
M  V30 2693 H 245.526 -3.35184 1.79877 0
M  V30 2694 H 246.838 -4.4946 2.16303 0
M  V30 2695 H 245.992 -6.05398 0.397327 0
M  V30 2696 H 244.731 -4.87656 -0.0656581 0
M  V30 2697 H 243.736 -5.02344 2.23452 0
M  V30 2698 H 244.961 -6.23482 2.69161 0
M  V30 2699 H 242.907 -6.54322 0.468881 0
M  V30 2700 H 242.824 -7.28097 2.03497 0
M  V30 2701 H 244.092 -7.73844 0.937311 0
M  V30 2702 N 248.321 -0.919034 -1.28029 0
M  V30 2703 C 249.567 -0.555757 -1.95036 0
M  V30 2704 C 249.9 0.899198 -1.72128 0
M  V30 2705 O 249.175 1.64023 -1.04531 0
M  V30 2706 C 249.458 -0.872024 -3.49382 0
M  V30 2707 C 249.311 -2.3801 -3.81669 0
M  V30 2708 C 250.63 -0.37185 -4.38526 0
M  V30 2709 H 247.749 -0.203386 -0.708381 0
M  V30 2710 H 250.391 -1.14924 -1.51303 0
M  V30 2711 H 248.541 -0.366946 -3.86763 0
M  V30 2712 H 250.213 -2.9562 -3.54128 0
M  V30 2713 H 248.456 -2.83289 -3.28526 0
M  V30 2714 H 249.127 -2.55192 -4.8947 0
M  V30 2715 H 251.603 -0.804602 -4.08247 0
M  V30 2716 H 250.479 -0.622173 -5.45362 0
M  V30 2717 H 250.74 0.727934 -4.36066 0
M  V30 2718 N 249.799 1.42003 -0.683588 0
M  V30 2719 C 251.047 2.01015 -0.209101 0
M  V30 2720 C 251.368 1.54365 1.19149 0
M  V30 2721 O 250.638 0.769083 1.80172 0
M  V30 2722 H 249.218 0.743294 -0.074315 0
M  V30 2723 H 251.88 1.73798 -0.882066 0
M  V30 2724 H 250.976 3.11343 -0.2172 0
M  V30 2725 N 251.277 0.427512 1.51691 0
M  V30 2726 C 252.187 -0.39527 2.31246 0
M  V30 2727 C 253.203 -1.03674 1.39742 0
M  V30 2728 O 254.379 -1.03425 1.72816 0
M  V30 2729 C 251.444 -1.48706 3.13189 0
M  V30 2730 C 250.505 -0.866743 4.20459 0
M  V30 2731 C 249.738 -1.90651 4.98486 0
M  V30 2732 O 249.961 -3.12733 4.77026 0
M  V30 2733 O 248.895 -1.5025 5.82845 0
M  V30 2734 H 252.721 0.253918 3.02637 0
M  V30 2735 H 250.306 0.190274 1.48183 0
M  V30 2736 H 252.188 -2.12047 3.64162 0
M  V30 2737 H 250.863 -2.12051 2.44573 0
M  V30 2738 H 249.77 -0.195544 3.73589 0
M  V30 2739 H 251.103 -0.276934 4.9142 0
M  V30 2740 N 252.755 -1.56801 0.158532 0
M  V30 2741 C 254.001 -1.96781 -0.490405 0
M  V30 2742 C 254.334 -1.04397 -1.63753 0
M  V30 2743 O 253.609 -0.0885805 -1.94298 0
M  V30 2744 C 253.892 -3.4635 -0.985594 0
M  V30 2745 C 253.745 -4.49512 0.160824 0
M  V30 2746 C 255.064 -3.98697 -1.86355 0
M  V30 2747 H 252.183 -0.715482 -0.176788 0
M  V30 2748 H 254.825 -1.88451 0.242088 0
M  V30 2749 H 252.975 -3.53579 -1.60978 0
M  V30 2750 H 254.647 -4.54353 0.797537 0
M  V30 2751 H 252.89 -4.26013 0.818256 0
M  V30 2752 H 253.561 -5.51531 -0.227569 0
M  V30 2753 H 256.037 -3.94019 -1.33746 0
M  V30 2754 H 254.913 -5.03792 -2.17909 0
M  V30 2755 H 255.174 -3.41744 -2.8047 0
M  V30 2756 N 254.233 0.115231 -1.57178 0
M  V30 2757 C 255.163 1.1423 -2.03651 0
M  V30 2758 C 256.144 1.42967 -0.921655 0
M  V30 2759 O 257.329 1.53343 -1.19162 0
M  V30 2760 C 254.459 2.4675 -2.44401 0
M  V30 2761 C 253.413 2.32467 -3.59365 0
M  V30 2762 C 252.739 3.69984 -3.86026 0
M  V30 2763 C 254.039 1.78203 -4.90959 0
M  V30 2764 H 255.733 0.755749 -2.89705 0
M  V30 2765 H 253.279 0.362093 -1.39373 0
M  V30 2766 H 255.232 3.18854 -2.75517 0
M  V30 2767 H 253.956 2.87302 -1.55322 0
M  V30 2768 H 252.615 1.62811 -3.28463 0
M  V30 2769 H 252.263 4.08028 -2.94147 0
M  V30 2770 H 251.963 3.61279 -4.63412 0
M  V30 2771 H 253.487 4.43587 -4.19599 0
M  V30 2772 H 254.901 2.40128 -5.20587 0
M  V30 2773 H 253.298 1.8031 -5.72371 0
M  V30 2774 H 254.368 0.739876 -4.79222 0
M  V30 2775 N 255.711 1.52812 0.385517 0
M  V30 2776 C 256.621 1.80766 1.49535 0
M  V30 2777 C 257.637 0.694651 1.59532 0
M  V30 2778 O 258.813 0.982611 1.75803 0
M  V30 2779 C 255.878 1.97381 2.85029 0
M  V30 2780 C 254.939 3.21295 2.84724 0
M  V30 2781 C 254.172 3.37108 4.13756 0
M  V30 2782 O 254.395 2.5765 5.08893 0
M  V30 2783 O 253.329 4.30378 4.20783 0
M  V30 2784 H 257.155 2.75015 1.28842 0
M  V30 2785 H 254.74 1.37946 0.573697 0
M  V30 2786 H 256.622 2.09996 3.65349 0
M  V30 2787 H 255.297 1.06322 3.05741 0
M  V30 2788 H 254.204 3.1412 2.03174 0
M  V30 2789 H 255.537 4.12212 2.68965 0
M  V30 2790 N 257.189 -0.644168 1.43834 0
M  V30 2791 C 258.099 -1.78563 1.52159 0
M  V30 2792 C 259.115 -1.69147 0.408069 0
M  V30 2793 O 260.291 -1.90156 0.663524 0
M  V30 2794 C 257.356 -3.14888 1.45073 0
M  V30 2795 C 256.417 -3.36034 2.6717 0
M  V30 2796 C 255.65 -4.65855 2.60413 0
M  V30 2797 O 255.873 -5.45805 1.65689 0
M  V30 2798 O 254.807 -4.88918 3.5106 0
M  V30 2799 H 258.633 -1.74494 2.48567 0
M  V30 2800 H 256.218 -0.80378 1.25935 0
M  V30 2801 H 258.1 -3.96179 1.43597 0
M  V30 2802 H 256.775 -3.19528 0.518037 0
M  V30 2803 H 255.682 -2.54472 2.74217 0
M  V30 2804 H 257.015 -3.36247 3.59442 0
M  V30 2805 N 258.668 -1.30515 -0.883378 0
M  V30 2806 C 260.084 -1.08881 -1.16692 0
M  V30 2807 C 260.284 0.149409 -2.00945 0
M  V30 2808 O 259.34 0.84257 -2.38027 0
M  V30 2809 C 260.653 -2.35319 -1.87204 0
M  V30 2810 C 262.201 -2.40799 -1.99962 0
M  V30 2811 C 262.676 -3.67083 -2.73887 0
M  V30 2812 N 264.167 -3.679 -2.81432 0
M  V30 2813 C 264.902 -4.62303 -3.3921 0
M  V30 2814 N 264.398 -5.67052 -3.98025 0
M  V30 2815 N 266.191 -4.49845 -3.3704 0
M  V30 2816 H 258.342 -2.09951 -0.321633 0
M  V30 2817 H 260.605 -0.92556 -0.205043 0
M  V30 2818 H 260.311 -3.25689 -1.3274 0
M  V30 2819 H 260.185 -2.44089 -2.87577 0
M  V30 2820 H 262.572 -1.50907 -2.53597 0
M  V30 2821 H 262.653 -2.36003 -0.98673 0
M  V30 2822 H 262.297 -4.57334 -2.20925 0
M  V30 2823 H 262.227 -3.69141 -3.75556 0
M  V30 2824 H 264.718 -2.92171 -2.39676 0
M  V30 2825 H 265.031 -6.35184 -4.40183 0
M  V30 2826 H 263.376 -5.70842 -3.96439 0
M  V30 2827 H 266.567 -3.67194 -2.90321 0
M  V30 2828 H 266.74 -5.23597 -3.81772 0
M  V30 2829 N 260.146 1.09593 -1.13257 0
M  V30 2830 C 261.395 1.81105 -0.887917 0
M  V30 2831 C 261.708 1.86563 0.587672 0
M  V30 2832 O 262.914 2.54367 0.949204 0
M  V30 2833 C 261.37 3.25338 -1.53895 0
M  V30 2834 C 260.978 3.28151 -3.04994 0
M  V30 2835 C 262.722 4.01617 -1.37492 0
M  V30 2836 C 260.629 4.66897 -3.6299 0
M  V30 2837 H 259.559 0.678661 -0.328534 0
M  V30 2838 H 262.21 1.23183 -1.36008 0
M  V30 2839 H 260.592 3.8331 -0.994446 0
M  V30 2840 H 261.766 2.79953 -3.66009 0
M  V30 2841 H 260.081 2.65361 -3.20893 0
M  V30 2842 H 262.678 5.04119 -1.78235 0
M  V30 2843 H 263.021 4.15072 -0.31957 0
M  V30 2844 H 263.554 3.50082 -1.88912 0
M  V30 2845 H 260.293 4.58643 -4.68323 0
M  V30 2846 H 259.813 5.15426 -3.06752 0
M  V30 2847 H 261.492 5.3587 -3.62563 0
M  V30 2848 N 261.624 0.925811 1.2754 0
M  V30 2849 C 262.572 0.413897 2.28888 0
M  V30 2850 C 263.566 -0.500779 1.61829 0
M  V30 2851 O 264.772 -0.38069 1.75928 0
M  V30 2852 H 261.147 0.115274 0.743112 0
M  V30 2853 H 263.118 1.28151 2.69481 0
M  V30 2854 C 261.867 -0.319792 3.46226 0
M  V30 2855 H 261.19 0.374846 3.98039 0
M  V30 2856 H 262.63 -0.642435 4.19105 0
M  V30 2857 C 261.089 -1.53209 3.00048 0
M  V30 2858 O 261.619 -2.6309 3.03557 0
M  V30 2859 N 259.825 -1.38326 2.55566 0
M  V30 2860 H 259.372 -0.489292 2.5291 0
M  V30 2861 H 259.33 -2.19564 2.25031 0
M  V30 2862 N 263.102 -1.41638 0.69111 0
M  V30 2863 C 264.049 -2.30789 0.0229705 0
M  V30 2864 C 265.019 -1.46863 -0.775911 0
M  V30 2865 O 266.204 -1.75661 -0.74485 0
M  V30 2866 C 263.344 -3.32868 -0.910666 0
M  V30 2867 C 262.457 -4.31875 -0.103874 0
M  V30 2868 C 261.592 -5.21024 -1.03475 0
M  V30 2869 C 260.631 -6.11702 -0.220598 0
M  V30 2870 N 259.768 -6.93349 -1.10504 0
M  V30 2871 H 264.608 -2.87366 0.788978 0
M  V30 2872 H 262.145 -1.41535 0.400794 0
M  V30 2873 H 264.103 -3.90596 -1.46597 0
M  V30 2874 H 262.733 -2.77851 -1.64312 0
M  V30 2875 H 261.785 -3.76131 0.568285 0
M  V30 2876 H 263.097 -4.96003 0.527504 0
M  V30 2877 H 262.251 -5.83565 -1.65943 0
M  V30 2878 H 260.99 -4.57112 -1.69999 0
M  V30 2879 H 259.995 -5.48215 0.417187 0
M  V30 2880 H 261.22 -6.77668 0.440784 0
M  V30 2881 H 259.166 -6.3205 -1.75638 0
M  V30 2882 H 259.083 -7.54146 -0.529125 0
M  V30 2883 H 260.351 -7.60362 -1.71667 0
M  V30 2884 N 264.58 -0.43555 -1.51462 0
M  V30 2885 C 265.991 0.0279871 -1.86679 0
M  V30 2886 C 266.342 1.42104 -1.35281 0
M  V30 2887 O 265.467 2.04667 -0.702878 0
M  V30 2888 C 266.062 0.0575626 -3.38751 0
M  V30 2889 C 264.621 0.465507 -3.7351 0
M  V30 2890 C 263.768 -0.342996 -2.75171 0
M  V30 2891 H 266.719 -0.651473 -1.44712 0
M  V30 2892 H 266.74 0.867421 -3.70481 0
M  V30 2893 H 266.252 -0.956448 -3.7613 0
M  V30 2894 H 264.353 1.48519 -3.41721 0
M  V30 2895 H 264.466 0.191546 -4.78717 0
M  V30 2896 H 262.83 0.198442 -2.53926 0
M  V30 2897 H 263.613 -1.35585 -3.15391 0
M  V30 2898 N 266.058 1.56714 -0.166846 0
M  V30 2899 C 267.005 2.17746 0.765193 0
M  V30 2900 C 267.975 1.11614 1.23011 0
M  V30 2901 O 269.16 1.39745 1.29908 0
M  V30 2902 C 266.3 2.81882 1.9909 0
M  V30 2903 C 265.413 4.02462 1.56997 0
M  V30 2904 C 264.548 4.54537 2.749 0
M  V30 2905 C 263.587 5.67538 2.29275 0
M  V30 2906 N 262.724 6.14142 3.40255 0
M  V30 2907 H 267.564 2.97048 0.237952 0
M  V30 2908 H 265.101 1.4672 0.105725 0
M  V30 2909 H 267.059 3.17221 2.70974 0
M  V30 2910 H 265.689 2.05191 2.49192 0
M  V30 2911 H 264.741 3.72973 0.748037 0
M  V30 2912 H 266.053 4.84273 1.19503 0
M  V30 2913 H 265.207 4.92035 3.54946 0
M  V30 2914 H 263.946 3.71774 3.1565 0
M  V30 2915 H 262.951 5.29597 1.47674 0
M  V30 2916 H 264.176 6.52099 1.89588 0
M  V30 2917 H 262.122 5.3431 3.8059 0
M  V30 2918 H 262.039 6.9093 3.06841 0
M  V30 2919 H 263.307 6.56289 4.206 0
M  V30 2920 N 267.536 -0.106894 1.57237 0
M  V30 2921 C 268.785 -0.811163 1.8467 0
M  V30 2922 C 269.098 -1.80469 0.754342 0
M  V30 2923 O 270.304 -2.55601 0.915439 0
M  V30 2924 C 268.76 -1.49337 3.27454 0
M  V30 2925 C 268.368 -0.540217 4.44731 0
M  V30 2926 C 270.112 -2.18206 3.64124 0
M  V30 2927 C 268.019 -1.22634 5.78545 0
M  V30 2928 H 266.949 -0.306679 0.688813 0
M  V30 2929 H 269.6 -0.0639887 1.83388 0
M  V30 2930 H 267.982 -2.2876 3.23241 0
M  V30 2931 H 269.156 0.221659 4.60267 0
M  V30 2932 H 267.471 0.042146 4.16379 0
M  V30 2933 H 270.068 -2.70253 4.61376 0
M  V30 2934 H 270.411 -2.96562 2.92158 0
M  V30 2935 H 270.944 -1.45658 3.70174 0
M  V30 2936 H 267.683 -0.483832 6.53712 0
M  V30 2937 H 267.203 -1.95993 5.66874 0
M  V30 2938 H 268.882 -1.75615 6.2271 0
M  V30 2939 N 269.014 -1.53014 -0.377408 0
M  V30 2940 C 269.977 -1.77957 -1.44444 0
M  V30 2941 C 270.977 -0.649763 -1.47087 0
M  V30 2942 O 272.167 -0.917897 -1.48055 0
M  V30 2943 C 269.299 -1.89089 -2.83651 0
M  V30 2944 H 270.492 -2.73243 -1.23606 0
M  V30 2945 H 268.045 -1.43912 -0.609844 0
M  V30 2946 H 268.78 -0.958293 -3.09818 0
M  V30 2947 H 268.565 -2.71254 -2.83132 0
M  V30 2948 H 270.055 -2.1002 -3.60945 0
M  V30 2949 N 270.492 0.636531 -1.44174 0
M  V30 2950 C 271.732 1.40781 -1.48189 0
M  V30 2951 C 272.096 1.91688 -0.10944 0
M  V30 2952 O 273.297 2.68789 -0.0242741 0
M  V30 2953 C 271.568 2.54575 -2.50851 0
M  V30 2954 S 273.127 3.4284 -2.73873 0
M  V30 2955 H 269.945 0.480345 -0.524204 0
M  V30 2956 H 272.547 0.737416 -1.81059 0
M  V30 2957 H 271.251 2.15478 -3.49281 0
M  V30 2958 H 270.782 3.26447 -2.19536 0
M  V30 2959 H 272.797 4.51846 -2.05059 0
M  V30 2960 N 271.97 1.30982 0.876444 0
M  V30 2961 C 272.9 1.20668 1.99903 0
M  V30 2962 C 273.881 0.095354 1.69833 0
M  V30 2963 O 275.066 0.27885 1.92188 0
M  V30 2964 C 272.196 0.90655 3.3526 0
M  V30 2965 C 271.15 1.97675 3.79617 0
M  V30 2966 C 270.476 1.52943 5.1236 0
M  V30 2967 C 271.776 3.389 3.97422 0
M  V30 2968 H 273.47 2.14586 2.0879 0
M  V30 2969 H 271.016 1.03308 1.00317 0
M  V30 2970 H 272.969 0.821025 4.13324 0
M  V30 2971 H 271.693 -0.0682969 3.26529 0
M  V30 2972 H 270.352 2.05205 3.03787 0
M  V30 2973 H 270 0.54262 5.00065 0
M  V30 2974 H 269.7 2.24532 5.43009 0
M  V30 2975 H 271.224 1.45786 5.92941 0
M  V30 2976 H 272.638 3.34081 4.659 0
M  V30 2977 H 271.035 4.0865 4.3946 0
M  V30 2978 H 272.105 3.80163 3.01006 0
M  V30 2979 N 273.449 -1.08991 1.13837 0
M  V30 2980 C 274.698 -1.80631 0.897509 0
M  V30 2981 C 275.011 -1.86872 -0.57777 0
M  V30 2982 O 276.217 -2.54866 -0.935701 0
M  V30 2983 C 274.673 -3.24517 1.55618 0
M  V30 2984 C 274.281 -3.26529 3.0673 0
M  V30 2985 C 276.025 -4.00882 1.3962 0
M  V30 2986 C 273.932 -4.64965 3.65461 0
M  V30 2987 H 272.862 -0.67691 0.332129 0
M  V30 2988 H 275.513 -1.2246 1.3666 0
M  V30 2989 H 273.895 -3.82778 1.01476 0
M  V30 2990 H 275.069 -2.78008 3.67489 0
M  V30 2991 H 273.384 -2.63656 3.22296 0
M  V30 2992 H 275.981 -5.03167 1.80906 0
M  V30 2993 H 276.324 -4.14896 0.341578 0
M  V30 2994 H 276.857 -3.49075 1.90766 0
M  V30 2995 H 273.596 -4.56153 4.70749 0
M  V30 2996 H 273.116 -5.13792 3.09481 0
M  V30 2997 H 274.795 -5.3394 3.654 0
M  V30 2998 N 274.927 -0.932562 -1.27047 0
M  V30 2999 C 275.89 -0.440064 -2.24936 0
M  V30 3000 C 276.89 0.444071 -1.54547 0
M  V30 3001 O 278.08 0.244465 -1.72476 0
M  V30 3002 C 275.212 0.36678 -3.38921 0
M  V30 3003 H 276.405 -1.305 -2.70018 0
M  V30 3004 H 273.958 -0.713707 -1.39054 0
M  V30 3005 H 274.693 1.25033 -2.99228 0
M  V30 3006 H 274.478 -0.267204 -3.91188 0
M  V30 3007 H 275.968 0.701567 -4.11665 0
M  V30 3008 N 276.405 1.4127 -0.698611 0
M  V30 3009 C 277.335 2.33447 -0.049629 0
M  V30 3010 C 278.316 1.51982 0.763898 0
M  V30 3011 O 279.501 1.80509 0.716257 0
M  V30 3012 C 276.631 3.35828 0.885267 0
M  V30 3013 C 275.585 4.27627 0.178613 0
M  V30 3014 C 274.911 5.20406 1.22807 0
M  V30 3015 C 276.211 5.13459 -0.956933 0
M  V30 3016 H 277.905 2.87966 -0.81951 0
M  V30 3017 H 275.451 1.38461 -0.395538 0
M  V30 3018 H 277.404 3.9924 1.34854 0
M  V30 3019 H 276.128 2.79666 1.68685 0
M  V30 3020 H 274.787 3.65643 -0.26466 0
M  V30 3021 H 274.435 4.60558 2.02226 0
M  V30 3022 H 274.135 5.82661 0.760239 0
M  V30 3023 H 275.659 5.86695 1.69179 0
M  V30 3024 H 277.073 5.70421 -0.573805 0
M  V30 3025 H 275.47 5.8467 -1.35205 0
M  V30 3026 H 276.54 4.50443 -1.79524 0
M  V30 3027 N 277.883 0.443576 1.51229 0
M  V30 3028 C 279.131 -0.120557 2.0174 0
M  V30 3029 C 279.452 -1.42665 1.32935 0
M  V30 3030 O 278.722 -1.9028 0.465866 0
M  V30 3031 H 277.302 -0.0475426 0.745486 0
M  V30 3032 H 279.964 0.587711 1.85828 0
M  V30 3033 H 279.06 -0.291972 3.10731 0
M  V30 3034 N 279.361 -1.56624 0.175154 0
M  V30 3035 C 280.308 -2.18149 -0.753634 0
M  V30 3036 C 281.278 -1.12265 -1.22417 0
M  V30 3037 O 282.463 -1.40432 -1.29165 0
M  V30 3038 C 279.603 -2.82933 -1.97592 0
M  V30 3039 C 278.716 -4.03289 -1.5486 0
M  V30 3040 C 277.851 -4.55988 -2.72485 0
M  V30 3041 C 276.89 -5.68746 -2.26262 0
M  V30 3042 N 276.027 -6.15938 -3.36994 0
M  V30 3043 H 280.867 -2.9717 -0.222195 0
M  V30 3044 H 278.404 -1.46774 -0.0979422 0
M  V30 3045 H 280.362 -3.18653 -2.69288 0
M  V30 3046 H 278.992 -2.06509 -2.481 0
M  V30 3047 H 278.044 -3.73364 -0.728246 0
M  V30 3048 H 279.356 -4.849 -1.16933 0
M  V30 3049 H 278.51 -4.9391 -3.52332 0
M  V30 3050 H 277.249 -3.73443 -3.13674 0
M  V30 3051 H 276.254 -5.30372 -1.44863 0
M  V30 3052 H 277.479 -6.53095 -1.86127 0
M  V30 3053 H 275.425 -5.36321 -3.77751 0
M  V30 3054 H 275.342 -6.92548 -3.03172 0
M  V30 3055 H 276.61 -6.58511 -4.17114 0
M  V30 3056 N 280.839 0.0985539 -1.57292 0
M  V30 3057 C 282.255 0.45267 -1.53046 0
M  V30 3058 C 282.455 1.80713 -0.891342 0
M  V30 3059 O 281.511 2.4785 -0.482375 0
M  V30 3060 C 282.824 0.418341 -2.97776 0
M  V30 3061 C 284.372 0.500443 -3.08973 0
M  V30 3062 C 284.847 0.496297 -4.55303 0
M  V30 3063 N 286.338 0.557151 -4.59837 0
M  V30 3064 C 287.073 0.575726 -5.70502 0
M  V30 3065 N 286.569 0.550714 -6.90608 0
M  V30 3066 N 288.362 0.620277 -5.58667 0
M  V30 3067 H 280.513 -0.788673 -1.97215 0
M  V30 3068 H 282.776 -0.293188 -0.901524 0
M  V30 3069 H 282.482 -0.509659 -3.47988 0
M  V30 3070 H 282.356 1.2386 -3.56284 0
M  V30 3071 H 284.743 1.41886 -2.58751 0
M  V30 3072 H 284.824 -0.347894 -2.53423 0
M  V30 3073 H 284.468 -0.418162 -5.06176 0
M  V30 3074 H 284.398 1.3618 -5.08687 0
M  V30 3075 H 286.889 0.581816 -3.73394 0
M  V30 3076 H 287.202 0.568075 -7.70709 0
M  V30 3077 H 285.547 0.517816 -6.93068 0
M  V30 3078 H 288.738 0.637322 -4.63741 0
M  V30 3079 H 288.911 0.631283 -6.44918 0
M  V30 3080 N 282.317 1.53212 0.369288 0
M  V30 3081 C 283.563 1.69466 1.11397 0
M  V30 3082 C 283.896 0.443257 1.89074 0
M  V30 3083 O 283.171 -0.559386 1.86282 0
M  V30 3084 C 283.454 2.9422 2.07621 0
M  V30 3085 C 283.307 4.29508 1.33577 0
M  V30 3086 C 284.626 3.14565 3.07794 0
M  V30 3087 H 281.745 0.616667 0.403597 0
M  V30 3088 H 284.387 1.85845 0.395179 0
M  V30 3089 H 282.537 2.80387 2.68916 0
M  V30 3090 H 284.209 4.55147 0.750955 0
M  V30 3091 H 282.452 4.29088 0.637618 0
M  V30 3092 H 283.123 5.12926 2.03989 0
M  V30 3093 H 285.599 3.2756 2.56601 0
M  V30 3094 H 284.475 4.03297 3.72348 0
M  V30 3095 H 284.736 2.29675 3.77759 0
M  V30 3096 N 283.795 -0.628877 1.44509 0
M  V30 3097 C 284.758 -1.72263 1.51188 0
M  V30 3098 C 285.758 -1.55907 0.39367 0
M  V30 3099 O 286.948 -1.61361 0.656377 0
M  V30 3100 C 284.08 -3.11365 1.38798 0
M  V30 3101 H 285.273 -1.67714 2.4862 0
M  V30 3102 H 282.826 -0.842737 1.31634 0
M  V30 3103 H 283.561 -3.21507 0.424693 0
M  V30 3104 H 283.346 -3.24644 2.19884 0
M  V30 3105 H 284.836 -3.91075 1.46458 0
M  V30 3106 N 285.273 -1.31445 -0.869486 0
M  V30 3107 C 286.183 -1.21097 -2.0093 0
M  V30 3108 C 287.199 -0.127584 -1.73532 0
M  V30 3109 O 288.375 -0.345477 -1.98415 0
M  V30 3110 C 285.44 -0.919378 -3.34288 0
M  V30 3111 C 284.501 -2.08971 -3.75006 0
M  V30 3112 C 283.734 -1.81194 -5.02001 0
M  V30 3113 O 283.957 -0.747296 -5.65484 0
M  V30 3114 O 282.891 -2.66883 -5.39497 0
M  V30 3115 H 286.717 -2.16883 -2.12592 0
M  V30 3116 H 284.302 -1.11189 -0.997868 0
M  V30 3117 H 286.184 -0.772625 -4.14257 0
M  V30 3118 H 284.859 0.00844772 -3.23699 0
M  V30 3119 H 283.766 -2.29187 -2.95676 0
M  V30 3120 H 285.099 -2.9998 -3.90221 0
M  V30 3121 N 286.751 1.08385 -1.14413 0
M  V30 3122 C 287.714 2.13486 -0.834048 0
M  V30 3123 C 288.714 1.59988 0.161418 0
M  V30 3124 O 289.904 1.74071 -0.0669575 0
M  V30 3125 C 287.036 3.4003 -0.243354 0
M  V30 3126 H 288.229 2.42425 -1.7655 0
M  V30 3127 H 285.782 1.24101 -0.950189 0
M  V30 3128 H 286.517 3.16726 0.696807 0
M  V30 3129 H 286.302 3.80157 -0.960367 0
M  V30 3130 H 287.792 4.17577 -0.0436242 0
M  V30 3131 N 288.23 0.939286 1.26551 0
M  V30 3132 C 289.455 0.602008 1.98471 0
M  V30 3133 C 289.88 -0.815624 1.69497 0
M  V30 3134 O 289.238 -1.54912 0.941905 0
M  V30 3135 C 289.286 0.848407 3.50477 0
M  V30 3136 O 288.39 -0.0804009 4.12322 0
M  V30 3137 H 287.731 0.23049 0.622712 0
M  V30 3138 H 290.261 1.2617 1.61066 0
M  V30 3139 H 290.271 0.768553 4.00696 0
M  V30 3140 H 288.946 1.88171 3.70897 0
M  V30 3141 H 287.523 0.0503508 3.72866 0
M  V30 3142 N 289.708 -1.40897 0.706093 0
M  V30 3143 C 290.64 -2.29199 0.00815776 0
M  V30 3144 C 291.653 -1.45336 -0.733582 0
M  V30 3145 O 292.842 -1.68727 -0.582537 0
M  V30 3146 C 289.942 -3.23417 -1.01265 0
M  V30 3147 C 289.115 -4.36089 -0.338387 0
M  V30 3148 C 288.174 -5.10811 -1.26326 0
M  V30 3149 O 287.2 -5.64215 -0.751651 0
M  V30 3150 N 288.402 -5.19269 -2.595 0
M  V30 3151 H 291.167 -2.89738 0.766297 0
M  V30 3152 H 288.728 -1.52164 0.55296 0
M  V30 3153 H 290.72 -3.70276 -1.63334 0
M  V30 3154 H 289.29 -2.64112 -1.67223 0
M  V30 3155 H 288.51 -3.91479 0.462352 0
M  V30 3156 H 289.798 -5.08634 0.130031 0
M  V30 3157 H 289.196 -4.77347 -3.03573 0
M  V30 3158 H 287.753 -5.69667 -3.16737 0
M  V30 3159 N 291.186 -0.45159 -1.50991 0
M  V30 3160 C 292.133 0.352625 -2.2809 0
M  V30 3161 C 293.103 1.0044 -1.32291 0
M  V30 3162 O 294.288 1.02058 -1.6121 0
M  V30 3163 C 291.428 1.43983 -3.13629 0
M  V30 3164 C 290.541 0.804772 -4.24438 0
M  V30 3165 C 289.676 1.86822 -4.97263 0
M  V30 3166 C 288.715 1.21236 -5.99973 0
M  V30 3167 N 287.852 2.2178 -6.66152 0
M  V30 3168 H 292.692 -0.311186 -2.96371 0
M  V30 3169 H 290.229 -0.165308 -1.46168 0
M  V30 3170 H 292.187 2.08161 -3.61559 0
M  V30 3171 H 290.817 2.07307 -2.47434 0
M  V30 3172 H 289.869 0.0509129 -3.80366 0
M  V30 3173 H 291.181 0.286076 -4.97979 0
M  V30 3174 H 290.335 2.58628 -5.48813 0
M  V30 3175 H 289.074 2.42068 -4.23385 0
M  V30 3176 H 288.079 0.479828 -5.47702 0
M  V30 3177 H 289.304 0.667051 -6.75816 0
M  V30 3178 H 287.25 2.76079 -5.95077 0
M  V30 3179 H 287.167 1.74841 -7.35504 0
M  V30 3180 H 288.435 2.93026 -7.22327 0
M  V30 3181 N 292.664 1.56529 -0.183458 0
M  V30 3182 C 293.889 2.02064 0.467428 0
M  V30 3183 C 294.314 1.06282 1.55196 0
M  V30 3184 O 293.672 0.0443565 1.81246 0
M  V30 3185 C 293.72 3.46122 1.01153 0
M  V30 3186 O 292.824 3.53437 2.12499 0
M  V30 3187 H 292.165 0.654726 0.110588 0
M  V30 3188 H 294.695 2.02521 -0.290917 0
M  V30 3189 H 294.705 3.85676 1.33108 0
M  V30 3190 H 293.38 4.15331 0.217533 0
M  V30 3191 H 291.957 3.2575 1.81497 0
M  V30 3192 N 294.142 -0.090211 1.57342 0
M  V30 3193 C 295.558 -0.444547 1.53284 0
M  V30 3194 C 295.758 -1.80238 0.900914 0
M  V30 3195 O 294.814 -2.4759 0.495513 0
M  V30 3196 C 296.127 -0.402543 2.97993 0
M  V30 3197 C 297.675 -0.48405 3.09234 0
M  V30 3198 C 298.15 -0.472144 4.5556 0
M  V30 3199 N 299.641 -0.532757 4.60126 0
M  V30 3200 C 300.376 -0.545462 5.708 0
M  V30 3201 N 299.872 -0.514082 6.9089 0
M  V30 3202 N 301.665 -0.59064 5.58988 0
M  V30 3203 H 293.816 0.799121 1.96794 0
M  V30 3204 H 296.079 0.297965 0.899956 0
M  V30 3205 H 295.785 0.528106 3.47712 0
M  V30 3206 H 295.659 -1.21969 3.56936 0
M  V30 3207 H 298.046 -1.40512 2.595 0
M  V30 3208 H 298.127 0.361328 2.53235 0
M  V30 3209 H 297.771 0.445 5.05947 0
M  V30 3210 H 297.701 -1.3348 5.09402 0
M  V30 3211 H 300.192 -0.562006 3.73698 0
M  V30 3212 H 300.505 -0.527195 7.71 0
M  V30 3213 H 298.85 -0.481054 6.93333 0
M  V30 3214 H 302.041 -0.61272 4.64073 0
M  V30 3215 H 302.214 -0.597073 6.45243 0
M  V30 3216 N 295.62 -1.53406 -0.361157 0
M  V30 3217 C 296.567 -1.80156 -1.44265 0
M  V30 3218 C 297.537 -0.646183 -1.53015 0
M  V30 3219 O 298.722 -0.888818 -1.68833 0
M  V30 3220 C 295.862 -2.00116 -2.81154 0
M  V30 3221 C 294.975 -3.27833 -2.81335 0
M  V30 3222 C 294.11 -3.37957 -4.09828 0
M  V30 3223 C 293.149 -4.59689 -4.04168 0
M  V30 3224 N 292.286 -4.66942 -5.24318 0
M  V30 3225 H 297.126 -2.72438 -1.20754 0
M  V30 3226 H 294.663 -1.34954 -0.585296 0
M  V30 3227 H 296.621 -2.09677 -3.60682 0
M  V30 3228 H 295.251 -1.11167 -3.03054 0
M  V30 3229 H 294.303 -3.27204 -1.94014 0
M  V30 3230 H 295.615 -4.17442 -2.73027 0
M  V30 3231 H 294.769 -3.46853 -4.97773 0
M  V30 3232 H 293.508 -2.46372 -4.20894 0
M  V30 3233 H 292.513 -4.50889 -3.14609 0
M  V30 3234 H 293.738 -5.5262 -3.947 0
M  V30 3235 H 291.684 -3.7826 -5.35962 0
M  V30 3236 H 291.601 -5.50462 -5.18197 0
M  V30 3237 H 292.869 -4.80127 -6.14084 0
M  V30 3238 N 297.098 0.621204 -1.44841 0
M  V30 3239 C 298.323 1.41244 -1.51871 0
M  V30 3240 C 298.748 1.87519 -0.147764 0
M  V30 3241 O 298.106 1.59334 0.865 0
M  V30 3242 C 298.154 2.60221 -2.49634 0
M  V30 3243 O 297.258 3.60395 -2.00473 0
M  V30 3244 H 296.599 0.42223 -0.512463 0
M  V30 3245 H 299.129 0.757305 -1.90069 0
M  V30 3246 H 299.139 3.0764 -2.67996 0
M  V30 3247 H 297.814 2.25887 -3.4921 0
M  V30 3248 H 296.391 3.19717 -1.91925 0
M  V30 3249 N 298.576 1.31904 0.862503 0
M  V30 3250 C 299.523 1.20182 1.9704 0
M  V30 3251 C 300.493 0.0858247 1.65878 0
M  V30 3252 O 301.678 0.26 1.8902 0
M  V30 3253 C 298.818 0.922797 3.32533 0
M  V30 3254 C 297.931 2.12284 3.76244 0
M  V30 3255 C 297.066 1.77996 5.00491 0
M  V30 3256 C 296.105 2.94366 5.36671 0
M  V30 3257 N 295.242 2.60223 6.52095 0
M  V30 3258 H 300.082 2.14951 2.06398 0
M  V30 3259 H 297.619 1.06917 1.01031 0
M  V30 3260 H 299.577 0.741548 4.10557 0
M  V30 3261 H 298.207 0.0119227 3.22798 0
M  V30 3262 H 297.259 2.41461 2.9394 0
M  V30 3263 H 298.571 2.99357 3.98982 0
M  V30 3264 H 297.725 1.56377 5.862 0
M  V30 3265 H 296.464 0.881252 4.79672 0
M  V30 3266 H 295.469 3.16625 4.49476 0
M  V30 3267 H 296.694 3.84957 5.59451 0
M  V30 3268 H 294.64 1.72884 6.32809 0
M  V30 3269 H 294.557 3.40827 6.74814 0
M  V30 3270 H 295.825 2.42016 7.40978 0
M  V30 3271 N 300.054 -1.07777 1.14986 0
M  V30 3272 C 301.3 -1.80557 0.923422 0
M  V30 3273 C 301.633 -1.86298 -0.548337 0
M  V30 3274 O 300.908 -1.34354 -1.40639 0
M  V30 3275 C 301.191 -3.25839 1.53299 0
M  V30 3276 C 301.044 -3.28269 3.07505 0
M  V30 3277 C 302.363 -4.22991 1.21518 0
M  V30 3278 H 299.482 -0.655493 0.336894 0
M  V30 3279 H 302.124 -1.26144 1.42083 0
M  V30 3280 H 300.274 -3.72306 1.10999 0
M  V30 3281 H 301.946 -2.90079 3.58681 0
M  V30 3282 H 300.189 -2.67355 3.4162 0
M  V30 3283 H 300.86 -4.30691 3.45266 0
M  V30 3284 H 303.336 -3.84894 1.581 0
M  V30 3285 H 302.212 -5.22945 1.66793 0
M  V30 3286 H 302.473 -4.41904 0.131505 0
M  V30 3287 N 301.532 -0.945985 -1.26051 0
M  V30 3288 C 302.809 -0.513816 -1.88731 0
M  V30 3289 C 303.189 1.00872 -1.8544 0
M  V30 3290 O 302.537 1.8708 -1.312 0
M  V30 3291 C 302.747 -1.08062 -3.31849 0
M  V30 3292 C 304.095 -1.1522 -4.08668 0
M  V30 3293 O 305.119 -1.03155 -3.40936 0
M  V30 3294 O 303.978 -1.34044 -5.29806 0
M  V30 3295 H 301.072 -0.168193 -0.809716 0
M  V30 3296 H 303.618 -1.03886 -1.34186 0
M  V30 3297 H 302.39 -2.1241 -3.2863 0
M  V30 3298 H 302.013 -0.538307 -3.93939 0
M  V30 3299 N 303.011 1.40521 -0.713556 0
M  V30 3300 C 303.974 2.29098 -0.0684347 0
M  V30 3301 C 304.974 1.45268 0.689472 0
M  V30 3302 O 306.164 1.66205 0.521677 0
M  V30 3303 C 303.296 3.28446 0.913024 0
M  V30 3304 H 304.489 2.87645 -0.84855 0
M  V30 3305 H 302.042 1.48809 -0.47809 0
M  V30 3306 H 302.777 2.74913 1.72027 0
M  V30 3307 H 302.562 3.90327 0.372472 0
M  V30 3308 H 304.052 3.94777 1.36165 0
M  V30 3309 N 304.489 0.459591 1.5075 0
M  V30 3310 C 305.738 -0.100971 2.01447 0
M  V30 3311 C 306.051 -1.41816 1.34713 0
M  V30 3312 O 307.257 -2.06299 1.76502 0
M  V30 3313 C 305.713 -0.23047 3.59161 0
M  V30 3314 C 305.321 1.0776 4.34847 0
M  V30 3315 C 307.065 -0.743608 4.17936 0
M  V30 3316 C 304.972 0.91253 5.84317 0
M  V30 3317 H 303.902 -0.0415102 0.752856 0
M  V30 3318 H 306.553 0.592742 1.73663 0
M  V30 3319 H 304.935 -0.987703 3.83485 0
M  V30 3320 H 306.109 1.8449 4.22256 0
M  V30 3321 H 304.424 1.52097 3.87628 0
M  V30 3322 H 307.021 -0.883959 5.27343 0
M  V30 3323 H 307.364 -1.73196 3.78562 0
M  V30 3324 H 307.897 -0.04408 3.97776 0
M  V30 3325 H 304.636 1.87391 6.28144 0
M  V30 3326 H 304.156 0.185422 5.99513 0
M  V30 3327 H 305.835 0.574547 6.44444 0
M  V30 3328 N 305.967 -1.56429 0.191757 0
M  V30 3329 C 307.195 -2.01867 -0.453586 0
M  V30 3330 C 307.61 -1.07191 -1.5542 0
M  V30 3331 O 306.967 -0.0762108 -1.82341 0
M  V30 3332 C 307.018 -3.47017 -1.013 0
M  V30 3333 O 306.739 -4.38078 0.0437005 0
M  V30 3334 C 308.24 -4.07956 -1.73456 0
M  V30 3335 H 305.46 -0.661211 -0.114199 0
M  V30 3336 H 308.004 -2.02295 0.299483 0
M  V30 3337 H 306.159 -3.47298 -1.71647 0
M  V30 3338 H 306.573 -5.23178 -0.372212 0
M  V30 3339 H 308.047 -5.1138 -2.07833 0
M  V30 3340 H 308.524 -3.51222 -2.63704 0
M  V30 3341 H 309.13 -4.11437 -1.07702 0
M  V30 3342 N 307.445 0.0818655 -1.57387 0
M  V30 3343 C 308.691 0.778884 -1.87896 0
M  V30 3344 C 309.046 1.75692 -0.784229 0
M  V30 3345 O 308.339 1.90417 0.212567 0
M  V30 3346 C 308.533 1.53513 -3.22752 0
M  V30 3347 C 308.362 0.631838 -4.45239 0
M  V30 3348 C 307.132 0.272571 -5.04564 0
M  V30 3349 C 309.33 -0.0670191 -5.14256 0
M  V30 3350 N 307.312 -0.637498 -6.10581 0
M  V30 3351 C 308.683 -0.834653 -6.14356 0
M  V30 3352 C 310.738 -0.139551 -4.97704 0
M  V30 3353 C 309.441 -1.66806 -6.99691 0
M  V30 3354 C 311.467 -0.959903 -5.83558 0
M  V30 3355 C 310.829 -1.71561 -6.83188 0
M  V30 3356 H 306.928 0.260764 -0.737242 0
M  V30 3357 H 309.512 0.0408227 -1.94657 0
M  V30 3358 H 307.683 2.24398 -3.17018 0
M  V30 3359 H 309.415 2.18038 -3.40942 0
M  V30 3360 H 306.17 0.62319 -4.69482 0
M  V30 3361 H 306.594 -1.08548 -6.68241 0
M  V30 3362 H 311.236 0.430376 -4.20604 0
M  V30 3363 H 308.954 -2.249 -7.76174 0
M  V30 3364 H 312.54 -1.01887 -5.72809 0
M  V30 3365 H 311.42 -2.34017 -7.48469 0
M  V30 3366 N 308.923 1.53595 0.353017 0
M  V30 3367 C 309.853 1.83902 1.43883 0
M  V30 3368 C 310.834 0.693421 1.55324 0
M  V30 3369 O 312.019 0.944452 1.69687 0
M  V30 3370 C 309.149 2.04016 2.8106 0
M  V30 3371 C 308.103 3.19814 2.84434 0
M  V30 3372 C 307.429 3.25244 4.24406 0
M  V30 3373 C 308.729 4.58133 2.50822 0
M  V30 3374 H 310.423 2.74835 1.1877 0
M  V30 3375 H 307.969 1.32242 0.569917 0
M  V30 3376 H 309.922 2.238 3.57059 0
M  V30 3377 H 308.646 1.09804 3.07588 0
M  V30 3378 H 307.305 2.9987 2.10887 0
M  V30 3379 H 306.953 2.28646 4.48029 0
M  V30 3380 H 306.653 4.03054 4.27576 0
M  V30 3381 H 308.177 3.47228 5.0226 0
M  V30 3382 H 309.591 4.77995 3.16534 0
M  V30 3383 H 307.988 5.38276 2.6529 0
M  V30 3384 H 309.058 4.62387 1.46034 0
M  V30 3385 O 310.44 -0.498996 1.53598 0
M  V30 3386 H 311.131 -1.15384 1.55584 0
M  V30 END ATOM
M  V30 BEGIN BOND
M  V30 END BOND
M  V30 END CTAB
M  END
$$$$
