drugbank_target|O25928 3-hydroxyacyl-[acyl-carrier-protein] dehydratase FabZ (DB07445)
 OpenBabel12092120433D

  0  0  0     0  0            999 V3000
M  V30 BEGIN CTAB
M  V30 COUNTS 2589 2621 0 0 0
M  V30 BEGIN ATOM
M  V30 1 H -0.908 1.98254 -0.117106 0
M  V30 2 N 0 1.576 0 0
M  V30 3 C 0.933 2.03868 1.02534 0
M  V30 4 C 1.911 0.928543 1.3348 0
M  V30 5 O 3.095 1.19667 1.45644 0
M  V30 6 C 0.222 2.43627 2.35294 0
M  V30 7 C -0.732 3.65373 2.2001 0
M  V30 8 S 0.101 5.13292 1.52614 0
M  V30 9 C 1.257 5.56322 2.86805 0
M  V30 10 H 1.49 2.90518 0.631377 0
M  V30 11 H -0.977 1.52953 0.210867 0
M  V30 12 H 0.981 2.67203 3.11629 0
M  V30 13 H -0.358 1.57376 2.7183 0
M  V30 14 H -1.165 3.90944 3.18086 0
M  V30 15 H -1.563 3.418 1.51819 0
M  V30 16 H 0.729 5.58782 3.83104 0
M  V30 17 H 1.672 6.56266 2.65933 0
M  V30 18 H 2.08 4.83886 2.90714 0
M  V30 19 N 1.4781 -0.272755 1.55222 0
M  V30 20 C 2.3881 -1.35918 1.91216 0
M  V30 21 C 3.4041 -1.54026 0.809436 0
M  V30 22 O 4.5801 -1.68148 1.10852 0
M  V30 23 C 1.6451 -2.69834 2.17693 0
M  V30 24 C 0.7061 -2.6047 3.41253 0
M  V30 25 C -0.0609 -3.88 3.66458 0
M  V30 26 O 0.1621 -4.88693 2.94169 0
M  V30 27 O -0.9039 -3.88189 4.59992 0
M  V30 28 H 2.9221 -1.0839 2.83699 0
M  V30 29 H 0.5071 -0.471301 1.41771 0
M  V30 30 H 2.3891 -3.49017 2.36147 0
M  V30 31 H 1.0641 -2.97148 1.28392 0
M  V30 32 H -0.0289 -1.79663 3.28134 0
M  V30 33 H 1.3041 -2.38106 4.30774 0
M  V30 34 N 2.9562 -1.48159 -0.537278 0
M  V30 35 C 3.8882 -1.58218 -1.65831 0
M  V30 36 C 4.9012 -0.466948 -1.5596 0
M  V30 37 O 6.0902 -0.73747 -1.62553 0
M  V30 38 C 3.1902 -1.48906 -3.04434 0
M  V30 39 C 2.3632 -2.75343 -3.3986 0
M  V30 40 C 1.4222 -2.59588 -4.57712 0
M  V30 41 O 0.4482 -3.33457 -4.61297 0
M  V30 42 N 1.6502 -1.68724 -5.55439 0
M  V30 43 H 4.4152 -2.54891 -1.57641 0
M  V30 44 H 1.9762 -1.4479 -0.724386 0
M  V30 45 H 3.9682 -1.36072 -3.81139 0
M  V30 46 H 2.5382 -0.602368 -3.06741 0
M  V30 47 H 1.7582 -3.02795 -2.52406 0
M  V30 48 H 3.0462 -3.5924 -3.60311 0
M  V30 49 H 2.4442 -1.07898 -5.55315 0
M  V30 50 H 1.0012 -1.61832 -6.3139 0
M  V30 51 N 4.4343 0.785586 -1.36625 0
M  V30 52 C 5.6593 1.57963 -1.34397 0
M  V30 53 C 6.0843 1.87964 0.071526 0
M  V30 54 O 5.4423 1.48182 1.0446 0
M  V30 55 C 5.4903 2.87511 -2.17646 0
M  V30 56 O 4.5943 3.81281 -1.57158 0
M  V30 57 H 3.9353 0.479014 -0.459828 0
M  V30 58 H 6.4653 0.973411 -1.79961 0
M  V30 59 H 6.4753 3.36745 -2.30362 0
M  V30 60 H 5.1503 2.65002 -3.20541 0
M  V30 61 H 3.7273 3.39885 -1.53403 0
M  V30 62 N 5.9124 1.20967 1.01018 0
M  V30 63 C 6.8624 0.93182 2.08089 0
M  V30 64 C 7.8464 -0.110898 1.60517 0
M  V30 65 O 9.0384 0.0973392 1.76732 0
M  V30 66 C 6.1674 0.492719 3.39746 0
M  V30 67 C 5.2534 1.56922 3.94 0
M  V30 68 N 5.6444 2.79312 4.21686 0
M  V30 69 C 3.9424 1.43688 4.2222 0
M  V30 70 C 4.6434 3.48797 4.65527 0
M  V30 71 N 3.6194 2.76224 4.68189 0
M  V30 72 H 7.4214 1.86175 2.27412 0
M  V30 73 H 4.9354 1.10463 1.19045 0
M  V30 74 H 6.9324 0.275044 4.15992 0
M  V30 75 H 5.5924 -0.430509 3.21833 0
M  V30 76 H 6.6034 3.15903 4.10397 0
M  V30 77 H 3.2804 0.578548 4.13472 0
M  V30 78 H 4.6704 4.53561 4.95714 0
M  V30 79 N 7.3905 -1.2043 1.01659 0
M  V30 80 C 8.3225 -2.22626 0.544988 0
M  V30 81 C 9.3355 -1.58479 -0.372609 0
M  V30 82 O 10.5245 -1.77679 -0.170958 0
M  V30 83 C 7.6245 -3.38141 -0.22663 0
M  V30 84 C 6.7975 -4.31877 0.692876 0
M  V30 85 C 5.8565 -5.26191 -0.0311616 0
M  V30 86 O 4.8825 -5.6612 0.591343 0
M  V30 87 N 6.0845 -5.65618 -1.30601 0
M  V30 88 H 8.8495 -2.63716 1.42388 0
M  V30 89 H 6.4105 -1.34971 0.894116 0
M  V30 90 H 8.4025 -3.98239 -0.72024 0
M  V30 91 H 6.9725 -2.95943 -1.00681 0
M  V30 92 H 6.1925 -3.69746 1.36679 0
M  V30 93 H 7.4805 -4.91426 1.31824 0
M  V30 94 H 6.8785 -5.3519 -1.83269 0
M  V30 95 H 5.4355 -6.28025 -1.74435 0
M  V30 96 N 8.8686 -0.792821 -1.36206 0
M  V30 97 C 9.8166 -0.181555 -2.3189 0
M  V30 98 C 10.8106 0.661025 -1.55971 0
M  V30 99 O 12.0166 0.555728 -1.71206 0
M  V30 100 H 8.3916 -0.0399382 -0.750939 0
M  V30 101 H 10.3626 -1.00394 -2.81005 0
M  V30 102 C 9.1116 0.666444 -3.41253 0
M  V30 103 H 8.4346 0.0274489 -3.99791 0
M  V30 104 H 9.8746 1.06076 -4.10517 0
M  V30 105 C 8.3336 1.82614 -2.83114 0
M  V30 106 O 8.8636 2.9229 -2.75553 0
M  V30 107 N 7.0696 1.63333 -2.40356 0
M  V30 108 H 6.6166 0.741217 -2.46706 0
M  V30 109 H 6.5746 2.41087 -2.01803 0
M  V30 110 N 10.3467 1.47872 -0.545128 0
M  V30 111 C 11.2767 2.32661 0.197793 0
M  V30 112 C 12.2577 1.43041 0.920504 0
M  V30 113 O 13.4427 1.71912 0.90333 0
M  V30 114 C 10.5727 3.24569 1.23582 0
M  V30 115 C 9.5267 4.23333 0.630323 0
M  V30 116 C 8.8527 5.0448 1.77211 0
M  V30 117 C 10.1527 5.20704 -0.407974 0
M  V30 118 H 11.8467 2.95024 -0.510045 0
M  V30 119 H 9.3927 1.4187 -0.246731 0
M  V30 120 H 11.3457 3.8272 1.76362 0
M  V30 121 H 10.0697 2.60236 1.97344 0
M  V30 122 H 8.7287 3.6639 0.123922 0
M  V30 123 H 8.3767 4.36561 2.49847 0
M  V30 124 H 8.0767 5.71339 1.37281 0
M  V30 125 H 9.6007 5.65487 2.3034 0
M  V30 126 H 11.0147 5.7329 0.033305 0
M  V30 127 H 9.4117 5.95699 -0.725486 0
M  V30 128 H 10.4817 4.66917 -1.30828 0
M  V30 129 N 11.8248 0.280983 1.55075 0
M  V30 130 C 12.7568 -0.637268 2.20163 0
M  V30 131 C 13.7698 -1.11298 1.18813 0
M  V30 132 O 14.9588 -1.03388 1.4551 0
M  V30 133 C 12.0588 -1.88199 2.81841 0
M  V30 134 C 11.2318 -1.55211 4.08936 0
M  V30 135 C 10.2908 -2.64991 4.54606 0
M  V30 136 O 9.3168 -2.30929 5.2025 0
M  V30 137 N 10.5188 -3.95161 4.25238 0
M  V30 138 H 13.2838 -0.0801694 2.99593 0
M  V30 139 H 10.8448 0.102329 1.61576 0
M  V30 140 H 12.8368 -2.60948 3.09335 0
M  V30 141 H 11.4068 -2.34799 2.06369 0
M  V30 142 H 10.6268 -0.658185 3.88666 0
M  V30 143 H 11.9148 -1.30681 4.91732 0
M  V30 144 H 11.3128 -4.25653 3.72607 0
M  V30 145 H 9.8698 -4.6427 4.5749 0
M  V30 146 N 13.3029 -1.57598 0.00835791 0
M  V30 147 C 14.5279 -1.95617 -0.689103 0
M  V30 148 C 14.9529 -0.883753 -1.66046 0
M  V30 149 O 14.3109 0.157352 -1.80616 0
M  V30 150 C 14.3589 -3.32736 -1.38994 0
M  V30 151 O 13.4629 -3.27631 -2.50463 0
M  V30 152 H 12.8039 -0.638379 -0.182668 0
M  V30 153 H 15.3339 -2.045 0.064036 0
M  V30 154 H 15.3439 -3.68494 -1.75147 0
M  V30 155 H 14.0189 -4.1034 -0.677778 0
M  V30 156 H 12.5959 -3.03561 -2.16576 0
M  V30 157 N 14.781 0.264519 -1.55364 0
M  V30 158 C 15.713 1.34965 -1.85248 0
M  V30 159 C 16.726 1.45136 -0.737525 0
M  V30 160 O 17.915 1.46801 -1.01547 0
M  V30 161 C 15.015 2.73008 -2.00797 0
M  V30 162 C 14.188 2.85324 -3.31525 0
M  V30 163 C 13.247 4.04097 -3.37034 0
M  V30 164 O 12.273 3.94455 -4.10358 0
M  V30 165 N 13.475 5.16458 -2.65049 0
M  V30 166 H 16.24 1.09672 -2.78913 0
M  V30 167 H 13.801 0.454635 -1.55386 0
M  V30 168 H 15.793 3.50772 -2.01844 0
M  V30 169 H 14.363 2.91087 -1.1396 0
M  V30 170 H 13.583 1.94377 -3.42945 0
M  V30 171 H 14.871 2.9049 -4.17724 0
M  V30 172 H 14.269 5.27181 -2.05175 0
M  V30 173 H 12.826 5.92422 -2.71809 0
M  V30 174 N 16.2591 1.48442 0.529413 0
M  V30 175 C 17.5061 1.56488 1.28521 0
M  V30 176 C 17.8341 0.239042 1.93025 0
M  V30 177 O 17.0891 -0.770713 1.79885 0
M  V30 178 C 17.3881 2.6523 2.39558 0
M  V30 179 C 17.0541 4.07648 1.92702 0
M  V30 180 C 15.7161 4.46411 1.79641 0
M  V30 181 C 18.0681 4.96896 1.573 0
M  V30 182 C 15.3961 5.72226 1.29514 0
M  V30 183 C 17.7481 6.23202 1.08636 0
M  V30 184 C 16.4121 6.60821 0.941919 0
M  V30 185 H 15.6821 0.572631 0.470292 0
M  V30 186 H 18.3291 1.82161 0.59072 0
M  V30 187 H 16.6341 2.33419 3.14679 0
M  V30 188 H 18.3311 2.68671 2.97686 0
M  V30 189 H 14.9211 3.77036 2.03819 0
M  V30 190 H 19.1051 4.67626 1.66251 0
M  V30 191 H 14.3611 6.00097 1.17019 0
M  V30 192 H 18.5351 6.91753 0.803136 0
M  V30 193 H 16.1621 7.58198 0.5513 0
M  V30 194 N 17.7372 -0.778329 1.37039 0
M  V30 195 C 18.9842 -1.53665 1.31884 0
M  V30 196 C 19.3122 -1.9425 -0.0986303 0
M  V30 197 O 18.5672 -1.63832 -1.07041 0
M  V30 198 C 18.8662 -2.81845 2.19768 0
M  V30 199 C 18.5322 -2.60345 3.68146 0
M  V30 200 C 17.1942 -2.5419 4.08584 0
M  V30 201 C 19.5462 -2.40923 4.62175 0
M  V30 202 C 16.8742 -2.26594 5.41177 0
M  V30 203 C 19.2262 -2.14852 5.94997 0
M  V30 204 C 17.8902 -2.07137 6.34547 0
M  V30 205 H 17.1602 -0.562299 0.482598 0
M  V30 206 H 19.8072 -0.897069 1.69189 0
M  V30 207 H 18.1122 -3.50328 1.75436 0
M  V30 208 H 19.8092 -3.39692 2.13097 0
M  V30 209 H 16.3992 -2.65996 3.36072 0
M  V30 210 H 20.5832 -2.44673 4.31797 0
M  V30 211 H 15.8392 -2.19111 5.70789 0
M  V30 212 H 20.0132 -1.98822 6.67415 0
M  V30 213 H 17.6402 -1.85518 7.37216 0
M  V30 214 N 19.2153 -1.21501 -1.00376 0
M  V30 215 C 20.4643 -1.02718 -1.73586 0
M  V30 216 C 20.7773 0.439589 -1.90596 0
M  V30 217 O 21.9833 0.746848 -2.61026 0
M  V30 218 C 20.4393 -1.78929 -3.1227 0
M  V30 219 C 20.0473 -3.29783 -3.03228 0
M  V30 220 C 21.7913 -1.68557 -3.89601 0
M  V30 221 C 19.6983 -3.98479 -4.36999 0
M  V30 222 H 18.6283 -0.380733 -0.650814 0
M  V30 223 H 21.2793 -1.45248 -1.1214 0
M  V30 224 H 19.6613 -1.29192 -3.74333 0
M  V30 225 H 20.8353 -3.86832 -2.50395 0
M  V30 226 H 19.1503 -3.40711 -2.39385 0
M  V30 227 H 21.7473 -2.17211 -4.88593 0
M  V30 228 H 22.0903 -0.644021 -4.11288 0
M  V30 229 H 22.6233 -2.15778 -3.34193 0
M  V30 230 H 19.3623 -5.02841 -4.20513 0
M  V30 231 H 18.8823 -3.46219 -4.89788 0
M  V30 232 H 20.5613 -4.03462 -5.05794 0
M  V30 233 N 20.6934 1.19889 -1.02296 0
M  V30 234 C 21.6034 2.26571 -0.608508 0
M  V30 235 C 22.6194 1.70299 0.356964 0
M  V30 236 O 23.7954 2.00235 0.216326 0
M  V30 237 C 20.8604 3.46677 0.0402814 0
M  V30 238 C 19.9214 4.18153 -0.97194 0
M  V30 239 C 19.1544 5.32525 -0.354016 0
M  V30 240 O 19.3774 5.64112 0.844604 0
M  V30 241 O 18.3114 5.92242 -1.07391 0
M  V30 242 H 22.1374 2.64251 -1.49684 0
M  V30 243 H 19.7224 1.26629 -0.792809 0
M  V30 244 H 21.6044 4.19475 0.402324 0
M  V30 245 H 20.2794 3.10858 0.902707 0
M  V30 246 H 19.1864 3.47499 -1.38546 0
M  V30 247 H 20.5194 4.57927 -1.80454 0
M  V30 248 N 22.1715 0.800033 1.35784 0
M  V30 249 C 23.1215 0.178654 2.27299 0
M  V30 250 C 24.1055 -0.643667 1.47464 0
M  V30 251 O 25.2975 -0.502 1.69732 0
M  V30 252 C 22.4265 -0.677194 3.36555 0
M  V30 253 C 21.5125 0.154497 4.23818 0
M  V30 254 N 21.9035 1.21427 4.91008 0
M  V30 255 C 20.2015 -0.0649462 4.45953 0
M  V30 256 C 20.9025 1.72147 5.55644 0
M  V30 257 N 19.8785 1.02897 5.33773 0
M  V30 258 H 23.6805 0.989637 2.76737 0
M  V30 259 H 21.1945 0.64054 1.49234 0
M  V30 260 H 23.1915 -1.13835 4.01058 0
M  V30 261 H 21.8515 -1.4866 2.8867 0
M  V30 262 H 22.8625 1.59684 4.92668 0
M  V30 263 H 19.5395 -0.844016 4.0888 0
M  V30 264 H 20.9295 2.60683 6.19269 0
M  V30 265 N 23.6496 -1.47581 0.552962 0
M  V30 266 C 24.8986 -2.01684 0.0251995 0
M  V30 267 C 25.2116 -1.43317 -1.33115 0
M  V30 268 O 26.4176 -1.89057 -1.94858 0
M  V30 269 C 24.8736 -3.599 -0.00542052 0
M  V30 270 C 24.4816 -4.27257 1.34742 0
M  V30 271 C 26.2256 -4.21768 -0.4808 0
M  V30 272 C 24.1326 -5.77467 1.27614 0
M  V30 273 H 23.0626 -0.753979 0.00565033 0
M  V30 274 H 25.7136 -1.69616 0.70018 0
M  V30 275 H 24.0956 -3.88911 -0.745961 0
M  V30 276 H 25.2696 -4.09893 2.10534 0
M  V30 277 H 23.5846 -3.77358 1.76039 0
M  V30 278 H 26.1816 -5.31838 -0.55246 0
M  V30 279 H 26.5246 -3.88651 -1.49184 0
M  V30 280 H 27.0576 -3.97273 0.204752 0
M  V30 281 H 23.7966 -6.15196 2.26304 0
M  V30 282 H 23.3166 -5.9718 0.55996 0
M  V30 283 H 24.9956 -6.3959 0.976421 0
M  V30 284 N 25.1277 -0.289203 -1.54924 0
M  V30 285 C 26.0577 0.58549 -2.2604 0
M  V30 286 C 27.0387 1.14753 -1.25562 0
M  V30 287 O 28.2237 1.17906 -1.54311 0
M  V30 288 C 25.3537 1.76305 -2.99222 0
M  V30 289 C 24.3077 1.33191 -4.06748 0
M  V30 290 C 23.6337 2.5937 -4.6758 0
M  V30 291 C 24.9337 0.471775 -5.20165 0
M  V30 292 H 26.6277 -0.00763532 -2.99399 0
M  V30 293 H 24.1737 -0.00511229 -1.43999 0
M  V30 294 H 26.1267 2.38097 -3.47689 0
M  V30 295 H 24.8507 2.38223 -2.23422 0
M  V30 296 H 23.5097 0.737121 -3.59113 0
M  V30 297 H 23.1577 3.19576 -3.88433 0
M  V30 298 H 22.8577 2.31228 -5.40192 0
M  V30 299 H 24.3817 3.21985 -5.18804 0
M  V30 300 H 25.7957 0.995056 -5.64599 0
M  V30 301 H 24.1927 0.284639 -5.99425 0
M  V30 302 H 25.2627 -0.506041 -4.82252 0
M  V30 303 N 26.6058 1.57591 -0.0167156 0
M  V30 304 C 27.5378 2.06343 0.997753 0
M  V30 305 C 28.5508 0.984469 1.29661 0
M  V30 306 O 29.7398 1.26093 1.26344 0
M  V30 307 C 26.8398 2.46255 2.32834 0
M  V30 308 C 26.0128 3.77083 2.21646 0
M  V30 309 C 25.0718 4.0368 3.37534 0
M  V30 310 O 24.0978 4.7411 3.14973 0
M  V30 311 N 25.2998 3.52881 4.60929 0
M  V30 312 H 28.0648 2.93997 0.581875 0
M  V30 313 H 25.6258 1.61002 0.170316 0
M  V30 314 H 27.6178 2.61149 3.09166 0
M  V30 315 H 26.1878 1.64032 2.66106 0
M  V30 316 H 25.4078 3.72106 1.30119 0
M  V30 317 H 26.6958 4.62822 2.11361 0
M  V30 318 H 26.0938 2.95878 4.82154 0
M  V30 319 H 24.6508 3.73076 5.34469 0
M  V30 320 N 28.0839 -0.256276 1.55502 0
M  V30 321 C 29.3329 -0.983486 1.76098 0
M  V30 322 C 29.6459 -1.86837 0.578896 0
M  V30 323 O 30.8519 -2.63163 0.667648 0
M  V30 324 C 29.3079 -1.79868 3.1173 0
M  V30 325 C 28.9159 -0.961648 4.37557 0
M  V30 326 C 30.6599 -2.51919 3.41668 0
M  V30 327 C 28.5669 -1.77219 5.64223 0
M  V30 328 H 27.4969 -0.370936 0.656447 0
M  V30 329 H 30.1479 -0.238492 1.81944 0
M  V30 330 H 28.5299 -2.58527 2.99966 0
M  V30 331 H 29.7039 -0.218048 4.60284 0
M  V30 332 H 28.0189 -0.354913 4.14885 0
M  V30 333 H 30.6159 -3.12998 4.33516 0
M  V30 334 H 30.9589 -3.23059 2.62562 0
M  V30 335 H 31.4919 -1.80278 3.54605 0
M  V30 336 H 28.2309 -1.10471 6.46124 0
M  V30 337 H 27.7509 -2.49132 5.45613 0
M  V30 338 H 29.4299 -2.34169 6.03137 0
M  V30 339 N 29.562 -1.4872 -0.521534 0
M  V30 340 C 30.492 -1.66771 -1.63431 0
M  V30 341 C 31.473 -0.516499 -1.62069 0
M  V30 342 O 32.658 -0.750013 -1.79132 0
M  V30 343 C 29.788 -1.71515 -3.01993 0
M  V30 344 C 28.742 -2.86222 -3.18216 0
M  V30 345 C 28.068 -2.76061 -4.57924 0
M  V30 346 C 29.368 -4.27419 -3.00184 0
M  V30 347 H 31.062 -2.59932 -1.48579 0
M  V30 348 H 28.608 -1.25089 -0.713358 0
M  V30 349 H 30.561 -1.82731 -3.7972 0
M  V30 350 H 29.285 -0.749393 -3.17886 0
M  V30 351 H 27.944 -2.74575 -2.42908 0
M  V30 352 H 27.592 -1.77437 -4.70665 0
M  V30 353 H 27.292 -3.53037 -4.69722 0
M  V30 354 H 28.816 -2.89256 -5.37739 0
M  V30 355 H 30.23 -4.39855 -3.67697 0
M  V30 356 H 28.627 -5.05458 -3.2347 0
M  V30 357 H 29.697 -4.43293 -1.96518 0
M  V30 358 N 31.0401 0.771051 -1.3745 0
M  V30 359 C 32.4511 1.34737 -1.29239 0
M  V30 360 C 32.8021 1.96109 0.0596908 0
M  V30 361 O 31.9271 1.93865 0.961534 0
M  V30 362 C 32.5221 2.44973 -2.34037 0
M  V30 363 C 31.0811 2.98372 -2.29458 0
M  V30 364 C 30.2281 1.71595 -2.17831 0
M  V30 365 H 33.1791 0.571256 -1.48062 0
M  V30 366 H 33.2001 3.24471 -1.98744 0
M  V30 367 H 32.7121 2.00276 -3.32432 0
M  V30 368 H 30.8131 3.47443 -1.34589 0
M  V30 369 H 30.9261 3.53939 -3.229 0
M  V30 370 H 29.2901 1.94547 -1.64388 0
M  V30 371 H 30.0731 1.29001 -3.18141 0
M  V30 372 N 32.5182 1.22032 0.997298 0
M  V30 373 C 33.4682 0.953838 2.07089 0
M  V30 374 C 34.4522 -0.0938669 1.60626 0
M  V30 375 O 35.6442 0.116078 1.76619 0
M  V30 376 C 32.7732 0.528726 3.39204 0
M  V30 377 C 31.8592 1.61092 3.92314 0
M  V30 378 N 32.2502 2.83768 4.18699 0
M  V30 379 C 30.5482 1.48158 4.20672 0
M  V30 380 C 31.2492 3.53715 4.61802 0
M  V30 381 N 30.2252 2.81174 4.65233 0
M  V30 382 H 34.0272 1.88577 2.25424 0
M  V30 383 H 31.5412 1.11719 1.17867 0
M  V30 384 H 33.5382 0.31915 4.15677 0
M  V30 385 H 32.1982 -0.39635 3.22272 0
M  V30 386 H 33.2092 3.20238 4.07023 0
M  V30 387 H 29.8862 0.622369 4.12835 0
M  V30 388 H 31.2762 4.58793 4.90875 0
M  V30 389 N 33.9963 -1.19345 1.0293 0
M  V30 390 C 35.4123 -1.41069 0.746446 0
M  V30 391 C 35.6123 -1.90078 -0.668776 0
M  V30 392 O 34.6683 -2.0778 -1.4347 0
M  V30 393 C 35.9813 -2.42141 1.78292 0
M  V30 394 C 37.5293 -2.55887 1.80252 0
M  V30 395 C 38.0043 -3.60214 2.8286 0
M  V30 396 N 39.4953 -3.67711 2.81679 0
M  V30 397 C 40.2303 -4.48128 3.57727 0
M  V30 398 N 39.7263 -5.32248 4.43491 0
M  V30 399 N 41.5193 -4.42782 3.46267 0
M  V30 400 H 33.6703 -0.858536 1.94275 0
M  V30 401 H 35.9333 -0.439541 0.839945 0
M  V30 402 H 35.6393 -2.13155 2.79746 0
M  V30 403 H 35.5133 -3.41323 1.60557 0
M  V30 404 H 37.9003 -2.84196 0.794757 0
M  V30 405 H 37.9813 -1.56858 2.02062 0
M  V30 406 H 37.6253 -3.32647 3.83807 0
M  V30 407 H 37.5553 -4.58895 2.58307 0
M  V30 408 H 40.0463 -3.07634 2.19476 0
M  V30 409 H 40.3593 -5.90729 4.98256 0
M  V30 410 H 38.7043 -5.31707 4.47564 0
M  V30 411 H 41.8953 -3.76107 2.78677 0
M  V30 412 H 42.0683 -5.05215 4.05785 0
M  V30 413 N 35.4744 -0.807222 -1.35358 0
M  V30 414 C 36.7044 -0.399796 -2.02695 0
M  V30 415 C 37.1124 0.994176 -1.60974 0
M  V30 416 O 36.4554 1.65209 -0.803226 0
M  V30 417 C 36.5174 -0.404445 -3.57218 0
M  V30 418 C 36.1814 -1.74904 -4.22206 0
M  V30 419 C 37.1784 -2.70743 -4.4384 0
M  V30 420 C 34.8634 -2.03322 -4.5931 0
M  V30 421 C 36.8574 -3.93183 -5.01683 0
M  V30 422 C 34.5444 -3.26026 -5.16866 0
M  V30 423 C 35.5424 -4.20774 -5.37994 0
M  V30 424 O 35.2304 -5.41312 -5.94337 0
M  V30 425 H 34.9624 -0.160517 -0.656666 0
M  V30 426 H 37.5164 -1.09235 -1.73945 0
M  V30 427 H 35.7464 0.344707 -3.85161 0
M  V30 428 H 37.4354 -0.0192429 -4.05895 0
M  V30 429 H 38.2014 -2.5008 -4.15554 0
M  V30 430 H 34.0804 -1.30384 -4.42178 0
M  V30 431 H 37.6244 -4.6715 -5.1809 0
M  V30 432 H 33.5214 -3.46559 -5.44579 0
M  V30 433 H 34.2894 -5.42618 -6.12787 0
M  V30 434 N 36.9525 1.47285 -0.560781 0
M  V30 435 C 38.3635 1.86258 -0.128343 0
M  V30 436 C 38.7145 1.46699 1.30284 0
M  V30 437 O 37.8395 0.871698 1.98067 0
M  V30 438 C 38.4345 3.38044 -0.22614 0
M  V30 439 C 36.9935 3.76096 0.151283 0
M  V30 440 C 36.1405 2.71335 -0.572084 0
M  V30 441 H 39.0915 1.38752 -0.770297 0
M  V30 442 H 39.1125 3.76441 0.554322 0
M  V30 443 H 38.6245 3.66806 -1.26788 0
M  V30 444 H 36.7255 3.52951 1.19399 0
M  V30 445 H 36.8385 4.78641 -0.209765 0
M  V30 446 H 35.2025 2.54696 -0.0147653 0
M  V30 447 H 35.9855 3.02938 -1.61504 0
M  V30 448 N 38.4306 0.297415 1.54768 0
M  V30 449 C 39.3636 -0.622188 2.19554 0
M  V30 450 C 40.3416 -1.13558 1.16376 0
M  V30 451 O 41.5256 -1.20444 1.45002 0
M  V30 452 C 38.6526 -1.8509 2.83653 0
M  V30 453 C 37.6986 -1.47106 4.00328 0
M  V30 454 S 38.5316 -0.53006 5.3287 0
M  V30 455 C 39.6876 -1.76665 6.0045 0
M  V30 456 H 39.9206 -0.0717806 2.97213 0
M  V30 457 H 37.4536 0.0815678 1.54184 0
M  V30 458 H 39.4116 -2.55605 3.21211 0
M  V30 459 H 38.0726 -2.37247 2.05846 0
M  V30 460 H 37.2656 -2.38594 4.43947 0
M  V30 461 H 36.8676 -0.845885 3.64309 0
M  V30 462 H 39.1596 -2.7077 6.21039 0
M  V30 463 H 40.1026 -1.37308 6.9466 0
M  V30 464 H 40.5106 -1.94174 5.30054 0
M  V30 465 N 39.9087 -1.5758 0.0250728 0
M  V30 466 C 40.8387 -2.13007 -0.956575 0
M  V30 467 C 41.8197 -1.0452 -1.342 0
M  V30 468 O 43.0047 -1.32332 -1.42133 0
M  V30 469 C 40.1347 -2.65386 -2.24026 0
M  V30 470 C 39.0887 -3.78623 -1.99571 0
M  V30 471 C 38.4147 -4.17414 -3.3417 0
M  V30 472 C 39.7147 -5.04867 -1.33814 0
M  V30 473 H 41.4087 -2.9528 -0.494991 0
M  V30 474 H 38.9547 -1.42042 -0.236651 0
M  V30 475 H 40.9077 -3.02794 -2.93076 0
M  V30 476 H 39.6317 -1.80268 -2.72343 0
M  V30 477 H 38.2907 -3.41646 -1.32941 0
M  V30 478 H 37.9387 -3.29284 -3.80238 0
M  V30 479 H 37.6387 -4.93719 -3.18615 0
M  V30 480 H 39.1627 -4.57402 -4.04495 0
M  V30 481 H 40.5767 -5.39888 -1.92857 0
M  V30 482 H 38.9737 -5.86144 -1.28669 0
M  V30 483 H 40.0437 -4.83904 -0.310561 0
M  V30 484 N 41.3868 0.248026 -1.55636 0
M  V30 485 C 42.3168 1.31079 -1.93237 0
M  V30 486 C 43.2978 1.50264 -0.797174 0
M  V30 487 O 44.4828 1.62891 -1.05737 0
M  V30 488 C 41.6128 2.66575 -2.22609 0
M  V30 489 C 40.5668 2.62087 -3.3837 0
M  V30 490 C 39.8928 4.01369 -3.53281 0
M  V30 491 C 41.1928 2.19171 -4.7409 0
M  V30 492 H 42.8868 0.998556 -2.82257 0
M  V30 493 H 40.4328 0.47891 -1.35803 0
M  V30 494 H 42.3858 3.41057 -2.47503 0
M  V30 495 H 41.1098 2.99432 -1.30414 0
M  V30 496 H 39.7688 1.90063 -3.13483 0
M  V30 497 H 39.4168 4.31489 -2.58508 0
M  V30 498 H 39.1168 3.99254 -4.31127 0
M  V30 499 H 40.6408 4.77552 -3.80495 0
M  V30 500 H 42.0548 2.83384 -4.98363 0
M  V30 501 H 40.4518 2.2817 -5.5503 0
M  V30 502 H 41.5218 1.14336 -4.71227 0
M  V30 503 N 42.8649 1.48995 0.513639 0
M  V30 504 C 44.1109 1.58076 1.27042 0
M  V30 505 C 44.4439 0.261026 1.92438 0
M  V30 506 O 43.7189 -0.734393 1.80103 0
M  V30 507 C 44.0019 2.73091 2.34719 0
M  V30 508 C 43.8549 4.14821 1.73907 0
M  V30 509 C 45.1739 2.83796 3.36375 0
M  V30 510 H 42.2929 0.575391 0.460536 0
M  V30 511 H 44.9349 1.81232 0.570516 0
M  V30 512 H 43.0849 2.53479 2.94416 0
M  V30 513 H 44.7569 4.45917 1.18135 0
M  V30 514 H 42.9999 4.21058 1.0437 0
M  V30 515 H 43.6709 4.91147 2.51949 0
M  V30 516 H 46.1469 3.01611 2.86653 0
M  V30 517 H 45.0229 3.65971 4.09093 0
M  V30 518 H 45.2839 1.92624 3.9793 0
M  V30 519 N 44.343 -0.763751 1.37857 0
M  V30 520 C 45.62 -1.51244 1.24035 0
M  V30 521 C 46 -2.10472 -0.162649 0
M  V30 522 O 45.348 -1.96206 -1.17112 0
M  V30 523 C 45.558 -2.58694 2.34261 0
M  V30 524 C 46.906 -3.25878 2.72193 0
M  V30 525 O 47.93 -2.68993 2.33497 0
M  V30 526 O 46.789 -4.2874 3.38887 0
M  V30 527 H 43.883 -0.670243 0.484462 0
M  V30 528 H 46.429 -0.800031 1.49658 0
M  V30 529 H 45.201 -2.13105 3.2818 0
M  V30 530 H 44.824 -3.37527 2.10146 0
M  V30 531 N 45.8211 -1.22559 -0.990812 0
M  V30 532 C 47.2371 -0.985996 -1.255 0
M  V30 533 C 47.4371 0.319173 -1.98956 0
M  V30 534 O 46.4931 1.04127 -2.3003 0
M  V30 535 C 47.8061 -2.18607 -2.06474 0
M  V30 536 C 49.3541 -2.22985 -2.19651 0
M  V30 537 C 49.8291 -3.4255 -3.04012 0
M  V30 538 N 51.3201 -3.42725 -3.11599 0
M  V30 539 C 52.0551 -4.31892 -3.7717 0
M  V30 540 N 51.5511 -5.31279 -4.44651 0
M  V30 541 N 53.3441 -4.19662 -3.73952 0
M  V30 542 H 45.4951 -2.06469 -0.49841 0
M  V30 543 H 47.7581 -0.904853 -0.282747 0
M  V30 544 H 47.4641 -3.13267 -1.59865 0
M  V30 545 H 47.3381 -2.18838 -3.07229 0
M  V30 546 H 49.7251 -1.28871 -2.65474 0
M  V30 547 H 49.8061 -2.26791 -1.18319 0
M  V30 548 H 49.4501 -4.36965 -2.58889 0
M  V30 549 H 49.3801 -3.35984 -4.0549 0
M  V30 550 H 51.8711 -2.70807 -2.63575 0
M  V30 551 H 52.1841 -5.95593 -4.92431 0
M  V30 552 H 50.5291 -5.3519 -4.43392 0
M  V30 553 H 53.7201 -3.41268 -3.20396 0
M  V30 554 H 53.8931 -4.89358 -4.24774 0
M  V30 555 N 47.2992 1.18797 -1.03562 0
M  V30 556 C 48.5482 1.87978 -0.731235 0
M  V30 557 C 48.8612 1.80911 0.743671 0
M  V30 558 O 50.0672 2.45407 1.16137 0
M  V30 559 C 48.5232 3.3721 -1.25768 0
M  V30 560 C 48.1312 3.52818 -2.76085 0
M  V30 561 C 49.8752 4.11825 -1.0296 0
M  V30 562 C 47.7822 4.9598 -3.22114 0
M  V30 563 H 46.7122 0.704063 -0.269835 0
M  V30 564 H 49.3632 1.34266 -1.25079 0
M  V30 565 H 47.7452 3.90359 -0.666011 0
M  V30 566 H 48.9192 3.09965 -3.40966 0
M  V30 567 H 47.2342 2.91602 -2.97249 0
M  V30 568 H 49.8312 5.17411 -1.34869 0
M  V30 569 H 50.1742 4.16287 0.0333546 0
M  V30 570 H 50.7072 3.64833 -1.58562 0
M  V30 571 H 47.4462 4.96684 -4.27768 0
M  V30 572 H 46.9662 5.39569 -2.61965 0
M  V30 573 H 48.6452 5.6467 -3.15844 0
M  V30 574 N 48.7773 0.814389 1.34928 0
M  V30 575 C 50.0263 0.394871 1.97797 0
M  V30 576 C 50.3393 -1.04555 1.65311 0
M  V30 577 O 51.5453 -1.56856 2.21604 0
M  V30 578 C 50.0013 0.655103 3.53888 0
M  V30 579 C 49.6093 2.10858 3.95276 0
M  V30 580 C 51.3533 0.301329 4.23429 0
M  V30 581 C 49.2603 2.31415 5.44244 0
M  V30 582 H 48.1903 0.143913 0.740139 0
M  V30 583 H 50.8413 0.999544 1.53888 0
M  V30 584 H 49.2233 -0.0196253 3.95995 0
M  V30 585 H 50.3973 2.82176 3.64298 0
M  V30 586 H 48.7123 2.42297 3.38646 0
M  V30 587 H 51.3093 0.432869 5.32945 0
M  V30 588 H 51.6523 -0.75331 4.09428 0
M  V30 589 H 52.1853 0.930288 3.86769 0
M  V30 590 H 48.9243 3.35353 5.63222 0
M  V30 591 H 48.4443 1.6463 5.76764 0
M  V30 592 H 50.1233 2.13352 6.10811 0
M  V30 593 N 50.2554 -1.46986 0.568584 0
M  V30 594 C 51.1654 -2.33942 -0.17555 0
M  V30 595 C 52.1814 -1.48891 -0.90041 0
M  V30 596 O 53.3574 -1.81794 -0.86676 0
M  V30 597 C 50.4224 -3.25811 -1.18524 0
M  V30 598 C 49.4834 -4.26757 -0.466582 0
M  V30 599 C 48.7164 -5.14236 -1.42817 0
M  V30 600 O 48.9394 -5.04379 -2.66379 0
M  V30 601 O 47.8734 -5.94412 -0.946453 0
M  V30 602 H 51.6994 -2.98896 0.538036 0
M  V30 603 H 49.2844 -1.4573 0.329097 0
M  V30 604 H 51.1664 -3.82527 -1.76779 0
M  V30 605 H 49.8414 -2.63471 -1.88055 0
M  V30 606 H 48.7484 -3.73769 0.157451 0
M  V30 607 H 50.0814 -4.91843 0.187485 0
M  V30 608 N 51.7335 -0.305618 -1.54608 0
M  V30 609 C 52.6635 0.561482 -2.26649 0
M  V30 610 C 53.6445 1.13415 -1.26772 0
M  V30 611 O 54.8295 1.16262 -1.55553 0
M  V30 612 C 51.9595 1.73122 -3.01075 0
M  V30 613 C 50.9135 1.2887 -4.08138 0
M  V30 614 C 50.2395 2.54396 -4.70305 0
M  V30 615 C 51.5395 0.416578 -5.20636 0
M  V30 616 H 53.2335 -0.0393902 -2.99374 0
M  V30 617 H 50.7795 -0.020385 -1.43986 0
M  V30 618 H 52.7325 2.34396 -3.50195 0
M  V30 619 H 51.4565 2.3584 -2.25936 0
M  V30 620 H 50.1155 0.698991 -3.59875 0
M  V30 621 H 49.7635 3.15439 -3.918 0
M  V30 622 H 49.4635 2.25486 -5.42614 0
M  V30 623 H 50.9875 3.16464 -5.2219 0
M  V30 624 H 52.4015 0.935116 -5.65622 0
M  V30 625 H 50.7985 0.221046 -5.99693 0
M  V30 626 H 51.8685 -0.557162 -4.81688 0
M  V30 627 N 53.2116 1.57565 -0.0334293 0
M  V30 628 C 54.1436 2.0739 0.975811 0
M  V30 629 C 55.1566 0.998166 1.2861 0
M  V30 630 O 56.3456 1.27426 1.25 0
M  V30 631 C 53.4456 2.4871 2.30209 0
M  V30 632 C 52.6186 3.79413 2.17634 0
M  V30 633 C 51.6776 4.07237 3.33233 0
M  V30 634 O 50.7036 4.77425 3.09927 0
M  V30 635 N 51.9056 3.5775 4.5716 0
M  V30 636 H 54.6706 2.94598 0.55066 0
M  V30 637 H 52.2316 1.61173 0.15323 0
M  V30 638 H 54.2236 2.64413 3.06378 0
M  V30 639 H 52.7936 1.66845 2.64351 0
M  V30 640 H 52.0136 3.73465 1.26165 0
M  V30 641 H 53.3016 4.65038 2.0644 0
M  V30 642 H 52.6996 3.00976 4.78989 0
M  V30 643 H 51.2566 3.78724 5.30482 0
M  V30 644 N 54.6897 -0.239769 1.55765 0
M  V30 645 C 55.6527 -1.28038 1.90103 0
M  V30 646 C 56.6527 -1.40723 0.778055 0
M  V30 647 O 57.8427 -1.39301 1.04599 0
M  V30 648 C 54.9747 -2.65702 2.13577 0
M  V30 649 H 56.1677 -0.988048 2.83157 0
M  V30 650 H 53.7207 -0.479382 1.48767 0
M  V30 651 H 54.4557 -3.00063 1.23015 0
M  V30 652 H 54.2407 -2.57875 2.95369 0
M  V30 653 H 55.7307 -3.40828 2.41301 0
M  V30 654 N 56.1678 -1.49265 -0.50573 0
M  V30 655 C 57.1158 -1.66065 -1.62866 0
M  V30 656 C 58.1098 -0.526636 -1.61006 0
M  V30 657 O 59.3158 -0.706126 -1.65571 0
M  V30 658 H 55.6908 -0.52356 -0.539805 0
M  V30 659 H 57.6618 -2.60329 -1.45848 0
M  V30 660 C 56.4108 -1.74008 -3.01026 0
M  V30 661 H 55.7338 -2.6064 -3.03161 0
M  V30 662 H 57.1738 -1.89798 -3.79147 0
M  V30 663 C 55.6328 -0.483868 -3.33407 0
M  V30 664 O 56.1628 0.392548 -3.99777 0
M  V30 665 N 54.3688 -0.348236 -2.88506 0
M  V30 666 H 53.9158 -1.06242 -2.34671 0
M  V30 667 H 53.8738 0.491204 -3.10539 0
M  V30 668 N 57.6459 0.756429 -1.3826 0
M  V30 669 C 58.5929 1.87011 -1.35261 0
M  V30 670 C 59.5629 1.64695 -0.215616 0
M  V30 671 O 60.7479 1.864 -0.407399 0
M  V30 672 C 57.8879 3.24275 -1.18068 0
M  V30 673 C 57.0009 3.58442 -2.41129 0
M  V30 674 C 56.1359 4.84994 -2.16689 0
M  V30 675 C 55.1749 5.11939 -3.35537 0
M  V30 676 N 54.3119 6.29685 -3.10549 0
M  V30 677 H 59.1519 1.8891 -2.30472 0
M  V30 678 H 56.6889 0.923373 -1.14509 0
M  V30 679 H 58.6469 4.03479 -1.06116 0
M  V30 680 H 57.2769 3.21711 -0.264973 0
M  V30 681 H 56.3289 2.74103 -2.63764 0
M  V30 682 H 57.6409 3.74283 -3.29717 0
M  V30 683 H 56.7949 5.72135 -2.01857 0
M  V30 684 H 55.5339 4.71286 -1.25462 0
M  V30 685 H 54.5389 4.23268 -3.50891 0
M  V30 686 H 55.7639 5.27546 -4.27635 0
M  V30 687 H 53.7099 6.17306 -2.21967 0
M  V30 688 H 53.6269 6.46014 -3.92686 0
M  V30 689 H 54.8949 7.19722 -2.99367 0
M  V30 690 N 59.124 1.23083 0.984299 0
M  V30 691 C 60.071 1.00854 2.07598 0
M  V30 692 C 61.041 -0.0726709 1.65941 0
M  V30 693 O 62.226 0.0786535 1.90638 0
M  V30 694 C 59.366 0.601645 3.39815 0
M  V30 695 C 58.479 1.75456 3.94765 0
M  V30 696 C 57.614 1.29482 5.15177 0
M  V30 697 C 56.653 2.41873 5.62284 0
M  V30 698 N 55.79 1.96885 6.73929 0
M  V30 699 H 60.63 1.943 2.25946 0
M  V30 700 H 58.167 0.968001 1.10762 0
M  V30 701 H 60.125 0.346854 4.15756 0
M  V30 702 H 58.755 -0.295803 3.21442 0
M  V30 703 H 57.807 2.12346 3.15616 0
M  V30 704 H 59.119 2.59965 4.25699 0
M  V30 705 H 58.273 0.997923 5.98437 0
M  V30 706 H 57.012 0.420046 4.85888 0
M  V30 707 H 56.017 2.72342 4.77608 0
M  V30 708 H 57.242 3.29881 5.93595 0
M  V30 709 H 55.188 1.11782 6.46406 0
M  V30 710 H 55.105 2.74956 7.04227 0
M  V30 711 H 56.373 1.70289 7.60672 0
M  V30 712 N 60.6021 -1.18246 1.0419 0
M  V30 713 C 61.8511 -1.87588 0.741194 0
M  V30 714 C 62.1641 -1.81303 -0.734066 0
M  V30 715 O 63.3701 -2.46019 -1.14834 0
M  V30 716 C 61.8261 -3.36538 1.27555 0
M  V30 717 C 61.4341 -3.51349 2.77953 0
M  V30 718 C 63.1781 -4.11273 1.05143 0
M  V30 719 C 61.0851 -4.94265 3.2474 0
M  V30 720 H 60.0151 -0.702622 0.273565 0
M  V30 721 H 62.6661 -1.33601 1.25789 0
M  V30 722 H 61.0481 -3.9 0.686703 0
M  V30 723 H 62.2221 -3.08153 3.42605 0
M  V30 724 H 60.5371 -2.90022 2.98791 0
M  V30 725 H 63.1341 -5.16689 1.37611 0
M  V30 726 H 63.4771 -4.16298 -0.0112774 0
M  V30 727 H 64.0101 -3.63987 1.60495 0
M  V30 728 H 60.7491 -4.94408 4.30396 0
M  V30 729 H 60.2691 -5.38172 2.64823 0
M  V30 730 H 61.9481 -5.62987 3.18834 0
M  V30 731 N 62.0802 -0.821533 -1.34494 0
M  V30 732 C 63.3262 -0.409552 -1.98622 0
M  V30 733 C 63.6592 1.0244 -1.64984 0
M  V30 734 O 62.9342 1.71325 -0.920758 0
M  V30 735 C 63.2172 -0.610458 -3.54888 0
M  V30 736 C 63.0702 -2.09043 -3.98273 0
M  V30 737 C 64.3892 -0.0455379 -4.40076 0
M  V30 738 H 61.5082 -0.15028 -0.721516 0
M  V30 739 H 64.1502 -1.03384 -1.59411 0
M  V30 740 H 62.3002 -0.079044 -3.8842 0
M  V30 741 H 63.9722 -2.68537 -3.75081 0
M  V30 742 H 62.2152 -2.58139 -3.48635 0
M  V30 743 H 62.8862 -2.18182 -5.07051 0
M  V30 744 H 65.3622 -0.499557 -4.1309 0
M  V30 745 H 64.2382 -0.215922 -5.48475 0
M  V30 746 H 64.4992 1.04939 -4.29465 0
M  V30 747 N 63.5583 1.46682 -0.576371 0
M  V30 748 C 64.5213 2.28707 0.150239 0
M  V30 749 C 65.5213 1.38035 0.824794 0
M  V30 750 O 66.7113 1.60476 0.677719 0
M  V30 751 C 63.8433 3.18248 1.22192 0
M  V30 752 H 65.0363 2.94423 -0.570521 0
M  V30 753 H 62.5893 1.52688 -0.334078 0
M  V30 754 H 63.3243 2.57265 1.97447 0
M  V30 755 H 63.1093 3.85 0.742812 0
M  V30 756 H 64.5993 3.80001 1.73172 0
M  V30 757 N 65.0364 0.313813 1.54444 0
M  V30 758 C 66.2664 -0.293491 2.04505 0
M  V30 759 C 66.6744 -1.47086 1.19005 0
M  V30 760 O 66.0174 -1.82481 0.211257 0
M  V30 761 C 66.0794 -0.800455 3.50475 0
M  V30 762 C 65.7434 0.253322 4.56297 0
M  V30 763 C 66.7404 1.08612 5.08428 0
M  V30 764 C 64.4254 0.398708 5.00715 0
M  V30 765 C 66.4194 2.05013 6.0353 0
M  V30 766 C 64.1064 1.36614 5.95634 0
M  V30 767 C 65.1044 2.19033 6.46926 0
M  V30 768 O 64.7924 3.14134 7.39983 0
M  V30 769 H 64.5244 -0.0658325 0.672787 0
M  V30 770 H 67.0784 0.455177 2.00293 0
M  V30 771 H 65.3084 -1.59987 3.52053 0
M  V30 772 H 66.9974 -1.32504 3.83663 0
M  V30 773 H 67.7634 0.984736 4.74898 0
M  V30 774 H 63.6424 -0.23289 4.60411 0
M  V30 775 H 67.1864 2.69382 6.4349 0
M  V30 776 H 63.0834 1.4682 6.28581 0
M  V30 777 H 63.8514 3.0926 7.57826 0
M  V30 778 N 66.5145 -1.57545 0.0417849 0
M  V30 779 C 67.4615 -2.10977 -0.935805 0
M  V30 780 C 68.4315 -1.01486 -1.31491 0
M  V30 781 O 69.6165 -1.2898 -1.40602 0
M  V30 782 C 66.7565 -2.65169 -2.2086 0
M  V30 783 C 65.8695 -3.88714 -1.88482 0
M  V30 784 C 65.0045 -4.31254 -3.1015 0
M  V30 785 C 64.0435 -5.47524 -2.7365 0
M  V30 786 N 63.1805 -5.85162 -3.87982 0
M  V30 787 H 68.0205 -2.94218 -0.473249 0
M  V30 788 H 65.5575 -1.45415 -0.221981 0
M  V30 789 H 67.5155 -2.94685 -2.95325 0
M  V30 790 H 66.1455 -1.8474 -2.64709 0
M  V30 791 H 65.1975 -3.65849 -1.04205 0
M  V30 792 H 66.5095 -4.73245 -1.57608 0
M  V30 793 H 65.6635 -4.62273 -3.92923 0
M  V30 794 H 64.4025 -3.45516 -3.44195 0
M  V30 795 H 63.4075 -5.16187 -1.89291 0
M  V30 796 H 64.6325 -6.34971 -2.40807 0
M  V30 797 H 62.5785 -5.02377 -4.21846 0
M  V30 798 H 62.4955 -6.64362 -3.60775 0
M  V30 799 H 63.7635 -6.20791 -4.71422 0
M  V30 800 N 67.9926 0.231505 -1.5589 0
M  V30 801 C 68.9406 1.30649 -1.92441 0
M  V30 802 C 69.9346 1.49037 -0.805254 0
M  V30 803 O 71.1406 1.50329 -0.990007 0
M  V30 804 H 67.5156 0.437812 -0.611412 0
M  V30 805 H 69.4866 0.970973 -2.82161 0
M  V30 806 C 68.2356 2.65179 -2.24889 0
M  V30 807 H 67.5586 2.51835 -3.10514 0
M  V30 808 H 68.9986 3.39234 -2.54355 0
M  V30 809 C 67.4576 3.19439 -1.07054 0
M  V30 810 O 67.9876 4.00371 -0.326499 0
M  V30 811 N 66.1936 2.77675 -0.85703 0
M  V30 812 H 65.7406 2.11969 -1.46379 0
M  V30 813 H 65.6986 3.14321 -0.0703223 0
M  V30 814 N 69.4707 1.49531 0.497807 0
M  V30 815 C 70.7197 1.58426 1.24837 0
M  V30 816 C 71.0327 0.277643 1.93619 0
M  V30 817 O 72.2387 0.24517 2.70391 0
M  V30 818 C 70.6947 2.79538 2.26686 0
M  V30 819 C 70.3027 4.16971 1.63828 0
M  V30 820 C 72.0467 2.97764 3.0255 0
M  V30 821 C 69.9537 5.29301 2.63807 0
M  V30 822 H 68.8837 0.58989 0.469623 0
M  V30 823 H 71.5347 1.75923 0.521857 0
M  V30 824 H 69.9167 2.55542 3.02514 0
M  V30 825 H 71.0907 4.51116 0.939711 0
M  V30 826 H 69.4057 4.04129 1.00342 0
M  V30 827 H 72.0027 3.78856 3.77323 0
M  V30 828 H 72.3457 2.08448 3.60354 0
M  V30 829 H 72.8787 3.21815 2.33838 0
M  V30 830 H 69.6177 6.20687 2.10779 0
M  V30 831 H 69.1377 4.99606 3.31894 0
M  V30 832 H 70.8167 5.58768 3.2617 0
M  V30 833 N 70.9488 -0.749086 1.3866 0
M  V30 834 C 72.1768 -1.53834 1.38358 0
M  V30 835 C 72.5918 -1.88783 -0.0255219 0
M  V30 836 O 71.9488 -1.53101 -0.993292 0
M  V30 837 C 71.9998 -2.83468 2.2434 0
M  V30 838 O 71.7208 -2.50008 3.5976 0
M  V30 839 C 73.2218 -3.7758 2.32267 0
M  V30 840 H 70.4418 -0.47585 0.473083 0
M  V30 841 H 72.9858 -0.926726 1.82297 0
M  V30 842 H 71.1408 -3.40995 1.83851 0
M  V30 843 H 71.5548 -3.33182 4.05081 0
M  V30 844 H 73.0288 -4.65478 2.96706 0
M  V30 845 H 73.5058 -4.18334 1.33765 0
M  V30 846 H 74.1118 -3.25976 2.73166 0
M  V30 847 N 72.4269 -1.23603 -0.977757 0
M  V30 848 C 73.6739 -1.06971 -1.71941 0
M  V30 849 C 74.0019 0.393009 -1.90488 0
M  V30 850 O 73.2569 1.30719 -1.4564 0
M  V30 851 C 73.5559 -1.7433 -3.11999 0
M  V30 852 C 73.2219 -3.24252 -3.13323 0
M  V30 853 C 71.8839 -3.65156 -3.13392 0
M  V30 854 C 74.2359 -4.20141 -3.08433 0
M  V30 855 C 71.5639 -5.00403 -3.0629 0
M  V30 856 C 73.9159 -5.55384 -3.02873 0
M  V30 857 C 72.5799 -5.95647 -3.01265 0
M  V30 858 H 71.8499 -0.391433 -0.629175 0
M  V30 859 H 74.4969 -1.53572 -1.14403 0
M  V30 860 H 72.8019 -1.20096 -3.7294 0
M  V30 861 H 74.4989 -1.58936 -3.68158 0
M  V30 862 H 71.0889 -2.91692 -3.14029 0
M  V30 863 H 75.2729 -3.89547 -3.07517 0
M  V30 864 H 70.5289 -5.3081 -3.03399 0
M  V30 865 H 74.7029 -6.29398 -2.98046 0
M  V30 866 H 72.3299 -7.0041 -2.95516 0
M  V30 867 N 73.905 1.17692 -1.04816 0
M  V30 868 C 74.853 2.23632 -0.63966 0
M  V30 869 C 75.847 1.6601 0.337219 0
M  V30 870 O 77.053 1.78844 0.203693 0
M  V30 871 H 73.428 0.727949 -0.188665 0
M  V30 872 H 75.399 2.55387 -1.54337 0
M  V30 873 C 74.148 3.4769 -0.0264051 0
M  V30 874 H 73.471 3.92331 -0.769164 0
M  V30 875 H 74.911 4.23418 0.222098 0
M  V30 876 C 73.37 3.13807 1.22584 0
M  V30 877 O 73.9 3.28236 2.31569 0
M  V30 878 N 72.106 2.68065 1.12202 0
M  V30 879 H 71.653 2.56525 0.235133 0
M  V30 880 H 71.611 2.45767 1.96076 0
M  V30 881 N 75.3831 0.828654 1.34056 0
M  V30 882 C 76.2931 0.256725 2.33191 0
M  V30 883 C 77.3091 -0.611898 1.62886 0
M  V30 884 O 78.4851 -0.51844 1.94613 0
M  V30 885 C 75.5501 -0.567238 3.42028 0
M  V30 886 C 74.6111 0.324458 4.28072 0
M  V30 887 C 73.8441 -0.460274 5.31712 0
M  V30 888 O 74.0671 -1.693 5.44696 0
M  V30 889 O 73.0011 0.160391 6.01686 0
M  V30 890 H 76.8271 1.07739 2.83947 0
M  V30 891 H 74.4121 0.59093 1.37217 0
M  V30 892 H 76.2941 -1.03582 4.08471 0
M  V30 893 H 74.9691 -1.36513 2.93506 0
M  V30 894 H 73.8761 0.840659 3.64532 0
M  V30 895 H 75.2091 1.08685 4.8005 0
M  V30 896 N 76.8612 -1.46375 0.584142 0
M  V30 897 C 78.1382 -1.956 0.0033388 0
M  V30 898 C 78.5182 -1.52679 -1.45782 0
M  V30 899 O 77.8662 -0.77816 -2.14842 0
M  V30 900 C 78.0762 -3.48551 0.176891 0
M  V30 901 C 79.4242 -4.24576 0.0454609 0
M  V30 902 O 80.4482 -3.56043 0.105801 0
M  V30 903 O 79.3072 -5.46427 -0.0890376 0
M  V30 904 H 76.4012 -0.825547 -0.0490066 0
M  V30 905 H 78.9472 -1.56652 0.65256 0
M  V30 906 H 77.7192 -3.72683 1.1926 0
M  V30 907 H 77.3422 -3.94332 -0.508695 0
M  V30 908 N 78.3393 -0.321999 -1.54275 0
M  V30 909 C 79.5853 0.281461 -2.00837 0
M  V30 910 C 79.9183 1.51909 -1.20985 0
M  V30 911 O 79.1933 1.923 -0.291733 0
M  V30 912 C 79.4763 0.617162 -3.54772 0
M  V30 913 C 79.3293 -0.631064 -4.45351 0
M  V30 914 C 80.6483 1.43542 -4.16033 0
M  V30 915 H 77.7673 0.100826 -0.730071 0
M  V30 916 H 80.4093 -0.438268 -1.84876 0
M  V30 917 H 78.5593 1.23034 -3.68504 0
M  V30 918 H 80.2313 -1.26934 -4.43492 0
M  V30 919 H 78.4743 -1.26025 -4.15091 0
M  V30 920 H 79.1453 -0.351735 -5.50878 0
M  V30 921 H 81.6213 0.917134 -4.05867 0
M  V30 922 H 80.4973 1.63907 -5.23856 0
M  V30 923 H 80.7583 2.43108 -3.69257 0
M  V30 924 N 79.8174 1.5752 -0.0501392 0
M  V30 925 C 81.0644 1.9265 0.623874 0
M  V30 926 C 81.3924 0.928411 1.70912 0
M  V30 927 O 80.6474 -0.0594525 1.9561 0
M  V30 928 C 80.9464 3.34467 1.25963 0
M  V30 929 C 80.6124 4.49883 0.302689 0
M  V30 930 C 79.2744 4.81184 0.0393636 0
M  V30 931 C 81.6264 5.20002 -0.353205 0
M  V30 932 C 78.9544 5.79951 -0.887308 0
M  V30 933 C 81.3064 6.1976 -1.26806 0
M  V30 934 C 79.9704 6.49491 -1.54007 0
M  V30 935 H 79.2404 0.704957 0.228292 0
M  V30 936 H 81.8874 1.91146 -0.116398 0
M  V30 937 H 80.1924 3.32333 2.07514 0
M  V30 938 H 81.8894 3.58928 1.78806 0
M  V30 939 H 78.4794 4.25457 0.518109 0
M  V30 940 H 82.6634 4.96033 -0.162854 0
M  V30 941 H 77.9194 6.01322 -1.10553 0
M  V30 942 H 82.0934 6.73205 -1.78236 0
M  V30 943 H 79.7204 7.25837 -2.25976 0
M  V30 944 N 81.2955 -0.223234 1.56011 0
M  V30 945 C 82.2435 -1.29627 1.93131 0
M  V30 946 C 83.2375 -1.48608 0.813146 0
M  V30 947 O 84.4435 -1.49802 0.997966 0
M  V30 948 H 80.8185 -0.434563 0.613726 0
M  V30 949 H 82.7895 -0.955995 2.82672 0
M  V30 950 C 81.5385 -2.63983 2.26292 0
M  V30 951 H 80.8615 -2.50185 3.11846 0
M  V30 952 H 82.3015 -3.3788 2.56151 0
M  V30 953 C 80.7605 -3.18866 1.08747 0
M  V30 954 O 81.2905 -4.00192 0.347727 0
M  V30 955 N 79.4965 -2.77217 0.871743 0
M  V30 956 H 79.0435 -2.1119 1.47501 0
M  V30 957 H 79.0015 -3.1428 0.0869905 0
M  V30 958 N 82.7736 -1.49793 -0.48987 0
M  V30 959 C 84.0216 -1.59525 -1.24081 0
M  V30 960 C 84.3426 -0.288953 -1.92847 0
M  V30 961 O 83.6126 0.692436 -1.83254 0
M  V30 962 H 82.1926 -0.587796 -0.460983 0
M  V30 963 H 84.8546 -1.86477 -0.566778 0
M  V30 964 H 83.9506 -2.39696 -1.99881 0
M  V30 965 N 84.2517 0.741722 -1.39055 0
M  V30 966 C 85.2017 1.84661 -1.33732 0
M  V30 967 C 86.1857 1.59397 -0.219401 0
M  V30 968 O 87.3777 1.71015 -0.456375 0
M  V30 969 C 84.5067 3.22512 -1.17647 0
M  V30 970 C 83.5927 3.53628 -2.34112 0
M  V30 971 N 83.9837 3.55723 -3.59576 0
M  V30 972 C 82.2817 3.83956 -2.26923 0
M  V30 973 C 82.9827 3.84443 -4.36553 0
M  V30 974 N 81.9587 4.01877 -3.66055 0
M  V30 975 H 85.7607 1.84576 -2.28711 0
M  V30 976 H 83.2747 0.939647 -1.32455 0
M  V30 977 H 85.2717 4.01597 -1.11917 0
M  V30 978 H 83.9317 3.2384 -0.236124 0
M  V30 979 H 84.9427 3.37196 -3.93089 0
M  V30 980 H 81.6197 3.92929 -1.41113 0
M  V30 981 H 83.0097 3.92588 -5.45274 0
M  V30 982 N 85.7298 1.2412 0.971189 0
M  V30 983 C 86.9768 1.07881 1.71371 0
M  V30 984 C 87.3048 -0.382901 1.90694 0
M  V30 985 O 86.5598 -1.29945 1.46331 0
M  V30 986 C 86.8588 1.75983 3.11071 0
M  V30 987 C 86.5248 3.25909 3.11599 0
M  V30 988 C 85.1868 3.66813 3.11451 0
M  V30 989 C 87.5388 4.21771 3.062 0
M  V30 990 C 84.8668 5.02021 3.03631 0
M  V30 991 C 87.2188 5.56982 2.99923 0
M  V30 992 C 85.8828 5.97237 2.98102 0
M  V30 993 H 85.1528 0.394764 0.62709 0
M  V30 994 H 87.7998 1.54176 1.13587 0
M  V30 995 H 86.1048 1.22072 3.72298 0
M  V30 996 H 87.8018 1.60887 3.6731 0
M  V30 997 H 84.3918 2.93353 3.12477 0
M  V30 998 H 88.5758 3.91172 3.05447 0
M  V30 999 H 83.8318 5.32411 3.0058 0
M  V30 1000 H 88.0058 6.30969 2.94704 0
M  V30 1001 H 85.6328 7.01967 2.91798 0
M  V30 1002 N 87.2079 -1.17134 1.05439 0
M  V30 1003 C 88.6189 -1.69084 0.791676 0
M  V30 1004 C 88.9699 -1.83822 -0.685839 0
M  V30 1005 O 88.0949 -1.52757 -1.53278 0
M  V30 1006 C 88.6899 -3.07119 1.4305 0
M  V30 1007 C 87.2489 -3.56225 1.21577 0
M  V30 1008 C 86.3959 -2.32421 1.51247 0
M  V30 1009 H 89.3469 -1.01617 1.219 0
M  V30 1010 H 89.3679 -3.71087 0.84112 0
M  V30 1011 H 88.8799 -2.9636 2.50584 0
M  V30 1012 H 86.9809 -3.72257 0.159787 0
M  V30 1013 H 87.0939 -4.38837 1.92246 0
M  V30 1014 H 85.4579 -2.3701 0.932653 0
M  V30 1015 H 86.2409 -2.24268 2.5992 0
M  V30 1016 N 88.686 -0.835752 -1.33615 0
M  V30 1017 C 89.634 -0.255238 -2.31195 0
M  V30 1018 C 90.628 0.61107 -1.57995 0
M  V30 1019 O 91.834 0.500979 -1.72888 0
M  V30 1020 H 88.209 -0.0638085 -0.749288 0
M  V30 1021 H 90.18 -1.09283 -2.77669 0
M  V30 1022 C 88.929 0.55754 -3.43201 0
M  V30 1023 H 88.252 -0.0997553 -3.99676 0
M  V30 1024 H 89.692 0.929622 -4.13683 0
M  V30 1025 C 88.151 1.73515 -2.88781 0
M  V30 1026 O 88.681 2.83376 -2.84712 0
M  V30 1027 N 86.887 1.55603 -2.4543 0
M  V30 1028 H 86.434 0.662354 -2.48939 0
M  V30 1029 H 86.392 2.34545 -2.09371 0
M  V30 1030 N 90.1641 1.46063 -0.591896 0
M  V30 1031 C 91.1111 2.30399 0.136069 0
M  V30 1032 C 92.0811 1.41169 0.875238 0
M  V30 1033 O 93.2661 1.70112 0.86409 0
M  V30 1034 C 90.4061 3.25804 1.13781 0
M  V30 1035 C 89.5191 4.30134 0.401137 0
M  V30 1036 C 88.6541 5.12659 1.39121 0
M  V30 1037 C 87.6931 6.0873 0.641462 0
M  V30 1038 N 86.8301 6.8409 1.58004 0
M  V30 1039 H 91.6701 2.92118 -0.589144 0
M  V30 1040 H 89.2071 1.43959 -0.302342 0
M  V30 1041 H 91.1651 3.79569 1.73156 0
M  V30 1042 H 89.7951 2.65872 1.83062 0
M  V30 1043 H 88.8471 3.79152 -0.307826 0
M  V30 1044 H 90.1591 4.98458 -0.184565 0
M  V30 1045 H 89.3131 5.70747 2.05749 0
M  V30 1046 H 88.0521 4.44316 2.01084 0
M  V30 1047 H 87.0571 5.49786 -0.0385419 0
M  V30 1048 H 88.2821 6.79095 0.0270945 0
M  V30 1049 H 86.2281 6.18449 2.18761 0
M  V30 1050 H 86.1451 7.48709 1.04738 0
M  V30 1051 H 87.4131 7.4673 2.23639 0
M  V30 1052 N 91.6422 0.330177 1.54103 0
M  V30 1053 C 93.0532 -0.15652 1.86043 0
M  V30 1054 C 93.4042 -1.51086 1.2517 0
M  V30 1055 O 92.5292 -2.09023 0.560217 0
M  V30 1056 C 93.1242 -0.290784 3.3755 0
M  V30 1057 C 91.6832 -0.721705 3.69416 0
M  V30 1058 C 90.8302 0.152622 2.7688 0
M  V30 1059 H 93.7812 0.550237 1.48856 0
M  V30 1060 H 93.8022 -1.12058 3.63625 0
M  V30 1061 H 93.3142 0.695068 3.81825 0
M  V30 1062 H 91.4152 -1.71706 3.30678 0
M  V30 1063 H 91.5282 -0.520869 4.7626 0
M  V30 1064 H 89.8922 -0.372894 2.51956 0
M  V30 1065 H 90.6752 1.13536 3.23982 0
M  V30 1066 N 93.1203 -1.57491 0.0584922 0
M  V30 1067 C 94.3693 -1.92155 -0.613146 0
M  V30 1068 C 94.6823 -0.939334 -1.71569 0
M  V30 1069 O 95.8883 -1.17829 -2.44599 0
M  V30 1070 C 94.3443 -3.41303 -1.14195 0
M  V30 1071 C 93.9523 -4.47944 -0.0711265 0
M  V30 1072 C 95.6963 -3.84988 -1.78841 0
M  V30 1073 C 93.6033 -5.88212 -0.613225 0
M  V30 1074 H 92.5333 -0.717162 -0.232796 0
M  V30 1075 H 95.1843 -1.83049 0.12857 0
M  V30 1076 H 93.5663 -3.45437 -1.93621 0
M  V30 1077 H 94.7403 -4.55408 0.702836 0
M  V30 1078 H 93.0553 -4.13644 0.478313 0
M  V30 1079 H 95.6523 -4.87159 -2.20408 0
M  V30 1080 H 95.9953 -3.21632 -2.64308 0
M  V30 1081 H 96.5283 -3.83401 -1.06059 0
M  V30 1082 H 93.2673 -6.55183 0.203978 0
M  V30 1083 H 92.7873 -5.84294 -1.35501 0
M  V30 1084 H 94.4663 -6.37687 -1.09383 0
M  V30 1085 N 94.5984 0.214957 -1.56127 0
M  V30 1086 C 95.8454 0.938372 -1.79446 0
M  V30 1087 C 96.1734 1.8407 -0.628378 0
M  V30 1088 O 95.4284 1.91837 0.386925 0
M  V30 1089 C 95.7274 1.80314 -3.0858 0
M  V30 1090 C 95.3934 1.05349 -4.3842 0
M  V30 1091 C 94.0554 0.846435 -4.73697 0
M  V30 1092 C 96.4074 0.524588 -5.18553 0
M  V30 1093 C 93.7354 0.098683 -5.86617 0
M  V30 1094 C 96.0874 -0.209853 -6.32252 0
M  V30 1095 C 94.7514 -0.428102 -6.66126 0
M  V30 1096 H 94.0214 0.343375 -0.656639 0
M  V30 1097 H 96.6684 0.206077 -1.90388 0
M  V30 1098 H 94.9734 2.6035 -2.92789 0
M  V30 1099 H 96.6704 2.36513 -3.23825 0
M  V30 1100 H 93.2604 1.22486 -4.10725 0
M  V30 1101 H 97.4444 0.672008 -4.91729 0
M  V30 1102 H 92.7004 -0.0805753 -6.11347 0
M  V30 1103 H 96.8744 -0.627157 -6.9357 0
M  V30 1104 H 94.5014 -1.00944 -7.53468 0
M  V30 1105 N 96.0765 1.50051 0.48192 0
M  V30 1106 C 97.4875 1.5348 1.06305 0
M  V30 1107 C 97.8385 0.331997 1.93371 0
M  V30 1108 O 96.9635 -0.556256 2.09129 0
M  V30 1109 C 97.5585 2.7813 1.93466 0
M  V30 1110 C 96.1175 2.84275 2.46707 0
M  V30 1111 C 95.2645 2.47637 1.24785 0
M  V30 1112 H 98.2155 1.56472 0.264995 0
M  V30 1113 H 98.2365 2.59372 2.78399 0
M  V30 1114 H 97.7485 3.65654 1.30072 0
M  V30 1115 H 95.8495 2.01077 3.13686 0
M  V30 1116 H 95.9625 3.8691 2.82555 0
M  V30 1117 H 94.3265 1.99835 1.57918 0
M  V30 1118 H 95.1095 3.37457 0.630694 0
M  V30 1119 N 97.5546 -0.734337 1.39446 0
M  V30 1120 C 98.8026 -1.49096 1.36436 0
M  V30 1121 C 99.1236 -1.94961 -0.0388255 0
M  V30 1122 O 98.3936 -1.69033 -0.990191 0
M  V30 1123 H 96.9736 -0.5531 0.502085 0
M  V30 1124 H 99.6356 -0.871725 1.74319 0
M  V30 1125 H 98.7316 -2.37276 2.02747 0
M  V30 1126 N 99.0327 -1.24633 -0.964593 0
M  V30 1127 C 100.279 -1.08949 -1.71049 0
M  V30 1128 C 100.612 0.370302 -1.90637 0
M  V30 1129 O 99.8867 1.27349 -1.47011 0
M  V30 1130 C 100.17 -1.83329 -3.0994 0
M  V30 1131 C 100.023 -3.37077 -2.97824 0
M  V30 1132 C 101.342 -1.60846 -4.09654 0
M  V30 1133 H 98.4607 -0.397178 -0.620821 0
M  V30 1134 H 101.103 -1.5334 -1.12191 0
M  V30 1135 H 99.2527 -1.45597 -3.60186 0
M  V30 1136 H 100.925 -3.84425 -2.5498 0
M  V30 1137 H 99.1677 -3.65298 -2.33965 0
M  V30 1138 H 99.8387 -3.84324 -3.96231 0
M  V30 1139 H 102.315 -1.93674 -3.68279 0
M  V30 1140 H 101.191 -2.1534 -5.04896 0
M  V30 1141 H 101.452 -0.547434 -4.38698 0
M  V30 1142 N 100.511 1.16574 -1.06058 0
M  V30 1143 C 101.441 2.23057 -0.690488 0
M  V30 1144 C 102.422 1.67141 0.315901 0
M  V30 1145 O 103.607 1.93253 0.191556 0
M  V30 1146 C 100.737 3.47222 -0.073625 0
M  V30 1147 C 99.6908 4.16016 -1.00573 0
M  V30 1148 C 99.0168 5.34104 -0.252289 0
M  V30 1149 C 100.317 4.67264 -2.33371 0
M  V30 1150 H 102.011 2.54271 -1.58072 0
M  V30 1151 H 99.5568 1.22218 -0.76149 0
M  V30 1152 H 101.51 4.20939 0.19714 0
M  V30 1153 H 100.234 3.15302 0.85161 0
M  V30 1154 H 98.8928 3.44223 -1.2612 0
M  V30 1155 H 98.5408 4.98437 0.675988 0
M  V30 1156 H 98.2408 5.81072 -0.873455 0
M  V30 1157 H 99.7648 6.10599 0.0109857 0
M  V30 1158 H 101.179 5.32573 -2.12223 0
M  V30 1159 H 99.5758 5.24843 -2.90963 0
M  V30 1160 H 100.646 3.83602 -2.96611 0
M  V30 1161 N 101.989 0.842826 1.3317 0
M  V30 1162 C 103.238 0.436738 1.96915 0
M  V30 1163 C 103.551 -1.01025 1.67491 0
M  V30 1164 O 104.757 -1.5212 2.24881 0
M  V30 1165 C 103.213 0.730021 3.52418 0
M  V30 1166 C 102.821 2.19195 3.90714 0
M  V30 1167 C 104.565 0.391076 4.22695 0
M  V30 1168 C 102.472 2.42907 5.39212 0
M  V30 1169 H 101.402 0.15958 0.736919 0
M  V30 1170 H 104.053 1.03196 1.51733 0
M  V30 1171 H 102.435 0.0643755 3.95948 0
M  V30 1172 H 103.609 2.8984 3.58231 0
M  V30 1173 H 101.924 2.49425 3.33431 0
M  V30 1174 H 104.521 0.545817 5.31907 0
M  V30 1175 H 104.864 -0.666294 4.10933 0
M  V30 1176 H 105.397 1.01212 3.84709 0
M  V30 1177 H 102.136 3.47224 5.55982 0
M  V30 1178 H 101.656 1.76827 5.73142 0
M  V30 1179 H 103.335 2.2626 6.06148 0
M  V30 1180 N 103.467 -1.45747 0.599634 0
M  V30 1181 C 104.713 -2.02592 0.0918643 0
M  V30 1182 C 105.046 -1.46806 -1.27128 0
M  V30 1183 O 104.321 -0.639658 -1.83681 0
M  V30 1184 C 104.604 -3.60073 0.0443398 0
M  V30 1185 C 104.457 -4.26208 1.43759 0
M  V30 1186 C 105.776 -4.35309 -0.647608 0
M  V30 1187 H 102.895 -0.736175 0.034857 0
M  V30 1188 H 105.537 -1.73694 0.770081 0
M  V30 1189 H 103.687 -3.84823 -0.533224 0
M  V30 1190 H 105.359 -4.12668 2.06162 0
M  V30 1191 H 103.602 -3.84916 2.00056 0
M  V30 1192 H 104.273 -5.35069 1.35665 0
M  V30 1193 H 106.749 -4.15805 -0.156776 0
M  V30 1194 H 105.625 -5.45038 -0.649942 0
M  V30 1195 H 105.886 -4.07598 -1.71219 0
M  V30 1196 N 104.945 -0.338344 -1.53925 0
M  V30 1197 C 105.855 0.529421 -2.28548 0
M  V30 1198 C 106.871 1.11645 -1.3346 0
M  V30 1199 O 108.047 1.13325 -1.66492 0
M  V30 1200 C 105.112 1.66713 -3.03987 0
M  V30 1201 C 104.173 1.11041 -4.14691 0
M  V30 1202 C 103.406 2.19389 -4.86522 0
M  V30 1203 O 103.629 3.40013 -4.57982 0
M  V30 1204 O 102.563 1.83976 -5.73094 0
M  V30 1205 H 106.389 -0.0770399 -3.03602 0
M  V30 1206 H 103.974 -0.103555 -1.49041 0
M  V30 1207 H 105.856 2.32918 -3.5118 0
M  V30 1208 H 104.531 2.25949 -2.31794 0
M  V30 1209 H 103.438 0.413024 -3.71813 0
M  V30 1210 H 104.771 0.562975 -4.8897 0
M  V30 1211 N 106.423 1.57458 -0.0668435 0
M  V30 1212 C 107.671 1.92919 0.602214 0
M  V30 1213 C 107.992 0.947215 1.70449 0
M  V30 1214 O 107.262 -0.00544117 1.95899 0
M  V30 1215 H 105.842 0.71217 0.22544 0
M  V30 1216 H 108.504 1.94508 -0.123535 0
M  V30 1217 H 107.6 2.94589 1.03073 0
M  V30 1218 N 107.901 -0.206675 1.56239 0
M  V30 1219 C 108.834 -1.28383 1.88661 0
M  V30 1220 C 109.812 -1.44504 0.745481 0
M  V30 1221 O 110.996 -1.60079 0.995336 0
M  V30 1222 C 108.123 -2.65211 2.10667 0
M  V30 1223 C 107.169 -2.66025 3.33366 0
M  V30 1224 S 108.002 -2.18609 4.88846 0
M  V30 1225 C 109.158 -3.57283 5.13906 0
M  V30 1226 H 109.391 -1.00691 2.7973 0
M  V30 1227 H 106.924 -0.409627 1.48867 0
M  V30 1228 H 108.882 -3.43979 2.24029 0
M  V30 1229 H 107.543 -2.90121 1.20369 0
M  V30 1230 H 106.736 -3.66607 3.45855 0
M  V30 1231 H 106.338 -1.95331 3.18938 0
M  V30 1232 H 108.63 -4.53074 5.03717 0
M  V30 1233 H 109.573 -3.49699 6.15724 0
M  V30 1234 H 109.981 -3.51659 4.41583 0
M  V30 1235 N 109.379 -1.50304 -0.473955 0
M  V30 1236 C 110.342 -1.6841 -1.55469 0
M  V30 1237 C 111.342 -0.554905 -1.50922 0
M  V30 1238 O 112.532 -0.821882 -1.53593 0
M  V30 1239 C 109.664 -1.70667 -2.95102 0
M  V30 1240 H 110.857 -2.64828 -1.40733 0
M  V30 1241 H 108.41 -1.39742 -0.700132 0
M  V30 1242 H 109.145 -0.75932 -3.15285 0
M  V30 1243 H 108.93 -2.52698 -2.9981 0
M  V30 1244 H 110.42 -1.8664 -3.73571 0
M  V30 1245 N 110.857 0.726932 -1.39834 0
M  V30 1246 C 111.789 1.85147 -1.35104 0
M  V30 1247 C 112.802 1.60736 -0.258392 0
M  V30 1248 O 113.991 1.70821 -0.517931 0
M  V30 1249 C 111.091 3.21332 -1.07697 0
M  V30 1250 C 110.264 3.73033 -2.28396 0
M  V30 1251 C 109.323 4.87802 -1.97322 0
M  V30 1252 O 108.349 5.01043 -2.70083 0
M  V30 1253 N 109.551 5.72768 -0.944273 0
M  V30 1254 H 112.316 1.89706 -2.32017 0
M  V30 1255 H 109.877 0.908006 -1.3404 0
M  V30 1256 H 111.869 3.95691 -0.849144 0
M  V30 1257 H 110.439 3.11992 -0.194909 0
M  V30 1258 H 109.659 2.89934 -2.6708 0
M  V30 1259 H 110.947 4.0431 -3.08887 0
M  V30 1260 H 110.345 5.64669 -0.341427 0
M  V30 1261 H 108.902 6.4716 -0.776346 0
M  V30 1262 N 112.336 1.25143 0.95797 0
M  V30 1263 C 113.564 1.12424 1.73691 0
M  V30 1264 C 113.979 -0.322304 1.86029 0
M  V30 1265 O 113.336 -1.22186 1.35561 0
M  V30 1266 C 113.387 1.76933 3.15241 0
M  V30 1267 O 113.108 3.15932 3.03511 0
M  V30 1268 C 114.609 1.6995 4.09429 0
M  V30 1269 H 111.829 0.3923 0.544373 0
M  V30 1270 H 114.373 1.6544 1.20207 0
M  V30 1271 H 112.528 1.27895 3.6568 0
M  V30 1272 H 112.942 3.47598 3.9278 0
M  V30 1273 H 114.416 2.19753 5.06372 0
M  V30 1274 H 114.893 0.662619 4.34173 0
M  V30 1275 H 115.499 2.18461 3.64904 0
M  V30 1276 N 113.814 -1.1601 1.06675 0
M  V30 1277 C 115.062 -1.86264 0.784229 0
M  V30 1278 C 115.383 -1.82328 -0.691488 0
M  V30 1279 O 114.653 -1.25947 -1.50047 0
M  V30 1280 H 113.233 -0.689621 0.28711 0
M  V30 1281 H 115.895 -1.40664 1.34906 0
M  V30 1282 H 114.991 -2.91595 1.11259 0
M  V30 1283 N 115.292 -0.849877 -1.32721 0
M  V30 1284 C 116.54 -0.450032 -1.97026 0
M  V30 1285 C 116.861 0.996604 -1.67609 0
M  V30 1286 O 116.131 1.6958 -0.980786 0
M  V30 1287 H 114.711 -0.163426 -0.728904 0
M  V30 1288 H 117.373 -1.08526 -1.6189 0
M  V30 1289 H 116.469 -0.591146 -3.0645 0
M  V30 1290 N 116.77 1.45427 -0.607355 0
M  V30 1291 C 118.017 2.02241 -0.102455 0
M  V30 1292 C 118.345 1.4758 1.26691 0
M  V30 1293 O 117.6 0.640468 1.84923 0
M  V30 1294 C 117.899 3.57398 -0.0129263 0
M  V30 1295 C 117.565 4.3121 -1.31792 0
M  V30 1296 C 116.227 4.51092 -1.67539 0
M  V30 1297 C 118.579 4.73401 -2.18039 0
M  V30 1298 C 115.907 5.10422 -2.89285 0
M  V30 1299 C 118.259 5.34078 -3.39034 0
M  V30 1300 C 116.923 5.52184 -3.75033 0
M  V30 1301 H 116.193 0.740051 -0.037491 0
M  V30 1302 H 118.84 1.74494 -0.788926 0
M  V30 1303 H 117.145 3.84421 0.756806 0
M  V30 1304 H 118.842 3.99061 0.393881 0
M  V30 1305 H 115.432 4.16047 -1.02968 0
M  V30 1306 H 119.616 4.57774 -1.91721 0
M  V30 1307 H 114.872 5.22629 -3.17283 0
M  V30 1308 H 119.046 5.65724 -4.06115 0
M  V30 1309 H 116.673 5.97925 -4.69457 0
M  V30 1310 N 118.248 0.346503 1.53744 0
M  V30 1311 C 119.178 -0.501193 2.28058 0
M  V30 1312 C 120.159 -1.10014 1.29734 0
M  V30 1313 O 121.344 -1.12097 1.58581 0
M  V30 1314 C 118.474 -1.65078 3.05559 0
M  V30 1315 C 117.428 -1.18003 4.11411 0
M  V30 1316 C 116.754 -2.41837 4.76884 0
M  V30 1317 C 118.054 -0.278394 5.21558 0
M  V30 1318 H 119.748 0.11875 2.99164 0
M  V30 1319 H 117.294 0.0585531 1.43881 0
M  V30 1320 H 119.247 -2.25028 3.56287 0
M  V30 1321 H 117.971 -2.29767 2.32109 0
M  V30 1322 H 116.63 -0.603331 3.61601 0
M  V30 1323 H 116.278 -3.0494 4.00026 0
M  V30 1324 H 115.978 -2.1102 5.48402 0
M  V30 1325 H 117.502 -3.02508 5.30397 0
M  V30 1326 H 118.916 -0.784823 5.67903 0
M  V30 1327 H 117.313 -0.0619707 6.00068 0
M  V30 1328 H 118.383 0.684677 4.80042 0
M  V30 1329 N 119.726 -1.57421 0.075193 0
M  V30 1330 C 120.689 -2.11791 -0.876203 0
M  V30 1331 C 121.689 -1.04268 -1.22412 0
M  V30 1332 O 122.879 -1.30242 -1.15684 0
M  V30 1333 C 120.011 -2.62207 -2.17854 0
M  V30 1334 H 121.204 -2.9716 -0.40444 0
M  V30 1335 H 118.757 -1.55333 -0.173557 0
M  V30 1336 H 119.492 -1.803 -2.6956 0
M  V30 1337 H 119.277 -3.40802 -1.93897 0
M  V30 1338 H 120.767 -3.04335 -2.85955 0
M  V30 1339 N 121.204 0.198386 -1.56346 0
M  V30 1340 C 122.451 0.919286 -1.80431 0
M  V30 1341 C 122.779 1.83393 -0.647866 0
M  V30 1342 O 122.034 1.92236 0.366556 0
M  V30 1343 C 122.333 1.77031 -3.10475 0
M  V30 1344 C 121.999 1.00693 -4.39513 0
M  V30 1345 C 120.661 0.796145 -4.74568 0
M  V30 1346 C 123.013 0.469559 -5.19081 0
M  V30 1347 C 120.341 0.0364588 -5.86689 0
M  V30 1348 C 122.693 -0.2769 -6.31994 0
M  V30 1349 C 121.357 -0.49873 -6.65634 0
M  V30 1350 H 120.627 0.336391 -0.660244 0
M  V30 1351 H 123.274 0.185872 -1.90596 0
M  V30 1352 H 121.579 2.5723 -2.95533 0
M  V30 1353 H 123.276 2.33065 -3.26315 0
M  V30 1354 H 119.866 1.18122 -4.12001 0
M  V30 1355 H 124.05 0.619816 -4.92414 0
M  V30 1356 H 119.306 -0.145412 -6.11227 0
M  V30 1357 H 123.48 -0.700684 -6.92866 0
M  V30 1358 H 121.107 -1.0893 -7.52355 0
M  V30 1359 N 122.682 1.50554 0.465978 0
M  V30 1360 C 123.91 1.65563 1.24083 0
M  V30 1361 C 124.325 0.341051 1.85694 0
M  V30 1362 O 123.682 -0.677543 1.69457 0
M  V30 1363 C 123.733 2.75051 2.34583 0
M  V30 1364 O 123.454 4.01413 1.75497 0
M  V30 1365 C 124.955 3.01078 3.25372 0
M  V30 1366 H 122.175 0.55638 0.375077 0
M  V30 1367 H 124.719 1.96807 0.555624 0
M  V30 1368 H 122.874 2.46486 2.9887 0
M  V30 1369 H 123.288 4.62002 2.48303 0
M  V30 1370 H 124.762 3.81339 3.99105 0
M  V30 1371 H 125.239 2.12349 3.84453 0
M  V30 1372 H 125.845 3.31194 2.66816 0
M  V30 1373 N 124.16 -0.719506 1.40217 0
M  V30 1374 C 125.385 -1.51371 1.4178 0
M  V30 1375 C 125.81 -1.88091 0.0182355 0
M  V30 1376 O 125.168 -1.52997 -0.972707 0
M  V30 1377 C 125.216 -2.768 2.31115 0
M  V30 1378 O 124.32 -3.73349 1.7517 0
M  V30 1379 H 123.661 -0.456529 0.482159 0
M  V30 1380 H 126.191 -0.88644 1.844 0
M  V30 1381 H 126.201 -3.25371 2.46167 0
M  V30 1382 H 124.876 -2.49407 3.3282 0
M  V30 1383 H 123.453 -3.32179 1.69444 0
M  V30 1384 N 125.638 -1.25649 -0.95132 0
M  V30 1385 C 126.568 -1.08808 -2.06599 0
M  V30 1386 C 127.549 0.00382547 -1.701 0
M  V30 1387 O 128.734 -0.166325 -1.93486 0
M  V30 1388 C 125.864 -0.709542 -3.39975 0
M  V30 1389 C 124.818 -1.75206 -3.90496 0
M  V30 1390 C 124.144 -1.22811 -5.20405 0
M  V30 1391 C 125.444 -3.15153 -4.16504 0
M  V30 1392 H 127.138 -2.02048 -2.20946 0
M  V30 1393 H 124.684 -0.972835 -1.06169 0
M  V30 1394 H 126.637 -0.578649 -4.17408 0
M  V30 1395 H 125.361 0.258556 -3.25575 0
M  V30 1396 H 124.02 -1.87145 -3.15234 0
M  V30 1397 H 123.668 -0.250145 -5.02378 0
M  V30 1398 H 123.368 -1.92492 -5.55176 0
M  V30 1399 H 124.892 -1.10968 -6.00432 0
M  V30 1400 H 126.306 -3.06349 -4.84586 0
M  V30 1401 H 124.703 -3.82333 -4.62538 0
M  V30 1402 H 125.773 -3.61966 -3.22658 0
M  V30 1403 N 127.117 1.15442 -1.07289 0
M  V30 1404 C 128.363 1.8672 -0.806679 0
M  V30 1405 C 128.718 1.80723 0.660084 0
M  V30 1406 O 128.011 1.21902 1.47819 0
M  V30 1407 C 128.205 3.3489 -1.24834 0
M  V30 1408 C 128.034 3.55313 -2.7565 0
M  V30 1409 C 126.804 3.7082 -3.4325 0
M  V30 1410 C 129.002 3.53188 -3.73848 0
M  V30 1411 N 126.984 3.7929 -4.82713 0
M  V30 1412 C 128.355 3.67765 -4.99149 0
M  V30 1413 C 130.41 3.36459 -3.67015 0
M  V30 1414 C 129.113 3.6734 -6.18428 0
M  V30 1415 C 131.139 3.37333 -4.85758 0
M  V30 1416 C 130.501 3.52438 -6.09891 0
M  V30 1417 H 126.6 0.700433 -0.347733 0
M  V30 1418 H 129.184 1.38441 -1.36902 0
M  V30 1419 H 127.355 3.81786 -0.713713 0
M  V30 1420 H 129.087 3.93875 -0.929745 0
M  V30 1421 H 125.842 3.71568 -2.93656 0
M  V30 1422 H 126.266 3.8727 -5.55294 0
M  V30 1423 H 130.908 3.237 -2.71989 0
M  V30 1424 H 128.626 3.78878 -7.13777 0
M  V30 1425 H 132.212 3.25617 -4.82146 0
M  V30 1426 H 131.092 3.53047 -7.00234 0
M  V30 1427 N 128.595 0.856903 1.32268 0
M  V30 1428 C 129.843 0.460474 1.96784 0
M  V30 1429 C 130.164 -0.987701 1.68135 0
M  V30 1430 O 129.434 -1.69058 0.989765 0
M  V30 1431 H 128.014 0.167289 0.728027 0
M  V30 1432 H 130.676 1.09383 1.61312 0
M  V30 1433 H 129.772 0.60739 3.06133 0
M  V30 1434 N 130.073 -1.45103 0.615059 0
M  V30 1435 C 131.32 -2.02183 0.113179 0
M  V30 1436 C 131.648 -1.48249 -1.25906 0
M  V30 1437 O 130.903 -0.650265 -1.84581 0
M  V30 1438 C 131.202 -3.57386 0.0318797 0
M  V30 1439 C 130.868 -4.30505 1.34077 0
M  V30 1440 C 129.53 -4.50197 1.69929 0
M  V30 1441 C 131.882 -4.72238 2.20546 0
M  V30 1442 C 129.21 -5.08881 2.91988 0
M  V30 1443 C 131.562 -5.32272 3.41861 0
M  V30 1444 C 130.226 -5.50187 3.77956 0
M  V30 1445 H 129.496 -0.739842 0.0414151 0
M  V30 1446 H 132.143 -1.74073 0.798168 0
M  V30 1447 H 130.448 -3.84817 -0.736409 0
M  V30 1448 H 132.145 -3.99264 -0.372712 0
M  V30 1449 H 128.735 -4.15496 1.05173 0
M  V30 1450 H 132.919 -4.56751 1.94146 0
M  V30 1451 H 128.175 -5.20939 3.2005 0
M  V30 1452 H 132.349 -5.63563 4.09109 0
M  V30 1453 H 129.976 -5.95427 4.72622 0
M  V30 1454 N 131.551 -0.354651 -1.53558 0
M  V30 1455 C 132.828 0.294281 -1.93374 0
M  V30 1456 C 133.208 1.67313 -1.28723 0
M  V30 1457 O 132.556 2.24179 -0.442247 0
M  V30 1458 C 132.766 0.355445 -3.47185 0
M  V30 1459 C 134.114 0.601007 -4.20325 0
M  V30 1460 O 135.138 0.437106 -3.53508 0
M  V30 1461 O 133.997 0.919322 -5.38712 0
M  V30 1462 H 131.091 0.174033 -0.808481 0
M  V30 1463 H 133.637 -0.406638 -1.64756 0
M  V30 1464 H 132.409 -0.611729 -3.86489 0
M  V30 1465 H 132.032 1.1027 -3.82003 0
M  V30 1466 N 133.029 1.57378 -0.0835403 0
M  V30 1467 C 134.44 1.81261 0.447358 0
M  V30 1468 C 134.791 0.998331 1.68902 0
M  V30 1469 O 133.916 0.224282 2.15235 0
M  V30 1470 C 134.511 3.28767 0.818386 0
M  V30 1471 C 133.07 3.53455 1.29409 0
M  V30 1472 C 132.217 2.75831 0.285024 0
M  V30 1473 H 135.168 1.5566 -0.309115 0
M  V30 1474 H 135.189 3.41459 1.67887 0
M  V30 1475 H 134.701 3.88006 -0.0855019 0
M  V30 1476 H 132.802 2.99534 2.21608 0
M  V30 1477 H 132.915 4.62128 1.2639 0
M  V30 1478 H 131.279 2.42947 0.764767 0
M  V30 1479 H 132.062 3.37813 -0.611341 0
M  V30 1480 N 134.507 -0.190092 1.56449 0
M  V30 1481 C 135.417 -1.25591 1.98152 0
M  V30 1482 C 136.433 -1.49519 0.889944 0
M  V30 1483 O 137.609 -1.62036 1.19609 0
M  V30 1484 C 134.674 -2.57916 2.3169 0
M  V30 1485 C 133.735 -2.42015 3.5458 0
M  V30 1486 C 132.968 -3.6803 3.8651 0
M  V30 1487 O 133.191 -4.72413 3.1966 0
M  V30 1488 O 132.125 -3.6326 4.79923 0
M  V30 1489 H 135.951 -0.931988 2.89046 0
M  V30 1490 H 133.536 -0.395488 1.4407 0
M  V30 1491 H 135.418 -3.36008 2.54316 0
M  V30 1492 H 134.093 -2.89925 1.43963 0
M  V30 1493 H 133 -1.62017 3.37196 0
M  V30 1494 H 134.333 -2.14937 4.4279 0
M  V30 1495 N 135.985 -1.50799 -0.457987 0
M  V30 1496 C 137.234 -1.6168 -1.20593 0
M  V30 1497 C 137.547 -0.32888 -1.92815 0
M  V30 1498 O 138.753 -0.316773 -2.69646 0
M  V30 1499 C 137.209 -2.8545 -2.19195 0
M  V30 1500 C 136.817 -4.21168 -1.52715 0
M  V30 1501 C 138.561 -3.05681 -2.94549 0
M  V30 1502 C 136.468 -5.3611 -2.4968 0
M  V30 1503 H 135.398 -0.602134 -0.453818 0
M  V30 1504 H 138.049 -1.77245 -0.475031 0
M  V30 1505 H 136.431 -2.63472 -2.95632 0
M  V30 1506 H 137.605 -4.53449 -0.819775 0
M  V30 1507 H 135.92 -4.06648 -0.895922 0
M  V30 1508 H 138.517 -3.88727 -3.67145 0
M  V30 1509 H 138.86 -2.17929 -3.54701 0
M  V30 1510 H 139.393 -3.27901 -2.25223 0
M  V30 1511 H 136.132 -6.26057 -1.94249 0
M  V30 1512 H 135.652 -5.0823 -3.18532 0
M  V30 1513 H 137.331 -5.6722 -3.11241 0
M  V30 1514 N 137.463 0.71206 -1.40597 0
M  V30 1515 C 138.426 1.80785 -1.40888 0
M  V30 1516 C 139.426 1.57937 -0.302103 0
M  V30 1517 O 140.616 1.64913 -0.561182 0
M  V30 1518 C 137.748 3.18927 -1.20409 0
M  V30 1519 H 138.941 1.81924 -2.38419 0
M  V30 1520 H 136.494 0.91805 -1.26497 0
M  V30 1521 H 137.229 3.23436 -0.236522 0
M  V30 1522 H 137.014 3.36911 -2.00582 0
M  V30 1523 H 138.504 3.98949 -1.23408 0
M  V30 1524 N 138.941 1.26152 0.944643 0
M  V30 1525 C 139.888 1.07408 2.04285 0
M  V30 1526 C 140.858 -0.0198413 1.66088 0
M  V30 1527 O 142.043 0.139264 1.90291 0
M  V30 1528 C 139.183 0.70945 3.37729 0
M  V30 1529 C 138.296 1.87926 3.88983 0
M  V30 1530 C 137.431 1.45807 5.10797 0
M  V30 1531 C 136.47 2.5964 5.54305 0
M  V30 1532 N 135.607 2.18226 6.67324 0
M  V30 1533 H 140.447 2.01389 2.1965 0
M  V30 1534 H 137.984 1.00275 1.07626 0
M  V30 1535 H 139.942 0.478948 4.14442 0
M  V30 1536 H 138.572 -0.193389 3.2222 0
M  V30 1537 H 137.624 2.22279 3.08701 0
M  V30 1538 H 138.936 2.73377 4.17213 0
M  V30 1539 H 138.09 1.18781 5.94959 0
M  V30 1540 H 136.829 0.574414 4.84305 0
M  V30 1541 H 135.834 2.87399 4.68702 0
M  V30 1542 H 137.059 3.48599 5.828 0
M  V30 1543 H 135.005 1.3229 6.42523 0
M  V30 1544 H 134.922 2.97221 6.95123 0
M  V30 1545 H 136.19 1.94403 7.54869 0
M  V30 1546 N 140.419 -1.14872 1.07899 0
M  V30 1547 C 141.647 -1.89661 0.82683 0
M  V30 1548 C 142.062 -1.78312 -0.620519 0
M  V30 1549 O 141.419 -1.13888 -1.42604 0
M  V30 1550 C 141.47 -3.39817 1.23316 0
M  V30 1551 O 141.191 -3.50845 2.62372 0
M  V30 1552 C 142.692 -4.31615 1.0111 0
M  V30 1553 H 139.912 -0.60092 0.298557 0
M  V30 1554 H 142.456 -1.4551 1.43691 0
M  V30 1555 H 140.611 -3.8161 0.667286 0
M  V30 1556 H 141.025 -4.44076 2.79101 0
M  V30 1557 H 142.499 -5.35367 1.34486 0
M  V30 1558 H 142.976 -4.39169 -0.0522168 0
M  V30 1559 H 143.582 -3.95572 1.56215 0
M  V30 1560 N 141.898 -0.863906 -1.31812 0
M  V30 1561 C 142.845 -0.313303 -2.28664 0
M  V30 1562 C 143.815 0.584868 -1.55462 0
M  V30 1563 O 145 0.517805 -1.83639 0
M  V30 1564 C 142.14 0.48441 -3.41683 0
M  V30 1565 C 141.253 -0.440594 -4.29747 0
M  V30 1566 C 140.388 0.370652 -5.29905 0
M  V30 1567 C 139.427 -0.551164 -6.09613 0
M  V30 1568 N 138.564 0.223462 -7.01744 0
M  V30 1569 H 143.404 -1.14444 -2.75148 0
M  V30 1570 H 140.941 -0.575769 -1.35364 0
M  V30 1571 H 142.899 0.962627 -4.05943 0
M  V30 1572 H 141.529 1.28029 -2.96325 0
M  V30 1573 H 140.581 -1.03724 -3.65986 0
M  V30 1574 H 141.893 -1.14767 -4.85417 0
M  V30 1575 H 141.047 0.911638 -5.99812 0
M  V30 1576 H 139.786 1.11105 -4.74876 0
M  V30 1577 H 138.791 -1.10396 -5.38603 0
M  V30 1578 H 140.016 -1.29032 -6.66729 0
M  V30 1579 H 137.962 0.946787 -6.49132 0
M  V30 1580 H 137.879 -0.424399 -7.54808 0
M  V30 1581 H 139.147 0.745876 -7.75923 0
M  V30 1582 N 143.376 1.44774 -0.622745 0
M  V30 1583 C 144.625 2.01334 -0.121397 0
M  V30 1584 C 144.938 1.49505 1.26125 0
M  V30 1585 O 146.144 1.98139 1.85616 0
M  V30 1586 C 144.6 3.59516 -0.166298 0
M  V30 1587 C 144.208 4.20342 -1.54974 0
M  V30 1588 C 145.952 4.23582 0.279021 0
M  V30 1589 C 143.859 5.70721 -1.55021 0
M  V30 1590 H 142.789 0.752851 -0.0416172 0
M  V30 1591 H 145.44 1.66083 -0.780309 0
M  V30 1592 H 143.822 3.92027 0.559557 0
M  V30 1593 H 144.996 3.99381 -2.29851 0
M  V30 1594 H 143.311 3.68529 -1.93843 0
M  V30 1595 H 145.908 5.33868 0.298083 0
M  V30 1596 H 146.251 3.95327 1.30471 0
M  V30 1597 H 146.784 3.95843 -0.394063 0
M  V30 1598 H 143.523 6.03698 -2.55399 0
M  V30 1599 H 143.043 5.93829 -0.844245 0
M  V30 1600 H 144.722 6.34203 -1.28047 0
M  V30 1601 N 144.854 0.36279 1.53368 0
M  V30 1602 C 146.1 -0.228113 2.01513 0
M  V30 1603 C 146.433 -1.48648 1.2497 0
M  V30 1604 O 145.708 -1.91459 0.342616 0
M  V30 1605 C 145.991 -0.522884 3.56284 0
M  V30 1606 C 145.844 0.74892 4.43521 0
M  V30 1607 C 147.163 -1.32461 4.19693 0
M  V30 1608 H 144.282 -0.0814343 0.732487 0
M  V30 1609 H 146.924 0.48713 1.83649 0
M  V30 1610 H 145.074 -1.1322 3.71636 0
M  V30 1611 H 146.746 1.38648 4.39971 0
M  V30 1612 H 144.989 1.36986 4.11603 0
M  V30 1613 H 145.66 0.497667 5.49752 0
M  V30 1614 H 148.136 -0.809203 4.08156 0
M  V30 1615 H 147.012 -1.49961 5.28018 0
M  V30 1616 H 147.273 -2.33232 3.75573 0
M  V30 1617 N 146.332 -1.57332 0.0918853 0
M  V30 1618 C 147.562 -1.98286 -0.580205 0
M  V30 1619 C 147.97 -0.969713 -1.6246 0
M  V30 1620 O 147.313 0.0493501 -1.83634 0
M  V30 1621 C 147.375 -3.35603 -1.28882 0
M  V30 1622 C 147.039 -4.55285 -0.395559 0
M  V30 1623 C 148.036 -5.18687 0.355002 0
M  V30 1624 C 145.721 -5.01314 -0.314556 0
M  V30 1625 C 147.715 -6.26484 1.17458 0
M  V30 1626 C 145.402 -6.08979 0.508677 0
M  V30 1627 C 146.4 -6.71429 1.2519 0
M  V30 1628 O 146.088 -7.77018 2.06151 0
M  V30 1629 H 145.82 -0.656678 -0.160466 0
M  V30 1630 H 148.374 -2.04721 0.16688 0
M  V30 1631 H 146.604 -3.25842 -2.08241 0
M  V30 1632 H 148.293 -3.61026 -1.85512 0
M  V30 1633 H 149.059 -4.84058 0.302134 0
M  V30 1634 H 144.938 -4.5247 -0.882697 0
M  V30 1635 H 148.482 -6.75159 1.75518 0
M  V30 1636 H 144.379 -6.4304 0.563037 0
M  V30 1637 H 145.147 -7.93991 1.98799 0
M  V30 1638 N 147.81 0.181792 -1.56548 0
M  V30 1639 C 149.057 0.900097 -1.81396 0
M  V30 1640 C 149.385 1.82695 -0.667281 0
M  V30 1641 O 148.64 1.92614 0.346146 0
M  V30 1642 C 148.939 1.73728 -3.12335 0
M  V30 1643 C 148.605 0.960255 -4.40556 0
M  V30 1644 C 147.267 0.745766 -4.75386 0
M  V30 1645 C 149.619 0.414477 -5.19549 0
M  V30 1646 C 146.947 -0.0257694 -5.86694 0
M  V30 1647 C 149.299 -0.343916 -6.31664 0
M  V30 1648 C 147.963 -0.569301 -6.65068 0
M  V30 1649 H 147.233 0.329369 -0.663775 0
M  V30 1650 H 149.88 0.165647 -1.90782 0
M  V30 1651 H 148.185 2.54081 -2.98245 0
M  V30 1652 H 149.882 2.29591 -3.28769 0
M  V30 1653 H 146.472 1.13746 -4.13231 0
M  V30 1654 H 150.656 0.567554 -4.93044 0
M  V30 1655 H 145.912 -0.210233 -6.11038 0
M  V30 1656 H 150.086 -0.774133 -6.92084 0
M  V30 1657 H 147.713 -1.16903 -7.51158 0
M  V30 1658 N 149.288 1.51039 0.449983 0
M  V30 1659 C 150.221 1.66105 1.56474 0
M  V30 1660 C 151.199 0.508776 1.54435 0
M  V30 1661 O 152.383 0.731005 1.73749 0
M  V30 1662 C 149.51 1.66304 2.9506 0
M  V30 1663 C 148.556 2.87346 3.15174 0
M  V30 1664 S 149.389 4.4835 2.92818 0
M  V30 1665 C 150.545 4.51274 4.33708 0
M  V30 1666 H 150.778 2.60397 1.43459 0
M  V30 1667 H 148.311 1.40565 0.638805 0
M  V30 1668 H 150.269 1.67103 3.74949 0
M  V30 1669 H 148.93 0.732108 3.05449 0
M  V30 1670 H 148.123 2.83849 4.16468 0
M  V30 1671 H 147.725 2.84223 2.43091 0
M  V30 1672 H 150.017 4.26136 5.26701 0
M  V30 1673 H 150.96 5.53017 4.42242 0
M  V30 1674 H 151.368 3.80738 4.16772 0
M  V30 1675 N 150.766 -0.704594 1.40972 0
M  V30 1676 C 151.994 -1.49354 1.43182 0
M  V30 1677 C 152.409 -1.88768 0.0345508 0
M  V30 1678 O 151.766 -1.56184 -0.944081 0
M  V30 1679 C 151.817 -2.76187 2.33244 0
M  V30 1680 O 151.538 -2.38436 3.67532 0
M  V30 1681 C 153.039 -3.7 2.44162 0
M  V30 1682 H 150.259 -0.460559 0.487982 0
M  V30 1683 H 152.803 -0.868261 1.85153 0
M  V30 1684 H 150.958 -3.34974 1.94606 0
M  V30 1685 H 151.372 -3.20126 4.15475 0
M  V30 1686 H 152.846 -4.55803 3.11364 0
M  V30 1687 H 153.323 -4.13867 1.47006 0
M  V30 1688 H 153.929 -3.17121 2.83398 0
M  V30 1689 N 152.244 -1.26651 -0.937939 0
M  V30 1690 C 153.493 -1.11775 -1.67897 0
M  V30 1691 C 153.806 0.33794 -1.92659 0
M  V30 1692 O 155.012 0.607434 -2.64618 0
M  V30 1693 C 153.468 -1.9523 -3.02346 0
M  V30 1694 C 153.076 -3.45393 -2.8532 0
M  V30 1695 C 154.82 -1.88972 -3.80118 0
M  V30 1696 C 152.727 -4.21083 -4.15263 0
M  V30 1697 H 151.657 -0.414696 -0.629717 0
M  V30 1698 H 154.308 -1.50988 -1.04283 0
M  V30 1699 H 152.69 -1.48853 -3.66959 0
M  V30 1700 H 153.864 -3.99561 -2.29537 0
M  V30 1701 H 152.179 -3.52921 -2.20988 0
M  V30 1702 H 154.776 -2.42805 -4.76392 0
M  V30 1703 H 155.119 -0.86113 -4.07296 0
M  V30 1704 H 155.652 -2.33189 -3.22285 0
M  V30 1705 H 152.391 -5.24425 -3.93267 0
M  V30 1706 H 151.911 -3.71695 -4.70747 0
M  V30 1707 H 153.59 -4.29706 -4.83696 0
M  V30 1708 N 153.722 1.14298 -1.08507 0
M  V30 1709 C 154.999 1.81544 -0.728088 0
M  V30 1710 C 155.379 1.95838 0.78808 0
M  V30 1711 O 154.727 1.51904 1.70697 0
M  V30 1712 C 154.937 3.17169 -1.45619 0
M  V30 1713 C 156.285 3.9265 -1.61591 0
M  V30 1714 O 157.309 3.26762 -1.41793 0
M  V30 1715 O 156.168 5.10807 -1.94263 0
M  V30 1716 H 153.262 0.78491 -0.260471 0
M  V30 1717 H 155.808 1.21307 -1.18671 0
M  V30 1718 H 154.58 3.01934 -2.489 0
M  V30 1719 H 154.203 3.851 -0.989124 0
M  V30 1720 N 155.201 0.870884 1.31352 0
M  V30 1721 C 156.148 0.325425 2.28494 0
M  V30 1722 C 157.118 -0.576615 1.5577 0
M  V30 1723 O 158.303 -0.508059 1.83911 0
M  V30 1724 C 155.443 -0.466283 3.41935 0
M  V30 1725 C 154.556 0.463378 4.29508 0
M  V30 1726 C 153.691 -0.342544 5.30094 0
M  V30 1727 C 152.73 0.583486 6.09313 0
M  V30 1728 N 151.867 -0.186244 7.01853 0
M  V30 1729 H 156.707 1.15901 2.74538 0
M  V30 1730 H 154.244 0.58294 1.35056 0
M  V30 1731 H 156.202 -0.941085 4.06447 0
M  V30 1732 H 154.832 -1.26456 2.97 0
M  V30 1733 H 153.884 1.05663 3.65431 0
M  V30 1734 H 155.196 1.1734 4.84802 0
M  V30 1735 H 154.35 -0.879816 6.00287 0
M  V30 1736 H 153.089 -1.08585 4.75458 0
M  V30 1737 H 152.094 1.13251 5.3801 0
M  V30 1738 H 153.319 1.32566 6.66035 0
M  V30 1739 H 151.265 -0.912348 6.49625 0
M  V30 1740 H 151.182 0.464422 7.54572 0
M  V30 1741 H 152.45 -0.704716 7.76308 0
M  V30 1742 N 156.679 -1.44442 0.630414 0
M  V30 1743 C 157.925 -2.02351 0.134816 0
M  V30 1744 C 158.258 -1.4947 -1.23986 0
M  V30 1745 O 157.533 -0.678475 -1.82283 0
M  V30 1746 C 157.816 -3.59898 0.120707 0
M  V30 1747 C 157.669 -4.23063 1.52767 0
M  V30 1748 C 158.988 -4.36585 -0.555127 0
M  V30 1749 H 156.107 -0.73527 0.0504646 0
M  V30 1750 H 158.749 -1.72022 0.806751 0
M  V30 1751 H 156.899 -3.85868 -0.451477 0
M  V30 1752 H 158.571 -4.08202 2.14869 0
M  V30 1753 H 156.814 -3.80586 2.08175 0
M  V30 1754 H 157.485 -5.32071 1.46984 0
M  V30 1755 H 159.961 -4.16044 -0.0685429 0
M  V30 1756 H 158.837 -5.46294 -0.534185 0
M  V30 1757 H 159.098 -4.11138 -1.62535 0
M  V30 1758 N 158.157 -0.370918 -1.53173 0
M  V30 1759 C 159.104 0.473035 -2.259 0
M  V30 1760 C 160.074 1.07311 -1.26781 0
M  V30 1761 O 161.259 1.1046 -1.55574 0
M  V30 1762 C 158.399 1.60405 -3.05556 0
M  V30 1763 C 157.512 1.02863 -4.19575 0
M  V30 1764 C 156.647 2.12918 -4.86661 0
M  V30 1765 C 155.686 1.52869 -5.92704 0
M  V30 1766 N 154.823 2.56779 -6.53459 0
M  V30 1767 H 159.663 -0.153649 -2.97604 0
M  V30 1768 H 157.2 -0.0875946 -1.46839 0
M  V30 1769 H 159.158 2.27034 -3.50016 0
M  V30 1770 H 157.788 2.20131 -2.36097 0
M  V30 1771 H 156.84 0.252465 -3.79561 0
M  V30 1772 H 158.152 0.549642 -4.95762 0
M  V30 1773 H 157.306 2.87356 -5.34333 0
M  V30 1774 H 156.045 2.6417 -4.09958 0
M  V30 1775 H 155.05 0.769479 -5.44389 0
M  V30 1776 H 156.275 1.02435 -6.7133 0
M  V30 1777 H 154.221 3.07235 -5.79606 0
M  V30 1778 H 154.138 2.13583 -7.25202 0
M  V30 1779 H 155.406 3.30903 -7.05779 0
M  V30 1780 N 159.635 1.57281 -0.100228 0
M  V30 1781 C 160.882 1.94537 0.562268 0
M  V30 1782 C 161.21 0.982315 1.67871 0
M  V30 1783 O 160.465 0.00280936 1.957 0
M  V30 1784 C 160.764 3.38305 1.15259 0
M  V30 1785 C 160.43 4.50618 0.159409 0
M  V30 1786 C 159.092 4.81066 -0.113741 0
M  V30 1787 C 161.444 5.18615 -0.518461 0
M  V30 1788 C 158.772 5.76835 -1.07137 0
M  V30 1789 C 161.124 6.15412 -1.46459 0
M  V30 1790 C 159.788 6.44262 -1.74592 0
M  V30 1791 H 159.058 0.711863 0.205748 0
M  V30 1792 H 161.705 1.90679 -0.17715 0
M  V30 1793 H 160.01 3.38766 1.96836 0
M  V30 1794 H 161.707 3.64435 1.67297 0
M  V30 1795 H 158.297 4.2689 0.382491 0
M  V30 1796 H 162.481 4.95264 -0.320581 0
M  V30 1797 H 157.737 5.975 -1.29628 0
M  V30 1798 H 161.911 6.67194 -1.99564 0
M  V30 1799 H 159.538 7.1828 -2.48953 0
M  V30 1800 N 161.113 -0.173488 1.56642 0
M  V30 1801 C 162.529 -0.525174 1.50712 0
M  V30 1802 C 162.729 -1.8476 0.804107 0
M  V30 1803 O 161.785 -2.49869 0.363574 0
M  V30 1804 C 163.098 -0.559937 2.95441 0
M  V30 1805 C 164.646 -0.647288 3.06234 0
M  V30 1806 C 165.121 -0.712963 4.52417 0
M  V30 1807 N 166.612 -0.775911 4.56655 0
M  V30 1808 C 167.347 -0.847264 5.67106 0
M  V30 1809 N 166.843 -0.879585 6.87194 0
M  V30 1810 N 168.636 -0.886117 5.55071 0
M  V30 1811 H 160.787 0.693681 2.00753 0
M  V30 1812 H 163.05 0.249841 0.914485 0
M  V30 1813 H 162.756 0.343049 3.50023 0
M  V30 1814 H 162.63 -1.40718 3.49969 0
M  V30 1815 H 165.017 -1.5407 2.51687 0
M  V30 1816 H 165.098 0.226586 2.54794 0
M  V30 1817 H 164.742 0.176183 5.07594 0
M  V30 1818 H 164.672 -1.60295 5.0161 0
M  V30 1819 H 167.163 -0.759304 3.70193 0
M  V30 1820 H 167.476 -0.935144 7.67121 0
M  V30 1821 H 165.821 -0.847898 6.89808 0
M  V30 1822 H 169.012 -0.857853 4.60172 0
M  V30 1823 H 169.185 -0.938263 6.41171 0
M  V30 1824 N 162.591 -1.51276 -0.441967 0
M  V30 1825 C 163.84 -1.6295 -1.18871 0
M  V30 1826 C 164.153 -0.349312 -1.92456 0
M  V30 1827 O 165.359 -0.345355 -2.69295 0
M  V30 1828 C 163.815 -2.87759 -2.16155 0
M  V30 1829 C 163.423 -4.22764 -1.48239 0
M  V30 1830 C 165.167 -3.08788 -2.91291 0
M  V30 1831 C 163.074 -5.38728 -2.4398 0
M  V30 1832 H 162.004 -0.606913 -0.447406 0
M  V30 1833 H 164.655 -1.77739 -0.456205 0
M  V30 1834 H 163.037 -2.66593 -2.92821 0
M  V30 1835 H 164.211 -4.54293 -0.771635 0
M  V30 1836 H 162.526 -4.07575 -0.852741 0
M  V30 1837 H 165.123 -3.92599 -3.63002 0
M  V30 1838 H 165.466 -2.21679 -3.5237 0
M  V30 1839 H 165.999 -3.30272 -2.21733 0
M  V30 1840 H 162.738 -6.28082 -1.87598 0
M  V30 1841 H 162.258 -5.1158 -3.13123 0
M  V30 1842 H 163.937 -5.70489 -3.05207 0
M  V30 1843 N 164.069 0.697108 -1.41344 0
M  V30 1844 C 165.48 1.27697 -1.36199 0
M  V30 1845 C 165.831 1.9615 -0.0443463 0
M  V30 1846 O 164.956 1.98689 0.857419 0
M  V30 1847 C 165.551 2.32223 -2.46694 0
M  V30 1848 C 164.11 2.8579 -2.44952 0
M  V30 1849 C 163.257 1.59807 -2.26621 0
M  V30 1850 H 166.208 0.491968 -1.50882 0
M  V30 1851 H 166.229 3.1348 -2.15664 0
M  V30 1852 H 165.741 1.82373 -3.42581 0
M  V30 1853 H 163.842 3.3982 -1.52817 0
M  V30 1854 H 163.955 3.36325 -3.41207 0
M  V30 1855 H 162.319 1.8556 -1.7447 0
M  V30 1856 H 163.102 1.11956 -3.24532 0
M  V30 1857 N 165.547 1.27147 0.931209 0
M  V30 1858 C 166.793 1.13446 1.68101 0
M  V30 1859 C 167.126 -0.319628 1.91552 0
M  V30 1860 O 166.401 -1.23407 1.50336 0
M  V30 1861 C 166.684 1.91482 3.0497 0
M  V30 1862 C 166.537 3.44855 2.88782 0
M  V30 1863 C 167.856 1.71651 4.05246 0
M  V30 1864 H 164.975 0.413498 0.610072 0
M  V30 1865 H 167.617 1.56261 1.08086 0
M  V30 1866 H 165.767 1.55095 3.56199 0
M  V30 1867 H 167.439 3.9105 2.44698 0
M  V30 1868 H 165.682 3.71373 2.24198 0
M  V30 1869 H 166.353 3.94694 3.85902 0
M  V30 1870 H 168.829 2.0337 3.63015 0
M  V30 1871 H 167.705 2.28651 4.99009 0
M  V30 1872 H 167.966 0.663555 4.37092 0
M  V30 1873 N 167.025 -1.13721 1.09112 0
M  V30 1874 C 168.253 -1.88773 0.846899 0
M  V30 1875 C 168.668 -1.7896 -0.601572 0
M  V30 1876 O 168.025 -1.15394 -1.41388 0
M  V30 1877 C 168.076 -3.3849 1.26913 0
M  V30 1878 O 167.797 -3.48043 2.66079 0
M  V30 1879 C 169.298 -4.30518 1.05682 0
M  V30 1880 H 166.518 -0.59772 0.304914 0
M  V30 1881 H 169.062 -1.43977 1.45227 0
M  V30 1882 H 167.217 -3.80881 0.707723 0
M  V30 1883 H 167.631 -4.4109 2.83795 0
M  V30 1884 H 169.105 -5.3391 1.40156 0
M  V30 1885 H 169.582 -4.392 -0.00563416 0
M  V30 1886 H 170.188 -3.93893 1.60402 0
M  V30 1887 N 168.503 -0.877838 -1.30888 0
M  V30 1888 C 169.914 -0.544193 -1.78593 0
M  V30 1889 C 170.265 0.939301 -1.72254 0
M  V30 1890 O 169.39 1.7337 -1.29505 0
M  V30 1891 C 169.985 -0.98105 -3.24285 0
M  V30 1892 C 168.544 -0.698935 -3.69854 0
M  V30 1893 C 167.691 -1.168 -2.51502 0
M  V30 1894 H 170.642 -1.06278 -1.17859 0
M  V30 1895 H 170.663 -0.307009 -3.79259 0
M  V30 1896 H 170.175 -2.06079 -3.28866 0
M  V30 1897 H 168.276 0.369112 -3.70767 0
M  V30 1898 H 168.389 -1.28148 -4.61644 0
M  V30 1899 H 166.753 -0.587535 -2.47831 0
M  V30 1900 H 167.536 -2.25533 -2.58824 0
M  V30 1901 N 169.982 1.44106 -0.638065 0
M  V30 1902 C 171.23 2.01579 -0.145043 0
M  V30 1903 C 171.551 1.50496 1.24 0
M  V30 1904 O 170.821 0.711374 1.82527 0
M  V30 1905 H 169.401 0.745282 -0.05063 0
M  V30 1906 H 172.063 1.76516 -0.826327 0
M  V30 1907 H 171.159 3.11877 -0.118039 0
M  V30 1908 N 171.46 0.379036 1.52974 0
M  V30 1909 C 172.737 -0.263479 1.93817 0
M  V30 1910 C 173.117 -1.65244 1.31368 0
M  V30 1911 O 172.465 -2.23448 0.477856 0
M  V30 1912 C 172.675 -0.300166 3.47707 0
M  V30 1913 C 174.023 -0.534061 4.21228 0
M  V30 1914 O 175.047 -0.38081 3.54159 0
M  V30 1915 O 173.906 -0.833501 5.40106 0
M  V30 1916 H 171 -0.161149 0.811147 0
M  V30 1917 H 173.546 0.432798 1.64088 0
M  V30 1918 H 172.318 0.673138 3.85467 0
M  V30 1919 H 171.941 -1.04179 3.83709 0
M  V30 1920 N 172.938 -1.57226 0.108567 0
M  V30 1921 C 174.354 -1.5766 -0.248058 0
M  V30 1922 C 174.554 -1.12063 -1.67464 0
M  V30 1923 O 173.61 -0.803236 -2.39383 0
M  V30 1924 C 174.923 -3.0069 -0.0242287 0
M  V30 1925 C 176.471 -3.12868 -0.0909372 0
M  V30 1926 C 176.946 -4.57879 0.105067 0
M  V30 1927 N 178.437 -4.63172 0.0506846 0
M  V30 1928 C 179.172 -5.73126 0.177396 0
M  V30 1929 N 178.668 -6.91866 0.359696 0
M  V30 1930 N 180.461 -5.61977 0.117709 0
M  V30 1931 H 172.612 -1.85169 1.04049 0
M  V30 1932 H 174.875 -0.85529 0.40888 0
M  V30 1933 H 174.581 -3.38299 0.961604 0
M  V30 1934 H 174.455 -3.6945 -0.76068 0
M  V30 1935 H 176.842 -2.75124 -1.06729 0
M  V30 1936 H 176.923 -2.46672 0.677225 0
M  V30 1937 H 176.567 -4.96321 1.07834 0
M  V30 1938 H 176.497 -5.22153 -0.682954 0
M  V30 1939 H 178.988 -3.778 -0.0871266 0
M  V30 1940 H 179.301 -7.71503 0.447529 0
M  V30 1941 H 177.646 -6.93874 0.395536 0
M  V30 1942 H 180.837 -4.68094 -0.0236741 0
M  V30 1943 H 181.01 -6.47627 0.219905 0
M  V30 1944 N 174.416 0.165178 -1.56732 0
M  V30 1945 C 175.346 1.20651 -1.99914 0
M  V30 1946 C 176.327 1.45827 -0.875705 0
M  V30 1947 O 177.512 1.57057 -1.14223 0
M  V30 1948 C 174.642 2.54401 -2.36427 0
M  V30 1949 C 173.596 2.43782 -3.51787 0
M  V30 1950 C 172.922 3.82078 -3.7406 0
M  V30 1951 C 174.222 1.93732 -4.85041 0
M  V30 1952 H 175.916 0.847534 -2.87154 0
M  V30 1953 H 173.462 0.40625 -1.38151 0
M  V30 1954 H 175.415 3.27458 -2.65234 0
M  V30 1955 H 174.139 2.92098 -1.46103 0
M  V30 1956 H 172.798 1.73178 -3.23117 0
M  V30 1957 H 172.446 4.17179 -2.81017 0
M  V30 1958 H 172.146 3.7584 -4.51684 0
M  V30 1959 H 173.67 4.56712 -4.05274 0
M  V30 1960 H 175.084 2.56569 -5.12684 0
M  V30 1961 H 173.481 1.98428 -5.66345 0
M  V30 1962 H 174.551 0.891962 -4.76626 0
M  V30 1963 N 175.894 1.51508 0.433938 0
M  V30 1964 C 176.804 1.75917 1.5521 0
M  V30 1965 C 177.82 0.643545 1.61662 0
M  V30 1966 O 178.996 0.926183 1.7884 0
M  V30 1967 C 176.061 1.88213 2.91164 0
M  V30 1968 C 175.122 3.12074 2.94802 0
M  V30 1969 C 174.355 3.23774 4.24271 0
M  V30 1970 O 174.578 2.4133 5.16833 0
M  V30 1971 O 173.512 4.16774 4.34262 0
M  V30 1972 H 177.338 2.70777 1.37527 0
M  V30 1973 H 174.923 1.36051 0.617293 0
M  V30 1974 H 176.805 1.98267 3.71845 0
M  V30 1975 H 175.48 0.965413 3.08968 0
M  V30 1976 H 174.387 3.07497 2.13065 0
M  V30 1977 H 175.72 4.03446 2.81943 0
M  V30 1978 N 177.372 -0.689602 1.41712 0
M  V30 1979 C 178.602 -1.47613 1.44548 0
M  V30 1980 C 179.01 -1.89132 0.0509034 0
M  V30 1981 O 178.353 -1.57741 -0.94146 0
M  V30 1982 C 178.415 -2.76596 2.2964 0
M  V30 1983 C 178.079 -2.57245 3.77722 0
M  V30 1984 C 179.076 -2.22804 4.69739 0
M  V30 1985 C 176.761 -2.727 4.2183 0
M  V30 1986 C 178.755 -2.04064 6.03851 0
M  V30 1987 C 176.442 -2.53576 5.56006 0
M  V30 1988 C 177.44 -2.1931 6.46832 0
M  V30 1989 O 177.128 -2.00359 7.78532 0
M  V30 1990 H 176.86 -0.461227 0.494212 0
M  V30 1991 H 179.414 -0.856045 1.86711 0
M  V30 1992 H 177.644 -3.41033 1.82301 0
M  V30 1993 H 179.333 -3.38424 2.24107 0
M  V30 1994 H 180.099 -2.10473 4.36951 0
M  V30 1995 H 175.978 -2.98353 3.51435 0
M  V30 1996 H 179.522 -1.77241 6.74708 0
M  V30 1997 H 175.419 -2.65499 5.88371 0
M  V30 1998 H 176.187 -2.15075 7.89737 0
M  V30 1999 N 178.85 -1.27639 -0.924453 0
M  V30 2000 C 179.8 -1.07295 -2.01176 0
M  V30 2001 C 180.784 5.77352e-05 -1.609 0
M  V30 2002 O 181.976 -0.218855 -1.75642 0
M  V30 2003 C 179.105 -0.725592 -3.35544 0
M  V30 2004 C 178.191 -1.83691 -3.82254 0
M  V30 2005 N 178.582 -3.07697 -4.01443 0
M  V30 2006 C 176.88 -1.72433 -4.11319 0
M  V30 2007 C 177.581 -3.80037 -4.40394 0
M  V30 2008 N 176.557 -3.0782 -4.48049 0
M  V30 2009 H 180.359 -2.01399 -2.14046 0
M  V30 2010 H 177.873 -1.18401 -1.11153 0
M  V30 2011 H 179.87 -0.560959 -4.13109 0
M  V30 2012 H 178.53 0.207782 -3.24034 0
M  V30 2013 H 179.541 -3.43424 -3.8766 0
M  V30 2014 H 176.218 -0.862005 -4.08504 0
M  V30 2015 H 177.608 -4.86632 -4.63291 0
M  V30 2016 N 180.328 1.1314 -1.09713 0
M  V30 2017 C 181.258 2.20748 -0.761102 0
M  V30 2018 C 182.239 1.68061 0.262566 0
M  V30 2019 O 183.424 1.93765 0.129977 0
M  V30 2020 C 180.554 3.46812 -0.184054 0
M  V30 2021 C 179.508 4.12606 -1.13757 0
M  V30 2022 C 178.834 5.33031 -0.422083 0
M  V30 2023 C 180.134 4.59603 -2.48118 0
M  V30 2024 H 181.828 2.49113 -1.66082 0
M  V30 2025 H 179.374 1.19734 -0.799987 0
M  V30 2026 H 181.327 4.21353 0.0631215 0
M  V30 2027 H 180.051 3.17851 0.750868 0
M  V30 2028 H 178.71 3.40036 -1.37007 0
M  V30 2029 H 178.358 5.00335 0.517072 0
M  V30 2030 H 178.058 5.77999 -1.05788 0
M  V30 2031 H 179.582 6.10325 -0.183277 0
M  V30 2032 H 180.996 5.25552 -2.29059 0
M  V30 2033 H 179.393 5.15321 -3.07514 0
M  V30 2034 H 180.463 3.73971 -3.08665 0
M  V30 2035 N 181.806 0.884767 1.30421 0
M  V30 2036 C 182.716 0.355398 2.31892 0
M  V30 2037 C 183.732 -0.542261 1.65335 0
M  V30 2038 O 184.908 -0.435432 1.96637 0
M  V30 2039 C 181.973 -0.421661 3.44126 0
M  V30 2040 C 181.034 0.505727 4.26311 0
M  V30 2041 C 180.267 -0.234343 5.33185 0
M  V30 2042 O 180.49 -1.46045 5.51386 0
M  V30 2043 O 179.424 0.415443 6.00465 0
M  V30 2044 H 183.25 1.19685 2.79122 0
M  V30 2045 H 180.835 0.648596 1.34587 0
M  V30 2046 H 182.717 -0.861641 4.12497 0
M  V30 2047 H 181.392 -1.23942 2.99032 0
M  V30 2048 H 180.299 0.994513 3.60639 0
M  V30 2049 H 181.632 1.28948 4.75009 0
M  V30 2050 N 183.284 -1.43765 0.645699 0
M  V30 2051 C 184.53 -2.02197 0.156271 0
M  V30 2052 C 184.863 -1.50776 -1.22393 0
M  V30 2053 O 184.138 -0.697771 -1.81553 0
M  V30 2054 C 184.421 -3.59749 0.158872 0
M  V30 2055 C 184.274 -4.21419 1.57245 0
M  V30 2056 C 185.593 -4.37149 -0.50879 0
M  V30 2057 H 182.712 -0.734694 0.0582602 0
M  V30 2058 H 185.354 -1.71157 0.824951 0
M  V30 2059 H 183.504 -3.86325 -0.410525 0
M  V30 2060 H 185.176 -4.059 2.19186 0
M  V30 2061 H 183.419 -3.78356 2.122 0
M  V30 2062 H 184.09 -5.30482 1.52619 0
M  V30 2063 H 186.566 -4.16093 -0.024412 0
M  V30 2064 H 185.442 -5.4683 -0.476213 0
M  V30 2065 H 185.703 -4.12839 -1.58165 0
M  V30 2066 N 184.763 -0.387143 -1.52771 0
M  V30 2067 C 185.693 0.440551 -2.29306 0
M  V30 2068 C 186.674 1.06535 -1.32606 0
M  V30 2069 O 187.859 1.07853 -1.61497 0
M  V30 2070 C 184.989 1.56919 -3.09829 0
M  V30 2071 C 183.943 1.07054 -4.14395 0
M  V30 2072 C 183.269 2.29109 -4.83129 0
M  V30 2073 C 184.569 0.140015 -5.22112 0
M  V30 2074 H 186.263 -0.198026 -2.98744 0
M  V30 2075 H 183.809 -0.09668 -1.43675 0
M  V30 2076 H 185.762 2.15503 -3.62128 0
M  V30 2077 H 184.486 2.23532 -2.3812 0
M  V30 2078 H 183.145 0.507247 -3.63074 0
M  V30 2079 H 182.793 2.94227 -4.0797 0
M  V30 2080 H 182.493 1.96406 -5.53804 0
M  V30 2081 H 184.017 2.88339 -5.38231 0
M  V30 2082 H 185.431 0.633978 -5.69784 0
M  V30 2083 H 183.828 -0.0971485 -6.00021 0
M  V30 2084 H 184.898 -0.811711 -4.78058 0
M  V30 2085 N 186.241 1.57166 -0.116904 0
M  V30 2086 C 187.188 2.15202 0.83408 0
M  V30 2087 C 188.158 1.07644 1.26499 0
M  V30 2088 O 189.343 1.35541 1.34288 0
M  V30 2089 C 186.483 2.75405 2.07957 0
M  V30 2090 C 185.596 3.97264 1.69721 0
M  V30 2091 C 184.731 4.45561 2.89221 0
M  V30 2092 C 183.77 5.59956 2.47215 0
M  V30 2093 N 182.907 6.03006 3.59622 0
M  V30 2094 H 187.747 2.96141 0.332335 0
M  V30 2095 H 185.284 1.46309 0.152349 0
M  V30 2096 H 187.242 3.08439 2.80929 0
M  V30 2097 H 185.872 1.97159 2.55594 0
M  V30 2098 H 184.924 3.70404 0.866316 0
M  V30 2099 H 186.236 4.80226 1.34849 0
M  V30 2100 H 185.39 4.80493 3.7042 0
M  V30 2101 H 184.129 3.61544 3.27318 0
M  V30 2102 H 183.134 5.2463 1.64448 0
M  V30 2103 H 184.359 6.45738 2.10238 0
M  V30 2104 H 182.305 5.21931 3.97396 0
M  V30 2105 H 182.222 6.80819 3.28667 0
M  V30 2106 H 183.49 6.42576 4.41267 0
M  V30 2107 N 187.719 -0.156864 1.56817 0
M  V30 2108 C 188.669 -1.19891 1.93934 0
M  V30 2109 C 189.653 -1.39061 0.809372 0
M  V30 2110 O 190.845 -1.40789 1.07273 0
M  V30 2111 C 187.974 -2.53493 2.31508 0
M  V30 2112 C 187.06 -2.37957 3.51052 0
M  V30 2113 N 187.451 -1.92158 4.67877 0
M  V30 2114 C 185.749 -2.68739 3.55943 0
M  V30 2115 C 186.45 -1.8943 5.49992 0
M  V30 2116 N 185.426 -2.32375 4.91429 0
M  V30 2117 H 189.228 -0.836746 2.81737 0
M  V30 2118 H 186.742 -0.365012 1.58245 0
M  V30 2119 H 188.739 -3.28811 2.56299 0
M  V30 2120 H 187.399 -2.905 1.45051 0
M  V30 2121 H 188.41 -1.62274 4.91821 0
M  V30 2122 H 185.087 -3.09687 2.80001 0
M  V30 2123 H 186.477 -1.55596 6.53636 0
M  V30 2124 N 189.197 -1.51736 -0.425897 0
M  V30 2125 C 190.144 -1.73875 -1.51776 0
M  V30 2126 C 191.114 -0.580702 -1.55618 0
M  V30 2127 O 192.299 -0.81641 -1.72451 0
M  V30 2128 C 189.439 -1.88012 -2.89388 0
M  V30 2129 C 188.552 -3.15606 -2.94986 0
M  V30 2130 C 187.687 -3.20271 -4.23793 0
M  V30 2131 C 186.726 -4.42134 -4.23302 0
M  V30 2132 N 185.863 -4.44284 -5.43651 0
M  V30 2133 H 190.703 -2.67071 -1.32201 0
M  V30 2134 H 188.24 -1.32351 -0.642008 0
M  V30 2135 H 190.198 -1.9419 -3.69251 0
M  V30 2136 H 188.828 -0.98213 -3.07496 0
M  V30 2137 H 187.88 -3.18681 -2.07717 0
M  V30 2138 H 189.192 -4.05486 -2.90486 0
M  V30 2139 H 188.346 -3.25428 -5.12036 0
M  V30 2140 H 187.085 -2.28299 -4.30965 0
M  V30 2141 H 186.09 -4.3714 -3.3345 0
M  V30 2142 H 187.315 -5.35382 -4.17783 0
M  V30 2143 H 185.261 -3.55188 -5.51523 0
M  V30 2144 H 185.178 -5.27988 -5.41078 0
M  V30 2145 H 186.446 -4.53649 -6.33895 0
M  V30 2146 N 190.675 0.682077 -1.42076 0
M  V30 2147 C 191.923 1.4393 -1.41876 0
M  V30 2148 C 192.244 1.94971 -0.0335599 0
M  V30 2149 O 191.514 1.72591 0.926773 0
M  V30 2150 H 190.094 0.534085 -0.522267 0
M  V30 2151 H 192.756 0.806427 -1.77434 0
M  V30 2152 H 191.852 2.29588 -2.11414 0
M  V30 2153 N 192.153 1.28127 0.917671 0
M  V30 2154 C 193.086 1.06039 2.02067 0
M  V30 2155 C 194.064 -0.0223285 1.62585 0
M  V30 2156 O 195.248 0.124823 1.88086 0
M  V30 2157 C 192.375 0.610596 3.33151 0
M  V30 2158 C 191.421 1.68937 3.91615 0
M  V30 2159 S 192.254 3.28437 4.22953 0
M  V30 2160 C 193.41 2.85283 5.57103 0
M  V30 2161 H 193.643 1.99425 2.20493 0
M  V30 2162 H 191.176 1.12071 1.06205 0
M  V30 2163 H 193.134 0.357778 4.08938 0
M  V30 2164 H 191.795 -0.303364 3.12632 0
M  V30 2165 H 190.988 1.32619 4.86239 0
M  V30 2166 H 190.59 1.89478 3.2245 0
M  V30 2167 H 192.882 2.3121 6.36827 0
M  V30 2168 H 193.825 3.7869 5.98331 0
M  V30 2169 H 194.233 2.24118 5.18104 0
M  V30 2170 N 193.631 -1.12557 1.10312 0
M  V30 2171 C 194.88 -1.83395 0.839588 0
M  V30 2172 C 195.193 -1.84939 -0.636929 0
M  V30 2173 O 196.399 -2.51761 -1.01631 0
M  V30 2174 C 194.855 -3.29303 1.45215 0
M  V30 2175 C 194.463 -3.36122 2.96186 0
M  V30 2176 C 196.207 -4.05121 1.26796 0
M  V30 2177 C 194.114 -4.76357 3.50483 0
M  V30 2178 H 193.044 -0.687133 0.310425 0
M  V30 2179 H 195.695 -1.26746 1.32694 0
M  V30 2180 H 194.077 -3.85812 0.892469 0
M  V30 2181 H 195.251 -2.89559 3.58458 0
M  V30 2182 H 193.566 -2.73776 3.13745 0
M  V30 2183 H 196.163 -5.08668 1.64806 0
M  V30 2184 H 196.506 -4.15773 0.209409 0
M  V30 2185 H 197.039 -3.54967 1.79563 0
M  V30 2186 H 193.778 -4.70899 4.55998 0
M  V30 2187 H 193.298 -5.23377 2.92978 0
M  V30 2188 H 194.977 -5.45294 3.48228 0
M  V30 2189 N 195.109 -0.891671 -1.2995 0
M  V30 2190 C 196.355 -0.523649 -1.96544 0
M  V30 2191 C 196.71 0.918394 -1.69066 0
M  V30 2192 O 196.003 1.64122 -0.988659 0
M  V30 2193 C 196.197 -0.742868 -3.49594 0
M  V30 2194 C 196.026 -2.20467 -3.9195 0
M  V30 2195 C 194.796 -2.85055 -4.17219 0
M  V30 2196 C 196.994 -3.17912 -4.04273 0
M  V30 2197 N 194.976 -4.21762 -4.46083 0
M  V30 2198 C 196.347 -4.39712 -4.37097 0
M  V30 2199 C 198.402 -3.1361 -3.86721 0
M  V30 2200 C 197.105 -5.5776 -4.54199 0
M  V30 2201 C 199.131 -4.30936 -4.05028 0
M  V30 2202 C 198.493 -5.51504 -4.38204 0
M  V30 2203 H 194.592 -0.241072 -0.743914 0
M  V30 2204 H 197.176 -1.15081 -1.5705 0
M  V30 2205 H 195.347 -0.14515 -3.88129 0
M  V30 2206 H 197.079 -0.341081 -4.0326 0
M  V30 2207 H 193.834 -2.35889 -4.10674 0
M  V30 2208 H 194.258 -4.92382 -4.64638 0
M  V30 2209 H 198.9 -2.21489 -3.60142 0
M  V30 2210 H 196.618 -6.50379 -4.79618 0
M  V30 2211 H 200.204 -4.29085 -3.92909 0
M  V30 2212 H 199.084 -6.40778 -4.52077 0
M  V30 2213 N 196.587 1.43421 -0.653314 0
M  V30 2214 C 197.519 2.29071 0.0769134 0
M  V30 2215 C 198.532 1.42513 0.787017 0
M  V30 2216 O 199.721 1.66449 0.644757 0
M  V30 2217 C 196.821 3.19436 1.13199 0
M  V30 2218 C 195.994 4.34533 0.500006 0
M  V30 2219 C 195.053 5.05771 1.45198 0
M  V30 2220 O 194.079 5.61037 0.960538 0
M  V30 2221 N 195.281 5.0928 2.78594 0
M  V30 2222 H 198.046 2.92382 -0.658235 0
M  V30 2223 H 195.607 1.54112 -0.496104 0
M  V30 2224 H 197.599 3.63958 1.76964 0
M  V30 2225 H 196.169 2.57724 1.7691 0
M  V30 2226 H 195.389 3.92925 -0.316738 0
M  V30 2227 H 196.677 5.08766 0.0588345 0
M  V30 2228 H 196.075 4.65751 3.2108 0
M  V30 2229 H 194.632 5.57519 3.37662 0
M  V30 2230 N 198.065 0.39524 1.52563 0
M  V30 2231 C 199.311 -0.185318 2.01952 0
M  V30 2232 C 199.644 -1.45964 1.28095 0
M  V30 2233 O 198.919 -1.90689 0.38315 0
M  V30 2234 C 199.202 -0.447193 3.57312 0
M  V30 2235 C 199.055 0.842828 4.41833 0
M  V30 2236 C 200.374 -1.23529 4.22408 0
M  V30 2237 H 197.493 -0.0658788 0.73405 0
M  V30 2238 H 200.135 0.525975 1.82575 0
M  V30 2239 H 198.285 -1.05312 3.73954 0
M  V30 2240 H 199.957 1.4795 4.36931 0
M  V30 2241 H 198.2 1.45686 4.08605 0
M  V30 2242 H 198.871 0.614165 5.48573 0
M  V30 2243 H 201.347 -0.722445 4.0978 0
M  V30 2244 H 200.223 -1.38727 5.3108 0
M  V30 2245 H 200.484 -2.25213 3.80436 0
M  V30 2246 N 199.544 -1.57102 0.125237 0
M  V30 2247 C 200.792 -1.95021 -0.530198 0
M  V30 2248 C 201.113 -1.00982 -1.66816 0
M  V30 2249 O 200.383 -0.0672693 -1.95784 0
M  V30 2250 H 198.963 -0.720046 -0.198853 0
M  V30 2251 H 201.625 -1.93916 0.19564 0
M  V30 2252 H 200.721 -2.98211 -0.920681 0
M  V30 2253 N 201.022 0.148545 -1.56898 0
M  V30 2254 C 202.27 0.859717 -1.82902 0
M  V30 2255 C 202.591 1.81775 -0.70588 0
M  V30 2256 O 201.861 1.93994 0.272586 0
M  V30 2257 H 200.441 0.320469 -0.674766 0
M  V30 2258 H 203.103 0.142918 -1.94375 0
M  V30 2259 H 202.199 1.4229 -2.77777 0
M  V30 2260 N 202.5 1.5196 0.417844 0
M  V30 2261 C 203.728 1.69426 1.18753 0
M  V30 2262 C 204.143 0.399955 1.84515 0
M  V30 2263 O 203.5 -0.623288 1.71527 0
M  V30 2264 C 203.551 2.82375 2.25714 0
M  V30 2265 O 203.272 4.06793 1.62638 0
M  V30 2266 C 204.773 3.11277 3.15628 0
M  V30 2267 H 201.993 0.568031 0.357186 0
M  V30 2268 H 204.537 1.98475 0.49273 0
M  V30 2269 H 202.692 2.5587 2.90877 0
M  V30 2270 H 203.106 4.69667 2.3348 0
M  V30 2271 H 204.58 3.93843 3.86771 0
M  V30 2272 H 205.057 2.24473 3.77503 0
M  V30 2273 H 205.663 3.39515 2.56144 0
M  V30 2274 N 203.978 -0.674533 1.42435 0
M  V30 2275 C 204.941 -1.76986 1.45632 0
M  V30 2276 C 205.941 -1.5708 0.343871 0
M  V30 2277 O 207.131 -1.63367 0.604709 0
M  V30 2278 C 204.263 -3.15623 1.28822 0
M  V30 2279 H 205.456 -1.75539 2.43158 0
M  V30 2280 H 203.009 -0.884189 1.28887 0
M  V30 2281 H 203.744 -3.22696 0.322193 0
M  V30 2282 H 203.529 -3.31475 2.09444 0
M  V30 2283 H 205.019 -3.95537 1.33942 0
M  V30 2284 N 205.456 -1.28612 -0.910864 0
M  V30 2285 C 206.388 -1.08589 -2.01844 0
M  V30 2286 C 207.401 -0.0367419 -1.62759 0
M  V30 2287 O 208.59 -0.280101 -1.76289 0
M  V30 2288 C 205.69 -0.628626 -3.33019 0
M  V30 2289 C 204.863 -1.75382 -4.00699 0
M  V30 2290 C 203.922 -1.28945 -5.10156 0
M  V30 2291 O 202.948 -1.9922 -5.33198 0
M  V30 2292 N 204.15 -0.154224 -5.80295 0
M  V30 2293 H 206.915 -2.03973 -2.19579 0
M  V30 2294 H 204.476 -1.20403 -1.08234 0
M  V30 2295 H 206.468 -0.301508 -4.03575 0
M  V30 2296 H 205.038 0.232451 -3.11735 0
M  V30 2297 H 204.258 -2.25039 -3.23653 0
M  V30 2298 H 205.546 -2.50854 -4.42662 0
M  V30 2299 H 204.944 0.43194 -5.64049 0
M  V30 2300 H 203.501 0.113599 -6.51701 0
M  V30 2301 N 206.934 1.1197 -1.10907 0
M  V30 2302 C 208.18 1.8386 -0.855773 0
M  V30 2303 C 208.513 1.84134 0.617103 0
M  V30 2304 O 207.788 1.29041 1.45529 0
M  V30 2305 C 208.071 3.31305 -1.411 0
M  V30 2306 C 207.924 3.39456 -2.9511 0
M  V30 2307 C 209.243 4.2721 -1.05736 0
M  V30 2308 H 206.362 0.667545 -0.312334 0
M  V30 2309 H 209.004 1.31331 -1.37303 0
M  V30 2310 H 207.154 3.76169 -0.97105 0
M  V30 2311 H 208.826 3.03191 -3.47668 0
M  V30 2312 H 207.069 2.79849 -3.31462 0
M  V30 2313 H 207.74 4.43209 -3.29044 0
M  V30 2314 H 210.216 3.90497 -1.43706 0
M  V30 2315 H 209.092 5.28775 -1.47269 0
M  V30 2316 H 209.353 4.42088 0.0325958 0
M  V30 2317 N 208.412 0.89855 1.29475 0
M  V30 2318 C 209.689 0.443416 1.90508 0
M  V30 2319 C 210.069 -1.07685 1.81569 0
M  V30 2320 O 209.417 -1.9182 1.24166 0
M  V30 2321 C 209.627 0.956708 3.35631 0
M  V30 2322 C 210.975 0.999728 4.12663 0
M  V30 2323 O 211.999 0.904299 3.4453 0
M  V30 2324 O 210.858 1.14289 5.34416 0
M  V30 2325 H 207.952 0.138025 0.815401 0
M  V30 2326 H 210.498 0.98834 1.37949 0
M  V30 2327 H 209.27 2.00067 3.36287 0
M  V30 2328 H 208.893 0.391728 3.95666 0
M  V30 2329 N 209.89 -1.43072 0.660911 0
M  V30 2330 C 211.138 -2.01323 0.177094 0
M  V30 2331 C 211.459 -1.5245 -1.2159 0
M  V30 2332 O 210.729 -0.740322 -1.81373 0
M  V30 2333 H 209.309 -0.744382 0.0624804 0
M  V30 2334 H 211.971 -1.75179 0.854305 0
M  V30 2335 H 211.067 -3.11649 0.167641 0
M  V30 2336 N 211.368 -0.403325 -1.52352 0
M  V30 2337 C 212.315 0.425011 -2.26853 0
M  V30 2338 C 213.285 1.04598 -1.29029 0
M  V30 2339 O 214.47 1.07135 -1.57882 0
M  V30 2340 C 211.61 1.53888 -3.08889 0
M  V30 2341 C 210.723 0.939396 -4.21663 0
M  V30 2342 C 209.858 2.02547 -4.91068 0
M  V30 2343 C 208.897 1.40263 -5.95813 0
M  V30 2344 N 208.034 2.4286 -6.58759 0
M  V30 2345 H 212.874 -0.21674 -2.97211 0
M  V30 2346 H 210.411 -0.118722 -1.4662 0
M  V30 2347 H 212.369 2.19558 -3.54753 0
M  V30 2348 H 210.999 2.15074 -2.40714 0
M  V30 2349 H 210.051 0.171898 -3.80011 0
M  V30 2350 H 211.363 0.44436 -4.96817 0
M  V30 2351 H 210.517 2.75958 -5.40308 0
M  V30 2352 H 209.256 2.55415 -4.15469 0
M  V30 2353 H 208.261 0.653833 -5.45898 0
M  V30 2354 H 209.486 0.881719 -6.73352 0
M  V30 2355 H 207.432 2.94871 -5.85992 0
M  V30 2356 H 207.349 1.98152 -7.2957 0
M  V30 2357 H 208.617 3.15858 -7.12639 0
M  V30 2358 N 212.846 1.57033 -0.133567 0
M  V30 2359 C 214.092 1.95976 0.521649 0
M  V30 2360 C 214.425 1.01779 1.65393 0
M  V30 2361 O 213.7 0.0576581 1.94415 0
M  V30 2362 C 213.983 3.44738 1.04057 0
M  V30 2363 C 213.836 4.49711 -0.0892897 0
M  V30 2364 C 215.155 3.95682 1.92675 0
M  V30 2365 H 212.274 0.712579 0.188149 0
M  V30 2366 H 214.916 1.88813 -0.212076 0
M  V30 2367 H 213.066 3.50973 1.66583 0
M  V30 2368 H 214.738 4.55565 -0.725152 0
M  V30 2369 H 212.981 4.27261 -0.750378 0
M  V30 2370 H 213.652 5.51099 0.315284 0
M  V30 2371 H 216.128 3.91841 1.39998 0
M  V30 2372 H 215.004 5.00262 2.25897 0
M  V30 2373 H 215.265 3.37239 2.85872 0
M  V30 2374 N 214.325 -0.140222 1.56975 0
M  V30 2375 C 215.571 -0.852949 1.83991 0
M  V30 2376 C 215.904 -1.80512 0.716187 0
M  V30 2377 O 215.179 -1.92479 -0.279681 0
M  V30 2378 C 215.462 -1.6215 3.21527 0
M  V30 2379 C 215.315 -0.690363 4.4447 0
M  V30 2380 C 216.634 -2.58247 3.56366 0
M  V30 2381 H 213.753 -0.308634 0.669264 0
M  V30 2382 H 216.395 -0.117898 1.89634 0
M  V30 2383 H 214.545 -2.24812 3.16847 0
M  V30 2384 H 216.217 -0.0742264 4.6124 0
M  V30 2385 H 214.46 -0.000396433 4.338 0
M  V30 2386 H 215.131 -1.2643 5.37326 0
M  V30 2387 H 217.607 -2.05701 3.61699 0
M  V30 2388 H 216.483 -3.09067 4.53617 0
M  V30 2389 H 216.744 -3.39923 2.82674 0
M  V30 2390 N 215.803 -1.52179 -0.40978 0
M  V30 2391 C 216.766 -1.74853 -1.48186 0
M  V30 2392 C 217.766 -0.618417 -1.48433 0
M  V30 2393 O 218.956 -0.886286 -1.49969 0
M  V30 2394 C 216.088 -1.8303 -2.87598 0
M  V30 2395 H 217.281 -2.70559 -1.29374 0
M  V30 2396 H 214.834 -1.42586 -0.640233 0
M  V30 2397 H 215.569 -0.89236 -3.11781 0
M  V30 2398 H 215.354 -2.65187 -2.88822 0
M  V30 2399 H 216.844 -2.02316 -3.65319 0
M  V30 2400 N 217.281 0.66697 -1.42791 0
M  V30 2401 C 218.191 1.80962 -1.49299 0
M  V30 2402 C 219.207 1.69775 -0.381108 0
M  V30 2403 O 220.383 1.91188 -0.633188 0
M  V30 2404 C 217.448 3.17156 -1.40045 0
M  V30 2405 C 216.509 3.40242 -2.6179 0
M  V30 2406 C 215.742 4.69939 -2.52969 0
M  V30 2407 O 215.965 5.48372 -1.56985 0
M  V30 2408 O 214.899 4.94441 -3.43237 0
M  V30 2409 H 218.725 1.78427 -2.45759 0
M  V30 2410 H 216.31 0.823713 -1.24641 0
M  V30 2411 H 218.192 3.98413 -1.37276 0
M  V30 2412 H 216.867 3.20312 -0.467138 0
M  V30 2413 H 215.774 2.58802 -2.70134 0
M  V30 2414 H 217.107 3.41923 -3.54047 0
M  V30 2415 N 218.759 1.29093 0.90403 0
M  V30 2416 C 219.722 1.1386 1.98919 0
M  V30 2417 C 220.722 0.0753457 1.60623 0
M  V30 2418 O 221.912 0.321931 1.71199 0
M  V30 2419 C 219.044 0.740198 3.32767 0
M  V30 2420 H 220.237 2.10246 2.13861 0
M  V30 2421 H 217.79 1.12218 1.08797 0
M  V30 2422 H 218.525 -0.223997 3.23525 0
M  V30 2423 H 218.31 1.50838 3.61926 0
M  V30 2424 H 219.8 0.656546 4.12407 0
M  V30 2425 N 220.237 -1.11381 1.11499 0
M  V30 2426 C 221.147 -2.21019 0.786628 0
M  V30 2427 C 222.163 -1.72597 -0.220507 0
M  V30 2428 O 223.339 -2.01321 -0.0565251 0
M  V30 2429 C 220.404 -3.459 0.235333 0
M  V30 2430 C 219.465 -4.09107 1.30115 0
M  V30 2431 C 218.698 -5.28027 0.776068 0
M  V30 2432 O 218.921 -5.6904 -0.393661 0
M  V30 2433 O 217.855 -5.81835 1.54114 0
M  V30 2434 H 221.681 -2.51521 1.70209 0
M  V30 2435 H 219.266 -1.19928 0.890928 0
M  V30 2436 H 221.148 -4.21346 -0.067715 0
M  V30 2437 H 219.823 -3.17049 -0.652828 0
M  V30 2438 H 218.73 -3.35391 1.65722 0
M  V30 2439 H 220.063 -4.42139 2.16273 0
M  V30 2440 N 221.715 -0.905404 -1.28997 0
M  V30 2441 C 222.645 -0.404212 -2.29975 0
M  V30 2442 C 223.626 0.523784 -1.61835 0
M  V30 2443 O 224.811 0.433298 -1.89304 0
M  V30 2444 C 221.941 0.364042 -3.45387 0
M  V30 2445 C 220.895 -0.474048 -4.25367 0
M  V30 2446 C 220.221 0.422045 -5.33032 0
M  V30 2447 C 221.521 -1.72696 -4.92923 0
M  V30 2448 H 223.215 -1.24807 -2.72146 0
M  V30 2449 H 220.761 -0.601585 -1.30832 0
M  V30 2450 H 222.714 0.725447 -4.15109 0
M  V30 2451 H 221.438 1.24174 -3.02074 0
M  V30 2452 H 220.097 -0.81786 -3.57361 0
M  V30 2453 H 219.745 1.29804 -4.85963 0
M  V30 2454 H 219.445 -0.135057 -5.87445 0
M  V30 2455 H 220.969 0.779517 -6.05604 0
M  V30 2456 H 222.383 -1.43495 -5.55051 0
M  V30 2457 H 220.78 -2.22582 -5.57295 0
M  V30 2458 H 221.85 -2.45964 -4.17887 0
M  V30 2459 N 223.193 1.4272 -0.668489 0
M  V30 2460 C 224.14 2.30796 0.0137489 0
M  V30 2461 C 225.11 1.4561 0.799177 0
M  V30 2462 O 226.295 1.74453 0.772702 0
M  V30 2463 C 223.435 3.31377 0.963507 0
M  V30 2464 C 222.548 4.31655 0.172569 0
M  V30 2465 C 221.683 5.19312 1.1175 0
M  V30 2466 C 220.722 6.11274 0.317886 0
M  V30 2467 N 219.859 6.91504 1.2152 0
M  V30 2468 H 224.699 2.88585 -0.743161 0
M  V30 2469 H 222.236 1.42154 -0.378226 0
M  V30 2470 H 224.194 3.88214 1.52792 0
M  V30 2471 H 222.824 2.75202 1.68712 0
M  V30 2472 H 221.876 3.76988 -0.508374 0
M  V30 2473 H 223.188 4.96779 -0.448527 0
M  V30 2474 H 222.342 5.80851 1.75206 0
M  V30 2475 H 221.081 4.5435 1.77249 0
M  V30 2476 H 220.086 5.48809 -0.329918 0
M  V30 2477 H 221.311 6.78283 -0.332917 0
M  V30 2478 H 219.257 6.29176 1.85671 0
M  V30 2479 H 219.174 7.53209 0.649036 0
M  V30 2480 H 220.442 7.57535 1.83742 0
M  V30 2481 N 224.671 0.411399 1.52136 0
M  V30 2482 C 225.634 -0.401089 2.25663 0
M  V30 2483 C 226.634 -0.971732 1.28117 0
M  V30 2484 O 227.824 -0.850254 1.52041 0
M  V30 2485 C 224.956 -1.56483 3.02863 0
M  V30 2486 H 226.149 0.24295 2.98914 0
M  V30 2487 H 223.702 0.163968 1.55438 0
M  V30 2488 H 224.437 -2.24567 2.33967 0
M  V30 2489 H 224.222 -1.16211 3.74483 0
M  V30 2490 H 225.712 -2.13951 3.58629 0
M  V30 2491 N 226.149 -1.5696 0.141893 0
M  V30 2492 C 227.082 -2.12271 -0.837627 0
M  V30 2493 C 228.06 -1.04495 -1.24578 0
M  V30 2494 O 229.244 -1.32293 -1.34278 0
M  V30 2495 C 226.371 -2.63822 -2.12404 0
M  V30 2496 C 225.417 -3.83698 -1.86221 0
M  V30 2497 S 226.25 -5.24948 -1.05781 0
M  V30 2498 C 227.406 -5.79884 -2.35552 0
M  V30 2499 H 227.639 -2.95023 -0.367249 0
M  V30 2500 H 225.172 -1.54231 -0.0723014 0
M  V30 2501 H 227.13 -2.94175 -2.86307 0
M  V30 2502 H 225.791 -1.8121 -2.56557 0
M  V30 2503 H 224.984 -4.17995 -2.81596 0
M  V30 2504 H 224.586 -3.5408 -1.20429 0
M  V30 2505 H 226.878 -5.91005 -3.31239 0
M  V30 2506 H 227.821 -6.77544 -2.05767 0
M  V30 2507 H 228.229 -5.08095 -2.45967 0
M  V30 2508 N 227.627 0.131896 -1.57047 0
M  V30 2509 C 228.876 0.84044 -1.83356 0
M  V30 2510 C 229.189 1.81646 -0.725535 0
M  V30 2511 O 230.395 2.57025 -0.874659 0
M  V30 2512 C 228.851 1.54528 -3.25037 0
M  V30 2513 C 228.459 0.610902 -4.43815 0
M  V30 2514 C 230.203 2.23972 -3.60606 0
M  V30 2515 C 228.11 1.31823 -5.76521 0
M  V30 2516 H 227.04 0.317599 -0.683847 0
M  V30 2517 H 229.691 0.0931561 -1.83263 0
M  V30 2518 H 228.073 2.33873 -3.19561 0
M  V30 2519 H 229.247 -0.148407 -4.60561 0
M  V30 2520 H 227.562 0.0241016 -4.16393 0
M  V30 2521 H 230.159 2.77558 -4.57018 0
M  V30 2522 H 230.502 3.01173 -2.87403 0
M  V30 2523 H 231.035 1.51529 -3.6781 0
M  V30 2524 H 227.774 0.587771 -6.52859 0
M  V30 2525 H 227.294 2.04987 -5.63685 0
M  V30 2526 H 228.973 1.855 -6.19838 0
M  V30 2527 N 229.106 1.52395 0.401703 0
M  V30 2528 C 230.069 1.75636 1.47257 0
M  V30 2529 C 231.069 0.62628 1.48103 0
M  V30 2530 O 232.259 0.894227 1.49497 0
M  V30 2531 C 229.391 1.84553 2.86624 0
M  V30 2532 H 230.584 2.71241 1.27938 0
M  V30 2533 H 228.137 1.42923 0.632662 0
M  V30 2534 H 228.872 0.908882 3.11303 0
M  V30 2535 H 228.657 2.66715 2.87412 0
M  V30 2536 H 230.147 2.04251 3.64241 0
M  V30 2537 N 230.584 -0.659388 1.43143 0
M  V30 2538 C 231.494 -1.80167 1.50256 0
M  V30 2539 C 232.51 -1.69571 0.390106 0
M  V30 2540 O 233.686 -1.90849 0.643319 0
M  V30 2541 C 230.751 -3.16409 1.41725 0
M  V30 2542 C 229.812 -3.38848 2.63591 0
M  V30 2543 C 229.045 -4.68591 2.55458 0
M  V30 2544 O 229.268 -5.47532 1.59891 0
M  V30 2545 O 228.202 -4.92614 3.45854 0
M  V30 2546 H 232.028 -1.77121 2.46702 0
M  V30 2547 H 229.613 -0.817092 1.25076 0
M  V30 2548 H 231.495 -3.9768 1.39387 0
M  V30 2549 H 230.17 -3.20059 0.484118 0
M  V30 2550 H 229.077 -2.57366 2.71502 0
M  V30 2551 H 230.41 -3.4004 3.55856 0
M  V30 2552 N 232.062 -1.29571 -0.897171 0
M  V30 2553 C 233.478 -1.07637 -1.17841 0
M  V30 2554 C 233.678 0.170713 -2.00776 0
M  V30 2555 O 232.734 0.867768 -2.3712 0
M  V30 2556 C 234.047 -2.3332 -1.8969 0
M  V30 2557 C 235.595 -2.38664 -2.02505 0
M  V30 2558 C 236.07 -3.64157 -2.77765 0
M  V30 2559 N 237.561 -3.64894 -2.85318 0
M  V30 2560 C 238.296 -4.58679 -3.44094 0
M  V30 2561 N 237.792 -5.62799 -4.04017 0
M  V30 2562 N 239.585 -4.46245 -3.41793 0
M  V30 2563 H 231.736 -2.09598 -0.343883 0
M  V30 2564 H 233.999 -0.923333 -0.214848 0
M  V30 2565 H 233.705 -3.24262 -1.36187 0
M  V30 2566 H 233.579 -2.41025 -2.9015 0
M  V30 2567 H 235.966 -1.48208 -2.55183 0
M  V30 2568 H 236.047 -2.34943 -1.01171 0
M  V30 2569 H 235.691 -4.54965 -2.25763 0
M  V30 2570 H 235.621 -3.65137 -3.7945 0
M  V30 2571 H 238.112 -2.89613 -2.42761 0
M  V30 2572 H 238.425 -6.3048 -4.46895 0
M  V30 2573 H 236.77 -5.66605 -4.02472 0
M  V30 2574 H 239.961 -3.64094 -2.94199 0
M  V30 2575 H 240.134 -5.19518 -3.87304 0
M  V30 2576 N 233.54 1.10788 -1.12088 0
M  V30 2577 C 234.817 1.79136 -0.785476 0
M  V30 2578 C 235.197 1.98246 0.725377 0
M  V30 2579 O 234.545 1.57258 1.65778 0
M  V30 2580 C 234.755 3.12375 -1.55636 0
M  V30 2581 C 236.103 3.8731 -1.74001 0
M  V30 2582 O 237.127 3.22085 -1.52117 0
M  V30 2583 O 235.986 5.04369 -2.10415 0
M  V30 2584 H 233.08 0.776226 -0.285311 0
M  V30 2585 H 235.626 1.1747 -1.2247 0
M  V30 2586 H 234.398 2.93863 -2.5838 0
M  V30 2587 H 234.021 3.81758 -1.11114 0
M  V30 2588 O 235.057 1.04415 1.23206 0
M  V30 2589 H 235.748 0.716727 1.79952 0
M  V30 END ATOM
M  V30 BEGIN BOND
M  V30 END BOND
M  V30 END CTAB
M  END
$$$$
