drugbank_target|O25926 ATP-dependent Clp protease ATP-binding subunit ClpX (DB09275)
 OpenBabel12092120273D

  0  0  0     0  0            999 V3000
M  V30 BEGIN CTAB
M  V30 COUNTS 7191 7241 0 0 0
M  V30 BEGIN ATOM
M  V30 1 H -0.908 1.98254 -0.117106 0
M  V30 2 N 0 1.576 0 0
M  V30 3 C 0.933 2.03868 1.02534 0
M  V30 4 C 1.911 0.928543 1.3348 0
M  V30 5 O 3.095 1.19667 1.45644 0
M  V30 6 C 0.222 2.43627 2.35294 0
M  V30 7 C -0.732 3.65373 2.2001 0
M  V30 8 S 0.101 5.13292 1.52614 0
M  V30 9 C 1.257 5.56322 2.86805 0
M  V30 10 H 1.49 2.90518 0.631377 0
M  V30 11 H -0.977 1.52953 0.210867 0
M  V30 12 H 0.981 2.67203 3.11629 0
M  V30 13 H -0.358 1.57376 2.7183 0
M  V30 14 H -1.165 3.90944 3.18086 0
M  V30 15 H -1.563 3.418 1.51819 0
M  V30 16 H 0.729 5.58782 3.83104 0
M  V30 17 H 1.672 6.56266 2.65933 0
M  V30 18 H 2.08 4.83886 2.90714 0
M  V30 19 N 1.4781 -0.272755 1.55222 0
M  V30 20 C 2.4261 -1.35705 1.88909 0
M  V30 21 C 3.4201 -1.5112 0.765456 0
M  V30 22 O 4.6261 -1.52901 0.949802 0
M  V30 23 H 1.0011 -0.453868 0.59959 0
M  V30 24 H 2.9721 -1.04544 2.79487 0
M  V30 25 C 1.7211 -2.71049 2.17779 0
M  V30 26 H 1.0441 -2.59979 3.03728 0
M  V30 27 H 2.4841 -3.45858 2.45272 0
M  V30 28 C 0.9431 -3.22165 0.985473 0
M  V30 29 O 1.4731 -4.01096 0.220233 0
M  V30 30 N -0.3209 -2.7985 0.783108 0
M  V30 31 H -0.7739 -2.15775 1.40708 0
M  V30 32 H -0.8159 -3.14397 -0.0130392 0
M  V30 33 N 2.9562 -1.48159 -0.537278 0
M  V30 34 C 3.8662 -1.64807 -1.6696 0
M  V30 35 C 4.8822 -0.530651 -1.65711 0
M  V30 36 O 6.0582 -0.800784 -1.84796 0
M  V30 37 C 3.1232 -1.67708 -3.03438 0
M  V30 38 C 2.1842 -2.91025 -3.156 0
M  V30 39 C 1.4172 -2.93778 -4.45567 0
M  V30 40 O 1.6402 -2.05153 -5.3223 0
M  V30 41 O 0.5742 -3.85868 -4.61941 0
M  V30 42 H 4.4002 -2.6066 -1.55853 0
M  V30 43 H 1.9852 -1.31475 -0.709549 0
M  V30 44 H 3.8672 -1.7218 -3.84619 0
M  V30 45 H 2.5422 -0.750278 -3.14885 0
M  V30 46 H 1.4492 -2.92089 -2.33741 0
M  V30 47 H 2.7822 -3.83065 -3.09066 0
M  V30 48 N 4.4343 0.785586 -1.36625 0
M  V30 49 C 5.6623 1.57448 -1.3423 0
M  V30 50 C 6.0773 1.88649 0.0755653 0
M  V30 51 O 5.4343 1.50414 1.03354 0
M  V30 52 C 5.4853 2.89316 -2.16745 0
M  V30 53 O 5.2063 2.59459 -3.53005 0
M  V30 54 C 6.7073 3.83606 -2.22174 0
M  V30 55 H 3.9273 0.488226 -0.4603 0
M  V30 56 H 6.4713 0.974733 -1.79775 0
M  V30 57 H 4.6263 3.4575 -1.74745 0
M  V30 58 H 5.0403 3.43804 -3.96105 0
M  V30 59 H 6.5143 4.73181 -2.8426 0
M  V30 60 H 6.9913 4.21734 -1.22627 0
M  V30 61 H 7.5973 3.33104 -2.64427 0
M  V30 62 N 5.9124 1.20967 1.01018 0
M  V30 63 C 6.8424 0.988272 2.11555 0
M  V30 64 C 7.8234 -0.0849778 1.69888 0
M  V30 65 O 9.0084 0.0738202 1.9406 0
M  V30 66 C 6.1384 0.546528 3.42973 0
M  V30 67 C 5.0924 1.56375 3.9841 0
M  V30 68 C 4.4184 0.97842 5.25672 0
M  V30 69 C 5.7184 2.94922 4.31066 0
M  V30 70 H 7.4124 1.91276 2.30334 0
M  V30 71 H 4.9584 0.921073 1.1069 0
M  V30 72 H 6.9114 0.378839 4.19694 0
M  V30 73 H 5.6354 -0.413598 3.23971 0
M  V30 74 H 4.2944 1.71891 3.23804 0
M  V30 75 H 3.9424 0.0101688 5.02999 0
M  V30 76 H 3.6424 1.65784 5.63728 0
M  V30 77 H 5.1664 0.821939 6.05043 0
M  V30 78 H 6.5804 2.8288 4.9865 0
M  V30 79 H 4.9774 3.5983 4.80253 0
M  V30 80 H 6.0474 3.4616 3.39561 0
M  V30 81 N 7.3905 -1.2043 1.01659 0
M  V30 82 C 8.6205 -1.93496 0.724081 0
M  V30 83 C 9.0285 -1.74998 -0.71918 0
M  V30 84 O 8.3715 -1.06118 -1.49949 0
M  V30 85 C 8.4335 -3.45886 0.97994 0
M  V30 86 C 8.0975 -3.88145 2.41232 0
M  V30 87 C 9.0945 -3.93907 3.39313 0
M  V30 88 C 6.7795 -4.20134 2.75305 0
M  V30 89 C 8.7735 -4.31069 4.6953 0
M  V30 90 C 6.4605 -4.56971 4.05735 0
M  V30 91 C 7.4585 -4.62411 5.02658 0
M  V30 92 O 7.1465 -4.98403 6.30754 0
M  V30 93 H 6.8785 -0.621824 0.265162 0
M  V30 94 H 9.4325 -1.53867 1.36066 0
M  V30 95 H 7.6625 -3.85639 0.286198 0
M  V30 96 H 9.3515 -4.0018 0.679021 0
M  V30 97 H 10.1175 -3.69357 3.14325 0
M  V30 98 H 5.9965 -4.1509 2.00551 0
M  V30 99 H 9.5405 -4.3523 5.45179 0
M  V30 100 H 5.4375 -4.80977 4.30502 0
M  V30 101 H 6.2055 -5.16395 6.35042 0
M  V30 102 N 8.8686 -0.792821 -1.36206 0
M  V30 103 C 10.1086 -0.372238 -2.00982 0
M  V30 104 C 10.4726 1.03749 -1.61555 0
M  V30 105 O 11.6736 1.55934 -2.18948 0
M  V30 106 C 9.9446 -0.534566 -3.5338 0
M  V30 107 S 11.5036 -0.202365 -4.38333 0
M  V30 108 H 8.3216 -0.142044 -0.696667 0
M  V30 109 H 10.9236 -1.03206 -1.66039 0
M  V30 110 H 9.6276 -1.5608 -3.79562 0
M  V30 111 H 9.1586 0.141065 -3.93147 0
M  V30 112 H 11.1736 0.994869 -4.86124 0
M  V30 113 N 10.3467 1.47872 -0.545128 0
M  V30 114 C 11.5717 2.07391 -0.0190611 0
M  V30 115 C 11.9967 1.39688 1.25971 0
M  V30 116 O 11.3547 0.467816 1.7516 0
M  V30 117 C 11.4027 3.60188 0.172335 0
M  V30 118 O 10.5067 3.9339 1.23766 0
M  V30 119 H 9.8477 0.662411 -0.0459059 0
M  V30 120 H 12.3777 1.90066 -0.757365 0
M  V30 121 H 12.3877 4.06129 0.390305 0
M  V30 122 H 11.0627 4.08865 -0.761725 0
M  V30 123 H 9.6397 3.5921 1.00114 0
M  V30 124 N 11.8248 0.280983 1.55075 0
M  V30 125 C 13.0718 -0.334115 1.99725 0
M  V30 126 C 13.3998 -1.5542 1.1694 0
M  V30 127 O 12.6548 -1.94361 0.228531 0
M  V30 128 C 12.9538 -0.754656 3.49342 0
M  V30 129 C 12.6198 0.361445 4.49449 0
M  V30 130 C 11.2818 0.667893 4.76542 0
M  V30 131 C 13.6338 1.11322 5.09173 0
M  V30 132 C 10.9618 1.7296 5.60626 0
M  V30 133 C 13.3138 2.1647 5.9441 0
M  V30 134 C 11.9778 2.47742 6.19822 0
M  V30 135 H 11.2478 -0.122261 0.730844 0
M  V30 136 H 13.8948 0.395917 1.87363 0
M  V30 137 H 12.1998 -1.56446 3.5921 0
M  V30 138 H 13.8968 -1.24142 3.813 0
M  V30 139 H 10.4868 0.112481 4.28452 0
M  V30 140 H 14.6708 0.88973 4.8826 0
M  V30 141 H 9.9268 1.97684 5.78559 0
M  V30 142 H 14.1008 2.75193 6.3972 0
M  V30 143 H 11.7278 3.30145 6.84769 0
M  V30 144 N 13.3029 -1.57598 0.00835791 0
M  V30 145 C 14.5429 -1.92788 -0.679136 0
M  V30 146 C 14.9069 -0.883378 -1.70471 0
M  V30 147 O 16.1079 -1.12079 -2.44319 0
M  V30 148 C 14.3789 -3.32994 -1.29807 0
M  V30 149 S 15.9379 -3.90082 -2.00952 0
M  V30 150 H 12.7559 -0.67475 -0.224127 0
M  V30 151 H 15.3579 -1.95385 0.0670497 0
M  V30 152 H 14.0619 -4.06846 -0.538922 0
M  V30 153 H 13.5929 -3.33791 -2.082 0
M  V30 154 H 15.6079 -3.71834 -3.28563 0
M  V30 155 N 14.781 0.264519 -1.55364 0
M  V30 156 C 15.728 1.32717 -1.88825 0
M  V30 157 C 16.698 1.48675 -0.740605 0
M  V30 158 O 17.883 1.62945 -0.992657 0
M  V30 159 C 15.023 2.68089 -2.17307 0
M  V30 160 C 14.136 2.60284 -3.44785 0
M  V30 161 C 13.271 3.87892 -3.62924 0
M  V30 162 C 12.31 3.74631 -4.84064 0
M  V30 163 N 11.447 4.94092 -4.98816 0
M  V30 164 H 16.287 1.03481 -2.79456 0
M  V30 165 H 13.824 0.499757 -1.3835 0
M  V30 166 H 15.782 3.46864 -2.31821 0
M  V30 167 H 14.412 2.95509 -1.299 0
M  V30 168 H 13.464 1.73173 -3.38697 0
M  V30 169 H 14.776 2.46388 -4.33698 0
M  V30 170 H 13.93 4.75109 -3.77302 0
M  V30 171 H 12.669 4.04664 -2.7221 0
M  V30 172 H 11.674 2.85797 -4.69681 0
M  V30 173 H 12.899 3.5937 -5.76221 0
M  V30 174 H 10.845 5.11259 -4.11036 0
M  V30 175 H 10.762 4.8276 -5.81789 0
M  V30 176 H 12.03 5.82857 -5.17588 0
M  V30 177 N 16.2591 1.48442 0.529413 0
M  V30 178 C 17.2061 1.63007 1.63394 0
M  V30 179 C 18.1761 0.47212 1.59249 0
M  V30 180 O 19.3611 0.695673 1.77666 0
M  V30 181 C 16.5011 1.6763 3.01653 0
M  V30 182 C 15.6141 2.94535 3.16027 0
M  V30 183 C 14.7491 2.90316 4.44849 0
M  V30 184 C 13.7881 4.11923 4.52754 0
M  V30 185 N 12.9251 4.05777 5.72965 0
M  V30 186 H 17.7651 2.5733 1.50285 0
M  V30 187 H 15.3021 1.27613 0.731656 0
M  V30 188 H 17.2601 1.68292 3.81751 0
M  V30 189 H 15.8901 0.76797 3.13532 0
M  V30 190 H 14.9421 3.03615 2.29177 0
M  V30 191 H 16.2541 3.84512 3.17729 0
M  V30 192 H 15.4081 2.89382 5.33238 0
M  V30 193 H 14.1471 1.98068 4.45668 0
M  V30 194 H 13.1521 4.13131 3.62771 0
M  V30 195 H 14.3771 5.0533 4.53672 0
M  V30 196 H 12.3231 3.16351 5.74681 0
M  V30 197 H 12.2401 4.8946 5.76164 0
M  V30 198 H 13.5081 4.08904 6.6364 0
M  V30 199 N 17.7372 -0.778329 1.37039 0
M  V30 200 C 19.1482 -1.35421 1.28523 0
M  V30 201 C 19.4992 -1.96075 -0.0700901 0
M  V30 202 O 18.6242 -1.93352 -0.971801 0
M  V30 203 C 19.2192 -2.46211 2.32735 0
M  V30 204 C 17.7782 -2.99585 2.27873 0
M  V30 205 C 16.9252 -1.72748 2.16918 0
M  V30 206 H 19.8762 -0.5791 1.47757 0
M  V30 207 H 19.8972 -3.2552 1.9702 0
M  V30 208 H 19.4092 -2.02036 3.31365 0
M  V30 209 H 17.5102 -3.48152 1.32745 0
M  V30 210 H 17.6232 -3.55646 3.21018 0
M  V30 211 H 15.9872 -1.95416 1.63354 0
M  V30 212 H 16.7702 -1.30686 3.17452 0
M  V30 213 N 19.2153 -1.21501 -1.00376 0
M  V30 214 C 20.1253 -0.991447 -2.12621 0
M  V30 215 C 21.1413 0.0568446 -1.73907 0
M  V30 216 O 22.3173 -0.13348 -2.00957 0
M  V30 217 C 19.3823 -0.560312 -3.42142 0
M  V30 218 C 18.4433 -1.68096 -3.95022 0
M  V30 219 C 17.6763 -1.2703 -5.18362 0
M  V30 220 O 17.8993 -0.144438 -5.70217 0
M  V30 221 O 16.8333 -2.08269 -5.64719 0
M  V30 222 H 20.6593 -1.93158 -2.34358 0
M  V30 223 H 18.2443 -0.999999 -1.10997 0
M  V30 224 H 20.1263 -0.329724 -4.20108 0
M  V30 225 H 18.8013 0.351089 -3.2179 0
M  V30 226 H 17.7083 -1.96597 -3.18278 0
M  V30 227 H 19.0413 -2.56983 -4.19786 0
M  V30 228 N 20.6934 1.19889 -1.02296 0
M  V30 229 C 21.9184 1.9393 -0.735237 0
M  V30 230 C 22.3434 1.74639 0.698782 0
M  V30 231 O 21.7014 1.04481 1.48167 0
M  V30 232 C 21.7494 3.43916 -1.08417 0
M  V30 233 O 20.8534 4.11917 -0.199446 0
M  V30 234 H 20.1944 0.605645 -0.272196 0
M  V30 235 H 22.7244 1.52137 -1.36804 0
M  V30 236 H 22.7344 3.9456 -1.03856 0
M  V30 237 H 21.4094 3.5728 -2.12894 0
M  V30 238 H 19.9864 3.71666 -0.303136 0
M  V30 239 N 22.1715 0.800033 1.35784 0
M  V30 240 C 23.5875 0.482977 1.52117 0
M  V30 241 C 23.7875 -0.996948 1.75109 0
M  V30 242 O 22.8435 -1.78216 1.78872 0
M  V30 243 C 24.1565 1.32264 2.70049 0
M  V30 244 C 25.7045 1.31742 2.83924 0
M  V30 245 C 26.1795 2.14106 4.04874 0
M  V30 246 N 27.6705 2.11607 4.12039 0
M  V30 247 C 28.4055 2.72099 5.04727 0
M  V30 248 N 27.9015 3.41492 6.02789 0
M  V30 249 N 29.6945 2.61776 4.97423 0
M  V30 250 H 21.8455 1.75856 1.19115 0
M  V30 251 H 24.1085 0.748122 0.582252 0
M  V30 252 H 23.8145 2.37261 2.59616 0
M  V30 253 H 23.6885 0.971303 3.6448 0
M  V30 254 H 26.0755 0.275333 2.93813 0
M  V30 255 H 26.1565 1.70859 1.9037 0
M  V30 256 H 25.8005 3.18351 3.95746 0
M  V30 257 H 25.7305 1.72353 4.97596 0
M  V30 258 H 28.2215 1.61112 3.41835 0
M  V30 259 H 28.5345 3.84953 6.70098 0
M  V30 260 H 26.8795 3.45596 6.02983 0
M  V30 261 H 30.0705 2.07157 4.19766 0
M  V30 262 H 30.2435 3.0921 5.69468 0
M  V30 263 N 23.6496 -1.47581 0.552962 0
M  V30 264 C 24.9266 -1.95563 -0.0381515 0
M  V30 265 C 25.3066 -1.49552 -1.48988 0
M  V30 266 O 24.6546 -0.732414 -2.16444 0
M  V30 267 C 24.8646 -3.48848 0.102919 0
M  V30 268 C 26.2126 -4.24577 -0.0446082 0
M  V30 269 O 27.2366 -3.56187 0.0302548 0
M  V30 270 O 26.0956 -5.46116 -0.204923 0
M  V30 271 H 23.1896 -0.824321 -0.0665067 0
M  V30 272 H 25.7356 -1.58001 0.619186 0
M  V30 273 H 24.5076 -3.75129 1.11328 0
M  V30 274 H 24.1306 -3.93165 -0.592224 0
M  V30 275 N 25.1277 -0.289203 -1.54924 0
M  V30 276 C 26.5387 0.205791 -1.85562 0
M  V30 277 C 26.8897 1.54351 -1.2112 0
M  V30 278 O 26.0147 2.10435 -0.504601 0
M  V30 279 C 26.6097 0.380177 -3.3666 0
M  V30 280 C 25.1687 0.819395 -3.67373 0
M  V30 281 C 24.3157 -0.079159 -2.77187 0
M  V30 282 H 27.2667 -0.510577 -1.50262 0
M  V30 283 H 27.2877 1.21659 -3.60526 0
M  V30 284 H 26.7997 -0.593589 -3.83534 0
M  V30 285 H 24.9007 1.80413 -3.26009 0
M  V30 286 H 25.0137 0.646957 -4.74712 0
M  V30 287 H 23.3777 0.439565 -2.50878 0
M  V30 288 H 24.1607 -1.04906 -3.26878 0
M  V30 289 N 26.6058 1.57591 -0.0167156 0
M  V30 290 C 27.5528 2.09462 0.969251 0
M  V30 291 C 28.5228 0.99381 1.33089 0
M  V30 292 O 29.7078 1.26726 1.42636 0
M  V30 293 C 26.8478 2.61622 2.25051 0
M  V30 294 C 25.9608 3.85666 1.94642 0
M  V30 295 C 25.0958 4.26266 3.16972 0
M  V30 296 C 24.1348 5.43101 2.82326 0
M  V30 297 N 23.2718 5.78915 3.97243 0
M  V30 298 H 28.1118 2.93428 0.519997 0
M  V30 299 H 25.6488 1.45044 0.245087 0
M  V30 300 H 27.6068 2.89949 2.99976 0
M  V30 301 H 26.2368 1.80505 2.67615 0
M  V30 302 H 25.2888 3.64145 1.10013 0
M  V30 303 H 26.6008 4.70678 1.65117 0
M  V30 304 H 25.7548 4.55963 4.00228 0
M  V30 305 H 24.4938 3.39996 3.49648 0
M  V30 306 H 23.4988 5.1311 1.97479 0
M  V30 307 H 24.7238 6.3106 2.50879 0
M  V30 308 H 22.6698 4.95602 4.29785 0
M  V30 309 H 22.5868 6.58539 3.71299 0
M  V30 310 H 23.8548 6.13212 4.81239 0
M  V30 311 N 28.0839 -0.256276 1.55502 0
M  V30 312 C 29.0309 -1.31714 1.89526 0
M  V30 313 C 30.0009 -1.4828 0.748479 0
M  V30 314 O 31.1859 -1.62416 1.00128 0
M  V30 315 C 28.3259 -2.66933 2.18725 0
M  V30 316 C 27.4389 -2.58452 3.4616 0
M  V30 317 C 26.5739 -3.85961 3.64976 0
M  V30 318 C 25.6129 -3.72059 4.86044 0
M  V30 319 N 24.7499 -4.9144 5.01429 0
M  V30 320 H 29.5899 -1.01998 2.80001 0
M  V30 321 H 27.1269 -0.492413 1.38613 0
M  V30 322 H 29.0849 -3.4563 2.33657 0
M  V30 323 H 27.7149 -2.94816 1.31466 0
M  V30 324 H 26.7669 -1.71374 3.3961 0
M  V30 325 H 28.0789 -2.44085 4.34999 0
M  V30 326 H 27.2329 -4.73101 3.79816 0
M  V30 327 H 25.9719 -4.03215 2.74353 0
M  V30 328 H 24.9769 -2.83302 4.7119 0
M  V30 329 H 26.2019 -3.56309 5.78118 0
M  V30 330 H 24.1479 -5.09072 4.13741 0
M  V30 331 H 24.0649 -4.79668 5.84341 0
M  V30 332 H 25.3329 -5.80104 5.20672 0
M  V30 333 N 29.562 -1.4872 -0.521534 0
M  V30 334 C 30.978 -1.35028 -0.850855 0
M  V30 335 C 31.178 -0.367712 -1.98116 0
M  V30 336 O 30.234 0.208037 -2.51642 0
M  V30 337 C 31.547 -2.75263 -1.21041 0
M  V30 338 C 33.095 -2.83813 -1.31981 0
M  V30 339 C 33.57 -4.24769 -1.71276 0
M  V30 340 N 35.061 -4.27482 -1.78363 0
M  V30 341 C 35.796 -5.33494 -2.1017 0
M  V30 342 N 35.292 -6.49775 -2.40343 0
M  V30 343 N 37.085 -5.20894 -2.11248 0
M  V30 344 H 29.236 -2.11214 0.22413 0
M  V30 345 H 31.499 -0.947252 0.0376439 0
M  V30 346 H 31.205 -3.48765 -0.453415 0
M  V30 347 H 31.079 -3.09327 -2.15863 0
M  V30 348 H 33.466 -2.10561 -2.06756 0
M  V30 349 H 33.547 -2.53358 -0.352596 0
M  V30 350 H 33.191 -4.9854 -0.970588 0
M  V30 351 H 33.121 -4.52673 -2.69062 0
M  V30 352 H 35.612 -3.43611 -1.57288 0
M  V30 353 H 35.925 -7.26402 -2.63743 0
M  V30 354 H 34.27 -6.53035 -2.37844 0
M  V30 355 H 37.461 -4.29065 -1.87139 0
M  V30 356 H 37.634 -6.03612 -2.35704 0
M  V30 357 N 31.0401 0.771051 -1.3745 0
M  V30 358 C 32.4561 1.07171 -1.18265 0
M  V30 359 C 32.6561 2.01491 -0.019287 0
M  V30 360 O 31.7121 2.44244 0.640408 0
M  V30 361 C 33.0251 1.66854 -2.50161 0
M  V30 362 C 34.5731 1.79109 -2.56689 0
M  V30 363 C 35.0481 2.42205 -3.88717 0
M  V30 364 N 36.5391 2.49655 -3.90162 0
M  V30 365 C 37.2741 2.9933 -4.8907 0
M  V30 366 N 36.7701 3.49172 -5.98374 0
M  V30 367 N 38.5631 2.9821 -4.76474 0
M  V30 368 H 30.7141 0.144796 -2.11906 0
M  V30 369 H 32.9771 0.126863 -0.939473 0
M  V30 370 H 32.6831 1.05017 -3.35655 0
M  V30 371 H 32.5571 2.6614 -2.673 0
M  V30 372 H 34.9441 2.40077 -1.71601 0
M  V30 373 H 35.0251 0.785757 -2.43433 0
M  V30 374 H 34.6691 1.81875 -4.74219 0
M  V30 375 H 34.5991 3.43345 -3.99276 0
M  V30 376 H 37.0901 2.14383 -3.11205 0
M  V30 377 H 37.4031 3.8548 -6.69795 0
M  V30 378 H 35.7481 3.47275 -6.02018 0
M  V30 379 H 38.9391 2.58572 -3.90203 0
M  V30 380 H 39.1121 3.36613 -5.53711 0
M  V30 381 N 32.5182 1.22032 0.997298 0
M  V30 382 C 33.7672 1.03637 1.73038 0
M  V30 383 C 34.0802 -0.429475 1.90827 0
M  V30 384 O 35.2862 -0.732995 2.61418 0
M  V30 385 C 33.7422 1.80582 3.11317 0
M  V30 386 C 33.3502 3.31387 3.01474 0
M  V30 387 C 35.0942 1.70621 3.88701 0
M  V30 388 C 33.0012 4.00791 4.3488 0
M  V30 389 H 31.9312 0.384179 0.648785 0
M  V30 390 H 34.5822 1.4584 1.11368 0
M  V30 391 H 32.9642 1.31175 3.73643 0
M  V30 392 H 34.1382 3.88155 2.4834 0
M  V30 393 H 32.4532 3.41976 2.37575 0
M  V30 394 H 35.0502 2.19799 4.87434 0
M  V30 395 H 35.3932 0.665823 4.10941 0
M  V30 396 H 35.9262 2.17547 3.33044 0
M  V30 397 H 32.6652 5.05064 4.1784 0
M  V30 398 H 32.1852 3.48811 4.87945 0
M  V30 399 H 33.8642 4.06139 5.03647 0
M  V30 400 N 33.9963 -1.19345 1.0293 0
M  V30 401 C 35.2453 -1.88363 0.721256 0
M  V30 402 C 35.5583 -1.80514 -0.753254 0
M  V30 403 O 36.7643 -2.44788 -1.17436 0
M  V30 404 C 35.2203 -3.37872 1.23978 0
M  V30 405 C 34.8283 -3.54278 2.74211 0
M  V30 406 C 36.5723 -4.12365 1.00775 0
M  V30 407 C 34.4793 -4.97682 3.19479 0
M  V30 408 H 33.4093 -0.705484 0.266098 0
M  V30 409 H 36.0603 -1.34928 1.24365 0
M  V30 410 H 34.4423 -3.90707 0.6453 0
M  V30 411 H 35.6163 -3.11769 3.39318 0
M  V30 412 H 33.9313 -2.93174 2.95699 0
M  V30 413 H 36.5283 -5.18119 1.32123 0
M  V30 414 H 36.8713 -4.16263 -0.0554308 0
M  V30 415 H 37.4043 -3.65668 1.56625 0
M  V30 416 H 34.1433 -4.98945 4.25128 0
M  V30 417 H 33.6633 -5.4095 2.591 0
M  V30 418 H 35.3423 -5.66337 3.12845 0
M  V30 419 N 35.4744 -0.807222 -1.35358 0
M  V30 420 C 36.7214 -0.387888 -1.9875 0
M  V30 421 C 37.0494 1.04509 -1.64037 0
M  V30 422 O 36.3044 1.73986 -0.895946 0
M  V30 423 C 36.6034 -0.519036 -3.53611 0
M  V30 424 C 36.2694 -1.91542 -4.08194 0
M  V30 425 C 34.9314 -2.29745 -4.22813 0
M  V30 426 C 37.2834 -2.82896 -4.37744 0
M  V30 427 C 34.6114 -3.58668 -4.643 0
M  V30 428 C 36.9634 -4.11265 -4.8067 0
M  V30 429 C 35.6274 -4.49466 -4.93494 0
M  V30 430 H 34.8974 -0.141938 -0.727279 0
M  V30 431 H 37.5444 -1.02814 -1.6156 0
M  V30 432 H 35.8494 0.204658 -3.91265 0
M  V30 433 H 37.5464 -0.175345 -4.00616 0
M  V30 434 H 34.1364 -1.60862 -3.97268 0
M  V30 435 H 38.3204 -2.54629 -4.26002 0
M  V30 436 H 33.5764 -3.88113 -4.72418 0
M  V30 437 H 37.7504 -4.82153 -5.02496 0
M  V30 438 H 35.3774 -5.49418 -5.25399 0
M  V30 439 N 36.9525 1.47285 -0.560781 0
M  V30 440 C 37.9155 2.28535 0.174488 0
M  V30 441 C 38.9155 1.37153 0.839388 0
M  V30 442 O 40.1055 1.59748 0.694702 0
M  V30 443 C 37.2375 3.16934 1.25561 0
M  V30 444 H 38.4305 2.95012 -0.539262 0
M  V30 445 H 35.9835 1.53034 -0.317865 0
M  V30 446 H 36.7185 2.55157 2.00164 0
M  V30 447 H 36.5035 3.8419 0.783604 0
M  V30 448 H 37.9935 3.78143 1.77193 0
M  V30 449 N 38.4306 0.297415 1.54768 0
M  V30 450 C 39.6556 -0.318435 2.04941 0
M  V30 451 C 40.0806 -1.4701 1.17345 0
M  V30 452 O 39.4386 -1.80436 0.176758 0
M  V30 453 C 39.4866 -0.755749 3.52592 0
M  V30 454 O 38.5906 -1.86088 3.68028 0
M  V30 455 H 37.9316 -0.062421 0.661059 0
M  V30 456 H 40.4616 0.438215 1.99852 0
M  V30 457 H 40.4716 -1.04552 3.94376 0
M  V30 458 H 39.1466 0.0867233 4.1581 0
M  V30 459 H 37.7236 -1.57193 3.38149 0
M  V30 460 N 39.9087 -1.5758 0.0250728 0
M  V30 461 C 40.8567 -2.11125 -0.97617 0
M  V30 462 C 41.8507 -1.03689 -1.33959 0
M  V30 463 O 43.0567 -1.22128 -1.3223 0
M  V30 464 H 39.4317 -0.674468 -0.332561 0
M  V30 465 H 41.4027 -2.94194 -0.499223 0
M  V30 466 C 40.1517 -2.65017 -2.2508 0
M  V30 467 H 39.4747 -3.47333 -1.9799 0
M  V30 468 H 40.9147 -3.06133 -2.93357 0
M  V30 469 C 39.3737 -1.57574 -2.97779 0
M  V30 470 O 39.9037 -0.973203 -3.89733 0
M  V30 471 N 38.1097 -1.29716 -2.60043 0
M  V30 472 H 37.6567 -1.789 -1.85345 0
M  V30 473 H 37.6147 -0.58051 -3.08994 0
M  V30 474 N 41.3868 0.248026 -1.55636 0
M  V30 475 C 42.3168 1.31079 -1.93237 0
M  V30 476 C 43.2978 1.50264 -0.797174 0
M  V30 477 O 44.4828 1.62891 -1.05737 0
M  V30 478 C 41.6128 2.66575 -2.22609 0
M  V30 479 C 40.5668 2.62087 -3.3837 0
M  V30 480 C 39.8928 4.01369 -3.53281 0
M  V30 481 C 41.1928 2.19171 -4.7409 0
M  V30 482 H 42.8868 0.998556 -2.82257 0
M  V30 483 H 40.4328 0.47891 -1.35803 0
M  V30 484 H 42.3858 3.41057 -2.47503 0
M  V30 485 H 41.1098 2.99432 -1.30414 0
M  V30 486 H 39.7688 1.90063 -3.13483 0
M  V30 487 H 39.4168 4.31489 -2.58508 0
M  V30 488 H 39.1168 3.99254 -4.31127 0
M  V30 489 H 40.6408 4.77552 -3.80495 0
M  V30 490 H 42.0548 2.83384 -4.98363 0
M  V30 491 H 40.4518 2.2817 -5.5503 0
M  V30 492 H 41.5218 1.14336 -4.71227 0
M  V30 493 N 42.8649 1.48995 0.513639 0
M  V30 494 C 43.8129 1.65199 1.63744 0
M  V30 495 C 44.8069 0.51809 1.61283 0
M  V30 496 O 46.0129 0.697335 1.65943 0
M  V30 497 H 42.3879 0.52069 0.542574 0
M  V30 498 H 44.3589 2.59552 1.47226 0
M  V30 499 C 43.1079 1.72409 3.01945 0
M  V30 500 H 42.4309 2.59029 3.04539 0
M  V30 501 H 43.8709 1.87785 3.80148 0
M  V30 502 C 42.3299 0.46618 3.33659 0
M  V30 503 O 42.8599 -0.413744 3.99564 0
M  V30 504 N 41.0659 0.332931 2.88687 0
M  V30 505 H 40.6129 1.04996 2.35231 0
M  V30 506 H 40.5709 -0.507665 3.10274 0
M  V30 507 N 44.343 -0.763751 1.37857 0
M  V30 508 C 45.29 -1.87726 1.34267 0
M  V30 509 C 46.26 -1.64807 0.206879 0
M  V30 510 O 47.445 -1.86613 0.397508 0
M  V30 511 C 44.585 -3.24896 1.16346 0
M  V30 512 C 43.698 -3.59716 2.39225 0
M  V30 513 C 42.833 -4.86137 2.14114 0
M  V30 514 C 41.872 -5.13711 3.32817 0
M  V30 515 N 41.009 -6.31323 3.07206 0
M  V30 516 H 45.849 -1.90129 2.29466 0
M  V30 517 H 43.386 -0.929433 1.14017 0
M  V30 518 H 45.344 -4.04036 1.03975 0
M  V30 519 H 43.974 -3.21847 0.247909 0
M  V30 520 H 43.026 -2.75498 2.62307 0
M  V30 521 H 44.338 -3.76027 3.27728 0
M  V30 522 H 43.492 -5.73198 1.9882 0
M  V30 523 H 42.231 -4.71945 1.22961 0
M  V30 524 H 41.236 -4.25123 3.48641 0
M  V30 525 H 42.461 -5.29807 4.24832 0
M  V30 526 H 40.407 -6.18474 2.1869 0
M  V30 527 H 40.324 -6.48087 3.89254 0
M  V30 528 H 41.592 -7.213 2.95546 0
M  V30 529 N 45.8211 -1.22559 -0.990812 0
M  V30 530 C 47.0981 -0.959875 -1.70428 0
M  V30 531 C 47.4781 0.524455 -2.04481 0
M  V30 532 O 46.8261 1.49302 -1.72977 0
M  V30 533 C 47.0361 -1.85955 -2.95333 0
M  V30 534 C 48.3841 -2.11687 -3.68068 0
M  V30 535 O 49.4081 -1.8342 -3.05345 0
M  V30 536 O 48.2671 -2.59572 -4.80921 0
M  V30 537 H 45.3611 -0.361154 -0.743974 0
M  V30 538 H 47.9071 -1.33554 -1.04697 0
M  V30 539 H 46.6791 -2.86346 -2.66687 0
M  V30 540 H 46.3021 -1.4856 -3.68803 0
M  V30 541 N 47.2992 1.18797 -1.03562 0
M  V30 542 C 48.5452 1.8893 -0.737113 0
M  V30 543 C 48.8782 1.79837 0.732956 0
M  V30 544 O 48.1532 1.19525 1.5344 0
M  V30 545 C 48.4362 3.39607 -1.19745 0
M  V30 546 C 48.2892 3.57537 -2.72924 0
M  V30 547 C 49.6082 4.33069 -0.783526 0
M  V30 548 H 46.7272 0.686057 -0.269249 0
M  V30 549 H 49.3692 1.39797 -1.28673 0
M  V30 550 H 47.5192 3.81583 -0.729855 0
M  V30 551 H 49.1912 3.24688 -3.27682 0
M  V30 552 H 47.4342 3.00363 -3.12993 0
M  V30 553 H 48.1052 4.63238 -3.00191 0
M  V30 554 H 50.5812 3.98846 -1.18581 0
M  V30 555 H 49.4572 5.3707 -1.13343 0
M  V30 556 H 49.7182 4.40986 0.313681 0
M  V30 557 N 48.7773 0.814389 1.34928 0
M  V30 558 C 50.0173 0.404165 2.00364 0
M  V30 559 C 50.3813 -1.01166 1.63185 0
M  V30 560 O 51.5823 -1.52431 2.21401 0
M  V30 561 C 49.8533 0.590718 3.52484 0
M  V30 562 S 51.4123 0.272075 4.37956 0
M  V30 563 H 48.2303 0.15311 0.694319 0
M  V30 564 H 50.8323 1.05834 1.64376 0
M  V30 565 H 49.5363 1.62099 3.77031 0
M  V30 566 H 49.0673 -0.0785013 3.93322 0
M  V30 567 H 51.0823 -0.917405 4.87645 0
M  V30 568 N 50.2554 -1.46986 0.568584 0
M  V30 569 C 51.5014 -2.02741 0.0488709 0
M  V30 570 C 51.8344 -1.44077 -1.30214 0
M  V30 571 O 51.1094 -0.600552 -1.84996 0
M  V30 572 C 51.3924 -3.60086 -0.032047 0
M  V30 573 C 51.2454 -4.29162 1.34686 0
M  V30 574 C 52.5644 -4.33838 -0.739798 0
M  V30 575 H 49.6834 -0.736749 0.0192338 0
M  V30 576 H 52.3254 -1.75289 0.733065 0
M  V30 577 H 50.4754 -3.83606 -0.61473 0
M  V30 578 H 52.1474 -4.16948 1.97362 0
M  V30 579 H 50.3904 -3.89073 1.91846 0
M  V30 580 H 51.0614 -5.37826 1.24285 0
M  V30 581 H 53.5374 -4.15378 -0.244939 0
M  V30 582 H 52.4134 -5.43537 -0.765406 0
M  V30 583 H 52.6744 -4.03875 -1.79827 0
M  V30 584 N 51.7335 -0.305618 -1.54608 0
M  V30 585 C 52.9735 0.303114 -2.0214 0
M  V30 586 C 53.3375 1.50737 -1.18921 0
M  V30 587 O 54.5385 2.18778 -1.56172 0
M  V30 588 C 52.8095 0.646332 -3.51507 0
M  V30 589 S 54.3685 1.23727 -4.20995 0
M  V30 590 H 51.1865 0.0927643 -0.704923 0
M  V30 591 H 53.7885 -0.434566 -1.90609 0
M  V30 592 H 52.4925 -0.238541 -4.09706 0
M  V30 593 H 52.0235 1.41468 -3.67084 0
M  V30 594 H 54.0385 2.52489 -4.27158 0
M  V30 595 N 53.2116 1.57565 -0.0334293 0
M  V30 596 C 54.1216 2.13943 0.962572 0
M  V30 597 C 55.1376 1.09276 1.35406 0
M  V30 598 O 56.3136 1.41355 1.4346 0
M  V30 599 C 53.3786 2.65887 2.22497 0
M  V30 600 C 52.4396 3.85286 1.8935 0
M  V30 601 C 51.6726 4.34743 3.09571 0
M  V30 602 O 51.8956 3.83352 4.22371 0
M  V30 603 O 50.8296 5.26538 2.91618 0
M  V30 604 H 54.6556 2.99333 0.513169 0
M  V30 605 H 52.2406 1.4822 0.18743 0
M  V30 606 H 54.1226 2.99346 2.96598 0
M  V30 607 H 52.7976 1.83578 2.6661 0
M  V30 608 H 51.7046 3.56746 1.1262 0
M  V30 609 H 53.0376 4.68771 1.5005 0
M  V30 610 N 54.6897 -0.239769 1.55765 0
M  V30 611 C 55.9197 -0.982743 1.8173 0
M  V30 612 C 56.3277 -1.7917 0.607835 0
M  V30 613 O 55.6707 -1.78525 -0.432973 0
M  V30 614 C 55.7327 -1.96332 3.01155 0
M  V30 615 C 55.3967 -1.34062 4.36894 0
M  V30 616 C 56.3937 -0.739539 5.14613 0
M  V30 617 C 54.0787 -1.35784 4.83599 0
M  V30 618 C 56.0727 -0.163989 6.37189 0
M  V30 619 C 53.7597 -0.778441 6.06122 0
M  V30 620 C 54.7577 -0.182548 6.82756 0
M  V30 621 O 54.4457 0.387887 8.02964 0
M  V30 622 H 54.1777 -0.294481 0.608487 0
M  V30 623 H 56.7317 -0.26572 2.03674 0
M  V30 624 H 54.9617 -2.71884 2.74984 0
M  V30 625 H 56.6507 -2.57032 3.14149 0
M  V30 626 H 57.4167 -0.718687 4.79646 0
M  V30 627 H 53.2957 -1.81105 4.23936 0
M  V30 628 H 56.8397 0.301753 6.96947 0
M  V30 629 H 52.7367 -0.796645 6.40565 0
M  V30 630 H 53.5047 0.28044 8.18019 0
M  V30 631 N 56.1678 -1.49265 -0.50573 0
M  V30 632 C 57.4078 -1.60128 -1.27038 0
M  V30 633 C 57.7718 -0.279557 -1.89954 0
M  V30 634 O 58.9728 -0.263329 -2.67507 0
M  V30 635 C 57.2438 -2.72507 -2.31246 0
M  V30 636 S 58.8028 -3.0329 -3.17113 0
M  V30 637 H 55.6208 -0.564863 -0.4318 0
M  V30 638 H 58.2228 -1.86902 -0.573397 0
M  V30 639 H 56.9268 -3.67068 -1.83546 0
M  V30 640 H 56.4578 -2.4771 -3.05619 0
M  V30 641 H 58.4728 -2.44448 -4.31809 0
M  V30 642 N 57.6459 0.756429 -1.3826 0
M  V30 643 C 58.8949 1.51082 -1.3363 0
M  V30 644 C 59.2079 1.95467 0.0720068 0
M  V30 645 O 60.4139 2.7043 0.240834 0
M  V30 646 C 58.8699 2.72893 -2.34644 0
M  V30 647 C 58.4779 2.35544 -3.81081 0
M  V30 648 C 60.2219 3.50791 -2.39052 0
M  V30 649 C 58.1289 3.53948 -4.73787 0
M  V30 650 H 57.0589 0.56727 -0.49671 0
M  V30 651 H 59.7099 0.827147 -1.638 0
M  V30 652 H 58.0919 3.43227 -1.97513 0
M  V30 653 H 59.2659 1.72894 -4.27135 0
M  V30 654 H 57.5809 1.70786 -3.79764 0
M  V30 655 H 60.1779 4.38823 -3.05513 0
M  V30 656 H 60.5209 3.91745 -1.40861 0
M  V30 657 H 61.0539 2.87467 -2.74968 0
M  V30 658 H 57.7929 3.18064 -5.73163 0
M  V30 659 H 57.3129 4.15651 -4.32428 0
M  V30 660 H 58.9919 4.20566 -4.91663 0
M  V30 661 N 59.124 1.23083 0.984299 0
M  V30 662 C 60.401 0.9689 1.69917 0
M  V30 663 C 60.781 -0.513604 2.04757 0
M  V30 664 O 60.129 -1.48383 1.73767 0
M  V30 665 C 60.339 1.87518 2.94343 0
M  V30 666 C 61.687 2.13636 3.6694 0
M  V30 667 O 62.711 1.85036 3.04368 0
M  V30 668 O 61.57 2.62119 4.79537 0
M  V30 669 H 58.664 0.365095 0.742048 0
M  V30 670 H 61.21 1.34107 1.03987 0
M  V30 671 H 59.982 2.87756 2.65164 0
M  V30 672 H 59.605 1.50514 3.6801 0
M  V30 673 N 60.6021 -1.18246 1.0419 0
M  V30 674 C 61.8481 -1.88536 0.747122 0
M  V30 675 C 62.1811 -1.80223 -0.723409 0
M  V30 676 O 61.4561 -1.20337 -1.52804 0
M  V30 677 C 61.7391 -3.38968 1.21544 0
M  V30 678 C 61.5921 -3.56084 2.74816 0
M  V30 679 C 62.9111 -4.32648 0.806482 0
M  V30 680 H 60.0301 -0.684619 0.272883 0
M  V30 681 H 62.6721 -1.39113 1.29413 0
M  V30 682 H 60.8221 -3.8119 0.750081 0
M  V30 683 H 62.4941 -3.22946 3.29399 0
M  V30 684 H 60.7371 -2.98699 3.14582 0
M  V30 685 H 61.4081 -4.61639 3.02644 0
M  V30 686 H 63.8841 -3.98211 1.20695 0
M  V30 687 H 62.7601 -5.36462 1.1619 0
M  V30 688 H 63.0211 -4.41146 -0.29029 0
M  V30 689 N 62.0802 -0.821533 -1.34494 0
M  V30 690 C 63.0132 -0.187704 -2.27427 0
M  V30 691 C 63.9912 0.65507 -1.48821 0
M  V30 692 O 65.1752 0.619111 -1.78043 0
M  V30 693 C 62.3022 0.737996 -3.30562 0
M  V30 694 C 61.3482 -0.0270713 -4.26491 0
M  V30 695 S 62.1812 -1.37329 -5.17592 0
M  V30 696 C 63.3372 -0.452427 -6.24263 0
M  V30 697 H 63.5702 -0.975598 -2.80837 0
M  V30 698 H 61.1032 -0.61736 -1.4152 0
M  V30 699 H 63.0612 1.26654 -3.90473 0
M  V30 700 H 61.7222 1.4994 -2.76001 0
M  V30 701 H 60.9152 0.6766 -4.99438 0
M  V30 702 H 60.5172 -0.48612 -3.70827 0
M  V30 703 H 62.8092 0.356557 -6.76561 0
M  V30 704 H 63.7522 -1.15153 -6.98674 0
M  V30 705 H 64.1602 -0.0414755 -5.64485 0
M  V30 706 N 63.5583 1.46682 -0.576371 0
M  V30 707 C 64.5083 2.27278 0.181288 0
M  V30 708 C 65.4923 1.35497 0.867721 0
M  V30 709 O 66.6843 1.59717 0.762863 0
M  V30 710 C 63.8133 3.21703 1.19841 0
M  V30 711 C 62.8993 4.20969 0.51442 0
M  V30 712 N 63.2903 5.03999 -0.426407 0
M  V30 713 C 61.5883 4.39373 0.765963 0
M  V30 714 C 62.2893 5.75812 -0.825565 0
M  V30 715 N 61.2653 5.43315 -0.176116 0
M  V30 716 H 65.0673 2.88863 -0.541785 0
M  V30 717 H 62.5813 1.57455 -0.397697 0
M  V30 718 H 64.5783 3.78145 1.75533 0
M  V30 719 H 63.2383 2.61677 1.92238 0
M  V30 720 H 64.2493 5.11659 -0.8016 0
M  V30 721 H 60.9263 3.90502 1.47698 0
M  V30 722 H 62.3163 6.52577 -1.59976 0
M  V30 723 N 65.0364 0.313813 1.54444 0
M  V30 724 C 66.2844 -0.291099 1.99993 0
M  V30 725 C 66.6054 -1.53418 1.20366 0
M  V30 726 O 65.8754 -1.93544 0.302927 0
M  V30 727 H 64.4554 -0.110552 0.738774 0
M  V30 728 H 67.1174 0.428106 1.9014 0
M  V30 729 H 66.2134 -0.554268 3.07139 0
M  V30 730 N 66.5145 -1.57545 0.0417849 0
M  V30 731 C 67.4245 -2.14451 -0.951213 0
M  V30 732 C 68.4405 -1.09992 -1.34825 0
M  V30 733 O 69.6165 -1.42114 -1.42708 0
M  V30 734 C 66.6815 -2.67063 -2.21084 0
M  V30 735 C 65.7425 -3.86284 -1.87304 0
M  V30 736 C 64.9755 -4.36378 -3.07261 0
M  V30 737 O 65.1985 -3.85587 -4.20332 0
M  V30 738 O 64.1325 -5.28077 -2.88822 0
M  V30 739 H 67.9585 -2.99601 -0.497287 0
M  V30 740 H 65.5435 -1.48317 -0.179567 0
M  V30 741 H 67.4255 -3.00914 -2.95006 0
M  V30 742 H 66.1005 -1.84989 -2.65633 0
M  V30 743 H 65.0075 -3.57338 -1.10727 0
M  V30 744 H 66.3405 -4.6956 -1.47562 0
M  V30 745 N 67.9926 0.231505 -1.5589 0
M  V30 746 C 68.9226 1.29022 -1.94617 0
M  V30 747 C 69.9036 1.4941 -0.813067 0
M  V30 748 O 71.0886 1.6176 -1.07459 0
M  V30 749 C 68.2186 2.64199 -2.25424 0
M  V30 750 C 67.1726 2.58484 -3.41131 0
M  V30 751 C 66.4986 3.97599 -3.57518 0
M  V30 752 C 67.7986 2.1413 -4.76388 0
M  V30 753 H 69.4926 0.968563 -2.83301 0
M  V30 754 H 67.0386 0.464479 -1.36303 0
M  V30 755 H 68.9916 3.38413 -2.51107 0
M  V30 756 H 67.7156 2.98032 -1.33583 0
M  V30 757 H 66.3746 1.86727 -3.15481 0
M  V30 758 H 66.0226 4.28723 -2.6307 0
M  V30 759 H 65.7226 3.94659 -4.35337 0
M  V30 760 H 67.2466 4.7349 -3.85538 0
M  V30 761 H 68.6606 2.78083 -5.01341 0
M  V30 762 H 67.0576 2.2227 -5.57419 0
M  V30 763 H 68.1276 1.09331 -4.72414 0
M  V30 764 N 69.4707 1.49531 0.497807 0
M  V30 765 C 70.4207 1.62829 1.59596 0
M  V30 766 C 71.4047 0.483824 1.53453 0
M  V30 767 O 72.5967 0.736937 1.60929 0
M  V30 768 C 69.7257 1.7011 2.98191 0
M  V30 769 C 68.8117 2.90144 3.09317 0
M  V30 770 N 69.2027 4.1418 2.90324 0
M  V30 771 C 67.5007 2.88148 3.40422 0
M  V30 772 C 68.2017 4.94886 3.05717 0
M  V30 773 N 67.1777 4.28314 3.34736 0
M  V30 774 H 70.9797 2.56446 1.4357 0
M  V30 775 H 68.4937 1.46347 0.704001 0
M  V30 776 H 70.4907 1.77735 3.77115 0
M  V30 777 H 69.1507 0.776315 3.15283 0
M  V30 778 H 70.1617 4.44109 2.66436 0
M  V30 779 H 66.8387 2.05061 3.63671 0
M  V30 780 H 68.2287 6.03432 2.95499 0
M  V30 781 N 70.9488 -0.749086 1.3866 0
M  V30 782 C 71.8958 -1.86291 1.36251 0
M  V30 783 C 72.8658 -1.64578 0.224347 0
M  V30 784 O 74.0508 -1.86181 0.417279 0
M  V30 785 C 71.1908 -3.23644 1.19786 0
M  V30 786 C 70.3038 -3.57158 2.43027 0
M  V30 787 C 69.4388 -4.83838 2.19258 0
M  V30 788 C 68.4778 -5.10152 3.38247 0
M  V30 789 N 67.6148 -6.28029 3.13884 0
M  V30 790 H 72.4548 -1.87685 2.3147 0
M  V30 791 H 69.9918 -0.917287 1.14997 0
M  V30 792 H 71.9498 -4.0291 1.08254 0
M  V30 793 H 70.5798 -3.21566 0.282031 0
M  V30 794 H 69.6318 -2.72701 2.65214 0
M  V30 795 H 70.9438 -3.7253 3.31697 0
M  V30 796 H 70.0978 -5.71057 2.04888 0
M  V30 797 H 68.8368 -4.70614 1.2796 0
M  V30 798 H 67.8418 -4.21401 3.53131 0
M  V30 799 H 69.0668 -5.25271 4.30427 0
M  V30 800 H 67.0128 -6.1612 2.25238 0
M  V30 801 H 66.9298 -6.43922 3.96106 0
M  V30 802 H 68.1978 -7.18124 3.03179 0
M  V30 803 N 72.4269 -1.23603 -0.977757 0
M  V30 804 C 73.6569 -1.09487 -1.75203 0
M  V30 805 C 74.0649 0.356321 -1.85814 0
M  V30 806 O 73.4079 1.25816 -1.33851 0
M  V30 807 C 73.4699 -1.64905 -3.19447 0
M  V30 808 C 73.1339 -3.13688 -3.32338 0
M  V30 809 C 74.1309 -4.10953 -3.18455 0
M  V30 810 C 71.8159 -3.53449 -3.56902 0
M  V30 811 C 73.8099 -5.45962 -3.28944 0
M  V30 812 C 71.4969 -4.88602 -3.6703 0
M  V30 813 C 72.4949 -5.84668 -3.53062 0
M  V30 814 O 72.1829 -7.17365 -3.62826 0
M  V30 815 H 71.9149 -0.38367 -0.556573 0
M  V30 816 H 74.4689 -1.6398 -1.23693 0
M  V30 817 H 72.6989 -1.04835 -3.72218 0
M  V30 818 H 74.3879 -1.46226 -3.78646 0
M  V30 819 H 75.1539 -3.81577 -2.99372 0
M  V30 820 H 71.0329 -2.79188 -3.66844 0
M  V30 821 H 74.5769 -6.20925 -3.17958 0
M  V30 822 H 70.4739 -5.17653 -3.85623 0
M  V30 823 H 71.2419 -7.2515 -3.79605 0
M  V30 824 N 73.905 1.17692 -1.04816 0
M  V30 825 C 75.182 1.83768 -0.669963 0
M  V30 826 C 75.562 1.93232 0.849986 0
M  V30 827 O 74.91 1.46397 1.75443 0
M  V30 828 C 75.12 3.21641 -1.35455 0
M  V30 829 C 76.468 3.97592 -1.49017 0
M  V30 830 O 77.492 3.31107 -1.31326 0
M  V30 831 O 76.351 5.16729 -1.77914 0
M  V30 832 H 73.445 0.792799 -0.235368 0
M  V30 833 H 75.991 1.25021 -1.14751 0
M  V30 834 H 74.763 3.097 -2.39168 0
M  V30 835 H 74.386 3.88052 -0.866107 0
M  V30 836 N 75.3831 0.828654 1.34056 0
M  V30 837 C 76.3311 0.242973 2.31327 0
M  V30 838 C 77.3251 -0.61944 1.57668 0
M  V30 839 O 78.5311 -0.51014 1.7262 0
M  V30 840 H 74.9061 0.059834 0.749616 0
M  V30 841 H 76.8771 1.07809 2.78244 0
M  V30 842 C 75.6261 -0.575733 3.429 0
M  V30 843 H 74.9491 0.0785582 3.99723 0
M  V30 844 H 76.3891 -0.951547 4.13185 0
M  V30 845 C 74.8481 -1.75044 2.87856 0
M  V30 846 O 75.3781 -2.84882 2.83205 0
M  V30 847 N 73.5841 -1.56903 2.44602 0
M  V30 848 H 73.1311 -0.675547 2.48584 0
M  V30 849 H 73.0891 -2.35652 2.08124 0
M  V30 850 N 76.8612 -1.46375 0.584142 0
M  V30 851 C 78.0862 -2.07268 0.0740405 0
M  V30 852 C 78.5112 -1.42979 -1.22223 0
M  V30 853 O 77.8692 -0.514092 -1.73859 0
M  V30 854 C 77.9172 -3.60518 -0.0767769 0
M  V30 855 O 77.0212 -3.96533 -1.13292 0
M  V30 856 H 76.3622 -0.660961 0.0634524 0
M  V30 857 H 78.8922 -1.87991 0.807492 0
M  V30 858 H 78.9022 -4.07021 -0.282489 0
M  V30 859 H 77.5772 -4.06702 0.86986 0
M  V30 860 H 76.1542 -3.61738 -0.905553 0
M  V30 861 N 78.3393 -0.321999 -1.54275 0
M  V30 862 C 79.2693 0.537411 -2.27231 0
M  V30 863 C 80.2503 1.12064 -1.27968 0
M  V30 864 O 81.4353 1.14606 -1.56777 0
M  V30 865 C 78.5653 1.69919 -3.02894 0
M  V30 866 C 77.5193 1.24534 -4.09482 0
M  V30 867 C 76.8453 2.49394 -4.72977 0
M  V30 868 C 78.1453 0.361335 -5.21049 0
M  V30 869 H 79.8393 -0.0711406 -2.99315 0
M  V30 870 H 77.3853 -0.0356555 -1.43956 0
M  V30 871 H 79.3383 2.30668 -3.52662 0
M  V30 872 H 78.0623 2.33431 -2.28424 0
M  V30 873 H 76.7213 0.660782 -3.60596 0
M  V30 874 H 76.3693 3.11265 -3.95124 0
M  V30 875 H 76.0693 2.19718 -5.44975 0
M  V30 876 H 77.5933 3.10908 -5.25517 0
M  V30 877 H 79.0073 0.875072 -5.66582 0
M  V30 878 H 77.4043 0.157428 -5.99893 0
M  V30 879 H 78.4743 -0.60822 -4.8107 0
M  V30 880 N 79.8174 1.5752 -0.0501392 0
M  V30 881 C 80.7474 2.14502 0.922566 0
M  V30 882 C 81.7284 1.06642 1.3252 0
M  V30 883 O 82.9134 1.34577 1.4001 0
M  V30 884 C 80.0434 2.68916 2.19776 0
M  V30 885 C 78.9974 3.8175 1.93523 0
M  V30 886 C 78.3234 4.22677 3.27487 0
M  V30 887 C 79.6234 5.06932 1.25765 0
M  V30 888 H 81.3174 2.9603 0.447952 0
M  V30 889 H 78.8634 1.42401 0.214024 0
M  V30 890 H 80.8164 3.07419 2.88222 0
M  V30 891 H 79.5404 1.84578 2.69441 0
M  V30 892 H 78.1994 3.43718 1.27489 0
M  V30 893 H 77.8474 3.35291 3.74952 0
M  V30 894 H 77.5474 4.98725 3.1072 0
M  V30 895 H 79.0714 4.63779 3.97166 0
M  V30 896 H 80.4854 5.42888 1.84244 0
M  V30 897 H 78.8824 5.88116 1.19328 0
M  V30 898 H 79.9524 4.84337 0.233536 0
M  V30 899 N 81.2955 -0.223234 1.56011 0
M  V30 900 C 82.2585 -1.26014 1.9145 0
M  V30 901 C 83.2585 -1.3989 0.792937 0
M  V30 902 O 84.4485 -1.38184 1.0607 0
M  V30 903 C 81.5805 -2.63422 2.16383 0
M  V30 904 H 82.7735 -0.95796 2.84189 0
M  V30 905 H 80.3265 -0.463576 1.49267 0
M  V30 906 H 81.0615 -2.98741 1.2619 0
M  V30 907 H 80.8465 -2.54728 2.98088 0
M  V30 908 H 82.3365 -3.38249 2.44903 0
M  V30 909 N 82.7736 -1.49793 -0.48987 0
M  V30 910 C 83.7036 -1.70201 -1.59856 0
M  V30 911 C 84.6846 -0.55076 -1.60937 0
M  V30 912 O 85.8696 -0.787841 -1.77501 0
M  V30 913 C 82.9996 -1.77882 -2.98287 0
M  V30 914 C 81.9536 -2.92907 -3.12073 0
M  V30 915 C 81.2796 -2.85712 -4.51965 0
M  V30 916 C 82.5796 -4.3369 -2.91051 0
M  V30 917 H 84.2736 -2.63025 -1.43032 0
M  V30 918 H 81.8196 -1.26574 -0.686664 0
M  V30 919 H 83.7726 -1.90744 -3.75759 0
M  V30 920 H 82.4966 -0.816653 -3.16225 0
M  V30 921 H 81.1556 -2.79665 -2.37029 0
M  V30 922 H 80.8036 -1.8738 -4.66795 0
M  V30 923 H 80.5036 -3.62921 -4.62128 0
M  V30 924 H 82.0276 -3.00598 -5.31482 0
M  V30 925 H 83.4416 -4.47555 -3.58284 0
M  V30 926 H 81.8386 -5.12205 -3.12675 0
M  V30 927 H 82.9086 -4.47362 -1.87071 0
M  V30 928 N 84.2517 0.741722 -1.39055 0
M  V30 929 C 85.1987 1.85566 -1.37237 0
M  V30 930 C 86.1687 1.64457 -0.233072 0
M  V30 931 O 87.3537 1.85957 -0.427147 0
M  V30 932 C 84.4937 3.23004 -1.215 0
M  V30 933 C 83.6067 3.55864 -2.44918 0
M  V30 934 C 82.7417 4.82669 -2.21821 0
M  V30 935 C 81.7807 5.08351 -3.40948 0
M  V30 936 N 80.9177 6.26356 -3.17211 0
M  V30 937 H 85.7577 1.86455 -2.32462 0
M  V30 938 H 83.2947 0.911176 -1.15482 0
M  V30 939 H 85.2527 4.02331 -1.10389 0
M  V30 940 H 83.8827 3.21411 -0.29908 0
M  V30 941 H 82.9347 2.7129 -2.66657 0
M  V30 942 H 84.2467 3.70765 -3.33668 0
M  V30 943 H 83.4007 5.69962 -2.07914 0
M  V30 944 H 82.1397 4.69929 -1.30454 0
M  V30 945 H 81.1447 4.19522 -3.55361 0
M  V30 946 H 82.3697 5.22981 -4.33207 0
M  V30 947 H 80.3157 6.14917 -2.28502 0
M  V30 948 H 80.2327 6.41813 -3.99515 0
M  V30 949 H 81.5007 7.16506 -3.06984 0
M  V30 950 N 85.7298 1.2412 0.971189 0
M  V30 951 C 87.1458 1.00584 1.23916 0
M  V30 952 C 87.3458 -0.287481 1.99439 0
M  V30 953 O 86.4018 -1.00454 2.31658 0
M  V30 954 C 87.7148 2.21864 2.0297 0
M  V30 955 C 89.2628 2.26452 2.16076 0
M  V30 956 C 89.7378 3.47343 2.98524 0
M  V30 957 N 91.2288 3.47639 3.06107 0
M  V30 958 C 91.9638 4.37837 3.70251 0
M  V30 959 N 91.4598 5.38286 4.36142 0
M  V30 960 N 93.2528 4.25558 3.67228 0
M  V30 961 H 85.4038 2.07236 0.465499 0
M  V30 962 H 87.6668 0.909236 0.268315 0
M  V30 963 H 87.3728 3.15771 1.54861 0
M  V30 964 H 87.2468 2.23698 3.03709 0
M  V30 965 H 89.6338 1.33078 2.6339 0
M  V30 966 H 89.7148 2.28645 1.14696 0
M  V30 967 H 89.3588 4.41029 2.51905 0
M  V30 968 H 89.2888 3.42393 4.00093 0
M  V30 969 H 91.7798 2.74966 2.59233 0
M  V30 970 H 92.0928 6.03352 4.82894 0
M  V30 971 H 90.4378 5.42176 4.34822 0
M  V30 972 H 93.6288 3.46322 3.14927 0
M  V30 973 H 93.8018 4.96054 4.16935 0
M  V30 974 N 87.2079 -1.17134 1.05439 0
M  V30 975 C 88.4849 -1.83411 0.679699 0
M  V30 976 C 88.8649 -1.9368 -0.839726 0
M  V30 977 O 88.2129 -1.47325 -1.74664 0
M  V30 978 C 88.4229 -3.20918 1.37159 0
M  V30 979 C 89.7709 -3.96796 1.51123 0
M  V30 980 O 90.7949 -3.30406 1.3308 0
M  V30 981 O 89.6539 -5.15778 1.80651 0
M  V30 982 H 86.7479 -0.79154 0.239569 0
M  V30 983 H 89.2939 -1.24411 1.15413 0
M  V30 984 H 88.0659 -3.08428 2.40807 0
M  V30 985 H 87.6889 -3.87587 0.886674 0
M  V30 986 N 88.686 -0.835752 -1.33615 0
M  V30 987 C 90.102 -0.523139 -1.50783 0
M  V30 988 C 90.302 0.950171 -1.77691 0
M  V30 989 O 89.358 1.73411 -1.83534 0
M  V30 990 C 90.671 -1.39378 -2.66448 0
M  V30 991 C 92.219 -1.39223 -2.80332 0
M  V30 992 C 92.694 -2.24765 -3.99055 0
M  V30 993 N 94.185 -2.22458 -4.06284 0
M  V30 994 C 94.92 -2.85386 -4.97336 0
M  V30 995 N 94.416 -3.57354 -5.93523 0
M  V30 996 N 96.209 -2.74872 -4.90308 0
M  V30 997 H 88.36 -1.78952 -1.14411 0
M  V30 998 H 90.623 -0.763297 -0.562212 0
M  V30 999 H 90.329 -2.44061 -2.53234 0
M  V30 1000 H 90.203 -1.0676 -3.61776 0
M  V30 1001 H 92.59 -0.353136 -2.92979 0
M  V30 1002 H 92.671 -1.75846 -1.85773 0
M  V30 1003 H 92.315 -3.28732 -3.87167 0
M  V30 1004 H 92.245 -1.85485 -4.92852 0
M  V30 1005 H 94.736 -1.70119 -3.37443 0
M  V30 1006 H 95.049 -4.02584 -6.59656 0
M  V30 1007 H 93.394 -3.61461 -5.93608 0
M  V30 1008 H 96.585 -2.18213 -4.14126 0
M  V30 1009 H 96.758 -3.24199 -5.61069 0
M  V30 1010 N 90.1641 1.46063 -0.591896 0
M  V30 1011 C 91.0941 2.33172 0.123673 0
M  V30 1012 C 92.0751 1.45897 0.87453 0
M  V30 1013 O 93.2601 1.74698 0.848181 0
M  V30 1014 C 90.3901 3.28336 1.13194 0
M  V30 1015 C 89.3441 4.25124 0.495324 0
M  V30 1016 C 88.6701 5.09863 1.61071 0
M  V30 1017 C 89.9701 5.19143 -0.573425 0
M  V30 1018 H 91.6641 2.93252 -0.603646 0
M  V30 1019 H 89.2101 1.41014 -0.291741 0
M  V30 1020 H 91.1631 3.88137 1.64097 0
M  V30 1021 H 89.8871 2.66383 1.88965 0
M  V30 1022 H 88.5461 3.66599 0.00729452 0
M  V30 1023 H 88.1941 4.44288 2.35832 0
M  V30 1024 H 87.8941 5.75417 1.19035 0
M  V30 1025 H 89.4181 5.72529 2.12233 0
M  V30 1026 H 90.8321 5.73106 -0.1491 0
M  V30 1027 H 89.2291 5.93089 -0.914636 0
M  V30 1028 H 90.2991 4.62519 -1.45617 0
M  V30 1029 N 91.6422 0.330177 1.54103 0
M  V30 1030 C 93.0582 -0.0222371 1.59585 0
M  V30 1031 C 93.2582 -1.49902 1.34654 0
M  V30 1032 O 92.3142 -2.25592 1.13421 0
M  V30 1033 C 93.6272 0.401932 2.98002 0
M  V30 1034 C 95.1752 0.353145 3.11001 0
M  V30 1035 C 95.6502 0.752576 4.51775 0
M  V30 1036 N 97.1412 0.706239 4.57784 0
M  V30 1037 C 97.8762 0.987417 5.64834 0
M  V30 1038 N 97.3722 1.33607 6.79795 0
M  V30 1039 N 99.1652 0.91254 5.54643 0
M  V30 1040 H 91.3162 1.29228 1.68564 0
M  V30 1041 H 93.5792 0.525906 0.78875 0
M  V30 1042 H 93.2852 1.4311 3.21267 0
M  V30 1043 H 93.1592 -0.229699 3.765 0
M  V30 1044 H 95.5462 -0.666822 2.87467 0
M  V30 1045 H 95.6272 1.0198 2.34593 0
M  V30 1046 H 95.2712 1.77049 4.76042 0
M  V30 1047 H 95.2012 0.0635409 5.26562 0
M  V30 1048 H 97.6922 0.44889 3.75224 0
M  V30 1049 H 98.0052 1.53582 7.57385 0
M  V30 1050 H 96.3502 1.37439 6.81275 0
M  V30 1051 H 99.5412 0.639601 4.6371 0
M  V30 1052 H 99.7142 1.13503 6.37982 0
M  V30 1053 N 93.1203 -1.57491 0.0584922 0
M  V30 1054 C 94.5363 -1.56792 -0.298091 0
M  V30 1055 C 94.7363 -1.06679 -1.70944 0
M  V30 1056 O 93.7923 -0.726672 -2.41818 0
M  V30 1057 C 95.1053 -3.00461 -0.119879 0
M  V30 1058 C 96.6533 -3.1242 -0.190428 0
M  V30 1059 C 97.1283 -4.57982 -0.0406567 0
M  V30 1060 N 98.6193 -4.63099 -0.0966958 0
M  V30 1061 C 99.3543 -5.734 -0.00502943 0
M  V30 1062 N 98.8503 -6.9266 0.139402 0
M  V30 1063 N 100.643 -5.62067 -0.0611391 0
M  V30 1064 H 92.7943 -1.88386 0.98105 0
M  V30 1065 H 95.0573 -0.867865 0.381463 0
M  V30 1066 H 94.7633 -3.41187 0.85349 0
M  V30 1067 H 94.6373 -3.66843 -0.877833 0
M  V30 1068 H 97.0243 -2.71589 -1.15427 0
M  V30 1069 H 97.1053 -2.48702 0.598405 0
M  V30 1070 H 96.7493 -4.995 0.919897 0
M  V30 1071 H 96.6793 -5.19715 -0.848727 0
M  V30 1072 H 99.1703 -3.77331 -0.207277 0
M  V30 1073 H 99.4833 -7.72536 0.201855 0
M  V30 1074 H 97.8283 -6.94781 0.174586 0
M  V30 1075 H 101.019 -4.67782 -0.172583 0
M  V30 1076 H 101.192 -6.47999 0.0137562 0
M  V30 1077 N 94.5984 0.214957 -1.56127 0
M  V30 1078 C 95.5314 1.29382 -1.87977 0
M  V30 1079 C 96.5094 1.44897 -0.737807 0
M  V30 1080 O 97.6934 1.60605 -0.986833 0
M  V30 1081 C 94.8204 2.66325 -2.09258 0
M  V30 1082 C 93.8664 2.67789 -3.31951 0
M  V30 1083 S 94.6994 2.21198 -4.8768 0
M  V30 1084 C 95.8554 3.60003 -5.12004 0
M  V30 1085 H 96.0884 1.02173 -2.79192 0
M  V30 1086 H 93.6214 0.417516 -1.48648 0
M  V30 1087 H 95.5794 3.45162 -2.22201 0
M  V30 1088 H 94.2404 2.90755 -1.18829 0
M  V30 1089 H 93.4334 3.68436 -3.43906 0
M  V30 1090 H 93.0354 1.9702 -3.17898 0
M  V30 1091 H 95.3274 4.55739 -5.01307 0
M  V30 1092 H 96.2704 3.52959 -6.13861 0
M  V30 1093 H 96.6784 3.53996 -4.39712 0
M  V30 1094 N 96.0765 1.50051 0.48192 0
M  V30 1095 C 96.9865 1.7089 1.60728 0
M  V30 1096 C 98.0025 0.591788 1.63627 0
M  V30 1097 O 99.1785 0.868817 1.81696 0
M  V30 1098 C 96.2435 1.78855 2.97005 0
M  V30 1099 C 95.3045 3.02537 3.04581 0
M  V30 1100 C 94.5375 3.10112 4.34357 0
M  V30 1101 O 94.7605 2.24765 5.24249 0
M  V30 1102 O 93.6945 4.02747 4.47301 0
M  V30 1103 H 97.5205 2.66264 1.46072 0
M  V30 1104 H 95.1055 1.34018 0.660264 0
M  V30 1105 H 96.9875 1.86336 3.77964 0
M  V30 1106 H 95.6625 0.866628 3.11883 0
M  V30 1107 H 94.5695 3.00563 2.22739 0
M  V30 1108 H 95.9025 3.94272 2.94636 0
M  V30 1109 N 97.5546 -0.734337 1.39446 0
M  V30 1110 C 98.7796 -1.52866 1.40167 0
M  V30 1111 C 99.2046 -1.881 -0.00171513 0
M  V30 1112 O 98.5626 -1.51957 -0.988879 0
M  V30 1113 C 98.6106 -2.79235 2.28167 0
M  V30 1114 O 97.7146 -3.75185 1.71201 0
M  V30 1115 H 97.0556 -0.461618 0.477289 0
M  V30 1116 H 99.5856 -0.905949 1.8345 0
M  V30 1117 H 99.5956 -3.27963 2.42702 0
M  V30 1118 H 98.2706 -2.52923 3.30156 0
M  V30 1119 H 96.8476 -3.33958 1.65912 0
M  V30 1120 N 99.0327 -1.24633 -0.964593 0
M  V30 1121 C 100.258 -1.11596 -1.74818 0
M  V30 1122 C 100.683 0.32723 -1.85232 0
M  V30 1123 O 100.041 1.23695 -1.32549 0
M  V30 1124 C 100.089 -1.76397 -3.1451 0
M  V30 1125 O 99.1927 -1.03685 -3.99153 0
M  V30 1126 H 98.5337 -0.390196 -0.537255 0
M  V30 1127 H 101.064 -1.65002 -1.20977 0
M  V30 1128 H 101.074 -1.8228 -3.65018 0
M  V30 1129 H 99.7487 -2.81401 -3.06246 0
M  V30 1130 H 98.3257 -1.05611 -3.57632 0
M  V30 1131 N 100.511 1.16574 -1.06058 0
M  V30 1132 C 101.474 2.19085 -0.673392 0
M  V30 1133 C 102.474 1.5835 0.279648 0
M  V30 1134 O 103.664 1.74088 0.0623488 0
M  V30 1135 C 100.796 3.40899 0.00954234 0
M  V30 1136 H 101.989 2.54853 -1.58081 0
M  V30 1137 H 99.5418 1.30808 -0.855516 0
M  V30 1138 H 100.277 3.10684 0.929826 0
M  V30 1139 H 100.062 3.86233 -0.67573 0
M  V30 1140 H 101.552 4.1675 0.266245 0
M  V30 1141 N 101.989 0.842826 1.3317 0
M  V30 1142 C 103.219 0.453397 2.01564 0
M  V30 1143 C 103.627 -0.951147 1.63554 0
M  V30 1144 O 102.97 -1.63021 0.846746 0
M  V30 1145 C 103.032 0.499013 3.5602 0
M  V30 1146 C 102.696 1.86037 4.1742 0
M  V30 1147 C 103.693 2.82416 4.36506 0
M  V30 1148 C 101.378 2.15428 4.53757 0
M  V30 1149 C 103.372 4.06346 4.91082 0
M  V30 1150 C 101.059 3.39615 5.0804 0
M  V30 1151 C 102.057 4.3489 5.26649 0
M  V30 1152 O 101.745 5.5688 5.79776 0
M  V30 1153 H 101.477 0.177871 0.652179 0
M  V30 1154 H 104.031 1.13808 1.70988 0
M  V30 1155 H 102.261 -0.242467 3.85939 0
M  V30 1156 H 103.95 0.126852 4.05702 0
M  V30 1157 H 104.716 2.6101 4.08777 0
M  V30 1158 H 100.595 1.42061 4.38565 0
M  V30 1159 H 104.139 4.80722 5.05522 0
M  V30 1160 H 100.036 3.60876 5.352 0
M  V30 1161 H 100.804 5.58674 5.98185 0
M  V30 1162 N 103.467 -1.45747 0.599634 0
M  V30 1163 C 104.377 -2.34262 -0.125888 0
M  V30 1164 C 105.393 -1.50768 -0.868625 0
M  V30 1165 O 106.569 -1.83592 -0.828003 0
M  V30 1166 C 103.634 -3.28252 -1.11587 0
M  V30 1167 C 102.695 -4.27651 -0.375956 0
M  V30 1168 C 101.928 -5.1715 -1.31877 0
M  V30 1169 O 102.151 -5.09916 -2.55621 0
M  V30 1170 O 101.085 -5.96286 -0.820157 0
M  V30 1171 H 104.911 -2.97688 0.601315 0
M  V30 1172 H 102.496 -1.44999 0.359934 0
M  V30 1173 H 104.378 -3.86191 -1.68626 0
M  V30 1174 H 103.053 -2.67401 -1.82424 0
M  V30 1175 H 101.96 -3.7335 0.236698 0
M  V30 1176 H 103.293 -4.91334 0.29177 0
M  V30 1177 N 104.945 -0.338344 -1.53925 0
M  V30 1178 C 105.855 0.529421 -2.28548 0
M  V30 1179 C 106.871 1.11645 -1.3346 0
M  V30 1180 O 108.047 1.13325 -1.66492 0
M  V30 1181 C 105.112 1.66713 -3.03987 0
M  V30 1182 C 104.173 1.11041 -4.14691 0
M  V30 1183 C 103.406 2.19389 -4.86522 0
M  V30 1184 O 103.629 3.40013 -4.57982 0
M  V30 1185 O 102.563 1.83976 -5.73094 0
M  V30 1186 H 106.389 -0.0770399 -3.03602 0
M  V30 1187 H 103.974 -0.103555 -1.49041 0
M  V30 1188 H 105.856 2.32918 -3.5118 0
M  V30 1189 H 104.531 2.25949 -2.31794 0
M  V30 1190 H 103.438 0.413024 -3.71813 0
M  V30 1191 H 104.771 0.562975 -4.8897 0
M  V30 1192 N 106.423 1.57458 -0.0668435 0
M  V30 1193 C 107.333 2.15937 0.916975 0
M  V30 1194 C 108.349 1.12123 1.33058 0
M  V30 1195 O 109.525 1.44366 1.40429 0
M  V30 1196 C 106.59 2.70547 2.16807 0
M  V30 1197 C 105.651 3.89215 1.81135 0
M  V30 1198 C 104.884 4.41211 3.0028 0
M  V30 1199 O 105.107 3.92225 4.14144 0
M  V30 1200 O 104.041 5.32605 2.80384 0
M  V30 1201 H 107.867 3.00354 0.449561 0
M  V30 1202 H 105.452 1.48584 0.155949 0
M  V30 1203 H 107.334 3.0557 2.90181 0
M  V30 1204 H 106.009 1.89192 2.62656 0
M  V30 1205 H 104.916 3.59054 1.05028 0
M  V30 1206 H 106.249 4.71848 1.40073 0
M  V30 1207 N 107.901 -0.206675 1.56239 0
M  V30 1208 C 109.148 -0.928842 1.79941 0
M  V30 1209 C 109.476 -1.83734 0.638131 0
M  V30 1210 O 108.731 -1.92039 -0.376746 0
M  V30 1211 C 109.03 -1.78675 3.09532 0
M  V30 1212 C 108.696 -1.03022 4.38973 0
M  V30 1213 C 107.358 -0.821302 4.74139 0
M  V30 1214 C 109.71 -0.497081 5.18824 0
M  V30 1215 C 107.038 -0.0675719 5.86661 0
M  V30 1216 C 109.39 0.24338 6.32132 0
M  V30 1217 C 108.054 0.463422 6.65889 0
M  V30 1218 H 107.324 -0.339887 0.658451 0
M  V30 1219 H 109.971 -0.195977 1.90495 0
M  V30 1220 H 108.276 -2.58794 2.94165 0
M  V30 1221 H 109.973 -2.34792 3.25075 0
M  V30 1222 H 106.563 -1.20306 4.11369 0
M  V30 1223 H 110.747 -0.645921 4.92079 0
M  V30 1224 H 106.003 0.112995 6.11296 0
M  V30 1225 H 110.177 0.66393 6.93228 0
M  V30 1226 H 107.804 1.04938 7.52922 0
M  V30 1227 N 109.379 -1.50304 -0.473955 0
M  V30 1228 C 110.309 -1.71886 -1.58042 0
M  V30 1229 C 111.29 -0.567799 -1.60344 0
M  V30 1230 O 112.475 -0.806623 -1.76656 0
M  V30 1231 C 109.605 -1.81036 -2.96384 0
M  V30 1232 C 108.559 -2.962 -3.08949 0
M  V30 1233 C 107.885 -2.9049 -4.48909 0
M  V30 1234 C 109.185 -4.36752 -2.86434 0
M  V30 1235 H 110.879 -2.64527 -1.40234 0
M  V30 1236 H 108.425 -1.27295 -0.673201 0
M  V30 1237 H 110.378 -1.94719 -3.73714 0
M  V30 1238 H 109.102 -0.850147 -3.15341 0
M  V30 1239 H 107.761 -2.82164 -2.3405 0
M  V30 1240 H 107.409 -1.92321 -4.64781 0
M  V30 1241 H 107.109 -3.67802 -4.58253 0
M  V30 1242 H 108.633 -3.06218 -5.28264 0
M  V30 1243 H 110.047 -4.5133 -3.53517 0
M  V30 1244 H 108.444 -5.15493 -3.07225 0
M  V30 1245 H 109.514 -4.49321 -1.82316 0
M  V30 1246 N 110.857 0.726932 -1.39834 0
M  V30 1247 C 111.787 1.85405 -1.41941 0
M  V30 1248 C 112.768 1.67751 -0.281728 0
M  V30 1249 O 113.953 1.8795 -0.488717 0
M  V30 1250 C 111.083 3.23243 -1.2701 0
M  V30 1251 C 110.037 3.55549 -2.38262 0
M  V30 1252 C 109.363 4.9241 -2.08415 0
M  V30 1253 C 110.663 3.577 -3.80589 0
M  V30 1254 H 112.357 1.83899 -2.36266 0
M  V30 1255 H 109.903 0.883349 -1.13723 0
M  V30 1256 H 111.856 4.01775 -1.27103 0
M  V30 1257 H 110.58 3.25296 -0.291564 0
M  V30 1258 H 109.239 2.79351 -2.37399 0
M  V30 1259 H 108.887 4.91052 -1.0898 0
M  V30 1260 H 108.587 5.14992 -2.82943 0
M  V30 1261 H 110.111 5.73289 -2.10171 0
M  V30 1262 H 111.525 4.26293 -3.83337 0
M  V30 1263 H 109.922 3.91804 -4.54543 0
M  V30 1264 H 110.992 2.57328 -4.10987 0
M  V30 1265 N 112.336 1.25143 0.95797 0
M  V30 1266 C 113.561 1.12521 1.74223 0
M  V30 1267 C 113.986 -0.317402 1.85403 0
M  V30 1268 O 113.344 -1.2299 1.33204 0
M  V30 1269 C 113.392 1.78062 3.1357 0
M  V30 1270 O 112.496 1.058 3.98598 0
M  V30 1271 H 111.837 0.39304 0.535178 0
M  V30 1272 H 114.367 1.65641 1.201 0
M  V30 1273 H 114.377 1.84213 3.64046 0
M  V30 1274 H 113.052 2.83021 3.04749 0
M  V30 1275 H 111.629 1.07506 3.57067 0
M  V30 1276 N 113.814 -1.1601 1.06675 0
M  V30 1277 C 115.044 -1.90251 0.805497 0
M  V30 1278 C 115.452 -1.77891 -0.64431 0
M  V30 1279 O 114.795 -1.12383 -1.45313 0
M  V30 1280 C 114.857 -3.41419 1.12576 0
M  V30 1281 C 114.521 -3.77564 2.57477 0
M  V30 1282 C 115.518 -3.79161 3.55715 0
M  V30 1283 C 113.203 -4.08079 2.92877 0
M  V30 1284 C 115.197 -4.10767 4.8739 0
M  V30 1285 C 112.884 -4.39351 4.24751 0
M  V30 1286 C 113.882 -4.40675 5.21818 0
M  V30 1287 O 113.57 -4.71202 6.51325 0
M  V30 1288 H 113.302 -0.610018 0.291297 0
M  V30 1289 H 115.856 -1.47958 1.4247 0
M  V30 1290 H 114.086 -3.84079 0.449503 0
M  V30 1291 H 115.775 -3.9694 0.84814 0
M  V30 1292 H 116.541 -3.55693 3.29708 0
M  V30 1293 H 112.42 -4.06211 2.17976 0
M  V30 1294 H 115.964 -4.11715 5.63148 0
M  V30 1295 H 111.861 -4.62285 4.50514 0
M  V30 1296 H 112.629 -4.88996 6.56373 0
M  V30 1297 N 115.292 -0.849877 -1.32721 0
M  V30 1298 C 116.541 -0.447175 -1.96681 0
M  V30 1299 C 116.854 1.00135 -1.68025 0
M  V30 1300 O 118.06 1.50926 -2.25685 0
M  V30 1301 C 116.516 -0.7487 -3.52026 0
M  V30 1302 C 116.124 -2.21264 -3.89546 0
M  V30 1303 C 117.868 -0.413487 -4.22481 0
M  V30 1304 C 115.775 -2.45763 -5.37917 0
M  V30 1305 H 114.705 -0.163486 -0.736063 0
M  V30 1306 H 117.356 -1.03999 -1.51183 0
M  V30 1307 H 115.738 -0.0853727 -3.95908 0
M  V30 1308 H 116.912 -2.91736 -3.56689 0
M  V30 1309 H 115.227 -2.5119 -3.32103 0
M  V30 1310 H 117.824 -0.574017 -5.3161 0
M  V30 1311 H 118.167 0.644492 -4.11281 0
M  V30 1312 H 118.7 -1.03251 -3.84167 0
M  V30 1313 H 115.439 -3.50168 -5.54132 0
M  V30 1314 H 114.959 -1.79864 -5.72197 0
M  V30 1315 H 116.638 -2.29471 -6.0494 0
M  V30 1316 N 116.77 1.45427 -0.607355 0
M  V30 1317 C 118.181 1.85756 -0.187535 0
M  V30 1318 C 118.532 1.5077 1.25551 0
M  V30 1319 O 117.657 0.93427 1.95193 0
M  V30 1320 C 118.252 3.37154 -0.333572 0
M  V30 1321 C 116.811 3.76387 0.0315542 0
M  V30 1322 C 115.958 2.69377 -0.658117 0
M  V30 1323 H 118.909 1.36231 -0.81405 0
M  V30 1324 H 118.93 3.78014 0.43428 0
M  V30 1325 H 118.442 3.62586 -1.38393 0
M  V30 1326 H 116.543 3.56571 1.0811 0
M  V30 1327 H 116.656 4.77731 -0.361935 0
M  V30 1328 H 115.02 2.5452 -0.0957873 0
M  V30 1329 H 115.803 2.97646 -1.7106 0
M  V30 1330 N 118.248 0.346503 1.53744 0
M  V30 1331 C 119.211 -0.496439 2.23759 0
M  V30 1332 C 120.211 -1.0252 1.2388 0
M  V30 1333 O 121.401 -0.913974 1.48297 0
M  V30 1334 C 118.533 -1.69187 2.95954 0
M  V30 1335 H 119.726 0.115952 2.99676 0
M  V30 1336 H 117.279 0.0978939 1.55993 0
M  V30 1337 H 118.014 -2.34288 2.24231 0
M  V30 1338 H 117.799 -1.31989 3.69217 0
M  V30 1339 H 119.289 -2.28969 3.49232 0
M  V30 1340 N 119.726 -1.57421 0.075193 0
M  V30 1341 C 121.137 -1.81021 -0.456964 0
M  V30 1342 C 121.488 -0.98936 -1.69429 0
M  V30 1343 O 120.613 -0.212865 -2.15351 0
M  V30 1344 C 121.208 -3.28329 -0.83581 0
M  V30 1345 C 119.767 -3.52764 -1.31281 0
M  V30 1346 C 118.914 -2.75676 -0.299648 0
M  V30 1347 H 121.865 -1.55822 0.300856 0
M  V30 1348 H 121.886 -3.40564 -1.69696 0
M  V30 1349 H 121.398 -3.88046 0.0649238 0
M  V30 1350 H 119.499 -2.98355 -2.23193 0
M  V30 1351 H 119.612 -4.61451 -1.28839 0
M  V30 1352 H 117.976 -2.42538 -0.777641 0
M  V30 1353 H 118.759 -3.38132 0.593417 0
M  V30 1354 N 121.204 0.198386 -1.56346 0
M  V30 1355 C 122.151 1.24589 -1.94284 0
M  V30 1356 C 123.121 1.454 -0.802997 0
M  V30 1357 O 124.306 1.58588 -1.06087 0
M  V30 1358 C 121.446 2.58631 -2.28482 0
M  V30 1359 C 120.559 2.45426 -3.55514 0
M  V30 1360 C 119.694 3.7215 -3.79049 0
M  V30 1361 C 118.733 3.53763 -4.99518 0
M  V30 1362 N 117.87 4.72491 -5.19323 0
M  V30 1363 H 122.71 0.915356 -2.83593 0
M  V30 1364 H 120.247 0.440629 -1.40346 0
M  V30 1365 H 122.205 3.3672 -2.46324 0
M  V30 1366 H 120.835 2.89734 -1.42317 0
M  V30 1367 H 119.887 1.58652 -3.45737 0
M  V30 1368 H 121.199 2.27772 -4.43758 0
M  V30 1369 H 120.353 4.58679 -3.97113 0
M  V30 1370 H 119.092 3.92754 -2.89129 0
M  V30 1371 H 118.097 2.65619 -4.8138 0
M  V30 1372 H 119.322 3.34607 -5.90944 0
M  V30 1373 H 117.268 4.93365 -4.3235 0
M  V30 1374 H 117.185 4.5765 -6.01741 0
M  V30 1375 H 118.453 5.6038 -5.41843 0
M  V30 1376 N 122.682 1.50554 0.465978 0
M  V30 1377 C 123.592 1.72585 1.58907 0
M  V30 1378 C 124.608 0.60911 1.6299 0
M  V30 1379 O 125.784 0.88804 1.80765 0
M  V30 1380 C 122.849 1.81995 2.95091 0
M  V30 1381 C 121.91 3.05751 3.01355 0
M  V30 1382 C 121.143 3.14702 4.31043 0
M  V30 1383 O 121.366 2.30313 5.21835 0
M  V30 1384 O 120.3 4.07468 4.43005 0
M  V30 1385 H 124.126 2.67799 1.43239 0
M  V30 1386 H 121.711 1.34711 0.646013 0
M  V30 1387 H 123.593 1.90335 3.75966 0
M  V30 1388 H 122.268 0.899659 3.10947 0
M  V30 1389 H 121.175 3.02908 2.19539 0
M  V30 1390 H 122.508 3.97375 2.90437 0
M  V30 1391 N 124.16 -0.719506 1.40217 0
M  V30 1392 C 125.09 -1.8465 1.42922 0
M  V30 1393 C 126.071 -1.67599 0.29062 0
M  V30 1394 O 127.256 -1.87688 0.498677 0
M  V30 1395 C 124.386 -3.22565 1.28722 0
M  V30 1396 C 123.34 -3.54281 2.40144 0
M  V30 1397 C 122.666 -4.91298 2.11023 0
M  V30 1398 C 123.966 -3.55676 3.82481 0
M  V30 1399 H 125.66 -1.82644 2.37237 0
M  V30 1400 H 123.206 -0.877305 1.1419 0
M  V30 1401 H 125.159 -4.01095 1.29232 0
M  V30 1402 H 123.883 -3.25137 0.308811 0
M  V30 1403 H 122.542 -2.78088 2.38877 0
M  V30 1404 H 122.19 -4.90468 1.11582 0
M  V30 1405 H 121.89 -5.13485 2.8567 0
M  V30 1406 H 123.414 -5.72166 2.13209 0
M  V30 1407 H 124.828 -4.24254 3.85592 0
M  V30 1408 H 123.225 -3.89388 4.56614 0
M  V30 1409 H 124.295 -2.55144 4.12346 0
M  V30 1410 N 125.638 -1.25649 -0.95132 0
M  V30 1411 C 126.585 -1.06323 -2.04851 0
M  V30 1412 C 127.555 0.0286491 -1.66075 0
M  V30 1413 O 128.74 -0.12917 -1.90362 0
M  V30 1414 C 125.88 -0.691529 -3.381 0
M  V30 1415 C 124.993 -1.85861 -3.89974 0
M  V30 1416 C 124.128 -1.43096 -5.11563 0
M  V30 1417 C 123.167 -2.56696 -5.55674 0
M  V30 1418 N 122.304 -2.14684 -6.68472 0
M  V30 1419 H 127.144 -2.00222 -2.20715 0
M  V30 1420 H 124.681 -0.997027 -1.08156 0
M  V30 1421 H 126.639 -0.456963 -4.1469 0
M  V30 1422 H 125.269 0.210474 -3.22113 0
M  V30 1423 H 124.321 -2.20639 -3.09875 0
M  V30 1424 H 125.633 -2.71161 -4.18657 0
M  V30 1425 H 124.787 -1.15624 -5.9558 0
M  V30 1426 H 123.526 -0.548722 -4.84603 0
M  V30 1427 H 122.531 -2.84909 -4.7022 0
M  V30 1428 H 123.756 -3.45503 -5.8464 0
M  V30 1429 H 121.702 -1.28881 -6.43215 0
M  V30 1430 H 121.619 -2.9353 -6.96689 0
M  V30 1431 H 122.887 -1.90397 -7.5589 0
M  V30 1432 N 127.117 1.15442 -1.07289 0
M  V30 1433 C 128.08 2.18358 -0.696591 0
M  V30 1434 C 129.08 1.58637 0.262837 0
M  V30 1435 O 130.27 1.74145 0.0438809 0
M  V30 1436 C 127.402 3.4089 -0.0266151 0
M  V30 1437 H 128.595 2.53162 -1.60776 0
M  V30 1438 H 126.148 1.29893 -0.869342 0
M  V30 1439 H 126.883 3.11653 0.896822 0
M  V30 1440 H 126.668 3.85495 -0.716657 0
M  V30 1441 H 128.158 4.17009 0.222028 0
M  V30 1442 N 128.595 0.856903 1.32268 0
M  V30 1443 C 129.841 0.462069 1.97466 0
M  V30 1444 C 130.174 -0.980298 1.67642 0
M  V30 1445 O 129.449 -1.68824 0.965858 0
M  V30 1446 C 129.732 0.704336 3.53145 0
M  V30 1447 C 129.585 2.19529 3.9259 0
M  V30 1448 C 130.904 0.1622 4.39801 0
M  V30 1449 H 128.023 0.169357 0.717278 0
M  V30 1450 H 130.665 1.07574 1.56614 0
M  V30 1451 H 128.815 0.181999 3.88073 0
M  V30 1452 H 130.487 2.78387 3.67829 0
M  V30 1453 H 128.73 2.67292 3.41668 0
M  V30 1454 H 129.401 2.31549 5.01088 0
M  V30 1455 H 131.877 0.608905 4.11621 0
M  V30 1456 H 130.753 0.361265 5.4771 0
M  V30 1457 H 131.014 -0.935158 4.32096 0
M  V30 1458 N 130.073 -1.45103 0.615059 0
M  V30 1459 C 131.003 -2.33339 -0.0865619 0
M  V30 1460 C 131.984 -1.4727 -0.851209 0
M  V30 1461 O 133.169 -1.76026 -0.820281 0
M  V30 1462 C 130.299 -3.30095 -1.07956 0
M  V30 1463 C 129.253 -4.25858 -0.427628 0
M  V30 1464 C 128.579 -5.12361 -1.5294 0
M  V30 1465 C 129.879 -5.18165 0.655944 0
M  V30 1466 H 131.573 -2.92254 0.650224 0
M  V30 1467 H 129.119 -1.40532 0.314138 0
M  V30 1468 H 131.072 -3.90698 -1.57901 0
M  V30 1469 H 129.796 -2.69355 -1.84703 0
M  V30 1470 H 128.455 -3.66564 0.0510292 0
M  V30 1471 H 128.103 -4.47984 -2.28734 0
M  V30 1472 H 127.803 -5.77238 -1.09865 0
M  V30 1473 H 129.327 -5.75833 -2.03098 0
M  V30 1474 H 130.741 -5.72796 0.240257 0
M  V30 1475 H 129.138 -5.91559 1.00888 0
M  V30 1476 H 130.208 -4.60144 1.52957 0
M  V30 1477 N 131.551 -0.354651 -1.53558 0
M  V30 1478 C 132.828 0.294281 -1.93374 0
M  V30 1479 C 133.208 1.67313 -1.28723 0
M  V30 1480 O 132.556 2.24179 -0.442247 0
M  V30 1481 C 132.766 0.355445 -3.47185 0
M  V30 1482 C 134.114 0.601007 -4.20325 0
M  V30 1483 O 135.138 0.437106 -3.53508 0
M  V30 1484 O 133.997 0.919322 -5.38712 0
M  V30 1485 H 131.091 0.174033 -0.808481 0
M  V30 1486 H 133.637 -0.406638 -1.64756 0
M  V30 1487 H 132.409 -0.611729 -3.86489 0
M  V30 1488 H 132.032 1.1027 -3.82003 0
M  V30 1489 N 133.029 1.57378 -0.0835403 0
M  V30 1490 C 133.977 2.14602 0.89714 0
M  V30 1491 C 134.971 1.08589 1.30018 0
M  V30 1492 O 136.177 1.26952 1.27606 0
M  V30 1493 H 132.552 0.686346 0.3073 0
M  V30 1494 H 134.523 2.95845 0.38969 0
M  V30 1495 C 133.272 2.73188 2.15089 0
M  V30 1496 H 132.595 3.54442 1.84962 0
M  V30 1497 H 134.035 3.1681 2.81793 0
M  V30 1498 C 132.494 1.68517 2.91725 0
M  V30 1499 O 133.024 1.11718 3.85852 0
M  V30 1500 N 131.23 1.39277 2.55049 0
M  V30 1501 H 130.777 1.85655 1.78577 0
M  V30 1502 H 130.735 0.694791 3.06627 0
M  V30 1503 N 134.507 -0.190092 1.56449 0
M  V30 1504 C 135.737 -0.92443 1.84764 0
M  V30 1505 C 136.145 -1.77146 0.664529 0
M  V30 1506 O 135.488 -1.79812 -0.375957 0
M  V30 1507 C 135.55 -1.86651 3.07248 0
M  V30 1508 C 135.214 -1.20094 4.40938 0
M  V30 1509 C 136.211 -0.575445 5.16706 0
M  V30 1510 C 133.896 -1.2033 4.87674 0
M  V30 1511 C 135.89 0.0388111 6.37388 0
M  V30 1512 C 133.577 -0.585214 6.08291 0
M  V30 1513 C 134.575 0.0347578 6.82991 0
M  V30 1514 O 134.263 0.643147 8.01323 0
M  V30 1515 H 133.995 -0.274974 0.617548 0
M  V30 1516 H 136.549 -0.200788 2.04416 0
M  V30 1517 H 134.779 -2.62998 2.83494 0
M  V30 1518 H 136.468 -2.46907 3.22167 0
M  V30 1519 H 137.234 -0.565728 4.81689 0
M  V30 1520 H 133.113 -1.67526 4.29484 0
M  V30 1521 H 136.657 0.523329 6.95634 0
M  V30 1522 H 132.554 -0.592451 6.42775 0
M  V30 1523 H 133.322 0.540545 8.16713 0
M  V30 1524 N 135.985 -1.50799 -0.457987 0
M  V30 1525 C 137.231 -1.62683 -1.21088 0
M  V30 1526 C 137.564 -0.332268 -1.91336 0
M  V30 1527 O 136.839 0.667043 -1.82704 0
M  V30 1528 C 137.122 -2.81615 -2.24422 0
M  V30 1529 C 136.975 -4.20989 -1.58392 0
M  V30 1530 C 138.294 -2.96085 -3.2561 0
M  V30 1531 H 135.413 -0.592087 -0.438864 0
M  V30 1532 H 138.055 -1.83225 -0.50286 0
M  V30 1533 H 136.205 -2.64231 -2.84806 0
M  V30 1534 H 137.877 -4.49994 -1.01504 0
M  V30 1535 H 136.12 -4.24641 -0.886704 0
M  V30 1536 H 136.791 -5.0016 -2.33547 0
M  V30 1537 H 139.267 -3.12042 -2.75262 0
M  V30 1538 H 138.143 -3.80902 -3.95228 0
M  V30 1539 H 138.404 -2.0726 -3.90507 0
M  V30 1540 N 137.463 0.71206 -1.40597 0
M  V30 1541 C 138.712 1.46754 -1.38369 0
M  V30 1542 C 139.025 1.95598 0.0097839 0
M  V30 1543 O 140.231 2.71059 0.154677 0
M  V30 1544 C 138.687 2.65289 -2.43207 0
M  V30 1545 C 138.295 2.23301 -3.88382 0
M  V30 1546 C 140.039 3.43008 -2.50091 0
M  V30 1547 C 137.946 3.38696 -4.84808 0
M  V30 1548 H 136.876 0.55118 -0.514506 0
M  V30 1549 H 139.527 0.774616 -1.66349 0
M  V30 1550 H 137.909 3.36769 -2.08332 0
M  V30 1551 H 139.083 1.59218 -4.32419 0
M  V30 1552 H 137.398 1.58618 -3.85006 0
M  V30 1553 H 139.995 4.28881 -3.1932 0
M  V30 1554 H 140.338 3.87065 -1.53253 0
M  V30 1555 H 140.871 2.78574 -2.83974 0
M  V30 1556 H 137.61 2.99668 -5.82992 0
M  V30 1557 H 137.13 4.01683 -4.45433 0
M  V30 1558 H 138.809 4.04712 -5.04794 0
M  V30 1559 N 138.941 1.26152 0.944643 0
M  V30 1560 C 140.189 1.11271 1.6871 0
M  V30 1561 C 140.51 -0.345166 1.91921 0
M  V30 1562 O 139.78 -1.24387 1.51343 0
M  V30 1563 H 138.36 0.408783 0.625224 0
M  V30 1564 H 141.022 1.58427 1.1352 0
M  V30 1565 H 140.118 1.62879 2.66227 0
M  V30 1566 N 140.419 -1.14872 1.07899 0
M  V30 1567 C 141.351 -2.19425 0.662231 0
M  V30 1568 C 142.364 -1.60231 -0.288079 0
M  V30 1569 O 143.553 -1.78336 -0.076534 0
M  V30 1570 C 140.653 -3.38867 -0.0470695 0
M  V30 1571 C 139.826 -4.27597 0.920831 0
M  V30 1572 C 138.885 -5.25616 0.247805 0
M  V30 1573 O 137.911 -5.62189 0.890599 0
M  V30 1574 N 139.113 -5.71746 -1.00435 0
M  V30 1575 H 141.878 -2.55797 1.56166 0
M  V30 1576 H 139.439 -1.30042 0.964404 0
M  V30 1577 H 141.431 -4.01497 -0.50813 0
M  V30 1578 H 140.001 -3.00864 -0.848523 0
M  V30 1579 H 139.221 -3.61982 1.56087 0
M  V30 1580 H 140.509 -4.83748 1.57688 0
M  V30 1581 H 139.907 -5.44153 -1.54642 0
M  V30 1582 H 138.464 -6.36389 -1.40899 0
M  V30 1583 N 141.898 -0.863906 -1.31812 0
M  V30 1584 C 142.808 -0.318461 -2.32428 0
M  V30 1585 C 143.824 0.568496 -1.64451 0
M  V30 1586 O 145 0.46666 -1.95919 0
M  V30 1587 C 142.065 0.476355 -3.43412 0
M  V30 1588 C 141.126 -0.43784 -4.27061 0
M  V30 1589 C 140.359 0.319138 -5.32745 0
M  V30 1590 O 140.582 1.54799 -5.48993 0
M  V30 1591 O 139.516 -0.319861 -6.01049 0
M  V30 1592 H 143.342 -1.15229 -2.80991 0
M  V30 1593 H 140.927 -0.627103 -1.35602 0
M  V30 1594 H 142.809 0.927156 -4.11074 0
M  V30 1595 H 141.484 1.28683 -2.97022 0
M  V30 1596 H 140.391 -0.937013 -3.62175 0
M  V30 1597 H 141.724 -1.21375 -4.77 0
M  V30 1598 N 143.376 1.44774 -0.622745 0
M  V30 1599 C 144.308 2.28856 0.125485 0
M  V30 1600 C 145.321 1.40811 0.817069 0
M  V30 1601 O 146.51 1.65044 0.679918 0
M  V30 1602 C 143.61 3.16963 1.19949 0
M  V30 1603 C 142.783 4.33374 0.592064 0
M  V30 1604 C 141.842 5.02577 1.55893 0
M  V30 1605 O 140.868 5.58873 1.07933 0
M  V30 1606 N 142.07 5.03256 2.89334 0
M  V30 1607 H 144.835 2.93713 -0.596068 0
M  V30 1608 H 142.396 1.55129 -0.463303 0
M  V30 1609 H 144.388 3.60123 1.84644 0
M  V30 1610 H 142.958 2.53913 1.82337 0
M  V30 1611 H 142.178 3.93509 -0.233322 0
M  V30 1612 H 143.466 5.08527 0.166738 0
M  V30 1613 H 142.864 4.58836 3.30887 0
M  V30 1614 H 141.421 5.50232 3.49412 0
M  V30 1615 N 144.854 0.36279 1.53368 0
M  V30 1616 C 145.817 -0.472679 2.24273 0
M  V30 1617 C 146.817 -1.012 1.24961 0
M  V30 1618 O 148.007 -0.898194 1.49259 0
M  V30 1619 C 145.139 -1.66039 2.97731 0
M  V30 1620 H 146.332 0.14773 2.99536 0
M  V30 1621 H 143.885 0.114434 1.55881 0
M  V30 1622 H 144.62 -2.31896 2.26704 0
M  V30 1623 H 144.405 -1.28066 3.70596 0
M  V30 1624 H 145.895 -2.25252 3.51641 0
M  V30 1625 N 146.332 -1.57332 0.0918853 0
M  V30 1626 C 147.279 -2.13847 -0.868211 0
M  V30 1627 C 148.249 -1.05618 -1.28196 0
M  V30 1628 O 149.434 -1.33387 -1.36427 0
M  V30 1629 C 146.574 -2.72062 -2.12312 0
M  V30 1630 C 145.687 -3.94514 -1.7602 0
M  V30 1631 C 144.822 -4.40903 -2.96273 0
M  V30 1632 C 143.861 -5.55953 -2.56092 0
M  V30 1633 N 142.998 -5.97209 -3.69169 0
M  V30 1634 H 147.838 -2.95575 -0.379406 0
M  V30 1635 H 145.375 -1.46048 -0.175606 0
M  V30 1636 H 147.333 -3.03931 -2.858 0
M  V30 1637 H 145.963 -1.93068 -2.58698 0
M  V30 1638 H 145.015 -3.68979 -0.925135 0
M  V30 1639 H 146.327 -4.7802 -1.42472 0
M  V30 1640 H 145.481 -4.74539 -3.78018 0
M  V30 1641 H 144.22 -3.56291 -3.33029 0
M  V30 1642 H 143.225 -5.21948 -1.72773 0
M  V30 1643 H 144.45 -6.42311 -2.20484 0
M  V30 1644 H 142.396 -5.15543 -4.05649 0
M  V30 1645 H 142.313 -6.75504 -3.39456 0
M  V30 1646 H 143.581 -6.35475 -4.51434 0
M  V30 1647 N 147.81 0.181792 -1.56548 0
M  V30 1648 C 148.757 1.22521 -1.95595 0
M  V30 1649 C 149.727 1.4454 -0.818373 0
M  V30 1650 O 150.912 1.57454 -1.07763 0
M  V30 1651 C 148.052 2.56193 -2.31212 0
M  V30 1652 C 147.165 2.41641 -3.58097 0
M  V30 1653 C 146.3 3.68108 -3.82975 0
M  V30 1654 C 145.339 3.48445 -5.03242 0
M  V30 1655 N 144.476 4.66956 -5.24306 0
M  V30 1656 H 149.316 0.885226 -2.84548 0
M  V30 1657 H 146.853 0.425718 -1.40805 0
M  V30 1658 H 148.811 3.34088 -2.49882 0
M  V30 1659 H 147.441 2.88208 -1.45382 0
M  V30 1660 H 146.493 1.54976 -3.474 0
M  V30 1661 H 147.805 2.23052 -4.46149 0
M  V30 1662 H 146.959 4.54441 -4.01956 0
M  V30 1663 H 145.698 3.89666 -2.93278 0
M  V30 1664 H 144.703 2.60499 -4.8417 0
M  V30 1665 H 145.928 3.2832 -5.9446 0
M  V30 1666 H 143.874 4.88752 -4.37559 0
M  V30 1667 H 143.791 4.51242 -6.06561 0
M  V30 1668 H 145.059 5.54602 -5.47756 0
M  V30 1669 N 149.288 1.51039 0.449983 0
M  V30 1670 C 150.534 1.63322 1.20223 0
M  V30 1671 C 150.867 0.34241 1.91158 0
M  V30 1672 O 150.142 -0.657344 1.83055 0
M  V30 1673 C 150.425 2.82801 2.22925 0
M  V30 1674 C 150.278 4.21823 1.56157 0
M  V30 1675 C 151.597 2.97807 3.24035 0
M  V30 1676 H 148.716 0.594407 0.435718 0
M  V30 1677 H 151.358 1.83489 0.493136 0
M  V30 1678 H 149.508 2.65738 2.834 0
M  V30 1679 H 151.18 4.50526 0.991162 0
M  V30 1680 H 149.423 4.25105 0.864172 0
M  V30 1681 H 150.094 5.01391 2.30891 0
M  V30 1682 H 152.57 3.13497 2.73603 0
M  V30 1683 H 151.446 3.82992 3.93202 0
M  V30 1684 H 151.707 2.09328 3.89402 0
M  V30 1685 N 150.766 -0.704594 1.40972 0
M  V30 1686 C 152.013 -1.46458 1.39844 0
M  V30 1687 C 152.341 -1.94499 0.00447594 0
M  V30 1688 O 151.596 -1.69275 -0.982057 0
M  V30 1689 C 151.895 -2.698 2.34399 0
M  V30 1690 C 151.561 -2.40464 3.81429 0
M  V30 1691 C 150.223 -2.32174 4.21484 0
M  V30 1692 C 152.575 -2.16086 4.74296 0
M  V30 1693 C 149.903 -1.97589 5.52427 0
M  V30 1694 C 152.255 -1.83011 6.05549 0
M  V30 1695 C 150.919 -1.7321 6.44635 0
M  V30 1696 H 150.189 -0.535927 0.511725 0
M  V30 1697 H 152.836 -0.806124 1.73706 0
M  V30 1698 H 151.141 -3.40536 1.93759 0
M  V30 1699 H 152.838 -3.27919 2.30804 0
M  V30 1700 H 149.428 -2.47808 3.49699 0
M  V30 1701 H 153.612 -2.2144 4.4416 0
M  V30 1702 H 148.868 -1.88547 5.81601 0
M  V30 1703 H 153.042 -1.63164 6.77016 0
M  V30 1704 H 150.669 -1.46179 7.46013 0
M  V30 1705 N 152.244 -1.26651 -0.937939 0
M  V30 1706 C 153.469 -1.15279 -1.72411 0
M  V30 1707 C 153.894 0.287866 -1.85884 0
M  V30 1708 O 153.252 1.20855 -1.35143 0
M  V30 1709 C 153.3 -1.83028 -3.10698 0
M  V30 1710 O 152.404 -1.12128 -3.96864 0
M  V30 1711 H 151.745 -0.401504 -0.528858 0
M  V30 1712 H 154.275 -1.67531 -1.1745 0
M  V30 1713 H 154.285 -1.89981 -3.6107 0
M  V30 1714 H 152.96 -2.87833 -3.00208 0
M  V30 1715 H 151.537 -1.13173 -3.55312 0
M  V30 1716 N 153.722 1.14298 -1.08507 0
M  V30 1717 C 154.968 1.85633 -0.816581 0
M  V30 1718 C 155.301 1.82784 0.656021 0
M  V30 1719 O 154.576 1.25926 1.48233 0
M  V30 1720 C 154.859 3.34223 -1.34041 0
M  V30 1721 C 154.712 3.45639 -2.87843 0
M  V30 1722 C 156.031 4.29356 -0.9665 0
M  V30 1723 H 153.15 0.67402 -0.298104 0
M  V30 1724 H 155.792 1.34214 -1.34487 0
M  V30 1725 H 153.942 3.78144 -0.89104 0
M  V30 1726 H 155.614 3.10498 -3.41158 0
M  V30 1727 H 153.857 2.86817 -3.25451 0
M  V30 1728 H 154.528 4.50089 -3.19569 0
M  V30 1729 H 157.004 3.93457 -1.35391 0
M  V30 1730 H 155.88 5.3178 -1.3602 0
M  V30 1731 H 156.141 4.41919 0.126362 0
M  V30 1732 N 155.201 0.870884 1.31352 0
M  V30 1733 C 156.164 0.332243 2.26779 0
M  V30 1734 C 157.164 -0.517302 1.52252 0
M  V30 1735 O 158.354 -0.326477 1.71113 0
M  V30 1736 C 155.486 -0.528066 3.36785 0
M  V30 1737 H 156.679 1.17469 2.75937 0
M  V30 1738 H 154.232 0.64655 1.423 0
M  V30 1739 H 154.967 -1.39167 2.92922 0
M  V30 1740 H 154.752 0.0802582 3.92018 0
M  V30 1741 H 156.242 -0.897179 4.07849 0
M  V30 1742 N 156.679 -1.44442 0.630414 0
M  V30 1743 C 157.925 -2.02351 0.134816 0
M  V30 1744 C 158.258 -1.4947 -1.23986 0
M  V30 1745 O 157.533 -0.678475 -1.82283 0
M  V30 1746 C 157.816 -3.59898 0.120707 0
M  V30 1747 C 157.669 -4.23063 1.52767 0
M  V30 1748 C 158.988 -4.36585 -0.555127 0
M  V30 1749 H 156.107 -0.73527 0.0504646 0
M  V30 1750 H 158.749 -1.72022 0.806751 0
M  V30 1751 H 156.899 -3.85868 -0.451477 0
M  V30 1752 H 158.571 -4.08202 2.14869 0
M  V30 1753 H 156.814 -3.80586 2.08175 0
M  V30 1754 H 157.485 -5.32071 1.46984 0
M  V30 1755 H 159.961 -4.16044 -0.0685429 0
M  V30 1756 H 158.837 -5.46294 -0.534185 0
M  V30 1757 H 159.098 -4.11138 -1.62535 0
M  V30 1758 N 158.157 -0.370918 -1.53173 0
M  V30 1759 C 159.387 0.217389 -2.05453 0
M  V30 1760 C 159.795 1.42568 -1.24382 0
M  V30 1761 O 159.138 1.81571 -0.278839 0
M  V30 1762 C 159.2 0.669827 -3.53205 0
M  V30 1763 C 158.864 -0.4225 -4.55043 0
M  V30 1764 C 159.861 -1.27407 -5.04047 0
M  V30 1765 C 157.546 -0.58427 -4.9889 0
M  V30 1766 C 159.54 -2.27271 -5.95505 0
M  V30 1767 C 157.227 -1.58627 -5.90153 0
M  V30 1768 C 158.225 -2.42892 -6.38351 0
M  V30 1769 O 157.913 -3.41382 -7.27814 0
M  V30 1770 H 157.645 0.0408171 -0.674767 0
M  V30 1771 H 160.199 -0.5292 -1.98466 0
M  V30 1772 H 158.429 1.4681 -3.57748 0
M  V30 1773 H 160.118 1.18173 -3.88317 0
M  V30 1774 H 160.884 -1.16031 -4.70916 0
M  V30 1775 H 156.763 0.061851 -4.60959 0
M  V30 1776 H 160.307 -2.93079 -6.33049 0
M  V30 1777 H 156.204 -1.70048 -6.22699 0
M  V30 1778 H 156.972 -3.37173 -7.45826 0
M  V30 1779 N 159.635 1.57281 -0.100228 0
M  V30 1780 C 160.583 2.15542 0.874328 0
M  V30 1781 C 161.577 1.09962 1.28859 0
M  V30 1782 O 162.783 1.28298 1.26252 0
M  V30 1783 H 159.158 0.689567 0.300003 0
M  V30 1784 H 161.129 2.96241 0.35829 0
M  V30 1785 C 159.878 2.75454 2.1218 0
M  V30 1786 H 159.201 3.56384 1.81193 0
M  V30 1787 H 160.641 3.19781 2.78417 0
M  V30 1788 C 159.1 1.71602 2.89921 0
M  V30 1789 O 159.63 1.15804 3.84646 0
M  V30 1790 N 157.836 1.41975 2.53558 0
M  V30 1791 H 157.383 1.87539 1.76598 0
M  V30 1792 H 157.341 0.727274 3.05873 0
M  V30 1793 N 161.113 -0.173488 1.56642 0
M  V30 1794 C 162.063 -1.21941 1.92651 0
M  V30 1795 C 163.047 -1.39912 0.794577 0
M  V30 1796 O 164.239 -1.41919 1.05773 0
M  V30 1797 C 161.368 -2.55935 2.28806 0
M  V30 1798 C 160.454 -2.41667 3.48508 0
M  V30 1799 N 160.845 -1.9711 4.65813 0
M  V30 1800 C 159.143 -2.72499 3.53072 0
M  V30 1801 C 159.844 -1.95253 5.47952 0
M  V30 1802 N 158.82 -2.37575 4.88937 0
M  V30 1803 H 162.622 -0.866581 2.80834 0
M  V30 1804 H 160.136 -0.381776 1.57849 0
M  V30 1805 H 162.133 -3.31511 2.52797 0
M  V30 1806 H 160.793 -2.92022 1.41961 0
M  V30 1807 H 161.804 -1.67481 4.90072 0
M  V30 1808 H 158.481 -3.12639 2.767 0
M  V30 1809 H 159.871 -1.6252 6.51948 0
M  V30 1810 N 162.591 -1.51276 -0.441967 0
M  V30 1811 C 163.821 -1.67273 -1.21257 0
M  V30 1812 C 164.229 -0.367624 -1.85594 0
M  V30 1813 O 163.572 0.663349 -1.71305 0
M  V30 1814 C 163.634 -2.72807 -2.34129 0
M  V30 1815 C 163.298 -4.1554 -1.90198 0
M  V30 1816 C 164.295 -5.00471 -1.40801 0
M  V30 1817 C 161.98 -4.61616 -1.9803 0
M  V30 1818 C 163.974 -6.29536 -0.998174 0
M  V30 1819 C 161.661 -5.90679 -1.56658 0
M  V30 1820 C 162.659 -6.74466 -1.07633 0
M  V30 1821 O 162.347 -8.01116 -0.668459 0
M  V30 1822 H 162.079 -0.564614 -0.371734 0
M  V30 1823 H 164.633 -1.9843 -0.530521 0
M  V30 1824 H 162.863 -2.36954 -3.05597 0
M  V30 1825 H 164.552 -2.77729 -2.96009 0
M  V30 1826 H 165.318 -4.66079 -1.34148 0
M  V30 1827 H 161.197 -3.96526 -2.35135 0
M  V30 1828 H 164.741 -6.94885 -0.61482 0
M  V30 1829 H 160.638 -6.24586 -1.62979 0
M  V30 1830 H 161.406 -8.14633 -0.794722 0
M  V30 1831 N 164.069 0.697108 -1.41344 0
M  V30 1832 C 165.016 1.81106 -1.43071 0
M  V30 1833 C 165.986 1.63632 -0.285275 0
M  V30 1834 O 167.171 1.84504 -0.486091 0
M  V30 1835 C 164.311 3.18975 -1.31715 0
M  V30 1836 C 163.424 3.47892 -2.56115 0
M  V30 1837 C 162.559 4.75367 -2.37064 0
M  V30 1838 C 161.598 4.97247 -3.56948 0
M  V30 1839 N 160.735 6.15947 -3.36977 0
M  V30 1840 H 165.575 1.78965 -2.38276 0
M  V30 1841 H 163.112 0.873975 -1.18322 0
M  V30 1842 H 165.07 3.98615 -1.23133 0
M  V30 1843 H 163.7 3.20297 -0.401183 0
M  V30 1844 H 162.752 2.62669 -2.75153 0
M  V30 1845 H 164.064 3.59962 -3.45295 0
M  V30 1846 H 163.218 5.63059 -2.25941 0
M  V30 1847 H 161.957 4.65541 -1.45338 0
M  V30 1848 H 160.962 4.08004 -3.68527 0
M  V30 1849 H 162.187 5.08934 -4.49626 0
M  V30 1850 H 160.133 6.07336 -2.47949 0
M  V30 1851 H 160.05 6.28777 -4.19732 0
M  V30 1852 H 161.318 7.06377 -3.29623 0
M  V30 1853 N 165.547 1.27147 0.931209 0
M  V30 1854 C 166.963 1.04475 1.20653 0
M  V30 1855 C 167.163 -0.223885 2.00252 0
M  V30 1856 O 166.219 -0.930332 2.34736 0
M  V30 1857 C 167.532 2.28209 1.95809 0
M  V30 1858 C 169.08 2.33211 2.08762 0
M  V30 1859 C 169.555 3.56665 2.87323 0
M  V30 1860 N 171.046 3.57201 2.94892 0
M  V30 1861 C 171.781 4.49395 3.56134 0
M  V30 1862 N 171.277 5.51889 4.18796 0
M  V30 1863 N 173.07 4.37026 3.53504 0
M  V30 1864 H 165.221 2.08612 0.399333 0
M  V30 1865 H 167.484 0.917312 0.239253 0
M  V30 1866 H 167.19 3.20538 1.44736 0
M  V30 1867 H 167.064 2.33247 2.96438 0
M  V30 1868 H 169.451 1.41391 2.59023 0
M  V30 1869 H 169.532 2.32178 1.07364 0
M  V30 1870 H 169.176 4.4882 2.37746 0
M  V30 1871 H 169.106 3.54948 3.88998 0
M  V30 1872 H 171.597 2.83074 2.50354 0
M  V30 1873 H 171.91 6.18409 4.63454 0
M  V30 1874 H 170.255 5.55735 4.17353 0
M  V30 1875 H 173.446 3.56166 3.03749 0
M  V30 1876 H 173.619 5.09067 4.00942 0
M  V30 1877 N 167.025 -1.13721 1.09112 0
M  V30 1878 C 167.955 -2.21148 0.749385 0
M  V30 1879 C 168.936 -1.6792 -0.271475 0
M  V30 1880 O 170.121 -1.93693 -0.140251 0
M  V30 1881 C 167.251 -3.46905 0.165659 0
M  V30 1882 C 166.205 -4.13203 1.11567 0
M  V30 1883 C 165.531 -5.33248 0.393809 0
M  V30 1884 C 166.831 -4.60912 2.45678 0
M  V30 1885 H 168.525 -2.4999 1.64758 0
M  V30 1886 H 166.071 -1.20156 0.793626 0
M  V30 1887 H 168.024 -4.21313 -0.085466 0
M  V30 1888 H 166.748 -3.17449 -0.767714 0
M  V30 1889 H 165.407 -3.40758 1.35202 0
M  V30 1890 H 165.055 -5.00054 -0.543599 0
M  V30 1891 H 164.755 -5.78552 1.02721 0
M  V30 1892 H 166.279 -6.10413 0.150908 0
M  V30 1893 H 167.693 -5.26759 2.26269 0
M  V30 1894 H 166.09 -5.16944 3.04776 0
M  V30 1895 H 167.16 -3.75603 3.06677 0
M  V30 1896 N 168.503 -0.877838 -1.30888 0
M  V30 1897 C 169.728 -0.506629 -2.01117 0
M  V30 1898 C 170.153 0.895564 -1.65412 0
M  V30 1899 O 169.511 1.5923 -0.866922 0
M  V30 1900 C 169.559 -0.680223 -3.54126 0
M  V30 1901 O 168.663 0.277033 -4.11468 0
M  V30 1902 H 168.004 -0.200518 -0.633 0
M  V30 1903 H 170.534 -1.18342 -1.66902 0
M  V30 1904 H 170.544 -0.5765 -4.03907 0
M  V30 1905 H 169.219 -1.70261 -3.79452 0
M  V30 1906 H 167.796 0.127606 -3.72682 0
M  V30 1907 N 169.982 1.44106 -0.638065 0
M  V30 1908 C 171.229 2.01978 -0.14533 0
M  V30 1909 C 171.557 1.50234 1.23532 0
M  V30 1910 O 170.812 0.679548 1.83523 0
M  V30 1911 C 171.111 3.5729 -0.0887327 0
M  V30 1912 C 170.777 4.28317 -1.40909 0
M  V30 1913 C 169.439 4.47437 -1.77069 0
M  V30 1914 C 171.791 4.6867 -2.28031 0
M  V30 1915 C 169.119 5.04171 -3.00047 0
M  V30 1916 C 171.471 5.26766 -3.50286 0
M  V30 1917 C 170.135 5.44104 -3.86661 0
M  V30 1918 H 169.405 0.739089 -0.0531801 0
M  V30 1919 H 172.052 1.72781 -0.825761 0
M  V30 1920 H 170.357 3.8594 0.675095 0
M  V30 1921 H 172.054 3.99807 0.309145 0
M  V30 1922 H 168.644 4.1377 -1.1177 0
M  V30 1923 H 172.828 4.53604 -2.01388 0
M  V30 1924 H 168.084 5.15782 -3.28298 0
M  V30 1925 H 172.258 5.56983 -4.18023 0
M  V30 1926 H 169.885 5.87832 -4.82034 0
M  V30 1927 N 171.46 0.379036 1.52974 0
M  V30 1928 C 172.407 -0.461048 2.26148 0
M  V30 1929 C 173.377 -1.06637 1.27349 0
M  V30 1930 O 174.562 -1.09633 1.56157 0
M  V30 1931 C 171.702 -1.58782 3.06402 0
M  V30 1932 C 170.815 -1.00636 4.20115 0
M  V30 1933 C 169.95 -2.10334 4.87784 0
M  V30 1934 C 168.989 -1.49724 5.93506 0
M  V30 1935 N 168.126 -2.5331 6.54812 0
M  V30 1936 H 172.966 0.169429 2.97518 0
M  V30 1937 H 170.503 0.0953806 1.4679 0
M  V30 1938 H 172.461 -2.25174 3.51215 0
M  V30 1939 H 171.091 -2.18876 2.37261 0
M  V30 1940 H 170.143 -0.232332 3.7969 0
M  V30 1941 H 171.455 -0.523343 4.96047 0
M  V30 1942 H 170.609 -2.84519 5.35849 0
M  V30 1943 H 169.348 -2.61992 4.11353 0
M  V30 1944 H 168.353 -0.740598 5.44789 0
M  V30 1945 H 169.578 -0.988732 6.71864 0
M  V30 1946 H 167.524 -3.04156 5.81227 0
M  V30 1947 H 167.441 -2.09734 7.26325 0
M  V30 1948 H 168.709 -3.27155 7.07524 0
M  V30 1949 N 172.938 -1.57226 0.108567 0
M  V30 1950 C 173.848 -2.18292 -0.859401 0
M  V30 1951 C 174.864 -1.15612 -1.30038 0
M  V30 1952 O 176.04 -1.48039 -1.36552 0
M  V30 1953 C 173.105 -2.762 -2.09558 0
M  V30 1954 C 172.166 -3.93881 -1.70752 0
M  V30 1955 C 171.399 -4.49018 -2.88477 0
M  V30 1956 O 171.622 -4.03068 -4.036 0
M  V30 1957 O 170.556 -5.39852 -2.66164 0
M  V30 1958 H 174.382 -3.01441 -0.369769 0
M  V30 1959 H 171.967 -1.48945 -0.1165 0
M  V30 1960 H 173.849 -3.13156 -2.81978 0
M  V30 1961 H 172.524 -1.96089 -2.57548 0
M  V30 1962 H 171.431 -3.61713 -0.954714 0
M  V30 1963 H 172.764 -4.75396 -1.27513 0
M  V30 1964 N 174.416 0.165178 -1.56732 0
M  V30 1965 C 175.363 1.2044 -1.96883 0
M  V30 1966 C 176.333 1.43664 -0.833657 0
M  V30 1967 O 177.518 1.56302 -1.09427 0
M  V30 1968 C 174.658 2.53727 -2.33916 0
M  V30 1969 C 173.771 2.3783 -3.6064 0
M  V30 1970 C 172.906 3.64026 -3.86857 0
M  V30 1971 C 171.945 3.43088 -5.06909 0
M  V30 1972 N 171.082 4.61369 -5.29229 0
M  V30 1973 H 175.922 0.854996 -2.85471 0
M  V30 1974 H 173.459 0.41076 -1.41249 0
M  V30 1975 H 175.417 3.31419 -2.53411 0
M  V30 1976 H 174.047 2.8665 -1.48431 0
M  V30 1977 H 173.099 1.51282 -3.49024 0
M  V30 1978 H 174.411 2.18308 -4.4849 0
M  V30 1979 H 173.565 4.50152 -4.06753 0
M  V30 1980 H 172.304 3.86533 -2.97394 0
M  V30 1981 H 171.309 2.55349 -4.86906 0
M  V30 1982 H 172.534 3.21997 -5.97909 0
M  V30 1983 H 170.48 4.84084 -4.42718 0
M  V30 1984 H 170.397 4.44783 -6.11313 0
M  V30 1985 H 171.665 5.48761 -5.53608 0
M  V30 1986 N 175.894 1.51508 0.433938 0
M  V30 1987 C 176.824 1.76016 1.53429 0
M  V30 1988 C 177.805 0.610112 1.58782 0
M  V30 1989 O 178.99 0.853177 1.74455 0
M  V30 1990 C 176.12 1.88831 2.9148 0
M  V30 1991 C 175.074 3.04288 3.00987 0
M  V30 1992 C 174.4 3.0229 4.4105 0
M  V30 1993 C 175.7 4.44193 2.74754 0
M  V30 1994 H 177.394 2.68152 1.33171 0
M  V30 1995 H 174.94 1.29035 0.639214 0
M  V30 1996 H 176.893 2.04559 3.6842 0
M  V30 1997 H 175.617 0.933455 3.12976 0
M  V30 1998 H 174.276 2.8827 2.26486 0
M  V30 1999 H 173.924 2.04576 4.59519 0
M  V30 2000 H 173.624 3.79822 4.4834 0
M  V30 2001 H 175.148 3.20116 5.1996 0
M  V30 2002 H 176.562 4.60544 3.41426 0
M  V30 2003 H 174.959 5.23457 2.9345 0
M  V30 2004 H 176.029 4.53996 1.70339 0
M  V30 2005 N 177.372 -0.689602 1.41712 0
M  V30 2006 C 178.319 -1.80345 1.44029 0
M  V30 2007 C 179.289 -1.63478 0.293948 0
M  V30 2008 O 180.474 -1.84244 0.495869 0
M  V30 2009 C 177.614 -3.18272 1.33405 0
M  V30 2010 C 176.727 -3.46529 2.57956 0
M  V30 2011 C 175.862 -4.74103 2.39582 0
M  V30 2012 C 174.901 -4.95347 3.5958 0
M  V30 2013 N 174.038 -6.14151 3.40239 0
M  V30 2014 H 178.878 -1.77698 2.39222 0
M  V30 2015 H 176.415 -0.867688 1.18784 0
M  V30 2016 H 178.373 -3.97956 1.25246 0
M  V30 2017 H 177.003 -3.2008 0.418164 0
M  V30 2018 H 176.055 -2.61207 2.76542 0
M  V30 2019 H 177.367 -3.58126 3.47199 0
M  V30 2020 H 176.521 -5.61853 2.28924 0
M  V30 2021 H 175.26 -4.64763 1.47805 0
M  V30 2022 H 174.265 -4.06044 3.70686 0
M  V30 2023 H 175.49 -5.06542 4.52318 0
M  V30 2024 H 173.436 -6.06013 2.51167 0
M  V30 2025 H 173.353 -6.26543 4.23061 0
M  V30 2026 H 174.621 -7.04619 3.33365 0
M  V30 2027 N 178.85 -1.27639 -0.924453 0
M  V30 2028 C 179.797 -1.10644 -2.0255 0
M  V30 2029 C 180.767 -0.00658438 -1.66099 0
M  V30 2030 O 181.952 -0.16952 -1.90045 0
M  V30 2031 C 179.092 -0.76309 -3.36557 0
M  V30 2032 C 178.205 -1.94091 -3.85944 0
M  V30 2033 C 177.34 -1.53914 -5.08413 0
M  V30 2034 C 176.379 -2.68425 -5.50104 0
M  V30 2035 N 175.516 -2.28815 -6.63768 0
M  V30 2036 H 180.356 -2.04858 -2.16419 0
M  V30 2037 H 177.893 -1.01974 -1.06017 0
M  V30 2038 H 179.851 -0.544822 -4.13627 0
M  V30 2039 H 178.481 0.142102 -3.22487 0
M  V30 2040 H 177.533 -2.27162 -3.05125 0
M  V30 2041 H 178.845 -2.7998 -4.12811 0
M  V30 2042 H 177.999 -1.28231 -5.92994 0
M  V30 2043 H 176.738 -0.651391 -4.8333 0
M  V30 2044 H 175.743 -2.94819 -4.64071 0
M  V30 2045 H 176.968 -3.57826 -5.7718 0
M  V30 2046 H 174.914 -1.42495 -6.40337 0
M  V30 2047 H 174.831 -3.08242 -6.90306 0
M  V30 2048 H 176.099 -2.06387 -7.51681 0
M  V30 2049 N 180.328 1.1314 -1.09713 0
M  V30 2050 C 181.26 2.18343 -0.697056 0
M  V30 2051 C 182.273 1.60669 0.262551 0
M  V30 2052 O 183.462 1.78435 0.0481527 0
M  V30 2053 C 180.562 3.38899 -0.00684728 0
M  V30 2054 C 179.735 4.26078 -0.988741 0
M  V30 2055 C 178.794 5.25155 -0.331394 0
M  V30 2056 O 177.82 5.60701 -0.979926 0
M  V30 2057 N 179.022 5.73271 0.913261 0
M  V30 2058 H 181.787 2.5328 -1.60216 0
M  V30 2059 H 179.348 1.28491 -0.984971 0
M  V30 2060 H 181.34 4.02255 0.444191 0
M  V30 2061 H 179.91 3.02175 0.800551 0
M  V30 2062 H 179.13 3.59453 -1.61826 0
M  V30 2063 H 180.418 4.81178 -1.65364 0
M  V30 2064 H 179.816 5.46544 1.45966 0
M  V30 2065 H 178.373 6.3855 1.30757 0
M  V30 2066 N 181.806 0.884767 1.30421 0
M  V30 2067 C 183.083 0.423185 1.90967 0
M  V30 2068 C 183.463 -1.09605 1.80416 0
M  V30 2069 O 182.811 -1.93126 1.22125 0
M  V30 2070 C 183.021 0.921056 3.36627 0
M  V30 2071 C 184.369 0.955903 4.137 0
M  V30 2072 O 185.393 0.867706 3.4547 0
M  V30 2073 O 184.252 1.08614 5.35598 0
M  V30 2074 H 181.346 0.129369 0.816819 0
M  V30 2075 H 183.892 0.973653 1.3899 0
M  V30 2076 H 182.664 1.96489 3.3839 0
M  V30 2077 H 182.287 0.349741 3.96059 0
M  V30 2078 N 183.284 -1.43765 0.645699 0
M  V30 2079 C 184.232 -2.32516 -0.0624849 0
M  V30 2080 C 185.226 -1.48183 -0.820855 0
M  V30 2081 O 186.432 -1.64439 -0.732106 0
M  V30 2082 H 182.807 -0.750989 -0.0389864 0
M  V30 2083 H 184.778 -2.89979 0.703892 0
M  V30 2084 C 183.527 -3.32389 -1.02044 0
M  V30 2085 H 182.85 -3.97301 -0.446312 0
M  V30 2086 H 184.29 -3.97138 -1.48517 0
M  V30 2087 C 182.749 -2.62416 -2.11281 0
M  V30 2088 O 183.279 -2.434 -3.19561 0
M  V30 2089 N 181.485 -2.21913 -1.87624 0
M  V30 2090 H 181.032 -2.37578 -0.995703 0
M  V30 2091 H 180.99 -1.75424 -2.6091 0
M  V30 2092 N 184.763 -0.387143 -1.52771 0
M  V30 2093 C 185.695 0.484089 -2.2403 0
M  V30 2094 C 186.708 1.02849 -1.26198 0
M  V30 2095 O 187.897 0.931186 -1.52286 0
M  V30 2096 C 184.997 1.68337 -2.94136 0
M  V30 2097 C 184.17 1.26672 -4.18656 0
M  V30 2098 C 183.229 2.33045 -4.7178 0
M  V30 2099 O 182.255 1.94541 -5.34923 0
M  V30 2100 N 183.457 3.64929 -4.5145 0
M  V30 2101 H 186.222 -0.126404 -2.99433 0
M  V30 2102 H 183.783 -0.213392 -1.60488 0
M  V30 2103 H 185.775 2.39019 -3.26577 0
M  V30 2104 H 184.345 2.20025 -2.22053 0
M  V30 2105 H 183.565 0.388878 -3.92277 0
M  V30 2106 H 184.853 0.964964 -4.99566 0
M  V30 2107 H 184.251 3.98974 -4.01044 0
M  V30 2108 H 182.808 4.31651 -4.88386 0
M  V30 2109 N 186.241 1.57166 -0.116904 0
M  V30 2110 C 187.518 1.86645 0.585049 0
M  V30 2111 C 187.898 1.0177 1.84949 0
M  V30 2112 O 187.246 0.0960379 2.28298 0
M  V30 2113 C 187.456 3.37736 0.879507 0
M  V30 2114 C 188.804 4.06289 1.23348 0
M  V30 2115 O 189.828 3.42743 0.969836 0
M  V30 2116 O 188.687 5.18455 1.7282 0
M  V30 2117 H 185.781 0.772593 0.295007 0
M  V30 2118 H 188.327 1.69025 -0.151249 0
M  V30 2119 H 187.099 3.91296 -0.0166136 0
M  V30 2120 H 186.722 3.6078 1.67103 0
M  V30 2121 N 187.719 -0.156864 1.56817 0
M  V30 2122 C 188.944 -0.890331 1.87318 0
M  V30 2123 C 189.369 -1.74394 0.704855 0
M  V30 2124 O 188.727 -1.77972 -0.345786 0
M  V30 2125 C 188.775 -1.73102 3.16336 0
M  V30 2126 O 187.879 -2.83422 2.99576 0
M  V30 2127 H 187.22 -0.24857 0.615718 0
M  V30 2128 H 189.75 -0.150649 2.04045 0
M  V30 2129 H 189.76 -2.12803 3.48107 0
M  V30 2130 H 188.435 -1.10412 4.00976 0
M  V30 2131 H 187.012 -2.47199 2.7919 0
M  V30 2132 N 189.197 -1.51736 -0.425897 0
M  V30 2133 C 190.145 -1.74464 -1.53834 0
M  V30 2134 C 191.139 -0.611241 -1.57988 0
M  V30 2135 O 192.345 -0.792899 -1.61596 0
M  V30 2136 H 188.72 -0.551437 -0.511293 0
M  V30 2137 H 190.691 -2.67694 -1.31843 0
M  V30 2138 C 189.44 -1.8972 -2.91379 0
M  V30 2139 H 188.763 -2.76344 -2.88919 0
M  V30 2140 H 190.203 -2.09629 -3.68553 0
M  V30 2141 C 188.662 -0.65992 -3.30374 0
M  V30 2142 O 189.192 0.180083 -4.01296 0
M  V30 2143 N 187.398 -0.500677 -2.86254 0
M  V30 2144 H 186.945 -1.18532 -2.28709 0
M  V30 2145 H 186.903 0.325903 -3.12706 0
M  V30 2146 N 190.675 0.682077 -1.42076 0
M  V30 2147 C 191.921 1.44428 -1.42367 0
M  V30 2148 C 192.254 1.94164 -0.0373056 0
M  V30 2149 O 191.529 1.70429 0.937239 0
M  V30 2150 C 191.812 2.64654 -2.44194 0
M  V30 2151 C 191.665 2.20596 -3.91991 0
M  V30 2152 C 192.984 3.66865 -2.431 0
M  V30 2153 H 190.103 0.523834 -0.518428 0
M  V30 2154 H 192.745 0.77576 -1.73442 0
M  V30 2155 H 190.895 3.2169 -2.17826 0
M  V30 2156 H 192.567 1.68783 -4.29313 0
M  V30 2157 H 190.81 1.52242 -4.06208 0
M  V30 2158 H 191.481 3.06921 -4.58807 0
M  V30 2159 H 193.957 3.19531 -2.66532 0
M  V30 2160 H 192.833 4.48577 -3.16339 0
M  V30 2161 H 193.094 4.17493 -1.45437 0
M  V30 2162 N 192.153 1.28127 0.917671 0
M  V30 2163 C 193.063 1.13556 2.05286 0
M  V30 2164 C 194.079 0.0630914 1.73886 0
M  V30 2165 O 195.255 0.271598 1.9956 0
M  V30 2166 C 192.32 0.794676 3.3747 0
M  V30 2167 C 191.381 1.94909 3.82504 0
M  V30 2168 C 190.614 1.62437 5.0838 0
M  V30 2169 O 190.837 0.536905 5.67867 0
M  V30 2170 O 189.771 2.46677 5.4903 0
M  V30 2171 H 193.597 2.08844 2.20495 0
M  V30 2172 H 191.182 1.07409 1.03845 0
M  V30 2173 H 193.064 0.618344 4.16839 0
M  V30 2174 H 191.739 -0.128581 3.23445 0
M  V30 2175 H 190.646 2.18055 3.03978 0
M  V30 2176 H 191.979 2.85291 4.01086 0
M  V30 2177 N 193.631 -1.12557 1.10312 0
M  V30 2178 C 194.561 -2.20341 0.772798 0
M  V30 2179 C 195.542 -1.68198 -0.25365 0
M  V30 2180 O 196.727 -1.93831 -0.119699 0
M  V30 2181 C 193.857 -3.46709 0.202443 0
M  V30 2182 C 192.811 -4.11996 1.15943 0
M  V30 2183 C 192.137 -5.328 0.450345 0
M  V30 2184 C 193.437 -4.5828 2.50552 0
M  V30 2185 H 195.131 -2.48229 1.674 0
M  V30 2186 H 192.677 -1.19308 0.806326 0
M  V30 2187 H 194.63 -4.2138 -0.0407752 0
M  V30 2188 H 193.354 -3.18245 -0.734001 0
M  V30 2189 H 192.013 -3.39305 1.38808 0
M  V30 2190 H 191.661 -5.00602 -0.490531 0
M  V30 2191 H 191.361 -5.7743 1.08851 0
M  V30 2192 H 192.885 -6.10219 0.215642 0
M  V30 2193 H 194.299 -5.2433 2.31843 0
M  V30 2194 H 192.696 -5.13683 3.10242 0
M  V30 2195 H 193.766 -3.72329 3.10643 0
M  V30 2196 N 195.109 -0.891671 -1.2995 0
M  V30 2197 C 196.019 -0.367691 -2.31701 0
M  V30 2198 C 197.035 0.533486 -1.6562 0
M  V30 2199 O 198.211 0.424997 -1.96865 0
M  V30 2200 C 195.276 0.403406 -3.44345 0
M  V30 2201 C 194.337 -0.528328 -4.26037 0
M  V30 2202 C 193.57 0.206063 -5.33302 0
M  V30 2203 O 193.793 1.43119 -5.52153 0
M  V30 2204 O 192.727 -0.447281 -6.00236 0
M  V30 2205 H 196.553 -1.21163 -2.78484 0
M  V30 2206 H 194.138 -0.655725 -1.34241 0
M  V30 2207 H 196.02 0.839753 -4.12948 0
M  V30 2208 H 194.695 1.22354 -2.99685 0
M  V30 2209 H 193.602 -1.01362 -3.60106 0
M  V30 2210 H 194.935 -1.31465 -4.74318 0
M  V30 2211 N 196.587 1.43421 -0.653314 0
M  V30 2212 C 197.537 2.2792 0.060558 0
M  V30 2213 C 198.521 1.39906 0.794677 0
M  V30 2214 O 199.713 1.63536 0.677128 0
M  V30 2215 C 196.842 3.27603 1.0262 0
M  V30 2216 C 195.928 4.23104 0.290551 0
M  V30 2217 N 196.319 5.01031 -0.692967 0
M  V30 2218 C 194.617 4.42816 0.531984 0
M  V30 2219 C 195.318 5.70626 -1.12963 0
M  V30 2220 N 194.294 5.41617 -0.463867 0
M  V30 2221 H 198.096 2.85585 -0.694143 0
M  V30 2222 H 195.61 1.55126 -0.480602 0
M  V30 2223 H 197.607 3.86918 1.55242 0
M  V30 2224 H 196.267 2.71499 1.78096 0
M  V30 2225 H 197.278 5.0669 -1.07169 0
M  V30 2226 H 193.955 3.97782 1.26791 0
M  V30 2227 H 195.345 6.4318 -1.94343 0
M  V30 2228 N 198.065 0.39524 1.52563 0
M  V30 2229 C 198.995 -0.428384 2.29537 0
M  V30 2230 C 199.976 -1.05831 1.33169 0
M  V30 2231 O 201.161 -1.06995 1.62067 0
M  V30 2232 C 198.291 -1.55274 3.10656 0
M  V30 2233 C 197.245 -1.04855 4.14957 0
M  V30 2234 C 196.571 -2.26543 4.84337 0
M  V30 2235 C 197.871 -0.112324 5.22179 0
M  V30 2236 H 199.565 0.213867 2.98635 0
M  V30 2237 H 197.111 0.104298 1.43622 0
M  V30 2238 H 199.064 -2.1358 3.63265 0
M  V30 2239 H 197.788 -2.22266 2.39302 0
M  V30 2240 H 196.447 -0.487985 3.63338 0
M  V30 2241 H 196.095 -2.92059 4.09525 0
M  V30 2242 H 195.795 -1.93466 5.54837 0
M  V30 2243 H 197.319 -2.85481 5.39753 0
M  V30 2244 H 198.733 -0.603752 5.70112 0
M  V30 2245 H 197.13 0.128968 5.99961 0
M  V30 2246 H 198.2 0.837052 4.77621 0
M  V30 2247 N 199.544 -1.57102 0.125237 0
M  V30 2248 C 200.454 -2.19191 -0.8362 0
M  V30 2249 C 201.47 -1.16985 -1.28805 0
M  V30 2250 O 202.646 -1.49479 -1.34974 0
M  V30 2251 C 199.711 -2.78407 -2.06617 0
M  V30 2252 C 198.772 -3.9567 -1.66565 0
M  V30 2253 C 198.005 -4.52052 -2.83698 0
M  V30 2254 O 198.228 -4.07326 -3.99302 0
M  V30 2255 O 197.162 -5.42645 -2.60423 0
M  V30 2256 H 200.988 -3.01816 -0.337776 0
M  V30 2257 H 198.573 -1.4906 -0.100695 0
M  V30 2258 H 200.455 -3.16129 -2.7864 0
M  V30 2259 H 199.13 -1.9881 -2.55453 0
M  V30 2260 H 198.037 -3.62705 -0.916296 0
M  V30 2261 H 199.37 -4.76722 -1.22464 0
M  V30 2262 N 201.022 0.148545 -1.56898 0
M  V30 2263 C 201.932 1.20293 -2.01412 0
M  V30 2264 C 202.948 1.47107 -0.929273 0
M  V30 2265 O 204.124 1.58807 -1.23863 0
M  V30 2266 C 201.189 2.51682 -2.38447 0
M  V30 2267 C 200.25 2.32529 -3.60872 0
M  V30 2268 C 199.483 3.57653 -3.96132 0
M  V30 2269 O 199.706 4.63771 -3.32073 0
M  V30 2270 O 198.64 3.50408 -4.89385 0
M  V30 2271 H 202.466 0.855025 -2.91416 0
M  V30 2272 H 200.051 0.357151 -1.45068 0
M  V30 2273 H 201.933 3.29147 -2.63135 0
M  V30 2274 H 200.608 2.86006 -1.51599 0
M  V30 2275 H 199.515 1.53019 -3.41373 0
M  V30 2276 H 200.848 2.03121 -4.48333 0
M  V30 2277 N 202.5 1.5196 0.417844 0
M  V30 2278 C 203.746 1.65836 1.16732 0
M  V30 2279 C 204.079 0.382881 1.90388 0
M  V30 2280 O 203.354 -0.618368 1.84408 0
M  V30 2281 C 203.637 2.87466 2.16876 0
M  V30 2282 C 203.49 4.25041 1.47174 0
M  V30 2283 C 204.809 3.04613 3.17646 0
M  V30 2284 H 201.928 0.603515 0.423011 0
M  V30 2285 H 204.57 1.84494 0.454105 0
M  V30 2286 H 202.72 2.71689 2.777 0
M  V30 2287 H 204.392 4.52527 0.895376 0
M  V30 2288 H 202.635 4.26843 0.773806 0
M  V30 2289 H 203.306 5.06176 2.20204 0
M  V30 2290 H 205.782 3.1923 2.66892 0
M  V30 2291 H 204.658 3.91247 3.8499 0
M  V30 2292 H 204.919 2.17541 3.84874 0
M  V30 2293 N 203.978 -0.674533 1.42435 0
M  V30 2294 C 204.888 -1.81751 1.48337 0
M  V30 2295 C 205.904 -1.69975 0.372099 0
M  V30 2296 O 207.08 -1.91521 0.62304 0
M  V30 2297 C 204.145 -3.17895 1.38361 0
M  V30 2298 C 203.206 -3.41625 2.59982 0
M  V30 2299 C 202.439 -4.71274 2.50473 0
M  V30 2300 O 202.662 -5.49197 1.54075 0
M  V30 2301 O 201.596 -4.96254 3.4061 0
M  V30 2302 H 205.422 -1.79728 2.44809 0
M  V30 2303 H 203.007 -0.830312 1.24202 0
M  V30 2304 H 204.889 -3.99136 1.35161 0
M  V30 2305 H 203.564 -3.20555 0.450144 0
M  V30 2306 H 202.471 -2.60231 2.68757 0
M  V30 2307 H 203.804 -3.43796 3.52229 0
M  V30 2308 N 205.456 -1.28612 -0.910864 0
M  V30 2309 C 206.386 -1.15326 -2.03032 0
M  V30 2310 C 207.367 -0.0502924 -1.70026 0
M  V30 2311 O 208.552 -0.227797 -1.92859 0
M  V30 2312 C 205.682 -0.817343 -3.37545 0
M  V30 2313 C 204.636 -1.8754 -3.84724 0
M  V30 2314 C 203.962 -1.39305 -5.16235 0
M  V30 2315 C 205.262 -3.28244 -4.06267 0
M  V30 2316 H 206.956 -2.08975 -2.14406 0
M  V30 2317 H 204.502 -1.00612 -1.03021 0
M  V30 2318 H 206.455 -0.711151 -4.15356 0
M  V30 2319 H 205.179 0.154846 -3.26233 0
M  V30 2320 H 203.838 -1.97079 -3.09121 0
M  V30 2321 H 203.486 -0.409846 -5.01328 0
M  V30 2322 H 203.186 -2.10057 -5.48771 0
M  V30 2323 H 204.71 -1.30014 -5.96598 0
M  V30 2324 H 206.124 -3.21611 -4.74594 0
M  V30 2325 H 204.521 -3.96855 -4.5014 0
M  V30 2326 H 205.591 -3.72048 -3.10979 0
M  V30 2327 N 206.934 1.1197 -1.10907 0
M  V30 2328 C 208.159 1.87942 -0.877064 0
M  V30 2329 C 208.584 1.79341 0.567314 0
M  V30 2330 O 207.942 1.15184 1.40009 0
M  V30 2331 C 207.99 3.34926 -1.33629 0
M  V30 2332 O 207.094 4.09303 -0.504447 0
M  V30 2333 H 206.435 0.583785 -0.316371 0
M  V30 2334 H 208.965 1.4157 -1.47712 0
M  V30 2335 H 208.975 3.8577 -1.32837 0
M  V30 2336 H 207.65 3.40504 -2.3881 0
M  V30 2337 H 206.227 3.68393 -0.577993 0
M  V30 2338 N 208.412 0.89855 1.29475 0
M  V30 2339 C 209.359 0.373819 2.27753 0
M  V30 2340 C 210.329 -0.543444 1.56958 0
M  V30 2341 O 211.514 -0.468934 1.84948 0
M  V30 2342 C 208.654 -0.393648 3.42848 0
M  V30 2343 C 207.767 0.554379 4.28428 0
M  V30 2344 C 206.902 -0.230026 5.30702 0
M  V30 2345 C 205.941 0.712599 6.07938 0
M  V30 2346 N 205.078 -0.0373283 7.0209 0
M  V30 2347 H 209.918 1.21699 2.72017 0
M  V30 2348 H 207.455 0.611456 1.33789 0
M  V30 2349 H 209.413 -0.85466 4.08352 0
M  V30 2350 H 208.043 -1.20128 2.99615 0
M  V30 2351 H 207.095 1.13391 3.63107 0
M  V30 2352 H 208.407 1.27597 4.82204 0
M  V30 2353 H 207.561 -0.752288 6.02018 0
M  V30 2354 H 206.3 -0.984758 4.77654 0
M  V30 2355 H 205.305 1.24637 5.35486 0
M  V30 2356 H 206.53 1.46664 6.63074 0
M  V30 2357 H 204.476 -0.774348 6.51414 0
M  V30 2358 H 204.393 0.624374 7.53417 0
M  V30 2359 H 205.661 -0.539891 7.77628 0
M  V30 2360 N 209.89 -1.43072 0.660911 0
M  V30 2361 C 211.115 -2.06584 0.183805 0
M  V30 2362 C 211.54 -1.49257 -1.14472 0
M  V30 2363 O 210.898 -0.605528 -1.70889 0
M  V30 2364 C 210.946 -3.60418 0.114434 0
M  V30 2365 O 210.05 -4.01981 -0.921137 0
M  V30 2366 H 209.391 -0.656669 0.0983994 0
M  V30 2367 H 211.921 -1.83447 0.906006 0
M  V30 2368 H 211.931 -4.07946 -0.0663394 0
M  V30 2369 H 210.606 -4.01519 1.08422 0
M  V30 2370 H 209.183 -3.66029 -0.71253 0
M  V30 2371 N 211.368 -0.403325 -1.52352 0
M  V30 2372 C 212.316 0.439752 -2.28405 0
M  V30 2373 C 213.31 1.05089 -1.32863 0
M  V30 2374 O 214.516 0.989759 -1.50345 0
M  V30 2375 H 210.891 0.160587 -0.734653 0
M  V30 2376 H 212.862 -0.222983 -2.97566 0
M  V30 2377 C 211.611 1.54736 -3.11371 0
M  V30 2378 H 210.934 1.08643 -3.84755 0
M  V30 2379 H 212.374 2.1112 -3.67701 0
M  V30 2380 C 210.833 2.51141 -2.24566 0
M  V30 2381 O 211.363 3.54887 -1.88196 0
M  V30 2382 N 209.569 2.21213 -1.8845 0
M  V30 2383 H 209.116 1.36878 -2.18225 0
M  V30 2384 H 209.074 2.85963 -1.30662 0
M  V30 2385 N 212.846 1.57033 -0.133567 0
M  V30 2386 C 214.095 1.94861 0.520768 0
M  V30 2387 C 214.408 1.02012 1.66892 0
M  V30 2388 O 215.614 1.29365 2.38699 0
M  V30 2389 C 214.07 3.46362 0.977809 0
M  V30 2390 C 213.678 4.47773 -0.142674 0
M  V30 2391 C 215.422 3.93083 1.60269 0
M  V30 2392 C 213.329 5.90468 0.331883 0
M  V30 2393 H 212.259 0.727453 0.198315 0
M  V30 2394 H 214.91 1.82227 -0.215759 0
M  V30 2395 H 213.292 3.54282 1.7692 0
M  V30 2396 H 214.466 4.51536 -0.919317 0
M  V30 2397 H 212.781 4.10891 -0.675124 0
M  V30 2398 H 215.378 4.97121 1.96914 0
M  V30 2399 H 215.721 3.33876 2.48662 0
M  V30 2400 H 216.254 3.88025 0.876453 0
M  V30 2401 H 212.993 6.53463 -0.516341 0
M  V30 2402 H 212.513 5.90094 1.07469 0
M  V30 2403 H 214.192 6.42179 0.788332 0
M  V30 2404 N 214.325 -0.140222 1.56975 0
M  V30 2405 C 215.255 -1.17456 2.01808 0
M  V30 2406 C 216.236 -1.44415 0.898794 0
M  V30 2407 O 217.421 -1.5522 1.16707 0
M  V30 2408 C 214.551 -2.50607 2.40444 0
M  V30 2409 C 213.505 -2.38155 3.55621 0
M  V30 2410 C 212.831 -3.76078 3.80091 0
M  V30 2411 C 214.131 -1.85991 4.88062 0
M  V30 2412 H 215.825 -0.801743 2.88466 0
M  V30 2413 H 213.371 -0.38422 1.38779 0
M  V30 2414 H 215.324 -3.23197 2.7041 0
M  V30 2415 H 214.048 -2.89737 1.50732 0
M  V30 2416 H 212.707 -1.68016 3.25832 0
M  V30 2417 H 212.355 -4.12656 2.87618 0
M  V30 2418 H 212.055 -3.68606 4.57606 0
M  V30 2419 H 213.579 -4.50206 4.12488 0
M  V30 2420 H 214.993 -2.4838 5.16701 0
M  V30 2421 H 213.39 -1.89393 5.6943 0
M  V30 2422 H 214.46 -0.816023 4.77984 0
M  V30 2423 N 215.803 -1.52179 -0.40978 0
M  V30 2424 C 216.733 -1.78435 -1.5061 0
M  V30 2425 C 217.714 -0.635295 -1.57791 0
M  V30 2426 O 218.899 -0.880823 -1.73076 0
M  V30 2427 C 216.029 -1.93444 -2.88439 0
M  V30 2428 C 214.983 -3.09038 -2.96108 0
M  V30 2429 C 214.309 -3.09268 -4.36185 0
M  V30 2430 C 215.609 -4.48508 -2.67652 0
M  V30 2431 H 217.303 -2.70237 -1.28889 0
M  V30 2432 H 214.849 -1.30036 -0.618605 0
M  V30 2433 H 216.802 -2.10394 -3.65119 0
M  V30 2434 H 215.526 -0.983129 -3.11452 0
M  V30 2435 H 214.185 -2.91837 -2.21872 0
M  V30 2436 H 213.833 -2.11861 -4.56206 0
M  V30 2437 H 213.533 -3.86907 -4.42241 0
M  V30 2438 H 215.057 -3.28348 -5.14801 0
M  V30 2439 H 216.471 -4.65918 -3.34056 0
M  V30 2440 H 214.868 -5.28059 -2.85085 0
M  V30 2441 H 215.938 -4.56649 -1.63095 0
M  V30 2442 N 217.281 0.66697 -1.42791 0
M  V30 2443 C 218.53 1.42278 -1.42968 0
M  V30 2444 C 218.843 1.9553 -0.0524489 0
M  V30 2445 O 220.049 2.71414 0.068363 0
M  V30 2446 C 218.505 2.57418 -2.51524 0
M  V30 2447 C 218.113 2.10832 -3.9529 0
M  V30 2448 C 219.857 3.34878 -2.60877 0
M  V30 2449 C 217.764 3.23101 -4.95338 0
M  V30 2450 H 216.694 0.534533 -0.531781 0
M  V30 2451 H 219.345 0.721302 -1.68729 0
M  V30 2452 H 217.727 3.29971 -2.18941 0
M  V30 2453 H 218.901 1.4538 -4.37266 0
M  V30 2454 H 217.216 1.46289 -3.89857 0
M  V30 2455 H 219.813 4.18505 -3.32802 0
M  V30 2456 H 220.156 3.81993 -1.6549 0
M  V30 2457 H 220.689 2.69398 -2.92693 0
M  V30 2458 H 217.428 2.80969 -5.9223 0
M  V30 2459 H 216.948 3.87309 -4.57987 0
M  V30 2460 H 218.627 3.88447 -5.17415 0
M  V30 2461 N 218.759 1.29093 0.90403 0
M  V30 2462 C 220.007 1.16583 1.65085 0
M  V30 2463 C 220.328 -0.283933 1.92922 0
M  V30 2464 O 219.598 -1.19509 1.55224 0
M  V30 2465 H 218.178 0.428467 0.611903 0
M  V30 2466 H 220.84 1.61959 1.08422 0
M  V30 2467 H 219.936 1.71266 2.6091 0
M  V30 2468 N 220.237 -1.11381 1.11499 0
M  V30 2469 C 221.648 -1.6465 0.880191 0
M  V30 2470 C 221.999 -1.87199 -0.587434 0
M  V30 2471 O 221.124 -1.60667 -1.44966 0
M  V30 2472 C 221.719 -2.99105 1.59128 0
M  V30 2473 C 220.278 -3.49279 1.40289 0
M  V30 2474 C 219.425 -2.24077 1.63354 0
M  V30 2475 H 222.376 -0.950123 1.27116 0
M  V30 2476 H 222.397 -3.66107 1.03664 0
M  V30 2477 H 221.909 -2.82661 2.65941 0
M  V30 2478 H 220.01 -3.70887 0.356888 0
M  V30 2479 H 220.123 -4.2803 2.15238 0
M  V30 2480 H 218.487 -2.31733 1.05698 0
M  V30 2481 H 219.27 -2.10175 2.71443 0
M  V30 2482 N 221.715 -0.905404 -1.28997 0
M  V30 2483 C 222.943 -0.549846 -1.9946 0
M  V30 2484 C 223.358 0.866834 -1.67724 0
M  V30 2485 O 222.715 1.57298 -0.925404 0
M  V30 2486 C 222.766 -0.739387 -3.53858 0
M  V30 2487 O 222.487 -2.10031 -3.84472 0
M  V30 2488 C 223.988 -0.389541 -4.41585 0
M  V30 2489 H 221.208 -0.210429 -0.637151 0
M  V30 2490 H 223.752 -1.21632 -1.64396 0
M  V30 2491 H 221.907 -0.120023 -3.87214 0
M  V30 2492 H 222.321 -2.13385 -4.79132 0
M  V30 2493 H 223.795 -0.572972 -5.49018 0
M  V30 2494 H 224.272 0.673756 -4.34001 0
M  V30 2495 H 224.878 -0.986089 -4.1371 0
M  V30 2496 N 223.193 1.4272 -0.668489 0
M  V30 2497 C 224.441 2.01226 -0.187769 0
M  V30 2498 C 224.762 1.53092 1.2078 0
M  V30 2499 O 224.032 0.74993 1.80977 0
M  V30 2500 H 222.612 0.744041 -0.0664272 0
M  V30 2501 H 225.274 1.74723 -0.863583 0
M  V30 2502 H 224.37 3.11556 -0.184166 0
M  V30 2503 N 224.671 0.411399 1.52136 0
M  V30 2504 C 225.896 -0.165538 2.06738 0
M  V30 2505 C 226.321 -1.379 1.27926 0
M  V30 2506 O 225.679 -1.78628 0.310114 0
M  V30 2507 C 225.727 -0.492124 3.57226 0
M  V30 2508 O 224.831 -1.58276 3.80818 0
M  V30 2509 H 224.172 -0.0132132 0.663869 0
M  V30 2510 H 226.702 0.585253 1.96051 0
M  V30 2511 H 226.712 -0.750104 4.01045 0
M  V30 2512 H 225.387 0.394922 4.14021 0
M  V30 2513 H 223.964 -1.31677 3.48877 0
M  V30 2514 N 226.149 -1.5696 0.141893 0
M  V30 2515 C 227.397 -1.95573 -0.509484 0
M  V30 2516 C 227.718 -1.02746 -1.65736 0
M  V30 2517 O 226.988 -0.0880311 -1.95702 0
M  V30 2518 H 225.568 -0.722115 -0.191205 0
M  V30 2519 H 228.23 -1.93697 0.216196 0
M  V30 2520 H 227.326 -2.99171 -0.889 0
M  V30 2521 N 227.627 0.131896 -1.57047 0
M  V30 2522 C 228.574 1.16236 -1.99393 0
M  V30 2523 C 229.544 1.41863 -0.863943 0
M  V30 2524 O 230.729 1.53946 -1.12718 0
M  V30 2525 C 227.869 2.48708 -2.39245 0
M  V30 2526 C 226.982 2.30127 -3.65603 0
M  V30 2527 C 226.117 3.55738 -3.94492 0
M  V30 2528 C 225.156 3.32259 -5.14073 0
M  V30 2529 N 224.293 4.50039 -5.38896 0
M  V30 2530 H 229.133 0.794251 -2.87221 0
M  V30 2531 H 226.67 0.380707 -1.42088 0
M  V30 2532 H 228.628 3.25969 -2.60384 0
M  V30 2533 H 227.258 2.83437 -1.54478 0
M  V30 2534 H 226.31 1.43845 -3.52154 0
M  V30 2535 H 227.622 2.08746 -4.5302 0
M  V30 2536 H 226.776 4.41423 -4.1621 0
M  V30 2537 H 225.515 3.80138 -3.05526 0
M  V30 2538 H 224.52 2.44963 -4.92212 0
M  V30 2539 H 225.745 3.09242 -6.04604 0
M  V30 2540 H 223.691 4.74584 -4.52886 0
M  V30 2541 H 223.608 4.31716 -6.2061 0
M  V30 2542 H 224.876 5.36895 -5.65123 0
M  V30 2543 N 229.106 1.52395 0.401703 0
M  V30 2544 C 230.334 1.70676 1.16949 0
M  V30 2545 C 230.749 0.419503 1.8408 0
M  V30 2546 O 230.106 -0.605061 1.72178 0
M  V30 2547 C 230.157 2.84753 2.22706 0
M  V30 2548 O 229.878 4.08495 1.58314 0
M  V30 2549 C 231.379 3.14608 3.12309 0
M  V30 2550 H 228.599 0.571787 0.351142 0
M  V30 2551 H 231.143 1.98987 0.471652 0
M  V30 2552 H 229.298 2.58941 2.88147 0
M  V30 2553 H 229.712 4.72117 2.28485 0
M  V30 2554 H 231.186 3.97923 3.82572 0
M  V30 2555 H 231.663 2.28464 3.75101 0
M  V30 2556 H 232.269 3.42212 2.52529 0
M  V30 2557 N 230.584 -0.659388 1.43143 0
M  V30 2558 C 231.514 -1.78422 1.50625 0
M  V30 2559 C 232.495 -1.66216 0.361443 0
M  V30 2560 O 233.68 -1.85404 0.577834 0
M  V30 2561 C 230.81 -3.16815 1.42287 0
M  V30 2562 C 229.764 -3.43777 2.54954 0
M  V30 2563 C 229.09 -4.81905 2.31671 0
M  V30 2564 C 230.39 -3.39134 3.97222 0
M  V30 2565 H 232.084 -1.72417 2.44771 0
M  V30 2566 H 229.63 -0.828084 1.17808 0
M  V30 2567 H 231.583 -3.95253 1.46127 0
M  V30 2568 H 230.307 -3.23534 0.446435 0
M  V30 2569 H 228.966 -2.67707 2.50457 0
M  V30 2570 H 228.614 -4.85294 1.32284 0
M  V30 2571 H 228.314 -5.00906 3.07192 0
M  V30 2572 H 229.838 -5.62609 2.37284 0
M  V30 2573 H 231.252 -4.07518 4.03239 0
M  V30 2574 H 229.649 -3.69671 4.72719 0
M  V30 2575 H 230.719 -2.37426 4.22797 0
M  V30 2576 N 232.062 -1.29571 -0.897171 0
M  V30 2577 C 232.995 -1.0924 -2.00354 0
M  V30 2578 C 233.973 -0.00354011 -1.626 0
M  V30 2579 O 235.157 -0.15473 -1.87864 0
M  V30 2580 C 232.284 -0.66352 -3.32137 0
M  V30 2581 C 231.33 -1.75146 -3.88878 0
M  V30 2582 S 232.163 -3.35124 -4.17674 0
M  V30 2583 C 233.319 -2.9411 -5.52494 0
M  V30 2584 H 233.552 -2.02907 -2.17292 0
M  V30 2585 H 231.085 -1.13746 -1.04408 0
M  V30 2586 H 233.043 -0.422791 -4.08317 0
M  V30 2587 H 231.704 0.253588 -3.13075 0
M  V30 2588 H 230.897 -1.40337 -4.84068 0
M  V30 2589 H 230.499 -1.94584 -3.19395 0
M  V30 2590 H 232.791 -2.41312 -6.33068 0
M  V30 2591 H 233.734 -3.88161 -5.9223 0
M  V30 2592 H 234.142 -2.32332 -5.14473 0
M  V30 2593 N 233.54 1.10788 -1.12088 0
M  V30 2594 C 234.503 2.15207 -0.788577 0
M  V30 2595 C 235.503 1.59609 0.195317 0
M  V30 2596 O 236.693 1.74174 -0.0300193 0
M  V30 2597 C 233.825 3.4047 -0.171174 0
M  V30 2598 H 235.018 2.46116 -1.71368 0
M  V30 2599 H 232.571 1.26089 -0.923652 0
M  V30 2600 H 233.306 3.15176 0.763832 0
M  V30 2601 H 233.091 3.82109 -0.879514 0
M  V30 2602 H 234.581 4.17576 0.04496 0
M  V30 2603 N 235.018 0.912232 1.28515 0
M  V30 2604 C 235.95 0.35676 2.26406 0
M  V30 2605 C 236.963 -0.503933 1.54804 0
M  V30 2606 O 238.152 -0.319059 1.75625 0
M  V30 2607 C 235.252 -0.508825 3.35058 0
M  V30 2608 C 234.425 0.329007 4.36161 0
M  V30 2609 C 233.484 -0.471422 5.24084 0
M  V30 2610 O 232.51 0.115482 5.69083 0
M  V30 2611 N 233.712 -1.77479 5.52704 0
M  V30 2612 H 236.477 1.19818 2.74707 0
M  V30 2613 H 234.038 0.778022 1.4198 0
M  V30 2614 H 236.03 -1.051 3.90815 0
M  V30 2615 H 234.6 -1.25095 2.86478 0
M  V30 2616 H 233.82 1.05256 3.79888 0
M  V30 2617 H 235.108 0.90234 5.00735 0
M  V30 2618 H 234.506 -2.27417 5.17975 0
M  V30 2619 H 233.063 -2.26382 6.11224 0
M  V30 2620 N 236.496 -1.42363 0.676048 0
M  V30 2621 C 237.724 -2.05859 0.207268 0
M  V30 2622 C 238.139 -1.50796 -1.13605 0
M  V30 2623 O 237.496 -0.648265 -1.70598 0
M  V30 2624 C 237.547 -3.61248 0.134975 0
M  V30 2625 O 237.268 -4.1427 1.42521 0
M  V30 2626 C 238.769 -4.41859 -0.357151 0
M  V30 2627 H 235.989 -0.663431 0.100503 0
M  V30 2628 H 238.533 -1.82479 0.923136 0
M  V30 2629 H 236.688 -3.83735 -0.531588 0
M  V30 2630 H 237.102 -5.0815 1.29939 0
M  V30 2631 H 238.576 -5.50847 -0.356641 0
M  V30 2632 H 239.053 -4.16536 -1.39264 0
M  V30 2633 H 239.659 -4.24392 0.27772 0
M  V30 2634 N 237.974 -0.419461 -1.51915 0
M  V30 2635 C 238.904 0.391813 -2.30189 0
M  V30 2636 C 239.885 1.03699 -1.34836 0
M  V30 2637 O 241.07 1.04403 -1.63748 0
M  V30 2638 C 238.2 1.50312 -3.13087 0
M  V30 2639 C 237.154 0.9824 -4.16573 0
M  V30 2640 C 236.48 2.18809 -4.8788 0
M  V30 2641 C 237.78 0.0292356 -5.22292 0
M  V30 2642 H 239.474 -0.26135 -2.98257 0
M  V30 2643 H 237.02 -0.127134 -1.43438 0
M  V30 2644 H 238.973 2.07773 -3.66617 0
M  V30 2645 H 237.697 2.18431 -2.42807 0
M  V30 2646 H 236.356 0.430119 -3.64068 0
M  V30 2647 H 236.004 2.85507 -4.14119 0
M  V30 2648 H 235.704 1.84615 -5.57845 0
M  V30 2649 H 237.228 2.76858 -5.44226 0
M  V30 2650 H 238.642 0.512976 -5.71 0
M  V30 2651 H 237.039 -0.2244 -5.9968 0
M  V30 2652 H 238.109 -0.912931 -4.76228 0
M  V30 2653 N 239.452 1.56882 -0.150215 0
M  V30 2654 C 240.415 2.1573 0.774157 0
M  V30 2655 C 241.415 1.0999 1.17298 0
M  V30 2656 O 242.605 1.35613 1.09338 0
M  V30 2657 C 239.737 2.72302 2.05096 0
M  V30 2658 H 240.93 2.98752 0.262201 0
M  V30 2659 H 238.483 1.55985 0.099248 0
M  V30 2660 H 239.218 1.92956 2.6065 0
M  V30 2661 H 239.003 3.49665 1.77416 0
M  V30 2662 H 240.493 3.17632 2.71109 0
M  V30 2663 N 240.93 -0.123565 1.57115 0
M  V30 2664 C 241.877 -1.15177 2.00007 0
M  V30 2665 C 242.847 -1.41403 0.871454 0
M  V30 2666 O 244.032 -1.53346 1.13533 0
M  V30 2667 C 241.172 -2.47436 2.40561 0
M  V30 2668 C 240.285 -2.28184 3.66819 0
M  V30 2669 C 239.42 -3.53641 3.96373 0
M  V30 2670 C 238.459 -3.29528 5.15827 0
M  V30 2671 N 237.596 -4.47175 5.41275 0
M  V30 2672 H 242.436 -0.779008 2.87638 0
M  V30 2673 H 239.973 -0.373166 1.42288 0
M  V30 2674 H 241.931 -3.24584 2.62109 0
M  V30 2675 H 240.561 -2.82614 1.55978 0
M  V30 2676 H 239.613 -1.41976 3.52912 0
M  V30 2677 H 240.925 -2.0634 4.5412 0
M  V30 2678 H 240.079 -4.39209 4.18545 0
M  V30 2679 H 238.818 -3.78512 3.07538 0
M  V30 2680 H 237.823 -2.42349 4.93505 0
M  V30 2681 H 239.048 -3.06031 6.06236 0
M  V30 2682 H 236.994 -4.72175 4.55397 0
M  V30 2683 H 236.911 -4.28419 6.22891 0
M  V30 2684 H 238.179 -5.3389 5.67963 0
M  V30 2685 N 242.408 -1.52605 -0.393616 0
M  V30 2686 C 243.358 -1.73436 -1.48 0
M  V30 2687 C 244.342 -0.588386 -1.49756 0
M  V30 2688 O 245.534 -0.846047 -1.5547 0
M  V30 2689 C 242.663 -1.90247 -2.85764 0
M  V30 2690 C 241.749 -3.10763 -2.88595 0
M  V30 2691 N 242.14 -4.33196 -2.61103 0
M  V30 2692 C 240.438 -3.10914 -3.19763 0
M  V30 2693 C 241.139 -5.1477 -2.70899 0
M  V30 2694 N 240.115 -4.50356 -3.04435 0
M  V30 2695 H 243.917 -2.65727 -1.25563 0
M  V30 2696 H 241.431 -1.5085 -0.601513 0
M  V30 2697 H 243.428 -2.03291 -3.63976 0
M  V30 2698 H 242.088 -0.991663 -3.09186 0
M  V30 2699 H 243.099 -4.61408 -2.35209 0
M  V30 2700 H 239.776 -2.29626 -3.4868 0
M  V30 2701 H 241.166 -6.22355 -2.53227 0
M  V30 2702 N 243.887 0.651787 -1.4349 0
M  V30 2703 C 244.817 1.77621 -1.51569 0
M  V30 2704 C 245.798 1.66022 -0.370253 0
M  V30 2705 O 246.983 1.85095 -0.587658 0
M  V30 2706 C 244.113 3.16056 -1.43966 0
M  V30 2707 C 243.067 3.4242 -2.56774 0
M  V30 2708 C 242.393 4.8067 -2.34223 0
M  V30 2709 C 243.693 3.37023 -3.99015 0
M  V30 2710 H 245.387 1.71117 -2.45681 0
M  V30 2711 H 242.933 0.821825 -1.18246 0
M  V30 2712 H 244.886 3.94472 -1.48221 0
M  V30 2713 H 243.61 3.23293 -0.463586 0
M  V30 2714 H 242.269 2.66375 -2.51873 0
M  V30 2715 H 241.917 4.84585 -1.34856 0
M  V30 2716 H 241.617 4.9927 -3.09844 0
M  V30 2717 H 243.141 5.61342 -2.40265 0
M  V30 2718 H 244.555 4.05374 -4.05395 0
M  V30 2719 H 242.952 3.67159 -4.74673 0
M  V30 2720 H 244.022 2.3518 -4.2405 0
M  V30 2721 N 245.365 1.30045 0.890287 0
M  V30 2722 C 246.642 1.09227 1.62262 0
M  V30 2723 C 247.022 -0.360305 2.08002 0
M  V30 2724 O 246.37 -1.35084 1.84295 0
M  V30 2725 C 246.58 2.08835 2.79623 0
M  V30 2726 C 247.928 2.40266 3.50082 0
M  V30 2727 O 248.952 2.07104 2.89804 0
M  V30 2728 O 247.811 2.96967 4.58773 0
M  V30 2729 H 244.905 0.419132 0.712922 0
M  V30 2730 H 247.451 1.41451 0.937529 0
M  V30 2731 H 246.223 3.06633 2.43089 0
M  V30 2732 H 245.846 1.77397 3.55832 0
M  V30 2733 N 246.843 -1.10192 1.12674 0
M  V30 2734 C 248.092 -1.81573 0.8783 0
M  V30 2735 C 248.405 -1.86249 -0.597557 0
M  V30 2736 O 249.611 -2.5386 -0.962681 0
M  V30 2737 C 248.067 -3.26149 1.52167 0
M  V30 2738 C 247.675 -3.29763 3.03249 0
M  V30 2739 C 249.419 -4.0234 1.3536 0
M  V30 2740 C 247.326 -4.68815 3.60508 0
M  V30 2741 H 246.256 -0.680394 0.324931 0
M  V30 2742 H 248.907 -1.23902 1.35353 0
M  V30 2743 H 247.289 -3.83832 0.974104 0
M  V30 2744 H 248.463 -2.8189 3.6452 0
M  V30 2745 H 246.778 -2.67059 3.19481 0
M  V30 2746 H 249.375 -5.05058 1.75559 0
M  V30 2747 H 249.718 -4.15235 0.297554 0
M  V30 2748 H 250.251 -3.51079 1.87052 0
M  V30 2749 H 246.99 -4.61121 4.65884 0
M  V30 2750 H 246.51 -5.17045 3.04014 0
M  V30 2751 H 248.189 -5.37785 3.59717 0
M  V30 2752 N 248.321 -0.919034 -1.28029 0
M  V30 2753 C 249.732 -0.600735 -1.76771 0
M  V30 2754 C 250.083 0.884024 -1.75156 0
M  V30 2755 O 249.208 1.69163 -1.34956 0
M  V30 2756 C 249.803 -1.08372 -3.21 0
M  V30 2757 C 248.362 -0.816248 -3.67443 0
M  V30 2758 C 247.509 -1.24742 -2.47658 0
M  V30 2759 H 250.46 -1.09974 -1.14418 0
M  V30 2760 H 250.481 -0.427512 -3.78091 0
M  V30 2761 H 249.993 -2.16437 -3.22144 0
M  V30 2762 H 248.094 0.250968 -3.71754 0
M  V30 2763 H 248.207 -1.4277 -4.57333 0
M  V30 2764 H 246.571 -0.666083 -2.45836 0
M  V30 2765 H 247.354 -2.33653 -2.51518 0
M  V30 2766 N 249.799 1.42003 -0.683588 0
M  V30 2767 C 251.048 2.00638 -0.206681 0
M  V30 2768 C 251.361 1.5472 1.19671 0
M  V30 2769 O 252.567 2.05833 1.77045 0
M  V30 2770 C 251.023 3.58487 -0.318632 0
M  V30 2771 C 250.631 4.1339 -1.72663 0
M  V30 2772 C 252.375 4.24384 0.0991141 0
M  V30 2773 C 250.282 5.63633 -1.79087 0
M  V30 2774 H 249.212 0.750408 -0.0735107 0
M  V30 2775 H 251.863 1.62624 -0.850048 0
M  V30 2776 H 250.245 3.94047 0.392781 0
M  V30 2777 H 251.419 3.89273 -2.46583 0
M  V30 2778 H 249.734 3.59976 -2.09299 0
M  V30 2779 H 252.331 5.34652 0.0713833 0
M  V30 2780 H 252.674 4.00505 1.13586 0
M  V30 2781 H 253.207 3.93816 -0.561599 0
M  V30 2782 H 249.946 5.92323 -2.80774 0
M  V30 2783 H 249.466 5.89714 -1.09535 0
M  V30 2784 H 251.145 6.28201 -1.5483 0
M  V30 2785 N 251.277 0.427512 1.51691 0
M  V30 2786 C 252.24 -0.377132 2.26076 0
M  V30 2787 C 253.24 -0.958089 1.29141 0
M  V30 2788 O 254.43 -0.83408 1.52934 0
M  V30 2789 C 251.562 -1.53262 3.04506 0
M  V30 2790 H 252.755 0.27464 2.9864 0
M  V30 2791 H 250.308 0.180445 1.55255 0
M  V30 2792 H 251.043 -2.22072 2.36335 0
M  V30 2793 H 250.828 -1.12232 3.75694 0
M  V30 2794 H 252.318 -2.10135 3.60878 0
M  V30 2795 N 252.755 -1.56801 0.158532 0
M  V30 2796 C 254.004 -1.95665 -0.489702 0
M  V30 2797 C 254.317 -1.04654 -1.65248 0
M  V30 2798 O 255.523 -1.33146 -2.3661 0
M  V30 2799 C 253.979 -3.47874 -0.922582 0
M  V30 2800 C 253.587 -4.47489 0.213893 0
M  V30 2801 C 255.331 -3.95583 -1.53996 0
M  V30 2802 C 253.238 -5.90921 -0.237903 0
M  V30 2803 H 252.168 -0.730516 -0.186716 0
M  V30 2804 H 254.819 -1.81861 0.244722 0
M  V30 2805 H 253.201 -3.57051 -1.71261 0
M  V30 2806 H 254.375 -4.50017 0.991036 0
M  V30 2807 H 252.69 -4.09764 0.740407 0
M  V30 2808 H 255.287 -5.0019 -1.8898 0
M  V30 2809 H 255.63 -3.37789 -2.43319 0
M  V30 2810 H 256.163 -3.8937 -0.814611 0
M  V30 2811 H 252.902 -6.52559 0.620236 0
M  V30 2812 H 252.422 -5.91729 -0.980676 0
M  V30 2813 H 254.101 -6.43352 -0.686067 0
M  V30 2814 N 254.233 0.115231 -1.57178 0
M  V30 2815 C 255.458 0.840354 -1.89612 0
M  V30 2816 C 255.883 1.72464 -0.750845 0
M  V30 2817 O 255.241 1.78826 0.298478 0
M  V30 2818 C 255.289 1.64654 -3.20814 0
M  V30 2819 O 254.393 2.7538 -3.06985 0
M  V30 2820 H 253.734 0.232158 -0.622092 0
M  V30 2821 H 256.264 0.0964977 -2.04372 0
M  V30 2822 H 256.274 2.03499 -3.53627 0
M  V30 2823 H 254.949 0.997416 -4.03763 0
M  V30 2824 H 253.526 2.3971 -2.85646 0
M  V30 2825 N 255.711 1.52812 0.385517 0
M  V30 2826 C 256.988 1.5861 1.14465 0
M  V30 2827 C 257.368 0.381402 2.07626 0
M  V30 2828 O 256.716 -0.629999 2.19643 0
M  V30 2829 C 256.926 2.92664 1.90128 0
M  V30 2830 C 258.274 3.46526 2.45367 0
M  V30 2831 O 259.298 2.94562 2.0028 0
M  V30 2832 O 258.157 4.37323 3.27736 0
M  V30 2833 H 255.251 0.639855 0.523941 0
M  V30 2834 H 257.797 1.65149 0.390389 0
M  V30 2835 H 256.569 3.71788 1.22022 0
M  V30 2836 H 256.192 2.89527 2.72507 0
M  V30 2837 N 257.189 -0.644168 1.43834 0
M  V30 2838 C 258.152 -1.73857 1.49353 0
M  V30 2839 C 259.152 -1.56315 0.377112 0
M  V30 2840 O 260.342 -1.62048 0.639226 0
M  V30 2841 C 257.474 -3.12819 1.35488 0
M  V30 2842 H 258.667 -1.70342 2.46827 0
M  V30 2843 H 256.22 -0.856652 1.30733 0
M  V30 2844 H 256.955 -3.2194 0.390569 0
M  V30 2845 H 256.74 -3.26958 2.16428 0
M  V30 2846 H 258.23 -3.92606 1.42302 0
M  V30 2847 N 258.668 -1.30515 -0.883378 0
M  V30 2848 C 259.896 -1.22359 -1.66841 0
M  V30 2849 C 260.311 0.213296 -1.87591 0
M  V30 2850 O 259.668 1.14075 -1.42454 0
M  V30 2851 C 259.719 -1.95011 -3.04389 0
M  V30 2852 O 259.44 -3.3309 -2.84575 0
M  V30 2853 C 260.941 -1.93532 -3.98824 0
M  V30 2854 H 258.161 -0.423371 -0.520575 0
M  V30 2855 H 260.705 -1.72167 -1.10357 0
M  V30 2856 H 258.86 -1.48997 -3.57601 0
M  V30 2857 H 259.274 -3.69907 -3.71846 0
M  V30 2858 H 260.748 -2.48902 -4.92699 0
M  V30 2859 H 261.225 -0.914627 -4.29571 0
M  V30 2860 H 261.831 -2.39364 -3.51547 0
M  V30 2861 N 260.146 1.09593 -1.13257 0
M  V30 2862 C 261.371 1.8604 -0.916732 0
M  V30 2863 C 261.796 1.80504 0.529146 0
M  V30 2864 O 261.154 1.18127 1.37534 0
M  V30 2865 C 261.202 3.32017 -1.40703 0
M  V30 2866 O 260.306 4.08141 -0.591153 0
M  V30 2867 H 259.647 0.576943 -0.328683 0
M  V30 2868 H 262.177 1.38405 -1.50682 0
M  V30 2869 H 262.187 3.82865 -1.4099 0
M  V30 2870 H 260.862 3.35361 -2.45979 0
M  V30 2871 H 259.439 3.67084 -0.656005 0
M  V30 2872 N 261.624 0.925811 1.2754 0
M  V30 2873 C 262.554 0.440748 2.29303 0
M  V30 2874 C 263.535 -0.497971 1.62648 0
M  V30 2875 O 264.72 -0.403126 1.8997 0
M  V30 2876 C 261.85 -0.309048 3.45922 0
M  V30 2877 C 260.804 0.54166 4.24559 0
M  V30 2878 C 260.13 -0.337191 5.33636 0
M  V30 2879 C 261.43 1.80516 4.90114 0
M  V30 2880 H 263.124 1.29121 2.70126 0
M  V30 2881 H 260.67 0.622323 1.29858 0
M  V30 2882 H 262.623 -0.659315 4.1621 0
M  V30 2883 H 261.347 -1.19352 3.04011 0
M  V30 2884 H 260.006 0.874609 3.56014 0
M  V30 2885 H 259.654 -1.22056 4.87966 0
M  V30 2886 H 259.354 0.228497 5.87156 0
M  V30 2887 H 260.878 -0.683072 6.06767 0
M  V30 2888 H 262.292 1.52307 5.52698 0
M  V30 2889 H 260.689 2.3142 5.53683 0
M  V30 2890 H 261.759 2.52581 4.13921 0
M  V30 2891 N 263.102 -1.41638 0.69111 0
M  V30 2892 C 264.33 -2.05628 0.22909 0
M  V30 2893 C 264.745 -1.51992 -1.11999 0
M  V30 2894 O 264.102 -0.666322 -1.69901 0
M  V30 2895 C 264.153 -3.61084 0.173283 0
M  V30 2896 O 263.874 -4.12735 1.46907 0
M  V30 2897 C 265.375 -4.42213 -0.310266 0
M  V30 2898 H 262.595 -0.662327 0.107534 0
M  V30 2899 H 265.139 -1.81489 0.942438 0
M  V30 2900 H 263.294 -3.84278 -0.490858 0
M  V30 2901 H 263.708 -5.06743 1.35322 0
M  V30 2902 H 265.182 -5.51194 -0.298196 0
M  V30 2903 H 265.659 -4.1799 -1.34838 0
M  V30 2904 H 266.265 -4.24074 0.322716 0
M  V30 2905 N 264.58 -0.43555 -1.51462 0
M  V30 2906 C 265.49 0.383001 -2.31453 0
M  V30 2907 C 266.506 1.02931 -1.4029 0
M  V30 2908 O 267.682 1.02507 -1.73362 0
M  V30 2909 C 264.747 1.47043 -3.13973 0
M  V30 2910 C 263.808 0.844433 -4.20913 0
M  V30 2911 C 263.041 1.88004 -4.9949 0
M  V30 2912 O 263.264 3.10199 -4.78678 0
M  V30 2913 O 262.198 1.47157 -5.83634 0
M  V30 2914 H 266.024 -0.269964 -3.02498 0
M  V30 2915 H 263.609 -0.19813 -1.4808 0
M  V30 2916 H 265.491 2.10113 -3.65281 0
M  V30 2917 H 264.166 2.10751 -2.45695 0
M  V30 2918 H 263.073 0.175729 -3.73687 0
M  V30 2919 H 264.406 0.250869 -4.9156 0
M  V30 2920 N 266.058 1.56714 -0.166846 0
M  V30 2921 C 267.021 2.16539 0.751232 0
M  V30 2922 C 268.021 1.11228 1.16125 0
M  V30 2923 O 269.211 1.36765 1.07894 0
M  V30 2924 C 266.343 2.74462 2.02196 0
M  V30 2925 H 267.536 2.99013 0.230499 0
M  V30 2926 H 265.089 1.56081 0.0826982 0
M  V30 2927 H 265.824 1.95709 2.58589 0
M  V30 2928 H 265.609 3.51527 1.73698 0
M  V30 2929 H 267.099 3.20489 2.67725 0
M  V30 2930 N 267.536 -0.106894 1.57237 0
M  V30 2931 C 268.784 -0.810921 1.85117 0
M  V30 2932 C 269.105 -1.7984 0.753827 0
M  V30 2933 O 268.375 -1.94649 -0.221056 0
M  V30 2934 H 266.955 -0.302466 0.683025 0
M  V30 2935 H 269.617 -0.0913324 1.94686 0
M  V30 2936 H 268.713 -1.34875 2.81452 0
M  V30 2937 N 269.014 -1.53014 -0.377408 0
M  V30 2938 C 270.244 -1.72265 -1.14054 0
M  V30 2939 C 270.652 -0.44601 -1.83868 0
M  V30 2940 O 269.995 0.590095 -1.73964 0
M  V30 2941 C 270.057 -2.82492 -2.22348 0
M  V30 2942 C 269.721 -4.23233 -1.72402 0
M  V30 2943 C 270.718 -5.05992 -1.19448 0
M  V30 2944 C 268.403 -4.696 -1.78273 0
M  V30 2945 C 270.397 -6.33203 -0.730268 0
M  V30 2946 C 268.084 -5.96792 -1.31464 0
M  V30 2947 C 269.082 -6.78424 -0.789297 0
M  V30 2948 O 268.77 -8.0323 -0.328077 0
M  V30 2949 H 268.502 -0.579873 -0.347453 0
M  V30 2950 H 271.056 -2.00502 -0.445882 0
M  V30 2951 H 269.286 -2.49702 -2.95272 0
M  V30 2952 H 270.975 -2.90034 -2.83963 0
M  V30 2953 H 271.741 -4.71349 -1.14259 0
M  V30 2954 H 267.62 -4.06142 -2.18106 0
M  V30 2955 H 271.164 -6.96868 -0.319542 0
M  V30 2956 H 267.061 -6.30937 -1.36342 0
M  V30 2957 H 267.829 -8.1727 -0.448493 0
M  V30 2958 N 270.492 0.636531 -1.44174 0
M  V30 2959 C 271.738 1.39826 -1.4689 0
M  V30 2960 C 272.071 1.93947 -0.0990585 0
M  V30 2961 O 271.346 1.73325 0.882544 0
M  V30 2962 C 271.629 2.56751 -2.5249 0
M  V30 2963 C 271.482 2.08014 -3.98811 0
M  V30 2964 C 272.801 3.58946 -2.54649 0
M  V30 2965 H 269.92 0.507075 -0.53483 0
M  V30 2966 H 272.562 0.720188 -1.75822 0
M  V30 2967 H 270.712 3.14597 -2.2795 0
M  V30 2968 H 272.384 1.5504 -4.34466 0
M  V30 2969 H 270.627 1.39242 -4.10846 0
M  V30 2970 H 271.298 2.92169 -4.68339 0
M  V30 2971 H 273.774 3.1089 -2.76563 0
M  V30 2972 H 272.65 4.38286 -3.3045 0
M  V30 2973 H 272.911 4.12655 -1.58646 0
M  V30 2974 N 271.97 1.30982 0.876444 0
M  V30 2975 C 273.218 1.20058 1.62575 0
M  V30 2976 C 273.539 -0.242947 1.93481 0
M  V30 2977 O 272.809 -1.1619 1.57724 0
M  V30 2978 H 271.389 0.44135 0.602677 0
M  V30 2979 H 274.051 1.64222 1.04962 0
M  V30 2980 H 273.147 1.76762 2.57219 0
M  V30 2981 N 273.449 -1.08991 1.13837 0
M  V30 2982 C 274.359 -2.19301 0.833333 0
M  V30 2983 C 275.375 -1.73026 -0.183847 0
M  V30 2984 O 276.551 -2.01395 -0.0138092 0
M  V30 2985 C 273.616 -3.45323 0.308651 0
M  V30 2986 C 272.677 -4.06255 1.38764 0
M  V30 2987 C 271.91 -5.26262 0.887896 0
M  V30 2988 O 272.133 -5.69747 -0.27287 0
M  V30 2989 O 271.067 -5.78435 1.66421 0
M  V30 2990 H 274.893 -2.47854 1.75506 0
M  V30 2991 H 272.478 -1.18012 0.916166 0
M  V30 2992 H 274.36 -4.21394 0.0216739 0
M  V30 2993 H 273.035 -3.18362 -0.585431 0
M  V30 2994 H 271.942 -3.318 1.72799 0
M  V30 2995 H 273.275 -4.37452 2.25602 0
M  V30 2996 N 274.927 -0.932562 -1.27047 0
M  V30 2997 C 276.204 -0.49377 -1.89265 0
M  V30 2998 C 276.584 1.02833 -1.8436 0
M  V30 2999 O 275.932 1.88461 -1.29209 0
M  V30 3000 C 276.142 -1.04536 -3.32976 0
M  V30 3001 C 277.49 -1.10879 -4.09867 0
M  V30 3002 O 278.514 -0.995327 -3.42011 0
M  V30 3003 O 277.373 -1.28417 -5.31198 0
M  V30 3004 H 274.467 -0.159596 -0.811454 0
M  V30 3005 H 277.013 -1.02457 -1.3528 0
M  V30 3006 H 275.785 -2.08913 -3.30864 0
M  V30 3007 H 275.408 -0.496494 -3.94488 0
M  V30 3008 N 276.405 1.4127 -0.698611 0
M  V30 3009 C 277.651 2.01478 -0.231207 0
M  V30 3010 C 277.984 1.55215 1.16713 0
M  V30 3011 O 277.259 0.764672 1.78838 0
M  V30 3012 C 277.542 3.58912 -0.292281 0
M  V30 3013 C 277.395 4.15293 -1.72778 0
M  V30 3014 C 278.714 4.38736 0.346194 0
M  V30 3015 H 275.833 0.732025 -0.0854878 0
M  V30 3016 H 278.475 1.67977 -0.887906 0
M  V30 3017 H 276.625 3.87582 0.26686 0
M  V30 3018 H 278.297 3.97486 -2.341 0
M  V30 3019 H 276.54 3.7022 -2.26096 0
M  V30 3020 H 277.211 5.24452 -1.72202 0
M  V30 3021 H 279.687 4.15897 -0.130035 0
M  V30 3022 H 278.563 5.48221 0.272932 0
M  V30 3023 H 278.824 4.18425 1.42734 0
M  V30 3024 N 277.883 0.443576 1.51229 0
M  V30 3025 C 278.793 -0.370721 2.31652 0
M  V30 3026 C 279.809 -1.02186 1.40833 0
M  V30 3027 O 280.985 -1.01586 1.73903 0
M  V30 3028 C 278.05 -1.45376 3.14749 0
M  V30 3029 C 277.111 -0.822099 4.21355 0
M  V30 3030 C 276.344 -1.85353 5.0048 0
M  V30 3031 O 276.567 -3.07656 4.80316 0
M  V30 3032 O 275.501 -1.4406 5.84406 0
M  V30 3033 H 279.327 0.286002 3.0235 0
M  V30 3034 H 276.912 0.20598 1.47973 0
M  V30 3035 H 278.794 -2.08173 3.66391 0
M  V30 3036 H 277.469 -2.09445 2.46809 0
M  V30 3037 H 276.376 -0.155909 3.73775 0
M  V30 3038 H 277.709 -0.224797 4.91686 0
M  V30 3039 N 279.361 -1.56624 0.175154 0
M  V30 3040 C 280.309 -2.19468 -0.770495 0
M  V30 3041 C 281.303 -1.15985 -1.23466 0
M  V30 3042 O 282.509 -1.34176 -1.19987 0
M  V30 3043 H 278.884 -0.703095 -0.266761 0
M  V30 3044 H 280.855 -2.97613 -0.216542 0
M  V30 3045 C 279.604 -2.85264 -1.98796 0
M  V30 3046 H 278.927 -3.64623 -1.63983 0
M  V30 3047 H 280.367 -3.327 -2.62843 0
M  V30 3048 C 278.826 -1.85239 -2.81404 0
M  V30 3049 O 279.356 -1.34024 -3.78682 0
M  V30 3050 N 277.562 -1.53911 -2.46495 0
M  V30 3051 H 277.109 -1.95751 -1.67449 0
M  V30 3052 H 277.067 -0.872382 -3.02054 0
M  V30 3053 N 280.839 0.0985539 -1.57292 0
M  V30 3054 C 282.088 0.801358 -1.85098 0
M  V30 3055 C 282.401 1.80066 -0.763902 0
M  V30 3056 O 283.607 2.55112 -0.928981 0
M  V30 3057 C 282.063 1.47599 -3.28242 0
M  V30 3058 C 281.671 0.516624 -4.45011 0
M  V30 3059 C 283.415 2.16272 -3.65276 0
M  V30 3060 C 281.322 1.19564 -5.79188 0
M  V30 3061 H 280.252 0.303022 -0.69043 0
M  V30 3062 H 282.903 0.0542623 -1.8342 0
M  V30 3063 H 281.285 2.27042 -3.2445 0
M  V30 3064 H 282.459 -0.246065 -4.60143 0
M  V30 3065 H 280.774 -0.064227 -4.1635 0
M  V30 3066 H 283.371 2.67802 -4.62803 0
M  V30 3067 H 283.714 2.95009 -2.93727 0
M  V30 3068 H 284.247 1.43693 -3.70941 0
M  V30 3069 H 280.986 0.449157 -6.53959 0
M  V30 3070 H 280.506 1.92984 -5.67906 0
M  V30 3071 H 282.185 1.7231 -6.23633 0
M  V30 3072 N 282.317 1.53212 0.369288 0
M  V30 3073 C 283.247 1.82365 1.45826 0
M  V30 3074 C 284.228 0.676907 1.56051 0
M  V30 3075 O 285.413 0.926401 1.70679 0
M  V30 3076 C 282.543 2.01023 2.83208 0
M  V30 3077 C 281.497 3.1678 2.8781 0
M  V30 3078 C 280.823 3.20724 4.27832 0
M  V30 3079 C 282.123 4.55447 2.55667 0
M  V30 3080 H 283.817 2.73559 1.21678 0
M  V30 3081 H 281.363 1.3163 0.583911 0
M  V30 3082 H 283.316 2.20001 3.59413 0
M  V30 3083 H 282.04 1.06536 3.08736 0
M  V30 3084 H 280.699 2.97616 2.14056 0
M  V30 3085 H 280.347 2.23882 4.50429 0
M  V30 3086 H 280.047 3.98496 4.31827 0
M  V30 3087 H 281.571 3.41881 5.05915 0
M  V30 3088 H 282.985 4.74611 3.21586 0
M  V30 3089 H 281.382 5.35432 2.70984 0
M  V30 3090 H 282.452 4.60812 1.5093 0
M  V30 3091 N 283.795 -0.628877 1.44509 0
M  V30 3092 C 285.023 -1.41554 1.50897 0
M  V30 3093 C 285.438 -1.8832 0.134564 0
M  V30 3094 O 284.795 -1.60969 -0.859965 0
M  V30 3095 C 284.846 -2.63435 2.47556 0
M  V30 3096 O 284.567 -2.18619 3.79654 0
M  V30 3097 C 286.068 -3.56537 2.63431 0
M  V30 3098 H 283.288 -0.434044 0.511709 0
M  V30 3099 H 285.832 -0.768895 1.89495 0
M  V30 3100 H 283.987 -3.24187 2.12089 0
M  V30 3101 H 284.401 -2.97652 4.31861 0
M  V30 3102 H 285.875 -4.38657 3.35088 0
M  V30 3103 H 286.352 -4.05493 1.68738 0
M  V30 3104 H 286.958 -3.01653 2.9981 0
M  V30 3105 N 285.273 -1.31445 -0.869486 0
M  V30 3106 C 286.689 -1.10113 -1.15531 0
M  V30 3107 C 286.889 0.128087 -2.01092 0
M  V30 3108 O 285.945 0.817276 -2.38908 0
M  V30 3109 C 287.258 -2.37291 -1.84698 0
M  V30 3110 C 288.806 -2.42906 -1.97397 0
M  V30 3111 C 289.281 -3.69967 -2.69979 0
M  V30 3112 N 290.772 -3.70864 -2.77514 0
M  V30 3113 C 291.507 -4.65875 -3.34287 0
M  V30 3114 N 291.003 -5.71242 -3.91988 0
M  V30 3115 N 292.796 -4.53394 -3.3225 0
M  V30 3116 H 284.947 -2.1028 -0.299347 0
M  V30 3117 H 287.21 -0.927683 -0.195214 0
M  V30 3118 H 286.916 -3.27078 -1.29278 0
M  V30 3119 H 286.79 -2.47125 -2.84972 0
M  V30 3120 H 289.177 -1.53588 -2.51982 0
M  V30 3121 H 289.258 -2.37036 -0.961643 0
M  V30 3122 H 288.902 -4.59652 -2.16062 0
M  V30 3123 H 288.832 -3.73103 -3.7162 0
M  V30 3124 H 291.323 -2.94697 -2.36563 0
M  V30 3125 H 291.636 -6.39817 -4.33421 0
M  V30 3126 H 289.981 -5.75015 -3.90362 0
M  V30 3127 H 293.172 -3.70252 -2.8641 0
M  V30 3128 H 293.345 -5.27617 -3.76197 0
M  V30 3129 N 286.751 1.08385 -1.14413 0
M  V30 3130 C 287.681 2.17321 -0.854044 0
M  V30 3131 C 288.662 1.69024 0.191049 0
M  V30 3132 O 289.847 1.94141 0.0476779 0
M  V30 3133 C 286.977 3.45719 -0.330983 0
M  V30 3134 C 285.931 4.07409 -1.31155 0
M  V30 3135 C 285.257 5.30762 -0.64778 0
M  V30 3136 C 286.557 4.48665 -2.67388 0
M  V30 3137 H 288.251 2.41845 -1.76498 0
M  V30 3138 H 285.797 1.16233 -0.850051 0
M  V30 3139 H 287.75 4.21241 -0.115645 0
M  V30 3140 H 286.474 3.2075 0.615381 0
M  V30 3141 H 285.133 3.33919 -1.51306 0
M  V30 3142 H 284.781 5.02078 0.304398 0
M  V30 3143 H 284.481 5.72992 -1.30207 0
M  V30 3144 H 286.005 6.08998 -0.441972 0
M  V30 3145 H 287.419 5.15364 -2.51143 0
M  V30 3146 H 285.816 5.01814 -3.29093 0
M  V30 3147 H 286.886 3.60543 -3.24248 0
M  V30 3148 N 288.23 0.939286 1.26551 0
M  V30 3149 C 289.16 0.465044 2.28822 0
M  V30 3150 C 290.141 -0.480692 1.63167 0
M  V30 3151 O 291.326 -0.382955 1.90387 0
M  V30 3152 C 288.456 -0.27234 3.46231 0
M  V30 3153 C 287.41 0.58666 4.2396 0
M  V30 3154 C 286.736 -0.280573 5.33963 0
M  V30 3155 C 288.036 1.85704 4.88171 0
M  V30 3156 H 289.73 1.31979 2.68741 0
M  V30 3157 H 287.276 0.636061 1.29191 0
M  V30 3158 H 289.229 -0.615133 4.16886 0
M  V30 3159 H 287.953 -1.16121 3.0526 0
M  V30 3160 H 286.612 0.91232 3.55067 0
M  V30 3161 H 286.26 -1.16874 4.89234 0
M  V30 3162 H 285.96 0.29076 5.8688 0
M  V30 3163 H 287.484 -0.618678 6.07458 0
M  V30 3164 H 288.898 1.58161 5.51052 0
M  V30 3165 H 287.295 2.37279 5.51197 0
M  V30 3166 H 288.365 2.56957 4.11219 0
M  V30 3167 N 289.708 -1.40897 0.706093 0
M  V30 3168 C 290.64 -2.29199 0.00815776 0
M  V30 3169 C 291.653 -1.45336 -0.733582 0
M  V30 3170 O 292.842 -1.68727 -0.582537 0
M  V30 3171 C 289.942 -3.23417 -1.01265 0
M  V30 3172 C 289.115 -4.36089 -0.338387 0
M  V30 3173 C 288.174 -5.10811 -1.26326 0
M  V30 3174 O 287.2 -5.64215 -0.751651 0
M  V30 3175 N 288.402 -5.19269 -2.595 0
M  V30 3176 H 291.167 -2.89738 0.766297 0
M  V30 3177 H 288.728 -1.52164 0.55296 0
M  V30 3178 H 290.72 -3.70276 -1.63334 0
M  V30 3179 H 289.29 -2.64112 -1.67223 0
M  V30 3180 H 288.51 -3.91479 0.462352 0
M  V30 3181 H 289.798 -5.08634 0.130031 0
M  V30 3182 H 289.196 -4.77347 -3.03573 0
M  V30 3183 H 287.753 -5.69667 -3.16737 0
M  V30 3184 N 291.186 -0.45159 -1.50991 0
M  V30 3185 C 292.149 0.341117 -2.26647 0
M  V30 3186 C 293.149 0.937422 -1.30649 0
M  V30 3187 O 294.339 0.809644 -1.54241 0
M  V30 3188 C 291.471 1.48398 -3.06905 0
M  V30 3189 H 292.664 -0.322117 -2.98165 0
M  V30 3190 H 290.217 -0.205122 -1.54948 0
M  V30 3191 H 290.952 2.18284 -2.39838 0
M  V30 3192 H 290.737 1.06241 -3.77432 0
M  V30 3193 H 292.227 2.04367 -3.64176 0
M  V30 3194 N 292.664 1.56529 -0.183458 0
M  V30 3195 C 293.889 2.02064 0.467428 0
M  V30 3196 C 294.314 1.06282 1.55196 0
M  V30 3197 O 293.672 0.0443565 1.81246 0
M  V30 3198 C 293.72 3.46122 1.01153 0
M  V30 3199 O 292.824 3.53437 2.12499 0
M  V30 3200 H 292.165 0.654726 0.110588 0
M  V30 3201 H 294.695 2.02521 -0.290917 0
M  V30 3202 H 294.705 3.85676 1.33108 0
M  V30 3203 H 293.38 4.15331 0.217533 0
M  V30 3204 H 291.957 3.2575 1.81497 0
M  V30 3205 N 294.142 -0.090211 1.57342 0
M  V30 3206 C 295.419 -0.824761 1.77361 0
M  V30 3207 C 295.799 -1.96698 0.76637 0
M  V30 3208 O 295.147 -2.27586 -0.204179 0
M  V30 3209 C 295.357 -1.31481 3.23286 0
M  V30 3210 C 296.705 -1.75563 3.86604 0
M  V30 3211 O 297.729 -1.41093 3.27065 0
M  V30 3212 O 296.588 -2.39317 4.91314 0
M  V30 3213 H 293.682 -0.393776 0.727234 0
M  V30 3214 H 296.228 -0.0717138 1.69548 0
M  V30 3215 H 295 -0.496671 3.88135 0
M  V30 3216 H 294.623 -2.12973 3.35751 0
M  V30 3217 N 295.62 -1.53406 -0.361157 0
M  V30 3218 C 296.866 -1.70999 -1.1014 0
M  V30 3219 C 297.221 -0.458425 -1.86859 0
M  V30 3220 O 296.514 0.548654 -1.83577 0
M  V30 3221 C 296.708 -2.90211 -2.08596 0
M  V30 3222 C 296.537 -4.26841 -1.41553 0
M  V30 3223 C 295.307 -4.91621 -1.16778 0
M  V30 3224 C 297.505 -5.07212 -0.850915 0
M  V30 3225 N 295.487 -6.12164 -0.461312 0
M  V30 3226 C 296.858 -6.19394 -0.274046 0
M  V30 3227 C 298.913 -4.92218 -0.750036 0
M  V30 3228 C 297.616 -7.18221 0.393868 0
M  V30 3229 C 299.642 -5.91322 -0.095894 0
M  V30 3230 C 299.004 -7.0283 0.470081 0
M  V30 3231 H 295.103 -0.678939 -0.388028 0
M  V30 3232 H 297.687 -1.90811 -0.38722 0
M  V30 3233 H 295.858 -2.71931 -2.77323 0
M  V30 3234 H 297.59 -2.96606 -2.7533 0
M  V30 3235 H 294.345 -4.50849 -1.45024 0
M  V30 3236 H 294.769 -6.76888 -0.123312 0
M  V30 3237 H 299.411 -4.06192 -1.17337 0
M  V30 3238 H 297.129 -8.03835 0.82914 0
M  V30 3239 H 300.715 -5.81797 -0.0187075 0
M  V30 3240 H 299.595 -7.782 0.968241 0
M  V30 3241 N 297.098 0.621204 -1.44841 0
M  V30 3242 C 298.046 1.75385 -1.52784 0
M  V30 3243 C 299.04 1.64639 -0.398779 0
M  V30 3244 O 300.246 1.70598 -0.574137 0
M  V30 3245 H 296.621 0.579193 -0.479625 0
M  V30 3246 H 298.592 1.6581 -2.48092 0
M  V30 3247 C 297.341 3.13742 -1.4987 0
M  V30 3248 H 296.664 3.22663 -2.36069 0
M  V30 3249 H 298.104 3.92861 -1.59487 0
M  V30 3250 C 296.563 3.36175 -0.220973 0
M  V30 3251 O 297.093 3.95469 0.704782 0
M  V30 3252 N 295.299 2.90348 -0.120963 0
M  V30 3253 H 294.846 2.42278 -0.875162 0
M  V30 3254 H 294.804 3.05732 0.733168 0
M  V30 3255 N 298.576 1.31904 0.862503 0
M  V30 3256 C 299.822 1.22197 1.61851 0
M  V30 3257 C 300.155 -0.217641 1.92977 0
M  V30 3258 O 299.43 -1.15264 1.56666 0
M  V30 3259 C 299.713 2.07378 2.94391 0
M  V30 3260 C 299.566 3.59678 2.70096 0
M  V30 3261 C 300.885 1.92891 3.95577 0
M  V30 3262 H 298.004 0.445255 0.587296 0
M  V30 3263 H 300.646 1.6177 0.99651 0
M  V30 3264 H 298.796 1.73758 3.47477 0
M  V30 3265 H 300.468 4.03472 2.23625 0
M  V30 3266 H 298.711 3.82735 2.04197 0
M  V30 3267 H 299.382 4.14595 3.64438 0
M  V30 3268 H 301.858 2.22327 3.51724 0
M  V30 3269 H 300.734 2.54781 4.86187 0
M  V30 3270 H 300.995 0.894315 4.3296 0
M  V30 3271 N 300.054 -1.07777 1.14986 0
M  V30 3272 C 300.986 -2.14769 0.800436 0
M  V30 3273 C 301.999 -1.61739 -0.185595 0
M  V30 3274 O 303.188 -1.78462 0.0370358 0
M  V30 3275 C 300.288 -3.38481 0.168533 0
M  V30 3276 C 299.461 -4.20876 1.1909 0
M  V30 3277 C 298.52 -5.22976 0.581575 0
M  V30 3278 O 297.546 -5.55388 1.24633 0
M  V30 3279 N 298.748 -5.76976 -0.638706 0
M  V30 3280 H 301.513 -2.45348 1.72118 0
M  V30 3281 H 299.074 -1.23645 1.04515 0
M  V30 3282 H 301.066 -4.03916 -0.251764 0
M  V30 3283 H 299.636 -3.05651 -0.655467 0
M  V30 3284 H 298.856 -3.51322 1.78791 0
M  V30 3285 H 300.144 -4.7274 1.88133 0
M  V30 3286 H 299.542 -5.52886 -1.19723 0
M  V30 3287 H 298.099 -6.44061 -1.00142 0
M  V30 3288 N 301.532 -0.945985 -1.26051 0
M  V30 3289 C 302.479 -0.45809 -2.26208 0
M  V30 3290 C 303.449 0.484816 -1.58867 0
M  V30 3291 O 304.634 0.399969 -1.86561 0
M  V30 3292 C 301.774 0.266131 -3.44072 0
M  V30 3293 C 300.887 -0.713005 -4.26075 0
M  V30 3294 C 300.022 0.0329013 -5.3119 0
M  V30 3295 C 299.061 -0.93774 -6.04874 0
M  V30 3296 N 298.198 -0.223274 -7.01745 0
M  V30 3297 H 303.038 -1.3171 -2.67313 0
M  V30 3298 H 300.575 -0.66069 -1.31428 0
M  V30 3299 H 302.533 0.702514 -4.11243 0
M  V30 3300 H 301.163 1.08925 -3.03867 0
M  V30 3301 H 300.215 -1.26789 -3.58648 0
M  V30 3302 H 301.527 -1.45406 -4.77136 0
M  V30 3303 H 300.681 0.528335 -6.04395 0
M  V30 3304 H 299.42 0.806801 -4.8098 0
M  V30 3305 H 298.425 -1.44425 -5.30492 0
M  V30 3306 H 299.65 -1.71172 -6.57173 0
M  V30 3307 H 297.596 0.532046 -6.53839 0
M  V30 3308 H 297.513 -0.90357 -7.50581 0
M  V30 3309 H 298.781 0.250907 -7.79096 0
M  V30 3310 N 303.011 1.40521 -0.713556 0
M  V30 3311 C 303.974 2.29098 -0.0684347 0
M  V30 3312 C 304.974 1.45268 0.689472 0
M  V30 3313 O 306.164 1.66205 0.521677 0
M  V30 3314 C 303.296 3.28446 0.913024 0
M  V30 3315 H 304.489 2.87645 -0.84855 0
M  V30 3316 H 302.042 1.48809 -0.47809 0
M  V30 3317 H 302.777 2.74913 1.72027 0
M  V30 3318 H 302.562 3.90327 0.372472 0
M  V30 3319 H 304.052 3.94777 1.36165 0
M  V30 3320 N 304.489 0.459591 1.5075 0
M  V30 3321 C 305.421 -0.37665 2.26084 0
M  V30 3322 C 306.434 -0.967109 1.30961 0
M  V30 3323 O 307.623 -0.857468 1.56556 0
M  V30 3324 C 304.723 -1.54112 3.01832 0
M  V30 3325 C 303.896 -1.06553 4.24223 0
M  V30 3326 C 302.955 -2.1027 4.82362 0
M  V30 3327 O 301.981 -1.68798 5.43595 0
M  V30 3328 N 303.183 -3.42974 4.68347 0
M  V30 3329 H 305.948 0.269124 2.98489 0
M  V30 3330 H 303.509 0.28972 1.59287 0
M  V30 3331 H 305.501 -2.23165 3.37608 0
M  V30 3332 H 304.071 -2.0918 2.32298 0
M  V30 3333 H 303.291 -0.201274 3.93686 0
M  V30 3334 H 304.579 -0.725516 5.03601 0
M  V30 3335 H 303.977 -3.79385 4.19623 0
M  V30 3336 H 302.534 -4.07858 5.08424 0
M  V30 3337 N 305.967 -1.56429 0.191757 0
M  V30 3338 C 306.914 -2.18936 -0.730454 0
M  V30 3339 C 307.884 -1.13557 -1.21219 0
M  V30 3340 O 309.069 -1.41794 -1.27668 0
M  V30 3341 C 306.209 -2.85013 -1.9458 0
M  V30 3342 C 305.322 -4.04909 -1.50574 0
M  V30 3343 C 304.457 -4.58853 -2.67634 0
M  V30 3344 C 303.496 -5.71114 -2.20217 0
M  V30 3345 N 302.633 -6.19478 -3.30442 0
M  V30 3346 H 307.473 -2.97389 -0.190664 0
M  V30 3347 H 305.01 -1.46869 -0.0823694 0
M  V30 3348 H 306.968 -3.21492 -2.65893 0
M  V30 3349 H 305.598 -2.09129 -2.45896 0
M  V30 3350 H 304.65 -3.74115 -0.688605 0
M  V30 3351 H 305.962 -4.86113 -1.11784 0
M  V30 3352 H 305.116 -4.97619 -3.47074 0
M  V30 3353 H 303.855 -3.76749 -3.09696 0
M  V30 3354 H 302.86 -5.31879 -1.3923 0
M  V30 3355 H 304.085 -6.55033 -1.79189 0
M  V30 3356 H 302.031 -5.40297 -3.72041 0
M  V30 3357 H 301.948 -6.95725 -2.9581 0
M  V30 3358 H 303.216 -6.62898 -4.10106 0
M  V30 3359 N 307.445 0.0818655 -1.57387 0
M  V30 3360 C 308.693 0.781368 -1.86384 0
M  V30 3361 C 309.014 1.78618 -0.782342 0
M  V30 3362 O 308.284 1.94976 0.190061 0
M  V30 3363 H 306.864 0.291562 -0.687751 0
M  V30 3364 H 309.526 0.060348 -1.94807 0
M  V30 3365 H 308.622 1.3038 -2.83562 0
M  V30 3366 N 308.923 1.53595 0.353017 0
M  V30 3367 C 310.172 1.69603 1.09168 0
M  V30 3368 C 310.485 0.460925 1.90092 0
M  V30 3369 O 311.691 0.501774 2.66823 0
M  V30 3370 C 310.147 2.99872 1.9901 0
M  V30 3371 C 309.755 4.30687 1.23339 0
M  V30 3372 C 311.499 3.25246 2.72792 0
M  V30 3373 C 309.406 5.52036 2.12156 0
M  V30 3374 H 308.336 0.631966 0.411261 0
M  V30 3375 H 310.987 1.80096 0.351802 0
M  V30 3376 H 309.369 2.83212 2.7678 0
M  V30 3377 H 310.543 4.58019 0.505456 0
M  V30 3378 H 308.858 4.11853 0.613663 0
M  V30 3379 H 311.455 4.13095 3.39495 0
M  V30 3380 H 311.798 2.41846 3.38846 0
M  V30 3381 H 312.331 3.42638 2.021 0
M  V30 3382 H 309.07 6.37951 1.50659 0
M  V30 3383 H 308.59 5.28966 2.82764 0
M  V30 3384 H 310.269 5.87313 2.71427 0
M  V30 3385 N 310.401 -0.613514 1.45168 0
M  V30 3386 C 311.647 -1.37471 1.49096 0
M  V30 3387 C 311.98 -1.93765 0.129901 0
M  V30 3388 O 311.255 -1.74707 -0.854858 0
M  V30 3389 C 311.538 -2.52701 2.56542 0
M  V30 3390 C 311.391 -2.01643 4.0207 0
M  V30 3391 C 312.71 -3.54849 2.60327 0
M  V30 3392 H 309.829 -0.498502 0.54283 0
M  V30 3393 H 312.471 -0.692125 1.76945 0
M  V30 3394 H 310.621 -3.10931 2.32926 0
M  V30 3395 H 312.293 -1.48108 4.36877 0
M  V30 3396 H 310.536 -1.32688 4.13009 0
M  V30 3397 H 311.207 -2.84681 4.72928 0
M  V30 3398 H 313.683 -3.0645 2.81474 0
M  V30 3399 H 312.559 -4.32973 3.37381 0
M  V30 3400 H 312.82 -4.10079 1.6519 0
M  V30 3401 N 311.879 -1.3236 -0.855495 0
M  V30 3402 C 313.126 -1.22872 -1.60962 0
M  V30 3403 C 313.454 0.209658 -1.93367 0
M  V30 3404 O 312.709 1.16243 -1.57436 0
M  V30 3405 C 313.008 -2.03275 -2.93963 0
M  V30 3406 C 312.674 -3.5264 -2.80991 0
M  V30 3407 C 311.336 -3.93364 -2.7716 0
M  V30 3408 C 313.688 -4.47626 -2.66983 0
M  V30 3409 C 311.016 -5.27319 -2.572 0
M  V30 3410 C 313.368 -5.81723 -2.48558 0
M  V30 3411 C 312.032 -6.2165 -2.4312 0
M  V30 3412 H 311.302 -0.44962 -0.589001 0
M  V30 3413 H 313.949 -1.63777 -0.992442 0
M  V30 3414 H 312.254 -1.55095 -3.59795 0
M  V30 3415 H 313.951 -1.93303 -3.51333 0
M  V30 3416 H 310.541 -3.20295 -2.84797 0
M  V30 3417 H 314.725 -4.17084 -2.68988 0
M  V30 3418 H 309.981 -5.57311 -2.51424 0
M  V30 3419 H 314.155 -6.5494 -2.36699 0
M  V30 3420 H 311.782 -7.25388 -2.27412 0
M  V30 3421 N 313.357 1.07166 -1.15556 0
M  V30 3422 C 314.606 1.79181 -0.926132 0
M  V30 3423 C 314.919 1.87768 0.547967 0
M  V30 3424 O 316.125 2.56323 0.895036 0
M  V30 3425 C 314.581 3.22 -1.60761 0
M  V30 3426 C 314.189 3.21607 -3.11886 0
M  V30 3427 C 315.933 3.9861 -1.4598 0
M  V30 3428 C 313.84 4.59092 -3.72812 0
M  V30 3429 H 312.77 0.67154 -0.342856 0
M  V30 3430 H 315.421 1.2027 -1.3859 0
M  V30 3431 H 313.803 3.81115 -1.07553 0
M  V30 3432 H 314.977 2.72127 -3.71865 0
M  V30 3433 H 313.292 2.58495 -3.2645 0
M  V30 3434 H 315.889 5.00225 -1.88888 0
M  V30 3435 H 316.232 4.143 -0.407541 0
M  V30 3436 H 316.765 3.45996 -1.96295 0
M  V30 3437 H 313.504 4.48606 -4.77946 0
M  V30 3438 H 313.024 5.08803 -3.17616 0
M  V30 3439 H 314.703 5.28059 -3.73848 0
M  V30 3440 N 314.835 0.952656 1.25548 0
M  V30 3441 C 316.112 0.523818 1.88456 0
M  V30 3442 C 316.492 -0.998871 1.85973 0
M  V30 3443 O 315.84 -1.86381 1.3219 0
M  V30 3444 C 316.05 1.0982 3.31271 0
M  V30 3445 C 317.398 1.17385 4.08051 0
M  V30 3446 O 318.422 1.04961 3.40384 0
M  V30 3447 O 317.281 1.36852 5.29088 0
M  V30 3448 H 314.375 0.172485 0.808813 0
M  V30 3449 H 316.921 1.04596 1.33633 0
M  V30 3450 H 315.693 2.1415 3.27499 0
M  V30 3451 H 315.316 0.559191 3.93648 0
M  V30 3452 N 316.313 -1.40141 0.720998 0
M  V30 3453 C 317.223 -2.34486 0.0731031 0
M  V30 3454 C 318.239 -1.57587 -0.737723 0
M  V30 3455 O 319.415 -1.89949 -0.669429 0
M  V30 3456 C 316.48 -3.36528 -0.833656 0
M  V30 3457 C 315.541 -4.29298 -0.0121673 0
M  V30 3458 C 314.774 -5.26466 -0.875742 0
M  V30 3459 O 314.997 -5.29745 -2.11485 0
M  V30 3460 O 313.931 -6.01092 -0.31185 0
M  V30 3461 H 317.757 -2.9152 0.851444 0
M  V30 3462 H 315.342 -1.41427 0.481527 0
M  V30 3463 H 317.224 -3.99093 -1.35289 0
M  V30 3464 H 315.899 -2.81899 -1.59105 0
M  V30 3465 H 314.806 -3.70001 0.552262 0
M  V30 3466 H 316.139 -4.87094 0.707129 0
M  V30 3467 N 317.792 -0.46758 -1.50504 0
M  V30 3468 C 319.041 0.0902868 -2.01498 0
M  V30 3469 C 319.354 1.411 -1.35463 0
M  V30 3470 O 320.56 2.0536 -1.77594 0
M  V30 3471 C 319.016 0.21142 -3.59278 0
M  V30 3472 C 318.624 -1.10065 -4.34269 0
M  V30 3473 C 320.368 0.721433 -4.18325 0
M  V30 3474 C 318.275 -0.943505 -5.83825 0
M  V30 3475 H 317.205 0.037517 -0.753066 0
M  V30 3476 H 319.856 -0.601943 -1.73346 0
M  V30 3477 H 318.238 0.967352 -3.84003 0
M  V30 3478 H 319.412 -1.86726 -4.21272 0
M  V30 3479 H 317.727 -1.5415 -3.86816 0
M  V30 3480 H 320.324 0.85598 -5.27804 0
M  V30 3481 H 320.667 1.71186 -3.79475 0
M  V30 3482 H 321.2 0.0229843 -3.97793 0
M  V30 3483 H 317.939 -1.90719 -6.27141 0
M  V30 3484 H 317.459 -0.217213 -5.99407 0
M  V30 3485 H 319.138 -0.608715 -6.4413 0
M  V30 3486 N 319.27 1.56325 -0.20005 0
M  V30 3487 C 320.547 1.89484 0.48529 0
M  V30 3488 C 320.927 1.1143 1.79294 0
M  V30 3489 O 320.275 0.216919 2.27468 0
M  V30 3490 C 320.485 3.41923 0.699243 0
M  V30 3491 C 321.833 4.12256 1.01638 0
M  V30 3492 O 322.857 3.47402 0.786792 0
M  V30 3493 O 321.716 5.26887 1.45095 0
M  V30 3494 H 318.81 0.787144 0.253639 0
M  V30 3495 H 321.356 1.67985 -0.240633 0
M  V30 3496 H 320.128 3.90658 -0.224008 0
M  V30 3497 H 319.751 3.69131 1.47744 0
M  V30 3498 N 320.748 -0.0735177 1.57428 0
M  V30 3499 C 321.695 -1.08756 2.0357 0
M  V30 3500 C 322.665 -1.38559 0.916 0
M  V30 3501 O 323.85 -1.49656 1.18354 0
M  V30 3502 C 320.99 -2.39657 2.48311 0
M  V30 3503 C 320.103 -2.16399 3.73892 0
M  V30 3504 C 319.238 -3.40852 4.07423 0
M  V30 3505 C 318.277 -3.1295 5.2605 0
M  V30 3506 N 317.414 -4.29729 5.55228 0
M  V30 3507 H 322.254 -0.687104 2.8997 0
M  V30 3508 H 319.791 -0.327709 1.43403 0
M  V30 3509 H 321.749 -3.16081 2.72303 0
M  V30 3510 H 320.379 -2.77508 1.64891 0
M  V30 3511 H 319.431 -1.30676 3.57251 0
M  V30 3512 H 320.743 -1.91788 4.60455 0
M  V30 3513 H 319.897 -4.25671 4.32306 0
M  V30 3514 H 318.636 -3.68537 3.19425 0
M  V30 3515 H 317.641 -2.26526 5.00965 0
M  V30 3516 H 318.866 -2.86589 6.15665 0
M  V30 3517 H 316.812 -4.57448 4.70188 0
M  V30 3518 H 316.729 -4.08385 6.36206 0
M  V30 3519 H 317.997 -5.1555 5.84661 0
M  V30 3520 N 322.226 -1.5378 -0.344866 0
M  V30 3521 C 323.475 -1.7018 -1.08267 0
M  V30 3522 C 323.788 -0.471 -1.89845 0
M  V30 3523 O 324.994 -0.515917 -2.66553 0
M  V30 3524 C 323.45 -3.00923 -1.97417 0
M  V30 3525 C 323.058 -4.31335 -1.21053 0
M  V30 3526 C 324.802 -3.26688 -2.71063 0
M  V30 3527 C 322.709 -5.53153 -2.09225 0
M  V30 3528 H 321.639 -0.634138 -0.407903 0
M  V30 3529 H 324.29 -1.8028 -0.342246 0
M  V30 3530 H 322.672 -2.84676 -2.75274 0
M  V30 3531 H 323.846 -4.58281 -0.481159 0
M  V30 3532 H 322.161 -4.12173 -0.591813 0
M  V30 3533 H 324.758 -4.1489 -3.37299 0
M  V30 3534 H 325.101 -2.43639 -3.37558 0
M  V30 3535 H 325.634 -3.43705 -2.0028 0
M  V30 3536 H 322.373 -6.38741 -1.47274 0
M  V30 3537 H 321.893 -5.30458 -2.79955 0
M  V30 3538 H 323.572 -5.88744 -2.68308 0
M  V30 3539 N 323.704 0.605807 -1.45491 0
M  V30 3540 C 324.929 1.39625 -1.53361 0
M  V30 3541 C 325.354 1.87351 -0.167645 0
M  V30 3542 O 324.712 1.60243 0.848051 0
M  V30 3543 C 324.76 2.57559 -2.5238 0
M  V30 3544 O 323.864 3.58248 -2.04285 0
M  V30 3545 H 323.205 0.416771 -0.516912 0
M  V30 3546 H 325.735 0.737103 -1.90861 0
M  V30 3547 H 325.745 3.0478 -2.71244 0
M  V30 3548 H 324.42 2.22171 -3.51586 0
M  V30 3549 H 322.997 3.17664 -1.95305 0
M  V30 3550 N 325.182 1.32811 0.848464 0
M  V30 3551 C 326.598 1.11937 1.13764 0
M  V30 3552 C 326.798 -0.0960789 2.01271 0
M  V30 3553 O 325.854 -0.779165 2.40178 0
M  V30 3554 C 327.167 2.402 1.809 0
M  V30 3555 C 328.715 2.46016 1.93508 0
M  V30 3556 C 329.19 3.74215 2.64059 0
M  V30 3557 N 330.681 3.75232 2.71579 0
M  V30 3558 C 331.416 4.71134 3.26833 0
M  V30 3559 N 330.912 5.77406 3.8285 0
M  V30 3560 N 332.705 4.58623 3.24995 0
M  V30 3561 H 324.856 2.1073 0.265855 0
M  V30 3562 H 327.119 0.930671 0.180431 0
M  V30 3563 H 326.825 3.29093 1.24058 0
M  V30 3564 H 326.699 2.51628 2.81004 0
M  V30 3565 H 329.086 1.57577 2.49506 0
M  V30 3566 H 329.167 2.38536 0.923811 0
M  V30 3567 H 328.811 4.63031 2.08722 0
M  V30 3568 H 328.741 3.78968 3.65637 0
M  V30 3569 H 331.232 2.98423 2.31845 0
M  V30 3570 H 331.545 6.46632 4.23187 0
M  V30 3571 H 329.89 5.81152 3.81165 0
M  V30 3572 H 333.081 3.74762 2.80484 0
M  V30 3573 H 333.254 5.33535 3.67756 0
M  V30 3574 N 326.66 -1.06551 1.16123 0
M  V30 3575 C 327.59 -2.15935 0.88851 0
M  V30 3576 C 328.571 -1.69306 -0.164135 0
M  V30 3577 O 329.756 -1.94193 -0.0167857 0
M  V30 3578 C 326.886 -3.45149 0.385942 0
M  V30 3579 C 325.84 -4.05271 1.3762 0
M  V30 3580 C 325.166 -5.29664 0.732137 0
M  V30 3581 C 326.466 -4.44355 2.74493 0
M  V30 3582 H 328.16 -2.39006 1.80323 0
M  V30 3583 H 325.706 -1.14866 0.868435 0
M  V30 3584 H 327.659 -4.21004 0.182647 0
M  V30 3585 H 326.383 -3.21689 -0.564274 0
M  V30 3586 H 325.042 -3.3147 1.56599 0
M  V30 3587 H 324.69 -5.02499 -0.224483 0
M  V30 3588 H 324.39 -5.70848 1.39307 0
M  V30 3589 H 325.914 -6.08218 0.538802 0
M  V30 3590 H 327.328 -5.11303 2.59311 0
M  V30 3591 H 325.725 -4.96515 3.37035 0
M  V30 3592 H 326.795 -3.55339 3.29943 0
M  V30 3593 N 328.138 -0.959301 -1.25041 0
M  V30 3594 C 329.363 -0.633507 -1.97488 0
M  V30 3595 C 329.788 0.788555 -1.70773 0
M  V30 3596 O 329.146 1.53394 -0.966431 0
M  V30 3597 C 329.194 -0.904057 -3.49083 0
M  V30 3598 O 328.298 0.0147939 -4.12397 0
M  V30 3599 H 327.639 -0.240368 -0.618966 0
M  V30 3600 H 330.169 -1.28717 -1.59038 0
M  V30 3601 H 330.179 -0.832203 -3.99423 0
M  V30 3602 H 328.854 -1.94048 -3.67856 0
M  V30 3603 H 327.431 -0.109664 -3.72739 0
M  V30 3604 N 329.616 1.39756 -0.72842 0
M  V30 3605 C 330.526 2.34444 -0.0855374 0
M  V30 3606 C 331.542 1.57976 0.729356 0
M  V30 3607 O 332.718 1.90301 0.659346 0
M  V30 3608 C 329.783 3.36965 0.815798 0
M  V30 3609 C 328.844 4.29299 -0.0105996 0
M  V30 3610 C 328.077 5.26923 0.84781 0
M  V30 3611 O 328.3 5.30859 2.08673 0
M  V30 3612 O 327.234 6.01249 0.279969 0
M  V30 3613 H 331.06 2.91065 -0.866892 0
M  V30 3614 H 328.645 1.4117 -0.48902 0
M  V30 3615 H 330.527 3.99804 1.33171 0
M  V30 3616 H 329.202 2.82739 1.57608 0
M  V30 3617 H 328.109 3.69703 -0.571877 0
M  V30 3618 H 329.442 4.86712 -0.73295 0
M  V30 3619 N 331.094 0.475555 1.50254 0
M  V30 3620 C 332.042 -0.330276 2.30243 0
M  V30 3621 C 333.036 -0.986306 1.37726 0
M  V30 3622 O 334.242 -0.9169 1.54897 0
M  V30 3623 H 330.617 -0.125353 0.741479 0
M  V30 3624 H 332.588 0.364702 2.96163 0
M  V30 3625 C 331.337 -1.39704 3.18399 0
M  V30 3626 H 330.66 -0.901621 3.89501 0
M  V30 3627 H 332.1 -1.93336 3.77355 0
M  V30 3628 C 330.559 -2.4014 2.36293 0
M  V30 3629 O 331.089 -3.45504 2.04914 0
M  V30 3630 N 329.295 -2.1197 1.98789 0
M  V30 3631 H 328.842 -1.2631 2.24507 0
M  V30 3632 H 328.8 -2.79403 1.44157 0
M  V30 3633 N 332.573 -1.56217 0.208337 0
M  V30 3634 C 333.989 -1.58919 -0.14729 0
M  V30 3635 C 334.189 -1.22486 -1.59998 0
M  V30 3636 O 333.245 -0.953849 -2.3379 0
M  V30 3637 C 334.558 -3.00236 0.167048 0
M  V30 3638 C 336.106 -3.12813 0.108219 0
M  V30 3639 C 336.581 -4.56284 0.396049 0
M  V30 3640 N 338.072 -4.61912 0.345142 0
M  V30 3641 C 338.807 -5.70837 0.541523 0
M  V30 3642 N 338.303 -6.88178 0.798968 0
M  V30 3643 N 340.096 -5.60091 0.474867 0
M  V30 3644 H 332.247 -1.78177 1.15614 0
M  V30 3645 H 334.51 -0.827555 0.462446 0
M  V30 3646 H 334.216 -3.31499 1.1748 0
M  V30 3647 H 334.09 -3.7354 -0.524184 0
M  V30 3648 H 336.477 -2.81354 -0.890157 0
M  V30 3649 H 336.558 -2.41866 0.832729 0
M  V30 3650 H 336.202 -4.88458 1.3918 0
M  V30 3651 H 336.132 -5.25439 -0.349502 0
M  V30 3652 H 338.623 -3.77589 0.153316 0
M  V30 3653 H 338.936 -7.67095 0.93727 0
M  V30 3654 H 337.281 -6.89953 0.836013 0
M  V30 3655 H 340.472 -4.67297 0.274064 0
M  V30 3656 H 340.645 -6.44917 0.631326 0
M  V30 3657 N 334.051 0.0651679 -1.57465 0
M  V30 3658 C 335.276 0.779605 -1.9219 0
M  V30 3659 C 335.701 1.69988 -0.805333 0
M  V30 3660 O 335.059 1.79685 0.241435 0
M  V30 3661 C 335.107 1.54364 -3.2589 0
M  V30 3662 O 334.211 2.65474 -3.1559 0
M  V30 3663 H 333.552 0.212249 -0.629163 0
M  V30 3664 H 336.082 0.0314294 -2.04576 0
M  V30 3665 H 336.092 1.92146 -3.59922 0
M  V30 3666 H 334.767 0.868457 -4.06732 0
M  V30 3667 H 333.344 2.30501 -2.93128 0
M  V30 3668 N 335.529 1.53961 0.336706 0
M  V30 3669 C 336.778 1.70751 1.07363 0
M  V30 3670 C 337.091 0.481061 1.89592 0
M  V30 3671 O 338.297 0.530046 2.66276 0
M  V30 3672 C 336.753 3.01965 1.95818 0
M  V30 3673 C 336.361 4.31971 1.18764 0
M  V30 3674 C 338.105 3.28121 2.69327 0
M  V30 3675 C 336.012 5.54255 2.06289 0
M  V30 3676 H 334.942 0.636292 0.404535 0
M  V30 3677 H 337.593 1.80459 0.332681 0
M  V30 3678 H 335.975 2.86132 2.7376 0
M  V30 3679 H 337.149 4.5853 0.456849 0
M  V30 3680 H 335.464 4.12481 0.569946 0
M  V30 3681 H 338.061 4.16673 3.35094 0
M  V30 3682 H 338.404 2.45426 3.36261 0
M  V30 3683 H 338.937 3.44762 1.98454 0
M  V30 3684 H 335.676 6.39513 1.43885 0
M  V30 3685 H 335.196 5.31935 2.77138 0
M  V30 3686 H 336.875 5.90159 2.65182 0
M  V30 3687 N 337.007 -0.598083 1.45811 0
M  V30 3688 C 338.235 -1.38322 1.53866 0
M  V30 3689 C 338.65 -1.87992 0.174479 0
M  V30 3690 O 338.007 -1.62756 -0.825627 0
M  V30 3691 C 338.058 -2.58125 2.53089 0
M  V30 3692 O 337.779 -2.10516 3.84206 0
M  V30 3693 C 339.28 -3.50869 2.70935 0
M  V30 3694 H 336.5 -0.423093 0.520801 0
M  V30 3695 H 339.044 -0.728527 1.91083 0
M  V30 3696 H 337.199 -3.19615 2.18917 0
M  V30 3697 H 337.613 -2.88425 4.38077 0
M  V30 3698 H 339.087 -4.31451 3.44317 0
M  V30 3699 H 339.564 -4.01822 1.77301 0
M  V30 3700 H 340.17 -2.95225 3.06141 0
M  V30 3701 N 338.485 -1.33259 -0.841409 0
M  V30 3702 C 339.901 -1.12538 -1.13169 0
M  V30 3703 C 340.101 0.0854037 -2.01319 0
M  V30 3704 O 339.157 0.766417 -2.40587 0
M  V30 3705 C 340.47 -2.41156 -1.79623 0
M  V30 3706 C 342.018 -2.47038 -1.922 0
M  V30 3707 C 342.493 -3.7561 -2.6207 0
M  V30 3708 N 343.984 -3.76667 -2.69585 0
M  V30 3709 C 344.719 -4.72861 -3.2433 0
M  V30 3710 N 344.215 -5.79428 -3.79783 0
M  V30 3711 N 346.008 -4.6034 -3.22558 0
M  V30 3712 H 338.159 -2.10868 -0.254676 0
M  V30 3713 H 340.422 -0.931615 -0.175493 0
M  V30 3714 H 340.128 -3.29747 -1.22311 0
M  V30 3715 H 340.002 -2.53114 -2.79666 0
M  V30 3716 H 342.389 -1.58898 -2.48667 0
M  V30 3717 H 342.47 -2.39022 -0.911148 0
M  V30 3718 H 342.114 -4.64131 -2.06263 0
M  V30 3719 H 342.044 -3.80902 -3.63622 0
M  V30 3720 H 344.535 -2.99648 -2.30259 0
M  V30 3721 H 344.848 -6.48867 -4.19752 0
M  V30 3722 H 343.193 -5.83166 -3.78078 0
M  V30 3723 H 346.384 -3.76244 -2.78492 0
M  V30 3724 H 346.557 -5.35478 -3.64921 0
M  V30 3725 N 339.963 1.05934 -1.16686 0
M  V30 3726 C 341.24 1.75643 -0.860747 0
M  V30 3727 C 341.62 2.01144 0.640641 0
M  V30 3728 O 340.968 1.64147 1.58959 0
M  V30 3729 C 341.178 3.05493 -1.68745 0
M  V30 3730 C 342.526 3.79581 -1.90271 0
M  V30 3731 O 343.55 3.15344 -1.65641 0
M  V30 3732 O 342.409 4.9499 -2.31618 0
M  V30 3733 H 339.503 0.763426 -0.317977 0
M  V30 3734 H 342.049 1.1217 -1.27342 0
M  V30 3735 H 340.821 2.8264 -2.70611 0
M  V30 3736 H 340.444 3.76702 -1.27206 0
M  V30 3737 N 341.441 0.965919 1.2453 0
M  V30 3738 C 342.687 0.62776 1.92839 0
M  V30 3739 C 343.02 -0.834694 1.75347 0
M  V30 3740 O 342.295 -1.60031 1.10546 0
M  V30 3741 C 342.578 1.00109 3.45905 0
M  V30 3742 C 342.431 2.52011 3.72573 0
M  V30 3743 C 343.75 0.53435 4.36844 0
M  V30 3744 H 340.869 0.229537 0.700344 0
M  V30 3745 H 343.511 1.2046 1.46933 0
M  V30 3746 H 341.661 0.510238 3.85135 0
M  V30 3747 H 343.333 3.08559 3.42912 0
M  V30 3748 H 341.576 2.95287 3.17786 0
M  V30 3749 H 342.247 2.73183 4.79661 0
M  V30 3750 H 344.723 0.955565 4.04979 0
M  V30 3751 H 343.599 0.824152 5.42678 0
M  V30 3752 H 343.86 -0.565589 4.38467 0
M  V30 3753 N 342.919 -1.39368 0.735821 0
M  V30 3754 C 344.144 -2.05319 0.293052 0
M  V30 3755 C 344.569 -1.55115 -1.064 0
M  V30 3756 O 343.927 -0.695261 -1.67439 0
M  V30 3757 C 343.975 -3.59305 0.305323 0
M  V30 3758 O 343.079 -4.06299 -0.706761 0
M  V30 3759 H 342.42 -0.650529 0.13307 0
M  V30 3760 H 344.95 -1.78386 1.00197 0
M  V30 3761 H 344.96 -4.07724 0.149997 0
M  V30 3762 H 343.635 -3.95207 1.29553 0
M  V30 3763 H 342.212 -3.69292 -0.517504 0
M  V30 3764 N 344.397 -0.483516 -1.5 0
M  V30 3765 C 345.645 0.067027 -2.01989 0
M  V30 3766 C 345.966 1.3909 -1.36671 0
M  V30 3767 O 345.236 1.88978 -0.516152 0
M  V30 3768 H 343.816 0.0277606 -0.746484 0
M  V30 3769 H 346.478 -0.636773 -1.84204 0
M  V30 3770 H 345.574 0.209484 -3.11396 0
M  V30 3771 N 345.875 1.56104 -0.216619 0
M  V30 3772 C 346.785 2.23694 0.706982 0
M  V30 3773 C 347.801 1.24295 1.21765 0
M  V30 3774 O 348.977 1.57094 1.2603 0
M  V30 3775 C 346.042 2.8998 1.90033 0
M  V30 3776 C 345.103 4.04708 1.43213 0
M  V30 3777 C 344.336 4.67824 2.56859 0
M  V30 3778 O 344.559 4.29913 3.74874 0
M  V30 3779 O 343.493 5.56905 2.28343 0
M  V30 3780 H 347.319 3.03272 0.161235 0
M  V30 3781 H 344.904 1.49394 0.0136177 0
M  V30 3782 H 346.786 3.31837 2.59735 0
M  V30 3783 H 345.461 2.13365 2.43428 0
M  V30 3784 H 344.368 3.6743 0.70327 0
M  V30 3785 H 345.701 4.83051 0.944615 0
M  V30 3786 N 347.353 -0.0568162 1.57498 0
M  V30 3787 C 348.601 -0.751617 1.87604 0
M  V30 3788 C 348.922 -1.77351 0.81066 0
M  V30 3789 O 348.192 -1.95254 -0.159018 0
M  V30 3790 H 346.772 -0.280583 0.692302 0
M  V30 3791 H 349.434 -0.0293483 1.94878 0
M  V30 3792 H 348.53 -1.25852 2.856 0
M  V30 3793 N 348.832 -1.54138 -0.328536 0
M  V30 3794 C 350.078 -1.7236 -1.06865 0
M  V30 3795 C 350.411 -0.493231 -1.87832 0
M  V30 3796 O 349.686 0.5098 -1.877 0
M  V30 3797 C 349.969 -2.99621 -1.99747 0
M  V30 3798 C 349.822 -4.32899 -1.22143 0
M  V30 3799 C 351.141 -3.22615 -2.99345 0
M  V30 3800 H 348.26 -0.627151 -0.387105 0
M  V30 3801 H 350.902 -1.86827 -0.345767 0
M  V30 3802 H 349.052 -2.87418 -2.61387 0
M  V30 3803 H 350.724 -4.56978 -0.630017 0
M  V30 3804 H 348.967 -4.30628 -0.523628 0
M  V30 3805 H 349.638 -5.18154 -1.90318 0
M  V30 3806 H 352.114 -3.34248 -2.47826 0
M  V30 3807 H 350.99 -4.13027 -3.61524 0
M  V30 3808 H 351.251 -2.3961 -3.71536 0
M  V30 3809 N 350.31 0.590341 -1.46126 0
M  V30 3810 C 351.242 1.71427 -1.52136 0
M  V30 3811 C 352.255 1.57542 -0.41042 0
M  V30 3812 O 353.444 1.65106 -0.678389 0
M  V30 3813 C 350.544 3.09605 -1.37834 0
M  V30 3814 C 349.717 3.49566 -2.62912 0
M  V30 3815 C 348.776 4.66773 -2.42918 0
M  V30 3816 O 347.802 4.73019 -3.1661 0
M  V30 3817 N 349.004 5.61161 -1.4859 0
M  V30 3818 H 351.769 1.66728 -2.49042 0
M  V30 3819 H 349.33 0.776113 -1.42085 0
M  V30 3820 H 351.322 3.85796 -1.22243 0
M  V30 3821 H 349.892 3.08714 -0.491393 0
M  V30 3822 H 349.112 2.63158 -2.93499 0
M  V30 3823 H 350.4 3.73028 -3.46017 0
M  V30 3824 H 349.798 5.58844 -0.87808 0
M  V30 3825 H 348.355 6.36814 -1.38965 0
M  V30 3826 N 351.788 1.33704 0.83433 0
M  V30 3827 C 352.72 1.20172 1.9517 0
M  V30 3828 C 353.733 0.131572 1.62267 0
M  V30 3829 O 354.922 0.382406 1.74356 0
M  V30 3830 C 352.022 0.821716 3.28787 0
M  V30 3831 C 351.195 1.98446 3.89792 0
M  V30 3832 C 350.254 1.58469 5.01771 0
M  V30 3833 O 349.28 2.29968 5.20676 0
M  V30 3834 N 350.482 0.492291 5.78409 0
M  V30 3835 H 353.247 2.16429 2.07313 0
M  V30 3836 H 350.808 1.26509 1.0103 0
M  V30 3837 H 352.8 0.536291 4.01131 0
M  V30 3838 H 351.37 -0.0503058 3.1256 0
M  V30 3839 H 350.59 2.43526 3.09982 0
M  V30 3840 H 351.878 2.76236 4.27283 0
M  V30 3841 H 351.276 -0.102349 5.65607 0
M  V30 3842 H 349.833 0.266555 6.51255 0
M  V30 3843 N 353.266 -1.05314 1.17247 0
M  V30 3844 C 354.229 -2.112 0.890357 0
M  V30 3845 C 355.229 -1.60359 -0.118943 0
M  V30 3846 O 356.419 -1.73833 0.113086 0
M  V30 3847 C 353.551 -3.39266 0.333422 0
M  V30 3848 H 354.744 -2.37659 1.82916 0
M  V30 3849 H 352.297 -1.21538 0.982758 0
M  V30 3850 H 353.032 -3.18462 -0.612587 0
M  V30 3851 H 352.817 -3.77477 1.06082 0
M  V30 3852 H 354.307 -4.17315 0.154322 0
M  V30 3853 N 354.744 -0.972509 -1.24016 0
M  V30 3854 C 355.674 -0.525548 -2.27509 0
M  V30 3855 C 356.655 0.437262 -1.64384 0
M  V30 3856 O 357.84 0.332343 -1.91335 0
M  V30 3857 C 354.97 0.180448 -3.46831 0
M  V30 3858 C 353.924 -0.698859 -4.22256 0
M  V30 3859 C 353.25 0.138903 -5.3452 0
M  V30 3860 C 354.55 -1.98582 -4.83076 0
M  V30 3861 H 356.244 -1.39058 -2.65148 0
M  V30 3862 H 353.79 -0.67009 -1.27459 0
M  V30 3863 H 355.743 0.504387 -4.18371 0
M  V30 3864 H 354.467 1.07987 -3.08231 0
M  V30 3865 H 353.126 -1.00614 -3.52523 0
M  V30 3866 H 352.774 1.03862 -4.9216 0
M  V30 3867 H 352.474 -0.446259 -5.85903 0
M  V30 3868 H 353.998 0.457404 -6.08884 0
M  V30 3869 H 355.412 -1.72715 -5.46665 0
M  V30 3870 H 353.809 -2.5181 -5.44713 0
M  V30 3871 H 354.879 -2.67769 -4.04262 0
M  V30 3872 N 356.222 1.38976 -0.743202 0
M  V30 3873 C 357.152 2.33171 -0.123873 0
M  V30 3874 C 358.133 1.54336 0.71516 0
M  V30 3875 O 359.318 1.82696 0.658467 0
M  V30 3876 C 356.448 3.38474 0.777978 0
M  V30 3877 C 355.402 4.27979 0.0424758 0
M  V30 3878 C 354.728 5.2405 1.06189 0
M  V30 3879 C 356.028 5.10155 -1.1198 0
M  V30 3880 H 357.722 2.85213 -0.910709 0
M  V30 3881 H 355.268 1.37133 -0.439388 0
M  V30 3882 H 357.221 4.03328 1.22084 0
M  V30 3883 H 355.945 2.84891 1.59702 0
M  V30 3884 H 354.604 3.64616 -0.380853 0
M  V30 3885 H 354.252 4.66758 1.87472 0
M  V30 3886 H 353.952 5.84785 0.574485 0
M  V30 3887 H 355.476 5.9178 1.50428 0
M  V30 3888 H 356.89 5.68307 -0.75499 0
M  V30 3889 H 355.287 5.80073 -1.53738 0
M  V30 3890 H 356.357 4.44504 -1.93764 0
M  V30 3891 N 357.7 0.491464 1.49741 0
M  V30 3892 C 358.647 -0.292027 2.28945 0
M  V30 3893 C 359.617 -0.968973 1.34908 0
M  V30 3894 O 360.802 -0.97748 1.6386 0
M  V30 3895 C 357.942 -1.35617 3.17336 0
M  V30 3896 C 357.055 -0.691957 4.26422 0
M  V30 3897 C 356.19 -1.73572 5.02042 0
M  V30 3898 C 355.229 -1.05286 6.02977 0
M  V30 3899 N 354.366 -2.0404 6.71798 0
M  V30 3900 H 359.206 0.389654 2.95442 0
M  V30 3901 H 356.743 0.204003 1.45679 0
M  V30 3902 H 358.701 -1.98502 3.66951 0
M  V30 3903 H 357.331 -2.00674 2.52844 0
M  V30 3904 H 356.383 0.0499523 3.80367 0
M  V30 3905 H 357.695 -0.153946 4.98562 0
M  V30 3906 H 356.849 -2.43987 5.55478 0
M  V30 3907 H 355.588 -2.30757 4.29654 0
M  V30 3908 H 354.593 -0.334446 5.48782 0
M  V30 3909 H 355.818 -0.487636 6.77347 0
M  V30 3910 H 353.764 -2.60205 6.02187 0
M  V30 3911 H 353.681 -1.55279 7.39881 0
M  V30 3912 H 354.949 -2.73772 7.29842 0
M  V30 3913 N 359.178 -1.55987 0.224894 0
M  V30 3914 C 360.427 -1.97566 -0.406273 0
M  V30 3915 C 360.74 -1.11569 -1.6066 0
M  V30 3916 O 361.946 -1.43062 -2.3075 0
M  V30 3917 C 360.402 -3.51474 -0.774207 0
M  V30 3918 C 360.01 -4.46179 0.403496 0
M  V30 3919 C 361.754 -4.01758 -1.37079 0
M  V30 3920 C 359.661 -5.91399 0.0129412 0
M  V30 3921 H 358.591 -0.737777 -0.155565 0
M  V30 3922 H 361.242 -1.80659 0.321635 0
M  V30 3923 H 359.624 -3.63994 -1.55963 0
M  V30 3924 H 360.798 -4.45409 1.18101 0
M  V30 3925 H 359.113 -4.06255 0.913536 0
M  V30 3926 H 361.71 -5.07756 -1.67596 0
M  V30 3927 H 362.053 -3.47805 -2.28773 0
M  V30 3928 H 362.586 -3.92475 -0.648733 0
M  V30 3929 H 359.325 -6.49341 0.896451 0
M  V30 3930 H 358.845 -5.95356 -0.728821 0
M  V30 3931 H 360.524 -6.45683 -0.412582 0
M  V30 3932 N 360.656 0.0484629 -1.57525 0
M  V30 3933 C 361.902 0.744226 -1.88651 0
M  V30 3934 C 362.235 1.76029 -0.820212 0
M  V30 3935 O 361.51 1.93782 0.166985 0
M  V30 3936 C 361.793 1.43128 -3.30434 0
M  V30 3937 C 361.646 0.43005 -4.47739 0
M  V30 3938 C 362.965 2.37031 -3.70816 0
M  V30 3939 H 360.084 0.269089 -0.68612 0
M  V30 3940 H 362.726 0.00713532 -1.89999 0
M  V30 3941 H 360.876 2.05956 -3.29415 0
M  V30 3942 H 362.548 -0.194816 -4.60888 0
M  V30 3943 H 360.791 -0.252522 -4.33064 0
M  V30 3944 H 361.462 0.948874 -5.43783 0
M  V30 3945 H 363.938 1.84263 -3.73077 0
M  V30 3946 H 362.814 2.82094 -4.70865 0
M  V30 3947 H 363.075 3.22864 -3.02012 0
M  V30 3948 N 362.134 1.5431 0.320358 0
M  V30 3949 C 363.044 1.86946 1.41734 0
M  V30 3950 C 364.06 0.761689 1.56443 0
M  V30 3951 O 365.236 1.05629 1.71477 0
M  V30 3952 C 362.301 2.09293 2.76401 0
M  V30 3953 C 361.362 3.33082 2.70841 0
M  V30 3954 C 360.595 3.54353 3.99086 0
M  V30 3955 O 360.818 2.79002 4.97508 0
M  V30 3956 O 359.752 4.47838 4.0215 0
M  V30 3957 H 363.578 2.80232 1.17062 0
M  V30 3958 H 361.163 1.40255 0.514673 0
M  V30 3959 H 363.045 2.25303 3.56113 0
M  V30 3960 H 361.72 1.19194 3.00956 0
M  V30 3961 H 360.627 3.22454 1.89668 0
M  V30 3962 H 361.96 4.23249 2.5124 0
M  V30 3963 N 363.613 -0.582584 1.46437 0
M  V30 3964 C 364.861 -1.33814 1.51453 0
M  V30 3965 C 365.182 -1.94277 0.167792 0
M  V30 3966 O 364.452 -1.78566 -0.805677 0
M  V30 3967 H 363.032 -0.496838 0.557818 0
M  V30 3968 H 365.694 -0.682281 1.82568 0
M  V30 3969 H 364.79 -2.14479 2.26728 0
M  V30 3970 N 365.091 -1.34144 -0.827227 0
M  V30 3971 C 366.316 -1.29476 -1.62021 0
M  V30 3972 C 366.741 0.129292 -1.87655 0
M  V30 3973 O 366.099 1.08967 -1.449 0
M  V30 3974 C 366.147 -2.08702 -2.94068 0
M  V30 3975 O 365.251 -1.45359 -3.85933 0
M  V30 3976 H 364.592 -0.444881 -0.492927 0
M  V30 3977 H 367.122 -1.76882 -1.02829 0
M  V30 3978 H 367.132 -2.19898 -3.43669 0
M  V30 3979 H 365.807 -3.12241 -2.74734 0
M  V30 3980 H 364.384 -1.42879 -3.44442 0
M  V30 3981 N 366.569 1.04691 -1.17803 0
M  V30 3982 C 367.499 2.14494 -0.92275 0
M  V30 3983 C 368.48 1.69546 0.137179 0
M  V30 3984 O 369.665 1.94195 -0.0141108 0
M  V30 3985 C 366.795 3.44491 -0.440803 0
M  V30 3986 C 365.749 4.03031 -1.4405 0
M  V30 3987 C 365.075 5.28432 -0.81631 0
M  V30 3988 C 366.375 4.39932 -2.81527 0
M  V30 3989 H 368.069 2.36107 -1.84103 0
M  V30 3990 H 365.615 1.1347 -0.886599 0
M  V30 3991 H 367.568 4.2066 -0.249602 0
M  V30 3992 H 366.292 3.22546 0.513025 0
M  V30 3993 H 364.951 3.28937 -1.61853 0
M  V30 3994 H 364.599 5.02792 0.144511 0
M  V30 3995 H 364.299 5.68559 -1.48371 0
M  V30 3996 H 365.823 6.07284 -0.635496 0
M  V30 3997 H 367.237 5.07113 -2.67412 0
M  V30 3998 H 365.634 4.9109 -3.44892 0
M  V30 3999 H 366.704 3.50045 -3.35554 0
M  V30 4000 N 368.047 0.979072 1.23499 0
M  V30 4001 C 369.293 0.648178 1.92163 0
M  V30 4002 C 369.626 -0.816049 1.76222 0
M  V30 4003 O 368.901 -1.58849 1.12237 0
M  V30 4004 C 369.184 1.03773 3.44824 0
M  V30 4005 C 369.037 2.55948 3.69879 0
M  V30 4006 C 370.356 0.580653 4.36253 0
M  V30 4007 H 367.475 0.236952 0.69787 0
M  V30 4008 H 370.117 1.22012 1.45647 0
M  V30 4009 H 368.267 0.551058 3.84572 0
M  V30 4010 H 369.939 3.12179 3.3962 0
M  V30 4011 H 368.182 2.98641 3.14636 0
M  V30 4012 H 368.853 2.78255 4.76737 0
M  V30 4013 H 371.329 0.998465 4.03943 0
M  V30 4014 H 370.205 0.881663 5.41773 0
M  V30 4015 H 370.466 -0.519052 4.39042 0
M  V30 4016 N 369.525 -1.3858 0.750561 0
M  V30 4017 C 370.473 -2.32339 0.110162 0
M  V30 4018 C 371.467 -1.53864 -0.708674 0
M  V30 4019 O 372.673 -1.69417 -0.608112 0
M  V30 4020 H 369.048 -0.751812 0.0168275 0
M  V30 4021 H 371.019 -2.83959 0.917053 0
M  V30 4022 C 369.768 -3.39043 -0.771067 0
M  V30 4023 H 369.091 -3.99517 -0.150374 0
M  V30 4024 H 370.531 -4.07061 -1.1865 0
M  V30 4025 C 368.99 -2.77365 -1.91234 0
M  V30 4026 O 369.52 -2.66434 -3.00626 0
M  V30 4027 N 367.726 -2.35219 -1.70646 0
M  V30 4028 H 367.273 -2.4431 -0.81673 0
M  V30 4029 H 367.231 -1.94294 -2.47178 0
M  V30 4030 N 371.003 -0.499398 -1.49478 0
M  V30 4031 C 372.252 0.0475259 -2.01644 0
M  V30 4032 C 372.565 1.38195 -1.38425 0
M  V30 4033 O 373.771 2.01547 -1.8191 0
M  V30 4034 C 372.227 0.135164 -3.59646 0
M  V30 4035 C 371.835 -1.19252 -4.31837 0
M  V30 4036 C 373.579 0.632538 -4.19761 0
M  V30 4037 C 371.486 -1.06713 -5.81693 0
M  V30 4038 H 370.416 0.0215349 -0.753692 0
M  V30 4039 H 373.067 -0.638577 -1.7203 0
M  V30 4040 H 371.449 0.885681 -3.85969 0
M  V30 4041 H 372.623 -1.9562 -4.17216 0
M  V30 4042 H 370.938 -1.62321 -3.83459 0
M  V30 4043 H 373.535 0.743833 -5.29501 0
M  V30 4044 H 373.878 1.63098 -3.83021 0
M  V30 4045 H 374.411 -0.0613987 -3.97753 0
M  V30 4046 H 371.15 -2.03979 -6.22955 0
M  V30 4047 H 370.67 -0.344307 -5.98811 0
M  V30 4048 H 372.349 -0.745208 -6.42694 0
M  V30 4049 N 372.481 1.55866 -0.233164 0
M  V30 4050 C 373.892 1.847 0.272554 0
M  V30 4051 C 374.243 1.15477 1.58617 0
M  V30 4052 O 373.368 0.42841 2.12117 0
M  V30 4053 C 373.963 3.35071 0.501299 0
M  V30 4054 C 372.522 3.6418 0.951304 0
M  V30 4055 C 371.669 2.77292 0.0208209 0
M  V30 4056 H 374.62 1.52005 -0.456074 0
M  V30 4057 H 374.641 3.55906 1.34577 0
M  V30 4058 H 374.153 3.85424 -0.454936 0
M  V30 4059 H 372.254 3.19293 1.92049 0
M  V30 4060 H 372.367 4.72071 0.817675 0
M  V30 4061 H 370.731 2.49131 0.529723 0
M  V30 4062 H 371.514 3.30448 -0.93054 0
M  V30 4063 N 373.959 -0.0401083 1.57549 0
M  V30 4064 C 375.37 -0.588097 1.77196 0
M  V30 4065 C 375.721 -1.76209 0.862832 0
M  V30 4066 O 374.846 -2.16331 0.0548389 0
M  V30 4067 C 375.441 -1.07363 3.21339 0
M  V30 4068 C 374 -1.56723 3.42221 0
M  V30 4069 C 373.147 -0.50041 2.72747 0
M  V30 4070 H 376.098 0.186119 1.57605 0
M  V30 4071 H 376.119 -1.94143 3.27244 0
M  V30 4072 H 375.631 -0.218975 3.87482 0
M  V30 4073 H 373.732 -2.4441 2.81237 0
M  V30 4074 H 373.845 -1.62234 4.50796 0
M  V30 4075 H 372.209 -0.952894 2.36203 0
M  V30 4076 H 372.992 0.344599 3.41566 0
M  V30 4077 N 375.437 -1.54477 -0.31217 0
M  V30 4078 C 376.384 -1.84655 -1.38461 0
M  V30 4079 C 377.354 -0.694536 -1.50882 0
M  V30 4080 O 378.539 -0.942081 -1.6592 0
M  V30 4081 C 375.679 -2.0896 -2.74645 0
M  V30 4082 C 374.792 -3.36618 -2.70763 0
M  V30 4083 C 373.927 -3.50824 -3.98868 0
M  V30 4084 C 372.966 -4.72315 -3.89339 0
M  V30 4085 N 372.103 -4.83387 -5.09197 0
M  V30 4086 H 376.943 -2.76142 -1.12026 0
M  V30 4087 H 374.48 -1.36748 -0.542065 0
M  V30 4088 H 376.438 -2.21045 -3.53829 0
M  V30 4089 H 375.068 -1.20752 -2.99364 0
M  V30 4090 H 374.12 -3.33211 -1.83506 0
M  V30 4091 H 375.432 -4.25917 -2.59608 0
M  V30 4092 H 374.586 -3.62513 -4.86486 0
M  V30 4093 H 373.325 -2.59638 -4.12843 0
M  V30 4094 H 372.33 -4.6067 -3.00105 0
M  V30 4095 H 373.555 -5.64897 -3.76919 0
M  V30 4096 H 371.501 -3.9512 -5.23657 0
M  V30 4097 H 371.418 -5.66669 -5.00422 0
M  V30 4098 H 372.686 -4.9942 -5.98498 0
M  V30 4099 N 376.915 0.57481 -1.46744 0
M  V30 4100 C 378.163 1.33009 -1.52161 0
M  V30 4101 C 378.484 1.94185 -0.178092 0
M  V30 4102 O 377.754 1.7899 0.796196 0
M  V30 4103 H 376.334 0.493873 -0.560445 0
M  V30 4104 H 378.996 0.672589 -1.82927 0
M  V30 4105 H 378.092 2.13273 -2.27862 0
M  V30 4106 N 378.394 1.34581 0.820102 0
M  V30 4107 C 379.642 1.26845 1.57336 0
M  V30 4108 C 379.963 -0.160667 1.94337 0
M  V30 4109 O 379.233 -1.09396 1.6251 0
M  V30 4110 H 377.813 0.466514 0.583415 0
M  V30 4111 H 380.475 1.68526 0.979027 0
M  V30 4112 H 379.571 1.87513 2.4949 0
M  V30 4113 N 379.872 -1.04064 1.18357 0
M  V30 4114 C 381.288 -1.2947 0.933258 0
M  V30 4115 C 381.488 -1.97466 -0.401169 0
M  V30 4116 O 380.544 -2.25528 -1.13549 0
M  V30 4117 C 381.857 -2.15337 2.09882 0
M  V30 4118 C 383.405 -2.28683 2.13712 0
M  V30 4119 C 383.88 -3.17917 3.29686 0
M  V30 4120 N 385.371 -3.25504 3.29547 0
M  V30 4121 C 386.106 -3.94706 4.15926 0
M  V30 4122 N 385.602 -4.66239 5.12439 0
M  V30 4123 N 387.395 -3.90986 4.0384 0
M  V30 4124 H 379.546 -0.583359 2.04232 0
M  V30 4125 H 381.809 -0.319921 0.892387 0
M  V30 4126 H 381.515 -1.72682 3.06389 0
M  V30 4127 H 381.389 -3.16015 2.05947 0
M  V30 4128 H 383.776 -2.70575 1.17784 0
M  V30 4129 H 383.857 -1.27596 2.21705 0
M  V30 4130 H 383.501 -2.76736 4.25887 0
M  V30 4131 H 383.431 -4.19036 3.1893 0
M  V30 4132 H 385.922 -2.74547 2.59677 0
M  V30 4133 H 386.235 -5.16638 5.74722 0
M  V30 4134 H 384.58 -4.65143 5.16398 0
M  V30 4135 H 387.771 -3.34234 3.27727 0
M  V30 4136 H 387.944 -4.44646 4.71375 0
M  V30 4137 N 381.35 -0.985608 -1.22978 0
M  V30 4138 C 382.297 -0.529825 -2.24636 0
M  V30 4139 C 383.267 0.434028 -1.60329 0
M  V30 4140 O 384.452 0.340414 -1.87739 0
M  V30 4141 C 381.592 0.156533 -3.44745 0
M  V30 4142 C 380.705 -0.848197 -4.23591 0
M  V30 4143 C 379.84 -0.136109 -5.31026 0
M  V30 4144 C 378.879 -1.1297 -6.01585 0
M  V30 4145 N 378.016 -0.446415 -7.00679 0
M  V30 4146 H 382.856 -1.40148 -2.62988 0
M  V30 4147 H 380.393 -0.702168 -1.29259 0
M  V30 4148 H 382.351 0.571324 -4.1327 0
M  V30 4149 H 380.981 0.992025 -3.07179 0
M  V30 4150 H 380.033 -1.38135 -3.54433 0
M  V30 4151 H 381.345 -1.60512 -4.72268 0
M  V30 4152 H 380.499 0.335784 -6.0577 0
M  V30 4153 H 379.238 0.653373 -4.83304 0
M  V30 4154 H 378.243 -1.6123 -5.25628 0
M  V30 4155 H 379.468 -1.91993 -6.51395 0
M  V30 4156 H 377.414 0.323763 -6.55201 0
M  V30 4157 H 377.331 -1.1419 -7.47326 0
M  V30 4158 H 378.599 0.00291697 -7.795 0
M  V30 4159 N 382.828 1.3818 -0.7579 0
M  V30 4160 C 383.778 2.27741 -0.108674 0
M  V30 4161 C 384.762 1.45415 0.688709 0
M  V30 4162 O 385.954 1.68108 0.553956 0
M  V30 4163 C 383.083 3.34313 0.780367 0
M  V30 4164 C 382.169 4.24093 -0.0240977 0
M  V30 4165 N 382.56 4.9451 -1.06271 0
M  V30 4166 C 380.858 4.45542 0.202049 0
M  V30 4167 C 381.559 5.60675 -1.54979 0
M  V30 4168 N 380.535 5.36684 -0.864348 0
M  V30 4169 H 384.337 2.79649 -0.904071 0
M  V30 4170 H 381.851 1.51133 -0.594346 0
M  V30 4171 H 383.848 3.97368 1.26114 0
M  V30 4172 H 382.508 2.83962 1.57467 0
M  V30 4173 H 383.519 4.97345 -1.44459 0
M  V30 4174 H 380.196 4.06091 0.96935 0
M  V30 4175 H 381.586 6.26992 -2.41517 0
M  V30 4176 N 384.306 0.507319 1.49211 0
M  V30 4177 C 385.717 0.0611118 1.866 0
M  V30 4178 C 386.068 -1.35488 1.41907 0
M  V30 4179 O 385.193 -2.0108 0.799726 0
M  V30 4180 C 385.788 0.104125 3.3864 0
M  V30 4181 C 384.347 -0.28677 3.75306 0
M  V30 4182 C 383.494 0.473893 2.73221 0
M  V30 4183 H 386.445 0.719775 1.41439 0
M  V30 4184 H 386.466 -0.689672 3.74198 0
M  V30 4185 H 385.978 1.13482 3.71138 0
M  V30 4186 H 384.079 -1.32046 3.48417 0
M  V30 4187 H 384.192 0.0370745 4.79086 0
M  V30 4188 H 382.556 -0.0770644 2.54583 0
M  V30 4189 H 383.339 1.50478 3.08563 0
M  V30 4190 N 385.784 -1.5574 0.241426 0
M  V30 4191 C 386.694 -2.2479 -0.671305 0
M  V30 4192 C 387.71 -1.26217 -1.19772 0
M  V30 4193 O 388.886 -1.59079 -1.23514 0
M  V30 4194 C 385.951 -2.92966 -1.85396 0
M  V30 4195 C 385.012 -4.06935 -1.36756 0
M  V30 4196 C 384.245 -4.71851 -2.49384 0
M  V30 4197 O 384.468 -4.35823 -3.67987 0
M  V30 4198 O 383.402 -5.60467 -2.19454 0
M  V30 4199 H 387.228 -3.0349 -0.112966 0
M  V30 4200 H 384.813 -1.49397 0.0101513 0
M  V30 4201 H 386.695 -3.35927 -2.54423 0
M  V30 4202 H 385.37 -2.17211 -2.40002 0
M  V30 4203 H 384.277 -3.68503 -0.644726 0
M  V30 4204 H 385.61 -4.84492 -0.867647 0
M  V30 4205 N 387.262 0.0317525 -1.57568 0
M  V30 4206 C 388.51 0.721676 -1.88776 0
M  V30 4207 C 388.831 1.76039 -0.838772 0
M  V30 4208 O 388.101 1.95482 0.127935 0
M  V30 4209 H 386.681 0.269534 -0.696678 0
M  V30 4210 H 389.343 -0.00165879 -1.949 0
M  V30 4211 H 388.439 1.21293 -2.87566 0
M  V30 4212 N 388.74 1.54641 0.303973 0
M  V30 4213 C 389.688 1.86137 1.39484 0
M  V30 4214 C 390.682 0.734854 1.52631 0
M  V30 4215 O 391.888 0.918803 1.54784 0
M  V30 4216 H 388.263 0.590324 0.465856 0
M  V30 4217 H 390.234 2.77324 1.10154 0
M  V30 4218 C 388.983 2.12274 2.75382 0
M  V30 4219 H 388.306 2.98429 2.66046 0
M  V30 4220 H 389.746 2.38254 3.5073 0
M  V30 4221 C 388.205 0.920365 3.24085 0
M  V30 4222 O 388.735 0.139377 4.01458 0
M  V30 4223 N 386.941 0.726566 2.81371 0
M  V30 4224 H 386.488 1.36332 2.18567 0
M  V30 4225 H 386.446 -0.0763799 3.14307 0
M  V30 4226 N 390.218 -0.567019 1.47046 0
M  V30 4227 C 391.465 -1.32462 1.53167 0
M  V30 4228 C 391.793 -1.93571 0.189841 0
M  V30 4229 O 391.048 -1.77865 -0.816243 0
M  V30 4230 C 391.347 -2.4623 2.59047 0
M  V30 4231 C 391.013 -2.03014 4.02612 0
M  V30 4232 C 389.675 -1.90944 4.41694 0
M  V30 4233 C 392.027 -1.69895 4.92732 0
M  V30 4234 C 389.355 -1.44035 5.68745 0
M  V30 4235 C 391.707 -1.2446 6.20236 0
M  V30 4236 C 390.371 -1.10979 6.5821 0
M  V30 4237 H 389.641 -0.484713 0.560477 0
M  V30 4238 H 392.288 -0.636888 1.80599 0
M  V30 4239 H 390.593 -3.20517 2.25335 0
M  V30 4240 H 392.29 -3.04427 2.61008 0
M  V30 4241 H 388.88 -2.13348 3.71726 0
M  V30 4242 H 393.064 -1.78098 4.63244 0
M  V30 4243 H 388.32 -1.32254 5.96925 0
M  V30 4244 H 392.494 -0.978924 6.89485 0
M  V30 4245 H 390.121 -0.744078 7.5655 0
M  V30 4246 N 391.696 -1.35014 -0.812953 0
M  V30 4247 C 392.945 -1.27269 -1.56479 0
M  V30 4248 C 393.258 0.152771 -1.95002 0
M  V30 4249 O 394.464 0.352451 -2.69203 0
M  V30 4250 C 392.92 -2.23159 -2.82362 0
M  V30 4251 C 392.528 -3.71016 -2.511 0
M  V30 4252 C 394.272 -2.24342 -3.60376 0
M  V30 4253 C 392.179 -4.58746 -3.73237 0
M  V30 4254 H 391.109 -0.472829 -0.587324 0
M  V30 4255 H 393.76 -1.6024 -0.894171 0
M  V30 4256 H 392.142 -1.83151 -3.51101 0
M  V30 4257 H 393.316 -4.1962 -1.90409 0
M  V30 4258 H 391.631 -3.72378 -1.86343 0
M  V30 4259 H 394.228 -2.87107 -4.51081 0
M  V30 4260 H 394.571 -1.24542 -3.97234 0
M  V30 4261 H 395.104 -2.62846 -2.98591 0
M  V30 4262 H 391.843 -5.59521 -3.41492 0
M  V30 4263 H 391.363 -4.14871 -4.33176 0
M  V30 4264 H 393.042 -4.73852 -4.40537 0
M  V30 4265 N 393.175 1.03435 -1.18907 0
M  V30 4266 C 394.107 2.1165 -0.879595 0
M  V30 4267 C 395.12 1.62316 0.125439 0
M  V30 4268 O 396.309 1.78201 -0.103245 0
M  V30 4269 C 393.409 3.37622 -0.294042 0
M  V30 4270 C 392.582 4.16166 -1.34629 0
M  V30 4271 C 391.641 5.20457 -0.775274 0
M  V30 4272 O 390.667 5.50379 -1.4516 0
M  V30 4273 N 391.869 5.78949 0.424126 0
M  V30 4274 H 394.634 2.38791 -1.81105 0
M  V30 4275 H 392.195 1.19681 -1.09032 0
M  V30 4276 H 394.187 4.04572 0.101679 0
M  V30 4277 H 392.757 3.07873 0.541575 0
M  V30 4278 H 391.977 3.44444 -1.91707 0
M  V30 4279 H 393.265 4.65432 -2.05549 0
M  V30 4280 H 392.663 5.56948 0.991209 0
M  V30 4281 H 391.22 6.47334 0.761691 0
M  V30 4282 N 394.653 0.992116 1.22453 0
M  V30 4283 C 395.902 0.662992 1.90492 0
M  V30 4284 C 396.215 -0.808407 1.78113 0
M  V30 4285 O 397.421 -1.24908 2.41061 0
M  V30 4286 C 395.877 1.1353 3.41524 0
M  V30 4287 C 395.485 2.63187 3.62542 0
M  V30 4288 C 397.229 0.880465 4.15269 0
M  V30 4289 C 395.136 3.04024 5.0727 0
M  V30 4290 H 394.066 0.244278 0.713333 0
M  V30 4291 H 396.717 1.20157 1.38688 0
M  V30 4292 H 395.099 0.52485 3.92506 0
M  V30 4293 H 396.273 3.2957 3.22056 0
M  V30 4294 H 394.588 2.86543 3.02129 0
M  V30 4295 H 397.185 1.16128 5.21937 0
M  V30 4296 H 397.528 -0.183408 4.15896 0
M  V30 4297 H 398.061 1.45307 3.70312 0
M  V30 4298 H 394.8 4.09584 5.11782 0
M  V30 4299 H 394.32 2.42343 5.48662 0
M  V30 4300 H 395.999 2.95282 5.75689 0
M  V30 4301 N 396.131 -1.37776 0.765217 0
M  V30 4302 C 397.408 -1.93975 0.251596 0
M  V30 4303 C 397.788 -1.69949 -1.25222 0
M  V30 4304 O 397.136 -1.04457 -2.03226 0
M  V30 4305 C 397.346 -3.43487 0.617895 0
M  V30 4306 C 398.694 -4.20564 0.584029 0
M  V30 4307 O 399.718 -3.5182 0.556888 0
M  V30 4308 O 398.577 -5.43138 0.605291 0
M  V30 4309 H 395.671 -0.82509 0.0561806 0
M  V30 4310 H 398.217 -1.47101 0.846128 0
M  V30 4311 H 396.989 -3.5453 1.65602 0
M  V30 4312 H 396.612 -3.976 -0.00403411 0
M  V30 4313 N 397.609 -0.515225 -1.4894 0
M  V30 4314 C 398.837 0.0206034 -2.0689 0
M  V30 4315 C 399.252 1.29514 -1.37374 0
M  V30 4316 O 398.609 1.76698 -0.456529 0
M  V30 4317 C 398.66 0.26351 -3.60538 0
M  V30 4318 O 398.381 -0.960517 -4.27441 0
M  V30 4319 C 399.882 0.841383 -4.35242 0
M  V30 4320 H 397.102 -0.0268608 -0.670462 0
M  V30 4321 H 399.646 -0.716651 -1.91532 0
M  V30 4322 H 397.801 0.950777 -3.75552 0
M  V30 4323 H 398.215 -0.73212 -5.19365 0
M  V30 4324 H 399.689 0.96085 -5.43573 0
M  V30 4325 H 400.166 1.8427 -3.98674 0
M  V30 4326 H 400.772 0.191143 -4.2487 0
M  V30 4327 N 399.087 1.5561 -0.249682 0
M  V30 4328 C 400.312 2.03865 0.381305 0
M  V30 4329 C 400.737 1.12769 1.50548 0
M  V30 4330 O 400.095 0.121189 1.80895 0
M  V30 4331 C 400.143 3.50101 0.863816 0
M  V30 4332 O 399.247 3.62132 1.97318 0
M  V30 4333 H 398.588 0.658827 0.0827194 0
M  V30 4334 H 401.118 2.01105 -0.376552 0
M  V30 4335 H 401.128 3.90975 1.1663 0
M  V30 4336 H 399.803 4.1588 0.0411816 0
M  V30 4337 H 398.38 3.33155 1.67517 0
M  V30 4338 N 400.565 -0.0233959 1.57583 0
M  V30 4339 C 401.842 -0.748794 1.807 0
M  V30 4340 C 402.222 -1.9327 0.849106 0
M  V30 4341 O 401.57 -2.28247 -0.107468 0
M  V30 4342 C 401.78 -1.17651 3.28571 0
M  V30 4343 C 403.128 -1.59008 3.93702 0
M  V30 4344 O 404.152 -1.27094 3.32755 0
M  V30 4345 O 403.011 -2.18264 5.01022 0
M  V30 4346 H 400.105 -0.362578 0.743281 0
M  V30 4347 H 402.651 0.000261958 1.697 0
M  V30 4348 H 401.423 -0.331603 3.89892 0
M  V30 4349 H 401.046 -1.98541 3.44481 0
M  V30 4350 N 402.043 -1.548 -0.295768 0
M  V30 4351 C 403.292 -1.73538 -1.02798 0
M  V30 4352 C 403.605 -0.531159 -1.8825 0
M  V30 4353 O 404.811 -0.600458 -2.64777 0
M  V30 4354 C 403.267 -3.07051 -1.87744 0
M  V30 4355 C 402.875 -4.34968 -1.07269 0
M  V30 4356 C 404.619 -3.35146 -2.60533 0
M  V30 4357 C 402.526 -5.5953 -1.91521 0
M  V30 4358 H 401.456 -0.646794 -0.387522 0
M  V30 4359 H 404.107 -1.81278 -0.284718 0
M  V30 4360 H 402.489 -2.93289 -2.66078 0
M  V30 4361 H 403.663 -4.5958 -0.335117 0
M  V30 4362 H 401.978 -4.13847 -0.460384 0
M  V30 4363 H 404.575 -4.2541 -3.23929 0
M  V30 4364 H 404.918 -2.54255 -3.29636 0
M  V30 4365 H 405.451 -3.49902 -1.89244 0
M  V30 4366 H 402.19 -6.43103 -1.26878 0
M  V30 4367 H 401.71 -5.39096 -2.62937 0
M  V30 4368 H 403.389 -5.96982 -2.49442 0
M  V30 4369 N 403.521 0.559213 -1.47345 0
M  V30 4370 C 404.451 1.67622 -1.62558 0
M  V30 4371 C 405.432 1.63331 -0.475087 0
M  V30 4372 O 406.617 1.80983 -0.704182 0
M  V30 4373 C 403.747 3.0626 -1.63774 0
M  V30 4374 C 402.701 3.25397 -2.7803 0
M  V30 4375 C 402.027 4.64801 -2.64318 0
M  V30 4376 C 403.327 3.10965 -4.19641 0
M  V30 4377 H 405.021 1.55146 -2.56067 0
M  V30 4378 H 402.567 0.744961 -1.23233 0
M  V30 4379 H 404.52 3.84247 -1.73008 0
M  V30 4380 H 403.244 3.1969 -0.66825 0
M  V30 4381 H 401.903 2.49817 -2.68304 0
M  V30 4382 H 401.551 4.75028 -1.65401 0
M  V30 4383 H 401.251 4.78555 -3.40968 0
M  V30 4384 H 402.775 5.44926 -2.75478 0
M  V30 4385 H 404.189 3.78772 -4.30354 0
M  V30 4386 H 402.586 3.36229 -4.97062 0
M  V30 4387 H 403.656 2.07736 -4.38148 0
M  V30 4388 N 404.999 1.35443 0.805782 0
M  V30 4389 C 406.246 1.28761 1.56291 0
M  V30 4390 C 406.574 -0.137747 1.94012 0
M  V30 4391 O 405.829 -1.1032 1.61642 0
M  V30 4392 C 406.128 2.14045 2.86216 0
M  V30 4393 C 405.794 3.62826 2.67709 0
M  V30 4394 C 404.456 4.0338 2.6237 0
M  V30 4395 C 406.808 4.57227 2.50186 0
M  V30 4396 C 404.136 5.36501 2.37451 0
M  V30 4397 C 406.488 5.90547 2.26797 0
M  V30 4398 C 405.152 6.30245 2.1988 0
M  V30 4399 H 404.422 0.471171 0.571908 0
M  V30 4400 H 407.069 1.67347 0.930974 0
M  V30 4401 H 405.374 1.68342 3.53791 0
M  V30 4402 H 407.071 2.0621 3.43917 0
M  V30 4403 H 403.661 3.30644 2.72713 0
M  V30 4404 H 407.845 4.2678 2.53323 0
M  V30 4405 H 403.101 5.66259 2.30567 0
M  V30 4406 H 407.275 6.63274 2.12228 0
M  V30 4407 H 404.902 7.33328 2.00333 0
M  V30 4408 N 406.477 -1.02803 1.19454 0
M  V30 4409 C 407.726 -1.7562 0.991996 0
M  V30 4410 C 408.039 -1.89672 -0.477901 0
M  V30 4411 O 409.245 -2.59468 -0.799287 0
M  V30 4412 C 407.701 -3.15812 1.72601 0
M  V30 4413 C 407.309 -3.0981 3.23607 0
M  V30 4414 C 409.053 -3.92918 1.60674 0
M  V30 4415 C 406.96 -4.44939 3.89594 0
M  V30 4416 H 405.89 -0.658352 0.367543 0
M  V30 4417 H 408.541 -1.15044 1.42959 0
M  V30 4418 H 406.923 -3.7686 1.21624 0
M  V30 4419 H 408.097 -2.58138 3.81709 0
M  V30 4420 H 406.412 -2.46201 3.35819 0
M  V30 4421 H 409.009 -4.9287 2.07323 0
M  V30 4422 H 409.352 -4.12502 0.561025 0
M  V30 4423 H 409.885 -3.38472 2.09001 0
M  V30 4424 H 406.624 -4.30559 4.94267 0
M  V30 4425 H 406.144 -4.96664 3.36281 0
M  V30 4426 H 407.823 -5.1382 3.93189 0
M  V30 4427 N 407.956 -0.998596 -1.21925 0
M  V30 4428 C 409.196 -0.685948 -1.92546 0
M  V30 4429 C 409.56 0.768441 -1.75952 0
M  V30 4430 O 410.761 1.19277 -2.40887 0
M  V30 4431 C 409.032 -1.08767 -3.40448 0
M  V30 4432 S 410.591 -0.894251 -4.29591 0
M  V30 4433 H 407.409 -0.250622 -0.665364 0
M  V30 4434 H 410.011 -1.28207 -1.47591 0
M  V30 4435 H 408.715 -2.14242 -3.50041 0
M  V30 4436 H 408.246 -0.48357 -3.90417 0
M  V30 4437 H 410.261 0.212149 -4.95746 0
M  V30 4438 N 409.434 1.37368 -0.772513 0
M  V30 4439 C 410.397 2.28601 -0.165541 0
M  V30 4440 C 411.397 1.48062 0.627238 0
M  V30 4441 O 412.587 1.68268 0.450715 0
M  V30 4442 C 409.719 3.32023 0.772897 0
M  V30 4443 H 410.912 2.83787 -0.969787 0
M  V30 4444 H 408.465 1.46647 -0.540775 0
M  V30 4445 H 409.2 2.81962 1.60212 0
M  V30 4446 H 408.985 3.91555 0.206585 0
M  V30 4447 H 410.475 4.00197 1.19298 0
M  V30 4448 N 410.912 0.523116 1.48665 0
M  V30 4449 C 412.16 -0.0134497 2.02096 0
M  V30 4450 C 412.481 -1.35418 1.40311 0
M  V30 4451 O 411.751 -1.87543 0.566074 0
M  V30 4452 H 410.331 -0.00795915 0.746958 0
M  V30 4453 H 412.993 0.685388 1.82451 0
M  V30 4454 H 412.089 -0.126849 3.11842 0
M  V30 4455 N 412.39 -1.55475 0.257931 0
M  V30 4456 C 413.353 -2.20551 -0.623706 0
M  V30 4457 C 414.353 -1.17809 -1.09443 0
M  V30 4458 O 415.543 -1.42823 -0.997362 0
M  V30 4459 C 412.675 -2.85784 -1.8585 0
M  V30 4460 H 413.868 -2.99848 -0.0557743 0
M  V30 4461 H 411.421 -1.56298 0.0084422 0
M  V30 4462 H 412.156 -2.10453 -2.46739 0
M  V30 4463 H 411.941 -3.61057 -1.52907 0
M  V30 4464 H 413.431 -3.35553 -2.48584 0
M  V30 4465 N 413.868 0.0150385 -1.57593 0
M  V30 4466 C 415.115 0.703001 -1.89906 0
M  V30 4467 C 415.443 1.74604 -0.856944 0
M  V30 4468 O 414.698 1.95197 0.140287 0
M  V30 4469 C 414.997 1.39686 -3.28972 0
M  V30 4470 C 414.663 0.488457 -4.48246 0
M  V30 4471 C 413.325 0.2383 -4.8061 0
M  V30 4472 C 415.677 -0.137881 -5.21018 0
M  V30 4473 C 413.005 -0.646738 -5.83125 0
M  V30 4474 C 415.357 -1.0107 -6.24474 0
M  V30 4475 C 414.021 -1.27019 -6.55303 0
M  V30 4476 H 413.291 0.257246 -0.694914 0
M  V30 4477 H 415.938 -0.037259 -1.91464 0
M  V30 4478 H 414.243 2.21079 -3.23468 0
M  V30 4479 H 415.94 1.93495 -3.51227 0
M  V30 4480 H 412.53 0.693593 -4.22951 0
M  V30 4481 H 416.714 0.0423953 -4.96282 0
M  V30 4482 H 411.97 -0.855937 -6.05379 0
M  V30 4483 H 416.144 -1.50247 -6.79999 0
M  V30 4484 H 413.771 -1.95769 -7.3456 0
M  V30 4485 N 415.346 1.54954 0.287554 0
M  V30 4486 C 416.623 1.65569 1.04146 0
M  V30 4487 C 417.003 0.512672 2.0478 0
M  V30 4488 O 416.351 -0.489038 2.23205 0
M  V30 4489 C 416.561 3.04163 1.71131 0
M  V30 4490 C 417.909 3.61429 2.22832 0
M  V30 4491 O 418.933 3.06702 1.81141 0
M  V30 4492 O 417.792 4.57281 2.9926 0
M  V30 4493 H 414.886 0.671881 0.482188 0
M  V30 4494 H 417.432 1.67297 0.28457 0
M  V30 4495 H 416.204 3.78796 0.981303 0
M  V30 4496 H 415.827 3.06271 2.53543 0
M  V30 4497 N 416.824 -0.551391 1.4764 0
M  V30 4498 C 418.072 -1.30572 1.54258 0
M  V30 4499 C 418.393 -1.93877 0.208963 0
M  V30 4500 O 417.663 -1.80234 -0.767619 0
M  V30 4501 H 416.243 -0.484894 0.568231 0
M  V30 4502 H 418.905 -0.643402 1.83974 0
M  V30 4503 H 418.001 -2.09621 2.31226 0
M  V30 4504 N 418.302 -1.35869 -0.798587 0
M  V30 4505 C 419.232 -1.32118 -1.92528 0
M  V30 4506 C 420.213 -0.194209 -1.68988 0
M  V30 4507 O 421.398 -0.390426 -1.90235 0
M  V30 4508 C 418.528 -1.10047 -3.29404 0
M  V30 4509 C 417.482 -2.19471 -3.67446 0
M  V30 4510 C 416.808 -1.82555 -5.02571 0
M  V30 4511 C 418.108 -3.61495 -3.76987 0
M  V30 4512 H 419.802 -2.26394 -1.95924 0
M  V30 4513 H 417.348 -1.08981 -0.94123 0
M  V30 4514 H 419.301 -1.06061 -4.07835 0
M  V30 4515 H 418.025 -0.122195 -3.26371 0
M  V30 4516 H 416.684 -2.22568 -2.91306 0
M  V30 4517 H 416.332 -0.833249 -4.9605 0
M  V30 4518 H 416.032 -2.5581 -5.28995 0
M  V30 4519 H 417.556 -1.80108 -5.83432 0
M  V30 4520 H 418.97 -3.60676 -4.4563 0
M  V30 4521 H 417.367 -4.33577 -4.14887 0
M  V30 4522 H 418.437 -3.97065 -2.78329 0
M  V30 4523 N 419.78 1.02168 -1.19998 0
M  V30 4524 C 420.743 2.08765 -0.94604 0
M  V30 4525 C 421.743 1.60618 0.0763846 0
M  V30 4526 O 422.933 1.73472 -0.159135 0
M  V30 4527 C 420.065 3.38262 -0.423255 0
M  V30 4528 H 421.258 2.32726 -1.89153 0
M  V30 4529 H 418.811 1.1889 -1.01464 0
M  V30 4530 H 419.546 3.19974 0.527938 0
M  V30 4531 H 419.331 3.74532 -1.16053 0
M  V30 4532 H 420.821 4.16759 -0.264911 0
M  V30 4533 N 421.258 1.00505 1.21394 0
M  V30 4534 C 422.168 0.574806 2.27449 0
M  V30 4535 C 423.184 -0.382206 1.6975 0
M  V30 4536 O 424.36 -0.246027 1.99892 0
M  V30 4537 C 421.425 -0.0917414 3.46579 0
M  V30 4538 C 420.486 0.909758 4.1955 0
M  V30 4539 C 419.719 0.274924 5.32991 0
M  V30 4540 O 419.942 -0.928254 5.62796 0
M  V30 4541 O 418.876 0.985877 5.93771 0
M  V30 4542 H 422.702 1.45744 2.66444 0
M  V30 4543 H 420.287 0.773923 1.27792 0
M  V30 4544 H 422.169 -0.464551 4.18832 0
M  V30 4545 H 420.844 -0.948755 3.09484 0
M  V30 4546 H 419.751 1.33372 3.49518 0
M  V30 4547 H 421.084 1.73636 4.60555 0
M  V30 4548 N 422.737 -1.36956 0.779787 0
M  V30 4549 C 423.986 -1.98738 0.344405 0
M  V30 4550 C 424.299 -1.62596 -1.08728 0
M  V30 4551 O 425.505 -2.1754 -1.62445 0
M  V30 4552 C 423.961 -3.5544 0.564829 0
M  V30 4553 C 423.569 -4.00514 2.0073 0
M  V30 4554 C 425.313 -4.24059 0.193471 0
M  V30 4555 C 423.22 -5.49957 2.17489 0
M  V30 4556 H 422.15 -0.743561 0.12503 0
M  V30 4557 H 424.801 -1.56381 0.960057 0
M  V30 4558 H 423.183 -3.95817 -0.120397 0
M  V30 4559 H 424.357 -3.71362 2.72814 0
M  V30 4560 H 422.672 -3.44703 2.336 0
M  V30 4561 H 425.269 -5.33874 0.297097 0
M  V30 4562 H 425.612 -4.07378 -0.857263 0
M  V30 4563 H 426.145 -3.89012 0.831556 0
M  V30 4564 H 422.884 -5.71574 3.2091 0
M  V30 4565 H 422.404 -5.80767 1.49899 0
M  V30 4566 H 424.083 -6.16043 1.97738 0
M  V30 4567 N 424.215 -0.530993 -1.48385 0
M  V30 4568 C 425.464 0.00474348 -2.01699 0
M  V30 4569 C 425.777 1.35227 -1.41325 0
M  V30 4570 O 426.983 1.97643 -1.86144 0
M  V30 4571 C 425.439 0.0588473 -3.59852 0
M  V30 4572 C 425.047 -1.28385 -4.2921 0
M  V30 4573 C 426.791 0.543358 -4.21008 0
M  V30 4574 C 424.698 -1.19028 -5.79298 0
M  V30 4575 H 423.628 0.00554317 -0.75398 0
M  V30 4576 H 426.279 -0.674924 -1.70637 0
M  V30 4577 H 424.661 0.803612 -3.8776 0
M  V30 4578 H 425.835 -2.04426 -4.12973 0
M  V30 4579 H 424.15 -1.70418 -3.7993 0
M  V30 4580 H 426.747 0.631351 -5.3096 0
M  V30 4581 H 427.09 1.54937 -3.86394 0
M  V30 4582 H 427.623 -0.145754 -3.97533 0
M  V30 4583 H 424.362 -2.17147 -6.18488 0
M  V30 4584 H 423.882 -0.471246 -5.97946 0
M  V30 4585 H 425.561 -0.881365 -6.40969 0
M  V30 4586 N 425.693 1.55336 -0.266172 0
M  V30 4587 C 426.64 2.22172 0.625165 0
M  V30 4588 C 427.61 1.19211 1.15663 0
M  V30 4589 O 428.795 1.47723 1.20758 0
M  V30 4590 C 425.935 2.93972 1.8076 0
M  V30 4591 C 425.048 4.11632 1.31084 0
M  V30 4592 C 424.183 4.71099 2.45436 0
M  V30 4593 C 423.222 5.8097 1.92718 0
M  V30 4594 N 422.359 6.34538 3.00509 0
M  V30 4595 H 427.199 2.9796 0.0485582 0
M  V30 4596 H 424.736 1.47095 0.0122024 0
M  V30 4597 H 426.694 3.33811 2.50251 0
M  V30 4598 H 425.324 2.20623 2.35638 0
M  V30 4599 H 424.376 3.76975 0.509326 0
M  V30 4600 H 425.688 4.90893 0.884633 0
M  V30 4601 H 424.842 5.13612 3.22936 0
M  V30 4602 H 423.581 3.91096 2.91368 0
M  V30 4603 H 422.586 5.37916 1.13695 0
M  V30 4604 H 423.811 6.62836 1.47733 0
M  V30 4605 H 421.757 5.57433 3.45839 0
M  V30 4606 H 421.674 7.09046 2.62279 0
M  V30 4607 H 422.942 6.81709 3.78011 0
M  V30 4608 N 427.171 -0.0066808 1.57599 0
M  V30 4609 C 428.118 -1.00024 2.08 0
M  V30 4610 C 429.088 -1.34549 0.973943 0
M  V30 4611 O 430.273 -1.44502 1.24595 0
M  V30 4612 C 427.413 -2.2891 2.58252 0
M  V30 4613 C 426.526 -2.00346 3.82734 0
M  V30 4614 C 425.661 -3.23265 4.21513 0
M  V30 4615 C 424.7 -2.90357 5.3885 0
M  V30 4616 N 423.837 -4.05793 5.72954 0
M  V30 4617 H 428.677 -0.563499 2.92624 0
M  V30 4618 H 426.214 -0.266592 1.44664 0
M  V30 4619 H 428.172 -3.04247 2.85464 0
M  V30 4620 H 426.802 -2.70265 1.76512 0
M  V30 4621 H 425.854 -1.15406 3.62471 0
M  V30 4622 H 427.166 -1.72086 4.68175 0
M  V30 4623 H 426.32 -4.06953 4.49971 0
M  V30 4624 H 425.059 -3.54657 3.34768 0
M  V30 4625 H 424.064 -2.05075 5.10122 0
M  V30 4626 H 425.289 -2.60219 6.27266 0
M  V30 4627 H 423.235 -4.37094 4.89167 0
M  V30 4628 H 423.152 -3.81034 6.52954 0
M  V30 4629 H 424.42 -4.90289 6.06001 0
M  V30 4630 N 428.649 -1.55105 -0.279332 0
M  V30 4631 C 430.065 -1.46803 -0.626187 0
M  V30 4632 C 430.265 -0.676939 -1.89789 0
M  V30 4633 O 429.321 -0.19326 -2.51759 0
M  V30 4634 C 430.634 -2.90962 -0.759034 0
M  V30 4635 C 432.182 -3.01138 -0.853504 0
M  V30 4636 C 432.657 -4.46539 -1.01818 0
M  V30 4637 N 434.148 -4.50341 -1.08386 0
M  V30 4638 C 434.883 -5.60053 -1.22996 0
M  V30 4639 N 434.379 -6.79645 -1.34366 0
M  V30 4640 N 436.172 -5.47783 -1.26056 0
M  V30 4641 H 428.323 -2.04996 0.555921 0
M  V30 4642 H 430.586 -0.929325 0.187239 0
M  V30 4643 H 430.292 -3.51544 0.104852 0
M  V30 4644 H 430.166 -3.39619 -1.64131 0
M  V30 4645 H 432.553 -2.40658 -1.70786 0
M  V30 4646 H 432.634 -2.55745 0.0532466 0
M  V30 4647 H 432.278 -5.0762 -0.168504 0
M  V30 4648 H 432.208 -4.89583 -1.93948 0
M  V30 4649 H 434.699 -3.64191 -1.00864 0
M  V30 4650 H 435.012 -7.59012 -1.4533 0
M  V30 4651 H 433.357 -6.82469 -1.31382 0
M  V30 4652 H 436.548 -4.53294 -1.168 0
M  V30 4653 H 436.721 -6.33331 -1.37098 0
M  V30 4654 N 430.127 0.543554 -1.4793 0
M  V30 4655 C 431.355 1.32516 -1.58894 0
M  V30 4656 C 431.77 1.87215 -0.244131 0
M  V30 4657 O 431.127 1.65709 0.764652 0
M  V30 4658 C 431.178 2.48554 -2.62494 0
M  V30 4659 O 430.899 1.96112 -3.91755 0
M  V30 4660 C 432.4 3.40572 -2.8377 0
M  V30 4661 H 429.62 0.403472 -0.536145 0
M  V30 4662 H 432.164 0.657106 -1.93655 0
M  V30 4663 H 430.319 3.1127 -2.30629 0
M  V30 4664 H 430.733 2.71967 -4.4848 0
M  V30 4665 H 432.207 4.18375 -3.60093 0
M  V30 4666 H 432.684 3.94965 -1.92092 0
M  V30 4667 H 433.29 2.8366 -3.16887 0
M  V30 4668 N 431.605 1.3629 0.791371 0
M  V30 4669 C 432.833 1.33562 1.58016 0
M  V30 4670 C 433.248 -0.0835616 1.88615 0
M  V30 4671 O 432.605 -1.0399 1.49974 0
M  V30 4672 C 432.656 2.15517 2.90232 0
M  V30 4673 O 432.377 3.51902 2.60953 0
M  V30 4674 C 433.878 2.20546 3.84544 0
M  V30 4675 H 431.098 0.458226 0.490173 0
M  V30 4676 H 433.642 1.79361 0.982345 0
M  V30 4677 H 431.797 1.73278 3.46487 0
M  V30 4678 H 432.211 3.94644 3.4548 0
M  V30 4679 H 433.685 2.82252 4.74382 0
M  V30 4680 H 434.162 1.20838 4.2225 0
M  V30 4681 H 434.768 2.63013 3.34222 0
M  V30 4682 N 433.083 -1.0153 1.20538 0
M  V30 4683 C 434.015 -2.10224 0.913155 0
M  V30 4684 C 435.028 -1.62495 -0.0995998 0
M  V30 4685 O 436.217 -1.78014 0.131582 0
M  V30 4686 C 433.317 -3.37111 0.347717 0
M  V30 4687 C 432.49 -4.13971 1.41233 0
M  V30 4688 C 431.549 -5.19158 0.857976 0
M  V30 4689 O 430.575 -5.48 1.53897 0
M  V30 4690 N 431.777 -5.7955 -0.331966 0
M  V30 4691 H 434.542 -2.35879 1.84881 0
M  V30 4692 H 432.103 -1.17931 1.10923 0
M  V30 4693 H 434.095 -4.04683 -0.0373026 0
M  V30 4694 H 432.665 -3.08696 -0.492527 0
M  V30 4695 H 431.885 -3.41351 1.97163 0
M  V30 4696 H 433.173 -4.62103 2.12928 0
M  V30 4697 H 432.571 -5.58455 -0.902478 0
M  V30 4698 H 431.128 -6.48464 -0.65861 0
M  V30 4699 N 434.561 -1.01147 -1.20859 0
M  V30 4700 C 435.509 -0.57059 -2.25493 0
M  V30 4701 C 436.503 0.388109 -1.64894 0
M  V30 4702 O 437.709 0.258592 -1.78133 0
M  V30 4703 H 434.084 -0.166191 -0.733406 0
M  V30 4704 H 436.055 -1.46411 -2.60012 0
M  V30 4705 C 434.804 0.0805241 -3.47607 0
M  V30 4706 H 434.127 -0.648156 -3.94511 0
M  V30 4707 H 435.567 0.352197 -4.22535 0
M  V30 4708 C 434.026 1.32175 -3.09889 0
M  V30 4709 O 434.556 2.41553 -3.20959 0
M  V30 4710 N 432.762 1.20392 -2.64488 0
M  V30 4711 H 432.309 0.313905 -2.5568 0
M  V30 4712 H 432.267 2.03541 -2.39621 0
M  V30 4713 N 436.039 1.36541 -0.78704 0
M  V30 4714 C 437.285 1.99599 -0.358872 0
M  V30 4715 C 437.618 1.62323 1.06606 0
M  V30 4716 O 436.893 0.876858 1.73613 0
M  V30 4717 C 437.176 3.56327 -0.519944 0
M  V30 4718 C 437.029 4.03464 -1.98839 0
M  V30 4719 C 438.348 4.4005 0.0664737 0
M  V30 4720 H 435.467 0.725107 -0.131869 0
M  V30 4721 H 438.109 1.6199 -0.992936 0
M  V30 4722 H 436.259 3.88495 0.0198321 0
M  V30 4723 H 437.931 3.81793 -2.58905 0
M  V30 4724 H 436.174 3.55092 -2.49183 0
M  V30 4725 H 436.845 5.12439 -2.05207 0
M  V30 4726 H 439.321 4.14228 -0.394267 0
M  V30 4727 H 438.197 5.48847 -0.0762682 0
M  V30 4728 H 438.458 4.26655 1.15835 0
M  V30 4729 N 437.518 0.538854 1.48102 0
M  V30 4730 C 438.448 -0.207654 2.32575 0
M  V30 4731 C 439.429 -0.926559 1.4265 0
M  V30 4732 O 440.614 -0.91061 1.71527 0
M  V30 4733 C 437.744 -1.24957 3.24042 0
M  V30 4734 C 436.698 -0.648263 4.23062 0
M  V30 4735 C 436.024 -1.79348 5.03725 0
M  V30 4736 C 437.324 0.385897 5.20872 0
M  V30 4737 H 439.018 0.497534 2.95237 0
M  V30 4738 H 436.564 0.240715 1.41974 0
M  V30 4739 H 438.517 -1.77983 3.81969 0
M  V30 4740 H 437.241 -1.98446 2.59397 0
M  V30 4741 H 435.9 -0.139452 3.66335 0
M  V30 4742 H 435.548 -2.51696 4.35498 0
M  V30 4743 H 435.248 -1.39702 5.70751 0
M  V30 4744 H 436.772 -2.32735 5.64506 0
M  V30 4745 H 438.186 -0.057607 5.73271 0
M  V30 4746 H 436.583 0.700227 5.96001 0
M  V30 4747 H 437.653 1.28848 4.67468 0
M  V30 4748 N 438.996 -1.55193 0.274407 0
M  V30 4749 C 440.244 -1.99187 -0.341902 0
M  V30 4750 C 440.565 -1.16422 -1.56431 0
M  V30 4751 O 439.835 -0.253573 -1.94252 0
M  V30 4752 H 438.415 -0.735721 -0.129317 0
M  V30 4753 H 441.077 -1.91168 0.379578 0
M  V30 4754 H 440.173 -3.05629 -0.632253 0
M  V30 4755 N 440.474 -0.00167713 -1.576 0
M  V30 4756 C 441.721 0.68282 -1.90641 0
M  V30 4757 C 442.049 1.73686 -0.875415 0
M  V30 4758 O 441.304 1.95334 0.119575 0
M  V30 4759 C 441.603 1.36189 -3.30435 0
M  V30 4760 C 441.269 0.440887 -4.48739 0
M  V30 4761 C 439.931 0.187312 -4.80835 0
M  V30 4762 C 442.283 -0.193134 -5.20842 0
M  V30 4763 C 439.611 -0.70855 -5.82406 0
M  V30 4764 C 441.963 -1.07688 -6.23367 0
M  V30 4765 C 440.627 -1.33962 -6.53919 0
M  V30 4766 H 439.897 0.249862 -0.697603 0
M  V30 4767 H 442.544 -0.0575642 -1.91413 0
M  V30 4768 H 440.849 2.17636 -3.25794 0
M  V30 4769 H 442.546 1.89759 -3.5326 0
M  V30 4770 H 439.136 0.648694 -4.23663 0
M  V30 4771 H 443.32 -0.0102445 -4.96299 0
M  V30 4772 H 438.576 -0.920097 -6.04437 0
M  V30 4773 H 442.75 -1.57451 -6.78367 0
M  V30 4774 H 440.377 -2.03549 -7.32442 0
M  V30 4775 N 441.952 1.55251 0.271103 0
M  V30 4776 C 443.18 1.79974 1.02064 0
M  V30 4777 C 443.595 0.574003 1.79863 0
M  V30 4778 O 442.952 -0.456962 1.76686 0
M  V30 4779 C 443.003 3.02603 1.97772 0
M  V30 4780 O 442.724 4.20443 1.23124 0
M  V30 4781 C 444.225 3.39944 2.84522 0
M  V30 4782 H 441.445 0.599489 0.301419 0
M  V30 4783 H 443.989 2.02268 0.301313 0
M  V30 4784 H 442.144 2.8243 2.65165 0
M  V30 4785 H 442.558 4.89783 1.87651 0
M  V30 4786 H 444.032 4.28915 3.47471 0
M  V30 4787 H 444.509 2.59432 3.54389 0
M  V30 4788 H 445.115 3.62383 2.22618 0
M  V30 4789 N 443.43 -0.535701 1.48216 0
M  V30 4790 C 444.362 -1.65662 1.58394 0
M  V30 4791 C 445.375 -1.5591 0.468607 0
M  V30 4792 O 446.564 -1.62475 0.7392 0
M  V30 4793 C 443.664 -3.04276 1.4923 0
M  V30 4794 C 442.837 -3.39567 2.75705 0
M  V30 4795 C 441.896 -4.57436 2.60075 0
M  V30 4796 O 440.922 -4.60942 3.33948 0
M  V30 4797 N 442.124 -5.55259 1.69315 0
M  V30 4798 H 444.889 -1.5737 2.55058 0
M  V30 4799 H 442.45 -0.722845 1.44867 0
M  V30 4800 H 444.442 -3.80994 1.36477 0
M  V30 4801 H 443.012 -3.06677 0.605632 0
M  V30 4802 H 442.232 -2.52083 3.03064 0
M  V30 4803 H 443.52 -3.59929 3.59623 0
M  V30 4804 H 442.918 -5.552 1.08489 0
M  V30 4805 H 441.475 -6.31218 1.62504 0
M  V30 4806 N 444.908 -1.36708 -0.784132 0
M  V30 4807 C 445.818 -1.3363 -1.92822 0
M  V30 4808 C 446.834 -0.237686 -1.72369 0
M  V30 4809 O 448.01 -0.470962 -1.95816 0
M  V30 4810 C 445.075 -1.13011 -3.27764 0
M  V30 4811 C 444.136 -2.32397 -3.60957 0
M  V30 4812 C 443.369 -2.12752 -4.89461 0
M  V30 4813 O 443.592 -1.10541 -5.59586 0
M  V30 4814 O 442.526 -3.00653 -5.21432 0
M  V30 4815 H 446.352 -2.29964 -1.98369 0
M  V30 4816 H 443.937 -1.1731 -0.925136 0
M  V30 4817 H 445.819 -1.03451 -4.08504 0
M  V30 4818 H 444.494 -0.19743 -3.23097 0
M  V30 4819 H 443.401 -2.47527 -2.80502 0
M  V30 4820 H 444.734 -3.2419 -3.70354 0
M  V30 4821 N 446.386 1.0089 -1.21074 0
M  V30 4822 C 447.333 2.09588 -0.966512 0
M  V30 4823 C 448.303 1.65761 0.106089 0
M  V30 4824 O 449.488 1.90758 -0.0402287 0
M  V30 4825 C 446.628 3.40958 -0.533058 0
M  V30 4826 C 445.741 3.9822 -1.67467 0
M  V30 4827 C 444.876 5.17682 -1.19076 0
M  V30 4828 C 443.915 5.67043 -2.30496 0
M  V30 4829 N 443.052 6.77759 -1.83267 0
M  V30 4830 H 447.892 2.29815 -1.89708 0
M  V30 4831 H 445.429 1.12689 -0.945489 0
M  V30 4832 H 447.387 4.1637 -0.263019 0
M  V30 4833 H 446.017 3.20781 0.360505 0
M  V30 4834 H 445.069 3.1983 -2.05944 0
M  V30 4835 H 446.381 4.3085 -2.51336 0
M  V30 4836 H 445.535 6.00326 -0.877151 0
M  V30 4837 H 444.274 4.86635 -0.322066 0
M  V30 4838 H 443.279 4.82999 -2.62664 0
M  V30 4839 H 444.504 6.00121 -3.17855 0
M  V30 4840 H 442.45 6.48527 -0.987356 0
M  V30 4841 H 442.367 7.09624 -2.60711 0
M  V30 4842 H 443.635 7.63949 -1.54928 0
M  V30 4843 N 447.864 1.01787 1.20321 0
M  V30 4844 C 448.797 0.533882 2.21867 0
M  V30 4845 C 449.775 -0.419361 1.57099 0
M  V30 4846 O 450.959 -0.339062 1.85426 0
M  V30 4847 C 448.086 -0.222899 3.37966 0
M  V30 4848 C 447.132 0.680091 4.21043 0
M  V30 4849 S 447.965 2.14997 4.90445 0
M  V30 4850 C 449.121 1.40339 6.09964 0
M  V30 4851 H 449.354 1.39429 2.62577 0
M  V30 4852 H 446.887 0.826867 1.30393 0
M  V30 4853 H 448.845 -0.653425 4.05266 0
M  V30 4854 H 447.506 -1.0589 2.95713 0
M  V30 4855 H 446.699 0.0964704 5.03908 0
M  V30 4856 H 446.301 1.04845 3.59004 0
M  V30 4857 H 448.593 0.68407 6.74038 0
M  V30 4858 H 449.536 2.20823 6.72787 0
M  V30 4859 H 449.944 0.905716 5.57187 0
M  V30 4860 N 449.342 -1.36122 0.79427 0
M  V30 4861 C 450.567 -2.03891 0.379871 0
M  V30 4862 C 450.992 -1.59488 -0.997251 0
M  V30 4863 O 450.35 -0.765652 -1.64339 0
M  V30 4864 C 450.398 -3.57687 0.457442 0
M  V30 4865 O 449.502 -4.08931 -0.5338 0
M  V30 4866 H 448.843 -0.6443 0.160541 0
M  V30 4867 H 451.373 -1.73976 1.07673 0
M  V30 4868 H 451.383 -4.06721 0.322792 0
M  V30 4869 H 450.058 -3.89357 1.46199 0
M  V30 4870 H 448.635 -3.71154 -0.360409 0
M  V30 4871 N 450.82 -0.546701 -1.47814 0
M  V30 4872 C 451.767 0.206854 -2.29871 0
M  V30 4873 C 452.737 0.918235 -1.38411 0
M  V30 4874 O 453.922 0.915991 -1.67375 0
M  V30 4875 C 451.062 1.23746 -3.22151 0
M  V30 4876 C 450.175 0.533216 -4.28697 0
M  V30 4877 C 449.31 1.5482 -5.08138 0
M  V30 4878 C 448.349 0.828347 -6.06469 0
M  V30 4879 N 447.486 1.78966 -6.78908 0
M  V30 4880 H 452.326 -0.499037 -2.93792 0
M  V30 4881 H 449.863 -0.25793 -1.44821 0
M  V30 4882 H 451.821 1.84746 -3.74065 0
M  V30 4883 H 450.451 1.91151 -2.60117 0
M  V30 4884 H 449.503 -0.191089 -3.7992 0
M  V30 4885 H 450.815 -0.0311987 -4.9879 0
M  V30 4886 H 449.969 2.23202 -5.6415 0
M  V30 4887 H 448.708 2.14652 -4.37922 0
M  V30 4888 H 447.713 0.130539 -5.49645 0
M  V30 4889 H 448.938 0.235907 -6.7869 0
M  V30 4890 H 446.884 2.37675 -6.1143 0
M  V30 4891 H 446.801 1.27712 -7.45135 0
M  V30 4892 H 448.069 2.46496 -7.395 0
M  V30 4893 N 452.299 1.55045 -0.282633 0
M  V30 4894 C 453.246 2.22822 0.601566 0
M  V30 4895 C 454.216 1.20431 1.14392 0
M  V30 4896 O 455.401 1.48996 1.19184 0
M  V30 4897 C 452.541 2.95873 1.77632 0
M  V30 4898 C 451.654 4.12999 1.26711 0
M  V30 4899 C 450.789 4.73676 2.40426 0
M  V30 4900 C 449.828 5.82981 1.86545 0
M  V30 4901 N 448.965 6.3769 2.93762 0
M  V30 4902 H 453.805 2.97995 0.0169528 0
M  V30 4903 H 451.342 1.471 -0.00339964 0
M  V30 4904 H 453.3 3.36447 2.46697 0
M  V30 4905 H 451.93 2.2311 2.33285 0
M  V30 4906 H 450.982 3.77494 0.469314 0
M  V30 4907 H 452.294 4.91803 0.832518 0
M  V30 4908 H 451.448 5.17008 3.17471 0
M  V30 4909 H 450.187 3.94164 2.87203 0
M  V30 4910 H 449.192 5.39092 1.07983 0
M  V30 4911 H 450.417 6.64366 1.40694 0
M  V30 4912 H 448.363 5.61069 3.39908 0
M  V30 4913 H 448.28 7.11788 2.54744 0
M  V30 4914 H 449.548 6.8568 3.7076 0
M  V30 4915 N 453.777 0.010035 1.57597 0
M  V30 4916 C 454.687 -0.994226 2.12491 0
M  V30 4917 C 455.703 -1.37013 1.07254 0
M  V30 4918 O 456.879 -1.45542 1.3921 0
M  V30 4919 C 453.944 -2.2642 2.62555 0
M  V30 4920 C 453.005 -1.95049 3.82432 0
M  V30 4921 C 452.238 -3.15991 4.30099 0
M  V30 4922 O 452.461 -4.28015 3.7704 0
M  V30 4923 O 451.395 -2.99403 5.22151 0
M  V30 4924 H 455.221 -0.557549 2.98538 0
M  V30 4925 H 452.806 -0.209413 1.47925 0
M  V30 4926 H 454.688 -3.01009 2.9491 0
M  V30 4927 H 453.363 -2.69306 1.796 0
M  V30 4928 H 452.27 -1.17904 3.55034 0
M  V30 4929 H 453.603 -1.56992 4.66491 0
M  V30 4930 N 455.255 -1.55392 -0.262866 0
M  V30 4931 C 456.187 -1.85392 -1.34768 0
M  V30 4932 C 457.2 -0.739069 -1.45057 0
M  V30 4933 O 458.389 -1.01703 -1.46693 0
M  V30 4934 C 455.489 -2.01088 -2.72795 0
M  V30 4935 C 454.662 -3.31828 -2.84972 0
M  V30 4936 C 453.721 -3.37464 -4.03738 0
M  V30 4937 O 452.747 -4.10778 -3.94018 0
M  V30 4938 N 453.949 -2.65599 -5.16176 0
M  V30 4939 H 456.714 -2.79029 -1.09375 0
M  V30 4940 H 454.275 -1.55434 -0.452981 0
M  V30 4941 H 456.267 -2.02217 -3.50557 0
M  V30 4942 H 454.837 -1.1427 -2.90966 0
M  V30 4943 H 454.057 -3.43152 -1.94012 0
M  V30 4944 H 455.345 -4.18032 -2.90045 0
M  V30 4945 H 454.743 -2.05736 -5.26962 0
M  V30 4946 H 453.3 -2.72439 -5.92132 0
M  V30 4947 N 456.733 0.527833 -1.48498 0
M  V30 4948 C 457.643 1.65907 -1.65867 0
M  V30 4949 C 458.659 1.6537 -0.541192 0
M  V30 4950 O 459.835 1.84282 -0.812534 0
M  V30 4951 C 456.9 3.02364 -1.69637 0
M  V30 4952 C 455.961 3.1374 -2.93028 0
M  V30 4953 C 455.194 4.43688 -2.96609 0
M  V30 4954 O 455.417 5.30913 -2.08538 0
M  V30 4955 O 454.351 4.59475 -3.88802 0
M  V30 4956 H 458.177 1.5419 -2.61647 0
M  V30 4957 H 455.762 0.701163 -1.31924 0
M  V30 4958 H 457.644 3.83515 -1.74625 0
M  V30 4959 H 456.319 3.14401 -0.770312 0
M  V30 4960 H 455.226 2.31877 -2.93571 0
M  V30 4961 H 456.559 3.06621 -3.85026 0
M  V30 4962 N 458.211 1.37122 0.776871 0
M  V30 4963 C 459.174 1.32301 1.8716 0
M  V30 4964 C 460.174 0.228099 1.59174 0
M  V30 4965 O 461.364 0.483642 1.67352 0
M  V30 4966 C 458.496 1.054 3.24197 0
M  V30 4967 H 459.689 2.29673 1.92848 0
M  V30 4968 H 457.242 1.22077 0.97606 0
M  V30 4969 H 457.977 0.0853872 3.24188 0
M  V30 4970 H 457.762 1.84648 3.45901 0
M  V30 4971 H 459.252 1.04664 4.04271 0
M  V30 4972 N 459.689 -1.00246 1.21608 0
M  V30 4973 C 460.938 -1.73476 1.02902 0
M  V30 4974 C 461.251 -1.90643 -0.437561 0
M  V30 4975 O 462.457 -2.61105 -0.74407 0
M  V30 4976 C 460.913 -3.12079 1.79261 0
M  V30 4977 C 460.521 -3.02877 3.30106 0
M  V30 4978 C 462.265 -3.89421 1.68972 0
M  V30 4979 C 460.172 -4.36575 3.98944 0
M  V30 4980 H 459.102 -0.650408 0.381425 0
M  V30 4981 H 461.753 -1.11985 1.45367 0
M  V30 4982 H 460.135 -3.74196 1.2959 0
M  V30 4983 H 461.309 -2.49983 3.87098 0
M  V30 4984 H 459.624 -2.39022 3.40965 0
M  V30 4985 H 462.221 -4.88362 2.17731 0
M  V30 4986 H 462.564 -4.1122 0.648397 0
M  V30 4987 H 463.097 -3.33963 2.16133 0
M  V30 4988 H 459.836 -4.19978 5.03288 0
M  V30 4989 H 459.356 -4.8942 3.4674 0
M  V30 4990 H 461.035 -5.05364 4.04 0
M  V30 4991 N 461.167 -1.02423 -1.1978 0
M  V30 4992 C 462.097 -0.62157 -2.25075 0
M  V30 4993 C 463.078 0.367148 -1.6609 0
M  V30 4994 O 464.263 0.250892 -1.92573 0
M  V30 4995 C 461.393 0.0331826 -3.47284 0
M  V30 4996 C 460.347 -0.877323 -4.18912 0
M  V30 4997 C 459.673 -0.0879296 -5.34628 0
M  V30 4998 C 460.973 -2.18892 -4.74219 0
M  V30 4999 H 462.667 -1.50179 -2.59011 0
M  V30 5000 H 460.213 -0.723547 -1.24502 0
M  V30 5001 H 462.166 0.326488 -4.20133 0
M  V30 5002 H 460.89 0.948164 -3.12534 0
M  V30 5003 H 459.549 -1.15475 -3.47938 0
M  V30 5004 H 459.197 0.828941 -4.96123 0
M  V30 5005 H 458.897 -0.694359 -5.83483 0
M  V30 5006 H 460.421 0.198743 -6.10276 0
M  V30 5007 H 461.835 -1.95746 -5.38847 0
M  V30 5008 H 460.232 -2.74686 -5.33542 0
M  V30 5009 H 461.302 -2.84674 -3.92541 0
M  V30 5010 N 462.645 1.35699 -0.801477 0
M  V30 5011 C 463.595 2.2728 -0.181073 0
M  V30 5012 C 464.579 1.47533 0.642098 0
M  V30 5013 O 465.771 1.69785 0.500193 0
M  V30 5014 C 462.9 3.36626 0.673612 0
M  V30 5015 C 461.986 4.23802 -0.159008 0
M  V30 5016 N 462.377 4.90879 -1.2195 0
M  V30 5017 C 460.675 4.45959 0.0602005 0
M  V30 5018 C 461.376 5.5546 -1.72738 0
M  V30 5019 N 460.352 5.33663 -1.03465 0
M  V30 5020 H 464.154 2.76632 -0.992582 0
M  V30 5021 H 461.668 1.49166 -0.642127 0
M  V30 5022 H 463.665 4.01179 1.13408 0
M  V30 5023 H 462.325 2.88828 1.48353 0
M  V30 5024 H 463.336 4.92497 -1.60209 0
M  V30 5025 H 460.013 4.08969 0.839664 0
M  V30 5026 H 461.403 6.18991 -2.61342 0
M  V30 5027 N 464.123 0.554532 1.47522 0
M  V30 5028 C 465.053 -0.182974 2.32782 0
M  V30 5029 C 466.034 -0.911377 1.43624 0
M  V30 5030 O 467.219 -0.892366 1.72483 0
M  V30 5031 C 464.349 -1.21513 3.25349 0
M  V30 5032 C 463.303 -0.603355 4.23726 0
M  V30 5033 C 462.629 -1.73995 5.05598 0
M  V30 5034 C 463.929 0.441121 5.20434 0
M  V30 5035 H 465.623 0.52882 2.94693 0
M  V30 5036 H 463.169 0.255759 1.41711 0
M  V30 5037 H 465.122 -1.73922 3.83835 0
M  V30 5038 H 463.846 -1.95683 2.61487 0
M  V30 5039 H 462.505 -0.10059 3.66462 0
M  V30 5040 H 462.153 -2.47063 4.38143 0
M  V30 5041 H 461.853 -1.3364 5.72201 0
M  V30 5042 H 463.377 -2.26735 5.66942 0
M  V30 5043 H 464.791 0.00319931 5.733 0
M  V30 5044 H 463.188 0.763402 5.95224 0
M  V30 5045 H 464.258 1.33799 4.66075 0
M  V30 5046 N 465.601 -1.54893 0.290851 0
M  V30 5047 C 466.847 -2.0023 -0.321867 0
M  V30 5048 C 467.18 -1.179 -1.54316 0
M  V30 5049 O 466.455 -0.25293 -1.92848 0
M  V30 5050 C 466.738 -3.53456 -0.688515 0
M  V30 5051 C 466.591 -4.46532 0.541209 0
M  V30 5052 C 467.91 -4.13057 -1.51895 0
M  V30 5053 H 465.029 -0.727891 -0.115515 0
M  V30 5054 H 467.671 -1.85722 0.400931 0
M  V30 5055 H 465.821 -3.6595 -1.30433 0
M  V30 5056 H 467.493 -4.4596 1.17973 0
M  V30 5057 H 465.736 -4.17545 1.17636 0
M  V30 5058 H 466.407 -5.51475 0.240675 0
M  V30 5059 H 468.883 -4.03937 -0.99872 0
M  V30 5060 H 467.759 -5.20448 -1.74429 0
M  V30 5061 H 468.02 -3.64284 -2.50498 0
M  V30 5062 N 467.08 -0.0183926 -1.57589 0
M  V30 5063 C 468.012 0.995557 -2.06449 0
M  V30 5064 C 469.025 1.29556 -0.985849 0
M  V30 5065 O 470.214 1.2621 -1.26227 0
M  V30 5066 C 467.314 2.32572 -2.46502 0
M  V30 5067 C 466.487 2.21245 -3.77319 0
M  V30 5068 C 465.546 3.37104 -4.04039 0
M  V30 5069 O 464.572 3.14468 -4.74445 0
M  V30 5070 N 465.774 4.60553 -3.53372 0
M  V30 5071 H 468.539 0.578746 -2.94059 0
M  V30 5072 H 466.1 0.168603 -1.6102 0
M  V30 5073 H 468.092 3.08887 -2.61478 0
M  V30 5074 H 466.662 2.65931 -1.64315 0
M  V30 5075 H 465.882 1.29723 -3.72244 0
M  V30 5076 H 467.17 2.10868 -4.63047 0
M  V30 5077 H 466.568 4.81839 -2.96391 0
M  V30 5078 H 465.125 5.34072 -3.73644 0
M  V30 5079 N 468.558 1.5553 0.254621 0
M  V30 5080 C 469.786 1.81046 1.00149 0
M  V30 5081 C 470.201 0.593047 1.79244 0
M  V30 5082 O 469.558 -0.438196 1.77161 0
M  V30 5083 C 469.609 3.04684 1.94551 0
M  V30 5084 O 469.33 4.21725 1.18658 0
M  V30 5085 C 470.831 3.42943 2.80901 0
M  V30 5086 H 468.051 0.602653 0.295044 0
M  V30 5087 H 470.595 2.02576 0.279842 0
M  V30 5088 H 468.75 2.85226 2.62154 0
M  V30 5089 H 469.164 4.91746 1.82445 0
M  V30 5090 H 470.638 4.32576 3.42902 0
M  V30 5091 H 471.115 2.63176 3.51617 0
M  V30 5092 H 471.721 3.64724 2.18762 0
M  V30 5093 N 470.036 -0.519951 1.48776 0
M  V30 5094 C 470.986 -1.61995 1.60442 0
M  V30 5095 C 471.97 -1.54155 0.460991 0
M  V30 5096 O 473.162 -1.62006 0.712965 0
M  V30 5097 C 470.291 -3.00683 1.65664 0
M  V30 5098 C 469.377 -3.1359 2.8552 0
M  V30 5099 N 469.768 -2.96441 4.09825 0
M  V30 5100 C 468.066 -3.44662 2.83062 0
M  V30 5101 C 468.767 -3.1303 4.90293 0
M  V30 5102 N 467.743 -3.41058 4.23297 0
M  V30 5103 H 471.545 -1.47362 2.54287 0
M  V30 5104 H 469.059 -0.725649 1.45286 0
M  V30 5105 H 471.056 -3.79712 1.72117 0
M  V30 5106 H 469.716 -3.16401 0.729425 0
M  V30 5107 H 470.727 -2.72999 4.40104 0
M  V30 5108 H 467.404 -3.66675 1.9964 0
M  V30 5109 H 468.794 -3.04424 5.98979 0
M  V30 5110 N 471.514 -1.37532 -0.769588 0
M  V30 5111 C 472.791 -1.23392 -1.51768 0
M  V30 5112 C 473.171 0.17157 -2.10402 0
M  V30 5113 O 472.519 1.17943 -1.95708 0
M  V30 5114 C 472.729 -2.33163 -2.59685 0
M  V30 5115 C 474.077 -2.70809 -3.27028 0
M  V30 5116 O 475.101 -2.32355 -2.69981 0
M  V30 5117 O 473.96 -3.37066 -4.30173 0
M  V30 5118 H 471.054 -0.481617 -0.67229 0
M  V30 5119 H 473.6 -1.49318 -0.806368 0
M  V30 5120 H 472.372 -3.27273 -2.14494 0
M  V30 5121 H 471.995 -2.08713 -3.38415 0
M  V30 5122 N 472.992 0.995999 -1.22138 0
M  V30 5123 C 473.922 2.10387 -1.01289 0
M  V30 5124 C 474.903 1.69975 0.0651454 0
M  V30 5125 O 476.088 1.9396 -0.0964628 0
M  V30 5126 C 473.218 3.42312 -0.586517 0
M  V30 5127 C 472.172 3.96558 -1.61014 0
M  V30 5128 C 471.498 5.24494 -1.0397 0
M  V30 5129 C 472.798 4.27595 -2.99933 0
M  V30 5130 H 474.492 2.28086 -1.93951 0
M  V30 5131 H 472.038 1.09607 -0.933928 0
M  V30 5132 H 473.991 4.19223 -0.427793 0
M  V30 5133 H 472.715 3.24431 0.375761 0
M  V30 5134 H 471.374 3.21776 -1.75658 0
M  V30 5135 H 471.022 5.02953 -0.0688703 0
M  V30 5136 H 470.722 5.61755 -1.72352 0
M  V30 5137 H 472.246 6.04042 -0.892494 0
M  V30 5138 H 473.66 4.95315 -2.8868 0
M  V30 5139 H 472.057 4.76021 -3.6541 0
M  V30 5140 H 473.127 3.35498 -3.50099 0
M  V30 5141 N 474.47 1.03057 1.19235 0
M  V30 5142 C 475.716 0.729098 1.89241 0
M  V30 5143 C 476.049 -0.740573 1.79525 0
M  V30 5144 O 475.324 -1.53946 1.18874 0
M  V30 5145 C 475.607 1.18304 3.40112 0
M  V30 5146 C 475.46 2.71406 3.5869 0
M  V30 5147 C 476.779 0.765161 4.33397 0
M  V30 5148 H 473.898 0.266338 0.687192 0
M  V30 5149 H 476.54 1.28079 1.40341 0
M  V30 5150 H 474.69 0.713672 3.81889 0
M  V30 5151 H 476.362 3.26303 3.26074 0
M  V30 5152 H 474.605 3.11717 3.01687 0
M  V30 5153 H 475.276 2.98225 4.64506 0
M  V30 5154 H 477.752 1.16889 3.99345 0
M  V30 5155 H 476.628 1.11065 5.37546 0
M  V30 5156 H 476.889 -0.332372 4.40849 0
M  V30 5157 N 475.948 -1.35272 0.808662 0
M  V30 5158 C 477.176 -2.02946 0.402537 0
M  V30 5159 C 477.591 -1.60937 -0.987147 0
M  V30 5160 O 476.948 -0.807917 -1.63643 0
M  V30 5161 C 476.999 -3.58317 0.47868 0
M  V30 5162 O 476.72 -3.98799 1.81358 0
M  V30 5163 C 478.221 -4.43251 0.0656281 0
M  V30 5164 H 475.441 -0.650831 0.163279 0
M  V30 5165 H 477.985 -1.72849 1.09286 0
M  V30 5166 H 476.14 -3.87055 -0.163415 0
M  V30 5167 H 476.554 -4.93451 1.77781 0
M  V30 5168 H 478.028 -5.51738 0.170017 0
M  V30 5169 H 478.505 -4.27913 -0.989278 0
M  V30 5170 H 479.111 -4.19813 0.68096 0
M  V30 5171 N 477.426 -0.562348 -1.47226 0
M  V30 5172 C 478.656 -0.0451619 -2.06551 0
M  V30 5173 C 479.064 1.25626 -1.41473 0
M  V30 5174 O 478.407 1.76563 -0.507061 0
M  V30 5175 C 478.469 0.216068 -3.5885 0
M  V30 5176 C 478.133 -0.996691 -4.45999 0
M  V30 5177 C 479.13 -1.90358 -4.83797 0
M  V30 5178 C 476.815 -1.21281 -4.87438 0
M  V30 5179 C 478.809 -3.01023 -5.6184 0
M  V30 5180 C 476.496 -2.32255 -5.65244 0
M  V30 5181 C 477.494 -3.21956 -6.02356 0
M  V30 5182 O 477.182 -4.31005 -6.78594 0
M  V30 5183 H 476.914 -0.0451646 -0.67449 0
M  V30 5184 H 479.468 -0.776842 -1.90143 0
M  V30 5185 H 477.698 1.00212 -3.7349 0
M  V30 5186 H 479.387 0.679264 -4.00176 0
M  V30 5187 H 480.153 -1.74868 -4.52378 0
M  V30 5188 H 476.032 -0.523767 -4.58015 0
M  V30 5189 H 479.576 -3.71064 -5.90726 0
M  V30 5190 H 475.473 -2.47715 -5.96077 0
M  V30 5191 H 476.241 -4.29118 -6.96994 0
M  V30 5192 N 478.904 1.54736 -0.299062 0
M  V30 5193 C 480.152 1.99706 0.31017 0
M  V30 5194 C 480.473 1.18896 1.54559 0
M  V30 5195 O 479.743 0.284445 1.93824 0
M  V30 5196 H 478.323 0.737686 0.117596 0
M  V30 5197 H 480.985 1.9054 -0.409943 0
M  V30 5198 H 480.081 3.06596 0.58355 0
M  V30 5199 N 480.382 0.0267497 1.57577 0
M  V30 5200 C 481.312 -0.954308 2.13108 0
M  V30 5201 C 482.293 -1.34088 1.04663 0
M  V30 5202 O 483.478 -1.41992 1.32484 0
M  V30 5203 C 480.608 -2.23744 2.65624 0
M  V30 5204 C 479.562 -1.99168 3.78835 0
M  V30 5205 C 478.888 -3.33726 4.17769 0
M  V30 5206 C 480.188 -1.33277 5.0501 0
M  V30 5207 H 481.882 -0.491848 2.95332 0
M  V30 5208 H 479.428 -0.23514 1.42067 0
M  V30 5209 H 481.381 -2.92754 3.03106 0
M  V30 5210 H 480.105 -2.72151 1.80558 0
M  V30 5211 H 478.764 -1.32577 3.41788 0
M  V30 5212 H 478.412 -3.79888 3.29688 0
M  V30 5213 H 478.112 -3.18089 4.94058 0
M  V30 5214 H 479.636 -4.04008 4.57832 0
M  V30 5215 H 481.05 -1.92283 5.40093 0
M  V30 5216 H 479.447 -1.28045 5.8628 0
M  V30 5217 H 480.517 -0.305411 4.83937 0
M  V30 5218 N 481.861 -1.55662 -0.24637 0
M  V30 5219 C 483.11 -1.7672 -0.972254 0
M  V30 5220 C 483.423 -0.59078 -1.86465 0
M  V30 5221 O 484.629 -0.684391 -2.62732 0
M  V30 5222 C 483.085 -3.12869 -1.7788 0
M  V30 5223 C 482.693 -4.38161 -0.933768 0
M  V30 5224 C 484.437 -3.43265 -2.49738 0
M  V30 5225 C 482.344 -5.6534 -1.73623 0
M  V30 5226 H 481.274 -0.658795 -0.366749 0
M  V30 5227 H 483.925 -1.82092 -0.226902 0
M  V30 5228 H 482.307 -3.01606 -2.56612 0
M  V30 5229 H 483.481 -4.60413 -0.188736 0
M  V30 5230 H 481.796 -4.15102 -0.328488 0
M  V30 5231 H 484.393 -4.35501 -3.10231 0
M  V30 5232 H 484.736 -2.64614 -3.2138 0
M  V30 5233 H 485.269 -3.55746 -1.78016 0
M  V30 5234 H 482.008 -6.46814 -1.06354 0
M  V30 5235 H 481.528 -5.47188 -2.45653 0
M  V30 5236 H 483.207 -6.04616 -2.30323 0
M  V30 5237 N 483.339 0.512053 -1.4905 0
M  V30 5238 C 484.75 1.09376 -1.51307 0
M  V30 5239 C 485.101 1.94 -0.292971 0
M  V30 5240 O 484.226 2.07965 0.598277 0
M  V30 5241 C 484.821 1.99031 -2.74176 0
M  V30 5242 C 483.38 2.52385 -2.79247 0
M  V30 5243 C 482.527 1.29749 -2.45073 0
M  V30 5244 H 485.478 0.296467 -1.55906 0
M  V30 5245 H 485.499 2.83569 -2.53711 0
M  V30 5246 H 485.011 1.37412 -3.62959 0
M  V30 5247 H 483.112 3.17673 -1.94716 0
M  V30 5248 H 483.225 2.90293 -3.81139 0
M  V30 5249 H 481.589 1.61912 -1.96612 0
M  V30 5250 H 482.372 0.698555 -3.36118 0
M  V30 5251 N 484.817 1.37938 0.762283 0
M  V30 5252 C 485.727 1.36681 1.90671 0
M  V30 5253 C 486.743 0.265078 1.71969 0
M  V30 5254 O 487.919 0.502055 1.95042 0
M  V30 5255 C 484.984 1.18211 3.25925 0
M  V30 5256 C 484.045 2.3811 3.57214 0
M  V30 5257 C 483.278 2.20512 4.86014 0
M  V30 5258 O 483.501 1.19429 5.57757 0
M  V30 5259 O 482.435 3.08911 5.16583 0
M  V30 5260 H 486.261 2.33091 1.94685 0
M  V30 5261 H 483.846 1.18767 0.906356 0
M  V30 5262 H 485.728 1.09937 4.06807 0
M  V30 5263 H 484.403 0.248807 3.22742 0
M  V30 5264 H 483.31 2.51958 2.76529 0
M  V30 5265 H 484.643 3.30041 3.65149 0
M  V30 5266 N 486.295 -0.989507 1.22664 0
M  V30 5267 C 487.225 -2.09847 1.02404 0
M  V30 5268 C 488.206 -1.70007 -0.0561303 0
M  V30 5269 O 489.391 -1.93906 0.106748 0
M  V30 5270 C 486.521 -3.41996 0.604663 0
M  V30 5271 C 485.475 -3.95699 1.63115 0
M  V30 5272 C 484.801 -5.23936 1.0675 0
M  V30 5273 C 486.101 -4.25999 3.02196 0
M  V30 5274 H 487.795 -2.27054 1.95158 0
M  V30 5275 H 485.341 -1.09111 0.939727 0
M  V30 5276 H 487.294 -4.1899 0.45002 0
M  V30 5277 H 486.018 -3.24626 -0.35855 0
M  V30 5278 H 484.677 -3.2084 1.77362 0
M  V30 5279 H 484.325 -5.02909 0.0955422 0
M  V30 5280 H 484.025 -5.60833 1.75328 0
M  V30 5281 H 485.549 -6.0356 0.924516 0
M  V30 5282 H 486.963 -4.93777 2.91303 0
M  V30 5283 H 485.36 -4.74076 3.67929 0
M  V30 5284 H 486.43 -3.33636 3.51873 0
M  V30 5285 N 487.773 -1.03688 -1.18687 0
M  V30 5286 C 489.022 -0.733235 -1.879 0
M  V30 5287 C 489.335 0.741745 -1.8099 0
M  V30 5288 O 490.541 1.15875 -2.4553 0
M  V30 5289 C 488.997 -1.26127 -3.37076 0
M  V30 5290 C 488.605 -2.76461 -3.52524 0
M  V30 5291 C 490.349 -1.03398 -4.11715 0
M  V30 5292 C 488.256 -3.22642 -4.95637 0
M  V30 5293 H 487.186 -0.270584 -0.703776 0
M  V30 5294 H 489.837 -1.25222 -1.34133 0
M  V30 5295 H 488.219 -0.670165 -3.90288 0
M  V30 5296 H 489.393 -3.41296 -3.09602 0
M  V30 5297 H 487.708 -2.97559 -2.91286 0
M  V30 5298 H 490.305 -1.3542 -5.17267 0
M  V30 5299 H 490.648 0.0289246 -4.1629 0
M  V30 5300 H 491.181 -1.5895 -3.64664 0
M  V30 5301 H 487.92 -4.28296 -4.96228 0
M  V30 5302 H 487.44 -2.62539 -5.39289 0
M  V30 5303 H 489.119 -3.16444 -5.64333 0
M  V30 5304 N 489.251 1.34841 -0.815825 0
M  V30 5305 C 490.499 1.98107 -0.399744 0
M  V30 5306 C 490.82 1.65019 1.03894 0
M  V30 5307 O 490.09 0.937311 1.72021 0
M  V30 5308 H 488.67 0.732827 -0.144823 0
M  V30 5309 H 491.332 1.64599 -1.0437 0
M  V30 5310 H 490.428 3.07856 -0.512965 0
M  V30 5311 N 490.729 0.570148 1.46925 0
M  V30 5312 C 492.145 0.23087 1.57921 0
M  V30 5313 C 492.345 -1.26676 1.56702 0
M  V30 5314 O 491.401 -2.04774 1.47729 0
M  V30 5315 C 492.714 0.868973 2.8787 0
M  V30 5316 C 494.262 0.841397 3.01479 0
M  V30 5317 C 494.737 1.45881 4.34146 0
M  V30 5318 N 496.228 1.42258 4.40814 0
M  V30 5319 C 496.963 1.8698 5.42057 0
M  V30 5320 N 496.459 2.39618 6.50042 0
M  V30 5321 N 498.252 1.77972 5.33181 0
M  V30 5322 H 490.403 1.54301 1.45962 0
M  V30 5323 H 492.666 0.644224 0.69547 0
M  V30 5324 H 492.372 1.922 2.94537 0
M  V30 5325 H 492.246 0.369682 3.75384 0
M  V30 5326 H 494.633 -0.202973 2.94401 0
M  V30 5327 H 494.714 1.37858 2.15474 0
M  V30 5328 H 494.358 2.50231 4.4198 0
M  V30 5329 H 494.288 0.896958 5.18905 0
M  V30 5330 H 496.779 1.03768 3.63374 0
M  V30 5331 H 497.092 2.71633 7.23488 0
M  V30 5332 H 495.437 2.43636 6.50897 0
M  V30 5333 H 498.628 1.36617 4.4772 0
M  V30 5334 H 498.801 2.13143 6.11943 0
M  V30 5335 N 492.207 -1.54576 0.307264 0
M  V30 5336 C 493.137 -2.26708 -0.55907 0
M  V30 5337 C 494.118 -1.26893 -1.1328 0
M  V30 5338 O 495.303 -1.55677 -1.16097 0
M  V30 5339 C 492.433 -3.01259 -1.72801 0
M  V30 5340 C 491.387 -4.08275 -1.28435 0
M  V30 5341 C 490.713 -4.70575 -2.53895 0
M  V30 5342 C 492.013 -5.2068 -0.411038 0
M  V30 5343 H 493.707 -2.9937 0.042576 0
M  V30 5344 H 491.253 -1.43983 0.0219173 0
M  V30 5345 H 493.206 -3.50444 -2.34023 0
M  V30 5346 H 491.93 -2.26187 -2.356 0
M  V30 5347 H 490.589 -3.59949 -0.695161 0
M  V30 5348 H 490.237 -3.92136 -3.15021 0
M  V30 5349 H 489.937 -5.42854 -2.24908 0
M  V30 5350 H 491.461 -5.22527 -3.15908 0
M  V30 5351 H 492.875 -5.65721 -0.929097 0
M  V30 5352 H 491.272 -5.99716 -0.214664 0
M  V30 5353 H 492.342 -4.81629 0.562287 0
M  V30 5354 N 493.685 -0.035106 -1.57561 0
M  V30 5355 C 495.096 0.502885 -1.798 0
M  V30 5356 C 495.447 1.71892 -0.945921 0
M  V30 5357 O 494.572 2.15822 -0.157991 0
M  V30 5358 C 495.167 0.919097 -3.26095 0
M  V30 5359 C 493.726 1.40216 -3.49308 0
M  V30 5360 C 492.873 0.369709 -2.74824 0
M  V30 5361 H 495.824 -0.261102 -1.56537 0
M  V30 5362 H 495.845 1.78308 -3.36135 0
M  V30 5363 H 495.357 0.0338526 -3.88085 0
M  V30 5364 H 493.458 2.30714 -2.92578 0
M  V30 5365 H 493.571 1.40541 -4.58023 0
M  V30 5366 H 491.935 0.839113 -2.40481 0
M  V30 5367 H 492.718 -0.507173 -3.39533 0
M  V30 5368 N 495.163 1.55791 0.238111 0
M  V30 5369 C 496.409 1.78297 0.966337 0
M  V30 5370 C 496.742 0.601903 1.84637 0
M  V30 5371 O 496.017 -0.399499 1.90353 0
M  V30 5372 C 496.3 3.10758 1.81939 0
M  V30 5373 C 496.153 4.39283 0.966958 0
M  V30 5374 C 497.472 3.39519 2.80027 0
M  V30 5375 H 494.591 0.648654 0.349882 0
M  V30 5376 H 497.233 1.88525 0.236253 0
M  V30 5377 H 495.383 3.02168 2.44185 0
M  V30 5378 H 497.055 4.59873 0.362514 0
M  V30 5379 H 495.298 4.32948 0.271669 0
M  V30 5380 H 495.969 5.28368 1.59784 0
M  V30 5381 H 498.445 3.48128 2.27917 0
M  V30 5382 H 497.321 4.33402 3.36829 0
M  V30 5383 H 497.582 2.60864 3.56934 0
M  V30 5384 N 496.642 -0.504142 1.49319 0
M  V30 5385 C 497.572 -1.61473 1.68667 0
M  V30 5386 C 498.553 -1.61455 0.535378 0
M  V30 5387 O 499.738 -1.78245 0.770868 0
M  V30 5388 C 496.868 -2.99971 1.75028 0
M  V30 5389 C 495.822 -3.14854 2.89916 0
M  V30 5390 C 495.148 -4.54671 2.81387 0
M  V30 5391 C 496.448 -2.95176 4.30893 0
M  V30 5392 H 498.142 -1.45535 2.61648 0
M  V30 5393 H 495.688 -0.698711 1.25913 0
M  V30 5394 H 497.641 -3.77562 1.8715 0
M  V30 5395 H 496.365 -3.1699 0.786441 0
M  V30 5396 H 495.024 -2.39687 2.77391 0
M  V30 5397 H 494.672 -4.68562 1.82917 0
M  V30 5398 H 494.372 -4.6557 3.58494 0
M  V30 5399 H 495.896 -5.34327 2.95512 0
M  V30 5400 H 497.31 -3.62538 4.44116 0
M  V30 5401 H 495.707 -3.17549 5.09198 0
M  V30 5402 H 496.777 -1.91332 4.45556 0
M  V30 5403 N 498.12 -1.38341 -0.754957 0
M  V30 5404 C 499.345 -1.37882 -1.5493 0
M  V30 5405 C 499.77 0.0296385 -1.88077 0
M  V30 5406 O 499.128 1.01133 -1.50472 0
M  V30 5407 C 499.176 -2.23996 -2.82592 0
M  V30 5408 O 498.28 -1.65612 -3.77686 0
M  V30 5409 H 497.621 -0.470384 -0.468652 0
M  V30 5410 H 500.151 -1.82084 -0.933082 0
M  V30 5411 H 500.161 -2.37806 -3.3153 0
M  V30 5412 H 498.836 -3.26365 -2.57796 0
M  V30 5413 H 497.413 -1.60936 -3.36384 0
M  V30 5414 N 499.598 0.982988 -1.23187 0
M  V30 5415 C 500.826 1.75921 -1.08901 0
M  V30 5416 C 501.241 1.85341 0.359719 0
M  V30 5417 O 500.598 1.33072 1.24892 0
M  V30 5418 C 500.649 3.18742 -1.70545 0
M  V30 5419 O 500.37 3.09814 -3.09753 0
M  V30 5420 C 501.871 4.1277 -1.61667 0
M  V30 5421 H 499.091 0.552166 -0.381252 0
M  V30 5422 H 501.635 1.23516 -1.62985 0
M  V30 5423 H 499.79 3.68182 -1.20501 0
M  V30 5424 H 500.204 3.99703 -3.39614 0
M  V30 5425 H 501.678 5.10697 -2.09506 0
M  V30 5426 H 502.155 4.3542 -0.575009 0
M  V30 5427 H 502.761 3.69232 -2.11064 0
M  V30 5428 N 501.076 1.04316 1.18135 0
M  V30 5429 C 502.006 0.657299 2.24058 0
M  V30 5430 C 502.987 -0.340678 1.66654 0
M  V30 5431 O 504.172 -0.220223 1.92947 0
M  V30 5432 C 501.302 0.0220715 3.47293 0
M  V30 5433 C 500.256 0.943857 4.17463 0
M  V30 5434 C 499.582 0.172973 5.3442 0
M  V30 5435 C 500.882 2.26409 4.70677 0
M  V30 5436 H 502.576 1.5428 2.56589 0
M  V30 5437 H 500.122 0.743263 1.23335 0
M  V30 5438 H 502.075 -0.259607 4.206 0
M  V30 5439 H 500.799 -0.898323 3.14003 0
M  V30 5440 H 499.458 1.20996 3.46057 0
M  V30 5441 H 499.106 -0.749907 4.97379 0
M  V30 5442 H 498.806 0.787098 5.82304 0
M  V30 5443 H 500.33 -0.101628 6.10515 0
M  V30 5444 H 501.744 2.04294 5.35665 0
M  V30 5445 H 500.141 2.8314 5.29105 0
M  V30 5446 H 501.211 2.90883 3.87962 0
M  V30 5447 N 502.554 -1.34406 0.822964 0
M  V30 5448 C 503.831 -1.92733 0.333641 0
M  V30 5449 C 504.211 -1.75107 -1.17901 0
M  V30 5450 O 503.559 -1.12983 -1.98613 0
M  V30 5451 C 503.769 -3.40557 0.763023 0
M  V30 5452 C 505.117 -4.17709 0.761879 0
M  V30 5453 O 506.141 -3.49141 0.705606 0
M  V30 5454 O 505 -5.40082 0.835109 0
M  V30 5455 H 502.094 -0.821964 0.0911249 0
M  V30 5456 H 504.64 -1.4338 0.907757 0
M  V30 5457 H 503.412 -3.47187 1.8049 0
M  V30 5458 H 503.035 -3.97259 0.164605 0
M  V30 5459 N 504.032 -0.577932 -1.46621 0
M  V30 5460 C 505.257 -0.0652536 -2.07297 0
M  V30 5461 C 505.682 1.22828 -1.4246 0
M  V30 5462 O 505.04 1.74075 -0.506718 0
M  V30 5463 C 505.088 0.0920589 -3.60482 0
M  V30 5464 O 504.192 1.14972 -3.96049 0
M  V30 5465 H 503.533 -0.06065 -0.661224 0
M  V30 5466 H 506.063 -0.799515 -1.88332 0
M  V30 5467 H 506.073 0.299741 -4.06897 0
M  V30 5468 H 504.748 -0.852612 -4.07067 0
M  V30 5469 H 503.325 0.920879 -3.61351 0
M  V30 5470 N 505.51 1.54411 -0.315457 0
M  V30 5471 C 506.759 1.99599 0.290395 0
M  V30 5472 C 507.072 1.20746 1.53882 0
M  V30 5473 O 508.278 1.56272 2.22017 0
M  V30 5474 C 506.734 3.5539 0.56797 0
M  V30 5475 C 506.342 4.43068 -0.662945 0
M  V30 5476 C 508.086 4.09067 1.13422 0
M  V30 5477 C 505.993 5.90317 -0.357722 0
M  V30 5478 H 504.923 0.745592 0.112286 0
M  V30 5479 H 507.574 1.78477 -0.426418 0
M  V30 5480 H 505.956 3.72468 1.34476 0
M  V30 5481 H 507.13 4.37765 -1.43869 0
M  V30 5482 H 505.445 4.00238 -1.14884 0
M  V30 5483 H 508.042 5.16663 1.37707 0
M  V30 5484 H 508.385 3.60552 2.08106 0
M  V30 5485 H 508.918 3.95589 0.418805 0
M  V30 5486 H 505.657 6.4301 -1.27351 0
M  V30 5487 H 505.177 5.98592 0.380472 0
M  V30 5488 H 506.856 6.4699 0.0354284 0
M  V30 5489 N 506.988 0.0434614 1.5754 0
M  V30 5490 C 508.213 -0.645358 1.97104 0
M  V30 5491 C 508.638 -1.64037 0.920521 0
M  V30 5492 O 507.996 -1.80922 -0.11708 0
M  V30 5493 C 508.044 -1.31547 3.35749 0
M  V30 5494 O 507.148 -2.43103 3.33129 0
M  V30 5495 H 506.489 -0.168403 0.64229 0
M  V30 5496 H 509.019 0.109573 2.04306 0
M  V30 5497 H 509.029 -1.66895 3.72304 0
M  V30 5498 H 507.704 -0.586205 4.11748 0
M  V30 5499 H 506.281 -2.0976 3.0831 0
M  V30 5500 N 508.466 -1.55915 -0.229846 0
M  V30 5501 C 509.396 -1.94754 -1.28815 0
M  V30 5502 C 510.377 -0.814657 -1.49323 0
M  V30 5503 O 511.562 -1.07631 -1.61645 0
M  V30 5504 C 508.692 -2.25705 -2.63959 0
M  V30 5505 C 507.646 -3.41406 -2.5812 0
M  V30 5506 C 506.972 -3.57941 -3.97218 0
M  V30 5507 C 508.272 -4.76616 -2.13623 0
M  V30 5508 H 509.966 -2.83404 -0.965547 0
M  V30 5509 H 507.512 -1.36353 -0.463028 0
M  V30 5510 H 509.465 -2.51467 -3.38146 0
M  V30 5511 H 508.189 -1.339 -2.9789 0
M  V30 5512 H 506.848 -3.1568 -1.86391 0
M  V30 5513 H 506.496 -2.63526 -4.28443 0
M  V30 5514 H 506.196 -4.35757 -3.94195 0
M  V30 5515 H 507.72 -3.86042 -4.73079 0
M  V30 5516 H 509.134 -5.01637 -2.77549 0
M  V30 5517 H 507.531 -5.57655 -2.21677 0
M  V30 5518 H 508.601 -4.7253 -1.08829 0
M  V30 5519 N 509.944 0.496216 -1.49584 0
M  V30 5520 C 510.854 1.62352 -1.69349 0
M  V30 5521 C 511.87 1.64184 -0.576147 0
M  V30 5522 O 513.046 1.82517 -0.85144 0
M  V30 5523 C 510.111 2.98698 -1.76013 0
M  V30 5524 C 509.172 3.07454 -2.99617 0
M  V30 5525 C 508.405 4.37296 -3.05953 0
M  V30 5526 O 508.628 5.2637 -2.19752 0
M  V30 5527 O 507.562 4.51124 -3.9846 0
M  V30 5528 H 511.388 1.48606 -2.64859 0
M  V30 5529 H 508.973 0.673022 -1.33382 0
M  V30 5530 H 510.855 3.79725 -1.82721 0
M  V30 5531 H 509.53 3.12696 -0.836828 0
M  V30 5532 H 508.437 2.25597 -2.98424 0
M  V30 5533 H 509.77 2.98385 -3.91443 0
M  V30 5534 N 511.423 1.38739 0.74761 0
M  V30 5535 C 512.386 1.36241 1.84312 0
M  V30 5536 C 513.386 0.261811 1.58654 0
M  V30 5537 O 514.576 0.519031 1.66288 0
M  V30 5538 C 511.708 1.12253 3.21888 0
M  V30 5539 H 512.901 2.33712 1.87933 0
M  V30 5540 H 510.454 1.2412 0.949946 0
M  V30 5541 H 511.189 0.154133 3.23934 0
M  V30 5542 H 510.974 1.91943 3.41907 0
M  V30 5543 H 512.464 1.13215 4.0196 0
M  V30 5544 N 512.901 -0.976442 1.23707 0
M  V30 5545 C 513.834 -2.06793 0.964973 0
M  V30 5546 C 514.812 -1.62304 -0.0981472 0
M  V30 5547 O 515.996 -1.88464 0.0369477 0
M  V30 5548 C 513.123 -3.35636 0.454522 0
M  V30 5549 C 512.169 -3.99069 1.50485 0
M  V30 5550 S 513.002 -4.37814 3.0835 0
M  V30 5551 C 514.158 -5.69805 2.58985 0
M  V30 5552 H 514.391 -2.29556 1.88922 0
M  V30 5553 H 511.924 -1.11317 1.06995 0
M  V30 5554 H 513.882 -4.10162 0.166626 0
M  V30 5555 H 512.543 -3.10876 -0.448871 0
M  V30 5556 H 511.736 -4.91896 1.09792 0
M  V30 5557 H 511.338 -3.30938 1.7423 0
M  V30 5558 H 513.63 -6.46919 2.01252 0
M  V30 5559 H 514.573 -6.15345 3.50366 0
M  V30 5560 H 514.981 -5.27994 1.99705 0
M  V30 5561 N 514.379 -1.04941 -1.1758 0
M  V30 5562 C 515.625 -0.759112 -1.88057 0
M  V30 5563 C 515.958 0.711918 -1.8068 0
M  V30 5564 O 515.233 1.52035 -1.21308 0
M  V30 5565 C 515.516 -1.237 -3.38187 0
M  V30 5566 C 515.369 -2.77078 -3.54327 0
M  V30 5567 C 516.688 -0.834014 -4.32125 0
M  V30 5568 H 513.807 -0.277237 -0.682868 0
M  V30 5569 H 516.449 -1.30296 -1.38286 0
M  V30 5570 H 514.599 -0.774337 -3.80705 0
M  V30 5571 H 516.271 -3.31449 -3.20842 0
M  V30 5572 H 514.514 -3.16477 -2.96689 0
M  V30 5573 H 515.185 -3.05577 -4.59703 0
M  V30 5574 H 517.661 -1.23228 -3.97434 0
M  V30 5575 H 516.537 -1.19603 -5.35711 0
M  V30 5576 H 516.798 0.262195 -4.41322 0
M  V30 5577 N 515.857 1.33968 -0.830081 0
M  V30 5578 C 517.134 1.92554 -0.343858 0
M  V30 5579 C 517.514 1.7573 1.16971 0
M  V30 5580 O 516.862 1.14035 1.98011 0
M  V30 5581 C 517.072 3.40147 -0.781073 0
M  V30 5582 C 518.42 4.17299 -0.78402 0
M  V30 5583 O 519.444 3.48762 -0.724112 0
M  V30 5584 O 518.303 5.39631 -0.863739 0
M  V30 5585 H 515.397 0.821469 -0.0954827 0
M  V30 5586 H 517.943 1.42897 -0.915348 0
M  V30 5587 H 516.715 3.46225 -1.82329 0
M  V30 5588 H 516.338 3.97166 -0.18567 0
M  V30 5589 N 517.335 0.585699 1.46312 0
M  V30 5590 C 518.584 0.0701192 2.01578 0
M  V30 5591 C 518.897 -1.29889 1.46247 0
M  V30 5592 O 520.103 -1.90598 1.93351 0
M  V30 5593 C 518.559 0.0747499 3.59822 0
M  V30 5594 C 518.167 1.44226 4.24149 0
M  V30 5595 C 519.911 -0.38673 4.22735 0
M  V30 5596 C 517.818 1.40446 5.74481 0
M  V30 5597 H 516.748 0.0224441 0.753666 0
M  V30 5598 H 519.399 0.737789 1.68015 0
M  V30 5599 H 517.781 -0.659144 3.90476 0
M  V30 5600 H 518.955 2.19612 4.05101 0
M  V30 5601 H 517.27 1.84401 3.73343 0
M  V30 5602 H 519.867 -0.433853 5.32937 0
M  V30 5603 H 520.21 -1.40489 3.91878 0
M  V30 5604 H 520.743 0.293195 3.96718 0
M  V30 5605 H 517.482 2.39952 6.10003 0
M  V30 5606 H 517.002 0.692845 5.95785 0
M  V30 5607 H 518.681 1.11865 6.37256 0
M  V30 5608 N 518.813 -1.54241 0.323641 0
M  V30 5609 C 519.743 -2.27289 -0.534993 0
M  V30 5610 C 520.724 -1.28087 -1.11927 0
M  V30 5611 O 521.909 -1.56899 -1.14439 0
M  V30 5612 C 519.039 -3.03075 -1.69596 0
M  V30 5613 C 517.993 -4.09614 -1.24098 0
M  V30 5614 C 517.319 -4.73242 -2.4889 0
M  V30 5615 C 518.619 -5.21087 -0.355789 0
M  V30 5616 H 520.313 -2.99308 0.0743257 0
M  V30 5617 H 517.859 -1.43952 0.0371874 0
M  V30 5618 H 519.812 -3.52907 -2.30293 0
M  V30 5619 H 518.536 -2.28673 -2.33187 0
M  V30 5620 H 517.195 -3.60666 -0.656945 0
M  V30 5621 H 516.843 -3.95455 -3.10845 0
M  V30 5622 H 516.543 -5.45209 -2.19138 0
M  V30 5623 H 518.067 -5.25848 -3.10348 0
M  V30 5624 H 519.481 -5.66675 -0.869042 0
M  V30 5625 H 517.878 -5.9991 -0.151045 0
M  V30 5626 H 518.948 -4.81005 0.613339 0
M  V30 5627 N 520.291 -0.0518155 -1.57515 0
M  V30 5628 C 521.223 0.951542 -2.08515 0
M  V30 5629 C 522.236 1.27436 -1.01311 0
M  V30 5630 O 523.425 1.23504 -1.28876 0
M  V30 5631 C 520.525 2.27291 -2.5138 0
M  V30 5632 C 519.698 2.13191 -3.81927 0
M  V30 5633 C 518.757 3.28458 -4.11098 0
M  V30 5634 O 517.783 3.04334 -4.81009 0
M  V30 5635 N 518.985 4.52954 -3.63061 0
M  V30 5636 H 521.75 0.516242 -2.9522 0
M  V30 5637 H 519.311 0.13441 -1.61341 0
M  V30 5638 H 521.303 3.03272 -2.67971 0
M  V30 5639 H 519.873 2.62386 -1.69919 0
M  V30 5640 H 519.093 1.21798 -3.74912 0
M  V30 5641 H 520.381 2.00999 -4.67415 0
M  V30 5642 H 519.779 4.75444 -3.06545 0
M  V30 5643 H 518.336 5.26026 -3.84889 0
M  V30 5644 N 521.769 1.56035 0.221574 0
M  V30 5645 C 522.716 1.92413 1.27459 0
M  V30 5646 C 523.686 0.781323 1.46576 0
M  V30 5647 O 524.871 1.03721 1.60145 0
M  V30 5648 C 522.011 2.24617 2.61995 0
M  V30 5649 C 521.124 3.51831 2.50677 0
M  V30 5650 C 520.259 3.73482 3.77736 0
M  V30 5651 C 519.298 4.94211 3.6114 0
M  V30 5652 N 518.435 5.12252 4.80148 0
M  V30 5653 H 523.275 2.82203 0.957355 0
M  V30 5654 H 520.812 1.39676 0.461415 0
M  V30 5655 H 522.77 2.41298 3.40339 0
M  V30 5656 H 521.4 1.38 2.91815 0
M  V30 5657 H 520.452 3.43343 1.63767 0
M  V30 5658 H 521.764 4.40328 2.34334 0
M  V30 5659 H 520.918 3.9026 4.64523 0
M  V30 5660 H 519.657 2.83266 3.97003 0
M  V30 5661 H 518.662 4.77384 2.72736 0
M  V30 5662 H 519.887 5.85912 3.43343 0
M  V30 5663 H 517.833 4.24978 4.99729 0
M  V30 5664 H 517.75 5.94881 4.66532 0
M  V30 5665 H 519.018 5.33465 5.68362 0
M  V30 5666 N 523.247 -0.488276 1.49845 0
M  V30 5667 C 524.658 -1.06955 1.53028 0
M  V30 5668 C 525.009 -1.9351 0.323797 0
M  V30 5669 O 524.134 -2.08891 -0.565116 0
M  V30 5670 C 524.729 -1.94643 2.77307 0
M  V30 5671 C 523.288 -2.4791 2.83227 0
M  V30 5672 C 522.435 -1.25833 2.47106 0
M  V30 5673 H 525.386 -0.271626 1.56358 0
M  V30 5674 H 525.407 -2.79496 2.5819 0
M  V30 5675 H 524.919 -1.31621 3.65099 0
M  V30 5676 H 523.02 -3.14535 1.99745 0
M  V30 5677 H 523.133 -2.84193 3.85709 0
M  V30 5678 H 521.497 -1.58764 1.99163 0
M  V30 5679 H 522.28 -0.644993 3.37186 0
M  V30 5680 N 524.725 -1.39134 -0.740242 0
M  V30 5681 C 525.672 -1.37434 -1.8542 0
M  V30 5682 C 526.642 -0.234822 -1.64432 0
M  V30 5683 O 527.827 -0.429125 -1.85912 0
M  V30 5684 C 524.967 -1.21844 -3.22875 0
M  V30 5685 C 524.08 -2.45296 -3.55603 0
M  V30 5686 C 523.215 -2.22334 -4.82432 0
M  V30 5687 C 522.254 -3.41488 -5.07988 0
M  V30 5688 N 521.391 -3.17877 -6.26018 0
M  V30 5689 H 526.231 -2.3266 -1.86207 0
M  V30 5690 H 523.768 -1.15578 -0.909946 0
M  V30 5691 H 525.726 -1.10818 -4.02213 0
M  V30 5692 H 524.356 -0.3025 -3.21379 0
M  V30 5693 H 523.408 -2.66945 -2.71006 0
M  V30 5694 H 524.72 -3.34063 -3.7041 0
M  V30 5695 H 523.874 -2.0852 -5.69741 0
M  V30 5696 H 522.613 -1.30954 -4.6979 0
M  V30 5697 H 521.618 -3.55807 -4.19144 0
M  V30 5698 H 522.843 -4.33763 -5.22519 0
M  V30 5699 H 520.789 -2.29156 -6.14673 0
M  V30 5700 H 520.706 -4.00198 -6.41387 0
M  V30 5701 H 521.974 -3.07746 -7.16179 0
M  V30 5702 N 526.204 0.969867 -1.24223 0
M  V30 5703 C 527.152 2.08535 -1.03034 0
M  V30 5704 C 528.146 1.69366 0.0340379 0
M  V30 5705 O 529.352 1.79597 -0.12034 0
M  V30 5706 H 525.727 0.682313 -0.316154 0
M  V30 5707 H 527.698 2.23569 -1.97635 0
M  V30 5708 C 526.447 3.4158 -0.649509 0
M  V30 5709 H 525.77 3.72177 -1.46028 0
M  V30 5710 H 527.21 4.20536 -0.540841 0
M  V30 5711 C 525.669 3.30703 0.643194 0
M  V30 5712 O 526.199 3.64443 1.68951 0
M  V30 5713 N 524.405 2.83841 0.623095 0
M  V30 5714 H 523.952 2.56583 -0.228719 0
M  V30 5715 H 523.91 2.76946 1.48823 0
M  V30 5716 N 527.682 1.05563 1.17022 0
M  V30 5717 C 528.645 0.664098 2.19368 0
M  V30 5718 C 529.645 -0.286358 1.5823 0
M  V30 5719 O 530.835 -0.069728 1.7406 0
M  V30 5720 C 527.967 -0.0239932 3.40892 0
M  V30 5721 H 529.16 1.57 2.55521 0
M  V30 5722 H 526.713 0.849964 1.31169 0
M  V30 5723 H 527.448 -0.942988 3.10287 0
M  V30 5724 H 527.233 0.659351 3.86516 0
M  V30 5725 H 528.723 -0.283909 4.16634 0
M  V30 5726 N 529.16 -1.33526 0.837174 0
M  V30 5727 C 530.09 -2.31764 0.284206 0
M  V30 5728 C 531.071 -1.58896 -0.607142 0
M  V30 5729 O 532.256 -1.86798 -0.531047 0
M  V30 5730 C 529.386 -3.43029 -0.542962 0
M  V30 5731 C 528.34 -4.27255 0.252451 0
M  V30 5732 C 527.666 -5.3012 -0.69836 0
M  V30 5733 C 528.966 -5.01229 1.46858 0
M  V30 5734 H 530.66 -2.78262 1.10502 0
M  V30 5735 H 528.206 -1.3378 0.532812 0
M  V30 5736 H 530.159 -4.1078 -0.940096 0
M  V30 5737 H 528.883 -2.95216 -1.39697 0
M  V30 5738 H 527.542 -3.61127 0.631124 0
M  V30 5739 H 527.19 -4.78564 -1.54872 0
M  V30 5740 H 526.89 -5.87353 -0.170274 0
M  V30 5741 H 528.414 -6.00737 -1.09305 0
M  V30 5742 H 529.828 -5.61756 1.14469 0
M  V30 5743 H 528.225 -5.68104 1.93333 0
M  V30 5744 H 529.295 -4.301 2.23924 0
M  V30 5745 N 530.638 -0.59345 -1.46 0
M  V30 5746 C 531.887 -0.0808084 -2.01538 0
M  V30 5747 C 532.2 1.29112 -1.46934 0
M  V30 5748 O 533.406 1.8957 -1.94359 0
M  V30 5749 C 531.862 -0.0938311 -3.59778 0
M  V30 5750 C 531.47 -1.46474 -4.23379 0
M  V30 5751 C 533.214 0.364306 -4.22934 0
M  V30 5752 C 531.121 -1.4349 -5.73729 0
M  V30 5753 H 530.051 -0.0264407 -0.753536 0
M  V30 5754 H 532.702 -0.746689 -1.67621 0
M  V30 5755 H 531.084 0.638427 -3.9082 0
M  V30 5756 H 532.258 -2.21758 -4.03931 0
M  V30 5757 H 530.573 -1.86379 -3.7236 0
M  V30 5758 H 533.17 0.405584 -5.3316 0
M  V30 5759 H 533.513 1.38409 -3.92618 0
M  V30 5760 H 534.046 -0.31423 -3.96557 0
M  V30 5761 H 530.785 -2.43184 -6.08722 0
M  V30 5762 H 530.305 -0.724431 -5.95409 0
M  V30 5763 H 531.984 -1.15243 -6.36654 0
M  V30 5764 N 532.116 1.54067 -0.331816 0
M  V30 5765 C 533.063 2.24623 0.530372 0
M  V30 5766 C 534.033 1.24009 1.10503 0
M  V30 5767 O 535.218 1.52712 1.14384 0
M  V30 5768 C 532.358 3.01374 1.68129 0
M  V30 5769 C 531.471 4.16821 1.13507 0
M  V30 5770 C 530.606 4.81085 2.25234 0
M  V30 5771 C 529.645 5.88621 1.67903 0
M  V30 5772 N 528.782 6.46713 2.73326 0
M  V30 5773 H 533.622 2.97898 -0.0778607 0
M  V30 5774 H 531.159 1.47014 -0.0501965 0
M  V30 5775 H 533.117 3.44125 2.35868 0
M  V30 5776 H 531.747 2.30419 2.26069 0
M  V30 5777 H 530.799 3.78796 0.348979 0
M  V30 5778 H 532.111 4.94203 0.675633 0
M  V30 5779 H 531.265 5.26846 3.00862 0
M  V30 5780 H 530.004 4.03102 2.74518 0
M  V30 5781 H 529.009 5.42254 0.907773 0
M  V30 5782 H 530.234 6.68506 1.19487 0
M  V30 5783 H 528.18 5.71599 3.21886 0
M  V30 5784 H 528.097 7.19532 2.3197 0
M  V30 5785 H 529.365 6.97129 3.48758 0
M  V30 5786 N 533.594 0.0601682 1.57485 0
M  V30 5787 C 534.526 -0.94047 2.09016 0
M  V30 5788 C 535.539 -1.26897 1.01985 0
M  V30 5789 O 536.728 -1.22819 1.29529 0
M  V30 5790 C 533.828 -2.25955 2.52582 0
M  V30 5791 C 533.001 -2.11163 3.83052 0
M  V30 5792 C 532.06 -3.26273 4.12835 0
M  V30 5793 O 531.086 -3.01779 4.82616 0
M  V30 5794 N 532.288 -4.51022 3.65458 0
M  V30 5795 H 535.053 -0.500578 2.9549 0
M  V30 5796 H 532.614 -0.125852 1.6141 0
M  V30 5797 H 534.606 -3.01846 2.69575 0
M  V30 5798 H 533.176 -2.61481 1.71308 0
M  V30 5799 H 532.396 -1.19808 3.75552 0
M  V30 5800 H 533.684 -1.98517 4.68475 0
M  V30 5801 H 533.082 -4.73811 3.09062 0
M  V30 5802 H 531.639 -5.23978 3.87673 0
M  V30 5803 N 535.072 -1.5615 -0.213296 0
M  V30 5804 C 536.302 -1.83372 -0.951757 0
M  V30 5805 C 536.71 -0.638158 -1.78113 0
M  V30 5806 O 536.053 0.402609 -1.79234 0
M  V30 5807 C 536.115 -3.04444 -1.91192 0
M  V30 5808 C 535.779 -4.39107 -1.26627 0
M  V30 5809 C 536.776 -5.15794 -0.652087 0
M  V30 5810 C 534.461 -4.85834 -1.27556 0
M  V30 5811 C 536.455 -6.37376 -0.055814 0
M  V30 5812 C 534.142 -6.07356 -0.675451 0
M  V30 5813 C 535.14 -6.82967 -0.0666367 0
M  V30 5814 O 534.828 -8.0219 0.524119 0
M  V30 5815 H 534.56 -0.613398 -0.284111 0
M  V30 5816 H 537.114 -2.04096 -0.231112 0
M  V30 5817 H 535.344 -2.79559 -2.67178 0
M  V30 5818 H 537.033 -3.18466 -2.51662 0
M  V30 5819 H 537.799 -4.80796 -0.637172 0
M  V30 5820 H 533.678 -4.26949 -1.73883 0
M  V30 5821 H 537.222 -6.96334 0.420004 0
M  V30 5822 H 533.119 -6.41825 -0.687806 0
M  V30 5823 H 533.887 -8.17426 0.419243 0
M  V30 5824 N 536.55 0.480323 -1.50102 0
M  V30 5825 C 537.482 1.59669 -1.64433 0
M  V30 5826 C 538.495 1.54063 -0.52615 0
M  V30 5827 O 539.684 1.59619 -0.798992 0
M  V30 5828 C 536.784 2.98527 -1.6042 0
M  V30 5829 C 535.957 3.291 -2.88117 0
M  V30 5830 C 535.016 4.47468 -2.76873 0
M  V30 5831 O 534.042 4.4823 -3.50825 0
M  V30 5832 N 535.244 5.48593 -1.89806 0
M  V30 5833 H 538.009 1.47795 -2.60723 0
M  V30 5834 H 535.57 0.66858 -1.4745 0
M  V30 5835 H 537.562 3.75666 -1.50523 0
M  V30 5836 H 536.132 3.04218 -0.719036 0
M  V30 5837 H 535.352 2.40662 -3.12211 0
M  V30 5838 H 536.64 3.46334 -3.72734 0
M  V30 5839 H 536.038 5.50791 -1.2902 0
M  V30 5840 H 534.595 6.24752 -1.85819 0
M  V30 5841 N 538.028 1.39524 0.732853 0
M  V30 5842 C 538.96 1.34318 1.85718 0
M  V30 5843 C 539.973 0.251576 1.60844 0
M  V30 5844 O 541.162 0.510685 1.71039 0
M  V30 5845 C 538.262 1.06334 3.21786 0
M  V30 5846 C 537.435 2.26813 3.73998 0
M  V30 5847 C 536.494 1.95253 4.88634 0
M  V30 5848 O 535.52 2.67957 5.02183 0
M  V30 5849 N 536.722 0.919984 5.73164 0
M  V30 5850 H 539.487 2.3121 1.90688 0
M  V30 5851 H 537.048 1.33654 0.91368 0
M  V30 5852 H 539.04 0.832363 3.96048 0
M  V30 5853 H 537.61 0.181682 3.12072 0
M  V30 5854 H 536.83 2.65849 2.91064 0
M  V30 5855 H 538.118 3.0717 4.05616 0
M  V30 5856 H 537.516 0.317487 5.64808 0
M  V30 5857 H 536.073 0.748905 6.47483 0
M  V30 5858 N 539.506 -0.963266 1.24736 0
M  V30 5859 C 540.436 -2.07628 1.06832 0
M  V30 5860 C 541.417 -1.70088 -0.0200566 0
M  V30 5861 O 542.602 -1.93636 0.147854 0
M  V30 5862 C 539.732 -3.40636 0.677069 0
M  V30 5863 C 538.686 -3.9215 1.71471 0
M  V30 5864 C 538.012 -5.21553 1.1784 0
M  V30 5865 C 539.312 -4.19493 3.11164 0
M  V30 5866 H 541.006 -2.22864 1.9993 0
M  V30 5867 H 538.552 -1.07093 0.96266 0
M  V30 5868 H 540.505 -4.17941 0.538792 0
M  V30 5869 H 539.229 -3.25313 -0.289612 0
M  V30 5870 H 537.888 -3.17005 1.84128 0
M  V30 5871 H 537.536 -5.02593 0.202195 0
M  V30 5872 H 537.236 -5.56988 1.87185 0
M  V30 5873 H 538.76 -6.01463 1.05233 0
M  V30 5874 H 540.174 -4.87487 3.01711 0
M  V30 5875 H 538.571 -4.66165 3.77902 0
M  V30 5876 H 539.641 -3.26097 3.58871 0
M  V30 5877 N 540.985 -1.06182 -1.16461 0
M  V30 5878 C 542.232 -0.777863 -1.86964 0
M  V30 5879 C 542.56 0.695602 -1.81636 0
M  V30 5880 O 541.815 1.52532 -1.22607 0
M  V30 5881 C 542.114 -1.21633 -3.36066 0
M  V30 5882 C 541.78 -2.69371 -3.61594 0
M  V30 5883 C 540.442 -3.09727 -3.6827 0
M  V30 5884 C 542.794 -3.64791 -3.7226 0
M  V30 5885 C 540.122 -4.44345 -3.83112 0
M  V30 5886 C 542.474 -4.99155 -3.88623 0
M  V30 5887 C 541.138 -5.39149 -3.93541 0
M  V30 5888 H 540.408 -0.28464 -0.68415 0
M  V30 5889 H 543.055 -1.33071 -1.37711 0
M  V30 5890 H 541.36 -0.582651 -3.87443 0
M  V30 5891 H 543.057 -0.973682 -3.88999 0
M  V30 5892 H 539.647 -2.37124 -3.57029 0
M  V30 5893 H 543.831 -3.34746 -3.66413 0
M  V30 5894 H 539.087 -4.74819 -3.85172 0
M  V30 5895 H 543.261 -5.72976 -3.95817 0
M  V30 5896 H 540.888 -6.43464 -4.04794 0
M  V30 5897 N 542.463 1.3308 -0.844243 0
M  V30 5898 C 543.41 2.29104 -0.279323 0
M  V30 5899 C 544.38 1.54577 0.607882 0
M  V30 5900 O 545.565 1.8285 0.545009 0
M  V30 5901 C 542.705 3.40927 0.53508 0
M  V30 5902 C 541.818 4.30354 -0.376749 0
M  V30 5903 C 540.953 5.29297 0.449276 0
M  V30 5904 C 539.992 6.10365 -0.460606 0
M  V30 5905 N 539.129 7.01335 0.327612 0
M  V30 5906 H 543.969 2.76817 -1.10346 0
M  V30 5907 H 541.506 1.36203 -0.555611 0
M  V30 5908 H 543.464 4.04469 1.02278 0
M  V30 5909 H 542.094 2.94391 1.32414 0
M  V30 5910 H 541.146 3.67485 -0.982791 0
M  V30 5911 H 542.458 4.87067 -1.07549 0
M  V30 5912 H 541.612 5.98392 1.00058 0
M  V30 5913 H 540.351 4.73174 1.18143 0
M  V30 5914 H 539.356 5.40182 -1.02388 0
M  V30 5915 H 540.581 6.68571 -1.1912 0
M  V30 5916 H 538.527 6.47655 1.04305 0
M  V30 5917 H 538.444 7.55355 -0.3123 0
M  V30 5918 H 539.712 7.74731 0.86098 0
M  V30 5919 N 543.941 0.601185 1.45683 0
M  V30 5920 C 544.874 -0.17013 2.27565 0
M  V30 5921 C 545.852 -0.879661 1.36751 0
M  V30 5922 O 547.036 -0.889827 1.66176 0
M  V30 5923 C 544.163 -1.24568 3.14961 0
M  V30 5924 C 543.209 -0.639978 4.21671 0
M  V30 5925 S 544.042 0.547275 5.32696 0
M  V30 5926 C 545.198 -0.529019 6.2366 0
M  V30 5927 H 545.431 0.524583 2.92635 0
M  V30 5928 H 542.964 0.388537 1.49431 0
M  V30 5929 H 544.922 -1.86138 3.65873 0
M  V30 5930 H 543.583 -1.91243 2.49169 0
M  V30 5931 H 542.776 -1.44903 4.8272 0
M  V30 5932 H 542.378 -0.0995558 3.73867 0
M  V30 5933 H 544.67 -1.40981 6.62669 0
M  V30 5934 H 545.613 0.0451599 7.08086 0
M  V30 5935 H 546.021 -0.84147 5.58193 0
M  V30 5936 N 545.419 -1.53889 0.339982 0
M  V30 5937 C 546.696 -1.93084 -0.312719 0
M  V30 5938 C 547.076 -1.2712 -1.68534 0
M  V30 5939 O 546.424 -0.420835 -2.24591 0
M  V30 5940 C 546.634 -3.4683 -0.388558 0
M  V30 5941 C 547.982 -4.19732 -0.641088 0
M  V30 5942 O 549.006 -3.53075 -0.470818 0
M  V30 5943 O 547.865 -5.3781 -0.970685 0
M  V30 5944 H 544.959 -0.806784 -0.18174 0
M  V30 5945 H 547.505 -1.65137 0.390898 0
M  V30 5946 H 546.277 -3.87055 0.574821 0
M  V30 5947 H 545.9 -3.80933 -1.1391 0
M  V30 5948 N 546.897 -0.0685191 -1.57451 0
M  V30 5949 C 547.807 0.914677 -2.16034 0
M  V30 5950 C 548.823 1.32938 -1.12265 0
M  V30 5951 O 549.999 1.40275 -1.44516 0
M  V30 5952 C 547.064 2.16519 -2.70777 0
M  V30 5953 C 546.125 1.80721 -3.89408 0
M  V30 5954 C 545.358 2.9981 -4.41531 0
M  V30 5955 O 545.581 4.13727 -3.92666 0
M  V30 5956 O 544.515 2.79817 -5.32903 0
M  V30 5957 H 548.341 0.446364 -3.00402 0
M  V30 5958 H 545.926 0.154367 -1.486 0
M  V30 5959 H 547.808 2.89856 -3.05878 0
M  V30 5960 H 546.483 2.62454 -1.89471 0
M  V30 5961 H 545.39 1.04646 -3.59166 0
M  V30 5962 H 546.723 1.39571 -4.71997 0
M  V30 5963 N 548.375 1.56261 0.205012 0
M  V30 5964 C 549.621 1.80306 0.9283 0
M  V30 5965 C 549.954 0.640932 1.83319 0
M  V30 5966 O 549.229 -0.359032 1.91158 0
M  V30 5967 C 549.512 3.14547 1.75306 0
M  V30 5968 C 549.365 4.41236 0.873562 0
M  V30 5969 C 550.684 3.45382 2.72762 0
M  V30 5970 H 547.803 0.655929 0.336044 0
M  V30 5971 H 550.445 1.88984 0.196211 0
M  V30 5972 H 548.595 3.0728 2.37721 0
M  V30 5973 H 550.267 4.60539 0.264887 0
M  V30 5974 H 548.51 4.33427 0.179773 0
M  V30 5975 H 549.181 5.31639 1.48541 0
M  V30 5976 H 551.657 3.52884 2.20481 0
M  V30 5977 H 550.533 4.40449 3.2756 0
M  V30 5978 H 550.794 2.68377 3.51321 0
M  V30 5979 N 549.853 -0.472356 1.50355 0
M  V30 5980 C 551.13 -1.23356 1.51798 0
M  V30 5981 C 551.51 -2.09469 0.26193 0
M  V30 5982 O 550.858 -2.15677 -0.754691 0
M  V30 5983 C 551.068 -2.06568 2.81302 0
M  V30 5984 C 552.416 -2.648 3.31913 0
M  V30 5985 O 553.44 -2.16812 2.82614 0
M  V30 5986 O 552.299 -3.52231 4.17846 0
M  V30 5987 H 549.393 -0.559707 0.608816 0
M  V30 5988 H 551.939 -0.48428 1.62643 0
M  V30 5989 H 550.711 -1.43103 3.64194 0
M  V30 5990 H 550.334 -2.88633 2.73454 0
M  V30 5991 N 551.331 -1.39911 -0.725443 0
M  V30 5992 C 552.261 -1.42138 -1.85254 0
M  V30 5993 C 553.242 -0.283513 -1.67721 0
M  V30 5994 O 554.427 -0.490717 -1.87898 0
M  V30 5995 C 551.557 -1.27354 -3.23107 0
M  V30 5996 C 550.511 -2.3864 -3.55296 0
M  V30 5997 C 549.837 -2.08939 -4.92188 0
M  V30 5998 C 551.137 -3.8097 -3.57295 0
M  V30 5999 H 552.831 -2.36461 -1.83648 0
M  V30 6000 H 550.377 -1.13817 -0.882138 0
M  V30 6001 H 552.33 -1.2753 -4.01639 0
M  V30 6002 H 551.054 -0.295025 -3.25265 0
M  V30 6003 H 549.713 -2.37696 -2.79099 0
M  V30 6004 H 549.361 -1.09502 -4.90936 0
M  V30 6005 H 549.061 -2.83491 -5.14691 0
M  V30 6006 H 550.585 -2.10781 -5.73065 0
M  V30 6007 H 551.999 -3.8379 -4.25885 0
M  V30 6008 H 550.396 -4.5496 -3.9132 0
M  V30 6009 H 551.466 -4.11261 -2.5689 0
M  V30 6010 N 552.809 0.956637 -1.25245 0
M  V30 6011 C 554.058 1.69537 -1.0927 0
M  V30 6012 C 554.371 1.92136 0.366503 0
M  V30 6013 O 555.577 2.63687 0.64665 0
M  V30 6014 C 554.033 3.05211 -1.9072 0
M  V30 6015 C 553.641 2.90416 -3.41119 0
M  V30 6016 C 555.385 3.82882 -1.83308 0
M  V30 6017 C 553.292 4.21468 -4.14872 0
M  V30 6018 H 552.222 0.635804 -0.405302 0
M  V30 6019 H 554.873 1.06513 -1.49423 0
M  V30 6020 H 553.255 3.69128 -1.43389 0
M  V30 6021 H 554.429 2.35444 -3.9611 0
M  V30 6022 H 552.744 2.26203 -3.49602 0
M  V30 6023 H 555.341 4.79944 -2.35706 0
M  V30 6024 H 555.684 4.0853 -0.800572 0
M  V30 6025 H 556.217 3.25711 -2.28379 0
M  V30 6026 H 552.956 4.01009 -5.18529 0
M  V30 6027 H 552.476 4.76213 -3.64665 0
M  V30 6028 H 554.155 4.90022 -4.22478 0
M  V30 6029 N 554.287 1.06798 1.15896 0
M  V30 6030 C 555.534 0.787767 1.86549 0
M  V30 6031 C 555.862 -0.685959 1.82002 0
M  V30 6032 O 555.117 -1.5188 1.23414 0
M  V30 6033 C 555.416 1.23414 3.35416 0
M  V30 6034 C 555.082 2.71285 3.6016 0
M  V30 6035 C 553.744 3.11676 3.66622 0
M  V30 6036 C 556.096 3.6676 3.7032 0
M  V30 6037 C 553.424 4.4637 3.8075 0
M  V30 6038 C 555.776 5.01209 3.8597 0
M  V30 6039 C 554.44 5.41229 3.90676 0
M  V30 6040 H 553.71 0.288264 0.682631 0
M  V30 6041 H 556.357 1.338 1.37003 0
M  V30 6042 H 554.662 0.60319 3.87129 0
M  V30 6043 H 556.359 0.994298 3.88477 0
M  V30 6044 H 552.949 2.39015 3.55767 0
M  V30 6045 H 557.133 3.36685 3.64633 0
M  V30 6046 H 552.389 4.76855 3.82648 0
M  V30 6047 H 556.563 5.75067 3.92773 0
M  V30 6048 H 554.19 6.45602 4.01375 0
M  V30 6049 N 555.766 -1.3263 0.851289 0
M  V30 6050 C 556.676 -2.32722 0.296268 0
M  V30 6051 C 557.692 -1.63901 -0.584162 0
M  V30 6052 O 558.868 -1.95465 -0.485334 0
M  V30 6053 C 555.933 -3.42942 -0.509103 0
M  V30 6054 C 554.994 -4.2746 0.397069 0
M  V30 6055 C 554.227 -5.32416 -0.36996 0
M  V30 6056 O 554.45 -5.47491 -1.6003 0
M  V30 6057 O 553.384 -6.01327 0.262493 0
M  V30 6058 H 557.21 -2.82078 1.12543 0
M  V30 6059 H 554.795 -1.36194 0.614135 0
M  V30 6060 H 556.677 -4.1017 -0.96634 0
M  V30 6061 H 555.352 -2.95781 -1.31512 0
M  V30 6062 H 554.259 -3.63053 0.902411 0
M  V30 6063 H 555.592 -4.78136 1.16818 0
M  V30 6064 N 557.244 -0.608902 -1.45362 0
M  V30 6065 C 558.154 0.110969 -2.34337 0
M  V30 6066 C 559.17 0.859007 -1.51318 0
M  V30 6067 O 560.346 0.816296 -1.84116 0
M  V30 6068 C 557.411 1.09494 -3.28956 0
M  V30 6069 C 556.472 0.348718 -4.27881 0
M  V30 6070 C 555.705 1.28582 -5.17979 0
M  V30 6071 O 555.928 2.52369 -5.11533 0
M  V30 6072 O 554.862 0.782172 -5.96796 0
M  V30 6073 H 558.688 -0.620258 -2.97299 0
M  V30 6074 H 556.273 -0.36916 -1.44767 0
M  V30 6075 H 558.155 1.66163 -3.87257 0
M  V30 6076 H 556.83 1.80717 -2.68557 0
M  V30 6077 H 555.737 -0.260465 -3.73192 0
M  V30 6078 H 557.07 -0.323049 -4.91139 0
M  V30 6079 N 558.722 1.53707 -0.348139 0
M  V30 6080 C 559.632 2.28881 0.514857 0
M  V30 6081 C 560.648 1.34168 1.10793 0
M  V30 6082 O 561.824 1.6721 1.12262 0
M  V30 6083 C 558.889 3.05042 1.64774 0
M  V30 6084 C 557.95 4.15389 1.08398 0
M  V30 6085 C 557.183 4.87909 2.16287 0
M  V30 6086 O 557.406 4.60137 3.3709 0
M  V30 6087 O 556.34 5.74254 1.80323 0
M  V30 6088 H 560.166 3.03547 -0.0963699 0
M  V30 6089 H 557.751 1.48972 -0.113043 0
M  V30 6090 H 559.633 3.52656 2.30677 0
M  V30 6091 H 558.308 2.33228 2.24469 0
M  V30 6092 H 557.215 3.72068 0.389341 0
M  V30 6093 H 558.548 4.89318 0.531829 0
M  V30 6094 N 560.2 0.0768682 1.57412 0
M  V30 6095 C 561.163 -0.873949 2.11884 0
M  V30 6096 C 562.163 -1.22301 1.04398 0
M  V30 6097 O 563.353 -1.15545 1.30365 0
M  V30 6098 C 560.485 -2.17575 2.62438 0
M  V30 6099 H 561.678 -0.401278 2.97203 0
M  V30 6100 H 559.231 -0.171904 1.55352 0
M  V30 6101 H 559.966 -2.69368 1.80587 0
M  V30 6102 H 559.751 -1.93534 3.41009 0
M  V30 6103 H 561.241 -2.85631 3.04639 0
M  V30 6104 N 561.678 -1.56367 -0.196722 0
M  V30 6105 C 562.927 -1.79724 -0.915539 0
M  V30 6106 C 563.24 -0.649804 -1.84491 0
M  V30 6107 O 564.446 -0.767631 -2.60422 0
M  V30 6108 C 562.902 -3.18369 -1.67836 0
M  V30 6109 C 562.51 -4.4091 -0.793897 0
M  V30 6110 C 564.254 -3.51037 -2.38691 0
M  V30 6111 C 562.161 -5.70577 -1.55549 0
M  V30 6112 H 561.091 -0.67013 -0.345604 0
M  V30 6113 H 563.742 -1.82721 -0.168856 0
M  V30 6114 H 562.124 -3.09617 -2.46887 0
M  V30 6115 H 563.298 -4.60781 -0.042163 0
M  V30 6116 H 561.613 -4.15937 -0.19626 0
M  V30 6117 H 564.21 -4.4515 -2.96219 0
M  V30 6118 H 564.553 -2.74704 -3.12799 0
M  V30 6119 H 565.086 -3.61229 -1.66608 0
M  V30 6120 H 561.825 -6.49871 -0.857226 0
M  V30 6121 H 561.345 -5.54726 -2.2812 0
M  V30 6122 H 563.024 -6.11637 -2.10971 0
M  V30 6123 N 563.156 0.464375 -1.50603 0
M  V30 6124 C 564.103 1.56152 -1.69956 0
M  V30 6125 C 565.073 1.57046 -0.54091 0
M  V30 6126 O 566.258 1.74473 -0.772258 0
M  V30 6127 C 563.398 2.94079 -1.80586 0
M  V30 6128 C 562.511 3.02923 -3.07996 0
M  V30 6129 C 561.646 4.31806 -3.09382 0
M  V30 6130 C 560.685 4.34417 -4.31218 0
M  V30 6131 N 559.822 5.54782 -4.30304 0
M  V30 6132 H 564.662 1.38955 -2.6362 0
M  V30 6133 H 562.199 0.675482 -1.30674 0
M  V30 6134 H 564.157 3.74073 -1.8473 0
M  V30 6135 H 562.787 3.09896 -0.903556 0
M  V30 6136 H 561.839 2.1576 -3.13292 0
M  V30 6137 H 563.151 3.00712 -3.97962 0
M  V30 6138 H 562.305 5.20153 -3.12292 0
M  V30 6139 H 561.044 4.36636 -2.17257 0
M  V30 6140 H 560.049 3.44467 -4.28512 0
M  V30 6141 H 561.274 4.31273 -5.24576 0
M  V30 6142 H 559.22 5.60384 -3.41037 0
M  V30 6143 H 559.137 5.54339 -5.14047 0
M  V30 6144 H 560.405 6.45235 -4.3737 0
M  V30 6145 N 564.634 1.40294 0.718013 0
M  V30 6146 C 565.544 1.42678 1.86226 0
M  V30 6147 C 566.56 0.319655 1.71039 0
M  V30 6148 O 567.736 0.563852 1.93346 0
M  V30 6149 C 564.801 1.2852 3.21999 0
M  V30 6150 C 563.862 2.49354 3.49458 0
M  V30 6151 C 563.095 2.35863 4.78753 0
M  V30 6152 O 563.318 1.37114 5.53675 0
M  V30 6153 O 562.252 3.25189 5.06494 0
M  V30 6154 H 566.078 2.39167 1.87171 0
M  V30 6155 H 563.663 1.2159 0.868112 0
M  V30 6156 H 565.545 1.22824 4.03103 0
M  V30 6157 H 564.22 0.351359 3.21787 0
M  V30 6158 H 563.127 2.60628 2.68373 0
M  V30 6159 H 564.46 3.41491 3.54464 0
M  V30 6160 N 566.112 -0.949982 1.2575 0
M  V30 6161 C 567.361 -1.68956 1.10168 0
M  V30 6162 C 567.674 -1.92327 -0.356309 0
M  V30 6163 O 568.88 -2.64026 -0.632657 0
M  V30 6164 C 567.336 -3.04196 1.92336 0
M  V30 6165 C 566.944 -2.88603 3.42655 0
M  V30 6166 C 568.688 -3.81904 1.85336 0
M  V30 6167 C 566.595 -4.19262 4.17101 0
M  V30 6168 H 565.525 -0.633645 0.408668 0
M  V30 6169 H 568.176 -1.05719 1.49986 0
M  V30 6170 H 566.558 -3.68363 1.45344 0
M  V30 6171 H 567.732 -2.3334 3.97353 0
M  V30 6172 H 566.047 -2.24345 3.50796 0
M  V30 6173 H 568.644 -4.78688 2.38248 0
M  V30 6174 H 568.987 -4.08099 0.822226 0
M  V30 6175 H 569.52 -3.24495 2.30104 0
M  V30 6176 H 566.259 -3.98254 5.20648 0
M  V30 6177 H 565.779 -4.74273 3.67186 0
M  V30 6178 H 567.458 -4.87775 4.25071 0
M  V30 6179 N 567.59 -1.07411 -1.15328 0
M  V30 6180 C 568.553 -0.698914 -2.18284 0
M  V30 6181 C 569.553 0.261149 -1.58665 0
M  V30 6182 O 570.743 0.0420277 -1.74149 0
M  V30 6183 C 567.875 -0.0302427 -3.40887 0
M  V30 6184 H 569.068 -1.61045 -2.52991 0
M  V30 6185 H 566.621 -0.870724 -1.298 0
M  V30 6186 H 567.356 0.893505 -3.11748 0
M  V30 6187 H 567.141 -0.720759 -3.85419 0
M  V30 6188 H 568.631 0.21759 -4.17033 0
M  V30 6189 N 569.068 1.32177 -0.85831 0
M  V30 6190 C 570 2.27688 -0.262835 0
M  V30 6191 C 571.013 1.52588 0.567513 0
M  V30 6192 O 572.202 1.74156 0.391407 0
M  V30 6193 C 569.302 3.32668 0.646937 0
M  V30 6194 C 568.475 4.37148 -0.148372 0
M  V30 6195 C 567.534 5.21686 0.687728 0
M  V30 6196 O 566.56 5.69074 0.119934 0
M  V30 6197 N 567.762 5.44892 2.00182 0
M  V30 6198 H 570.527 2.79426 -1.08356 0
M  V30 6199 H 568.088 1.45076 -0.718647 0
M  V30 6200 H 570.08 3.86134 1.2117 0
M  V30 6201 H 568.65 2.81061 1.36834 0
M  V30 6202 H 567.87 3.83915 -0.894572 0
M  V30 6203 H 569.158 5.04038 -0.694514 0
M  V30 6204 H 568.556 5.08128 2.4864 0
M  V30 6205 H 567.113 6.0134 2.51463 0
M  V30 6206 N 570.547 0.616602 1.45037 0
M  V30 6207 C 571.477 -0.0840787 2.33349 0
M  V30 6208 C 572.458 -0.849641 1.4736 0
M  V30 6209 O 573.643 -0.818407 1.76113 0
M  V30 6210 C 570.773 -1.07604 3.3021 0
M  V30 6211 C 569.727 -0.423096 4.25904 0
M  V30 6212 C 569.053 -1.52394 5.12523 0
M  V30 6213 C 570.353 0.661457 5.18095 0
M  V30 6214 H 572.047 0.653333 2.92185 0
M  V30 6215 H 569.593 0.315634 1.40498 0
M  V30 6216 H 571.546 -1.57485 3.90866 0
M  V30 6217 H 570.27 -1.84416 2.69552 0
M  V30 6218 H 568.929 0.05493 3.66559 0
M  V30 6219 H 568.577 -2.28257 4.48227 0
M  V30 6220 H 568.277 -1.09251 5.77354 0
M  V30 6221 H 569.801 -2.02485 5.76049 0
M  V30 6222 H 571.215 0.246353 5.7277 0
M  V30 6223 H 569.612 1.01517 5.91451 0
M  V30 6224 H 570.682 1.53446 4.59981 0
M  V30 6225 N 572.025 -1.5352 0.356285 0
M  V30 6226 C 572.988 -2.24071 -0.482182 0
M  V30 6227 C 573.988 -1.24531 -1.01729 0
M  V30 6228 O 575.178 -1.48876 -0.904513 0
M  V30 6229 C 572.31 -2.97025 -1.67299 0
M  V30 6230 H 573.503 -2.99596 0.135031 0
M  V30 6231 H 571.056 -1.55928 0.107825 0
M  V30 6232 H 571.791 -2.25719 -2.32855 0
M  V30 6233 H 571.576 -3.7005 -1.29636 0
M  V30 6234 H 573.066 -3.50683 -2.26741 0
M  V30 6235 N 573.503 -0.0852151 -1.57369 0
M  V30 6236 C 574.433 0.874556 -2.16503 0
M  V30 6237 C 575.414 1.30111 -1.09568 0
M  V30 6238 O 576.599 1.36977 -1.37662 0
M  V30 6239 C 573.729 2.13731 -2.73745 0
M  V30 6240 C 572.683 1.84971 -3.85966 0
M  V30 6241 C 572.009 3.17991 -4.29867 0
M  V30 6242 C 573.309 1.14442 -5.09608 0
M  V30 6243 H 575.003 0.381899 -2.96954 0
M  V30 6244 H 572.549 0.18225 -1.42842 0
M  V30 6245 H 574.502 2.81302 -3.13763 0
M  V30 6246 H 573.226 2.65263 -1.90534 0
M  V30 6247 H 571.885 1.19801 -3.46473 0
M  V30 6248 H 571.533 3.6739 -3.4356 0
M  V30 6249 H 571.233 2.99534 -5.05523 0
M  V30 6250 H 572.757 3.86737 -4.72511 0
M  V30 6251 H 574.171 1.72105 -5.46857 0
M  V30 6252 H 572.568 1.06197 -5.90629 0
M  V30 6253 H 573.638 0.12559 -4.84737 0
M  V30 6254 N 574.981 1.5647 0.188427 0
M  V30 6255 C 575.891 1.98285 1.2538 0
M  V30 6256 C 576.907 0.891535 1.49424 0
M  V30 6257 O 578.083 1.19782 1.61908 0
M  V30 6258 C 575.148 2.31965 2.57669 0
M  V30 6259 C 574.209 3.54838 2.41638 0
M  V30 6260 C 573.442 3.86901 3.67618 0
M  V30 6261 O 573.665 3.20163 4.72072 0
M  V30 6262 O 572.599 4.80309 3.62749 0
M  V30 6263 H 576.425 2.89145 0.928912 0
M  V30 6264 H 574.01 1.44112 0.393955 0
M  V30 6265 H 575.892 2.54673 3.35737 0
M  V30 6266 H 574.567 1.44271 2.89771 0
M  V30 6267 H 573.474 3.37369 1.61658 0
M  V30 6268 H 574.807 4.43019 2.14465 0
M  V30 6269 N 576.459 -0.456382 1.50847 0
M  V30 6270 C 577.875 -0.791345 1.386 0
M  V30 6271 C 578.075 -1.9633 0.453498 0
M  V30 6272 O 577.131 -2.52308 -0.0984353 0
M  V30 6273 C 578.444 -1.08959 2.80265 0
M  V30 6274 C 579.992 -1.19517 2.89283 0
M  V30 6275 C 580.467 -1.52647 4.31814 0
M  V30 6276 N 581.958 -1.59609 4.34832 0
M  V30 6277 C 582.693 -1.86777 5.42127 0
M  V30 6278 N 582.189 -2.11866 6.59609 0
M  V30 6279 N 583.982 -1.88402 5.29586 0
M  V30 6280 H 576.133 0.315746 2.1004 0
M  V30 6281 H 578.396 0.0787916 0.94472 0
M  V30 6282 H 578.102 -0.301355 3.50407 0
M  V30 6283 H 577.976 -2.02211 3.18419 0
M  V30 6284 H 580.363 -1.97406 2.19351 0
M  V30 6285 H 580.444 -0.242111 2.54652 0
M  V30 6286 H 580.088 -0.752922 5.02288 0
M  V30 6287 H 580.018 -2.49127 4.63943 0
M  V30 6288 H 582.509 -1.42201 3.50125 0
M  V30 6289 H 582.822 -2.31912 7.37182 0
M  V30 6290 H 581.167 -2.09228 6.62758 0
M  V30 6291 H 584.358 -1.68307 4.36795 0
M  V30 6292 H 584.531 -2.09238 6.13289 0
M  V30 6293 N 577.937 -1.40673 -0.710563 0
M  V30 6294 C 578.884 -1.41336 -1.82463 0
M  V30 6295 C 579.854 -0.269648 -1.63897 0
M  V30 6296 O 581.039 -0.468463 -1.8496 0
M  V30 6297 C 578.179 -1.28665 -3.20218 0
M  V30 6298 C 577.292 -2.52784 -3.5032 0
M  V30 6299 C 576.427 -2.32517 -4.77608 0
M  V30 6300 C 575.466 -3.52187 -5.0063 0
M  V30 6301 N 574.603 -3.31084 -6.19135 0
M  V30 6302 H 579.443 -2.36558 -1.8123 0
M  V30 6303 H 576.98 -1.17483 -0.885226 0
M  V30 6304 H 578.938 -1.19324 -3.99772 0
M  V30 6305 H 577.568 -0.370602 -3.20666 0
M  V30 6306 H 576.62 -2.72634 -2.65283 0
M  V30 6307 H 577.932 -3.41845 -3.63241 0
M  V30 6308 H 577.086 -2.20558 -5.65189 0
M  V30 6309 H 575.825 -1.40889 -4.66906 0
M  V30 6310 H 574.83 -3.64617 -4.11502 0
M  V30 6311 H 576.055 -4.44749 -5.13201 0
M  V30 6312 H 574.001 -2.42143 -6.09674 0
M  V30 6313 H 573.918 -4.13713 -6.32754 0
M  V30 6314 H 575.186 -3.22868 -7.0949 0
M  V30 6315 N 579.415 0.9433 -1.26252 0
M  V30 6316 C 580.643 1.72367 -1.14443 0
M  V30 6317 C 581.058 1.86392 0.300572 0
M  V30 6318 O 580.415 1.36978 1.20596 0
M  V30 6319 C 580.466 3.13155 -1.806 0
M  V30 6320 O 580.187 2.99803 -3.19452 0
M  V30 6321 C 581.688 4.07417 -1.74717 0
M  V30 6322 H 578.908 0.539758 -0.398626 0
M  V30 6323 H 581.452 1.18268 -1.66832 0
M  V30 6324 H 579.607 3.64162 -1.32154 0
M  V30 6325 H 580.021 3.88697 -3.52158 0
M  V30 6326 H 581.495 5.03773 -2.25647 0
M  V30 6327 H 581.972 4.3337 -0.713244 0
M  V30 6328 H 582.578 3.6233 -2.22704 0
M  V30 6329 N 580.893 1.08022 1.14757 0
M  V30 6330 C 582.141 0.805913 1.85336 0
M  V30 6331 C 582.462 -0.670162 1.83122 0
M  V30 6332 O 581.732 -1.48567 1.2769 0
M  V30 6333 H 580.312 0.295138 0.686223 0
M  V30 6334 H 582.974 1.36538 1.3908 0
M  V30 6335 H 582.07 1.14655 2.90277 0
M  V30 6336 N 582.371 -1.3172 0.865308 0
M  V30 6337 C 583.334 -2.26918 0.322627 0
M  V30 6338 C 584.334 -1.52031 -0.523751 0
M  V30 6339 O 585.524 -1.70973 -0.333727 0
M  V30 6340 C 582.656 -3.36558 -0.542338 0
M  V30 6341 H 583.849 -2.76432 1.16298 0
M  V30 6342 H 581.402 -1.42573 0.640512 0
M  V30 6343 H 582.137 -2.92329 -1.40407 0
M  V30 6344 H 581.922 -3.92048 0.0636395 0
M  V30 6345 H 583.412 -4.07465 -0.91446 0
M  V30 6346 N 583.85 -0.624285 -1.44708 0
M  V30 6347 C 585.266 -0.289322 -1.56956 0
M  V30 6348 C 585.466 1.20773 -1.61295 0
M  V30 6349 O 584.522 1.9915 -1.55227 0
M  V30 6350 C 585.835 -0.975215 -2.84447 0
M  V30 6351 C 587.383 -0.952709 -2.98148 0
M  V30 6352 C 587.858 -1.61893 -4.28433 0
M  V30 6353 N 589.349 -1.5852 -4.35231 0
M  V30 6354 C 590.084 -2.06969 -5.34744 0
M  V30 6355 N 589.58 -2.63579 -6.40701 0
M  V30 6356 N 591.373 -1.97638 -5.26209 0
M  V30 6357 H 583.524 -1.59612 -1.40135 0
M  V30 6358 H 585.787 -0.669592 -0.671081 0
M  V30 6359 H 585.493 -2.02999 -2.87201 0
M  V30 6360 H 585.367 -0.508749 -3.73753 0
M  V30 6361 H 587.754 0.093568 -2.94952 0
M  V30 6362 H 587.835 -1.4576 -2.10209 0
M  V30 6363 H 587.479 -2.66463 -4.32389 0
M  V30 6364 H 587.409 -1.08893 -5.15218 0
M  V30 6365 H 589.899 -1.17183 -3.59272 0
M  V30 6366 H 590.213 -2.98298 -7.12908 0
M  V30 6367 H 588.558 -2.67626 -6.41406 0
M  V30 6368 H 591.749 -1.5314 -4.42341 0
M  V30 6369 H 591.922 -2.35708 -6.03611 0
M  V30 6370 N 585.328 1.53329 -0.364422 0
M  V30 6371 C 586.576 2.00842 0.225189 0
M  V30 6372 C 586.897 1.25345 1.49378 0
M  V30 6373 O 586.167 0.366396 1.92443 0
M  V30 6374 H 584.747 0.742009 0.0862027 0
M  V30 6375 H 587.409 1.8863 -0.490389 0
M  V30 6376 H 586.505 3.08795 0.452987 0
M  V30 6377 N 586.806 0.0935595 1.57322 0
M  V30 6378 C 587.736 -0.863062 2.16964 0
M  V30 6379 C 588.717 -1.29528 1.10256 0
M  V30 6380 O 589.902 -1.36245 1.38387 0
M  V30 6381 C 587.032 -2.12276 2.74875 0
M  V30 6382 C 585.986 -1.82921 3.86942 0
M  V30 6383 C 585.312 -3.15707 4.31548 0
M  V30 6384 C 586.612 -1.11737 5.10208 0
M  V30 6385 H 588.306 -0.366145 2.97153 0
M  V30 6386 H 585.852 -0.174673 1.42937 0
M  V30 6387 H 587.805 -2.79634 3.1525 0
M  V30 6388 H 586.529 -2.64248 1.91938 0
M  V30 6389 H 585.188 -1.17961 3.47103 0
M  V30 6390 H 584.836 -3.65563 3.45504 0
M  V30 6391 H 584.536 -2.96849 5.07104 0
M  V30 6392 H 586.06 -3.84226 4.74555 0
M  V30 6393 H 587.474 -1.69203 5.47762 0
M  V30 6394 H 585.871 -1.03064 5.91183 0
M  V30 6395 H 586.941 -0.0998818 4.84797 0
M  V30 6396 N 588.284 -1.56567 -0.180126 0
M  V30 6397 C 589.7 -1.50488 -0.531559 0
M  V30 6398 C 589.9 -0.796267 -1.851 0
M  V30 6399 O 588.956 -0.352978 -2.50021 0
M  V30 6400 C 590.269 -2.95201 -0.572456 0
M  V30 6401 C 591.817 -3.05957 -0.660264 0
M  V30 6402 C 592.292 -4.5211 -0.732135 0
M  V30 6403 N 593.783 -4.56322 -0.795262 0
M  V30 6404 C 594.518 -5.66742 -0.871296 0
M  V30 6405 N 594.014 -6.86815 -0.908708 0
M  V30 6406 N 595.807 -5.54691 -0.909639 0
M  V30 6407 H 587.958 -2.01045 0.685165 0
M  V30 6408 H 590.221 -0.915536 0.245962 0
M  V30 6409 H 589.927 -3.50165 0.328208 0
M  V30 6410 H 589.801 -3.49369 -1.422 0
M  V30 6411 H 592.188 -2.51032 -1.55136 0
M  V30 6412 H 592.269 -2.54888 0.215783 0
M  V30 6413 H 591.913 -5.07664 0.154664 0
M  V30 6414 H 591.843 -5.00926 -1.6242 0
M  V30 6415 H 594.334 -3.69868 -0.77499 0
M  V30 6416 H 594.647 -7.66718 -0.967654 0
M  V30 6417 H 592.992 -6.89443 -0.877132 0
M  V30 6418 H 596.183 -4.59804 -0.877353 0
M  V30 6419 H 596.356 -6.40768 -0.965434 0
M  V30 6420 N 589.762 0.448376 -1.51087 0
M  V30 6421 C 590.725 1.52588 -1.71025 0
M  V30 6422 C 591.725 1.49958 -0.580442 0
M  V30 6423 O 592.915 1.52176 -0.847833 0
M  V30 6424 C 590.047 2.92163 -1.75652 0
M  V30 6425 H 591.24 1.36218 -2.67179 0
M  V30 6426 H 588.793 0.676313 -1.4091 0
M  V30 6427 H 589.528 3.13951 -0.812724 0
M  V30 6428 H 589.313 2.95478 -2.57751 0
M  V30 6429 H 590.803 3.70349 -1.92953 0
M  V30 6430 N 591.24 1.41047 0.703093 0
M  V30 6431 C 592.489 1.39301 1.4587 0
M  V30 6432 C 592.802 0.00267077 1.956 0
M  V30 6433 O 594.008 -0.137414 2.71152 0
M  V30 6434 C 592.464 2.44891 2.63735 0
M  V30 6435 C 592.072 3.89796 2.20824 0
M  V30 6436 C 593.816 2.5227 3.41409 0
M  V30 6437 C 591.723 4.86955 3.35602 0
M  V30 6438 H 590.653 0.518005 0.547893 0
M  V30 6439 H 593.304 1.66839 0.764009 0
M  V30 6440 H 591.686 2.10472 3.35436 0
M  V30 6441 H 592.86 4.33424 1.56461 0
M  V30 6442 H 591.175 3.86008 1.56163 0
M  V30 6443 H 593.772 3.22044 4.26839 0
M  V30 6444 H 594.115 1.55714 3.86081 0
M  V30 6445 H 594.648 2.85742 2.7676 0
M  V30 6446 H 591.387 5.84888 2.9595 0
M  V30 6447 H 590.907 4.47982 3.98839 0
M  V30 6448 H 592.586 5.07361 4.01489 0
M  V30 6449 N 592.718 -0.936591 1.26751 0
M  V30 6450 C 593.967 -1.67778 1.11953 0
M  V30 6451 C 594.28 -1.92694 -0.33589 0
M  V30 6452 O 595.486 -2.64682 -0.604618 0
M  V30 6453 C 593.942 -3.02138 1.95551 0
M  V30 6454 C 593.55 -2.84953 3.45696 0
M  V30 6455 C 595.294 -3.79917 1.89377 0
M  V30 6456 C 593.201 -4.14814 4.21525 0
M  V30 6457 H 592.131 -0.629275 0.415366 0
M  V30 6458 H 594.782 -1.04122 1.51099 0
M  V30 6459 H 593.164 -3.668 1.49243 0
M  V30 6460 H 594.338 -2.29112 3.99805 0
M  V30 6461 H 592.653 -2.20612 3.53156 0
M  V30 6462 H 595.25 -4.76134 2.43312 0
M  V30 6463 H 595.593 -4.07204 0.865464 0
M  V30 6464 H 596.126 -3.22037 2.33532 0
M  V30 6465 H 592.865 -3.92709 5.24843 0
M  V30 6466 H 592.385 -4.70352 3.72195 0
M  V30 6467 H 594.064 -4.83239 4.3022 0
M  V30 6468 N 594.196 -1.08629 -1.14182 0
M  V30 6469 C 595.106 -0.730126 -2.22949 0
M  V30 6470 C 596.122 0.26436 -1.7198 0
M  V30 6471 O 597.298 0.107742 -2.01112 0
M  V30 6472 C 594.363 -0.147227 -3.46387 0
M  V30 6473 C 593.424 -1.19662 -4.12286 0
M  V30 6474 C 592.657 -0.641437 -5.29831 0
M  V30 6475 O 592.88 0.538351 -5.67854 0
M  V30 6476 O 591.814 -1.39257 -5.85569 0
M  V30 6477 H 595.64 -1.63753 -2.55771 0
M  V30 6478 H 593.225 -0.860118 -1.22157 0
M  V30 6479 H 595.107 0.174923 -4.21037 0
M  V30 6480 H 593.782 0.733304 -3.15285 0
M  V30 6481 H 592.689 -1.57133 -3.395 0
M  V30 6482 H 594.022 -2.0495 -4.475 0
M  V30 6483 N 595.674 1.31259 -0.872281 0
M  V30 6484 C 596.951 1.91362 -0.404943 0
M  V30 6485 C 597.331 1.79362 1.11321 0
M  V30 6486 O 596.679 1.20277 1.94283 0
M  V30 6487 C 596.889 3.3749 -0.888893 0
M  V30 6488 C 598.237 4.14593 -0.916384 0
M  V30 6489 O 599.261 3.46282 -0.834701 0
M  V30 6490 O 598.12 5.3661 -1.03498 0
M  V30 6491 H 595.214 0.818016 -0.121569 0
M  V30 6492 H 597.76 1.39912 -0.960346 0
M  V30 6493 H 596.532 3.40249 -1.93251 0
M  V30 6494 H 596.155 3.96375 -0.311932 0
M  V30 6495 N 597.152 0.631951 1.44375 0
M  V30 6496 C 598.399 0.136767 2.02038 0
M  V30 6497 C 598.727 -1.24168 1.49709 0
M  V30 6498 O 597.982 -1.83809 0.671763 0
M  V30 6499 C 598.281 0.0735861 3.57324 0
M  V30 6500 C 597.947 1.39092 4.28911 0
M  V30 6501 C 596.609 1.75171 4.48184 0
M  V30 6502 C 598.961 2.26042 4.69632 0
M  V30 6503 C 596.289 2.97907 5.05439 0
M  V30 6504 C 598.641 3.4805 5.28246 0
M  V30 6505 C 597.305 3.84351 5.45738 0
M  V30 6506 H 596.575 0.0500466 0.739308 0
M  V30 6507 H 599.222 0.818429 1.7313 0
M  V30 6508 H 597.527 -0.691449 3.8565 0
M  V30 6509 H 599.224 -0.326091 3.99672 0
M  V30 6510 H 595.814 1.10015 4.1424 0
M  V30 6511 H 599.998 1.99463 4.54454 0
M  V30 6512 H 595.254 3.26108 5.17169 0
M  V30 6513 H 599.428 4.15658 5.5875 0
M  V30 6514 H 597.055 4.79538 5.8987 0
M  V30 6515 N 598.631 -1.53133 0.372548 0
M  V30 6516 C 599.871 -2.03267 -0.214943 0
M  V30 6517 C 600.235 -1.25362 -1.45425 0
M  V30 6518 O 601.436 -1.65536 -2.11781 0
M  V30 6519 C 599.707 -3.53985 -0.492897 0
M  V30 6520 S 601.266 -4.25977 -1.05307 0
M  V30 6521 H 598.084 -0.708289 -0.062029 0
M  V30 6522 H 600.686 -1.88539 0.517025 0
M  V30 6523 H 599.39 -4.08282 0.416442 0
M  V30 6524 H 598.921 -3.72887 -1.25375 0
M  V30 6525 H 600.936 -4.37731 -2.33679 0
M  V30 6526 N 600.109 -0.101901 -1.5727 0
M  V30 6527 C 601.039 0.851544 -2.17419 0
M  V30 6528 C 602.02 1.28942 -1.10941 0
M  V30 6529 O 603.205 1.35509 -1.39107 0
M  V30 6530 C 600.335 2.10816 -2.75996 0
M  V30 6531 C 599.289 1.80867 -3.87906 0
M  V30 6532 C 598.615 3.13413 -4.33216 0
M  V30 6533 C 599.915 1.0903 -5.10793 0
M  V30 6534 H 601.609 0.350381 -2.97343 0
M  V30 6535 H 599.155 0.16709 -1.43027 0
M  V30 6536 H 601.108 2.77959 -3.16729 0
M  V30 6537 H 599.832 2.63227 -1.93337 0
M  V30 6538 H 598.491 1.16119 -3.47724 0
M  V30 6539 H 598.139 3.63725 -3.47438 0
M  V30 6540 H 597.839 2.94155 -5.08671 0
M  V30 6541 H 599.363 3.81704 -4.76586 0
M  V30 6542 H 600.777 1.66295 -5.48652 0
M  V30 6543 H 599.174 0.99927 -5.91722 0
M  V30 6544 H 600.244 0.0741704 -4.84843 0
M  V30 6545 N 601.587 1.56661 0.17182 0
M  V30 6546 C 602.864 1.72838 0.915778 0
M  V30 6547 C 603.244 0.66316 2.00413 0
M  V30 6548 O 602.592 -0.322123 2.26218 0
M  V30 6549 C 602.802 3.16019 1.48097 0
M  V30 6550 C 604.15 3.76962 1.95408 0
M  V30 6551 O 605.174 3.19294 1.57892 0
M  V30 6552 O 604.033 4.78219 2.64516 0
M  V30 6553 H 601.127 0.705797 0.431021 0
M  V30 6554 H 603.673 1.68947 0.159689 0
M  V30 6555 H 602.445 3.85031 0.697618 0
M  V30 6556 H 602.068 3.24234 2.30126 0
M  V30 6557 N 603.065 -0.440357 1.51323 0
M  V30 6558 C 604.314 -1.18697 1.63076 0
M  V30 6559 C 604.627 -1.92418 0.35136 0
M  V30 6560 O 605.833 -2.69258 0.348221 0
M  V30 6561 C 604.289 -2.15849 2.87988 0
M  V30 6562 C 603.897 -1.47789 4.22921 0
M  V30 6563 C 605.641 -2.90962 3.09098 0
M  V30 6564 C 603.548 -2.43407 5.38987 0
M  V30 6565 H 602.478 -0.44676 0.607389 0
M  V30 6566 H 605.129 -0.454313 1.77787 0
M  V30 6567 H 603.511 -2.92537 2.66905 0
M  V30 6568 H 604.685 -0.7668 4.54375 0
M  V30 6569 H 603 -0.848404 4.07665 0
M  V30 6570 H 605.597 -3.62584 3.92985 0
M  V30 6571 H 605.94 -3.52133 2.22053 0
M  V30 6572 H 606.473 -2.21381 3.30507 0
M  V30 6573 H 603.212 -1.86929 6.28282 0
M  V30 6574 H 602.732 -3.12579 5.11913 0
M  V30 6575 H 604.411 -3.046 5.70813 0
M  V30 6576 N 604.543 -1.41418 -0.695603 0
M  V30 6577 C 605.476 -1.3768 -1.81988 0
M  V30 6578 C 606.454 -0.244061 -1.60758 0
M  V30 6579 O 607.638 -0.430965 -1.83507 0
M  V30 6580 C 604.765 -1.1476 -3.18666 0
M  V30 6581 C 603.811 -2.30752 -3.58686 0
M  V30 6582 S 604.644 -3.9323 -3.63498 0
M  V30 6583 C 605.8 -3.72613 -5.02902 0
M  V30 6584 H 606.033 -2.32822 -1.84882 0
M  V30 6585 H 603.566 -1.27942 -0.86431 0
M  V30 6586 H 605.524 -1.02223 -3.97569 0
M  V30 6587 H 604.185 -0.212385 -3.13381 0
M  V30 6588 H 603.378 -2.10409 -4.57978 0
M  V30 6589 H 602.98 -2.39696 -2.87092 0
M  V30 6590 H 605.272 -3.32317 -5.904 0
M  V30 6591 H 606.215 -4.71507 -5.28286 0
M  V30 6592 H 606.623 -3.0589 -4.74438 0
M  V30 6593 N 606.021 0.929856 -1.27246 0
M  V30 6594 C 607.268 1.67731 -1.13457 0
M  V30 6595 C 607.596 1.9185 0.319998 0
M  V30 6596 O 606.851 1.50524 1.25064 0
M  V30 6597 C 607.15 3.05116 -1.86115 0
M  V30 6598 C 606.816 3.00715 -3.35978 0
M  V30 6599 C 605.478 2.99222 -3.76855 0
M  V30 6600 C 607.83 2.92168 -4.3161 0
M  V30 6601 C 605.158 2.86962 -5.11732 0
M  V30 6602 C 607.51 2.81449 -5.66542 0
M  V30 6603 C 606.174 2.78305 -6.06715 0
M  V30 6604 H 605.444 0.613772 -0.415168 0
M  V30 6605 H 608.091 1.08456 -1.57827 0
M  V30 6606 H 606.396 3.68083 -1.34246 0
M  V30 6607 H 608.093 3.61822 -1.72876 0
M  V30 6608 H 604.683 3.02664 -3.03468 0
M  V30 6609 H 608.867 2.92421 -4.01003 0
M  V30 6610 H 604.123 2.82913 -5.42006 0
M  V30 6611 H 608.297 2.738 -6.40317 0
M  V30 6612 H 605.924 2.68561 -7.11181 0
M  V30 6613 N 607.499 1.09233 1.13605 0
M  V30 6614 C 608.776 0.739633 1.81077 0
M  V30 6615 C 609.156 -0.775595 1.96336 0
M  V30 6616 O 608.504 -1.69726 1.52988 0
M  V30 6617 C 608.714 1.47636 3.16235 0
M  V30 6618 C 610.062 1.64087 3.91613 0
M  V30 6619 O 611.086 1.43871 3.25852 0
M  V30 6620 O 609.945 1.97511 5.0956 0
M  V30 6621 H 607.039 0.265464 0.783236 0
M  V30 6622 H 609.585 1.19441 1.20549 0
M  V30 6623 H 608.357 2.50818 3.00344 0
M  V30 6624 H 607.98 1.01362 3.84462 0
M  V30 6625 N 608.977 -1.30795 0.87923 0
M  V30 6626 C 609.907 -2.30742 0.357796 0
M  V30 6627 C 610.888 -1.60747 -0.556283 0
M  V30 6628 O 612.073 -1.88393 -0.47135 0
M  V30 6629 C 609.203 -3.44583 -0.433555 0
M  V30 6630 C 608.157 -4.26235 0.388251 0
M  V30 6631 C 607.483 -5.32073 -0.529352 0
M  V30 6632 C 608.783 -4.96303 1.62729 0
M  V30 6633 H 610.477 -2.74605 1.19299 0
M  V30 6634 H 608.023 -1.32017 0.575104 0
M  V30 6635 H 609.976 -4.13563 -0.808934 0
M  V30 6636 H 608.7 -2.99511 -1.30234 0
M  V30 6637 H 607.359 -3.58936 0.745695 0
M  V30 6638 H 607.007 -4.83249 -1.39569 0
M  V30 6639 H 606.707 -5.87598 0.0166741 0
M  V30 6640 H 608.231 -6.0391 -0.901373 0
M  V30 6641 H 609.645 -5.5783 1.32283 0
M  V30 6642 H 608.042 -5.61666 2.11309 0
M  V30 6643 H 609.112 -4.22758 2.37494 0
M  V30 6644 N 610.455 -0.639598 -1.44038 0
M  V30 6645 C 611.866 -0.228866 -1.85292 0
M  V30 6646 C 612.217 1.22161 -1.53529 0
M  V30 6647 O 611.342 1.93064 -0.977518 0
M  V30 6648 C 611.937 -0.408592 -3.36327 0
M  V30 6649 C 610.496 -0.0522953 -3.76364 0
M  V30 6650 C 609.643 -0.717959 -2.67844 0
M  V30 6651 H 612.594 -0.844194 -1.34384 0
M  V30 6652 H 612.615 0.349968 -3.78887 0
M  V30 6653 H 612.127 -1.46435 -3.59414 0
M  V30 6654 H 610.228 1.0014 -3.58891 0
M  V30 6655 H 610.341 -0.468261 -4.76806 0
M  V30 6656 H 608.705 -0.152459 -2.54243 0
M  V30 6657 H 609.488 -1.77648 -2.93762 0
M  V30 6658 N 611.933 1.52934 -0.380664 0
M  V30 6659 C 612.88 2.26197 0.458641 0
M  V30 6660 C 613.85 1.27462 1.06502 0
M  V30 6661 O 615.035 1.56274 1.09467 0
M  V30 6662 C 612.175 3.06571 1.58456 0
M  V30 6663 C 611.288 4.20222 1.00189 0
M  V30 6664 C 610.423 4.88007 2.09815 0
M  V30 6665 C 609.462 5.93665 1.49092 0
M  V30 6666 N 608.599 6.55081 2.52613 0
M  V30 6667 H 613.439 2.975 -0.172595 0
M  V30 6668 H 610.976 1.4678 -0.0969426 0
M  V30 6669 H 612.934 3.51455 2.24801 0
M  V30 6670 H 611.564 2.37494 2.18624 0
M  V30 6671 H 610.616 3.79714 0.228292 0
M  V30 6672 H 611.928 4.96102 0.518064 0
M  V30 6673 H 611.082 5.36151 2.83948 0
M  V30 6674 H 609.821 4.11632 2.61555 0
M  V30 6675 H 608.826 5.44868 0.7348 0
M  V30 6676 H 610.051 6.71969 0.981582 0
M  V30 6677 H 607.997 5.8155 3.03538 0
M  V30 6678 H 607.914 7.26548 2.08961 0
M  V30 6679 H 609.182 7.07871 3.26402 0
M  V30 6680 N 613.412 0.11024 1.57214 0
M  V30 6681 C 614.342 -0.840002 2.17867 0
M  V30 6682 C 615.323 -1.28352 1.11624 0
M  V30 6683 O 616.508 -1.3477 1.39824 0
M  V30 6684 C 613.638 -2.09349 2.77111 0
M  V30 6685 C 612.592 -1.78807 3.8886 0
M  V30 6686 C 611.918 -3.11112 4.34872 0
M  V30 6687 C 613.218 -1.0632 5.11364 0
M  V30 6688 H 614.912 -0.334608 2.97524 0
M  V30 6689 H 612.458 -0.159502 1.43114 0
M  V30 6690 H 614.411 -2.76275 3.18198 0
M  V30 6691 H 613.135 -2.62198 1.9473 0
M  V30 6692 H 611.794 -1.14273 3.48335 0
M  V30 6693 H 611.442 -3.61877 3.49362 0
M  V30 6694 H 611.142 -2.91453 5.10224 0
M  V30 6695 H 612.666 -3.79171 4.78604 0
M  V30 6696 H 614.08 -1.63383 5.49526 0
M  V30 6697 H 612.477 -0.967876 5.92243 0
M  V30 6698 H 613.547 -0.0484569 4.84876 0
M  V30 6699 N 614.89 -1.56749 -0.16351 0
M  V30 6700 C 615.837 -1.97011 -1.2023 0
M  V30 6701 C 616.807 -0.835186 -1.43575 0
M  V30 6702 O 617.992 -1.09594 -1.56185 0
M  V30 6703 C 615.132 -2.34186 -2.53478 0
M  V30 6704 C 614.245 -3.60893 -2.37446 0
M  V30 6705 C 613.38 -3.87245 -3.63614 0
M  V30 6706 C 612.419 -5.07274 -3.42548 0
M  V30 6707 N 611.556 -5.29719 -4.60806 0
M  V30 6708 H 616.396 -2.85562 -0.851958 0
M  V30 6709 H 613.933 -1.41292 -0.409257 0
M  V30 6710 H 615.891 -2.53764 -3.31149 0
M  V30 6711 H 614.521 -1.48736 -2.86492 0
M  V30 6712 H 613.573 -3.49185 -1.50911 0
M  V30 6713 H 614.885 -4.48722 -2.1783 0
M  V30 6714 H 614.039 -4.07232 -4.49719 0
M  V30 6715 H 612.778 -2.97806 -3.86216 0
M  V30 6716 H 611.783 -4.87177 -2.5483 0
M  V30 6717 H 613.008 -5.98251 -3.2136 0
M  V30 6718 H 610.954 -4.43233 -4.83612 0
M  V30 6719 H 610.871 -6.11786 -4.44132 0
M  V30 6720 H 612.139 -5.54192 -5.48171 0
M  V30 6721 N 616.368 0.432326 -1.51554 0
M  V30 6722 C 617.616 1.17901 -1.64146 0
M  V30 6723 C 617.937 1.91604 -0.362367 0
M  V30 6724 O 617.207 1.85764 0.621968 0
M  V30 6725 H 615.787 0.438206 -0.604966 0
M  V30 6726 H 618.449 0.495172 -1.88505 0
M  V30 6727 H 617.545 1.90584 -2.47152 0
M  V30 6728 N 617.846 1.41785 0.688094 0
M  V30 6729 C 619.071 1.45117 1.48175 0
M  V30 6730 C 619.496 0.060129 1.88004 0
M  V30 6731 O 618.854 -0.938385 1.55126 0
M  V30 6732 C 618.902 2.37224 2.71583 0
M  V30 6733 O 618.006 1.83443 3.69354 0
M  V30 6734 H 617.347 0.492208 0.445676 0
M  V30 6735 H 619.877 1.86329 0.845145 0
M  V30 6736 H 619.887 2.53353 3.19806 0
M  V30 6737 H 618.562 3.38293 2.41931 0
M  V30 6738 H 617.139 1.76802 3.28322 0
M  V30 6739 N 619.324 -0.923095 1.27737 0
M  V30 6740 C 620.234 -2.05765 1.12685 0
M  V30 6741 C 621.25 -1.73911 0.0557197 0
M  V30 6742 O 622.426 -1.99674 0.263137 0
M  V30 6743 C 619.491 -3.37804 0.780363 0
M  V30 6744 C 618.552 -3.83326 1.93286 0
M  V30 6745 C 617.785 -5.09064 1.60281 0
M  V30 6746 O 618.008 -5.6809 0.512828 0
M  V30 6747 O 616.942 -5.50071 2.44347 0
M  V30 6748 H 620.768 -2.21378 2.07907 0
M  V30 6749 H 618.353 -1.04299 1.06968 0
M  V30 6750 H 620.235 -4.17097 0.600668 0
M  V30 6751 H 618.91 -3.23387 -0.142291 0
M  V30 6752 H 617.817 -3.049 2.16764 0
M  V30 6753 H 619.15 -4.02292 2.83588 0
M  V30 6754 N 620.802 -1.09834 -1.13024 0
M  V30 6755 C 622.048 -0.83819 -1.84668 0
M  V30 6756 C 622.381 0.634645 -1.83537 0
M  V30 6757 O 621.656 1.46753 -1.27647 0
M  V30 6758 C 621.939 -1.37933 -3.32636 0
M  V30 6759 C 621.792 -2.91857 -3.42257 0
M  V30 6760 C 623.111 -1.01654 -4.28199 0
M  V30 6761 H 620.23 -0.30595 -0.670495 0
M  V30 6762 H 622.872 -1.36044 -1.32635 0
M  V30 6763 H 621.022 -0.935111 -3.77078 0
M  V30 6764 H 622.694 -3.44759 -3.06495 0
M  V30 6765 H 620.937 -3.28776 -2.83 0
M  V30 6766 H 621.608 -3.24799 -4.46329 0
M  V30 6767 H 624.084 -1.39973 -3.9185 0
M  V30 6768 H 622.96 -1.42217 -5.30156 0
M  V30 6769 H 623.221 0.0747794 -4.42037 0
M  V30 6770 N 622.28 1.30327 -0.886154 0
M  V30 6771 C 623.696 1.48676 -0.580323 0
M  V30 6772 C 623.896 1.81189 0.881639 0
M  V30 6773 O 622.952 1.90021 1.66278 0
M  V30 6774 C 624.265 2.60932 -1.49449 0
M  V30 6775 C 625.813 2.74812 -1.49824 0
M  V30 6776 C 626.288 3.90183 -2.39836 0
M  V30 6777 N 627.779 3.97495 -2.37806 0
M  V30 6778 C 628.514 4.86078 -3.04165 0
M  V30 6779 N 628.01 5.79448 -3.79753 0
M  V30 6780 N 629.803 4.79456 -2.93391 0
M  V30 6781 H 621.954 1.07495 -1.8319 0
M  V30 6782 H 624.217 0.532661 -0.784204 0
M  V30 6783 H 623.923 2.43731 -2.5355 0
M  V30 6784 H 623.797 3.57437 -1.20494 0
M  V30 6785 H 626.184 2.91418 -0.464731 0
M  V30 6786 H 626.265 1.78924 -1.82811 0
M  V30 6787 H 625.909 3.74334 -3.43273 0
M  V30 6788 H 625.839 4.85411 -2.04166 0
M  V30 6789 H 628.33 3.30703 -1.82877 0
M  V30 6790 H 628.643 6.43805 -4.27475 0
M  V30 6791 H 626.988 5.79376 -3.8386 0
M  V30 6792 H 630.179 4.05494 -2.33864 0
M  V30 6793 H 630.352 5.48283 -3.45383 0
M  V30 6794 N 623.758 0.647228 1.43697 0
M  V30 6795 C 625.007 0.155552 2.01099 0
M  V30 6796 C 625.32 -1.23569 1.51624 0
M  V30 6797 O 626.526 -1.82226 2.01261 0
M  V30 6798 C 624.982 0.227296 3.59182 0
M  V30 6799 C 624.59 1.62086 4.17651 0
M  V30 6800 C 626.334 -0.207085 4.23995 0
M  V30 6801 C 624.241 1.64685 5.68008 0
M  V30 6802 H 623.171 0.0543895 0.752036 0
M  V30 6803 H 625.822 0.808386 1.64734 0
M  V30 6804 H 624.204 -0.492937 3.9292 0
M  V30 6805 H 625.378 2.36597 3.95422 0
M  V30 6806 H 623.693 2.0007 3.65186 0
M  V30 6807 H 626.29 -0.207426 5.34298 0
M  V30 6808 H 626.633 -1.23742 3.97484 0
M  V30 6809 H 627.166 0.461193 3.95118 0
M  V30 6810 H 623.905 2.65608 5.99277 0
M  V30 6811 H 623.425 0.944914 5.9231 0
M  V30 6812 H 625.104 1.38792 6.31938 0
M  V30 6813 N 625.236 -1.5273 0.388769 0
M  V30 6814 C 626.464 -2.05992 -0.193677 0
M  V30 6815 C 626.879 -1.26053 -1.40557 0
M  V30 6816 O 626.236 -0.307049 -1.79898 0
M  V30 6817 C 626.287 -3.57068 -0.564321 0
M  V30 6818 O 626.008 -4.3398 0.599422 0
M  V30 6819 C 627.509 -4.26674 -1.20269 0
M  V30 6820 H 624.729 -0.670358 -0.0293445 0
M  V30 6821 H 627.273 -1.96857 0.553844 0
M  V30 6822 H 625.428 -3.66277 -1.26174 0
M  V30 6823 H 625.842 -5.2367 0.294895 0
M  V30 6824 H 627.316 -5.33625 -1.4124 0
M  V30 6825 H 627.793 -3.81854 -2.16989 0
M  V30 6826 H 628.399 -4.2178 -0.546047 0
M  V30 6827 N 626.714 -0.118576 -1.57153 0
M  V30 6828 C 627.661 0.831789 -2.1529 0
M  V30 6829 C 628.631 1.26385 -1.07778 0
M  V30 6830 O 629.816 1.34144 -1.35684 0
M  V30 6831 C 626.956 2.07664 -2.75626 0
M  V30 6832 C 626.069 1.69298 -3.97444 0
M  V30 6833 C 625.204 2.88747 -4.45868 0
M  V30 6834 C 624.243 2.46619 -5.60219 0
M  V30 6835 N 623.38 3.5898 -6.03389 0
M  V30 6836 H 628.22 0.329183 -2.96176 0
M  V30 6837 H 625.757 0.150792 -1.46325 0
M  V30 6838 H 627.715 2.80601 -3.08738 0
M  V30 6839 H 626.345 2.55384 -1.97431 0
M  V30 6840 H 625.397 0.862374 -3.70496 0
M  V30 6841 H 626.709 1.34338 -4.80369 0
M  V30 6842 H 625.863 3.69909 -4.80887 0
M  V30 6843 H 624.602 3.26933 -3.61892 0
M  V30 6844 H 623.607 1.63889 -5.24805 0
M  V30 6845 H 624.832 2.0955 -6.45961 0
M  V30 6846 H 622.778 3.9684 -5.22354 0
M  V30 6847 H 622.695 3.27942 -6.81168 0
M  V30 6848 H 623.963 4.40583 -6.43045 0
M  V30 6849 N 628.193 1.56834 0.155195 0
M  V30 6850 C 629.47 1.73799 0.897395 0
M  V30 6851 C 629.85 0.684379 1.99698 0
M  V30 6852 O 629.198 -0.298111 2.26547 0
M  V30 6853 C 629.408 3.17572 1.44737 0
M  V30 6854 C 630.756 3.79014 1.91399 0
M  V30 6855 O 631.78 3.20951 1.54496 0
M  V30 6856 O 630.639 4.80998 2.59429 0
M  V30 6857 H 627.733 0.710329 0.423511 0
M  V30 6858 H 630.279 1.69107 0.141761 0
M  V30 6859 H 629.051 3.85749 0.656741 0
M  V30 6860 H 628.674 3.26657 2.26674 0
M  V30 6861 N 629.671 -0.424282 1.51781 0
M  V30 6862 C 630.911 -1.18194 1.66762 0
M  V30 6863 C 631.275 -1.88164 0.381857 0
M  V30 6864 O 632.476 -2.65692 0.407586 0
M  V30 6865 C 630.747 -2.16173 2.84612 0
M  V30 6866 S 632.306 -3.0025 3.19993 0
M  V30 6867 H 629.124 -0.400626 0.587384 0
M  V30 6868 H 631.726 -0.471499 1.89729 0
M  V30 6869 H 630.43 -1.6343 3.76455 0
M  V30 6870 H 629.961 -2.91778 2.63873 0
M  V30 6871 H 631.976 -4.1796 2.67439 0
M  V30 6872 N 631.149 -1.42148 -0.680565 0
M  V30 6873 C 632.395 -1.42521 -1.44277 0
M  V30 6874 C 632.728 -0.0393718 -1.9416 0
M  V30 6875 O 632.003 0.935425 -1.70529 0
M  V30 6876 C 632.286 -2.44475 -2.64394 0
M  V30 6877 C 632.139 -3.92226 -2.20179 0
M  V30 6878 C 633.458 -2.43491 -3.66606 0
M  V30 6879 H 630.577 -0.518985 -0.523282 0
M  V30 6880 H 633.219 -1.73524 -0.773914 0
M  V30 6881 H 631.369 -2.18168 -3.21458 0
M  V30 6882 H 633.041 -4.29493 -1.68327 0
M  V30 6883 H 631.284 -4.0637 -1.5181 0
M  V30 6884 H 631.955 -4.59133 -3.06433 0
M  V30 6885 H 634.431 -2.66872 -3.19247 0
M  V30 6886 H 633.307 -3.16816 -4.4824 0
M  V30 6887 H 633.568 -1.45881 -4.17338 0
M  V30 6888 N 632.627 0.916307 -1.28225 0
M  V30 6889 C 633.557 2.0352 -1.14464 0
M  V30 6890 C 634.538 1.70045 -0.0430844 0
M  V30 6891 O 635.723 1.92954 -0.219619 0
M  V30 6892 C 632.853 3.37889 -0.803027 0
M  V30 6893 C 631.807 3.85516 -1.85908 0
M  V30 6894 C 631.133 5.1682 -1.37116 0
M  V30 6895 C 632.433 4.07655 -3.26519 0
M  V30 6896 H 634.127 2.1529 -2.08064 0
M  V30 6897 H 631.673 1.03446 -1.00174 0
M  V30 6898 H 633.626 4.15654 -0.693537 0
M  V30 6899 H 632.35 3.26164 0.168674 0
M  V30 6900 H 631.009 3.09953 -1.95767 0
M  V30 6901 H 630.657 5.01497 -0.38859 0
M  V30 6902 H 630.357 5.49657 -2.07728 0
M  V30 6903 H 631.881 5.97143 -1.27484 0
M  V30 6904 H 633.295 4.75953 -3.19596 0
M  V30 6905 H 631.692 4.51818 -3.94943 0
M  V30 6906 H 632.762 3.12553 -3.70727 0
M  V30 6907 N 634.105 1.10431 1.1244 0
M  V30 6908 C 635.052 0.753103 2.18167 0
M  V30 6909 C 636.022 -0.270549 1.63882 0
M  V30 6910 O 637.207 -0.149837 1.90211 0
M  V30 6911 C 634.347 0.191046 3.44571 0
M  V30 6912 C 633.46 1.26999 4.12911 0
M  V30 6913 C 632.595 0.669586 5.26963 0
M  V30 6914 C 631.634 1.72912 5.87169 0
M  V30 6915 N 630.771 1.14898 6.92635 0
M  V30 6916 H 635.611 1.65892 2.47556 0
M  V30 6917 H 633.148 0.828631 1.21541 0
M  V30 6918 H 635.106 -0.152712 4.1692 0
M  V30 6919 H 633.736 -0.677997 3.15599 0
M  V30 6920 H 632.788 1.73087 3.3874 0
M  V30 6921 H 634.1 2.07204 4.53727 0
M  V30 6922 H 633.254 0.275274 6.06075 0
M  V30 6923 H 631.993 -0.163895 4.87425 0
M  V30 6924 H 630.998 2.13286 5.06744 0
M  V30 6925 H 632.223 2.56544 6.28778 0
M  V30 6926 H 630.169 0.336956 6.55134 0
M  V30 6927 H 630.086 1.88786 7.32049 0
M  V30 6928 H 631.354 0.78121 7.75576 0
M  V30 6929 N 635.583 -1.29855 0.893053 0
M  V30 6930 C 636.515 -2.26911 0.32311 0
M  V30 6931 C 637.528 -1.54039 -0.526858 0
M  V30 6932 O 638.717 -1.75132 -0.345095 0
M  V30 6933 C 635.817 -3.34266 -0.558509 0
M  V30 6934 C 634.99 -4.36601 0.264222 0
M  V30 6935 C 634.049 -5.23326 -0.549171 0
M  V30 6936 O 633.075 -5.69192 0.0309883 0
M  V30 6937 N 634.277 -5.50008 -1.85664 0
M  V30 6938 H 637.042 -2.76455 1.15726 0
M  V30 6939 H 634.603 -1.4312 0.756859 0
M  V30 6940 H 636.595 -3.89211 -1.1089 0
M  V30 6941 H 635.165 -2.8459 -1.29334 0
M  V30 6942 H 634.385 -3.81409 0.996046 0
M  V30 6943 H 635.673 -5.02019 0.827906 0
M  V30 6944 H 635.071 -5.14542 -2.35081 0
M  V30 6945 H 633.628 -6.07796 -2.35431 0
M  V30 6946 N 637.061 -0.65484 -1.43351 0
M  V30 6947 C 638.024 0.0263562 -2.29185 0
M  V30 6948 C 639.024 0.748951 -1.42293 0
M  V30 6949 O 640.214 0.589957 -1.63906 0
M  V30 6950 C 637.346 1.04806 -3.2439 0
M  V30 6951 H 638.539 -0.728883 -2.90908 0
M  V30 6952 H 636.092 -0.416149 -1.50658 0
M  V30 6953 H 636.827 1.83247 -2.67565 0
M  V30 6954 H 636.612 0.533554 -3.88453 0
M  V30 6955 H 638.102 1.52372 -3.88809 0
M  V30 6956 N 638.539 1.52521 -0.396863 0
M  V30 6957 C 639.449 2.30403 0.44178 0
M  V30 6958 C 640.465 1.37625 1.06468 0
M  V30 6959 O 641.641 1.70697 1.06886 0
M  V30 6960 C 638.706 3.1013 1.54986 0
M  V30 6961 C 637.767 4.18628 0.951279 0
M  V30 6962 C 637 4.94543 2.00655 0
M  V30 6963 O 637.223 4.70629 3.22281 0
M  V30 6964 O 636.157 5.797 1.61962 0
M  V30 6965 H 639.983 3.03087 -0.192892 0
M  V30 6966 H 637.568 1.48537 -0.16038 0
M  V30 6967 H 639.45 3.59816 2.19341 0
M  V30 6968 H 638.125 2.40251 2.16935 0
M  V30 6969 H 637.032 3.73119 0.270773 0
M  V30 6970 H 638.365 4.90763 0.375887 0
M  V30 6971 N 640.017 0.126909 1.57088 0
M  V30 6972 C 641.428 -0.397201 1.82426 0
M  V30 6973 C 641.779 -1.66084 1.04453 0
M  V30 6974 O 640.904 -2.14534 0.283552 0
M  V30 6975 C 641.499 -0.727411 3.30899 0
M  V30 6976 C 640.058 -1.19612 3.56889 0
M  V30 6977 C 639.205 -0.20885 2.76512 0
M  V30 6978 H 642.156 0.351924 1.54749 0
M  V30 6979 H 642.177 -1.58407 3.45959 0
M  V30 6980 H 641.689 0.19247 3.87622 0
M  V30 6981 H 639.79 -2.13263 3.05532 0
M  V30 6982 H 639.903 -1.13598 4.65438 0
M  V30 6983 H 638.267 -0.697479 2.44964 0
M  V30 6984 H 639.05 0.704267 3.35998 0
M  V30 6985 N 641.495 -1.56914 -0.146875 0
M  V30 6986 C 642.425 -2.01308 -1.1831 0
M  V30 6987 C 643.406 -0.892664 -1.44795 0
M  V30 6988 O 644.591 -1.16048 -1.55713 0
M  V30 6989 C 641.721 -2.3938 -2.51624 0
M  V30 6990 C 640.675 -3.54608 -2.3966 0
M  V30 6991 C 640.001 -3.78493 -3.77686 0
M  V30 6992 C 641.301 -4.87269 -1.88058 0
M  V30 6993 H 642.995 -2.88123 -0.813964 0
M  V30 6994 H 640.541 -1.38615 -0.3901 0
M  V30 6995 H 642.494 -2.69037 -3.24341 0
M  V30 6996 H 641.218 -1.49502 -2.90373 0
M  V30 6997 H 639.877 -3.25116 -1.69396 0
M  V30 6998 H 639.525 -2.85866 -4.13871 0
M  V30 6999 H 639.225 -4.56039 -3.70543 0
M  V30 7000 H 640.749 -4.10576 -4.51951 0
M  V30 7001 H 642.163 -5.15644 -2.50568 0
M  V30 7002 H 640.56 -5.68622 -1.91805 0
M  V30 7003 H 641.63 -4.77634 -0.836277 0
M  V30 7004 N 642.974 0.416227 -1.52004 0
M  V30 7005 C 644.223 1.16088 -1.64944 0
M  V30 7006 C 644.536 1.91835 -0.381928 0
M  V30 7007 O 645.742 2.6867 -0.391013 0
M  V30 7008 C 644.198 2.1124 -2.91386 0
M  V30 7009 C 643.806 1.41042 -4.25219 0
M  V30 7010 C 645.55 2.86008 -3.13688 0
M  V30 7011 C 643.457 2.34801 -5.42791 0
M  V30 7012 H 642.387 0.437041 -0.61442 0
M  V30 7013 H 645.038 0.425971 -1.78487 0
M  V30 7014 H 643.42 2.88254 -2.71525 0
M  V30 7015 H 644.594 0.694416 -4.55538 0
M  V30 7016 H 642.909 0.78344 -4.08964 0
M  V30 7017 H 645.506 3.56286 -3.98703 0
M  V30 7018 H 645.849 3.48556 -2.27628 0
M  V30 7019 H 646.382 2.16095 -3.33988 0
M  V30 7020 H 643.121 1.7691 -6.31176 0
M  V30 7021 H 642.641 3.04395 -5.16821 0
M  V30 7022 H 644.32 2.9548 -5.75587 0
M  V30 7023 N 644.452 1.42507 0.673017 0
M  V30 7024 C 645.701 1.42364 1.42883 0
M  V30 7025 C 646.014 0.0441598 1.9555 0
M  V30 7026 O 647.22 -0.0798679 2.71382 0
M  V30 7027 C 645.676 2.5043 2.58482 0
M  V30 7028 C 645.284 3.94392 2.12506 0
M  V30 7029 C 647.028 2.59455 3.35981 0
M  V30 7030 C 644.935 4.93964 3.25198 0
M  V30 7031 H 643.865 0.52951 0.536782 0
M  V30 7032 H 646.516 1.68422 0.728448 0
M  V30 7033 H 644.898 2.1754 3.30896 0
M  V30 7034 H 646.072 4.36645 1.47233 0
M  V30 7035 H 644.387 3.89233 1.4794 0
M  V30 7036 H 646.984 3.31025 4.19912 0
M  V30 7037 H 647.327 1.63869 3.82691 0
M  V30 7038 H 647.86 2.91549 2.70637 0
M  V30 7039 H 644.599 5.91034 2.83477 0
M  V30 7040 H 644.119 4.56341 3.89247 0
M  V30 7041 H 645.798 5.15763 3.90637 0
M  V30 7042 N 645.93 -0.909495 1.28709 0
M  V30 7043 C 646.893 -1.99399 1.13016 0
M  V30 7044 C 647.893 -1.60654 0.068536 0
M  V30 7045 O 649.083 -1.71334 0.314671 0
M  V30 7046 C 646.215 -3.33078 0.726085 0
M  V30 7047 H 647.408 -2.14751 2.09338 0
M  V30 7048 H 644.961 -1.09272 1.11756 0
M  V30 7049 H 645.696 -3.23428 -0.23771 0
M  V30 7050 H 645.481 -3.62562 1.49302 0
M  V30 7051 H 646.971 -4.12681 0.639058 0
M  V30 7052 N 647.408 -1.11026 -1.11852 0
M  V30 7053 C 648.355 -0.764662 -2.17765 0
M  V30 7054 C 649.325 0.261854 -1.64023 0
M  V30 7055 O 650.51 0.139748 -1.90288 0
M  V30 7056 C 647.65 -0.209317 -3.44465 0
M  V30 7057 C 646.763 -1.29187 -4.12231 0
M  V30 7058 C 645.898 -0.697523 -5.266 0
M  V30 7059 C 644.937 -1.76023 -5.86244 0
M  V30 7060 N 644.074 -1.18569 -6.92016 0
M  V30 7061 H 648.914 -1.67202 -2.46673 0
M  V30 7062 H 646.451 -0.835065 -1.21099 0
M  V30 7063 H 648.409 0.130599 -4.16996 0
M  V30 7064 H 647.039 0.661251 -3.15955 0
M  V30 7065 H 646.091 -1.74881 -3.37818 0
M  V30 7066 H 647.403 -2.09607 -4.52622 0
M  V30 7067 H 646.557 -0.307412 -6.05921 0
M  V30 7068 H 645.296 0.138044 -4.87505 0
M  V30 7069 H 644.301 -2.1597 -5.05606 0
M  V30 7070 H 645.526 -2.59875 -6.27409 0
M  V30 7071 H 643.472 -0.371695 -6.54946 0
M  V30 7072 H 643.389 -1.92666 -7.31038 0
M  V30 7073 H 644.657 -0.82233 -7.7515 0
M  V30 7074 N 648.886 1.2938 -0.899927 0
M  V30 7075 C 650.114 1.99691 -0.541386 0
M  V30 7076 C 650.529 1.67355 0.873936 0
M  V30 7077 O 649.886 0.918728 1.57688 0
M  V30 7078 C 649.937 3.54168 -0.72438 0
M  V30 7079 O 649.658 3.85359 -2.08399 0
M  V30 7080 C 651.159 4.41746 -0.370819 0
M  V30 7081 H 648.379 0.638037 -0.207726 0
M  V30 7082 H 650.923 1.6491 -1.20934 0
M  V30 7083 H 649.078 3.87261 -0.103607 0
M  V30 7084 H 649.492 4.80032 -2.11352 0
M  V30 7085 H 650.966 5.49256 -0.549693 0
M  V30 7086 H 651.443 4.33712 0.692148 0
M  V30 7087 H 652.049 4.14125 -0.968543 0
M  V30 7088 N 650.364 0.662433 1.43002 0
M  V30 7089 C 651.314 -0.0460442 2.27954 0
M  V30 7090 C 652.298 -0.785753 1.40409 0
M  V30 7091 O 653.49 -0.666701 1.63964 0
M  V30 7092 C 650.619 -1.00532 3.2825 0
M  V30 7093 C 649.705 -0.263604 4.2328 0
M  V30 7094 N 650.096 0.724855 5.00579 0
M  V30 7095 C 648.394 -0.503778 4.43146 0
M  V30 7096 C 649.095 1.16594 5.69895 0
M  V30 7097 N 648.071 0.498345 5.41311 0
M  V30 7098 H 651.873 0.712314 2.85137 0
M  V30 7099 H 649.387 0.490469 1.54817 0
M  V30 7100 H 651.384 -1.52775 3.87899 0
M  V30 7101 H 650.044 -1.76364 2.72628 0
M  V30 7102 H 651.055 1.10393 5.05998 0
M  V30 7103 H 647.732 -1.24255 3.98581 0
M  V30 7104 H 649.122 1.98434 6.4193 0
M  V30 7105 N 651.842 -1.52309 0.404946 0
M  V30 7106 C 653.067 -2.06666 -0.1743 0
M  V30 7107 C 653.492 -1.27341 -1.38441 0
M  V30 7108 O 652.85 -0.302539 -1.78758 0
M  V30 7109 C 652.898 -3.57014 -0.507262 0
M  V30 7110 O 652.002 -3.80144 -1.59889 0
M  V30 7111 H 651.343 -0.663807 -0.0160273 0
M  V30 7112 H 653.873 -1.96297 0.576937 0
M  V30 7113 H 653.883 -4.00724 -0.767098 0
M  V30 7114 H 652.558 -4.14184 0.377368 0
M  V30 7115 H 651.135 -3.48316 -1.33155 0
M  V30 7116 N 653.32 -0.135238 -1.57019 0
M  V30 7117 C 654.267 0.808908 -2.1616 0
M  V30 7118 C 655.237 1.25234 -1.09113 0
M  V30 7119 O 656.422 1.32697 -1.37099 0
M  V30 7120 C 653.562 2.04729 -2.77813 0
M  V30 7121 C 652.675 1.65074 -3.99218 0
M  V30 7122 C 651.81 2.84002 -4.48906 0
M  V30 7123 C 650.849 2.40663 -5.62803 0
M  V30 7124 N 649.986 3.5256 -6.07162 0
M  V30 7125 H 654.826 0.297751 -2.96509 0
M  V30 7126 H 652.363 0.135264 -1.46477 0
M  V30 7127 H 654.321 2.7731 -3.11697 0
M  V30 7128 H 652.951 2.53275 -2.00128 0
M  V30 7129 H 652.003 0.823029 -3.7139 0
M  V30 7130 H 653.315 1.29236 -4.81767 0
M  V30 7131 H 652.469 3.64788 -4.84783 0
M  V30 7132 H 651.208 3.23076 -3.65339 0
M  V30 7133 H 650.213 1.58314 -5.26514 0
M  V30 7134 H 651.438 2.02687 -6.48147 0
M  V30 7135 H 649.384 3.91278 -5.26534 0
M  V30 7136 H 649.301 3.20699 -6.84608 0
M  V30 7137 H 650.569 4.33738 -6.47682 0
M  V30 7138 N 654.798 1.5699 0.138552 0
M  V30 7139 C 656.047 1.82998 0.848205 0
M  V30 7140 C 656.36 0.717829 1.81952 0
M  V30 7141 O 657.566 0.863756 2.57394 0
M  V30 7142 C 656.022 3.24379 1.55904 0
M  V30 7143 C 655.63 4.43552 0.62971 0
M  V30 7144 C 657.374 3.59654 2.25498 0
M  V30 7145 C 655.281 5.75957 1.34266 0
M  V30 7146 H 654.211 0.682495 0.320495 0
M  V30 7147 H 656.862 1.83222 0.100924 0
M  V30 7148 H 655.244 3.18567 2.35226 0
M  V30 7149 H 656.418 4.6062 -0.128882 0
M  V30 7150 H 654.733 4.16379 0.0417526 0
M  V30 7151 H 657.33 4.55837 2.79493 0
M  V30 7152 H 657.673 2.86124 3.02388 0
M  V30 7153 H 658.206 3.67164 1.53087 0
M  V30 7154 H 654.945 6.52604 0.615441 0
M  V30 7155 H 654.465 5.62811 2.07375 0
M  V30 7156 H 656.144 6.19046 1.88126 0
M  V30 7157 N 656.276 -0.40816 1.52223 0
M  V30 7158 C 657.206 -1.5042 1.78595 0
M  V30 7159 C 658.187 -1.57723 0.636974 0
M  V30 7160 O 659.372 -1.72982 0.882664 0
M  V30 7161 C 656.502 -2.88232 1.93751 0
M  V30 7162 C 655.456 -2.95779 3.09352 0
M  V30 7163 C 654.782 -4.35855 3.09732 0
M  V30 7164 C 656.082 -2.67175 4.48793 0
M  V30 7165 H 657.776 -1.28601 2.70374 0
M  V30 7166 H 655.322 -0.617221 1.30101 0
M  V30 7167 H 657.275 -3.64895 2.10783 0
M  V30 7168 H 655.999 -3.11347 0.986443 0
M  V30 7169 H 654.658 -2.21561 2.92072 0
M  V30 7170 H 654.306 -4.55981 2.12346 0
M  V30 7171 H 654.006 -4.41829 3.87377 0
M  V30 7172 H 655.53 -5.14451 3.28895 0
M  V30 7173 H 656.944 -3.3356 4.66273 0
M  V30 7174 H 655.341 -2.84523 5.28362 0
M  V30 7175 H 656.411 -1.62609 4.56822 0
M  V30 7176 N 657.755 -1.42862 -0.66545 0
M  V30 7177 C 659.166 -1.3901 -1.24632 0
M  V30 7178 C 659.517 -0.0880285 -1.96002 0
M  V30 7179 O 658.642 0.812947 -2.0055 0
M  V30 7180 C 659.237 -2.51806 -2.2667 0
M  V30 7181 C 657.796 -2.51257 -2.80262 0
M  V30 7182 C 656.943 -2.30124 -1.5472 0
M  V30 7183 H 659.894 -1.5194 -0.458237 0
M  V30 7184 H 659.915 -2.22593 -3.08598 0
M  V30 7185 H 659.427 -3.46558 -1.74697 0
M  V30 7186 H 657.528 -1.60349 -3.36332 0
M  V30 7187 H 657.641 -3.48614 -3.28641 0
M  V30 7188 H 656.005 -1.7856 -1.81627 0
M  V30 7189 H 656.788 -3.26945 -1.04699 0
M  V30 7190 O 659.272 0.808226 -1.39821 0
M  V30 7191 H 659.963 1.45282 -1.28112 0
M  V30 END ATOM
M  V30 BEGIN BOND
M  V30 END BOND
M  V30 END CTAB
M  END
$$$$
