drugbank_target|O30527 Low calcium response locus protein V (DB05222)
 OpenBabel12092120103D

  0  0  0     0  0            999 V3000
M  V30 BEGIN CTAB
M  V30 COUNTS 4572 4609 0 0 0
M  V30 BEGIN ATOM
M  V30 1 H -0.908 1.98254 -0.117106 0
M  V30 2 N 0 1.576 0 0
M  V30 3 C 0.933 2.03868 1.02534 0
M  V30 4 C 1.911 0.928543 1.3348 0
M  V30 5 O 3.095 1.19667 1.45644 0
M  V30 6 C 0.222 2.43627 2.35294 0
M  V30 7 C -0.732 3.65373 2.2001 0
M  V30 8 S 0.101 5.13292 1.52614 0
M  V30 9 C 1.257 5.56322 2.86805 0
M  V30 10 H 1.49 2.90518 0.631377 0
M  V30 11 H -0.977 1.52953 0.210867 0
M  V30 12 H 0.981 2.67203 3.11629 0
M  V30 13 H -0.358 1.57376 2.7183 0
M  V30 14 H -1.165 3.90944 3.18086 0
M  V30 15 H -1.563 3.418 1.51819 0
M  V30 16 H 0.729 5.58782 3.83104 0
M  V30 17 H 1.672 6.56266 2.65933 0
M  V30 18 H 2.08 4.83886 2.90714 0
M  V30 19 N 1.4781 -0.272755 1.55222 0
M  V30 20 C 2.3881 -1.35918 1.91216 0
M  V30 21 C 3.4041 -1.54026 0.809436 0
M  V30 22 O 4.5801 -1.68148 1.10852 0
M  V30 23 C 1.6451 -2.69834 2.17693 0
M  V30 24 C 0.7061 -2.6047 3.41253 0
M  V30 25 C -0.0609 -3.88 3.66458 0
M  V30 26 O 0.1621 -4.88693 2.94169 0
M  V30 27 O -0.9039 -3.88189 4.59992 0
M  V30 28 H 2.9221 -1.0839 2.83699 0
M  V30 29 H 0.5071 -0.471301 1.41771 0
M  V30 30 H 2.3891 -3.49017 2.36147 0
M  V30 31 H 1.0641 -2.97148 1.28392 0
M  V30 32 H -0.0289 -1.79663 3.28134 0
M  V30 33 H 1.3041 -2.38106 4.30774 0
M  V30 34 N 2.9562 -1.48159 -0.537278 0
M  V30 35 C 4.2022 -1.56035 -1.29541 0
M  V30 36 C 4.5352 -0.230377 -1.92829 0
M  V30 37 O 3.8102 0.762952 -1.78911 0
M  V30 38 C 4.0932 -2.69323 -2.39034 0
M  V30 39 C 3.9462 -4.12002 -1.80485 0
M  V30 40 C 5.2652 -2.78408 -3.40847 0
M  V30 41 H 2.3842 -0.567992 -0.469632 0
M  V30 42 H 5.0262 -1.80302 -0.599277 0
M  V30 43 H 3.1762 -2.48763 -2.98412 0
M  V30 44 H 4.8482 -4.43981 -1.25215 0
M  V30 45 H 3.0912 -4.19344 -1.11055 0
M  V30 46 H 3.7622 -4.87077 -2.59731 0
M  V30 47 H 6.2382 -2.97012 -2.91416 0
M  V30 48 H 5.1142 -3.59416 -4.14863 0
M  V30 49 H 5.3752 -1.86269 -4.00944 0
M  V30 50 N 4.4343 0.785586 -1.36625 0
M  V30 51 C 5.8503 1.08419 -1.17122 0
M  V30 52 C 6.0503 2.015 0.00208491 0
M  V30 53 O 5.1063 2.43551 0.666278 0
M  V30 54 C 6.4193 1.69498 -2.48377 0
M  V30 55 C 7.9673 1.81821 -2.54775 0
M  V30 56 C 8.4423 2.46315 -3.86126 0
M  V30 57 N 9.9333 2.53779 -3.87492 0
M  V30 58 C 10.6683 3.045 -4.85868 0
M  V30 59 N 10.1643 3.55499 -5.94637 0
M  V30 60 N 11.9573 3.03247 -4.73284 0
M  V30 61 H 4.1083 0.167264 -2.1174 0
M  V30 62 H 6.3713 0.13682 -0.938075 0
M  V30 63 H 6.0773 1.08571 -3.34522 0
M  V30 64 H 5.9513 2.6896 -2.64462 0
M  V30 65 H 8.3383 2.41884 -1.69045 0
M  V30 66 H 8.4193 0.811532 -2.42586 0
M  V30 67 H 8.0633 1.86895 -4.72263 0
M  V30 68 H 7.9933 3.47561 -3.95612 0
M  V30 69 H 10.4843 2.17672 -3.08913 0
M  V30 70 H 10.7973 3.92562 -6.65669 0
M  V30 71 H 9.1423 3.5364 -5.98301 0
M  V30 72 H 12.3333 2.62696 -3.87438 0
M  V30 73 H 12.5063 3.42467 -5.50109 0
M  V30 74 N 5.9124 1.20967 1.01018 0
M  V30 75 C 6.8604 0.961223 2.1181 0
M  V30 76 C 7.8544 -0.0897034 1.69162 0
M  V30 77 O 9.0604 0.0612271 1.79896 0
M  V30 78 H 5.4354 0.29355 0.692338 0
M  V30 79 H 7.4064 1.90178 2.29946 0
M  V30 80 C 6.1554 0.536854 3.4353 0
M  V30 81 H 5.4784 1.33713 3.76777 0
M  V30 82 H 6.9184 0.402286 4.22087 0
M  V30 83 C 5.3774 -0.751574 3.2841 0
M  V30 84 O 5.9074 -1.80841 3.58691 0
M  V30 85 N 4.1134 -0.716079 2.81639 0
M  V30 86 H 3.6604 0.144236 2.57196 0
M  V30 87 H 3.6184 -1.57847 2.71904 0
M  V30 88 N 7.3905 -1.2043 1.01659 0
M  V30 89 C 8.3205 -2.25466 0.607226 0
M  V30 90 C 9.3015 -1.65853 -0.377716 0
M  V30 91 O 10.4865 -1.92409 -0.263149 0
M  V30 92 C 7.6165 -3.47256 -0.0552949 0
M  V30 93 C 6.5705 -4.19462 0.850632 0
M  V30 94 C 5.8965 -5.34673 0.0538859 0
M  V30 95 C 7.1965 -4.75603 2.15868 0
M  V30 96 H 8.8905 -2.59962 1.48526 0
M  V30 97 H 6.4365 -1.2496 0.715605 0
M  V30 98 H 8.3895 -4.19917 -0.353233 0
M  V30 99 H 7.1135 -3.11924 -0.968045 0
M  V30 100 H 5.7725 -3.48667 1.13257 0
M  V30 101 H 5.4205 -4.95585 -0.860514 0
M  V30 102 H 5.1205 -5.83913 0.657192 0
M  V30 103 H 6.6445 -6.10138 -0.237598 0
M  V30 104 H 8.0585 -5.40083 1.92311 0
M  V30 105 H 6.4555 -5.3528 2.71284 0
M  V30 106 H 7.5255 -3.94346 2.82169 0
M  V30 107 N 8.8686 -0.792821 -1.36206 0
M  V30 108 C 9.8166 -0.181555 -2.3189 0
M  V30 109 C 10.8106 0.661025 -1.55971 0
M  V30 110 O 12.0166 0.555728 -1.71206 0
M  V30 111 H 8.3916 -0.0399382 -0.750939 0
M  V30 112 H 10.3626 -1.00394 -2.81005 0
M  V30 113 C 9.1116 0.666444 -3.41253 0
M  V30 114 H 8.4346 0.0274489 -3.99791 0
M  V30 115 H 9.8746 1.06076 -4.10517 0
M  V30 116 C 8.3336 1.82614 -2.83114 0
M  V30 117 O 8.8636 2.9229 -2.75553 0
M  V30 118 N 7.0696 1.63333 -2.40356 0
M  V30 119 H 6.6166 0.741217 -2.46706 0
M  V30 120 H 6.5746 2.41087 -2.01803 0
M  V30 121 N 10.3467 1.47872 -0.545128 0
M  V30 122 C 11.3097 2.28337 0.198717 0
M  V30 123 C 12.3097 1.36255 0.853888 0
M  V30 124 O 13.4997 1.59003 0.711606 0
M  V30 125 C 10.6317 3.15585 1.28915 0
M  V30 126 H 11.8247 2.95567 -0.507941 0
M  V30 127 H 9.3777 1.53362 -0.301616 0
M  V30 128 H 10.1127 2.53019 2.02859 0
M  V30 129 H 9.8977 3.83337 0.824309 0
M  V30 130 H 11.3877 3.76243 1.81194 0
M  V30 131 N 11.8248 0.280983 1.55075 0
M  V30 132 C 12.7878 -0.590896 2.21452 0
M  V30 133 C 13.7878 -1.07682 1.19421 0
M  V30 134 O 14.9778 -0.97605 1.44288 0
M  V30 135 C 12.1098 -1.81587 2.88511 0
M  V30 136 H 13.3028 -0.0112554 2.99898 0
M  V30 137 H 10.8558 0.0316438 1.56268 0
M  V30 138 H 11.5908 -2.43587 2.14093 0
M  V30 139 H 11.3758 -1.4753 3.63287 0
M  V30 140 H 12.8658 -2.43575 3.39206 0
M  V30 141 N 13.3029 -1.57598 0.00835791 0
M  V30 142 C 14.7189 -1.55764 -0.347822 0
M  V30 143 C 14.9189 -1.01186 -1.74252 0
M  V30 144 O 13.9749 -0.649371 -2.44007 0
M  V30 145 C 15.2879 -2.99927 -0.215407 0
M  V30 146 C 16.8359 -3.11656 -0.289725 0
M  V30 147 C 17.3109 -4.57621 -0.18634 0
M  V30 148 N 18.8019 -4.62557 -0.243978 0
M  V30 149 C 19.5369 -5.73094 -0.18745 0
M  V30 150 N 19.0329 -6.92753 -0.0810331 0
M  V30 151 N 20.8259 -5.61588 -0.239925 0
M  V30 152 H 12.9769 -1.91411 0.92062 0
M  V30 153 H 15.2399 -0.879562 0.353659 0
M  V30 154 H 14.9459 -3.43729 0.744512 0
M  V30 155 H 14.8199 -3.63865 -0.994097 0
M  V30 156 H 17.2069 -2.67779 -1.24009 0
M  V30 157 H 17.2879 -2.5048 0.51898 0
M  V30 158 H 16.9319 -5.02174 0.760519 0
M  V30 159 H 16.8619 -5.16752 -1.01364 0
M  V30 160 H 19.3529 -3.76481 -0.327217 0
M  V30 161 H 19.6659 -7.72787 -0.0440241 0
M  V30 162 H 18.0109 -6.94984 -0.0465419 0
M  V30 163 H 21.2019 -4.66996 -0.321317 0
M  V30 164 H 21.3749 -6.47714 -0.192407 0
M  V30 165 N 14.781 0.264519 -1.55364 0
M  V30 166 C 15.691 1.34902 -1.91934 0
M  V30 167 C 16.707 1.53595 -0.817593 0
M  V30 168 O 17.883 1.67558 -1.11742 0
M  V30 169 C 14.948 2.68676 -2.19121 0
M  V30 170 C 14.009 2.58657 -3.4263 0
M  V30 171 C 13.242 3.86051 -3.68511 0
M  V30 172 O 13.465 4.87126 -2.96757 0
M  V30 173 O 12.399 3.85744 -4.62045 0
M  V30 174 H 16.225 1.06883 -2.8427 0
M  V30 175 H 13.81 0.463775 -1.42019 0
M  V30 176 H 15.692 3.47759 -2.37995 0
M  V30 177 H 14.367 2.96463 -1.29966 0
M  V30 178 H 13.274 1.7792 -3.29082 0
M  V30 179 H 14.607 2.35818 -4.32031 0
M  V30 180 N 16.2591 1.48442 0.529413 0
M  V30 181 C 17.1891 1.65902 1.64313 0
M  V30 182 C 18.1701 0.507897 1.6234 0
M  V30 183 O 19.3551 0.740503 1.79528 0
M  V30 184 C 16.4851 1.69911 3.02898 0
M  V30 185 C 15.4391 2.8453 3.19729 0
M  V30 186 C 14.7651 2.73629 4.59381 0
M  V30 187 C 16.0651 4.25821 3.02447 0
M  V30 188 H 17.7591 2.5914 1.49955 0
M  V30 189 H 15.3051 1.24709 0.719982 0
M  V30 190 H 17.2581 1.80715 3.80684 0
M  V30 191 H 15.9821 0.732524 3.18279 0
M  V30 192 H 14.6411 2.73283 2.44361 0
M  V30 193 H 14.2891 1.74938 4.71599 0
M  V30 194 H 13.9891 3.50541 4.71588 0
M  V30 195 H 15.5131 2.86401 5.39265 0
M  V30 196 H 16.9271 4.37898 3.70024 0
M  V30 197 H 15.3241 5.03735 3.26146 0
M  V30 198 H 16.3941 4.42244 1.98867 0
M  V30 199 N 17.7372 -0.778329 1.37039 0
M  V30 200 C 18.9842 -1.53665 1.31884 0
M  V30 201 C 19.3122 -1.9425 -0.0986303 0
M  V30 202 O 18.5672 -1.63832 -1.07041 0
M  V30 203 C 18.8662 -2.81845 2.19768 0
M  V30 204 C 18.5322 -2.60345 3.68146 0
M  V30 205 C 17.1942 -2.5419 4.08584 0
M  V30 206 C 19.5462 -2.40923 4.62175 0
M  V30 207 C 16.8742 -2.26594 5.41177 0
M  V30 208 C 19.2262 -2.14852 5.94997 0
M  V30 209 C 17.8902 -2.07137 6.34547 0
M  V30 210 H 17.1602 -0.562299 0.482598 0
M  V30 211 H 19.8072 -0.897069 1.69189 0
M  V30 212 H 18.1122 -3.50328 1.75436 0
M  V30 213 H 19.8092 -3.39692 2.13097 0
M  V30 214 H 16.3992 -2.65996 3.36072 0
M  V30 215 H 20.5832 -2.44673 4.31797 0
M  V30 216 H 15.8392 -2.19111 5.70789 0
M  V30 217 H 20.0132 -1.98822 6.67415 0
M  V30 218 H 17.6402 -1.85518 7.37216 0
M  V30 219 N 19.2153 -1.21501 -1.00376 0
M  V30 220 C 20.1453 -0.999478 -2.11028 0
M  V30 221 C 21.1263 0.0759671 -1.6993 0
M  V30 222 O 22.3113 -0.0841106 -1.94018 0
M  V30 223 C 19.4413 -0.564709 -3.42678 0
M  V30 224 C 18.3953 -1.58486 -3.97576 0
M  V30 225 C 17.7213 -1.00628 -5.25146 0
M  V30 226 C 19.0213 -2.97204 -4.29496 0
M  V30 227 H 20.7153 -1.92495 -2.29317 0
M  V30 228 H 18.2613 -0.92693 -1.102 0
M  V30 229 H 20.2143 -0.401091 -4.19487 0
M  V30 230 H 18.9383 0.396411 -3.24185 0
M  V30 231 H 17.5973 -1.73606 -3.22888 0
M  V30 232 H 17.2453 -0.0368439 -5.02987 0
M  V30 233 H 16.9453 -1.68771 -5.62841 0
M  V30 234 H 18.4693 -0.854015 -6.04598 0
M  V30 235 H 19.8833 -2.8552 -4.97143 0
M  V30 236 H 18.2803 -3.62372 -4.78338 0
M  V30 237 H 19.3503 -3.47956 -3.3772 0
M  V30 238 N 20.6934 1.19889 -1.02296 0
M  V30 239 C 21.9704 1.85148 -0.630832 0
M  V30 240 C 22.3504 1.91385 0.890782 0
M  V30 241 O 21.6984 1.42642 1.78509 0
M  V30 242 C 21.9084 3.24442 -1.28602 0
M  V30 243 C 23.2564 4.00663 -1.4055 0
M  V30 244 O 24.2804 3.33818 -1.24273 0
M  V30 245 O 23.1394 5.20387 -1.66913 0
M  V30 246 H 20.2334 0.797613 -0.218499 0
M  V30 247 H 22.7794 1.27427 -1.12074 0
M  V30 248 H 21.5514 3.14704 -2.32545 0
M  V30 249 H 21.1744 3.89802 -0.7836 0
M  V30 250 N 22.1715 0.800033 1.35784 0
M  V30 251 C 23.0815 0.207204 2.33683 0
M  V30 252 C 24.0975 -0.64631 1.61551 0
M  V30 253 O 25.2735 -0.559604 1.93469 0
M  V30 254 C 22.3385 -0.639659 3.40748 0
M  V30 255 C 21.3995 0.233585 4.28664 0
M  V30 256 C 20.6325 -0.572954 5.30616 0
M  V30 257 O 20.8555 -1.80816 5.40982 0
M  V30 258 O 19.7895 0.0327285 6.01891 0
M  V30 259 H 23.6155 1.01692 2.86169 0
M  V30 260 H 21.2005 0.561691 1.38439 0
M  V30 261 H 23.0825 -1.12223 4.06182 0
M  V30 262 H 21.7575 -1.42708 2.90544 0
M  V30 263 H 20.6645 0.763147 3.66233 0
M  V30 264 H 21.9975 0.984784 4.82248 0
M  V30 265 N 23.6496 -1.47581 0.552962 0
M  V30 266 C 24.5796 -2.32762 -0.185451 0
M  V30 267 C 25.5606 -1.43527 -0.912905 0
M  V30 268 O 26.7456 -1.72388 -0.894201 0
M  V30 269 C 23.8756 -3.25219 -1.21859 0
M  V30 270 C 22.8296 -4.23661 -0.607864 0
M  V30 271 C 22.1556 -5.05413 -1.74533 0
M  V30 272 C 23.4556 -5.20481 0.435582 0
M  V30 273 H 25.1496 -2.94749 0.525684 0
M  V30 274 H 22.6956 -1.41738 0.254251 0
M  V30 275 H 24.6486 -3.8365 -1.7433 0
M  V30 276 H 23.3726 -2.61279 -1.95961 0
M  V30 277 H 22.0316 -3.66451 -0.104489 0
M  V30 278 H 21.6796 -4.3788 -2.47529 0
M  V30 279 H 21.3796 -5.72059 -1.34249 0
M  V30 280 H 22.9036 -5.66701 -2.27338 0
M  V30 281 H 24.3176 -5.733 -0.00290157 0
M  V30 282 H 22.7146 -5.95305 0.757067 0
M  V30 283 H 23.7846 -4.66217 1.33303 0
M  V30 284 N 25.1277 -0.289203 -1.54924 0
M  V30 285 C 26.0577 0.58549 -2.2604 0
M  V30 286 C 27.0387 1.14753 -1.25562 0
M  V30 287 O 28.2237 1.17906 -1.54311 0
M  V30 288 C 25.3537 1.76305 -2.99222 0
M  V30 289 C 24.3077 1.33191 -4.06748 0
M  V30 290 C 23.6337 2.5937 -4.6758 0
M  V30 291 C 24.9337 0.471775 -5.20165 0
M  V30 292 H 26.6277 -0.00763532 -2.99399 0
M  V30 293 H 24.1737 -0.00511229 -1.43999 0
M  V30 294 H 26.1267 2.38097 -3.47689 0
M  V30 295 H 24.8507 2.38223 -2.23422 0
M  V30 296 H 23.5097 0.737121 -3.59113 0
M  V30 297 H 23.1577 3.19576 -3.88433 0
M  V30 298 H 22.8577 2.31228 -5.40192 0
M  V30 299 H 24.3817 3.21985 -5.18804 0
M  V30 300 H 25.7957 0.995056 -5.64599 0
M  V30 301 H 24.1927 0.284639 -5.99425 0
M  V30 302 H 25.2627 -0.506041 -4.82252 0
M  V30 303 N 26.6058 1.57591 -0.0167156 0
M  V30 304 C 27.5688 2.08393 0.954204 0
M  V30 305 C 28.5688 0.996531 1.26198 0
M  V30 306 O 29.7588 1.25858 1.20438 0
M  V30 307 C 26.8908 2.5394 2.27436 0
M  V30 308 H 28.0838 2.95455 0.514451 0
M  V30 309 H 25.6368 1.54582 0.231089 0
M  V30 310 H 26.3718 1.70171 2.76066 0
M  V30 311 H 26.1568 3.33371 2.06412 0
M  V30 312 H 27.6468 2.93512 2.97053 0
M  V30 313 N 28.0839 -0.256276 1.55502 0
M  V30 314 C 29.0469 -1.30047 1.88734 0
M  V30 315 C 30.0469 -1.4154 0.763086 0
M  V30 316 O 31.2369 -1.40403 1.03115 0
M  V30 317 C 28.3689 -2.67953 2.10747 0
M  V30 318 H 29.5619 -1.01802 2.82093 0
M  V30 319 H 27.1149 -0.495134 1.4825 0
M  V30 320 H 27.8499 -3.01351 1.19825 0
M  V30 321 H 27.6349 -2.60993 2.92617 0
M  V30 322 H 29.1249 -3.43368 2.37673 0
M  V30 323 N 29.562 -1.4872 -0.521534 0
M  V30 324 C 30.787 -1.61101 -1.30618 0
M  V30 325 C 31.212 -0.274611 -1.86085 0
M  V30 326 O 30.57 0.754937 -1.64834 0
M  V30 327 C 30.618 -2.66709 -2.4269 0
M  V30 328 O 29.722 -2.24456 -3.45967 0
M  V30 329 H 29.063 -0.539921 -0.386499 0
M  V30 330 H 31.593 -1.94767 -0.626645 0
M  V30 331 H 31.603 -2.88245 -2.88754 0
M  V30 332 H 30.278 -3.63727 -2.01682 0
M  V30 333 H 28.855 -2.13168 -3.05964 0
M  V30 334 N 31.0401 0.771051 -1.3745 0
M  V30 335 C 32.0031 1.86598 -1.33093 0
M  V30 336 C 33.0031 1.59076 -0.234845 0
M  V30 337 O 34.1931 1.67145 -0.490732 0
M  V30 338 C 31.3251 3.23747 -1.06773 0
M  V30 339 H 32.5181 1.91873 -2.30488 0
M  V30 340 H 30.0711 0.970876 -1.2249 0
M  V30 341 H 30.8061 3.24148 -0.099129 0
M  V30 342 H 30.5911 3.45115 -1.86112 0
M  V30 343 H 32.0811 4.03824 -1.06377 0
M  V30 344 N 32.5182 1.22032 0.997298 0
M  V30 345 C 33.4812 0.987909 2.06816 0
M  V30 346 C 34.4812 -0.0440084 1.6074 0
M  V30 347 O 35.6712 0.194053 1.73116 0
M  V30 348 C 32.8032 0.49132 3.37341 0
M  V30 349 H 33.9962 1.93803 2.28868 0
M  V30 350 H 31.5492 1.03838 1.16822 0
M  V30 351 H 32.2842 -0.463364 3.20973 0
M  V30 352 H 32.0692 1.23575 3.72118 0
M  V30 353 H 33.5592 0.348824 4.16141 0
M  V30 354 N 33.9963 -1.19345 1.0293 0
M  V30 355 C 35.4073 -1.70725 0.755633 0
M  V30 356 C 35.7583 -1.82326 -0.724676 0
M  V30 357 O 34.8833 -1.49471 -1.56484 0
M  V30 358 C 35.4783 -3.10084 1.36503 0
M  V30 359 C 34.0373 -3.58723 1.13994 0
M  V30 360 C 33.1843 -2.35577 1.46283 0
M  V30 361 H 36.1353 -1.0418 1.19718 0
M  V30 362 H 36.1563 -3.72787 0.762217 0
M  V30 363 H 35.6683 -3.01609 2.44241 0
M  V30 364 H 33.7693 -3.72512 0.0807901 0
M  V30 365 H 33.8823 -4.42816 1.82894 0
M  V30 366 H 32.2463 -2.38935 0.88217 0
M  V30 367 H 33.0293 -2.29731 2.55105 0
M  V30 368 N 35.4744 -0.807222 -1.35358 0
M  V30 369 C 36.4374 -0.223665 -2.28106 0
M  V30 370 C 37.4374 0.589354 -1.4961 0
M  V30 371 O 38.6274 0.407745 -1.69361 0
M  V30 372 C 35.7594 0.688149 -3.33882 0
M  V30 373 H 36.9524 -1.04169 -2.81227 0
M  V30 374 H 34.5054 -0.577921 -1.45223 0
M  V30 375 H 35.2404 1.52984 -2.85948 0
M  V30 376 H 35.0254 0.10687 -3.91954 0
M  V30 377 H 36.5154 1.09075 -4.03104 0
M  V30 378 N 36.9525 1.47285 -0.560781 0
M  V30 379 C 38.1775 2.07359 -0.0410566 0
M  V30 380 C 38.6025 1.41017 1.24483 0
M  V30 381 O 37.9605 0.486368 1.74654 0
M  V30 382 C 38.0085 3.6035 0.134123 0
M  V30 383 O 37.1125 3.94681 1.19587 0
M  V30 384 H 36.4535 0.661887 -0.0529291 0
M  V30 385 H 38.9835 1.89252 -0.777482 0
M  V30 386 H 38.9935 4.0652 0.347207 0
M  V30 387 H 37.6685 4.08034 -0.805047 0
M  V30 388 H 36.2455 3.60251 0.962987 0
M  V30 389 N 38.4306 0.297415 1.54768 0
M  V30 390 C 39.3936 -0.567375 2.22066 0
M  V30 391 C 40.3936 -1.06409 1.20556 0
M  V30 392 O 41.5836 -0.960691 1.45315 0
M  V30 393 C 38.7156 -1.78517 2.90421 0
M  V30 394 H 39.9086 0.0205534 2.99893 0
M  V30 395 H 37.4616 0.0482163 1.56226 0
M  V30 396 H 38.1966 -2.41303 2.16664 0
M  V30 397 H 37.9816 -1.43669 3.64831 0
M  V30 398 H 39.4716 -2.39964 3.41771 0
M  V30 399 N 39.9087 -1.5758 0.0250728 0
M  V30 400 C 40.8187 -2.1343 -0.973905 0
M  V30 401 C 41.8347 -1.08556 -1.35984 0
M  V30 402 O 43.0107 -1.40592 -1.44207 0
M  V30 403 C 40.0757 -2.64703 -2.23904 0
M  V30 404 C 39.1367 -3.84276 -1.91391 0
M  V30 405 C 38.3697 -4.33095 -3.11873 0
M  V30 406 O 38.5927 -3.81107 -4.24398 0
M  V30 407 O 37.5267 -5.24984 -2.94406 0
M  V30 408 H 41.3527 -2.99057 -0.529036 0
M  V30 409 H 38.9377 -1.48118 -0.195288 0
M  V30 410 H 40.8197 -2.97769 -2.98181 0
M  V30 411 H 39.4947 -1.82161 -2.6758 0
M  V30 412 H 38.4017 -3.56143 -1.14511 0
M  V30 413 H 39.7347 -4.67968 -1.52534 0
M  V30 414 N 41.3868 0.248026 -1.55636 0
M  V30 415 C 42.3188 1.32993 -1.8667 0
M  V30 416 C 43.3318 1.44345 -0.752877 0
M  V30 417 O 44.5208 1.45715 -1.03098 0
M  V30 418 C 41.6208 2.70863 -2.03682 0
M  V30 419 C 40.7938 2.81792 -3.34532 0
M  V30 420 C 39.8528 4.005 -3.41301 0
M  V30 421 O 38.8788 3.9008 -4.14519 0
M  V30 422 N 40.0808 5.13618 -2.70512 0
M  V30 423 H 42.8458 1.06707 -2.8006 0
M  V30 424 H 40.4068 0.438129 -1.55859 0
M  V30 425 H 42.3988 3.48612 -2.05553 0
M  V30 426 H 40.9688 2.89862 -1.17041 0
M  V30 427 H 40.1888 1.90729 -3.44987 0
M  V30 428 H 41.4768 2.86043 -4.20781 0
M  V30 429 H 40.8748 5.24975 -2.10755 0
M  V30 430 H 39.4318 5.89505 -2.78077 0
M  V30 431 N 42.8649 1.48995 0.513639 0
M  V30 432 C 43.7749 1.67443 1.64317 0
M  V30 433 C 44.7909 0.556947 1.64846 0
M  V30 434 O 45.9669 0.830082 1.83498 0
M  V30 435 C 43.0319 1.72515 3.00732 0
M  V30 436 C 42.0929 2.96009 3.1093 0
M  V30 437 C 41.3259 3.00829 4.40837 0
M  V30 438 O 41.5489 2.13594 5.28898 0
M  V30 439 O 40.4829 3.93168 4.55744 0
M  V30 440 H 44.3089 2.63106 1.51687 0
M  V30 441 H 41.8939 1.32588 0.688543 0
M  V30 442 H 43.7759 1.78277 3.81831 0
M  V30 443 H 42.4509 0.800278 3.13651 0
M  V30 444 H 41.3579 2.9577 2.29065 0
M  V30 445 H 42.6909 3.87934 3.02933 0
M  V30 446 N 44.343 -0.763751 1.37857 0
M  V30 447 C 45.253 -1.90817 1.36478 0
M  V30 448 C 46.269 -1.71997 0.263248 0
M  V30 449 O 47.445 -1.95095 0.499979 0
M  V30 450 C 44.51 -3.2605 1.17864 0
M  V30 451 C 43.571 -3.57467 2.3773 0
M  V30 452 C 42.804 -4.86249 2.19995 0
M  V30 453 O 43.027 -5.57884 1.18836 0
M  V30 454 O 41.961 -5.16911 3.08361 0
M  V30 455 H 45.787 -1.94933 2.32884 0
M  V30 456 H 43.372 -0.907619 1.1867 0
M  V30 457 H 45.254 -4.06924 1.09504 0
M  V30 458 H 43.929 -3.22769 0.245372 0
M  V30 459 H 42.836 -2.76796 2.51664 0
M  V30 460 H 44.169 -3.655 3.29652 0
M  V30 461 N 45.8211 -1.22559 -0.990812 0
M  V30 462 C 46.7511 -1.0218 -2.09956 0
M  V30 463 C 47.7321 0.0579394 -1.70001 0
M  V30 464 O 48.9171 -0.104684 -1.93918 0
M  V30 465 C 46.0471 -0.601023 -3.4206 0
M  V30 466 C 45.0011 -1.62694 -3.95872 0
M  V30 467 C 44.3271 -1.06193 -5.24049 0
M  V30 468 C 45.6271 -3.01743 -4.2632 0
M  V30 469 H 47.3211 -1.94916 -2.27262 0
M  V30 470 H 44.8671 -0.938566 -1.09211 0
M  V30 471 H 46.8201 -0.445561 -4.19038 0
M  V30 472 H 45.5441 0.362005 -3.24588 0
M  V30 473 H 44.2031 -1.77021 -3.21028 0
M  V30 474 H 43.8511 -0.0901903 -5.02919 0
M  V30 475 H 43.5511 -1.74732 -5.61019 0
M  V30 476 H 45.0751 -0.918092 -6.03658 0
M  V30 477 H 46.4891 -2.90777 -4.94087 0
M  V30 478 H 44.8861 -3.67425 -4.74467 0
M  V30 479 H 45.9561 -3.51518 -3.34011 0
M  V30 480 N 47.2992 1.18797 -1.03562 0
M  V30 481 C 48.2292 2.24472 -0.643019 0
M  V30 482 C 49.2102 1.66433 0.351283 0
M  V30 483 O 50.3952 1.92803 0.232505 0
M  V30 484 C 47.5252 3.473 4.24935e-05 0
M  V30 485 C 46.4792 4.18055 -0.917257 0
M  V30 486 C 45.8052 5.34519 -0.138941 0
M  V30 487 C 47.1052 4.72109 -2.23407 0
M  V30 488 H 48.7992 2.57566 -1.52643 0
M  V30 489 H 46.3452 1.23806 -0.735394 0
M  V30 490 H 48.2982 4.20426 0.286383 0
M  V30 491 H 47.0222 3.13424 0.918299 0
M  V30 492 H 45.6812 3.46821 -1.1879 0
M  V30 493 H 45.3292 4.96891 0.781562 0
M  V30 494 H 45.0292 5.82794 -0.750005 0
M  V30 495 H 46.5532 6.10438 0.1405 0
M  V30 496 H 47.9672 5.36955 -2.00879 0
M  V30 497 H 46.3642 5.30897 -2.79765 0
M  V30 498 H 47.4342 3.89807 -2.88407 0
M  V30 499 N 48.7773 0.814389 1.34928 0
M  V30 500 C 49.7403 0.235759 2.27984 0
M  V30 501 C 50.7403 -0.581412 1.49921 0
M  V30 502 O 51.9303 -0.398758 1.69575 0
M  V30 503 C 49.0623 -0.670433 3.34242 0
M  V30 504 H 50.2553 1.05659 2.80671 0
M  V30 505 H 47.8083 0.585614 1.44915 0
M  V30 506 H 48.5433 -1.51466 2.86755 0
M  V30 507 H 48.3283 -0.0860822 3.92005 0
M  V30 508 H 49.8183 -1.06935 4.03676 0
M  V30 509 N 50.2554 -1.46986 0.568584 0
M  V30 510 C 51.1854 -2.32946 -0.160753 0
M  V30 511 C 52.1664 -1.44487 -0.897631 0
M  V30 512 O 53.3514 -1.73327 -0.875867 0
M  V30 513 C 50.4814 -3.26494 -1.18403 0
M  V30 514 C 49.4354 -4.24282 -0.562895 0
M  V30 515 C 48.7614 -5.07236 -1.69163 0
M  V30 516 C 50.0614 -5.19989 0.490761 0
M  V30 517 H 51.7554 -2.94175 0.556916 0
M  V30 518 H 49.3014 -1.4146 0.26927 0
M  V30 519 H 51.2544 -3.85477 -1.70251 0
M  V30 520 H 49.9784 -2.63343 -1.93179 0
M  V30 521 H 48.6374 -3.66541 -0.0656164 0
M  V30 522 H 48.2854 -4.4048 -2.42871 0
M  V30 523 H 47.9854 -5.7345 -1.28174 0
M  V30 524 H 49.5094 -5.6908 -2.21314 0
M  V30 525 H 50.9234 -5.73271 0.0579047 0
M  V30 526 H 49.3204 -5.94469 0.820165 0
M  V30 527 H 50.3904 -4.64777 1.3824 0
M  V30 528 N 51.7335 -0.305618 -1.54608 0
M  V30 529 C 52.6635 0.561482 -2.26649 0
M  V30 530 C 53.6445 1.13415 -1.26772 0
M  V30 531 O 54.8295 1.16262 -1.55553 0
M  V30 532 C 51.9595 1.73122 -3.01075 0
M  V30 533 C 50.9135 1.2887 -4.08138 0
M  V30 534 C 50.2395 2.54396 -4.70305 0
M  V30 535 C 51.5395 0.416578 -5.20636 0
M  V30 536 H 53.2335 -0.0393902 -2.99374 0
M  V30 537 H 50.7795 -0.020385 -1.43986 0
M  V30 538 H 52.7325 2.34396 -3.50195 0
M  V30 539 H 51.4565 2.3584 -2.25936 0
M  V30 540 H 50.1155 0.698991 -3.59875 0
M  V30 541 H 49.7635 3.15439 -3.918 0
M  V30 542 H 49.4635 2.25486 -5.42614 0
M  V30 543 H 50.9875 3.16464 -5.2219 0
M  V30 544 H 52.4015 0.935116 -5.65622 0
M  V30 545 H 50.7985 0.221046 -5.99693 0
M  V30 546 H 51.8685 -0.557162 -4.81688 0
M  V30 547 N 53.2116 1.57565 -0.0334293 0
M  V30 548 C 54.6276 1.56297 0.322997 0
M  V30 549 C 54.8276 1.03945 1.7262 0
M  V30 550 O 53.8836 0.688109 2.42943 0
M  V30 551 C 55.1966 3.00232 0.167664 0
M  V30 552 C 56.7446 3.12078 0.240107 0
M  V30 553 C 57.2196 4.57859 0.113513 0
M  V30 554 N 58.7106 4.62887 0.170359 0
M  V30 555 C 59.4456 5.73319 0.0962517 0
M  V30 556 N 58.9416 6.92794 -0.0291881 0
M  V30 557 N 60.7346 5.61898 0.150551 0
M  V30 558 H 52.8856 1.89923 -0.950956 0
M  V30 559 H 55.1486 0.873824 -0.367608 0
M  V30 560 H 54.8546 3.42501 -0.799102 0
M  V30 561 H 54.7286 3.654 0.936083 0
M  V30 562 H 57.1156 2.69718 1.19733 0
M  V30 563 H 57.1966 2.49623 -0.558763 0
M  V30 564 H 56.8406 5.009 -0.840314 0
M  V30 565 H 56.7706 5.18299 0.931302 0
M  V30 566 H 59.2616 3.76954 0.26728 0
M  V30 567 H 59.5746 7.7276 -0.0789252 0
M  V30 568 H 57.9196 6.94971 -0.0640299 0
M  V30 569 H 61.1106 4.67448 0.246981 0
M  V30 570 H 61.2836 6.47938 0.0893365 0
M  V30 571 N 54.6897 -0.239769 1.55765 0
M  V30 572 C 55.9147 -0.988373 1.82335 0
M  V30 573 C 56.3397 -1.77886 0.611421 0
M  V30 574 O 55.6977 -1.75889 -0.439639 0
M  V30 575 C 55.7457 -1.89627 3.06715 0
M  V30 576 O 54.8497 -2.98904 2.84131 0
M  V30 577 H 54.1907 -0.280858 0.601677 0
M  V30 578 H 56.7207 -0.258597 2.02959 0
M  V30 579 H 56.7307 -2.30957 3.36338 0
M  V30 580 H 55.4057 -1.31511 3.9456 0
M  V30 581 H 53.9827 -2.61651 2.65694 0
M  V30 582 N 56.1678 -1.49265 -0.50573 0
M  V30 583 C 57.0778 -1.68312 -1.63427 0
M  V30 584 C 58.0938 -0.565682 -1.64548 0
M  V30 585 O 59.2698 -0.839801 -1.83055 0
M  V30 586 C 56.3348 -1.74107 -2.99813 0
M  V30 587 C 55.3958 -2.97653 -3.09356 0
M  V30 588 C 54.6288 -3.03163 -4.39236 0
M  V30 589 O 54.8518 -2.16396 -5.27758 0
M  V30 590 O 53.7858 -3.9558 -4.53652 0
M  V30 591 H 57.6118 -2.63907 -1.50289 0
M  V30 592 H 55.1968 -1.32951 -0.681502 0
M  V30 593 H 57.0788 -1.803 -3.80881 0
M  V30 594 H 55.7538 -0.816901 -3.13223 0
M  V30 595 H 54.6608 -2.96981 -2.27493 0
M  V30 596 H 55.9938 -3.89535 -3.00871 0
M  V30 597 N 57.6459 0.756429 -1.3826 0
M  V30 598 C 59.0619 1.0591 -1.19395 0
M  V30 599 C 59.2619 2.01459 -0.0406567 0
M  V30 600 O 58.3179 2.44909 0.614467 0
M  V30 601 C 59.6309 1.64191 -2.51916 0
M  V30 602 C 61.1789 1.76376 -2.58574 0
M  V30 603 C 61.6539 2.38069 -3.91264 0
M  V30 604 N 63.1449 2.45503 -3.92788 0
M  V30 605 C 63.8799 2.94126 -4.92217 0
M  V30 606 N 63.3759 3.42805 -6.02043 0
M  V30 607 N 65.1689 2.9314 -4.7961 0
M  V30 608 H 57.3199 0.122313 -2.12048 0
M  V30 609 H 59.5829 0.116892 -0.940766 0
M  V30 610 H 59.2889 1.01451 -3.3675 0
M  V30 611 H 59.1629 2.6329 -2.70108 0
M  V30 612 H 61.5499 2.38244 -1.74137 0
M  V30 613 H 61.6309 0.759894 -2.44252 0
M  V30 614 H 61.2749 1.76835 -4.76121 0
M  V30 615 H 61.2049 3.39091 -4.02895 0
M  V30 616 H 63.6959 2.1107 -3.13461 0
M  V30 617 H 64.0089 3.78354 -6.73846 0
M  V30 618 H 62.3539 3.4087 -6.05667 0
M  V30 619 H 65.5449 2.54419 -3.92923 0
M  V30 620 H 65.7179 3.30721 -5.5725 0
M  V30 621 N 59.124 1.23083 0.984299 0
M  V30 622 C 60.373 1.05466 1.71929 0
M  V30 623 C 60.686 -0.409211 1.91272 0
M  V30 624 O 61.892 -0.705226 2.62181 0
M  V30 625 C 60.348 1.83874 3.09384 0
M  V30 626 C 59.956 3.34566 2.97943 0
M  V30 627 C 61.7 1.74734 3.8687 0
M  V30 628 C 59.607 4.05381 4.30605 0
M  V30 629 H 58.537 0.391039 0.644674 0
M  V30 630 H 61.188 1.47013 1.09815 0
M  V30 631 H 59.57 1.35131 3.72231 0
M  V30 632 H 60.744 3.90767 2.44209 0
M  V30 633 H 59.059 3.44476 2.33934 0
M  V30 634 H 61.656 2.24957 4.85076 0
M  V30 635 H 61.999 0.709372 4.10212 0
M  V30 636 H 62.532 2.21067 3.30717 0
M  V30 637 H 59.271 5.09467 4.1246 0
M  V30 638 H 58.791 3.53967 4.84218 0
M  V30 639 H 60.47 4.11458 4.99311 0
M  V30 640 N 60.6021 -1.18246 1.0419 0
M  V30 641 C 61.8481 -1.88536 0.747122 0
M  V30 642 C 62.1811 -1.80223 -0.723409 0
M  V30 643 O 61.4561 -1.20337 -1.52804 0
M  V30 644 C 61.7391 -3.38968 1.21544 0
M  V30 645 C 61.5921 -3.56084 2.74816 0
M  V30 646 C 62.9111 -4.32648 0.806482 0
M  V30 647 H 60.0301 -0.684619 0.272883 0
M  V30 648 H 62.6721 -1.39113 1.29413 0
M  V30 649 H 60.8221 -3.8119 0.750081 0
M  V30 650 H 62.4941 -3.22946 3.29399 0
M  V30 651 H 60.7371 -2.98699 3.14582 0
M  V30 652 H 61.4081 -4.61639 3.02644 0
M  V30 653 H 63.8841 -3.98211 1.20695 0
M  V30 654 H 62.7601 -5.36462 1.1619 0
M  V30 655 H 63.0211 -4.41146 -0.29029 0
M  V30 656 N 62.0802 -0.821533 -1.34494 0
M  V30 657 C 63.0102 -0.257138 -2.3208 0
M  V30 658 C 63.9912 0.625645 -1.58176 0
M  V30 659 O 65.1762 0.552811 -1.86166 0
M  V30 660 C 62.3062 0.582958 -3.42372 0
M  V30 661 C 61.2602 -0.202571 -4.2752 0
M  V30 662 C 60.5862 0.760179 -5.29269 0
M  V30 663 C 61.8862 -1.40998 -5.02908 0
M  V30 664 H 63.5802 -1.07247 -2.79532 0
M  V30 665 H 61.1262 -0.517163 -1.34393 0
M  V30 666 H 63.0792 0.987972 -4.09655 0
M  V30 667 H 61.8032 1.43133 -2.93565 0
M  V30 668 H 60.4622 -0.588936 -3.61838 0
M  V30 669 H 60.1102 1.60447 -4.76724 0
M  V30 670 H 59.8102 0.238809 -5.87115 0
M  V30 671 H 61.3342 1.16308 -5.9942 0
M  V30 672 H 62.7482 -1.07905 -5.63054 0
M  V30 673 H 61.1452 -1.86689 -5.70322 0
M  V30 674 H 62.2152 -2.1889 -4.32684 0
M  V30 675 N 63.5583 1.46682 -0.576371 0
M  V30 676 C 64.5213 2.28707 0.150239 0
M  V30 677 C 65.5213 1.38035 0.824794 0
M  V30 678 O 66.7113 1.60476 0.677719 0
M  V30 679 C 63.8433 3.18248 1.22192 0
M  V30 680 H 65.0363 2.94423 -0.570521 0
M  V30 681 H 62.5893 1.52688 -0.334078 0
M  V30 682 H 63.3243 2.57265 1.97447 0
M  V30 683 H 63.1093 3.85 0.742812 0
M  V30 684 H 64.5993 3.80001 1.73172 0
M  V30 685 N 65.0364 0.313813 1.54444 0
M  V30 686 C 65.9864 -0.571898 2.20711 0
M  V30 687 C 66.9704 -1.08913 1.18435 0
M  V30 688 O 68.1624 -1.02777 1.44104 0
M  V30 689 C 65.2914 -1.7371 2.96108 0
M  V30 690 C 64.3774 -1.23522 4.05713 0
M  V30 691 N 64.7684 -0.452288 5.03774 0
M  V30 692 C 63.0664 -1.51482 4.19487 0
M  V30 693 C 63.7674 -0.183438 5.81411 0
M  V30 694 N 62.7434 -0.766845 5.38164 0
M  V30 695 H 66.5454 0.0336802 2.93881 0
M  V30 696 H 64.0594 0.119192 1.61962 0
M  V30 697 H 66.0564 -2.38329 3.4206 0
M  V30 698 H 64.7164 -2.34625 2.24458 0
M  V30 699 H 65.7274 -0.0960131 5.17811 0
M  V30 700 H 62.4044 -2.13053 3.59047 0
M  V30 701 H 63.7944 0.446216 6.70417 0
M  V30 702 N 66.5145 -1.57545 0.0417849 0
M  V30 703 C 67.4775 -2.09885 -0.92093 0
M  V30 704 C 68.4775 -1.01648 -1.24596 0
M  V30 705 O 69.6675 -1.27759 -1.1842 0
M  V30 706 C 66.7995 -2.57527 -2.23367 0
M  V30 707 H 67.9925 -2.96236 -0.467382 0
M  V30 708 H 65.5455 -1.5493 -0.206467 0
M  V30 709 H 66.2805 -1.74542 -2.73323 0
M  V30 710 H 66.0655 -3.36613 -2.01083 0
M  V30 711 H 67.5555 -2.98201 -2.92346 0
M  V30 712 N 67.9926 0.231505 -1.5589 0
M  V30 713 C 69.2406 0.955461 -1.78088 0
M  V30 714 C 69.5616 1.85262 -0.608533 0
M  V30 715 O 68.8316 1.92277 0.375035 0
M  V30 716 H 67.4116 0.355787 -0.656829 0
M  V30 717 H 70.0736 0.245751 -1.93344 0
M  V30 718 H 69.1696 1.56814 -2.69844 0
M  V30 719 N 69.4707 1.49531 0.497807 0
M  V30 720 C 70.4027 1.62559 1.61578 0
M  V30 721 C 71.4157 0.508134 1.54667 0
M  V30 722 O 72.6047 0.780309 1.60541 0
M  V30 723 C 69.7047 1.56925 3.00379 0
M  V30 724 C 68.8777 2.84257 3.3244 0
M  V30 725 C 67.9367 2.71632 4.50669 0
M  V30 726 O 66.9627 3.4557 4.52294 0
M  V30 727 N 68.1647 1.83391 5.5077 0
M  V30 728 H 70.9297 2.58981 1.50828 0
M  V30 729 H 68.4907 1.4666 0.685743 0
M  V30 730 H 70.4827 1.46129 3.77397 0
M  V30 731 H 69.0527 0.683483 3.05037 0
M  V30 732 H 68.2727 3.09381 2.44289 0
M  V30 733 H 69.5607 3.68666 3.5066 0
M  V30 734 H 68.9587 1.22583 5.52259 0
M  V30 735 H 67.5157 1.78515 6.26878 0
M  V30 736 N 70.9488 -0.749086 1.3866 0
M  V30 737 C 72.3598 -1.32664 1.31366 0
M  V30 738 C 72.7108 -1.96179 -0.028484 0
M  V30 739 O 71.8358 -1.9537 -0.93057 0
M  V30 740 C 72.4308 -2.41219 2.37905 0
M  V30 741 C 70.9898 -2.94684 2.34176 0
M  V30 742 C 70.1368 -1.68108 2.20533 0
M  V30 743 H 73.0878 -0.547628 1.48952 0
M  V30 744 H 73.1088 -3.21268 2.0388 0
M  V30 745 H 72.6208 -1.94962 3.35576 0
M  V30 746 H 70.7218 -3.45258 1.401 0
M  V30 747 H 70.8348 -3.48757 3.2849 0
M  V30 748 H 69.1988 -1.91907 1.67463 0
M  V30 749 H 69.9818 -1.23923 3.20153 0
M  V30 750 N 72.4269 -1.23603 -0.977757 0
M  V30 751 C 73.3569 -1.04401 -2.0886 0
M  V30 752 C 74.3379 0.0399052 -1.70053 0
M  V30 753 O 75.5229 -0.125246 -1.93796 0
M  V30 754 C 72.6529 -0.637269 -3.41403 0
M  V30 755 C 71.6069 -1.66883 -3.94124 0
M  V30 756 C 70.9329 -1.11745 -5.22893 0
M  V30 757 C 72.2329 -3.06247 -4.23096 0
M  V30 758 H 73.9269 -1.97316 -2.25182 0
M  V30 759 H 71.4729 -0.950096 -1.08209 0
M  V30 760 H 73.4259 -0.48998 -4.18542 0
M  V30 761 H 72.1499 0.327557 -3.24953 0
M  V30 762 H 70.8089 -1.80416 -3.19133 0
M  V30 763 H 70.4569 -0.143527 -5.02795 0
M  V30 764 H 70.1569 -1.80672 -5.59134 0
M  V30 765 H 71.6809 -0.982067 -6.02651 0
M  V30 766 H 73.0949 -2.96001 -4.90975 0
M  V30 767 H 71.4919 -3.72436 -4.70544 0
M  V30 768 H 72.5619 -3.55041 -3.30263 0
M  V30 769 N 73.905 1.17692 -1.04816 0
M  V30 770 C 75.13 1.92327 -0.776207 0
M  V30 771 C 75.555 1.76082 0.661581 0
M  V30 772 O 74.913 1.076 1.45917 0
M  V30 773 C 74.961 3.41539 -1.15687 0
M  V30 774 O 74.065 4.11402 -0.286775 0
M  V30 775 H 73.406 0.599735 -0.284981 0
M  V30 776 H 75.936 1.49201 -1.4 0
M  V30 777 H 75.946 3.92269 -1.12202 0
M  V30 778 H 74.621 3.52684 -2.20425 0
M  V30 779 H 73.198 3.70939 -0.381903 0
M  V30 780 N 75.3831 0.828654 1.34056 0
M  V30 781 C 76.2931 0.256725 2.33191 0
M  V30 782 C 77.3091 -0.611898 1.62886 0
M  V30 783 O 78.4851 -0.51844 1.94613 0
M  V30 784 C 75.5501 -0.567238 3.42028 0
M  V30 785 C 74.6111 0.324458 4.28072 0
M  V30 786 C 73.8441 -0.460274 5.31712 0
M  V30 787 O 74.0671 -1.693 5.44696 0
M  V30 788 O 73.0011 0.160391 6.01686 0
M  V30 789 H 76.8271 1.07739 2.83947 0
M  V30 790 H 74.4121 0.59093 1.37217 0
M  V30 791 H 76.2941 -1.03582 4.08471 0
M  V30 792 H 74.9691 -1.36513 2.93506 0
M  V30 793 H 73.8761 0.840659 3.64532 0
M  V30 794 H 75.2091 1.08685 4.8005 0
M  V30 795 N 76.8612 -1.46375 0.584142 0
M  V30 796 C 77.8242 -2.28784 -0.138108 0
M  V30 797 C 78.8242 -1.38471 -0.817462 0
M  V30 798 O 80.0142 -1.60833 -0.669199 0
M  V30 799 C 77.1462 -3.18892 -1.20503 0
M  V30 800 H 78.3392 -2.94117 0.586127 0
M  V30 801 H 75.8922 -1.52509 0.342171 0
M  V30 802 H 76.6272 -2.58309 -1.96079 0
M  V30 803 H 76.4122 -3.85388 -0.722384 0
M  V30 804 H 77.9022 -3.80914 -1.71155 0
M  V30 805 N 78.3393 -0.321999 -1.54275 0
M  V30 806 C 79.2713 0.578671 -2.21775 0
M  V30 807 C 80.2843 1.08109 -1.21722 0
M  V30 808 O 81.4733 0.994938 -1.482 0
M  V30 809 C 78.5733 1.80661 -2.86731 0
M  V30 810 C 77.7463 1.44314 -4.12907 0
M  V30 811 C 76.8053 2.52845 -4.61472 0
M  V30 812 O 75.8313 2.17054 -5.2619 0
M  V30 813 N 77.0333 3.83748 -4.35566 0
M  V30 814 H 79.7983 0.000709447 -2.997 0
M  V30 815 H 77.3593 -0.145132 -1.61248 0
M  V30 816 H 79.3513 2.52655 -3.16145 0
M  V30 817 H 77.9213 2.29245 -2.12521 0
M  V30 818 H 77.1413 0.554906 -3.90275 0
M  V30 819 H 78.4293 1.17598 -4.95023 0
M  V30 820 H 77.8273 4.15625 -3.83761 0
M  V30 821 H 76.3843 4.51977 -4.69638 0
M  V30 822 N 79.8174 1.5752 -0.0501392 0
M  V30 823 C 81.0634 1.92936 0.624798 0
M  V30 824 C 81.3964 0.928685 1.70555 0
M  V30 825 O 80.6714 -0.0454779 1.94447 0
M  V30 826 C 80.9544 3.38737 1.22185 0
M  V30 827 C 80.8074 4.49552 0.149218 0
M  V30 828 C 82.1264 3.84913 2.13378 0
M  V30 829 H 79.2454 0.701604 0.225657 0
M  V30 830 H 81.8874 1.89671 -0.111693 0
M  V30 831 H 80.0374 3.4165 1.84953 0
M  V30 832 H 81.7094 4.58768 -0.482648 0
M  V30 833 H 79.9524 4.30638 -0.522841 0
M  V30 834 H 80.6234 5.48653 0.606966 0
M  V30 835 H 83.0994 3.8387 1.60572 0
M  V30 836 H 81.9754 4.87584 2.52097 0
M  V30 837 H 82.2364 3.21611 3.03346 0
M  V30 838 N 81.2955 -0.223234 1.56011 0
M  V30 839 C 82.2255 -1.27988 1.95298 0
M  V30 840 C 83.2065 -1.48976 0.820979 0
M  V30 841 O 84.3915 -1.61188 1.08315 0
M  V30 842 C 81.5215 -2.63 2.26822 0
M  V30 843 C 80.4755 -2.56671 3.42497 0
M  V30 844 C 79.8015 -3.95697 3.59622 0
M  V30 845 C 81.1015 -2.11601 4.77517 0
M  V30 846 H 82.7955 -0.953525 2.8381 0
M  V30 847 H 80.3415 -0.457244 1.36548 0
M  V30 848 H 82.2945 -3.37077 2.52898 0
M  V30 849 H 81.0185 -2.9732 1.35161 0
M  V30 850 H 79.6775 -1.85051 3.16467 0
M  V30 851 H 79.3255 -4.27322 2.6534 0
M  V30 852 H 79.0255 -3.92345 4.37424 0
M  V30 853 H 80.5495 -4.71438 3.88044 0
M  V30 854 H 81.9635 -2.7542 5.02809 0
M  V30 855 H 80.3605 -2.19311 5.5859 0
M  V30 856 H 81.4305 -1.06824 4.72987 0
M  V30 857 N 82.7736 -1.49793 -0.48987 0
M  V30 858 C 83.7206 -1.67281 -1.59014 0
M  V30 859 C 84.6906 -0.514177 -1.57941 0
M  V30 860 O 85.8756 -0.742533 -1.75759 0
M  V30 861 C 83.0156 -1.75569 -2.97102 0
M  V30 862 C 82.1286 -3.0281 -3.08107 0
M  V30 863 C 81.2636 -3.02008 -4.36995 0
M  V30 864 C 80.3026 -4.23782 -4.41673 0
M  V30 865 N 79.4396 -4.20826 -5.62005 0
M  V30 866 H 84.2796 -2.61224 -1.43409 0
M  V30 867 H 81.8166 -1.29508 -0.697565 0
M  V30 868 H 83.7746 -1.78354 -3.77155 0
M  V30 869 H 82.4046 -0.850827 -3.11385 0
M  V30 870 H 81.4566 -3.09584 -2.21047 0
M  V30 871 H 82.7686 -3.92801 -3.07423 0
M  V30 872 H 81.9226 -3.03418 -5.25378 0
M  V30 873 H 80.6616 -2.09815 -4.4026 0
M  V30 874 H 79.6666 -4.22604 -3.5169 0
M  V30 875 H 80.8916 -5.17181 -4.40115 0
M  V30 876 H 78.8376 -3.31476 -5.66091 0
M  V30 877 H 78.7546 -5.04564 -5.62984 0
M  V30 878 H 80.0226 -4.26355 -6.52565 0
M  V30 879 N 84.2517 0.741722 -1.39055 0
M  V30 880 C 85.2147 1.83733 -1.37021 0
M  V30 881 C 86.2147 1.58542 -0.268534 0
M  V30 882 O 87.4047 1.66067 -0.526076 0
M  V30 883 C 84.5367 3.2141 -1.13617 0
M  V30 884 H 85.7297 1.86941 -2.34506 0
M  V30 885 H 83.2827 0.944676 -1.24521 0
M  V30 886 H 84.0177 3.23865 -0.167863 0
M  V30 887 H 83.8027 3.4109 -1.93391 0
M  V30 888 H 85.2927 4.01477 -1.14918 0
M  V30 889 N 85.7298 1.2412 0.971189 0
M  V30 890 C 86.6598 1.05508 2.08304 0
M  V30 891 C 87.6408 -0.0308864 1.70072 0
M  V30 892 O 88.8258 0.135521 1.93727 0
M  V30 893 C 85.9558 0.655365 3.4106 0
M  V30 894 C 84.9098 1.68971 3.93234 0
M  V30 895 C 84.2358 1.14516 5.22293 0
M  V30 896 C 85.5358 3.08487 4.21465 0
M  V30 897 H 87.2298 1.98507 2.24132 0
M  V30 898 H 84.7758 0.955821 1.07704 0
M  V30 899 H 86.7288 0.51217 4.18276 0
M  V30 900 H 85.4528 -0.31032 3.25122 0
M  V30 901 H 84.1118 1.82106 3.18171 0
M  V30 902 H 83.7598 0.170189 5.02712 0
M  V30 903 H 83.4598 1.83635 5.58168 0
M  V30 904 H 84.9838 1.01401 6.02121 0
M  V30 905 H 86.3978 2.98601 4.89398 0
M  V30 906 H 84.7948 3.74926 4.68562 0
M  V30 907 H 85.8648 3.56787 3.28376 0
M  V30 908 N 87.2079 -1.17134 1.05439 0
M  V30 909 C 88.1709 -2.19439 0.661764 0
M  V30 910 C 89.1709 -1.58199 -0.288042 0
M  V30 911 O 90.3609 -1.74053 -0.0715803 0
M  V30 912 C 87.4929 -3.40889 -0.0276209 0
M  V30 913 H 88.6859 -2.55688 1.56728 0
M  V30 914 H 86.2389 -1.31259 0.848567 0
M  V30 915 H 86.9739 -3.10187 -0.94629 0
M  V30 916 H 86.7589 -3.86586 0.655238 0
M  V30 917 H 88.2489 -4.16603 -0.288342 0
M  V30 918 N 88.686 -0.835752 -1.33615 0
M  V30 919 C 89.932 -0.439817 -1.98588 0
M  V30 920 C 90.287 0.989274 -1.65019 0
M  V30 921 O 89.58 1.68168 -0.918159 0
M  V30 922 C 89.774 -0.593925 -3.52431 0
M  V30 923 C 89.603 -2.03644 -4.00948 0
M  V30 924 C 88.373 -2.67103 -4.28934 0
M  V30 925 C 90.571 -3.00479 -4.17393 0
M  V30 926 N 88.553 -4.02462 -4.6357 0
M  V30 927 C 89.924 -4.20777 -4.55353 0
M  V30 928 C 91.979 -2.96926 -3.99674 0
M  V30 929 C 90.682 -5.37994 -4.77447 0
M  V30 930 C 92.708 -4.1337 -4.22941 0
M  V30 931 C 92.07 -5.32422 -4.61201 0
M  V30 932 H 88.169 -0.209303 -0.75347 0
M  V30 933 H 90.753 -1.08316 -1.61789 0
M  V30 934 H 88.924 0.019599 -3.88395 0
M  V30 935 H 90.656 -0.169738 -4.04344 0
M  V30 936 H 87.411 -2.18259 -4.20309 0
M  V30 937 H 87.835 -4.72232 -4.85104 0
M  V30 938 H 92.477 -2.06015 -3.69212 0
M  V30 939 H 90.195 -6.29451 -5.06771 0
M  V30 940 H 93.781 -4.12034 -4.10754 0
M  V30 941 H 92.661 -6.21027 -4.78848 0
M  V30 942 N 90.1641 1.46063 -0.591896 0
M  V30 943 C 91.0941 2.33172 0.123673 0
M  V30 944 C 92.0751 1.45897 0.87453 0
M  V30 945 O 93.2601 1.74698 0.848181 0
M  V30 946 C 90.3901 3.28336 1.13194 0
M  V30 947 C 89.3441 4.25124 0.495324 0
M  V30 948 C 88.6701 5.09863 1.61071 0
M  V30 949 C 89.9701 5.19143 -0.573425 0
M  V30 950 H 91.6641 2.93252 -0.603646 0
M  V30 951 H 89.2101 1.41014 -0.291741 0
M  V30 952 H 91.1631 3.88137 1.64097 0
M  V30 953 H 89.8871 2.66383 1.88965 0
M  V30 954 H 88.5461 3.66599 0.00729452 0
M  V30 955 H 88.1941 4.44288 2.35832 0
M  V30 956 H 87.8941 5.75417 1.19035 0
M  V30 957 H 89.4181 5.72529 2.12233 0
M  V30 958 H 90.8321 5.73106 -0.1491 0
M  V30 959 H 89.2291 5.93089 -0.914636 0
M  V30 960 H 90.2991 4.62519 -1.45617 0
M  V30 961 N 91.6422 0.330177 1.54103 0
M  V30 962 C 92.5722 -0.525353 2.27513 0
M  V30 963 C 93.5532 -1.11383 1.2856 0
M  V30 964 O 94.7382 -1.13773 1.57383 0
M  V30 965 C 91.8682 -1.6831 3.03791 0
M  V30 966 C 90.8222 -1.2236 4.10137 0
M  V30 967 C 90.1482 -2.46882 4.74293 0
M  V30 968 C 91.4482 -0.333697 5.21233 0
M  V30 969 H 93.1422 0.087013 2.99274 0
M  V30 970 H 90.6882 0.0432893 1.43935 0
M  V30 971 H 92.6412 -2.28795 3.5388 0
M  V30 972 H 91.3652 -2.32216 2.29659 0
M  V30 973 H 90.0242 -0.64165 3.60941 0
M  V30 974 H 89.6722 -3.09165 3.96769 0
M  V30 975 H 89.3722 -2.16825 5.46133 0
M  V30 976 H 90.8962 -3.08117 5.27159 0
M  V30 977 H 92.3102 -0.845013 5.67038 0
M  V30 978 H 90.7072 -0.125612 5.99969 0
M  V30 979 H 91.7772 0.633724 4.80741 0
M  V30 980 N 93.1203 -1.57491 0.0584922 0
M  V30 981 C 94.0833 -2.1085 -0.898617 0
M  V30 982 C 95.0833 -1.02964 -1.23511 0
M  V30 983 O 96.2733 -1.29007 -1.17059 0
M  V30 984 C 93.4053 -2.59881 -2.20623 0
M  V30 985 H 94.5983 -2.96715 -0.435936 0
M  V30 986 H 92.1513 -1.55141 -0.190023 0
M  V30 987 H 92.8863 -1.77431 -2.71457 0
M  V30 988 H 92.6713 -3.38727 -1.97501 0
M  V30 989 H 94.1613 -3.01285 -2.89166 0
M  V30 990 N 94.5984 0.214957 -1.56127 0
M  V30 991 C 95.5614 1.24997 -1.92116 0
M  V30 992 C 96.5614 1.39467 -0.800344 0
M  V30 993 O 97.7514 1.37619 -1.06802 0
M  V30 994 C 94.8834 2.62271 -2.17777 0
M  V30 995 H 96.0764 0.942875 -2.84693 0
M  V30 996 H 93.6294 0.455654 -1.49511 0
M  V30 997 H 94.3644 2.98068 -1.27773 0
M  V30 998 H 94.1494 2.53143 -2.99434 0
M  V30 999 H 95.6394 3.36946 -2.46693 0
M  V30 1000 N 96.0765 1.50051 0.48192 0
M  V30 1001 C 97.0245 1.68635 1.60203 0
M  V30 1002 C 98.0185 0.552184 1.60148 0
M  V30 1003 O 99.2245 0.732377 1.64427 0
M  V30 1004 H 95.5995 0.532081 0.531407 0
M  V30 1005 H 97.5705 2.62616 1.41688 0
M  V30 1006 C 96.3195 1.78775 2.9822 0
M  V30 1007 H 95.6425 2.6543 2.98976 0
M  V30 1008 H 97.0825 1.95806 3.7608 0
M  V30 1009 C 95.5415 0.536849 3.32595 0
M  V30 1010 O 96.0715 -0.328897 4.00351 0
M  V30 1011 N 94.2775 0.394091 2.87915 0
M  V30 1012 H 93.8245 1.09962 2.32951 0
M  V30 1013 H 93.7825 -0.441737 3.11281 0
M  V30 1014 N 97.5546 -0.734337 1.39446 0
M  V30 1015 C 98.9656 -1.31264 1.32766 0
M  V30 1016 C 99.3166 -1.96198 -0.00767497 0
M  V30 1017 O 98.4416 -1.96346 -0.909796 0
M  V30 1018 C 99.0366 -2.38682 2.4045 0
M  V30 1019 C 97.5956 -2.92184 2.37288 0
M  V30 1020 C 96.7426 -1.6576 2.22304 0
M  V30 1021 H 99.6936 -0.531799 1.49525 0
M  V30 1022 H 99.7146 -3.19087 2.07276 0
M  V30 1023 H 99.2266 -1.91392 3.37625 0
M  V30 1024 H 97.3276 -3.43752 1.43754 0
M  V30 1025 H 97.4406 -3.45253 3.3217 0
M  V30 1026 H 95.8046 -1.9012 1.69489 0
M  V30 1027 H 96.5876 -1.20521 3.21449 0
M  V30 1028 N 99.0327 -1.24633 -0.964593 0
M  V30 1029 C 100.258 -1.11596 -1.74818 0
M  V30 1030 C 100.683 0.32723 -1.85232 0
M  V30 1031 O 100.041 1.23695 -1.32549 0
M  V30 1032 C 100.089 -1.76397 -3.1451 0
M  V30 1033 O 99.1927 -1.03685 -3.99153 0
M  V30 1034 H 98.5337 -0.390196 -0.537255 0
M  V30 1035 H 101.064 -1.65002 -1.20977 0
M  V30 1036 H 101.074 -1.8228 -3.65018 0
M  V30 1037 H 99.7487 -2.81401 -3.06246 0
M  V30 1038 H 98.3257 -1.05611 -3.57632 0
M  V30 1039 N 100.511 1.16574 -1.06058 0
M  V30 1040 C 101.474 2.19085 -0.673392 0
M  V30 1041 C 102.474 1.5835 0.279648 0
M  V30 1042 O 103.664 1.74088 0.0623488 0
M  V30 1043 C 100.796 3.40899 0.00954234 0
M  V30 1044 H 101.989 2.54853 -1.58081 0
M  V30 1045 H 99.5418 1.30808 -0.855516 0
M  V30 1046 H 100.277 3.10684 0.929826 0
M  V30 1047 H 100.062 3.86233 -0.67573 0
M  V30 1048 H 101.552 4.1675 0.266245 0
M  V30 1049 N 101.989 0.842826 1.3317 0
M  V30 1050 C 103.4 0.496651 1.79973 0
M  V30 1051 C 103.751 -0.984641 1.69703 0
M  V30 1052 O 102.876 -1.76743 1.24863 0
M  V30 1053 C 103.471 0.894727 3.26772 0
M  V30 1054 C 102.03 0.600629 3.71577 0
M  V30 1055 C 101.177 1.10091 2.5451 0
M  V30 1056 H 104.128 1.03116 1.20635 0
M  V30 1057 H 104.149 0.206347 3.7994 0
M  V30 1058 H 103.661 1.97287 3.34215 0
M  V30 1059 H 101.762 -0.467284 3.69658 0
M  V30 1060 H 101.875 1.15863 4.64879 0
M  V30 1061 H 100.239 0.52162 2.49301 0
M  V30 1062 H 101.022 2.18591 2.64713 0
M  V30 1063 N 103.467 -1.45747 0.599634 0
M  V30 1064 C 104.878 -1.85853 0.177681 0
M  V30 1065 C 105.229 -1.50102 -1.26348 0
M  V30 1066 O 104.354 -0.923905 -1.95686 0
M  V30 1067 C 104.949 -3.37326 0.315688 0
M  V30 1068 C 103.508 -3.76365 -0.0515144 0
M  V30 1069 C 102.655 -2.69722 0.643822 0
M  V30 1070 H 105.606 -1.36661 0.806814 0
M  V30 1071 H 105.627 -3.77778 -0.454321 0
M  V30 1072 H 105.139 -3.63315 1.36468 0
M  V30 1073 H 103.24 -3.55993 -1.09999 0
M  V30 1074 H 103.353 -4.77916 0.336594 0
M  V30 1075 H 101.717 -2.54567 0.0822881 0
M  V30 1076 H 102.5 -2.98549 1.6948 0
M  V30 1077 N 104.945 -0.338344 -1.53925 0
M  V30 1078 C 106.193 0.259245 -2.0043 0
M  V30 1079 C 106.514 1.51484 -1.22791 0
M  V30 1080 O 105.784 1.93037 -0.33368 0
M  V30 1081 H 104.364 0.0987845 -0.740439 0
M  V30 1082 H 107.026 -0.458302 -1.89435 0
M  V30 1083 H 106.122 0.505334 -3.07982 0
M  V30 1084 N 106.423 1.57458 -0.0668435 0
M  V30 1085 C 107.355 2.09413 0.931601 0
M  V30 1086 C 108.368 1.02522 1.26464 0
M  V30 1087 O 109.557 1.30049 1.22269 0
M  V30 1088 C 106.657 2.53537 2.24882 0
M  V30 1089 C 105.83 3.83944 2.09537 0
M  V30 1090 C 104.889 4.14214 3.2452 0
M  V30 1091 O 103.915 4.83891 2.9973 0
M  V30 1092 N 105.117 3.67367 4.49469 0
M  V30 1093 H 107.882 2.95699 0.488048 0
M  V30 1094 H 105.443 1.61462 0.119009 0
M  V30 1095 H 107.435 2.70853 3.00701 0
M  V30 1096 H 106.005 1.72415 2.60753 0
M  V30 1097 H 105.225 3.76057 1.18215 0
M  V30 1098 H 106.513 4.69312 1.96529 0
M  V30 1099 H 105.911 3.11068 4.72497 0
M  V30 1100 H 104.468 3.89891 5.2233 0
M  V30 1101 N 107.901 -0.206675 1.56239 0
M  V30 1102 C 109.149 -0.927007 1.79586 0
M  V30 1103 C 109.47 -1.8427 0.637929 0
M  V30 1104 O 108.74 -1.92849 -0.344398 0
M  V30 1105 H 107.32 -0.345292 0.662407 0
M  V30 1106 H 109.982 -0.21496 1.93711 0
M  V30 1107 H 109.078 -1.52501 2.72305 0
M  V30 1108 N 109.379 -1.50304 -0.473955 0
M  V30 1109 C 110.309 -1.71886 -1.58042 0
M  V30 1110 C 111.29 -0.567799 -1.60344 0
M  V30 1111 O 112.475 -0.806623 -1.76656 0
M  V30 1112 C 109.605 -1.81036 -2.96384 0
M  V30 1113 C 108.559 -2.962 -3.08949 0
M  V30 1114 C 107.885 -2.9049 -4.48909 0
M  V30 1115 C 109.185 -4.36752 -2.86434 0
M  V30 1116 H 110.879 -2.64527 -1.40234 0
M  V30 1117 H 108.425 -1.27295 -0.673201 0
M  V30 1118 H 110.378 -1.94719 -3.73714 0
M  V30 1119 H 109.102 -0.850147 -3.15341 0
M  V30 1120 H 107.761 -2.82164 -2.3405 0
M  V30 1121 H 107.409 -1.92321 -4.64781 0
M  V30 1122 H 107.109 -3.67802 -4.58253 0
M  V30 1123 H 108.633 -3.06218 -5.28264 0
M  V30 1124 H 110.047 -4.5133 -3.53517 0
M  V30 1125 H 108.444 -5.15493 -3.07225 0
M  V30 1126 H 109.514 -4.49321 -1.82316 0
M  V30 1127 N 110.857 0.726932 -1.39834 0
M  V30 1128 C 111.767 1.87131 -1.41489 0
M  V30 1129 C 112.783 1.71239 -0.308757 0
M  V30 1130 O 113.959 1.93701 -0.551529 0
M  V30 1131 C 111.024 3.22811 -1.26468 0
M  V30 1132 C 110.085 3.51039 -2.47124 0
M  V30 1133 C 109.318 4.80245 -2.3281 0
M  V30 1134 O 109.541 5.54537 -1.33585 0
M  V30 1135 O 108.475 5.08554 -3.21957 0
M  V30 1136 H 112.301 1.8869 -2.3797 0
M  V30 1137 H 109.886 0.875837 -1.21035 0
M  V30 1138 H 111.768 4.03877 -1.20255 0
M  V30 1139 H 110.443 3.22005 -0.330862 0
M  V30 1140 H 109.35 2.70027 -2.58914 0
M  V30 1141 H 110.683 3.56632 -3.39227 0
M  V30 1142 N 112.336 1.25143 0.95797 0
M  V30 1143 C 113.582 1.09855 1.70469 0
M  V30 1144 C 113.915 -0.360187 1.90831 0
M  V30 1145 O 113.19 -1.26568 1.47685 0
M  V30 1146 C 113.473 1.8497 3.08963 0
M  V30 1147 C 113.326 3.38652 2.96032 0
M  V30 1148 C 114.645 1.63016 4.08795 0
M  V30 1149 H 111.764 0.400465 0.618706 0
M  V30 1150 H 114.406 1.53933 1.11376 0
M  V30 1151 H 112.556 1.47505 3.59409 0
M  V30 1152 H 114.228 3.85772 2.52938 0
M  V30 1153 H 112.471 3.66534 2.32025 0
M  V30 1154 H 113.142 3.8642 3.94187 0
M  V30 1155 H 115.618 1.95625 3.67247 0
M  V30 1156 H 114.494 2.18015 5.03747 0
M  V30 1157 H 114.755 0.570692 4.38401 0
M  V30 1158 N 113.814 -1.1601 1.06675 0
M  V30 1159 C 114.744 -2.22688 0.702307 0
M  V30 1160 C 115.725 -1.67306 -0.307032 0
M  V30 1161 O 116.91 -1.93352 -0.181305 0
M  V30 1162 C 114.04 -3.47178 0.092038 0
M  V30 1163 C 112.994 -4.15477 1.02777 0
M  V30 1164 C 112.32 -5.33963 0.28061 0
M  V30 1165 C 113.62 -4.66019 2.35846 0
M  V30 1166 H 115.314 -2.53429 1.59419 0
M  V30 1167 H 112.86 -1.21813 0.767961 0
M  V30 1168 H 114.813 -4.21037 -0.174814 0
M  V30 1169 H 113.537 -3.15749 -0.834877 0
M  V30 1170 H 112.196 -3.43549 1.27944 0
M  V30 1171 H 111.844 -4.98788 -0.649545 0
M  V30 1172 H 111.544 -5.806 0.904258 0
M  V30 1173 H 113.068 -6.10596 0.021396 0
M  V30 1174 H 114.482 -5.3144 2.15045 0
M  V30 1175 H 112.879 -5.23293 2.93743 0
M  V30 1176 H 113.949 -3.82023 2.98641 0
M  V30 1177 N 115.292 -0.849877 -1.32721 0
M  V30 1178 C 116.708 -0.539102 -1.50219 0
M  V30 1179 C 116.908 0.931271 -1.78689 0
M  V30 1180 O 115.964 1.71455 -1.85363 0
M  V30 1181 C 117.277 -1.42196 -2.64954 0
M  V30 1182 C 118.825 -1.42189 -2.78839 0
M  V30 1183 C 119.3 -2.28985 -3.96648 0
M  V30 1184 N 120.791 -2.26754 -4.03902 0
M  V30 1185 C 121.526 -2.90644 -4.94281 0
M  V30 1186 N 121.022 -3.63629 -5.897 0
M  V30 1187 N 122.815 -2.80057 -4.87365 0
M  V30 1188 H 114.966 -1.80156 -1.12506 0
M  V30 1189 H 117.229 -0.769217 -0.554085 0
M  V30 1190 H 116.935 -2.46733 -2.50631 0
M  V30 1191 H 116.809 -1.10591 -3.60624 0
M  V30 1192 H 119.196 -0.38419 -2.92588 0
M  V30 1193 H 119.277 -1.77807 -1.83898 0
M  V30 1194 H 118.921 -3.32819 -3.83658 0
M  V30 1195 H 118.851 -1.90702 -4.90857 0
M  V30 1196 H 121.342 -1.73688 -3.3562 0
M  V30 1197 H 121.655 -4.09558 -6.55349 0
M  V30 1198 H 120 -3.67737 -5.89741 0
M  V30 1199 H 123.191 -2.22593 -4.11789 0
M  V30 1200 H 123.364 -3.30132 -5.57599 0
M  V30 1201 N 116.77 1.45427 -0.607355 0
M  V30 1202 C 117.68 2.34325 0.113463 0
M  V30 1203 C 118.696 1.51226 0.860617 0
M  V30 1204 O 119.872 1.84029 0.818255 0
M  V30 1205 C 116.937 3.28839 1.09844 0
M  V30 1206 C 115.998 4.27844 0.353271 0
M  V30 1207 C 115.231 5.17842 1.29133 0
M  V30 1208 O 115.454 5.11264 2.52913 0
M  V30 1209 O 114.388 5.96713 0.788523 0
M  V30 1210 H 118.214 2.97364 -0.617094 0
M  V30 1211 H 115.799 1.44807 -0.367619 0
M  V30 1212 H 117.681 3.8708 1.66575 0
M  V30 1213 H 116.356 2.68365 1.81003 0
M  V30 1214 H 115.263 3.7322 -0.256494 0
M  V30 1215 H 116.596 4.91173 -0.317822 0
M  V30 1216 N 118.248 0.346503 1.53744 0
M  V30 1217 C 119.494 -0.249473 2.0126 0
M  V30 1218 C 119.827 -1.49965 1.23386 0
M  V30 1219 O 119.102 -1.91811 0.32229 0
M  V30 1220 C 119.385 -0.560643 3.55709 0
M  V30 1221 C 119.238 0.701836 4.44291 0
M  V30 1222 C 120.557 -1.36905 4.18264 0
M  V30 1223 H 117.676 -0.0891987 0.731582 0
M  V30 1224 H 120.318 0.467624 1.84156 0
M  V30 1225 H 118.468 -1.17156 3.70414 0
M  V30 1226 H 120.14 1.33974 4.41417 0
M  V30 1227 H 118.383 1.32612 4.13033 0
M  V30 1228 H 119.054 0.43933 5.50249 0
M  V30 1229 H 121.53 -0.852448 4.07275 0
M  V30 1230 H 120.406 -1.55553 5.26398 0
M  V30 1231 H 120.667 -2.37203 3.73078 0
M  V30 1232 N 119.726 -1.57421 0.075193 0
M  V30 1233 C 120.656 -2.15942 -0.888324 0
M  V30 1234 C 121.637 -1.08737 -1.30806 0
M  V30 1235 O 122.822 -1.36787 -1.37851 0
M  V30 1236 C 119.952 -2.72379 -2.1547 0
M  V30 1237 C 118.906 -3.8478 -1.87425 0
M  V30 1238 C 118.232 -4.27834 -3.20721 0
M  V30 1239 C 119.532 -5.08869 -1.17684 0
M  V30 1240 H 121.226 -2.96705 -0.400799 0
M  V30 1241 H 118.772 -1.42723 -0.191342 0
M  V30 1242 H 120.725 -3.11965 -2.83295 0
M  V30 1243 H 119.449 -1.88841 -2.6647 0
M  V30 1244 H 118.108 -3.45703 -1.22004 0
M  V30 1245 H 117.756 -3.41214 -3.6957 0
M  V30 1246 H 117.456 -5.03605 -3.02746 0
M  V30 1247 H 118.98 -4.70039 -3.89738 0
M  V30 1248 H 120.394 -5.4575 -1.75584 0
M  V30 1249 H 118.791 -5.8994 -1.09956 0
M  V30 1250 H 119.861 -4.84648 -0.156453 0
M  V30 1251 N 121.204 0.198386 -1.56346 0
M  V30 1252 C 122.136 1.26987 -1.90806 0
M  V30 1253 C 123.149 1.41877 -0.798419 0
M  V30 1254 O 124.338 1.42362 -1.07682 0
M  V30 1255 C 121.438 2.64246 -2.12196 0
M  V30 1256 C 120.611 2.71007 -3.43328 0
M  V30 1257 C 119.67 3.89439 -3.5387 0
M  V30 1258 O 118.696 3.76695 -4.26719 0
M  V30 1259 N 119.898 5.04752 -2.86715 0
M  V30 1260 H 122.663 0.977433 -2.83313 0
M  V30 1261 H 120.224 0.388322 -1.57174 0
M  V30 1262 H 122.216 3.41896 -2.1654 0
M  V30 1263 H 120.786 2.85992 -1.26204 0
M  V30 1264 H 120.006 1.79657 -3.50881 0
M  V30 1265 H 121.294 2.72512 -4.29668 0
M  V30 1266 H 120.692 5.18004 -2.2735 0
M  V30 1267 H 119.249 5.8036 -2.96691 0
M  V30 1268 N 122.682 1.50554 0.465978 0
M  V30 1269 C 123.645 1.69233 1.54574 0
M  V30 1270 C 124.645 0.562901 1.50626 0
M  V30 1271 O 125.835 0.830016 1.53155 0
M  V30 1272 C 122.967 1.7223 2.94193 0
M  V30 1273 H 124.16 2.65571 1.39327 0
M  V30 1274 H 121.713 1.40111 0.692711 0
M  V30 1275 H 122.448 0.77603 3.14878 0
M  V30 1276 H 122.233 2.54285 2.98466 0
M  V30 1277 H 123.723 1.88618 3.72576 0
M  V30 1278 N 124.16 -0.719506 1.40217 0
M  V30 1279 C 125.576 -1.02707 1.22161 0
M  V30 1280 C 125.776 -2.0128 0.0940557 0
M  V30 1281 O 124.832 -2.46452 -0.549318 0
M  V30 1282 C 126.145 -1.57454 2.56181 0
M  V30 1283 C 127.693 -1.69458 2.63159 0
M  V30 1284 C 128.168 -2.27611 3.97438 0
M  V30 1285 N 129.659 -2.35002 3.99159 0
M  V30 1286 C 130.394 -2.80972 4.99842 0
M  V30 1287 N 129.89 -3.26723 6.10921 0
M  V30 1288 N 131.683 -2.80321 4.87213 0
M  V30 1289 H 123.834 -0.0660492 2.12297 0
M  V30 1290 H 126.097 -0.0919077 0.943534 0
M  V30 1291 H 125.803 -0.924873 3.39321 0
M  V30 1292 H 125.677 -2.56036 2.76993 0
M  V30 1293 H 128.064 -2.33543 1.80393 0
M  V30 1294 H 128.145 -0.694867 2.46181 0
M  V30 1295 H 127.789 -1.6415 4.80643 0
M  V30 1296 H 127.719 -3.2829 4.11744 0
M  V30 1297 H 130.21 -2.02685 3.18947 0
M  V30 1298 H 130.523 -3.60355 6.8364 0
M  V30 1299 H 128.868 -3.24692 6.14492 0
M  V30 1300 H 132.059 -2.43912 3.9953 0
M  V30 1301 H 132.232 -3.15831 5.65822 0
M  V30 1302 N 125.638 -1.25649 -0.95132 0
M  V30 1303 C 127.054 -1.02542 -1.223 0
M  V30 1304 C 127.254 0.255715 -1.99871 0
M  V30 1305 O 126.31 0.967558 -2.33226 0
M  V30 1306 C 127.623 -2.25065 -1.99415 0
M  V30 1307 C 129.171 -2.29861 -2.12446 0
M  V30 1308 C 129.646 -3.52048 -2.92961 0
M  V30 1309 N 131.137 -3.52465 -3.00538 0
M  V30 1310 C 131.872 -4.43672 -3.63239 0
M  V30 1311 N 131.368 -5.45157 -4.27523 0
M  V30 1312 N 133.161 -4.31346 -3.60412 0
M  V30 1313 H 125.312 -2.07951 -0.432471 0
M  V30 1314 H 127.575 -0.91339 -0.253816 0
M  V30 1315 H 127.281 -3.18194 -1.49817 0
M  V30 1316 H 127.155 -2.28502 -3.00111 0
M  V30 1317 H 129.542 -1.37252 -2.61239 0
M  V30 1318 H 129.623 -2.3044 -1.11044 0
M  V30 1319 H 129.267 -4.44981 -2.44856 0
M  V30 1320 H 129.197 -3.48715 -3.94596 0
M  V30 1321 H 131.688 -2.79056 -2.54826 0
M  V30 1322 H 132.001 -6.10958 -4.73234 0
M  V30 1323 H 130.346 -5.49025 -4.26141 0
M  V30 1324 H 133.537 -3.51288 -3.09377 0
M  V30 1325 H 133.71 -5.02624 -4.0899 0
M  V30 1326 N 127.117 1.15442 -1.07289 0
M  V30 1327 C 128.049 2.19773 -0.650585 0
M  V30 1328 C 129.062 1.60076 0.296572 0
M  V30 1329 O 130.251 1.78293 0.0859905 0
M  V30 1330 C 127.351 3.38838 0.0650398 0
M  V30 1331 C 126.524 4.2808 -0.898141 0
M  V30 1332 C 125.583 5.2574 -0.219926 0
M  V30 1333 O 124.609 5.62654 -0.860773 0
M  V30 1334 N 125.811 5.71205 1.03466 0
M  V30 1335 H 128.576 2.56622 -1.54808 0
M  V30 1336 H 126.137 1.30551 -0.957494 0
M  V30 1337 H 128.129 4.01222 0.529415 0
M  V30 1338 H 126.699 3.00409 0.864466 0
M  V30 1339 H 125.919 3.62804 -1.54165 0
M  V30 1340 H 127.207 4.84577 -1.5512 0
M  V30 1341 H 126.605 5.43325 1.57526 0
M  V30 1342 H 125.162 6.35633 1.44272 0
M  V30 1343 N 128.595 0.856903 1.32268 0
M  V30 1344 C 130.006 0.515711 1.79436 0
M  V30 1345 C 130.357 -0.966586 1.70738 0
M  V30 1346 O 129.482 -1.75409 1.26731 0
M  V30 1347 C 130.077 0.929335 3.25805 0
M  V30 1348 C 128.636 0.640006 3.70919 0
M  V30 1349 C 127.783 1.12784 2.53328 0
M  V30 1350 H 130.734 1.04389 1.19535 0
M  V30 1351 H 130.755 0.246633 3.797 0
M  V30 1352 H 130.267 2.00821 3.32103 0
M  V30 1353 H 128.368 -0.428051 3.70133 0
M  V30 1354 H 128.481 1.20788 4.63624 0
M  V30 1355 H 126.845 0.548033 2.48734 0
M  V30 1356 H 127.628 2.21387 2.62379 0
M  V30 1357 N 130.073 -1.45103 0.615059 0
M  V30 1358 C 131.321 -2.01784 0.112955 0
M  V30 1359 C 131.642 -1.48504 -1.26378 0
M  V30 1360 O 130.912 -0.682245 -1.83636 0
M  V30 1361 H 129.492 -0.745993 0.0387668 0
M  V30 1362 H 132.154 -1.77808 0.798141 0
M  V30 1363 H 131.25 -3.12025 0.0684069 0
M  V30 1364 N 131.551 -0.354651 -1.53558 0
M  V30 1365 C 132.514 0.484566 -2.24019 0
M  V30 1366 C 133.514 1.01861 -1.24422 0
M  V30 1367 O 134.704 0.906097 -1.4878 0
M  V30 1368 C 131.836 1.67615 -2.96847 0
M  V30 1369 H 133.029 -0.131843 -2.9961 0
M  V30 1370 H 130.582 -0.106165 -1.55939 0
M  V30 1371 H 131.317 2.33095 -2.25471 0
M  V30 1372 H 131.102 1.30029 -3.69912 0
M  V30 1373 H 132.592 2.27114 -3.50441 0
M  V30 1374 N 133.029 1.57378 -0.0835403 0
M  V30 1375 C 133.961 2.10389 0.909338 0
M  V30 1376 C 134.974 1.03858 1.25369 0
M  V30 1377 O 136.163 1.31338 1.20882 0
M  V30 1378 C 133.263 2.55908 2.2218 0
M  V30 1379 C 132.436 3.86145 2.05453 0
M  V30 1380 C 131.495 4.17633 3.20108 0
M  V30 1381 O 130.521 4.87043 2.94581 0
M  V30 1382 N 131.723 3.72113 4.45547 0
M  V30 1383 H 134.488 2.962 0.456657 0
M  V30 1384 H 132.049 1.61579 0.101877 0
M  V30 1385 H 134.041 2.74027 2.97811 0
M  V30 1386 H 132.611 1.75171 2.58909 0
M  V30 1387 H 131.831 3.7729 1.1422 0
M  V30 1388 H 133.119 4.7137 1.91541 0
M  V30 1389 H 132.517 3.16062 4.69171 0
M  V30 1390 H 131.074 3.95409 5.18165 0
M  V30 1391 N 134.507 -0.190092 1.56449 0
M  V30 1392 C 135.753 -0.906472 1.82084 0
M  V30 1393 C 136.108 -1.80677 0.661335 0
M  V30 1394 O 135.401 -1.88501 -0.343237 0
M  V30 1395 C 135.595 -1.75382 3.1141 0
M  V30 1396 C 135.424 -0.937053 4.39829 0
M  V30 1397 C 134.194 -0.619507 5.01488 0
M  V30 1398 C 136.392 -0.2874 5.13496 0
M  V30 1399 N 134.374 0.215367 6.13522 0
M  V30 1400 C 135.745 0.409454 6.18646 0
M  V30 1401 C 137.8 -0.203639 4.97483 0
M  V30 1402 C 136.503 1.1821 7.0952 0
M  V30 1403 C 138.529 0.555622 5.88784 0
M  V30 1404 C 137.891 1.24091 6.93384 0
M  V30 1405 H 133.99 -0.310931 0.717528 0
M  V30 1406 H 136.574 -0.174821 1.93914 0
M  V30 1407 H 134.745 -2.45703 3.00806 0
M  V30 1408 H 136.477 -2.41006 3.25112 0
M  V30 1409 H 133.232 -0.945126 4.64074 0
M  V30 1410 H 133.656 0.622562 6.74131 0
M  V30 1411 H 138.298 -0.719099 4.1664 0
M  V30 1412 H 136.016 1.70897 7.89823 0
M  V30 1413 H 139.602 0.621854 5.78467 0
M  V30 1414 H 138.482 1.81901 7.62812 0
M  V30 1415 N 135.985 -1.50799 -0.457987 0
M  V30 1416 C 137.262 -1.52968 -1.21902 0
M  V30 1417 C 137.642 -0.281906 -2.09209 0
M  V30 1418 O 136.99 0.734076 -2.16388 0
M  V30 1419 C 137.2 -2.8326 -2.03875 0
M  V30 1420 C 138.548 -3.34425 -2.6162 0
M  V30 1421 O 139.572 -2.8467 -2.14106 0
M  V30 1422 O 138.431 -4.21188 -3.48228 0
M  V30 1423 H 135.525 -0.614129 -0.553873 0
M  V30 1424 H 138.071 -1.63098 -0.468739 0
M  V30 1425 H 136.843 -3.65543 -1.39621 0
M  V30 1426 H 136.466 -2.76195 -2.8601 0
M  V30 1427 N 137.463 0.71206 -1.40597 0
M  V30 1428 C 138.393 1.83889 -1.43899 0
M  V30 1429 C 139.374 1.67442 -0.299504 0
M  V30 1430 O 140.559 1.87421 -0.508624 0
M  V30 1431 C 137.689 3.21877 -1.30431 0
M  V30 1432 C 136.643 3.53002 -2.42019 0
M  V30 1433 C 135.969 4.90172 -2.13626 0
M  V30 1434 C 137.269 3.53643 -3.84362 0
M  V30 1435 H 138.963 1.81383 -2.38203 0
M  V30 1436 H 136.509 0.871237 -1.14654 0
M  V30 1437 H 138.462 4.00404 -1.31357 0
M  V30 1438 H 137.186 3.24968 -0.326049 0
M  V30 1439 H 135.845 2.76818 -2.40349 0
M  V30 1440 H 135.493 4.89869 -1.14182 0
M  V30 1441 H 135.193 5.11962 -2.88389 0
M  V30 1442 H 136.717 5.71028 -2.1624 0
M  V30 1443 H 138.131 4.22203 -3.87837 0
M  V30 1444 H 136.528 3.86961 -4.58673 0
M  V30 1445 H 137.598 2.52954 -4.13693 0
M  V30 1446 N 138.941 1.26152 0.944643 0
M  V30 1447 C 140.357 1.03189 1.21754 0
M  V30 1448 C 140.557 -0.245112 2.00004 0
M  V30 1449 O 139.613 -0.955176 2.33736 0
M  V30 1450 C 140.926 2.26119 1.98219 0
M  V30 1451 C 142.474 2.30984 2.11224 0
M  V30 1452 C 142.949 3.53597 2.91089 0
M  V30 1453 N 144.44 3.54053 2.98664 0
M  V30 1454 C 145.175 4.45593 3.60881 0
M  V30 1455 N 144.671 5.47416 4.24626 0
M  V30 1456 N 146.464 4.33252 3.58119 0
M  V30 1457 H 138.615 2.08177 0.421437 0
M  V30 1458 H 140.878 0.914723 0.248969 0
M  V30 1459 H 140.584 3.18984 1.48128 0
M  V30 1460 H 140.458 2.3009 2.98895 0
M  V30 1461 H 142.845 1.38635 2.60508 0
M  V30 1462 H 142.926 2.31026 1.09821 0
M  V30 1463 H 142.57 4.46273 2.42493 0
M  V30 1464 H 142.5 3.50802 3.92741 0
M  V30 1465 H 144.991 2.80403 2.53343 0
M  V30 1466 H 145.304 6.13459 4.69987 0
M  V30 1467 H 143.649 5.51278 4.23223 0
M  V30 1468 H 146.84 3.52924 3.0751 0
M  V30 1469 H 147.013 5.04786 4.06319 0
M  V30 1470 N 140.419 -1.14872 1.07899 0
M  V30 1471 C 141.329 -2.2341 0.715915 0
M  V30 1472 C 142.345 -1.71808 -0.275306 0
M  V30 1473 O 143.521 -2.01039 -0.120545 0
M  V30 1474 C 140.586 -3.46474 0.125168 0
M  V30 1475 C 139.647 -4.13039 1.17034 0
M  V30 1476 C 138.88 -5.30229 0.607688 0
M  V30 1477 O 139.103 -5.675 -0.574497 0
M  V30 1478 O 138.037 -5.86444 1.35526 0
M  V30 1479 H 141.863 -2.56808 1.62121 0
M  V30 1480 H 139.448 -1.22702 0.852322 0
M  V30 1481 H 141.33 -4.20917 -0.201729 0
M  V30 1482 H 140.005 -3.14811 -0.753364 0
M  V30 1483 H 138.912 -3.40493 1.54968 0
M  V30 1484 H 140.245 -4.48796 2.02097 0
M  V30 1485 N 141.898 -0.863906 -1.31812 0
M  V30 1486 C 143.145 -0.471836 -1.96926 0
M  V30 1487 C 143.473 0.974578 -1.68322 0
M  V30 1488 O 142.728 1.7003 -0.968933 0
M  V30 1489 C 143.027 -0.668547 -3.51091 0
M  V30 1490 C 142.693 -2.08683 -3.99703 0
M  V30 1491 C 141.355 -2.47471 -4.12688 0
M  V30 1492 C 143.707 -3.01207 -4.25351 0
M  V30 1493 C 141.035 -3.78037 -4.4867 0
M  V30 1494 C 143.387 -4.31282 -4.62794 0
M  V30 1495 C 142.051 -4.69992 -4.73987 0
M  V30 1496 H 141.321 -0.172657 -0.720604 0
M  V30 1497 H 143.968 -1.09573 -1.57054 0
M  V30 1498 H 142.273 0.0385252 -3.91781 0
M  V30 1499 H 143.97 -0.345102 -3.99512 0
M  V30 1500 H 140.56 -1.77566 -3.90087 0
M  V30 1501 H 144.744 -2.72469 -4.14819 0
M  V30 1502 H 140 -4.078 -4.55532 0
M  V30 1503 H 144.174 -5.03031 -4.81594 0
M  V30 1504 H 141.801 -5.71207 -5.01624 0
M  V30 1505 N 143.376 1.44774 -0.622745 0
M  V30 1506 C 144.306 2.33382 0.0741861 0
M  V30 1507 C 145.287 1.47719 0.843387 0
M  V30 1508 O 146.472 1.76458 0.810934 0
M  V30 1509 C 143.602 3.30663 1.06204 0
M  V30 1510 C 142.556 4.26079 0.405037 0
M  V30 1511 C 141.882 5.13165 1.5022 0
M  V30 1512 C 143.182 5.1781 -0.683414 0
M  V30 1513 H 144.876 2.91905 -0.665713 0
M  V30 1514 H 142.422 1.40363 -0.321587 0
M  V30 1515 H 144.375 3.9153 1.55827 0
M  V30 1516 H 143.099 2.70331 1.83272 0
M  V30 1517 H 141.758 3.66532 -0.0704683 0
M  V30 1518 H 141.406 4.49191 2.26355 0
M  V30 1519 H 141.106 5.77812 1.06803 0
M  V30 1520 H 142.63 5.76902 2.00041 0
M  V30 1521 H 144.044 5.72661 -0.270631 0
M  V30 1522 H 142.441 5.91015 -1.04023 0
M  V30 1523 H 143.511 4.59326 -1.55395 0
M  V30 1524 N 144.854 0.36279 1.53368 0
M  V30 1525 C 146.1 -0.228113 2.01513 0
M  V30 1526 C 146.433 -1.48648 1.2497 0
M  V30 1527 O 145.708 -1.91459 0.342616 0
M  V30 1528 C 145.991 -0.522884 3.56284 0
M  V30 1529 C 145.844 0.74892 4.43521 0
M  V30 1530 C 147.163 -1.32461 4.19693 0
M  V30 1531 H 144.282 -0.0814343 0.732487 0
M  V30 1532 H 146.924 0.48713 1.83649 0
M  V30 1533 H 145.074 -1.1322 3.71636 0
M  V30 1534 H 146.746 1.38648 4.39971 0
M  V30 1535 H 144.989 1.36986 4.11603 0
M  V30 1536 H 145.66 0.497667 5.49752 0
M  V30 1537 H 148.136 -0.809203 4.08156 0
M  V30 1538 H 147.012 -1.49961 5.28018 0
M  V30 1539 H 147.273 -2.33232 3.75573 0
M  V30 1540 N 146.332 -1.57332 0.0918853 0
M  V30 1541 C 147.557 -1.98995 -0.584442 0
M  V30 1542 C 147.982 -0.970528 -1.61128 0
M  V30 1543 O 147.34 0.0613904 -1.81196 0
M  V30 1544 C 147.388 -3.39636 -1.21161 0
M  V30 1545 O 146.492 -3.40447 -2.32744 0
M  V30 1546 H 145.833 -0.647165 -0.148572 0
M  V30 1547 H 148.363 -2.03873 0.172347 0
M  V30 1548 H 148.373 -3.7726 -1.55367 0
M  V30 1549 H 147.048 -4.13356 -0.459313 0
M  V30 1550 H 145.625 -3.14614 -2.0018 0
M  V30 1551 N 147.81 0.181792 -1.56548 0
M  V30 1552 C 148.773 1.20894 -1.94724 0
M  V30 1553 C 149.773 1.37738 -0.829747 0
M  V30 1554 O 150.963 1.35323 -1.09697 0
M  V30 1555 C 148.095 2.57593 -2.23291 0
M  V30 1556 H 149.288 0.882275 -2.86629 0
M  V30 1557 H 146.841 0.423838 -1.50444 0
M  V30 1558 H 147.576 2.95291 -1.34067 0
M  V30 1559 H 147.361 2.46735 -3.04736 0
M  V30 1560 H 148.851 3.31637 -2.53785 0
M  V30 1561 N 149.288 1.51039 0.449983 0
M  V30 1562 C 150.518 1.66627 1.22143 0
M  V30 1563 C 150.926 0.357776 1.85786 0
M  V30 1564 O 150.269 -0.672424 1.70951 0
M  V30 1565 C 150.331 2.71562 2.35573 0
M  V30 1566 C 149.995 4.14526 1.92399 0
M  V30 1567 C 150.992 4.99717 1.43453 0
M  V30 1568 C 148.677 4.60559 2.00475 0
M  V30 1569 C 150.671 6.28998 1.03155 0
M  V30 1570 C 148.358 5.8984 1.59788 0
M  V30 1571 C 149.356 6.73886 1.11208 0
M  V30 1572 O 149.044 8.0075 0.710935 0
M  V30 1573 H 148.776 0.562635 0.374724 0
M  V30 1574 H 151.33 1.98146 0.541036 0
M  V30 1575 H 149.56 2.3533 3.06849 0
M  V30 1576 H 151.249 2.76156 2.97478 0
M  V30 1577 H 152.015 4.65361 1.36618 0
M  V30 1578 H 147.894 3.95273 2.37235 0
M  V30 1579 H 151.438 6.9455 0.651663 0
M  V30 1580 H 147.335 6.23713 1.66289 0
M  V30 1581 H 148.103 8.142 0.837913 0
M  V30 1582 N 150.766 -0.704594 1.40972 0
M  V30 1583 C 152.013 -1.46458 1.39844 0
M  V30 1584 C 152.341 -1.94499 0.00447594 0
M  V30 1585 O 151.596 -1.69275 -0.982057 0
M  V30 1586 C 151.895 -2.698 2.34399 0
M  V30 1587 C 151.561 -2.40464 3.81429 0
M  V30 1588 C 150.223 -2.32174 4.21484 0
M  V30 1589 C 152.575 -2.16086 4.74296 0
M  V30 1590 C 149.903 -1.97589 5.52427 0
M  V30 1591 C 152.255 -1.83011 6.05549 0
M  V30 1592 C 150.919 -1.7321 6.44635 0
M  V30 1593 H 150.189 -0.535927 0.511725 0
M  V30 1594 H 152.836 -0.806124 1.73706 0
M  V30 1595 H 151.141 -3.40536 1.93759 0
M  V30 1596 H 152.838 -3.27919 2.30804 0
M  V30 1597 H 149.428 -2.47808 3.49699 0
M  V30 1598 H 153.612 -2.2144 4.4416 0
M  V30 1599 H 148.868 -1.88547 5.81601 0
M  V30 1600 H 153.042 -1.63164 6.77016 0
M  V30 1601 H 150.669 -1.46179 7.46013 0
M  V30 1602 N 152.244 -1.26651 -0.937939 0
M  V30 1603 C 153.469 -1.15279 -1.72411 0
M  V30 1604 C 153.894 0.287866 -1.85884 0
M  V30 1605 O 153.252 1.20855 -1.35143 0
M  V30 1606 C 153.3 -1.83028 -3.10698 0
M  V30 1607 O 152.404 -1.12128 -3.96864 0
M  V30 1608 H 151.745 -0.401504 -0.528858 0
M  V30 1609 H 154.275 -1.67531 -1.1745 0
M  V30 1610 H 154.285 -1.89981 -3.6107 0
M  V30 1611 H 152.96 -2.87833 -3.00208 0
M  V30 1612 H 151.537 -1.13173 -3.55312 0
M  V30 1613 N 153.722 1.14298 -1.08507 0
M  V30 1614 C 154.652 2.21542 -0.737646 0
M  V30 1615 C 155.633 1.67773 0.280377 0
M  V30 1616 O 156.818 1.93616 0.150521 0
M  V30 1617 C 153.948 3.46988 -0.147259 0
M  V30 1618 C 152.902 4.13789 -1.09374 0
M  V30 1619 C 152.228 5.33449 -0.365524 0
M  V30 1620 C 153.528 4.62208 -2.4323 0
M  V30 1621 H 155.222 2.5086 -1.6343 0
M  V30 1622 H 152.768 1.20576 -0.787243 0
M  V30 1623 H 154.721 4.21262 0.107808 0
M  V30 1624 H 153.445 3.17037 0.784538 0
M  V30 1625 H 152.104 3.4147 -1.33393 0
M  V30 1626 H 151.752 4.99759 0.57011 0
M  V30 1627 H 151.452 5.79088 -0.996512 0
M  V30 1628 H 152.976 6.10485 -0.118534 0
M  V30 1629 H 154.39 5.27952 -2.23472 0
M  V30 1630 H 152.787 5.18553 -3.02031 0
M  V30 1631 H 153.857 3.77224 -3.04681 0
M  V30 1632 N 155.201 0.870884 1.31352 0
M  V30 1633 C 156.151 0.298889 2.26032 0
M  V30 1634 C 157.135 -0.564595 1.50669 0
M  V30 1635 O 158.327 -0.411323 1.72154 0
M  V30 1636 C 155.456 -0.497842 3.39671 0
M  V30 1637 C 154.542 0.378937 4.22404 0
M  V30 1638 N 154.933 1.47284 4.83881 0
M  V30 1639 C 153.231 0.171535 4.4567 0
M  V30 1640 C 153.932 2.01359 5.45738 0
M  V30 1641 N 152.908 1.31047 5.27568 0
M  V30 1642 H 156.71 1.13494 2.71102 0
M  V30 1643 H 154.224 0.718745 1.45629 0
M  V30 1644 H 156.221 -0.924155 4.06528 0
M  V30 1645 H 154.881 -1.33149 2.96144 0
M  V30 1646 H 155.892 1.85575 4.8351 0
M  V30 1647 H 152.569 -0.626091 4.12779 0
M  V30 1648 H 153.959 2.93143 6.0458 0
M  V30 1649 N 156.679 -1.44442 0.630414 0
M  V30 1650 C 157.927 -2.01653 0.134351 0
M  V30 1651 C 158.248 -1.49836 -1.24796 0
M  V30 1652 O 157.518 -0.701684 -1.82902 0
M  V30 1653 H 156.098 -0.74554 0.0466769 0
M  V30 1654 H 158.76 -1.76952 0.816955 0
M  V30 1655 H 157.856 -3.11935 0.101498 0
M  V30 1656 N 158.157 -0.370918 -1.53173 0
M  V30 1657 C 159.573 -0.0200818 -1.59587 0
M  V30 1658 C 159.773 1.46279 -1.38581 0
M  V30 1659 O 158.829 2.22506 -1.19363 0
M  V30 1660 C 160.142 -0.4808 -2.96831 0
M  V30 1661 C 161.69 -0.435477 -3.09956 0
M  V30 1662 C 162.165 -0.872092 -4.4962 0
M  V30 1663 N 163.656 -0.827364 -4.55751 0
M  V30 1664 C 164.391 -1.13683 -5.62018 0
M  V30 1665 N 163.887 -1.51584 -6.76014 0
M  V30 1666 N 165.68 -1.05927 -5.52029 0
M  V30 1667 H 157.831 -1.33652 -1.65079 0
M  V30 1668 H 160.094 -0.546634 -0.774529 0
M  V30 1669 H 159.8 -1.51577 -3.1736 0
M  V30 1670 H 159.674 0.129796 -3.76977 0
M  V30 1671 H 162.061 0.590371 -2.89134 0
M  V30 1672 H 162.142 -1.08164 -2.31806 0
M  V30 1673 H 161.786 -1.89608 -4.71181 0
M  V30 1674 H 161.716 -0.203127 -5.26208 0
M  V30 1675 H 164.207 -0.548216 -3.73902 0
M  V30 1676 H 164.52 -1.73609 -7.53047 0
M  V30 1677 H 162.865 -1.55454 -6.77391 0
M  V30 1678 H 166.056 -0.762321 -4.61851 0
M  V30 1679 H 166.229 -1.30378 -6.34749 0
M  V30 1680 N 159.635 1.57281 -0.100228 0
M  V30 1681 C 160.565 2.17328 0.853857 0
M  V30 1682 C 161.546 1.10804 1.2906 0
M  V30 1683 O 162.731 1.38963 1.35657 0
M  V30 1684 C 159.861 2.75772 2.11109 0
M  V30 1685 C 158.815 3.87713 1.81279 0
M  V30 1686 C 158.141 4.32882 3.13874 0
M  V30 1687 C 159.441 5.10677 1.09574 0
M  V30 1688 H 161.135 2.97305 0.353545 0
M  V30 1689 H 158.681 1.43009 0.168612 0
M  V30 1690 H 160.634 3.16433 2.78296 0
M  V30 1691 H 159.358 1.93057 2.63432 0
M  V30 1692 H 158.017 3.476 1.16489 0
M  V30 1693 H 157.665 3.47051 3.64095 0
M  V30 1694 H 157.365 5.08358 2.94696 0
M  V30 1695 H 158.889 4.7618 3.82211 0
M  V30 1696 H 160.303 5.48474 1.66879 0
M  V30 1697 H 158.7 5.91615 1.00557 0
M  V30 1698 H 159.77 4.84835 0.0793299 0
M  V30 1699 N 161.113 -0.173488 1.56642 0
M  V30 1700 C 162.39 -0.917617 1.7274 0
M  V30 1701 C 162.77 -2.00484 0.661027 0
M  V30 1702 O 162.118 -2.26184 -0.32453 0
M  V30 1703 C 162.328 -1.48433 3.15862 0
M  V30 1704 C 163.676 -1.95809 3.76754 0
M  V30 1705 O 164.7 -1.58231 3.19126 0
M  V30 1706 O 163.559 -2.65024 4.77938 0
M  V30 1707 H 160.653 -0.431772 0.705338 0
M  V30 1708 H 163.199 -0.161487 1.6893 0
M  V30 1709 H 161.971 -0.701715 3.84957 0
M  V30 1710 H 161.594 -2.30471 3.23989 0
M  V30 1711 N 162.591 -1.51276 -0.441967 0
M  V30 1712 C 163.501 -1.75092 -1.56141 0
M  V30 1713 C 164.517 -0.634963 -1.62001 0
M  V30 1714 O 165.693 -0.916686 -1.79329 0
M  V30 1715 C 162.758 -1.86666 -2.92158 0
M  V30 1716 C 161.819 -3.10506 -2.96453 0
M  V30 1717 C 161.052 -3.21519 -4.25982 0
M  V30 1718 O 161.275 -2.38586 -5.18105 0
M  V30 1719 O 160.209 -4.14465 -4.36466 0
M  V30 1720 H 164.035 -2.70044 -1.38961 0
M  V30 1721 H 161.62 -1.35722 -0.624499 0
M  V30 1722 H 163.502 -1.96292 -3.72891 0
M  V30 1723 H 162.177 -0.949014 -3.09476 0
M  V30 1724 H 161.084 -3.06363 -2.14692 0
M  V30 1725 H 162.417 -4.01945 -2.84079 0
M  V30 1726 N 164.069 0.697108 -1.41344 0
M  V30 1727 C 165.346 1.45154 -1.31109 0
M  V30 1728 C 165.726 2.11009 0.0620449 0
M  V30 1729 O 165.074 2.01571 1.07618 0
M  V30 1730 C 165.284 2.47223 -2.46337 0
M  V30 1731 C 166.632 3.1252 -2.87431 0
M  V30 1732 O 167.656 2.57547 -2.46065 0
M  V30 1733 O 166.515 4.12083 -3.58957 0
M  V30 1734 H 163.609 0.646365 -0.515889 0
M  V30 1735 H 166.155 0.727716 -1.53305 0
M  V30 1736 H 164.927 1.97204 -3.37974 0
M  V30 1737 H 164.55 3.27116 -2.2601 0
M  V30 1738 N 165.547 1.27147 0.931209 0
M  V30 1739 C 166.793 1.13446 1.68101 0
M  V30 1740 C 167.126 -0.319628 1.91552 0
M  V30 1741 O 166.401 -1.23407 1.50336 0
M  V30 1742 C 166.684 1.91482 3.0497 0
M  V30 1743 C 166.537 3.44855 2.88782 0
M  V30 1744 C 167.856 1.71651 4.05246 0
M  V30 1745 H 164.975 0.413498 0.610072 0
M  V30 1746 H 167.617 1.56261 1.08086 0
M  V30 1747 H 165.767 1.55095 3.56199 0
M  V30 1748 H 167.439 3.9105 2.44698 0
M  V30 1749 H 165.682 3.71373 2.24198 0
M  V30 1750 H 166.353 3.94694 3.85902 0
M  V30 1751 H 168.829 2.0337 3.63015 0
M  V30 1752 H 167.705 2.28651 4.99009 0
M  V30 1753 H 167.966 0.663555 4.37092 0
M  V30 1754 N 167.025 -1.13721 1.09112 0
M  V30 1755 C 168.274 -1.84275 0.82009 0
M  V30 1756 C 168.587 -1.84253 -0.656509 0
M  V30 1757 O 169.793 -2.50668 -1.04296 0
M  V30 1758 C 168.249 -3.30825 1.41714 0
M  V30 1759 C 167.857 -3.39244 2.92605 0
M  V30 1760 C 169.601 -4.06443 1.22492 0
M  V30 1761 C 167.508 -4.80047 3.45411 0
M  V30 1762 H 166.438 -0.690387 0.30312 0
M  V30 1763 H 169.089 -1.28146 1.31343 0
M  V30 1764 H 167.471 -3.86737 0.851498 0
M  V30 1765 H 168.645 -2.93344 3.55367 0
M  V30 1766 H 166.96 -2.77088 3.10823 0
M  V30 1767 H 169.557 -5.10387 1.59402 0
M  V30 1768 H 169.9 -4.15972 0.165299 0
M  V30 1769 H 170.433 -3.56852 1.75788 0
M  V30 1770 H 167.172 -4.75709 4.50978 0
M  V30 1771 H 166.692 -5.26455 2.87411 0
M  V30 1772 H 168.371 -5.48957 3.42425 0
M  V30 1773 N 168.503 -0.877838 -1.30888 0
M  V30 1774 C 169.751 -0.491723 -1.96027 0
M  V30 1775 C 170.072 0.960827 -1.69685 0
M  V30 1776 O 169.342 1.67462 -1.01654 0
M  V30 1777 H 167.922 -0.17885 -0.725273 0
M  V30 1778 H 170.584 -1.11935 -1.59551 0
M  V30 1779 H 169.68 -0.656016 -3.05128 0
M  V30 1780 N 169.982 1.44106 -0.638065 0
M  V30 1781 C 171.228 2.02277 -0.145546 0
M  V30 1782 C 171.561 1.50125 1.23191 0
M  V30 1783 O 170.836 0.688133 1.8192 0
M  V30 1784 C 171.119 3.59829 -0.139791 0
M  V30 1785 C 170.972 4.22247 -1.55008 0
M  V30 1786 C 172.291 4.36873 0.531966 0
M  V30 1787 H 169.41 0.734992 -0.0543632 0
M  V30 1788 H 172.052 1.71592 -0.815863 0
M  V30 1789 H 170.202 3.86102 0.431007 0
M  V30 1790 H 171.874 4.07057 -2.1703 0
M  V30 1791 H 170.117 3.79476 -2.10191 0
M  V30 1792 H 170.788 5.31284 -1.49804 0
M  V30 1793 H 173.264 4.16074 0.0464781 0
M  V30 1794 H 172.14 5.4657 0.505206 0
M  V30 1795 H 172.401 4.11995 1.60352 0
M  V30 1796 N 171.46 0.379036 1.52974 0
M  V30 1797 C 172.69 -0.20649 2.05566 0
M  V30 1798 C 173.098 -1.41906 1.25137 0
M  V30 1799 O 172.441 -1.81421 0.288464 0
M  V30 1800 C 172.503 -0.651086 3.53555 0
M  V30 1801 C 172.167 0.446626 4.54812 0
M  V30 1802 C 173.164 1.30079 5.03364 0
M  V30 1803 C 170.849 0.610719 4.98573 0
M  V30 1804 C 172.843 2.30426 5.94292 0
M  V30 1805 C 170.53 1.61754 5.89304 0
M  V30 1806 C 171.528 2.46274 6.37054 0
M  V30 1807 O 171.216 3.45237 7.25994 0
M  V30 1808 H 170.948 -0.0372381 0.674974 0
M  V30 1809 H 173.502 0.539718 1.98182 0
M  V30 1810 H 171.732 -1.44911 3.58522 0
M  V30 1811 H 173.421 -1.16112 3.88938 0
M  V30 1812 H 174.187 1.18527 4.70294 0
M  V30 1813 H 170.066 -0.0374044 4.60985 0
M  V30 1814 H 173.61 2.96432 6.31485 0
M  V30 1815 H 169.507 1.73348 6.21788 0
M  V30 1816 H 170.275 3.41124 7.44027 0
M  V30 1817 N 172.938 -1.57226 0.108567 0
M  V30 1818 C 173.885 -2.14756 -0.845481 0
M  V30 1819 C 174.855 -1.06971 -1.27068 0
M  V30 1820 O 176.04 -1.34827 -1.35005 0
M  V30 1821 C 173.18 -2.74298 -2.09415 0
M  V30 1822 C 172.293 -3.96358 -1.71826 0
M  V30 1823 C 171.428 -4.44021 -2.9158 0
M  V30 1824 C 170.467 -5.58637 -2.50181 0
M  V30 1825 N 169.604 -6.01091 -3.62814 0
M  V30 1826 H 174.444 -2.95961 -0.348035 0
M  V30 1827 H 171.981 -1.46226 -0.160106 0
M  V30 1828 H 173.939 -3.06945 -2.82561 0
M  V30 1829 H 172.569 -1.95801 -2.56636 0
M  V30 1830 H 171.621 -3.69939 -0.885947 0
M  V30 1831 H 172.933 -4.79504 -1.37394 0
M  V30 1832 H 172.087 -4.78522 -3.72963 0
M  V30 1833 H 170.826 -3.59803 -3.29231 0
M  V30 1834 H 169.831 -5.23751 -1.67228 0
M  V30 1835 H 171.056 -6.44613 -2.13659 0
M  V30 1836 H 169.002 -5.19817 -4.00158 0
M  V30 1837 H 168.919 -6.79066 -3.32273 0
M  V30 1838 H 170.187 -6.40227 -4.44668 0
M  V30 1839 N 174.416 0.165178 -1.56732 0
M  V30 1840 C 175.693 0.908443 -1.73224 0
M  V30 1841 C 176.073 2.0013 -0.67165 0
M  V30 1842 O 175.421 2.26353 0.31253 0
M  V30 1843 C 175.631 1.46756 -3.16644 0
M  V30 1844 C 176.979 1.93809 -3.77787 0
M  V30 1845 O 178.003 1.56537 -3.1996 0
M  V30 1846 O 176.862 2.62486 -4.79336 0
M  V30 1847 H 173.956 0.428025 -0.707618 0
M  V30 1848 H 176.502 0.152526 -1.69013 0
M  V30 1849 H 175.274 0.68129 -3.85323 0
M  V30 1850 H 174.897 2.28749 -3.25207 0
M  V30 1851 N 175.894 1.51508 0.433938 0
M  V30 1852 C 177.14 1.64588 1.18484 0
M  V30 1853 C 177.473 0.362666 1.90784 0
M  V30 1854 O 176.748 -0.637892 1.83742 0
M  V30 1855 C 177.031 2.85149 2.19913 0
M  V30 1856 C 176.884 4.23456 1.51674 0
M  V30 1857 C 178.203 3.01227 3.20858 0
M  V30 1858 H 175.322 0.598994 0.429389 0
M  V30 1859 H 177.964 1.84002 0.473647 0
M  V30 1860 H 176.114 2.68729 2.80566 0
M  V30 1861 H 177.786 4.51552 0.943322 0
M  V30 1862 H 176.029 4.25998 0.819035 0
M  V30 1863 H 176.7 5.03812 2.2556 0
M  V30 1864 H 179.176 3.16382 2.70263 0
M  V30 1865 H 178.052 3.87141 3.89118 0
M  V30 1866 H 178.313 2.13447 3.8716 0
M  V30 1867 N 177.372 -0.689602 1.41712 0
M  V30 1868 C 178.302 -1.81577 1.46806 0
M  V30 1869 C 179.283 -1.66945 0.326105 0
M  V30 1870 O 180.468 -1.86588 0.538377 0
M  V30 1871 C 177.598 -3.19762 1.35535 0
M  V30 1872 C 176.552 -3.49107 2.47605 0
M  V30 1873 C 175.878 -4.86711 2.21397 0
M  V30 1874 C 177.178 -3.47483 3.89939 0
M  V30 1875 H 178.872 -1.7757 2.41058 0
M  V30 1876 H 176.418 -0.852887 1.16025 0
M  V30 1877 H 178.371 -3.98263 1.3771 0
M  V30 1878 H 177.095 -3.24409 0.377708 0
M  V30 1879 H 175.754 -2.72959 2.44722 0
M  V30 1880 H 175.402 -4.8799 1.21961 0
M  V30 1881 H 175.102 -5.0731 2.96497 0
M  V30 1882 H 176.626 -5.67515 2.25297 0
M  V30 1883 H 178.04 -4.1598 3.94505 0
M  V30 1884 H 176.437 -3.79615 4.64771 0
M  V30 1885 H 177.507 -2.46341 4.17665 0
M  V30 1886 N 178.85 -1.27639 -0.924453 0
M  V30 1887 C 179.782 -1.06442 -2.02985 0
M  V30 1888 C 180.795 -0.0194771 -1.62788 0
M  V30 1889 O 181.984 -0.261388 -1.76576 0
M  V30 1890 C 179.084 -0.59327 -3.33667 0
M  V30 1891 C 178.257 -1.71123 -4.02537 0
M  V30 1892 C 177.316 -1.23527 -5.11495 0
M  V30 1893 O 176.342 -1.93553 -5.35281 0
M  V30 1894 N 177.544 -0.0926678 -5.80426 0
M  V30 1895 H 180.309 -2.01633 -2.2173 0
M  V30 1896 H 177.87 -1.19248 -1.09505 0
M  V30 1897 H 179.862 -0.258686 -4.03872 0
M  V30 1898 H 178.432 0.265502 -3.1147 0
M  V30 1899 H 177.652 -2.21593 -3.26022 0
M  V30 1900 H 178.94 -2.46145 -4.45298 0
M  V30 1901 H 178.338 0.491741 -5.63559 0
M  V30 1902 H 176.895 0.182714 -6.51544 0
M  V30 1903 N 180.328 1.1314 -1.09713 0
M  V30 1904 C 181.556 1.88321 -0.856898 0
M  V30 1905 C 181.971 1.79276 0.592073 0
M  V30 1906 O 181.328 1.16142 1.40774 0
M  V30 1907 C 181.379 3.37812 -1.28706 0
M  V30 1908 O 181.1 3.46627 -2.67921 0
M  V30 1909 C 182.601 4.29952 -1.07964 0
M  V30 1910 H 179.821 0.596094 -0.308079 0
M  V30 1911 H 182.365 1.43205 -1.45988 0
M  V30 1912 H 180.52 3.805 -0.727912 0
M  V30 1913 H 180.934 4.39579 -2.8613 0
M  V30 1914 H 182.408 5.33159 -1.42986 0
M  V30 1915 H 182.885 4.39196 -0.0176577 0
M  V30 1916 H 183.491 3.93036 -1.62489 0
M  V30 1917 N 181.806 0.884767 1.30421 0
M  V30 1918 C 182.738 0.308655 2.27112 0
M  V30 1919 C 183.751 -0.536655 1.53701 0
M  V30 1920 O 184.94 -0.35624 1.74909 0
M  V30 1921 C 182.04 -0.579782 3.33904 0
M  V30 1922 C 181.213 0.236417 4.36761 0
M  V30 1923 C 180.272 -0.582482 5.22966 0
M  V30 1924 O 179.298 -0.00525502 5.692 0
M  V30 1925 N 180.5 -1.89163 5.48815 0
M  V30 1926 H 183.265 1.13964 2.77186 0
M  V30 1927 H 180.826 0.747731 1.43599 0
M  V30 1928 H 182.818 -1.13366 3.88497 0
M  V30 1929 H 181.388 -1.31144 2.83761 0
M  V30 1930 H 180.608 0.97174 3.82035 0
M  V30 1931 H 181.896 0.795924 5.02536 0
M  V30 1932 H 181.294 -2.38352 5.13035 0
M  V30 1933 H 179.851 -2.39296 6.06284 0
M  V30 1934 N 183.284 -1.43765 0.645699 0
M  V30 1935 C 184.561 -1.9541 0.0862963 0
M  V30 1936 C 184.941 -1.58725 -1.39175 0
M  V30 1937 O 184.289 -0.868581 -2.11348 0
M  V30 1938 C 184.499 -3.47488 0.324565 0
M  V30 1939 C 185.847 -4.24001 0.225497 0
M  V30 1940 O 186.871 -3.55274 0.256715 0
M  V30 1941 O 185.73 -5.46313 0.142801 0
M  V30 1942 H 182.824 -0.826882 -0.0139483 0
M  V30 1943 H 185.37 -1.53743 0.718415 0
M  V30 1944 H 184.142 -3.67289 1.3496 0
M  V30 1945 H 183.765 -3.96135 -0.340987 0
M  V30 1946 N 184.763 -0.387143 -1.52771 0
M  V30 1947 C 186.011 0.195349 -2.01154 0
M  V30 1948 C 186.332 1.475 -1.27549 0
M  V30 1949 O 185.602 1.91878 -0.394924 0
M  V30 1950 H 184.182 0.075178 -0.743207 0
M  V30 1951 H 186.844 -0.518337 -1.87881 0
M  V30 1952 H 185.94 0.407096 -3.09434 0
M  V30 1953 N 186.241 1.57166 -0.116904 0
M  V30 1954 C 187.188 2.15202 0.83408 0
M  V30 1955 C 188.158 1.07644 1.26499 0
M  V30 1956 O 189.343 1.35541 1.34288 0
M  V30 1957 C 186.483 2.75405 2.07957 0
M  V30 1958 C 185.596 3.97264 1.69721 0
M  V30 1959 C 184.731 4.45561 2.89221 0
M  V30 1960 C 183.77 5.59956 2.47215 0
M  V30 1961 N 182.907 6.03006 3.59622 0
M  V30 1962 H 187.747 2.96141 0.332335 0
M  V30 1963 H 185.284 1.46309 0.152349 0
M  V30 1964 H 187.242 3.08439 2.80929 0
M  V30 1965 H 185.872 1.97159 2.55594 0
M  V30 1966 H 184.924 3.70404 0.866316 0
M  V30 1967 H 186.236 4.80226 1.34849 0
M  V30 1968 H 185.39 4.80493 3.7042 0
M  V30 1969 H 184.129 3.61544 3.27318 0
M  V30 1970 H 183.134 5.2463 1.64448 0
M  V30 1971 H 184.359 6.45738 2.10238 0
M  V30 1972 H 182.305 5.21931 3.97396 0
M  V30 1973 H 182.222 6.80819 3.28667 0
M  V30 1974 H 183.49 6.42576 4.41267 0
M  V30 1975 N 187.719 -0.156864 1.56817 0
M  V30 1976 C 189.135 -0.50916 1.5126 0
M  V30 1977 C 189.335 -1.83897 0.823658 0
M  V30 1978 O 188.391 -2.49469 0.390055 0
M  V30 1979 C 189.704 -0.52857 2.96018 0
M  V30 1980 C 191.252 -0.614771 3.06903 0
M  V30 1981 C 191.727 -0.664938 4.53147 0
M  V30 1982 N 193.218 -0.727433 4.57452 0
M  V30 1983 C 193.953 -0.787067 5.67973 0
M  V30 1984 N 193.449 -0.806649 6.88088 0
M  V30 1985 N 195.242 -0.827195 5.5598 0
M  V30 1986 H 187.393 0.714935 2.00006 0
M  V30 1987 H 189.656 0.259526 0.911784 0
M  V30 1988 H 189.362 0.380154 3.49639 0
M  V30 1989 H 189.236 -1.36998 3.51442 0
M  V30 1990 H 191.623 -1.51392 2.53307 0
M  V30 1991 H 191.704 0.253597 2.5454 0
M  V30 1992 H 191.348 0.230011 5.07379 0
M  V30 1993 H 191.278 -1.54966 5.03282 0
M  V30 1994 H 193.769 -0.719998 3.70978 0
M  V30 1995 H 194.082 -0.853727 7.6807 0
M  V30 1996 H 192.427 -0.774687 6.90669 0
M  V30 1997 H 195.618 -0.808998 4.61056 0
M  V30 1998 H 195.791 -0.870206 6.4213 0
M  V30 1999 N 189.197 -1.51736 -0.425897 0
M  V30 2000 C 190.144 -1.73875 -1.51776 0
M  V30 2001 C 191.114 -0.580702 -1.55618 0
M  V30 2002 O 192.299 -0.81641 -1.72451 0
M  V30 2003 C 189.439 -1.88012 -2.89388 0
M  V30 2004 C 188.552 -3.15606 -2.94986 0
M  V30 2005 C 187.687 -3.20271 -4.23793 0
M  V30 2006 C 186.726 -4.42134 -4.23302 0
M  V30 2007 N 185.863 -4.44284 -5.43651 0
M  V30 2008 H 190.703 -2.67071 -1.32201 0
M  V30 2009 H 188.24 -1.32351 -0.642008 0
M  V30 2010 H 190.198 -1.9419 -3.69251 0
M  V30 2011 H 188.828 -0.98213 -3.07496 0
M  V30 2012 H 187.88 -3.18681 -2.07717 0
M  V30 2013 H 189.192 -4.05486 -2.90486 0
M  V30 2014 H 188.346 -3.25428 -5.12036 0
M  V30 2015 H 187.085 -2.28299 -4.30965 0
M  V30 2016 H 186.09 -4.3714 -3.3345 0
M  V30 2017 H 187.315 -5.35382 -4.17783 0
M  V30 2018 H 185.261 -3.55188 -5.51523 0
M  V30 2019 H 185.178 -5.27988 -5.41078 0
M  V30 2020 H 186.446 -4.53649 -6.33895 0
M  V30 2021 N 190.675 0.682077 -1.42076 0
M  V30 2022 C 191.638 1.77756 -1.44691 0
M  V30 2023 C 192.638 1.5726 -0.335535 0
M  V30 2024 O 193.828 1.63686 -0.596037 0
M  V30 2025 C 190.96 3.16301 -1.27146 0
M  V30 2026 H 192.153 1.76826 -2.42224 0
M  V30 2027 H 189.706 0.891012 -1.28416 0
M  V30 2028 H 190.441 3.22862 -0.305075 0
M  V30 2029 H 190.226 3.32581 -2.07683 0
M  V30 2030 H 191.716 3.96241 -1.31843 0
M  V30 2031 N 192.153 1.28127 0.917671 0
M  V30 2032 C 193.083 1.14248 2.03641 0
M  V30 2033 C 194.064 0.0412748 1.7005 0
M  V30 2034 O 195.249 0.217566 1.92977 0
M  V30 2035 C 192.379 0.799431 3.37974 0
M  V30 2036 C 191.333 1.85497 3.85713 0
M  V30 2037 C 190.659 1.36565 5.16966 0
M  V30 2038 C 191.959 3.26085 4.08002 0
M  V30 2039 H 193.653 2.07835 2.15511 0
M  V30 2040 H 191.199 1.00064 1.03553 0
M  V30 2041 H 193.152 0.689114 4.15727 0
M  V30 2042 H 191.876 -0.172145 3.26146 0
M  V30 2043 H 190.535 1.95437 3.10161 0
M  V30 2044 H 190.183 0.383253 5.01538 0
M  V30 2045 H 189.883 2.07143 5.49878 0
M  V30 2046 H 191.407 1.26848 5.97279 0
M  V30 2047 H 192.821 3.19089 4.76293 0
M  V30 2048 H 191.218 3.94462 4.52238 0
M  V30 2049 H 192.288 3.70394 3.12948 0
M  V30 2050 N 193.631 -1.12557 1.10312 0
M  V30 2051 C 194.561 -2.20341 0.772798 0
M  V30 2052 C 195.542 -1.68198 -0.25365 0
M  V30 2053 O 196.727 -1.93831 -0.119699 0
M  V30 2054 C 193.857 -3.46709 0.202443 0
M  V30 2055 C 192.811 -4.11996 1.15943 0
M  V30 2056 C 192.137 -5.328 0.450345 0
M  V30 2057 C 193.437 -4.5828 2.50552 0
M  V30 2058 H 195.131 -2.48229 1.674 0
M  V30 2059 H 192.677 -1.19308 0.806326 0
M  V30 2060 H 194.63 -4.2138 -0.0407752 0
M  V30 2061 H 193.354 -3.18245 -0.734001 0
M  V30 2062 H 192.013 -3.39305 1.38808 0
M  V30 2063 H 191.661 -5.00602 -0.490531 0
M  V30 2064 H 191.361 -5.7743 1.08851 0
M  V30 2065 H 192.885 -6.10219 0.215642 0
M  V30 2066 H 194.299 -5.2433 2.31843 0
M  V30 2067 H 192.696 -5.13683 3.10242 0
M  V30 2068 H 193.766 -3.72329 3.10643 0
M  V30 2069 N 195.109 -0.891671 -1.2995 0
M  V30 2070 C 196.386 -0.433307 -1.9074 0
M  V30 2071 C 196.766 1.08646 -1.80995 0
M  V30 2072 O 196.114 1.92476 -1.23147 0
M  V30 2073 C 196.324 -0.938895 -3.36134 0
M  V30 2074 C 197.672 -0.977829 -4.13187 0
M  V30 2075 O 198.696 -0.886015 -3.45005 0
M  V30 2076 O 197.555 -1.11453 -5.35015 0
M  V30 2077 H 194.649 -0.133699 -0.816121 0
M  V30 2078 H 197.195 -0.981011 -1.38471 0
M  V30 2079 H 195.967 -1.98281 -3.37343 0
M  V30 2080 H 195.59 -0.37074 -3.95868 0
M  V30 2081 N 196.587 1.43421 -0.653314 0
M  V30 2082 C 197.497 2.34568 0.0388565 0
M  V30 2083 C 198.513 1.53888 0.81207 0
M  V30 2084 O 199.689 1.86539 0.759294 0
M  V30 2085 C 196.754 3.32167 0.993269 0
M  V30 2086 C 195.815 4.28751 0.216977 0
M  V30 2087 C 195.048 5.21688 1.12593 0
M  V30 2088 O 195.271 5.19052 2.36519 0
M  V30 2089 O 194.205 5.98919 0.598284 0
M  V30 2090 H 198.031 2.95251 -0.711386 0
M  V30 2091 H 195.616 1.43564 -0.413502 0
M  V30 2092 H 197.498 3.92183 1.54176 0
M  V30 2093 H 196.173 2.73987 1.72374 0
M  V30 2094 H 195.08 3.72215 -0.375101 0
M  V30 2095 H 196.413 4.89913 -0.473924 0
M  V30 2096 N 198.065 0.39524 1.52563 0
M  V30 2097 C 198.995 -0.428384 2.29537 0
M  V30 2098 C 199.976 -1.05831 1.33169 0
M  V30 2099 O 201.161 -1.06995 1.62067 0
M  V30 2100 C 198.291 -1.55274 3.10656 0
M  V30 2101 C 197.245 -1.04855 4.14957 0
M  V30 2102 C 196.571 -2.26543 4.84337 0
M  V30 2103 C 197.871 -0.112324 5.22179 0
M  V30 2104 H 199.565 0.213867 2.98635 0
M  V30 2105 H 197.111 0.104298 1.43622 0
M  V30 2106 H 199.064 -2.1358 3.63265 0
M  V30 2107 H 197.788 -2.22266 2.39302 0
M  V30 2108 H 196.447 -0.487985 3.63338 0
M  V30 2109 H 196.095 -2.92059 4.09525 0
M  V30 2110 H 195.795 -1.93466 5.54837 0
M  V30 2111 H 197.319 -2.85481 5.39753 0
M  V30 2112 H 198.733 -0.603752 5.70112 0
M  V30 2113 H 197.13 0.128968 5.99961 0
M  V30 2114 H 198.2 0.837052 4.77621 0
M  V30 2115 N 199.544 -1.57102 0.125237 0
M  V30 2116 C 200.491 -2.15641 -0.822655 0
M  V30 2117 C 201.461 -1.08313 -1.25927 0
M  V30 2118 O 202.646 -1.36251 -1.33567 0
M  V30 2119 C 199.786 -2.76504 -2.06494 0
M  V30 2120 C 198.899 -3.98158 -1.67612 0
M  V30 2121 C 198.034 -4.47088 -2.86854 0
M  V30 2122 C 197.073 -5.6126 -2.44242 0
M  V30 2123 N 196.21 -6.04905 -3.56419 0
M  V30 2124 H 201.05 -2.96313 -0.316625 0
M  V30 2125 H 198.587 -1.46388 -0.144588 0
M  V30 2126 H 200.545 -3.09925 -2.79289 0
M  V30 2127 H 199.175 -1.98512 -2.54545 0
M  V30 2128 H 198.227 -3.70858 -0.846661 0
M  V30 2129 H 199.539 -4.80934 -1.32301 0
M  V30 2130 H 198.693 -4.82451 -3.67867 0
M  V30 2131 H 197.432 -3.63275 -3.25396 0
M  V30 2132 H 196.437 -5.25495 -1.61663 0
M  V30 2133 H 197.662 -6.46843 -2.0681 0
M  V30 2134 H 195.608 -5.24032 -3.94623 0
M  V30 2135 H 195.525 -6.82552 -3.25051 0
M  V30 2136 H 196.793 -6.44907 -4.37853 0
M  V30 2137 N 201.022 0.148545 -1.56898 0
M  V30 2138 C 201.985 1.16736 -1.97244 0
M  V30 2139 C 202.985 1.35947 -0.858777 0
M  V30 2140 O 204.175 1.32966 -1.12542 0
M  V30 2141 C 201.307 2.52798 -2.28705 0
M  V30 2142 H 202.5 0.821279 -2.88435 0
M  V30 2143 H 200.053 0.391831 -1.51309 0
M  V30 2144 H 200.788 2.92381 -1.403 0
M  V30 2145 H 200.573 2.40216 -3.09901 0
M  V30 2146 H 202.063 3.26179 -2.60762 0
M  V30 2147 N 202.5 1.5196 0.417844 0
M  V30 2148 C 203.43 1.77634 1.51554 0
M  V30 2149 C 204.411 0.626918 1.58126 0
M  V30 2150 O 205.596 0.871632 1.7354 0
M  V30 2151 C 202.726 1.91911 2.8946 0
M  V30 2152 C 201.68 3.07463 2.97743 0
M  V30 2153 C 201.006 3.06951 4.37819 0
M  V30 2154 C 202.306 4.47082 2.70027 0
M  V30 2155 H 204 2.6955 1.3032 0
M  V30 2156 H 201.546 1.29706 0.625492 0
M  V30 2157 H 203.499 2.08455 3.6623 0
M  V30 2158 H 202.223 0.966598 3.11969 0
M  V30 2159 H 200.882 2.90656 2.23416 0
M  V30 2160 H 200.53 2.09438 4.57323 0
M  V30 2161 H 200.23 3.84556 4.44286 0
M  V30 2162 H 201.754 3.25613 5.16535 0
M  V30 2163 H 203.168 4.6414 3.36522 0
M  V30 2164 H 201.565 5.2654 2.87881 0
M  V30 2165 H 202.635 4.55777 1.65514 0
M  V30 2166 N 203.978 -0.674533 1.42435 0
M  V30 2167 C 205.206 -1.46283 1.46317 0
M  V30 2168 C 205.621 -1.88653 0.0745836 0
M  V30 2169 O 204.978 -1.58151 -0.91074 0
M  V30 2170 C 205.029 -2.71178 2.3905 0
M  V30 2171 O 204.75 -2.30586 3.72507 0
M  V30 2172 C 206.251 -3.64738 2.51955 0
M  V30 2173 H 203.471 -0.450104 0.497642 0
M  V30 2174 H 206.015 -0.828792 1.86953 0
M  V30 2175 H 204.17 -3.3077 2.01667 0
M  V30 2176 H 204.584 -3.11241 4.22172 0
M  V30 2177 H 206.058 -4.49096 3.20962 0
M  V30 2178 H 206.535 -4.10656 1.55752 0
M  V30 2179 H 207.141 -3.11038 2.90061 0
M  V30 2180 N 205.456 -1.28612 -0.910864 0
M  V30 2181 C 206.419 -1.12803 -1.9952 0
M  V30 2182 C 207.419 -0.0668264 -1.60661 0
M  V30 2183 O 208.609 -0.312847 -1.71368 0
M  V30 2184 C 205.741 -0.72254 -3.33155 0
M  V30 2185 H 206.934 -2.09109 -2.14973 0
M  V30 2186 H 204.487 -1.11639 -1.09391 0
M  V30 2187 H 205.222 0.241152 -3.23402 0
M  V30 2188 H 205.007 -1.48916 -3.62721 0
M  V30 2189 H 206.497 -0.634666 -4.12749 0
M  V30 2190 N 206.934 1.1197 -1.10907 0
M  V30 2191 C 207.844 2.21433 -0.774896 0
M  V30 2192 C 208.86 1.72478 0.229657 0
M  V30 2193 O 210.036 2.01288 0.0672008 0
M  V30 2194 C 207.101 3.4602 -0.216986 0
M  V30 2195 C 206.162 4.09791 -1.27944 0
M  V30 2196 C 205.395 5.28431 -0.748055 0
M  V30 2197 O 205.618 5.68823 0.423833 0
M  V30 2198 O 204.552 5.82644 -1.51027 0
M  V30 2199 H 208.378 2.5242 -1.68873 0
M  V30 2200 H 205.963 1.20399 -0.884555 0
M  V30 2201 H 207.845 4.21304 0.090059 0
M  V30 2202 H 206.52 3.16698 0.669633 0
M  V30 2203 H 205.427 3.36265 -1.63941 0
M  V30 2204 H 206.76 4.4328 -2.13925 0
M  V30 2205 N 208.412 0.89855 1.29475 0
M  V30 2206 C 209.342 0.39201 2.30186 0
M  V30 2207 C 210.323 -0.532359 1.61555 0
M  V30 2208 O 211.508 -0.443331 1.89072 0
M  V30 2209 C 208.638 -0.382353 3.45189 0
M  V30 2210 C 207.592 0.451483 4.25612 0
M  V30 2211 C 206.918 -0.450307 5.328 0
M  V30 2212 C 208.218 1.70079 4.93832 0
M  V30 2213 H 209.912 1.23362 2.72804 0
M  V30 2214 H 207.458 0.594638 1.31149 0
M  V30 2215 H 209.411 -0.747451 4.14718 0
M  V30 2216 H 208.135 -1.25774 3.01411 0
M  V30 2217 H 206.794 0.798897 3.57789 0
M  V30 2218 H 206.442 -1.32379 4.85268 0
M  V30 2219 H 206.142 0.103902 5.87508 0
M  V30 2220 H 207.666 -0.811623 6.05182 0
M  V30 2221 H 209.08 1.40549 5.55805 0
M  V30 2222 H 207.477 2.19623 5.58467 0
M  V30 2223 H 208.547 2.43744 4.19186 0
M  V30 2224 N 209.89 -1.43072 0.660911 0
M  V30 2225 C 210.837 -2.30785 -0.0259884 0
M  V30 2226 C 211.807 -1.45184 -0.806888 0
M  V30 2227 O 212.992 -1.74041 -0.781943 0
M  V30 2228 C 210.132 -3.30861 -0.981067 0
M  V30 2229 C 209.245 -4.31558 -0.195458 0
M  V30 2230 C 208.38 -5.18712 -1.14503 0
M  V30 2231 C 207.419 -6.11097 -0.350299 0
M  V30 2232 N 206.556 -6.90849 -1.25186 0
M  V30 2233 H 211.396 -2.88975 0.727846 0
M  V30 2234 H 208.933 -1.42353 0.370682 0
M  V30 2235 H 210.891 -3.87399 -1.54849 0
M  V30 2236 H 209.521 -2.74304 -1.70169 0
M  V30 2237 H 208.573 -3.77252 0.488374 0
M  V30 2238 H 209.885 -4.9701 0.422176 0
M  V30 2239 H 209.039 -5.79914 -1.78284 0
M  V30 2240 H 207.778 -4.53404 -1.79656 0
M  V30 2241 H 206.783 -5.48976 0.300808 0
M  V30 2242 H 208.008 -6.7845 0.296941 0
M  V30 2243 H 205.954 -6.28182 -1.89005 0
M  V30 2244 H 205.871 -7.52854 -0.688971 0
M  V30 2245 H 207.139 -7.5655 -1.87757 0
M  V30 2246 N 211.368 -0.403325 -1.52352 0
M  V30 2247 C 212.614 0.174605 -2.02047 0
M  V30 2248 C 212.947 1.45282 -1.28867 0
M  V30 2249 O 212.222 1.90483 -0.393257 0
M  V30 2250 C 212.505 0.428238 -3.57545 0
M  V30 2251 C 212.358 -0.866248 -4.4138 0
M  V30 2252 C 213.677 1.21287 -4.23057 0
M  V30 2253 H 210.796 0.0619851 -0.734389 0
M  V30 2254 H 213.438 -0.53565 -1.82293 0
M  V30 2255 H 211.588 1.03327 -3.74507 0
M  V30 2256 H 213.26 -1.50265 -4.3614 0
M  V30 2257 H 211.503 -1.47851 -4.07827 0
M  V30 2258 H 212.174 -0.643249 -5.48239 0
M  V30 2259 H 214.65 0.700703 -4.10158 0
M  V30 2260 H 213.526 1.35909 -5.31808 0
M  V30 2261 H 213.787 2.23193 -3.81625 0
M  V30 2262 N 212.846 1.57033 -0.133567 0
M  V30 2263 C 214.076 1.99754 0.527429 0
M  V30 2264 C 214.484 1.01245 1.59832 0
M  V30 2265 O 213.827 -0.000645496 1.837 0
M  V30 2266 C 213.889 3.38903 1.19939 0
M  V30 2267 C 213.553 4.56174 0.274709 0
M  V30 2268 C 214.55 5.17563 -0.492398 0
M  V30 2269 C 212.235 5.01972 0.18153 0
M  V30 2270 C 214.229 6.2315 -1.34027 0
M  V30 2271 C 211.916 6.07416 -0.669958 0
M  V30 2272 C 212.914 6.67874 -1.42947 0
M  V30 2273 O 212.602 7.71279 -2.2668 0
M  V30 2274 H 212.334 0.660702 0.142999 0
M  V30 2275 H 214.888 2.04207 -0.221099 0
M  V30 2276 H 213.118 3.31248 1.99528 0
M  V30 2277 H 214.807 3.65818 1.75875 0
M  V30 2278 H 215.573 4.83087 -0.430367 0
M  V30 2279 H 211.452 4.54652 0.762422 0
M  V30 2280 H 214.996 6.70268 -1.93357 0
M  V30 2281 H 210.893 6.41321 -0.73333 0
M  V30 2282 H 211.661 7.88441 -2.1978 0
M  V30 2283 N 214.325 -0.140222 1.56975 0
M  V30 2284 C 215.55 -0.870414 1.88251 0
M  V30 2285 C 215.975 -1.73637 0.723312 0
M  V30 2286 O 215.333 -1.78329 -0.32689 0
M  V30 2287 C 215.381 -1.69737 3.18154 0
M  V30 2288 O 214.485 -2.80229 3.02565 0
M  V30 2289 H 213.826 -0.242025 0.61832 0
M  V30 2290 H 216.356 -0.128999 2.04193 0
M  V30 2291 H 216.366 -2.09099 3.50345 0
M  V30 2292 H 215.041 -1.06152 4.02125 0
M  V30 2293 H 213.618 -2.44224 2.81796 0
M  V30 2294 N 215.803 -1.52179 -0.40978 0
M  V30 2295 C 217.049 -1.66453 -1.15851 0
M  V30 2296 C 217.382 -0.392972 -1.90182 0
M  V30 2297 O 216.657 0.608579 -1.84734 0
M  V30 2298 C 216.94 -2.88612 -2.15349 0
M  V30 2299 C 216.793 -4.25815 -1.44918 0
M  V30 2300 C 218.112 -3.06294 -3.16026 0
M  V30 2301 H 215.231 -0.60575 -0.419805 0
M  V30 2302 H 217.873 -1.84732 -0.444314 0
M  V30 2303 H 216.023 -2.73158 -2.76255 0
M  V30 2304 H 217.695 -4.52995 -0.871365 0
M  V30 2305 H 215.938 -4.27247 -0.751159 0
M  V30 2306 H 216.609 -5.07337 -2.17516 0
M  V30 2307 H 219.085 -3.20641 -2.65195 0
M  V30 2308 H 217.961 -3.93283 -3.8291 0
M  V30 2309 H 218.222 -2.19579 -3.83715 0
M  V30 2310 N 217.281 0.66697 -1.42791 0
M  V30 2311 C 218.53 1.42278 -1.42968 0
M  V30 2312 C 218.843 1.9553 -0.0524489 0
M  V30 2313 O 220.049 2.71414 0.068363 0
M  V30 2314 C 218.505 2.57418 -2.51524 0
M  V30 2315 C 218.113 2.10832 -3.9529 0
M  V30 2316 C 219.857 3.34878 -2.60877 0
M  V30 2317 C 217.764 3.23101 -4.95338 0
M  V30 2318 H 216.694 0.534533 -0.531781 0
M  V30 2319 H 219.345 0.721302 -1.68729 0
M  V30 2320 H 217.727 3.29971 -2.18941 0
M  V30 2321 H 218.901 1.4538 -4.37266 0
M  V30 2322 H 217.216 1.46289 -3.89857 0
M  V30 2323 H 219.813 4.18505 -3.32802 0
M  V30 2324 H 220.156 3.81993 -1.6549 0
M  V30 2325 H 220.689 2.69398 -2.92693 0
M  V30 2326 H 217.428 2.80969 -5.9223 0
M  V30 2327 H 216.948 3.87309 -4.57987 0
M  V30 2328 H 218.627 3.88447 -5.17415 0
M  V30 2329 N 218.759 1.29093 0.90403 0
M  V30 2330 C 219.691 1.09658 2.01266 0
M  V30 2331 C 220.704 0.0453729 1.62737 0
M  V30 2332 O 221.893 0.289446 1.76138 0
M  V30 2333 C 218.993 0.646278 3.32681 0
M  V30 2334 C 218.166 1.77505 3.99763 0
M  V30 2335 C 217.225 1.31649 5.09465 0
M  V30 2336 O 216.251 2.02045 5.32134 0
M  V30 2337 N 217.453 0.184997 5.80205 0
M  V30 2338 H 220.218 2.05135 2.18494 0
M  V30 2339 H 217.779 1.20975 1.07594 0
M  V30 2340 H 219.771 0.322906 4.0341 0
M  V30 2341 H 218.341 -0.215916 3.11853 0
M  V30 2342 H 217.561 2.26752 3.22455 0
M  V30 2343 H 218.849 2.53198 4.41325 0
M  V30 2344 H 218.247 -0.402021 5.6427 0
M  V30 2345 H 216.804 -0.0790358 6.51752 0
M  V30 2346 N 220.237 -1.11381 1.11499 0
M  V30 2347 C 221.462 -1.87475 0.887019 0
M  V30 2348 C 221.887 -1.79639 -0.557796 0
M  V30 2349 O 221.245 -1.15924 -1.39396 0
M  V30 2350 C 221.293 -3.34213 1.35403 0
M  V30 2351 O 220.397 -4.0903 0.526146 0
M  V30 2352 H 219.738 -0.582099 0.319463 0
M  V30 2353 H 222.268 -1.40785 1.48461 0
M  V30 2354 H 222.278 -3.8506 1.34881 0
M  V30 2355 H 220.953 -3.39232 2.40612 0
M  V30 2356 H 219.53 -3.68082 0.597522 0
M  V30 2357 N 221.715 -0.905404 -1.28997 0
M  V30 2358 C 222.647 -0.344748 -2.26592 0
M  V30 2359 C 223.66 0.512135 -1.54535 0
M  V30 2360 O 224.849 0.328368 -1.75454 0
M  V30 2361 C 221.949 0.526587 -3.34784 0
M  V30 2362 C 221.122 -0.305871 -4.36329 0
M  V30 2363 C 220.181 0.499209 -5.23827 0
M  V30 2364 O 219.207 -0.0853004 -5.69136 0
M  V30 2365 N 220.409 1.80408 -5.51755 0
M  V30 2366 H 223.174 -1.18359 -2.75338 0
M  V30 2367 H 220.735 -0.770481 -1.42391 0
M  V30 2368 H 222.727 1.07171 -3.90252 0
M  V30 2369 H 221.297 1.26613 -2.85811 0
M  V30 2370 H 220.517 -1.0324 -3.80441 0
M  V30 2371 H 221.805 -0.875773 -5.01206 0
M  V30 2372 H 221.203 2.3016 -5.16762 0
M  V30 2373 H 219.76 2.29621 -6.10014 0
M  V30 2374 N 223.193 1.4272 -0.668489 0
M  V30 2375 C 224.442 2.00846 -0.185389 0
M  V30 2376 C 224.755 1.53442 1.21305 0
M  V30 2377 O 225.961 2.03944 1.79218 0
M  V30 2378 C 224.417 3.58805 -0.280591 0
M  V30 2379 C 224.025 4.15198 -1.68268 0
M  V30 2380 C 225.769 4.24255 0.14412 0
M  V30 2381 C 223.676 5.655 -1.73099 0
M  V30 2382 H 222.606 0.751145 -0.0655475 0
M  V30 2383 H 225.257 1.63516 -0.832752 0
M  V30 2384 H 223.639 3.93608 0.434553 0
M  V30 2385 H 224.813 3.91866 -2.42441 0
M  V30 2386 H 223.128 3.62176 -2.05469 0
M  V30 2387 H 225.725 5.34547 0.128086 0
M  V30 2388 H 226.068 3.99277 1.17827 0
M  V30 2389 H 226.601 3.94389 -0.519798 0
M  V30 2390 H 223.34 5.95268 -2.74475 0
M  V30 2391 H 222.86 5.90842 -1.03274 0
M  V30 2392 H 224.539 6.29808 -1.48158 0
M  V30 2393 N 224.671 0.411399 1.52136 0
M  V30 2394 C 225.619 -0.427633 2.28635 0
M  V30 2395 C 226.613 -1.04383 1.33419 0
M  V30 2396 O 227.819 -0.981772 1.50868 0
M  V30 2397 H 224.194 -0.156689 0.735495 0
M  V30 2398 H 226.165 0.238761 2.97443 0
M  V30 2399 C 224.914 -1.53082 3.12188 0
M  V30 2400 H 224.237 -1.06601 3.85326 0
M  V30 2401 H 225.677 -2.09167 3.68816 0
M  V30 2402 C 224.136 -2.49946 2.25895 0
M  V30 2403 O 224.666 -3.53884 1.90076 0
M  V30 2404 N 222.872 -2.2021 1.8962 0
M  V30 2405 H 222.419 -1.35719 2.18948 0
M  V30 2406 H 222.377 -2.85266 1.32176 0
M  V30 2407 N 226.149 -1.5696 0.141893 0
M  V30 2408 C 227.112 -2.15316 -0.785587 0
M  V30 2409 C 228.112 -1.09366 -1.1788 0
M  V30 2410 O 229.302 -1.35031 -1.10056 0
M  V30 2411 C 226.434 -2.71211 -2.06537 0
M  V30 2412 H 227.627 -2.98608 -0.278041 0
M  V30 2413 H 225.18 -1.5593 -0.107519 0
M  V30 2414 H 225.915 -1.91571 -2.6167 0
M  V30 2415 H 225.7 -3.4872 -1.79268 0
M  V30 2416 H 227.19 -3.16189 -2.72789 0
M  V30 2417 N 227.627 0.131896 -1.57047 0
M  V30 2418 C 228.59 1.14638 -1.98471 0
M  V30 2419 C 229.59 1.35029 -0.873148 0
M  V30 2420 O 230.78 1.31764 -1.13946 0
M  V30 2421 C 227.912 2.50358 -2.31373 0
M  V30 2422 H 229.105 0.79064 -2.8929 0
M  V30 2423 H 226.658 0.375761 -1.51716 0
M  V30 2424 H 227.393 2.90876 -1.43393 0
M  V30 2425 H 227.178 2.36915 -3.12432 0
M  V30 2426 H 228.668 3.23395 -2.64207 0
M  V30 2427 N 229.106 1.52395 0.401703 0
M  V30 2428 C 230.036 1.79231 1.49661 0
M  V30 2429 C 231.017 0.643654 1.57452 0
M  V30 2430 O 232.202 0.889989 1.72606 0
M  V30 2431 C 229.332 1.94971 2.87409 0
M  V30 2432 C 228.286 3.10604 2.94465 0
M  V30 2433 C 227.612 3.11577 4.34538 0
M  V30 2434 C 228.912 4.49921 2.6527 0
M  V30 2435 H 230.606 2.70917 1.27454 0
M  V30 2436 H 228.152 1.30362 0.6117 0
M  V30 2437 H 230.105 2.12328 3.63999 0
M  V30 2438 H 228.829 0.999632 3.10926 0
M  V30 2439 H 227.488 2.93009 2.20321 0
M  V30 2440 H 227.136 2.14277 4.55076 0
M  V30 2441 H 226.836 3.89247 4.40183 0
M  V30 2442 H 228.36 3.31073 5.13053 0
M  V30 2443 H 229.774 4.67683 3.31581 0
M  V30 2444 H 228.171 5.29564 2.82281 0
M  V30 2445 H 229.241 4.57507 1.60671 0
M  V30 2446 N 230.584 -0.659388 1.43143 0
M  V30 2447 C 231.809 -1.45221 1.48073 0
M  V30 2448 C 232.234 -1.87845 0.097995 0
M  V30 2449 O 231.592 -1.56985 -0.90694 0
M  V30 2450 C 231.64 -2.66748 2.42647 0
M  V30 2451 O 230.744 -3.65583 1.90848 0
M  V30 2452 H 230.085 -0.435669 0.501088 0
M  V30 2453 H 232.615 -0.807432 1.87994 0
M  V30 2454 H 232.625 -3.14637 2.59745 0
M  V30 2455 H 231.3 -2.35067 3.43098 0
M  V30 2456 H 229.877 -3.24693 1.83381 0
M  V30 2457 N 232.062 -1.29571 -0.897171 0
M  V30 2458 C 233.025 -1.14913 -1.98312 0
M  V30 2459 C 234.025 -0.0838629 -1.60581 0
M  V30 2460 O 235.215 -0.331006 -1.71026 0
M  V30 2461 C 232.347 -0.757835 -3.3237 0
M  V30 2462 H 233.54 -2.11377 -2.12743 0
M  V30 2463 H 231.093 -1.12793 -1.08201 0
M  V30 2464 H 231.828 0.206837 -3.2364 0
M  V30 2465 H 231.613 -1.52755 -3.61121 0
M  V30 2466 H 233.103 -0.678408 -4.12053 0
M  V30 2467 N 233.54 1.10788 -1.12088 0
M  V30 2468 C 234.487 2.17025 -0.785407 0
M  V30 2469 C 235.457 1.64265 0.246191 0
M  V30 2470 O 236.642 1.90412 0.121584 0
M  V30 2471 C 233.782 3.44249 -0.242177 0
M  V30 2472 C 232.895 4.1098 -1.33115 0
M  V30 2473 C 232.03 5.25911 -0.747741 0
M  V30 2474 C 231.069 5.84538 -1.81609 0
M  V30 2475 N 230.206 6.90853 -1.25167 0
M  V30 2476 H 235.046 2.45066 -1.69548 0
M  V30 2477 H 232.583 1.20297 -0.846582 0
M  V30 2478 H 234.541 4.17101 0.0908026 0
M  V30 2479 H 233.171 3.16571 0.631072 0
M  V30 2480 H 232.223 3.36133 -1.78097 0
M  V30 2481 H 233.535 4.50601 -2.13917 0
M  V30 2482 H 232.689 6.056 -0.365216 0
M  V30 2483 H 231.428 4.87614 0.0915188 0
M  V30 2484 H 230.433 5.03522 -2.20785 0
M  V30 2485 H 231.658 6.249 -2.6585 0
M  V30 2486 H 229.604 6.54562 -0.434174 0
M  V30 2487 H 229.521 7.29166 -1.99633 0
M  V30 2488 H 230.789 7.7433 -0.896259 0
M  V30 2489 N 235.018 0.912232 1.28515 0
M  V30 2490 C 235.95 0.35676 2.26406 0
M  V30 2491 C 236.963 -0.503933 1.54804 0
M  V30 2492 O 238.152 -0.319059 1.75625 0
M  V30 2493 C 235.252 -0.508825 3.35058 0
M  V30 2494 C 234.425 0.329007 4.36161 0
M  V30 2495 C 233.484 -0.471422 5.24084 0
M  V30 2496 O 232.51 0.115482 5.69083 0
M  V30 2497 N 233.712 -1.77479 5.52704 0
M  V30 2498 H 236.477 1.19818 2.74707 0
M  V30 2499 H 234.038 0.778022 1.4198 0
M  V30 2500 H 236.03 -1.051 3.90815 0
M  V30 2501 H 234.6 -1.25095 2.86478 0
M  V30 2502 H 233.82 1.05256 3.79888 0
M  V30 2503 H 235.108 0.90234 5.00735 0
M  V30 2504 H 234.506 -2.27417 5.17975 0
M  V30 2505 H 233.063 -2.26382 6.11224 0
M  V30 2506 N 236.496 -1.42363 0.676048 0
M  V30 2507 C 237.744 -2.01123 0.198437 0
M  V30 2508 C 238.065 -1.53731 -1.19966 0
M  V30 2509 O 237.335 -0.759518 -1.80577 0
M  V30 2510 H 235.915 -0.743678 0.0703721 0
M  V30 2511 H 238.577 -1.74263 0.872837 0
M  V30 2512 H 237.673 -3.11454 0.200686 0
M  V30 2513 N 237.974 -0.419461 -1.51915 0
M  V30 2514 C 239.223 0.154346 -2.01109 0
M  V30 2515 C 239.536 1.45338 -1.30905 0
M  V30 2516 O 240.742 2.10906 -1.7097 0
M  V30 2517 C 239.198 0.325615 -3.58424 0
M  V30 2518 C 238.806 -0.961934 -4.37551 0
M  V30 2519 C 240.55 0.854155 -4.15818 0
M  V30 2520 C 238.457 -0.757287 -5.86531 0
M  V30 2521 H 237.387 0.0614563 -0.751491 0
M  V30 2522 H 240.038 -0.54649 -1.75173 0
M  V30 2523 H 238.42 1.08903 -3.80731 0
M  V30 2524 H 239.594 -1.7323 -4.26999 0
M  V30 2525 H 237.909 -1.41766 -3.91524 0
M  V30 2526 H 240.506 1.02346 -5.24814 0
M  V30 2527 H 240.849 1.83172 -3.73837 0
M  V30 2528 H 241.382 0.149528 -3.97519 0
M  V30 2529 H 238.121 -1.70671 -6.32892 0
M  V30 2530 H 237.641 -0.0264061 -5.99794 0
M  V30 2531 H 239.32 -0.403482 -6.45741 0
M  V30 2532 N 239.452 1.56882 -0.150215 0
M  V30 2533 C 240.868 1.58263 0.20617 0
M  V30 2534 C 241.068 1.16464 1.64434 0
M  V30 2535 O 240.124 0.866422 2.3717 0
M  V30 2536 C 241.437 3.00649 -0.0555025 0
M  V30 2537 C 242.985 3.12999 0.00795388 0
M  V30 2538 C 243.46 4.5744 -0.226429 0
M  V30 2539 N 244.951 4.62875 -0.173469 0
M  V30 2540 C 245.686 5.72454 -0.329288 0
M  V30 2541 N 245.182 6.90669 -0.543005 0
M  V30 2542 N 246.975 5.61467 -0.266666 0
M  V30 2543 H 239.126 1.82345 -1.08922 0
M  V30 2544 H 241.389 0.844149 -0.431413 0
M  V30 2545 H 241.095 3.3563 -1.05096 0
M  V30 2546 H 240.969 3.71337 0.66246 0
M  V30 2547 H 243.356 2.77857 0.993966 0
M  V30 2548 H 243.437 2.4479 -0.742388 0
M  V30 2549 H 243.081 4.93287 -1.20956 0
M  V30 2550 H 243.011 5.2378 0.544274 0
M  V30 2551 H 245.502 3.77898 -0.0130709 0
M  V30 2552 H 245.815 7.70045 -0.651922 0
M  V30 2553 H 244.16 6.92581 -0.579366 0
M  V30 2554 H 247.351 4.67992 -0.100441 0
M  V30 2555 H 247.524 6.46816 -0.391535 0
M  V30 2556 N 240.93 -0.123565 1.57115 0
M  V30 2557 C 242.179 -0.830704 1.83799 0
M  V30 2558 C 242.492 -1.81259 0.735158 0
M  V30 2559 O 243.698 -2.56558 0.888278 0
M  V30 2560 C 242.154 -1.52802 3.25852 0
M  V30 2561 C 241.762 -0.587356 4.44133 0
M  V30 2562 C 243.506 -2.22056 3.61789 0
M  V30 2563 C 241.413 -1.28764 5.77212 0
M  V30 2564 H 240.343 -0.313967 0.685522 0
M  V30 2565 H 242.994 -0.0834359 1.8331 0
M  V30 2566 H 241.376 -2.32175 3.20797 0
M  V30 2567 H 242.55 0.172829 4.60476 0
M  V30 2568 H 240.865 -0.00201892 4.164 0
M  V30 2569 H 243.462 -2.75131 4.58483 0
M  V30 2570 H 243.805 -2.99644 2.88997 0
M  V30 2571 H 244.338 -1.49576 3.68608 0
M  V30 2572 H 241.077 -0.55314 6.53162 0
M  V30 2573 H 240.597 -2.01995 5.64764 0
M  V30 2574 H 242.276 -1.8221 6.20813 0
M  V30 2575 N 242.408 -1.52605 -0.393616 0
M  V30 2576 C 243.685 -1.58001 -1.15304 0
M  V30 2577 C 244.065 -0.370385 -2.07825 0
M  V30 2578 O 243.413 0.641638 -2.19306 0
M  V30 2579 C 243.623 -2.91652 -1.91677 0
M  V30 2580 C 244.971 -3.4522 -2.47201 0
M  V30 2581 O 245.995 -2.93495 -2.01839 0
M  V30 2582 O 244.854 -4.35579 -3.3005 0
M  V30 2583 H 241.948 -0.637068 -0.527327 0
M  V30 2584 H 244.494 -1.64939 -0.399141 0
M  V30 2585 H 243.266 -3.71136 -1.23992 0
M  V30 2586 H 242.889 -2.88077 -2.74039 0
M  V30 2587 N 243.887 0.651787 -1.4349 0
M  V30 2588 C 244.85 1.74647 -1.48429 0
M  V30 2589 C 245.85 1.56513 -0.368817 0
M  V30 2590 O 247.04 1.62385 -0.630623 0
M  V30 2591 C 244.172 3.13533 -1.33827 0
M  V30 2592 H 245.365 1.71649 -2.4592 0
M  V30 2593 H 242.918 0.863573 -1.30277 0
M  V30 2594 H 243.653 3.22142 -0.37349 0
M  V30 2595 H 243.438 3.28101 -2.14691 0
M  V30 2596 H 244.928 3.93356 -1.40218 0
M  V30 2597 N 245.365 1.30045 0.890287 0
M  V30 2598 C 246.613 1.18327 1.63839 0
M  V30 2599 C 246.934 -0.263455 1.93212 0
M  V30 2600 O 246.204 -1.17856 1.56482 0
M  V30 2601 H 244.784 0.434933 0.607324 0
M  V30 2602 H 247.446 1.631 1.06698 0
M  V30 2603 H 246.542 1.74024 2.59079 0
M  V30 2604 N 246.843 -1.10192 1.12674 0
M  V30 2605 C 248.091 -1.81845 0.881861 0
M  V30 2606 C 248.412 -1.85737 -0.593867 0
M  V30 2607 O 247.682 -1.33724 -1.4316 0
M  V30 2608 H 246.262 -0.673432 0.323261 0
M  V30 2609 H 248.924 -1.33316 1.42172 0
M  V30 2610 H 248.02 -2.85288 1.2656 0
M  V30 2611 N 248.321 -0.919034 -1.28029 0
M  V30 2612 C 249.57 -0.550802 -1.94034 0
M  V30 2613 C 249.883 0.910877 -1.73096 0
M  V30 2614 O 251.089 1.3875 -2.33368 0
M  V30 2615 C 249.545 -0.934249 -3.47563 0
M  V30 2616 C 249.153 -2.41602 -3.7727 0
M  V30 2617 C 250.897 -0.636854 -4.19696 0
M  V30 2618 C 248.804 -2.73932 -5.24133 0
M  V30 2619 H 247.734 -0.202273 -0.726362 0
M  V30 2620 H 250.385 -1.11867 -1.45458 0
M  V30 2621 H 248.767 -0.295115 -3.94899 0
M  V30 2622 H 249.941 -3.10233 -3.40723 0
M  V30 2623 H 248.256 -2.68441 -3.18321 0
M  V30 2624 H 250.853 -0.855005 -5.2782 0
M  V30 2625 H 251.196 0.425575 -4.14119 0
M  V30 2626 H 251.729 -1.23469 -3.78154 0
M  V30 2627 H 248.468 -3.79049 -5.34792 0
M  V30 2628 H 247.988 -2.09942 -5.61858 0
M  V30 2629 H 249.667 -2.61215 -5.91925 0
M  V30 2630 N 249.799 1.42003 -0.683588 0
M  V30 2631 C 251.076 1.95112 -0.138075 0
M  V30 2632 C 251.456 1.62359 1.34918 0
M  V30 2633 O 250.804 0.924311 2.08971 0
M  V30 2634 C 251.014 3.46505 -0.416581 0
M  V30 2635 C 252.362 4.23254 -0.337834 0
M  V30 2636 O 253.386 3.54468 -0.35082 0
M  V30 2637 O 252.245 5.45743 -0.287596 0
M  V30 2638 H 249.339 0.826961 -0.00797996 0
M  V30 2639 H 251.885 1.51784 -0.758924 0
M  V30 2640 H 250.657 3.63582 -1.4465 0
M  V30 2641 H 250.28 3.969 0.235839 0
M  V30 2642 N 251.277 0.427512 1.51691 0
M  V30 2643 C 252.207 -0.3796 2.30394 0
M  V30 2644 C 253.188 -1.02982 1.35384 0
M  V30 2645 O 254.373 -1.03534 1.643 0
M  V30 2646 C 251.503 -1.48649 3.1388 0
M  V30 2647 C 250.457 -0.960294 4.17088 0
M  V30 2648 C 249.783 -2.16219 4.89033 0
M  V30 2649 C 251.083 -0.00153679 5.223 0
M  V30 2650 H 252.777 0.277164 2.98114 0
M  V30 2651 H 250.323 0.134739 1.43368 0
M  V30 2652 H 252.276 -2.05826 3.67714 0
M  V30 2653 H 251 -2.1714 2.43962 0
M  V30 2654 H 249.659 -0.410806 3.64291 0
M  V30 2655 H 249.307 -2.83307 4.15628 0
M  V30 2656 H 249.007 -1.81654 5.58816 0
M  V30 2657 H 250.531 -2.73968 5.45687 0
M  V30 2658 H 251.945 -0.482687 5.71264 0
M  V30 2659 H 250.342 0.256199 5.99553 0
M  V30 2660 H 251.412 0.938174 4.75738 0
M  V30 2661 N 252.755 -1.56801 0.158532 0
M  V30 2662 C 254.001 -1.96781 -0.490405 0
M  V30 2663 C 254.334 -1.04397 -1.63753 0
M  V30 2664 O 253.609 -0.0885805 -1.94298 0
M  V30 2665 C 253.892 -3.4635 -0.985594 0
M  V30 2666 C 253.745 -4.49512 0.160824 0
M  V30 2667 C 255.064 -3.98697 -1.86355 0
M  V30 2668 H 252.183 -0.715482 -0.176788 0
M  V30 2669 H 254.825 -1.88451 0.242088 0
M  V30 2670 H 252.975 -3.53579 -1.60978 0
M  V30 2671 H 254.647 -4.54353 0.797537 0
M  V30 2672 H 252.89 -4.26013 0.818256 0
M  V30 2673 H 253.561 -5.51531 -0.227569 0
M  V30 2674 H 256.037 -3.94019 -1.33746 0
M  V30 2675 H 254.913 -5.03792 -2.17909 0
M  V30 2676 H 255.174 -3.41744 -2.8047 0
M  V30 2677 N 254.233 0.115231 -1.57178 0
M  V30 2678 C 255.51 0.852873 -1.76027 0
M  V30 2679 C 255.89 1.97892 -0.73498 0
M  V30 2680 O 255.238 2.27232 0.24036 0
M  V30 2681 C 255.448 1.36608 -3.21153 0
M  V30 2682 C 256.796 1.81692 -3.83762 0
M  V30 2683 O 257.82 1.46278 -3.24779 0
M  V30 2684 O 256.679 2.47104 -4.87444 0
M  V30 2685 H 253.773 0.405296 -0.720877 0
M  V30 2686 H 256.319 0.0986785 -1.69413 0
M  V30 2687 H 255.091 0.558357 -3.87296 0
M  V30 2688 H 254.714 2.18287 -3.3232 0
M  V30 2689 N 255.711 1.52812 0.385517 0
M  V30 2690 C 257.122 1.5993 0.963293 0
M  V30 2691 C 257.473 0.454302 1.90868 0
M  V30 2692 O 256.598 -0.422132 2.12243 0
M  V30 2693 C 257.193 2.89871 1.75387 0
M  V30 2694 C 255.752 2.99389 2.28129 0
M  V30 2695 C 254.899 2.55071 1.08783 0
M  V30 2696 H 257.85 1.5784 0.164948 0
M  V30 2697 H 257.871 2.76553 2.61341 0
M  V30 2698 H 257.383 3.73186 1.06554 0
M  V30 2699 H 255.484 2.20619 3.00263 0
M  V30 2700 H 255.597 4.04096 2.57377 0
M  V30 2701 H 253.961 2.09473 1.4489 0
M  V30 2702 H 254.744 3.40785 0.414807 0
M  V30 2703 N 257.189 -0.644168 1.43834 0
M  V30 2704 C 258.417 -1.43147 1.49387 0
M  V30 2705 C 258.832 -1.88452 0.114583 0
M  V30 2706 O 258.189 -1.60047 -0.876989 0
M  V30 2707 C 258.24 -2.66046 2.44748 0
M  V30 2708 O 257.961 -2.22633 3.77314 0
M  V30 2709 C 259.462 -3.59311 2.59635 0
M  V30 2710 H 256.682 -0.439447 0.507077 0
M  V30 2711 H 259.226 -0.78895 1.88669 0
M  V30 2712 H 257.381 -3.26418 2.08638 0
M  V30 2713 H 257.795 -3.02216 4.28679 0
M  V30 2714 H 259.269 -4.42187 3.30416 0
M  V30 2715 H 259.746 -4.07259 1.64427 0
M  V30 2716 H 260.352 -3.04816 2.96593 0
M  V30 2717 N 258.668 -1.30515 -0.883378 0
M  V30 2718 C 259.598 -1.19607 -2.00541 0
M  V30 2719 C 260.579 -0.086346 -1.69881 0
M  V30 2720 O 261.764 -0.268654 -1.92333 0
M  V30 2721 C 258.894 -0.888758 -3.35736 0
M  V30 2722 C 257.848 -1.95659 -3.8066 0
M  V30 2723 C 257.174 -1.50224 -5.13164 0
M  V30 2724 C 258.474 -3.36788 -3.99213 0
M  V30 2725 H 260.168 -2.13476 -2.09925 0
M  V30 2726 H 257.714 -1.02775 -1.00863 0
M  V30 2727 H 259.667 -0.799094 -4.13754 0
M  V30 2728 H 258.391 0.0856125 -3.26488 0
M  V30 2729 H 257.05 -2.03591 -3.04871 0
M  V30 2730 H 256.698 -0.516092 -5.00345 0
M  V30 2731 H 256.398 -2.2165 -5.44192 0
M  V30 2732 H 257.922 -1.42639 -5.93706 0
M  V30 2733 H 259.336 -3.31605 -4.67665 0
M  V30 2734 H 257.733 -4.06314 -4.41621 0
M  V30 2735 H 258.803 -3.78561 -3.03017 0
M  V30 2736 N 260.146 1.09593 -1.13257 0
M  V30 2737 C 261.376 1.85231 -0.915049 0
M  V30 2738 C 261.784 1.81345 0.539498 0
M  V30 2739 O 261.127 1.20664 1.38513 0
M  V30 2740 C 261.189 3.34275 -1.3229 0
M  V30 2741 C 260.853 3.6191 -2.79052 0
M  V30 2742 C 261.85 3.57777 -3.77216 0
M  V30 2743 C 259.535 3.90309 -3.16171 0
M  V30 2744 C 261.529 3.81652 -5.1051 0
M  V30 2745 C 259.216 4.13839 -4.49644 0
M  V30 2746 C 260.214 4.09502 -5.46623 0
M  V30 2747 O 259.902 4.32426 -6.77689 0
M  V30 2748 H 259.634 0.591997 -0.326367 0
M  V30 2749 H 262.188 1.394 -1.50854 0
M  V30 2750 H 260.418 3.80805 -0.672667 0
M  V30 2751 H 262.107 3.9132 -1.07812 0
M  V30 2752 H 262.873 3.35865 -3.49885 0
M  V30 2753 H 258.752 3.92811 -2.41289 0
M  V30 2754 H 262.296 3.78182 -5.86195 0
M  V30 2755 H 258.193 4.35232 -4.767 0
M  V30 2756 H 258.961 4.49896 -6.83766 0
M  V30 2757 N 261.624 0.925811 1.2754 0
M  V30 2758 C 262.872 0.564138 1.94067 0
M  V30 2759 C 263.193 -0.897188 1.73134 0
M  V30 2760 O 262.463 -1.63573 1.07799 0
M  V30 2761 H 261.043 0.205645 0.718136 0
M  V30 2762 H 263.705 1.1778 1.55287 0
M  V30 2763 H 262.801 0.76881 3.02483 0
M  V30 2764 N 263.102 -1.41638 0.69111 0
M  V30 2765 C 264.332 -2.0533 0.228758 0
M  V30 2766 C 264.74 -1.52089 -1.12541 0
M  V30 2767 O 264.083 -0.662145 -1.71351 0
M  V30 2768 C 264.145 -3.59349 0.10407 0
M  V30 2769 C 263.809 -4.35362 1.38956 0
M  V30 2770 C 264.806 -4.64942 2.32648 0
M  V30 2771 C 262.491 -4.74714 1.64169 0
M  V30 2772 C 264.485 -5.32828 3.49818 0
M  V30 2773 C 262.172 -5.42338 2.81625 0
M  V30 2774 C 263.17 -5.71322 3.74273 0
M  V30 2775 O 262.858 -6.37554 4.89673 0
M  V30 2776 H 262.59 -0.667796 0.104997 0
M  V30 2777 H 265.144 -1.82477 0.942938 0
M  V30 2778 H 263.374 -3.80924 -0.665839 0
M  V30 2779 H 265.063 -4.04633 -0.320519 0
M  V30 2780 H 265.829 -4.35025 2.14425 0
M  V30 2781 H 261.708 -4.51538 0.929202 0
M  V30 2782 H 265.252 -5.55368 4.22152 0
M  V30 2783 H 261.149 -5.71673 2.99768 0
M  V30 2784 H 261.917 -6.56049 4.8943 0
M  V30 2785 N 264.58 -0.43555 -1.51462 0
M  V30 2786 C 265.543 0.365137 -2.26273 0
M  V30 2787 C 266.543 0.951227 -1.29647 0
M  V30 2788 O 267.733 0.825958 -1.53374 0
M  V30 2789 C 264.865 1.51645 -3.05314 0
M  V30 2790 H 266.058 -0.290474 -2.9849 0
M  V30 2791 H 263.611 -0.188676 -1.55157 0
M  V30 2792 H 264.346 2.20816 -2.3751 0
M  V30 2793 H 264.131 1.10238 -3.76284 0
M  V30 2794 H 265.621 2.08218 -3.61987 0
M  V30 2795 N 266.058 1.56714 -0.166846 0
M  V30 2796 C 267.304 1.97039 0.479962 0
M  V30 2797 C 267.637 1.05264 1.63197 0
M  V30 2798 O 266.912 0.0988833 1.94248 0
M  V30 2799 C 267.195 3.46867 0.967212 0
M  V30 2800 C 267.048 4.49421 -0.18466 0
M  V30 2801 C 268.367 3.9968 1.84238 0
M  V30 2802 H 265.486 0.71641 0.172992 0
M  V30 2803 H 268.128 1.8832 -0.252079 0
M  V30 2804 H 266.278 3.54428 1.59101 0
M  V30 2805 H 267.95 4.53924 -0.821621 0
M  V30 2806 H 266.193 4.25573 -0.840837 0
M  V30 2807 H 266.864 5.51644 0.198317 0
M  V30 2808 H 269.34 3.94723 1.31655 0
M  V30 2809 H 268.216 5.04941 2.15234 0
M  V30 2810 H 268.477 3.43226 2.78654 0
M  V30 2811 N 267.536 -0.106894 1.57237 0
M  V30 2812 C 268.784 -0.810921 1.85117 0
M  V30 2813 C 269.105 -1.7984 0.753827 0
M  V30 2814 O 268.375 -1.94649 -0.221056 0
M  V30 2815 H 266.955 -0.302466 0.683025 0
M  V30 2816 H 269.617 -0.0913324 1.94686 0
M  V30 2817 H 268.713 -1.34875 2.81452 0
M  V30 2818 N 269.014 -1.53014 -0.377408 0
M  V30 2819 C 270.291 -1.59215 -1.13622 0
M  V30 2820 C 270.671 -0.392407 -2.07421 0
M  V30 2821 O 270.019 0.618342 -2.19975 0
M  V30 2822 C 270.229 -2.93669 -1.88573 0
M  V30 2823 C 271.577 -3.47822 -2.43526 0
M  V30 2824 O 272.601 -2.9562 -1.98715 0
M  V30 2825 O 271.46 -4.39055 -3.25412 0
M  V30 2826 H 268.554 -0.642625 -0.52054 0
M  V30 2827 H 271.1 -1.65353 -0.381625 0
M  V30 2828 H 269.872 -3.7243 -1.20048 0
M  V30 2829 H 269.495 -2.90968 -2.70968 0
M  V30 2830 N 270.492 0.636531 -1.44174 0
M  V30 2831 C 271.903 1.21806 -1.41493 0
M  V30 2832 C 272.254 1.95785 -0.1275 0
M  V30 2833 O 271.379 2.02147 0.772376 0
M  V30 2834 C 271.974 2.21551 -2.56321 0
M  V30 2835 C 270.533 2.75143 -2.56853 0
M  V30 2836 C 269.68 1.50052 -2.33195 0
M  V30 2837 H 272.631 0.427531 -1.52833 0
M  V30 2838 H 272.652 3.0405 -2.28765 0
M  V30 2839 H 272.164 1.67679 -3.50008 0
M  V30 2840 H 270.265 3.33033 -1.67093 0
M  V30 2841 H 270.378 3.2155 -3.55165 0
M  V30 2842 H 268.742 1.77993 -1.82183 0
M  V30 2843 H 269.525 0.980903 -3.28988 0
M  V30 2844 N 271.97 1.30982 0.876444 0
M  V30 2845 C 273.386 1.09498 1.16113 0
M  V30 2846 C 273.586 -0.13875 2.01022 0
M  V30 2847 O 272.642 -0.829935 2.38471 0
M  V30 2848 C 273.955 2.36308 1.85954 0
M  V30 2849 C 275.503 2.41856 1.98683 0
M  V30 2850 C 275.978 3.6853 2.71937 0
M  V30 2851 N 277.469 3.69387 2.79477 0
M  V30 2852 C 278.204 4.64096 3.36753 0
M  V30 2853 N 277.7 5.69155 3.95012 0
M  V30 2854 N 279.493 4.51626 3.3465 0
M  V30 2855 H 271.644 2.10118 0.310494 0
M  V30 2856 H 273.907 0.926634 0.200131 0
M  V30 2857 H 273.613 3.26388 1.31011 0
M  V30 2858 H 273.487 2.4561 2.86278 0
M  V30 2859 H 275.874 1.52249 2.52793 0
M  V30 2860 H 275.955 2.36523 0.9742 0
M  V30 2861 H 275.599 4.58499 2.18496 0
M  V30 2862 H 275.529 3.71127 3.73593 0
M  V30 2863 H 278.02 2.93438 2.38123 0
M  V30 2864 H 278.333 6.3751 4.36808 0
M  V30 2865 H 276.678 5.72937 3.93406 0
M  V30 2866 H 279.869 3.68728 2.8837 0
M  V30 2867 H 280.042 5.25614 3.7899 0
M  V30 2868 N 273.449 -1.08991 1.13837 0
M  V30 2869 C 274.695 -1.81699 0.91417 0
M  V30 2870 C 275.05 -1.84264 -0.553594 0
M  V30 2871 O 274.343 -1.30313 -1.4046 0
M  V30 2872 C 274.537 -3.27042 1.44147 0
M  V30 2873 C 274.366 -3.38637 2.95897 0
M  V30 2874 C 273.136 -3.50177 3.64286 0
M  V30 2875 C 275.334 -3.30791 3.93804 0
M  V30 2876 N 273.316 -3.50501 5.04006 0
M  V30 2877 C 274.687 -3.38037 5.19741 0
M  V30 2878 C 276.742 -3.14488 3.86007 0
M  V30 2879 C 275.445 -3.30659 6.38793 0
M  V30 2880 C 277.471 -3.08438 5.04599 0
M  V30 2881 C 276.833 -3.1628 6.29402 0
M  V30 2882 H 272.932 -0.678967 0.387979 0
M  V30 2883 H 275.516 -1.30224 1.4474 0
M  V30 2884 H 273.687 -3.76976 0.935091 0
M  V30 2885 H 275.419 -3.87785 1.1578 0
M  V30 2886 H 272.174 -3.53815 3.1482 0
M  V30 2887 H 272.598 -3.54236 5.76928 0
M  V30 2888 H 277.24 -3.07291 2.90399 0
M  V30 2889 H 274.958 -3.36618 7.34652 0
M  V30 2890 H 278.544 -2.96952 5.0031 0
M  V30 2891 H 277.424 -3.1162 7.19627 0
M  V30 2892 N 274.927 -0.932562 -1.27047 0
M  V30 2893 C 275.874 -0.434072 -2.26681 0
M  V30 2894 C 276.844 0.501639 -1.58344 0
M  V30 2895 O 278.029 0.419734 -1.86126 0
M  V30 2896 C 275.169 0.30261 -3.43771 0
M  V30 2897 C 274.282 -0.667774 -4.26808 0
M  V30 2898 C 273.417 0.0892393 -5.31125 0
M  V30 2899 C 272.456 -0.873532 -6.05835 0
M  V30 2900 N 271.593 -0.148832 -7.01942 0
M  V30 2901 H 276.433 -1.28868 -2.68695 0
M  V30 2902 H 273.97 -0.646713 -1.32121 0
M  V30 2903 H 275.928 0.746092 -4.10474 0
M  V30 2904 H 274.558 1.12142 -3.02695 0
M  V30 2905 H 273.61 -1.22978 -3.59973 0
M  V30 2906 H 274.922 -1.40337 -4.78651 0
M  V30 2907 H 274.076 0.592409 -6.03801 0
M  V30 2908 H 272.815 0.85777 -4.80097 0
M  V30 2909 H 271.82 -1.38791 -5.31994 0
M  V30 2910 H 273.045 -1.64193 -6.58952 0
M  V30 2911 H 270.991 0.601365 -6.53238 0
M  V30 2912 H 270.908 -0.82391 -7.51497 0
M  V30 2913 H 272.176 0.333527 -7.78786 0
M  V30 2914 N 276.405 1.4127 -0.698611 0
M  V30 2915 C 277.682 1.94955 -0.158762 0
M  V30 2916 C 278.062 1.63781 1.33188 0
M  V30 2917 O 277.41 0.946423 2.07979 0
M  V30 2918 C 277.62 3.46044 -0.453309 0
M  V30 2919 C 278.968 4.22872 -0.382707 0
M  V30 2920 O 279.992 3.54076 -0.388396 0
M  V30 2921 O 278.851 5.45407 -0.345463 0
M  V30 2922 H 275.945 0.82683 -0.0167505 0
M  V30 2923 H 278.491 1.50971 -0.77498 0
M  V30 2924 H 277.263 3.62028 -1.48498 0
M  V30 2925 H 276.886 3.97128 0.19373 0
M  V30 2926 N 277.883 0.443576 1.51229 0
M  V30 2927 C 279.108 -0.121648 2.07043 0
M  V30 2928 C 279.533 -1.35156 1.30823 0
M  V30 2929 O 278.891 -1.7793 0.347934 0
M  V30 2930 C 278.939 -0.41624 3.5819 0
M  V30 2931 O 278.043 -1.50163 3.8409 0
M  V30 2932 H 277.384 0.000871367 0.663999 0
M  V30 2933 H 279.914 0.626706 1.94765 0
M  V30 2934 H 279.924 -0.664867 4.02546 0
M  V30 2935 H 278.599 0.482653 4.1309 0
M  V30 2936 H 277.176 -1.24248 3.51592 0
M  V30 2937 N 279.361 -1.56624 0.175154 0
M  V30 2938 C 280.772 -1.83561 -0.340916 0
M  V30 2939 C 281.123 -1.09511 -1.62794 0
M  V30 2940 O 280.248 -0.349389 -2.13561 0
M  V30 2941 C 280.843 -3.32979 -0.625313 0
M  V30 2942 C 279.402 -3.60399 -1.08581 0
M  V30 2943 C 278.549 -2.77024 -0.123722 0
M  V30 2944 H 281.5 -1.53593 0.399344 0
M  V30 2945 H 281.521 -3.50666 -1.47694 0
M  V30 2946 H 281.033 -3.86847 0.311575 0
M  V30 2947 H 279.134 -3.11945 -2.03767 0
M  V30 2948 H 279.247 -4.68711 -0.992317 0
M  V30 2949 H 277.611 -2.46993 -0.621821 0
M  V30 2950 H 278.394 -3.33674 0.807256 0
M  V30 2951 N 280.839 0.0985539 -1.57292 0
M  V30 2952 C 281.749 1.13824 -2.05137 0
M  V30 2953 C 282.765 1.44076 -0.975604 0
M  V30 2954 O 283.941 1.54786 -1.28853 0
M  V30 2955 C 281.006 2.43969 -2.46333 0
M  V30 2956 C 280.067 2.2093 -3.68087 0
M  V30 2957 C 279.3 3.44869 -4.0731 0
M  V30 2958 O 279.523 4.52972 -3.46659 0
M  V30 2959 O 278.457 3.34661 -5.00285 0
M  V30 2960 H 282.283 0.761881 -2.93988 0
M  V30 2961 H 279.868 0.310818 -1.46131 0
M  V30 2962 H 281.75 3.20609 -2.73473 0
M  V30 2963 H 280.425 2.81038 -1.60621 0
M  V30 2964 H 279.332 1.42081 -3.46069 0
M  V30 2965 H 280.665 1.88755 -4.54568 0
M  V30 2966 N 282.317 1.53212 0.369288 0
M  V30 2967 C 283.547 1.72868 1.13139 0
M  V30 2968 C 283.955 0.455754 1.83629 0
M  V30 2969 O 283.298 -0.580861 1.74275 0
M  V30 2970 C 283.36 2.83667 2.20847 0
M  V30 2971 C 283.024 4.24142 1.70155 0
M  V30 2972 C 284.021 5.06619 1.16763 0
M  V30 2973 C 281.706 4.70539 1.7578 0
M  V30 2974 C 283.7 6.33581 0.696678 0
M  V30 2975 C 281.387 5.97481 1.28297 0
M  V30 2976 C 282.385 6.78833 0.753307 0
M  V30 2977 O 282.073 8.03393 0.285475 0
M  V30 2978 H 281.805 0.581707 0.344373 0
M  V30 2979 H 284.359 2.00736 0.435243 0
M  V30 2980 H 282.589 2.51265 2.93944 0
M  V30 2981 H 284.278 2.91536 2.82421 0
M  V30 2982 H 285.044 4.71948 1.11758 0
M  V30 2983 H 280.923 4.07293 2.15949 0
M  V30 2984 H 284.467 6.97027 0.282581 0
M  V30 2985 H 280.364 6.31651 1.32994 0
M  V30 2986 H 281.132 8.17497 0.405145 0
M  V30 2987 N 283.795 -0.628877 1.44509 0
M  V30 2988 C 284.758 -1.72263 1.51188 0
M  V30 2989 C 285.758 -1.55907 0.39367 0
M  V30 2990 O 286.948 -1.61361 0.656377 0
M  V30 2991 C 284.08 -3.11365 1.38798 0
M  V30 2992 H 285.273 -1.67714 2.4862 0
M  V30 2993 H 282.826 -0.842737 1.31634 0
M  V30 2994 H 283.561 -3.21507 0.424693 0
M  V30 2995 H 283.346 -3.24644 2.19884 0
M  V30 2996 H 284.836 -3.91075 1.46458 0
M  V30 2997 N 285.273 -1.31445 -0.869486 0
M  V30 2998 C 286.203 -1.21727 -1.99261 0
M  V30 2999 C 287.184 -0.104359 -1.6978 0
M  V30 3000 O 288.369 -0.289038 -1.92037 0
M  V30 3001 C 285.499 -0.924317 -3.34774 0
M  V30 3002 C 284.453 -1.99685 -3.78563 0
M  V30 3003 C 283.779 -1.55658 -5.11541 0
M  V30 3004 C 285.079 -3.41003 -3.95619 0
M  V30 3005 H 286.773 -2.1569 -2.07649 0
M  V30 3006 H 284.319 -1.03839 -0.997675 0
M  V30 3007 H 286.272 -0.842934 -4.12883 0
M  V30 3008 H 284.996 0.0509793 -3.2656 0
M  V30 3009 H 283.655 -2.06813 -3.02694 0
M  V30 3010 H 283.303 -0.569132 -4.9977 0
M  V30 3011 H 283.003 -2.27409 -5.41811 0
M  V30 3012 H 284.527 -1.48928 -5.92159 0
M  V30 3013 H 285.941 -3.36547 -4.64122 0
M  V30 3014 H 284.338 -4.10975 -4.37286 0
M  V30 3015 H 285.408 -3.81754 -2.98985 0
M  V30 3016 N 286.751 1.08385 -1.14413 0
M  V30 3017 C 287.681 2.17321 -0.854044 0
M  V30 3018 C 288.662 1.69024 0.191049 0
M  V30 3019 O 289.847 1.94141 0.0476779 0
M  V30 3020 C 286.977 3.45719 -0.330983 0
M  V30 3021 C 285.931 4.07409 -1.31155 0
M  V30 3022 C 285.257 5.30762 -0.64778 0
M  V30 3023 C 286.557 4.48665 -2.67388 0
M  V30 3024 H 288.251 2.41845 -1.76498 0
M  V30 3025 H 285.797 1.16233 -0.850051 0
M  V30 3026 H 287.75 4.21241 -0.115645 0
M  V30 3027 H 286.474 3.2075 0.615381 0
M  V30 3028 H 285.133 3.33919 -1.51306 0
M  V30 3029 H 284.781 5.02078 0.304398 0
M  V30 3030 H 284.481 5.72992 -1.30207 0
M  V30 3031 H 286.005 6.08998 -0.441972 0
M  V30 3032 H 287.419 5.15364 -2.51143 0
M  V30 3033 H 285.816 5.01814 -3.29093 0
M  V30 3034 H 286.886 3.60543 -3.24248 0
M  V30 3035 N 288.23 0.939286 1.26551 0
M  V30 3036 C 289.455 0.602008 1.98471 0
M  V30 3037 C 289.88 -0.815624 1.69497 0
M  V30 3038 O 289.238 -1.54912 0.941905 0
M  V30 3039 C 289.286 0.848407 3.50477 0
M  V30 3040 O 288.39 -0.0804009 4.12322 0
M  V30 3041 H 287.731 0.23049 0.622712 0
M  V30 3042 H 290.261 1.2617 1.61066 0
M  V30 3043 H 290.271 0.768553 4.00696 0
M  V30 3044 H 288.946 1.88171 3.70897 0
M  V30 3045 H 287.523 0.0503508 3.72866 0
M  V30 3046 N 289.708 -1.40897 0.706093 0
M  V30 3047 C 290.656 -2.32572 0.0361893 0
M  V30 3048 C 291.65 -1.51532 -0.757266 0
M  V30 3049 O 292.856 -1.67396 -0.661703 0
M  V30 3050 H 289.231 -0.751966 -0.00709935 0
M  V30 3051 H 291.202 -2.86733 0.826249 0
M  V30 3052 C 289.951 -3.36418 -0.87854 0
M  V30 3053 H 289.274 -3.98836 -0.277401 0
M  V30 3054 H 290.714 -4.0308 -1.3154 0
M  V30 3055 C 289.173 -2.71141 -1.99961 0
M  V30 3056 O 289.703 -2.56735 -3.0895 0
M  V30 3057 N 287.909 -2.29671 -1.78043 0
M  V30 3058 H 287.456 -2.41588 -0.894042 0
M  V30 3059 H 287.414 -1.86332 -2.53235 0
M  V30 3060 N 291.186 -0.45159 -1.50991 0
M  V30 3061 C 292.116 0.342898 -2.30969 0
M  V30 3062 C 293.097 1.00815 -1.37005 0
M  V30 3063 O 294.282 1.00907 -1.65926 0
M  V30 3064 C 291.412 1.43637 -3.16205 0
M  V30 3065 C 290.366 0.893818 -4.18563 0
M  V30 3066 C 289.692 2.08411 -4.92411 0
M  V30 3067 C 290.992 -0.0815568 -5.22236 0
M  V30 3068 H 292.686 -0.324556 -2.97636 0
M  V30 3069 H 290.232 -0.157531 -1.43136 0
M  V30 3070 H 292.185 1.9995 -3.70942 0
M  V30 3071 H 290.909 2.13232 -2.47386 0
M  V30 3072 H 289.568 0.352798 -3.64898 0
M  V30 3073 H 289.216 2.76658 -4.20082 0
M  V30 3074 H 288.916 1.72741 -5.61636 0
M  V30 3075 H 290.44 2.65251 -5.49976 0
M  V30 3076 H 291.854 0.391742 -5.7196 0
M  V30 3077 H 290.251 -0.351551 -5.99069 0
M  V30 3078 H 291.321 -1.01374 -4.74185 0
M  V30 3079 N 292.664 1.56529 -0.183458 0
M  V30 3080 C 293.941 1.88959 0.50536 0
M  V30 3081 C 294.321 1.09523 1.80466 0
M  V30 3082 O 293.669 0.19278 2.27685 0
M  V30 3083 C 293.879 3.41162 0.73547 0
M  V30 3084 C 295.227 4.11155 1.06005 0
M  V30 3085 O 296.251 3.46548 0.823594 0
M  V30 3086 O 295.11 5.25318 1.50675 0
M  V30 3087 H 292.204 0.78441 0.261973 0
M  V30 3088 H 294.75 1.68231 -0.222802 0
M  V30 3089 H 293.522 3.90874 -0.182561 0
M  V30 3090 H 293.145 3.67543 1.51651 0
M  V30 3091 N 294.142 -0.090211 1.57342 0
M  V30 3092 C 295.37 -0.806224 1.90546 0
M  V30 3093 C 295.785 -1.72041 0.777644 0
M  V30 3094 O 295.142 -1.80778 -0.250103 0
M  V30 3095 C 295.193 -1.61546 3.23396 0
M  V30 3096 O 294.914 -0.738043 4.31839 0
M  V30 3097 C 296.415 -2.4341 3.70495 0
M  V30 3098 H 293.635 -0.230256 0.630257 0
M  V30 3099 H 296.179 -0.0659843 2.04394 0
M  V30 3100 H 294.334 -2.30816 3.11131 0
M  V30 3101 H 294.748 -1.29901 5.08159 0
M  V30 3102 H 296.222 -2.95676 4.66133 0
M  V30 3103 H 296.699 -3.22098 2.98579 0
M  V30 3104 H 297.305 -1.79331 3.85643 0
M  V30 3105 N 295.62 -1.53406 -0.361157 0
M  V30 3106 C 296.867 -1.69802 -1.10333 0
M  V30 3107 C 297.195 -0.452087 -1.89173 0
M  V30 3108 O 296.45 0.566017 -1.87336 0
M  V30 3109 C 296.749 -2.90211 -2.08596 0
M  V30 3110 C 296.415 -4.26539 -1.46203 0
M  V30 3111 C 295.077 -4.6361 -1.28915 0
M  V30 3112 C 297.429 -5.113 -1.01101 0
M  V30 3113 C 294.757 -5.83075 -0.651157 0
M  V30 3114 C 297.109 -6.31415 -0.387007 0
M  V30 3115 C 295.773 -6.67195 -0.201657 0
M  V30 3116 H 295.043 -0.621351 -0.403737 0
M  V30 3117 H 297.69 -1.87598 -0.384609 0
M  V30 3118 H 295.995 -2.66946 -2.86788 0
M  V30 3119 H 297.692 -3.00091 -2.65982 0
M  V30 3120 H 294.282 -3.97352 -1.60653 0
M  V30 3121 H 298.466 -4.83206 -1.13249 0
M  V30 3122 H 293.722 -6.09385 -0.496006 0
M  V30 3123 H 297.896 -6.96394 -0.0293563 0
M  V30 3124 H 295.523 -7.59628 0.294766 0
M  V30 3125 N 297.098 0.621204 -1.44841 0
M  V30 3126 C 298.323 1.41244 -1.51871 0
M  V30 3127 C 298.748 1.87519 -0.147764 0
M  V30 3128 O 298.106 1.59334 0.865 0
M  V30 3129 C 298.154 2.60221 -2.49634 0
M  V30 3130 O 297.258 3.60395 -2.00473 0
M  V30 3131 H 296.599 0.42223 -0.512463 0
M  V30 3132 H 299.129 0.757305 -1.90069 0
M  V30 3133 H 299.139 3.0764 -2.67996 0
M  V30 3134 H 297.814 2.25887 -3.4921 0
M  V30 3135 H 296.391 3.19717 -1.91925 0
M  V30 3136 N 298.576 1.31904 0.862503 0
M  V30 3137 C 299.824 1.21776 1.61292 0
M  V30 3138 C 300.145 -0.222413 1.93727 0
M  V30 3139 O 299.415 -1.1451 1.58947 0
M  V30 3140 H 297.995 0.447717 0.597962 0
M  V30 3141 H 300.657 1.65326 1.03215 0
M  V30 3142 H 299.753 1.7948 2.5533 0
M  V30 3143 N 300.054 -1.07777 1.14986 0
M  V30 3144 C 301.001 -2.14867 0.842672 0
M  V30 3145 C 301.971 -1.6486 -0.202552 0
M  V30 3146 O 303.156 -1.90668 -0.0710568 0
M  V30 3147 C 300.296 -3.43486 0.333363 0
M  V30 3148 C 299.409 -4.07306 1.43965 0
M  V30 3149 C 298.544 -5.23744 0.886914 0
M  V30 3150 C 297.583 -5.79517 1.97043 0
M  V30 3151 N 296.72 -6.87291 1.4344 0
M  V30 3152 H 301.56 -2.40485 1.75986 0
M  V30 3153 H 299.097 -1.1801 0.878179 0
M  V30 3154 H 301.055 -4.17195 0.0198163 0
M  V30 3155 H 299.685 -3.18133 -0.546916 0
M  V30 3156 H 298.737 -3.31293 1.86946 0
M  V30 3157 H 300.049 -4.44771 2.25788 0
M  V30 3158 H 299.203 -6.04419 0.525651 0
M  V30 3159 H 297.942 -4.87685 0.0377957 0
M  V30 3160 H 296.947 -4.97491 2.34057 0
M  V30 3161 H 298.172 -6.17632 2.82325 0
M  V30 3162 H 296.118 -6.5318 0.607567 0
M  V30 3163 H 296.035 -7.23617 2.18895 0
M  V30 3164 H 297.303 -7.71682 1.10124 0
M  V30 3165 N 301.532 -0.945985 -1.26051 0
M  V30 3166 C 302.462 -0.477172 -2.28572 0
M  V30 3167 C 303.443 0.472032 -1.63419 0
M  V30 3168 O 304.628 0.372853 -1.90587 0
M  V30 3169 C 301.758 0.253975 -3.4637 0
M  V30 3170 C 300.712 -0.609135 -4.23643 0
M  V30 3171 C 300.038 0.252252 -5.34105 0
M  V30 3172 C 301.338 -1.8829 -4.8718 0
M  V30 3173 H 303.032 -1.33402 -2.68038 0
M  V30 3174 H 300.578 -0.642904 -1.28852 0
M  V30 3175 H 302.531 0.593016 -4.17207 0
M  V30 3176 H 301.255 1.145 -3.05871 0
M  V30 3177 H 299.914 -0.931138 -3.54578 0
M  V30 3178 H 299.562 1.14278 -4.89846 0
M  V30 3179 H 299.262 -0.32188 -5.86718 0
M  V30 3180 H 300.786 0.586454 -6.07777 0
M  V30 3181 H 302.2 -1.61081 -5.50205 0
M  V30 3182 H 300.597 -2.40199 -5.49931 0
M  V30 3183 H 301.667 -2.59134 -4.09851 0
M  V30 3184 N 303.011 1.40521 -0.713556 0
M  V30 3185 C 304.236 2.05759 -0.26035 0
M  V30 3186 C 304.661 1.53403 1.08854 0
M  V30 3187 O 304.019 0.668535 1.68524 0
M  V30 3188 C 304.067 3.59745 -0.248122 0
M  V30 3189 O 303.171 4.05123 0.77131 0
M  V30 3190 H 302.512 0.652564 -0.122703 0
M  V30 3191 H 305.042 1.79958 -0.973467 0
M  V30 3192 H 305.052 4.07911 -0.0851129 0
M  V30 3193 H 303.727 3.97218 -1.2325 0
M  V30 3194 H 302.304 3.68422 0.57619 0
M  V30 3195 N 304.489 0.459591 1.5075 0
M  V30 3196 C 305.738 -0.100971 2.01447 0
M  V30 3197 C 306.051 -1.41816 1.34713 0
M  V30 3198 O 307.257 -2.06299 1.76502 0
M  V30 3199 C 305.713 -0.23047 3.59161 0
M  V30 3200 C 305.321 1.0776 4.34847 0
M  V30 3201 C 307.065 -0.743608 4.17936 0
M  V30 3202 C 304.972 0.91253 5.84317 0
M  V30 3203 H 303.902 -0.0415102 0.752856 0
M  V30 3204 H 306.553 0.592742 1.73663 0
M  V30 3205 H 304.935 -0.987703 3.83485 0
M  V30 3206 H 306.109 1.8449 4.22256 0
M  V30 3207 H 304.424 1.52097 3.87628 0
M  V30 3208 H 307.021 -0.883959 5.27343 0
M  V30 3209 H 307.364 -1.73196 3.78562 0
M  V30 3210 H 307.897 -0.04408 3.97776 0
M  V30 3211 H 304.636 1.87391 6.28144 0
M  V30 3212 H 304.156 0.185422 5.99513 0
M  V30 3213 H 305.835 0.574547 6.44444 0
M  V30 3214 N 305.967 -1.56429 0.191757 0
M  V30 3215 C 306.914 -2.18936 -0.730454 0
M  V30 3216 C 307.884 -1.13557 -1.21219 0
M  V30 3217 O 309.069 -1.41794 -1.27668 0
M  V30 3218 C 306.209 -2.85013 -1.9458 0
M  V30 3219 C 305.322 -4.04909 -1.50574 0
M  V30 3220 C 304.457 -4.58853 -2.67634 0
M  V30 3221 C 303.496 -5.71114 -2.20217 0
M  V30 3222 N 302.633 -6.19478 -3.30442 0
M  V30 3223 H 307.473 -2.97389 -0.190664 0
M  V30 3224 H 305.01 -1.46869 -0.0823694 0
M  V30 3225 H 306.968 -3.21492 -2.65893 0
M  V30 3226 H 305.598 -2.09129 -2.45896 0
M  V30 3227 H 304.65 -3.74115 -0.688605 0
M  V30 3228 H 305.962 -4.86113 -1.11784 0
M  V30 3229 H 305.116 -4.97619 -3.47074 0
M  V30 3230 H 303.855 -3.76749 -3.09696 0
M  V30 3231 H 302.86 -5.31879 -1.3923 0
M  V30 3232 H 304.085 -6.55033 -1.79189 0
M  V30 3233 H 302.031 -5.40297 -3.72041 0
M  V30 3234 H 301.948 -6.95725 -2.9581 0
M  V30 3235 H 303.216 -6.62898 -4.10106 0
M  V30 3236 N 307.445 0.0818655 -1.57387 0
M  V30 3237 C 308.722 0.815343 -1.77796 0
M  V30 3238 C 309.102 1.96289 -0.77679 0
M  V30 3239 O 308.45 2.27691 0.192106 0
M  V30 3240 C 308.66 1.29765 -3.23978 0
M  V30 3241 C 310.008 1.7351 -3.8753 0
M  V30 3242 O 311.032 1.39356 -3.27808 0
M  V30 3243 O 309.891 2.36708 -4.92576 0
M  V30 3244 H 306.985 0.389914 -0.729312 0
M  V30 3245 H 309.531 0.0627213 -1.69584 0
M  V30 3246 H 308.303 0.47608 -3.88393 0
M  V30 3247 H 307.926 2.11189 -3.36875 0
M  V30 3248 N 308.923 1.53595 0.353017 0
M  V30 3249 C 310.17 1.70385 1.09431 0
M  V30 3250 C 310.498 0.462113 1.88931 0
M  V30 3251 O 309.753 -0.556074 1.87633 0
M  V30 3252 C 310.052 2.91313 2.07054 0
M  V30 3253 C 309.718 4.27308 1.43939 0
M  V30 3254 C 308.38 4.64287 1.26454 0
M  V30 3255 C 310.732 5.11829 0.983883 0
M  V30 3256 C 308.06 5.83412 0.620226 0
M  V30 3257 C 310.412 6.31611 0.353516 0
M  V30 3258 C 309.076 6.67293 0.166272 0
M  V30 3259 H 308.346 0.623484 0.400436 0
M  V30 3260 H 310.993 1.87799 0.374655 0
M  V30 3261 H 309.298 2.68463 2.85368 0
M  V30 3262 H 310.995 3.01497 2.64387 0
M  V30 3263 H 307.585 3.98198 1.58543 0
M  V30 3264 H 311.769 4.838 1.10685 0
M  V30 3265 H 307.025 6.09639 0.463681 0
M  V30 3266 H 311.199 6.964 -0.00757555 0
M  V30 3267 H 308.826 7.59461 -0.335047 0
M  V30 3268 N 310.401 -0.613514 1.45168 0
M  V30 3269 C 311.331 -1.7354 1.56225 0
M  V30 3270 C 312.312 -1.64981 0.41414 0
M  V30 3271 O 313.497 -1.83472 0.636526 0
M  V30 3272 C 310.627 -3.12128 1.52295 0
M  V30 3273 C 309.581 -3.35491 2.65762 0
M  V30 3274 C 308.907 -4.74291 2.46885 0
M  V30 3275 C 310.207 -3.26325 4.0781 0
M  V30 3276 H 311.901 -1.64543 2.50132 0
M  V30 3277 H 309.447 -0.790185 1.20383 0
M  V30 3278 H 311.4 -3.90404 1.58628 0
M  V30 3279 H 310.124 -3.2195 0.549139 0
M  V30 3280 H 308.783 -2.59603 2.58847 0
M  V30 3281 H 308.431 -4.80839 1.47657 0
M  V30 3282 H 308.131 -4.9088 3.22972 0
M  V30 3283 H 309.655 -5.54775 2.55063 0
M  V30 3284 H 311.069 -3.94483 4.16 0
M  V30 3285 H 309.466 -3.54445 4.8424 0
M  V30 3286 H 310.536 -2.23855 4.30136 0
M  V30 3287 N 311.879 -1.3236 -0.855495 0
M  V30 3288 C 313.104 -1.2601 -1.64731 0
M  V30 3289 C 313.529 0.169068 -1.87339 0
M  V30 3290 O 312.887 1.12016 -1.42556 0
M  V30 3291 C 312.935 -2.02417 -2.98429 0
M  V30 3292 O 312.039 -1.3714 -3.8893 0
M  V30 3293 H 311.38 -0.434325 -0.502253 0
M  V30 3294 H 313.91 -1.74661 -1.06558 0
M  V30 3295 H 313.92 -2.12559 -3.48257 0
M  V30 3296 H 312.595 -3.06343 -2.81295 0
M  V30 3297 H 311.172 -1.3554 -3.47395 0
M  V30 3298 N 313.357 1.07166 -1.15556 0
M  V30 3299 C 314.605 1.79443 -0.929764 0
M  V30 3300 C 314.926 1.87246 0.544414 0
M  V30 3301 O 314.196 1.37473 1.39564 0
M  V30 3302 H 312.776 0.664625 -0.341003 0
M  V30 3303 H 315.438 1.29499 -1.45657 0
M  V30 3304 H 314.534 2.81832 -1.34079 0
M  V30 3305 N 314.835 0.952656 1.25548 0
M  V30 3306 C 316.06 0.623025 1.97821 0
M  V30 3307 C 316.485 -0.7976 1.70352 0
M  V30 3308 O 315.843 -1.53905 0.958283 0
M  V30 3309 C 315.891 0.885532 3.49558 0
M  V30 3310 O 314.995 -0.0366641 4.12384 0
M  V30 3311 H 314.336 0.237082 0.620232 0
M  V30 3312 H 316.866 1.27871 1.59719 0
M  V30 3313 H 316.876 0.811009 3.99858 0
M  V30 3314 H 315.551 1.92094 3.6888 0
M  V30 3315 H 314.128 0.0898954 3.72792 0
M  V30 3316 N 316.313 -1.40141 0.720998 0
M  V30 3317 C 317.724 -1.83678 0.334553 0
M  V30 3318 C 318.075 -1.6027 -1.13173 0
M  V30 3319 O 317.2 -1.08643 -1.87152 0
M  V30 3320 C 317.795 -3.33437 0.600437 0
M  V30 3321 C 316.354 -3.75447 0.267642 0
M  V30 3322 C 315.501 -2.63296 0.870097 0
M  V30 3323 H 318.452 -1.29331 0.919732 0
M  V30 3324 H 318.473 -3.80269 -0.132517 0
M  V30 3325 H 317.985 -3.50442 1.66768 0
M  V30 3326 H 316.086 -3.64035 -0.794329 0
M  V30 3327 H 316.199 -4.73344 0.74042 0
M  V30 3328 H 314.563 -2.52954 0.297739 0
M  V30 3329 H 315.346 -2.83112 1.94172 0
M  V30 3330 N 317.792 -0.46758 -1.50504 0
M  V30 3331 C 318.739 0.328413 -2.28452 0
M  V30 3332 C 319.709 0.990313 -1.33349 0
M  V30 3333 O 320.894 1.00343 -1.62284 0
M  V30 3334 C 318.034 1.40648 -3.15138 0
M  V30 3335 C 317.147 0.759709 -4.25267 0
M  V30 3336 C 316.282 1.81537 -4.99217 0
M  V30 3337 C 315.321 1.14866 -6.01226 0
M  V30 3338 N 314.458 2.14702 -6.68467 0
M  V30 3339 H 319.298 -0.342603 -2.96024 0
M  V30 3340 H 316.835 -0.180801 -1.45985 0
M  V30 3341 H 318.793 2.04315 -3.63746 0
M  V30 3342 H 317.423 2.04671 -2.49619 0
M  V30 3343 H 316.475 0.0105671 -3.80399 0
M  V30 3344 H 317.787 0.233243 -4.98254 0
M  V30 3345 H 316.941 2.52793 -5.51526 0
M  V30 3346 H 315.68 2.37564 -4.25928 0
M  V30 3347 H 314.685 0.42171 -5.4818 0
M  V30 3348 H 315.91 0.595334 -6.76485 0
M  V30 3349 H 313.856 2.69752 -5.97972 0
M  V30 3350 H 313.773 1.6703 -7.37317 0
M  V30 3351 H 315.041 2.85348 -7.25394 0
M  V30 3352 N 319.27 1.56325 -0.20005 0
M  V30 3353 C 320.202 2.16555 0.750771 0
M  V30 3354 C 321.215 1.12871 1.1732 0
M  V30 3355 O 322.404 1.39943 1.10807 0
M  V30 3356 C 319.504 2.71684 2.02586 0
M  V30 3357 C 318.677 4.00321 1.76244 0
M  V30 3358 C 317.736 4.40227 2.88248 0
M  V30 3359 O 316.762 5.07552 2.57642 0
M  V30 3360 N 317.964 4.04138 4.16717 0
M  V30 3361 H 320.729 2.98772 0.235685 0
M  V30 3362 H 318.29 1.6189 -0.0182594 0
M  V30 3363 H 320.282 2.95363 2.76664 0
M  V30 3364 H 318.852 1.93893 2.45202 0
M  V30 3365 H 318.072 3.84723 0.85919 0
M  V30 3366 H 319.36 4.84279 1.56048 0
M  V30 3367 H 318.758 3.49993 4.44434 0
M  V30 3368 H 317.315 4.32756 4.87407 0
M  V30 3369 N 320.748 -0.0735177 1.57428 0
M  V30 3370 C 321.973 -0.789787 1.91774 0
M  V30 3371 C 322.398 -1.70413 0.796306 0
M  V30 3372 O 321.756 -1.79555 -0.250961 0
M  V30 3373 C 321.804 -1.5609 3.25067 0
M  V30 3374 O 320.908 -2.67144 3.14178 0
M  V30 3375 H 320.249 -0.215582 0.628029 0
M  V30 3376 H 322.779 -0.0422781 2.04556 0
M  V30 3377 H 322.789 -1.94052 3.58898 0
M  V30 3378 H 321.464 -0.890015 4.06265 0
M  V30 3379 H 320.041 -2.32052 2.91901 0
M  V30 3380 N 322.226 -1.5378 -0.344866 0
M  V30 3381 C 323.474 -1.70625 -1.08311 0
M  V30 3382 C 323.795 -0.471447 -1.89215 0
M  V30 3383 O 323.065 0.514616 -1.8902 0
M  V30 3384 H 321.645 -0.629058 -0.402859 0
M  V30 3385 H 324.307 -1.9103 -0.386459 0
M  V30 3386 H 323.403 -2.57656 -1.76124 0
M  V30 3387 N 323.704 0.605807 -1.45491 0
M  V30 3388 C 324.614 1.74466 -1.56839 0
M  V30 3389 C 325.63 1.68006 -0.452772 0
M  V30 3390 O 326.806 1.8833 -0.713708 0
M  V30 3391 C 323.871 3.10931 -1.53371 0
M  V30 3392 C 322.932 3.28832 -2.75986 0
M  V30 3393 C 322.165 4.58787 -2.72673 0
M  V30 3394 O 322.388 5.4122 -1.80102 0
M  V30 3395 O 321.322 4.79438 -3.63899 0
M  V30 3396 H 325.148 1.67843 -2.53106 0
M  V30 3397 H 322.733 0.770108 -1.28022 0
M  V30 3398 H 324.615 3.92233 -1.54051 0
M  V30 3399 H 323.29 3.18042 -0.602572 0
M  V30 3400 H 322.197 2.47112 -2.80867 0
M  V30 3401 H 323.53 3.26599 -3.68231 0
M  V30 3402 N 325.182 1.32811 0.848464 0
M  V30 3403 C 326.112 1.24882 1.97299 0
M  V30 3404 C 327.093 0.131357 1.69592 0
M  V30 3405 O 328.278 0.319553 1.91553 0
M  V30 3406 C 325.408 0.97746 3.33261 0
M  V30 3407 C 324.362 2.05682 3.75338 0
M  V30 3408 C 323.688 1.63777 5.09 0
M  V30 3409 C 324.988 3.47254 3.90144 0
M  V30 3410 H 326.682 2.18966 2.04191 0
M  V30 3411 H 324.228 1.05413 0.981029 0
M  V30 3412 H 326.181 0.908513 4.1149 0
M  V30 3413 H 324.905 0.000980011 3.266 0
M  V30 3414 H 323.564 2.11603 2.99366 0
M  V30 3415 H 323.212 0.648569 4.98801 0
M  V30 3416 H 322.912 2.36 5.38124 0
M  V30 3417 H 324.436 1.5833 5.89715 0
M  V30 3418 H 325.85 3.43888 4.58709 0
M  V30 3419 H 324.247 4.1788 4.30693 0
M  V30 3420 H 325.317 3.86462 2.92874 0
M  V30 3421 N 326.66 -1.06551 1.16123 0
M  V30 3422 C 327.607 -2.13961 0.865414 0
M  V30 3423 C 328.577 -1.65066 -0.185055 0
M  V30 3424 O 329.762 -1.90732 -0.05083 0
M  V30 3425 C 326.902 -3.43113 0.369776 0
M  V30 3426 C 326.015 -4.05756 1.48276 0
M  V30 3427 C 325.15 -5.22773 0.942414 0
M  V30 3428 C 324.189 -5.77395 2.03179 0
M  V30 3429 N 323.326 -6.85731 1.50721 0
M  V30 3430 H 328.166 -2.38605 1.78527 0
M  V30 3431 H 325.703 -1.17072 0.890646 0
M  V30 3432 H 327.661 -4.17151 0.0640643 0
M  V30 3433 H 326.291 -3.18695 -0.513143 0
M  V30 3434 H 325.343 -3.29292 1.9045 0
M  V30 3435 H 326.655 -4.42351 2.30493 0
M  V30 3436 H 325.809 -6.03827 0.589729 0
M  V30 3437 H 324.548 -4.87618 0.0895191 0
M  V30 3438 H 323.553 -4.94981 2.3932 0
M  V30 3439 H 324.778 -6.14603 2.8886 0
M  V30 3440 H 322.724 -6.52499 0.676811 0
M  V30 3441 H 322.641 -7.21254 2.26557 0
M  V30 3442 H 323.909 -7.7047 1.18303 0
M  V30 3443 N 328.138 -0.959301 -1.25041 0
M  V30 3444 C 329.386 -0.615393 -1.92503 0
M  V30 3445 C 329.707 0.850969 -1.75452 0
M  V30 3446 O 328.977 1.60658 -1.12098 0
M  V30 3447 H 327.557 -0.224613 -0.712431 0
M  V30 3448 H 330.219 -1.21855 -1.5211 0
M  V30 3449 H 329.315 -0.848738 -3.00338 0
M  V30 3450 N 329.616 1.39756 -0.72842 0
M  V30 3451 C 330.546 2.33289 -0.0991354 0
M  V30 3452 C 331.527 1.53568 0.731489 0
M  V30 3453 O 332.712 1.81987 0.677807 0
M  V30 3454 C 329.842 3.3763 0.813834 0
M  V30 3455 C 328.796 4.2791 0.0878663 0
M  V30 3456 C 328.122 5.22894 1.11741 0
M  V30 3457 C 329.422 5.11314 -1.06563 0
M  V30 3458 H 331.116 2.86163 -0.880408 0
M  V30 3459 H 328.662 1.37591 -0.424819 0
M  V30 3460 H 330.615 4.0201 1.26355 0
M  V30 3461 H 329.339 2.83181 1.62715 0
M  V30 3462 H 327.998 3.65 -0.342159 0
M  V30 3463 H 327.646 4.64744 1.92412 0
M  V30 3464 H 327.346 5.84143 0.636477 0
M  V30 3465 H 328.87 5.90151 1.56697 0
M  V30 3466 H 330.284 5.69076 -0.694671 0
M  V30 3467 H 328.681 5.81671 -1.47577 0
M  V30 3468 H 329.751 4.46534 -1.89038 0
M  V30 3469 N 331.094 0.475555 1.50254 0
M  V30 3470 C 332.319 -0.0777042 2.07254 0
M  V30 3471 C 332.744 -1.3235 1.3366 0
M  V30 3472 O 332.102 -1.77152 0.385597 0
M  V30 3473 C 332.15 -0.340169 3.58992 0
M  V30 3474 O 331.254 -1.41982 3.87188 0
M  V30 3475 H 330.595 0.0149556 0.663832 0
M  V30 3476 H 333.125 0.667878 1.93392 0
M  V30 3477 H 333.135 -0.579332 4.03866 0
M  V30 3478 H 331.81 0.570167 4.11973 0
M  V30 3479 H 330.387 -1.16762 3.54148 0
M  V30 3480 N 332.573 -1.56217 0.208337 0
M  V30 3481 C 333.85 -1.89739 -0.475234 0
M  V30 3482 C 334.23 -1.1238 -1.78701 0
M  V30 3483 O 333.578 -0.228979 -2.2735 0
M  V30 3484 C 333.788 -3.42289 -0.681101 0
M  V30 3485 C 335.136 -4.12789 -0.994507 0
M  V30 3486 O 336.16 -3.47814 -0.768357 0
M  V30 3487 O 335.019 -5.27649 -1.42299 0
M  V30 3488 H 332.113 -0.788478 -0.249461 0
M  V30 3489 H 334.659 -1.67855 0.249538 0
M  V30 3490 H 333.431 -3.90534 0.244722 0
M  V30 3491 H 333.054 -3.69909 -1.45785 0
M  V30 3492 N 334.051 0.0651679 -1.57465 0
M  V30 3493 C 334.961 1.09448 -2.07505 0
M  V30 3494 C 335.977 1.41974 -1.00595 0
M  V30 3495 O 337.153 1.52018 -1.32107 0
M  V30 3496 C 334.218 2.38689 -2.51453 0
M  V30 3497 C 333.279 2.13073 -3.72691 0
M  V30 3498 C 332.512 3.36152 -4.14533 0
M  V30 3499 O 332.735 4.45517 -3.56189 0
M  V30 3500 O 331.669 3.23974 -5.07272 0
M  V30 3501 H 335.495 0.69935 -2.95538 0
M  V30 3502 H 333.08 0.279752 -1.46757 0
M  V30 3503 H 334.962 3.14736 -2.80212 0
M  V30 3504 H 333.637 2.77568 -1.66546 0
M  V30 3505 H 332.544 1.34709 -3.49005 0
M  V30 3506 H 333.877 1.79071 -4.5847 0
M  V30 3507 N 335.529 1.53961 0.336706 0
M  V30 3508 C 336.759 1.75229 1.09446 0
M  V30 3509 C 337.167 0.494602 1.82621 0
M  V30 3510 O 336.51 -0.543764 1.75468 0
M  V30 3511 C 336.572 2.88288 2.1478 0
M  V30 3512 C 336.236 4.27656 1.6112 0
M  V30 3513 C 337.233 5.08981 1.0599 0
M  V30 3514 C 334.918 4.74161 1.6576 0
M  V30 3515 C 336.912 6.34916 0.562129 0
M  V30 3516 C 334.599 6.00067 1.15595 0
M  V30 3517 C 335.597 6.80278 0.609147 0
M  V30 3518 O 335.285 8.03818 0.114999 0
M  V30 3519 H 335.017 0.588881 0.331956 0
M  V30 3520 H 337.571 2.01614 0.392566 0
M  V30 3521 H 335.801 2.57443 2.88548 0
M  V30 3522 H 337.49 2.97461 2.76174 0
M  V30 3523 H 338.256 4.74213 1.01722 0
M  V30 3524 H 334.135 4.11781 2.07261 0
M  V30 3525 H 337.679 6.9747 0.134668 0
M  V30 3526 H 333.576 6.3433 1.19566 0
M  V30 3527 H 334.344 8.18172 0.231651 0
M  V30 3528 N 337.007 -0.598083 1.45811 0
M  V30 3529 C 338.418 -1.18011 1.44673 0
M  V30 3530 C 338.769 -1.95378 0.179364 0
M  V30 3531 O 337.894 -2.04124 -0.718509 0
M  V30 3532 C 338.489 -2.14677 2.62105 0
M  V30 3533 C 337.048 -2.68236 2.64057 0
M  V30 3534 C 336.195 -1.43816 2.37091 0
M  V30 3535 H 339.146 -0.38686 1.53913 0
M  V30 3536 H 339.167 -2.97878 2.36746 0
M  V30 3537 H 338.679 -1.5834 3.5433 0
M  V30 3538 H 336.78 -3.28486 1.75864 0
M  V30 3539 H 336.893 -3.12021 3.63566 0
M  V30 3540 H 335.257 -1.731 1.86838 0
M  V30 3541 H 336.04 -0.893333 3.31473 0
M  V30 3542 N 338.485 -1.33259 -0.841409 0
M  V30 3543 C 339.732 -1.24572 -1.5965 0
M  V30 3544 C 340.06 0.189137 -1.93578 0
M  V30 3545 O 339.315 1.14566 -1.5866 0
M  V30 3546 C 339.614 -2.06381 -2.9179 0
M  V30 3547 C 339.28 -3.556 -2.77235 0
M  V30 3548 C 337.942 -3.96282 -2.72973 0
M  V30 3549 C 340.294 -4.50433 -2.62221 0
M  V30 3550 C 337.622 -5.30017 -2.51592 0
M  V30 3551 C 339.974 -5.84327 -2.42374 0
M  V30 3552 C 338.638 -6.24194 -2.36512 0
M  V30 3553 H 337.908 -0.455842 -0.5842 0
M  V30 3554 H 340.555 -1.6482 -0.975016 0
M  V30 3555 H 338.86 -1.58903 -3.5813 0
M  V30 3556 H 340.557 -1.97019 -3.49263 0
M  V30 3557 H 337.147 -3.23298 -2.81384 0
M  V30 3558 H 341.331 -4.19914 -2.64549 0
M  V30 3559 H 336.587 -5.59947 -2.45499 0
M  V30 3560 H 340.761 -6.57414 -2.29739 0
M  V30 3561 H 338.388 -7.27759 -2.19706 0
M  V30 3562 N 339.963 1.05934 -1.16686 0
M  V30 3563 C 340.873 2.17014 -0.891183 0
M  V30 3564 C 341.889 1.73453 0.137907 0
M  V30 3565 O 343.065 2.01361 -0.039592 0
M  V30 3566 C 340.13 3.44384 -0.400099 0
M  V30 3567 C 339.191 4.02433 -1.49486 0
M  V30 3568 C 338.424 5.23723 -1.02711 0
M  V30 3569 O 338.647 5.7027 0.121716 0
M  V30 3570 O 337.581 5.7382 -1.81699 0
M  V30 3571 H 341.407 2.43113 -1.82015 0
M  V30 3572 H 338.992 1.15541 -0.947132 0
M  V30 3573 H 340.874 4.21189 -0.133392 0
M  V30 3574 H 339.549 3.19802 0.500817 0
M  V30 3575 H 338.456 3.27102 -1.81535 0
M  V30 3576 H 339.789 4.31317 -2.37121 0
M  V30 3577 N 341.441 0.965919 1.2453 0
M  V30 3578 C 342.388 0.49402 2.25451 0
M  V30 3579 C 343.358 -0.45948 1.59618 0
M  V30 3580 O 344.543 -0.370238 1.87173 0
M  V30 3581 C 341.683 -0.211359 3.44452 0
M  V30 3582 C 340.796 0.7807 4.24887 0
M  V30 3583 C 339.931 0.0516105 5.31175 0
M  V30 3584 C 338.97 1.03385 6.03306 0
M  V30 3585 N 338.107 0.334887 7.01301 0
M  V30 3586 H 342.947 1.35946 2.65184 0
M  V30 3587 H 340.484 0.681515 1.3036 0
M  V30 3588 H 342.442 -0.637 4.12308 0
M  V30 3589 H 341.072 -1.04077 3.05562 0
M  V30 3590 H 340.124 1.32479 3.56586 0
M  V30 3591 H 341.436 1.52978 4.74762 0
M  V30 3592 H 340.59 -0.432114 6.05159 0
M  V30 3593 H 339.329 -0.730179 4.82203 0
M  V30 3594 H 338.334 1.52847 5.28127 0
M  V30 3595 H 339.559 1.81606 6.54367 0
M  V30 3596 H 337.505 -0.427959 6.54603 0
M  V30 3597 H 337.422 1.02287 7.49048 0
M  V30 3598 H 338.69 -0.126928 7.79397 0
M  V30 3599 N 342.919 -1.39368 0.735821 0
M  V30 3600 C 344.196 -1.94465 0.210395 0
M  V30 3601 C 344.576 -1.67254 -1.28799 0
M  V30 3602 O 343.924 -1.00123 -2.05396 0
M  V30 3603 C 344.134 -3.4472 0.544897 0
M  V30 3604 C 345.482 -4.21708 0.494689 0
M  V30 3605 O 346.506 -3.52922 0.482136 0
M  V30 3606 O 345.365 -5.44299 0.489947 0
M  V30 3607 H 342.459 -0.826096 0.0386666 0
M  V30 3608 H 345.005 -1.48863 0.814735 0
M  V30 3609 H 343.777 -3.57963 1.58045 0
M  V30 3610 H 343.4 -3.97502 -0.08837 0
M  V30 3611 N 344.397 -0.483516 -1.5 0
M  V30 3612 C 345.345 0.318061 -2.30415 0
M  V30 3613 C 346.339 0.978988 -1.38247 0
M  V30 3614 O 347.545 0.908673 -1.55381 0
M  V30 3615 H 343.92 0.121419 -0.742133 0
M  V30 3616 H 345.891 -0.380403 -2.95965 0
M  V30 3617 C 344.64 1.38013 -3.19136 0
M  V30 3618 H 343.963 0.880952 -3.89973 0
M  V30 3619 H 345.403 1.91332 -3.78375 0
M  V30 3620 C 343.862 2.38884 -2.37563 0
M  V30 3621 O 344.392 3.44412 -2.06744 0
M  V30 3622 N 342.598 2.10912 -1.99911 0
M  V30 3623 H 342.145 1.25118 -2.25174 0
M  V30 3624 H 342.103 2.78635 -1.45636 0
M  V30 3625 N 345.875 1.56104 -0.216619 0
M  V30 3626 C 346.823 2.21434 0.712036 0
M  V30 3627 C 347.817 1.19218 1.20348 0
M  V30 3628 O 349.023 1.3731 1.16387 0
M  V30 3629 H 345.398 0.70992 0.248026 0
M  V30 3630 H 347.369 2.98083 0.137558 0
M  V30 3631 C 346.118 2.90434 1.91163 0
M  V30 3632 H 345.441 3.68842 1.54258 0
M  V30 3633 H 346.881 3.39552 2.5393 0
M  V30 3634 C 345.34 1.92635 2.76394 0
M  V30 3635 O 345.87 1.44017 3.74996 0
M  V30 3636 N 344.076 1.60392 2.42328 0
M  V30 3637 H 343.623 2.00122 1.622 0
M  V30 3638 H 343.581 0.952159 2.99635 0
M  V30 3639 N 347.353 -0.0568162 1.57498 0
M  V30 3640 C 348.764 -0.606858 1.76562 0
M  V30 3641 C 349.115 -1.77114 0.844094 0
M  V30 3642 O 348.24 -2.16376 0.0318911 0
M  V30 3643 C 348.835 -1.10766 3.20182 0
M  V30 3644 C 347.394 -1.60344 3.40539 0
M  V30 3645 C 346.541 -0.529311 2.72201 0
M  V30 3646 H 349.492 0.169393 1.57793 0
M  V30 3647 H 349.513 -1.97602 3.25167 0
M  V30 3648 H 349.025 -0.26006 3.87228 0
M  V30 3649 H 347.126 -2.47379 2.78629 0
M  V30 3650 H 347.239 -1.67006 4.4905 0
M  V30 3651 H 345.603 -0.977893 2.35179 0
M  V30 3652 H 346.386 0.308352 3.41912 0
M  V30 3653 N 348.832 -1.54138 -0.328536 0
M  V30 3654 C 350.078 -1.7236 -1.06865 0
M  V30 3655 C 350.411 -0.493231 -1.87832 0
M  V30 3656 O 349.686 0.5098 -1.877 0
M  V30 3657 C 349.969 -2.99621 -1.99747 0
M  V30 3658 C 349.822 -4.32899 -1.22143 0
M  V30 3659 C 351.141 -3.22615 -2.99345 0
M  V30 3660 H 348.26 -0.627151 -0.387105 0
M  V30 3661 H 350.902 -1.86827 -0.345767 0
M  V30 3662 H 349.052 -2.87418 -2.61387 0
M  V30 3663 H 350.724 -4.56978 -0.630017 0
M  V30 3664 H 348.967 -4.30628 -0.523628 0
M  V30 3665 H 349.638 -5.18154 -1.90318 0
M  V30 3666 H 352.114 -3.34248 -2.47826 0
M  V30 3667 H 350.99 -4.13027 -3.61524 0
M  V30 3668 H 351.251 -2.3961 -3.71536 0
M  V30 3669 N 350.31 0.590341 -1.46126 0
M  V30 3670 C 351.558 1.34616 -1.50742 0
M  V30 3671 C 351.879 1.94363 -0.157486 0
M  V30 3672 O 351.149 1.78136 0.815136 0
M  V30 3673 H 349.729 0.499789 -0.555175 0
M  V30 3674 H 352.391 0.691953 -1.82203 0
M  V30 3675 H 351.487 2.15678 -2.25587 0
M  V30 3676 N 351.788 1.33704 0.83433 0
M  V30 3677 C 352.736 1.24323 1.96587 0
M  V30 3678 C 353.73 0.143659 1.6879 0
M  V30 3679 O 354.936 0.30791 1.77347 0
M  V30 3680 H 351.311 0.385925 0.645419 0
M  V30 3681 H 353.282 2.19978 2.01624 0
M  V30 3682 C 352.031 1.00394 3.32891 0
M  V30 3683 H 351.354 1.84231 3.54822 0
M  V30 3684 H 352.794 0.97862 4.12552 0
M  V30 3685 C 351.253 -0.293047 3.35623 0
M  V30 3686 O 351.783 -1.29823 3.80143 0
M  V30 3687 N 349.989 -0.322174 2.88809 0
M  V30 3688 H 349.536 0.496379 2.52772 0
M  V30 3689 H 349.494 -1.18977 2.91019 0
M  V30 3690 N 353.266 -1.05314 1.17247 0
M  V30 3691 C 354.513 -1.78293 0.960091 0
M  V30 3692 C 354.841 -1.87658 -0.51136 0
M  V30 3693 O 354.096 -1.3718 -1.39571 0
M  V30 3694 C 354.395 -3.2229 1.54479 0
M  V30 3695 C 354.061 -3.32987 3.04024 0
M  V30 3696 C 352.723 -3.35613 3.44844 0
M  V30 3697 C 355.075 -3.34102 4.00031 0
M  V30 3698 C 352.403 -3.36982 4.8027 0
M  V30 3699 C 354.755 -3.3701 5.35357 0
M  V30 3700 C 353.419 -3.37923 5.75642 0
M  V30 3701 H 352.689 -0.652422 0.351322 0
M  V30 3702 H 355.336 -1.23782 1.46117 0
M  V30 3703 H 353.641 -3.7972 0.965391 0
M  V30 3704 H 355.338 -3.77376 1.35603 0
M  V30 3705 H 351.928 -3.31655 2.71483 0
M  V30 3706 H 356.112 -3.31276 3.69554 0
M  V30 3707 H 351.368 -3.35999 5.10798 0
M  V30 3708 H 355.542 -3.36822 6.09528 0
M  V30 3709 H 353.169 -3.38738 6.80559 0
M  V30 3710 N 354.744 -0.972509 -1.24016 0
M  V30 3711 C 355.707 -0.511403 -2.23422 0
M  V30 3712 C 356.707 0.394679 -1.55881 0
M  V30 3713 O 357.897 0.189469 -1.73167 0
M  V30 3714 C 355.029 0.258769 -3.39916 0
M  V30 3715 H 356.222 -1.39024 -2.6573 0
M  V30 3716 H 353.775 -0.757585 -1.36713 0
M  V30 3717 H 354.51 1.1545 -3.03054 0
M  V30 3718 H 354.295 -0.391522 -3.9014 0
M  V30 3719 H 355.785 0.570244 -4.13688 0
M  V30 3720 N 356.222 1.38976 -0.743202 0
M  V30 3721 C 357.45 2.04636 -0.30525 0
M  V30 3722 C 357.865 1.56044 1.06281 0
M  V30 3723 O 357.222 0.728921 1.67311 0
M  V30 3724 C 357.273 3.60193 -0.307177 0
M  V30 3725 O 356.994 4.06998 -1.62124 0
M  V30 3726 C 358.495 4.4306 0.145928 0
M  V30 3727 H 355.715 0.65788 -0.132041 0
M  V30 3728 H 358.259 1.77866 -1.00915 0
M  V30 3729 H 356.414 3.85835 0.347898 0
M  V30 3730 H 356.828 5.01371 -1.54036 0
M  V30 3731 H 358.302 5.51921 0.0934183 0
M  V30 3732 H 358.779 4.22706 1.19231 0
M  V30 3733 H 359.385 4.22584 -0.479886 0
M  V30 3734 N 357.7 0.491464 1.49741 0
M  V30 3735 C 358.928 -0.0535151 2.06831 0
M  V30 3736 C 359.343 -1.31683 1.35296 0
M  V30 3737 O 358.7 -1.77402 0.42836 0
M  V30 3738 C 358.751 -0.320835 3.60073 0
M  V30 3739 O 358.472 0.892394 4.28915 0
M  V30 3740 C 359.973 -0.910519 4.33848 0
M  V30 3741 H 357.193 0.0161909 0.670805 0
M  V30 3742 H 359.737 0.68609 1.92647 0
M  V30 3743 H 357.892 -1.0104 3.73991 0
M  V30 3744 H 358.306 0.649401 5.20464 0
M  V30 3745 H 359.78 -1.04721 5.41976 0
M  V30 3746 H 360.257 -1.90589 3.95692 0
M  V30 3747 H 360.863 -0.258712 4.24512 0
M  V30 3748 N 359.178 -1.55987 0.224894 0
M  V30 3749 C 360.424 -1.98684 -0.406502 0
M  V30 3750 C 360.757 -1.11248 -1.59177 0
M  V30 3751 O 360.032 -0.170909 -1.93748 0
M  V30 3752 C 360.315 -3.50218 -0.837808 0
M  V30 3753 C 360.168 -4.48426 0.351332 0
M  V30 3754 C 361.487 -4.06243 -1.69278 0
M  V30 3755 H 358.606 -0.722337 -0.146283 0
M  V30 3756 H 361.248 -1.87255 0.321799 0
M  V30 3757 H 359.398 -3.60089 -1.45837 0
M  V30 3758 H 361.07 -4.50562 0.989526 0
M  V30 3759 H 359.313 -4.22159 0.998207 0
M  V30 3760 H 359.984 -5.52 0.00655905 0
M  V30 3761 H 362.46 -3.99337 -1.16914 0
M  V30 3762 H 361.336 -5.12581 -1.96346 0
M  V30 3763 H 361.597 -3.53332 -2.65723 0
M  V30 3764 N 360.656 0.0484629 -1.57525 0
M  V30 3765 C 361.881 0.759177 -1.93006 0
M  V30 3766 C 362.306 1.69125 -0.823317 0
M  V30 3767 O 361.664 1.79931 0.222364 0
M  V30 3768 C 361.712 1.50899 -3.27509 0
M  V30 3769 O 360.816 2.62112 -3.18388 0
M  V30 3770 H 360.157 0.205564 -0.631379 0
M  V30 3771 H 362.687 0.00972959 -2.04598 0
M  V30 3772 H 362.697 1.88317 -3.6194 0
M  V30 3773 H 361.372 0.825269 -4.0763 0
M  V30 3774 H 359.949 2.27379 -2.95556 0
M  V30 3775 N 362.134 1.5431 0.320358 0
M  V30 3776 C 363.411 1.63322 1.07635 0
M  V30 3777 C 363.791 0.46912 2.05821 0
M  V30 3778 O 363.139 -0.536274 2.22118 0
M  V30 3779 C 363.349 3.00465 1.77544 0
M  V30 3780 C 364.697 3.56621 2.30449 0
M  V30 3781 O 365.721 3.02791 1.87606 0
M  V30 3782 O 364.58 4.5083 3.08892 0
M  V30 3783 H 361.674 0.661502 0.496331 0
M  V30 3784 H 364.22 1.66656 0.319992 0
M  V30 3785 H 362.992 3.76629 1.06143 0
M  V30 3786 H 362.615 3.00824 2.59982 0
M  V30 3787 N 363.613 -0.582584 1.46437 0
M  V30 3788 C 365.029 -0.905962 1.31394 0
M  V30 3789 C 365.229 -1.99468 0.285476 0
M  V30 3790 O 364.285 -2.50566 -0.311914 0
M  V30 3791 C 365.598 -1.3232 2.70022 0
M  V30 3792 C 367.146 -1.43604 2.78113 0
M  V30 3793 C 367.621 -1.88694 4.17323 0
M  V30 3794 N 369.112 -1.95887 4.19741 0
M  V30 3795 C 369.847 -2.32051 5.24347 0
M  V30 3796 N 369.343 -2.67006 6.39281 0
M  V30 3797 N 371.136 -2.32606 5.11713 0
M  V30 3798 H 363.287 0.1366 2.1196 0
M  V30 3799 H 365.55 -0.00155736 0.947999 0
M  V30 3800 H 365.256 -0.597242 3.46592 0
M  V30 3801 H 365.13 -2.28469 3.00136 0
M  V30 3802 H 367.517 -2.15286 2.01832 0
M  V30 3803 H 367.598 -0.457059 2.51684 0
M  V30 3804 H 367.242 -1.1759 4.941 0
M  V30 3805 H 367.172 -2.8755 4.4116 0
M  V30 3806 H 369.663 -1.71362 3.36814 0
M  V30 3807 H 369.976 -2.93554 7.14875 0
M  V30 3808 H 368.321 -2.64644 6.42642 0
M  V30 3809 H 371.512 -2.04721 4.2096 0
M  V30 3810 H 371.685 -2.60462 5.93349 0
M  V30 3811 N 365.091 -1.34144 -0.827227 0
M  V30 3812 C 366.316 -1.29476 -1.62021 0
M  V30 3813 C 366.741 0.129292 -1.87655 0
M  V30 3814 O 366.099 1.08967 -1.449 0
M  V30 3815 C 366.147 -2.08702 -2.94068 0
M  V30 3816 O 365.251 -1.45359 -3.85933 0
M  V30 3817 H 364.592 -0.444881 -0.492927 0
M  V30 3818 H 367.122 -1.76882 -1.02829 0
M  V30 3819 H 367.132 -2.19898 -3.43669 0
M  V30 3820 H 365.807 -3.12241 -2.74734 0
M  V30 3821 H 364.384 -1.42879 -3.44442 0
M  V30 3822 N 366.569 1.04691 -1.17803 0
M  V30 3823 C 367.985 1.29963 -0.926379 0
M  V30 3824 C 368.185 1.97251 0.411635 0
M  V30 3825 O 367.241 2.24922 1.14744 0
M  V30 3826 C 368.554 2.16447 -2.08737 0
M  V30 3827 C 370.102 2.29814 -2.12496 0
M  V30 3828 C 370.577 3.19661 -3.27995 0
M  V30 3829 N 372.068 3.27247 -3.27816 0
M  V30 3830 C 372.803 3.96906 -4.13827 0
M  V30 3831 N 372.299 4.6895 -5.09959 0
M  V30 3832 N 374.092 3.93122 -4.01761 0
M  V30 3833 H 366.243 0.594182 -2.0392 0
M  V30 3834 H 368.506 0.324649 -0.890678 0
M  V30 3835 H 368.212 1.74304 -3.05469 0
M  V30 3836 H 368.086 3.17103 -2.04268 0
M  V30 3837 H 370.473 2.71196 -1.16347 0
M  V30 3838 H 370.554 1.2877 -2.21025 0
M  V30 3839 H 370.198 2.78991 -4.24413 0
M  V30 3840 H 370.128 4.20722 -3.16703 0
M  V30 3841 H 372.619 2.75921 -2.58217 0
M  V30 3842 H 372.932 5.19679 -5.71974 0
M  V30 3843 H 371.277 4.67875 -5.13924 0
M  V30 3844 H 374.468 3.35967 -3.2595 0
M  V30 3845 H 374.641 4.47139 -4.6901 0
M  V30 3846 N 368.047 0.979072 1.23499 0
M  V30 3847 C 369.458 0.684391 1.73704 0
M  V30 3848 C 369.809 -0.799448 1.79174 0
M  V30 3849 O 368.934 -1.62531 1.42873 0
M  V30 3850 C 369.529 1.23564 3.15464 0
M  V30 3851 C 368.088 0.99063 3.6313 0
M  V30 3852 C 367.235 1.36416 2.41425 0
M  V30 3853 H 370.186 1.15307 1.09041 0
M  V30 3854 H 370.207 0.607417 3.7562 0
M  V30 3855 H 369.719 2.31561 3.1145 0
M  V30 3856 H 367.82 -0.0733136 3.72528 0
M  V30 3857 H 367.933 1.64427 4.5 0
M  V30 3858 H 366.297 0.782616 2.42378 0
M  V30 3859 H 367.08 2.45387 2.40083 0
M  V30 3860 N 369.525 -1.3858 0.750561 0
M  V30 3861 C 370.455 -2.33102 0.136237 0
M  V30 3862 C 371.436 -1.54713 -0.706965 0
M  V30 3863 O 372.621 -1.83043 -0.648769 0
M  V30 3864 C 369.751 -3.38882 -0.760017 0
M  V30 3865 C 368.705 -4.27995 -0.0197785 0
M  V30 3866 C 368.031 -5.24605 -1.03408 0
M  V30 3867 C 369.331 -5.09554 1.14684 0
M  V30 3868 H 371.025 -2.84726 0.925822 0
M  V30 3869 H 368.571 -1.36898 0.446654 0
M  V30 3870 H 370.524 -4.0397 -1.19943 0
M  V30 3871 H 369.248 -2.85734 -1.58189 0
M  V30 3872 H 367.907 -3.64409 0.400184 0
M  V30 3873 H 367.555 -4.67746 -1.84994 0
M  V30 3874 H 367.255 -5.85081 -0.543464 0
M  V30 3875 H 368.779 -5.9257 -1.47288 0
M  V30 3876 H 370.193 -5.67899 0.785118 0
M  V30 3877 H 368.59 -5.7925 1.56812 0
M  V30 3878 H 369.66 -4.4347 1.96118 0
M  V30 3879 N 371.003 -0.499398 -1.49478 0
M  V30 3880 C 371.951 0.293604 -2.3074 0
M  V30 3881 C 372.945 0.96427 -1.39277 0
M  V30 3882 O 374.151 0.892141 -1.56336 0
M  V30 3883 H 370.526 0.113541 -0.743379 0
M  V30 3884 H 372.497 -0.411772 -2.95545 0
M  V30 3885 C 371.246 1.3462 -3.20582 0
M  V30 3886 H 370.569 0.83954 -3.90886 0
M  V30 3887 H 372.009 1.87308 -3.80384 0
M  V30 3888 C 370.468 2.36351 -2.40083 0
M  V30 3889 O 370.998 3.422 -2.10385 0
M  V30 3890 N 369.204 2.0878 -2.02137 0
M  V30 3891 H 368.751 1.22723 -2.26488 0
M  V30 3892 H 368.709 2.77075 -1.48583 0
M  V30 3893 N 372.481 1.55866 -0.233164 0
M  V30 3894 C 373.758 1.90471 0.444988 0
M  V30 3895 C 374.138 1.15209 1.7689 0
M  V30 3896 O 373.486 0.265119 2.26957 0
M  V30 3897 C 373.696 3.4333 0.626559 0
M  V30 3898 C 375.044 4.14319 0.92871 0
M  V30 3899 O 376.068 3.48993 0.712926 0
M  V30 3900 O 374.927 5.29846 1.33887 0
M  V30 3901 H 372.021 0.792347 0.236885 0
M  V30 3902 H 374.567 1.67437 -0.276211 0
M  V30 3903 H 373.339 3.90095 -0.306822 0
M  V30 3904 H 372.962 3.72181 1.39881 0
M  V30 3905 N 373.959 -0.0401083 1.57549 0
M  V30 3906 C 374.906 -1.04413 2.05831 0
M  V30 3907 C 375.876 -1.36585 0.945184 0
M  V30 3908 O 377.061 -1.47112 1.21502 0
M  V30 3909 C 374.201 -2.34336 2.53339 0
M  V30 3910 C 373.314 -2.08419 3.78398 0
M  V30 3911 C 372.449 -3.32133 4.14561 0
M  V30 3912 C 371.488 -3.01721 5.3257 0
M  V30 3913 N 370.625 -4.17855 5.64218 0
M  V30 3914 H 375.465 -0.625442 2.91363 0
M  V30 3915 H 373.002 -0.297218 1.44066 0
M  V30 3916 H 374.96 -3.10234 2.78946 0
M  V30 3917 H 373.59 -2.73948 1.7074 0
M  V30 3918 H 372.642 -1.23069 3.59942 0
M  V30 3919 H 373.954 -1.81978 4.64419 0
M  V30 3920 H 373.108 -4.16406 4.41238 0
M  V30 3921 H 371.847 -3.61678 3.2717 0
M  V30 3922 H 370.852 -2.15849 5.05657 0
M  V30 3923 H 372.077 -2.73466 6.21605 0
M  V30 3924 H 370.023 -4.47372 4.79786 0
M  V30 3925 H 369.94 -3.94798 6.44725 0
M  V30 3926 H 371.208 -5.03033 5.95465 0
M  V30 3927 N 375.437 -1.54477 -0.31217 0
M  V30 3928 C 376.683 -1.73483 -1.0503 0
M  V30 3929 C 377.016 -0.513125 -1.87298 0
M  V30 3930 O 376.291 0.489864 -1.8823 0
M  V30 3931 C 376.574 -3.01723 -1.96558 0
M  V30 3932 C 376.427 -4.3417 -1.17545 0
M  V30 3933 C 377.746 -3.25772 -2.95907 0
M  V30 3934 H 374.865 -0.631222 -0.380432 0
M  V30 3935 H 377.507 -1.87184 -0.325932 0
M  V30 3936 H 375.657 -2.90174 -2.58324 0
M  V30 3937 H 377.329 -4.5762 -0.581513 0
M  V30 3938 H 375.572 -4.31159 -0.477925 0
M  V30 3939 H 376.243 -5.20143 -1.84811 0
M  V30 3940 H 378.719 -3.36857 -2.44267 0
M  V30 3941 H 377.595 -4.16838 -3.57123 0
M  V30 3942 H 377.856 -2.43537 -3.68974 0
M  V30 3943 N 376.915 0.57481 -1.46744 0
M  V30 3944 C 377.863 1.70435 -1.58286 0
M  V30 3945 C 378.857 1.63287 -0.450956 0
M  V30 3946 O 380.063 1.68685 -0.628121 0
M  V30 3947 H 376.438 0.56364 -0.497809 0
M  V30 3948 H 378.409 1.57833 -2.53242 0
M  V30 3949 C 377.158 3.08815 -1.59776 0
M  V30 3950 H 376.481 3.1499 -2.46214 0
M  V30 3951 H 377.921 3.87588 -1.71905 0
M  V30 3952 C 376.38 3.35301 -0.327812 0
M  V30 3953 O 376.91 3.97511 0.57861 0
M  V30 3954 N 375.116 2.89816 -0.213274 0
M  V30 3955 H 374.663 2.39371 -0.951798 0
M  V30 3956 H 374.621 3.0791 0.63553 0
M  V30 3957 N 378.394 1.34581 0.820102 0
M  V30 3958 C 379.304 1.28471 1.96297 0
M  V30 3959 C 380.32 0.191902 1.72939 0
M  V30 3960 O 381.496 0.418879 1.96996 0
M  V30 3961 C 378.561 1.04281 3.30645 0
M  V30 3962 C 377.622 2.22745 3.66992 0
M  V30 3963 C 376.855 1.997 4.9493 0
M  V30 3964 O 377.078 0.956656 5.6232 0
M  V30 3965 O 376.012 2.86723 5.2922 0
M  V30 3966 H 379.838 2.24624 2.04396 0
M  V30 3967 H 377.423 1.14816 0.955913 0
M  V30 3968 H 379.305 0.925841 4.11104 0
M  V30 3969 H 377.98 0.111697 3.23507 0
M  V30 3970 H 376.887 2.40003 2.86966 0
M  V30 3971 H 378.22 3.14257 3.78819 0
M  V30 3972 N 379.872 -1.04064 1.18357 0
M  V30 3973 C 380.819 -2.12077 0.910603 0
M  V30 3974 C 381.789 -1.65421 -0.15 0
M  V30 3975 O 382.974 -1.90797 -0.0103614 0
M  V30 3976 C 380.114 -3.42252 0.442472 0
M  V30 3977 C 379.227 -4.0252 1.5685 0
M  V30 3978 C 378.362 -5.20657 1.05309 0
M  V30 3979 C 377.401 -5.72955 2.1538 0
M  V30 3980 N 376.538 -6.8238 1.65233 0
M  V30 3981 H 381.378 -2.34764 1.83548 0
M  V30 3982 H 378.915 -1.15157 0.915279 0
M  V30 3983 H 380.873 -4.16921 0.152534 0
M  V30 3984 H 379.503 -3.19712 -0.445428 0
M  V30 3985 H 378.555 -3.25178 1.97391 0
M  V30 3986 H 379.867 -4.37362 2.39824 0
M  V30 3987 H 379.021 -6.0244 0.717677 0
M  V30 3988 H 377.76 -4.87318 0.19293 0
M  V30 3989 H 376.765 -4.89793 2.49766 0
M  V30 3990 H 377.99 -6.08337 3.01832 0
M  V30 3991 H 375.936 -6.50917 0.815064 0
M  V30 3992 H 375.853 -7.16286 2.41805 0
M  V30 3993 H 377.121 -7.67788 1.34619 0
M  V30 3994 N 381.35 -0.985608 -1.22978 0
M  V30 3995 C 382.578 -0.675582 -1.95559 0
M  V30 3996 C 382.993 0.758413 -1.72897 0
M  V30 3997 O 382.35 1.51094 -1.02357 0
M  V30 3998 C 382.401 -0.96293 -3.48439 0
M  V30 3999 O 382.122 -2.34057 -3.70336 0
M  V30 4000 C 383.623 -0.669585 -4.38214 0
M  V30 4001 H 380.843 -0.250523 -0.622478 0
M  V30 4002 H 383.387 -1.3184 -1.56328 0
M  V30 4003 H 381.542 -0.366033 -3.85667 0
M  V30 4004 H 381.956 -2.43424 -4.64591 0
M  V30 4005 H 383.43 -0.920967 -5.44263 0
M  V30 4006 H 383.907 0.396383 -4.37408 0
M  V30 4007 H 384.513 -1.2472 -4.06602 0
M  V30 4008 N 382.828 1.3818 -0.7579 0
M  V30 4009 C 384.056 2.04301 -0.326937 0
M  V30 4010 C 384.471 1.57163 1.0462 0
M  V30 4011 O 383.828 0.746626 1.66529 0
M  V30 4012 C 383.879 3.59846 -0.345363 0
M  V30 4013 O 383.6 4.05256 -1.66432 0
M  V30 4014 C 385.101 4.4319 0.098927 0
M  V30 4015 H 382.321 0.656443 -0.139012 0
M  V30 4016 H 384.865 1.76786 -1.02796 0
M  V30 4017 H 383.02 3.86182 0.306955 0
M  V30 4018 H 383.434 4.99709 -1.59345 0
M  V30 4019 H 384.908 5.51989 0.0348745 0
M  V30 4020 H 385.385 4.23947 1.14741 0
M  V30 4021 H 385.991 4.22051 -0.52468 0
M  V30 4022 N 384.306 0.507319 1.49211 0
M  V30 4023 C 385.236 -0.256939 2.32082 0
M  V30 4024 C 386.217 -0.956609 1.40652 0
M  V30 4025 O 387.402 -0.946788 1.69557 0
M  V30 4026 C 384.532 -1.31802 3.21318 0
M  V30 4027 C 383.486 -0.737855 4.21592 0
M  V30 4028 C 382.812 -1.89992 4.99807 0
M  V30 4029 C 384.112 0.275325 5.21574 0
M  V30 4030 H 385.806 0.434798 2.96226 0
M  V30 4031 H 383.352 0.210546 1.42452 0
M  V30 4032 H 385.305 -1.86045 3.78107 0
M  V30 4033 H 384.029 -2.03903 2.5513 0
M  V30 4034 H 382.688 -0.217126 3.65956 0
M  V30 4035 H 382.336 -2.60877 4.30061 0
M  V30 4036 H 382.036 -1.51777 5.6766 0
M  V30 4037 H 383.56 -2.44657 5.59442 0
M  V30 4038 H 384.974 -0.179193 5.7302 0
M  V30 4039 H 383.371 0.573649 5.97352 0
M  V30 4040 H 384.441 1.18903 4.70096 0
M  V30 4041 N 385.784 -1.5574 0.241426 0
M  V30 4042 C 386.714 -2.24133 -0.654722 0
M  V30 4043 C 387.695 -1.21974 -1.1856 0
M  V30 4044 O 388.88 -1.50612 -1.22595 0
M  V30 4045 C 386.01 -2.93659 -1.85423 0
M  V30 4046 C 384.964 -4.0246 -1.45636 0
M  V30 4047 C 384.29 -4.59383 -2.73626 0
M  V30 4048 C 385.59 -5.18468 -0.631506 0
M  V30 4049 H 387.284 -2.99281 -0.0844353 0
M  V30 4050 H 384.83 -1.43947 -0.0391707 0
M  V30 4051 H 386.783 -3.40203 -2.48676 0
M  V30 4052 H 385.507 -2.15991 -2.44981 0
M  V30 4053 H 384.166 -3.56676 -0.847202 0
M  V30 4054 H 383.814 -3.78422 -3.3137 0
M  V30 4055 H 383.514 -5.32826 -2.4773 0
M  V30 4056 H 385.038 -5.08658 -3.37786 0
M  V30 4057 H 386.452 -5.61272 -1.1682 0
M  V30 4058 H 384.849 -5.98266 -0.468831 0
M  V30 4059 H 385.919 -4.8358 0.357506 0
M  V30 4060 N 387.262 0.0317525 -1.57568 0
M  V30 4061 C 388.21 1.05165 -2.07468 0
M  V30 4062 C 389.204 1.3761 -0.98792 0
M  V30 4063 O 390.41 1.36546 -1.17282 0
M  V30 4064 H 386.785 0.35666 -0.66204 0
M  V30 4065 H 388.756 0.604958 -2.92203 0
M  V30 4066 C 387.505 2.34488 -2.56731 0
M  V30 4067 H 386.828 2.10383 -3.39969 0
M  V30 4068 H 388.268 3.04203 -2.95358 0
M  V30 4069 C 386.727 3.03266 -1.46736 0
M  V30 4070 O 387.257 3.92988 -0.832069 0
M  V30 4071 N 385.463 2.6455 -1.20256 0
M  V30 4072 H 385.01 1.91674 -1.72102 0
M  V30 4073 H 384.968 3.10886 -0.468737 0
M  V30 4074 N 388.74 1.54641 0.303973 0
M  V30 4075 C 390.017 1.64455 1.05896 0
M  V30 4076 C 390.397 0.490923 2.05312 0
M  V30 4077 O 389.745 -0.512685 2.22674 0
M  V30 4078 C 389.955 3.02331 1.74347 0
M  V30 4079 C 391.303 3.59045 2.26653 0
M  V30 4080 O 392.327 3.04764 1.84384 0
M  V30 4081 O 391.186 4.54081 3.04093 0
M  V30 4082 H 388.28 0.666729 0.489287 0
M  V30 4083 H 390.826 1.66986 0.302298 0
M  V30 4084 H 389.598 3.77734 1.02142 0
M  V30 4085 H 389.221 3.03565 2.56777 0
M  V30 4086 N 390.218 -0.567019 1.47046 0
M  V30 4087 C 391.446 -1.35027 1.56765 0
M  V30 4088 C 391.861 -1.8758 0.214316 0
M  V30 4089 O 391.218 -1.64471 -0.790919 0
M  V30 4090 C 391.269 -2.52698 2.58507 0
M  V30 4091 O 390.99 -2.0232 3.88585 0
M  V30 4092 C 392.491 -3.45043 2.78316 0
M  V30 4093 H 389.711 -0.41195 0.529658 0
M  V30 4094 H 392.255 -0.687832 1.92585 0
M  V30 4095 H 390.41 -3.149 2.25648 0
M  V30 4096 H 390.824 -2.79068 4.44096 0
M  V30 4097 H 392.298 -4.2405 3.53391 0
M  V30 4098 H 392.775 -3.97971 1.85784 0
M  V30 4099 H 393.381 -2.88665 3.12334 0
M  V30 4100 N 391.696 -1.35014 -0.812953 0
M  V30 4101 C 392.921 -1.31187 -1.60639 0
M  V30 4102 C 393.346 0.109382 -1.87782 0
M  V30 4103 O 392.704 1.07424 -1.46047 0
M  V30 4104 C 392.752 -2.11809 -2.91838 0
M  V30 4105 O 391.856 -1.49444 -3.8437 0
M  V30 4106 H 391.197 -0.450084 -0.488181 0
M  V30 4107 H 393.727 -1.77963 -1.00947 0
M  V30 4108 H 393.737 -2.23531 -3.41318 0
M  V30 4109 H 392.412 -3.15137 -2.71407 0
M  V30 4110 H 390.989 -1.46524 -3.42907 0
M  V30 4111 N 393.175 1.03435 -1.18907 0
M  V30 4112 C 394.4 1.80919 -1.01406 0
M  V30 4113 C 394.825 1.83055 0.432721 0
M  V30 4114 O 394.183 1.25252 1.31079 0
M  V30 4115 C 394.231 3.24091 -1.58105 0
M  V30 4116 O 393.335 4.04434 -0.806669 0
M  V30 4117 H 392.676 0.558709 -0.358803 0
M  V30 4118 H 395.206 1.30223 -1.57807 0
M  V30 4119 H 395.216 3.74853 -1.61087 0
M  V30 4120 H 393.891 3.21851 -2.6341 0
M  V30 4121 H 392.468 3.63091 -0.849666 0
M  V30 4122 N 394.653 0.992116 1.22453 0
M  V30 4123 C 396.069 0.702713 1.43297 0
M  V30 4124 C 396.269 -0.726909 1.87932 0
M  V30 4125 O 395.325 -1.49792 2.0327 0
M  V30 4126 C 396.638 1.70762 2.47509 0
M  V30 4127 C 398.186 1.72298 2.61309 0
M  V30 4128 C 398.661 2.71649 3.68742 0
M  V30 4129 N 400.152 2.70239 3.76199 0
M  V30 4130 C 400.887 3.43778 4.58917 0
M  V30 4131 N 400.383 4.26914 5.45633 0
M  V30 4132 N 402.176 3.32487 4.5322 0
M  V30 4133 H 394.327 1.91543 0.917871 0
M  V30 4134 H 396.59 0.826031 0.465162 0
M  V30 4135 H 396.296 2.73059 2.21657 0
M  V30 4136 H 396.17 1.49985 3.46099 0
M  V30 4137 H 398.557 0.706989 2.86506 0
M  V30 4138 H 398.638 1.97143 1.62997 0
M  V30 4139 H 398.282 3.73397 3.44292 0
M  V30 4140 H 398.212 2.44074 4.66622 0
M  V30 4141 H 400.703 2.09912 3.14237 0
M  V30 4142 H 401.016 4.79855 6.05771 0
M  V30 4143 H 399.361 4.31002 5.45218 0
M  V30 4144 H 402.552 2.6698 3.84499 0
M  V30 4145 H 402.725 3.90058 5.17454 0
M  V30 4146 N 396.131 -1.37776 0.765217 0
M  V30 4147 C 397.361 -2.03828 0.337277 0
M  V30 4148 C 397.769 -1.57841 -1.04321 0
M  V30 4149 O 397.112 -0.752043 -1.67601 0
M  V30 4150 C 397.174 -3.58292 0.294407 0
M  V30 4151 C 396.838 -4.27384 1.61838 0
M  V30 4152 C 397.835 -4.51956 2.56967 0
M  V30 4153 C 395.52 -4.65345 1.89102 0
M  V30 4154 C 397.514 -5.13536 3.77571 0
M  V30 4155 C 395.201 -5.26647 3.09978 0
M  V30 4156 C 396.199 -5.50679 4.04032 0
M  V30 4157 O 395.887 -6.10702 5.2278 0
M  V30 4158 H 395.619 -0.661292 0.140248 0
M  V30 4159 H 398.173 -1.77222 1.03834 0
M  V30 4160 H 396.403 -3.83918 -0.462983 0
M  V30 4161 H 398.092 -4.05763 -0.105581 0
M  V30 4162 H 398.858 -4.23048 2.37183 0
M  V30 4163 H 394.737 -4.45978 1.16725 0
M  V30 4164 H 398.281 -5.3221 4.50997 0
M  V30 4165 H 394.178 -5.54979 3.29649 0
M  V30 4166 H 394.946 -6.29183 5.23517 0
M  V30 4167 N 397.609 -0.515225 -1.4894 0
M  V30 4168 C 398.557 0.269115 -2.31038 0
M  V30 4169 C 399.551 0.949443 -1.40292 0
M  V30 4170 O 400.757 0.87551 -1.57273 0
M  V30 4171 H 397.132 0.10565 -0.744542 0
M  V30 4172 H 399.103 -0.443096 -2.95092 0
M  V30 4173 C 397.852 1.31213 -3.21991 0
M  V30 4174 H 397.175 0.798034 -3.91754 0
M  V30 4175 H 398.615 1.83263 -3.82349 0
M  V30 4176 C 397.074 2.33791 -2.42576 0
M  V30 4177 O 397.604 3.3995 -2.14003 0
M  V30 4178 N 395.81 2.06625 -2.0434 0
M  V30 4179 H 395.357 1.20314 -2.27777 0
M  V30 4180 H 395.315 2.75483 -1.51514 0
M  V30 4181 N 399.087 1.5561 -0.249682 0
M  V30 4182 C 400.312 2.03865 0.381305 0
M  V30 4183 C 400.737 1.12769 1.50548 0
M  V30 4184 O 400.095 0.121189 1.80895 0
M  V30 4185 C 400.143 3.50101 0.863816 0
M  V30 4186 O 399.247 3.62132 1.97318 0
M  V30 4187 H 398.588 0.658827 0.0827194 0
M  V30 4188 H 401.118 2.01105 -0.376552 0
M  V30 4189 H 401.128 3.90975 1.1663 0
M  V30 4190 H 399.803 4.1588 0.0411816 0
M  V30 4191 H 398.38 3.33155 1.67517 0
M  V30 4192 N 400.565 -0.0233959 1.57583 0
M  V30 4193 C 401.528 -1.00693 2.05897 0
M  V30 4194 C 402.528 -1.28693 0.964092 0
M  V30 4195 O 403.718 -1.23602 1.22753 0
M  V30 4196 C 400.85 -2.33825 2.4807 0
M  V30 4197 H 402.043 -0.589476 2.9405 0
M  V30 4198 H 399.596 -0.270354 1.53944 0
M  V30 4199 H 400.331 -2.80307 1.6309 0
M  V30 4200 H 400.116 -2.1483 3.2801 0
M  V30 4201 H 401.606 -3.04426 2.85857 0
M  V30 4202 N 402.043 -1.548 -0.295768 0
M  V30 4203 C 403.289 -1.74588 -1.03184 0
M  V30 4204 C 403.622 -0.532962 -1.86744 0
M  V30 4205 O 402.897 0.469872 -1.88739 0
M  V30 4206 C 403.18 -3.03791 -1.93347 0
M  V30 4207 C 403.033 -4.35392 -1.12933 0
M  V30 4208 C 404.352 -3.28892 -2.92435 0
M  V30 4209 H 401.471 -0.635221 -0.373715 0
M  V30 4210 H 404.113 -1.87519 -0.30606 0
M  V30 4211 H 402.263 -2.92898 -2.55232 0
M  V30 4212 H 403.935 -4.58211 -0.532943 0
M  V30 4213 H 402.178 -4.31642 -0.432168 0
M  V30 4214 H 402.849 -5.22074 -1.79284 0
M  V30 4215 H 405.325 -3.39429 -2.4068 0
M  V30 4216 H 404.201 -4.20603 -3.52682 0
M  V30 4217 H 404.462 -2.47437 -3.6637 0
M  V30 4218 N 403.521 0.559213 -1.47345 0
M  V30 4219 C 404.431 1.69388 -1.62311 0
M  V30 4220 C 405.447 1.6648 -0.505993 0
M  V30 4221 O 406.623 1.85964 -0.773262 0
M  V30 4222 C 403.688 3.05894 -1.63185 0
M  V30 4223 C 402.749 3.19885 -2.86307 0
M  V30 4224 C 401.982 4.49879 -2.87131 0
M  V30 4225 O 402.205 5.35217 -1.97229 0
M  V30 4226 O 401.139 4.67618 -3.78968 0
M  V30 4227 H 404.965 1.59706 -2.58317 0
M  V30 4228 H 402.55 0.728989 -1.30407 0
M  V30 4229 H 404.432 3.87133 -1.66451 0
M  V30 4230 H 403.107 3.15964 -0.70345 0
M  V30 4231 H 402.014 2.38052 -2.88587 0
M  V30 4232 H 403.347 3.14718 -3.78435 0
M  V30 4233 N 404.999 1.35443 0.805782 0
M  V30 4234 C 405.962 1.28301 1.89925 0
M  V30 4235 C 406.962 0.194285 1.59622 0
M  V30 4236 O 408.152 0.448036 1.6834 0
M  V30 4237 C 405.284 0.984997 3.2636 0
M  V30 4238 H 406.477 2.2553 1.97677 0
M  V30 4239 H 404.03 1.19979 1.00173 0
M  V30 4240 H 404.765 0.016603 3.24296 0
M  V30 4241 H 404.55 1.77269 3.4974 0
M  V30 4242 H 406.04 0.960651 4.064 0
M  V30 4243 N 406.477 -1.02803 1.19454 0
M  V30 4244 C 407.407 -2.12999 0.956758 0
M  V30 4245 C 408.388 -1.69743 -0.110188 0
M  V30 4246 O 409.573 -1.94148 0.0450038 0
M  V30 4247 C 406.703 -3.43746 0.495553 0
M  V30 4248 C 405.657 -4.00688 1.50443 0
M  V30 4249 C 404.983 -5.27067 0.900275 0
M  V30 4250 C 406.283 -4.35397 2.8849 0
M  V30 4251 H 407.977 -2.33148 1.87836 0
M  V30 4252 H 405.523 -1.12045 0.904539 0
M  V30 4253 H 407.476 -4.2021 0.316493 0
M  V30 4254 H 406.2 -3.23321 -0.461646 0
M  V30 4255 H 404.859 -3.2632 1.67065 0
M  V30 4256 H 404.507 -5.02959 -0.064503 0
M  V30 4257 H 404.207 -5.66127 1.57397 0
M  V30 4258 H 405.731 -6.06196 0.73203 0
M  V30 4259 H 407.145 -5.02795 2.75446 0
M  V30 4260 H 405.542 -4.85541 3.52661 0
M  V30 4261 H 406.612 -3.44662 3.41081 0
M  V30 4262 N 407.956 -0.998596 -1.21925 0
M  V30 4263 C 408.904 -0.546641 -2.26085 0
M  V30 4264 C 409.898 0.405576 -1.64473 0
M  V30 4265 O 411.104 0.277471 -1.77849 0
M  V30 4266 H 407.479 -0.158403 -0.735127 0
M  V30 4267 H 409.45 -1.43645 -2.61551 0
M  V30 4268 C 408.199 0.117388 -3.47502 0
M  V30 4269 H 407.522 -0.606277 -3.95176 0
M  V30 4270 H 408.962 0.396993 -4.22137 0
M  V30 4271 C 407.421 1.35455 -3.0847 0
M  V30 4272 O 407.951 2.44944 -3.18379 0
M  V30 4273 N 406.157 1.23191 -2.63196 0
M  V30 4274 H 405.704 0.341006 -2.55333 0
M  V30 4275 H 405.662 2.06071 -2.37449 0
M  V30 4276 N 409.434 1.37368 -0.772513 0
M  V30 4277 C 410.85 1.53059 -0.452231 0
M  V30 4278 C 411.05 1.73065 1.03203 0
M  V30 4279 O 410.106 1.75245 1.81784 0
M  V30 4280 C 411.419 2.72659 -1.26797 0
M  V30 4281 C 412.967 2.86521 -1.25995 0
M  V30 4282 C 413.442 4.09105 -2.05905 0
M  V30 4283 N 414.933 4.16219 -2.03263 0
M  V30 4284 C 415.668 5.10107 -2.61875 0
M  V30 4285 N 415.164 6.09547 -3.29278 0
M  V30 4286 N 416.957 5.02596 -2.51701 0
M  V30 4287 H 409.108 1.22634 -1.7342 0
M  V30 4288 H 411.371 0.597206 -0.736239 0
M  V30 4289 H 411.077 2.64343 -2.31982 0
M  V30 4290 H 410.951 3.66363 -0.897672 0
M  V30 4291 H 413.338 2.94308 -0.216081 0
M  V30 4292 H 413.419 1.93774 -1.66989 0
M  V30 4293 H 413.063 4.0208 -3.10313 0
M  V30 4294 H 412.993 5.00968 -1.62292 0
M  V30 4295 H 415.484 3.45012 -1.54192 0
M  V30 4296 H 415.797 6.77718 -3.71374 0
M  V30 4297 H 414.142 6.09824 -3.33377 0
M  V30 4298 H 417.333 4.23855 -1.98657 0
M  V30 4299 H 417.506 5.75582 -2.97673 0
M  V30 4300 N 410.912 0.523116 1.48665 0
M  V30 4301 C 412.159 -0.0134763 2.02496 0
M  V30 4302 C 412.487 -1.3493 1.40086 0
M  V30 4303 O 411.742 -1.88286 0.533567 0
M  V30 4304 C 412.041 -0.191671 3.56886 0
M  V30 4305 C 411.707 1.06893 4.38046 0
M  V30 4306 C 410.369 1.41443 4.59943 0
M  V30 4307 C 412.721 1.90584 4.85106 0
M  V30 4308 C 410.049 2.59594 5.26144 0
M  V30 4309 C 412.401 3.07907 5.52609 0
M  V30 4310 C 411.065 3.42811 5.72745 0
M  V30 4311 H 410.335 -0.00493133 0.740984 0
M  V30 4312 H 412.982 0.687751 1.78724 0
M  V30 4313 H 411.287 -0.97561 3.79459 0
M  V30 4314 H 412.984 -0.621659 3.96152 0
M  V30 4315 H 409.574 0.789848 4.21259 0
M  V30 4316 H 413.758 1.65203 4.67997 0
M  V30 4317 H 409.014 2.86847 5.39934 0
M  V30 4318 H 413.188 3.73066 5.88043 0
M  V30 4319 H 410.815 4.34462 6.23816 0
M  V30 4320 N 412.39 -1.55475 0.257931 0
M  V30 4321 C 413.639 -1.98383 -0.364275 0
M  V30 4322 C 413.952 -1.14952 -1.58258 0
M  V30 4323 O 415.158 -1.47924 -2.27664 0
M  V30 4324 C 413.614 -3.53037 -0.699479 0
M  V30 4325 C 413.222 -4.45223 0.498046 0
M  V30 4326 C 414.966 -4.04575 -1.28526 0
M  V30 4327 C 412.873 -5.91238 0.138383 0
M  V30 4328 H 411.803 -0.740911 -0.13988 0
M  V30 4329 H 414.454 -1.79936 0.359883 0
M  V30 4330 H 412.836 -3.6722 -1.48207 0
M  V30 4331 H 414.01 -4.42803 1.27522 0
M  V30 4332 H 412.325 -4.04226 0.999503 0
M  V30 4333 H 414.922 -5.11196 -1.56788 0
M  V30 4334 H 415.265 -3.5258 -2.21344 0
M  V30 4335 H 415.798 -3.93762 -0.565337 0
M  V30 4336 H 412.537 -6.47294 1.03398 0
M  V30 4337 H 412.057 -5.96768 -0.602374 0
M  V30 4338 H 413.736 -6.46413 -0.27553 0
M  V30 4339 N 413.868 0.0150385 -1.57593 0
M  V30 4340 C 414.8 1.03912 -2.04291 0
M  V30 4341 C 415.813 1.31618 -0.958146 0
M  V30 4342 O 417.002 1.28859 -1.23522 0
M  V30 4343 C 414.102 2.37749 -2.41514 0
M  V30 4344 C 413.275 2.29198 -3.72541 0
M  V30 4345 C 412.334 3.45598 -3.96797 0
M  V30 4346 O 411.36 3.24461 -4.67668 0
M  V30 4347 N 412.562 4.67945 -3.43523 0
M  V30 4348 H 415.327 0.64099 -2.92765 0
M  V30 4349 H 412.888 0.20272 -1.60626 0
M  V30 4350 H 414.88 3.14364 -2.54867 0
M  V30 4351 H 413.45 2.69357 -1.58637 0
M  V30 4352 H 412.67 1.3759 -3.69408 0
M  V30 4353 H 413.958 2.20642 -4.5847 0
M  V30 4354 H 413.356 4.88017 -2.86104 0
M  V30 4355 H 411.913 5.41878 -3.62232 0
M  V30 4356 N 415.346 1.54954 0.287554 0
M  V30 4357 C 416.293 1.86834 1.35505 0
M  V30 4358 C 417.263 0.718452 1.49758 0
M  V30 4359 O 418.448 0.968358 1.644 0
M  V30 4360 C 415.588 2.13303 2.71286 0
M  V30 4361 C 414.701 3.40883 2.65373 0
M  V30 4362 C 413.836 3.57125 3.93236 0
M  V30 4363 C 412.875 4.78449 3.81776 0
M  V30 4364 N 412.012 4.91426 5.01443 0
M  V30 4365 H 416.852 2.77889 1.07619 0
M  V30 4366 H 414.389 1.37593 0.520241 0
M  V30 4367 H 416.347 2.26646 3.50267 0
M  V30 4368 H 414.977 1.25499 2.97405 0
M  V30 4369 H 414.029 3.36088 1.78182 0
M  V30 4370 H 415.341 4.29993 2.52799 0
M  V30 4371 H 414.495 3.70207 4.80658 0
M  V30 4372 H 413.234 2.66173 4.0866 0
M  V30 4373 H 412.239 4.65386 2.92738 0
M  V30 4374 H 413.464 5.70822 3.67884 0
M  V30 4375 H 411.41 4.03401 5.17304 0
M  V30 4376 H 411.327 5.74559 4.91343 0
M  V30 4377 H 412.595 5.08879 5.90477 0
M  V30 4378 N 416.824 -0.551391 1.4764 0
M  V30 4379 C 418.054 -1.33163 1.57959 0
M  V30 4380 C 418.462 -1.87785 0.23094 0
M  V30 4381 O 417.805 -1.65996 -0.786825 0
M  V30 4382 C 417.867 -2.53449 2.54958 0
M  V30 4383 C 417.531 -2.20071 4.00522 0
M  V30 4384 C 418.528 -1.77017 4.88836 0
M  V30 4385 C 416.213 -2.31252 4.45901 0
M  V30 4386 C 418.207 -1.4558 6.20552 0
M  V30 4387 C 415.894 -1.99427 5.77644 0
M  V30 4388 C 416.892 -1.56659 6.64791 0
M  V30 4389 O 416.58 -1.25242 7.94084 0
M  V30 4390 H 416.312 -0.412022 0.535923 0
M  V30 4391 H 418.866 -0.674186 1.9402 0
M  V30 4392 H 417.096 -3.22104 2.13976 0
M  V30 4393 H 418.785 -3.15523 2.55343 0
M  V30 4394 H 419.551 -1.67867 4.55023 0
M  V30 4395 H 415.43 -2.63498 3.78272 0
M  V30 4396 H 418.974 -1.12125 6.8853 0
M  V30 4397 H 414.871 -2.08211 6.10998 0
M  V30 4398 H 415.639 -1.38822 8.06642 0
M  V30 4399 N 418.302 -1.35869 -0.798587 0
M  V30 4400 C 419.579 -1.20145 -1.54352 0
M  V30 4401 C 419.959 0.216161 -2.0999 0
M  V30 4402 O 419.307 1.22068 -1.93162 0
M  V30 4403 C 419.517 -2.27602 -2.64572 0
M  V30 4404 C 420.865 -2.63811 -3.32699 0
M  V30 4405 O 421.889 -2.26576 -2.74849 0
M  V30 4406 O 420.748 -3.27866 -4.37226 0
M  V30 4407 H 417.842 -0.467248 -0.682355 0
M  V30 4408 H 420.388 -1.47574 -0.837859 0
M  V30 4409 H 419.16 -3.2265 -2.21388 0
M  V30 4410 H 418.783 -2.01488 -3.42766 0
M  V30 4411 N 419.78 1.02168 -1.19998 0
M  V30 4412 C 421.005 1.79833 -1.03319 0
M  V30 4413 C 421.43 1.83504 0.413281 0
M  V30 4414 O 420.788 1.26635 1.29743 0
M  V30 4415 C 420.836 3.22396 -1.61533 0
M  V30 4416 O 419.94 4.03555 -0.849519 0
M  V30 4417 H 419.281 0.554872 -0.364709 0
M  V30 4418 H 421.811 1.28542 -1.59179 0
M  V30 4419 H 421.821 3.73124 -1.65054 0
M  V30 4420 H 420.496 3.19039 -2.66809 0
M  V30 4421 H 419.073 3.62169 -0.888129 0
M  V30 4422 N 421.258 1.00505 1.21394 0
M  V30 4423 C 422.504 0.688793 1.90745 0
M  V30 4424 C 422.837 -0.778486 1.77914 0
M  V30 4425 O 422.112 -1.56433 1.15581 0
M  V30 4426 C 422.395 1.11063 3.42545 0
M  V30 4427 C 422.248 2.63737 3.64367 0
M  V30 4428 C 423.567 0.673059 4.34923 0
M  V30 4429 H 420.686 0.251702 0.692687 0
M  V30 4430 H 423.328 1.25074 1.43026 0
M  V30 4431 H 421.478 0.632508 3.83317 0
M  V30 4432 H 423.15 3.19313 3.32922 0
M  V30 4433 H 421.393 3.05248 3.08231 0
M  V30 4434 H 422.064 2.88305 4.70727 0
M  V30 4435 H 424.54 1.08392 4.01734 0
M  V30 4436 H 423.416 0.996383 5.39781 0
M  V30 4437 H 423.677 -0.425808 4.40045 0
M  V30 4438 N 422.737 -1.36956 0.779787 0
M  V30 4439 C 423.667 -2.32761 0.185651 0
M  V30 4440 C 424.648 -1.56177 -0.673989 0
M  V30 4441 O 425.833 -1.84378 -0.609797 0
M  V30 4442 C 422.963 -3.40418 -0.687964 0
M  V30 4443 C 421.917 -4.27941 0.0710102 0
M  V30 4444 C 421.243 -5.26681 -0.922573 0
M  V30 4445 C 422.543 -5.07006 1.25467 0
M  V30 4446 H 424.237 -2.82698 0.986008 0
M  V30 4447 H 421.783 -1.3592 0.475592 0
M  V30 4448 H 423.736 -4.06423 -1.11348 0
M  V30 4449 H 422.46 -2.89025 -1.52093 0
M  V30 4450 H 421.119 -3.63478 0.47739 0
M  V30 4451 H 420.767 -4.71565 -1.7503 0
M  V30 4452 H 420.467 -5.86103 -0.419237 0
M  V30 4453 H 421.991 -5.9556 -1.34686 0
M  V30 4454 H 423.405 -5.66105 0.905401 0
M  V30 4455 H 421.802 -5.75793 1.69063 0
M  V30 4456 H 422.872 -4.3921 2.05481 0
M  V30 4457 N 424.215 -0.530993 -1.48385 0
M  V30 4458 C 425.631 -0.188919 -1.58478 0
M  V30 4459 C 425.831 1.30786 -1.53288 0
M  V30 4460 O 424.887 2.08619 -1.42248 0
M  V30 4461 C 426.2 -0.792343 -2.90073 0
M  V30 4462 C 427.748 -0.76117 -3.03604 0
M  V30 4463 C 428.223 -1.34319 -4.37861 0
M  V30 4464 N 429.714 -1.3052 -4.44431 0
M  V30 4465 C 430.449 -1.72543 -5.46824 0
M  V30 4466 N 429.945 -2.22299 -6.56167 0
M  V30 4467 N 431.738 -1.63773 -5.37712 0
M  V30 4468 H 423.889 -1.50377 -1.50002 0
M  V30 4469 H 426.152 -0.625559 -0.712306 0
M  V30 4470 H 425.858 -1.84323 -2.99529 0
M  V30 4471 H 425.732 -0.270026 -3.76232 0
M  V30 4472 H 428.119 0.280957 -2.93759 0
M  V30 4473 H 428.2 -1.32097 -2.19053 0
M  V30 4474 H 427.844 -2.38425 -4.4846 0
M  V30 4475 H 427.774 -0.759064 -5.21101 0
M  V30 4476 H 430.265 -0.940973 -3.65997 0
M  V30 4477 H 430.578 -2.52356 -7.30436 0
M  V30 4478 H 428.923 -2.26293 -6.57127 0
M  V30 4479 H 432.114 -1.24698 -4.51185 0
M  V30 4480 H 432.287 -1.96844 -6.17379 0
M  V30 4481 N 425.693 1.55336 -0.266172 0
M  V30 4482 C 426.97 1.91372 0.404486 0
M  V30 4483 C 427.35 1.18935 1.74407 0
M  V30 4484 O 426.698 0.3132 2.26343 0
M  V30 4485 C 426.908 3.44581 0.553593 0
M  V30 4486 C 428.256 4.16196 0.840618 0
M  V30 4487 O 429.28 3.50426 0.638739 0
M  V30 4488 O 428.139 5.32567 1.22618 0
M  V30 4489 H 425.233 0.797194 0.220025 0
M  V30 4490 H 427.779 1.66813 -0.311664 0
M  V30 4491 H 426.551 3.89357 -0.389498 0
M  V30 4492 H 426.174 3.75065 1.31955 0
M  V30 4493 N 427.171 -0.0066808 1.57599 0
M  V30 4494 C 428.42 -0.692078 1.89455 0
M  V30 4495 C 428.733 -1.75306 0.867586 0
M  V30 4496 O 429.939 -2.49262 1.07614 0
M  V30 4497 C 428.395 -1.2821 3.36289 0
M  V30 4498 C 428.003 -0.256291 4.47266 0
M  V30 4499 C 429.747 -1.94608 3.77264 0
M  V30 4500 C 427.654 -0.855927 5.85173 0
M  V30 4501 H 426.584 -0.262252 0.706923 0
M  V30 4502 H 429.235 0.052769 1.83424 0
M  V30 4503 H 427.617 -2.0774 3.37135 0
M  V30 4504 H 428.791 0.513923 4.57925 0
M  V30 4505 H 427.106 0.306862 4.15268 0
M  V30 4506 H 429.703 -2.40364 4.77629 0
M  V30 4507 H 430.046 -2.77382 3.10427 0
M  V30 4508 H 430.579 -1.21822 3.78688 0
M  V30 4509 H 427.318 -0.0671161 6.55466 0
M  V30 4510 H 426.838 -1.59546 5.78191 0
M  V30 4511 H 428.517 -1.35658 6.32618 0
M  V30 4512 N 428.649 -1.55105 -0.279332 0
M  V30 4513 C 429.579 -1.90557 -1.34945 0
M  V30 4514 C 430.56 -0.766738 -1.51839 0
M  V30 4515 O 431.745 -1.02434 -1.64988 0
M  V30 4516 C 428.875 -2.17193 -2.71006 0
M  V30 4517 C 427.829 -3.33021 -2.68851 0
M  V30 4518 C 427.155 -3.45123 -4.08405 0
M  V30 4519 C 428.455 -4.69578 -2.28678 0
M  V30 4520 H 430.149 -2.80188 -1.05522 0
M  V30 4521 H 427.695 -1.34811 -0.506173 0
M  V30 4522 H 429.648 -2.40581 -3.45975 0
M  V30 4523 H 428.372 -1.24355 -3.01999 0
M  V30 4524 H 427.031 -3.0959 -1.9634 0
M  V30 4525 H 426.679 -2.49762 -4.3661 0
M  V30 4526 H 426.379 -4.22995 -4.07859 0
M  V30 4527 H 427.903 -3.70796 -4.85121 0
M  V30 4528 H 429.317 -4.92553 -2.93368 0
M  V30 4529 H 427.714 -5.5032 -2.39306 0
M  V30 4530 H 428.784 -4.68828 -1.23807 0
M  V30 4531 N 430.127 0.543554 -1.4793 0
M  V30 4532 C 431.352 1.32995 -1.59145 0
M  V30 4533 C 431.777 1.86472 -0.246956 0
M  V30 4534 O 431.135 1.63696 0.779324 0
M  V30 4535 C 431.183 2.46623 -2.63077 0
M  V30 4536 O 430.287 3.49261 -2.19295 0
M  V30 4537 H 429.628 0.394472 -0.534124 0
M  V30 4538 H 432.158 0.655489 -1.93816 0
M  V30 4539 H 432.168 2.93001 -2.83926 0
M  V30 4540 H 430.843 2.07059 -3.60693 0
M  V30 4541 H 429.42 3.09094 -2.08603 0
M  V30 4542 N 431.605 1.3629 0.791371 0
M  V30 4543 C 432.568 1.30309 1.88553 0
M  V30 4544 C 433.568 0.211204 1.59407 0
M  V30 4545 O 434.758 0.465865 1.67855 0
M  V30 4546 C 431.89 1.01956 3.25297 0
M  V30 4547 H 433.083 2.27614 1.95273 0
M  V30 4548 H 430.636 1.21035 0.988953 0
M  V30 4549 H 431.371 0.050998 3.2426 0
M  V30 4550 H 431.156 1.80968 3.4784 0
M  V30 4551 H 432.646 1.0037 4.05359 0
M  V30 4552 N 433.083 -1.0153 1.20538 0
M  V30 4553 C 434.332 -1.74558 1.01057 0
M  V30 4554 C 434.645 -1.90168 -0.457756 0
M  V30 4555 O 435.851 -2.60301 -0.771722 0
M  V30 4556 C 434.307 -3.13963 1.75941 0
M  V30 4557 C 433.915 -3.06361 3.26875 0
M  V30 4558 C 435.659 -3.91191 1.64832 0
M  V30 4559 C 433.566 -4.40782 3.94291 0
M  V30 4560 H 432.496 -0.654417 0.374505 0
M  V30 4561 H 435.147 -1.13521 1.44171 0
M  V30 4562 H 433.529 -3.75549 1.25614 0
M  V30 4563 H 434.703 -2.54074 3.84425 0
M  V30 4564 H 433.018 -2.42625 3.38411 0
M  V30 4565 H 435.615 -4.90644 2.12539 0
M  V30 4566 H 435.958 -4.11884 0.604745 0
M  V30 4567 H 436.491 -3.36236 2.12579 0
M  V30 4568 H 433.23 -4.25292 4.98805 0
M  V30 4569 H 432.75 -4.9307 3.41529 0
M  V30 4570 H 434.429 -5.09621 3.98617 0
M  V30 4571 O 434.6 -1.13875 -1.14519 0
M  V30 4572 H 435.291 -0.85746 -1.73687 0
M  V30 END ATOM
M  V30 BEGIN BOND
M  V30 END BOND
M  V30 END CTAB
M  END
$$$$
