drugbank_target|O31156 Phosphonoacetaldehyde hydrolase (DB03174; DB03635; DB04359)
 OpenBabel12092120283D

  0  0  0     0  0            999 V3000
M  V30 BEGIN CTAB
M  V30 COUNTS 4195 4237 0 0 0
M  V30 BEGIN ATOM
M  V30 1 H -0.908 1.98254 -0.117106 0
M  V30 2 N 0 1.576 0 0
M  V30 3 C 0.933 2.03868 1.02534 0
M  V30 4 C 1.911 0.928543 1.3348 0
M  V30 5 O 3.095 1.19667 1.45644 0
M  V30 6 C 0.222 2.43627 2.35294 0
M  V30 7 C -0.732 3.65373 2.2001 0
M  V30 8 S 0.101 5.13292 1.52614 0
M  V30 9 C 1.257 5.56322 2.86805 0
M  V30 10 H 1.49 2.90518 0.631377 0
M  V30 11 H -0.977 1.52953 0.210867 0
M  V30 12 H 0.981 2.67203 3.11629 0
M  V30 13 H -0.358 1.57376 2.7183 0
M  V30 14 H -1.165 3.90944 3.18086 0
M  V30 15 H -1.563 3.418 1.51819 0
M  V30 16 H 0.729 5.58782 3.83104 0
M  V30 17 H 1.672 6.56266 2.65933 0
M  V30 18 H 2.08 4.83886 2.90714 0
M  V30 19 N 1.4781 -0.272755 1.55222 0
M  V30 20 C 2.4251 -1.33716 1.88119 0
M  V30 21 C 3.3951 -1.49066 0.73271 0
M  V30 22 O 4.5801 -1.63469 0.984002 0
M  V30 23 C 1.7201 -2.69238 2.15882 0
M  V30 24 C 0.8331 -2.62108 3.43399 0
M  V30 25 C -0.0319 -3.89811 3.60861 0
M  V30 26 C -0.9929 -3.77193 4.8207 0
M  V30 27 N -1.8559 -4.9673 4.96189 0
M  V30 28 H 2.9841 -1.04962 2.78903 0
M  V30 29 H 0.5211 -0.507088 1.38083 0
M  V30 30 H 2.4791 -3.48089 2.29978 0
M  V30 31 H 1.1091 -2.96194 1.28331 0
M  V30 32 H 0.1611 -1.74967 3.37773 0
M  V30 33 H 1.4731 -2.48685 4.32386 0
M  V30 34 H 0.6271 -4.77103 3.74777 0
M  V30 35 H -0.6339 -4.06102 2.7006 0
M  V30 36 H -1.6289 -2.88284 4.68159 0
M  V30 37 H -0.4039 -3.62421 5.74307 0
M  V30 38 H -2.4579 -5.13431 4.08319 0
M  V30 39 H -2.5409 -4.85839 5.79221 0
M  V30 40 H -1.2729 -5.85594 5.1449 0
M  V30 41 N 2.9562 -1.48159 -0.537278 0
M  V30 42 C 4.2052 -1.5506 -1.28993 0
M  V30 43 C 4.5182 -0.226211 -1.94288 0
M  V30 44 O 5.7242 -0.173395 -2.70946 0
M  V30 45 C 4.1802 -2.73429 -2.34018 0
M  V30 46 C 3.7882 -4.1248 -1.74825 0
M  V30 47 C 5.5322 -2.89638 -3.10339 0
M  V30 48 C 3.4392 -5.22121 -2.77747 0
M  V30 49 H 2.3692 -0.577231 -0.485098 0
M  V30 50 H 5.0202 -1.74478 -0.568317 0
M  V30 51 H 3.4022 -2.47431 -3.09182 0
M  V30 52 H 4.5762 -4.48466 -1.05899 0
M  V30 53 H 2.8912 -4.01327 -1.11022 0
M  V30 54 H 5.4882 -3.68718 -3.87235 0
M  V30 55 H 5.8312 -1.9882 -3.65754 0
M  V30 56 H 6.3642 -3.15502 -2.42288 0
M  V30 57 H 3.1032 -6.1488 -2.27161 0
M  V30 58 H 2.6232 -4.90631 -3.45024 0
M  V30 59 H 4.3022 -5.49924 -3.4087 0
M  V30 60 N 4.4343 0.785586 -1.36625 0
M  V30 61 C 5.3443 1.92964 -1.33425 0
M  V30 62 C 6.3603 1.72394 -0.235851 0
M  V30 63 O 7.5363 1.95866 -0.468878 0
M  V30 64 C 4.6013 3.27884 -1.12662 0
M  V30 65 C 3.6623 3.61204 -2.32013 0
M  V30 66 C 2.8953 4.89687 -2.12231 0
M  V30 67 O 3.1183 5.59704 -1.09945 0
M  V30 68 O 2.0523 5.21752 -3.00098 0
M  V30 69 H 5.8783 1.98613 -2.29753 0
M  V30 70 H 3.4633 0.926384 -1.17211 0
M  V30 71 H 5.3453 4.08614 -1.03016 0
M  V30 72 H 4.0203 3.23118 -0.193991 0
M  V30 73 H 2.9273 2.80765 -2.47228 0
M  V30 74 H 4.2603 3.70698 -3.23796 0
M  V30 75 N 5.9124 1.20967 1.01018 0
M  V30 76 C 6.8754 0.965918 2.07853 0
M  V30 77 C 7.8754 -0.0610545 1.60684 0
M  V30 78 O 9.0654 0.175681 1.73312 0
M  V30 79 C 6.1974 0.455513 3.37843 0
M  V30 80 H 7.3904 1.91365 2.3091 0
M  V30 81 H 4.9434 1.02594 1.17916 0
M  V30 82 H 5.6784 -0.497381 3.20463 0
M  V30 83 H 5.4634 1.19622 3.73407 0
M  V30 84 H 6.9534 0.304667 4.16487 0
M  V30 85 N 7.3905 -1.2043 1.01659 0
M  V30 86 C 8.6365 -1.90079 0.706963 0
M  V30 87 C 8.9695 -1.78648 -0.761474 0
M  V30 88 O 8.2445 -1.17069 -1.55323 0
M  V30 89 C 8.5275 -3.41469 1.14327 0
M  V30 90 C 8.3805 -3.61833 2.67201 0
M  V30 91 C 9.6995 -4.34261 0.714529 0
M  V30 92 H 6.8185 -0.690254 0.2583 0
M  V30 93 H 9.4605 -1.41826 1.26433 0
M  V30 94 H 7.6105 -3.82696 0.669056 0
M  V30 95 H 9.2825 -3.2986 3.22475 0
M  V30 96 H 7.5255 -3.05304 3.08175 0
M  V30 97 H 8.1965 -4.67955 2.92783 0
M  V30 98 H 10.6725 -4.00682 1.12221 0
M  V30 99 H 9.5485 -5.38806 1.04784 0
M  V30 100 H 9.8095 -4.40431 -0.383799 0
M  V30 101 N 8.8686 -0.792821 -1.36206 0
M  V30 102 C 10.1176 -0.363353 -1.984 0
M  V30 103 C 10.4306 1.07172 -1.63626 0
M  V30 104 O 11.6366 1.60362 -2.19081 0
M  V30 105 C 10.0926 -0.59872 -3.54885 0
M  V30 106 C 9.7006 -2.04543 -3.9858 0
M  V30 107 C 11.4446 -0.233926 -4.23855 0
M  V30 108 C 9.3516 -2.22727 -5.47856 0
M  V30 109 H 8.2816 -0.13212 -0.742334 0
M  V30 110 H 10.9326 -0.974935 -1.55458 0
M  V30 111 H 9.3146 0.0826222 -3.95914 0
M  V30 112 H 10.4886 -2.76345 -3.68741 0
M  V30 113 H 8.8036 -2.36879 -3.42458 0
M  V30 114 H 11.4006 -0.348027 -5.33566 0
M  V30 115 H 11.7436 0.818351 -4.08177 0
M  V30 116 H 12.2766 -0.868639 -3.882 0
M  V30 117 H 9.0156 -3.2635 -5.68486 0
M  V30 118 H 8.5356 -1.55434 -5.7931 0
M  V30 119 H 10.2146 -2.03607 -6.14128 0
M  V30 120 N 10.3467 1.47872 -0.545128 0
M  V30 121 C 11.5937 2.02493 -0.0165858 0
M  V30 122 C 11.9217 1.42073 1.32836 0
M  V30 123 O 11.1767 0.561459 1.87473 0
M  V30 124 C 11.4757 3.57131 0.13867 0
M  V30 125 C 11.1417 4.36411 -1.13384 0
M  V30 126 C 9.8037 4.57792 -1.48256 0
M  V30 127 C 12.1557 4.82223 -1.97764 0
M  V30 128 C 9.4837 5.22233 -2.67376 0
M  V30 129 C 11.8357 5.47977 -3.16076 0
M  V30 130 C 10.4997 5.67593 -3.51275 0
M  V30 131 H 9.7697 0.740975 -0.00606918 0
M  V30 132 H 12.4167 1.77683 -0.714207 0
M  V30 133 H 10.7217 3.80865 0.919172 0
M  V30 134 H 12.4187 3.97031 0.562782 0
M  V30 135 H 9.0087 4.2004 -0.852297 0
M  V30 136 H 13.1927 4.65493 -1.72132 0
M  V30 137 H 8.4487 5.35616 -2.94831 0
M  V30 138 H 12.6227 5.8244 -3.81755 0
M  V30 139 H 10.2497 6.17298 -4.43675 0
M  V30 140 N 11.8248 0.280983 1.55075 0
M  V30 141 C 13.1018 -0.386207 1.91749 0
M  V30 142 C 13.4818 -1.73264 1.20594 0
M  V30 143 O 12.8298 -2.26034 0.334784 0
M  V30 144 C 13.0398 -0.520687 3.45094 0
M  V30 145 C 14.3878 -0.800865 4.16979 0
M  V30 146 O 15.4118 -0.605271 3.5102 0
M  V30 147 O 14.2708 -1.1753 5.33712 0
M  V30 148 H 11.3648 -0.212408 0.799257 0
M  V30 149 H 13.9108 0.327568 1.66509 0
M  V30 150 H 12.6828 0.426633 3.88967 0
M  V30 151 H 12.3058 -1.2837 3.76307 0
M  V30 152 N 13.3029 -1.57598 0.00835791 0
M  V30 153 C 14.5489 -1.92046 -0.670055 0
M  V30 154 C 14.9039 -0.88351 -1.70915 0
M  V30 155 O 14.1969 0.103223 -1.91322 0
M  V30 156 C 14.3909 -3.3101 -1.34787 0
M  V30 157 C 14.2199 -4.48126 -0.375945 0
M  V30 158 C 12.9899 -5.05297 0.0166914 0
M  V30 159 C 15.1879 -5.1303 0.361272 0
M  V30 160 N 13.1699 -6.05931 0.985952 0
M  V30 161 C 14.5409 -6.08571 1.18495 0
M  V30 162 C 16.5959 -4.9609 0.42421 0
M  V30 163 C 15.2989 -6.88996 2.06584 0
M  V30 164 C 17.3249 -5.77107 1.29236 0
M  V30 165 C 16.6869 -6.72248 2.10386 0
M  V30 166 H 12.7859 -0.75096 -0.218136 0
M  V30 167 H 15.3699 -1.94572 0.0706669 0
M  V30 168 H 13.5409 -3.29342 -2.05884 0
M  V30 169 H 15.2729 -3.52864 -1.98164 0
M  V30 170 H 12.0279 -4.72279 -0.353435 0
M  V30 171 H 12.4519 -6.60932 1.4662 0
M  V30 172 H 17.0939 -4.22378 -0.188915 0
M  V30 173 H 14.8119 -7.62028 2.6896 0
M  V30 174 H 18.3979 -5.66038 1.34508 0
M  V30 175 H 17.2779 -7.33846 2.76476 0
M  V30 176 N 14.781 0.264519 -1.55364 0
M  V30 177 C 15.744 1.31046 -1.88042 0
M  V30 178 C 16.744 1.41943 -0.755569 0
M  V30 179 O 17.934 1.40947 -1.02369 0
M  V30 180 C 15.066 2.69067 -2.09323 0
M  V30 181 H 16.259 1.03297 -2.81549 0
M  V30 182 H 13.812 0.502989 -1.47986 0
M  V30 183 H 14.547 3.01982 -1.18226 0
M  V30 184 H 14.332 2.62542 -2.91229 0
M  V30 185 H 15.822 3.44623 -2.35848 0
M  V30 186 N 16.2591 1.48442 0.529413 0
M  V30 187 C 17.5071 1.56179 1.28267 0
M  V30 188 C 17.8281 0.237721 1.93546 0
M  V30 189 O 17.0981 -0.740779 1.81354 0
M  V30 190 H 15.6781 0.575367 0.476405 0
M  V30 191 H 18.3401 1.84909 0.61602 0
M  V30 192 H 17.4361 2.34312 2.06165 0
M  V30 193 N 17.7372 -0.778329 1.37039 0
M  V30 194 C 18.9652 -1.56734 1.35063 0
M  V30 195 C 19.3802 -1.88686 -0.0655597 0
M  V30 196 O 18.7372 -1.5096 -1.02554 0
M  V30 197 C 18.7882 -2.88163 2.18276 0
M  V30 198 O 18.5092 -2.57583 3.54376 0
M  V30 199 C 20.0102 -3.82422 2.24206 0
M  V30 200 H 17.2302 -0.485778 0.462883 0
M  V30 201 H 19.7742 -0.965185 1.8029 0
M  V30 202 H 17.9292 -3.44818 1.76576 0
M  V30 203 H 18.3432 -3.41699 3.97922 0
M  V30 204 H 19.8172 -4.71667 2.86765 0
M  V30 205 H 20.2942 -4.21078 1.24861 0
M  V30 206 H 20.9002 -3.31697 2.6619 0
M  V30 207 N 19.2153 -1.21501 -1.00376 0
M  V30 208 C 20.4433 -1.059 -1.77744 0
M  V30 209 C 20.8583 0.391125 -1.84704 0
M  V30 210 O 20.2153 1.27133 -1.30933 0
M  V30 211 C 20.2663 -1.65111 -3.21591 0
M  V30 212 O 19.9873 -3.0445 -3.15027 0
M  V30 213 C 21.4883 -1.54637 -4.15454 0
M  V30 214 H 18.7083 -0.371825 -0.558558 0
M  V30 215 H 21.2523 -1.60865 -1.26264 0
M  V30 216 H 19.4073 -1.14235 -3.70175 0
M  V30 217 H 19.8213 -3.3278 -4.0541 0
M  V30 218 H 21.2953 -2.00808 -5.14179 0
M  V30 219 H 21.7723 -0.501022 -4.36333 0
M  V30 220 H 22.3783 -2.04767 -3.72761 0
M  V30 221 N 20.6934 1.19889 -1.02296 0
M  V30 222 C 21.9394 1.89701 -0.717033 0
M  V30 223 C 22.2724 1.7905 0.751989 0
M  V30 224 O 21.5474 1.17891 1.547 0
M  V30 225 C 21.8304 3.40858 -1.16136 0
M  V30 226 C 21.6834 3.60411 -2.69117 0
M  V30 227 C 23.0024 4.33876 -0.737549 0
M  V30 228 H 20.1214 0.688874 -0.261957 0
M  V30 229 H 22.7634 1.41154 -1.27183 0
M  V30 230 H 20.9134 3.82335 -0.689342 0
M  V30 231 H 22.5854 3.28145 -3.2422 0
M  V30 232 H 20.8284 3.03665 -3.0979 0
M  V30 233 H 21.4994 4.66396 -2.95261 0
M  V30 234 H 23.9754 4.00081 -1.14344 0
M  V30 235 H 22.8514 5.38242 -1.0764 0
M  V30 236 H 23.1124 4.40628 0.360436 0
M  V30 237 N 22.1715 0.800033 1.35784 0
M  V30 238 C 23.4485 0.30088 1.93272 0
M  V30 239 C 23.8285 -1.20857 1.73081 0
M  V30 240 O 23.1765 -2.00502 1.09596 0
M  V30 241 C 23.3865 0.70511 3.41803 0
M  V30 242 C 24.7345 0.690871 4.18942 0
M  V30 243 O 25.7585 0.646244 3.50289 0
M  V30 244 O 24.6175 0.74332 5.41421 0
M  V30 245 H 21.7115 0.0771605 0.823393 0
M  V30 246 H 24.2575 0.88329 1.449 0
M  V30 247 H 23.0295 1.74571 3.50201 0
M  V30 248 H 22.6525 0.0971541 3.97481 0
M  V30 249 N 23.6496 -1.47581 0.552962 0
M  V30 250 C 24.8796 -2.06575 0.0320091 0
M  V30 251 C 25.2876 -1.4067 -1.26525 0
M  V30 252 O 24.6306 -0.495808 -1.76883 0
M  V30 253 C 24.6926 -3.58705 -0.238913 0
M  V30 254 C 24.3566 -4.46625 0.968272 0
M  V30 255 C 25.3536 -4.85 1.87274 0
M  V30 256 C 23.0386 -4.88201 1.18175 0
M  V30 257 C 25.0326 -5.63745 2.9744 0
M  V30 258 C 22.7196 -5.66712 2.28651 0
M  V30 259 C 23.7176 -6.04394 3.18114 0
M  V30 260 O 23.4056 -6.81324 4.26676 0
M  V30 261 H 23.1376 -0.674763 0.0408689 0
M  V30 262 H 25.6916 -1.90634 0.764719 0
M  V30 263 H 23.9216 -3.72844 -1.02588 0
M  V30 264 H 25.6106 -3.99735 -0.704731 0
M  V30 265 H 26.3766 -4.53482 1.71984 0
M  V30 266 H 22.2556 -4.58339 0.494593 0
M  V30 267 H 25.7996 -5.93077 3.67296 0
M  V30 268 H 21.6966 -5.97642 2.43915 0
M  V30 269 H 22.4646 -6.99712 4.24671 0
M  V30 270 N 25.1277 -0.289203 -1.54924 0
M  V30 271 C 26.3757 0.322879 -1.99504 0
M  V30 272 C 26.6967 1.55313 -1.1791 0
M  V30 273 O 25.9667 1.94001 -0.272097 0
M  V30 274 H 24.5467 0.122291 -0.736922 0
M  V30 275 H 27.2087 -0.397802 -1.90797 0
M  V30 276 H 26.3047 0.603061 -3.06218 0
M  V30 277 N 26.6058 1.57591 -0.0167156 0
M  V30 278 C 27.8458 1.93145 0.668902 0
M  V30 279 C 28.2098 0.892406 1.7 0
M  V30 280 O 29.4108 1.13373 2.43721 0
M  V30 281 C 27.6818 3.33678 1.28039 0
M  V30 282 S 29.2408 3.91142 1.9888 0
M  V30 283 H 26.0588 0.67593 0.220545 0
M  V30 284 H 28.6608 1.95347 -0.0774105 0
M  V30 285 H 27.3648 4.07126 0.517339 0
M  V30 286 H 26.8958 3.3489 2.06427 0
M  V30 287 H 28.9108 3.73571 3.26587 0
M  V30 288 N 28.0839 -0.256276 1.55502 0
M  V30 289 C 29.3309 -0.985619 1.76895 0
M  V30 290 C 29.6589 -1.85671 0.579355 0
M  V30 291 O 28.9139 -1.90744 -0.437651 0
M  V30 292 C 29.2129 -1.88432 3.03691 0
M  V30 293 C 28.8789 -1.16936 4.35473 0
M  V30 294 C 27.5409 -0.97173 4.71286 0
M  V30 295 C 29.8929 -0.661889 5.1698 0
M  V30 296 C 27.2209 -0.254179 5.86149 0
M  V30 297 C 29.5729 0.042149 6.32586 0
M  V30 298 C 28.2369 0.25134 6.67027 0
M  V30 299 H 27.5069 -0.360663 0.647304 0
M  V30 300 H 30.1539 -0.256483 1.89775 0
M  V30 301 H 28.4589 -2.68021 2.85783 0
M  V30 302 H 30.1559 -2.45015 3.1744 0
M  V30 303 H 26.7459 -1.33332 4.07333 0
M  V30 304 H 30.9299 -0.802145 4.89775 0
M  V30 305 H 26.1859 -0.0815408 6.11346 0
M  V30 306 H 30.3599 0.443049 6.94989 0
M  V30 307 H 27.9869 0.809314 7.5588 0
M  V30 308 N 29.562 -1.4872 -0.521534 0
M  V30 309 C 30.525 -1.63379 -1.60748 0
M  V30 310 C 31.525 -0.50661 -1.52611 0
M  V30 311 O 32.715 -0.772601 -1.5613 0
M  V30 312 C 29.847 -1.61192 -3.00383 0
M  V30 313 H 31.04 -2.60217 -1.49087 0
M  V30 314 H 28.593 -1.37444 -0.744235 0
M  V30 315 H 29.328 -0.65863 -3.17541 0
M  V30 316 H 29.113 -2.43032 -3.07698 0
M  V30 317 H 30.603 -1.7466 -3.7932 0
M  V30 318 N 31.0401 0.771051 -1.3745 0
M  V30 319 C 32.4511 1.34737 -1.29239 0
M  V30 320 C 32.8021 1.96109 0.0596908 0
M  V30 321 O 31.9271 1.93865 0.961534 0
M  V30 322 C 32.5221 2.44973 -2.34037 0
M  V30 323 C 31.0811 2.98372 -2.29458 0
M  V30 324 C 30.2281 1.71595 -2.17831 0
M  V30 325 H 33.1791 0.571256 -1.48062 0
M  V30 326 H 33.2001 3.24471 -1.98744 0
M  V30 327 H 32.7121 2.00276 -3.32432 0
M  V30 328 H 30.8131 3.47443 -1.34589 0
M  V30 329 H 30.9261 3.53939 -3.229 0
M  V30 330 H 29.2901 1.94547 -1.64388 0
M  V30 331 H 30.0731 1.29001 -3.18141 0
M  V30 332 N 32.5182 1.22032 0.997298 0
M  V30 333 C 33.4482 1.01065 2.10495 0
M  V30 334 C 34.4292 -0.0669542 1.69968 0
M  V30 335 O 35.6142 0.0943987 1.9397 0
M  V30 336 C 32.7442 0.582874 3.42374 0
M  V30 337 C 31.6982 1.60592 3.96729 0
M  V30 338 C 31.0242 1.03412 5.24605 0
M  V30 339 C 32.3242 2.99478 4.27914 0
M  V30 340 H 34.0182 1.93708 2.28292 0
M  V30 341 H 31.5642 0.932761 1.09707 0
M  V30 342 H 33.5172 0.423332 4.19268 0
M  V30 343 H 32.2412 -0.379213 3.24391 0
M  V30 344 H 30.9002 1.75316 3.21963 0
M  V30 345 H 30.5482 0.063518 5.0296 0
M  V30 346 H 30.2482 1.71754 5.61938 0
M  V30 347 H 31.7722 0.886066 6.04137 0
M  V30 348 H 33.1862 2.88153 4.95622 0
M  V30 349 H 31.5832 3.64903 4.76409 0
M  V30 350 H 32.6532 3.49742 3.3587 0
M  V30 351 N 33.9963 -1.19345 1.0293 0
M  V30 352 C 34.9063 -2.26245 0.620515 0
M  V30 353 C 35.9223 -1.70486 -0.347928 0
M  V30 354 O 37.0983 -2.00347 -0.205704 0
M  V30 355 C 34.1633 -3.46693 -0.0218957 0
M  V30 356 C 33.2243 -4.17632 0.994102 0
M  V30 357 C 32.4573 -5.32329 0.382253 0
M  V30 358 O 32.6803 -5.64552 -0.814676 0
M  V30 359 O 31.6143 -5.91664 1.10531 0
M  V30 360 H 35.4403 -2.63453 1.51083 0
M  V30 361 H 33.0253 -1.26207 0.799513 0
M  V30 362 H 34.9073 -4.19683 -0.380072 0
M  V30 363 H 33.5823 -3.11333 -0.886209 0
M  V30 364 H 32.4893 -3.4676 1.40387 0
M  V30 365 H 33.8223 -4.56964 1.8288 0
M  V30 366 N 35.4744 -0.807222 -1.35358 0
M  V30 367 C 36.7204 -0.388463 -1.99045 0
M  V30 368 C 37.0534 1.04184 -1.63888 0
M  V30 369 O 36.3284 1.72292 -0.902535 0
M  V30 370 C 36.6114 -0.572783 -3.55515 0
M  V30 371 C 36.4644 -2.04807 -4.00468 0
M  V30 372 C 37.7834 0.00114064 -4.401 0
M  V30 373 H 34.9024 -0.142619 -0.723069 0
M  V30 374 H 37.5444 -1.01687 -1.60498 0
M  V30 375 H 35.6944 -0.0378425 -3.88482 0
M  V30 376 H 37.3664 -2.64544 -3.77908 0
M  V30 377 H 35.6094 -2.54427 -3.51353 0
M  V30 378 H 36.2804 -2.12792 -5.09337 0
M  V30 379 H 38.7564 -0.455716 -4.13597 0
M  V30 380 H 37.6324 -0.157737 -5.48673 0
M  V30 381 H 37.8934 1.09488 -4.28328 0
M  V30 382 N 36.9525 1.47285 -0.560781 0
M  V30 383 C 38.1995 2.02464 -0.038062 0
M  V30 384 C 38.5275 1.43474 1.31322 0
M  V30 385 O 37.7825 0.581311 1.86867 0
M  V30 386 C 38.0815 3.57258 0.100784 0
M  V30 387 C 37.7475 4.35184 -1.18007 0
M  V30 388 C 36.4095 4.56194 -1.53103 0
M  V30 389 C 38.7615 4.80098 -2.02867 0
M  V30 390 C 36.0895 5.19367 -2.729 0
M  V30 391 C 38.4415 5.44593 -3.21871 0
M  V30 392 C 37.1055 5.63835 -3.57276 0
M  V30 393 H 36.3755 0.740869 -0.0139279 0
M  V30 394 H 39.0225 1.76916 -0.733012 0
M  V30 395 H 37.3275 3.81819 0.878724 0
M  V30 396 H 39.0245 3.97606 0.520639 0
M  V30 397 H 35.6145 4.19113 -0.8968 0
M  V30 398 H 39.7985 4.63642 -1.7706 0
M  V30 399 H 35.0545 5.32459 -3.00496 0
M  V30 400 H 39.2285 5.78358 -3.87911 0
M  V30 401 H 36.8555 6.12557 -4.50197 0
M  V30 402 N 38.4306 0.297415 1.54768 0
M  V30 403 C 39.3636 -0.622188 2.19554 0
M  V30 404 C 40.3416 -1.13558 1.16376 0
M  V30 405 O 41.5256 -1.20444 1.45002 0
M  V30 406 C 38.6526 -1.8509 2.83653 0
M  V30 407 C 37.6986 -1.47106 4.00328 0
M  V30 408 S 38.5316 -0.53006 5.3287 0
M  V30 409 C 39.6876 -1.76665 6.0045 0
M  V30 410 H 39.9206 -0.0717806 2.97213 0
M  V30 411 H 37.4536 0.0815678 1.54184 0
M  V30 412 H 39.4116 -2.55605 3.21211 0
M  V30 413 H 38.0726 -2.37247 2.05846 0
M  V30 414 H 37.2656 -2.38594 4.43947 0
M  V30 415 H 36.8676 -0.845885 3.64309 0
M  V30 416 H 39.1596 -2.7077 6.21039 0
M  V30 417 H 40.1026 -1.37308 6.9466 0
M  V30 418 H 40.5106 -1.94174 5.30054 0
M  V30 419 N 39.9087 -1.5758 0.0250728 0
M  V30 420 C 40.8187 -2.1343 -0.973905 0
M  V30 421 C 41.8347 -1.08556 -1.35984 0
M  V30 422 O 43.0107 -1.40592 -1.44207 0
M  V30 423 C 40.0757 -2.64703 -2.23904 0
M  V30 424 C 39.1367 -3.84276 -1.91391 0
M  V30 425 C 38.3697 -4.33095 -3.11873 0
M  V30 426 O 38.5927 -3.81107 -4.24398 0
M  V30 427 O 37.5267 -5.24984 -2.94406 0
M  V30 428 H 41.3527 -2.99057 -0.529036 0
M  V30 429 H 38.9377 -1.48118 -0.195288 0
M  V30 430 H 40.8197 -2.97769 -2.98181 0
M  V30 431 H 39.4947 -1.82161 -2.6758 0
M  V30 432 H 38.4017 -3.56143 -1.14511 0
M  V30 433 H 39.7347 -4.67968 -1.52534 0
M  V30 434 N 41.3868 0.248026 -1.55636 0
M  V30 435 C 42.6358 0.974134 -1.76617 0
M  V30 436 C 42.9488 1.86528 -0.588796 0
M  V30 437 O 44.1548 2.62805 -0.681594 0
M  V30 438 C 42.6108 1.78213 -3.12679 0
M  V30 439 C 42.2188 0.93843 -4.38061 0
M  V30 440 C 43.9628 2.50104 -3.42999 0
M  V30 441 C 41.8698 1.74225 -5.65155 0
M  V30 442 H 40.7998 0.36745 -0.658405 0
M  V30 443 H 43.4508 0.22884 -1.82067 0
M  V30 444 H 41.8328 2.56933 -3.01333 0
M  V30 445 H 43.0068 0.193635 -4.60393 0
M  V30 446 H 41.3218 0.332905 -4.15067 0
M  V30 447 H 43.9188 3.10694 -4.3517 0
M  V30 448 H 44.2618 3.21662 -2.64271 0
M  V30 449 H 44.7948 1.78395 -3.55556 0
M  V30 450 H 41.5338 1.07043 -6.46701 0
M  V30 451 H 41.0538 2.46235 -5.46926 0
M  V30 452 H 42.7328 2.30967 -6.0437 0
M  V30 453 N 42.8649 1.48995 0.513639 0
M  V30 454 C 44.1119 1.57843 1.26854 0
M  V30 455 C 44.4399 0.259501 1.92761 0
M  V30 456 O 43.6949 -0.75159 1.80692 0
M  V30 457 C 43.9939 2.67756 2.36731 0
M  V30 458 C 43.6599 4.09669 1.88368 0
M  V30 459 C 42.3219 4.48291 1.74896 0
M  V30 460 C 44.6739 4.98537 1.52021 0
M  V30 461 C 42.0019 5.73568 1.23438 0
M  V30 462 C 44.3539 6.24319 1.0202 0
M  V30 463 C 43.0179 6.61783 0.871778 0
M  V30 464 H 42.2879 0.577587 0.464192 0
M  V30 465 H 44.9349 1.82778 0.571366 0
M  V30 466 H 43.2399 2.36743 3.12185 0
M  V30 467 H 44.9369 2.71813 2.9482 0
M  V30 468 H 41.5269 3.79176 1.99808 0
M  V30 469 H 45.7109 4.69363 1.61281 0
M  V30 470 H 40.9669 6.01304 1.10648 0
M  V30 471 H 45.1409 6.92566 0.729722 0
M  V30 472 H 42.7679 7.5874 0.470852 0
M  V30 473 N 44.343 -0.763751 1.37857 0
M  V30 474 C 45.293 -1.86765 1.30777 0
M  V30 475 C 46.277 -1.59726 0.194015 0
M  V30 476 O 47.469 -1.7172 0.42911 0
M  V30 477 C 44.598 -3.24343 1.12502 0
M  V30 478 C 43.684 -3.57307 2.28456 0
M  V30 479 N 44.075 -3.61398 3.53871 0
M  V30 480 C 42.373 -3.87517 2.20786 0
M  V30 481 C 43.074 -3.91339 4.30382 0
M  V30 482 N 42.05 -4.07649 3.59615 0
M  V30 483 H 45.852 -1.88191 2.25746 0
M  V30 484 H 43.366 -0.9606 1.30944 0
M  V30 485 H 45.363 -4.03327 1.05514 0
M  V30 486 H 44.023 -3.24175 0.184574 0
M  V30 487 H 45.034 -3.43407 3.87675 0
M  V30 488 H 41.711 -3.95125 1.34844 0
M  V30 489 H 43.101 -4.01213 5.3896 0
M  V30 490 N 45.8211 -1.22559 -0.990812 0
M  V30 491 C 46.7681 -0.997519 -2.0813 0
M  V30 492 C 47.7381 0.0814702 -1.659 0
M  V30 493 O 48.9231 -0.0685424 -1.90677 0
M  V30 494 C 46.0631 -0.583615 -3.40129 0
M  V30 495 C 45.1761 -1.7336 -3.9569 0
M  V30 496 C 44.3111 -1.26748 -5.15857 0
M  V30 497 C 43.3501 -2.38888 -5.63559 0
M  V30 498 N 42.4871 -1.93308 -6.74964 0
M  V30 499 H 47.3271 -1.93099 -2.26973 0
M  V30 500 H 44.8641 -0.962114 -1.11273 0
M  V30 501 H 46.8221 -0.324801 -4.15934 0
M  V30 502 H 45.4521 0.312845 -3.2128 0
M  V30 503 H 44.5041 -2.10669 -3.16738 0
M  V30 504 H 45.8161 -2.57704 -4.27071 0
M  V30 505 H 44.9701 -0.966173 -5.98957 0
M  V30 506 H 43.7091 -0.394272 -4.86104 0
M  V30 507 H 42.7141 -2.69805 -4.79046 0
M  V30 508 H 43.9391 -3.26728 -5.95336 0
M  V30 509 H 41.8851 -1.08352 -6.4699 0
M  V30 510 H 41.8021 -2.71217 -7.05675 0
M  V30 511 H 43.0701 -1.66252 -7.61564 0
M  V30 512 N 47.2992 1.18797 -1.03562 0
M  V30 513 C 48.7152 1.40671 -0.753917 0
M  V30 514 C 48.9152 1.9043 0.658686 0
M  V30 515 O 47.9712 2.08538 1.42366 0
M  V30 516 C 49.2842 2.41192 -1.79574 0
M  V30 517 C 50.8322 2.54928 -1.81606 0
M  V30 518 C 51.3072 3.58709 -2.84766 0
M  V30 519 N 52.7982 3.66212 -2.83625 0
M  V30 520 C 53.5332 4.46225 -3.60098 0
M  V30 521 N 53.0292 5.29888 -4.46308 0
M  V30 522 N 54.8222 4.40939 -3.4861 0
M  V30 523 H 46.9732 0.848221 -1.94728 0
M  V30 524 H 49.2362 0.435081 -0.842264 0
M  V30 525 H 48.9422 2.11669 -2.80872 0
M  V30 526 H 48.8162 3.40467 -1.62365 0
M  V30 527 H 51.2032 2.83771 -0.809817 0
M  V30 528 H 51.2842 1.55784 -2.02891 0
M  V30 529 H 50.9282 3.30607 -3.85566 0
M  V30 530 H 50.8582 4.57519 -2.60737 0
M  V30 531 H 53.3492 3.06466 -2.21105 0
M  V30 532 H 53.6622 5.88078 -5.01382 0
M  V30 533 H 52.0072 5.29326 -4.50377 0
M  V30 534 H 55.1982 3.74624 -2.80668 0
M  V30 535 H 55.3712 5.03056 -4.08459 0
M  V30 536 N 48.7773 0.814389 1.34928 0
M  V30 537 C 50.0253 0.397636 1.9815 0
M  V30 538 C 50.3463 -1.04069 1.64908 0
M  V30 539 O 49.6163 -1.72121 0.93548 0
M  V30 540 H 48.1963 0.144043 0.732981 0
M  V30 541 H 50.8583 1.04195 1.6471 0
M  V30 542 H 49.9543 0.509688 3.0791 0
M  V30 543 N 50.2554 -1.46986 0.568584 0
M  V30 544 C 51.5014 -2.02741 0.0488709 0
M  V30 545 C 51.8344 -1.44077 -1.30214 0
M  V30 546 O 51.1094 -0.600552 -1.84996 0
M  V30 547 C 51.3924 -3.60086 -0.032047 0
M  V30 548 C 51.2454 -4.29162 1.34686 0
M  V30 549 C 52.5644 -4.33838 -0.739798 0
M  V30 550 H 49.6834 -0.736749 0.0192338 0
M  V30 551 H 52.3254 -1.75289 0.733065 0
M  V30 552 H 50.4754 -3.83606 -0.61473 0
M  V30 553 H 52.1474 -4.16948 1.97362 0
M  V30 554 H 50.3904 -3.89073 1.91846 0
M  V30 555 H 51.0614 -5.37826 1.24285 0
M  V30 556 H 53.5374 -4.15378 -0.244939 0
M  V30 557 H 52.4134 -5.43537 -0.765406 0
M  V30 558 H 52.6744 -4.03875 -1.79827 0
M  V30 559 N 51.7335 -0.305618 -1.54608 0
M  V30 560 C 52.6965 0.555591 -2.22364 0
M  V30 561 C 53.6965 1.05768 -1.21119 0
M  V30 562 O 54.8865 0.952972 -1.45822 0
M  V30 563 C 52.0185 1.76974 -2.91364 0
M  V30 564 H 53.2115 -0.0364572 -2.99878 0
M  V30 565 H 50.7645 -0.0565007 -1.56198 0
M  V30 566 H 51.4995 2.40151 -2.17941 0
M  V30 567 H 51.2845 1.41732 -3.65588 0
M  V30 568 H 52.7745 2.38148 -3.43038 0
M  V30 569 N 53.2116 1.57565 -0.0334293 0
M  V30 570 C 54.4606 1.91155 0.643639 0
M  V30 571 C 54.7736 0.91192 1.73042 0
M  V30 572 O 55.9796 1.13923 2.46442 0
M  V30 573 C 54.4356 3.39443 1.1961 0
M  V30 574 C 54.0436 4.47774 0.142381 0
M  V30 575 C 55.7876 3.82094 1.84944 0
M  V30 576 C 53.6946 5.87162 0.706727 0
M  V30 577 H 52.6246 0.713368 0.244176 0
M  V30 578 H 55.2756 1.8323 -0.0994323 0
M  V30 579 H 53.6576 3.42313 1.99092 0
M  V30 580 H 54.8316 4.56469 -0.630296 0
M  V30 581 H 53.1466 4.14352 -0.412446 0
M  V30 582 H 55.7436 4.83591 2.2813 0
M  V30 583 H 56.0866 3.17386 2.69392 0
M  V30 584 H 56.6196 3.81665 1.12145 0
M  V30 585 H 53.3586 6.55424 -0.0997178 0
M  V30 586 H 52.8786 5.82064 1.44779 0
M  V30 587 H 54.5576 6.35866 1.19514 0
M  V30 588 N 54.6897 -0.239769 1.55765 0
M  V30 589 C 55.9177 -0.98417 1.81994 0
M  V30 590 C 56.3327 -1.7867 0.610124 0
M  V30 591 O 55.6897 -1.77571 -0.421271 0
M  V30 592 C 55.7407 -1.91635 3.06526 0
M  V30 593 O 55.4617 -1.14629 4.22838 0
M  V30 594 C 56.9627 -2.77616 3.45607 0
M  V30 595 H 54.1827 -0.28928 0.605441 0
M  V30 596 H 56.7267 -0.260499 2.02834 0
M  V30 597 H 54.8817 -2.5942 2.87715 0
M  V30 598 H 55.2957 -1.77745 4.93464 0
M  V30 599 H 56.7697 -3.38759 4.35828 0
M  V30 600 H 57.2467 -3.4909 2.6652 0
M  V30 601 H 57.8527 -2.15271 3.66795 0
M  V30 602 N 56.1678 -1.49265 -0.50573 0
M  V30 603 C 57.1308 -1.65075 -1.59006 0
M  V30 604 C 58.1308 -0.522768 -1.52065 0
M  V30 605 O 59.3208 -0.789117 -1.55302 0
M  V30 606 C 56.4528 -1.64369 -2.98656 0
M  V30 607 H 57.6458 -2.61784 -1.46319 0
M  V30 608 H 55.1988 -1.38226 -0.729616 0
M  V30 609 H 55.9338 -0.692272 -3.16825 0
M  V30 610 H 55.7188 -2.46282 -3.05103 0
M  V30 611 H 57.2088 -1.78674 -3.77446 0
M  V30 612 N 57.6459 0.756429 -1.3826 0
M  V30 613 C 58.5559 1.9009 -1.37488 0
M  V30 614 C 59.5719 1.71855 -0.272366 0
M  V30 615 O 60.7479 1.94827 -0.510318 0
M  V30 616 C 57.8129 3.25421 -1.19592 0
M  V30 617 C 56.8739 3.56202 -2.39622 0
M  V30 618 C 56.1069 4.85075 -2.2257 0
M  V30 619 O 56.3299 5.57246 -1.21793 0
M  V30 620 O 55.2639 5.15269 -3.11098 0
M  V30 621 H 59.0899 1.93695 -2.33914 0
M  V30 622 H 56.6749 0.901313 -1.1915 0
M  V30 623 H 58.5569 4.06337 -1.11661 0
M  V30 624 H 57.2319 3.22634 -0.262486 0
M  V30 625 H 56.1389 2.75458 -2.53128 0
M  V30 626 H 57.4719 3.63747 -3.31586 0
M  V30 627 N 59.124 1.23083 0.984299 0
M  V30 628 C 60.034 1.02515 2.11016 0
M  V30 629 C 61.05 -0.0291702 1.73976 0
M  V30 630 O 62.226 0.165434 2.00719 0
M  V30 631 C 59.291 0.614673 3.41208 0
M  V30 632 C 58.352 1.74359 3.92297 0
M  V30 633 C 57.585 1.35261 5.16275 0
M  V30 634 O 57.808 0.235136 5.69915 0
M  V30 635 O 56.742 2.17227 5.61334 0
M  V30 636 H 60.568 1.96862 2.31255 0
M  V30 637 H 58.153 1.01753 1.09392 0
M  V30 638 H 60.035 0.396518 4.1953 0
M  V30 639 H 58.71 -0.299851 3.22308 0
M  V30 640 H 57.617 2.01635 3.1511 0
M  V30 641 H 58.95 2.63629 4.15645 0
M  V30 642 N 60.6021 -1.18246 1.0419 0
M  V30 643 C 61.5651 -2.20128 0.638452 0
M  V30 644 C 62.5651 -1.57885 -0.304805 0
M  V30 645 O 63.7551 -1.73967 -0.0900369 0
M  V30 646 C 60.8871 -3.4084 -0.0637751 0
M  V30 647 H 62.0801 -2.57336 1.54007 0
M  V30 648 H 59.6331 -1.32152 0.834598 0
M  V30 649 H 60.3681 -3.09166 -0.979136 0
M  V30 650 H 60.1531 -3.8726 0.614198 0
M  V30 651 H 61.6431 -4.16274 -0.332512 0
M  V30 652 N 62.0802 -0.821533 -1.34494 0
M  V30 653 C 63.4962 -0.507117 -1.51329 0
M  V30 654 C 63.6962 0.968964 -1.76673 0
M  V30 655 O 62.7522 1.75348 -1.81685 0
M  V30 656 C 64.0652 -1.36544 -2.67911 0
M  V30 657 C 65.6132 -1.36242 -2.81793 0
M  V30 658 C 66.0882 -2.2052 -4.01416 0
M  V30 659 N 67.5792 -2.18136 -4.08621 0
M  V30 660 C 68.3142 -2.80095 -5.00334 0
M  V30 661 N 67.8102 -3.51039 -5.9728 0
M  V30 662 N 69.6032 -2.69656 -4.93196 0
M  V30 663 H 61.7542 -1.77729 -1.16302 0
M  V30 664 H 64.0172 -0.757291 -0.570276 0
M  V30 665 H 63.7232 -2.41361 -2.55808 0
M  V30 666 H 63.5972 -1.02917 -3.62888 0
M  V30 667 H 65.9842 -0.322041 -2.93338 0
M  V30 668 H 66.0652 -1.73866 -1.87628 0
M  V30 669 H 65.7092 -3.24607 -3.90631 0
M  V30 670 H 65.6392 -1.80247 -4.94791 0
M  V30 671 H 68.1302 -1.6653 -3.39229 0
M  V30 672 H 68.4432 -3.95565 -6.63889 0
M  V30 673 H 66.7882 -3.55145 -5.97409 0
M  V30 674 H 69.9792 -2.13808 -4.16418 0
M  V30 675 H 70.1522 -3.1823 -5.64476 0
M  V30 676 N 63.5583 1.46682 -0.576371 0
M  V30 677 C 64.5053 2.30241 0.160499 0
M  V30 678 C 65.4753 1.40233 0.890162 0
M  V30 679 O 66.6603 1.69186 0.882084 0
M  V30 680 C 63.8003 3.24578 1.1723 0
M  V30 681 C 62.9133 4.29684 0.446736 0
M  V30 682 C 62.0483 5.11154 1.44551 0
M  V30 683 C 61.0873 6.08015 0.70599 0
M  V30 684 N 60.2243 6.82376 1.65251 0
M  V30 685 H 65.0643 2.92727 -0.558127 0
M  V30 686 H 62.6013 1.44272 -0.287056 0
M  V30 687 H 64.5593 3.77711 1.77172 0
M  V30 688 H 63.1893 2.63916 1.85872 0
M  V30 689 H 62.2413 3.79458 -0.267594 0
M  V30 690 H 63.5533 4.98626 -0.131686 0
M  V30 691 H 62.7073 5.68533 2.11791 0
M  V30 692 H 61.4463 4.42158 2.05786 0
M  V30 693 H 60.4513 5.49796 0.0197725 0
M  V30 694 H 61.6763 6.79028 0.09912 0
M  V30 695 H 59.6223 6.16094 2.25308 0
M  V30 696 H 59.5393 7.47556 1.12673 0
M  V30 697 H 60.8073 7.44316 2.31546 0
M  V30 698 N 65.0364 0.313813 1.54444 0
M  V30 699 C 66.4474 -0.176243 1.85866 0
M  V30 700 C 66.7984 -1.52405 1.23561 0
M  V30 701 O 65.9234 -2.09605 0.538016 0
M  V30 702 C 66.5184 -0.32657 3.37222 0
M  V30 703 C 65.0774 -0.760846 3.6863 0
M  V30 704 C 64.2244 0.123247 2.77026 0
M  V30 705 H 67.1754 0.534418 1.49431 0
M  V30 706 H 67.1964 -1.15908 3.62416 0
M  V30 707 H 66.7084 0.654531 3.82541 0
M  V30 708 H 64.8094 -1.75204 3.28838 0
M  V30 709 H 64.9224 -0.571353 4.75681 0
M  V30 710 H 63.2864 -0.399597 2.51546 0
M  V30 711 H 64.0694 1.10094 3.25168 0
M  V30 712 N 66.5145 -1.57545 0.0417849 0
M  V30 713 C 67.4475 -2.06514 -0.970928 0
M  V30 714 C 68.4255 -0.963607 -1.30971 0
M  V30 715 O 69.6095 -1.23486 -1.4242 0
M  V30 716 C 66.7365 -2.4978 -2.28752 0
M  V30 717 C 65.7825 -3.71078 -2.10246 0
M  V30 718 S 66.6155 -5.17158 -1.38952 0
M  V30 719 C 67.7715 -5.6373 -2.71954 0
M  V30 720 H 68.0045 -2.9209 -0.554129 0
M  V30 721 H 65.5375 -1.53459 -0.17024 0
M  V30 722 H 67.4955 -2.75371 -3.04435 0
M  V30 723 H 66.1565 -1.64527 -2.67562 0
M  V30 724 H 65.3495 -3.9924 -3.07609 0
M  V30 725 H 64.9515 -3.45705 -1.42704 0
M  V30 726 H 67.2435 -5.68743 -3.68154 0
M  V30 727 H 68.1865 -6.63086 -2.4844 0
M  V30 728 H 68.5945 -4.91424 -2.77782 0
M  V30 729 N 67.9926 0.231505 -1.5589 0
M  V30 730 C 69.2406 0.955461 -1.78088 0
M  V30 731 C 69.5616 1.85262 -0.608533 0
M  V30 732 O 68.8316 1.92277 0.375035 0
M  V30 733 H 67.4116 0.355787 -0.656829 0
M  V30 734 H 70.0736 0.245751 -1.93344 0
M  V30 735 H 69.1696 1.56814 -2.69844 0
M  V30 736 N 69.4707 1.49531 0.497807 0
M  V30 737 C 70.4007 1.6935 1.60757 0
M  V30 738 C 71.3817 0.542218 1.61227 0
M  V30 739 O 72.5667 0.778417 1.77917 0
M  V30 740 C 69.6967 1.76298 2.99226 0
M  V30 741 C 68.6507 2.91248 3.13622 0
M  V30 742 C 67.9767 2.83312 4.53474 0
M  V30 743 C 69.2767 4.3214 2.93346 0
M  V30 744 H 70.9707 2.62263 1.44425 0
M  V30 745 H 68.5167 1.26208 0.693367 0
M  V30 746 H 70.4697 1.88749 3.76765 0
M  V30 747 H 69.1937 0.799871 3.16654 0
M  V30 748 H 67.8527 2.78404 2.38509 0
M  V30 749 H 67.5007 1.84902 4.67782 0
M  V30 750 H 67.2007 3.60465 4.64046 0
M  V30 751 H 68.7247 2.97775 5.33069 0
M  V30 752 H 70.1387 4.45649 3.60652 0
M  V30 753 H 68.5357 5.1054 3.15387 0
M  V30 754 H 69.6057 4.46363 1.89441 0
M  V30 755 N 70.9488 -0.749086 1.3866 0
M  V30 756 C 71.8788 -1.8764 1.38973 0
M  V30 757 C 72.8598 -1.68178 0.255004 0
M  V30 758 O 74.0448 -1.88704 0.458754 0
M  V30 759 C 71.1748 -3.25222 1.21851 0
M  V30 760 C 70.1288 -3.59295 2.32575 0
M  V30 761 C 69.4548 -4.95663 2.00555 0
M  V30 762 C 70.7548 -3.63709 3.7485 0
M  V30 763 H 72.4488 -1.87635 2.3331 0
M  V30 764 H 69.9948 -0.901329 1.12303 0
M  V30 765 H 71.9478 -4.03746 1.20695 0
M  V30 766 H 70.6718 -3.25719 0.239775 0
M  V30 767 H 69.3308 -2.83093 2.32925 0
M  V30 768 H 68.9788 -4.92724 1.01154 0
M  V30 769 H 68.6788 -5.19429 2.74714 0
M  V30 770 H 70.2028 -5.7656 2.01024 0
M  V30 771 H 71.6168 -4.32338 3.76506 0
M  V30 772 H 70.0138 -3.98986 4.48252 0
M  V30 773 H 71.0838 -2.63834 4.06841 0
M  V30 774 N 72.4269 -1.23603 -0.977757 0
M  V30 775 C 73.3739 -1.01954 -2.07061 0
M  V30 776 C 74.3439 0.0638697 -1.65977 0
M  V30 777 O 75.5289 -0.0887624 -1.90593 0
M  V30 778 C 72.6689 -0.619658 -3.39491 0
M  V30 779 C 71.7819 -1.77547 -3.93829 0
M  V30 780 C 70.9169 -1.32212 -5.14484 0
M  V30 781 C 69.9559 -2.44852 -5.60994 0
M  V30 782 N 69.0929 -2.00456 -6.72876 0
M  V30 783 H 73.9329 -1.95495 -2.24913 0
M  V30 784 H 71.4699 -0.973861 -1.10247 0
M  V30 785 H 73.4279 -0.368898 -4.15566 0
M  V30 786 H 72.0579 0.278752 -3.21594 0
M  V30 787 H 71.1099 -2.14016 -3.14486 0
M  V30 788 H 72.4219 -2.62219 -4.24314 0
M  V30 789 H 71.5759 -1.02965 -5.97899 0
M  V30 790 H 70.3149 -0.445808 -4.85658 0
M  V30 791 H 69.3199 -2.74871 -4.76157 0
M  V30 792 H 70.5449 -3.33024 -5.91837 0
M  V30 793 H 68.4909 -1.15208 -6.45804 0
M  V30 794 H 68.4079 -2.78687 -7.02759 0
M  V30 795 H 69.6759 -1.7432 -7.59758 0
M  V30 796 N 73.905 1.17692 -1.04816 0
M  V30 797 C 75.154 1.87192 -0.751132 0
M  V30 798 C 75.467 1.8169 0.724441 0
M  V30 799 O 76.673 2.46625 1.13527 0
M  V30 800 C 75.129 3.35857 -1.29338 0
M  V30 801 C 74.737 3.4987 -2.79812 0
M  V30 802 C 76.481 4.10709 -1.07322 0
M  V30 803 C 74.388 4.92536 -3.27356 0
M  V30 804 H 73.318 0.701162 -0.277288 0
M  V30 805 H 75.969 1.32932 -1.26496 0
M  V30 806 H 74.351 3.89631 -0.707376 0
M  V30 807 H 75.525 3.06332 -3.44235 0
M  V30 808 H 73.84 2.88433 -3.00325 0
M  V30 809 H 76.437 5.15952 -1.4035 0
M  V30 810 H 76.78 4.16299 -0.0108001 0
M  V30 811 H 77.313 3.6313 -1.62423 0
M  V30 812 H 74.052 4.92119 -4.33012 0
M  V30 813 H 73.572 5.3676 -2.67673 0
M  V30 814 H 75.251 5.61288 -3.21815 0
M  V30 815 N 75.3831 0.828654 1.34056 0
M  V30 816 C 76.6601 0.341809 1.9259 0
M  V30 817 C 77.0401 -1.17158 1.75605 0
M  V30 818 O 76.3881 -1.98132 1.13824 0
M  V30 819 C 76.5981 0.777453 3.4023 0
M  V30 820 C 77.9461 0.779579 4.17382 0
M  V30 821 O 78.9701 0.7204 3.48839 0
M  V30 822 O 77.8291 0.857996 5.39723 0
M  V30 823 H 74.9231 0.0946085 0.821571 0
M  V30 824 H 77.4691 0.913827 1.42994 0
M  V30 825 H 76.2411 1.8196 3.46419 0
M  V30 826 H 75.8641 0.181444 3.97186 0
M  V30 827 N 76.8612 -1.46375 0.584142 0
M  V30 828 C 77.8112 -2.27371 -0.169232 0
M  V30 829 C 78.7952 -1.35955 -0.860523 0
M  V30 830 O 79.9872 -1.60119 -0.754382 0
M  V30 831 C 77.1162 -3.22334 -1.18134 0
M  V30 832 C 76.2022 -4.21235 -0.492088 0
M  V30 833 N 76.5932 -5.03766 0.453129 0
M  V30 834 C 74.8912 -4.39773 -0.742652 0
M  V30 835 C 75.5922 -5.75366 0.85609 0
M  V30 836 N 74.5682 -5.43214 0.204926 0
M  V30 837 H 78.3702 -2.88572 0.557097 0
M  V30 838 H 75.8842 -1.57242 0.406042 0
M  V30 839 H 77.8812 -3.79071 -1.73525 0
M  V30 840 H 76.5412 -2.62693 -1.90847 0
M  V30 841 H 77.5522 -5.11227 0.828723 0
M  V30 842 H 74.2292 -3.91279 -1.45625 0
M  V30 843 H 75.6192 -6.5172 1.63434 0
M  V30 844 N 78.3393 -0.321999 -1.54275 0
M  V30 845 C 79.5853 0.281461 -2.00837 0
M  V30 846 C 79.9183 1.51909 -1.20985 0
M  V30 847 O 79.1933 1.923 -0.291733 0
M  V30 848 C 79.4763 0.617162 -3.54772 0
M  V30 849 C 79.3293 -0.631064 -4.45351 0
M  V30 850 C 80.6483 1.43542 -4.16033 0
M  V30 851 H 77.7673 0.100826 -0.730071 0
M  V30 852 H 80.4093 -0.438268 -1.84876 0
M  V30 853 H 78.5593 1.23034 -3.68504 0
M  V30 854 H 80.2313 -1.26934 -4.43492 0
M  V30 855 H 78.4743 -1.26025 -4.15091 0
M  V30 856 H 79.1453 -0.351735 -5.50878 0
M  V30 857 H 81.6213 0.917134 -4.05867 0
M  V30 858 H 80.4973 1.63907 -5.23856 0
M  V30 859 H 80.7583 2.43108 -3.69257 0
M  V30 860 N 79.8174 1.5752 -0.0501392 0
M  V30 861 C 81.2334 1.56631 0.306402 0
M  V30 862 C 81.4334 1.0577 1.71508 0
M  V30 863 O 80.4894 0.713837 2.422 0
M  V30 864 C 81.8024 3.00393 0.135811 0
M  V30 865 C 83.3504 3.12315 0.206993 0
M  V30 866 C 83.8254 4.57954 0.064944 0
M  V30 867 N 85.3164 4.63041 0.121254 0
M  V30 868 C 86.0514 5.73389 0.0354381 0
M  V30 869 N 85.5474 6.92724 -0.102666 0
M  V30 870 N 87.3404 5.62026 0.090946 0
M  V30 871 H 79.4914 1.88903 -0.971046 0
M  V30 872 H 81.7544 0.869876 -0.376855 0
M  V30 873 H 81.4604 3.41635 -0.835384 0
M  V30 874 H 81.3344 3.66373 0.897275 0
M  V30 875 H 83.7214 2.70973 1.16866 0
M  V30 876 H 83.8024 2.49016 -0.585208 0
M  V30 877 H 83.4464 4.99981 -0.893394 0
M  V30 878 H 83.3764 5.19258 0.876277 0
M  V30 879 H 85.8674 3.77216 0.227284 0
M  V30 880 H 86.1804 7.72633 -0.160882 0
M  V30 881 H 84.5254 6.94864 -0.137737 0
M  V30 882 H 87.7164 4.67684 0.197388 0
M  V30 883 H 87.8894 6.47997 0.0206089 0
M  V30 884 N 81.2955 -0.223234 1.56011 0
M  V30 885 C 82.2585 -1.26014 1.9145 0
M  V30 886 C 83.2585 -1.3989 0.792937 0
M  V30 887 O 84.4485 -1.38184 1.0607 0
M  V30 888 C 81.5805 -2.63422 2.16383 0
M  V30 889 H 82.7735 -0.95796 2.84189 0
M  V30 890 H 80.3265 -0.463576 1.49267 0
M  V30 891 H 81.0615 -2.98741 1.2619 0
M  V30 892 H 80.8465 -2.54728 2.98088 0
M  V30 893 H 82.3365 -3.38249 2.44903 0
M  V30 894 N 82.7736 -1.49793 -0.48987 0
M  V30 895 C 83.7036 -1.70201 -1.59856 0
M  V30 896 C 84.6846 -0.55076 -1.60937 0
M  V30 897 O 85.8696 -0.787841 -1.77501 0
M  V30 898 C 82.9996 -1.77882 -2.98287 0
M  V30 899 C 81.9536 -2.92907 -3.12073 0
M  V30 900 C 81.2796 -2.85712 -4.51965 0
M  V30 901 C 82.5796 -4.3369 -2.91051 0
M  V30 902 H 84.2736 -2.63025 -1.43032 0
M  V30 903 H 81.8196 -1.26574 -0.686664 0
M  V30 904 H 83.7726 -1.90744 -3.75759 0
M  V30 905 H 82.4966 -0.816653 -3.16225 0
M  V30 906 H 81.1556 -2.79665 -2.37029 0
M  V30 907 H 80.8036 -1.8738 -4.66795 0
M  V30 908 H 80.5036 -3.62921 -4.62128 0
M  V30 909 H 82.0276 -3.00598 -5.31482 0
M  V30 910 H 83.4416 -4.47555 -3.58284 0
M  V30 911 H 81.8386 -5.12205 -3.12675 0
M  V30 912 H 82.9086 -4.47362 -1.87071 0
M  V30 913 N 84.2517 0.741722 -1.39055 0
M  V30 914 C 85.4797 1.53098 -1.39171 0
M  V30 915 C 85.8947 1.88794 0.0155099 0
M  V30 916 O 85.2517 1.53626 0.985159 0
M  V30 917 C 85.3027 2.82274 -2.2584 0
M  V30 918 O 85.0237 2.48097 -3.61081 0
M  V30 919 C 86.5247 3.76343 -2.34266 0
M  V30 920 H 83.7447 0.473335 -0.4756 0
M  V30 921 H 86.2887 0.917045 -1.82785 0
M  V30 922 H 84.4437 3.40015 -1.85656 0
M  V30 923 H 84.8577 3.31029 -4.06842 0
M  V30 924 H 86.3317 4.63898 -2.9917 0
M  V30 925 H 86.8087 4.17619 -1.35982 0
M  V30 926 H 87.4147 3.24523 -2.74891 0
M  V30 927 N 85.7298 1.2412 0.971189 0
M  V30 928 C 86.6398 1.04747 2.09917 0
M  V30 929 C 87.6558 -0.0107162 1.73997 0
M  V30 930 O 88.8318 0.186714 2.00533 0
M  V30 931 C 85.8968 0.650828 3.40537 0
M  V30 932 C 84.9578 1.7851 3.90426 0
M  V30 933 C 84.1908 1.40729 5.14812 0
M  V30 934 O 84.4138 0.29557 5.69634 0
M  V30 935 O 83.3478 2.23168 5.58999 0
M  V30 936 H 87.1738 1.99304 2.29154 0
M  V30 937 H 84.7588 1.02908 1.08307 0
M  V30 938 H 86.6408 0.440992 4.19086 0
M  V30 939 H 85.3158 -0.265649 3.22608 0
M  V30 940 H 84.2228 2.04966 3.12953 0
M  V30 941 H 85.5558 2.68023 4.12825 0
M  V30 942 N 87.2079 -1.17134 1.05439 0
M  V30 943 C 88.1409 -2.2012 0.601855 0
M  V30 944 C 89.1189 -1.58314 -0.370854 0
M  V30 945 O 90.3029 -1.8638 -0.281882 0
M  V30 946 C 87.4299 -3.38491 -0.118868 0
M  V30 947 C 86.4759 -4.18752 0.809242 0
M  V30 948 S 87.3089 -4.83602 2.29977 0
M  V30 949 C 88.4649 -6.0536 1.59029 0
M  V30 950 H 88.6979 -2.58165 1.47438 0
M  V30 951 H 86.2309 -1.27788 0.866573 0
M  V30 952 H 88.1889 -4.07084 -0.528495 0
M  V30 953 H 86.8499 -2.98829 -0.967465 0
M  V30 954 H 86.0429 -5.03373 0.251379 0
M  V30 955 H 85.6449 -3.5561 1.15835 0
M  V30 956 H 87.9369 -6.71615 0.891017 0
M  V30 957 H 88.8799 -6.65679 2.41407 0
M  V30 958 H 89.2879 -5.54138 1.07663 0
M  V30 959 N 88.686 -0.835752 -1.33615 0
M  V30 960 C 90.097 -0.487099 -1.80234 0
M  V30 961 C 90.448 0.993627 -1.69179 0
M  V30 962 O 89.573 1.77403 -1.23924 0
M  V30 963 C 90.168 -0.877385 -3.27242 0
M  V30 964 C 88.727 -0.580915 -3.7189 0
M  V30 965 C 87.874 -1.0874 -2.5509 0
M  V30 966 H 90.825 -1.02474 -1.2118 0
M  V30 967 H 90.846 -0.186195 -3.80044 0
M  V30 968 H 90.358 -1.95512 -3.35256 0
M  V30 969 H 88.459 0.486881 -3.69405 0
M  V30 970 H 88.572 -1.13396 -4.65487 0
M  V30 971 H 86.936 -0.508392 -2.49575 0
M  V30 972 H 87.719 -2.17184 -2.65868 0
M  V30 973 N 90.1641 1.46063 -0.591896 0
M  V30 974 C 91.5801 1.57561 -0.254288 0
M  V30 975 C 91.7801 1.58565 1.24336 0
M  V30 976 O 90.8361 1.50753 2.02558 0
M  V30 977 C 92.1491 2.86549 -0.911611 0
M  V30 978 C 93.6971 3.00197 -0.886059 0
M  V30 979 C 94.1721 4.31933 -1.5231 0
M  V30 980 N 95.6631 4.38654 -1.48786 0
M  V30 981 C 96.3981 5.39222 -1.95006 0
M  V30 982 N 95.8941 6.46414 -2.49241 0
M  V30 983 N 97.6871 5.3048 -1.85868 0
M  V30 984 H 89.8381 1.43655 -1.56451 0
M  V30 985 H 92.1011 0.68583 -0.654478 0
M  V30 986 H 91.8071 2.91651 -1.96551 0
M  V30 987 H 91.6811 3.74794 -0.425368 0
M  V30 988 H 94.0681 2.9467 0.159246 0
M  V30 989 H 94.1491 2.13403 -1.41041 0
M  V30 990 H 93.7931 4.38217 -2.56765 0
M  V30 991 H 93.7231 5.17516 -0.973891 0
M  V30 992 H 96.2141 3.61793 -1.09151 0
M  V30 993 H 96.5271 7.19376 -2.82344 0
M  V30 994 H 94.8721 6.47208 -2.53272 0
M  V30 995 H 98.0631 4.45643 -1.43248 0
M  V30 996 H 98.2361 6.08711 -2.22204 0
M  V30 997 N 91.6422 0.330177 1.54103 0
M  V30 998 C 92.8912 -0.271336 1.99867 0
M  V30 999 C 93.2042 -1.52723 1.22209 0
M  V30 1000 O 94.4102 -2.20515 1.58383 0
M  V30 1001 C 92.8662 -0.534032 3.55916 0
M  V30 1002 C 92.4742 0.705193 4.42415 0
M  V30 1003 C 94.2182 -1.09514 4.1013 0
M  V30 1004 C 92.1252 0.414035 5.89949 0
M  V30 1005 H 91.0552 -0.105166 0.74663 0
M  V30 1006 H 93.7062 0.443429 1.78062 0
M  V30 1007 H 92.0882 -1.30915 3.73734 0
M  V30 1008 H 93.2622 1.4804 4.36372 0
M  V30 1009 H 91.5772 1.18698 3.99124 0
M  V30 1010 H 94.1742 -1.3277 5.17954 0
M  V30 1011 H 94.5172 -2.04656 3.62521 0
M  V30 1012 H 95.0502 -0.381038 3.95971 0
M  V30 1013 H 91.7892 1.33481 6.41766 0
M  V30 1014 H 91.3092 -0.323336 5.98928 0
M  V30 1015 H 92.9882 0.0263105 6.46995 0
M  V30 1016 N 93.1203 -1.57491 0.0584922 0
M  V30 1017 C 94.0833 -2.1085 -0.898617 0
M  V30 1018 C 95.0833 -1.02964 -1.23511 0
M  V30 1019 O 96.2733 -1.29007 -1.17059 0
M  V30 1020 C 93.4053 -2.59881 -2.20623 0
M  V30 1021 H 94.5983 -2.96715 -0.435936 0
M  V30 1022 H 92.1513 -1.55141 -0.190023 0
M  V30 1023 H 92.8863 -1.77431 -2.71457 0
M  V30 1024 H 92.6713 -3.38727 -1.97501 0
M  V30 1025 H 94.1613 -3.01285 -2.89166 0
M  V30 1026 N 94.5984 0.214957 -1.56127 0
M  V30 1027 C 95.8234 0.95924 -1.83884 0
M  V30 1028 C 96.2484 1.7689 -0.639644 0
M  V30 1029 O 95.6064 1.76566 0.411601 0
M  V30 1030 C 95.6544 1.84723 -3.09693 0
M  V30 1031 O 94.7584 2.94346 -2.8885 0
M  V30 1032 H 94.0994 0.27125 -0.606069 0
M  V30 1033 H 96.6294 0.226276 -2.03345 0
M  V30 1034 H 96.6394 2.25576 -3.39969 0
M  V30 1035 H 95.3144 1.25218 -3.96602 0
M  V30 1036 H 93.8914 2.57391 -2.69823 0
M  V30 1037 N 96.0765 1.50051 0.48192 0
M  V30 1038 C 96.9865 1.7089 1.60728 0
M  V30 1039 C 98.0025 0.591788 1.63627 0
M  V30 1040 O 99.1785 0.868817 1.81696 0
M  V30 1041 C 96.2435 1.78855 2.97005 0
M  V30 1042 C 95.3045 3.02537 3.04581 0
M  V30 1043 C 94.5375 3.10112 4.34357 0
M  V30 1044 O 94.7605 2.24765 5.24249 0
M  V30 1045 O 93.6945 4.02747 4.47301 0
M  V30 1046 H 97.5205 2.66264 1.46072 0
M  V30 1047 H 95.1055 1.34018 0.660264 0
M  V30 1048 H 96.9875 1.86336 3.77964 0
M  V30 1049 H 95.6625 0.866628 3.11883 0
M  V30 1050 H 94.5695 3.00563 2.22739 0
M  V30 1051 H 95.9025 3.94272 2.94636 0
M  V30 1052 N 97.5546 -0.734337 1.39446 0
M  V30 1053 C 98.8006 -1.49505 1.37913 0
M  V30 1054 C 99.1556 -1.92384 -0.0248416 0
M  V30 1055 O 98.4486 -1.6395 -0.991506 0
M  V30 1056 C 98.6426 -2.74711 2.28623 0
M  V30 1057 C 98.4716 -2.44075 3.777 0
M  V30 1058 C 97.2416 -2.36338 4.46623 0
M  V30 1059 C 99.4396 -2.09574 4.69663 0
M  V30 1060 N 97.4216 -1.9818 5.81032 0
M  V30 1061 C 98.7926 -1.81865 5.92727 0
M  V30 1062 C 100.848 -1.96048 4.57678 0
M  V30 1063 C 99.5506 -1.41992 7.05146 0
M  V30 1064 C 101.577 -1.57579 5.7002 0
M  V30 1065 C 100.939 -1.30754 6.92158 0
M  V30 1066 H 97.0376 -0.545896 0.55993 0
M  V30 1067 H 99.6216 -0.853373 1.75002 0
M  V30 1068 H 97.7926 -3.36657 1.93692 0
M  V30 1069 H 99.5246 -3.40916 2.18078 0
M  V30 1070 H 96.2796 -2.53456 4.00071 0
M  V30 1071 H 96.7036 -1.81691 6.52163 0
M  V30 1072 H 101.346 -2.15455 3.63784 0
M  V30 1073 H 99.0636 -1.21327 7.9894 0
M  V30 1074 H 102.65 -1.47718 5.62735 0
M  V30 1075 H 101.53 -1.01432 7.77612 0
M  V30 1076 N 99.0327 -1.24633 -0.964593 0
M  V30 1077 C 99.9807 -1.03917 -2.08096 0
M  V30 1078 C 100.975 0.0268581 -1.69379 0
M  V30 1079 O 102.181 -0.127952 -1.79545 0
M  V30 1080 H 98.5557 -0.319044 -0.680966 0
M  V30 1081 H 100.527 -1.98581 -2.22729 0
M  V30 1082 C 99.2757 -0.663983 -3.41301 0
M  V30 1083 H 98.5987 -1.47605 -3.71555 0
M  V30 1084 H 100.039 -0.558663 -4.20303 0
M  V30 1085 C 98.4977 0.629169 -3.30973 0
M  V30 1086 O 99.0277 1.67404 -3.65156 0
M  V30 1087 N 97.2337 0.611057 -2.84103 0
M  V30 1088 H 96.7807 -0.239593 -2.56483 0
M  V30 1089 H 96.7387 1.47647 -2.77575 0
M  V30 1090 N 100.511 1.16574 -1.06058 0
M  V30 1091 C 101.927 1.3904 -0.783585 0
M  V30 1092 C 102.127 1.91784 0.618145 0
M  V30 1093 O 101.183 2.11511 1.37911 0
M  V30 1094 C 102.496 2.37329 -1.84649 0
M  V30 1095 C 104.044 2.51018 -1.86973 0
M  V30 1096 C 104.519 3.52588 -2.92311 0
M  V30 1097 N 106.01 3.60113 -2.91329 0
M  V30 1098 C 106.745 4.38486 -3.69482 0
M  V30 1099 N 106.241 5.20302 -4.57447 0
M  V30 1100 N 108.034 4.33446 -3.57885 0
M  V30 1101 H 100.185 0.806725 -1.96483 0
M  V30 1102 H 102.448 0.417117 -0.851303 0
M  V30 1103 H 102.154 2.05663 -2.85299 0
M  V30 1104 H 102.028 3.36946 -1.6955 0
M  V30 1105 H 104.415 2.81989 -0.869827 0
M  V30 1106 H 104.496 1.51445 -2.0615 0
M  V30 1107 H 104.14 3.22354 -3.92492 0
M  V30 1108 H 104.07 4.51886 -2.70383 0
M  V30 1109 H 106.561 3.01707 -2.27555 0
M  V30 1110 H 106.874 5.77311 -5.13743 0
M  V30 1111 H 105.219 5.19653 -4.61503 0
M  V30 1112 H 108.41 3.68586 -2.88551 0
M  V30 1113 H 108.583 4.94279 -4.19037 0
M  V30 1114 N 101.989 0.842826 1.3317 0
M  V30 1115 C 103.235 0.441099 1.97945 0
M  V30 1116 C 103.568 -0.998024 1.66593 0
M  V30 1117 O 102.843 -1.69839 0.947898 0
M  V30 1118 C 103.126 0.666841 3.53872 0
M  V30 1119 C 102.979 2.15352 3.94897 0
M  V30 1120 C 104.298 0.115544 4.39948 0
M  V30 1121 H 101.417 0.161739 0.719034 0
M  V30 1122 H 104.059 1.05907 1.57746 0
M  V30 1123 H 102.209 0.140828 3.88245 0
M  V30 1124 H 103.881 2.7447 3.70761 0
M  V30 1125 H 102.124 2.63653 3.44484 0
M  V30 1126 H 102.795 2.26221 5.03516 0
M  V30 1127 H 105.271 0.565213 4.12243 0
M  V30 1128 H 104.147 0.303152 5.48062 0
M  V30 1129 H 104.408 -0.980935 4.3108 0
M  V30 1130 N 103.467 -1.45747 0.599634 0
M  V30 1131 C 104.714 -2.02292 0.0917284 0
M  V30 1132 C 105.042 -1.46906 -1.27472 0
M  V30 1133 O 104.297 -0.630652 -1.8526 0
M  V30 1134 C 104.596 -3.57399 -0.00602758 0
M  V30 1135 C 104.262 -4.31902 1.29503 0
M  V30 1136 C 102.924 -4.51974 1.65144 0
M  V30 1137 C 105.276 -4.74551 2.15525 0
M  V30 1138 C 102.604 -5.11949 2.86574 0
M  V30 1139 C 104.956 -5.35868 3.36196 0
M  V30 1140 C 103.62 -5.54165 3.72099 0
M  V30 1141 H 102.89 -0.740239 0.0335658 0
M  V30 1142 H 105.537 -1.7491 0.779661 0
M  V30 1143 H 103.842 -3.84014 -0.777183 0
M  V30 1144 H 105.539 -3.98846 -0.415038 0
M  V30 1145 H 102.129 -4.16588 1.00761 0
M  V30 1146 H 106.313 -4.58784 1.8929 0
M  V30 1147 H 101.569 -5.24305 3.14507 0
M  V30 1148 H 105.743 -5.6787 4.03109 0
M  V30 1149 H 103.37 -6.00406 4.6628 0
M  V30 1150 N 104.945 -0.338344 -1.53925 0
M  V30 1151 C 106.361 0.0137736 -1.59594 0
M  V30 1152 C 106.561 1.49186 -1.35447 0
M  V30 1153 O 105.617 2.24987 -1.14616 0
M  V30 1154 C 106.93 -0.41773 -2.97784 0
M  V30 1155 C 108.478 -0.369633 -3.1081 0
M  V30 1156 C 108.953 -0.776524 -4.51369 0
M  V30 1157 N 110.444 -0.730506 -4.57403 0
M  V30 1158 C 111.179 -1.01736 -5.64303 0
M  V30 1159 N 110.675 -1.3721 -6.79077 0
M  V30 1160 N 112.468 -0.941942 -5.54151 0
M  V30 1161 H 104.619 -1.3012 -1.67876 0
M  V30 1162 H 106.882 -0.530082 -0.78595 0
M  V30 1163 H 106.588 -1.44811 -3.20504 0
M  V30 1164 H 106.462 0.209729 -3.76616 0
M  V30 1165 H 108.849 0.651568 -2.87817 0
M  V30 1166 H 108.93 -1.03223 -2.34049 0
M  V30 1167 H 108.574 -1.79571 -4.75096 0
M  V30 1168 H 108.504 -0.0914649 -5.26521 0
M  V30 1169 H 110.995 -0.468783 -3.74981 0
M  V30 1170 H 111.308 -1.57597 -7.5656 0
M  V30 1171 H 109.653 -1.4105 -6.80536 0
M  V30 1172 H 112.844 -0.664184 -4.63364 0
M  V30 1173 H 113.017 -1.16884 -6.37371 0
M  V30 1174 N 106.423 1.57458 -0.0668435 0
M  V30 1175 C 107.355 2.09413 0.931601 0
M  V30 1176 C 108.368 1.02522 1.26464 0
M  V30 1177 O 109.557 1.30049 1.22269 0
M  V30 1178 C 106.657 2.53537 2.24882 0
M  V30 1179 C 105.83 3.83944 2.09537 0
M  V30 1180 C 104.889 4.14214 3.2452 0
M  V30 1181 O 103.915 4.83891 2.9973 0
M  V30 1182 N 105.117 3.67367 4.49469 0
M  V30 1183 H 107.882 2.95699 0.488048 0
M  V30 1184 H 105.443 1.61462 0.119009 0
M  V30 1185 H 107.435 2.70853 3.00701 0
M  V30 1186 H 106.005 1.72415 2.60753 0
M  V30 1187 H 105.225 3.76057 1.18215 0
M  V30 1188 H 106.513 4.69312 1.96529 0
M  V30 1189 H 105.911 3.11068 4.72497 0
M  V30 1190 H 104.468 3.89891 5.2233 0
M  V30 1191 N 107.901 -0.206675 1.56239 0
M  V30 1192 C 108.831 -1.25909 1.96645 0
M  V30 1193 C 109.812 -1.48097 0.836734 0
M  V30 1194 O 110.997 -1.6003 1.10019 0
M  V30 1195 C 108.127 -2.6058 2.29599 0
M  V30 1196 C 107.081 -2.53024 3.452 0
M  V30 1197 C 106.407 -3.91861 3.63798 0
M  V30 1198 C 107.707 -2.06524 4.79734 0
M  V30 1199 H 109.401 -0.923369 2.84806 0
M  V30 1200 H 106.947 -0.442735 1.37025 0
M  V30 1201 H 108.9 -3.34375 2.56459 0
M  V30 1202 H 107.624 -2.95869 1.38307 0
M  V30 1203 H 106.283 -1.81684 3.18412 0
M  V30 1204 H 105.931 -4.24483 2.69857 0
M  V30 1205 H 105.631 -3.87683 4.4156 0
M  V30 1206 H 107.155 -4.67296 3.93022 0
M  V30 1207 H 108.569 -2.70072 5.05702 0
M  V30 1208 H 106.966 -2.13374 5.60885 0
M  V30 1209 H 108.036 -1.01802 4.74093 0
M  V30 1210 N 109.379 -1.50304 -0.473955 0
M  V30 1211 C 110.79 -1.54042 -1.0549 0
M  V30 1212 C 111.141 -0.342248 -1.93192 0
M  V30 1213 O 110.266 0.545157 -2.09421 0
M  V30 1214 C 110.861 -2.79152 -1.91989 0
M  V30 1215 C 109.42 -2.8558 -2.45196 0
M  V30 1216 C 108.567 -2.48295 -1.2347 0
M  V30 1217 H 111.518 -1.5661 -0.256693 0
M  V30 1218 H 111.539 -2.60845 -2.7702 0
M  V30 1219 H 111.051 -3.66339 -1.28131 0
M  V30 1220 H 109.152 -2.02738 -3.12615 0
M  V30 1221 H 109.265 -3.88403 -2.80499 0
M  V30 1222 H 107.629 -2.00669 -1.56856 0
M  V30 1223 H 108.412 -3.37787 -0.612789 0
M  V30 1224 N 110.857 0.726932 -1.39834 0
M  V30 1225 C 112.085 1.51613 -1.40787 0
M  V30 1226 C 112.5 1.88799 -0.00451505 0
M  V30 1227 O 111.857 1.54662 0.968809 0
M  V30 1228 C 111.908 2.79863 -2.28821 0
M  V30 1229 O 111.629 2.44253 -3.63692 0
M  V30 1230 C 113.13 3.73837 -2.38245 0
M  V30 1231 H 110.35 0.468264 -0.480593 0
M  V30 1232 H 112.894 0.897607 -1.83748 0
M  V30 1233 H 111.049 3.38027 -1.89252 0
M  V30 1234 H 111.463 3.26695 -4.1033 0
M  V30 1235 H 112.937 4.60699 -3.04073 0
M  V30 1236 H 113.414 4.16153 -1.40403 0
M  V30 1237 H 114.02 3.21589 -2.78317 0
M  V30 1238 N 112.336 1.25143 0.95797 0
M  V30 1239 C 113.246 1.06968 2.08794 0
M  V30 1240 C 114.262 0.00773911 1.73998 0
M  V30 1241 O 115.438 0.207972 2.00323 0
M  V30 1242 C 112.503 0.68691 3.39827 0
M  V30 1243 C 111.564 1.82641 3.88511 0
M  V30 1244 C 110.797 1.46181 5.1329 0
M  V30 1245 O 111.02 0.355971 5.69288 0
M  V30 1246 O 109.954 2.29085 5.566 0
M  V30 1247 H 113.78 2.01723 2.27027 0
M  V30 1248 H 111.365 1.04051 1.07209 0
M  V30 1249 H 113.247 0.485417 4.18595 0
M  V30 1250 H 111.922 -0.231417 3.22872 0
M  V30 1251 H 110.829 2.08274 3.10762 0
M  V30 1252 H 112.162 2.72386 4.09959 0
M  V30 1253 N 113.814 -1.1601 1.06675 0
M  V30 1254 C 114.777 -2.18724 0.685001 0
M  V30 1255 C 115.777 -1.58496 -0.271246 0
M  V30 1256 O 116.967 -1.74119 -0.0531156 0
M  V30 1257 C 114.099 -3.40899 0.00853648 0
M  V30 1258 H 115.292 -2.54011 1.59431 0
M  V30 1259 H 112.845 -1.30352 0.862441 0
M  V30 1260 H 113.58 -3.11173 -0.913337 0
M  V30 1261 H 113.365 -3.8587 0.696204 0
M  V30 1262 H 114.855 -4.16886 -0.24414 0
M  V30 1263 N 115.292 -0.849877 -1.32721 0
M  V30 1264 C 116.569 -0.372405 -1.92022 0
M  V30 1265 C 116.949 1.1435 -1.77447 0
M  V30 1266 O 116.297 1.96296 -1.16962 0
M  V30 1267 C 116.507 -0.831482 -3.3895 0
M  V30 1268 C 117.855 -0.845882 -4.16089 0
M  V30 1269 O 118.879 -0.775806 -3.47649 0
M  V30 1270 O 117.738 -0.943753 -5.38289 0
M  V30 1271 H 114.832 -0.107667 -0.819961 0
M  V30 1272 H 117.378 -0.93646 -1.41522 0
M  V30 1273 H 116.15 -1.87448 -3.4348 0
M  V30 1274 H 115.773 -0.24461 -3.96847 0
M  V30 1275 N 116.77 1.45427 -0.607355 0
M  V30 1276 C 118.019 2.01452 -0.100036 0
M  V30 1277 C 118.332 1.48159 1.27704 0
M  V30 1278 O 119.538 1.96159 1.87707 0
M  V30 1279 C 117.994 3.59672 -0.128158 0
M  V30 1280 C 117.602 4.21962 -1.50507 0
M  V30 1281 C 119.346 4.23262 0.323932 0
M  V30 1282 C 117.253 5.72333 -1.48959 0
M  V30 1283 H 116.183 0.75325 -0.0336299 0
M  V30 1284 H 118.834 1.66901 -0.76265 0
M  V30 1285 H 117.216 3.91411 0.601105 0
M  V30 1286 H 118.39 4.01796 -2.25602 0
M  V30 1287 H 116.705 3.70565 -1.89923 0
M  V30 1288 H 119.302 5.33522 0.354691 0
M  V30 1289 H 119.645 3.93921 1.34656 0
M  V30 1290 H 120.178 3.96239 -0.352056 0
M  V30 1291 H 116.917 6.06373 -2.48981 0
M  V30 1292 H 116.437 5.94691 -0.781214 0
M  V30 1293 H 118.116 6.35525 -1.21313 0
M  V30 1294 N 118.248 0.346503 1.53744 0
M  V30 1295 C 119.18 -0.543316 2.22667 0
M  V30 1296 C 120.193 -1.06159 1.23427 0
M  V30 1297 O 121.382 -0.971235 1.49764 0
M  V30 1298 C 118.482 -1.76076 2.89569 0
M  V30 1299 C 117.655 -1.37727 4.15151 0
M  V30 1300 C 116.714 -2.45471 4.65436 0
M  V30 1301 O 115.74 -2.08655 5.29577 0
M  V30 1302 N 116.942 -3.7677 4.41616 0
M  V30 1303 H 119.707 0.0469703 2.99663 0
M  V30 1304 H 117.268 0.170766 1.60997 0
M  V30 1305 H 119.26 -2.47593 3.20125 0
M  V30 1306 H 117.83 -2.25835 2.16142 0
M  V30 1307 H 117.05 -0.492746 3.91108 0
M  V30 1308 H 118.338 -1.09708 4.96832 0
M  V30 1309 H 117.736 -4.09467 3.90325 0
M  V30 1310 H 116.293 -4.44448 4.7677 0
M  V30 1311 N 119.726 -1.57421 0.075193 0
M  V30 1312 C 120.636 -2.1642 -0.905511 0
M  V30 1313 C 121.652 -1.12828 -1.32461 0
M  V30 1314 O 122.828 -1.45109 -1.39661 0
M  V30 1315 C 119.893 -2.71693 -2.15369 0
M  V30 1316 C 118.954 -3.90171 -1.79068 0
M  V30 1317 C 118.187 -4.42798 -2.97936 0
M  V30 1318 O 118.41 -3.94416 -4.12058 0
M  V30 1319 O 117.344 -5.34085 -2.77555 0
M  V30 1320 H 121.17 -3.00588 -0.433626 0
M  V30 1321 H 118.755 -1.48664 -0.148067 0
M  V30 1322 H 120.637 -3.07104 -2.88557 0
M  V30 1323 H 119.312 -1.90582 -2.61649 0
M  V30 1324 H 118.219 -3.59606 -1.03122 0
M  V30 1325 H 119.552 -4.72584 -1.37569 0
M  V30 1326 N 121.204 0.198386 -1.56346 0
M  V30 1327 C 122.137 1.27381 -1.89339 0
M  V30 1328 C 123.115 1.44106 -0.753134 0
M  V30 1329 O 124.299 1.59549 -1.00381 0
M  V30 1330 C 121.426 2.6409 -2.12071 0
M  V30 1331 C 120.472 2.64253 -3.34772 0
M  V30 1332 S 121.305 2.16013 -4.89999 0
M  V30 1333 C 122.461 3.54553 -5.15794 0
M  V30 1334 H 122.694 0.992058 -2.8026 0
M  V30 1335 H 120.227 0.401726 -1.49082 0
M  V30 1336 H 122.185 3.42786 -2.2585 0
M  V30 1337 H 120.846 2.89478 -1.21906 0
M  V30 1338 H 120.039 3.64768 -3.47794 0
M  V30 1339 H 119.641 1.93637 -3.1997 0
M  V30 1340 H 121.933 4.50396 -5.06112 0
M  V30 1341 H 122.876 3.46428 -6.1757 0
M  V30 1342 H 123.284 3.49313 -4.43442 0
M  V30 1343 N 122.682 1.50554 0.465978 0
M  V30 1344 C 123.912 1.65323 1.23903 0
M  V30 1345 C 124.32 0.338051 1.86155 0
M  V30 1346 O 123.663 -0.690518 1.70228 0
M  V30 1347 C 123.725 2.69048 2.3844 0
M  V30 1348 C 123.389 4.12462 1.96784 0
M  V30 1349 C 124.386 4.98168 1.48745 0
M  V30 1350 C 122.071 4.58407 2.05349 0
M  V30 1351 C 124.065 6.27868 1.0982 0
M  V30 1352 C 121.752 5.88112 1.66035 0
M  V30 1353 C 122.75 6.72668 1.18349 0
M  V30 1354 O 122.438 7.99951 0.795825 0
M  V30 1355 H 122.17 0.558629 0.38067 0
M  V30 1356 H 124.724 1.97561 0.562022 0
M  V30 1357 H 122.954 2.32062 3.09328 0
M  V30 1358 H 124.643 2.72985 3.0039 0
M  V30 1359 H 125.409 4.63885 1.41546 0
M  V30 1360 H 121.288 3.92735 2.41414 0
M  V30 1361 H 124.832 6.93819 0.725293 0
M  V30 1362 H 120.729 6.21914 1.72895 0
M  V30 1363 H 121.497 8.13265 0.924222 0
M  V30 1364 N 124.16 -0.719506 1.40217 0
M  V30 1365 C 125.07 -1.86378 1.42479 0
M  V30 1366 C 126.086 -1.71073 0.317834 0
M  V30 1367 O 127.262 -1.93406 0.561794 0
M  V30 1368 C 124.327 -3.22136 1.28178 0
M  V30 1369 C 123.388 -3.49723 2.48982 0
M  V30 1370 C 122.621 -4.79004 2.35353 0
M  V30 1371 O 122.844 -5.53821 1.36524 0
M  V30 1372 O 121.778 -5.06839 3.2465 0
M  V30 1373 H 125.604 -1.87425 2.38968 0
M  V30 1374 H 123.189 -0.869405 1.21498 0
M  V30 1375 H 125.071 -4.03234 1.22395 0
M  V30 1376 H 123.746 -3.21825 0.347934 0
M  V30 1377 H 122.653 -2.6865 2.60342 0
M  V30 1378 H 123.986 -3.54828 3.41113 0
M  V30 1379 N 125.638 -1.25649 -0.95132 0
M  V30 1380 C 126.548 -1.08073 -2.08224 0
M  V30 1381 C 127.564 -0.0169666 -1.73992 0
M  V30 1382 O 128.74 -0.218593 -2.0021 0
M  V30 1383 C 125.805 -0.704922 -3.39458 0
M  V30 1384 C 124.866 -1.84699 -3.87537 0
M  V30 1385 C 124.099 -1.48902 -5.12508 0
M  V30 1386 O 124.322 -0.386156 -5.69091 0
M  V30 1387 O 123.256 -2.32033 -5.55378 0
M  V30 1388 H 127.082 -2.02924 -2.25954 0
M  V30 1389 H 124.667 -1.04618 -1.06656 0
M  V30 1390 H 126.549 -0.507609 -4.18332 0
M  V30 1391 H 125.224 0.214291 -3.2299 0
M  V30 1392 H 124.131 -2.09919 -3.09653 0
M  V30 1393 H 125.464 -2.74557 -4.08509 0
M  V30 1394 N 127.117 1.15442 -1.07289 0
M  V30 1395 C 128.364 1.86213 -0.795668 0
M  V30 1396 C 128.692 1.82291 0.678238 0
M  V30 1397 O 127.947 1.24057 1.51355 0
M  V30 1398 C 128.246 3.3489 -1.24834 0
M  V30 1399 C 127.912 3.59007 -2.72809 0
M  V30 1400 C 126.574 3.65298 -3.13227 0
M  V30 1401 C 128.926 3.68762 -3.68326 0
M  V30 1402 C 126.254 3.78854 -4.4798 0
M  V30 1403 C 128.606 3.83842 -5.0284 0
M  V30 1404 C 127.27 3.88378 -5.4288 0
M  V30 1405 H 126.54 0.681403 -0.291155 0
M  V30 1406 H 129.187 1.36435 -1.34379 0
M  V30 1407 H 127.492 3.8687 -0.619595 0
M  V30 1408 H 129.189 3.88052 -1.01076 0
M  V30 1409 H 125.779 3.5475 -2.40521 0
M  V30 1410 H 129.963 3.63202 -3.38227 0
M  V30 1411 H 125.219 3.80623 -4.78472 0
M  V30 1412 H 129.393 3.90332 -5.76727 0
M  V30 1413 H 127.02 3.98635 -6.47298 0
M  V30 1414 N 128.595 0.856903 1.32268 0
M  V30 1415 C 129.505 0.306131 2.32594 0
M  V30 1416 C 130.521 -0.577209 1.64147 0
M  V30 1417 O 131.697 -0.477043 1.95669 0
M  V30 1418 C 128.762 -0.494561 3.43154 0
M  V30 1419 C 127.823 0.415186 4.27288 0
M  V30 1420 C 127.056 -0.347387 5.32568 0
M  V30 1421 O 127.279 -1.57708 5.48165 0
M  V30 1422 O 126.213 0.287982 6.01211 0
M  V30 1423 H 130.039 1.13737 2.81598 0
M  V30 1424 H 127.624 0.619902 1.35932 0
M  V30 1425 H 129.506 -0.948944 4.10576 0
M  V30 1426 H 128.181 -1.30257 2.96336 0
M  V30 1427 H 127.088 0.917793 3.62667 0
M  V30 1428 H 128.421 1.18844 4.77637 0
M  V30 1429 N 130.073 -1.45103 0.615059 0
M  V30 1430 C 130.983 -2.34382 -0.101034 0
M  V30 1431 C 131.999 -1.51681 -0.852585 0
M  V30 1432 O 133.175 -1.8446 -0.808484 0
M  V30 1433 C 130.24 -3.29417 -1.08099 0
M  V30 1434 C 129.301 -4.28025 -0.330577 0
M  V30 1435 C 128.534 -5.1852 -1.26385 0
M  V30 1436 O 128.757 -5.12598 -2.50198 0
M  V30 1437 O 127.691 -5.97122 -0.756866 0
M  V30 1438 H 131.517 -2.97033 0.632855 0
M  V30 1439 H 129.102 -1.4461 0.375293 0
M  V30 1440 H 130.984 -3.87958 -1.6452 0
M  V30 1441 H 129.659 -2.69321 -1.79577 0
M  V30 1442 H 128.566 -3.73078 0.276283 0
M  V30 1443 H 129.899 -4.90997 0.343866 0
M  V30 1444 N 131.551 -0.354651 -1.53558 0
M  V30 1445 C 132.8 0.239504 -2.00273 0
M  V30 1446 C 133.113 1.50759 -1.24623 0
M  V30 1447 O 134.319 2.17968 -1.61871 0
M  V30 1448 C 132.775 0.477341 -3.5672 0
M  V30 1449 C 132.383 -0.775488 -4.41237 0
M  V30 1450 C 134.127 1.02975 -4.11821 0
M  V30 1451 C 132.034 -0.507838 -5.89216 0
M  V30 1452 H 130.964 0.0932743 -0.748208 0
M  V30 1453 H 133.615 -0.471701 -1.77334 0
M  V30 1454 H 131.997 1.24953 -3.7577 0
M  V30 1455 H 133.171 -1.54963 -4.33962 0
M  V30 1456 H 131.486 -1.25033 -3.97185 0
M  V30 1457 H 134.083 1.24513 -5.2 0
M  V30 1458 H 134.426 1.98862 -3.65731 0
M  V30 1459 H 134.959 0.317994 -3.96527 0
M  V30 1460 H 131.698 -1.43674 -6.39561 0
M  V30 1461 H 131.218 0.228011 -5.99366 0
M  V30 1462 H 132.897 -0.129238 -6.46871 0
M  V30 1463 N 133.029 1.57378 -0.0835403 0
M  V30 1464 C 133.959 2.1641 0.87686 0
M  V30 1465 C 134.94 1.09429 1.30228 0
M  V30 1466 O 136.125 1.37516 1.37124 0
M  V30 1467 C 133.255 2.73517 2.14022 0
M  V30 1468 C 132.209 3.85769 1.85381 0
M  V30 1469 C 131.535 4.29529 3.18448 0
M  V30 1470 C 132.835 5.09486 1.14984 0
M  V30 1471 H 134.529 2.96914 0.385059 0
M  V30 1472 H 132.075 1.42823 0.18377 0
M  V30 1473 H 134.028 3.13463 2.81636 0
M  V30 1474 H 132.752 1.90252 2.65465 0
M  V30 1475 H 131.411 3.46345 1.20169 0
M  V30 1476 H 131.059 3.43169 3.67755 0
M  V30 1477 H 130.759 5.05204 3.00071 0
M  V30 1478 H 132.283 4.72099 3.8724 0
M  V30 1479 H 133.697 5.46674 1.72687 0
M  V30 1480 H 132.094 5.90515 1.06826 0
M  V30 1481 H 133.164 4.84724 0.130749 0
M  V30 1482 N 134.507 -0.190092 1.56449 0
M  V30 1483 C 135.754 -0.909705 1.80916 0
M  V30 1484 C 136.082 -1.83047 0.657583 0
M  V30 1485 O 135.337 -1.92428 -0.356356 0
M  V30 1486 C 135.636 -1.75382 3.1141 0
M  V30 1487 C 135.302 -0.983606 4.40041 0
M  V30 1488 C 133.964 -0.770967 4.74984 0
M  V30 1489 C 136.316 -0.442024 5.19322 0
M  V30 1490 C 133.644 -0.0053448 5.867 0
M  V30 1491 C 135.996 0.310412 6.31838 0
M  V30 1492 C 134.66 0.534023 6.6536 0
M  V30 1493 H 133.93 -0.332885 0.662019 0
M  V30 1494 H 136.577 -0.175762 1.90692 0
M  V30 1495 H 134.882 -2.55659 2.96893 0
M  V30 1496 H 136.579 -2.31331 3.27547 0
M  V30 1497 H 133.169 -1.15936 4.12622 0
M  V30 1498 H 137.353 -0.593693 4.92736 0
M  V30 1499 H 132.609 0.177825 6.11141 0
M  V30 1500 H 136.783 0.737419 6.92485 0
M  V30 1501 H 134.41 1.12918 7.51767 0
M  V30 1502 N 135.985 -1.50799 -0.457987 0
M  V30 1503 C 136.948 -1.7005 -1.53674 0
M  V30 1504 C 137.948 -0.570881 -1.50325 0
M  V30 1505 O 139.138 -0.838126 -1.52712 0
M  V30 1506 C 136.27 -1.73788 -2.93276 0
M  V30 1507 H 137.463 -2.66306 -1.37917 0
M  V30 1508 H 135.016 -1.40477 -0.685271 0
M  V30 1509 H 135.751 -0.792717 -3.14462 0
M  V30 1510 H 135.536 -2.55864 -2.97113 0
M  V30 1511 H 137.026 -1.90591 -3.71571 0
M  V30 1512 N 137.463 0.71206 -1.40597 0
M  V30 1513 C 138.712 1.46754 -1.38369 0
M  V30 1514 C 139.025 1.95598 0.0097839 0
M  V30 1515 O 140.231 2.71059 0.154677 0
M  V30 1516 C 138.687 2.65289 -2.43207 0
M  V30 1517 C 138.295 2.23301 -3.88382 0
M  V30 1518 C 140.039 3.43008 -2.50091 0
M  V30 1519 C 137.946 3.38696 -4.84808 0
M  V30 1520 H 136.876 0.55118 -0.514506 0
M  V30 1521 H 139.527 0.774616 -1.66349 0
M  V30 1522 H 137.909 3.36769 -2.08332 0
M  V30 1523 H 139.083 1.59218 -4.32419 0
M  V30 1524 H 137.398 1.58618 -3.85006 0
M  V30 1525 H 139.995 4.28881 -3.1932 0
M  V30 1526 H 140.338 3.87065 -1.53253 0
M  V30 1527 H 140.871 2.78574 -2.83974 0
M  V30 1528 H 137.61 2.99668 -5.82992 0
M  V30 1529 H 137.13 4.01683 -4.45433 0
M  V30 1530 H 138.809 4.04712 -5.04794 0
M  V30 1531 N 138.941 1.26152 0.944643 0
M  V30 1532 C 139.871 1.09902 2.06019 0
M  V30 1533 C 140.852 0.00519538 1.70099 0
M  V30 1534 O 142.037 0.176583 1.93396 0
M  V30 1535 C 139.167 0.727562 3.39594 0
M  V30 1536 C 138.121 1.77274 3.89561 0
M  V30 1537 C 137.447 1.25569 5.19747 0
M  V30 1538 C 138.747 3.17357 4.14827 0
M  V30 1539 H 140.441 2.03217 2.19871 0
M  V30 1540 H 137.987 0.978452 1.05652 0
M  V30 1541 H 139.94 0.600777 4.17095 0
M  V30 1542 H 138.664 -0.241287 3.25707 0
M  V30 1543 H 137.323 1.88814 3.14237 0
M  V30 1544 H 136.971 0.276783 5.02238 0
M  V30 1545 H 136.671 1.95433 5.54148 0
M  V30 1546 H 138.195 1.1415 5.99835 0
M  V30 1547 H 139.609 3.08914 4.82954 0
M  V30 1548 H 138.006 3.84781 4.60504 0
M  V30 1549 H 139.076 3.63673 3.20734 0
M  V30 1550 N 140.419 -1.14872 1.07899 0
M  V30 1551 C 141.83 -1.67367 0.827363 0
M  V30 1552 C 142.181 -1.85236 -0.646693 0
M  V30 1553 O 141.306 -1.55974 -1.50004 0
M  V30 1554 C 141.901 -3.04016 1.49532 0
M  V30 1555 C 140.46 -3.53566 1.29106 0
M  V30 1556 C 139.607 -2.29161 1.56143 0
M  V30 1557 H 142.558 -0.990083 1.24028 0
M  V30 1558 H 142.579 -3.69219 0.919643 0
M  V30 1559 H 142.091 -2.90978 2.56814 0
M  V30 1560 H 140.192 -3.71835 0.238713 0
M  V30 1561 H 140.305 -4.34661 2.01511 0
M  V30 1562 H 138.669 -2.34978 0.982717 0
M  V30 1563 H 139.452 -2.18705 2.64619 0
M  V30 1564 N 141.898 -0.863906 -1.31812 0
M  V30 1565 C 143.314 -0.555004 -1.49639 0
M  V30 1566 C 143.514 0.912266 -1.79666 0
M  V30 1567 O 142.57 1.69479 -1.87171 0
M  V30 1568 C 143.883 -1.44998 -2.63431 0
M  V30 1569 C 145.431 -1.45138 -2.77316 0
M  V30 1570 C 145.906 -2.33179 -3.94197 0
M  V30 1571 N 147.397 -2.31025 -4.01474 0
M  V30 1572 C 148.132 -2.95871 -4.9117 0
M  V30 1573 N 147.628 -3.69863 -5.8581 0
M  V30 1574 N 149.421 -2.85211 -4.84367 0
M  V30 1575 H 141.572 -1.81339 -1.10589 0
M  V30 1576 H 143.835 -0.77505 -0.545895 0
M  V30 1577 H 143.541 -2.49377 -2.48 0
M  V30 1578 H 143.415 -1.14409 -3.59431 0
M  V30 1579 H 145.802 -0.415201 -2.92164 0
M  V30 1580 H 145.883 -1.79747 -1.82001 0
M  V30 1581 H 145.527 -3.3687 -3.80107 0
M  V30 1582 H 145.457 -1.95897 -4.88807 0
M  V30 1583 H 147.948 -1.77238 -3.33759 0
M  V30 1584 H 148.261 -4.16486 -6.50968 0
M  V30 1585 H 146.606 -3.73971 -5.85808 0
M  V30 1586 H 149.797 -2.26948 -4.09405 0
M  V30 1587 H 149.97 -3.36027 -5.54066 0
M  V30 1588 N 143.376 1.44774 -0.622745 0
M  V30 1589 C 144.606 2.06187 -0.130532 0
M  V30 1590 C 145.014 1.46547 1.19669 0
M  V30 1591 O 144.357 0.579636 1.74316 0
M  V30 1592 C 144.419 3.59437 0.0674983 0
M  V30 1593 C 144.083 4.41496 -1.18026 0
M  V30 1594 C 145.08 4.75512 -2.102 0
M  V30 1595 C 142.765 4.82007 -1.41333 0
M  V30 1596 C 144.759 5.48912 -3.23998 0
M  V30 1597 C 142.446 5.55157 -2.55429 0
M  V30 1598 C 143.444 5.88528 -3.46589 0
M  V30 1599 O 143.132 6.60191 -4.58697 0
M  V30 1600 H 142.864 0.672045 -0.0730162 0
M  V30 1601 H 145.418 1.86768 -0.854802 0
M  V30 1602 H 143.648 3.77314 0.846825 0
M  V30 1603 H 145.337 4.02642 0.513209 0
M  V30 1604 H 146.103 4.4476 -1.93425 0
M  V30 1605 H 141.982 4.55457 -0.712709 0
M  V30 1606 H 145.526 5.74877 -3.95174 0
M  V30 1607 H 141.423 5.85324 -2.72151 0
M  V30 1608 H 142.191 6.78654 -4.57571 0
M  V30 1609 N 144.854 0.36279 1.53368 0
M  V30 1610 C 145.817 -0.472679 2.24273 0
M  V30 1611 C 146.817 -1.012 1.24961 0
M  V30 1612 O 148.007 -0.898194 1.49259 0
M  V30 1613 C 145.139 -1.66039 2.97731 0
M  V30 1614 H 146.332 0.14773 2.99536 0
M  V30 1615 H 143.885 0.114434 1.55881 0
M  V30 1616 H 144.62 -2.31896 2.26704 0
M  V30 1617 H 144.405 -1.28066 3.70596 0
M  V30 1618 H 145.895 -2.25252 3.51641 0
M  V30 1619 N 146.332 -1.57332 0.0918853 0
M  V30 1620 C 147.557 -1.98995 -0.584442 0
M  V30 1621 C 147.982 -0.970528 -1.61128 0
M  V30 1622 O 147.34 0.0613904 -1.81196 0
M  V30 1623 C 147.388 -3.39636 -1.21161 0
M  V30 1624 O 146.492 -3.40447 -2.32744 0
M  V30 1625 H 145.833 -0.647165 -0.148572 0
M  V30 1626 H 148.363 -2.03873 0.172347 0
M  V30 1627 H 148.373 -3.7726 -1.55367 0
M  V30 1628 H 147.048 -4.13356 -0.459313 0
M  V30 1629 H 145.625 -3.14614 -2.0018 0
M  V30 1630 N 147.81 0.181792 -1.56548 0
M  V30 1631 C 149.221 0.745244 -1.71181 0
M  V30 1632 C 149.572 1.83262 -0.70068 0
M  V30 1633 O 148.697 2.15946 0.140154 0
M  V30 1634 C 149.292 1.35859 -3.10367 0
M  V30 1635 C 147.851 1.86898 -3.2672 0
M  V30 1636 C 146.998 0.743942 -2.67134 0
M  V30 1637 H 149.949 -0.0434661 -1.5864 0
M  V30 1638 H 149.97 2.22817 -3.08436 0
M  V30 1639 H 149.482 0.566948 -3.83937 0
M  V30 1640 H 147.583 2.68738 -2.5809 0
M  V30 1641 H 147.696 2.02162 -4.34359 0
M  V30 1642 H 146.06 1.16169 -2.26665 0
M  V30 1643 H 146.843 -0.035676 -3.43281 0
M  V30 1644 N 149.288 1.51039 0.449983 0
M  V30 1645 C 150.537 1.62317 1.19733 0
M  V30 1646 C 150.85 0.339101 1.92638 0
M  V30 1647 O 152.056 0.331069 2.69474 0
M  V30 1648 C 150.512 2.86608 2.17678 0
M  V30 1649 C 150.12 4.21972 1.50479 0
M  V30 1650 C 151.864 3.07239 2.92924 0
M  V30 1651 C 149.771 5.37426 2.46834 0
M  V30 1652 H 148.701 0.604532 0.450619 0
M  V30 1653 H 151.352 1.77494 0.465625 0
M  V30 1654 H 149.734 2.65037 2.94231 0
M  V30 1655 H 150.908 4.53878 0.795716 0
M  V30 1656 H 149.223 4.07117 0.874344 0
M  V30 1657 H 151.82 3.90668 3.65079 0
M  V30 1658 H 152.163 2.19807 3.5354 0
M  V30 1659 H 152.696 3.29091 2.23481 0
M  V30 1660 H 149.435 6.27079 1.90926 0
M  V30 1661 H 148.955 5.09912 3.15832 0
M  V30 1662 H 150.634 5.68862 3.08228 0
M  V30 1663 N 150.766 -0.704594 1.40972 0
M  V30 1664 C 151.714 -1.83994 1.42299 0
M  V30 1665 C 152.708 -1.66684 0.302111 0
M  V30 1666 O 153.914 -1.73655 0.473697 0
M  V30 1667 H 150.289 -0.606171 0.44504 0
M  V30 1668 H 152.26 -1.79992 2.38003 0
M  V30 1669 C 151.009 -3.21946 1.31323 0
M  V30 1670 H 150.332 -3.35878 2.16855 0
M  V30 1671 H 151.772 -4.01491 1.36311 0
M  V30 1672 C 150.231 -3.36891 0.0245977 0
M  V30 1673 O 150.761 -3.90687 -0.934153 0
M  V30 1674 N 148.967 -2.90559 -0.0485243 0
M  V30 1675 H 148.514 -2.46968 0.732419 0
M  V30 1676 H 148.472 -3.00937 -0.910171 0
M  V30 1677 N 152.244 -1.26651 -0.937939 0
M  V30 1678 C 153.492 -1.12165 -1.68118 0
M  V30 1679 C 153.813 0.334983 -1.92101 0
M  V30 1680 O 153.083 1.23583 -1.52 0
M  V30 1681 H 151.663 -0.412093 -0.623048 0
M  V30 1682 H 154.325 -1.59027 -1.12678 0
M  V30 1683 H 153.421 -1.64289 -2.6536 0
M  V30 1684 N 153.722 1.14298 -1.08507 0
M  V30 1685 C 154.968 1.85633 -0.816581 0
M  V30 1686 C 155.301 1.82784 0.656021 0
M  V30 1687 O 154.576 1.25926 1.48233 0
M  V30 1688 C 154.859 3.34223 -1.34041 0
M  V30 1689 C 154.712 3.45639 -2.87843 0
M  V30 1690 C 156.031 4.29356 -0.9665 0
M  V30 1691 H 153.15 0.67402 -0.298104 0
M  V30 1692 H 155.792 1.34214 -1.34487 0
M  V30 1693 H 153.942 3.78144 -0.89104 0
M  V30 1694 H 155.614 3.10498 -3.41158 0
M  V30 1695 H 153.857 2.86817 -3.25451 0
M  V30 1696 H 154.528 4.50089 -3.19569 0
M  V30 1697 H 157.004 3.93457 -1.35391 0
M  V30 1698 H 155.88 5.3178 -1.3602 0
M  V30 1699 H 156.141 4.41919 0.126362 0
M  V30 1700 N 155.201 0.870884 1.31352 0
M  V30 1701 C 156.148 0.325425 2.28494 0
M  V30 1702 C 157.118 -0.576615 1.5577 0
M  V30 1703 O 158.303 -0.508059 1.83911 0
M  V30 1704 C 155.443 -0.466283 3.41935 0
M  V30 1705 C 154.556 0.463378 4.29508 0
M  V30 1706 C 153.691 -0.342544 5.30094 0
M  V30 1707 C 152.73 0.583486 6.09313 0
M  V30 1708 N 151.867 -0.186244 7.01853 0
M  V30 1709 H 156.707 1.15901 2.74538 0
M  V30 1710 H 154.244 0.58294 1.35056 0
M  V30 1711 H 156.202 -0.941085 4.06447 0
M  V30 1712 H 154.832 -1.26456 2.97 0
M  V30 1713 H 153.884 1.05663 3.65431 0
M  V30 1714 H 155.196 1.1734 4.84802 0
M  V30 1715 H 154.35 -0.879816 6.00287 0
M  V30 1716 H 153.089 -1.08585 4.75458 0
M  V30 1717 H 152.094 1.13251 5.3801 0
M  V30 1718 H 153.319 1.32566 6.66035 0
M  V30 1719 H 151.265 -0.912348 6.49625 0
M  V30 1720 H 151.182 0.464422 7.54572 0
M  V30 1721 H 152.45 -0.704716 7.76308 0
M  V30 1722 N 156.679 -1.44442 0.630414 0
M  V30 1723 C 157.589 -2.34476 -0.0761693 0
M  V30 1724 C 158.605 -1.52576 -0.836449 0
M  V30 1725 O 159.781 -1.85307 -0.788874 0
M  V30 1726 C 156.846 -3.30545 -1.04599 0
M  V30 1727 C 155.907 -4.28352 -0.28516 0
M  V30 1728 C 155.14 -5.19831 -1.20878 0
M  V30 1729 O 155.363 -5.15223 -2.44747 0
M  V30 1730 O 154.297 -5.97892 -0.693491 0
M  V30 1731 H 158.123 -2.96345 0.664324 0
M  V30 1732 H 155.708 -1.44203 0.39061 0
M  V30 1733 H 157.59 -3.89681 -1.60396 0
M  V30 1734 H 156.265 -2.7121 -1.76711 0
M  V30 1735 H 155.172 -3.72764 0.315837 0
M  V30 1736 H 156.505 -4.90605 0.395924 0
M  V30 1737 N 158.157 -0.370918 -1.53173 0
M  V30 1738 C 159.403 0.217423 -2.01631 0
M  V30 1739 C 159.736 1.47983 -1.25756 0
M  V30 1740 O 159.011 1.91274 -0.352764 0
M  V30 1741 C 159.294 0.503982 -3.56556 0
M  V30 1742 C 159.147 -0.77243 -4.43118 0
M  V30 1743 C 160.466 1.30234 -4.20389 0
M  V30 1744 H 157.585 0.0775486 -0.732909 0
M  V30 1745 H 160.227 -0.496863 -1.83388 0
M  V30 1746 H 158.377 1.11248 -3.72231 0
M  V30 1747 H 160.049 -1.4098 -4.39229 0
M  V30 1748 H 158.292 -1.39167 -4.10871 0
M  V30 1749 H 158.963 -0.526815 -5.4948 0
M  V30 1750 H 161.439 0.787546 -4.08579 0
M  V30 1751 H 160.315 1.47158 -5.28806 0
M  V30 1752 H 160.576 2.31237 -3.76805 0
M  V30 1753 N 159.635 1.57281 -0.100228 0
M  V30 1754 C 160.884 1.93713 0.561984 0
M  V30 1755 C 161.197 0.984492 1.69018 0
M  V30 1756 O 162.403 1.24273 2.41389 0
M  V30 1757 C 160.859 3.4421 1.05106 0
M  V30 1758 C 160.467 4.47975 -0.0476628 0
M  V30 1759 C 162.211 3.89595 1.68571 0
M  V30 1760 C 160.118 5.89631 0.457055 0
M  V30 1761 H 159.048 0.723082 0.2137 0
M  V30 1762 H 161.699 1.82644 -0.177057 0
M  V30 1763 H 160.081 3.50449 1.84395 0
M  V30 1764 H 161.255 4.53385 -0.823333 0
M  V30 1765 H 159.57 4.1223 -0.587816 0
M  V30 1766 H 162.167 4.92832 2.07414 0
M  V30 1767 H 162.51 3.28526 2.55688 0
M  V30 1768 H 163.043 3.86078 0.958562 0
M  V30 1769 H 159.782 6.54411 -0.377616 0
M  V30 1770 H 159.302 5.87681 1.19962 0
M  V30 1771 H 160.981 6.40363 0.92437 0
M  V30 1772 N 161.113 -0.173488 1.56642 0
M  V30 1773 C 162.076 -1.19859 1.95362 0
M  V30 1774 C 163.076 -1.37296 0.83704 0
M  V30 1775 O 164.266 -1.34739 1.10413 0
M  V30 1776 C 161.398 -2.56405 2.24654 0
M  V30 1777 H 162.591 -0.867062 2.87092 0
M  V30 1778 H 160.144 -0.415853 1.50666 0
M  V30 1779 H 160.879 -2.94576 1.35631 0
M  V30 1780 H 160.664 -2.45115 3.06041 0
M  V30 1781 H 162.154 -3.30287 2.5554 0
M  V30 1782 N 162.591 -1.51276 -0.441967 0
M  V30 1783 C 163.816 -1.67799 -1.21895 0
M  V30 1784 C 164.241 -0.372864 -1.84367 0
M  V30 1785 O 163.599 0.666501 -1.68604 0
M  V30 1786 C 163.647 -2.79199 -2.28211 0
M  V30 1787 O 162.751 -2.42479 -3.33583 0
M  V30 1788 H 162.092 -0.559649 -0.357336 0
M  V30 1789 H 164.622 -1.97815 -0.522522 0
M  V30 1790 H 164.632 -3.03146 -2.73069 0
M  V30 1791 H 163.307 -3.73906 -1.82118 0
M  V30 1792 H 161.884 -2.29087 -2.94234 0
M  V30 1793 N 164.069 0.697108 -1.41344 0
M  V30 1794 C 164.999 1.82353 -1.45841 0
M  V30 1795 C 165.98 1.67115 -0.317247 0
M  V30 1796 O 167.165 1.86871 -0.528474 0
M  V30 1797 C 164.295 3.20476 -1.33838 0
M  V30 1798 C 163.249 3.50415 -2.4575 0
M  V30 1799 C 162.575 4.87878 -2.18813 0
M  V30 1800 C 163.875 3.49546 -3.88091 0
M  V30 1801 H 165.569 1.78846 -2.40113 0
M  V30 1802 H 163.115 0.859028 -1.15571 0
M  V30 1803 H 165.068 3.98988 -1.35596 0
M  V30 1804 H 163.792 3.24604 -0.360498 0
M  V30 1805 H 162.451 2.74253 -2.43271 0
M  V30 1806 H 162.099 4.8863 -1.19371 0
M  V30 1807 H 161.799 5.08875 -2.93803 0
M  V30 1808 H 163.323 5.68702 -2.22284 0
M  V30 1809 H 164.737 4.18066 -3.92293 0
M  V30 1810 H 163.134 3.82075 -4.62751 0
M  V30 1811 H 164.204 2.48552 -4.16353 0
M  V30 1812 N 165.547 1.27147 0.931209 0
M  V30 1813 C 166.963 1.04475 1.20653 0
M  V30 1814 C 167.163 -0.223885 2.00252 0
M  V30 1815 O 166.219 -0.930332 2.34736 0
M  V30 1816 C 167.532 2.28209 1.95809 0
M  V30 1817 C 169.08 2.33211 2.08762 0
M  V30 1818 C 169.555 3.56665 2.87323 0
M  V30 1819 N 171.046 3.57201 2.94892 0
M  V30 1820 C 171.781 4.49395 3.56134 0
M  V30 1821 N 171.277 5.51889 4.18796 0
M  V30 1822 N 173.07 4.37026 3.53504 0
M  V30 1823 H 165.221 2.08612 0.399333 0
M  V30 1824 H 167.484 0.917312 0.239253 0
M  V30 1825 H 167.19 3.20538 1.44736 0
M  V30 1826 H 167.064 2.33247 2.96438 0
M  V30 1827 H 169.451 1.41391 2.59023 0
M  V30 1828 H 169.532 2.32178 1.07364 0
M  V30 1829 H 169.176 4.4882 2.37746 0
M  V30 1830 H 169.106 3.54948 3.88998 0
M  V30 1831 H 171.597 2.83074 2.50354 0
M  V30 1832 H 171.91 6.18409 4.63454 0
M  V30 1833 H 170.255 5.55735 4.17353 0
M  V30 1834 H 173.446 3.56166 3.03749 0
M  V30 1835 H 173.619 5.09067 4.00942 0
M  V30 1836 N 167.025 -1.13721 1.09112 0
M  V30 1837 C 167.935 -2.22638 0.73957 0
M  V30 1838 C 168.951 -1.72091 -0.257068 0
M  V30 1839 O 170.127 -2.01155 -0.0992154 0
M  V30 1840 C 167.192 -3.46322 0.16191 0
M  V30 1841 C 166.253 -4.11775 1.21408 0
M  V30 1842 C 165.486 -5.29555 0.663891 0
M  V30 1843 O 165.709 -5.68077 -0.514274 0
M  V30 1844 O 164.643 -5.84973 1.41738 0
M  V30 1845 H 168.469 -2.55074 1.64836 0
M  V30 1846 H 166.054 -1.21791 0.865289 0
M  V30 1847 H 167.936 -4.21107 -0.157073 0
M  V30 1848 H 166.611 -3.15593 -0.719932 0
M  V30 1849 H 165.518 -3.3883 1.58571 0
M  V30 1850 H 166.851 -4.46627 2.06845 0
M  V30 1851 N 168.503 -0.877838 -1.30888 0
M  V30 1852 C 169.919 -0.570844 -1.49042 0
M  V30 1853 C 170.119 0.893159 -1.80624 0
M  V30 1854 O 169.175 1.67485 -1.88958 0
M  V30 1855 C 170.488 -1.47784 -2.61878 0
M  V30 1856 C 172.036 -1.48071 -2.75761 0
M  V30 1857 C 172.511 -2.37347 -3.91702 0
M  V30 1858 N 174.002 -2.35271 -3.99001 0
M  V30 1859 C 174.737 -3.01063 -4.88004 0
M  V30 1860 N 174.233 -3.76055 -5.81854 0
M  V30 1861 N 176.026 -2.90332 -4.81315 0
M  V30 1862 H 168.177 -1.82502 -1.0866 0
M  V30 1863 H 170.44 -0.780797 -0.537644 0
M  V30 1864 H 170.146 -2.51993 -2.45341 0
M  V30 1865 H 170.02 -1.18215 -3.58197 0
M  V30 1866 H 172.407 -0.446166 -2.91708 0
M  V30 1867 H 172.488 -1.81668 -1.80085 0
M  V30 1868 H 172.132 -3.40883 -3.76512 0
M  V30 1869 H 172.062 -2.01071 -4.86701 0
M  V30 1870 H 174.553 -1.80768 -3.3186 0
M  V30 1871 H 174.866 -4.23366 -6.46514 0
M  V30 1872 H 173.211 -3.80163 -5.81808 0
M  V30 1873 H 176.402 -2.31278 -4.06974 0
M  V30 1874 H 176.575 -3.41885 -5.50471 0
M  V30 1875 N 169.982 1.44106 -0.638065 0
M  V30 1876 C 171.23 2.01579 -0.145043 0
M  V30 1877 C 171.551 1.50496 1.24 0
M  V30 1878 O 170.821 0.711374 1.82527 0
M  V30 1879 H 169.401 0.745282 -0.05063 0
M  V30 1880 H 172.063 1.76516 -0.826327 0
M  V30 1881 H 171.159 3.11877 -0.118039 0
M  V30 1882 N 171.46 0.379036 1.52974 0
M  V30 1883 C 172.709 -0.207612 2.00629 0
M  V30 1884 C 173.022 -1.48758 1.27006 0
M  V30 1885 O 174.228 -2.15365 1.65318 0
M  V30 1886 C 172.684 -0.42053 3.57435 0
M  V30 1887 C 172.292 0.845587 4.39948 0
M  V30 1888 C 174.036 -0.964102 4.13407 0
M  V30 1889 C 171.943 0.601513 5.88333 0
M  V30 1890 H 170.873 -0.0813591 0.749598 0
M  V30 1891 H 173.524 0.499853 1.76561 0
M  V30 1892 H 171.906 -1.18959 3.7771 0
M  V30 1893 H 173.08 1.61848 4.31442 0
M  V30 1894 H 171.395 1.31336 3.95145 0
M  V30 1895 H 173.992 -1.16225 5.21916 0
M  V30 1896 H 174.335 -1.93019 3.68849 0
M  V30 1897 H 174.868 -0.25487 3.96983 0
M  V30 1898 H 171.607 1.53831 6.37194 0
M  V30 1899 H 171.127 -0.132628 5.99653 0
M  V30 1900 H 172.806 0.232134 6.46583 0
M  V30 1901 N 172.938 -1.57226 0.108567 0
M  V30 1902 C 173.885 -2.14756 -0.845481 0
M  V30 1903 C 174.855 -1.06971 -1.27068 0
M  V30 1904 O 176.04 -1.34827 -1.35005 0
M  V30 1905 C 173.18 -2.74298 -2.09415 0
M  V30 1906 C 172.293 -3.96358 -1.71826 0
M  V30 1907 C 171.428 -4.44021 -2.9158 0
M  V30 1908 C 170.467 -5.58637 -2.50181 0
M  V30 1909 N 169.604 -6.01091 -3.62814 0
M  V30 1910 H 174.444 -2.95961 -0.348035 0
M  V30 1911 H 171.981 -1.46226 -0.160106 0
M  V30 1912 H 173.939 -3.06945 -2.82561 0
M  V30 1913 H 172.569 -1.95801 -2.56636 0
M  V30 1914 H 171.621 -3.69939 -0.885947 0
M  V30 1915 H 172.933 -4.79504 -1.37394 0
M  V30 1916 H 172.087 -4.78522 -3.72963 0
M  V30 1917 H 170.826 -3.59803 -3.29231 0
M  V30 1918 H 169.831 -5.23751 -1.67228 0
M  V30 1919 H 171.056 -6.44613 -2.13659 0
M  V30 1920 H 169.002 -5.19817 -4.00158 0
M  V30 1921 H 168.919 -6.79066 -3.32273 0
M  V30 1922 H 170.187 -6.40227 -4.44668 0
M  V30 1923 N 174.416 0.165178 -1.56732 0
M  V30 1924 C 175.665 0.879143 -1.81532 0
M  V30 1925 C 175.978 1.83144 -0.686842 0
M  V30 1926 O 177.184 2.58823 -0.819944 0
M  V30 1927 C 175.64 1.61388 -3.21686 0
M  V30 1928 C 175.248 0.704904 -4.4242 0
M  V30 1929 C 176.992 2.3157 -3.55774 0
M  V30 1930 C 174.899 1.44022 -5.73595 0
M  V30 1931 H 173.829 0.332033 -0.676957 0
M  V30 1932 H 176.48 0.132008 -1.83025 0
M  V30 1933 H 174.862 2.40599 -3.14529 0
M  V30 1934 H 176.036 -0.0506815 -4.60772 0
M  V30 1935 H 174.351 0.112419 -4.16248 0
M  V30 1936 H 176.948 2.8719 -4.51028 0
M  V30 1937 H 177.291 3.07201 -2.8095 0
M  V30 1938 H 177.824 1.59297 -3.64513 0
M  V30 1939 H 174.563 0.72612 -6.51466 0
M  V30 1940 H 174.083 2.16898 -5.5921 0
M  V30 1941 H 175.762 1.98606 -6.15764 0
M  V30 1942 N 175.894 1.51508 0.433938 0
M  V30 1943 C 177.142 1.6402 1.18075 0
M  V30 1944 C 177.463 0.360328 1.91642 0
M  V30 1945 O 176.733 -0.623945 1.85698 0
M  V30 1946 H 175.313 0.6045 0.43885 0
M  V30 1947 H 177.975 1.88452 0.497178 0
M  V30 1948 H 177.071 2.46949 1.90847 0
M  V30 1949 N 177.372 -0.689602 1.41712 0
M  V30 1950 C 178.597 -1.48329 1.44959 0
M  V30 1951 C 179.022 -1.8801 0.0581283 0
M  V30 1952 O 178.38 -1.55026 -0.940035 0
M  V30 1953 C 178.428 -2.71835 2.36935 0
M  V30 1954 O 177.532 -3.69549 1.8305 0
M  V30 1955 H 176.873 -0.446199 0.491734 0
M  V30 1956 H 179.403 -0.847127 1.86239 0
M  V30 1957 H 179.413 -3.20076 2.53013 0
M  V30 1958 H 178.088 -2.42291 3.38035 0
M  V30 1959 H 176.665 -3.2851 1.76452 0
M  V30 1960 N 178.85 -1.27639 -0.924453 0
M  V30 1961 C 180.078 -1.16989 -1.70649 0
M  V30 1962 C 180.493 0.272869 -1.86818 0
M  V30 1963 O 179.85 1.18549 -1.38753 0
M  V30 1964 C 179.901 -1.85229 -3.10439 0
M  V30 1965 O 179.622 -3.23868 -2.95028 0
M  V30 1966 C 181.123 -1.80746 -4.04779 0
M  V30 1967 H 178.343 -0.406595 -0.53378 0
M  V30 1968 H 180.887 -1.68569 -1.15778 0
M  V30 1969 H 179.042 -1.37545 -3.6216 0
M  V30 1970 H 179.456 -3.57889 -3.83426 0
M  V30 1971 H 180.93 -2.33101 -5.00368 0
M  V30 1972 H 181.407 -0.777499 -4.32263 0
M  V30 1973 H 182.013 -2.28059 -3.58984 0
M  V30 1974 N 180.328 1.1314 -1.09713 0
M  V30 1975 C 181.556 1.88321 -0.856898 0
M  V30 1976 C 181.971 1.79276 0.592073 0
M  V30 1977 O 181.328 1.16142 1.40774 0
M  V30 1978 C 181.379 3.37812 -1.28706 0
M  V30 1979 O 181.1 3.46627 -2.67921 0
M  V30 1980 C 182.601 4.29952 -1.07964 0
M  V30 1981 H 179.821 0.596094 -0.308079 0
M  V30 1982 H 182.365 1.43205 -1.45988 0
M  V30 1983 H 180.52 3.805 -0.727912 0
M  V30 1984 H 180.934 4.39579 -2.8613 0
M  V30 1985 H 182.408 5.33159 -1.42986 0
M  V30 1986 H 182.885 4.39196 -0.0176577 0
M  V30 1987 H 183.491 3.93036 -1.62489 0
M  V30 1988 N 181.806 0.884767 1.30421 0
M  V30 1989 C 183.054 0.502112 1.95763 0
M  V30 1990 C 183.375 -0.951815 1.70192 0
M  V30 1991 O 182.645 -1.6692 1.0254 0
M  V30 1992 H 181.225 0.182694 0.724315 0
M  V30 1993 H 183.887 1.1278 1.58955 0
M  V30 1994 H 182.983 0.672188 3.04775 0
M  V30 1995 N 183.284 -1.43765 0.645699 0
M  V30 1996 C 184.514 -2.05953 0.163318 0
M  V30 1997 C 184.922 -1.48432 -1.17322 0
M  V30 1998 O 184.265 -0.607295 -1.73371 0
M  V30 1999 C 184.327 -3.59499 -0.0103065 0
M  V30 2000 C 183.991 -4.39563 1.25035 0
M  V30 2001 C 184.988 -4.72108 2.17739 0
M  V30 2002 C 182.673 -4.79697 1.48983 0
M  V30 2003 C 184.667 -5.43688 3.3269 0
M  V30 2004 C 182.354 -5.51023 2.64229 0
M  V30 2005 C 183.352 -5.8294 3.55908 0
M  V30 2006 O 183.04 -6.5281 4.69142 0
M  V30 2007 H 182.772 -0.670798 0.0836986 0
M  V30 2008 H 185.326 -1.85384 0.884407 0
M  V30 2009 H 183.556 -3.78613 -0.78669 0
M  V30 2010 H 185.245 -4.03408 -0.449087 0
M  V30 2011 H 186.011 -4.41627 2.00476 0
M  V30 2012 H 181.89 -4.54266 0.785078 0
M  V30 2013 H 185.434 -5.68517 4.04269 0
M  V30 2014 H 181.331 -5.8092 2.81429 0
M  V30 2015 H 182.099 -6.71288 4.6831 0
M  V30 2016 N 184.763 -0.387143 -1.52771 0
M  V30 2017 C 185.991 0.195869 -2.05971 0
M  V30 2018 C 186.406 1.40691 -1.25903 0
M  V30 2019 O 185.763 1.79931 -0.305134 0
M  V30 2020 C 185.814 0.56812 -3.57008 0
M  V30 2021 O 185.535 -0.594803 -4.34043 0
M  V30 2022 C 187.036 1.20723 -4.26545 0
M  V30 2023 H 184.256 0.0300578 -0.670326 0
M  V30 2024 H 186.8 -0.551749 -1.96916 0
M  V30 2025 H 184.955 1.26564 -3.66143 0
M  V30 2026 H 185.369 -0.289322 -5.23701 0
M  V30 2027 H 186.843 1.41807 -5.33474 0
M  V30 2028 H 187.32 2.17395 -3.81623 0
M  V30 2029 H 187.926 0.550535 -4.21722 0
M  V30 2030 N 186.241 1.57166 -0.116904 0
M  V30 2031 C 187.657 1.5779 0.239693 0
M  V30 2032 C 187.857 1.1295 1.66867 0
M  V30 2033 O 186.913 0.81592 2.38954 0
M  V30 2034 C 188.226 3.00699 0.00828202 0
M  V30 2035 C 189.774 3.12912 0.0743438 0
M  V30 2036 C 190.249 4.57817 -0.129348 0
M  V30 2037 N 191.74 4.63139 -0.075247 0
M  V30 2038 C 192.475 5.73023 -0.207788 0
M  V30 2039 N 191.971 6.91665 -0.396382 0
M  V30 2040 N 193.764 5.61906 -0.14751 0
M  V30 2041 H 185.915 1.84615 -1.05029 0
M  V30 2042 H 188.178 0.85311 -0.41341 0
M  V30 2043 H 187.884 3.37784 -0.979531 0
M  V30 2044 H 187.758 3.69848 0.741077 0
M  V30 2045 H 190.145 2.75686 1.05268 0
M  V30 2046 H 190.226 2.4631 -0.690297 0
M  V30 2047 H 189.87 4.95742 -1.10465 0
M  V30 2048 H 189.8 5.22507 0.655253 0
M  V30 2049 H 192.291 3.7784 0.0670898 0
M  V30 2050 H 192.604 7.71255 -0.488437 0
M  V30 2051 H 190.949 6.93654 -0.432329 0
M  V30 2052 H 194.14 4.681 -0.00115036 0
M  V30 2053 H 194.313 6.47501 -0.254247 0
M  V30 2054 N 187.719 -0.156864 1.56817 0
M  V30 2055 C 188.629 -1.2136 2.00771 0
M  V30 2056 C 189.645 -1.47598 0.921459 0
M  V30 2057 O 190.821 -1.59462 1.2302 0
M  V30 2058 C 187.886 -2.52943 2.37109 0
M  V30 2059 C 186.947 -2.34439 3.59634 0
M  V30 2060 C 186.18 -3.59748 3.94229 0
M  V30 2061 O 186.403 -4.65526 3.29609 0
M  V30 2062 O 185.337 -3.52998 4.8752 0
M  V30 2063 H 189.163 -0.870468 2.90958 0
M  V30 2064 H 186.748 -0.36484 1.44877 0
M  V30 2065 H 188.63 -3.30538 2.61386 0
M  V30 2066 H 187.305 -2.86806 1.5008 0
M  V30 2067 H 186.212 -1.54828 3.40557 0
M  V30 2068 H 187.545 -2.05496 4.4725 0
M  V30 2069 N 189.197 -1.51736 -0.425897 0
M  V30 2070 C 190.13 -1.68574 -1.53812 0
M  V30 2071 C 191.108 -0.53328 -1.53606 0
M  V30 2072 O 192.292 -0.758555 -1.72564 0
M  V30 2073 C 189.419 -1.70977 -2.92377 0
M  V30 2074 C 188.465 -2.92324 -3.10563 0
M  V30 2075 S 189.298 -4.52952 -2.85648 0
M  V30 2076 C 190.454 -4.58117 -4.26474 0
M  V30 2077 H 190.687 -2.62647 -1.39298 0
M  V30 2078 H 188.22 -1.41564 -0.616361 0
M  V30 2079 H 190.178 -1.73047 -3.72243 0
M  V30 2080 H 188.839 -0.78061 -3.04245 0
M  V30 2081 H 188.032 -2.90439 -4.11899 0
M  V30 2082 H 187.634 -2.88055 -2.38538 0
M  V30 2083 H 189.926 -4.34462 -5.19855 0
M  V30 2084 H 190.869 -5.59983 -4.33388 0
M  V30 2085 H 191.277 -3.8732 -4.10662 0
M  V30 2086 N 190.675 0.682077 -1.42076 0
M  V30 2087 C 191.608 1.80666 -1.3941 0
M  V30 2088 C 192.586 1.60518 -0.25939 0
M  V30 2089 O 193.77 1.83088 -0.448456 0
M  V30 2090 C 190.897 3.17556 -1.17796 0
M  V30 2091 C 189.943 3.56468 -2.34164 0
M  V30 2092 S 190.776 3.59729 -3.96681 0
M  V30 2093 C 191.932 4.99323 -3.77395 0
M  V30 2094 H 192.165 1.82652 -2.34575 0
M  V30 2095 H 189.698 0.852062 -1.2876 0
M  V30 2096 H 191.656 3.96575 -1.06012 0
M  V30 2097 H 190.317 3.13164 -0.242279 0
M  V30 2098 H 189.51 4.5595 -2.1477 0
M  V30 2099 H 189.112 2.84792 -2.42425 0
M  V30 2100 H 191.404 5.87202 -3.37935 0
M  V30 2101 H 192.347 5.23763 -4.76527 0
M  V30 2102 H 192.755 4.71498 -3.10403 0
M  V30 2103 N 192.153 1.28127 0.917671 0
M  V30 2104 C 193.43 1.05761 1.64542 0
M  V30 2105 C 193.81 -0.404344 2.07191 0
M  V30 2106 O 193.158 -1.38963 1.81388 0
M  V30 2107 C 193.368 2.02857 2.83989 0
M  V30 2108 C 194.716 2.32786 3.551 0
M  V30 2109 O 195.74 2.0091 2.94132 0
M  V30 2110 O 194.599 2.87169 4.64969 0
M  V30 2111 H 191.693 0.403916 0.721652 0
M  V30 2112 H 194.239 1.39431 0.967322 0
M  V30 2113 H 193.011 3.01407 2.49538 0
M  V30 2114 H 192.634 1.69809 3.59514 0
M  V30 2115 N 193.631 -1.12557 1.10312 0
M  V30 2116 C 194.88 -1.83395 0.839588 0
M  V30 2117 C 195.193 -1.84939 -0.636929 0
M  V30 2118 O 196.399 -2.51761 -1.01631 0
M  V30 2119 C 194.855 -3.29303 1.45215 0
M  V30 2120 C 194.463 -3.36122 2.96186 0
M  V30 2121 C 196.207 -4.05121 1.26796 0
M  V30 2122 C 194.114 -4.76357 3.50483 0
M  V30 2123 H 193.044 -0.687133 0.310425 0
M  V30 2124 H 195.695 -1.26746 1.32694 0
M  V30 2125 H 194.077 -3.85812 0.892469 0
M  V30 2126 H 195.251 -2.89559 3.58458 0
M  V30 2127 H 193.566 -2.73776 3.13745 0
M  V30 2128 H 196.163 -5.08668 1.64806 0
M  V30 2129 H 196.506 -4.15773 0.209409 0
M  V30 2130 H 197.039 -3.54967 1.79563 0
M  V30 2131 H 193.778 -4.70899 4.55998 0
M  V30 2132 H 193.298 -5.23377 2.92978 0
M  V30 2133 H 194.977 -5.45294 3.48228 0
M  V30 2134 N 195.109 -0.891671 -1.2995 0
M  V30 2135 C 196.355 -0.514261 -1.96171 0
M  V30 2136 C 196.688 0.935506 -1.70182 0
M  V30 2137 O 195.963 1.66204 -1.01028 0
M  V30 2138 C 196.246 -0.797719 -3.51153 0
M  V30 2139 C 196.099 -2.2986 -3.86632 0
M  V30 2140 C 197.418 -0.278749 -4.39216 0
M  V30 2141 H 194.537 -0.188314 -0.712535 0
M  V30 2142 H 197.179 -1.11689 -1.53706 0
M  V30 2143 H 195.329 -0.284826 -3.87455 0
M  V30 2144 H 197.001 -2.88042 -3.60319 0
M  V30 2145 H 195.244 -2.76257 -3.34462 0
M  V30 2146 H 195.915 -2.44753 -4.94773 0
M  V30 2147 H 198.391 -0.717825 -4.09862 0
M  V30 2148 H 197.267 -0.506353 -5.46559 0
M  V30 2149 H 197.528 0.820266 -4.34424 0
M  V30 2150 N 196.587 1.43421 -0.653314 0
M  V30 2151 C 197.55 2.29182 0.0287951 0
M  V30 2152 C 198.55 1.42213 0.750465 0
M  V30 2153 O 199.74 1.63843 0.591701 0
M  V30 2154 C 196.872 3.24278 1.05151 0
M  V30 2155 H 198.065 2.90985 -0.725786 0
M  V30 2156 H 195.618 1.50702 -0.414545 0
M  V30 2157 H 196.353 2.6737 1.83532 0
M  V30 2158 H 196.138 3.88396 0.537687 0
M  V30 2159 H 197.628 3.88647 1.52786 0
M  V30 2160 N 198.065 0.39524 1.52563 0
M  V30 2161 C 199.012 -0.437036 2.26624 0
M  V30 2162 C 199.982 -1.05281 1.28472 0
M  V30 2163 O 201.167 -1.07971 1.57311 0
M  V30 2164 C 198.307 -1.55524 3.08069 0
M  V30 2165 C 197.42 -0.961745 4.21158 0
M  V30 2166 C 196.555 -2.05149 4.89987 0
M  V30 2167 C 195.594 -1.4342 5.95061 0
M  V30 2168 N 194.731 -2.46351 6.57462 0
M  V30 2169 H 199.571 0.200976 2.97322 0
M  V30 2170 H 197.108 0.110944 1.46681 0
M  V30 2171 H 199.066 -2.21437 3.53584 0
M  V30 2172 H 197.696 -2.16348 2.3957 0
M  V30 2173 H 196.748 -0.192048 3.79915 0
M  V30 2174 H 198.06 -0.470701 4.96574 0
M  V30 2175 H 197.214 -2.78819 5.38837 0
M  V30 2176 H 195.953 -2.57615 4.14109 0
M  V30 2177 H 194.958 -0.682774 5.45544 0
M  V30 2178 H 196.183 -0.917416 6.72875 0
M  V30 2179 H 194.129 -2.97975 5.8442 0
M  V30 2180 H 194.046 -2.02019 7.28508 0
M  V30 2181 H 195.314 -3.19633 7.10954 0
M  V30 2182 N 199.544 -1.57102 0.125237 0
M  V30 2183 C 200.454 -2.19191 -0.8362 0
M  V30 2184 C 201.47 -1.16985 -1.28805 0
M  V30 2185 O 202.646 -1.49479 -1.34974 0
M  V30 2186 C 199.711 -2.78407 -2.06617 0
M  V30 2187 C 198.772 -3.9567 -1.66565 0
M  V30 2188 C 198.005 -4.52052 -2.83698 0
M  V30 2189 O 198.228 -4.07326 -3.99302 0
M  V30 2190 O 197.162 -5.42645 -2.60423 0
M  V30 2191 H 200.988 -3.01816 -0.337776 0
M  V30 2192 H 198.573 -1.4906 -0.100695 0
M  V30 2193 H 200.455 -3.16129 -2.7864 0
M  V30 2194 H 199.13 -1.9881 -2.55453 0
M  V30 2195 H 198.037 -3.62705 -0.916296 0
M  V30 2196 H 199.37 -4.76722 -1.22464 0
M  V30 2197 N 201.022 0.148545 -1.56898 0
M  V30 2198 C 201.985 1.16736 -1.97244 0
M  V30 2199 C 202.985 1.35947 -0.858777 0
M  V30 2200 O 204.175 1.32966 -1.12542 0
M  V30 2201 C 201.307 2.52798 -2.28705 0
M  V30 2202 H 202.5 0.821279 -2.88435 0
M  V30 2203 H 200.053 0.391831 -1.51309 0
M  V30 2204 H 200.788 2.92381 -1.403 0
M  V30 2205 H 200.573 2.40216 -3.09901 0
M  V30 2206 H 202.063 3.26179 -2.60762 0
M  V30 2207 N 202.5 1.5196 0.417844 0
M  V30 2208 C 203.463 1.74065 1.49111 0
M  V30 2209 C 204.463 0.610537 1.48758 0
M  V30 2210 O 205.653 0.87832 1.50437 0
M  V30 2211 C 202.785 1.81502 2.88565 0
M  V30 2212 H 203.978 2.69869 1.30807 0
M  V30 2213 H 201.531 1.42244 0.647785 0
M  V30 2214 H 202.266 0.875813 3.1225 0
M  V30 2215 H 202.051 2.63651 2.90225 0
M  V30 2216 H 203.541 2.00376 3.66387 0
M  V30 2217 N 203.978 -0.674533 1.42435 0
M  V30 2218 C 204.908 -1.80009 1.48724 0
M  V30 2219 C 205.889 -1.6659 0.343793 0
M  V30 2220 O 207.074 -1.86007 0.558137 0
M  V30 2221 C 204.204 -3.18306 1.38919 0
M  V30 2222 C 203.158 -3.46461 2.51294 0
M  V30 2223 C 202.484 -4.84335 2.26547 0
M  V30 2224 C 203.784 -3.43328 3.93603 0
M  V30 2225 H 205.478 -1.75004 2.42928 0
M  V30 2226 H 203.024 -0.840533 1.16923 0
M  V30 2227 H 204.977 -3.9678 1.41927 0
M  V30 2228 H 203.701 -3.2399 0.412094 0
M  V30 2229 H 202.36 -2.70348 2.47604 0
M  V30 2230 H 202.008 -4.86669 1.2713 0
M  V30 2231 H 201.708 -5.04136 3.01861 0
M  V30 2232 H 203.232 -5.65094 2.31304 0
M  V30 2233 H 204.646 -4.11772 3.98894 0
M  V30 2234 H 203.043 -3.74664 4.68771 0
M  V30 2235 H 204.113 -2.41897 4.20255 0
M  V30 2236 N 205.456 -1.28612 -0.910864 0
M  V30 2237 C 206.388 -1.08589 -2.01844 0
M  V30 2238 C 207.401 -0.0367419 -1.62759 0
M  V30 2239 O 208.59 -0.280101 -1.76289 0
M  V30 2240 C 205.69 -0.628626 -3.33019 0
M  V30 2241 C 204.863 -1.75382 -4.00699 0
M  V30 2242 C 203.922 -1.28945 -5.10156 0
M  V30 2243 O 202.948 -1.9922 -5.33198 0
M  V30 2244 N 204.15 -0.154224 -5.80295 0
M  V30 2245 H 206.915 -2.03973 -2.19579 0
M  V30 2246 H 204.476 -1.20403 -1.08234 0
M  V30 2247 H 206.468 -0.301508 -4.03575 0
M  V30 2248 H 205.038 0.232451 -3.11735 0
M  V30 2249 H 204.258 -2.25039 -3.23653 0
M  V30 2250 H 205.546 -2.50854 -4.42662 0
M  V30 2251 H 204.944 0.43194 -5.64049 0
M  V30 2252 H 203.501 0.113599 -6.51701 0
M  V30 2253 N 206.934 1.1197 -1.10907 0
M  V30 2254 C 208.182 1.83225 -0.852819 0
M  V30 2255 C 208.503 1.84769 0.623341 0
M  V30 2256 O 207.773 1.3143 1.45269 0
M  V30 2257 H 206.353 0.67849 -0.312507 0
M  V30 2258 H 209.015 1.3556 -1.40033 0
M  V30 2259 H 208.111 2.87265 -1.22005 0
M  V30 2260 N 208.412 0.89855 1.29475 0
M  V30 2261 C 209.642 0.538479 1.99459 0
M  V30 2262 C 210.05 -0.880922 1.67441 0
M  V30 2263 O 209.393 -1.59283 0.915127 0
M  V30 2264 C 209.455 0.649564 3.53583 0
M  V30 2265 C 209.119 2.03573 4.09154 0
M  V30 2266 C 210.116 3.00675 4.24135 0
M  V30 2267 C 207.801 2.3448 4.44212 0
M  V30 2268 C 209.795 4.26809 4.73405 0
M  V30 2269 C 207.482 3.60857 4.93179 0
M  V30 2270 C 208.48 4.56836 5.0773 0
M  V30 2271 O 208.168 5.80969 5.55635 0
M  V30 2272 H 207.9 0.205372 0.644048 0
M  V30 2273 H 210.454 1.20958 1.66007 0
M  V30 2274 H 208.684 -0.0785592 3.8662 0
M  V30 2275 H 210.373 0.29881 4.04799 0
M  V30 2276 H 211.139 2.78112 3.97339 0
M  V30 2277 H 207.018 1.60534 4.32145 0
M  V30 2278 H 210.562 5.0173 4.84678 0
M  V30 2279 H 206.459 3.83251 5.19412 0
M  V30 2280 H 207.227 5.83542 5.73952 0
M  V30 2281 N 209.89 -1.43072 0.660911 0
M  V30 2282 C 210.837 -2.30785 -0.0259884 0
M  V30 2283 C 211.807 -1.45184 -0.806888 0
M  V30 2284 O 212.992 -1.74041 -0.781943 0
M  V30 2285 C 210.132 -3.30861 -0.981067 0
M  V30 2286 C 209.245 -4.31558 -0.195458 0
M  V30 2287 C 208.38 -5.18712 -1.14503 0
M  V30 2288 C 207.419 -6.11097 -0.350299 0
M  V30 2289 N 206.556 -6.90849 -1.25186 0
M  V30 2290 H 211.396 -2.88975 0.727846 0
M  V30 2291 H 208.933 -1.42353 0.370682 0
M  V30 2292 H 210.891 -3.87399 -1.54849 0
M  V30 2293 H 209.521 -2.74304 -1.70169 0
M  V30 2294 H 208.573 -3.77252 0.488374 0
M  V30 2295 H 209.885 -4.9701 0.422176 0
M  V30 2296 H 209.039 -5.79914 -1.78284 0
M  V30 2297 H 207.778 -4.53404 -1.79656 0
M  V30 2298 H 206.783 -5.48976 0.300808 0
M  V30 2299 H 208.008 -6.7845 0.296941 0
M  V30 2300 H 205.954 -6.28182 -1.89005 0
M  V30 2301 H 205.871 -7.52854 -0.688971 0
M  V30 2302 H 207.139 -7.5655 -1.87757 0
M  V30 2303 N 211.368 -0.403325 -1.52352 0
M  V30 2304 C 212.779 0.0675782 -1.86578 0
M  V30 2305 C 213.13 1.44941 -1.32236 0
M  V30 2306 O 212.255 2.06112 -0.659307 0
M  V30 2307 C 212.85 0.129404 -3.38553 0
M  V30 2308 C 211.409 0.544629 -3.72439 0
M  V30 2309 C 210.556 -0.284551 -2.75836 0
M  V30 2310 H 213.507 -0.620631 -1.46061 0
M  V30 2311 H 213.528 0.94581 -3.68558 0
M  V30 2312 H 213.04 -0.87645 -3.78074 0
M  V30 2313 H 211.141 1.55734 -3.38493 0
M  V30 2314 H 211.254 0.293046 -4.78203 0
M  V30 2315 H 209.618 0.252258 -2.53448 0
M  V30 2316 H 210.401 -1.28865 -3.18196 0
M  V30 2317 N 212.846 1.57033 -0.133567 0
M  V30 2318 C 214.123 1.87256 0.56522 0
M  V30 2319 C 214.503 1.03726 1.83859 0
M  V30 2320 O 213.851 0.120247 2.28183 0
M  V30 2321 C 214.061 3.3865 0.843636 0
M  V30 2322 C 215.409 4.07574 1.19032 0
M  V30 2323 O 216.433 3.43752 0.933429 0
M  V30 2324 O 215.292 5.20259 1.67312 0
M  V30 2325 H 212.386 0.775678 0.286796 0
M  V30 2326 H 214.932 1.68855 -0.169168 0
M  V30 2327 H 213.704 3.91257 -0.0581149 0
M  V30 2328 H 213.327 3.62532 1.63268 0
M  V30 2329 N 214.325 -0.140222 1.56975 0
M  V30 2330 C 215.572 -0.851687 1.83719 0
M  V30 2331 C 215.9 -1.80862 0.715485 0
M  V30 2332 O 215.155 -1.93464 -0.294956 0
M  V30 2333 C 215.454 -1.65386 3.16832 0
M  V30 2334 C 215.12 -0.843112 4.42947 0
M  V30 2335 C 213.782 -0.619464 4.77196 0
M  V30 2336 C 216.134 -0.276582 5.20466 0
M  V30 2337 C 213.462 0.181312 5.8642 0
M  V30 2338 C 215.814 0.51127 6.30531 0
M  V30 2339 C 214.478 0.745432 6.63325 0
M  V30 2340 H 213.748 -0.311654 0.672274 0
M  V30 2341 H 216.395 -0.115006 1.91154 0
M  V30 2342 H 214.7 -2.46084 3.04877 0
M  V30 2343 H 216.397 -2.20793 3.34741 0
M  V30 2344 H 212.987 -1.0275 4.16101 0
M  V30 2345 H 217.171 -0.436632 4.94376 0
M  V30 2346 H 212.427 0.372165 6.10266 0
M  V30 2347 H 216.601 0.957354 6.89788 0
M  V30 2348 H 214.228 1.36778 7.47794 0
M  V30 2349 N 215.803 -1.52179 -0.40978 0
M  V30 2350 C 216.733 -1.78435 -1.5061 0
M  V30 2351 C 217.714 -0.635295 -1.57791 0
M  V30 2352 O 218.899 -0.880823 -1.73076 0
M  V30 2353 C 216.029 -1.93444 -2.88439 0
M  V30 2354 C 214.983 -3.09038 -2.96108 0
M  V30 2355 C 214.309 -3.09268 -4.36185 0
M  V30 2356 C 215.609 -4.48508 -2.67652 0
M  V30 2357 H 217.303 -2.70237 -1.28889 0
M  V30 2358 H 214.849 -1.30036 -0.618605 0
M  V30 2359 H 216.802 -2.10394 -3.65119 0
M  V30 2360 H 215.526 -0.983129 -3.11452 0
M  V30 2361 H 214.185 -2.91837 -2.21872 0
M  V30 2362 H 213.833 -2.11861 -4.56206 0
M  V30 2363 H 213.533 -3.86907 -4.42241 0
M  V30 2364 H 215.057 -3.28348 -5.14801 0
M  V30 2365 H 216.471 -4.65918 -3.34056 0
M  V30 2366 H 214.868 -5.28059 -2.85085 0
M  V30 2367 H 215.938 -4.56649 -1.63095 0
M  V30 2368 N 217.281 0.66697 -1.42791 0
M  V30 2369 C 218.527 1.4291 -1.43891 0
M  V30 2370 C 218.86 1.94114 -0.0578972 0
M  V30 2371 O 218.135 1.71414 0.91911 0
M  V30 2372 C 218.418 2.62049 -2.46987 0
M  V30 2373 C 218.271 2.16426 -3.94309 0
M  V30 2374 C 219.59 3.64266 -2.46978 0
M  V30 2375 H 216.709 0.518306 -0.523954 0
M  V30 2376 H 219.351 0.757321 -1.74255 0
M  V30 2377 H 217.501 3.19361 -2.21225 0
M  V30 2378 H 219.173 1.64221 -4.31079 0
M  V30 2379 H 217.416 1.47925 -4.078 0
M  V30 2380 H 218.087 3.02038 -4.62036 0
M  V30 2381 H 220.563 3.16686 -2.69906 0
M  V30 2382 H 219.439 4.45196 -3.21079 0
M  V30 2383 H 219.7 4.15927 -1.49857 0
M  V30 2384 N 218.759 1.29093 0.90403 0
M  V30 2385 C 219.987 1.19689 1.68766 0
M  V30 2386 C 220.402 -0.243113 1.87228 0
M  V30 2387 O 219.759 -1.16326 1.40621 0
M  V30 2388 C 219.81 1.90144 3.07453 0
M  V30 2389 O 219.531 3.2852 2.89838 0
M  V30 2390 C 221.032 1.87162 4.01852 0
M  V30 2391 H 218.252 0.415035 0.527244 0
M  V30 2392 H 220.796 1.7039 1.13082 0
M  V30 2393 H 218.951 1.43289 3.59926 0
M  V30 2394 H 219.365 3.63944 3.77684 0
M  V30 2395 H 220.839 2.41032 4.96596 0
M  V30 2396 H 221.316 0.84617 4.30972 0
M  V30 2397 H 221.922 2.33741 3.5531 0
M  V30 2398 N 220.237 -1.11381 1.11499 0
M  V30 2399 C 221.648 -1.6465 0.880191 0
M  V30 2400 C 221.999 -1.87199 -0.587434 0
M  V30 2401 O 221.124 -1.60667 -1.44966 0
M  V30 2402 C 221.719 -2.99105 1.59128 0
M  V30 2403 C 220.278 -3.49279 1.40289 0
M  V30 2404 C 219.425 -2.24077 1.63354 0
M  V30 2405 H 222.376 -0.950123 1.27116 0
M  V30 2406 H 222.397 -3.66107 1.03664 0
M  V30 2407 H 221.909 -2.82661 2.65941 0
M  V30 2408 H 220.01 -3.70887 0.356888 0
M  V30 2409 H 220.123 -4.2803 2.15238 0
M  V30 2410 H 218.487 -2.31733 1.05698 0
M  V30 2411 H 219.27 -2.10175 2.71443 0
M  V30 2412 N 221.715 -0.905404 -1.28997 0
M  V30 2413 C 222.992 -0.453513 -1.9027 0
M  V30 2414 C 223.372 1.06721 -1.82137 0
M  V30 2415 O 222.72 1.91159 -1.25182 0
M  V30 2416 C 222.93 -0.974494 -3.35119 0
M  V30 2417 C 224.278 -1.0216 -4.12127 0
M  V30 2418 O 225.302 -0.922557 -3.44046 0
M  V30 2419 O 224.161 -1.17121 -5.33802 0
M  V30 2420 H 221.255 -0.142347 -0.814657 0
M  V30 2421 H 223.801 -0.995642 -1.37423 0
M  V30 2422 H 222.573 -2.01848 -3.35221 0
M  V30 2423 H 222.196 -0.412706 -3.95452 0
M  V30 2424 N 223.193 1.4272 -0.668489 0
M  V30 2425 C 224.47 1.95248 -0.117373 0
M  V30 2426 C 224.85 1.60919 1.36632 0
M  V30 2427 O 224.198 0.902095 2.09939 0
M  V30 2428 C 224.408 3.46927 -0.379806 0
M  V30 2429 C 225.756 4.23588 -0.292923 0
M  V30 2430 O 226.78 3.5482 -0.313204 0
M  V30 2431 O 225.639 5.46017 -0.229697 0
M  V30 2432 H 222.733 0.827 0.00079152 0
M  V30 2433 H 225.279 1.52581 -0.742783 0
M  V30 2434 H 224.051 3.65096 -1.40786 0
M  V30 2435 H 223.674 3.96627 0.277923 0
M  V30 2436 N 224.671 0.411399 1.52136 0
M  V30 2437 C 225.917 -0.163888 2.02137 0
M  V30 2438 C 226.25 -1.44597 1.29636 0
M  V30 2439 O 225.525 -1.90272 0.403353 0
M  V30 2440 C 225.808 -0.40927 3.57767 0
M  V30 2441 C 225.661 0.889643 4.40914 0
M  V30 2442 C 226.98 -1.19042 4.23694 0
M  V30 2443 H 224.099 -0.0580896 0.734707 0
M  V30 2444 H 226.741 0.54531 1.82007 0
M  V30 2445 H 224.891 -1.0134 3.7505 0
M  V30 2446 H 226.563 1.52575 4.35337 0
M  V30 2447 H 224.806 1.50011 4.07037 0
M  V30 2448 H 225.477 0.672314 5.4789 0
M  V30 2449 H 227.953 -0.678942 4.10524 0
M  V30 2450 H 226.829 -1.33086 5.32522 0
M  V30 2451 H 227.09 -2.21166 3.82803 0
M  V30 2452 N 226.149 -1.5696 0.141893 0
M  V30 2453 C 227.56 -1.82797 -0.379776 0
M  V30 2454 C 227.911 -1.06033 -1.6508 0
M  V30 2455 O 227.036 -0.304011 -2.14254 0
M  V30 2456 C 227.631 -3.31578 -0.695802 0
M  V30 2457 C 226.19 -3.58014 -1.16201 0
M  V30 2458 C 225.337 -2.76699 -0.182455 0
M  V30 2459 H 228.288 -1.54406 0.366675 0
M  V30 2460 H 228.309 -3.47454 -1.55099 0
M  V30 2461 H 227.821 -3.87421 0.229449 0
M  V30 2462 H 225.922 -3.07553 -2.10338 0
M  V30 2463 H 226.035 -4.66501 -1.09151 0
M  V30 2464 H 224.399 -2.45618 -0.674072 0
M  V30 2465 H 225.182 -3.35311 0.736297 0
M  V30 2466 N 227.627 0.131896 -1.57047 0
M  V30 2467 C 228.59 1.14638 -1.98471 0
M  V30 2468 C 229.59 1.35029 -0.873148 0
M  V30 2469 O 230.78 1.31764 -1.13946 0
M  V30 2470 C 227.912 2.50358 -2.31373 0
M  V30 2471 H 229.105 0.79064 -2.8929 0
M  V30 2472 H 226.658 0.375761 -1.51716 0
M  V30 2473 H 227.393 2.90876 -1.43393 0
M  V30 2474 H 227.178 2.36915 -3.12432 0
M  V30 2475 H 228.668 3.23395 -2.64207 0
M  V30 2476 N 229.106 1.52395 0.401703 0
M  V30 2477 C 230.354 1.66488 1.14569 0
M  V30 2478 C 230.675 0.400897 1.90835 0
M  V30 2479 O 229.945 -0.584415 1.8698 0
M  V30 2480 H 228.525 0.613672 0.425929 0
M  V30 2481 H 231.187 1.89464 0.457093 0
M  V30 2482 H 230.283 2.50942 1.85566 0
M  V30 2483 N 230.584 -0.659388 1.43143 0
M  V30 2484 C 232 -0.974337 1.26407 0
M  V30 2485 C 232.2 -2.007 0.179341 0
M  V30 2486 O 231.256 -2.4856 -0.444295 0
M  V30 2487 C 232.569 -1.46447 2.62628 0
M  V30 2488 C 234.117 -1.58144 2.7011 0
M  V30 2489 C 234.592 -2.1055 4.06734 0
M  V30 2490 N 236.083 -2.17861 4.08767 0
M  V30 2491 C 236.818 -2.59519 5.1131 0
M  V30 2492 N 236.314 -3.00518 6.24228 0
M  V30 2493 N 238.107 -2.59404 4.98664 0
M  V30 2494 H 230.258 0.0240528 2.12386 0
M  V30 2495 H 232.521 -0.0518065 0.946583 0
M  V30 2496 H 232.227 -0.780123 3.42939 0
M  V30 2497 H 232.101 -2.44058 2.87603 0
M  V30 2498 H 234.488 -2.25682 1.90136 0
M  V30 2499 H 234.569 -0.589828 2.48907 0
M  V30 2500 H 234.213 -1.43616 4.87172 0
M  V30 2501 H 234.143 -3.10531 4.25298 0
M  V30 2502 H 236.634 -1.88975 3.27257 0
M  V30 2503 H 236.947 -3.31036 6.98309 0
M  V30 2504 H 235.292 -2.98337 6.2771 0
M  V30 2505 H 238.483 -2.26747 4.09516 0
M  V30 2506 H 238.656 -2.91548 5.78709 0
M  V30 2507 N 232.062 -1.29571 -0.897171 0
M  V30 2508 C 233.473 -1.15964 -1.46319 0
M  V30 2509 C 233.824 0.244267 -1.94674 0
M  V30 2510 O 232.949 1.13998 -1.83939 0
M  V30 2511 C 233.544 -2.09906 -2.65942 0
M  V30 2512 C 232.103 -2.00314 -3.18671 0
M  V30 2513 C 231.25 -2.00687 -1.91363 0
M  V30 2514 H 234.201 -1.42019 -0.708268 0
M  V30 2515 H 234.222 -1.67276 -3.41759 0
M  V30 2516 H 233.734 -3.12075 -2.30718 0
M  V30 2517 H 231.835 -1.01242 -3.58582 0
M  V30 2518 H 231.948 -2.88102 -3.82798 0
M  V30 2519 H 230.312 -1.45319 -2.09175 0
M  V30 2520 H 231.095 -3.04566 -1.58413 0
M  V30 2521 N 233.54 1.10788 -1.12088 0
M  V30 2522 C 234.77 1.86191 -0.895351 0
M  V30 2523 C 235.178 1.80763 0.558702 0
M  V30 2524 O 234.521 1.19188 1.39785 0
M  V30 2525 C 234.583 3.35659 -1.28737 0
M  V30 2526 C 234.247 3.64849 -2.75198 0
M  V30 2527 C 235.244 3.61757 -3.734 0
M  V30 2528 C 232.929 3.93641 -3.12013 0
M  V30 2529 C 234.923 3.87045 -5.06434 0
M  V30 2530 C 232.61 4.18585 -4.4523 0
M  V30 2531 C 233.608 4.15277 -5.42249 0
M  V30 2532 O 233.296 4.3959 -6.73065 0
M  V30 2533 H 233.028 0.595425 -0.32007 0
M  V30 2534 H 235.582 1.40992 -1.49367 0
M  V30 2535 H 233.812 3.81497 -0.63224 0
M  V30 2536 H 235.501 3.92441 -1.03656 0
M  V30 2537 H 236.267 3.39557 -3.46303 0
M  V30 2538 H 232.146 3.95348 -2.37109 0
M  V30 2539 H 235.69 3.84378 -5.82151 0
M  V30 2540 H 231.587 4.40264 -4.72057 0
M  V30 2541 H 232.355 4.57123 -6.78956 0
M  V30 2542 N 235.018 0.912232 1.28515 0
M  V30 2543 C 236.429 0.591352 1.77087 0
M  V30 2544 C 236.78 -0.8933 1.74684 0
M  V30 2545 O 235.905 -1.69876 1.34056 0
M  V30 2546 C 236.5 1.06668 3.2157 0
M  V30 2547 C 235.059 0.79675 3.67871 0
M  V30 2548 C 234.206 1.23427 2.48316 0
M  V30 2549 H 237.157 1.09365 1.15 0
M  V30 2550 H 237.178 0.407455 3.78312 0
M  V30 2551 H 236.69 2.14726 3.23287 0
M  V30 2552 H 234.791 -0.270679 3.71616 0
M  V30 2553 H 234.904 1.40343 4.58084 0
M  V30 2554 H 233.268 0.653036 2.46186 0
M  V30 2555 H 234.051 2.32316 2.52753 0
M  V30 2556 N 236.496 -1.42363 0.676048 0
M  V30 2557 C 237.742 -2.02336 0.207809 0
M  V30 2558 C 238.097 -1.52506 -1.17302 0
M  V30 2559 O 237.39 -0.718048 -1.77636 0
M  V30 2560 C 237.584 -3.56929 0.183431 0
M  V30 2561 C 237.413 -4.21762 1.56036 0
M  V30 2562 C 236.183 -4.56881 2.15842 0
M  V30 2563 C 238.381 -4.49267 2.50327 0
M  V30 2564 N 236.363 -5.069 3.46303 0
M  V30 2565 C 237.734 -5.00851 3.65443 0
M  V30 2566 C 239.789 -4.31257 2.48841 0
M  V30 2567 C 238.492 -5.36317 4.79329 0
M  V30 2568 C 240.518 -4.678 3.61824 0
M  V30 2569 C 239.88 -5.19537 4.75668 0
M  V30 2570 H 235.979 -0.772583 0.120993 0
M  V30 2571 H 238.563 -1.73203 0.889306 0
M  V30 2572 H 236.734 -3.85576 -0.467483 0
M  V30 2573 H 238.466 -4.03603 -0.297808 0
M  V30 2574 H 235.221 -4.4268 1.68319 0
M  V30 2575 H 235.645 -5.36338 4.13123 0
M  V30 2576 H 240.287 -3.90511 1.62051 0
M  V30 2577 H 238.005 -5.75995 5.66794 0
M  V30 2578 H 241.591 -4.55541 3.61903 0
M  V30 2579 H 240.471 -5.47287 5.61646 0
M  V30 2580 N 237.974 -0.419461 -1.51915 0
M  V30 2581 C 238.907 0.445751 -2.23804 0
M  V30 2582 C 239.885 1.03951 -1.25031 0
M  V30 2583 O 241.069 1.08541 -1.54114 0
M  V30 2584 C 238.196 1.61964 -2.97465 0
M  V30 2585 C 237.242 1.14828 -4.10751 0
M  V30 2586 S 238.075 0.104938 -5.35397 0
M  V30 2587 C 239.231 1.28391 -6.1259 0
M  V30 2588 H 239.464 -0.164627 -2.96844 0
M  V30 2589 H 236.997 -0.203833 -1.53049 0
M  V30 2590 H 238.955 2.29271 -3.40507 0
M  V30 2591 H 237.616 2.20139 -2.24048 0
M  V30 2592 H 236.809 2.02561 -4.61503 0
M  V30 2593 H 236.411 0.553712 -3.69878 0
M  V30 2594 H 238.703 2.20563 -6.40592 0
M  V30 2595 H 239.646 0.816724 -7.03374 0
M  V30 2596 H 240.054 1.51439 -5.43807 0
M  V30 2597 N 239.452 1.56882 -0.150215 0
M  V30 2598 C 240.692 1.98119 0.502804 0
M  V30 2599 C 241.056 1.03327 1.61826 0
M  V30 2600 O 242.257 1.33621 2.33236 0
M  V30 2601 C 240.528 3.43329 0.992988 0
M  V30 2602 S 242.087 4.0659 1.65015 0
M  V30 2603 H 238.905 0.692189 0.162467 0
M  V30 2604 H 241.507 1.93988 -0.242689 0
M  V30 2605 H 240.211 4.10046 0.170436 0
M  V30 2606 H 239.742 3.5118 1.77303 0
M  V30 2607 H 241.757 3.99906 2.93752 0
M  V30 2608 N 240.93 -0.123565 1.57115 0
M  V30 2609 C 242.16 -0.845233 1.88519 0
M  V30 2610 C 242.568 -1.74168 0.739064 0
M  V30 2611 O 241.911 -1.81244 -0.299355 0
M  V30 2612 C 241.973 -1.73452 3.14888 0
M  V30 2613 C 241.637 -1.01285 4.45635 0
M  V30 2614 C 242.634 -0.355774 5.18681 0
M  V30 2615 C 240.319 -0.99538 4.92339 0
M  V30 2616 C 242.313 0.309114 6.3665 0
M  V30 2617 C 240 -0.32669 6.10226 0
M  V30 2618 C 240.998 0.324406 6.82229 0
M  V30 2619 O 240.686 0.982437 7.97874 0
M  V30 2620 H 240.418 -0.248534 0.628655 0
M  V30 2621 H 242.972 -0.113907 2.05084 0
M  V30 2622 H 241.202 -2.50737 2.94394 0
M  V30 2623 H 242.891 -2.33021 3.32349 0
M  V30 2624 H 243.657 -0.360918 4.83655 0
M  V30 2625 H 239.536 -1.49159 4.36202 0
M  V30 2626 H 243.08 0.8179 6.92789 0
M  V30 2627 H 238.977 -0.319294 6.4471 0
M  V30 2628 H 239.745 0.886454 8.13686 0
M  V30 2629 N 242.408 -1.52605 -0.393616 0
M  V30 2630 C 243.355 -1.77055 -1.48054 0
M  V30 2631 C 244.325 -0.61358 -1.54352 0
M  V30 2632 O 245.51 -0.852806 -1.70681 0
M  V30 2633 C 242.65 -1.94108 -2.85335 0
M  V30 2634 C 241.763 -3.21792 -2.88226 0
M  V30 2635 C 240.898 -3.29188 -4.16904 0
M  V30 2636 C 239.937 -4.51013 -4.13828 0
M  V30 2637 N 239.074 -4.55716 -5.34105 0
M  V30 2638 H 243.914 -2.69815 -1.26506 0
M  V30 2639 H 241.451 -1.33683 -0.61379 0
M  V30 2640 H 243.409 -2.01979 -3.65049 0
M  V30 2641 H 242.039 -1.04713 -3.05344 0
M  V30 2642 H 241.091 -3.23015 -2.00911 0
M  V30 2643 H 242.403 -4.11557 -2.8182 0
M  V30 2644 H 241.557 -3.36216 -5.05018 0
M  V30 2645 H 240.296 -2.37389 -4.26026 0
M  V30 2646 H 239.301 -4.44115 -3.24102 0
M  V30 2647 H 240.526 -5.44123 -4.06333 0
M  V30 2648 H 238.472 -3.66807 -5.43865 0
M  V30 2649 H 238.389 -5.39346 -5.29756 0
M  V30 2650 H 239.657 -4.66993 -6.2413 0
M  V30 2651 N 243.887 0.651787 -1.4349 0
M  V30 2652 C 244.835 1.78586 -1.49029 0
M  V30 2653 C 245.829 1.65448 -0.363767 0
M  V30 2654 O 247.035 1.71777 -0.537821 0
M  V30 2655 H 243.41 0.589236 -0.467231 0
M  V30 2656 H 245.381 1.71035 -2.44519 0
M  V30 2657 C 244.13 3.16851 -1.43181 0
M  V30 2658 H 243.453 3.27598 -2.29171 0
M  V30 2659 H 244.893 3.96156 -1.51118 0
M  V30 2660 C 243.352 3.36568 -0.149616 0
M  V30 2661 O 243.882 3.93885 0.788509 0
M  V30 2662 N 242.088 2.90539 -0.0593484 0
M  V30 2663 H 241.635 2.4408 -0.823575 0
M  V30 2664 H 241.593 3.04108 0.797853 0
M  V30 2665 N 245.365 1.30045 0.890287 0
M  V30 2666 C 246.328 1.15963 1.977 0
M  V30 2667 C 247.328 0.0923777 1.60534 0
M  V30 2668 O 248.518 0.340071 1.70848 0
M  V30 2669 C 245.65 0.775451 3.31963 0
M  V30 2670 H 246.843 2.12502 2.11619 0
M  V30 2671 H 244.396 1.13366 1.07601 0
M  V30 2672 H 245.131 -0.189671 3.23745 0
M  V30 2673 H 244.916 1.54668 3.60306 0
M  V30 2674 H 246.406 0.700251 4.11687 0
M  V30 2675 N 246.843 -1.10192 1.12674 0
M  V30 2676 C 247.776 -2.15847 0.740625 0
M  V30 2677 C 248.754 -1.60352 -0.269421 0
M  V30 2678 O 249.938 -1.87796 -0.16278 0
M  V30 2679 C 247.065 -3.38562 0.096641 0
M  V30 2680 C 246.111 -4.12758 1.07391 0
M  V30 2681 S 246.944 -4.67997 2.60267 0
M  V30 2682 C 248.1 -5.94021 1.97206 0
M  V30 2683 H 248.333 -2.48266 1.63558 0
M  V30 2684 H 245.866 -1.22019 0.946087 0
M  V30 2685 H 247.824 -4.09621 -0.268535 0
M  V30 2686 H 246.485 -3.04377 -0.775462 0
M  V30 2687 H 245.678 -5.00755 0.570997 0
M  V30 2688 H 245.28 -3.47523 1.38216 0
M  V30 2689 H 247.572 -6.64589 1.31634 0
M  V30 2690 H 248.515 -6.48979 2.83253 0
M  V30 2691 H 248.923 -5.46169 1.42686 0
M  V30 2692 N 248.321 -0.919034 -1.28029 0
M  V30 2693 C 249.231 -0.416756 -2.30869 0
M  V30 2694 C 250.247 0.498235 -1.66714 0
M  V30 2695 O 251.423 0.383144 -1.97722 0
M  V30 2696 C 248.488 0.330274 -3.45123 0
M  V30 2697 C 247.549 -0.618578 -4.2482 0
M  V30 2698 C 246.782 0.0928959 -5.33619 0
M  V30 2699 O 247.005 1.31375 -5.55065 0
M  V30 2700 O 245.939 -0.574499 -5.99152 0
M  V30 2701 H 249.765 -1.27043 -2.75851 0
M  V30 2702 H 247.35 -0.684052 -1.3282 0
M  V30 2703 H 249.232 0.751972 -4.14636 0
M  V30 2704 H 247.907 1.1597 -3.02213 0
M  V30 2705 H 246.814 -1.08978 -3.57875 0
M  V30 2706 H 248.147 -1.41497 -4.71423 0
M  V30 2707 N 249.799 1.42003 -0.683588 0
M  V30 2708 C 250.729 2.33487 -0.024866 0
M  V30 2709 C 251.71 1.51163 0.779975 0
M  V30 2710 O 252.895 1.79739 0.735362 0
M  V30 2711 C 250.025 3.3487 0.920836 0
M  V30 2712 C 248.979 4.27414 0.223958 0
M  V30 2713 C 248.305 5.19074 1.2832 0
M  V30 2714 C 249.605 5.14445 -0.90242 0
M  V30 2715 H 251.299 2.88819 -0.788921 0
M  V30 2716 H 248.845 1.38873 -0.38083 0
M  V30 2717 H 250.798 3.97787 1.39081 0
M  V30 2718 H 249.522 2.77861 1.71642 0
M  V30 2719 H 248.181 3.65904 -0.225864 0
M  V30 2720 H 247.829 4.58387 2.071 0
M  V30 2721 H 247.529 5.81822 0.821995 0
M  V30 2722 H 249.053 5.84867 1.75392 0
M  V30 2723 H 250.467 5.70998 -0.513272 0
M  V30 2724 H 248.864 5.86072 -1.28997 0
M  V30 2725 H 249.934 4.52322 -1.74737 0
M  V30 2726 N 251.277 0.427512 1.51691 0
M  V30 2727 C 252.525 -0.141948 2.01601 0
M  V30 2728 C 252.846 -1.44067 1.31414 0
M  V30 2729 O 252.116 -1.90763 0.445658 0
M  V30 2730 H 250.696 -0.0554468 0.744939 0
M  V30 2731 H 253.358 0.567968 1.86441 0
M  V30 2732 H 252.454 -0.324913 3.10404 0
M  V30 2733 N 252.755 -1.56801 0.158532 0
M  V30 2734 C 254.001 -1.96781 -0.490405 0
M  V30 2735 C 254.334 -1.04397 -1.63753 0
M  V30 2736 O 253.609 -0.0885805 -1.94298 0
M  V30 2737 C 253.892 -3.4635 -0.985594 0
M  V30 2738 C 253.745 -4.49512 0.160824 0
M  V30 2739 C 255.064 -3.98697 -1.86355 0
M  V30 2740 H 252.183 -0.715482 -0.176788 0
M  V30 2741 H 254.825 -1.88451 0.242088 0
M  V30 2742 H 252.975 -3.53579 -1.60978 0
M  V30 2743 H 254.647 -4.54353 0.797537 0
M  V30 2744 H 252.89 -4.26013 0.818256 0
M  V30 2745 H 253.561 -5.51531 -0.227569 0
M  V30 2746 H 256.037 -3.94019 -1.33746 0
M  V30 2747 H 254.913 -5.03792 -2.17909 0
M  V30 2748 H 255.174 -3.41744 -2.8047 0
M  V30 2749 N 254.233 0.115231 -1.57178 0
M  V30 2750 C 255.463 0.835224 -1.88964 0
M  V30 2751 C 255.871 1.73774 -0.74829 0
M  V30 2752 O 255.214 1.81401 0.289739 0
M  V30 2753 C 255.276 1.7178 -3.15804 0
M  V30 2754 C 254.94 0.989198 -4.46166 0
M  V30 2755 C 255.937 0.328263 -5.18863 0
M  V30 2756 C 253.622 0.969256 -4.9286 0
M  V30 2757 C 255.616 -0.342873 -6.36477 0
M  V30 2758 C 253.303 0.294324 -6.10391 0
M  V30 2759 C 254.301 -0.360582 -6.82048 0
M  V30 2760 O 253.989 -1.02474 -7.97342 0
M  V30 2761 H 253.721 0.245197 -0.629964 0
M  V30 2762 H 256.275 0.10303 -2.05141 0
M  V30 2763 H 254.505 2.49173 -2.95719 0
M  V30 2764 H 256.194 2.31255 -3.33581 0
M  V30 2765 H 256.96 0.335263 -4.8384 0
M  V30 2766 H 252.839 1.46844 -4.36987 0
M  V30 2767 H 256.383 -0.854629 -6.92345 0
M  V30 2768 H 252.28 0.285099 -6.4487 0
M  V30 2769 H 253.048 -0.929594 -8.13204 0
M  V30 2770 N 255.711 1.52812 0.385517 0
M  V30 2771 C 257.122 1.5993 0.963293 0
M  V30 2772 C 257.473 0.454302 1.90868 0
M  V30 2773 O 256.598 -0.422132 2.12243 0
M  V30 2774 C 257.193 2.89871 1.75387 0
M  V30 2775 C 255.752 2.99389 2.28129 0
M  V30 2776 C 254.899 2.55071 1.08783 0
M  V30 2777 H 257.85 1.5784 0.164948 0
M  V30 2778 H 257.871 2.76553 2.61341 0
M  V30 2779 H 257.383 3.73186 1.06554 0
M  V30 2780 H 255.484 2.20619 3.00263 0
M  V30 2781 H 255.597 4.04096 2.57377 0
M  V30 2782 H 253.961 2.09473 1.4489 0
M  V30 2783 H 254.744 3.40785 0.414807 0
M  V30 2784 N 257.189 -0.644168 1.43834 0
M  V30 2785 C 258.122 -1.76906 1.44151 0
M  V30 2786 C 259.1 -1.59774 0.301857 0
M  V30 2787 O 260.284 -1.81834 0.496841 0
M  V30 2788 C 257.411 -3.14321 1.26174 0
M  V30 2789 C 256.457 -3.50134 2.43533 0
M  V30 2790 S 257.29 -3.49085 4.06079 0
M  V30 2791 C 258.446 -4.89142 3.90501 0
M  V30 2792 H 258.679 -1.76368 2.39336 0
M  V30 2793 H 256.212 -0.817624 1.30974 0
M  V30 2794 H 258.17 -3.93625 1.16489 0
M  V30 2795 H 256.831 -3.12412 0.325224 0
M  V30 2796 H 256.024 -4.50095 2.26783 0
M  V30 2797 H 255.626 -2.78264 2.4989 0
M  V30 2798 H 257.918 -5.78036 3.53385 0
M  V30 2799 H 258.861 -5.10945 4.90246 0
M  V30 2800 H 259.269 -4.63102 3.22795 0
M  V30 2801 N 258.668 -1.30515 -0.883378 0
M  V30 2802 C 259.616 -1.16941 -2.01066 0
M  V30 2803 C 260.61 -0.0809148 -1.69207 0
M  V30 2804 O 261.816 -0.241877 -1.78367 0
M  V30 2805 H 258.191 -0.361705 -0.659298 0
M  V30 2806 H 260.162 -2.12344 -2.09649 0
M  V30 2807 C 258.911 -0.879694 -3.36388 0
M  V30 2808 H 258.234 -1.70936 -3.61415 0
M  V30 2809 H 259.674 -0.82483 -4.159 0
M  V30 2810 C 258.133 0.417409 -3.34304 0
M  V30 2811 O 258.663 1.43843 -3.75063 0
M  V30 2812 N 256.869 0.429141 -2.87414 0
M  V30 2813 H 256.416 -0.402222 -2.5444 0
M  V30 2814 H 256.374 1.29696 -2.86403 0
M  V30 2815 N 260.146 1.09593 -1.13257 0
M  V30 2816 C 261.096 2.14345 -0.777179 0
M  V30 2817 C 262.08 1.59277 0.227966 0
M  V30 2818 O 263.272 1.76971 0.0321413 0
M  V30 2819 C 260.401 3.42439 -0.242991 0
M  V30 2820 C 259.487 4.04419 -1.27694 0
M  V30 2821 N 259.878 4.40979 -2.47732 0
M  V30 2822 C 258.176 4.31596 -1.12432 0
M  V30 2823 C 258.877 4.89784 -3.13826 0
M  V30 2824 N 257.853 4.87133 -2.41252 0
M  V30 2825 H 261.655 2.40415 -1.69049 0
M  V30 2826 H 259.169 1.26803 -1.01463 0
M  V30 2827 H 261.166 4.16889 0.0298496 0
M  V30 2828 H 259.826 3.17824 0.66467 0
M  V30 2829 H 260.837 4.32396 -2.85051 0
M  V30 2830 H 257.514 4.16595 -0.274684 0
M  V30 2831 H 258.904 5.2755 -4.16102 0
M  V30 2832 N 261.624 0.925811 1.2754 0
M  V30 2833 C 262.557 0.367836 2.25216 0
M  V30 2834 C 263.535 -0.534738 1.53556 0
M  V30 2835 O 264.719 -0.475672 1.824 0
M  V30 2836 C 261.846 -0.47298 3.35381 0
M  V30 2837 C 260.892 0.365898 4.24928 0
M  V30 2838 S 261.725 1.78025 5.05042 0
M  V30 2839 C 262.881 0.947068 6.18693 0
M  V30 2840 H 263.114 1.19568 2.72196 0
M  V30 2841 H 260.647 0.727867 1.36167 0
M  V30 2842 H 262.605 -0.952242 3.99303 0
M  V30 2843 H 261.266 -1.27533 2.87044 0
M  V30 2844 H 260.459 -0.277582 5.03235 0
M  V30 2845 H 260.061 0.779261 3.65792 0
M  V30 2846 H 262.353 0.182201 6.77255 0
M  V30 2847 H 263.296 1.70309 6.87314 0
M  V30 2848 H 263.704 0.489913 5.6237 0
M  V30 2849 N 263.102 -1.41638 0.69111 0
M  V30 2850 C 264.351 -2.00526 0.217318 0
M  V30 2851 C 264.664 -1.55353 -1.18848 0
M  V30 2852 O 265.87 -2.06769 -1.75951 0
M  V30 2853 C 264.326 -3.58313 0.337639 0
M  V30 2854 C 263.934 -4.12469 1.74852 0
M  V30 2855 C 265.678 -4.24431 -0.0766066 0
M  V30 2856 C 263.585 -5.62675 1.82074 0
M  V30 2857 H 262.515 -0.750008 0.0774893 0
M  V30 2858 H 265.166 -1.6217 0.858661 0
M  V30 2859 H 263.548 -3.9425 -0.371879 0
M  V30 2860 H 264.722 -3.8796 2.48644 0
M  V30 2861 H 263.037 -3.58861 2.11205 0
M  V30 2862 H 265.634 -5.34683 -0.0430284 0
M  V30 2863 H 265.977 -4.01101 -1.1146 0
M  V30 2864 H 266.51 -3.93512 0.582476 0
M  V30 2865 H 263.249 -5.90826 2.83911 0
M  V30 2866 H 262.769 -5.89124 1.12661 0
M  V30 2867 H 264.448 -6.27371 1.58159 0
M  V30 2868 N 264.58 -0.43555 -1.51462 0
M  V30 2869 C 265.527 0.376797 -2.27703 0
M  V30 2870 C 266.497 1.01838 -1.31219 0
M  V30 2871 O 267.682 1.03762 -1.60119 0
M  V30 2872 C 264.822 1.47301 -3.12084 0
M  V30 2873 C 263.935 0.849744 -4.2356 0
M  V30 2874 C 263.07 1.92086 -4.95254 0
M  V30 2875 C 262.109 1.27593 -5.98654 0
M  V30 2876 N 261.246 2.28833 -6.63762 0
M  V30 2877 H 266.086 -0.279734 -2.96684 0
M  V30 2878 H 263.623 -0.149795 -1.46335 0
M  V30 2879 H 265.581 2.11984 -3.59331 0
M  V30 2880 H 264.211 2.0992 -2.45221 0
M  V30 2881 H 263.263 0.0912529 -3.80291 0
M  V30 2882 H 264.575 0.338878 -4.97648 0
M  V30 2883 H 263.729 2.64435 -5.46039 0
M  V30 2884 H 262.468 2.46545 -4.20793 0
M  V30 2885 H 261.473 0.537893 -5.47162 0
M  V30 2886 H 262.698 0.738693 -6.7507 0
M  V30 2887 H 260.644 2.82375 -5.92115 0
M  V30 2888 H 260.561 1.82632 -7.33608 0
M  V30 2889 H 261.829 3.00671 -7.19178 0
M  V30 2890 N 266.058 1.56714 -0.166846 0
M  V30 2891 C 267.304 1.97039 0.479962 0
M  V30 2892 C 267.637 1.05264 1.63197 0
M  V30 2893 O 266.912 0.0988833 1.94248 0
M  V30 2894 C 267.195 3.46867 0.967212 0
M  V30 2895 C 267.048 4.49421 -0.18466 0
M  V30 2896 C 268.367 3.9968 1.84238 0
M  V30 2897 H 265.486 0.71641 0.172992 0
M  V30 2898 H 268.128 1.8832 -0.252079 0
M  V30 2899 H 266.278 3.54428 1.59101 0
M  V30 2900 H 267.95 4.53924 -0.821621 0
M  V30 2901 H 266.193 4.25573 -0.840837 0
M  V30 2902 H 266.864 5.51644 0.198317 0
M  V30 2903 H 269.34 3.94723 1.31655 0
M  V30 2904 H 268.216 5.04941 2.15234 0
M  V30 2905 H 268.477 3.43226 2.78654 0
M  V30 2906 N 267.536 -0.106894 1.57237 0
M  V30 2907 C 268.784 -0.810921 1.85117 0
M  V30 2908 C 269.105 -1.7984 0.753827 0
M  V30 2909 O 268.375 -1.94649 -0.221056 0
M  V30 2910 H 266.955 -0.302466 0.683025 0
M  V30 2911 H 269.617 -0.0913324 1.94686 0
M  V30 2912 H 268.713 -1.34875 2.81452 0
M  V30 2913 N 269.014 -1.53014 -0.377408 0
M  V30 2914 C 270.291 -1.59215 -1.13622 0
M  V30 2915 C 270.671 -0.392407 -2.07421 0
M  V30 2916 O 270.019 0.618342 -2.19975 0
M  V30 2917 C 270.229 -2.93669 -1.88573 0
M  V30 2918 C 271.577 -3.47822 -2.43526 0
M  V30 2919 O 272.601 -2.9562 -1.98715 0
M  V30 2920 O 271.46 -4.39055 -3.25412 0
M  V30 2921 H 268.554 -0.642625 -0.52054 0
M  V30 2922 H 271.1 -1.65353 -0.381625 0
M  V30 2923 H 269.872 -3.7243 -1.20048 0
M  V30 2924 H 269.495 -2.90968 -2.70968 0
M  V30 2925 N 270.492 0.636531 -1.44174 0
M  V30 2926 C 271.72 1.42353 -1.50144 0
M  V30 2927 C 272.135 1.88389 -0.124575 0
M  V30 2928 O 271.492 1.6051 0.868489 0
M  V30 2929 C 271.543 2.64744 -2.46156 0
M  V30 2930 O 271.264 2.20629 -3.7849 0
M  V30 2931 C 272.765 3.57929 -2.61537 0
M  V30 2932 H 269.985 0.436752 -0.5094 0
M  V30 2933 H 272.529 0.778933 -1.89084 0
M  V30 2934 H 270.684 3.25307 -2.10366 0
M  V30 2935 H 271.098 2.99938 -4.30276 0
M  V30 2936 H 272.572 4.40428 -3.32757 0
M  V30 2937 H 273.049 4.06382 -1.66585 0
M  V30 2938 H 273.655 3.03238 -2.98206 0
M  V30 2939 N 271.97 1.30982 0.876444 0
M  V30 2940 C 273.216 1.20474 1.63138 0
M  V30 2941 C 273.549 -0.238096 1.92735 0
M  V30 2942 O 272.824 -1.1692 1.55435 0
M  V30 2943 C 273.107 2.04244 2.96574 0
M  V30 2944 C 272.96 3.56793 2.73896 0
M  V30 2945 C 274.279 1.88684 3.97601 0
M  V30 2946 H 271.398 0.439001 0.591985 0
M  V30 2947 H 274.04 1.60704 1.01361 0
M  V30 2948 H 272.19 1.70063 3.493 0
M  V30 2949 H 273.862 4.01077 2.27892 0
M  V30 2950 H 272.105 3.80548 2.08245 0
M  V30 2951 H 272.776 4.10706 3.68815 0
M  V30 2952 H 275.252 2.18584 3.54062 0
M  V30 2953 H 274.128 2.4961 4.88862 0
M  V30 2954 H 274.389 0.848343 4.33884 0
M  V30 2955 N 273.449 -1.08991 1.13837 0
M  V30 2956 C 274.674 -1.85551 0.926585 0
M  V30 2957 C 275.099 -1.80782 -0.519566 0
M  V30 2958 O 274.457 -1.18855 -1.36906 0
M  V30 2959 C 274.505 -3.31266 1.42462 0
M  V30 2960 O 273.609 -4.07822 0.612789 0
M  V30 2961 H 272.95 -0.575192 0.331738 0
M  V30 2962 H 275.48 -1.37604 1.51414 0
M  V30 2963 H 275.49 -3.82112 1.43019 0
M  V30 2964 H 274.165 -3.34052 2.47754 0
M  V30 2965 H 272.742 -3.66731 0.675463 0
M  V30 2966 N 274.927 -0.932562 -1.27047 0
M  V30 2967 C 276.204 -0.49377 -1.89265 0
M  V30 2968 C 276.584 1.02833 -1.8436 0
M  V30 2969 O 275.932 1.88461 -1.29209 0
M  V30 2970 C 276.142 -1.04536 -3.32976 0
M  V30 2971 C 277.49 -1.10879 -4.09867 0
M  V30 2972 O 278.514 -0.995327 -3.42011 0
M  V30 2973 O 277.373 -1.28417 -5.31198 0
M  V30 2974 H 274.467 -0.159596 -0.811454 0
M  V30 2975 H 277.013 -1.02457 -1.3528 0
M  V30 2976 H 275.785 -2.08913 -3.30864 0
M  V30 2977 H 275.408 -0.496494 -3.94488 0
M  V30 2978 N 276.405 1.4127 -0.698611 0
M  V30 2979 C 277.338 2.28195 0.0153898 0
M  V30 2980 C 278.316 1.42402 0.784883 0
M  V30 2981 O 279.5 1.71828 0.775067 0
M  V30 2982 C 276.627 3.22685 1.02918 0
M  V30 2983 C 275.673 4.25041 0.352501 0
M  V30 2984 S 276.506 5.27757 -0.907322 0
M  V30 2985 C 277.662 6.25812 0.104796 0
M  V30 2986 H 277.895 2.88403 -0.721858 0
M  V30 2987 H 275.428 1.46452 -0.488996 0
M  V30 2988 H 277.386 3.77655 1.60893 0
M  V30 2989 H 276.047 2.61566 1.73902 0
M  V30 2990 H 275.24 4.91437 1.11828 0
M  V30 2991 H 274.842 3.73682 -0.154254 0
M  V30 2992 H 277.134 6.70705 0.957103 0
M  V30 2993 H 278.077 7.06149 -0.525323 0
M  V30 2994 H 278.485 5.62615 0.460931 0
M  V30 2995 N 277.883 0.443576 1.51229 0
M  V30 2996 C 278.83 -0.364716 2.279 0
M  V30 2997 C 279.8 -1.0114 1.31757 0
M  V30 2998 O 280.985 -1.02912 1.60667 0
M  V30 2999 C 278.125 -1.45644 3.12861 0
M  V30 3000 C 277.238 -0.827269 4.24005 0
M  V30 3001 C 276.373 -1.89456 4.96266 0
M  V30 3002 C 275.412 -1.24416 5.99322 0
M  V30 3003 N 274.549 -2.25309 6.64966 0
M  V30 3004 H 279.389 0.295464 2.96532 0
M  V30 3005 H 276.926 0.157554 1.46254 0
M  V30 3006 H 278.884 -2.10076 3.6045 0
M  V30 3007 H 277.514 -2.08616 2.46331 0
M  V30 3008 H 276.566 -0.0710839 3.80334 0
M  V30 3009 H 277.878 -0.312481 4.9782 0
M  V30 3010 H 277.032 -2.61535 5.47434 0
M  V30 3011 H 275.771 -2.4431 4.22095 0
M  V30 3012 H 274.776 -0.508868 5.4744 0
M  V30 3013 H 276.001 -0.702882 6.75453 0
M  V30 3014 H 273.947 -2.79231 5.93604 0
M  V30 3015 H 273.864 -1.78739 7.34567 0
M  V30 3016 H 275.132 -2.96853 7.20763 0
M  V30 3017 N 279.361 -1.56624 0.175154 0
M  V30 3018 C 280.271 -2.21741 -0.766042 0
M  V30 3019 C 281.287 -1.21023 -1.25018 0
M  V30 3020 O 282.463 -1.53697 -1.3015 0
M  V30 3021 C 279.528 -2.84839 -1.97655 0
M  V30 3022 C 278.589 -4.00769 -1.53892 0
M  V30 3023 C 277.822 -4.60849 -2.69173 0
M  V30 3024 O 278.045 -4.19823 -3.86141 0
M  V30 3025 O 276.979 -5.50655 -2.43028 0
M  V30 3026 H 280.805 -3.02738 -0.241585 0
M  V30 3027 H 278.39 -1.49305 -0.053222 0
M  V30 3028 H 280.272 -3.24834 -2.68442 0
M  V30 3029 H 278.947 -2.06836 -2.48999 0
M  V30 3030 H 277.854 -3.65436 -0.80044 0
M  V30 3031 H 279.187 -4.80376 -1.07236 0
M  V30 3032 N 280.839 0.0985539 -1.57292 0
M  V30 3033 C 282.087 0.801092 -1.85545 0
M  V30 3034 C 282.408 1.79438 -0.763353 0
M  V30 3035 O 281.678 1.94763 0.21073 0
M  V30 3036 H 280.258 0.29884 -0.684619 0
M  V30 3037 H 282.92 0.0810064 -1.94732 0
M  V30 3038 H 282.016 1.3338 -2.82163 0
M  V30 3039 N 282.317 1.53212 0.369288 0
M  V30 3040 C 283.733 1.42902 0.710712 0
M  V30 3041 C 283.933 0.565135 1.93413 0
M  V30 3042 O 282.989 0.0461484 2.52458 0
M  V30 3043 C 284.302 2.86042 0.927382 0
M  V30 3044 C 285.85 2.9565 1.02762 0
M  V30 3045 C 286.325 4.39843 1.27679 0
M  V30 3046 N 287.816 4.43256 1.34457 0
M  V30 3047 C 288.551 5.51929 1.55439 0
M  V30 3048 N 288.047 6.70655 1.73762 0
M  V30 3049 N 289.84 5.39502 1.57779 0
M  V30 3050 H 281.991 2.07888 -0.435457 0
M  V30 3051 H 284.254 0.938661 -0.132739 0
M  V30 3052 H 283.96 3.51557 0.100287 0
M  V30 3053 H 283.834 3.29472 1.83653 0
M  V30 3054 H 286.221 2.30291 1.84527 0
M  V30 3055 H 286.302 2.5562 0.0959504 0
M  V30 3056 H 285.946 5.05774 0.464175 0
M  V30 3057 H 285.876 4.77443 2.22162 0
M  V30 3058 H 288.367 3.5769 1.21926 0
M  V30 3059 H 288.68 7.49248 1.89335 0
M  V30 3060 H 287.025 6.73648 1.70948 0
M  V30 3061 H 290.216 4.45713 1.43029 0
M  V30 3062 H 290.389 6.2426 1.7379 0
M  V30 3063 N 283.795 -0.628877 1.44509 0
M  V30 3064 C 284.743 -1.76193 1.51852 0
M  V30 3065 C 285.737 -1.64849 0.390042 0
M  V30 3066 O 286.943 -1.709 0.565082 0
M  V30 3067 H 283.318 -0.581728 0.476547 0
M  V30 3068 H 285.289 -1.67123 2.47209 0
M  V30 3069 C 284.038 -3.14533 1.48204 0
M  V30 3070 H 283.361 -3.23911 2.34354 0
M  V30 3071 H 284.801 -3.93701 1.57402 0
M  V30 3072 C 283.26 -3.36287 0.203142 0
M  V30 3073 O 283.79 -3.9509 -0.725745 0
M  V30 3074 N 281.996 -2.90408 0.105563 0
M  V30 3075 H 281.543 -2.42739 0.862301 0
M  V30 3076 H 281.501 -3.05339 -0.749371 0
M  V30 3077 N 285.273 -1.31445 -0.869486 0
M  V30 3078 C 286.236 -1.19094 -1.9583 0
M  V30 3079 C 287.236 -0.117906 -1.60367 0
M  V30 3080 O 288.426 -0.367208 -1.70286 0
M  V30 3081 C 285.558 -0.828165 -3.30688 0
M  V30 3082 H 286.751 -2.15842 -2.08212 0
M  V30 3083 H 284.304 -1.15063 -1.05784 0
M  V30 3084 H 285.039 0.138142 -3.24006 0
M  V30 3085 H 284.824 -1.6038 -3.578 0
M  V30 3086 H 286.314 -0.765658 -4.10521 0
M  V30 3087 N 286.751 1.08385 -1.14413 0
M  V30 3088 C 287.999 1.80419 -0.910679 0
M  V30 3089 C 288.32 1.86658 0.564243 0
M  V30 3090 O 287.59 1.35985 1.41014 0
M  V30 3091 H 286.17 0.668204 -0.333934 0
M  V30 3092 H 288.832 1.31037 -1.44275 0
M  V30 3093 H 287.928 2.83238 -1.31082 0
M  V30 3094 N 288.23 0.939286 1.26551 0
M  V30 3095 C 289.163 0.391702 2.24813 0
M  V30 3096 C 290.141 -0.518421 1.54114 0
M  V30 3097 O 291.325 -0.456299 1.82894 0
M  V30 3098 C 288.452 -0.437382 3.35864 0
M  V30 3099 C 287.498 0.410946 4.24516 0
M  V30 3100 S 288.331 1.83372 5.03125 0
M  V30 3101 C 289.487 1.01264 6.17654 0
M  V30 3102 H 289.72 1.22448 2.70913 0
M  V30 3103 H 287.253 0.742269 1.35387 0
M  V30 3104 H 289.211 -0.909837 4.0029 0
M  V30 3105 H 287.872 -1.24482 2.8838 0
M  V30 3106 H 287.065 -0.224191 5.03501 0
M  V30 3107 H 286.667 0.818014 3.64945 0
M  V30 3108 H 288.959 0.254023 6.77024 0
M  V30 3109 H 289.902 1.77589 6.85469 0
M  V30 3110 H 290.31 0.549532 5.61819 0
M  V30 3111 N 289.708 -1.40897 0.706093 0
M  V30 3112 C 290.954 -2.01849 0.250681 0
M  V30 3113 C 291.309 -1.5496 -1.14041 0
M  V30 3114 O 290.602 -0.755566 -1.76073 0
M  V30 3115 C 290.796 -3.5646 0.259099 0
M  V30 3116 C 290.625 -4.18357 1.64947 0
M  V30 3117 C 289.395 -4.522 2.25485 0
M  V30 3118 C 291.593 -4.43856 2.598 0
M  V30 3119 N 289.575 -4.9944 3.56977 0
M  V30 3120 C 290.946 -4.92986 3.75985 0
M  V30 3121 C 293.001 -4.25882 2.57933 0
M  V30 3122 C 291.704 -5.2603 4.90597 0
M  V30 3123 C 293.73 -4.6002 3.71665 0
M  V30 3124 C 293.092 -5.09331 4.86581 0
M  V30 3125 H 289.191 -0.769843 0.137353 0
M  V30 3126 H 291.775 -1.71278 0.925845 0
M  V30 3127 H 289.946 -3.86481 -0.385592 0
M  V30 3128 H 291.678 -4.04144 -0.21213 0
M  V30 3129 H 288.433 -4.3901 1.77671 0
M  V30 3130 H 288.857 -5.27454 4.24407 0
M  V30 3131 H 293.499 -3.86986 1.70298 0
M  V30 3132 H 291.217 -5.63843 5.78884 0
M  V30 3133 H 294.803 -4.47762 3.71484 0
M  V30 3134 H 293.683 -5.35251 5.73129 0
M  V30 3135 N 291.186 -0.45159 -1.50991 0
M  V30 3136 C 292.414 0.108334 -2.06616 0
M  V30 3137 C 292.829 1.35224 -1.31757 0
M  V30 3138 O 292.186 1.78475 -0.381174 0
M  V30 3139 C 292.237 0.41619 -3.59096 0
M  V30 3140 O 291.958 -0.778361 -4.3113 0
M  V30 3141 C 293.459 1.02523 -4.31282 0
M  V30 3142 H 290.679 0.00159995 -0.670998 0
M  V30 3143 H 293.223 -0.634771 -1.94399 0
M  V30 3144 H 291.378 1.10921 -3.71181 0
M  V30 3145 H 291.792 -0.511181 -5.22003 0
M  V30 3146 H 293.266 1.19053 -5.39009 0
M  V30 3147 H 293.743 2.01013 -3.905 0
M  V30 3148 H 294.349 0.371173 -4.23677 0
M  V30 3149 N 292.664 1.56529 -0.183458 0
M  V30 3150 C 293.91 1.97537 0.459036 0
M  V30 3151 C 294.243 1.06989 1.62071 0
M  V30 3152 O 293.518 0.11948 1.94133 0
M  V30 3153 C 293.801 3.47874 0.930368 0
M  V30 3154 C 293.654 4.492 -0.232317 0
M  V30 3155 C 294.973 4.01612 1.79989 0
M  V30 3156 H 292.092 0.718204 0.165383 0
M  V30 3157 H 294.734 1.88042 -0.272038 0
M  V30 3158 H 292.884 3.56095 1.55333 0
M  V30 3159 H 294.556 4.53027 -0.86972 0
M  V30 3160 H 292.799 4.24657 -0.885928 0
M  V30 3161 H 293.47 5.51823 0.139796 0
M  V30 3162 H 295.946 3.96097 1.27461 0
M  V30 3163 H 294.822 5.07195 2.09867 0
M  V30 3164 H 295.083 3.46163 2.74998 0
M  V30 3165 N 294.142 -0.090211 1.57342 0
M  V30 3166 C 295.39 -0.791241 1.85967 0
M  V30 3167 C 295.711 -1.7903 0.772859 0
M  V30 3168 O 294.981 -1.94872 -0.200398 0
M  V30 3169 H 293.561 -0.295205 0.686195 0
M  V30 3170 H 296.223 -0.0706782 1.94772 0
M  V30 3171 H 295.319 -1.31882 2.82867 0
M  V30 3172 N 295.62 -1.53406 -0.361157 0
M  V30 3173 C 296.866 -1.70054 -1.10496 0
M  V30 3174 C 297.199 -0.453278 -1.88836 0
M  V30 3175 O 296.474 0.5495 -1.86576 0
M  V30 3176 C 296.757 -2.95317 -2.06058 0
M  V30 3177 C 296.61 -4.3021 -1.31298 0
M  V30 3178 C 297.929 -3.16193 -3.06121 0
M  V30 3179 H 295.048 -0.618799 -0.400321 0
M  V30 3180 H 297.69 -1.86052 -0.385318 0
M  V30 3181 H 295.84 -2.81809 -2.67425 0
M  V30 3182 H 297.512 -4.55538 -0.726807 0
M  V30 3183 H 295.755 -4.29421 -0.614853 0
M  V30 3184 H 296.426 -5.14 -2.01265 0
M  V30 3185 H 298.902 -3.28916 -2.5486 0
M  V30 3186 H 297.778 -4.05266 -3.70204 0
M  V30 3187 H 298.039 -2.31676 -3.76535 0
M  V30 3188 N 297.098 0.621204 -1.44841 0
M  V30 3189 C 298.347 1.37658 -1.47422 0
M  V30 3190 C 298.66 1.95264 -0.114629 0
M  V30 3191 O 299.866 2.71494 -0.0180199 0
M  V30 3192 C 298.322 2.49285 -2.59586 0
M  V30 3193 C 297.93 1.98149 -4.01797 0
M  V30 3194 C 299.674 3.26409 -2.71399 0
M  V30 3195 C 297.581 3.07178 -5.05367 0
M  V30 3196 H 296.511 0.517344 -0.548517 0
M  V30 3197 H 299.162 0.667257 -1.70938 0
M  V30 3198 H 297.544 3.22839 -2.29328 0
M  V30 3199 H 298.718 1.31395 -4.41669 0
M  V30 3200 H 297.033 1.33812 -3.94314 0
M  V30 3201 H 299.63 4.07706 -3.45948 0
M  V30 3202 H 299.973 3.76535 -1.77559 0
M  V30 3203 H 300.506 2.5995 -3.01116 0
M  V30 3204 H 297.245 2.61985 -6.00869 0
M  V30 3205 H 296.765 3.72542 -4.70077 0
M  V30 3206 H 298.444 3.71789 -5.29511 0
M  V30 3207 N 298.576 1.31904 0.862503 0
M  V30 3208 C 299.506 1.22782 1.98612 0
M  V30 3209 C 300.487 0.113362 1.69722 0
M  V30 3210 O 301.672 0.299218 1.91881 0
M  V30 3211 C 298.802 0.942058 3.34279 0
M  V30 3212 C 297.756 2.0169 3.77499 0
M  V30 3213 C 297.082 1.58369 5.10709 0
M  V30 3214 C 298.382 3.43096 3.93805 0
M  V30 3215 H 300.076 2.16788 2.06502 0
M  V30 3216 H 297.622 1.04366 0.992154 0
M  V30 3217 H 299.575 0.864818 4.1243 0
M  V30 3218 H 298.299 -0.0336603 3.26583 0
M  V30 3219 H 296.958 2.08416 3.01593 0
M  V30 3220 H 296.606 0.595628 4.99461 0
M  V30 3221 H 296.306 2.30279 5.40597 0
M  V30 3222 H 297.83 1.52067 5.91361 0
M  V30 3223 H 299.244 3.39003 4.62331 0
M  V30 3224 H 297.641 4.13288 4.35101 0
M  V30 3225 H 298.711 3.83334 2.96957 0
M  V30 3226 N 300.054 -1.07777 1.14986 0
M  V30 3227 C 301.302 -1.79934 0.920235 0
M  V30 3228 C 301.623 -1.86955 -0.554336 0
M  V30 3229 O 300.893 -1.36731 -1.40291 0
M  V30 3230 H 299.473 -0.666424 0.337473 0
M  V30 3231 H 302.135 -1.3027 1.44968 0
M  V30 3232 H 301.231 -2.82539 1.32583 0
M  V30 3233 N 301.532 -0.945985 -1.26051 0
M  V30 3234 C 302.757 -0.612525 -1.98149 0
M  V30 3235 C 303.182 0.806623 -1.69927 0
M  V30 3236 O 302.54 1.54411 -0.950108 0
M  V30 3237 C 302.588 -0.866981 -3.50023 0
M  V30 3238 O 301.692 0.0585333 -4.12358 0
M  V30 3239 H 301.033 -0.23379 -0.621481 0
M  V30 3240 H 303.563 -1.27023 -1.60395 0
M  V30 3241 H 303.573 -0.789792 -4.00283 0
M  V30 3242 H 302.248 -1.90135 -3.69894 0
M  V30 3243 H 300.825 -0.0701241 -3.72834 0
M  V30 3244 N 303.011 1.40521 -0.713556 0
M  V30 3245 C 304.236 2.05759 -0.26035 0
M  V30 3246 C 304.661 1.53403 1.08854 0
M  V30 3247 O 304.019 0.668535 1.68524 0
M  V30 3248 C 304.067 3.59745 -0.248122 0
M  V30 3249 O 303.171 4.05123 0.77131 0
M  V30 3250 H 302.512 0.652564 -0.122703 0
M  V30 3251 H 305.042 1.79958 -0.973467 0
M  V30 3252 H 305.052 4.07911 -0.0851129 0
M  V30 3253 H 303.727 3.97218 -1.2325 0
M  V30 3254 H 302.304 3.68422 0.57619 0
M  V30 3255 N 304.489 0.459591 1.5075 0
M  V30 3256 C 305.399 -0.34613 2.32033 0
M  V30 3257 C 306.415 -1.00686 1.41909 0
M  V30 3258 O 307.591 -0.997361 1.7497 0
M  V30 3259 C 304.656 -1.42029 3.16273 0
M  V30 3260 C 303.717 -0.777362 4.22203 0
M  V30 3261 C 302.95 -1.80034 5.02418 0
M  V30 3262 O 303.173 -3.02544 4.83553 0
M  V30 3263 O 302.107 -1.37853 5.85901 0
M  V30 3264 H 305.933 0.318054 3.0203 0
M  V30 3265 H 303.518 0.221663 1.47746 0
M  V30 3266 H 305.4 -2.04275 3.68578 0
M  V30 3267 H 304.075 -2.06815 2.49016 0
M  V30 3268 H 302.982 -0.116256 3.73919 0
M  V30 3269 H 304.315 -0.172634 4.91897 0
M  V30 3270 N 305.967 -1.56429 0.191757 0
M  V30 3271 C 306.897 -2.21937 -0.725696 0
M  V30 3272 C 307.878 -1.1814 -1.2238 0
M  V30 3273 O 309.063 -1.46636 -1.27325 0
M  V30 3274 C 306.193 -2.87611 -1.94672 0
M  V30 3275 C 305.147 -3.97623 -1.58366 0
M  V30 3276 C 304.473 -4.50446 -2.88102 0
M  V30 3277 C 305.773 -5.16197 -0.796133 0
M  V30 3278 H 307.467 -2.98861 -0.179606 0
M  V30 3279 H 305.013 -1.43749 -0.0849464 0
M  V30 3280 H 306.966 -3.3212 -2.59373 0
M  V30 3281 H 305.69 -2.08087 -2.51728 0
M  V30 3282 H 304.349 -3.53801 -0.960247 0
M  V30 3283 H 303.997 -3.67688 -3.43241 0
M  V30 3284 H 303.697 -5.24675 -2.64556 0
M  V30 3285 H 305.221 -4.97654 -3.53798 0
M  V30 3286 H 306.635 -5.57271 -1.34618 0
M  V30 3287 H 305.032 -5.96471 -0.658928 0
M  V30 3288 H 306.102 -4.84473 0.203478 0
M  V30 3289 N 307.445 0.0818655 -1.57387 0
M  V30 3290 C 308.693 0.781368 -1.86384 0
M  V30 3291 C 309.014 1.78618 -0.782342 0
M  V30 3292 O 308.284 1.94976 0.190061 0
M  V30 3293 H 306.864 0.291562 -0.687751 0
M  V30 3294 H 309.526 0.060348 -1.94807 0
M  V30 3295 H 308.622 1.3038 -2.83562 0
M  V30 3296 N 308.923 1.53595 0.353017 0
M  V30 3297 C 309.853 1.83902 1.43883 0
M  V30 3298 C 310.834 0.693421 1.55324 0
M  V30 3299 O 312.019 0.944452 1.69687 0
M  V30 3300 C 309.149 2.04016 2.8106 0
M  V30 3301 C 308.103 3.19814 2.84434 0
M  V30 3302 C 307.429 3.25244 4.24406 0
M  V30 3303 C 308.729 4.58133 2.50822 0
M  V30 3304 H 310.423 2.74835 1.1877 0
M  V30 3305 H 307.969 1.32242 0.569917 0
M  V30 3306 H 309.922 2.238 3.57059 0
M  V30 3307 H 308.646 1.09804 3.07588 0
M  V30 3308 H 307.305 2.9987 2.10887 0
M  V30 3309 H 306.953 2.28646 4.48029 0
M  V30 3310 H 306.653 4.03054 4.27576 0
M  V30 3311 H 308.177 3.47228 5.0226 0
M  V30 3312 H 309.591 4.77995 3.16534 0
M  V30 3313 H 307.988 5.38276 2.6529 0
M  V30 3314 H 309.058 4.62387 1.46034 0
M  V30 3315 N 310.401 -0.613514 1.45168 0
M  V30 3316 C 311.629 -1.39946 1.5239 0
M  V30 3317 C 312.044 -1.88167 0.154531 0
M  V30 3318 O 311.401 -1.61872 -0.842843 0
M  V30 3319 C 311.452 -2.60795 2.50337 0
M  V30 3320 O 311.173 -2.1458 3.81952 0
M  V30 3321 C 312.674 -3.53723 2.67198 0
M  V30 3322 H 309.894 -0.428593 0.516284 0
M  V30 3323 H 312.438 -0.748753 1.903 0
M  V30 3324 H 310.593 -3.21919 2.15515 0
M  V30 3325 H 311.007 -2.93055 4.34993 0
M  V30 3326 H 312.481 -4.35079 3.39721 0
M  V30 3327 H 312.958 -4.0368 1.73029 0
M  V30 3328 H 313.564 -2.98456 3.02992 0
M  V30 3329 N 311.879 -1.3236 -0.855495 0
M  V30 3330 C 312.789 -1.23221 -1.99634 0
M  V30 3331 C 313.805 -0.145983 -1.73387 0
M  V30 3332 O 314.981 -0.366502 -1.98037 0
M  V30 3333 C 312.046 -0.954782 -3.33294 0
M  V30 3334 C 311.107 -2.12937 -3.72769 0
M  V30 3335 C 310.34 -1.86508 -5.00051 0
M  V30 3336 O 310.563 -0.807231 -5.64659 0
M  V30 3337 O 309.497 -2.72591 -5.36636 0
M  V30 3338 H 313.323 -2.19126 -2.1028 0
M  V30 3339 H 310.908 -1.12241 -0.986018 0
M  V30 3340 H 312.79 -0.816519 -4.13414 0
M  V30 3341 H 311.465 -0.0258854 -3.2369 0
M  V30 3342 H 310.372 -2.3231 -2.93228 0
M  V30 3343 H 311.705 -3.04102 -3.87018 0
M  V30 3344 N 313.357 1.07166 -1.15556 0
M  V30 3345 C 314.267 2.17947 -0.868116 0
M  V30 3346 C 315.283 1.73297 0.156297 0
M  V30 3347 O 316.459 2.01392 -0.0182327 0
M  V30 3348 C 313.524 3.44789 -0.36355 0
M  V30 3349 C 312.585 4.03996 -1.45209 0
M  V30 3350 C 311.818 5.24783 -0.971508 0
M  V30 3351 O 312.041 5.70109 0.182194 0
M  V30 3352 O 310.975 5.75715 -1.75603 0
M  V30 3353 H 314.801 2.4503 -1.79427 0
M  V30 3354 H 312.386 1.16539 -0.934824 0
M  V30 3355 H 314.268 4.21307 -0.0887113 0
M  V30 3356 H 312.943 3.19253 0.534708 0
M  V30 3357 H 311.85 3.29009 -1.78056 0
M  V30 3358 H 313.183 4.33808 -2.32533 0
M  V30 3359 N 314.835 0.952656 1.25548 0
M  V30 3360 C 315.745 0.47782 2.29682 0
M  V30 3361 C 316.761 -0.453859 1.67977 0
M  V30 3362 O 317.937 -0.330587 1.98668 0
M  V30 3363 C 315.002 -0.238655 3.45878 0
M  V30 3364 C 314.063 0.730994 4.23031 0
M  V30 3365 C 313.296 0.0486165 5.33678 0
M  V30 3366 O 313.519 -1.16612 5.58353 0
M  V30 3367 O 312.453 0.733152 5.97418 0
M  V30 3368 H 316.279 1.34312 2.72386 0
M  V30 3369 H 313.864 0.719026 1.30959 0
M  V30 3370 H 315.746 -0.641774 4.16484 0
M  V30 3371 H 314.421 -1.07916 3.05181 0
M  V30 3372 H 313.328 1.18428 3.5486 0
M  V30 3373 H 314.661 1.53946 4.67506 0
M  V30 3374 N 316.313 -1.40141 0.720998 0
M  V30 3375 C 317.559 -2.01084 0.263231 0
M  V30 3376 C 317.892 -1.57052 -1.14229 0
M  V30 3377 O 317.167 -0.793027 -1.77599 0
M  V30 3378 C 317.45 -3.58401 0.349344 0
M  V30 3379 C 317.303 -4.12491 1.79363 0
M  V30 3380 C 318.622 -4.39231 -0.276351 0
M  V30 3381 H 315.741 -0.730572 0.0971228 0
M  V30 3382 H 318.383 -1.66543 0.914518 0
M  V30 3383 H 316.533 -3.87958 -0.205165 0
M  V30 3384 H 318.205 -3.93711 2.40394 0
M  V30 3385 H 316.448 -3.66576 2.31958 0
M  V30 3386 H 317.119 -5.21646 1.80524 0
M  V30 3387 H 319.595 -4.15637 0.196184 0
M  V30 3388 H 318.471 -5.48586 -0.185681 0
M  V30 3389 H 318.732 -4.20643 -1.36059 0
M  V30 3390 N 317.792 -0.46758 -1.50504 0
M  V30 3391 C 318.702 0.33382 -2.32213 0
M  V30 3392 C 319.718 0.999323 -1.42441 0
M  V30 3393 O 320.894 0.988068 -1.75497 0
M  V30 3394 C 317.959 1.4035 -3.17022 0
M  V30 3395 C 317.02 0.754961 -4.2261 0
M  V30 3396 C 316.253 1.77367 -5.03365 0
M  V30 3397 O 316.476 2.99976 -4.8515 0
M  V30 3398 O 315.41 1.34744 -5.86624 0
M  V30 3399 H 319.236 -0.334067 -3.01857 0
M  V30 3400 H 316.821 -0.229496 -1.47627 0
M  V30 3401 H 318.703 2.02318 -3.69656 0
M  V30 3402 H 317.378 2.05492 -2.5011 0
M  V30 3403 H 316.285 0.0964244 -3.73976 0
M  V30 3404 H 317.618 0.146545 -4.91982 0
M  V30 3405 N 319.27 1.56325 -0.20005 0
M  V30 3406 C 320.218 2.20666 0.735482 0
M  V30 3407 C 321.212 1.17934 1.21605 0
M  V30 3408 O 322.418 1.36068 1.17837 0
M  V30 3409 H 318.793 0.70725 0.255542 0
M  V30 3410 H 320.764 2.9792 0.169166 0
M  V30 3411 C 319.513 2.88391 1.94232 0
M  V30 3412 H 318.836 3.67185 1.58161 0
M  V30 3413 H 320.276 3.3684 2.57517 0
M  V30 3414 C 318.735 1.89692 2.78421 0
M  V30 3415 O 319.265 1.40032 3.76502 0
M  V30 3416 N 317.471 1.57813 2.44015 0
M  V30 3417 H 317.018 1.9839 1.64314 0
M  V30 3418 H 316.976 0.920325 3.00628 0
M  V30 3419 N 320.748 -0.0735177 1.57428 0
M  V30 3420 C 321.681 -1.11932 1.98863 0
M  V30 3421 C 322.659 -1.37666 0.865266 0
M  V30 3422 O 323.843 -1.51068 1.12742 0
M  V30 3423 C 320.97 -2.46403 2.32386 0
M  V30 3424 C 320.016 -2.36815 3.54713 0
M  V30 3425 S 320.849 -1.76392 5.05614 0
M  V30 3426 C 322.005 -3.12444 5.42337 0
M  V30 3427 H 322.238 -0.766212 2.87257 0
M  V30 3428 H 319.771 -0.281987 1.51803 0
M  V30 3429 H 321.729 -3.23755 2.52375 0
M  V30 3430 H 320.39 -2.78876 1.44524 0
M  V30 3431 H 319.583 -3.35977 3.7568 0
M  V30 3432 H 319.185 -1.67598 3.34345 0
M  V30 3433 H 321.477 -4.08753 5.40303 0
M  V30 3434 H 322.42 -2.96258 6.43146 0
M  V30 3435 H 322.828 -3.1297 4.69798 0
M  V30 3436 N 322.226 -1.5378 -0.344866 0
M  V30 3437 C 323.503 -1.61589 -1.10219 0
M  V30 3438 C 323.883 -0.436316 -2.06542 0
M  V30 3439 O 323.231 0.571543 -2.21237 0
M  V30 3440 C 323.441 -2.97602 -1.82301 0
M  V30 3441 C 324.789 -3.5291 -2.36093 0
M  V30 3442 O 325.813 -2.99768 -1.924 0
M  V30 3443 O 324.672 -4.45859 -3.16026 0
M  V30 3444 H 321.766 -0.653522 -0.506792 0
M  V30 3445 H 324.312 -1.66126 -0.346465 0
M  V30 3446 H 323.084 -3.74893 -1.12121 0
M  V30 3447 H 322.707 -2.9665 -2.64735 0
M  V30 3448 N 323.704 0.605807 -1.45491 0
M  V30 3449 C 324.929 1.39625 -1.53361 0
M  V30 3450 C 325.354 1.87351 -0.167645 0
M  V30 3451 O 324.712 1.60243 0.848051 0
M  V30 3452 C 324.76 2.57559 -2.5238 0
M  V30 3453 O 323.864 3.58248 -2.04285 0
M  V30 3454 H 323.205 0.416771 -0.516912 0
M  V30 3455 H 325.735 0.737103 -1.90861 0
M  V30 3456 H 325.745 3.0478 -2.71244 0
M  V30 3457 H 324.42 2.22171 -3.51586 0
M  V30 3458 H 322.997 3.17664 -1.95305 0
M  V30 3459 N 325.182 1.32811 0.848464 0
M  V30 3460 C 326.428 1.23907 1.60546 0
M  V30 3461 C 326.761 -0.197161 1.93197 0
M  V30 3462 O 326.036 -1.13596 1.5788 0
M  V30 3463 C 326.319 2.10489 2.92175 0
M  V30 3464 C 326.172 3.62522 2.66266 0
M  V30 3465 C 327.491 1.97075 3.93509 0
M  V30 3466 H 324.61 0.451459 0.58254 0
M  V30 3467 H 327.252 1.62818 0.979296 0
M  V30 3468 H 325.402 1.77434 3.45614 0
M  V30 3469 H 327.074 4.05821 2.19334 0
M  V30 3470 H 325.317 3.84879 2.00126 0
M  V30 3471 H 325.988 4.18437 3.6002 0
M  V30 3472 H 328.464 2.26045 3.49346 0
M  V30 3473 H 327.34 2.59923 4.83457 0
M  V30 3474 H 327.601 0.940186 4.31987 0
M  V30 3475 N 326.66 -1.06551 1.16123 0
M  V30 3476 C 327.57 -2.17484 0.879662 0
M  V30 3477 C 328.586 -1.73377 -0.147104 0
M  V30 3478 O 329.762 -2.01379 0.0289128 0
M  V30 3479 C 326.827 -3.44591 0.381829 0
M  V30 3480 C 325.888 -4.0322 1.4735 0
M  V30 3481 C 325.121 -5.24261 0.999324 0
M  V30 3482 O 325.344 -5.70198 -0.151957 0
M  V30 3483 O 324.278 -5.74775 1.78653 0
M  V30 3484 H 328.104 -2.44075 1.80724 0
M  V30 3485 H 325.689 -1.16042 0.940992 0
M  V30 3486 H 327.571 -4.21254 0.111053 0
M  V30 3487 H 326.246 -3.19532 -0.51777 0
M  V30 3488 H 325.153 -3.2806 1.79798 0
M  V30 3489 H 326.486 -4.32568 2.34831 0
M  V30 3490 N 328.138 -0.959301 -1.25041 0
M  V30 3491 C 329.068 -0.501388 -2.28053 0
M  V30 3492 C 330.049 0.454673 -1.63911 0
M  V30 3493 O 331.234 0.352618 -1.90972 0
M  V30 3494 C 328.364 0.217224 -3.4662 0
M  V30 3495 C 327.318 -0.654034 -4.22973 0
M  V30 3496 C 326.644 0.195589 -5.34342 0
M  V30 3497 C 327.944 -1.93447 -4.85155 0
M  V30 3498 H 329.638 -1.36238 -2.66608 0
M  V30 3499 H 327.184 -0.656534 -1.28163 0
M  V30 3500 H 329.137 0.548732 -4.17812 0
M  V30 3501 H 327.861 1.1125 -3.07068 0
M  V30 3502 H 326.52 -0.968693 -3.5357 0
M  V30 3503 H 326.168 1.09076 -4.91031 0
M  V30 3504 H 325.868 -0.384091 -5.86343 0
M  V30 3505 H 327.392 0.521958 -6.08365 0
M  V30 3506 H 328.806 -1.66908 -5.48466 0
M  V30 3507 H 327.203 -2.46018 -5.47353 0
M  V30 3508 H 328.273 -2.63466 -4.07079 0
M  V30 3509 N 329.616 1.39756 -0.72842 0
M  V30 3510 C 331.032 1.5442 -0.403308 0
M  V30 3511 C 331.232 1.69694 1.08656 0
M  V30 3512 O 330.288 1.69373 1.87267 0
M  V30 3513 C 331.601 2.76555 -1.18058 0
M  V30 3514 C 333.149 2.90384 -1.16815 0
M  V30 3515 C 333.624 4.15449 -1.92785 0
M  V30 3516 N 335.115 4.22475 -1.89918 0
M  V30 3517 C 335.85 5.1818 -2.45514 0
M  V30 3518 N 335.346 6.19714 -3.09719 0
M  V30 3519 N 337.139 5.1035 -2.35584 0
M  V30 3520 H 329.29 1.28089 -1.69431 0
M  V30 3521 H 331.553 0.620327 -0.716867 0
M  V30 3522 H 331.259 2.7159 -2.23455 0
M  V30 3523 H 331.133 3.69033 -0.780662 0
M  V30 3524 H 333.52 2.94846 -0.12234 0
M  V30 3525 H 333.601 1.98988 -1.6074 0
M  V30 3526 H 333.245 4.11749 -2.97364 0
M  V30 3527 H 333.175 5.05877 -1.46272 0
M  V30 3528 H 335.666 3.49743 -1.43138 0
M  V30 3529 H 335.979 6.8919 -3.49625 0
M  V30 3530 H 334.324 6.20121 -3.13807 0
M  V30 3531 H 337.515 4.2996 -1.85072 0
M  V30 3532 H 337.688 5.84761 -2.79211 0
M  V30 3533 N 331.094 0.475555 1.50254 0
M  V30 3534 C 332.004 -0.321501 2.32387 0
M  V30 3535 C 333.02 -0.991755 1.42969 0
M  V30 3536 O 334.196 -0.978747 1.76018 0
M  V30 3537 C 331.261 -1.38667 3.17762 0
M  V30 3538 C 330.322 -0.732538 4.23004 0
M  V30 3539 C 329.555 -1.74695 5.04299 0
M  V30 3540 O 329.778 -2.97399 4.86734 0
M  V30 3541 O 328.712 -1.31631 5.8733 0
M  V30 3542 H 332.538 0.350071 3.01676 0
M  V30 3543 H 330.123 0.237321 1.47503 0
M  V30 3544 H 332.005 -2.00354 3.70724 0
M  V30 3545 H 330.68 -2.04163 2.51196 0
M  V30 3546 H 329.587 -0.0765902 3.74022 0
M  V30 3547 H 330.92 -0.120452 4.92053 0
M  V30 3548 N 332.573 -1.56217 0.208337 0
M  V30 3549 C 333.52 -2.19699 -0.707192 0
M  V30 3550 C 334.49 -1.14836 -1.20008 0
M  V30 3551 O 335.675 -1.4314 -1.26157 0
M  V30 3552 C 332.815 -2.87061 -1.91546 0
M  V30 3553 C 331.928 -4.06483 -1.46271 0
M  V30 3554 C 331.063 -4.61665 -2.62752 0
M  V30 3555 C 330.102 -5.73417 -2.14147 0
M  V30 3556 N 329.239 -6.22948 -3.23853 0
M  V30 3557 H 334.079 -2.97575 -0.159111 0
M  V30 3558 H 331.616 -1.46948 -0.0667874 0
M  V30 3559 H 333.574 -3.24294 -2.62468 0
M  V30 3560 H 332.204 -2.11725 -2.43664 0
M  V30 3561 H 331.256 -3.74825 -0.648886 0
M  V30 3562 H 332.568 -4.87271 -1.06622 0
M  V30 3563 H 331.722 -5.01272 -3.41776 0
M  V30 3564 H 330.461 -3.80013 -3.05682 0
M  V30 3565 H 329.466 -5.33326 -1.33581 0
M  V30 3566 H 330.691 -6.56897 -1.72232 0
M  V30 3567 H 328.637 -5.44213 -3.6629 0
M  V30 3568 H 328.554 -6.98823 -2.88414 0
M  V30 3569 H 329.822 -6.6721 -4.03052 0
M  V30 3570 N 334.051 0.0651679 -1.57465 0
M  V30 3571 C 335.3 0.761916 -1.86756 0
M  V30 3572 C 335.613 1.78406 -0.801925 0
M  V30 3573 O 336.819 2.53084 -0.982885 0
M  V30 3574 C 335.275 1.40603 -3.31299 0
M  V30 3575 C 334.883 0.422115 -4.46007 0
M  V30 3576 C 336.627 2.08476 -3.69781 0
M  V30 3577 C 334.534 1.07252 -5.81593 0
M  V30 3578 H 333.464 0.288308 -0.696702 0
M  V30 3579 H 336.115 0.015344 -1.83494 0
M  V30 3580 H 334.497 2.20109 -3.29193 0
M  V30 3581 H 335.671 -0.343613 -4.59517 0
M  V30 3582 H 333.986 -0.152527 -4.16121 0
M  V30 3583 H 336.583 2.57925 -4.68379 0
M  V30 3584 H 336.926 2.88712 -2.99919 0
M  V30 3585 H 337.459 1.35792 -3.73905 0
M  V30 3586 H 334.198 0.310342 -6.54765 0
M  V30 3587 H 333.718 1.80895 -5.71872 0
M  V30 3588 H 335.397 1.59043 -6.27148 0
M  V30 3589 N 335.529 1.53961 0.336706 0
M  V30 3590 C 336.439 1.85432 1.43708 0
M  V30 3591 C 337.455 0.745053 1.57242 0
M  V30 3592 O 338.631 1.03804 1.72588 0
M  V30 3593 C 335.696 2.06349 2.78605 0
M  V30 3594 C 334.757 3.30191 2.74358 0
M  V30 3595 C 333.99 3.50101 4.02822 0
M  V30 3596 O 334.213 2.7371 5.00439 0
M  V30 3597 O 333.147 4.43547 4.06878 0
M  V30 3598 H 336.973 2.78975 1.20028 0
M  V30 3599 H 334.558 1.39701 0.52952 0
M  V30 3600 H 336.44 2.21513 3.58483 0
M  V30 3601 H 335.115 1.15995 3.02203 0
M  V30 3602 H 334.022 3.20425 1.93078 0
M  V30 3603 H 335.355 4.2056 2.55715 0
M  V30 3604 N 337.007 -0.598083 1.45811 0
M  V30 3605 C 338.253 -1.35882 1.50545 0
M  V30 3606 C 338.586 -1.93616 0.150445 0
M  V30 3607 O 337.861 -1.75604 -0.83628 0
M  V30 3608 C 338.144 -2.49966 2.59208 0
M  V30 3609 C 337.997 -1.97367 4.04186 0
M  V30 3610 C 339.316 -3.52068 2.64076 0
M  V30 3611 H 336.435 -0.492717 0.548087 0
M  V30 3612 H 339.077 -0.673319 1.77669 0
M  V30 3613 H 337.227 -3.08443 2.3621 0
M  V30 3614 H 338.899 -1.43466 4.38423 0
M  V30 3615 H 337.142 -1.283 4.14393 0
M  V30 3616 H 337.813 -2.79649 4.75921 0
M  V30 3617 H 340.289 -3.03448 2.84708 0
M  V30 3618 H 339.165 -4.2937 3.41954 0
M  V30 3619 H 339.426 -4.08304 1.69531 0
M  V30 3620 N 338.485 -1.33259 -0.841409 0
M  V30 3621 C 339.731 -1.24757 -1.59886 0
M  V30 3622 C 340.064 0.186913 -1.93298 0
M  V30 3623 O 339.339 1.12757 -1.5848 0
M  V30 3624 C 339.622 -2.12036 -2.91055 0
M  V30 3625 C 339.475 -3.63929 -2.6434 0
M  V30 3626 C 340.794 -1.9916 -3.92458 0
M  V30 3627 H 337.913 -0.454542 -0.580138 0
M  V30 3628 H 340.555 -1.63335 -0.970647 0
M  V30 3629 H 338.705 -1.79265 -3.44669 0
M  V30 3630 H 340.377 -4.06978 -2.17178 0
M  V30 3631 H 338.62 -3.85935 -1.98082 0
M  V30 3632 H 339.291 -4.20341 -3.57796 0
M  V30 3633 H 341.767 -2.27895 -3.48143 0
M  V30 3634 H 340.643 -2.62484 -4.82072 0
M  V30 3635 H 340.904 -0.963082 -4.31482 0
M  V30 3636 N 339.963 1.05934 -1.16686 0
M  V30 3637 C 341.379 1.30938 -0.912542 0
M  V30 3638 C 341.579 1.96803 0.432533 0
M  V30 3639 O 340.635 2.23693 1.17123 0
M  V30 3640 C 341.948 2.18649 -2.06429 0
M  V30 3641 C 343.496 2.32055 -2.10047 0
M  V30 3642 C 343.971 3.23122 -3.24586 0
M  V30 3643 N 345.462 3.30706 -3.24327 0
M  V30 3644 C 346.197 4.01273 -4.09594 0
M  V30 3645 N 345.693 4.74332 -5.04956 0
M  V30 3646 N 347.486 3.97361 -3.97569 0
M  V30 3647 H 339.637 0.615777 -2.03278 0
M  V30 3648 H 341.9 0.334077 -0.887185 0
M  V30 3649 H 341.606 1.77534 -3.03603 0
M  V30 3650 H 341.48 3.19252 -2.00894 0
M  V30 3651 H 343.867 2.72415 -1.13464 0
M  V30 3652 H 343.948 1.31107 -2.19647 0
M  V30 3653 H 343.592 2.83477 -4.2143 0
M  V30 3654 H 343.522 4.24057 -3.12223 0
M  V30 3655 H 346.013 2.78644 -2.55276 0
M  V30 3656 H 346.326 5.25716 -5.6643 0
M  V30 3657 H 344.671 4.733 -5.08933 0
M  V30 3658 H 347.862 3.39405 -3.22369 0
M  V30 3659 H 348.035 4.52089 -4.64241 0
M  V30 3660 N 341.441 0.965919 1.2453 0
M  V30 3661 C 342.389 0.486506 2.27455 0
M  V30 3662 C 343.383 -0.449041 1.6334 0
M  V30 3663 O 344.589 -0.324527 1.7705 0
M  V30 3664 H 340.964 0.138857 0.739069 0
M  V30 3665 H 342.935 1.3666 2.65267 0
M  V30 3666 C 341.684 -0.209481 3.47068 0
M  V30 3667 H 341.007 0.50129 3.96645 0
M  V30 3668 H 342.447 -0.508775 4.20936 0
M  V30 3669 C 340.906 -1.43586 3.0477 0
M  V30 3670 O 341.436 -2.53299 3.11773 0
M  V30 3671 N 339.642 -1.30126 2.59838 0
M  V30 3672 H 339.189 -0.408583 2.54339 0
M  V30 3673 H 339.147 -2.12294 2.31902 0
M  V30 3674 N 342.919 -1.39368 0.735821 0
M  V30 3675 C 344.335 -1.54204 0.411492 0
M  V30 3676 C 344.535 -1.70268 -1.07755 0
M  V30 3677 O 343.591 -1.70364 -1.86366 0
M  V30 3678 C 344.904 -2.75925 1.19523 0
M  V30 3679 C 346.452 -2.89761 1.18354 0
M  V30 3680 C 346.927 -4.14421 1.94986 0
M  V30 3681 N 348.418 -4.21462 1.92156 0
M  V30 3682 C 349.153 -5.16871 2.48258 0
M  V30 3683 N 348.649 -6.18063 3.13001 0
M  V30 3684 N 350.442 -5.09093 2.38287 0
M  V30 3685 H 342.593 -1.27189 1.70108 0
M  V30 3686 H 344.856 -0.616517 0.720147 0
M  V30 3687 H 344.562 -2.70401 2.24892 0
M  V30 3688 H 344.436 -3.68614 0.800222 0
M  V30 3689 H 346.823 -2.94777 0.137975 0
M  V30 3690 H 346.904 -1.98133 1.61793 0
M  V30 3691 H 346.548 -4.10166 2.99543 0
M  V30 3692 H 346.478 -5.05095 1.48953 0
M  V30 3693 H 348.969 -3.48979 1.44991 0
M  V30 3694 H 349.282 -6.87326 3.53275 0
M  V30 3695 H 347.627 -6.18448 3.17091 0
M  V30 3696 H 350.818 -4.28973 1.8735 0
M  V30 3697 H 350.991 -5.83272 2.82308 0
M  V30 3698 N 344.397 -0.483516 -1.5 0
M  V30 3699 C 345.644 0.0671597 -2.02389 0
M  V30 3700 C 345.972 1.38597 -1.36459 0
M  V30 3701 O 345.227 1.89634 -0.483458 0
M  V30 3702 C 345.526 0.286226 -3.56252 0
M  V30 3703 C 345.192 -0.952416 -4.40726 0
M  V30 3704 C 343.854 -1.29199 -4.63531 0
M  V30 3705 C 346.206 -1.77655 -4.89988 0
M  V30 3706 C 343.534 -2.45553 -5.32842 0
M  V30 3707 C 345.886 -2.93147 -5.60578 0
M  V30 3708 C 344.55 -3.27505 -5.81633 0
M  V30 3709 H 343.82 0.0245755 -0.740592 0
M  V30 3710 H 346.467 -0.640124 -1.80485 0
M  V30 3711 H 344.772 1.07587 -3.76739 0
M  V30 3712 H 346.469 0.726473 -3.94365 0
M  V30 3713 H 343.059 -0.677881 -4.23205 0
M  V30 3714 H 347.243 -1.52737 -4.72213 0
M  V30 3715 H 342.499 -2.72431 -5.47349 0
M  V30 3716 H 346.673 -3.57344 -5.97727 0
M  V30 3717 H 344.3 -4.1777 -6.35116 0
M  V30 3718 N 345.875 1.56104 -0.216619 0
M  V30 3719 C 347.121 1.98466 0.417033 0
M  V30 3720 C 347.454 1.10403 1.59765 0
M  V30 3721 O 346.729 0.160632 1.93836 0
M  V30 3722 C 347.012 3.49769 0.85637 0
M  V30 3723 C 346.865 4.48606 -0.327546 0
M  V30 3724 C 348.184 4.05339 1.7143 0
M  V30 3725 H 345.303 0.721551 0.150112 0
M  V30 3726 H 347.945 1.87423 -0.311864 0
M  V30 3727 H 346.095 3.5931 1.47745 0
M  V30 3728 H 347.767 4.5108 -0.965618 0
M  V30 3729 H 346.01 4.22682 -0.975805 0
M  V30 3730 H 346.681 5.51995 0.0227149 0
M  V30 3731 H 349.157 3.98712 1.19031 0
M  V30 3732 H 348.033 5.11533 1.99061 0
M  V30 3733 H 348.294 3.51918 2.67593 0
M  V30 3734 N 347.353 -0.0568162 1.57498 0
M  V30 3735 C 348.263 -1.08346 2.08083 0
M  V30 3736 C 349.279 -1.41439 1.01346 0
M  V30 3737 O 350.455 -1.51316 1.32912 0
M  V30 3738 C 347.52 -2.37352 2.52715 0
M  V30 3739 C 346.581 -2.11093 3.73816 0
M  V30 3740 C 345.814 -3.33949 4.1631 0
M  V30 3741 O 346.037 -4.43622 3.58547 0
M  V30 3742 O 344.971 -3.21279 5.08983 0
M  V30 3743 H 348.797 -0.683667 2.95905 0
M  V30 3744 H 346.382 -0.271965 1.46904 0
M  V30 3745 H 348.264 -3.13246 2.81877 0
M  V30 3746 H 346.939 -2.76681 1.68016 0
M  V30 3747 H 345.846 -1.32856 3.49714 0
M  V30 3748 H 347.179 -1.76637 4.59413 0
M  V30 3749 N 348.832 -1.54138 -0.328536 0
M  V30 3750 C 349.78 -1.83894 -1.42428 0
M  V30 3751 C 350.774 -0.710478 -1.53781 0
M  V30 3752 O 351.98 -0.894062 -1.56226 0
M  V30 3753 H 348.355 -0.582837 -0.475189 0
M  V30 3754 H 350.326 -2.75537 -1.14552 0
M  V30 3755 C 349.075 -2.07866 -2.78724 0
M  V30 3756 H 348.398 -2.94158 -2.7076 0
M  V30 3757 H 349.838 -2.32644 -3.54476 0
M  V30 3758 C 348.297 -0.868689 -3.25508 0
M  V30 3759 O 348.827 -0.0754908 -4.01629 0
M  V30 3760 N 347.033 -0.681711 -2.82491 0
M  V30 3761 H 346.58 -1.32838 -2.20708 0
M  V30 3762 H 346.538 0.126374 -3.14146 0
M  V30 3763 N 350.31 0.590341 -1.46126 0
M  V30 3764 C 351.558 1.34616 -1.50742 0
M  V30 3765 C 351.879 1.94363 -0.157486 0
M  V30 3766 O 351.149 1.78136 0.815136 0
M  V30 3767 H 349.729 0.499789 -0.555175 0
M  V30 3768 H 352.391 0.691953 -1.82203 0
M  V30 3769 H 351.487 2.15678 -2.25587 0
M  V30 3770 N 351.788 1.33704 0.83433 0
M  V30 3771 C 352.751 1.24244 1.92603 0
M  V30 3772 C 353.751 0.160383 1.59998 0
M  V30 3773 O 354.941 0.412228 1.69252 0
M  V30 3774 C 352.073 0.91555 3.28376 0
M  V30 3775 H 353.266 2.21287 2.02416 0
M  V30 3776 H 350.819 1.17827 1.02696 0
M  V30 3777 H 351.554 -0.0521886 3.24258 0
M  V30 3778 H 351.339 1.69811 3.53422 0
M  V30 3779 H 352.829 0.874231 4.08347 0
M  V30 3780 N 353.266 -1.05314 1.17247 0
M  V30 3781 C 354.216 -2.11313 0.856196 0
M  V30 3782 C 355.2 -1.60013 -0.168694 0
M  V30 3783 O 356.392 -1.76968 0.0335624 0
M  V30 3784 C 353.521 -3.41301 0.369917 0
M  V30 3785 C 352.607 -3.99401 1.42616 0
M  V30 3786 N 352.998 -4.31481 2.63928 0
M  V30 3787 C 351.296 -4.27126 1.28373 0
M  V30 3788 C 351.997 -4.77799 3.31787 0
M  V30 3789 N 350.973 -4.77843 2.59166 0
M  V30 3790 H 354.775 -2.33976 1.77856 0
M  V30 3791 H 352.289 -1.2295 1.06099 0
M  V30 3792 H 354.286 -4.16713 0.124897 0
M  V30 3793 H 352.946 -3.20072 -0.546253 0
M  V30 3794 H 353.957 -4.21519 3.00902 0
M  V30 3795 H 350.634 -4.15289 0.429111 0
M  V30 3796 H 352.024 -5.11743 4.35395 0
M  V30 3797 N 354.744 -0.972509 -1.24016 0
M  V30 3798 C 355.991 -0.637034 -1.92219 0
M  V30 3799 C 356.319 0.828418 -1.75976 0
M  V30 3800 O 355.574 1.61206 -1.10955 0
M  V30 3801 C 355.873 -0.963694 -3.44162 0
M  V30 3802 C 355.539 -2.41807 -3.80579 0
M  V30 3803 C 354.201 -2.81556 -3.9023 0
M  V30 3804 C 356.553 -3.36172 -3.98293 0
M  V30 3805 C 353.881 -4.14702 -4.15017 0
M  V30 3806 C 356.233 -4.68952 -4.24578 0
M  V30 3807 C 354.897 -5.08472 -4.32449 0
M  V30 3808 H 354.167 -0.233107 -0.703379 0
M  V30 3809 H 356.814 -1.2249 -1.47202 0
M  V30 3810 H 355.119 -0.29365 -3.90698 0
M  V30 3811 H 356.816 -0.682449 -3.9515 0
M  V30 3812 H 353.406 -2.09988 -3.73635 0
M  V30 3813 H 357.59 -3.06644 -3.90234 0
M  V30 3814 H 352.846 -4.4494 -4.19331 0
M  V30 3815 H 357.02 -5.42037 -4.37229 0
M  V30 3816 H 354.647 -6.11665 -4.51409 0
M  V30 3817 N 356.222 1.38976 -0.743202 0
M  V30 3818 C 357.45 2.04636 -0.30525 0
M  V30 3819 C 357.865 1.56044 1.06281 0
M  V30 3820 O 357.222 0.728921 1.67311 0
M  V30 3821 C 357.273 3.60193 -0.307177 0
M  V30 3822 O 356.994 4.06998 -1.62124 0
M  V30 3823 C 358.495 4.4306 0.145928 0
M  V30 3824 H 355.715 0.65788 -0.132041 0
M  V30 3825 H 358.259 1.77866 -1.00915 0
M  V30 3826 H 356.414 3.85835 0.347898 0
M  V30 3827 H 356.828 5.01371 -1.54036 0
M  V30 3828 H 358.302 5.51921 0.0934183 0
M  V30 3829 H 358.779 4.22706 1.19231 0
M  V30 3830 H 359.385 4.22584 -0.479886 0
M  V30 3831 N 357.7 0.491464 1.49741 0
M  V30 3832 C 358.949 -0.0582189 2.01616 0
M  V30 3833 C 359.262 -1.38927 1.3769 0
M  V30 3834 O 360.468 -2.02509 1.80838 0
M  V30 3835 C 358.924 -0.154235 3.59569 0
M  V30 3836 C 358.532 1.1696 4.32463 0
M  V30 3837 C 360.276 -0.65479 4.1942 0
M  V30 3838 C 358.183 1.03627 5.8225 0
M  V30 3839 H 357.113 -0.0255317 0.753568 0
M  V30 3840 H 359.764 0.629445 1.72367 0
M  V30 3841 H 358.146 -0.906138 3.85493 0
M  V30 3842 H 359.32 1.93405 4.18248 0
M  V30 3843 H 357.635 1.60285 3.84315 0
M  V30 3844 H 360.232 -0.771903 5.29099 0
M  V30 3845 H 360.575 -1.65127 3.8215 0
M  V30 3846 H 361.108 0.040304 3.9778 0
M  V30 3847 H 357.847 2.00672 6.24028 0
M  V30 3848 H 357.367 0.312546 5.98985 0
M  V30 3849 H 359.046 0.711114 6.4308 0
M  V30 3850 N 359.178 -1.55987 0.224894 0
M  V30 3851 C 360.088 -2.24066 -0.69511 0
M  V30 3852 C 361.104 -1.24939 -1.21104 0
M  V30 3853 O 362.28 -1.5776 -1.25195 0
M  V30 3854 C 359.345 -2.90983 -1.88493 0
M  V30 3855 C 358.406 -4.05462 -1.41064 0
M  V30 3856 C 357.639 -4.69179 -2.54375 0
M  V30 3857 O 357.862 -4.31895 -3.72589 0
M  V30 3858 O 356.796 -5.58108 -2.25386 0
M  V30 3859 H 360.622 -3.03353 -0.145149 0
M  V30 3860 H 358.207 -1.49399 -0.00569476 0
M  V30 3861 H 360.089 -3.33209 -2.57972 0
M  V30 3862 H 358.764 -2.14653 -2.42293 0
M  V30 3863 H 357.671 -3.67798 -0.683774 0
M  V30 3864 H 359.004 -4.83545 -0.918985 0
M  V30 3865 N 360.656 0.0484629 -1.57525 0
M  V30 3866 C 361.884 0.755421 -1.92616 0
M  V30 3867 C 362.299 1.69919 -0.822984 0
M  V30 3868 O 361.656 1.81378 0.202085 0
M  V30 3869 C 361.707 1.52915 -3.27566 0
M  V30 3870 O 361.428 0.62329 -4.33644 0
M  V30 3871 C 362.929 2.33502 -3.76818 0
M  V30 3872 H 360.149 0.213465 -0.63614 0
M  V30 3873 H 362.693 0.0117698 -2.04497 0
M  V30 3874 H 360.848 2.22486 -3.17142 0
M  V30 3875 H 361.262 1.16383 -5.11425 0
M  V30 3876 H 362.736 2.83214 -4.73808 0
M  V30 3877 H 363.213 3.14068 -3.07014 0
M  V30 3878 H 363.819 1.69043 -3.90262 0
M  V30 3879 N 362.134 1.5431 0.320358 0
M  V30 3880 C 363.067 1.78769 1.41834 0
M  V30 3881 C 364.045 0.63783 1.49568 0
M  V30 3882 O 365.229 0.875628 1.66928 0
M  V30 3883 C 362.356 1.90712 2.79905 0
M  V30 3884 C 361.402 3.13023 2.89687 0
M  V30 3885 S 362.235 4.71554 2.53766 0
M  V30 3886 C 363.391 4.86408 3.93902 0
M  V30 3887 H 363.624 2.71619 1.20874 0
M  V30 3888 H 361.157 1.45474 0.517377 0
M  V30 3889 H 363.115 1.98279 3.59438 0
M  V30 3890 H 361.776 0.988343 2.98145 0
M  V30 3891 H 360.969 3.18124 3.90913 0
M  V30 3892 H 360.571 3.03803 2.18128 0
M  V30 3893 H 362.863 4.69241 4.88691 0
M  V30 3894 H 363.806 5.88508 3.93782 0
M  V30 3895 H 364.214 4.14689 3.83005 0
M  V30 3896 N 363.613 -0.582584 1.46437 0
M  V30 3897 C 364.545 -1.70618 1.53043 0
M  V30 3898 C 365.558 -1.57322 0.418769 0
M  V30 3899 O 366.747 -1.64744 0.687136 0
M  V30 3900 C 363.847 -3.08869 1.39474 0
M  V30 3901 C 363.02 -3.48166 2.64762 0
M  V30 3902 C 362.079 -4.65478 2.4539 0
M  V30 3903 O 361.105 -4.71333 3.19114 0
M  V30 3904 N 362.307 -5.60365 1.51564 0
M  V30 3905 H 365.072 -1.65405 2.49923 0
M  V30 3906 H 362.633 -0.768567 1.42494 0
M  V30 3907 H 364.625 -3.85143 1.24287 0
M  V30 3908 H 363.195 -3.08449 0.507758 0
M  V30 3909 H 362.415 -2.61598 2.9489 0
M  V30 3910 H 363.703 -3.71188 3.4799 0
M  V30 3911 H 363.101 -5.5837 0.907705 0
M  V30 3912 H 361.658 -6.36068 1.4234 0
M  V30 3913 N 365.091 -1.34144 -0.827227 0
M  V30 3914 C 366.001 -1.27428 -1.96975 0
M  V30 3915 C 367.017 -0.182728 -1.73038 0
M  V30 3916 O 368.193 -0.408426 -1.97215 0
M  V30 3917 C 365.258 -1.02526 -3.31194 0
M  V30 3918 C 364.319 -2.20796 -3.68168 0
M  V30 3919 C 363.552 -1.97073 -4.95982 0
M  V30 3920 O 363.775 -0.926822 -5.6282 0
M  V30 3921 O 362.709 -2.83912 -5.30733 0
M  V30 3922 H 366.535 -2.23537 -2.05584 0
M  V30 3923 H 364.12 -1.14307 -0.961989 0
M  V30 3924 H 366.002 -0.904026 -4.11589 0
M  V30 3925 H 364.677 -0.0945389 -3.23562 0
M  V30 3926 H 363.584 -2.38477 -2.88235 0
M  V30 3927 H 364.917 -3.12243 -3.8048 0
M  V30 3928 N 366.569 1.04691 -1.17803 0
M  V30 3929 C 367.499 2.14494 -0.92275 0
M  V30 3930 C 368.48 1.69546 0.137179 0
M  V30 3931 O 369.665 1.94195 -0.0141108 0
M  V30 3932 C 366.795 3.44491 -0.440803 0
M  V30 3933 C 365.749 4.03031 -1.4405 0
M  V30 3934 C 365.075 5.28432 -0.81631 0
M  V30 3935 C 366.375 4.39932 -2.81527 0
M  V30 3936 H 368.069 2.36107 -1.84103 0
M  V30 3937 H 365.615 1.1347 -0.886599 0
M  V30 3938 H 367.568 4.2066 -0.249602 0
M  V30 3939 H 366.292 3.22546 0.513025 0
M  V30 3940 H 364.951 3.28937 -1.61853 0
M  V30 3941 H 364.599 5.02792 0.144511 0
M  V30 3942 H 364.299 5.68559 -1.48371 0
M  V30 3943 H 365.823 6.07284 -0.635496 0
M  V30 3944 H 367.237 5.07113 -2.67412 0
M  V30 3945 H 365.634 4.9109 -3.44892 0
M  V30 3946 H 366.704 3.50045 -3.35554 0
M  V30 3947 N 368.047 0.979072 1.23499 0
M  V30 3948 C 368.957 0.526431 2.28617 0
M  V30 3949 C 369.973 -0.418126 1.68901 0
M  V30 3950 O 371.149 -0.288372 1.99325 0
M  V30 3951 C 368.214 -0.165235 3.46306 0
M  V30 3952 C 367.275 0.82056 4.21385 0
M  V30 3953 C 366.508 0.161807 5.33455 0
M  V30 3954 O 366.731 -1.04742 5.60701 0
M  V30 3955 O 365.665 0.859708 5.95729 0
M  V30 3956 H 369.491 1.4006 2.69475 0
M  V30 3957 H 367.076 0.746643 1.29405 0
M  V30 3958 H 368.958 -0.553287 4.17752 0
M  V30 3959 H 367.633 -1.01419 3.07402 0
M  V30 3960 H 366.54 1.25929 3.52268 0
M  V30 3961 H 367.873 1.63828 4.64135 0
M  V30 3962 N 369.525 -1.3858 0.750561 0
M  V30 3963 C 370.75 -2.04997 0.314812 0
M  V30 3964 C 371.175 -1.56235 -1.04749 0
M  V30 3965 O 370.533 -0.712981 -1.66692 0
M  V30 3966 C 370.581 -3.58961 0.343415 0
M  V30 3967 O 369.685 -4.07025 -0.663628 0
M  V30 3968 H 369.026 -0.649081 0.139962 0
M  V30 3969 H 371.556 -1.77313 1.02084 0
M  V30 3970 H 371.566 -4.07542 0.193233 0
M  V30 3971 H 370.241 -3.93811 1.33738 0
M  V30 3972 H 368.818 -3.6982 -0.478307 0
M  V30 3973 N 371.003 -0.499398 -1.49478 0
M  V30 3974 C 372.249 0.0457576 -2.02748 0
M  V30 3975 C 372.582 1.36793 -1.37846 0
M  V30 3976 O 371.857 1.87596 -0.513601 0
M  V30 3977 C 372.14 0.199986 -3.59544 0
M  V30 3978 C 371.993 -1.1452 -4.34977 0
M  V30 3979 C 373.312 0.94137 -4.29914 0
M  V30 3980 H 370.431 0.0151552 -0.736844 0
M  V30 3981 H 373.073 -0.650498 -1.78518 0
M  V30 3982 H 371.223 0.793007 -3.8032 0
M  V30 3983 H 372.895 -1.77697 -4.25701 0
M  V30 3984 H 371.138 -1.73488 -3.97598 0
M  V30 3985 H 371.809 -0.990607 -5.43039 0
M  V30 3986 H 374.285 0.43844 -4.13784 0
M  V30 3987 H 373.161 1.01812 -5.39375 0
M  V30 3988 H 373.422 1.98471 -3.95046 0
M  V30 3989 N 372.481 1.55866 -0.233164 0
M  V30 3990 C 373.414 2.16794 0.712442 0
M  V30 3991 C 374.392 1.1158 1.18273 0
M  V30 3992 O 375.576 1.39897 1.26337 0
M  V30 3993 C 372.703 2.75757 1.96661 0
M  V30 3994 C 371.749 3.93902 1.63533 0
M  V30 3995 S 372.582 5.30223 0.74995 0
M  V30 3996 C 373.738 5.92631 2.01343 0
M  V30 3997 H 373.971 2.96662 0.194617 0
M  V30 3998 H 371.504 1.5439 -0.0177425 0
M  V30 3999 H 373.462 3.10367 2.68668 0
M  V30 4000 H 372.123 1.9586 2.45556 0
M  V30 4001 H 371.316 4.33702 2.56747 0
M  V30 4002 H 370.918 3.60499 0.995804 0
M  V30 4003 H 373.21 6.09312 2.96219 0
M  V30 4004 H 374.153 6.88388 1.65915 0
M  V30 4005 H 374.561 5.21571 2.15925 0
M  V30 4006 N 373.959 -0.0401083 1.57549 0
M  V30 4007 C 374.869 -1.06133 2.0922 0
M  V30 4008 C 375.885 -1.40356 1.0284 0
M  V30 4009 O 377.061 -1.49897 1.34509 0
M  V30 4010 C 374.126 -2.34658 2.55218 0
M  V30 4011 C 373.187 -2.07117 3.76033 0
M  V30 4012 C 372.42 -3.29514 4.19829 0
M  V30 4013 O 372.643 -4.39794 3.63232 0
M  V30 4014 O 371.577 -3.15863 5.12362 0
M  V30 4015 H 375.403 -0.652244 2.96613 0
M  V30 4016 H 372.988 -0.256368 1.47184 0
M  V30 4017 H 374.87 -3.10239 2.85184 0
M  V30 4018 H 373.545 -2.74883 1.70941 0
M  V30 4019 H 372.452 -1.29139 3.51104 0
M  V30 4020 H 373.785 -1.71754 4.61261 0
M  V30 4021 N 375.437 -1.54477 -0.31217 0
M  V30 4022 C 376.387 -1.81037 -1.38598 0
M  V30 4023 C 377.371 -0.666941 -1.46426 0
M  V30 4024 O 378.563 -0.927269 -1.50767 0
M  V30 4025 C 375.692 -2.05127 -2.75277 0
M  V30 4026 C 374.778 -3.25624 -2.71716 0
M  V30 4027 N 375.169 -4.46428 -2.37773 0
M  V30 4028 C 373.467 -3.27427 -3.02833 0
M  V30 4029 C 374.168 -5.28406 -2.43232 0
M  V30 4030 N 373.144 -4.6586 -2.80135 0
M  V30 4031 H 376.946 -2.7201 -1.11301 0
M  V30 4032 H 374.46 -1.53826 -0.520705 0
M  V30 4033 H 376.457 -2.22299 -3.52688 0
M  V30 4034 H 375.117 -1.15416 -3.03495 0
M  V30 4035 H 376.128 -4.73227 -2.1042 0
M  V30 4036 H 372.805 -2.47786 -3.36018 0
M  V30 4037 H 374.195 -6.34903 -2.19882 0
M  V30 4038 N 376.915 0.57481 -1.46744 0
M  V30 4039 C 378.164 1.32898 -1.51727 0
M  V30 4040 C 378.477 1.948 -0.176692 0
M  V30 4041 O 379.683 2.71299 -0.104385 0
M  V30 4042 C 378.139 2.40901 -2.67385 0
M  V30 4043 C 377.747 1.85266 -4.07898 0
M  V30 4044 C 379.491 3.17609 -2.81646 0
M  V30 4045 C 377.398 2.90945 -5.14883 0
M  V30 4046 H 376.328 0.499631 -0.564699 0
M  V30 4047 H 378.979 0.612536 -1.72975 0
M  V30 4048 H 377.361 3.15379 -2.39483 0
M  V30 4049 H 378.535 1.17278 -4.45626 0
M  V30 4050 H 376.85 1.21199 -3.98371 0
M  V30 4051 H 379.447 3.96493 -3.58744 0
M  V30 4052 H 379.79 3.70696 -1.89448 0
M  V30 4053 H 380.323 2.50239 -3.09233 0
M  V30 4054 H 377.062 2.42736 -6.089 0
M  V30 4055 H 376.582 3.57398 -4.81691 0
M  V30 4056 H 378.261 3.54755 -5.41071 0
M  V30 4057 N 378.394 1.34581 0.820102 0
M  V30 4058 C 379.304 1.28471 1.96297 0
M  V30 4059 C 380.32 0.191902 1.72939 0
M  V30 4060 O 381.496 0.418879 1.96996 0
M  V30 4061 C 378.561 1.04281 3.30645 0
M  V30 4062 C 377.622 2.22745 3.66992 0
M  V30 4063 C 376.855 1.997 4.9493 0
M  V30 4064 O 377.078 0.956656 5.6232 0
M  V30 4065 O 376.012 2.86723 5.2922 0
M  V30 4066 H 379.838 2.24624 2.04396 0
M  V30 4067 H 377.423 1.14816 0.955913 0
M  V30 4068 H 379.305 0.925841 4.11104 0
M  V30 4069 H 377.98 0.111697 3.23507 0
M  V30 4070 H 376.887 2.40003 2.86966 0
M  V30 4071 H 378.22 3.14257 3.78819 0
M  V30 4072 N 379.872 -1.04064 1.18357 0
M  V30 4073 C 380.819 -2.12077 0.910603 0
M  V30 4074 C 381.789 -1.65421 -0.15 0
M  V30 4075 O 382.974 -1.90797 -0.0103614 0
M  V30 4076 C 380.114 -3.42252 0.442472 0
M  V30 4077 C 379.227 -4.0252 1.5685 0
M  V30 4078 C 378.362 -5.20657 1.05309 0
M  V30 4079 C 377.401 -5.72955 2.1538 0
M  V30 4080 N 376.538 -6.8238 1.65233 0
M  V30 4081 H 381.378 -2.34764 1.83548 0
M  V30 4082 H 378.915 -1.15157 0.915279 0
M  V30 4083 H 380.873 -4.16921 0.152534 0
M  V30 4084 H 379.503 -3.19712 -0.445428 0
M  V30 4085 H 378.555 -3.25178 1.97391 0
M  V30 4086 H 379.867 -4.37362 2.39824 0
M  V30 4087 H 379.021 -6.0244 0.717677 0
M  V30 4088 H 377.76 -4.87318 0.19293 0
M  V30 4089 H 376.765 -4.89793 2.49766 0
M  V30 4090 H 377.99 -6.08337 3.01832 0
M  V30 4091 H 375.936 -6.50917 0.815064 0
M  V30 4092 H 375.853 -7.16286 2.41805 0
M  V30 4093 H 377.121 -7.67788 1.34619 0
M  V30 4094 N 381.35 -0.985608 -1.22978 0
M  V30 4095 C 382.282 -0.488154 -2.23941 0
M  V30 4096 C 383.295 0.41282 -1.57479 0
M  V30 4097 O 384.484 0.216121 -1.77187 0
M  V30 4098 C 381.584 0.312611 -3.37455 0
M  V30 4099 C 380.757 -0.582741 -4.33501 0
M  V30 4100 C 379.816 0.165064 -5.25941 0
M  V30 4101 O 378.842 -0.447077 -5.67442 0
M  V30 4102 N 380.044 1.44953 -5.62111 0
M  V30 4103 H 382.809 -1.3563 -2.67254 0
M  V30 4104 H 380.37 -0.859477 -1.37203 0
M  V30 4105 H 382.362 0.821357 -3.96277 0
M  V30 4106 H 380.932 1.0818 -2.93285 0
M  V30 4107 H 380.152 -1.27225 -3.73105 0
M  V30 4108 H 381.44 -1.19275 -4.94622 0
M  V30 4109 H 380.838 1.9683 -5.30353 0
M  V30 4110 H 379.395 1.90361 -6.23383 0
M  V30 4111 N 382.828 1.3818 -0.7579 0
M  V30 4112 C 383.738 2.3421 -0.135247 0
M  V30 4113 C 384.754 1.59487 0.695683 0
M  V30 4114 O 385.93 1.91657 0.618832 0
M  V30 4115 C 382.995 3.3862 0.744139 0
M  V30 4116 C 382.056 4.2918 -0.101658 0
M  V30 4117 C 381.289 5.28603 0.735851 0
M  V30 4118 O 381.512 5.35166 1.97366 0
M  V30 4119 O 380.446 6.01707 0.152372 0
M  V30 4120 H 384.272 2.8916 -0.928436 0
M  V30 4121 H 381.857 1.40101 -0.518855 0
M  V30 4122 H 383.739 4.02539 1.2466 0
M  V30 4123 H 382.414 2.86019 1.51575 0
M  V30 4124 H 381.321 3.68407 -0.650167 0
M  V30 4125 H 382.654 4.85048 -0.836024 0
M  V30 4126 N 384.306 0.507319 1.49211 0
M  V30 4127 C 385.236 -0.256939 2.32082 0
M  V30 4128 C 386.217 -0.956609 1.40652 0
M  V30 4129 O 387.402 -0.946788 1.69557 0
M  V30 4130 C 384.532 -1.31802 3.21318 0
M  V30 4131 C 383.486 -0.737855 4.21592 0
M  V30 4132 C 382.812 -1.89992 4.99807 0
M  V30 4133 C 384.112 0.275325 5.21574 0
M  V30 4134 H 385.806 0.434798 2.96226 0
M  V30 4135 H 383.352 0.210546 1.42452 0
M  V30 4136 H 385.305 -1.86045 3.78107 0
M  V30 4137 H 384.029 -2.03903 2.5513 0
M  V30 4138 H 382.688 -0.217126 3.65956 0
M  V30 4139 H 382.336 -2.60877 4.30061 0
M  V30 4140 H 382.036 -1.51777 5.6766 0
M  V30 4141 H 383.56 -2.44657 5.59442 0
M  V30 4142 H 384.974 -0.179193 5.7302 0
M  V30 4143 H 383.371 0.573649 5.97352 0
M  V30 4144 H 384.441 1.18903 4.70096 0
M  V30 4145 N 385.784 -1.5574 0.241426 0
M  V30 4146 C 387.033 -1.97986 -0.385295 0
M  V30 4147 C 387.346 -1.13267 -1.59468 0
M  V30 4148 O 388.552 -1.45501 -2.2922 0
M  V30 4149 C 387.008 -3.52275 -0.736884 0
M  V30 4150 C 386.616 -4.45726 0.450796 0
M  V30 4151 C 388.36 -4.03189 -1.3281 0
M  V30 4152 C 386.267 -5.91352 0.0756662 0
M  V30 4153 H 385.197 -0.739386 -0.147731 0
M  V30 4154 H 387.848 -1.80308 0.340779 0
M  V30 4155 H 386.23 -3.65628 -1.52094 0
M  V30 4156 H 387.404 -4.44131 1.22819 0
M  V30 4157 H 385.719 -4.05264 0.956573 0
M  V30 4158 H 388.316 -5.09505 -1.62201 0
M  V30 4159 H 388.659 -3.50212 -2.25071 0
M  V30 4160 H 389.192 -3.93141 -0.607069 0
M  V30 4161 H 385.931 -6.48354 0.965272 0
M  V30 4162 H 385.451 -5.96095 -0.665635 0
M  V30 4163 H 387.13 -6.46084 -0.344075 0
M  V30 4164 N 387.262 0.0317525 -1.57568 0
M  V30 4165 C 388.511 0.722131 -1.8833 0
M  V30 4166 C 388.824 1.76664 -0.839587 0
M  V30 4167 O 390.03 2.50942 -1.03635 0
M  V30 4168 C 388.486 1.33544 -3.34207 0
M  V30 4169 C 388.094 0.327415 -4.46802 0
M  V30 4170 C 389.838 2.00585 -3.7412 0
M  V30 4171 C 387.745 0.948915 -5.83738 0
M  V30 4172 H 386.675 0.273466 -0.702661 0
M  V30 4173 H 389.326 -0.0235811 -1.83485 0
M  V30 4174 H 387.708 2.13077 -3.33788 0
M  V30 4175 H 388.882 -0.441006 -4.58685 0
M  V30 4176 H 387.197 -0.240758 -4.15703 0
M  V30 4177 H 389.794 2.47932 -4.73744 0
M  V30 4178 H 390.137 2.82285 -3.05975 0
M  V30 4179 H 390.67 1.27831 -3.76702 0
M  V30 4180 H 387.409 0.171387 -6.55276 0
M  V30 4181 H 386.929 1.68724 -5.7558 0
M  V30 4182 H 388.608 1.45705 -6.3038 0
M  V30 4183 N 388.74 1.54641 0.303973 0
M  V30 4184 C 389.965 1.78092 1.06292 0
M  V30 4185 C 390.39 0.537342 1.80262 0
M  V30 4186 O 389.748 -0.511993 1.7392 0
M  V30 4187 C 389.796 2.98612 2.02147 0
M  V30 4188 O 388.9 2.71528 3.10397 0
M  V30 4189 H 388.241 0.589548 0.305497 0
M  V30 4190 H 390.771 2.01716 0.3423 0
M  V30 4191 H 390.781 3.265 2.44667 0
M  V30 4192 H 389.456 3.88785 1.47714 0
M  V30 4193 H 388.033 2.54648 2.72413 0
M  V30 4194 O 390.257 -0.449877 1.55108 0
M  V30 4195 H 390.948 -1.10376 1.59176 0
M  V30 END ATOM
M  V30 BEGIN BOND
M  V30 END BOND
M  V30 END CTAB
M  END
$$$$
