drugbank_target|O31410 Peptide deformylase 2 (DB04310)
 OpenBabel12092119573D

  0  0  0     0  0            999 V3000
M  V30 BEGIN CTAB
M  V30 COUNTS 2891 2922 0 0 0
M  V30 BEGIN ATOM
M  V30 1 H -0.908 1.98254 -0.117106 0
M  V30 2 N 0 1.576 0 0
M  V30 3 C 0.933 2.03868 1.02534 0
M  V30 4 C 1.911 0.928543 1.3348 0
M  V30 5 O 3.095 1.19667 1.45644 0
M  V30 6 C 0.222 2.43627 2.35294 0
M  V30 7 C -0.732 3.65373 2.2001 0
M  V30 8 S 0.101 5.13292 1.52614 0
M  V30 9 C 1.257 5.56322 2.86805 0
M  V30 10 H 1.49 2.90518 0.631377 0
M  V30 11 H -0.977 1.52953 0.210867 0
M  V30 12 H 0.981 2.67203 3.11629 0
M  V30 13 H -0.358 1.57376 2.7183 0
M  V30 14 H -1.165 3.90944 3.18086 0
M  V30 15 H -1.563 3.418 1.51819 0
M  V30 16 H 0.729 5.58782 3.83104 0
M  V30 17 H 1.672 6.56266 2.65933 0
M  V30 18 H 2.08 4.83886 2.90714 0
M  V30 19 N 1.4781 -0.272755 1.55222 0
M  V30 20 C 2.7271 -1.00211 1.75045 0
M  V30 21 C 3.0401 -1.87441 0.559046 0
M  V30 22 O 4.2461 -2.63856 0.639698 0
M  V30 23 C 2.7021 -1.83165 3.09804 0
M  V30 24 C 2.3101 -1.008 4.36513 0
M  V30 25 C 4.0541 -2.55529 3.38977 0
M  V30 26 C 1.9611 -1.83194 5.62311 0
M  V30 27 H 0.8911 -0.377878 0.652476 0
M  V30 28 H 3.5421 -0.257776 1.8168 0
M  V30 29 H 1.9241 -2.61694 2.97207 0
M  V30 30 H 3.0981 -0.266855 4.60027 0
M  V30 31 H 1.4131 -0.398897 4.14485 0
M  V30 32 H 4.0101 -3.17578 4.30172 0
M  V30 33 H 4.3531 -3.25825 2.59121 0
M  V30 34 H 4.8861 -1.84029 3.52673 0
M  V30 35 H 1.6251 -1.17318 6.44916 0
M  V30 36 H 1.1451 -2.54905 5.4294 0
M  V30 37 H 2.8241 -2.40552 6.00619 0
M  V30 38 N 2.9562 -1.48159 -0.537278 0
M  V30 39 C 4.1842 -1.59454 -1.31841 0
M  V30 40 C 4.5992 -0.252065 -1.8711 0
M  V30 41 O 3.9562 0.757621 -1.66031 0
M  V30 42 C 4.0072 -2.63546 -2.47439 0
M  V30 43 O 3.7282 -3.92583 -1.94449 0
M  V30 44 C 5.2292 -2.85212 -3.39366 0
M  V30 45 H 2.4492 -0.53785 -0.401196 0
M  V30 46 H 4.9932 -1.93932 -0.648891 0
M  V30 47 H 3.1482 -2.31946 -3.1029 0
M  V30 48 H 3.5622 -4.49629 -2.70063 0
M  V30 49 H 5.0362 -3.61863 -4.16844 0
M  V30 50 H 5.5132 -1.93765 -3.94147 0
M  V30 51 H 6.1192 -3.18086 -2.82314 0
M  V30 52 N 4.4343 0.785586 -1.36625 0
M  V30 53 C 5.3673 1.90509 -1.25625 0
M  V30 54 C 6.3453 1.62 -0.139607 0
M  V30 55 O 7.5293 1.8591 -0.31141 0
M  V30 56 C 4.6563 3.25419 -0.939158 0
M  V30 57 C 3.7023 3.72856 -2.07077 0
M  V30 58 S 4.5353 3.88162 -3.68904 0
M  V30 59 C 5.6913 5.25942 -3.39317 0
M  V30 60 H 5.9243 1.99549 -2.20381 0
M  V30 61 H 3.4573 0.945226 -1.22085 0
M  V30 62 H 5.4153 4.03346 -0.763029 0
M  V30 63 H 4.0763 3.14099 -0.00931402 0
M  V30 64 H 3.2693 4.70624 -1.80357 0
M  V30 65 H 2.8713 3.01989 -2.20632 0
M  V30 66 H 5.1633 6.10651 -2.93447 0
M  V30 67 H 6.1063 5.57668 -4.36363 0
M  V30 68 H 6.5143 4.93224 -2.74573 0
M  V30 69 N 5.9124 1.20967 1.01018 0
M  V30 70 C 6.8594 0.964281 2.09691 0
M  V30 71 C 7.8294 -0.107853 1.65749 0
M  V30 72 O 9.0144 0.0381987 1.90762 0
M  V30 73 C 6.1544 0.52943 3.41015 0
M  V30 74 C 5.2674 1.67043 3.98398 0
M  V30 75 C 4.4024 1.18525 5.17808 0
M  V30 76 C 3.4414 2.29892 5.67288 0
M  V30 77 N 2.5784 1.82546 6.77954 0
M  V30 78 H 7.4184 1.89463 2.30017 0
M  V30 79 H 4.9554 0.944289 1.1279 0
M  V30 80 H 6.9134 0.258588 4.16398 0
M  V30 81 H 5.5434 -0.363919 3.20742 0
M  V30 82 H 4.5954 2.05603 3.20049 0
M  V30 83 H 5.9074 2.50877 4.31117 0
M  V30 84 H 5.0614 0.870762 6.00419 0
M  V30 85 H 3.8004 0.316887 4.86669 0
M  V30 86 H 2.8054 2.6215 4.83278 0
M  V30 87 H 4.0304 3.17216 6.00459 0
M  V30 88 H 1.9764 0.980454 6.48632 0
M  V30 89 H 1.8934 2.59956 7.09901 0
M  V30 90 H 3.1614 1.54115 7.64113 0
M  V30 91 N 7.3905 -1.2043 1.01659 0
M  V30 92 C 8.6675 -1.8548 0.621004 0
M  V30 93 C 9.0475 -1.9091 -0.900919 0
M  V30 94 O 8.3955 -1.41694 -1.79263 0
M  V30 95 C 8.6055 -3.25119 1.2688 0
M  V30 96 C 9.9535 -4.01403 1.38423 0
M  V30 97 O 10.9775 -3.34473 1.22501 0
M  V30 98 O 9.8365 -5.21265 1.64151 0
M  V30 99 H 6.9305 -0.798761 0.214266 0
M  V30 100 H 9.4765 -1.28019 1.11396 0
M  V30 101 H 8.2485 -3.15932 2.30873 0
M  V30 102 H 7.8715 -3.90212 0.762917 0
M  V30 103 N 8.8686 -0.792821 -1.36206 0
M  V30 104 C 10.1176 -0.363353 -1.984 0
M  V30 105 C 10.4306 1.07172 -1.63626 0
M  V30 106 O 11.6366 1.60362 -2.19081 0
M  V30 107 C 10.0926 -0.59872 -3.54885 0
M  V30 108 C 9.7006 -2.04543 -3.9858 0
M  V30 109 C 11.4446 -0.233926 -4.23855 0
M  V30 110 C 9.3516 -2.22727 -5.47856 0
M  V30 111 H 8.2816 -0.13212 -0.742334 0
M  V30 112 H 10.9326 -0.974935 -1.55458 0
M  V30 113 H 9.3146 0.0826222 -3.95914 0
M  V30 114 H 10.4886 -2.76345 -3.68741 0
M  V30 115 H 8.8036 -2.36879 -3.42458 0
M  V30 116 H 11.4006 -0.348027 -5.33566 0
M  V30 117 H 11.7436 0.818351 -4.08177 0
M  V30 118 H 12.2766 -0.868639 -3.882 0
M  V30 119 H 9.0156 -3.2635 -5.68486 0
M  V30 120 H 8.5356 -1.55434 -5.7931 0
M  V30 121 H 10.2146 -2.03607 -6.14128 0
M  V30 122 N 10.3467 1.47872 -0.545128 0
M  V30 123 C 11.5957 2.01695 -0.0145033 0
M  V30 124 C 11.9087 1.42609 1.33873 0
M  V30 125 O 13.1147 1.88021 1.95858 0
M  V30 126 C 11.5707 3.59892 0.0245068 0
M  V30 127 C 11.1787 4.27966 -1.32475 0
M  V30 128 C 12.9227 4.21507 0.50316 0
M  V30 129 C 10.8297 5.78136 -1.2455 0
M  V30 130 H 9.7597 0.753998 -0.00165172 0
M  V30 131 H 12.4107 1.69985 -0.691175 0
M  V30 132 H 10.7927 3.88509 0.766575 0
M  V30 133 H 11.9667 4.11003 -2.08357 0
M  V30 134 H 10.2817 3.78286 -1.74036 0
M  V30 135 H 12.8787 5.31538 0.580656 0
M  V30 136 H 13.2217 3.87855 1.51243 0
M  V30 137 H 13.7547 3.97376 -0.183681 0
M  V30 138 H 10.4937 6.16388 -2.23039 0
M  V30 139 H 10.0137 5.97469 -0.528282 0
M  V30 140 H 11.6927 6.40099 -0.942488 0
M  V30 141 N 11.8248 0.280983 1.55075 0
M  V30 142 C 12.7718 -0.603937 2.22758 0
M  V30 143 C 13.7418 -1.1452 1.20309 0
M  V30 144 O 14.9268 -1.19343 1.48869 0
M  V30 145 C 12.0668 -1.77947 2.95684 0
M  V30 146 C 11.1798 -1.2715 4.12864 0
M  V30 147 C 10.3148 -2.4093 4.7342 0
M  V30 148 C 9.3538 -1.87165 5.82783 0
M  V30 149 N 8.4908 -2.94441 6.37377 0
M  V30 150 H 13.3308 -0.020124 2.97993 0
M  V30 151 H 10.8678 0.00183425 1.471 0
M  V30 152 H 12.8258 -2.47055 3.36184 0
M  V30 153 H 11.4558 -2.33522 2.22861 0
M  V30 154 H 10.5078 -0.473331 3.77444 0
M  V30 155 H 11.8198 -0.837751 4.91715 0
M  V30 156 H 10.9738 -3.18021 5.1667 0
M  V30 157 H 9.7128 -2.87623 3.93859 0
M  V30 158 H 8.7178 -1.08556 5.38976 0
M  V30 159 H 9.9428 -1.41401 6.64216 0
M  V30 160 H 7.8888 -3.40505 5.60707 0
M  V30 161 H 7.8058 -2.55501 7.11516 0
M  V30 162 H 9.0738 -3.71489 6.85285 0
M  V30 163 N 13.3029 -1.57598 0.00835791 0
M  V30 164 C 14.2129 -2.12385 -0.996487 0
M  V30 165 C 15.2289 -1.07108 -1.37127 0
M  V30 166 O 16.4049 -1.39055 -1.4569 0
M  V30 167 C 13.4699 -2.62314 -2.26699 0
M  V30 168 C 12.5309 -3.82225 -1.95456 0
M  V30 169 C 11.7639 -4.29763 -3.16449 0
M  V30 170 O 11.9869 -3.76584 -4.28416 0
M  V30 171 O 10.9209 -5.21832 -2.99958 0
M  V30 172 H 14.7469 -2.98479 -0.560725 0
M  V30 173 H 12.3319 -1.47903 -0.210987 0
M  V30 174 H 14.2139 -2.94589 -3.01322 0
M  V30 175 H 12.8889 -1.79313 -2.69497 0
M  V30 176 H 11.7959 -3.54909 -1.18282 0
M  V30 177 H 13.1289 -4.66324 -1.57489 0
M  V30 178 N 14.781 0.264519 -1.55364 0
M  V30 179 C 16.029 0.993021 -1.76021 0
M  V30 180 C 16.35 1.86511 -0.569099 0
M  V30 181 O 15.62 1.91438 0.415735 0
M  V30 182 H 14.2 0.369639 -0.649135 0
M  V30 183 H 16.862 0.286707 -1.9278 0
M  V30 184 H 15.958 1.62502 -2.66457 0
M  V30 185 N 16.2591 1.48442 0.529413 0
M  V30 186 C 17.2091 1.59407 1.63014 0
M  V30 187 C 18.1931 0.451166 1.54445 0
M  V30 188 O 19.3851 0.702635 1.62456 0
M  V30 189 C 16.5141 1.63746 3.01732 0
M  V30 190 C 15.6001 2.83518 3.15402 0
M  V30 191 N 15.9911 4.07929 2.99045 0
M  V30 192 C 14.2891 2.80862 3.46457 0
M  V30 193 C 14.9901 4.8829 3.16146 0
M  V30 194 N 13.9661 4.21117 3.43746 0
M  V30 195 H 17.7681 2.53343 1.48978 0
M  V30 196 H 15.2821 1.44821 0.734885 0
M  V30 197 H 17.2791 1.69695 3.80801 0
M  V30 198 H 15.9391 0.709264 3.16859 0
M  V30 199 H 16.9501 4.38357 2.75796 0
M  V30 200 H 13.6271 1.97301 3.67938 0
M  V30 201 H 15.0171 5.97028 3.08232 0
M  V30 202 N 17.7372 -0.778329 1.37039 0
M  V30 203 C 19.1482 -1.35421 1.28523 0
M  V30 204 C 19.4992 -1.96075 -0.0700901 0
M  V30 205 O 18.6242 -1.93352 -0.971801 0
M  V30 206 C 19.2192 -2.46211 2.32735 0
M  V30 207 C 17.7782 -2.99585 2.27873 0
M  V30 208 C 16.9252 -1.72748 2.16918 0
M  V30 209 H 19.8762 -0.5791 1.47757 0
M  V30 210 H 19.8972 -3.2552 1.9702 0
M  V30 211 H 19.4092 -2.02036 3.31365 0
M  V30 212 H 17.5102 -3.48152 1.32745 0
M  V30 213 H 17.6232 -3.55646 3.21018 0
M  V30 214 H 15.9872 -1.95416 1.63354 0
M  V30 215 H 16.7702 -1.30686 3.17452 0
M  V30 216 N 19.2153 -1.21501 -1.00376 0
M  V30 217 C 20.4433 -1.059 -1.77744 0
M  V30 218 C 20.8583 0.391125 -1.84704 0
M  V30 219 O 20.2153 1.27133 -1.30933 0
M  V30 220 C 20.2663 -1.65111 -3.21591 0
M  V30 221 O 19.9873 -3.0445 -3.15027 0
M  V30 222 C 21.4883 -1.54637 -4.15454 0
M  V30 223 H 18.7083 -0.371825 -0.558558 0
M  V30 224 H 21.2523 -1.60865 -1.26264 0
M  V30 225 H 19.4073 -1.14235 -3.70175 0
M  V30 226 H 19.8213 -3.3278 -4.0541 0
M  V30 227 H 21.2953 -2.00808 -5.14179 0
M  V30 228 H 21.7723 -0.501022 -4.36333 0
M  V30 229 H 22.3783 -2.04767 -3.72761 0
M  V30 230 N 20.6934 1.19889 -1.02296 0
M  V30 231 C 21.6234 2.25141 -0.619174 0
M  V30 232 C 22.6044 1.66051 0.368915 0
M  V30 233 O 23.7894 1.92546 0.252941 0
M  V30 234 C 20.9194 3.4728 0.0368783 0
M  V30 235 C 19.8734 4.19005 -0.872865 0
M  V30 236 C 19.1994 5.34637 -0.0822402 0
M  V30 237 C 20.4994 4.74452 -2.18387 0
M  V30 238 H 22.1934 2.59171 -1.49903 0
M  V30 239 H 19.7394 1.24579 -0.722222 0
M  V30 240 H 21.6924 4.20098 0.330958 0
M  V30 241 H 20.4164 3.12433 0.95149 0
M  V30 242 H 19.0754 3.48061 -1.15105 0
M  V30 243 H 18.7234 4.96034 0.83422 0
M  V30 244 H 18.4234 5.83557 -0.688149 0
M  V30 245 H 19.9474 6.10255 0.205238 0
M  V30 246 H 21.3614 5.39055 -1.95172 0
M  V30 247 H 19.7584 5.33834 -2.74119 0
M  V30 248 H 20.8284 3.92844 -2.84257 0
M  V30 249 N 22.1715 0.800033 1.35784 0
M  V30 250 C 23.5875 0.482977 1.52117 0
M  V30 251 C 23.7875 -0.996948 1.75109 0
M  V30 252 O 22.8435 -1.78216 1.78872 0
M  V30 253 C 24.1565 1.32264 2.70049 0
M  V30 254 C 25.7045 1.31742 2.83924 0
M  V30 255 C 26.1795 2.14106 4.04874 0
M  V30 256 N 27.6705 2.11607 4.12039 0
M  V30 257 C 28.4055 2.72099 5.04727 0
M  V30 258 N 27.9015 3.41492 6.02789 0
M  V30 259 N 29.6945 2.61776 4.97423 0
M  V30 260 H 21.8455 1.75856 1.19115 0
M  V30 261 H 24.1085 0.748122 0.582252 0
M  V30 262 H 23.8145 2.37261 2.59616 0
M  V30 263 H 23.6885 0.971303 3.6448 0
M  V30 264 H 26.0755 0.275333 2.93813 0
M  V30 265 H 26.1565 1.70859 1.9037 0
M  V30 266 H 25.8005 3.18351 3.95746 0
M  V30 267 H 25.7305 1.72353 4.97596 0
M  V30 268 H 28.2215 1.61112 3.41835 0
M  V30 269 H 28.5345 3.84953 6.70098 0
M  V30 270 H 26.8795 3.45596 6.02983 0
M  V30 271 H 30.0705 2.07157 4.19766 0
M  V30 272 H 30.2435 3.0921 5.69468 0
M  V30 273 N 23.6496 -1.47581 0.552962 0
M  V30 274 C 24.5966 -2.29957 -0.197108 0
M  V30 275 C 25.5666 -1.38799 -0.912359 0
M  V30 276 O 26.7516 -1.67761 -0.908888 0
M  V30 277 C 23.8916 -3.22672 -1.22379 0
M  V30 278 C 23.0046 -4.28919 -0.515038 0
M  V30 279 C 22.1396 -5.0879 -1.52664 0
M  V30 280 C 21.1786 -6.06815 -0.802631 0
M  V30 281 N 20.3156 -6.7966 -1.76086 0
M  V30 282 H 25.1556 -2.93578 0.511486 0
M  V30 283 H 22.6926 -1.4471 0.264067 0
M  V30 284 H 24.6506 -3.74845 -1.83159 0
M  V30 285 H 23.2806 -2.60925 -1.90047 0
M  V30 286 H 22.3326 -3.79835 0.207192 0
M  V30 287 H 23.6446 -4.98773 0.0523425 0
M  V30 288 H 22.7986 -5.65091 -2.20809 0
M  V30 289 H 21.5376 -4.38828 -2.12794 0
M  V30 290 H 20.5426 -5.49695 -0.107238 0
M  V30 291 H 21.7676 -6.78784 -0.207135 0
M  V30 292 H 19.7136 -6.12432 -2.35081 0
M  V30 293 H 19.6306 -7.45669 -1.24552 0
M  V30 294 H 20.8986 -7.40538 -2.43359 0
M  V30 295 N 25.1277 -0.289203 -1.54924 0
M  V30 296 C 26.3737 0.323998 -2.00195 0
M  V30 297 C 26.7067 1.54441 -1.17735 0
M  V30 298 O 25.9817 1.92875 -0.250878 0
M  V30 299 C 26.2647 0.692276 -3.53383 0
M  V30 300 C 26.1177 -0.536457 -4.46589 0
M  V30 301 C 27.4367 1.52335 -4.12895 0
M  V30 302 H 24.5557 0.116289 -0.727768 0
M  V30 303 H 27.1977 -0.398954 -1.85764 0
M  V30 304 H 25.3477 1.30822 -3.65811 0
M  V30 305 H 27.0197 -1.17499 -4.46085 0
M  V30 306 H 25.2627 -1.17192 -4.1767 0
M  V30 307 H 25.9337 -0.234806 -5.515 0
M  V30 308 H 28.4097 1.00302 -4.0383 0
M  V30 309 H 27.2857 1.74982 -5.20262 0
M  V30 310 H 27.5467 2.50886 -3.64018 0
M  V30 311 N 26.6058 1.57591 -0.0167156 0
M  V30 312 C 27.5688 2.08393 0.954204 0
M  V30 313 C 28.5688 0.996531 1.26198 0
M  V30 314 O 29.7588 1.25858 1.20438 0
M  V30 315 C 26.8908 2.5394 2.27436 0
M  V30 316 H 28.0838 2.95455 0.514451 0
M  V30 317 H 25.6368 1.54582 0.231089 0
M  V30 318 H 26.3718 1.70171 2.76066 0
M  V30 319 H 26.1568 3.33371 2.06412 0
M  V30 320 H 27.6468 2.93512 2.97053 0
M  V30 321 N 28.0839 -0.256276 1.55502 0
M  V30 322 C 28.9939 -1.33882 1.92647 0
M  V30 323 C 30.0099 -1.53159 0.825727 0
M  V30 324 O 31.1859 -1.66963 1.12629 0
M  V30 325 C 28.2509 -2.6751 2.20543 0
M  V30 326 C 27.3119 -2.56836 3.43997 0
M  V30 327 C 26.5449 -3.84092 3.70553 0
M  V30 328 O 26.7679 -4.85545 2.99336 0
M  V30 329 O 25.7019 -3.83288 4.64084 0
M  V30 330 H 29.5279 -1.05374 2.84833 0
M  V30 331 H 27.1129 -0.456237 1.42263 0
M  V30 332 H 28.9949 -3.46492 2.39835 0
M  V30 333 H 27.6699 -2.9577 1.31536 0
M  V30 334 H 26.5769 -1.76172 3.30021 0
M  V30 335 H 27.9099 -2.33523 4.33275 0
M  V30 336 N 29.562 -1.4872 -0.521534 0
M  V30 337 C 30.973 -1.50607 -1.10337 0
M  V30 338 C 31.324 -0.280612 -1.94183 0
M  V30 339 O 30.449 0.611507 -2.0758 0
M  V30 340 C 31.044 -2.72903 -2.00772 0
M  V30 341 C 29.603 -2.77634 -2.54158 0
M  V30 342 C 28.75 -2.44241 -1.31307 0
M  V30 343 H 31.701 -1.55714 -0.306388 0
M  V30 344 H 31.722 -2.519 -2.85178 0
M  V30 345 H 31.234 -3.62077 -1.39721 0
M  V30 346 H 29.335 -1.92689 -3.18907 0
M  V30 347 H 29.448 -3.79283 -2.92714 0
M  V30 348 H 27.812 -1.95577 -1.63161 0
M  V30 349 H 28.595 -3.35666 -0.719943 0
M  V30 350 N 31.0401 0.771051 -1.3745 0
M  V30 351 C 32.2861 1.5319 -1.32894 0
M  V30 352 C 32.6191 1.94008 0.0862511 0
M  V30 353 O 31.8941 1.64124 1.04373 0
M  V30 354 C 32.1771 2.79648 -2.26868 0
M  V30 355 C 32.0301 2.45079 -3.77169 0
M  V30 356 C 33.3491 3.81583 -2.19277 0
M  V30 357 H 30.4681 0.555744 -0.484064 0
M  V30 358 H 33.1101 0.884492 -1.68157 0
M  V30 359 H 31.2601 3.34891 -1.96926 0
M  V30 360 H 32.9321 1.95745 -4.1771 0
M  V30 361 H 31.1751 1.77767 -3.95704 0
M  V30 362 H 31.8461 3.35478 -4.38359 0
M  V30 363 H 34.3221 3.35835 -2.45671 0
M  V30 364 H 33.1981 4.67787 -2.87171 0
M  V30 365 H 33.4591 4.25897 -1.18592 0
M  V30 366 N 32.5182 1.22032 0.997298 0
M  V30 367 C 33.9292 1.0397 1.55071 0
M  V30 368 C 34.2802 -0.398192 1.92117 0
M  V30 369 O 33.4052 -1.28254 1.74298 0
M  V30 370 C 34.0002 1.88109 2.81781 0
M  V30 371 C 32.5592 1.74357 3.33581 0
M  V30 372 C 31.7062 1.84846 2.06706 0
M  V30 373 H 34.6572 1.35941 0.818883 0
M  V30 374 H 34.6782 1.39589 3.53971 0
M  V30 375 H 34.1902 2.92754 2.54787 0
M  V30 376 H 32.2912 0.72427 3.65493 0
M  V30 377 H 32.4042 2.56772 4.04481 0
M  V30 378 H 30.7682 1.28238 2.20062 0
M  V30 379 H 31.5512 2.91014 1.82114 0
M  V30 380 N 33.9963 -1.19345 1.0293 0
M  V30 381 C 34.9263 -2.2481 0.631105 0
M  V30 382 C 35.9073 -1.66245 -0.360104 0
M  V30 383 O 37.0923 -1.92677 -0.242726 0
M  V30 384 C 34.2223 -3.47295 -0.0184607 0
M  V30 385 C 33.1763 -4.18536 0.895073 0
M  V30 386 C 32.5023 -5.34586 0.110592 0
M  V30 387 C 33.8023 -4.73287 2.209 0
M  V30 388 H 35.4963 -2.58372 1.51275 0
M  V30 389 H 33.0423 -1.24194 0.728818 0
M  V30 390 H 34.9953 -4.20268 -0.308675 0
M  V30 391 H 33.7193 -3.12933 -0.934907 0
M  V30 392 H 32.3783 -3.47446 1.16949 0
M  V30 393 H 32.0263 -4.96469 -0.807902 0
M  V30 394 H 31.7263 -5.83183 0.719087 0
M  V30 395 H 33.2503 -6.10355 -0.172871 0
M  V30 396 H 34.6643 -5.38013 1.98028 0
M  V30 397 H 33.0613 -5.32373 2.76946 0
M  V30 398 H 34.1313 -3.91331 2.86336 0
M  V30 399 N 35.4744 -0.807222 -1.35358 0
M  V30 400 C 36.8854 -0.44876 -1.81226 0
M  V30 401 C 37.2364 1.02929 -1.67033 0
M  V30 402 O 36.3614 1.79991 -1.20133 0
M  V30 403 C 36.9564 -0.807774 -3.2903 0
M  V30 404 C 35.5154 -0.501901 -3.73039 0
M  V30 405 C 34.6624 -1.03304 -2.57339 0
M  V30 406 H 37.6134 -0.998808 -1.23327 0
M  V30 407 H 37.6344 -0.10554 -3.80354 0
M  V30 408 H 37.1464 -1.88357 -3.39328 0
M  V30 409 H 35.2474 0.565128 -3.68289 0
M  V30 410 H 35.3604 -1.03497 -4.67787 0
M  V30 411 H 33.7244 -0.455339 -2.50597 0
M  V30 412 H 34.5074 -2.11496 -2.70415 0
M  V30 413 N 36.9525 1.47285 -0.560781 0
M  V30 414 C 38.3635 1.86258 -0.128343 0
M  V30 415 C 38.7145 1.46699 1.30284 0
M  V30 416 O 37.8395 0.871698 1.98067 0
M  V30 417 C 38.4345 3.38044 -0.22614 0
M  V30 418 C 36.9935 3.76096 0.151283 0
M  V30 419 C 36.1405 2.71335 -0.572084 0
M  V30 420 H 39.0915 1.38752 -0.770297 0
M  V30 421 H 39.1125 3.76441 0.554322 0
M  V30 422 H 38.6245 3.66806 -1.26788 0
M  V30 423 H 36.7255 3.52951 1.19399 0
M  V30 424 H 36.8385 4.78641 -0.209765 0
M  V30 425 H 35.2025 2.54696 -0.0147653 0
M  V30 426 H 35.9855 3.02938 -1.61504 0
M  V30 427 N 38.4306 0.297415 1.54768 0
M  V30 428 C 39.6556 -0.318435 2.04941 0
M  V30 429 C 40.0806 -1.4701 1.17345 0
M  V30 430 O 39.4386 -1.80436 0.176758 0
M  V30 431 C 39.4866 -0.755749 3.52592 0
M  V30 432 O 38.5906 -1.86088 3.68028 0
M  V30 433 H 37.9316 -0.062421 0.661059 0
M  V30 434 H 40.4616 0.438215 1.99852 0
M  V30 435 H 40.4716 -1.04552 3.94376 0
M  V30 436 H 39.1466 0.0867233 4.1581 0
M  V30 437 H 37.7236 -1.57193 3.38149 0
M  V30 438 N 39.9087 -1.5758 0.0250728 0
M  V30 439 C 40.8187 -2.1343 -0.973905 0
M  V30 440 C 41.8347 -1.08556 -1.35984 0
M  V30 441 O 43.0107 -1.40592 -1.44207 0
M  V30 442 C 40.0757 -2.64703 -2.23904 0
M  V30 443 C 39.1367 -3.84276 -1.91391 0
M  V30 444 C 38.3697 -4.33095 -3.11873 0
M  V30 445 O 38.5927 -3.81107 -4.24398 0
M  V30 446 O 37.5267 -5.24984 -2.94406 0
M  V30 447 H 41.3527 -2.99057 -0.529036 0
M  V30 448 H 38.9377 -1.48118 -0.195288 0
M  V30 449 H 40.8197 -2.97769 -2.98181 0
M  V30 450 H 39.4947 -1.82161 -2.6758 0
M  V30 451 H 38.4017 -3.56143 -1.14511 0
M  V30 452 H 39.7347 -4.67968 -1.52534 0
M  V30 453 N 41.3868 0.248026 -1.55636 0
M  V30 454 C 42.2968 1.32859 -1.93354 0
M  V30 455 C 43.3128 1.52719 -0.833838 0
M  V30 456 O 44.4888 1.66363 -1.13513 0
M  V30 457 C 41.5538 2.66337 -2.21958 0
M  V30 458 C 40.6148 2.55008 -3.45354 0
M  V30 459 C 39.8478 3.82121 -3.72584 0
M  V30 460 O 40.0708 4.83951 -3.01907 0
M  V30 461 O 39.0048 3.80822 -4.6611 0
M  V30 462 H 42.8308 1.03862 -2.85388 0
M  V30 463 H 40.4158 0.448686 -1.42503 0
M  V30 464 H 42.2978 3.45216 -2.4167 0
M  V30 465 H 40.9728 2.95068 -1.33103 0
M  V30 466 H 39.8798 1.7442 -3.30951 0
M  V30 467 H 41.2128 2.31222 -4.34508 0
M  V30 468 N 42.8649 1.48995 0.513639 0
M  V30 469 C 44.1419 1.48338 1.27495 0
M  V30 470 C 44.5219 0.204065 2.10111 0
M  V30 471 O 43.8699 -0.813881 2.13514 0
M  V30 472 C 44.0799 2.75498 2.14247 0
M  V30 473 C 45.4279 3.24484 2.73852 0
M  V30 474 O 46.4519 2.76528 2.24523 0
M  V30 475 O 45.3109 4.07974 3.6362 0
M  V30 476 H 42.4049 0.593149 0.576284 0
M  V30 477 H 44.9509 1.61246 0.528948 0
M  V30 478 H 43.7229 3.60109 1.53092 0
M  V30 479 H 43.3459 2.6539 2.96064 0
M  V30 480 N 44.343 -0.763751 1.37857 0
M  V30 481 C 45.29 -1.87726 1.34267 0
M  V30 482 C 46.26 -1.64807 0.206879 0
M  V30 483 O 47.445 -1.86613 0.397508 0
M  V30 484 C 44.585 -3.24896 1.16346 0
M  V30 485 C 43.698 -3.59716 2.39225 0
M  V30 486 C 42.833 -4.86137 2.14114 0
M  V30 487 C 41.872 -5.13711 3.32817 0
M  V30 488 N 41.009 -6.31323 3.07206 0
M  V30 489 H 45.849 -1.90129 2.29466 0
M  V30 490 H 43.386 -0.929433 1.14017 0
M  V30 491 H 45.344 -4.04036 1.03975 0
M  V30 492 H 43.974 -3.21847 0.247909 0
M  V30 493 H 43.026 -2.75498 2.62307 0
M  V30 494 H 44.338 -3.76027 3.27728 0
M  V30 495 H 43.492 -5.73198 1.9882 0
M  V30 496 H 42.231 -4.71945 1.22961 0
M  V30 497 H 41.236 -4.25123 3.48641 0
M  V30 498 H 42.461 -5.29807 4.24832 0
M  V30 499 H 40.407 -6.18474 2.1869 0
M  V30 500 H 40.324 -6.48087 3.89254 0
M  V30 501 H 41.592 -7.213 2.95546 0
M  V30 502 N 45.8211 -1.22559 -0.990812 0
M  V30 503 C 47.2371 -0.985996 -1.255 0
M  V30 504 C 47.4371 0.319173 -1.98956 0
M  V30 505 O 46.4931 1.04127 -2.3003 0
M  V30 506 C 47.8061 -2.18607 -2.06474 0
M  V30 507 C 49.3541 -2.22985 -2.19651 0
M  V30 508 C 49.8291 -3.4255 -3.04012 0
M  V30 509 N 51.3201 -3.42725 -3.11599 0
M  V30 510 C 52.0551 -4.31892 -3.7717 0
M  V30 511 N 51.5511 -5.31279 -4.44651 0
M  V30 512 N 53.3441 -4.19662 -3.73952 0
M  V30 513 H 45.4951 -2.06469 -0.49841 0
M  V30 514 H 47.7581 -0.904853 -0.282747 0
M  V30 515 H 47.4641 -3.13267 -1.59865 0
M  V30 516 H 47.3381 -2.18838 -3.07229 0
M  V30 517 H 49.7251 -1.28871 -2.65474 0
M  V30 518 H 49.8061 -2.26791 -1.18319 0
M  V30 519 H 49.4501 -4.36965 -2.58889 0
M  V30 520 H 49.3801 -3.35984 -4.0549 0
M  V30 521 H 51.8711 -2.70807 -2.63575 0
M  V30 522 H 52.1841 -5.95593 -4.92431 0
M  V30 523 H 50.5291 -5.3519 -4.43392 0
M  V30 524 H 53.7201 -3.41268 -3.20396 0
M  V30 525 H 53.8931 -4.89358 -4.24774 0
M  V30 526 N 47.2992 1.18797 -1.03562 0
M  V30 527 C 48.5482 1.87978 -0.731235 0
M  V30 528 C 48.8612 1.80911 0.743671 0
M  V30 529 O 50.0672 2.45407 1.16137 0
M  V30 530 C 48.5232 3.3721 -1.25768 0
M  V30 531 C 48.1312 3.52818 -2.76085 0
M  V30 532 C 49.8752 4.11825 -1.0296 0
M  V30 533 C 47.7822 4.9598 -3.22114 0
M  V30 534 H 46.7122 0.704063 -0.269835 0
M  V30 535 H 49.3632 1.34266 -1.25079 0
M  V30 536 H 47.7452 3.90359 -0.666011 0
M  V30 537 H 48.9192 3.09965 -3.40966 0
M  V30 538 H 47.2342 2.91602 -2.97249 0
M  V30 539 H 49.8312 5.17411 -1.34869 0
M  V30 540 H 50.1742 4.16287 0.0333546 0
M  V30 541 H 50.7072 3.64833 -1.58562 0
M  V30 542 H 47.4462 4.96684 -4.27768 0
M  V30 543 H 46.9662 5.39569 -2.61965 0
M  V30 544 H 48.6452 5.6467 -3.15844 0
M  V30 545 N 48.7773 0.814389 1.34928 0
M  V30 546 C 49.7073 0.244827 2.32213 0
M  V30 547 C 50.6883 -0.634024 1.57842 0
M  V30 548 O 51.8733 -0.562676 1.8587 0
M  V30 549 C 49.0033 -0.601106 3.42058 0
M  V30 550 C 47.9573 0.179896 4.27622 0
M  V30 551 C 47.2833 -0.788237 5.28858 0
M  V30 552 C 48.5833 1.38329 5.03649 0
M  V30 553 H 50.2773 1.05763 2.80097 0
M  V30 554 H 47.8233 0.510029 1.34665 0
M  V30 555 H 49.7763 -1.00968 4.09125 0
M  V30 556 H 48.5003 -1.44688 2.92802 0
M  V30 557 H 47.1593 0.569739 3.62146 0
M  V30 558 H 46.8073 -1.62973 4.75866 0
M  V30 559 H 46.5073 -0.269942 5.8698 0
M  V30 560 H 48.0313 -1.19485 5.98795 0
M  V30 561 H 49.4453 1.04918 5.63618 0
M  V30 562 H 47.8423 1.83662 5.71304 0
M  V30 563 H 48.9123 2.16592 4.33839 0
M  V30 564 N 50.2554 -1.46986 0.568584 0
M  V30 565 C 51.1874 -2.28233 -0.210337 0
M  V30 566 C 52.2004 -1.37682 -0.868767 0
M  V30 567 O 53.3894 -1.62406 -0.740705 0
M  V30 568 C 50.4894 -3.12293 -1.3163 0
M  V30 569 C 49.6624 -4.30878 -0.7525 0
M  V30 570 C 48.7214 -4.96445 -1.74439 0
M  V30 571 O 47.7474 -5.54482 -1.286 0
M  V30 572 N 48.9494 -4.92171 -3.07812 0
M  V30 573 H 51.7144 -2.95723 0.486648 0
M  V30 574 H 49.2754 -1.56742 0.405409 0
M  V30 575 H 51.2674 -3.53022 -1.97883 0
M  V30 576 H 49.8374 -2.46971 -1.91636 0
M  V30 577 H 49.0574 -3.94104 0.0871128 0
M  V30 578 H 50.3454 -5.07558 -0.35536 0
M  V30 579 H 49.7434 -4.46239 -3.47688 0
M  V30 580 H 48.3004 -5.36884 -3.69592 0
M  V30 581 N 51.7335 -0.305618 -1.54608 0
M  V30 582 C 52.9585 0.307562 -2.05107 0
M  V30 583 C 53.3835 1.46385 -1.18123 0
M  V30 584 O 52.7415 1.8034 -0.186324 0
M  V30 585 C 52.7895 0.73704 -3.52987 0
M  V30 586 O 51.8935 1.84134 -3.6901 0
M  V30 587 H 51.2345 0.0589143 -0.661381 0
M  V30 588 H 53.7645 -0.448807 -1.99617 0
M  V30 589 H 53.7745 1.02459 -3.94925 0
M  V30 590 H 52.4495 -0.108773 -4.15758 0
M  V30 591 H 51.0265 1.55398 -3.38978 0
M  V30 592 N 53.2116 1.57565 -0.0334293 0
M  V30 593 C 54.1416 2.13511 0.945265 0
M  V30 594 C 55.1226 1.05231 1.33643 0
M  V30 595 O 56.3076 1.33084 1.41429 0
M  V30 596 C 53.4376 2.6657 2.22616 0
M  V30 597 C 52.3916 3.79676 1.97561 0
M  V30 598 C 51.7176 4.1918 3.31952 0
M  V30 599 C 53.0176 5.0557 1.31135 0
M  V30 600 H 54.7116 2.95538 0.479325 0
M  V30 601 H 52.2576 1.42166 0.229115 0
M  V30 602 H 54.2106 3.04344 2.91466 0
M  V30 603 H 52.9346 1.8171 2.71384 0
M  V30 604 H 51.5936 3.42347 1.31127 0
M  V30 605 H 51.2416 3.31296 3.78487 0
M  V30 606 H 50.9416 4.95402 3.15992 0
M  V30 607 H 52.4656 4.59541 4.02063 0
M  V30 608 H 53.8796 5.40903 1.89992 0
M  V30 609 H 52.2766 5.86818 1.25559 0
M  V30 610 H 53.3466 4.84062 0.284894 0
M  V30 611 N 54.6897 -0.239769 1.55765 0
M  V30 612 C 55.6197 -1.30052 1.9393 0
M  V30 613 C 56.6007 -1.49839 0.805132 0
M  V30 614 O 57.7857 -1.62328 1.06599 0
M  V30 615 C 54.9157 -2.65391 2.2402 0
M  V30 616 C 53.8697 -2.60289 3.39755 0
M  V30 617 C 53.1957 -3.99489 3.55405 0
M  V30 618 C 54.4957 -2.16654 4.75246 0
M  V30 619 H 56.1897 -0.983573 2.82783 0
M  V30 620 H 53.7357 -0.471701 1.36055 0
M  V30 621 H 55.6887 -3.3974 2.49308 0
M  V30 622 H 54.4127 -2.98736 1.32 0
M  V30 623 H 53.0717 -1.88398 3.14487 0
M  V30 624 H 52.7197 -4.30112 2.60793 0
M  V30 625 H 52.4197 -3.96962 4.33238 0
M  V30 626 H 53.9437 -4.75528 3.83022 0
M  V30 627 H 55.3577 -2.80737 4.99859 0
M  V30 628 H 53.7547 -2.25223 5.56232 0
M  V30 629 H 54.8247 -1.11835 4.71827 0
M  V30 630 N 56.1678 -1.49265 -0.50573 0
M  V30 631 C 57.4448 -1.49012 -1.26707 0
M  V30 632 C 57.8248 -0.215205 -2.1 0
M  V30 633 O 57.1728 0.802547 -2.13943 0
M  V30 634 C 57.3828 -2.7663 -2.12783 0
M  V30 635 C 58.7308 -3.25932 -2.72127 0
M  V30 636 O 59.7548 -2.77715 -2.23054 0
M  V30 637 O 58.6138 -4.09897 -3.61451 0
M  V30 638 H 55.7078 -0.596197 -0.57313 0
M  V30 639 H 58.2538 -1.61524 -0.52039 0
M  V30 640 H 57.0258 -3.60916 -1.5118 0
M  V30 641 H 56.6488 -2.66956 -2.94653 0
M  V30 642 N 57.6459 0.756429 -1.3826 0
M  V30 643 C 58.8759 1.54341 -1.3734 0
M  V30 644 C 59.2839 1.89159 0.0393917 0
M  V30 645 O 58.6269 1.5307 1.01565 0
M  V30 646 C 58.6889 2.87238 -2.16182 0
M  V30 647 C 58.3529 2.74973 -3.65019 0
M  V30 648 C 59.3499 2.44962 -4.58574 0
M  V30 649 C 57.0349 2.92515 -4.08338 0
M  V30 650 C 59.0289 2.32642 -5.93428 0
M  V30 651 C 56.7159 2.79815 -5.43274 0
M  V30 652 C 57.7139 2.49921 -6.35632 0
M  V30 653 O 57.4019 2.37275 -7.68086 0
M  V30 654 H 57.1339 0.484281 -0.471643 0
M  V30 655 H 59.6879 0.944152 -1.82414 0
M  V30 656 H 57.9179 3.49342 -1.65822 0
M  V30 657 H 59.6069 3.48731 -2.07705 0
M  V30 658 H 60.3729 2.31081 -4.26412 0
M  V30 659 H 56.2519 3.14781 -3.368 0
M  V30 660 H 59.7959 2.0923 -6.65484 0
M  V30 661 H 55.6929 2.93269 -5.75034 0
M  V30 662 H 56.4609 2.52509 -7.78577 0
M  V30 663 N 59.124 1.23083 0.984299 0
M  V30 664 C 60.37 1.06214 1.72761 0
M  V30 665 C 60.703 -0.400584 1.90024 0
M  V30 666 O 59.978 -1.29672 1.44967 0
M  V30 667 C 60.261 1.78375 3.12817 0
M  V30 668 C 60.114 3.32296 3.03149 0
M  V30 669 C 61.433 1.54309 4.12161 0
M  V30 670 H 58.552 0.387251 0.627061 0
M  V30 671 H 61.194 1.51536 1.14616 0
M  V30 672 H 59.344 1.39848 3.62457 0
M  V30 673 H 61.016 3.8032 2.61064 0
M  V30 674 H 59.259 3.6153 2.39747 0
M  V30 675 H 59.93 3.77972 4.02295 0
M  V30 676 H 62.406 1.87791 3.71314 0
M  V30 677 H 61.282 2.07281 5.08258 0
M  V30 678 H 61.543 0.477572 4.39513 0
M  V30 679 N 60.6021 -1.18246 1.0419 0
M  V30 680 C 61.5491 -2.2192 0.634037 0
M  V30 681 C 62.5191 -1.62179 -0.358765 0
M  V30 682 O 63.7041 -1.89122 -0.252466 0
M  V30 683 C 60.8441 -3.451 0.00445535 0
M  V30 684 C 59.9571 -4.19174 1.04487 0
M  V30 685 C 59.0921 -5.29813 0.383676 0
M  V30 686 C 58.1311 -5.9566 1.4091 0
M  V30 687 N 57.2681 -6.97834 0.772784 0
M  V30 688 H 62.1081 -2.56164 1.52263 0
M  V30 689 H 59.6451 -1.25843 0.761701 0
M  V30 690 H 61.6031 -4.15485 -0.377919 0
M  V30 691 H 60.2331 -3.11472 -0.847652 0
M  V30 692 H 59.2851 -3.47604 1.54518 0
M  V30 693 H 60.5971 -4.64267 1.82368 0
M  V30 694 H 59.7511 -6.06677 -0.0528366 0
M  V30 695 H 58.4901 -4.85825 -0.427208 0
M  V30 696 H 57.4951 -5.17535 1.85574 0
M  V30 697 H 58.7201 -6.4173 2.22171 0
M  V30 698 H 56.6661 -6.55998 -0.0177708 0
M  V30 699 H 56.5831 -7.41186 1.48928 0
M  V30 700 H 57.8511 -7.78665 0.36071 0
M  V30 701 N 62.0802 -0.821533 -1.34494 0
M  V30 702 C 63.0132 -0.187704 -2.27427 0
M  V30 703 C 63.9912 0.65507 -1.48821 0
M  V30 704 O 65.1752 0.619111 -1.78043 0
M  V30 705 C 62.3022 0.737996 -3.30562 0
M  V30 706 C 61.3482 -0.0270713 -4.26491 0
M  V30 707 S 62.1812 -1.37329 -5.17592 0
M  V30 708 C 63.3372 -0.452427 -6.24263 0
M  V30 709 H 63.5702 -0.975598 -2.80837 0
M  V30 710 H 61.1032 -0.61736 -1.4152 0
M  V30 711 H 63.0612 1.26654 -3.90473 0
M  V30 712 H 61.7222 1.4994 -2.76001 0
M  V30 713 H 60.9152 0.6766 -4.99438 0
M  V30 714 H 60.5172 -0.48612 -3.70827 0
M  V30 715 H 62.8092 0.356557 -6.76561 0
M  V30 716 H 63.7522 -1.15153 -6.98674 0
M  V30 717 H 64.1602 -0.0414755 -5.64485 0
M  V30 718 N 63.5583 1.46682 -0.576371 0
M  V30 719 C 64.7833 2.07304 -0.0630475 0
M  V30 720 C 65.2083 1.42329 1.2298 0
M  V30 721 O 64.5663 0.504865 1.74129 0
M  V30 722 C 64.6143 3.60472 0.095895 0
M  V30 723 O 63.7183 3.95927 1.15394 0
M  V30 724 H 63.0593 0.661288 -0.0599463 0
M  V30 725 H 65.5893 1.88417 -0.797511 0
M  V30 726 H 65.5993 4.06865 0.304071 0
M  V30 727 H 64.2743 4.07157 -0.84828 0
M  V30 728 H 62.8513 3.61252 0.924724 0
M  V30 729 N 65.0364 0.313813 1.54444 0
M  V30 730 C 65.9684 -0.590425 2.21465 0
M  V30 731 C 66.9814 -1.08753 1.21147 0
M  V30 732 O 68.1704 -1.00278 1.4767 0
M  V30 733 C 65.2704 -1.82179 2.85769 0
M  V30 734 C 64.4434 -1.46502 4.12136 0
M  V30 735 C 63.5024 -2.55288 4.60124 0
M  V30 736 O 62.5284 -2.19842 5.25032 0
M  V30 737 N 63.7304 -3.86053 4.33525 0
M  V30 738 H 66.4954 -0.0166033 2.99695 0
M  V30 739 H 64.0564 0.136578 1.61323 0
M  V30 740 H 66.0484 -2.54328 3.14801 0
M  V30 741 H 64.6184 -2.30369 2.11303 0
M  V30 742 H 63.8384 -0.575595 3.89975 0
M  V30 743 H 65.1264 -1.20221 4.94393 0
M  V30 744 H 64.5244 -4.17654 3.81552 0
M  V30 745 H 63.0814 -4.54461 4.67235 0
M  V30 746 N 66.5145 -1.57545 0.0417849 0
M  V30 747 C 67.7915 -1.83642 -0.673433 0
M  V30 748 C 68.1715 -0.928298 -1.89594 0
M  V30 749 O 67.5195 0.0129955 -2.28496 0
M  V30 750 C 67.7295 -3.33155 -1.03964 0
M  V30 751 C 69.0775 -3.99941 -1.42592 0
M  V30 752 O 70.1015 -3.37725 -1.13226 0
M  V30 753 O 68.9605 -5.09619 -1.9736 0
M  V30 754 H 66.0545 -0.757638 -0.331533 0
M  V30 755 H 68.6005 -1.69554 0.070433 0
M  V30 756 H 67.3725 -3.9093 -0.170098 0
M  V30 757 H 66.9955 -3.52396 -1.84126 0
M  V30 758 N 67.9926 0.231505 -1.5589 0
M  V30 759 C 69.4036 0.799327 -1.68724 0
M  V30 760 C 69.7546 1.85398 -0.642022 0
M  V30 761 O 68.8796 2.1539 0.208784 0
M  V30 762 C 69.4746 1.45664 -3.05888 0
M  V30 763 C 68.0336 1.97197 -3.20609 0
M  V30 764 C 67.1806 0.828552 -2.64632 0
M  V30 765 H 70.1316 0.00702616 -1.58698 0
M  V30 766 H 70.1526 2.32517 -3.01191 0
M  V30 767 H 69.6646 0.688808 -3.81939 0
M  V30 768 H 67.7656 2.76813 -2.4941 0
M  V30 769 H 67.8786 2.15878 -4.27707 0
M  V30 770 H 66.2426 1.23321 -2.22854 0
M  V30 771 H 67.0256 0.0735544 -3.43221 0
M  V30 772 N 69.4707 1.49531 0.497807 0
M  V30 773 C 70.3807 1.69176 1.62532 0
M  V30 774 C 71.3967 0.5744 1.64246 0
M  V30 775 O 72.5727 0.849497 1.82608 0
M  V30 776 C 69.6377 1.75695 2.98885 0
M  V30 777 C 68.6987 2.9929 3.07773 0
M  V30 778 C 67.9317 3.05488 4.37622 0
M  V30 779 O 68.1547 2.19192 5.26603 0
M  V30 780 O 67.0887 3.9798 4.51548 0
M  V30 781 H 70.9147 2.647 1.48887 0
M  V30 782 H 68.4997 1.3331 0.674441 0
M  V30 783 H 70.3817 1.82317 3.79919 0
M  V30 784 H 69.0567 0.8335 3.12785 0
M  V30 785 H 67.9637 2.98183 2.25915 0
M  V30 786 H 69.2967 3.91125 2.98801 0
M  V30 787 N 70.9488 -0.749086 1.3866 0
M  V30 788 C 71.8788 -1.8764 1.38973 0
M  V30 789 C 72.8598 -1.68178 0.255004 0
M  V30 790 O 74.0448 -1.88704 0.458754 0
M  V30 791 C 71.1748 -3.25222 1.21851 0
M  V30 792 C 70.1288 -3.59295 2.32575 0
M  V30 793 C 69.4548 -4.95663 2.00555 0
M  V30 794 C 70.7548 -3.63709 3.7485 0
M  V30 795 H 72.4488 -1.87635 2.3331 0
M  V30 796 H 69.9948 -0.901329 1.12303 0
M  V30 797 H 71.9478 -4.03746 1.20695 0
M  V30 798 H 70.6718 -3.25719 0.239775 0
M  V30 799 H 69.3308 -2.83093 2.32925 0
M  V30 800 H 68.9788 -4.92724 1.01154 0
M  V30 801 H 68.6788 -5.19429 2.74714 0
M  V30 802 H 70.2028 -5.7656 2.01024 0
M  V30 803 H 71.6168 -4.32338 3.76506 0
M  V30 804 H 70.0138 -3.98986 4.48252 0
M  V30 805 H 71.0838 -2.63834 4.06841 0
M  V30 806 N 72.4269 -1.23603 -0.977757 0
M  V30 807 C 73.3899 -1.02069 -2.05218 0
M  V30 808 C 74.3899 0.0184305 -1.60789 0
M  V30 809 O 75.5799 -0.221569 -1.72785 0
M  V30 810 C 72.7119 -0.544926 -3.36517 0
M  V30 811 H 73.9049 -1.9742 -2.25755 0
M  V30 812 H 71.4579 -1.05684 -1.15155 0
M  V30 813 H 72.1929 0.412241 -3.21669 0
M  V30 814 H 71.9779 -1.2948 -3.70105 0
M  V30 815 H 73.4679 -0.414985 -4.15533 0
M  V30 816 N 73.905 1.17692 -1.04816 0
M  V30 817 C 74.868 2.19787 -0.650117 0
M  V30 818 C 75.868 1.58044 0.296427 0
M  V30 819 O 77.058 1.74012 0.0808097 0
M  V30 820 C 74.19 3.40869 0.0456987 0
M  V30 821 H 75.383 2.56516 -1.5537 0
M  V30 822 H 72.936 1.31708 -0.841594 0
M  V30 823 H 73.671 3.09681 0.962726 0
M  V30 824 H 73.456 3.86928 -0.634727 0
M  V30 825 H 74.946 4.16445 0.310432 0
M  V30 826 N 75.3831 0.828654 1.34056 0
M  V30 827 C 76.3301 0.252567 2.29414 0
M  V30 828 C 77.3001 -0.62588 1.53857 0
M  V30 829 O 78.4851 -0.566312 1.82202 0
M  V30 830 C 75.6251 -0.574831 3.40279 0
M  V30 831 C 74.7381 0.326499 4.30764 0
M  V30 832 C 73.8731 -0.511016 5.28736 0
M  V30 833 C 72.9121 0.389342 6.1086 0
M  V30 834 N 72.0491 -0.409439 7.00905 0
M  V30 835 H 76.8891 1.07108 2.78086 0
M  V30 836 H 74.4261 0.539677 1.36843 0
M  V30 837 H 76.3841 -1.06992 4.03248 0
M  V30 838 H 75.0141 -1.35841 2.92826 0
M  V30 839 H 74.0661 0.939837 3.68607 0
M  V30 840 H 75.3781 1.01857 4.88289 0
M  V30 841 H 74.5321 -1.07035 5.97184 0
M  V30 842 H 73.2711 -1.23657 4.71763 0
M  V30 843 H 72.2761 0.960769 5.4134 0
M  V30 844 H 73.5011 1.1131 6.69916 0
M  V30 845 H 71.4471 -1.11856 6.46393 0
M  V30 846 H 71.3641 0.224126 7.55668 0
M  V30 847 H 72.6321 -0.951336 7.73673 0
M  V30 848 N 76.8612 -1.46375 0.584142 0
M  V30 849 C 78.0912 -2.06461 0.0758195 0
M  V30 850 C 78.4992 -1.43322 -1.23512 0
M  V30 851 O 77.8422 -0.533216 -1.75791 0
M  V30 852 C 77.9042 -3.59131 -0.162773 0
M  V30 853 C 77.5682 -4.4447 1.06279 0
M  V30 854 C 78.5652 -4.80918 1.97519 0
M  V30 855 C 76.2502 -4.85584 1.28504 0
M  V30 856 C 78.2442 -5.57309 3.09331 0
M  V30 857 C 75.9312 -5.61734 2.4062 0
M  V30 858 C 76.9292 -5.9751 3.30863 0
M  V30 859 O 76.6172 -6.72121 4.41032 0
M  V30 860 H 76.3492 -0.673745 0.0551725 0
M  V30 861 H 78.9032 -1.88969 0.804984 0
M  V30 862 H 77.1332 -3.74936 -0.946565 0
M  V30 863 H 78.8222 -4.0114 -0.619782 0
M  V30 864 H 79.5882 -4.49732 1.81565 0
M  V30 865 H 75.4672 -4.57187 0.591702 0
M  V30 866 H 79.0112 -5.85152 3.79793 0
M  V30 867 H 74.9082 -5.92334 2.56537 0
M  V30 868 H 75.6762 -6.90547 4.39417 0
M  V30 869 N 78.3393 -0.321999 -1.54275 0
M  V30 870 C 79.5873 0.280489 -2.00144 0
M  V30 871 C 79.9083 1.52777 -1.21178 0
M  V30 872 O 79.1783 1.9338 -0.313187 0
M  V30 873 H 77.7583 0.106632 -0.73935 0
M  V30 874 H 80.4203 -0.438184 -1.8991 0
M  V30 875 H 79.5163 0.537972 -3.07428 0
M  V30 876 N 79.8174 1.5752 -0.0501392 0
M  V30 877 C 80.7474 2.14502 0.922566 0
M  V30 878 C 81.7284 1.06642 1.3252 0
M  V30 879 O 82.9134 1.34577 1.4001 0
M  V30 880 C 80.0434 2.68916 2.19776 0
M  V30 881 C 78.9974 3.8175 1.93523 0
M  V30 882 C 78.3234 4.22677 3.27487 0
M  V30 883 C 79.6234 5.06932 1.25765 0
M  V30 884 H 81.3174 2.9603 0.447952 0
M  V30 885 H 78.8634 1.42401 0.214024 0
M  V30 886 H 80.8164 3.07419 2.88222 0
M  V30 887 H 79.5404 1.84578 2.69441 0
M  V30 888 H 78.1994 3.43718 1.27489 0
M  V30 889 H 77.8474 3.35291 3.74952 0
M  V30 890 H 77.5474 4.98725 3.1072 0
M  V30 891 H 79.0714 4.63779 3.97166 0
M  V30 892 H 80.4854 5.42888 1.84244 0
M  V30 893 H 78.8824 5.88116 1.19328 0
M  V30 894 H 79.9524 4.84337 0.233536 0
M  V30 895 N 81.2955 -0.223234 1.56011 0
M  V30 896 C 82.7115 -0.572856 1.48965 0
M  V30 897 C 82.9115 -1.87225 0.74492 0
M  V30 898 O 81.9675 -2.50899 0.283896 0
M  V30 899 C 83.2805 -0.653646 2.9351 0
M  V30 900 C 84.8285 -0.744386 3.0402 0
M  V30 901 C 85.3035 -0.856535 4.49919 0
M  V30 902 N 86.7945 -0.9208 4.53955 0
M  V30 903 C 87.5295 -1.02726 5.64123 0
M  V30 904 N 87.0255 -1.09777 6.84047 0
M  V30 905 N 88.8185 -1.06226 5.51971 0
M  V30 906 H 80.9695 0.629462 2.02858 0
M  V30 907 H 83.2325 0.220621 0.921971 0
M  V30 908 H 82.9385 0.231518 3.50937 0
M  V30 909 H 82.8125 -1.51781 3.45315 0
M  V30 910 H 85.1995 -1.61999 2.46658 0
M  V30 911 H 85.2805 0.14541 2.55386 0
M  V30 912 H 84.9245 0.0146069 5.07898 0
M  V30 913 H 84.8545 -1.76172 4.96257 0
M  V30 914 H 87.3455 -0.876694 3.6759 0
M  V30 915 H 87.6585 -1.17872 7.63758 0
M  V30 916 H 86.0035 -1.06693 6.86762 0
M  V30 917 H 89.1945 -1.00382 4.5721 0
M  V30 918 H 89.3675 -1.14177 6.37862 0
M  V30 919 N 82.7736 -1.49793 -0.48987 0
M  V30 920 C 84.1846 -1.52914 -1.07118 0
M  V30 921 C 84.5356 -0.321738 -1.93544 0
M  V30 922 O 83.6606 0.567338 -2.08831 0
M  V30 923 C 84.2556 -2.771 -1.94938 0
M  V30 924 C 82.8146 -2.82963 -2.48212 0
M  V30 925 C 81.9616 -2.46972 -1.26096 0
M  V30 926 H 84.9126 -1.56329 -0.273289 0
M  V30 927 H 84.9336 -2.57892 -2.79771 0
M  V30 928 H 84.4456 -3.64959 -1.32009 0
M  V30 929 H 82.5466 -1.99411 -3.14748 0
M  V30 930 H 82.6596 -3.85406 -2.84603 0
M  V30 931 H 81.0236 -1.98994 -1.58976 0
M  V30 932 H 81.8066 -3.37118 -0.648581 0
M  V30 933 N 84.2517 0.741722 -1.39055 0
M  V30 934 C 85.4997 1.49818 -1.35643 0
M  V30 935 C 85.8207 1.94938 0.0491642 0
M  V30 936 O 85.0907 1.68505 0.999141 0
M  V30 937 H 83.6707 0.555755 -0.499144 0
M  V30 938 H 86.3327 0.880957 -1.73854 0
M  V30 939 H 85.4287 2.38348 -2.01486 0
M  V30 940 N 85.7298 1.2412 0.971189 0
M  V30 941 C 86.9788 1.07284 1.70801 0
M  V30 942 C 87.2918 -0.388902 1.91695 0
M  V30 943 O 88.4978 -0.677379 2.62914 0
M  V30 944 C 86.9538 1.87145 3.07416 0
M  V30 945 C 86.5618 3.37707 2.94377 0
M  V30 946 C 88.3058 1.78828 3.84995 0
M  V30 947 C 86.2128 4.09925 4.26281 0
M  V30 948 H 85.1428 0.397854 0.64049 0
M  V30 949 H 87.7938 1.4817 1.0825 0
M  V30 950 H 86.1758 1.39071 3.70777 0
M  V30 951 H 87.3498 3.93335 2.4005 0
M  V30 952 H 85.6648 3.46938 2.30267 0
M  V30 953 H 88.2618 2.30089 4.82662 0
M  V30 954 H 88.6048 0.75284 4.09436 0
M  V30 955 H 89.1378 2.24563 3.28354 0
M  V30 956 H 85.8768 5.13813 4.07033 0
M  V30 957 H 85.3968 3.59083 4.80437 0
M  V30 958 H 87.0758 4.1673 4.94919 0
M  V30 959 N 87.2079 -1.17134 1.05439 0
M  V30 960 C 88.4559 -1.87085 0.764429 0
M  V30 961 C 88.7769 -1.81584 -0.710787 0
M  V30 962 O 88.0469 -1.24349 -1.51374 0
M  V30 963 H 86.6269 -0.692627 0.279779 0
M  V30 964 H 89.2889 -1.42087 1.33406 0
M  V30 965 H 88.3849 -2.92759 1.0816 0
M  V30 966 N 88.686 -0.835752 -1.33615 0
M  V30 967 C 89.616 -0.281739 -2.31794 0
M  V30 968 C 90.597 0.608833 -1.58831 0
M  V30 969 O 91.782 0.533035 -1.86741 0
M  V30 970 C 88.912 0.546612 -3.42971 0
M  V30 971 C 87.866 -0.247904 -4.27281 0
M  V30 972 C 87.192 0.704001 -5.30045 0
M  V30 973 C 88.492 -1.46324 -5.01385 0
M  V30 974 H 90.186 -1.10206 -2.78379 0
M  V30 975 H 87.732 -0.531388 -1.33837 0
M  V30 976 H 89.685 0.944467 -4.1068 0
M  V30 977 H 88.409 1.40011 -2.95067 0
M  V30 978 H 87.068 -0.627281 -3.61194 0
M  V30 979 H 86.716 1.55381 -4.78399 0
M  V30 980 H 86.416 0.176524 -5.87335 0
M  V30 981 H 87.94 1.09944 -6.0062 0
M  V30 982 H 89.354 -1.13871 -5.61877 0
M  V30 983 H 87.751 -1.92728 -5.6831 0
M  V30 984 H 88.821 -2.23467 -4.30338 0
M  V30 985 N 90.1641 1.46063 -0.591896 0
M  V30 986 C 91.1271 2.28854 0.125973 0
M  V30 987 C 92.1271 1.38903 0.810107 0
M  V30 988 O 93.3171 1.61186 0.66066 0
M  V30 989 C 90.4491 3.19526 1.1881 0
M  V30 990 H 91.6421 2.93802 -0.601717 0
M  V30 991 H 89.1951 1.52325 -0.350254 0
M  V30 992 H 89.9301 2.59345 1.94707 0
M  V30 993 H 89.7151 3.85766 0.701936 0
M  V30 994 H 91.2051 3.81817 1.69132 0
M  V30 995 N 91.6422 0.330177 1.54103 0
M  V30 996 C 92.6052 -0.520144 2.2322 0
M  V30 997 C 93.6052 -1.03828 1.22786 0
M  V30 998 O 94.7952 -0.929652 1.4732 0
M  V30 999 C 91.9272 -1.72317 2.94142 0
M  V30 1000 H 93.1202 0.0841605 2.99782 0
M  V30 1001 H 90.6732 0.0813433 1.56088 0
M  V30 1002 H 91.4082 -2.36653 2.21734 0
M  V30 1003 H 91.1932 -1.35898 3.67796 0
M  V30 1004 H 92.6832 -2.3266 3.46784 0
M  V30 1005 N 93.1203 -1.57491 0.0584922 0
M  V30 1006 C 94.5313 -1.80526 -0.476138 0
M  V30 1007 C 94.8823 -0.971334 -1.70469 0
M  V30 1008 O 94.0073 -0.190012 -2.15564 0
M  V30 1009 C 94.6023 -3.27424 -0.870587 0
M  V30 1010 C 93.1613 -3.51351 -1.35015 0
M  V30 1011 C 92.3083 -2.75343 -0.32887 0
M  V30 1012 H 95.2593 -1.56133 0.284312 0
M  V30 1013 H 95.2803 -3.38745 -1.73299 0
M  V30 1014 H 94.7923 -3.88093 0.0237627 0
M  V30 1015 H 92.8933 -2.95971 -2.26345 0
M  V30 1016 H 93.0063 -4.60059 -1.33726 0
M  V30 1017 H 91.3703 -2.417 -0.803321 0
M  V30 1018 H 92.1533 -3.38743 0.557521 0
M  V30 1019 N 94.5984 0.214957 -1.56127 0
M  V30 1020 C 95.5304 1.29004 -1.89448 0
M  V30 1021 C 96.5434 1.42716 -0.783326 0
M  V30 1022 O 97.7324 1.43496 -1.06166 0
M  V30 1023 C 94.8324 2.66482 -2.09381 0
M  V30 1024 C 94.0054 2.74633 -3.40434 0
M  V30 1025 C 93.0644 3.9317 -3.49719 0
M  V30 1026 O 92.0904 3.812 -4.227 0
M  V30 1027 N 93.2924 5.07765 -2.81346 0
M  V30 1028 H 96.0574 1.00743 -2.82261 0
M  V30 1029 H 93.6184 0.40497 -1.56753 0
M  V30 1030 H 95.6104 3.44173 -2.12901 0
M  V30 1031 H 94.1804 2.87314 -1.23163 0
M  V30 1032 H 93.4004 1.83368 -3.48955 0
M  V30 1033 H 94.6884 2.77054 -4.26754 0
M  V30 1034 H 94.0864 5.20386 -2.21843 0
M  V30 1035 H 92.6434 5.83474 -2.90519 0
M  V30 1036 N 96.0765 1.50051 0.48192 0
M  V30 1037 C 97.3255 1.59741 1.23149 0
M  V30 1038 C 97.6385 0.298163 1.93314 0
M  V30 1039 O 98.8445 0.273835 2.70116 0
M  V30 1040 C 97.3005 2.81926 2.23708 0
M  V30 1041 C 96.9085 4.18685 1.59396 0
M  V30 1042 C 98.6525 3.00956 2.99375 0
M  V30 1043 C 96.5595 5.3207 2.58178 0
M  V30 1044 H 95.4895 0.594838 0.46334 0
M  V30 1045 H 98.1405 1.76467 0.503169 0
M  V30 1046 H 96.5225 2.58736 2.99786 0
M  V30 1047 H 97.6965 4.52088 0.891811 0
M  V30 1048 H 96.0115 4.05171 0.960503 0
M  V30 1049 H 98.6085 3.82836 3.73283 0
M  V30 1050 H 98.9515 2.12258 3.58123 0
M  V30 1051 H 99.4845 3.24277 2.30411 0
M  V30 1052 H 96.2235 6.22888 2.04184 0
M  V30 1053 H 95.7435 5.03098 3.26577 0
M  V30 1054 H 97.4225 5.62196 3.20225 0
M  V30 1055 N 97.5546 -0.734337 1.39446 0
M  V30 1056 C 98.5026 -1.86971 1.38364 0
M  V30 1057 C 99.4966 -1.67288 0.266687 0
M  V30 1058 O 100.703 -1.74621 0.436755 0
M  V30 1059 H 97.0776 -0.615474 0.432082 0
M  V30 1060 H 99.0486 -1.85 2.34132 0
M  V30 1061 C 97.7976 -3.2466 1.24465 0
M  V30 1062 H 97.1206 -3.40402 2.09682 0
M  V30 1063 H 98.5606 -4.04292 1.27764 0
M  V30 1064 C 97.0196 -3.36867 -0.0468674 0
M  V30 1065 O 97.5496 -3.88618 -1.01681 0
M  V30 1066 N 95.7556 -2.90391 -0.110145 0
M  V30 1067 H 95.3026 -2.48466 0.679868 0
M  V30 1068 H 95.2606 -2.98939 -0.973799 0
M  V30 1069 N 99.0327 -1.24633 -0.964593 0
M  V30 1070 C 100.279 -1.08949 -1.71049 0
M  V30 1071 C 100.612 0.370302 -1.90637 0
M  V30 1072 O 99.8867 1.27349 -1.47011 0
M  V30 1073 C 100.17 -1.83329 -3.0994 0
M  V30 1074 C 100.023 -3.37077 -2.97824 0
M  V30 1075 C 101.342 -1.60846 -4.09654 0
M  V30 1076 H 98.4607 -0.397178 -0.620821 0
M  V30 1077 H 101.103 -1.5334 -1.12191 0
M  V30 1078 H 99.2527 -1.45597 -3.60186 0
M  V30 1079 H 100.925 -3.84425 -2.5498 0
M  V30 1080 H 99.1677 -3.65298 -2.33965 0
M  V30 1081 H 99.8387 -3.84324 -3.96231 0
M  V30 1082 H 102.315 -1.93674 -3.68279 0
M  V30 1083 H 101.191 -2.1534 -5.04896 0
M  V30 1084 H 101.452 -0.547434 -4.38698 0
M  V30 1085 N 100.511 1.16574 -1.06058 0
M  V30 1086 C 101.736 1.91493 -0.796562 0
M  V30 1087 C 102.161 1.76773 0.642868 0
M  V30 1088 O 101.519 1.09142 1.44768 0
M  V30 1089 C 101.567 3.40293 -1.19303 0
M  V30 1090 O 100.671 4.11074 -0.330394 0
M  V30 1091 H 100.012 0.596678 -0.291326 0
M  V30 1092 H 102.542 1.47708 -1.41575 0
M  V30 1093 H 102.552 3.91057 -1.16356 0
M  V30 1094 H 101.227 3.50326 -2.24153 0
M  V30 1095 H 99.8038 3.70513 -0.421225 0
M  V30 1096 N 101.989 0.842826 1.3317 0
M  V30 1097 C 102.936 0.276885 2.29133 0
M  V30 1098 C 103.906 -0.609527 1.54512 0
M  V30 1099 O 105.091 -0.546955 1.82792 0
M  V30 1100 C 102.231 -0.538707 3.40869 0
M  V30 1101 C 101.344 0.372169 4.30394 0
M  V30 1102 C 100.479 -0.454908 5.29249 0
M  V30 1103 C 99.5179 0.45411 6.10413 0
M  V30 1104 N 98.6549 -0.335075 7.013 0
M  V30 1105 H 103.495 1.10052 2.76934 0
M  V30 1106 H 101.032 0.554161 1.36262 0
M  V30 1107 H 102.99 -1.02709 4.0436 0
M  V30 1108 H 101.62 -1.32727 2.9425 0
M  V30 1109 H 100.672 0.97888 3.6759 0
M  V30 1110 H 101.984 1.0703 4.87182 0
M  V30 1111 H 101.138 -1.00695 5.98285 0
M  V30 1112 H 99.8769 -1.18646 4.73048 0
M  V30 1113 H 98.8819 1.01813 5.40291 0
M  V30 1114 H 100.107 1.18409 6.68697 0
M  V30 1115 H 98.0529 -1.04994 6.47543 0
M  V30 1116 H 97.9699 0.304262 7.55387 0
M  V30 1117 H 99.2379 -0.869224 7.74638 0
M  V30 1118 N 103.467 -1.45747 0.599634 0
M  V30 1119 C 104.883 -1.57424 0.26264 0
M  V30 1120 C 105.083 -1.59222 -1.23493 0
M  V30 1121 O 104.139 -1.51825 -2.01756 0
M  V30 1122 C 105.452 -2.86061 0.926795 0
M  V30 1123 C 107 -2.99722 0.901967 0
M  V30 1124 C 107.475 -4.31119 1.54598 0
M  V30 1125 N 108.966 -4.37858 1.5111 0
M  V30 1126 C 109.701 -5.3818 1.97863 0
M  V30 1127 N 109.197 -6.45083 2.52666 0
M  V30 1128 N 110.99 -5.29487 1.88679 0
M  V30 1129 H 103.141 -1.42823 1.57211 0
M  V30 1130 H 105.404 -0.68235 0.658105 0
M  V30 1131 H 105.11 -2.90605 1.98095 0
M  V30 1132 H 104.984 -3.74563 0.445238 0
M  V30 1133 H 107.371 -2.9475 -0.143617 0
M  V30 1134 H 107.452 -2.12652 1.42171 0
M  V30 1135 H 107.096 -4.36849 2.59085 0
M  V30 1136 H 107.026 -5.16992 1.00132 0
M  V30 1137 H 109.517 -3.61209 1.11068 0
M  V30 1138 H 109.83 -7.17869 2.86155 0
M  V30 1139 H 108.175 -6.45856 2.56701 0
M  V30 1140 H 111.366 -4.44877 1.4561 0
M  V30 1141 H 111.539 -6.07524 2.25429 0
M  V30 1142 N 104.945 -0.338344 -1.53925 0
M  V30 1143 C 105.878 0.563758 -2.21127 0
M  V30 1144 C 106.856 1.10433 -1.19345 0
M  V30 1145 O 108.04 1.16557 -1.48144 0
M  V30 1146 C 105.167 1.77505 -2.88461 0
M  V30 1147 C 104.213 1.3644 -4.04087 0
M  V30 1148 S 105.046 0.388593 -5.34088 0
M  V30 1149 C 106.202 1.60683 -6.04923 0
M  V30 1150 H 106.435 -0.00704546 -2.97299 0
M  V30 1151 H 103.968 -0.122418 -1.53914 0
M  V30 1152 H 105.926 2.46999 -3.27875 0
M  V30 1153 H 104.587 2.31706 -2.12064 0
M  V30 1154 H 103.78 2.26739 -4.50117 0
M  V30 1155 H 103.382 0.748998 -3.66423 0
M  V30 1156 H 105.674 2.54209 -6.28 0
M  V30 1157 H 106.617 1.18842 -6.98056 0
M  V30 1158 H 107.025 1.80052 -5.35015 0
M  V30 1159 N 106.423 1.57458 -0.0668435 0
M  V30 1160 C 107.672 1.92477 0.602947 0
M  V30 1161 C 107.985 0.948419 1.71068 0
M  V30 1162 O 109.191 1.19124 2.43971 0
M  V30 1163 C 107.647 3.41903 1.12383 0
M  V30 1164 C 107.255 4.47975 0.04737 0
M  V30 1165 C 108.999 3.85931 1.76797 0
M  V30 1166 C 106.906 5.88529 0.582022 0
M  V30 1167 H 105.836 0.718387 0.22899 0
M  V30 1168 H 108.487 1.82978 -0.138276 0
M  V30 1169 H 106.869 3.46459 1.91787 0
M  V30 1170 H 108.043 4.55029 -0.726978 0
M  V30 1171 H 106.358 4.13384 -0.500243 0
M  V30 1172 H 108.955 4.88322 2.17821 0
M  V30 1173 H 109.298 3.23029 2.62599 0
M  V30 1174 H 109.831 3.83958 1.04024 0
M  V30 1175 H 106.57 6.55065 -0.238721 0
M  V30 1176 H 106.09 5.85004 1.324 0
M  V30 1177 H 107.769 6.38258 1.05999 0
M  V30 1178 N 107.901 -0.206675 1.56239 0
M  V30 1179 C 108.864 -1.23976 1.92776 0
M  V30 1180 C 109.864 -1.39041 0.807729 0
M  V30 1181 O 111.054 -1.37051 1.0753 0
M  V30 1182 C 108.186 -2.61112 2.19165 0
M  V30 1183 H 109.379 -0.927764 2.85189 0
M  V30 1184 H 106.932 -0.447718 1.4975 0
M  V30 1185 H 107.667 -2.97386 1.29352 0
M  V30 1186 H 107.452 -2.51552 3.00772 0
M  V30 1187 H 108.942 -3.35633 2.48476 0
M  V30 1188 N 109.379 -1.50304 -0.473955 0
M  V30 1189 C 110.625 -1.61389 -1.22806 0
M  V30 1190 C 110.958 -0.311955 -1.91678 0
M  V30 1191 O 110.233 0.686384 -1.81986 0
M  V30 1192 C 110.516 -2.79219 -2.27396 0
M  V30 1193 C 110.369 -4.19286 -1.62848 0
M  V30 1194 C 111.688 -2.92614 -3.28732 0
M  V30 1195 H 108.807 -0.587399 -0.445119 0
M  V30 1196 H 111.449 -1.82681 -0.522265 0
M  V30 1197 H 109.599 -2.61195 -2.87592 0
M  V30 1198 H 111.271 -4.48892 -1.06271 0
M  V30 1199 H 109.514 -4.23677 -0.931693 0
M  V30 1200 H 110.185 -4.97655 -2.38838 0
M  V30 1201 H 112.661 -3.09105 -2.78556 0
M  V30 1202 H 111.537 -3.76688 -3.99246 0
M  V30 1203 H 111.798 -2.03107 -3.92683 0
M  V30 1204 N 110.857 0.726932 -1.39834 0
M  V30 1205 C 111.807 1.83232 -1.35683 0
M  V30 1206 C 112.791 1.59155 -0.236295 0
M  V30 1207 O 113.983 1.70522 -0.474488 0
M  V30 1208 C 111.112 3.21246 -1.21062 0
M  V30 1209 C 110.198 3.51125 -2.37849 0
M  V30 1210 N 110.589 3.51889 -3.63329 0
M  V30 1211 C 108.887 3.81527 -2.30982 0
M  V30 1212 C 109.588 3.79791 -4.40606 0
M  V30 1213 N 108.564 3.97971 -3.70297 0
M  V30 1214 H 112.366 1.8214 -2.30656 0
M  V30 1215 H 109.88 0.925545 -1.33444 0
M  V30 1216 H 111.877 4.00387 -1.16171 0
M  V30 1217 H 110.537 3.23572 -0.270458 0
M  V30 1218 H 111.548 3.33008 -3.96643 0
M  V30 1219 H 108.225 3.91411 -1.45272 0
M  V30 1220 H 109.615 3.86783 -5.49408 0
M  V30 1221 N 112.336 1.25143 0.95797 0
M  V30 1222 C 113.582 1.09855 1.70469 0
M  V30 1223 C 113.915 -0.360187 1.90831 0
M  V30 1224 O 113.19 -1.26568 1.47685 0
M  V30 1225 C 113.473 1.8497 3.08963 0
M  V30 1226 C 113.326 3.38652 2.96032 0
M  V30 1227 C 114.645 1.63016 4.08795 0
M  V30 1228 H 111.764 0.400465 0.618706 0
M  V30 1229 H 114.406 1.53933 1.11376 0
M  V30 1230 H 112.556 1.47505 3.59409 0
M  V30 1231 H 114.228 3.85772 2.52938 0
M  V30 1232 H 112.471 3.66534 2.32025 0
M  V30 1233 H 113.142 3.8642 3.94187 0
M  V30 1234 H 115.618 1.95625 3.67247 0
M  V30 1235 H 114.494 2.18015 5.03747 0
M  V30 1236 H 114.755 0.570692 4.38401 0
M  V30 1237 N 113.814 -1.1601 1.06675 0
M  V30 1238 C 115.042 -1.90527 0.806667 0
M  V30 1239 C 115.457 -1.77643 -0.639396 0
M  V30 1240 O 114.814 -1.12369 -1.43803 0
M  V30 1241 C 114.865 -3.41106 1.19705 0
M  V30 1242 O 114.586 -3.53608 2.58636 0
M  V30 1243 C 116.087 -4.32663 0.965266 0
M  V30 1244 H 113.307 -0.604053 0.292166 0
M  V30 1245 H 115.851 -1.47026 1.4214 0
M  V30 1246 H 114.006 -3.82296 0.626774 0
M  V30 1247 H 114.42 -4.47011 2.74375 0
M  V30 1248 H 115.894 -5.36763 1.288 0
M  V30 1249 H 116.371 -4.39089 -0.0987936 0
M  V30 1250 H 116.977 -3.97206 1.52011 0
M  V30 1251 N 115.292 -0.849877 -1.32721 0
M  V30 1252 C 116.569 -0.372405 -1.92022 0
M  V30 1253 C 116.949 1.1435 -1.77447 0
M  V30 1254 O 116.297 1.96296 -1.16962 0
M  V30 1255 C 116.507 -0.831482 -3.3895 0
M  V30 1256 C 117.855 -0.845882 -4.16089 0
M  V30 1257 O 118.879 -0.775806 -3.47649 0
M  V30 1258 O 117.738 -0.943753 -5.38289 0
M  V30 1259 H 114.832 -0.107667 -0.819961 0
M  V30 1260 H 117.378 -0.93646 -1.41522 0
M  V30 1261 H 116.15 -1.87448 -3.4348 0
M  V30 1262 H 115.773 -0.24461 -3.96847 0
M  V30 1263 N 116.77 1.45427 -0.607355 0
M  V30 1264 C 117.68 2.34325 0.113463 0
M  V30 1265 C 118.696 1.51226 0.860617 0
M  V30 1266 O 119.872 1.84029 0.818255 0
M  V30 1267 C 116.937 3.28839 1.09844 0
M  V30 1268 C 115.998 4.27844 0.353271 0
M  V30 1269 C 115.231 5.17842 1.29133 0
M  V30 1270 O 115.454 5.11264 2.52913 0
M  V30 1271 O 114.388 5.96713 0.788523 0
M  V30 1272 H 118.214 2.97364 -0.617094 0
M  V30 1273 H 115.799 1.44807 -0.367619 0
M  V30 1274 H 117.681 3.8708 1.66575 0
M  V30 1275 H 116.356 2.68365 1.81003 0
M  V30 1276 H 115.263 3.7322 -0.256494 0
M  V30 1277 H 116.596 4.91173 -0.317822 0
M  V30 1278 N 118.248 0.346503 1.53744 0
M  V30 1279 C 119.196 -0.52422 2.26616 0
M  V30 1280 C 120.19 -1.09948 1.28871 0
M  V30 1281 O 121.396 -1.04488 1.46568 0
M  V30 1282 H 117.771 -0.187743 0.728187 0
M  V30 1283 H 119.742 0.11239 2.98188 0
M  V30 1284 C 118.491 -1.66186 3.05414 0
M  V30 1285 H 117.814 -1.22848 3.80458 0
M  V30 1286 H 119.254 -2.24622 3.59612 0
M  V30 1287 C 117.713 -2.59302 2.1509 0
M  V30 1288 O 118.243 -3.61628 1.74895 0
M  V30 1289 N 116.449 -2.28055 1.8011 0
M  V30 1290 H 115.996 -1.44883 2.12994 0
M  V30 1291 H 115.954 -2.90615 1.19958 0
M  V30 1292 N 119.726 -1.57421 0.075193 0
M  V30 1293 C 120.974 -1.93236 -0.591974 0
M  V30 1294 C 121.295 -0.956241 -1.69944 0
M  V30 1295 O 120.565 -0.00494792 -1.95899 0
M  V30 1296 H 119.145 -0.713355 -0.22166 0
M  V30 1297 H 121.807 -1.9444 0.133848 0
M  V30 1298 H 120.903 -2.95131 -1.01509 0
M  V30 1299 N 121.204 0.198386 -1.56346 0
M  V30 1300 C 122.432 0.935572 -1.84539 0
M  V30 1301 C 122.847 1.76989 -0.657281 0
M  V30 1302 O 122.204 1.78626 0.374043 0
M  V30 1303 C 122.255 1.8344 -3.11499 0
M  V30 1304 O 121.976 1.03377 -4.25728 0
M  V30 1305 C 123.477 2.68355 -3.52846 0
M  V30 1306 H 120.697 0.273126 -0.612897 0
M  V30 1307 H 123.241 0.20663 -2.03453 0
M  V30 1308 H 121.396 2.51701 -2.94492 0
M  V30 1309 H 121.81 1.64599 -4.98003 0
M  V30 1310 H 123.284 3.27085 -4.44657 0
M  V30 1311 H 123.761 3.41901 -2.75681 0
M  V30 1312 H 124.367 2.05471 -3.72373 0
M  V30 1313 N 122.682 1.50554 0.465978 0
M  V30 1314 C 123.612 1.72722 1.57128 0
M  V30 1315 C 124.593 0.576294 1.6004 0
M  V30 1316 O 125.778 0.81598 1.76225 0
M  V30 1317 C 122.908 1.82605 2.95419 0
M  V30 1318 C 121.862 2.97835 3.07373 0
M  V30 1319 C 121.188 2.92867 4.47363 0
M  V30 1320 C 122.488 4.38265 2.84114 0
M  V30 1321 H 124.182 2.65267 1.38829 0
M  V30 1322 H 121.728 1.2765 0.666441 0
M  V30 1323 H 123.681 1.96698 3.72677 0
M  V30 1324 H 122.405 0.866858 3.14886 0
M  V30 1325 H 121.064 2.83401 2.3255 0
M  V30 1326 H 120.712 1.94783 4.63755 0
M  V30 1327 H 120.412 3.70227 4.56296 0
M  V30 1328 H 121.936 3.09015 5.26633 0
M  V30 1329 H 123.35 4.53198 3.51118 0
M  V30 1330 H 121.747 5.17115 3.04487 0
M  V30 1331 H 122.817 4.50281 1.7993 0
M  V30 1332 N 124.16 -0.719506 1.40217 0
M  V30 1333 C 125.39 -1.50646 1.41384 0
M  V30 1334 C 125.798 -1.89197 0.0107743 0
M  V30 1335 O 125.141 -1.55709 -0.974708 0
M  V30 1336 C 125.203 -2.81405 2.23722 0
M  V30 1337 C 124.867 -2.65199 3.72181 0
M  V30 1338 C 125.864 -2.32717 4.64907 0
M  V30 1339 C 123.549 -2.81586 4.1595 0
M  V30 1340 C 125.543 -2.16827 5.99387 0
M  V30 1341 C 123.23 -2.65313 5.50502 0
M  V30 1342 C 124.228 -2.32981 6.42035 0
M  V30 1343 O 123.916 -2.16827 7.74107 0
M  V30 1344 H 123.648 -0.471606 0.484318 0
M  V30 1345 H 126.202 -0.895456 1.84853 0
M  V30 1346 H 124.432 -3.44823 1.75026 0
M  V30 1347 H 126.121 -3.43102 2.16878 0
M  V30 1348 H 126.887 -2.19694 4.32388 0
M  V30 1349 H 122.766 -3.0574 3.45027 0
M  V30 1350 H 126.31 -1.91513 6.70797 0
M  V30 1351 H 122.207 -2.7792 5.82607 0
M  V30 1352 H 122.975 -2.31778 7.84998 0
M  V30 1353 N 125.638 -1.25649 -0.95132 0
M  V30 1354 C 126.863 -1.13443 -1.73624 0
M  V30 1355 C 127.288 0.307565 -1.85568 0
M  V30 1356 O 126.646 1.22282 -1.33854 0
M  V30 1357 C 126.694 -1.79723 -3.12621 0
M  V30 1358 O 125.798 -1.07912 -3.98031 0
M  V30 1359 H 125.139 -0.395872 -0.533086 0
M  V30 1360 H 127.669 -1.66276 -1.1922 0
M  V30 1361 H 127.679 -1.86141 -3.63064 0
M  V30 1362 H 126.354 -2.84633 -3.03244 0
M  V30 1363 H 124.931 -1.09398 -3.56492 0
M  V30 1364 N 127.117 1.15442 -1.07289 0
M  V30 1365 C 128.347 1.89821 -0.815576 0
M  V30 1366 C 128.755 1.7823 0.634867 0
M  V30 1367 O 128.098 1.13152 1.44715 0
M  V30 1368 C 128.16 3.40817 -1.14385 0
M  V30 1369 C 127.824 3.76193 -2.59476 0
M  V30 1370 C 128.821 3.77269 -3.57721 0
M  V30 1371 C 126.506 4.0652 -2.95037 0
M  V30 1372 C 128.5 4.08176 -4.89562 0
M  V30 1373 C 126.187 4.37092 -4.27076 0
M  V30 1374 C 127.185 4.37902 -5.24148 0
M  V30 1375 O 126.873 4.67741 -6.53815 0
M  V30 1376 H 126.605 0.608465 -0.294528 0
M  V30 1377 H 129.159 1.472 -1.43252 0
M  V30 1378 H 127.389 3.83835 -0.469865 0
M  V30 1379 H 129.078 3.96485 -0.869179 0
M  V30 1380 H 129.844 3.5394 -3.3159 0
M  V30 1381 H 125.723 4.05049 -2.20128 0
M  V30 1382 H 129.267 4.08723 -5.65324 0
M  V30 1383 H 125.164 4.59889 -4.5296 0
M  V30 1384 H 125.932 4.85509 -6.58957 0
M  V30 1385 N 128.595 0.856903 1.32268 0
M  V30 1386 C 129.558 0.308171 2.27119 0
M  V30 1387 C 130.558 -0.533421 1.51695 0
M  V30 1388 O 131.748 -0.344607 1.70757 0
M  V30 1389 C 128.88 -0.563757 3.36206 0
M  V30 1390 H 130.073 1.14535 2.77167 0
M  V30 1391 H 127.626 0.631421 1.42978 0
M  V30 1392 H 128.361 -1.42266 2.91429 0
M  V30 1393 H 128.146 0.0386749 3.92081 0
M  V30 1394 H 129.636 -0.940386 4.06874 0
M  V30 1395 N 130.073 -1.45103 0.615059 0
M  V30 1396 C 131.003 -2.33339 -0.0865619 0
M  V30 1397 C 131.984 -1.4727 -0.851209 0
M  V30 1398 O 133.169 -1.76026 -0.820281 0
M  V30 1399 C 130.299 -3.30095 -1.07956 0
M  V30 1400 C 129.253 -4.25858 -0.427628 0
M  V30 1401 C 128.579 -5.12361 -1.5294 0
M  V30 1402 C 129.879 -5.18165 0.655944 0
M  V30 1403 H 131.573 -2.92254 0.650224 0
M  V30 1404 H 129.119 -1.40532 0.314138 0
M  V30 1405 H 131.072 -3.90698 -1.57901 0
M  V30 1406 H 129.796 -2.69355 -1.84703 0
M  V30 1407 H 128.455 -3.66564 0.0510292 0
M  V30 1408 H 128.103 -4.47984 -2.28734 0
M  V30 1409 H 127.803 -5.77238 -1.09865 0
M  V30 1410 H 129.327 -5.75833 -2.03098 0
M  V30 1411 H 130.741 -5.72796 0.240257 0
M  V30 1412 H 129.138 -5.91559 1.00888 0
M  V30 1413 H 130.208 -4.60144 1.52957 0
M  V30 1414 N 131.551 -0.354651 -1.53558 0
M  V30 1415 C 132.798 0.238443 -2.01091 0
M  V30 1416 C 133.126 1.49663 -1.24222 0
M  V30 1417 O 132.381 1.93049 -0.321003 0
M  V30 1418 C 132.68 0.587121 -3.52545 0
M  V30 1419 C 132.346 -0.575472 -4.47213 0
M  V30 1420 C 131.008 -0.894497 -4.72813 0
M  V30 1421 C 133.36 -1.35489 -5.03281 0
M  V30 1422 C 130.688 -1.99511 -5.51736 0
M  V30 1423 C 133.04 -2.44583 -5.83405 0
M  V30 1424 C 131.704 -2.77033 -6.07296 0
M  V30 1425 H 130.974 0.0872526 -0.735845 0
M  V30 1426 H 133.621 -0.484859 -1.8526 0
M  V30 1427 H 131.926 1.39129 -3.66265 0
M  V30 1428 H 133.623 1.05809 -3.86789 0
M  V30 1429 H 130.213 -0.316774 -4.27428 0
M  V30 1430 H 134.397 -1.12167 -4.83459 0
M  V30 1431 H 129.653 -2.25063 -5.68469 0
M  V30 1432 H 133.827 -3.05401 -6.25862 0
M  V30 1433 H 131.454 -3.6244 -6.68237 0
M  V30 1434 N 133.029 1.57378 -0.0835403 0
M  V30 1435 C 133.977 2.14602 0.89714 0
M  V30 1436 C 134.971 1.08589 1.30018 0
M  V30 1437 O 136.177 1.26952 1.27606 0
M  V30 1438 H 132.552 0.686346 0.3073 0
M  V30 1439 H 134.523 2.95845 0.38969 0
M  V30 1440 C 133.272 2.73188 2.15089 0
M  V30 1441 H 132.595 3.54442 1.84962 0
M  V30 1442 H 134.035 3.1681 2.81793 0
M  V30 1443 C 132.494 1.68517 2.91725 0
M  V30 1444 O 133.024 1.11718 3.85852 0
M  V30 1445 N 131.23 1.39277 2.55049 0
M  V30 1446 H 130.777 1.85655 1.78577 0
M  V30 1447 H 130.735 0.694791 3.06627 0
M  V30 1448 N 134.507 -0.190092 1.56449 0
M  V30 1449 C 135.918 -0.754312 1.70784 0
M  V30 1450 C 136.269 -1.83631 0.690951 0
M  V30 1451 O 135.394 -2.15868 -0.151604 0
M  V30 1452 C 135.989 -1.37503 3.09642 0
M  V30 1453 C 134.548 -1.88628 3.25725 0
M  V30 1454 C 133.695 -0.758098 2.66736 0
M  V30 1455 H 136.646 0.0350524 1.58661 0
M  V30 1456 H 136.667 -2.2445 3.0725 0
M  V30 1457 H 136.179 -0.587302 3.83631 0
M  V30 1458 H 134.28 -2.70103 2.56661 0
M  V30 1459 H 134.393 -2.04462 4.3328 0
M  V30 1460 H 132.757 -1.17369 2.26046 0
M  V30 1461 H 133.54 0.0174705 3.43296 0
M  V30 1462 N 135.985 -1.50799 -0.457987 0
M  V30 1463 C 136.932 -1.70617 -1.5543 0
M  V30 1464 C 137.902 -0.547562 -1.56815 0
M  V30 1465 O 139.087 -0.779647 -1.74144 0
M  V30 1466 C 136.227 -1.81831 -2.93311 0
M  V30 1467 C 135.34 -3.09278 -3.01615 0
M  V30 1468 C 134.475 -3.11209 -4.30491 0
M  V30 1469 C 133.514 -4.33055 -4.32585 0
M  V30 1470 N 132.651 -4.32652 -5.52952 0
M  V30 1471 H 137.491 -2.64207 -1.37836 0
M  V30 1472 H 135.028 -1.30959 -0.669937 0
M  V30 1473 H 136.986 -1.86314 -3.73287 0
M  V30 1474 H 135.616 -0.916685 -3.0951 0
M  V30 1475 H 134.668 -3.14203 -2.1443 0
M  V30 1476 H 135.98 -3.99233 -2.99022 0
M  V30 1477 H 135.134 -3.14494 -5.18824 0
M  V30 1478 H 133.873 -2.19106 -4.35711 0
M  V30 1479 H 132.878 -4.29969 -3.42647 0
M  V30 1480 H 134.103 -5.264 -4.29046 0
M  V30 1481 H 132.049 -3.43409 -5.58933 0
M  V30 1482 H 131.966 -5.16392 -5.52155 0
M  V30 1483 H 133.234 -4.40101 -6.43375 0
M  V30 1484 N 137.463 0.71206 -1.40597 0
M  V30 1485 C 138.712 1.46754 -1.38369 0
M  V30 1486 C 139.025 1.95598 0.0097839 0
M  V30 1487 O 140.231 2.71059 0.154677 0
M  V30 1488 C 138.687 2.65289 -2.43207 0
M  V30 1489 C 138.295 2.23301 -3.88382 0
M  V30 1490 C 140.039 3.43008 -2.50091 0
M  V30 1491 C 137.946 3.38696 -4.84808 0
M  V30 1492 H 136.876 0.55118 -0.514506 0
M  V30 1493 H 139.527 0.774616 -1.66349 0
M  V30 1494 H 137.909 3.36769 -2.08332 0
M  V30 1495 H 139.083 1.59218 -4.32419 0
M  V30 1496 H 137.398 1.58618 -3.85006 0
M  V30 1497 H 139.995 4.28881 -3.1932 0
M  V30 1498 H 140.338 3.87065 -1.53253 0
M  V30 1499 H 140.871 2.78574 -2.83974 0
M  V30 1500 H 137.61 2.99668 -5.82992 0
M  V30 1501 H 137.13 4.01683 -4.45433 0
M  V30 1502 H 138.809 4.04712 -5.04794 0
M  V30 1503 N 138.941 1.26152 0.944643 0
M  V30 1504 C 140.187 1.11657 1.69294 0
M  V30 1505 C 140.52 -0.339926 1.91202 0
M  V30 1506 O 139.795 -1.24994 1.49019 0
M  V30 1507 C 140.078 1.88236 3.06984 0
M  V30 1508 C 139.931 3.41772 2.92424 0
M  V30 1509 C 141.25 1.67343 4.07043 0
M  V30 1510 H 138.369 0.407004 0.614424 0
M  V30 1511 H 141.011 1.55106 1.09737 0
M  V30 1512 H 139.161 1.51308 3.57824 0
M  V30 1513 H 140.833 3.88433 2.48832 0
M  V30 1514 H 139.076 3.68974 2.28124 0
M  V30 1515 H 139.747 3.90579 3.90067 0
M  V30 1516 H 142.223 1.99509 3.65151 0
M  V30 1517 H 141.099 2.23346 5.01406 0
M  V30 1518 H 141.36 0.617158 4.37771 0
M  V30 1519 N 140.419 -1.14872 1.07899 0
M  V30 1520 C 141.644 -1.90202 0.826926 0
M  V30 1521 C 142.069 -1.77774 -0.614664 0
M  V30 1522 O 141.427 -1.11431 -1.43013 0
M  V30 1523 C 141.475 -3.38352 1.24702 0
M  V30 1524 O 140.579 -4.10497 0.39575 0
M  V30 1525 H 139.92 -0.591968 0.300782 0
M  V30 1526 H 142.45 -1.45437 1.43907 0
M  V30 1527 H 142.46 -3.89156 1.22563 0
M  V30 1528 H 141.135 -3.46715 2.29698 0
M  V30 1529 H 139.712 -3.69796 0.480117 0
M  V30 1530 N 141.898 -0.863906 -1.31812 0
M  V30 1531 C 142.848 -0.286898 -2.26188 0
M  V30 1532 C 143.832 0.572577 -1.50367 0
M  V30 1533 O 145.024 0.420447 -1.71934 0
M  V30 1534 C 142.153 0.515849 -3.39402 0
M  V30 1535 C 141.239 -0.356531 -4.22599 0
M  V30 1536 N 141.63 -1.44716 -4.84656 0
M  V30 1537 C 139.928 -0.147898 -4.45755 0
M  V30 1538 C 140.629 -1.98462 -5.46798 0
M  V30 1539 N 139.605 -1.28247 -5.28255 0
M  V30 1540 H 143.407 -1.12055 -2.717 0
M  V30 1541 H 140.921 -0.711012 -1.46008 0
M  V30 1542 H 142.918 0.945701 -4.06032 0
M  V30 1543 H 141.578 1.34718 -2.95434 0
M  V30 1544 H 142.589 -1.83008 -4.84488 0
M  V30 1545 H 139.266 0.647973 -4.12441 0
M  V30 1546 H 140.656 -2.89932 -6.06126 0
M  V30 1547 N 143.376 1.44774 -0.622745 0
M  V30 1548 C 144.601 2.06999 -0.128968 0
M  V30 1549 C 145.026 1.4617 1.1839 0
M  V30 1550 O 144.384 0.560007 1.72434 0
M  V30 1551 C 144.432 3.60595 -0.0188351 0
M  V30 1552 O 143.536 3.99398 1.02739 0
M  V30 1553 H 142.877 0.659047 -0.0809544 0
M  V30 1554 H 145.407 1.85784 -0.85705 0
M  V30 1555 H 145.417 4.07627 0.174476 0
M  V30 1556 H 144.092 4.04252 -0.977384 0
M  V30 1557 H 142.669 3.64011 0.809326 0
M  V30 1558 N 144.854 0.36279 1.53368 0
M  V30 1559 C 146.1 -0.228113 2.01513 0
M  V30 1560 C 146.433 -1.48648 1.2497 0
M  V30 1561 O 145.708 -1.91459 0.342616 0
M  V30 1562 C 145.991 -0.522884 3.56284 0
M  V30 1563 C 145.844 0.74892 4.43521 0
M  V30 1564 C 147.163 -1.32461 4.19693 0
M  V30 1565 H 144.282 -0.0814343 0.732487 0
M  V30 1566 H 146.924 0.48713 1.83649 0
M  V30 1567 H 145.074 -1.1322 3.71636 0
M  V30 1568 H 146.746 1.38648 4.39971 0
M  V30 1569 H 144.989 1.36986 4.11603 0
M  V30 1570 H 145.66 0.497667 5.49752 0
M  V30 1571 H 148.136 -0.809203 4.08156 0
M  V30 1572 H 147.012 -1.49961 5.28018 0
M  V30 1573 H 147.273 -2.33232 3.75573 0
M  V30 1574 N 146.332 -1.57332 0.0918853 0
M  V30 1575 C 147.264 -2.10869 -0.898168 0
M  V30 1576 C 148.277 -1.04521 -1.24817 0
M  V30 1577 O 149.466 -1.31977 -1.20184 0
M  V30 1578 C 146.566 -2.57083 -2.2082 0
M  V30 1579 C 145.739 -3.87229 -2.03402 0
M  V30 1580 C 144.798 -4.19324 -3.17889 0
M  V30 1581 O 143.824 -4.88598 -2.91994 0
M  V30 1582 N 145.026 -3.74471 -4.43567 0
M  V30 1583 H 147.791 -2.96439 -0.440943 0
M  V30 1584 H 145.352 -1.61631 -0.0933064 0
M  V30 1585 H 147.344 -2.75602 -2.96354 0
M  V30 1586 H 145.914 -1.76541 -2.57977 0
M  V30 1587 H 145.134 -3.7789 -1.12218 0
M  V30 1588 H 146.422 -4.72379 -1.89038 0
M  V30 1589 H 145.82 -3.18546 -4.67488 0
M  V30 1590 H 144.377 -3.98151 -5.16061 0
M  V30 1591 N 147.81 0.181792 -1.56548 0
M  V30 1592 C 148.742 1.24956 -1.92142 0
M  V30 1593 C 149.755 1.41022 -0.813422 0
M  V30 1594 O 150.944 1.41212 -1.09186 0
M  V30 1595 C 148.044 2.61981 -2.14987 0
M  V30 1596 C 147.217 2.6735 -3.46183 0
M  V30 1597 C 146.276 3.85664 -3.5798 0
M  V30 1598 O 145.302 3.72148 -4.30691 0
M  V30 1599 N 146.504 5.01683 -2.92053 0
M  V30 1600 H 149.269 0.947329 -2.84334 0
M  V30 1601 H 146.83 0.371629 -1.57577 0
M  V30 1602 H 148.822 3.3958 -2.20154 0
M  V30 1603 H 147.392 2.84637 -1.2923 0
M  V30 1604 H 146.612 1.75925 -3.52766 0
M  V30 1605 H 147.9 2.67939 -4.32534 0
M  V30 1606 H 147.298 5.15564 -2.32832 0
M  V30 1607 H 145.855 5.77181 -3.0283 0
M  V30 1608 N 149.288 1.51039 0.449983 0
M  V30 1609 C 150.528 1.64732 1.21007 0
M  V30 1610 C 150.892 0.349865 1.88785 0
M  V30 1611 O 152.093 0.362431 2.66345 0
M  V30 1612 C 150.364 2.80902 2.20973 0
M  V30 1613 S 151.923 3.14851 3.05638 0
M  V30 1614 H 148.741 0.5805 0.410538 0
M  V30 1615 H 151.343 1.88901 0.503634 0
M  V30 1616 H 150.047 3.73627 1.69796 0
M  V30 1617 H 149.578 2.58882 2.96215 0
M  V30 1618 H 151.593 2.60306 4.22439 0
M  V30 1619 N 150.766 -0.704594 1.40972 0
M  V30 1620 C 151.996 -1.49138 1.42974 0
M  V30 1621 C 152.404 -1.89175 0.0308406 0
M  V30 1622 O 151.747 -1.56734 -0.958138 0
M  V30 1623 C 151.809 -2.79016 2.26694 0
M  V30 1624 C 151.473 -2.61236 3.74973 0
M  V30 1625 C 152.47 -2.27773 4.67349 0
M  V30 1626 C 150.155 -2.77158 4.18914 0
M  V30 1627 C 152.149 -2.10457 6.01653 0
M  V30 1628 C 149.836 -2.59459 5.53285 0
M  V30 1629 C 150.834 -2.26158 6.4447 0
M  V30 1630 O 150.522 -2.08605 7.76363 0
M  V30 1631 H 150.254 -0.466443 0.489292 0
M  V30 1632 H 152.808 -0.8758 1.85793 0
M  V30 1633 H 151.038 -3.42947 1.78673 0
M  V30 1634 H 152.727 -3.40782 2.20504 0
M  V30 1635 H 153.493 -2.15095 4.34694 0
M  V30 1636 H 149.372 -3.02064 3.48251 0
M  V30 1637 H 152.916 -1.84387 6.72791 0
M  V30 1638 H 148.813 -2.71725 5.85522 0
M  V30 1639 H 149.581 -2.23439 7.87412 0
M  V30 1640 N 152.244 -1.26651 -0.937939 0
M  V30 1641 C 153.174 -1.10993 -2.05433 0
M  V30 1642 C 154.155 -0.0142161 -1.70094 0
M  V30 1643 O 155.34 -0.186837 -1.93299 0
M  V30 1644 C 152.47 -0.745561 -3.39203 0
M  V30 1645 C 151.424 -1.79337 -3.88616 0
M  V30 1646 C 150.75 -1.28324 -5.19073 0
M  V30 1647 C 152.05 -3.19553 -4.13138 0
M  V30 1648 H 153.744 -2.0438 -2.1879 0
M  V30 1649 H 151.29 -0.984041 -1.05131 0
M  V30 1650 H 153.243 -0.622888 -4.16771 0
M  V30 1651 H 151.967 0.22401 -3.25831 0
M  V30 1652 H 150.626 -1.90477 -3.13231 0
M  V30 1653 H 150.274 -0.303414 -5.02084 0
M  V30 1654 H 149.974 -1.98369 -5.53103 0
M  V30 1655 H 151.498 -1.1733 -5.99221 0
M  V30 1656 H 152.912 -3.11471 -4.81309 0
M  V30 1657 H 151.309 -3.87218 -4.58457 0
M  V30 1658 H 152.379 -3.65368 -3.18801 0
M  V30 1659 N 153.722 1.14298 -1.08507 0
M  V30 1660 C 154.95 1.89219 -0.836876 0
M  V30 1661 C 155.365 1.78638 0.611054 0
M  V30 1662 O 154.722 1.14643 1.41998 0
M  V30 1663 C 154.773 3.39158 -1.25116 0
M  V30 1664 O 154.494 3.49449 -2.64229 0
M  V30 1665 C 155.995 4.31073 -1.03398 0
M  V30 1666 H 153.215 0.599328 -0.301739 0
M  V30 1667 H 155.759 1.44746 -1.44461 0
M  V30 1668 H 153.914 3.81251 -0.687514 0
M  V30 1669 H 154.328 4.42589 -2.81452 0
M  V30 1670 H 155.802 5.34646 -1.37323 0
M  V30 1671 H 156.279 4.3919 0.0289259 0
M  V30 1672 H 156.885 3.94738 -1.58311 0
M  V30 1673 N 155.201 0.870884 1.31352 0
M  V30 1674 C 156.429 0.49677 2.00848 0
M  V30 1675 C 156.844 -0.910998 1.65367 0
M  V30 1676 O 156.201 -1.59696 0.883374 0
M  V30 1677 C 156.252 0.645308 3.55694 0
M  V30 1678 O 155.973 1.99764 3.89905 0
M  V30 1679 C 157.474 0.272326 4.42463 0
M  V30 1680 H 154.694 0.193462 0.642506 0
M  V30 1681 H 157.238 1.1723 1.67563 0
M  V30 1682 H 155.393 0.0173176 3.87396 0
M  V30 1683 H 155.807 2.00607 4.84621 0
M  V30 1684 H 157.281 0.427208 5.50344 0
M  V30 1685 H 157.758 -0.788587 4.32062 0
M  V30 1686 H 158.364 0.876054 4.1618 0
M  V30 1687 N 156.679 -1.44442 0.630414 0
M  V30 1688 C 157.927 -2.01653 0.134351 0
M  V30 1689 C 158.248 -1.49836 -1.24796 0
M  V30 1690 O 157.518 -0.701684 -1.82902 0
M  V30 1691 H 156.098 -0.74554 0.0466769 0
M  V30 1692 H 158.76 -1.76952 0.816955 0
M  V30 1693 H 157.856 -3.11935 0.101498 0
M  V30 1694 N 158.157 -0.370918 -1.53173 0
M  V30 1695 C 159.067 0.480823 -2.2962 0
M  V30 1696 C 160.083 1.08789 -1.35798 0
M  V30 1697 O 161.259 1.09768 -1.68858 0
M  V30 1698 C 158.324 1.60227 -3.07454 0
M  V30 1699 C 157.385 1.0222 -4.16953 0
M  V30 1700 C 156.618 2.0902 -4.91066 0
M  V30 1701 O 156.841 3.30222 -4.65091 0
M  V30 1702 O 155.775 1.71778 -5.76867 0
M  V30 1703 H 159.601 -0.141421 -3.03371 0
M  V30 1704 H 157.186 -0.135146 -1.48787 0
M  V30 1705 H 159.068 2.25417 -3.56041 0
M  V30 1706 H 157.743 2.20982 -2.36535 0
M  V30 1707 H 156.65 0.334064 -3.72605 0
M  V30 1708 H 157.983 0.459131 -4.90054 0
M  V30 1709 N 159.635 1.57281 -0.100228 0
M  V30 1710 C 160.883 1.94153 0.561157 0
M  V30 1711 C 161.204 0.983157 1.68401 0
M  V30 1712 O 160.474 0.0361132 1.95867 0
M  V30 1713 H 159.054 0.716791 0.210283 0
M  V30 1714 H 161.716 1.94202 -0.164765 0
M  V30 1715 H 160.812 2.96709 0.968008 0
M  V30 1716 N 161.113 -0.173488 1.56642 0
M  V30 1717 C 162.353 -0.896984 1.83667 0
M  V30 1718 C 162.717 -1.79523 0.680842 0
M  V30 1719 O 163.918 -2.55616 0.831488 0
M  V30 1720 C 162.189 -1.67351 3.15798 0
M  V30 1721 S 163.748 -2.44607 3.64298 0
M  V30 1722 H 160.566 -0.300464 0.644393 0
M  V30 1723 H 163.168 -0.158775 1.94854 0
M  V30 1724 H 161.872 -1.00462 3.97914 0
M  V30 1725 H 161.403 -2.45313 3.07546 0
M  V30 1726 H 163.418 -3.69261 3.31452 0
M  V30 1727 N 162.591 -1.51276 -0.441967 0
M  V30 1728 C 163.521 -1.752 -1.54361 0
M  V30 1729 C 164.502 -0.601682 -1.59103 0
M  V30 1730 O 165.687 -0.843913 -1.74905 0
M  V30 1731 C 162.817 -1.87282 -2.92477 0
M  V30 1732 C 161.771 -3.02687 -3.02596 0
M  V30 1733 C 161.097 -2.99947 -4.42647 0
M  V30 1734 C 162.397 -4.4273 -2.77106 0
M  V30 1735 H 164.091 -2.67442 -1.34592 0
M  V30 1736 H 161.637 -1.28694 -0.646048 0
M  V30 1737 H 163.59 -2.02602 -3.695 0
M  V30 1738 H 162.314 -0.916844 -3.13467 0
M  V30 1739 H 160.973 -2.87065 -2.28012 0
M  V30 1740 H 160.621 -2.02136 -4.60597 0
M  V30 1741 H 160.321 -3.77439 -4.50348 0
M  V30 1742 H 161.845 -3.17354 -5.2165 0
M  V30 1743 H 163.259 -4.58727 -3.43864 0
M  V30 1744 H 161.656 -5.21893 -2.96222 0
M  V30 1745 H 162.726 -4.53087 -1.72744 0
M  V30 1746 N 164.069 0.697108 -1.41344 0
M  V30 1747 C 165.294 1.49096 -1.44171 0
M  V30 1748 C 165.719 1.88038 -0.0481568 0
M  V30 1749 O 165.077 1.54525 0.948243 0
M  V30 1750 C 165.125 2.73088 -2.3549 0
M  V30 1751 O 164.229 3.70514 -1.81088 0
M  V30 1752 H 163.57 0.448801 -0.489361 0
M  V30 1753 H 166.1 0.856992 -1.85787 0
M  V30 1754 H 166.11 3.21413 -2.51312 0
M  V30 1755 H 164.785 2.44081 -3.36745 0
M  V30 1756 H 163.362 3.29441 -1.74708 0
M  V30 1757 N 165.547 1.27147 0.931209 0
M  V30 1758 C 166.793 1.13446 1.68101 0
M  V30 1759 C 167.126 -0.319628 1.91552 0
M  V30 1760 O 166.401 -1.23407 1.50336 0
M  V30 1761 C 166.684 1.91482 3.0497 0
M  V30 1762 C 166.537 3.44855 2.88782 0
M  V30 1763 C 167.856 1.71651 4.05246 0
M  V30 1764 H 164.975 0.413498 0.610072 0
M  V30 1765 H 167.617 1.56261 1.08086 0
M  V30 1766 H 165.767 1.55095 3.56199 0
M  V30 1767 H 167.439 3.9105 2.44698 0
M  V30 1768 H 165.682 3.71373 2.24198 0
M  V30 1769 H 166.353 3.94694 3.85902 0
M  V30 1770 H 168.829 2.0337 3.63015 0
M  V30 1771 H 167.705 2.28651 4.99009 0
M  V30 1772 H 167.966 0.663555 4.37092 0
M  V30 1773 N 167.025 -1.13721 1.09112 0
M  V30 1774 C 168.302 -1.81155 0.737706 0
M  V30 1775 C 168.682 -1.96253 -0.777683 0
M  V30 1776 O 168.03 -1.52807 -1.69889 0
M  V30 1777 C 168.24 -3.16392 1.47299 0
M  V30 1778 C 169.588 -3.91787 1.63671 0
M  V30 1779 O 170.612 -3.26005 1.43524 0
M  V30 1780 O 169.471 -5.0977 1.96969 0
M  V30 1781 H 166.565 -0.783518 0.26463 0
M  V30 1782 H 169.111 -1.20676 1.19312 0
M  V30 1783 H 167.883 -3.0061 2.50498 0
M  V30 1784 H 167.506 -3.8457 1.00953 0
M  V30 1785 N 168.503 -0.877838 -1.30888 0
M  V30 1786 C 169.919 -0.570844 -1.49042 0
M  V30 1787 C 170.119 0.893159 -1.80624 0
M  V30 1788 O 169.175 1.67485 -1.88958 0
M  V30 1789 C 170.488 -1.47784 -2.61878 0
M  V30 1790 C 172.036 -1.48071 -2.75761 0
M  V30 1791 C 172.511 -2.37347 -3.91702 0
M  V30 1792 N 174.002 -2.35271 -3.99001 0
M  V30 1793 C 174.737 -3.01063 -4.88004 0
M  V30 1794 N 174.233 -3.76055 -5.81854 0
M  V30 1795 N 176.026 -2.90332 -4.81315 0
M  V30 1796 H 168.177 -1.82502 -1.0866 0
M  V30 1797 H 170.44 -0.780797 -0.537644 0
M  V30 1798 H 170.146 -2.51993 -2.45341 0
M  V30 1799 H 170.02 -1.18215 -3.58197 0
M  V30 1800 H 172.407 -0.446166 -2.91708 0
M  V30 1801 H 172.488 -1.81668 -1.80085 0
M  V30 1802 H 172.132 -3.40883 -3.76512 0
M  V30 1803 H 172.062 -2.01071 -4.86701 0
M  V30 1804 H 174.553 -1.80768 -3.3186 0
M  V30 1805 H 174.866 -4.23366 -6.46514 0
M  V30 1806 H 173.211 -3.80163 -5.81808 0
M  V30 1807 H 176.402 -2.31278 -4.06974 0
M  V30 1808 H 176.575 -3.41885 -5.50471 0
M  V30 1809 N 169.982 1.44106 -0.638065 0
M  V30 1810 C 171.259 1.95453 -0.0759321 0
M  V30 1811 C 171.639 1.57984 1.40015 0
M  V30 1812 O 170.987 0.857361 2.11806 0
M  V30 1813 C 171.197 3.47655 -0.306132 0
M  V30 1814 C 172.545 4.24114 -0.203008 0
M  V30 1815 O 173.569 3.55405 -0.237871 0
M  V30 1816 O 172.428 5.46381 -0.113827 0
M  V30 1817 H 169.522 0.826797 0.0183332 0
M  V30 1818 H 172.068 1.54122 -0.710251 0
M  V30 1819 H 170.84 3.68 -1.3301 0
M  V30 1820 H 170.463 3.95949 0.361991 0
M  V30 1821 N 171.46 0.379036 1.52974 0
M  V30 1822 C 172.706 -0.206727 2.01744 0
M  V30 1823 C 173.039 -1.47314 1.26539 0
M  V30 1824 O 172.314 -1.91084 0.362903 0
M  V30 1825 C 172.597 -0.485066 3.56818 0
M  V30 1826 C 172.45 0.795919 4.42702 0
M  V30 1827 C 173.769 -1.28003 4.21074 0
M  V30 1828 H 170.888 -0.0736607 0.73331 0
M  V30 1829 H 173.53 0.506581 1.83122 0
M  V30 1830 H 171.68 -1.09272 3.72816 0
M  V30 1831 H 173.352 1.43307 4.38476 0
M  V30 1832 H 171.595 1.41344 4.10127 0
M  V30 1833 H 172.266 0.555947 5.49193 0
M  V30 1834 H 174.742 -0.765867 4.08991 0
M  V30 1835 H 173.618 -1.44352 5.29579 0
M  V30 1836 H 173.879 -2.29236 3.78026 0
M  V30 1837 N 172.938 -1.57226 0.108567 0
M  V30 1838 C 174.349 -1.8195 -0.418464 0
M  V30 1839 C 174.7 -1.02508 -1.67292 0
M  V30 1840 O 173.825 -0.258496 -2.14851 0
M  V30 1841 C 174.42 -3.30028 -0.765979 0
M  V30 1842 C 172.979 -3.55469 -1.23769 0
M  V30 1843 C 172.126 -2.7625 -0.241106 0
M  V30 1844 H 175.077 -1.55149 0.33384 0
M  V30 1845 H 175.098 -3.44086 -1.62434 0
M  V30 1846 H 174.61 -3.87821 0.147219 0
M  V30 1847 H 172.711 -3.03022 -2.16814 0
M  V30 1848 H 172.824 -4.6408 -1.19022 0
M  V30 1849 H 171.188 -2.44133 -0.72602 0
M  V30 1850 H 171.971 -3.36797 0.665007 0
M  V30 1851 N 174.416 0.165178 -1.56732 0
M  V30 1852 C 175.664 0.879068 -1.8198 0
M  V30 1853 C 175.985 1.82514 -0.686561 0
M  V30 1854 O 175.255 1.93694 0.293146 0
M  V30 1855 H 173.835 0.327608 -0.671329 0
M  V30 1856 H 176.497 0.163526 -1.94213 0
M  V30 1857 H 175.593 1.45228 -2.76252 0
M  V30 1858 N 175.894 1.51508 0.433938 0
M  V30 1859 C 177.124 1.67914 1.20369 0
M  V30 1860 C 177.532 0.377461 1.85397 0
M  V30 1861 O 176.875 -0.654255 1.71654 0
M  V30 1862 C 176.937 2.74045 2.32679 0
M  V30 1863 C 176.601 4.16543 1.87991 0
M  V30 1864 C 177.598 5.01211 1.38145 0
M  V30 1865 C 175.283 4.6266 1.95579 0
M  V30 1866 C 177.277 6.30056 0.964774 0
M  V30 1867 C 174.964 5.91501 1.53523 0
M  V30 1868 C 175.962 6.75027 1.04055 0
M  V30 1869 O 175.65 8.01459 0.625964 0
M  V30 1870 H 175.382 0.566578 0.368735 0
M  V30 1871 H 177.936 1.98709 0.51999 0
M  V30 1872 H 176.166 2.38572 3.04336 0
M  V30 1873 H 177.855 2.79295 2.94532 0
M  V30 1874 H 178.621 4.66783 1.31675 0
M  V30 1875 H 174.5 3.97767 2.33029 0
M  V30 1876 H 178.044 6.95202 0.57796 0
M  V30 1877 H 173.941 6.25442 1.59665 0
M  V30 1878 H 174.709 8.15043 0.751509 0
M  V30 1879 N 177.372 -0.689602 1.41712 0
M  V30 1880 C 178.618 -1.45181 1.41599 0
M  V30 1881 C 178.951 -1.94181 0.0270081 0
M  V30 1882 O 178.226 -1.6993 -0.946265 0
M  V30 1883 C 178.509 -2.65945 2.42787 0
M  V30 1884 C 178.362 -2.22672 3.90816 0
M  V30 1885 C 179.681 -3.68149 2.41151 0
M  V30 1886 H 176.8 -0.526576 0.515642 0
M  V30 1887 H 179.442 -0.784947 1.73028 0
M  V30 1888 H 177.592 -3.2284 2.16116 0
M  V30 1889 H 179.264 -1.71058 4.28412 0
M  V30 1890 H 177.507 -1.54394 4.05395 0
M  V30 1891 H 178.178 -3.0935 4.57172 0
M  V30 1892 H 180.654 -3.2094 2.64834 0
M  V30 1893 H 179.53 -4.50248 3.13955 0
M  V30 1894 H 179.791 -4.18259 1.43221 0
M  V30 1895 N 178.85 -1.27639 -0.924453 0
M  V30 1896 C 179.78 -1.13166 -2.04244 0
M  V30 1897 C 180.761 -0.032256 -1.70069 0
M  V30 1898 O 181.946 -0.207328 -1.9309 0
M  V30 1899 C 179.076 -0.781496 -3.38393 0
M  V30 1900 C 178.03 -1.83449 -3.86692 0
M  V30 1901 C 177.356 -1.33822 -5.17683 0
M  V30 1902 C 178.656 -3.23917 -4.09726 0
M  V30 1903 H 180.35 -2.06689 -2.1661 0
M  V30 1904 H 177.896 -0.995136 -1.04082 0
M  V30 1905 H 179.849 -0.667057 -4.16087 0
M  V30 1906 H 178.573 0.189439 -3.2605 0
M  V30 1907 H 177.232 -1.93789 -3.11193 0
M  V30 1908 H 176.88 -0.35665 -5.01734 0
M  V30 1909 H 176.58 -2.04224 -5.50968 0
M  V30 1910 H 178.104 -1.23679 -5.97943 0
M  V30 1911 H 179.518 -3.16559 -4.77978 0
M  V30 1912 H 177.915 -3.92059 -4.54324 0
M  V30 1913 H 178.985 -3.68729 -3.14908 0
M  V30 1914 N 180.328 1.1314 -1.09713 0
M  V30 1915 C 181.744 1.36477 -0.827423 0
M  V30 1916 C 181.944 1.93654 0.556817 0
M  V30 1917 O 181 2.15791 1.31112 0
M  V30 1918 C 182.313 2.31334 -1.92106 0
M  V30 1919 C 183.861 2.44943 -1.94864 0
M  V30 1920 C 184.336 3.4311 -3.0338 0
M  V30 1921 N 185.827 3.50662 -3.02639 0
M  V30 1922 C 186.562 4.2651 -3.83246 0
M  V30 1923 N 186.058 5.05485 -4.73768 0
M  V30 1924 N 187.851 4.2184 -3.71493 0
M  V30 1925 H 180.002 0.743807 -1.9895 0
M  V30 1926 H 182.265 0.389823 -0.864143 0
M  V30 1927 H 181.971 1.96483 -2.91698 0
M  V30 1928 H 181.845 3.31381 -1.80184 0
M  V30 1929 H 184.232 2.79079 -0.959099 0
M  V30 1930 H 184.313 1.4481 -2.10864 0
M  V30 1931 H 183.957 3.09704 -4.02549 0
M  V30 1932 H 183.887 4.43055 -2.84622 0
M  V30 1933 H 186.378 2.94315 -2.37039 0
M  V30 1934 H 186.691 5.60675 -5.3185 0
M  V30 1935 H 185.036 5.04708 -4.77802 0
M  V30 1936 H 188.227 3.5922 -3.00131 0
M  V30 1937 H 188.4 4.80697 -4.3455 0
M  V30 1938 N 181.806 0.884767 1.30421 0
M  V30 1939 C 183.036 0.517293 2.00019 0
M  V30 1940 C 183.444 -0.898632 1.66497 0
M  V30 1941 O 182.787 -1.60245 0.898181 0
M  V30 1942 C 182.849 0.612025 3.54252 0
M  V30 1943 C 182.513 1.99222 4.1129 0
M  V30 1944 C 183.51 2.9616 4.273 0
M  V30 1945 C 181.195 2.29755 4.46674 0
M  V30 1946 C 183.189 4.21764 4.77906 0
M  V30 1947 C 180.876 3.55606 4.96979 0
M  V30 1948 C 181.874 4.51425 5.12547 0
M  V30 1949 O 181.562 5.75043 5.61766 0
M  V30 1950 H 181.294 0.198529 0.64619 0
M  V30 1951 H 183.848 1.1919 1.67281 0
M  V30 1952 H 182.078 -0.119561 3.86515 0
M  V30 1953 H 183.767 0.255859 4.05093 0
M  V30 1954 H 184.533 2.73882 4.00267 0
M  V30 1955 H 180.412 1.55942 4.33824 0
M  V30 1956 H 183.956 4.96561 4.89972 0
M  V30 1957 H 179.853 3.7772 5.23448 0
M  V30 1958 H 180.621 5.77422 5.80109 0
M  V30 1959 N 183.284 -1.43765 0.645699 0
M  V30 1960 C 184.247 -2.29163 -0.0409488 0
M  V30 1961 C 185.247 -1.41813 -0.757996 0
M  V30 1962 O 186.437 -1.63527 -0.600382 0
M  V30 1963 C 183.569 -3.23716 -1.06869 0
M  V30 1964 H 184.762 -2.91366 0.710345 0
M  V30 1965 H 182.315 -1.5092 0.406547 0
M  V30 1966 H 183.05 -2.66393 -1.84947 0
M  V30 1967 H 182.835 -3.88105 -0.558277 0
M  V30 1968 H 184.325 -3.87831 -1.54845 0
M  V30 1969 N 184.763 -0.387143 -1.52771 0
M  V30 1970 C 186.179 -0.037007 -1.59557 0
M  V30 1971 C 186.379 1.44801 -1.40124 0
M  V30 1972 O 185.435 2.21227 -1.21716 0
M  V30 1973 C 186.748 -0.512256 -2.96305 0
M  V30 1974 C 188.296 -0.468328 -3.09476 0
M  V30 1975 C 188.771 -0.919731 -4.4867 0
M  V30 1976 N 190.262 -0.875656 -4.54848 0
M  V30 1977 C 190.997 -1.19637 -5.6078 0
M  V30 1978 N 190.493 -1.58745 -6.74368 0
M  V30 1979 N 192.286 -1.11776 -5.50874 0
M  V30 1980 H 184.437 -1.35395 -1.63652 0
M  V30 1981 H 186.7 -0.554818 -0.768688 0
M  V30 1982 H 186.406 -1.54935 -3.15734 0
M  V30 1983 H 186.28 0.089805 -3.77093 0
M  V30 1984 H 188.667 0.559671 -2.89744 0
M  V30 1985 H 188.748 -1.10616 -2.30646 0
M  V30 1986 H 188.392 -1.94595 -4.69143 0
M  V30 1987 H 188.322 -0.258927 -5.25963 0
M  V30 1988 H 190.813 -0.587843 -3.733 0
M  V30 1989 H 191.126 -1.81586 -7.51163 0
M  V30 1990 H 189.471 -1.6263 -6.75705 0
M  V30 1991 H 192.662 -0.811264 -4.61016 0
M  V30 1992 H 192.835 -1.37103 -6.3333 0
M  V30 1993 N 186.241 1.57166 -0.116904 0
M  V30 1994 C 187.49 1.94298 0.541407 0
M  V30 1995 C 187.803 1.00236 1.67964 0
M  V30 1996 O 189.009 1.26826 2.40057 0
M  V30 1997 C 187.465 3.45306 1.01449 0
M  V30 1998 C 187.073 4.47899 -0.0951738 0
M  V30 1999 C 188.817 3.91361 1.6443 0
M  V30 2000 C 186.724 5.90083 0.394491 0
M  V30 2001 H 185.654 0.725308 0.206019 0
M  V30 2002 H 188.305 1.82446 -0.196419 0
M  V30 2003 H 186.687 3.52385 1.80667 0
M  V30 2004 H 187.861 4.52486 -0.871374 0
M  V30 2005 H 186.176 4.11583 -0.631505 0
M  V30 2006 H 188.773 4.95004 2.02176 0
M  V30 2007 H 189.116 3.3122 2.52189 0
M  V30 2008 H 189.649 3.87073 0.917559 0
M  V30 2009 H 186.388 6.53974 -0.447004 0
M  V30 2010 H 185.908 5.88921 1.13722 0
M  V30 2011 H 187.587 6.41307 0.856399 0
M  V30 2012 N 187.719 -0.156864 1.56817 0
M  V30 2013 C 188.947 -0.886316 1.86955 0
M  V30 2014 C 189.362 -1.75185 0.703975 0
M  V30 2015 O 188.719 -1.79555 -0.326552 0
M  V30 2016 C 188.77 -1.75117 3.16253 0
M  V30 2017 O 188.491 -0.920537 4.2832 0
M  V30 2018 C 189.992 -2.58905 3.59837 0
M  V30 2019 H 187.212 -0.25678 0.619923 0
M  V30 2020 H 189.756 -0.152615 2.0393 0
M  V30 2021 H 187.911 -2.43805 3.01062 0
M  V30 2022 H 188.325 -1.51337 5.02192 0
M  V30 2023 H 189.799 -3.1518 4.53172 0
M  V30 2024 H 190.276 -3.34472 2.84649 0
M  V30 2025 H 190.882 -1.95526 3.7769 0
M  V30 2026 N 189.197 -1.51736 -0.425897 0
M  V30 2027 C 190.443 -1.65214 -1.1761 0
M  V30 2028 C 190.776 -0.372778 -1.90589 0
M  V30 2029 O 190.051 0.628139 -1.84078 0
M  V30 2030 C 190.334 -2.86312 -2.18398 0
M  V30 2031 C 190.187 -4.24254 -1.49426 0
M  V30 2032 C 191.506 -3.02925 -3.19256 0
M  V30 2033 H 188.625 -0.601263 -0.426206 0
M  V30 2034 H 191.267 -1.8425 -0.463882 0
M  V30 2035 H 189.417 -2.70213 -2.79137 0
M  V30 2036 H 191.089 -4.52046 -0.919362 0
M  V30 2037 H 189.332 -4.26426 -0.796432 0
M  V30 2038 H 190.003 -5.05001 -2.22885 0
M  V30 2039 H 192.479 -3.1781 -2.68581 0
M  V30 2040 H 191.355 -3.89199 -3.8706 0
M  V30 2041 H 191.616 -2.15497 -3.86023 0
M  V30 2042 N 190.675 0.682077 -1.42076 0
M  V30 2043 C 191.903 1.47057 -1.4554 0
M  V30 2044 C 192.318 1.8869 -0.0645779 0
M  V30 2045 O 191.675 1.57666 0.919115 0
M  V30 2046 C 191.726 2.72442 -2.37609 0
M  V30 2047 O 191.447 2.32559 -3.71279 0
M  V30 2048 C 192.948 3.66069 -2.50017 0
M  V30 2049 H 190.168 0.452737 -0.495248 0
M  V30 2050 H 192.712 0.838695 -1.8651 0
M  V30 2051 H 190.867 3.31835 -1.9991 0
M  V30 2052 H 191.281 3.13475 -4.20516 0
M  V30 2053 H 192.755 4.50792 -3.18576 0
M  V30 2054 H 193.232 4.11476 -1.53572 0
M  V30 2055 H 193.838 3.12572 -2.88407 0
M  V30 2056 N 192.153 1.28127 0.917671 0
M  V30 2057 C 193.401 1.14825 1.66312 0
M  V30 2058 C 193.722 -0.304379 1.9261 0
M  V30 2059 O 192.992 -1.21149 1.53947 0
M  V30 2060 H 191.572 0.421953 0.616413 0
M  V30 2061 H 194.234 1.608 1.10134 0
M  V30 2062 H 193.33 1.68489 2.62712 0
M  V30 2063 N 193.631 -1.12557 1.10312 0
M  V30 2064 C 194.859 -1.87864 0.866873 0
M  V30 2065 C 195.274 -1.79588 -0.582557 0
M  V30 2066 O 194.631 -1.16887 -1.40156 0
M  V30 2067 C 194.682 -3.37125 1.30496 0
M  V30 2068 O 194.403 -3.45201 2.69755 0
M  V30 2069 C 195.904 -4.29373 1.10243 0
M  V30 2070 H 193.124 -0.594452 0.311236 0
M  V30 2071 H 195.668 -1.42429 1.46745 0
M  V30 2072 H 193.823 -3.80109 0.748081 0
M  V30 2073 H 194.237 -4.38056 2.88457 0
M  V30 2074 H 195.711 -5.32394 1.45811 0
M  V30 2075 H 196.188 -4.39181 0.0409492 0
M  V30 2076 H 196.794 -3.92169 1.64571 0
M  V30 2077 N 195.109 -0.891671 -1.2995 0
M  V30 2078 C 196.337 -0.52866 -2.00032 0
M  V30 2079 C 196.752 0.884574 -1.66795 0
M  V30 2080 O 196.109 1.5827 -0.908669 0
M  V30 2081 C 196.16 -0.701814 -3.54622 0
M  V30 2082 O 195.881 -2.05942 -3.86678 0
M  V30 2083 C 197.382 -0.342683 -4.41973 0
M  V30 2084 H 194.602 -0.203659 -0.639347 0
M  V30 2085 H 197.146 -1.19881 -1.65677 0
M  V30 2086 H 195.301 -0.0789468 -3.8732 0
M  V30 2087 H 195.715 -2.08291 -4.81368 0
M  V30 2088 H 197.189 -0.514709 -5.49595 0
M  V30 2089 H 197.666 0.71975 -4.33262 0
M  V30 2090 H 198.272 -0.942154 -4.14733 0
M  V30 2091 N 196.587 1.43421 -0.653314 0
M  V30 2092 C 197.517 2.33487 0.0246656 0
M  V30 2093 C 198.498 1.49475 0.811863 0
M  V30 2094 O 199.683 1.78139 0.773322 0
M  V30 2095 C 196.813 3.32841 0.99166 0
M  V30 2096 C 195.767 4.26842 0.314568 0
M  V30 2097 C 195.093 5.16236 1.39302 0
M  V30 2098 C 196.393 5.16243 -0.793095 0
M  V30 2099 H 198.087 2.90427 -0.727481 0
M  V30 2100 H 195.633 1.39649 -0.351287 0
M  V30 2101 H 197.586 3.94747 1.47487 0
M  V30 2102 H 196.31 2.74158 1.77497 0
M  V30 2103 H 194.969 3.663 -0.148199 0
M  V30 2104 H 194.617 4.53891 2.16776 0
M  V30 2105 H 194.317 5.79948 0.945223 0
M  V30 2106 H 195.841 5.81015 1.87759 0
M  V30 2107 H 197.255 5.71958 -0.392039 0
M  V30 2108 H 195.652 5.88676 -1.16536 0
M  V30 2109 H 196.722 4.55927 -1.65103 0
M  V30 2110 N 198.065 0.39524 1.52563 0
M  V30 2111 C 199.342 -0.242908 1.94086 0
M  V30 2112 C 199.722 -1.63841 1.33114 0
M  V30 2113 O 199.07 -2.22928 0.501529 0
M  V30 2114 C 199.28 -0.26327 3.48006 0
M  V30 2115 C 200.628 -0.489354 4.21771 0
M  V30 2116 O 201.652 -0.343226 3.54543 0
M  V30 2117 O 200.511 -0.776169 5.4096 0
M  V30 2118 H 197.605 -0.152536 0.812811 0
M  V30 2119 H 200.151 0.450178 1.6362 0
M  V30 2120 H 198.923 0.713985 3.84731 0
M  V30 2121 H 198.546 -1.00103 3.84792 0
M  V30 2122 N 199.544 -1.57102 0.125237 0
M  V30 2123 C 200.792 -1.95021 -0.530198 0
M  V30 2124 C 201.113 -1.00982 -1.66816 0
M  V30 2125 O 200.383 -0.0672693 -1.95784 0
M  V30 2126 H 198.963 -0.720046 -0.198853 0
M  V30 2127 H 201.625 -1.93916 0.19564 0
M  V30 2128 H 200.721 -2.98211 -0.920681 0
M  V30 2129 N 201.022 0.148545 -1.56898 0
M  V30 2130 C 201.932 1.20293 -2.01412 0
M  V30 2131 C 202.948 1.47107 -0.929273 0
M  V30 2132 O 204.124 1.58807 -1.23863 0
M  V30 2133 C 201.189 2.51682 -2.38447 0
M  V30 2134 C 200.25 2.32529 -3.60872 0
M  V30 2135 C 199.483 3.57653 -3.96132 0
M  V30 2136 O 199.706 4.63771 -3.32073 0
M  V30 2137 O 198.64 3.50408 -4.89385 0
M  V30 2138 H 202.466 0.855025 -2.91416 0
M  V30 2139 H 200.051 0.357151 -1.45068 0
M  V30 2140 H 201.933 3.29147 -2.63135 0
M  V30 2141 H 200.608 2.86006 -1.51599 0
M  V30 2142 H 199.515 1.53019 -3.41373 0
M  V30 2143 H 200.848 2.03121 -4.48333 0
M  V30 2144 N 202.5 1.5196 0.417844 0
M  V30 2145 C 203.41 1.77554 1.53336 0
M  V30 2146 C 204.426 0.660655 1.6097 0
M  V30 2147 O 205.602 0.945099 1.77848 0
M  V30 2148 C 202.667 1.91291 2.89152 0
M  V30 2149 C 201.728 3.15183 2.91475 0
M  V30 2150 C 200.961 3.28256 4.20813 0
M  V30 2151 O 201.184 2.46798 5.14244 0
M  V30 2152 O 200.118 4.21356 4.29817 0
M  V30 2153 H 203.944 2.7222 1.34647 0
M  V30 2154 H 201.529 1.36698 0.602828 0
M  V30 2155 H 203.411 2.02199 3.69721 0
M  V30 2156 H 202.086 0.998129 3.07927 0
M  V30 2157 H 200.993 3.09739 2.09791 0
M  V30 2158 H 202.326 4.06414 2.77648 0
M  V30 2159 N 203.978 -0.674533 1.42435 0
M  V30 2160 C 205.224 -1.43671 1.43131 0
M  V30 2161 C 205.557 -1.94142 0.0476021 0
M  V30 2162 O 204.832 -1.70924 -0.928188 0
M  V30 2163 C 205.115 -2.63355 2.45594 0
M  V30 2164 C 204.968 -2.18514 3.93156 0
M  V30 2165 C 206.287 -3.65571 2.45043 0
M  V30 2166 H 203.406 -0.521077 0.521198 0
M  V30 2167 H 206.048 -0.766551 1.7385 0
M  V30 2168 H 204.198 -3.2053 2.19528 0
M  V30 2169 H 205.87 -1.66504 4.30202 0
M  V30 2170 H 204.113 -1.50086 4.07009 0
M  V30 2171 H 204.784 -3.04484 4.60428 0
M  V30 2172 H 207.26 -3.18113 2.68223 0
M  V30 2173 H 206.136 -4.46893 3.18713 0
M  V30 2174 H 206.397 -4.16716 1.47649 0
M  V30 2175 N 205.456 -1.28612 -0.910864 0
M  V30 2176 C 206.684 -1.18792 -1.69399 0
M  V30 2177 C 207.099 0.253039 -1.87097 0
M  V30 2178 O 206.456 1.17071 -1.40003 0
M  V30 2179 C 206.507 -1.88511 -3.08457 0
M  V30 2180 O 206.228 -3.26979 -2.91576 0
M  V30 2181 C 207.729 -1.85029 -4.02839 0
M  V30 2182 H 204.949 -0.412233 -0.529438 0
M  V30 2183 H 207.493 -1.69788 -1.13984 0
M  V30 2184 H 205.648 -1.41379 -3.60681 0
M  V30 2185 H 206.062 -3.61936 -3.79608 0
M  V30 2186 H 207.536 -2.38395 -4.97867 0
M  V30 2187 H 208.013 -0.823303 -4.31414 0
M  V30 2188 H 208.619 -2.31853 -3.56545 0
M  V30 2189 N 206.934 1.1197 -1.10907 0
M  V30 2190 C 207.864 2.19928 -0.784473 0
M  V30 2191 C 208.845 1.6833 0.244726 0
M  V30 2192 O 210.03 1.93892 0.109418 0
M  V30 2193 C 207.16 3.46597 -0.220827 0
M  V30 2194 C 206.114 4.11376 -1.18127 0
M  V30 2195 C 205.44 5.32554 -0.478594 0
M  V30 2196 C 206.74 4.56945 -2.52979 0
M  V30 2197 H 208.434 2.47337 -1.68715 0
M  V30 2198 H 205.98 1.18879 -0.812642 0
M  V30 2199 H 207.933 4.21396 0.0184278 0
M  V30 2200 H 206.657 3.1863 0.717113 0
M  V30 2201 H 205.316 3.38564 -1.40606 0
M  V30 2202 H 204.964 5.00856 0.463976 0
M  V30 2203 H 204.664 5.76844 -1.11912 0
M  V30 2204 H 206.188 6.10096 -0.248 0
M  V30 2205 H 207.602 5.23093 -2.3462 0
M  V30 2206 H 205.999 5.1203 -3.12962 0
M  V30 2207 H 207.069 3.70676 -3.12614 0
M  V30 2208 N 208.412 0.89855 1.29475 0
M  V30 2209 C 209.828 0.594483 1.48115 0
M  V30 2210 C 210.028 -0.86431 1.82022 0
M  V30 2211 O 209.084 -1.64457 1.91599 0
M  V30 2212 C 210.397 1.51932 2.59494 0
M  V30 2213 C 211.945 1.5244 2.7337 0
M  V30 2214 C 212.42 2.43548 3.87877 0
M  V30 2215 N 213.911 2.41589 3.95208 0
M  V30 2216 C 214.646 3.08789 4.83153 0
M  V30 2217 N 214.142 3.85265 5.75798 0
M  V30 2218 N 215.935 2.97952 4.76635 0
M  V30 2219 H 208.086 1.84207 1.05742 0
M  V30 2220 H 210.349 0.789251 0.525154 0
M  V30 2221 H 210.055 2.55865 2.41301 0
M  V30 2222 H 209.929 1.23899 3.56271 0
M  V30 2223 H 212.316 0.492518 2.90961 0
M  V30 2224 H 212.397 1.8451 1.77172 0
M  V30 2225 H 212.041 3.46829 3.71041 0
M  V30 2226 H 211.971 2.08788 4.83441 0
M  V30 2227 H 214.462 1.86025 3.28943 0
M  V30 2228 H 214.775 4.33598 6.39697 0
M  V30 2229 H 213.12 3.89371 5.75687 0
M  V30 2230 H 216.311 2.37723 4.03244 0
M  V30 2231 H 216.484 3.50599 5.44962 0
M  V30 2232 N 209.89 -1.43072 0.660911 0
M  V30 2233 C 210.82 -2.33497 -0.0122829 0
M  V30 2234 C 211.801 -1.49903 -0.803925 0
M  V30 2235 O 212.986 -1.78546 -0.763864 0
M  V30 2236 C 210.116 -3.33363 -0.973994 0
M  V30 2237 C 209.07 -4.27003 -0.291928 0
M  V30 2238 C 208.396 -5.16967 -1.36562 0
M  V30 2239 C 209.696 -5.15816 0.820462 0
M  V30 2240 H 211.39 -2.90038 0.742873 0
M  V30 2241 H 208.936 -1.39461 0.358688 0
M  V30 2242 H 210.889 -3.95524 -1.45392 0
M  V30 2243 H 209.613 -2.75095 -1.7604 0
M  V30 2244 H 208.272 -3.66217 0.167623 0
M  V30 2245 H 207.92 -4.55034 -2.14366 0
M  V30 2246 H 207.62 -5.80441 -0.914454 0
M  V30 2247 H 209.144 -5.82003 -1.84675 0
M  V30 2248 H 210.558 -5.71742 0.422366 0
M  V30 2249 H 208.955 -5.8805 1.19656 0
M  V30 2250 H 210.025 -4.55045 1.67518 0
M  V30 2251 N 211.368 -0.403325 -1.52352 0
M  V30 2252 C 212.315 0.425011 -2.26853 0
M  V30 2253 C 213.285 1.04598 -1.29029 0
M  V30 2254 O 214.47 1.07135 -1.57882 0
M  V30 2255 C 211.61 1.53888 -3.08889 0
M  V30 2256 C 210.723 0.939396 -4.21663 0
M  V30 2257 C 209.858 2.02547 -4.91068 0
M  V30 2258 C 208.897 1.40263 -5.95813 0
M  V30 2259 N 208.034 2.4286 -6.58759 0
M  V30 2260 H 212.874 -0.21674 -2.97211 0
M  V30 2261 H 210.411 -0.118722 -1.4662 0
M  V30 2262 H 212.369 2.19558 -3.54753 0
M  V30 2263 H 210.999 2.15074 -2.40714 0
M  V30 2264 H 210.051 0.171898 -3.80011 0
M  V30 2265 H 211.363 0.44436 -4.96817 0
M  V30 2266 H 210.517 2.75958 -5.40308 0
M  V30 2267 H 209.256 2.55415 -4.15469 0
M  V30 2268 H 208.261 0.653833 -5.45898 0
M  V30 2269 H 209.486 0.881719 -6.73352 0
M  V30 2270 H 207.432 2.94871 -5.85992 0
M  V30 2271 H 207.349 1.98152 -7.2957 0
M  V30 2272 H 208.617 3.15858 -7.12639 0
M  V30 2273 N 212.846 1.57033 -0.133567 0
M  V30 2274 C 214.094 1.953 0.519848 0
M  V30 2275 C 214.415 1.01866 1.66278 0
M  V30 2276 O 213.685 0.0776513 1.95746 0
M  V30 2277 H 212.265 0.721091 0.195032 0
M  V30 2278 H 214.927 1.93809 -0.205921 0
M  V30 2279 H 214.023 2.98695 0.904854 0
M  V30 2280 N 214.325 -0.140222 1.56975 0
M  V30 2281 C 215.255 -1.17456 2.01808 0
M  V30 2282 C 216.236 -1.44415 0.898794 0
M  V30 2283 O 217.421 -1.5522 1.16707 0
M  V30 2284 C 214.551 -2.50607 2.40444 0
M  V30 2285 C 213.505 -2.38155 3.55621 0
M  V30 2286 C 212.831 -3.76078 3.80091 0
M  V30 2287 C 214.131 -1.85991 4.88062 0
M  V30 2288 H 215.825 -0.801743 2.88466 0
M  V30 2289 H 213.371 -0.38422 1.38779 0
M  V30 2290 H 215.324 -3.23197 2.7041 0
M  V30 2291 H 214.048 -2.89737 1.50732 0
M  V30 2292 H 212.707 -1.68016 3.25832 0
M  V30 2293 H 212.355 -4.12656 2.87618 0
M  V30 2294 H 212.055 -3.68606 4.57606 0
M  V30 2295 H 213.579 -4.50206 4.12488 0
M  V30 2296 H 214.993 -2.4838 5.16701 0
M  V30 2297 H 213.39 -1.89393 5.6943 0
M  V30 2298 H 214.46 -0.816023 4.77984 0
M  V30 2299 N 215.803 -1.52179 -0.40978 0
M  V30 2300 C 217.214 -1.58377 -0.988615 0
M  V30 2301 C 217.565 -0.423879 -1.91566 0
M  V30 2302 O 216.69 0.455844 -2.11544 0
M  V30 2303 C 217.285 -2.87044 -1.79976 0
M  V30 2304 C 215.844 -2.95722 -2.32863 0
M  V30 2305 C 214.991 -2.53309 -1.12828 0
M  V30 2306 H 217.942 -1.57558 -0.190039 0
M  V30 2307 H 217.963 -2.7236 -2.65707 0
M  V30 2308 H 217.475 -3.71444 -1.12478 0
M  V30 2309 H 215.576 -2.15814 -3.03735 0
M  V30 2310 H 215.689 -3.99951 -2.63773 0
M  V30 2311 H 214.053 -2.07142 -1.48204 0
M  V30 2312 H 214.836 -3.40082 -0.46897 0
M  V30 2313 N 217.281 0.66697 -1.42791 0
M  V30 2314 C 218.244 1.76211 -1.46568 0
M  V30 2315 C 219.244 1.56896 -0.352196 0
M  V30 2316 O 220.434 1.63044 -0.613364 0
M  V30 2317 C 217.566 3.14935 -1.30494 0
M  V30 2318 H 218.759 1.74247 -2.44086 0
M  V30 2319 H 216.312 0.877342 -1.29354 0
M  V30 2320 H 217.047 3.2252 -0.339301 0
M  V30 2321 H 216.832 3.30359 -2.11199 0
M  V30 2322 H 218.322 3.94821 -1.36038 0
M  V30 2323 N 218.759 1.29093 0.90403 0
M  V30 2324 C 220.008 1.16187 1.64874 0
M  V30 2325 C 220.321 -0.286742 1.93487 0
M  V30 2326 O 221.527 -0.537062 2.66135 0
M  V30 2327 C 219.983 2.03177 2.97064 0
M  V30 2328 C 219.591 3.52836 2.76062 0
M  V30 2329 C 221.335 1.98984 3.74974 0
M  V30 2330 C 219.242 4.31945 4.03952 0
M  V30 2331 H 218.172 0.431246 0.618501 0
M  V30 2332 H 220.823 1.53699 1.00243 0
M  V30 2333 H 219.205 1.5853 3.62883 0
M  V30 2334 H 220.379 4.05507 2.18863 0
M  V30 2335 H 218.694 3.58656 2.11553 0
M  V30 2336 H 221.291 2.55351 4.69787 0
M  V30 2337 H 221.634 0.968815 4.0487 0
M  V30 2338 H 222.167 2.41652 3.15989 0
M  V30 2339 H 218.906 5.34667 3.79225 0
M  V30 2340 H 218.426 3.84045 4.60727 0
M  V30 2341 H 220.105 4.42379 4.72133 0
M  V30 2342 N 220.237 -1.11381 1.11499 0
M  V30 2343 C 221.483 -1.83403 0.865512 0
M  V30 2344 C 221.816 -1.84459 -0.607329 0
M  V30 2345 O 221.091 -1.29811 -1.44842 0
M  V30 2346 C 221.374 -3.30552 1.42855 0
M  V30 2347 C 221.227 -3.37886 2.96906 0
M  V30 2348 C 222.546 -4.26643 1.08 0
M  V30 2349 H 219.665 -0.665879 0.31587 0
M  V30 2350 H 222.307 -1.30601 1.37998 0
M  V30 2351 H 220.457 -3.75648 0.990985 0
M  V30 2352 H 222.129 -3.01343 3.49271 0
M  V30 2353 H 220.372 -2.78088 3.32941 0
M  V30 2354 H 221.043 -4.41458 3.31389 0
M  V30 2355 H 223.519 -3.89729 1.45775 0
M  V30 2356 H 222.395 -5.27986 1.50072 0
M  V30 2357 H 222.656 -4.42099 -0.00915037 0
M  V30 2358 N 221.715 -0.905404 -1.28997 0
M  V30 2359 C 222.962 -0.534248 -1.95325 0
M  V30 2360 C 223.29 0.920535 -1.71337 0
M  V30 2361 O 222.545 1.66861 -1.02254 0
M  V30 2362 C 222.844 -0.779906 -3.48787 0
M  V30 2363 C 222.51 -2.21293 -3.92861 0
M  V30 2364 C 221.172 -2.60475 -4.04606 0
M  V30 2365 C 223.524 -3.14587 -4.15553 0
M  V30 2366 C 220.852 -3.9212 -4.36416 0
M  V30 2367 C 223.204 -4.45787 -4.48839 0
M  V30 2368 C 221.868 -4.84834 -4.58794 0
M  V30 2369 H 221.138 -0.195495 -0.714747 0
M  V30 2370 H 223.785 -1.14514 -1.53488 0
M  V30 2371 H 222.09 -0.0861365 -3.91705 0
M  V30 2372 H 223.787 -0.472029 -3.98212 0
M  V30 2373 H 220.377 -1.89887 -3.84241 0
M  V30 2374 H 224.561 -2.85528 -4.0594 0
M  V30 2375 H 219.817 -4.22086 -4.42327 0
M  V30 2376 H 223.991 -5.18098 -4.65346 0
M  V30 2377 H 221.618 -5.86877 -4.83197 0
M  V30 2378 N 223.193 1.4272 -0.668489 0
M  V30 2379 C 224.125 2.2914 0.052613 0
M  V30 2380 C 225.138 1.43339 0.771857 0
M  V30 2381 O 226.327 1.67123 0.627067 0
M  V30 2382 C 223.427 3.20618 1.09804 0
M  V30 2383 C 222.6 4.35039 0.45389 0
M  V30 2384 C 221.659 5.07282 1.39825 0
M  V30 2385 O 220.685 5.62024 0.900978 0
M  V30 2386 N 221.887 5.12206 2.73176 0
M  V30 2387 H 224.652 2.91668 -0.689209 0
M  V30 2388 H 222.213 1.53577 -0.512422 0
M  V30 2389 H 224.205 3.65815 1.73094 0
M  V30 2390 H 222.775 2.59585 1.74167 0
M  V30 2391 H 221.995 3.92567 -0.358396 0
M  V30 2392 H 223.283 5.088 0.00486972 0
M  V30 2393 H 222.681 4.6913 3.16122 0
M  V30 2394 H 221.238 5.61069 3.31729 0
M  V30 2395 N 224.671 0.411399 1.52136 0
M  V30 2396 C 225.621 -0.430376 2.23901 0
M  V30 2397 C 226.605 -1.0116 1.25121 0
M  V30 2398 O 227.797 -0.934044 1.50348 0
M  V30 2399 C 224.926 -1.54527 3.06556 0
M  V30 2400 C 224.012 -0.9747 4.12747 0
M  V30 2401 N 224.403 -0.130991 5.0563 0
M  V30 2402 C 222.701 -1.24497 4.28271 0
M  V30 2403 C 223.402 0.186689 5.814 0
M  V30 2404 N 222.378 -0.42304 5.41951 0
M  V30 2405 H 226.18 0.220509 2.93072 0
M  V30 2406 H 223.694 0.221952 1.60876 0
M  V30 2407 H 225.691 -2.16093 3.56524 0
M  V30 2408 H 224.351 -2.19875 2.38925 0
M  V30 2409 H 225.362 0.23349 5.17373 0
M  V30 2410 H 222.039 -1.89787 3.7187 0
M  V30 2411 H 223.429 0.871673 6.66222 0
M  V30 2412 N 226.149 -1.5696 0.141893 0
M  V30 2413 C 227.059 -2.20066 -0.812905 0
M  V30 2414 C 228.075 -1.18344 -1.27557 0
M  V30 2415 O 229.251 -1.50902 -1.33381 0
M  V30 2416 C 226.316 -2.80583 -2.03652 0
M  V30 2417 C 225.377 -3.97414 -1.62359 0
M  V30 2418 C 224.61 -4.55036 -2.78887 0
M  V30 2419 O 224.833 -4.11538 -3.94959 0
M  V30 2420 O 223.767 -5.45376 -2.54653 0
M  V30 2421 H 227.593 -3.02157 -0.305746 0
M  V30 2422 H 225.178 -1.49159 -0.0848799 0
M  V30 2423 H 227.06 -3.19067 -2.75272 0
M  V30 2424 H 225.735 -2.01508 -2.5333 0
M  V30 2425 H 224.642 -3.63656 -0.877775 0
M  V30 2426 H 225.975 -4.77994 -1.17401 0
M  V30 2427 N 227.627 0.131896 -1.57047 0
M  V30 2428 C 228.876 0.84044 -1.83356 0
M  V30 2429 C 229.189 1.81646 -0.725535 0
M  V30 2430 O 230.395 2.57025 -0.874659 0
M  V30 2431 C 228.851 1.54528 -3.25037 0
M  V30 2432 C 228.459 0.610902 -4.43815 0
M  V30 2433 C 230.203 2.23972 -3.60606 0
M  V30 2434 C 228.11 1.31823 -5.76521 0
M  V30 2435 H 227.04 0.317599 -0.683847 0
M  V30 2436 H 229.691 0.0931561 -1.83263 0
M  V30 2437 H 228.073 2.33873 -3.19561 0
M  V30 2438 H 229.247 -0.148407 -4.60561 0
M  V30 2439 H 227.562 0.0241016 -4.16393 0
M  V30 2440 H 230.159 2.77558 -4.57018 0
M  V30 2441 H 230.502 3.01173 -2.87403 0
M  V30 2442 H 231.035 1.51529 -3.6781 0
M  V30 2443 H 227.774 0.587771 -6.52859 0
M  V30 2444 H 227.294 2.04987 -5.63685 0
M  V30 2445 H 228.973 1.855 -6.19838 0
M  V30 2446 N 229.106 1.52395 0.401703 0
M  V30 2447 C 230.383 1.57387 1.16141 0
M  V30 2448 C 230.763 0.359359 2.08019 0
M  V30 2449 O 230.111 -0.65326 2.18963 0
M  V30 2450 C 230.321 2.90631 1.93221 0
M  V30 2451 C 231.669 3.43904 2.49028 0
M  V30 2452 O 232.693 2.92421 2.03393 0
M  V30 2453 O 231.552 4.33823 3.32356 0
M  V30 2454 H 228.646 0.634262 0.530698 0
M  V30 2455 H 231.192 1.64725 0.407883 0
M  V30 2456 H 229.964 3.70473 1.25958 0
M  V30 2457 H 229.587 2.8662 2.75563 0
M  V30 2458 N 230.584 -0.659388 1.43143 0
M  V30 2459 C 231.534 -1.7655 1.44271 0
M  V30 2460 C 232.518 -1.57847 0.311961 0
M  V30 2461 O 233.71 -1.68064 0.555306 0
M  V30 2462 C 230.839 -3.15104 1.36251 0
M  V30 2463 C 229.925 -3.39377 2.54331 0
M  V30 2464 N 230.316 -3.34153 3.79704 0
M  V30 2465 C 228.614 -3.70072 2.48922 0
M  V30 2466 C 229.315 -3.58337 4.58225 0
M  V30 2467 N 228.291 -3.79851 3.88863 0
M  V30 2468 H 232.093 -1.70928 2.39083 0
M  V30 2469 H 229.607 -0.860823 1.37708 0
M  V30 2470 H 231.604 -3.94389 1.35141 0
M  V30 2471 H 230.264 -3.21913 0.424531 0
M  V30 2472 H 231.275 -3.13704 4.1208 0
M  V30 2473 H 227.952 -3.84034 1.63781 0
M  V30 2474 H 229.342 -3.60129 5.67236 0
M  V30 2475 N 232.062 -1.29571 -0.897171 0
M  V30 2476 C 232.992 -1.17473 -2.01798 0
M  V30 2477 C 233.973 -0.068323 -1.69963 0
M  V30 2478 O 235.158 -0.248239 -1.92607 0
M  V30 2479 C 232.288 -0.853099 -3.36659 0
M  V30 2480 C 231.242 -1.9161 -3.82713 0
M  V30 2481 C 230.568 -1.44773 -5.14728 0
M  V30 2482 C 231.868 -3.32535 -4.02763 0
M  V30 2483 H 233.562 -2.11237 -2.12177 0
M  V30 2484 H 231.108 -1.01699 -1.01948 0
M  V30 2485 H 233.061 -0.755165 -4.14578 0
M  V30 2486 H 231.785 0.120236 -3.26379 0
M  V30 2487 H 230.444 -2.00346 -3.07013 0
M  V30 2488 H 230.092 -0.462995 -5.00865 0
M  V30 2489 H 229.792 -2.15865 -5.46513 0
M  V30 2490 H 231.316 -1.36334 -5.95185 0
M  V30 2491 H 232.73 -3.26626 -4.71156 0
M  V30 2492 H 231.127 -4.01607 -4.45905 0
M  V30 2493 H 232.197 -3.75326 -3.07016 0
M  V30 2494 N 233.54 1.10788 -1.12088 0
M  V30 2495 C 234.488 2.19111 -0.780587 0
M  V30 2496 C 235.482 1.67818 0.230961 0
M  V30 2497 O 236.688 1.79777 0.0895427 0
M  V30 2498 H 233.063 0.714477 -0.234578 0
M  V30 2499 H 235.034 2.45055 -1.70266 0
M  V30 2500 C 233.783 3.46818 -0.24747 0
M  V30 2501 H 233.106 3.86646 -1.01712 0
M  V30 2502 H 234.546 4.23973 -0.0476291 0
M  V30 2503 C 233.005 3.20968 1.02378 0
M  V30 2504 O 233.535 3.42298 2.10226 0
M  V30 2505 N 231.741 2.74658 0.949271 0
M  V30 2506 H 231.288 2.57501 0.0715173 0
M  V30 2507 H 231.246 2.57739 1.80049 0
M  V30 2508 N 235.018 0.912232 1.28515 0
M  V30 2509 C 236.266 0.543523 1.94654 0
M  V30 2510 C 236.587 -0.9155 1.72173 0
M  V30 2511 O 235.857 -1.64708 1.06058 0
M  V30 2512 H 234.437 0.198017 0.720277 0
M  V30 2513 H 237.099 1.16126 1.56527 0
M  V30 2514 H 236.195 0.736684 3.03281 0
M  V30 2515 N 236.496 -1.42363 0.676048 0
M  V30 2516 C 237.745 -2.00745 0.196037 0
M  V30 2517 C 238.058 -1.54083 -1.20489 0
M  V30 2518 O 239.264 -2.04891 -1.78134 0
M  V30 2519 C 237.72 -3.58651 0.299616 0
M  V30 2520 C 237.328 -4.143 1.70468 0
M  V30 2521 C 239.072 -4.24326 -0.121619 0
M  V30 2522 C 236.979 -5.64574 1.76096 0
M  V30 2523 H 235.909 -0.750787 0.0695301 0
M  V30 2524 H 238.56 -1.63072 0.841412 0
M  V30 2525 H 236.942 -3.93833 -0.413673 0
M  V30 2526 H 238.116 -3.90575 2.44515 0
M  V30 2527 H 236.431 -3.61081 2.07387 0
M  V30 2528 H 239.028 -5.34607 -0.0997362 0
M  V30 2529 H 239.371 -3.99897 -1.15708 0
M  V30 2530 H 239.904 -3.94108 0.540706 0
M  V30 2531 H 236.643 -5.93804 2.77628 0
M  V30 2532 H 236.163 -5.90286 1.06406 0
M  V30 2533 H 237.842 -6.29013 1.51496 0
M  V30 2534 N 237.974 -0.419461 -1.51915 0
M  V30 2535 C 238.907 0.445751 -2.23804 0
M  V30 2536 C 239.885 1.03951 -1.25031 0
M  V30 2537 O 241.069 1.08541 -1.54114 0
M  V30 2538 C 238.196 1.61964 -2.97465 0
M  V30 2539 C 237.242 1.14828 -4.10751 0
M  V30 2540 S 238.075 0.104938 -5.35397 0
M  V30 2541 C 239.231 1.28391 -6.1259 0
M  V30 2542 H 239.464 -0.164627 -2.96844 0
M  V30 2543 H 236.997 -0.203833 -1.53049 0
M  V30 2544 H 238.955 2.29271 -3.40507 0
M  V30 2545 H 237.616 2.20139 -2.24048 0
M  V30 2546 H 236.809 2.02561 -4.61503 0
M  V30 2547 H 236.411 0.553712 -3.69878 0
M  V30 2548 H 238.703 2.20563 -6.40592 0
M  V30 2549 H 239.646 0.816724 -7.03374 0
M  V30 2550 H 240.054 1.51439 -5.43807 0
M  V30 2551 N 239.452 1.56882 -0.150215 0
M  V30 2552 C 240.699 1.96228 0.500093 0
M  V30 2553 C 241.027 1.03522 1.64661 0
M  V30 2554 O 240.282 0.0650683 1.95592 0
M  V30 2555 C 240.581 3.41801 1.04437 0
M  V30 2556 C 240.247 4.50897 0.0159671 0
M  V30 2557 C 238.909 4.8046 -0.266731 0
M  V30 2558 C 241.261 5.16703 -0.683192 0
M  V30 2559 C 238.589 5.73135 -1.25434 0
M  V30 2560 C 240.941 6.10441 -1.65964 0
M  V30 2561 C 239.605 6.38382 -1.95 0
M  V30 2562 H 238.875 0.718048 0.182997 0
M  V30 2563 H 241.522 1.90019 -0.237724 0
M  V30 2564 H 239.827 3.44857 1.85959 0
M  V30 2565 H 241.524 3.69573 1.55618 0
M  V30 2566 H 238.114 4.27891 0.246485 0
M  V30 2567 H 242.298 4.93993 -0.477983 0
M  V30 2568 H 237.554 5.93074 -1.48571 0
M  V30 2569 H 241.728 6.60507 -2.20689 0
M  V30 2570 H 239.355 7.09996 -2.71679 0
M  V30 2571 N 240.93 -0.123565 1.57115 0
M  V30 2572 C 242.16 -0.845233 1.88519 0
M  V30 2573 C 242.568 -1.74168 0.739064 0
M  V30 2574 O 241.911 -1.81244 -0.299355 0
M  V30 2575 C 241.973 -1.73452 3.14888 0
M  V30 2576 C 241.637 -1.01285 4.45635 0
M  V30 2577 C 242.634 -0.355774 5.18681 0
M  V30 2578 C 240.319 -0.99538 4.92339 0
M  V30 2579 C 242.313 0.309114 6.3665 0
M  V30 2580 C 240 -0.32669 6.10226 0
M  V30 2581 C 240.998 0.324406 6.82229 0
M  V30 2582 O 240.686 0.982437 7.97874 0
M  V30 2583 H 240.418 -0.248534 0.628655 0
M  V30 2584 H 242.972 -0.113907 2.05084 0
M  V30 2585 H 241.202 -2.50737 2.94394 0
M  V30 2586 H 242.891 -2.33021 3.32349 0
M  V30 2587 H 243.657 -0.360918 4.83655 0
M  V30 2588 H 239.536 -1.49159 4.36202 0
M  V30 2589 H 243.08 0.8179 6.92789 0
M  V30 2590 H 238.977 -0.319294 6.4471 0
M  V30 2591 H 239.745 0.886454 8.13686 0
M  V30 2592 N 242.408 -1.52605 -0.393616 0
M  V30 2593 C 243.685 -1.58001 -1.15304 0
M  V30 2594 C 244.065 -0.370385 -2.07825 0
M  V30 2595 O 243.413 0.641638 -2.19306 0
M  V30 2596 C 243.623 -2.91652 -1.91677 0
M  V30 2597 C 244.971 -3.4522 -2.47201 0
M  V30 2598 O 245.995 -2.93495 -2.01839 0
M  V30 2599 O 244.854 -4.35579 -3.3005 0
M  V30 2600 H 241.948 -0.637068 -0.527327 0
M  V30 2601 H 244.494 -1.64939 -0.399141 0
M  V30 2602 H 243.266 -3.71136 -1.23992 0
M  V30 2603 H 242.889 -2.88077 -2.74039 0
M  V30 2604 N 243.887 0.651787 -1.4349 0
M  V30 2605 C 245.303 0.96762 -1.26922 0
M  V30 2606 C 245.503 2.00602 -0.189982 0
M  V30 2607 O 244.559 2.48793 0.431107 0
M  V30 2608 C 245.872 1.45052 -2.63401 0
M  V30 2609 C 247.42 1.5671 -2.70945 0
M  V30 2610 C 247.895 2.0839 -4.07845 0
M  V30 2611 N 249.386 2.1569 -4.09917 0
M  V30 2612 C 250.121 2.56804 -5.12679 0
M  V30 2613 N 249.617 2.97203 -6.25813 0
M  V30 2614 N 251.41 2.56756 -5.00033 0
M  V30 2615 H 243.561 -0.0353158 -2.12371 0
M  V30 2616 H 245.824 0.0467858 -0.946845 0
M  V30 2617 H 245.53 0.761926 -3.43348 0
M  V30 2618 H 245.404 2.42529 -2.88894 0
M  V30 2619 H 247.791 2.2467 -1.9133 0
M  V30 2620 H 247.872 0.57662 -2.49216 0
M  V30 2621 H 247.516 1.41031 -4.87927 0
M  V30 2622 H 247.446 3.08271 -4.26938 0
M  V30 2623 H 249.937 1.87237 -3.28254 0
M  V30 2624 H 250.25 3.27328 -7.00055 0
M  V30 2625 H 248.595 2.95004 -6.29283 0
M  V30 2626 H 251.786 2.24572 -4.10713 0
M  V30 2627 H 251.959 2.88475 -5.80247 0
M  V30 2628 N 245.365 1.30045 0.890287 0
M  V30 2629 C 246.614 1.17929 1.63633 0
M  V30 2630 C 246.927 -0.266204 1.9378 0
M  V30 2631 O 248.133 -0.508804 2.6669 0
M  V30 2632 C 246.589 2.06317 2.94892 0
M  V30 2633 C 246.197 3.55745 2.72305 0
M  V30 2634 C 247.941 2.0295 3.72843 0
M  V30 2635 C 245.848 4.36205 3.99348 0
M  V30 2636 H 244.778 0.437782 0.613892 0
M  V30 2637 H 247.429 1.54754 0.986075 0
M  V30 2638 H 245.811 1.6237 3.61182 0
M  V30 2639 H 246.985 4.07805 2.1455 0
M  V30 2640 H 245.3 3.6088 2.07737 0
M  V30 2641 H 247.897 2.60319 4.67053 0
M  V30 2642 H 248.24 1.0117 4.0382 0
M  V30 2643 H 248.773 2.4499 3.13408 0
M  V30 2644 H 245.512 5.38659 3.73533 0
M  V30 2645 H 245.032 3.8891 4.56628 0
M  V30 2646 H 246.711 4.47362 4.67415 0
M  V30 2647 N 246.843 -1.10192 1.12674 0
M  V30 2648 C 247.791 -2.18694 0.792196 0
M  V30 2649 C 248.785 -1.67938 -0.222058 0
M  V30 2650 O 249.991 -1.79822 -0.0800074 0
M  V30 2651 H 246.366 -0.713223 0.238364 0
M  V30 2652 H 248.337 -2.44149 1.71564 0
M  V30 2653 C 247.086 -3.46682 0.265859 0
M  V30 2654 H 246.409 -3.86101 1.03761 0
M  V30 2655 H 247.849 -4.23942 0.0701128 0
M  V30 2656 C 246.308 -3.21506 -1.00675 0
M  V30 2657 O 246.838 -3.43408 -2.08408 0
M  V30 2658 N 245.044 -2.75158 -0.934692 0
M  V30 2659 H 244.591 -2.57535 -0.0578604 0
M  V30 2660 H 244.549 -2.58691 -1.7868 0
M  V30 2661 N 248.321 -0.919034 -1.28029 0
M  V30 2662 C 249.732 -0.600735 -1.76771 0
M  V30 2663 C 250.083 0.884024 -1.75156 0
M  V30 2664 O 249.208 1.69163 -1.34956 0
M  V30 2665 C 249.803 -1.08372 -3.21 0
M  V30 2666 C 248.362 -0.816248 -3.67443 0
M  V30 2667 C 247.509 -1.24742 -2.47658 0
M  V30 2668 H 250.46 -1.09974 -1.14418 0
M  V30 2669 H 250.481 -0.427512 -3.78091 0
M  V30 2670 H 249.993 -2.16437 -3.22144 0
M  V30 2671 H 248.094 0.250968 -3.71754 0
M  V30 2672 H 248.207 -1.4277 -4.57333 0
M  V30 2673 H 246.571 -0.666083 -2.45836 0
M  V30 2674 H 247.354 -2.33653 -2.51518 0
M  V30 2675 N 249.799 1.42003 -0.683588 0
M  V30 2676 C 250.762 2.29191 -0.0198243 0
M  V30 2677 C 251.762 1.43773 0.72013 0
M  V30 2678 O 252.952 1.65061 0.556815 0
M  V30 2679 C 250.084 3.26435 0.982487 0
M  V30 2680 H 251.277 2.8938 -0.787345 0
M  V30 2681 H 248.83 1.49789 -0.446418 0
M  V30 2682 H 249.565 2.71203 1.77819 0
M  V30 2683 H 249.35 3.89449 0.455182 0
M  V30 2684 H 250.84 3.918 1.44508 0
M  V30 2685 N 251.277 0.427512 1.51691 0
M  V30 2686 C 252.554 -0.201684 1.94557 0
M  V30 2687 C 252.934 -1.60981 1.36559 0
M  V30 2688 O 252.282 -2.21814 0.548702 0
M  V30 2689 C 252.492 -0.189394 3.48486 0
M  V30 2690 C 253.84 -0.39978 4.22714 0
M  V30 2691 O 254.864 -0.267945 3.55191 0
M  V30 2692 O 253.723 -0.661249 5.42485 0
M  V30 2693 H 250.817 -0.135261 0.815864 0
M  V30 2694 H 253.363 0.484782 1.62628 0
M  V30 2695 H 252.135 0.795431 3.8313 0
M  V30 2696 H 251.758 -0.919187 3.86829 0
M  V30 2697 N 252.755 -1.56801 0.158532 0
M  V30 2698 C 254.166 -1.83189 -0.360366 0
M  V30 2699 C 254.517 -1.07778 -1.63946 0
M  V30 2700 O 253.642 -0.326718 -2.13919 0
M  V30 2701 C 254.237 -3.32297 -0.660595 0
M  V30 2702 C 252.796 -3.59227 -1.12398 0
M  V30 2703 C 251.943 -2.76877 -0.153097 0
M  V30 2704 H 254.894 -1.54008 0.383031 0
M  V30 2705 H 254.915 -3.4908 -1.51405 0
M  V30 2706 H 254.427 -3.87156 0.270527 0
M  V30 2707 H 252.528 -3.09766 -2.07064 0
M  V30 2708 H 252.641 -4.67632 -1.04197 0
M  V30 2709 H 251.005 -2.46319 -0.647983 0
M  V30 2710 H 251.788 -3.34511 0.77182 0
M  V30 2711 N 254.233 0.115231 -1.57178 0
M  V30 2712 C 255.48 0.822351 -1.8505 0
M  V30 2713 C 255.808 1.79701 -0.744168 0
M  V30 2714 O 255.063 1.93909 0.26414 0
M  V30 2715 C 255.362 1.60324 -3.19423 0
M  V30 2716 C 255.028 0.772536 -4.44233 0
M  V30 2717 C 253.69 0.543468 -4.78121 0
M  V30 2718 C 256.042 0.193746 -5.2084 0
M  V30 2719 C 253.37 -0.274583 -5.86057 0
M  V30 2720 C 255.722 -0.611517 -6.29637 0
M  V30 2721 C 254.386 -0.850867 -6.62055 0
M  V30 2722 H 253.656 0.30092 -0.677147 0
M  V30 2723 H 256.303 0.0845802 -1.91313 0
M  V30 2724 H 254.608 2.41203 -3.08753 0
M  V30 2725 H 256.305 2.1544 -3.38211 0
M  V30 2726 H 252.895 0.96117 -4.17683 0
M  V30 2727 H 257.079 0.357926 -4.95008 0
M  V30 2728 H 252.335 -0.469206 -6.09597 0
M  V30 2729 H 256.509 -1.06697 -6.88178 0
M  V30 2730 H 254.136 -1.48657 -7.45523 0
M  V30 2731 N 255.711 1.52812 0.385517 0
M  V30 2732 C 256.643 1.74096 1.49074 0
M  V30 2733 C 257.656 0.621462 1.50472 0
M  V30 2734 O 258.845 0.897245 1.54311 0
M  V30 2735 C 255.945 1.78774 2.87911 0
M  V30 2736 C 255.118 3.08134 3.10439 0
M  V30 2737 C 254.177 3.04313 4.29278 0
M  V30 2738 O 253.203 3.78168 4.25415 0
M  V30 2739 N 254.405 2.23741 5.35649 0
M  V30 2740 H 257.17 2.69455 1.31202 0
M  V30 2741 H 254.731 1.51343 0.575065 0
M  V30 2742 H 256.723 1.73721 3.65518 0
M  V30 2743 H 255.293 0.907869 2.99126 0
M  V30 2744 H 254.513 3.26649 2.20667 0
M  V30 2745 H 255.801 3.93662 3.22347 0
M  V30 2746 H 255.199 1.63211 5.41645 0
M  V30 2747 H 253.756 2.24524 6.11909 0
M  V30 2748 N 257.189 -0.644168 1.43834 0
M  V30 2749 C 258.435 -1.40603 1.46146 0
M  V30 2750 C 258.768 -1.93997 0.0887717 0
M  V30 2751 O 258.043 -1.72854 -0.891724 0
M  V30 2752 C 258.326 -2.58086 2.51124 0
M  V30 2753 C 258.179 -2.10126 3.97702 0
M  V30 2754 C 259.498 -3.60291 2.52742 0
M  V30 2755 H 256.617 -0.509905 0.532134 0
M  V30 2756 H 259.259 -0.729502 1.75437 0
M  V30 2757 H 257.409 -3.15801 2.26278 0
M  V30 2758 H 259.081 -1.57342 4.33637 0
M  V30 2759 H 257.324 -1.41419 4.10101 0
M  V30 2760 H 257.995 -2.94649 4.66783 0
M  V30 2761 H 260.471 -3.12352 2.7491 0
M  V30 2762 H 259.347 -4.40032 3.28121 0
M  V30 2763 H 259.608 -4.1349 1.56455 0
M  V30 2764 N 258.668 -1.30515 -0.883378 0
M  V30 2765 C 260.079 -1.17509 -1.45081 0
M  V30 2766 C 260.43 0.223605 -1.94922 0
M  V30 2767 O 259.555 1.12041 -1.85137 0
M  V30 2768 C 260.15 -2.12715 -2.63701 0
M  V30 2769 C 258.709 -2.03682 -3.16529 0
M  V30 2770 C 257.856 -2.02706 -1.89224 0
M  V30 2771 H 260.807 -1.42762 -0.693165 0
M  V30 2772 H 260.828 -1.70891 -3.39965 0
M  V30 2773 H 260.34 -3.14505 -2.27395 0
M  V30 2774 H 258.441 -1.05039 -3.57488 0
M  V30 2775 H 258.554 -2.92146 -3.7972 0
M  V30 2776 H 256.918 -1.4753 -2.07622 0
M  V30 2777 H 257.701 -3.06229 -1.55174 0
M  V30 2778 N 260.146 1.09593 -1.13257 0
M  V30 2779 C 261.423 1.78293 -0.804432 0
M  V30 2780 C 261.803 1.99004 0.70431 0
M  V30 2781 O 261.151 1.59007 1.641 0
M  V30 2782 C 261.361 3.10707 -1.5894 0
M  V30 2783 C 262.709 3.85443 -1.78099 0
M  V30 2784 O 263.733 3.20454 -1.55525 0
M  V30 2785 O 262.592 5.02108 -2.15753 0
M  V30 2786 H 259.686 0.773156 -0.293528 0
M  V30 2787 H 262.232 1.16164 -1.23709 0
M  V30 2788 H 261.004 2.91106 -2.61482 0
M  V30 2789 H 260.627 3.80558 -1.15157 0
M  V30 2790 N 261.624 0.925811 1.2754 0
M  V30 2791 C 262.872 0.564138 1.94067 0
M  V30 2792 C 263.193 -0.897188 1.73134 0
M  V30 2793 O 262.463 -1.63573 1.07799 0
M  V30 2794 H 261.043 0.205645 0.718136 0
M  V30 2795 H 263.705 1.1778 1.55287 0
M  V30 2796 H 262.801 0.76881 3.02483 0
M  V30 2797 N 263.102 -1.41638 0.69111 0
M  V30 2798 C 264.065 -2.29178 0.0319786 0
M  V30 2799 C 265.065 -1.44153 -0.712496 0
M  V30 2800 O 266.255 -1.65354 -0.548053 0
M  V30 2801 C 263.387 -3.26952 -0.965161 0
M  V30 2802 H 264.58 -2.88959 0.802681 0
M  V30 2803 H 262.133 -1.4955 0.454356 0
M  V30 2804 H 262.868 -2.72142 -1.76378 0
M  V30 2805 H 262.653 -3.89685 -0.434522 0
M  V30 2806 H 264.143 -3.92561 -1.42428 0
M  V30 2807 N 264.58 -0.43555 -1.51462 0
M  V30 2808 C 265.829 0.133007 -2.01261 0
M  V30 2809 C 266.142 1.43942 -1.32439 0
M  V30 2810 O 267.348 2.09081 -1.73198 0
M  V30 2811 C 265.804 0.287581 -3.58749 0
M  V30 2812 C 265.412 -1.00829 -4.36506 0
M  V30 2813 C 267.156 0.810004 -4.167 0
M  V30 2814 C 265.063 -0.819454 -5.85695 0
M  V30 2815 H 263.993 0.0534822 -0.752101 0
M  V30 2816 H 266.644 -0.565038 -1.74584 0
M  V30 2817 H 265.026 1.04859 -3.81865 0
M  V30 2818 H 266.2 -1.77749 -4.25138 0
M  V30 2819 H 264.515 -1.45911 -3.89999 0
M  V30 2820 H 267.112 0.967743 -5.2587 0
M  V30 2821 H 267.455 1.79196 -3.75758 0
M  V30 2822 H 267.988 0.107357 -3.97655 0
M  V30 2823 H 264.727 -1.77374 -6.31046 0
M  V30 2824 H 264.247 -0.0900208 -5.99732 0
M  V30 2825 H 265.926 -0.471949 -6.45276 0
M  V30 2826 N 266.058 1.56714 -0.166846 0
M  V30 2827 C 267.469 1.83378 0.350646 0
M  V30 2828 C 267.82 1.08646 1.63372 0
M  V30 2829 O 266.945 0.338058 2.13743 0
M  V30 2830 C 267.54 3.32643 0.642963 0
M  V30 2831 C 266.099 3.59818 1.10491 0
M  V30 2832 C 265.246 2.76954 0.138411 0
M  V30 2833 H 268.197 1.53803 -0.391193 0
M  V30 2834 H 268.218 3.49878 1.49551 0
M  V30 2835 H 267.73 3.87007 -0.291055 0
M  V30 2836 H 265.831 3.1086 2.05418 0
M  V30 2837 H 265.944 4.68178 1.01716 0
M  V30 2838 H 264.308 2.4666 0.634911 0
M  V30 2839 H 265.091 3.34097 -0.789549 0
M  V30 2840 N 267.536 -0.106894 1.57237 0
M  V30 2841 C 268.785 -0.811163 1.8467 0
M  V30 2842 C 269.098 -1.80469 0.754342 0
M  V30 2843 O 270.304 -2.55601 0.915439 0
M  V30 2844 C 268.76 -1.49337 3.27454 0
M  V30 2845 C 268.368 -0.540217 4.44731 0
M  V30 2846 C 270.112 -2.18206 3.64124 0
M  V30 2847 C 268.019 -1.22634 5.78545 0
M  V30 2848 H 266.949 -0.306679 0.688813 0
M  V30 2849 H 269.6 -0.0639887 1.83388 0
M  V30 2850 H 267.982 -2.2876 3.23241 0
M  V30 2851 H 269.156 0.221659 4.60267 0
M  V30 2852 H 267.471 0.042146 4.16379 0
M  V30 2853 H 270.068 -2.70253 4.61376 0
M  V30 2854 H 270.411 -2.96562 2.92158 0
M  V30 2855 H 270.944 -1.45658 3.70174 0
M  V30 2856 H 267.683 -0.483832 6.53712 0
M  V30 2857 H 267.203 -1.95993 5.66874 0
M  V30 2858 H 268.882 -1.75615 6.2271 0
M  V30 2859 N 269.014 -1.53014 -0.377408 0
M  V30 2860 C 270.262 -1.6829 -1.11906 0
M  V30 2861 C 270.583 -0.431206 -1.90173 0
M  V30 2862 O 269.853 0.554595 -1.87886 0
M  V30 2863 H 268.433 -0.620371 -0.416112 0
M  V30 2864 H 271.095 -1.90167 -0.426893 0
M  V30 2865 H 270.191 -2.53862 -1.8155 0
M  V30 2866 N 270.492 0.636531 -1.44174 0
M  V30 2867 C 271.908 0.954104 -1.27941 0
M  V30 2868 C 272.108 2.0039 -0.211248 0
M  V30 2869 O 271.164 2.49236 0.404695 0
M  V30 2870 C 272.477 1.4225 -2.64925 0
M  V30 2871 C 274.025 1.53827 -2.72592 0
M  V30 2872 C 274.5 2.04053 -4.10032 0
M  V30 2873 N 275.991 2.11331 -4.12182 0
M  V30 2874 C 276.726 2.51352 -5.15374 0
M  V30 2875 N 276.222 2.90549 -6.2893 0
M  V30 2876 N 278.015 2.51438 -5.02728 0
M  V30 2877 H 270.166 -0.0578386 -2.12321 0
M  V30 2878 H 272.429 0.0367406 -0.947288 0
M  V30 2879 H 272.135 0.725466 -3.44136 0
M  V30 2880 H 272.009 2.39451 -2.9145 0
M  V30 2881 H 274.396 2.22628 -1.93702 0
M  V30 2882 H 274.477 0.550154 -2.49814 0
M  V30 2883 H 274.121 1.35848 -4.89395 0
M  V30 2884 H 274.051 3.03726 -4.30184 0
M  V30 2885 H 276.542 1.83745 -3.30222 0
M  V30 2886 H 276.855 3.19884 -7.03487 0
M  V30 2887 H 275.2 2.88313 -6.32377 0
M  V30 2888 H 278.391 2.20203 -4.13072 0
M  V30 2889 H 278.564 2.82304 -5.83274 0
M  V30 2890 O 272.009 1.41421 0.779892 0
M  V30 2891 H 272.7 1.31013 1.42672 0
M  V30 END ATOM
M  V30 BEGIN BOND
M  V30 END BOND
M  V30 END CTAB
M  END
$$$$
