drugbank_target|O31440 Fatty-acid peroxygenase (DB04257)
 OpenBabel12092120023D

  0  0  0     0  0            999 V3000
M  V30 BEGIN CTAB
M  V30 COUNTS 6726 6809 0 0 0
M  V30 BEGIN ATOM
M  V30 1 H -0.908 1.98254 -0.117106 0
M  V30 2 N 0 1.576 0 0
M  V30 3 C 0.933 2.03868 1.02534 0
M  V30 4 C 1.911 0.928543 1.3348 0
M  V30 5 O 3.095 1.19667 1.45644 0
M  V30 6 C 0.222 2.43627 2.35294 0
M  V30 7 C -0.732 3.65373 2.2001 0
M  V30 8 S 0.101 5.13292 1.52614 0
M  V30 9 C 1.257 5.56322 2.86805 0
M  V30 10 H 1.49 2.90518 0.631377 0
M  V30 11 H -0.977 1.52953 0.210867 0
M  V30 12 H 0.981 2.67203 3.11629 0
M  V30 13 H -0.358 1.57376 2.7183 0
M  V30 14 H -1.165 3.90944 3.18086 0
M  V30 15 H -1.563 3.418 1.51819 0
M  V30 16 H 0.729 5.58782 3.83104 0
M  V30 17 H 1.672 6.56266 2.65933 0
M  V30 18 H 2.08 4.83886 2.90714 0
M  V30 19 N 1.4781 -0.272755 1.55222 0
M  V30 20 C 2.4261 -1.35705 1.88909 0
M  V30 21 C 3.4201 -1.5112 0.765456 0
M  V30 22 O 4.6261 -1.52901 0.949802 0
M  V30 23 H 1.0011 -0.453868 0.59959 0
M  V30 24 H 2.9721 -1.04544 2.79487 0
M  V30 25 C 1.7211 -2.71049 2.17779 0
M  V30 26 H 1.0441 -2.59979 3.03728 0
M  V30 27 H 2.4841 -3.45858 2.45272 0
M  V30 28 C 0.9431 -3.22165 0.985473 0
M  V30 29 O 1.4731 -4.01096 0.220233 0
M  V30 30 N -0.3209 -2.7985 0.783108 0
M  V30 31 H -0.7739 -2.15775 1.40708 0
M  V30 32 H -0.8159 -3.14397 -0.0130392 0
M  V30 33 N 2.9562 -1.48159 -0.537278 0
M  V30 34 C 3.8662 -1.64807 -1.6696 0
M  V30 35 C 4.8822 -0.530651 -1.65711 0
M  V30 36 O 6.0582 -0.800784 -1.84796 0
M  V30 37 C 3.1232 -1.67708 -3.03438 0
M  V30 38 C 2.1842 -2.91025 -3.156 0
M  V30 39 C 1.4172 -2.93778 -4.45567 0
M  V30 40 O 1.6402 -2.05153 -5.3223 0
M  V30 41 O 0.5742 -3.85868 -4.61941 0
M  V30 42 H 4.4002 -2.6066 -1.55853 0
M  V30 43 H 1.9852 -1.31475 -0.709549 0
M  V30 44 H 3.8672 -1.7218 -3.84619 0
M  V30 45 H 2.5422 -0.750278 -3.14885 0
M  V30 46 H 1.4492 -2.92089 -2.33741 0
M  V30 47 H 2.7822 -3.83065 -3.09066 0
M  V30 48 N 4.4343 0.785586 -1.36625 0
M  V30 49 C 5.3663 1.90711 -1.2713 0
M  V30 50 C 6.3793 1.61688 -0.189986 0
M  V30 51 O 7.5683 1.72864 -0.445014 0
M  V30 52 C 4.6683 3.25611 -0.939713 0
M  V30 53 C 3.8413 3.82385 -2.12369 0
M  V30 54 C 2.9003 4.95732 -1.76456 0
M  V30 55 O 1.9263 5.12047 -2.48589 0
M  V30 56 N 3.1283 5.76258 -0.700492 0
M  V30 57 H 5.8933 1.99376 -2.23762 0
M  V30 58 H 3.4543 0.964041 -1.30069 0
M  V30 59 H 5.4463 3.98937 -0.680554 0
M  V30 60 H 4.0163 3.12538 -0.0624074 0
M  V30 61 H 3.2363 3.01001 -2.54543 0
M  V30 62 H 4.5243 4.17047 -2.9146 0
M  V30 63 H 3.9223 5.65609 -0.101624 0
M  V30 64 H 2.4793 6.4987 -0.501165 0
M  V30 65 N 5.9124 1.20967 1.01018 0
M  V30 66 C 7.1614 1.01796 1.74128 0
M  V30 67 C 7.4744 -0.449691 1.90361 0
M  V30 68 O 8.6804 -0.76068 2.60626 0
M  V30 69 C 7.1364 1.7727 3.13215 0
M  V30 70 C 6.7444 3.28171 3.04972 0
M  V30 71 C 8.4884 1.66489 3.90489 0
M  V30 72 C 6.3954 3.96156 4.39107 0
M  V30 73 H 5.3254 0.377276 0.652824 0
M  V30 74 H 7.9764 1.44651 1.12909 0
M  V30 75 H 6.3584 1.27205 3.75013 0
M  V30 76 H 7.5324 3.85499 2.52443 0
M  V30 77 H 5.8474 3.39437 2.41188 0
M  V30 78 H 8.4444 2.14617 4.89738 0
M  V30 79 H 8.7874 0.6222 4.11624 0
M  V30 80 H 9.3204 2.14003 3.35332 0
M  V30 81 H 6.0594 5.00604 4.23174 0
M  V30 82 H 5.5794 3.43617 4.91617 0
M  V30 83 H 7.2584 4.00774 5.07926 0
M  V30 84 N 7.3905 -1.2043 1.01659 0
M  V30 85 C 8.8015 -1.71517 0.737482 0
M  V30 86 C 9.1525 -1.81547 -0.743973 0
M  V30 87 O 8.2775 -1.47803 -1.58061 0
M  V30 88 C 8.8725 -3.11515 1.33206 0
M  V30 89 C 7.4315 -3.59912 1.10183 0
M  V30 90 C 6.5785 -2.37116 1.43776 0
M  V30 91 H 9.5295 -1.05444 1.18606 0
M  V30 92 H 9.5505 -3.73575 0.722636 0
M  V30 93 H 9.0625 -3.04182 2.41028 0
M  V30 94 H 7.1635 -3.72577 0.0412756 0
M  V30 95 H 7.2765 -4.44731 1.78188 0
M  V30 96 H 5.6405 -2.39857 0.856778 0
M  V30 97 H 6.4235 -2.32424 2.52654 0
M  V30 98 N 8.8686 -0.792821 -1.36206 0
M  V30 99 C 9.8186 -0.166598 -2.27391 0
M  V30 100 C 10.8026 0.651479 -1.47121 0
M  V30 101 O 11.9946 0.510994 -1.69463 0
M  V30 102 C 9.1236 0.695033 -3.36191 0
M  V30 103 C 8.2096 -0.132019 -4.23894 0
M  V30 104 N 8.6006 -1.18822 -4.91645 0
M  V30 105 C 6.8986 0.0885952 -4.45912 0
M  V30 106 C 7.5996 -1.69198 -5.56549 0
M  V30 107 N 6.5756 -1.00065 -5.34311 0
M  V30 108 H 10.3776 -0.974947 -2.77258 0
M  V30 109 H 7.8916 -0.632616 -1.49572 0
M  V30 110 H 9.8886 1.1596 -4.00448 0
M  V30 111 H 8.5486 1.50189 -2.87877 0
M  V30 112 H 9.5596 -1.57069 -4.93507 0
M  V30 113 H 6.2366 0.865688 -4.08426 0
M  V30 114 H 7.6266 -2.57395 -6.20643 0
M  V30 115 N 10.3467 1.47872 -0.545128 0
M  V30 116 C 11.6237 1.9554 0.0485222 0
M  V30 117 C 12.0037 1.4876 1.49779 0
M  V30 118 O 11.3517 0.720925 2.16829 0
M  V30 119 C 11.5617 3.48898 -0.084417 0
M  V30 120 C 12.9097 4.24547 0.0671239 0
M  V30 121 O 13.9337 3.56198 -0.0113649 0
M  V30 122 O 12.7927 5.45999 0.233882 0
M  V30 123 H 9.8867 0.823957 0.0708773 0
M  V30 124 H 12.4327 1.58327 -0.610798 0
M  V30 125 H 11.2047 3.75714 -1.09337 0
M  V30 126 H 10.8277 3.92845 0.613066 0
M  V30 127 N 11.8248 0.280983 1.55075 0
M  V30 128 C 12.7718 -0.603937 2.22758 0
M  V30 129 C 13.7418 -1.1452 1.20309 0
M  V30 130 O 14.9268 -1.19343 1.48869 0
M  V30 131 C 12.0668 -1.77947 2.95684 0
M  V30 132 C 11.1798 -1.2715 4.12864 0
M  V30 133 C 10.3148 -2.4093 4.7342 0
M  V30 134 C 9.3538 -1.87165 5.82783 0
M  V30 135 N 8.4908 -2.94441 6.37377 0
M  V30 136 H 13.3308 -0.020124 2.97993 0
M  V30 137 H 10.8678 0.00183425 1.471 0
M  V30 138 H 12.8258 -2.47055 3.36184 0
M  V30 139 H 11.4558 -2.33522 2.22861 0
M  V30 140 H 10.5078 -0.473331 3.77444 0
M  V30 141 H 11.8198 -0.837751 4.91715 0
M  V30 142 H 10.9738 -3.18021 5.1667 0
M  V30 143 H 9.7128 -2.87623 3.93859 0
M  V30 144 H 8.7178 -1.08556 5.38976 0
M  V30 145 H 9.9428 -1.41401 6.64216 0
M  V30 146 H 7.8888 -3.40505 5.60707 0
M  V30 147 H 7.8058 -2.55501 7.11516 0
M  V30 148 H 9.0738 -3.71489 6.85285 0
M  V30 149 N 13.3029 -1.57598 0.00835791 0
M  V30 150 C 14.5279 -1.95617 -0.689103 0
M  V30 151 C 14.9529 -0.883753 -1.66046 0
M  V30 152 O 14.3109 0.157352 -1.80616 0
M  V30 153 C 14.3589 -3.32736 -1.38994 0
M  V30 154 O 13.4629 -3.27631 -2.50463 0
M  V30 155 H 12.8039 -0.638379 -0.182668 0
M  V30 156 H 15.3339 -2.045 0.064036 0
M  V30 157 H 15.3439 -3.68494 -1.75147 0
M  V30 158 H 14.0189 -4.1034 -0.677778 0
M  V30 159 H 12.5959 -3.03561 -2.16576 0
M  V30 160 N 14.781 0.264519 -1.55364 0
M  V30 161 C 15.711 1.33121 -1.91836 0
M  V30 162 C 16.692 1.51101 -0.781192 0
M  V30 163 O 17.877 1.64003 -1.04003 0
M  V30 164 C 15.007 2.68921 -2.19769 0
M  V30 165 C 13.961 2.65661 -3.35571 0
M  V30 166 C 13.287 4.05093 -3.49004 0
M  V30 167 C 14.587 2.24187 -4.71739 0
M  V30 168 H 16.281 1.02844 -2.81182 0
M  V30 169 H 13.827 0.493286 -1.35287 0
M  V30 170 H 15.78 3.43663 -2.43872 0
M  V30 171 H 14.504 3.00799 -1.27231 0
M  V30 172 H 13.163 1.93377 -3.1145 0
M  V30 173 H 12.811 4.34206 -2.53917 0
M  V30 174 H 12.511 4.03804 -4.26868 0
M  V30 175 H 14.035 4.81561 -3.75408 0
M  V30 176 H 15.449 2.88654 -4.9533 0
M  V30 177 H 13.846 2.34044 -5.52579 0
M  V30 178 H 14.916 1.19327 -4.69988 0
M  V30 179 N 16.2591 1.48442 0.529413 0
M  V30 180 C 17.5361 1.46978 1.29062 0
M  V30 181 C 17.9161 0.181769 2.10316 0
M  V30 182 O 17.2641 -0.836481 2.12639 0
M  V30 183 C 17.4741 2.7321 2.17157 0
M  V30 184 C 18.8221 3.21562 2.77278 0
M  V30 185 O 19.8461 2.74131 2.27444 0
M  V30 186 O 18.7051 4.04094 3.67927 0
M  V30 187 H 15.7991 0.587003 0.582543 0
M  V30 188 H 18.3451 1.60676 0.546021 0
M  V30 189 H 17.1171 3.58465 1.56903 0
M  V30 190 H 16.7401 2.62235 2.98862 0
M  V30 191 N 17.7372 -0.778329 1.37039 0
M  V30 192 C 18.6852 -1.91278 1.32345 0
M  V30 193 C 19.6792 -1.68051 0.213331 0
M  V30 194 O 20.8852 -1.75922 0.38098 0
M  V30 195 H 17.2602 -0.628909 0.412283 0
M  V30 196 H 19.2312 -1.92355 2.28127 0
M  V30 197 C 17.9802 -3.28455 1.14073 0
M  V30 198 H 17.3032 -3.46901 1.98746 0
M  V30 199 H 18.7432 -4.08152 1.14837 0
M  V30 200 C 17.2022 -3.36548 -0.154015 0
M  V30 201 O 17.7322 -3.85186 -1.13993 0
M  V30 202 N 15.9382 -2.89894 -0.202475 0
M  V30 203 H 15.4852 -2.50504 0.600476 0
M  V30 204 H 15.4432 -2.9569 -1.06841 0
M  V30 205 N 19.2153 -1.21501 -1.00376 0
M  V30 206 C 20.4403 -1.05977 -1.78279 0
M  V30 207 C 20.8653 0.385994 -1.84097 0
M  V30 208 O 20.2233 1.27849 -1.28547 0
M  V30 209 C 20.2713 -1.66302 -3.19963 0
M  V30 210 O 19.3753 -0.909333 -4.0225 0
M  V30 211 H 18.7163 -0.372906 -0.549397 0
M  V30 212 H 21.2463 -1.6107 -1.26165 0
M  V30 213 H 21.2563 -1.70574 -3.70632 0
M  V30 214 H 19.9313 -2.71515 -3.15043 0
M  V30 215 H 18.5083 -0.941795 -3.60811 0
M  V30 216 N 20.6934 1.19889 -1.02296 0
M  V30 217 C 21.6234 2.25141 -0.619174 0
M  V30 218 C 22.6044 1.66051 0.368915 0
M  V30 219 O 23.7894 1.92546 0.252941 0
M  V30 220 C 20.9194 3.4728 0.0368783 0
M  V30 221 C 19.8734 4.19005 -0.872865 0
M  V30 222 C 19.1994 5.34637 -0.0822402 0
M  V30 223 C 20.4994 4.74452 -2.18387 0
M  V30 224 H 22.1934 2.59171 -1.49903 0
M  V30 225 H 19.7394 1.24579 -0.722222 0
M  V30 226 H 21.6924 4.20098 0.330958 0
M  V30 227 H 20.4164 3.12433 0.95149 0
M  V30 228 H 19.0754 3.48061 -1.15105 0
M  V30 229 H 18.7234 4.96034 0.83422 0
M  V30 230 H 18.4234 5.83557 -0.688149 0
M  V30 231 H 19.9474 6.10255 0.205238 0
M  V30 232 H 21.3614 5.39055 -1.95172 0
M  V30 233 H 19.7584 5.33834 -2.74119 0
M  V30 234 H 20.8284 3.92844 -2.84257 0
M  V30 235 N 22.1715 0.800033 1.35784 0
M  V30 236 C 23.3995 0.389606 2.03199 0
M  V30 237 C 23.8145 -0.997375 1.60306 0
M  V30 238 O 23.1715 -1.64154 0.797481 0
M  V30 239 C 23.2225 0.455855 3.58614 0
M  V30 240 O 22.9435 1.78815 3.99946 0
M  V30 241 C 24.4445 0.0374032 4.43284 0
M  V30 242 H 21.6645 0.159132 0.651857 0
M  V30 243 H 24.2085 1.08183 1.73541 0
M  V30 244 H 22.3635 -0.188057 3.86943 0
M  V30 245 H 22.7775 1.74636 4.94573 0
M  V30 246 H 24.2515 0.134882 5.51835 0
M  V30 247 H 24.7285 -1.01651 4.27275 0
M  V30 248 H 25.3345 0.654215 4.20238 0
M  V30 249 N 23.6496 -1.47581 0.552962 0
M  V30 250 C 24.5796 -2.32762 -0.185451 0
M  V30 251 C 25.5606 -1.43527 -0.912905 0
M  V30 252 O 26.7456 -1.72388 -0.894201 0
M  V30 253 C 23.8756 -3.25219 -1.21859 0
M  V30 254 C 22.8296 -4.23661 -0.607864 0
M  V30 255 C 22.1556 -5.05413 -1.74533 0
M  V30 256 C 23.4556 -5.20481 0.435582 0
M  V30 257 H 25.1496 -2.94749 0.525684 0
M  V30 258 H 22.6956 -1.41738 0.254251 0
M  V30 259 H 24.6486 -3.8365 -1.7433 0
M  V30 260 H 23.3726 -2.61279 -1.95961 0
M  V30 261 H 22.0316 -3.66451 -0.104489 0
M  V30 262 H 21.6796 -4.3788 -2.47529 0
M  V30 263 H 21.3796 -5.72059 -1.34249 0
M  V30 264 H 22.9036 -5.66701 -2.27338 0
M  V30 265 H 24.3176 -5.733 -0.00290157 0
M  V30 266 H 22.7146 -5.95305 0.757067 0
M  V30 267 H 23.7846 -4.66217 1.33303 0
M  V30 268 N 25.1277 -0.289203 -1.54924 0
M  V30 269 C 26.0577 0.58549 -2.2604 0
M  V30 270 C 27.0387 1.14753 -1.25562 0
M  V30 271 O 28.2237 1.17906 -1.54311 0
M  V30 272 C 25.3537 1.76305 -2.99222 0
M  V30 273 C 24.3077 1.33191 -4.06748 0
M  V30 274 C 23.6337 2.5937 -4.6758 0
M  V30 275 C 24.9337 0.471775 -5.20165 0
M  V30 276 H 26.6277 -0.00763532 -2.99399 0
M  V30 277 H 24.1737 -0.00511229 -1.43999 0
M  V30 278 H 26.1267 2.38097 -3.47689 0
M  V30 279 H 24.8507 2.38223 -2.23422 0
M  V30 280 H 23.5097 0.737121 -3.59113 0
M  V30 281 H 23.1577 3.19576 -3.88433 0
M  V30 282 H 22.8577 2.31228 -5.40192 0
M  V30 283 H 24.3817 3.21985 -5.18804 0
M  V30 284 H 25.7957 0.995056 -5.64599 0
M  V30 285 H 24.1927 0.284639 -5.99425 0
M  V30 286 H 25.2627 -0.506041 -4.82252 0
M  V30 287 N 26.6058 1.57591 -0.0167156 0
M  V30 288 C 27.5528 2.09462 0.969251 0
M  V30 289 C 28.5228 0.99381 1.33089 0
M  V30 290 O 29.7078 1.26726 1.42636 0
M  V30 291 C 26.8478 2.61622 2.25051 0
M  V30 292 C 25.9608 3.85666 1.94642 0
M  V30 293 C 25.0958 4.26266 3.16972 0
M  V30 294 C 24.1348 5.43101 2.82326 0
M  V30 295 N 23.2718 5.78915 3.97243 0
M  V30 296 H 28.1118 2.93428 0.519997 0
M  V30 297 H 25.6488 1.45044 0.245087 0
M  V30 298 H 27.6068 2.89949 2.99976 0
M  V30 299 H 26.2368 1.80505 2.67615 0
M  V30 300 H 25.2888 3.64145 1.10013 0
M  V30 301 H 26.6008 4.70678 1.65117 0
M  V30 302 H 25.7548 4.55963 4.00228 0
M  V30 303 H 24.4938 3.39996 3.49648 0
M  V30 304 H 23.4988 5.1311 1.97479 0
M  V30 305 H 24.7238 6.3106 2.50879 0
M  V30 306 H 22.6698 4.95602 4.29785 0
M  V30 307 H 22.5868 6.58539 3.71299 0
M  V30 308 H 23.8548 6.13212 4.81239 0
M  V30 309 N 28.0839 -0.256276 1.55502 0
M  V30 310 C 28.9939 -1.33882 1.92647 0
M  V30 311 C 30.0099 -1.53159 0.825727 0
M  V30 312 O 31.1859 -1.66963 1.12629 0
M  V30 313 C 28.2509 -2.6751 2.20543 0
M  V30 314 C 27.3119 -2.56836 3.43997 0
M  V30 315 C 26.5449 -3.84092 3.70553 0
M  V30 316 O 26.7679 -4.85545 2.99336 0
M  V30 317 O 25.7019 -3.83288 4.64084 0
M  V30 318 H 29.5279 -1.05374 2.84833 0
M  V30 319 H 27.1129 -0.456237 1.42263 0
M  V30 320 H 28.9949 -3.46492 2.39835 0
M  V30 321 H 27.6699 -2.9577 1.31536 0
M  V30 322 H 26.5769 -1.76172 3.30021 0
M  V30 323 H 27.9099 -2.33523 4.33275 0
M  V30 324 N 29.562 -1.4872 -0.521534 0
M  V30 325 C 30.81 -1.56857 -1.27437 0
M  V30 326 C 31.131 -0.247982 -1.93417 0
M  V30 327 O 30.401 0.731151 -1.81744 0
M  V30 328 H 28.981 -0.577885 -0.473347 0
M  V30 329 H 31.643 -1.85233 -0.606205 0
M  V30 330 H 30.739 -2.35402 -2.0492 0
M  V30 331 N 31.0401 0.771051 -1.3745 0
M  V30 332 C 32.2701 1.55789 -1.35696 0
M  V30 333 C 32.6781 1.89107 0.0594523 0
M  V30 334 O 32.0211 1.51984 1.03183 0
M  V30 335 C 32.0831 2.89515 -2.13123 0
M  V30 336 C 31.7471 2.78829 -3.62082 0
M  V30 337 C 32.7441 2.49812 -4.5595 0
M  V30 338 C 30.4291 2.9683 -4.05213 0
M  V30 339 C 32.4231 2.38923 -5.90927 0
M  V30 340 C 30.1101 2.85562 -5.40276 0
M  V30 341 C 31.1081 2.56649 -6.32946 0
M  V30 342 O 30.7961 2.45408 -7.65526 0
M  V30 343 H 30.5281 0.489257 -0.466481 0
M  V30 344 H 33.0821 0.963446 -1.81403 0
M  V30 345 H 31.3121 3.51081 -1.62107 0
M  V30 346 H 33.0011 3.50915 -2.03994 0
M  V30 347 H 33.7671 2.3559 -4.23937 0
M  V30 348 H 29.6461 3.18335 -3.33442 0
M  V30 349 H 33.1901 2.16277 -6.63227 0
M  V30 350 H 29.0871 2.99351 -5.71891 0
M  V30 351 H 29.8551 2.60753 -7.75855 0
M  V30 352 N 32.5182 1.22032 0.997298 0
M  V30 353 C 33.4482 1.01065 2.10495 0
M  V30 354 C 34.4292 -0.0669542 1.69968 0
M  V30 355 O 35.6142 0.0943987 1.9397 0
M  V30 356 C 32.7442 0.582874 3.42374 0
M  V30 357 C 31.6982 1.60592 3.96729 0
M  V30 358 C 31.0242 1.03412 5.24605 0
M  V30 359 C 32.3242 2.99478 4.27914 0
M  V30 360 H 34.0182 1.93708 2.28292 0
M  V30 361 H 31.5642 0.932761 1.09707 0
M  V30 362 H 33.5172 0.423332 4.19268 0
M  V30 363 H 32.2412 -0.379213 3.24391 0
M  V30 364 H 30.9002 1.75316 3.21963 0
M  V30 365 H 30.5482 0.063518 5.0296 0
M  V30 366 H 30.2482 1.71754 5.61938 0
M  V30 367 H 31.7722 0.886066 6.04137 0
M  V30 368 H 33.1862 2.88153 4.95622 0
M  V30 369 H 31.5832 3.64903 4.76409 0
M  V30 370 H 32.6532 3.49742 3.3587 0
M  V30 371 N 33.9963 -1.19345 1.0293 0
M  V30 372 C 35.2433 -1.89038 0.726008 0
M  V30 373 C 35.5713 -1.79649 -0.745427 0
M  V30 374 O 34.8263 -1.18354 -1.55855 0
M  V30 375 C 35.1253 -3.39292 1.12319 0
M  V30 376 C 34.7913 -3.68885 2.59297 0
M  V30 377 C 33.4533 -3.76671 2.99453 0
M  V30 378 C 35.8053 -3.82178 3.54386 0
M  V30 379 C 33.1333 -3.9522 4.33611 0
M  V30 380 C 35.4853 -4.0224 4.88248 0
M  V30 381 C 34.1493 -4.08259 5.28092 0
M  V30 382 H 33.4193 -0.691739 0.265665 0
M  V30 383 H 36.0663 -1.41328 1.29223 0
M  V30 384 H 34.3713 -3.88903 0.475584 0
M  V30 385 H 36.0683 -3.91536 0.866037 0
M  V30 386 H 32.6583 -3.63433 2.27189 0
M  V30 387 H 36.8423 -3.75505 3.24514 0
M  V30 388 H 32.0983 -3.98119 4.64016 0
M  V30 389 H 36.2723 -4.11468 5.61843 0
M  V30 390 H 33.8993 -4.22384 6.32057 0
M  V30 391 N 35.4744 -0.807222 -1.35358 0
M  V30 392 C 36.7234 -0.384376 -1.98004 0
M  V30 393 C 37.0364 1.0543 -1.64754 0
M  V30 394 O 38.2424 1.58029 -2.20769 0
M  V30 395 C 36.6984 -0.636326 -3.5423 0
M  V30 396 C 36.3064 -2.08759 -3.96388 0
M  V30 397 C 38.0504 -0.278869 -4.23583 0
M  V30 398 C 35.9574 -2.28525 -5.45463 0
M  V30 399 H 34.8874 -0.139986 -0.740891 0
M  V30 400 H 37.5384 -0.991369 -1.54415 0
M  V30 401 H 35.9204 0.0406256 -3.95979 0
M  V30 402 H 37.0944 -2.8024 -3.6579 0
M  V30 403 H 35.4094 -2.40497 -3.39926 0
M  V30 404 H 38.0064 -0.404599 -5.33167 0
M  V30 405 H 38.3494 0.775012 -4.09022 0
M  V30 406 H 38.8824 -0.909764 -3.87257 0
M  V30 407 H 35.6214 -3.32361 -5.64992 0
M  V30 408 H 35.1414 -1.61569 -5.77629 0
M  V30 409 H 36.8204 -2.10109 -6.11934 0
M  V30 410 N 36.9525 1.47285 -0.560781 0
M  V30 411 C 37.8995 2.30058 0.18491 0
M  V30 412 C 38.8695 1.39281 0.904986 0
M  V30 413 O 40.0545 1.68241 0.899979 0
M  V30 414 C 37.1945 3.23317 1.20666 0
M  V30 415 C 36.3075 4.29186 0.492285 0
M  V30 416 C 35.4425 5.09592 1.49964 0
M  V30 417 C 34.4815 6.07232 0.770439 0
M  V30 418 N 33.6185 6.80584 1.72479 0
M  V30 419 H 38.4585 2.93302 -0.527048 0
M  V30 420 H 35.9955 1.44568 -0.271738 0
M  V30 421 H 37.9535 3.75811 1.81168 0
M  V30 422 H 36.5835 2.61929 1.88661 0
M  V30 423 H 35.6355 3.7972 -0.227333 0
M  V30 424 H 36.9475 4.98738 -0.0787929 0
M  V30 425 H 36.1015 5.66254 2.17809 0
M  V30 426 H 34.8405 4.3995 2.10464 0
M  V30 427 H 33.8455 5.49745 0.0780846 0
M  V30 428 H 35.0705 6.78884 0.171134 0
M  V30 429 H 33.0165 6.1367 2.3183 0
M  V30 430 H 32.9335 7.46319 1.20596 0
M  V30 431 H 34.2015 7.41818 2.39428 0
M  V30 432 N 38.4306 0.297415 1.54768 0
M  V30 433 C 39.3786 -0.596051 2.24833 0
M  V30 434 C 40.3726 -1.13992 1.25308 0
M  V30 435 O 41.5786 -1.09098 1.4317 0
M  V30 436 H 37.9536 -0.210814 0.721846 0
M  V30 437 H 39.9246 0.0174667 2.98395 0
M  V30 438 C 38.6736 -1.75818 2.99972 0
M  V30 439 H 37.9966 -1.3489 3.76357 0
M  V30 440 H 39.4366 -2.35949 3.52284 0
M  V30 441 C 37.8956 -2.66014 2.06732 0
M  V30 442 O 38.4256 -3.67009 1.63302 0
M  V30 443 N 36.6316 -2.33669 1.72763 0
M  V30 444 H 36.1786 -1.51586 2.08277 0
M  V30 445 H 36.1366 -2.94285 1.10652 0
M  V30 446 N 39.9087 -1.5758 0.0250728 0
M  V30 447 C 41.3247 -1.56124 -0.331282 0
M  V30 448 C 41.5247 -1.03029 -1.73169 0
M  V30 449 O 40.5807 -0.675215 -2.43305 0
M  V30 450 C 41.8937 -3.00139 -0.183584 0
M  V30 451 C 43.4417 -3.11946 -0.256654 0
M  V30 452 C 43.9167 -4.57793 -0.137792 0
M  V30 453 N 45.4077 -4.6279 -0.194904 0
M  V30 454 C 46.1427 -5.7326 -0.126655 0
M  V30 455 N 45.6387 -6.928 -0.00755288 0
M  V30 456 N 47.4317 -5.61811 -0.180348 0
M  V30 457 H 39.5827 -1.90424 0.94087 0
M  V30 458 H 41.8457 -0.875761 0.362968 0
M  V30 459 H 41.5517 -3.4292 0.780927 0
M  V30 460 H 41.4257 -3.64899 -0.955448 0
M  V30 461 H 43.8127 -2.69079 -1.21162 0
M  V30 462 H 43.8937 -2.49915 0.545517 0
M  V30 463 H 43.5377 -5.01339 0.813739 0
M  V30 464 H 43.4677 -5.17798 -0.958775 0
M  V30 465 H 45.9587 -3.76807 -0.287267 0
M  V30 466 H 46.2717 -7.72791 0.0379428 0
M  V30 467 H 44.6167 -6.94995 0.0271731 0
M  V30 468 H 47.8077 -4.6731 -0.271767 0
M  V30 469 H 47.9807 -6.47882 -0.123697 0
M  V30 470 N 41.3868 0.248026 -1.55636 0
M  V30 471 C 42.6148 0.993808 -1.81469 0
M  V30 472 C 43.0298 1.78991 -0.60064 0
M  V30 473 O 42.3868 1.77345 0.430682 0
M  V30 474 C 42.4378 1.93258 -3.05506 0
M  V30 475 O 42.1588 1.16869 -4.22224 0
M  V30 476 C 43.6598 2.79444 -3.4413 0
M  V30 477 H 40.8798 0.292486 -0.603898 0
M  V30 478 H 43.4238 0.271253 -2.02693 0
M  V30 479 H 41.5788 2.60943 -2.86335 0
M  V30 480 H 41.9928 1.80359 -4.92515 0
M  V30 481 H 43.4668 3.41066 -4.34026 0
M  V30 482 H 43.9438 3.50499 -2.64665 0
M  V30 483 H 44.5498 2.17214 -3.65648 0
M  V30 484 N 42.8649 1.48995 0.513639 0
M  V30 485 C 43.7749 1.67443 1.64317 0
M  V30 486 C 44.7909 0.556947 1.64846 0
M  V30 487 O 45.9669 0.830082 1.83498 0
M  V30 488 C 43.0319 1.72515 3.00732 0
M  V30 489 C 42.0929 2.96009 3.1093 0
M  V30 490 C 41.3259 3.00829 4.40837 0
M  V30 491 O 41.5489 2.13594 5.28898 0
M  V30 492 O 40.4829 3.93168 4.55744 0
M  V30 493 H 44.3089 2.63106 1.51687 0
M  V30 494 H 41.8939 1.32588 0.688543 0
M  V30 495 H 43.7759 1.78277 3.81831 0
M  V30 496 H 42.4509 0.800278 3.13651 0
M  V30 497 H 41.3579 2.9577 2.29065 0
M  V30 498 H 42.6909 3.87934 3.02933 0
M  V30 499 N 44.343 -0.763751 1.37857 0
M  V30 500 C 45.759 -1.06542 1.18832 0
M  V30 501 C 45.959 -2.01478 0.0299722 0
M  V30 502 O 45.015 -2.4458 -0.627447 0
M  V30 503 C 46.328 -1.65525 2.51042 0
M  V30 504 C 47.876 -1.77745 2.57635 0
M  V30 505 C 48.351 -2.4014 3.89996 0
M  V30 506 N 49.842 -2.47582 3.91481 0
M  V30 507 C 50.577 -2.96732 4.9065 0
M  V30 508 N 50.073 -3.45993 6.00217 0
M  V30 509 N 51.866 -2.95679 4.78048 0
M  V30 510 H 44.017 -0.133556 2.1198 0
M  V30 511 H 46.28 -0.121879 0.940133 0
M  V30 512 H 45.986 -1.03236 3.36207 0
M  V30 513 H 45.86 -2.64719 2.68707 0
M  V30 514 H 48.247 -2.39164 1.72872 0
M  V30 515 H 48.328 -0.772836 2.43846 0
M  V30 516 H 47.972 -1.79358 4.75177 0
M  V30 517 H 47.902 -3.41223 4.01092 0
M  V30 518 H 50.393 -2.1273 3.12337 0
M  V30 519 H 50.706 -3.81922 6.7183 0
M  V30 520 H 49.051 -3.44077 6.03851 0
M  V30 521 H 52.242 -2.56499 3.91568 0
M  V30 522 H 52.415 -3.33672 5.55488 0
M  V30 523 N 45.8211 -1.22559 -0.990812 0
M  V30 524 C 47.0511 -1.07623 -1.76355 0
M  V30 525 C 47.4591 0.37601 -1.85426 0
M  V30 526 O 46.8021 1.27228 -1.32509 0
M  V30 527 C 46.8641 -1.61507 -3.21179 0
M  V30 528 C 46.5281 -3.10146 -3.35646 0
M  V30 529 C 47.5251 -4.07553 -3.22796 0
M  V30 530 C 45.2101 -3.49644 -3.60631 0
M  V30 531 C 47.2041 -5.42442 -3.34716 0
M  V30 532 C 44.8911 -4.84682 -3.72192 0
M  V30 533 C 45.8891 -5.8089 -3.59243 0
M  V30 534 O 45.5771 -7.13476 -3.70415 0
M  V30 535 H 45.3091 -0.377745 -0.560611 0
M  V30 536 H 47.8631 -1.62658 -1.25425 0
M  V30 537 H 46.0931 -1.00881 -3.73309 0
M  V30 538 H 47.7821 -1.42202 -3.80175 0
M  V30 539 H 48.5481 -3.78381 -3.03403 0
M  V30 540 H 44.4271 -2.75282 -3.69785 0
M  V30 541 H 47.9711 -6.17518 -3.24526 0
M  V30 542 H 43.8681 -5.13534 -3.91092 0
M  V30 543 H 44.6361 -7.21083 -3.87275 0
M  V30 544 N 47.2992 1.18797 -1.03562 0
M  V30 545 C 48.2472 2.24297 -0.615905 0
M  V30 546 C 49.2412 1.65643 0.354808 0
M  V30 547 O 50.4472 1.78618 0.22265 0
M  V30 548 H 46.8222 0.729909 -0.180934 0
M  V30 549 H 48.7932 2.5701 -1.5162 0
M  V30 550 C 47.5422 3.47698 0.0104735 0
M  V30 551 H 46.8652 3.93125 -0.727509 0
M  V30 552 H 48.3052 4.23159 0.266995 0
M  V30 553 C 46.7642 3.12489 1.25905 0
M  V30 554 O 47.2942 3.25761 2.35038 0
M  V30 555 N 45.5002 2.6686 1.15039 0
M  V30 556 H 45.0472 2.56261 0.262328 0
M  V30 557 H 45.0052 2.43674 1.98672 0
M  V30 558 N 48.7773 0.814389 1.34928 0
M  V30 559 C 50.0023 0.410097 2.03305 0
M  V30 560 C 50.4273 -0.973464 1.60951 0
M  V30 561 O 49.7853 -1.63185 0.789964 0
M  V30 562 C 49.8333 0.51049 3.56968 0
M  V30 563 O 48.9373 -0.473035 4.09678 0
M  V30 564 H 48.2783 0.170088 0.641846 0
M  V30 565 H 50.8083 1.10244 1.72358 0
M  V30 566 H 50.8183 0.383135 4.06197 0
M  V30 567 H 49.4933 1.51963 3.87144 0
M  V30 568 H 48.0703 -0.305272 3.71648 0
M  V30 569 N 50.2554 -1.46986 0.568584 0
M  V30 570 C 51.5324 -1.95592 -0.0174074 0
M  V30 571 C 51.9124 -1.51124 -1.47393 0
M  V30 572 O 51.2604 -0.755329 -2.15655 0
M  V30 573 C 51.4704 -3.48719 0.139913 0
M  V30 574 C 52.8184 -4.246 0.000426376 0
M  V30 575 O 53.8424 -3.56135 0.0680316 0
M  V30 576 O 52.7014 -5.46302 -0.146988 0
M  V30 577 H 49.7954 -0.82498 -0.0577599 0
M  V30 578 H 52.3414 -1.57335 0.635909 0
M  V30 579 H 51.1134 -3.73927 1.15301 0
M  V30 580 H 50.7364 -3.93771 -0.550491 0
M  V30 581 N 51.7335 -0.305618 -1.54608 0
M  V30 582 C 52.6635 0.561482 -2.26649 0
M  V30 583 C 53.6445 1.13415 -1.26772 0
M  V30 584 O 54.8295 1.16262 -1.55553 0
M  V30 585 C 51.9595 1.73122 -3.01075 0
M  V30 586 C 50.9135 1.2887 -4.08138 0
M  V30 587 C 50.2395 2.54396 -4.70305 0
M  V30 588 C 51.5395 0.416578 -5.20636 0
M  V30 589 H 53.2335 -0.0393902 -2.99374 0
M  V30 590 H 50.7795 -0.020385 -1.43986 0
M  V30 591 H 52.7325 2.34396 -3.50195 0
M  V30 592 H 51.4565 2.3584 -2.25936 0
M  V30 593 H 50.1155 0.698991 -3.59875 0
M  V30 594 H 49.7635 3.15439 -3.918 0
M  V30 595 H 49.4635 2.25486 -5.42614 0
M  V30 596 H 50.9875 3.16464 -5.2219 0
M  V30 597 H 52.4015 0.935116 -5.65622 0
M  V30 598 H 50.7985 0.221046 -5.99693 0
M  V30 599 H 51.8685 -0.557162 -4.81688 0
M  V30 600 N 53.2116 1.57565 -0.0334293 0
M  V30 601 C 54.4586 1.91978 0.644272 0
M  V30 602 C 54.7866 0.910231 1.71887 0
M  V30 603 O 54.0416 -0.0801961 1.95536 0
M  V30 604 C 54.3406 3.33112 1.29504 0
M  V30 605 C 54.0066 4.49537 0.350388 0
M  V30 606 C 52.6686 4.81115 0.0903974 0
M  V30 607 C 55.0206 5.20347 -0.298032 0
M  V30 608 C 52.3486 5.8086 -0.825746 0
M  V30 609 C 54.7006 6.2107 -1.20226 0
M  V30 610 C 53.3646 6.51088 -1.4711 0
M  V30 611 H 52.6346 0.702496 0.235756 0
M  V30 612 H 55.2816 1.91259 -0.0961176 0
M  V30 613 H 53.5866 3.30113 2.11028 0
M  V30 614 H 55.2836 3.57011 1.82603 0
M  V30 615 H 51.8736 4.24883 0.563205 0
M  V30 616 H 56.0576 4.96178 -0.110234 0
M  V30 617 H 51.3136 6.02461 -1.04169 0
M  V30 618 H 55.4876 6.75057 -1.71086 0
M  V30 619 H 53.1146 7.28193 -2.18264 0
M  V30 620 N 54.6897 -0.239769 1.55765 0
M  V30 621 C 55.6217 -1.32001 1.87372 0
M  V30 622 C 56.6347 -1.43944 0.760522 0
M  V30 623 O 57.8237 -1.45167 1.0387 0
M  V30 624 C 54.9237 -2.69779 2.05115 0
M  V30 625 C 54.0967 -2.80014 3.36022 0
M  V30 626 C 53.1557 -3.98684 3.4342 0
M  V30 627 O 52.1817 -3.87877 4.16582 0
M  V30 628 N 53.3837 -5.12176 2.73232 0
M  V30 629 H 56.1487 -1.0522 2.80622 0
M  V30 630 H 53.7097 -0.429857 1.56089 0
M  V30 631 H 55.7017 -3.47517 2.07399 0
M  V30 632 H 54.2717 -2.89237 1.18577 0
M  V30 633 H 53.4917 -1.88896 3.45994 0
M  V30 634 H 54.7797 -2.83808 4.22292 0
M  V30 635 H 54.1777 -5.2385 2.13536 0
M  V30 636 H 52.7347 -5.88022 2.81199 0
M  V30 637 N 56.1678 -1.49265 -0.50573 0
M  V30 638 C 57.1308 -1.65075 -1.59006 0
M  V30 639 C 58.1308 -0.522768 -1.52065 0
M  V30 640 O 59.3208 -0.789117 -1.55302 0
M  V30 641 C 56.4528 -1.64369 -2.98656 0
M  V30 642 H 57.6458 -2.61784 -1.46319 0
M  V30 643 H 55.1988 -1.38226 -0.729616 0
M  V30 644 H 55.9338 -0.692272 -3.16825 0
M  V30 645 H 55.7188 -2.46282 -3.05103 0
M  V30 646 H 57.2088 -1.78674 -3.77446 0
M  V30 647 N 57.6459 0.756429 -1.3826 0
M  V30 648 C 59.0619 1.0591 -1.19395 0
M  V30 649 C 59.2619 2.01459 -0.0406567 0
M  V30 650 O 58.3179 2.44909 0.614467 0
M  V30 651 C 59.6309 1.64191 -2.51916 0
M  V30 652 C 61.1789 1.76376 -2.58574 0
M  V30 653 C 61.6539 2.38069 -3.91264 0
M  V30 654 N 63.1449 2.45503 -3.92788 0
M  V30 655 C 63.8799 2.94126 -4.92217 0
M  V30 656 N 63.3759 3.42805 -6.02043 0
M  V30 657 N 65.1689 2.9314 -4.7961 0
M  V30 658 H 57.3199 0.122313 -2.12048 0
M  V30 659 H 59.5829 0.116892 -0.940766 0
M  V30 660 H 59.2889 1.01451 -3.3675 0
M  V30 661 H 59.1629 2.6329 -2.70108 0
M  V30 662 H 61.5499 2.38244 -1.74137 0
M  V30 663 H 61.6309 0.759894 -2.44252 0
M  V30 664 H 61.2749 1.76835 -4.76121 0
M  V30 665 H 61.2049 3.39091 -4.02895 0
M  V30 666 H 63.6959 2.1107 -3.13461 0
M  V30 667 H 64.0089 3.78354 -6.73846 0
M  V30 668 H 62.3539 3.4087 -6.05667 0
M  V30 669 H 65.5449 2.54419 -3.92923 0
M  V30 670 H 65.7179 3.30721 -5.5725 0
M  V30 671 N 59.124 1.23083 0.984299 0
M  V30 672 C 60.054 1.03292 2.09411 0
M  V30 673 C 61.035 -0.048923 1.7003 0
M  V30 674 O 62.22 0.114967 1.93859 0
M  V30 675 C 59.35 0.619155 3.41736 0
M  V30 676 C 58.304 1.64791 3.95004 0
M  V30 677 C 57.63 1.0897 5.23478 0
M  V30 678 C 58.93 3.03999 4.24714 0
M  V30 679 H 60.624 1.96119 2.26225 0
M  V30 680 H 58.17 0.944344 1.08711 0
M  V30 681 H 60.123 0.467777 4.18796 0
M  V30 682 H 58.847 -0.344786 3.24775 0
M  V30 683 H 57.506 1.78721 3.20085 0
M  V30 684 H 57.154 0.11686 5.02864 0
M  V30 685 H 56.854 1.77704 5.60085 0
M  V30 686 H 58.378 0.950093 6.03163 0
M  V30 687 H 59.792 2.93393 4.92538 0
M  V30 688 H 58.189 3.69936 4.72512 0
M  V30 689 H 59.259 3.53285 3.32142 0
M  V30 690 N 60.6021 -1.18246 1.0419 0
M  V30 691 C 61.5321 -2.24127 0.654914 0
M  V30 692 C 62.5131 -1.66617 -0.342451 0
M  V30 693 O 63.6981 -1.92924 -0.222277 0
M  V30 694 C 60.8281 -3.47295 0.0183757 0
M  V30 695 C 59.7821 -4.17563 0.939414 0
M  V30 696 C 59.1081 -5.34438 0.167286 0
M  V30 697 C 60.4081 -4.70917 2.25908 0
M  V30 698 H 62.1021 -2.56753 1.54007 0
M  V30 699 H 59.6481 -1.23414 0.74195 0
M  V30 700 H 61.6011 -4.20572 -0.264082 0
M  V30 701 H 60.3251 -3.13907 -0.901664 0
M  V30 702 H 58.9841 -3.46186 1.20628 0
M  V30 703 H 58.6321 -4.97298 -0.7552 0
M  V30 704 H 58.3321 -5.82388 0.780901 0
M  V30 705 H 59.8561 -6.10504 -0.108125 0
M  V30 706 H 61.2701 -5.35882 2.03724 0
M  V30 707 H 59.6671 -5.29406 2.82577 0
M  V30 708 H 60.7371 -3.88272 2.9047 0
M  V30 709 N 62.0802 -0.821533 -1.34494 0
M  V30 710 C 63.3282 -0.408139 -1.97936 0
M  V30 711 C 63.6492 1.03193 -1.65457 0
M  V30 712 O 62.9192 1.71622 -0.944595 0
M  V30 713 H 61.4992 -0.147928 -0.732206 0
M  V30 714 H 64.1612 -1.05067 -1.64155 0
M  V30 715 H 63.2572 -0.52601 -3.07635 0
M  V30 716 N 63.5583 1.46682 -0.576371 0
M  V30 717 C 64.5053 2.30241 0.160499 0
M  V30 718 C 65.4753 1.40233 0.890162 0
M  V30 719 O 66.6603 1.69186 0.882084 0
M  V30 720 C 63.8003 3.24578 1.1723 0
M  V30 721 C 62.9133 4.29684 0.446736 0
M  V30 722 C 62.0483 5.11154 1.44551 0
M  V30 723 C 61.0873 6.08015 0.70599 0
M  V30 724 N 60.2243 6.82376 1.65251 0
M  V30 725 H 65.0643 2.92727 -0.558127 0
M  V30 726 H 62.6013 1.44272 -0.287056 0
M  V30 727 H 64.5593 3.77711 1.77172 0
M  V30 728 H 63.1893 2.63916 1.85872 0
M  V30 729 H 62.2413 3.79458 -0.267594 0
M  V30 730 H 63.5533 4.98626 -0.131686 0
M  V30 731 H 62.7073 5.68533 2.11791 0
M  V30 732 H 61.4463 4.42158 2.05786 0
M  V30 733 H 60.4513 5.49796 0.0197725 0
M  V30 734 H 61.6763 6.79028 0.09912 0
M  V30 735 H 59.6223 6.16094 2.25308 0
M  V30 736 H 59.5393 7.47556 1.12673 0
M  V30 737 H 60.8073 7.44316 2.31546 0
M  V30 738 N 65.0364 0.313813 1.54444 0
M  V30 739 C 65.9844 -0.572171 2.25453 0
M  V30 740 C 66.9784 -1.12657 1.2651 0
M  V30 741 O 68.1844 -1.07573 1.44319 0
M  V30 742 H 64.5594 -0.203146 0.724041 0
M  V30 743 H 66.5304 0.0491145 2.9836 0
M  V30 744 C 65.2794 -1.72626 3.0182 0
M  V30 745 H 64.6024 -1.30891 3.77767 0
M  V30 746 H 66.0424 -2.32199 3.54767 0
M  V30 747 C 64.5014 -2.63806 2.09542 0
M  V30 748 O 65.0314 -3.65256 1.67185 0
M  V30 749 N 63.2374 -2.31824 1.75232 0
M  V30 750 H 62.7844 -1.49368 2.09873 0
M  V30 751 H 62.7424 -2.93095 1.13767 0
M  V30 752 N 66.5145 -1.57545 0.0417849 0
M  V30 753 C 67.7615 -1.92317 -0.634082 0
M  V30 754 C 68.0895 -0.919334 -1.71402 0
M  V30 755 O 67.3445 0.0698253 -1.95575 0
M  V30 756 C 67.6435 -3.33794 -1.27735 0
M  V30 757 C 67.3095 -4.49716 -0.326543 0
M  V30 758 C 65.9715 -4.81156 -0.0648814 0
M  V30 759 C 68.3235 -5.20182 0.325623 0
M  V30 760 C 65.6515 -5.80414 0.856539 0
M  V30 761 C 68.0035 -6.20424 1.23518 0
M  V30 762 C 66.6675 -6.50298 1.5056 0
M  V30 763 H 65.9375 -0.703736 -0.232027 0
M  V30 764 H 68.5845 -1.91205 0.106259 0
M  V30 765 H 66.8895 -3.31228 -2.09274 0
M  V30 766 H 68.5865 -3.57975 -1.80707 0
M  V30 767 H 65.1765 -4.25176 -0.540665 0
M  V30 768 H 69.3605 -4.96112 0.136546 0
M  V30 769 H 64.6165 -6.019 1.07363 0
M  V30 770 H 68.7905 -6.74141 1.74664 0
M  V30 771 H 66.4175 -7.27025 2.22123 0
M  V30 772 N 67.9926 0.231505 -1.5589 0
M  V30 773 C 69.2416 0.955346 -1.7764 0
M  V30 774 C 69.5546 1.85893 -0.608546 0
M  V30 775 O 70.7606 2.62067 -0.70943 0
M  V30 776 C 69.2166 1.74886 -3.14552 0
M  V30 777 C 68.8246 0.891915 -4.39032 0
M  V30 778 C 70.5686 2.46452 -3.45633 0
M  V30 779 C 68.4756 1.68221 -5.66971 0
M  V30 780 H 67.4056 0.360446 -0.662265 0
M  V30 781 H 70.0566 0.209516 -1.823 0
M  V30 782 H 68.4386 2.53723 -3.04041 0
M  V30 783 H 69.6126 0.144793 -4.60572 0
M  V30 784 H 67.9276 0.288863 -4.15397 0
M  V30 785 H 70.5246 3.06061 -4.38441 0
M  V30 786 H 70.8676 3.18841 -2.67668 0
M  V30 787 H 71.4006 1.74613 -3.57428 0
M  V30 788 H 68.1396 1.00178 -6.478 0
M  V30 789 H 67.6596 2.4042 -5.49507 0
M  V30 790 H 69.3386 2.24544 -6.06786 0
M  V30 791 N 69.4707 1.49531 0.497807 0
M  V30 792 C 70.7107 1.60799 1.26187 0
M  V30 793 C 71.0747 0.289627 1.89803 0
M  V30 794 O 72.2757 0.277512 2.67364 0
M  V30 795 C 70.5467 2.73729 2.29798 0
M  V30 796 S 72.1057 3.04968 3.155 0
M  V30 797 H 68.9237 0.567145 0.428798 0
M  V30 798 H 71.5257 1.87204 0.563477 0
M  V30 799 H 70.2297 3.68036 1.81597 0
M  V30 800 H 69.7607 2.49328 3.04301 0
M  V30 801 H 71.7757 2.46735 4.30507 0
M  V30 802 N 70.9488 -0.749086 1.3866 0
M  V30 803 C 71.8818 -1.87111 1.30631 0
M  V30 804 C 72.8598 -1.61572 0.18251 0
M  V30 805 O 74.0438 -1.85019 0.360592 0
M  V30 806 C 71.1708 -3.22815 1.02511 0
M  V30 807 C 70.2168 -3.67234 2.1689 0
M  V30 808 S 71.0498 -3.78245 3.79066 0
M  V30 809 C 72.2058 -5.16761 3.53142 0
M  V30 810 H 72.4388 -1.93636 2.25594 0
M  V30 811 H 69.9718 -0.912525 1.24549 0
M  V30 812 H 71.9298 -4.01181 0.869701 0
M  V30 813 H 70.5908 -3.13964 0.0925884 0
M  V30 814 H 69.7838 -4.65677 1.92771 0
M  V30 815 H 69.3858 -2.96034 2.28561 0
M  V30 816 H 71.6778 -6.02656 3.09534 0
M  V30 817 H 72.6208 -5.45902 4.50995 0
M  V30 818 H 73.0288 -4.85771 2.87554 0
M  V30 819 N 72.4269 -1.23603 -0.977757 0
M  V30 820 C 73.6549 -1.09646 -1.75458 0
M  V30 821 C 74.0699 0.351859 -1.85492 0
M  V30 822 O 73.4269 1.24327 -1.336 0
M  V30 823 C 73.4779 -1.71895 -3.18016 0
M  V30 824 O 73.1989 -3.11063 -3.08498 0
M  V30 825 C 74.6999 -1.63415 -4.12081 0
M  V30 826 H 71.9199 -0.38359 -0.550545 0
M  V30 827 H 74.4639 -1.63507 -1.22824 0
M  V30 828 H 72.6189 -1.22061 -3.67668 0
M  V30 829 H 73.0329 -3.41305 -3.9826 0
M  V30 830 H 74.5069 -2.11669 -5.09804 0
M  V30 831 H 74.9839 -0.593462 -4.35172 0
M  V30 832 H 75.5899 -2.12628 -3.68334 0
M  V30 833 N 73.905 1.17692 -1.04816 0
M  V30 834 C 75.153 1.87488 -0.754497 0
M  V30 835 C 75.474 1.81205 0.720407 0
M  V30 836 O 74.744 1.23544 1.52032 0
M  V30 837 H 73.324 0.694101 -0.276102 0
M  V30 838 H 75.986 1.42793 -1.32651 0
M  V30 839 H 75.082 2.93328 -1.06606 0
M  V30 840 N 75.3831 0.828654 1.34056 0
M  V30 841 C 76.3461 0.259927 2.27721 0
M  V30 842 C 77.3461 -0.565478 1.50529 0
M  V30 843 O 78.5361 -0.38075 1.69988 0
M  V30 844 C 75.6681 -0.634944 3.34935 0
M  V30 845 H 76.8611 1.0863 2.79534 0
M  V30 846 H 74.4141 0.600951 1.44285 0
M  V30 847 H 75.1491 -1.48416 2.88346 0
M  V30 848 H 74.9341 -0.0444999 3.92075 0
M  V30 849 H 76.4241 -1.02648 4.04788 0
M  V30 850 N 76.8612 -1.46375 0.584142 0
M  V30 851 C 77.7712 -2.34115 -0.150728 0
M  V30 852 C 78.7872 -1.49838 -0.884567 0
M  V30 853 O 79.9632 -1.82704 -0.847429 0
M  V30 854 C 77.0282 -3.2705 -1.15062 0
M  V30 855 C 76.0892 -4.27228 -0.421293 0
M  V30 856 C 75.3222 -5.15722 -1.37355 0
M  V30 857 O 75.5452 -5.07176 -2.61014 0
M  V30 858 O 74.4792 -5.95383 -0.883355 0
M  V30 859 H 78.3052 -2.98309 0.569708 0
M  V30 860 H 75.8902 -1.45373 0.344535 0
M  V30 861 H 77.7722 -3.84381 -1.72712 0
M  V30 862 H 76.4472 -2.65451 -1.8525 0
M  V30 863 H 75.3542 -3.7358 0.197085 0
M  V30 864 H 76.6872 -4.91616 0.239641 0
M  V30 865 N 78.3393 -0.321999 -1.54275 0
M  V30 866 C 79.3023 0.531975 -2.22941 0
M  V30 867 C 80.3023 1.04478 -1.22234 0
M  V30 868 O 81.4923 0.937452 -1.46825 0
M  V30 869 C 78.6243 1.73874 -2.93224 0
M  V30 870 H 79.8173 -0.0682612 -2.99822 0
M  V30 871 H 77.3703 -0.0730644 -1.56129 0
M  V30 872 H 78.1053 2.37825 -2.20476 0
M  V30 873 H 77.8903 1.37847 -3.6707 0
M  V30 874 H 79.3803 2.34496 -3.45545 0
M  V30 875 N 79.8174 1.5752 -0.0501392 0
M  V30 876 C 80.7804 2.1037 0.909786 0
M  V30 877 C 81.7804 1.02308 1.24056 0
M  V30 878 O 82.9704 1.28385 1.17741 0
M  V30 879 C 80.1024 2.58708 2.21998 0
M  V30 880 H 81.2954 2.96479 0.451665 0
M  V30 881 H 78.8484 1.55038 0.198248 0
M  V30 882 H 79.5834 1.75989 2.72394 0
M  V30 883 H 79.3684 3.37675 1.99295 0
M  V30 884 H 80.8584 2.99747 2.9076 0
M  V30 885 N 81.2955 -0.223234 1.56011 0
M  V30 886 C 82.2425 -1.27664 1.92277 0
M  V30 887 C 83.2125 -1.46659 0.779763 0
M  V30 888 O 84.3975 -1.60256 1.03551 0
M  V30 889 C 81.5375 -2.62234 2.24338 0
M  V30 890 C 80.6505 -2.51051 3.51564 0
M  V30 891 C 79.7855 -3.78133 3.7308 0
M  V30 892 C 78.8245 -3.61665 4.93827 0
M  V30 893 N 77.9615 -4.80693 5.11741 0
M  V30 894 H 82.8015 -0.960358 2.82101 0
M  V30 895 H 80.3385 -0.462901 1.39627 0
M  V30 896 H 82.2965 -3.40596 2.40936 0
M  V30 897 H 80.9265 -2.91961 1.3769 0
M  V30 898 H 79.9785 -1.64132 3.43169 0
M  V30 899 H 81.2905 -2.34803 4.40079 0
M  V30 900 H 80.4445 -4.64938 3.89766 0
M  V30 901 H 79.1835 -3.97304 2.82844 0
M  V30 902 H 78.1885 -2.73244 4.77093 0
M  V30 903 H 79.4135 -3.43966 5.85546 0
M  V30 904 H 77.3595 -5.00181 4.24446 0
M  V30 905 H 77.2765 -4.67165 5.94384 0
M  V30 906 H 78.5445 -5.6893 5.3286 0
M  V30 907 N 82.7736 -1.49793 -0.48987 0
M  V30 908 C 84.0196 -1.60078 -1.24511 0
M  V30 909 C 84.3526 -0.291608 -1.91998 0
M  V30 910 O 83.6276 0.705647 -1.81248 0
M  V30 911 C 83.9106 -2.76791 -2.30345 0
M  V30 912 C 83.7636 -4.17535 -1.67286 0
M  V30 913 C 85.0826 -2.89111 -3.31817 0
M  V30 914 H 82.2016 -0.582645 -0.451324 0
M  V30 915 H 84.8436 -1.82117 -0.541612 0
M  V30 916 H 82.9936 -2.5813 -2.90346 0
M  V30 917 H 84.6656 -4.4774 -1.11026 0
M  V30 918 H 82.9086 -4.22665 -0.976577 0
M  V30 919 H 83.5796 -4.95094 -2.44103 0
M  V30 920 H 86.0556 -3.06133 -2.81819 0
M  V30 921 H 84.9316 -3.72433 -4.03219 0
M  V30 922 H 85.1926 -1.9893 -3.94815 0
M  V30 923 N 84.2517 0.741722 -1.39055 0
M  V30 924 C 85.4987 1.50114 -1.35912 0
M  V30 925 C 85.8267 1.94443 0.0470937 0
M  V30 926 O 85.0817 1.66612 1.02659 0
M  V30 927 C 85.3807 2.7592 -2.27163 0
M  V30 928 C 85.0467 2.50493 -3.74919 0
M  V30 929 C 83.7087 2.43267 -4.1518 0
M  V30 930 C 86.0607 2.28585 -4.684 0
M  V30 931 C 83.3887 2.12166 -5.46994 0
M  V30 932 C 85.7407 1.99002 -6.00484 0
M  V30 933 C 84.4047 1.90241 -6.39816 0
M  V30 934 H 83.6747 0.549306 -0.497336 0
M  V30 935 H 86.3217 0.851896 -1.71508 0
M  V30 936 H 84.6267 3.45553 -1.84663 0
M  V30 937 H 86.3237 3.33923 -2.22028 0
M  V30 938 H 82.9137 2.56992 -3.43006 0
M  V30 939 H 87.0977 2.33139 -4.38132 0
M  V30 940 H 82.3537 2.03901 -5.76398 0
M  V30 941 H 86.5277 1.81057 -6.72452 0
M  V30 942 H 84.1547 1.65907 -7.41875 0
M  V30 943 N 85.7298 1.2412 0.971189 0
M  V30 944 C 86.9598 1.10415 1.7462 0
M  V30 945 C 87.3678 -0.346462 1.86001 0
M  V30 946 O 86.7108 -1.25104 1.34517 0
M  V30 947 C 86.7728 1.66596 3.18568 0
M  V30 948 C 86.4368 3.15446 3.3067 0
M  V30 949 C 87.4338 4.12636 3.16271 0
M  V30 950 C 85.1188 3.55337 3.55022 0
M  V30 951 C 87.1128 5.47699 3.26044 0
M  V30 952 C 84.7998 4.90542 3.64434 0
M  V30 953 C 85.7978 5.86532 3.49956 0
M  V30 954 O 85.4858 7.19279 3.59017 0
M  V30 955 H 85.2178 0.386616 0.55453 0
M  V30 956 H 87.7718 1.64633 1.22821 0
M  V30 957 H 86.0018 1.06808 3.71657 0
M  V30 958 H 87.6908 1.48232 3.77865 0
M  V30 959 H 88.4568 3.8316 2.97344 0
M  V30 960 H 84.3358 2.8113 3.65359 0
M  V30 961 H 87.8798 6.22603 3.14661 0
M  V30 962 H 83.7768 5.19691 3.82873 0
M  V30 963 H 84.5448 7.27153 3.75754 0
M  V30 964 N 87.2079 -1.17134 1.05439 0
M  V30 965 C 88.4849 -1.83411 0.679699 0
M  V30 966 C 88.8649 -1.9368 -0.839726 0
M  V30 967 O 88.2129 -1.47325 -1.74664 0
M  V30 968 C 88.4229 -3.20918 1.37159 0
M  V30 969 C 89.7709 -3.96796 1.51123 0
M  V30 970 O 90.7949 -3.30406 1.3308 0
M  V30 971 O 89.6539 -5.15778 1.80651 0
M  V30 972 H 86.7479 -0.79154 0.239569 0
M  V30 973 H 89.2939 -1.24411 1.15413 0
M  V30 974 H 88.0659 -3.08428 2.40807 0
M  V30 975 H 87.6889 -3.87587 0.886674 0
M  V30 976 N 88.686 -0.835752 -1.33615 0
M  V30 977 C 89.914 -0.443344 -2.02094 0
M  V30 978 C 90.329 0.954522 -1.62894 0
M  V30 979 O 89.686 1.61982 -0.840723 0
M  V30 980 C 89.737 -0.550775 -3.5728 0
M  V30 981 O 89.458 -1.89356 -3.95065 0
M  V30 982 C 90.959 -0.154919 -4.43029 0
M  V30 983 H 88.179 -0.176359 -0.647409 0
M  V30 984 H 90.723 -1.12746 -1.70612 0
M  V30 985 H 88.878 0.0853997 -3.87306 0
M  V30 986 H 89.292 -1.87687 -4.89769 0
M  V30 987 H 90.766 -0.281144 -5.51284 0
M  V30 988 H 91.243 0.902863 -4.2982 0
M  V30 989 H 91.849 -0.765404 -4.18356 0
M  V30 990 N 90.1641 1.46063 -0.591896 0
M  V30 991 C 91.4411 1.95595 -0.0137119 0
M  V30 992 C 91.8211 1.5345 1.4497 0
M  V30 993 O 91.1691 0.789543 2.14426 0
M  V30 994 C 91.3791 3.48453 -0.195373 0
M  V30 995 C 92.7271 4.24546 -0.0679765 0
M  V30 996 O 93.7511 3.55982 -0.124681 0
M  V30 997 O 92.6101 5.46467 0.0600579 0
M  V30 998 H 89.7041 0.825795 0.0446279 0
M  V30 999 H 92.2501 1.56303 -0.660859 0
M  V30 1000 H 91.0221 3.72045 -1.21235 0
M  V30 1001 H 90.6451 3.94597 0.487775 0
M  V30 1002 N 91.6422 0.330177 1.54103 0
M  V30 1003 C 93.0582 -0.0222371 1.59585 0
M  V30 1004 C 93.2582 -1.49902 1.34654 0
M  V30 1005 O 92.3142 -2.25592 1.13421 0
M  V30 1006 C 93.6272 0.401932 2.98002 0
M  V30 1007 C 95.1752 0.353145 3.11001 0
M  V30 1008 C 95.6502 0.752576 4.51775 0
M  V30 1009 N 97.1412 0.706239 4.57784 0
M  V30 1010 C 97.8762 0.987417 5.64834 0
M  V30 1011 N 97.3722 1.33607 6.79795 0
M  V30 1012 N 99.1652 0.91254 5.54643 0
M  V30 1013 H 91.3162 1.29228 1.68564 0
M  V30 1014 H 93.5792 0.525906 0.78875 0
M  V30 1015 H 93.2852 1.4311 3.21267 0
M  V30 1016 H 93.1592 -0.229699 3.765 0
M  V30 1017 H 95.5462 -0.666822 2.87467 0
M  V30 1018 H 95.6272 1.0198 2.34593 0
M  V30 1019 H 95.2712 1.77049 4.76042 0
M  V30 1020 H 95.2012 0.0635409 5.26562 0
M  V30 1021 H 97.6922 0.44889 3.75224 0
M  V30 1022 H 98.0052 1.53582 7.57385 0
M  V30 1023 H 96.3502 1.37439 6.81275 0
M  V30 1024 H 99.5412 0.639601 4.6371 0
M  V30 1025 H 99.7142 1.13503 6.37982 0
M  V30 1026 N 93.1203 -1.57491 0.0584922 0
M  V30 1027 C 94.3673 -1.92978 -0.613648 0
M  V30 1028 C 94.6953 -0.937461 -1.70417 0
M  V30 1029 O 93.9503 0.049078 -1.95638 0
M  V30 1030 C 94.2493 -3.3513 -1.24188 0
M  V30 1031 C 93.9153 -4.50037 -0.278826 0
M  V30 1032 C 92.5773 -4.81198 -0.0138447 0
M  V30 1033 C 94.9293 -5.19807 0.380777 0
M  V30 1034 C 92.2573 -5.79473 0.918052 0
M  V30 1035 C 94.6093 -6.19079 1.30091 0
M  V30 1036 C 93.2733 -6.48665 1.57449 0
M  V30 1037 H 92.5433 -0.706157 -0.22455 0
M  V30 1038 H 95.1903 -1.91082 0.126533 0
M  V30 1039 H 93.4953 -3.33429 -2.05749 0
M  V30 1040 H 95.1923 -3.59871 -1.769 0
M  V30 1041 H 91.7823 -4.25726 -0.495539 0
M  V30 1042 H 95.9663 -4.95939 0.189158 0
M  V30 1043 H 91.2223 -6.00727 1.1374 0
M  V30 1044 H 95.3963 -6.7225 1.81804 0
M  V30 1045 H 93.0233 -7.24628 2.29822 0
M  V30 1046 N 94.5984 0.214957 -1.56127 0
M  V30 1047 C 95.5304 1.29004 -1.89448 0
M  V30 1048 C 96.5434 1.42716 -0.783326 0
M  V30 1049 O 97.7324 1.43496 -1.06166 0
M  V30 1050 C 94.8324 2.66482 -2.09381 0
M  V30 1051 C 94.0054 2.74633 -3.40434 0
M  V30 1052 C 93.0644 3.9317 -3.49719 0
M  V30 1053 O 92.0904 3.812 -4.227 0
M  V30 1054 N 93.2924 5.07765 -2.81346 0
M  V30 1055 H 96.0574 1.00743 -2.82261 0
M  V30 1056 H 93.6184 0.40497 -1.56753 0
M  V30 1057 H 95.6104 3.44173 -2.12901 0
M  V30 1058 H 94.1804 2.87314 -1.23163 0
M  V30 1059 H 93.4004 1.83368 -3.48955 0
M  V30 1060 H 94.6884 2.77054 -4.26754 0
M  V30 1061 H 94.0864 5.20386 -2.21843 0
M  V30 1062 H 92.6434 5.83474 -2.90519 0
M  V30 1063 N 96.0765 1.50051 0.48192 0
M  V30 1064 C 97.4925 1.37237 0.814756 0
M  V30 1065 C 97.6925 0.420109 1.97072 0
M  V30 1066 O 96.7485 -0.141246 2.52105 0
M  V30 1067 C 98.0615 2.78375 1.13701 0
M  V30 1068 C 99.6095 2.87213 1.2441 0
M  V30 1069 C 100.084 4.29161 1.59954 0
M  V30 1070 N 101.575 4.32061 1.66967 0
M  V30 1071 C 102.31 5.38879 1.95952 0
M  V30 1072 N 101.806 6.55918 2.23031 0
M  V30 1073 N 103.599 5.26312 1.97363 0
M  V30 1074 H 95.7505 2.10546 -0.28005 0
M  V30 1075 H 98.0135 0.945921 -0.0627454 0
M  V30 1076 H 97.7195 3.49845 0.360787 0
M  V30 1077 H 97.5935 3.14941 2.07586 0
M  V30 1078 H 99.9805 2.15969 2.01101 0
M  V30 1079 H 100.061 2.54204 0.285299 0
M  V30 1080 H 99.7055 5.00938 0.838067 0
M  V30 1081 H 99.6355 4.59648 2.56966 0
M  V30 1082 H 102.126 3.47661 1.48123 0
M  V30 1083 H 102.439 7.33139 2.44391 0
M  V30 1084 H 100.784 6.59112 2.20447 0
M  V30 1085 H 103.975 4.33876 1.75697 0
M  V30 1086 H 104.148 6.09649 2.19618 0
M  V30 1087 N 97.5546 -0.734337 1.39446 0
M  V30 1088 C 98.4866 -1.85861 1.34121 0
M  V30 1089 C 99.4996 -1.60871 0.249864 0
M  V30 1090 O 100.689 -1.71093 0.508865 0
M  V30 1091 C 97.7886 -3.21899 1.05991 0
M  V30 1092 C 96.9616 -3.74239 2.26415 0
M  V30 1093 C 96.0206 -4.88841 1.94733 0
M  V30 1094 O 95.0466 -5.02468 2.67422 0
M  V30 1095 N 96.2486 -5.73261 0.913884 0
M  V30 1096 H 99.0136 -1.90934 2.31007 0
M  V30 1097 H 96.5746 -0.915102 1.33557 0
M  V30 1098 H 98.5666 -3.96136 0.828147 0
M  V30 1099 H 97.1366 -3.12091 0.178361 0
M  V30 1100 H 96.3566 -2.91347 2.65539 0
M  V30 1101 H 97.6446 -4.05942 3.06738 0
M  V30 1102 H 97.0426 -5.64842 0.311476 0
M  V30 1103 H 95.5996 -6.47563 0.742015 0
M  V30 1104 N 99.0327 -1.24633 -0.964593 0
M  V30 1105 C 99.9807 -1.03917 -2.08096 0
M  V30 1106 C 100.975 0.0268581 -1.69379 0
M  V30 1107 O 102.181 -0.127952 -1.79545 0
M  V30 1108 H 98.5557 -0.319044 -0.680966 0
M  V30 1109 H 100.527 -1.98581 -2.22729 0
M  V30 1110 C 99.2757 -0.663983 -3.41301 0
M  V30 1111 H 98.5987 -1.47605 -3.71555 0
M  V30 1112 H 100.039 -0.558663 -4.20303 0
M  V30 1113 C 98.4977 0.629169 -3.30973 0
M  V30 1114 O 99.0277 1.67404 -3.65156 0
M  V30 1115 N 97.2337 0.611057 -2.84103 0
M  V30 1116 H 96.7807 -0.239593 -2.56483 0
M  V30 1117 H 96.7387 1.47647 -2.77575 0
M  V30 1118 N 100.511 1.16574 -1.06058 0
M  V30 1119 C 101.474 2.19085 -0.673392 0
M  V30 1120 C 102.474 1.5835 0.279648 0
M  V30 1121 O 103.664 1.74088 0.0623488 0
M  V30 1122 C 100.796 3.40899 0.00954234 0
M  V30 1123 H 101.989 2.54853 -1.58081 0
M  V30 1124 H 99.5418 1.30808 -0.855516 0
M  V30 1125 H 100.277 3.10684 0.929826 0
M  V30 1126 H 100.062 3.86233 -0.67573 0
M  V30 1127 H 101.552 4.1675 0.266245 0
M  V30 1128 N 101.989 0.842826 1.3317 0
M  V30 1129 C 102.919 0.294028 2.31641 0
M  V30 1130 C 103.9 -0.600401 1.59151 0
M  V30 1131 O 105.085 -0.523124 1.87022 0
M  V30 1132 C 102.215 -0.528416 3.43257 0
M  V30 1133 C 101.169 0.27056 4.27144 0
M  V30 1134 C 100.495 -0.675881 5.30411 0
M  V30 1135 C 101.795 1.48981 5.00602 0
M  V30 1136 H 103.489 1.11681 2.77791 0
M  V30 1137 H 101.035 0.538478 1.33553 0
M  V30 1138 H 102.988 -0.922674 4.11175 0
M  V30 1139 H 101.712 -1.38445 2.95805 0
M  V30 1140 H 100.371 0.646427 3.60856 0
M  V30 1141 H 100.019 -1.52842 4.79216 0
M  V30 1142 H 99.7189 -0.145374 5.8742 0
M  V30 1143 H 101.243 -1.06757 6.01195 0
M  V30 1144 H 102.657 1.16849 5.61266 0
M  V30 1145 H 101.054 1.95739 5.6728 0
M  V30 1146 H 102.124 2.25746 4.29147 0
M  V30 1147 N 103.467 -1.45747 0.599634 0
M  V30 1148 C 104.878 -1.85853 0.177681 0
M  V30 1149 C 105.229 -1.50102 -1.26348 0
M  V30 1150 O 104.354 -0.923905 -1.95686 0
M  V30 1151 C 104.949 -3.37326 0.315688 0
M  V30 1152 C 103.508 -3.76365 -0.0515144 0
M  V30 1153 C 102.655 -2.69722 0.643822 0
M  V30 1154 H 105.606 -1.36661 0.806814 0
M  V30 1155 H 105.627 -3.77778 -0.454321 0
M  V30 1156 H 105.139 -3.63315 1.36468 0
M  V30 1157 H 103.24 -3.55993 -1.09999 0
M  V30 1158 H 103.353 -4.77916 0.336594 0
M  V30 1159 H 101.717 -2.54567 0.0822881 0
M  V30 1160 H 102.5 -2.98549 1.6948 0
M  V30 1161 N 104.945 -0.338344 -1.53925 0
M  V30 1162 C 105.892 0.520845 -2.24846 0
M  V30 1163 C 106.862 1.09976 -1.24477 0
M  V30 1164 O 108.047 1.13735 -1.53196 0
M  V30 1165 C 105.187 1.6685 -3.02084 0
M  V30 1166 C 104.3 1.11739 -4.17299 0
M  V30 1167 C 103.435 2.23193 -4.82036 0
M  V30 1168 C 102.474 1.65407 -5.89328 0
M  V30 1169 N 101.611 2.70582 -6.47866 0
M  V30 1170 H 106.451 -0.0904881 -2.97863 0
M  V30 1171 H 103.988 -0.0564282 -1.46992 0
M  V30 1172 H 105.946 2.34407 -3.45122 0
M  V30 1173 H 104.576 2.2509 -2.31375 0
M  V30 1174 H 103.628 0.332919 -3.7894 0
M  V30 1175 H 104.94 0.654677 -4.94485 0
M  V30 1176 H 104.094 2.98626 -5.28117 0
M  V30 1177 H 102.833 2.72807 -4.04262 0
M  V30 1178 H 101.838 0.884779 -5.42634 0
M  V30 1179 H 103.063 1.16652 -6.69006 0
M  V30 1180 H 101.009 3.1946 -5.72959 0
M  V30 1181 H 100.926 2.28917 -7.20509 0
M  V30 1182 H 102.194 3.45799 -6.98601 0
M  V30 1183 N 106.423 1.57458 -0.0668435 0
M  V30 1184 C 107.839 1.56947 0.289772 0
M  V30 1185 C 108.039 1.07584 1.70376 0
M  V30 1186 O 107.095 0.739486 2.41429 0
M  V30 1187 C 108.408 3.0052 0.103943 0
M  V30 1188 C 109.956 3.12517 0.173857 0
M  V30 1189 C 110.431 4.57997 0.0163682 0
M  V30 1190 N 111.922 4.63144 0.0721352 0
M  V30 1191 C 112.657 5.73394 -0.0253794 0
M  V30 1192 N 112.153 6.92576 -0.176133 0
M  V30 1193 N 113.946 5.62091 0.0313305 0
M  V30 1194 H 106.097 1.87863 -0.991027 0
M  V30 1195 H 108.36 0.86583 -0.38606 0
M  V30 1196 H 108.066 3.40729 -0.871572 0
M  V30 1197 H 107.94 3.67304 0.858366 0
M  V30 1198 H 110.327 2.72197 1.13985 0
M  V30 1199 H 110.408 2.48381 -0.611586 0
M  V30 1200 H 110.052 4.99005 -0.946374 0
M  V30 1201 H 109.982 5.20158 0.821153 0
M  V30 1202 H 112.473 3.77436 0.187263 0
M  V30 1203 H 112.786 7.72418 -0.242821 0
M  V30 1204 H 111.131 6.94678 -0.211429 0
M  V30 1205 H 114.322 4.67867 0.147773 0
M  V30 1206 H 114.495 6.47982 -0.048121 0
M  V30 1207 N 107.901 -0.206675 1.56239 0
M  V30 1208 C 109.147 -0.930218 1.80208 0
M  V30 1209 C 109.48 -1.83387 0.638981 0
M  V30 1210 O 108.755 -1.91119 -0.361066 0
M  V30 1211 C 109.038 -1.75641 3.1436 0
M  V30 1212 C 108.891 -0.878257 4.41142 0
M  V30 1213 C 110.21 -2.73129 3.45092 0
M  V30 1214 H 107.329 -0.336742 0.655571 0
M  V30 1215 H 109.971 -0.198222 1.88963 0
M  V30 1216 H 108.121 -2.38048 3.07027 0
M  V30 1217 H 109.793 -0.269787 4.6051 0
M  V30 1218 H 108.036 -0.184385 4.33408 0
M  V30 1219 H 108.707 -1.49106 5.3148 0
M  V30 1220 H 111.183 -2.20856 3.52649 0
M  V30 1221 H 110.059 -3.28028 4.40101 0
M  V30 1222 H 110.32 -3.51606 2.68003 0
M  V30 1223 N 109.379 -1.50304 -0.473955 0
M  V30 1224 C 110.311 -1.65109 -1.58971 0
M  V30 1225 C 111.324 -0.532676 -1.53839 0
M  V30 1226 O 112.513 -0.805751 -1.59279 0
M  V30 1227 C 109.613 -1.61684 -2.97845 0
M  V30 1228 C 108.786 -2.8951 -3.27876 0
M  V30 1229 C 107.845 -2.78768 -4.4629 0
M  V30 1230 O 106.871 -3.52722 -4.46739 0
M  V30 1231 N 108.073 -1.9213 -5.47783 0
M  V30 1232 H 110.838 -2.61347 -1.46689 0
M  V30 1233 H 108.399 -1.47732 -0.662324 0
M  V30 1234 H 110.391 -1.52114 -3.75024 0
M  V30 1235 H 108.961 -0.731925 -3.03911 0
M  V30 1236 H 108.181 -3.13228 -2.39336 0
M  V30 1237 H 109.469 -3.74199 -3.4475 0
M  V30 1238 H 108.867 -1.31353 -5.50239 0
M  V30 1239 H 107.424 -1.88466 -6.23958 0
M  V30 1240 N 110.857 0.726932 -1.39834 0
M  V30 1241 C 111.804 1.841 -1.39197 0
M  V30 1242 C 112.774 1.642 -0.250502 0
M  V30 1243 O 113.959 1.85494 -0.446846 0
M  V30 1244 C 111.099 3.21697 -1.24919 0
M  V30 1245 C 110.212 3.53247 -2.48678 0
M  V30 1246 C 109.347 4.80289 -2.26928 0
M  V30 1247 C 108.386 5.04707 -3.4632 0
M  V30 1248 N 107.523 6.22956 -3.23836 0
M  V30 1249 H 112.363 1.83979 -2.34427 0
M  V30 1250 H 109.9 0.898876 -1.16442 0
M  V30 1251 H 111.858 4.01137 -1.1465 0
M  V30 1252 H 110.488 3.21076 -0.333153 0
M  V30 1253 H 109.54 2.68447 -2.69519 0
M  V30 1254 H 110.852 3.67205 -3.37582 0
M  V30 1255 H 110.006 5.67725 -2.13947 0
M  V30 1256 H 108.745 4.68519 -1.35431 0
M  V30 1257 H 107.75 4.1573 -3.5979 0
M  V30 1258 H 108.975 5.18357 -4.38729 0
M  V30 1259 H 106.921 6.12459 -2.35011 0
M  V30 1260 H 106.838 6.37539 -4.063 0
M  V30 1261 H 108.106 7.1321 -3.14566 0
M  V30 1262 N 112.336 1.25143 0.95797 0
M  V30 1263 C 113.561 1.12521 1.74223 0
M  V30 1264 C 113.986 -0.317402 1.85403 0
M  V30 1265 O 113.344 -1.2299 1.33204 0
M  V30 1266 C 113.392 1.78062 3.1357 0
M  V30 1267 O 112.496 1.058 3.98598 0
M  V30 1268 H 111.837 0.39304 0.535178 0
M  V30 1269 H 114.367 1.65641 1.201 0
M  V30 1270 H 114.377 1.84213 3.64046 0
M  V30 1271 H 113.052 2.83021 3.04749 0
M  V30 1272 H 111.629 1.07506 3.57067 0
M  V30 1273 N 113.814 -1.1601 1.06675 0
M  V30 1274 C 114.744 -2.22688 0.702307 0
M  V30 1275 C 115.725 -1.67306 -0.307032 0
M  V30 1276 O 116.91 -1.93352 -0.181305 0
M  V30 1277 C 114.04 -3.47178 0.092038 0
M  V30 1278 C 112.994 -4.15477 1.02777 0
M  V30 1279 C 112.32 -5.33963 0.28061 0
M  V30 1280 C 113.62 -4.66019 2.35846 0
M  V30 1281 H 115.314 -2.53429 1.59419 0
M  V30 1282 H 112.86 -1.21813 0.767961 0
M  V30 1283 H 114.813 -4.21037 -0.174814 0
M  V30 1284 H 113.537 -3.15749 -0.834877 0
M  V30 1285 H 112.196 -3.43549 1.27944 0
M  V30 1286 H 111.844 -4.98788 -0.649545 0
M  V30 1287 H 111.544 -5.806 0.904258 0
M  V30 1288 H 113.068 -6.10596 0.021396 0
M  V30 1289 H 114.482 -5.3144 2.15045 0
M  V30 1290 H 112.879 -5.23293 2.93743 0
M  V30 1291 H 113.949 -3.82023 2.98641 0
M  V30 1292 N 115.292 -0.849877 -1.32721 0
M  V30 1293 C 116.539 -0.450923 -1.97416 0
M  V30 1294 C 116.867 0.992376 -1.67279 0
M  V30 1295 O 116.122 1.71048 -0.950845 0
M  V30 1296 C 116.421 -0.631272 -3.51781 0
M  V30 1297 C 116.087 -2.04432 -4.01894 0
M  V30 1298 C 114.749 -2.4308 -4.1529 0
M  V30 1299 C 117.101 -2.96679 -4.28522 0
M  V30 1300 C 114.429 -3.73257 -4.52654 0
M  V30 1301 C 116.781 -4.26349 -4.67343 0
M  V30 1302 C 115.445 -4.64939 -4.78945 0
M  V30 1303 H 114.715 -0.165004 -0.722395 0
M  V30 1304 H 117.362 -1.07901 -1.58207 0
M  V30 1305 H 115.667 0.0800767 -3.91718 0
M  V30 1306 H 117.364 -0.302709 -3.99856 0
M  V30 1307 H 113.954 -1.73419 -3.91949 0
M  V30 1308 H 118.138 -2.68054 -4.17685 0
M  V30 1309 H 113.394 -4.02946 -4.59831 0
M  V30 1310 H 117.568 -4.97895 -4.86902 0
M  V30 1311 H 115.195 -5.65855 -5.07654 0
M  V30 1312 N 116.77 1.45427 -0.607355 0
M  V30 1313 C 118.018 2.01841 -0.102253 0
M  V30 1314 C 118.339 1.47832 1.27164 0
M  V30 1315 O 117.609 0.672497 1.83995 0
M  V30 1316 H 116.189 0.746188 -0.0348101 0
M  V30 1317 H 118.851 1.78229 -0.7887 0
M  V30 1318 H 117.947 3.12057 -0.0518585 0
M  V30 1319 N 118.248 0.346503 1.53744 0
M  V30 1320 C 119.494 -0.249473 2.0126 0
M  V30 1321 C 119.827 -1.49965 1.23386 0
M  V30 1322 O 119.102 -1.91811 0.32229 0
M  V30 1323 C 119.385 -0.560643 3.55709 0
M  V30 1324 C 119.238 0.701836 4.44291 0
M  V30 1325 C 120.557 -1.36905 4.18264 0
M  V30 1326 H 117.676 -0.0891987 0.731582 0
M  V30 1327 H 120.318 0.467624 1.84156 0
M  V30 1328 H 118.468 -1.17156 3.70414 0
M  V30 1329 H 120.14 1.33974 4.41417 0
M  V30 1330 H 118.383 1.32612 4.13033 0
M  V30 1331 H 119.054 0.43933 5.50249 0
M  V30 1332 H 121.53 -0.852448 4.07275 0
M  V30 1333 H 120.406 -1.55553 5.26398 0
M  V30 1334 H 120.667 -2.37203 3.73078 0
M  V30 1335 N 119.726 -1.57421 0.075193 0
M  V30 1336 C 120.674 -2.14124 -0.908508 0
M  V30 1337 C 121.668 -1.07898 -1.30592 0
M  V30 1338 O 122.874 -1.26273 -1.28277 0
M  V30 1339 H 119.249 -0.684707 -0.310935 0
M  V30 1340 H 121.22 -2.95634 -0.405374 0
M  V30 1341 C 119.969 -2.72044 -2.16535 0
M  V30 1342 H 119.292 -3.53456 -1.86839 0
M  V30 1343 H 120.732 -3.15311 -2.83469 0
M  V30 1344 C 119.191 -1.66968 -2.92615 0
M  V30 1345 O 119.721 -1.0967 -3.86439 0
M  V30 1346 N 117.927 -1.37923 -2.55784 0
M  V30 1347 H 117.474 -1.84706 -1.79559 0
M  V30 1348 H 117.432 -0.67852 -3.06991 0
M  V30 1349 N 121.204 0.198386 -1.56346 0
M  V30 1350 C 122.167 1.22952 -1.93431 0
M  V30 1351 C 123.167 1.38611 -0.815092 0
M  V30 1352 O 124.357 1.36479 -1.08255 0
M  V30 1353 C 121.489 2.59946 -2.20546 0
M  V30 1354 H 122.682 0.912626 -2.85677 0
M  V30 1355 H 120.235 0.43977 -1.49986 0
M  V30 1356 H 120.97 2.96696 -1.30927 0
M  V30 1357 H 120.755 2.49953 -3.02102 0
M  V30 1358 H 122.245 3.3431 -2.50253 0
M  V30 1359 N 122.682 1.50554 0.465978 0
M  V30 1360 C 123.931 1.61038 1.21448 0
M  V30 1361 C 124.244 0.31865 1.92987 0
M  V30 1362 O 125.45 0.302469 2.6981 0
M  V30 1363 C 123.906 2.84283 2.20706 0
M  V30 1364 C 123.514 4.20352 1.54946 0
M  V30 1365 C 125.258 3.04115 2.96166 0
M  V30 1366 C 123.165 5.34778 2.5252 0
M  V30 1367 H 122.095 0.599718 0.457005 0
M  V30 1368 H 124.746 1.7699 0.484424 0
M  V30 1369 H 123.128 2.61901 2.97025 0
M  V30 1370 H 124.302 4.53008 0.843811 0
M  V30 1371 H 122.617 4.06167 0.917475 0
M  V30 1372 H 125.214 3.86774 3.69202 0
M  V30 1373 H 125.557 2.16045 3.55852 0
M  V30 1374 H 126.09 3.26702 2.26959 0
M  V30 1375 H 122.829 6.25018 1.97566 0
M  V30 1376 H 122.349 5.06534 3.21222 0
M  V30 1377 H 124.028 5.65561 3.14245 0
M  V30 1378 N 124.16 -0.719506 1.40217 0
M  V30 1379 C 125.092 -1.84428 1.36084 0
M  V30 1380 C 126.105 -1.60597 0.266913 0
M  V30 1381 O 127.294 -1.70544 0.526983 0
M  V30 1382 C 124.394 -3.20757 1.094 0
M  V30 1383 C 123.567 -3.71817 2.30372 0
M  V30 1384 C 122.626 -4.86748 1.99907 0
M  V30 1385 O 121.652 -4.99603 2.72737 0
M  V30 1386 N 122.854 -5.7226 0.974635 0
M  V30 1387 H 125.619 -1.88473 2.33019 0
M  V30 1388 H 123.18 -0.900885 1.3452 0
M  V30 1389 H 125.172 -3.95235 0.870116 0
M  V30 1390 H 123.742 -3.11884 0.211452 0
M  V30 1391 H 122.962 -2.88514 2.68614 0
M  V30 1392 H 124.25 -4.02666 3.11026 0
M  V30 1393 H 123.648 -5.6448 0.371368 0
M  V30 1394 H 122.205 -6.46739 0.810656 0
M  V30 1395 N 125.638 -1.25649 -0.95132 0
M  V30 1396 C 126.886 -1.10375 -1.69298 0
M  V30 1397 C 127.207 0.355339 -1.91735 0
M  V30 1398 O 126.477 1.25188 -1.50681 0
M  V30 1399 H 125.057 -0.405461 -0.627384 0
M  V30 1400 H 127.719 -1.57823 -1.14358 0
M  V30 1401 H 126.815 -1.61465 -2.67087 0
M  V30 1402 N 127.117 1.15442 -1.07289 0
M  V30 1403 C 128.05 2.19135 -0.636798 0
M  V30 1404 C 129.028 1.58884 0.34562 0
M  V30 1405 O 130.212 1.86805 0.252195 0
M  V30 1406 C 127.339 3.38638 0.0650014 0
M  V30 1407 C 126.385 4.17412 -0.87576 0
M  V30 1408 S 127.218 4.79882 -2.37642 0
M  V30 1409 C 128.374 6.02753 -1.6864 0
M  V30 1410 H 128.607 2.55787 -1.51526 0
M  V30 1411 H 126.14 1.26394 -0.886793 0
M  V30 1412 H 128.098 4.07873 0.463664 0
M  V30 1413 H 126.759 3.00331 0.919801 0
M  V30 1414 H 125.952 5.02909 -0.33143 0
M  V30 1415 H 125.554 3.53722 -1.21478 0
M  V30 1416 H 127.846 6.70113 -0.997753 0
M  V30 1417 H 128.789 6.61754 -2.51967 0
M  V30 1418 H 129.197 5.52355 -1.16465 0
M  V30 1419 N 128.595 0.856903 1.32268 0
M  V30 1420 C 129.872 0.382583 1.91822 0
M  V30 1421 C 130.252 -1.13407 1.78051 0
M  V30 1422 O 129.6 -1.95673 1.18001 0
M  V30 1423 C 129.81 0.849446 3.38505 0
M  V30 1424 C 131.158 0.867936 4.15634 0
M  V30 1425 O 132.182 0.794232 3.47232 0
M  V30 1426 O 131.041 0.972286 5.37781 0
M  V30 1427 H 128.135 0.112014 0.819379 0
M  V30 1428 H 130.681 0.943952 1.41024 0
M  V30 1429 H 129.453 1.89267 3.42482 0
M  V30 1430 H 129.076 0.265652 3.96712 0
M  V30 1431 N 130.073 -1.45103 0.615059 0
M  V30 1432 C 131.321 -2.01784 0.112955 0
M  V30 1433 C 131.642 -1.48504 -1.26378 0
M  V30 1434 O 130.912 -0.682245 -1.83636 0
M  V30 1435 H 129.492 -0.745993 0.0387668 0
M  V30 1436 H 132.154 -1.77808 0.798141 0
M  V30 1437 H 131.25 -3.12025 0.0684069 0
M  V30 1438 N 131.551 -0.354651 -1.53558 0
M  V30 1439 C 132.776 0.242153 -2.05981 0
M  V30 1440 C 133.201 1.42553 -1.2272 0
M  V30 1441 O 132.559 1.79656 -0.243604 0
M  V30 1442 C 132.607 0.624367 -3.55154 0
M  V30 1443 O 131.711 1.72301 -3.74681 0
M  V30 1444 H 131.052 0.0378432 -0.662921 0
M  V30 1445 H 133.582 -0.512087 -1.98088 0
M  V30 1446 H 133.592 0.898433 -3.97985 0
M  V30 1447 H 132.267 -0.240989 -4.15201 0
M  V30 1448 H 130.844 1.44535 -3.4375 0
M  V30 1449 N 133.029 1.57378 -0.0835403 0
M  V30 1450 C 133.992 2.12252 0.864959 0
M  V30 1451 C 134.992 1.04916 1.21858 0
M  V30 1452 O 136.182 1.30853 1.14991 0
M  V30 1453 C 133.314 2.63358 2.16461 0
M  V30 1454 H 134.507 2.97371 0.388676 0
M  V30 1455 H 132.06 1.55423 0.165317 0
M  V30 1456 H 132.795 1.81727 2.686 0
M  V30 1457 H 132.58 3.41826 1.92087 0
M  V30 1458 H 134.07 3.05847 2.84337 0
M  V30 1459 N 134.507 -0.190092 1.56449 0
M  V30 1460 C 135.457 -1.23977 1.91347 0
M  V30 1461 C 136.441 -1.40747 0.779693 0
M  V30 1462 O 137.633 -1.43033 1.04262 0
M  V30 1463 C 134.762 -2.58347 2.26079 0
M  V30 1464 C 133.848 -2.4535 3.45925 0
M  V30 1465 N 134.239 -2.02039 4.63696 0
M  V30 1466 C 132.537 -2.76229 3.50162 0
M  V30 1467 C 133.238 -2.01053 5.4585 0
M  V30 1468 N 132.214 -2.42747 4.8639 0
M  V30 1469 H 136.016 -0.896318 2.79899 0
M  V30 1470 H 133.53 -0.398496 1.57435 0
M  V30 1471 H 135.527 -3.34173 2.49267 0
M  V30 1472 H 134.187 -2.93512 1.38856 0
M  V30 1473 H 135.198 -1.7267 4.88268 0
M  V30 1474 H 131.875 -3.15556 2.73369 0
M  V30 1475 H 133.265 -1.69426 6.50188 0
M  V30 1476 N 135.985 -1.50799 -0.457987 0
M  V30 1477 C 137.234 -1.6168 -1.20593 0
M  V30 1478 C 137.547 -0.32888 -1.92815 0
M  V30 1479 O 138.753 -0.316773 -2.69646 0
M  V30 1480 C 137.209 -2.8545 -2.19195 0
M  V30 1481 C 136.817 -4.21168 -1.52715 0
M  V30 1482 C 138.561 -3.05681 -2.94549 0
M  V30 1483 C 136.468 -5.3611 -2.4968 0
M  V30 1484 H 135.398 -0.602134 -0.453818 0
M  V30 1485 H 138.049 -1.77245 -0.475031 0
M  V30 1486 H 136.431 -2.63472 -2.95632 0
M  V30 1487 H 137.605 -4.53449 -0.819775 0
M  V30 1488 H 135.92 -4.06648 -0.895922 0
M  V30 1489 H 138.517 -3.88727 -3.67145 0
M  V30 1490 H 138.86 -2.17929 -3.54701 0
M  V30 1491 H 139.393 -3.27901 -2.25223 0
M  V30 1492 H 136.132 -6.26057 -1.94249 0
M  V30 1493 H 135.652 -5.0823 -3.18532 0
M  V30 1494 H 137.331 -5.6722 -3.11241 0
M  V30 1495 N 137.463 0.71206 -1.40597 0
M  V30 1496 C 138.413 1.81783 -1.37619 0
M  V30 1497 C 139.397 1.58896 -0.253162 0
M  V30 1498 O 140.589 1.70009 -0.492547 0
M  V30 1499 C 137.718 3.19944 -1.24462 0
M  V30 1500 C 136.804 3.48582 -2.4156 0
M  V30 1501 N 137.195 3.48016 -3.67041 0
M  V30 1502 C 135.493 3.79056 -2.35016 0
M  V30 1503 C 136.194 3.75096 -4.44609 0
M  V30 1504 N 135.17 3.94022 -3.74497 0
M  V30 1505 H 138.972 1.79683 -2.32575 0
M  V30 1506 H 136.486 0.91134 -1.34419 0
M  V30 1507 H 138.483 3.99133 -1.20411 0
M  V30 1508 H 137.143 3.23267 -0.304762 0
M  V30 1509 H 138.154 3.28782 -4.00153 0
M  V30 1510 H 134.831 3.89848 -1.49415 0
M  V30 1511 H 136.221 3.80934 -5.53479 0
M  V30 1512 N 138.941 1.26152 0.944643 0
M  V30 1513 C 140.357 1.03189 1.21754 0
M  V30 1514 C 140.557 -0.245112 2.00004 0
M  V30 1515 O 139.613 -0.955176 2.33736 0
M  V30 1516 C 140.926 2.26119 1.98219 0
M  V30 1517 C 142.474 2.30984 2.11224 0
M  V30 1518 C 142.949 3.53597 2.91089 0
M  V30 1519 N 144.44 3.54053 2.98664 0
M  V30 1520 C 145.175 4.45593 3.60881 0
M  V30 1521 N 144.671 5.47416 4.24626 0
M  V30 1522 N 146.464 4.33252 3.58119 0
M  V30 1523 H 138.615 2.08177 0.421437 0
M  V30 1524 H 140.878 0.914723 0.248969 0
M  V30 1525 H 140.584 3.18984 1.48128 0
M  V30 1526 H 140.458 2.3009 2.98895 0
M  V30 1527 H 142.845 1.38635 2.60508 0
M  V30 1528 H 142.926 2.31026 1.09821 0
M  V30 1529 H 142.57 4.46273 2.42493 0
M  V30 1530 H 142.5 3.50802 3.92741 0
M  V30 1531 H 144.991 2.80403 2.53343 0
M  V30 1532 H 145.304 6.13459 4.69987 0
M  V30 1533 H 143.649 5.51278 4.23223 0
M  V30 1534 H 146.84 3.52924 3.0751 0
M  V30 1535 H 147.013 5.04786 4.06319 0
M  V30 1536 N 140.419 -1.14872 1.07899 0
M  V30 1537 C 141.366 -2.19791 0.704319 0
M  V30 1538 C 142.336 -1.63238 -0.306987 0
M  V30 1539 O 143.521 -1.8983 -0.192171 0
M  V30 1540 C 140.661 -3.44911 0.114244 0
M  V30 1541 C 139.774 -4.15637 1.1777 0
M  V30 1542 C 138.909 -5.28324 0.552037 0
M  V30 1543 C 137.948 -5.90875 1.59789 0
M  V30 1544 N 137.085 -6.95022 0.994404 0
M  V30 1545 H 141.925 -2.5119 1.60336 0
M  V30 1546 H 139.462 -1.23356 0.801352 0
M  V30 1547 H 141.42 -4.16477 -0.245544 0
M  V30 1548 H 140.05 -3.14011 -0.74813 0
M  V30 1549 H 139.102 -3.42512 1.65499 0
M  V30 1550 H 140.414 -4.5823 1.97046 0
M  V30 1551 H 139.568 -6.06538 0.1402 0
M  V30 1552 H 138.307 -4.86939 -0.272431 0
M  V30 1553 H 137.312 -5.11369 2.01945 0
M  V30 1554 H 138.537 -6.34337 2.42474 0
M  V30 1555 H 136.483 -6.55722 0.190939 0
M  V30 1556 H 136.4 -7.36073 1.72432 0
M  V30 1557 H 137.668 -7.77123 0.608253 0
M  V30 1558 N 141.898 -0.863906 -1.31812 0
M  V30 1559 C 142.831 -0.259963 -2.26714 0
M  V30 1560 C 143.809 0.607392 -1.50829 0
M  V30 1561 O 144.993 0.562155 -1.79922 0
M  V30 1562 C 142.12 0.632456 -3.32743 0
M  V30 1563 C 141.166 -0.162743 -4.26189 0
M  V30 1564 S 141.999 -1.53726 -5.12961 0
M  V30 1565 C 143.155 -0.650803 -6.22507 0
M  V30 1566 H 143.388 -1.06445 -2.77591 0
M  V30 1567 H 140.921 -0.662071 -1.39485 0
M  V30 1568 H 142.879 1.14167 -3.94305 0
M  V30 1569 H 141.54 1.41083 -2.80632 0
M  V30 1570 H 140.733 0.517366 -5.01338 0
M  V30 1571 H 140.335 -0.60385 -3.69093 0
M  V30 1572 H 142.627 0.141134 -6.77353 0
M  V30 1573 H 143.57 -1.37322 -6.94657 0
M  V30 1574 H 143.978 -0.221041 -5.64067 0
M  V30 1575 N 143.376 1.44774 -0.622745 0
M  V30 1576 C 144.306 2.33382 0.0741861 0
M  V30 1577 C 145.287 1.47719 0.843387 0
M  V30 1578 O 146.472 1.76458 0.810934 0
M  V30 1579 C 143.602 3.30663 1.06204 0
M  V30 1580 C 142.556 4.26079 0.405037 0
M  V30 1581 C 141.882 5.13165 1.5022 0
M  V30 1582 C 143.182 5.1781 -0.683414 0
M  V30 1583 H 144.876 2.91905 -0.665713 0
M  V30 1584 H 142.422 1.40363 -0.321587 0
M  V30 1585 H 144.375 3.9153 1.55827 0
M  V30 1586 H 143.099 2.70331 1.83272 0
M  V30 1587 H 141.758 3.66532 -0.0704683 0
M  V30 1588 H 141.406 4.49191 2.26355 0
M  V30 1589 H 141.106 5.77812 1.06803 0
M  V30 1590 H 142.63 5.76902 2.00041 0
M  V30 1591 H 144.044 5.72661 -0.270631 0
M  V30 1592 H 142.441 5.91015 -1.04023 0
M  V30 1593 H 143.511 4.59326 -1.55395 0
M  V30 1594 N 144.854 0.36279 1.53368 0
M  V30 1595 C 146.101 -0.227776 2.01215 0
M  V30 1596 C 146.429 -1.49003 1.25014 0
M  V30 1597 O 145.684 -1.92876 0.331236 0
M  V30 1598 C 145.983 -0.568417 3.52851 0
M  V30 1599 C 145.649 0.59918 4.46901 0
M  V30 1600 C 144.311 0.919559 4.72332 0
M  V30 1601 C 146.663 1.38156 5.02556 0
M  V30 1602 C 143.991 2.02434 5.5067 0
M  V30 1603 C 146.343 2.47674 5.821 0
M  V30 1604 C 145.007 2.8025 6.05819 0
M  V30 1605 H 144.277 -0.083349 0.736297 0
M  V30 1606 H 146.924 0.494677 1.85001 0
M  V30 1607 H 145.229 -1.37185 3.66998 0
M  V30 1608 H 146.926 -1.03756 3.87344 0
M  V30 1609 H 143.516 0.339437 4.27254 0
M  V30 1610 H 147.7 1.14729 4.82857 0
M  V30 1611 H 142.956 2.28075 5.67267 0
M  V30 1612 H 147.13 3.08716 6.24234 0
M  V30 1613 H 144.757 3.65979 6.66306 0
M  V30 1614 N 146.332 -1.57332 0.0918853 0
M  V30 1615 C 147.262 -2.16872 -0.865371 0
M  V30 1616 C 148.243 -1.10118 -1.29646 0
M  V30 1617 O 149.428 -1.38242 -1.36392 0
M  V30 1618 C 146.558 -2.74649 -2.12569 0
M  V30 1619 C 145.512 -3.86747 -1.83333 0
M  V30 1620 C 144.838 -4.31212 -3.16166 0
M  V30 1621 C 146.138 -5.10089 -1.1228 0
M  V30 1622 H 147.832 -2.97114 -0.369307 0
M  V30 1623 H 145.378 -1.42918 -0.176194 0
M  V30 1624 H 147.331 -3.14952 -2.7997 0
M  V30 1625 H 146.055 -1.91657 -2.64452 0
M  V30 1626 H 144.714 -3.46978 -1.18331 0
M  V30 1627 H 144.362 -3.45115 -3.6593 0
M  V30 1628 H 144.062 -5.06788 -2.97388 0
M  V30 1629 H 145.586 -4.74146 -3.84731 0
M  V30 1630 H 147 -5.47582 -1.69785 0
M  V30 1631 H 145.397 -5.91073 -1.03693 0
M  V30 1632 H 146.467 -4.84786 -0.105041 0
M  V30 1633 N 147.81 0.181792 -1.56548 0
M  V30 1634 C 149.035 0.920019 -1.85877 0
M  V30 1635 C 149.46 1.75494 -0.677021 0
M  V30 1636 O 148.818 1.77399 0.374056 0
M  V30 1637 C 148.866 1.78112 -3.13542 0
M  V30 1638 O 147.97 2.88152 -2.95029 0
M  V30 1639 H 147.311 0.258334 -0.611686 0
M  V30 1640 H 149.841 0.183092 -2.03779 0
M  V30 1641 H 149.851 2.18314 -3.44678 0
M  V30 1642 H 148.526 1.16777 -3.99169 0
M  V30 1643 H 147.103 2.51609 -2.75222 0
M  V30 1644 N 149.288 1.51039 0.449983 0
M  V30 1645 C 150.218 1.74379 1.55288 0
M  V30 1646 C 151.199 0.593236 1.5942 0
M  V30 1647 O 152.384 0.834625 1.7535 0
M  V30 1648 C 149.514 1.85728 2.93466 0
M  V30 1649 C 148.468 3.01078 3.04197 0
M  V30 1650 C 147.794 2.97595 4.44231 0
M  V30 1651 C 149.094 4.41254 2.7945 0
M  V30 1652 H 150.788 2.66725 1.36008 0
M  V30 1653 H 148.334 1.2835 0.652864 0
M  V30 1654 H 150.287 2.0064 3.70569 0
M  V30 1655 H 149.011 0.900207 3.13949 0
M  V30 1656 H 147.67 2.85851 2.29531 0
M  V30 1657 H 147.318 1.99691 4.61663 0
M  V30 1658 H 147.018 3.75046 4.52343 0
M  V30 1659 H 148.542 3.14583 5.23326 0
M  V30 1660 H 149.956 4.56897 3.46292 0
M  V30 1661 H 148.353 5.20315 2.98985 0
M  V30 1662 H 149.423 4.52164 1.75144 0
M  V30 1663 N 150.766 -0.704594 1.40972 0
M  V30 1664 C 151.699 -1.82861 1.36518 0
M  V30 1665 C 152.677 -1.6091 0.23382 0
M  V30 1666 O 153.861 -1.83778 0.419271 0
M  V30 1667 C 150.988 -3.1939 1.12729 0
M  V30 1668 C 150.034 -3.60148 2.28463 0
M  V30 1669 S 150.867 -3.65994 3.90907 0
M  V30 1670 C 152.023 -5.05264 3.69403 0
M  V30 1671 H 152.256 -1.86361 2.3164 0
M  V30 1672 H 149.789 -0.872439 1.27389 0
M  V30 1673 H 151.747 -3.98211 0.996893 0
M  V30 1674 H 150.408 -3.1351 0.192427 0
M  V30 1675 H 149.601 -4.59309 2.07489 0
M  V30 1676 H 149.203 -2.88612 2.37863 0
M  V30 1677 H 151.495 -5.92504 3.28551 0
M  V30 1678 H 152.438 -5.31278 4.68134 0
M  V30 1679 H 152.846 -4.76377 3.02862 0
M  V30 1680 N 152.244 -1.26651 -0.937939 0
M  V30 1681 C 153.472 -1.15173 -1.7188 0
M  V30 1682 C 153.887 0.292668 -1.86518 0
M  V30 1683 O 153.244 1.20014 -1.37488 0
M  V30 1684 C 153.295 -1.81925 -3.12387 0
M  V30 1685 O 153.016 -3.2072 -2.98446 0
M  V30 1686 C 154.517 -1.76442 -4.06673 0
M  V30 1687 H 151.737 -0.400911 -0.538063 0
M  V30 1688 H 154.281 -1.67332 -1.1756 0
M  V30 1689 H 152.436 -1.33696 -3.63599 0
M  V30 1690 H 152.85 -3.53802 -3.872 0
M  V30 1691 H 154.324 -2.27781 -5.02812 0
M  V30 1692 H 154.801 -0.731608 -4.33064 0
M  V30 1693 H 155.407 -2.24238 -3.61382 0
M  V30 1694 N 153.722 1.14298 -1.08507 0
M  V30 1695 C 155.133 1.66926 -0.836227 0
M  V30 1696 C 155.484 1.85576 0.63686 0
M  V30 1697 O 154.609 1.56767 1.49175 0
M  V30 1698 C 155.204 3.03219 -1.51142 0
M  V30 1699 C 153.763 3.52876 -1.30979 0
M  V30 1700 C 152.91 2.2833 -1.57356 0
M  V30 1701 H 155.861 0.983491 -1.24552 0
M  V30 1702 H 155.882 3.68726 -0.939211 0
M  V30 1703 H 155.394 2.89612 -2.58353 0
M  V30 1704 H 153.495 3.71703 -0.258429 0
M  V30 1705 H 153.608 4.33586 -2.03814 0
M  V30 1706 H 151.972 2.34454 -0.995164 0
M  V30 1707 H 152.755 2.17298 -2.65775 0
M  V30 1708 N 155.201 0.870884 1.31352 0
M  V30 1709 C 156.612 0.534714 1.78879 0
M  V30 1710 C 156.963 -0.948423 1.71754 0
M  V30 1711 O 156.088 -1.74055 1.28584 0
M  V30 1712 C 156.683 0.963839 3.24801 0
M  V30 1713 C 155.242 0.679311 3.70219 0
M  V30 1714 C 154.389 1.15465 2.52117 0
M  V30 1715 H 157.34 1.05651 1.18421 0
M  V30 1716 H 157.361 0.286892 3.79417 0
M  V30 1717 H 156.873 2.04332 3.29955 0
M  V30 1718 H 154.974 -0.388769 3.70566 0
M  V30 1719 H 155.087 1.25698 4.62317 0
M  V30 1720 H 153.451 0.574383 2.48139 0
M  V30 1721 H 154.234 2.24157 2.60016 0
M  V30 1722 N 156.679 -1.44442 0.630414 0
M  V30 1723 C 157.629 -2.27794 -0.0968103 0
M  V30 1724 C 158.613 -1.38624 -0.816834 0
M  V30 1725 O 159.805 -1.62438 -0.70306 0
M  V30 1726 C 156.934 -3.25929 -1.07819 0
M  V30 1727 C 156.02 -4.22588 -0.357826 0
M  V30 1728 N 156.411 -5.0207 0.613169 0
M  V30 1729 C 154.709 -4.41914 -0.602365 0
M  V30 1730 C 155.41 -5.72351 1.03871 0
M  V30 1731 N 154.386 -5.42287 0.377642 0
M  V30 1732 H 158.188 -2.86653 0.648621 0
M  V30 1733 H 155.702 -1.55871 0.455862 0
M  V30 1734 H 157.699 -3.84399 -1.61378 0
M  V30 1735 H 156.359 -2.68631 -1.82393 0
M  V30 1736 H 157.37 -5.08331 0.990947 0
M  V30 1737 H 154.047 -3.95714 -1.33103 0
M  V30 1738 H 155.437 -6.4619 1.84086 0
M  V30 1739 N 158.157 -0.370918 -1.53173 0
M  V30 1740 C 159.089 0.507823 -2.23503 0
M  V30 1741 C 160.102 1.04182 -1.251 0
M  V30 1742 O 161.291 0.947286 -1.5129 0
M  V30 1743 C 158.391 1.71447 -2.92334 0
M  V30 1744 C 157.564 1.31105 -4.17289 0
M  V30 1745 C 156.623 2.38035 -4.69282 0
M  V30 1746 O 155.649 2.00204 -5.32829 0
M  V30 1747 N 156.851 3.69697 -4.47554 0
M  V30 1748 H 159.616 -0.0946382 -2.99551 0
M  V30 1749 H 157.177 -0.196358 -1.60705 0
M  V30 1750 H 159.169 2.42469 -3.24023 0
M  V30 1751 H 157.739 2.22368 -2.19707 0
M  V30 1752 H 156.959 0.430462 -3.91843 0
M  V30 1753 H 158.247 1.0179 -4.98514 0
M  V30 1754 H 157.645 4.03205 -3.9679 0
M  V30 1755 H 156.202 4.36807 -4.8378 0
M  V30 1756 N 159.635 1.57281 -0.100228 0
M  V30 1757 C 160.582 2.14305 0.856858 0
M  V30 1758 C 161.552 1.06296 1.27634 0
M  V30 1759 O 162.737 1.34109 1.35718 0
M  V30 1760 C 159.877 2.73184 2.10866 0
M  V30 1761 C 158.99 3.95442 1.73925 0
M  V30 1762 C 158.125 4.42468 2.93931 0
M  V30 1763 C 157.164 5.57303 2.5314 0
M  V30 1764 N 156.301 5.99158 3.65997 0
M  V30 1765 H 161.141 2.95772 0.363726 0
M  V30 1766 H 158.678 1.46139 0.167858 0
M  V30 1767 H 160.636 3.05442 2.84185 0
M  V30 1768 H 159.266 1.94437 2.57671 0
M  V30 1769 H 158.318 3.69464 0.905554 0
M  V30 1770 H 159.63 4.78769 1.39935 0
M  V30 1771 H 158.784 4.76537 3.75496 0
M  V30 1772 H 157.523 3.58052 3.31134 0
M  V30 1773 H 156.528 5.22857 1.70003 0
M  V30 1774 H 157.753 6.43471 2.17075 0
M  V30 1775 H 155.699 5.17687 4.02909 0
M  V30 1776 H 155.616 6.77295 3.35869 0
M  V30 1777 H 156.884 6.3786 4.48057 0
M  V30 1778 N 161.113 -0.173488 1.56642 0
M  V30 1779 C 162.529 -0.525174 1.50712 0
M  V30 1780 C 162.729 -1.8476 0.804107 0
M  V30 1781 O 161.785 -2.49869 0.363574 0
M  V30 1782 C 163.098 -0.559937 2.95441 0
M  V30 1783 C 164.646 -0.647288 3.06234 0
M  V30 1784 C 165.121 -0.712963 4.52417 0
M  V30 1785 N 166.612 -0.775911 4.56655 0
M  V30 1786 C 167.347 -0.847264 5.67106 0
M  V30 1787 N 166.843 -0.879585 6.87194 0
M  V30 1788 N 168.636 -0.886117 5.55071 0
M  V30 1789 H 160.787 0.693681 2.00753 0
M  V30 1790 H 163.05 0.249841 0.914485 0
M  V30 1791 H 162.756 0.343049 3.50023 0
M  V30 1792 H 162.63 -1.40718 3.49969 0
M  V30 1793 H 165.017 -1.5407 2.51687 0
M  V30 1794 H 165.098 0.226586 2.54794 0
M  V30 1795 H 164.742 0.176183 5.07594 0
M  V30 1796 H 164.672 -1.60295 5.0161 0
M  V30 1797 H 167.163 -0.759304 3.70193 0
M  V30 1798 H 167.476 -0.935144 7.67121 0
M  V30 1799 H 165.821 -0.847898 6.89808 0
M  V30 1800 H 169.012 -0.857853 4.60172 0
M  V30 1801 H 169.185 -0.938263 6.41171 0
M  V30 1802 N 162.591 -1.51276 -0.441967 0
M  V30 1803 C 163.521 -1.752 -1.54361 0
M  V30 1804 C 164.502 -0.601682 -1.59103 0
M  V30 1805 O 165.687 -0.843913 -1.74905 0
M  V30 1806 C 162.817 -1.87282 -2.92477 0
M  V30 1807 C 161.771 -3.02687 -3.02596 0
M  V30 1808 C 161.097 -2.99947 -4.42647 0
M  V30 1809 C 162.397 -4.4273 -2.77106 0
M  V30 1810 H 164.091 -2.67442 -1.34592 0
M  V30 1811 H 161.637 -1.28694 -0.646048 0
M  V30 1812 H 163.59 -2.02602 -3.695 0
M  V30 1813 H 162.314 -0.916844 -3.13467 0
M  V30 1814 H 160.973 -2.87065 -2.28012 0
M  V30 1815 H 160.621 -2.02136 -4.60597 0
M  V30 1816 H 160.321 -3.77439 -4.50348 0
M  V30 1817 H 161.845 -3.17354 -5.2165 0
M  V30 1818 H 163.259 -4.58727 -3.43864 0
M  V30 1819 H 161.656 -5.21893 -2.96222 0
M  V30 1820 H 162.726 -4.53087 -1.72744 0
M  V30 1821 N 164.069 0.697108 -1.41344 0
M  V30 1822 C 165.032 1.79281 -1.42797 0
M  V30 1823 C 166.032 1.57607 -0.318837 0
M  V30 1824 O 167.222 1.64309 -0.578642 0
M  V30 1825 C 164.354 3.17632 -1.23785 0
M  V30 1826 H 165.547 1.79385 -2.40335 0
M  V30 1827 H 163.1 0.904582 -1.27464 0
M  V30 1828 H 163.835 3.23167 -0.270814 0
M  V30 1829 H 163.62 3.34765 -2.04144 0
M  V30 1830 H 165.11 3.97617 -1.27633 0
M  V30 1831 N 165.547 1.27147 0.931209 0
M  V30 1832 C 166.457 1.11372 2.06478 0
M  V30 1833 C 167.473 0.044645 1.73943 0
M  V30 1834 O 168.649 0.250417 1.99837 0
M  V30 1835 C 165.714 0.758838 3.38294 0
M  V30 1836 C 164.775 1.90841 3.84549 0
M  V30 1837 C 164.008 1.57036 5.10074 0
M  V30 1838 O 164.231 0.476645 5.68405 0
M  V30 1839 O 163.165 2.40839 5.51616 0
M  V30 1840 H 166.991 2.06493 2.22698 0
M  V30 1841 H 164.576 1.06301 1.04978 0
M  V30 1842 H 166.458 0.574098 4.17471 0
M  V30 1843 H 165.133 -0.162879 3.2329 0
M  V30 1844 H 164.04 2.14819 3.06274 0
M  V30 1845 H 165.373 2.81021 4.04089 0
M  V30 1846 N 167.025 -1.13721 1.09112 0
M  V30 1847 C 167.955 -2.21148 0.749385 0
M  V30 1848 C 168.936 -1.6792 -0.271475 0
M  V30 1849 O 170.121 -1.93693 -0.140251 0
M  V30 1850 C 167.251 -3.46905 0.165659 0
M  V30 1851 C 166.205 -4.13203 1.11567 0
M  V30 1852 C 165.531 -5.33248 0.393809 0
M  V30 1853 C 166.831 -4.60912 2.45678 0
M  V30 1854 H 168.525 -2.4999 1.64758 0
M  V30 1855 H 166.071 -1.20156 0.793626 0
M  V30 1856 H 168.024 -4.21313 -0.085466 0
M  V30 1857 H 166.748 -3.17449 -0.767714 0
M  V30 1858 H 165.407 -3.40758 1.35202 0
M  V30 1859 H 165.055 -5.00054 -0.543599 0
M  V30 1860 H 164.755 -5.78552 1.02721 0
M  V30 1861 H 166.279 -6.10413 0.150908 0
M  V30 1862 H 167.693 -5.26759 2.26269 0
M  V30 1863 H 166.09 -5.16944 3.04776 0
M  V30 1864 H 167.16 -3.75603 3.06677 0
M  V30 1865 N 168.503 -0.877838 -1.30888 0
M  V30 1866 C 169.436 -0.283995 -2.26426 0
M  V30 1867 C 170.414 0.591361 -1.51465 0
M  V30 1868 O 171.598 0.54304 -1.80509 0
M  V30 1869 C 168.725 0.597129 -3.33395 0
M  V30 1870 C 167.771 -0.207937 -4.25993 0
M  V30 1871 S 168.604 -1.59158 -5.11301 0
M  V30 1872 C 169.76 -0.716791 -6.21782 0
M  V30 1873 H 169.993 -1.09383 -2.76446 0
M  V30 1874 H 167.526 -0.676828 -1.38775 0
M  V30 1875 H 169.484 1.09978 -3.95493 0
M  V30 1876 H 168.145 1.38099 -2.82113 0
M  V30 1877 H 167.338 0.464163 -5.01858 0
M  V30 1878 H 166.94 -0.642963 -3.68432 0
M  V30 1879 H 169.232 0.0692833 -6.77465 0
M  V30 1880 H 170.175 -1.44682 -6.93161 0
M  V30 1881 H 170.583 -0.280855 -5.63801 0
M  V30 1882 N 169.982 1.44106 -0.638065 0
M  V30 1883 C 171.21 2.06336 -0.152615 0
M  V30 1884 C 171.625 1.47731 1.17563 0
M  V30 1885 O 170.982 0.602806 1.72257 0
M  V30 1886 C 171.033 3.61479 -0.0391491 0
M  V30 1887 O 170.754 4.17903 -1.31487 0
M  V30 1888 C 172.255 4.40757 0.474176 0
M  V30 1889 H 169.475 0.665862 -0.0828776 0
M  V30 1890 H 172.019 1.84862 -0.87443 0
M  V30 1891 H 170.174 3.82191 0.633142 0
M  V30 1892 H 170.588 5.11416 -1.16421 0
M  V30 1893 H 172.062 5.49707 0.502562 0
M  V30 1894 H 172.539 4.12697 1.50258 0
M  V30 1895 H 173.145 4.24979 -0.165102 0
M  V30 1896 N 171.46 0.379036 1.52974 0
M  V30 1897 C 172.37 -0.468639 2.29872 0
M  V30 1898 C 173.386 -1.08067 1.36373 0
M  V30 1899 O 174.562 -1.08871 1.69438 0
M  V30 1900 C 171.627 -1.58594 3.083 0
M  V30 1901 C 170.688 -1.00007 4.17489 0
M  V30 1902 C 169.921 -2.06413 4.92168 0
M  V30 1903 O 170.144 -3.27751 4.66835 0
M  V30 1904 O 169.078 -1.68717 5.7777 0
M  V30 1905 H 172.904 0.157508 3.03291 0
M  V30 1906 H 170.489 0.143035 1.48714 0
M  V30 1907 H 172.371 -2.23525 3.57232 0
M  V30 1908 H 171.046 -2.19724 2.37703 0
M  V30 1909 H 169.953 -0.314299 3.72777 0
M  V30 1910 H 171.286 -0.433135 4.90291 0
M  V30 1911 N 172.938 -1.57226 0.108567 0
M  V30 1912 C 173.848 -2.18292 -0.859401 0
M  V30 1913 C 174.864 -1.15612 -1.30038 0
M  V30 1914 O 176.04 -1.48039 -1.36552 0
M  V30 1915 C 173.105 -2.762 -2.09558 0
M  V30 1916 C 172.166 -3.93881 -1.70752 0
M  V30 1917 C 171.399 -4.49018 -2.88477 0
M  V30 1918 O 171.622 -4.03068 -4.036 0
M  V30 1919 O 170.556 -5.39852 -2.66164 0
M  V30 1920 H 174.382 -3.01441 -0.369769 0
M  V30 1921 H 171.967 -1.48945 -0.1165 0
M  V30 1922 H 173.849 -3.13156 -2.81978 0
M  V30 1923 H 172.524 -1.96089 -2.57548 0
M  V30 1924 H 171.431 -3.61713 -0.954714 0
M  V30 1925 H 172.764 -4.75396 -1.27513 0
M  V30 1926 N 174.416 0.165178 -1.56732 0
M  V30 1927 C 175.662 0.877389 -1.83503 0
M  V30 1928 C 176.017 1.79602 -0.689996 0
M  V30 1929 O 175.31 1.89023 0.313205 0
M  V30 1930 C 175.504 1.70405 -3.1416 0
M  V30 1931 C 175.333 0.866961 -4.41264 0
M  V30 1932 C 174.103 0.539646 -5.0241 0
M  V30 1933 C 176.301 0.205671 -5.13889 0
M  V30 1934 N 174.283 -0.312946 -6.13102 0
M  V30 1935 C 175.654 -0.507823 -6.17917 0
M  V30 1936 C 177.709 0.124468 -4.97744 0
M  V30 1937 C 176.412 -1.29483 -7.0755 0
M  V30 1938 C 178.438 -0.649222 -5.87826 0
M  V30 1939 C 177.8 -1.35106 -6.91322 0
M  V30 1940 H 173.899 0.299477 -0.722383 0
M  V30 1941 H 176.483 0.143949 -1.94167 0
M  V30 1942 H 174.654 2.40887 -3.04677 0
M  V30 1943 H 176.386 2.35804 -3.28905 0
M  V30 1944 H 173.141 0.871176 -4.65519 0
M  V30 1945 H 173.565 -0.729731 -6.73056 0
M  V30 1946 H 178.207 0.652724 -4.17731 0
M  V30 1947 H 175.925 -1.83441 -7.87004 0
M  V30 1948 H 179.511 -0.713804 -5.77405 0
M  V30 1949 H 178.391 -1.94013 -7.59821 0
M  V30 1950 N 175.894 1.51508 0.433938 0
M  V30 1951 C 176.841 1.73068 1.52696 0
M  V30 1952 C 177.811 0.572441 1.55924 0
M  V30 1953 O 178.996 0.807253 1.72882 0
M  V30 1954 C 176.136 1.86474 2.90381 0
M  V30 1955 C 175.249 3.14037 2.96656 0
M  V30 1956 C 174.384 3.18019 4.25485 0
M  V30 1957 C 173.423 4.39882 4.2564 0
M  V30 1958 N 172.56 4.41394 5.45999 0
M  V30 1959 H 177.4 2.66366 1.33615 0
M  V30 1960 H 174.937 1.32008 0.649018 0
M  V30 1961 H 176.895 1.92229 3.70275 0
M  V30 1962 H 175.525 0.965809 3.08013 0
M  V30 1963 H 174.577 3.17575 2.09404 0
M  V30 1964 H 175.889 4.0394 2.92633 0
M  V30 1965 H 175.043 3.22708 5.13755 0
M  V30 1966 H 173.782 2.2601 4.3217 0
M  V30 1967 H 172.787 4.35366 3.35763 0
M  V30 1968 H 174.012 5.33159 4.20617 0
M  V30 1969 H 171.958 3.52258 5.53399 0
M  V30 1970 H 171.875 5.25111 5.4387 0
M  V30 1971 H 173.143 4.50281 6.36292 0
M  V30 1972 N 177.372 -0.689602 1.41712 0
M  V30 1973 C 178.335 -1.78521 1.43746 0
M  V30 1974 C 179.335 -1.57436 0.327191 0
M  V30 1975 O 180.525 -1.64 0.587348 0
M  V30 1976 C 177.657 -3.16971 1.25467 0
M  V30 1977 H 178.85 -1.78108 2.41283 0
M  V30 1978 H 176.403 -0.89781 1.27942 0
M  V30 1979 H 177.138 -3.23019 0.287948 0
M  V30 1980 H 176.923 -3.33678 2.05917 0
M  V30 1981 H 178.413 -3.96935 1.2974 0
M  V30 1982 N 178.85 -1.27639 -0.924453 0
M  V30 1983 C 179.813 -1.10681 -2.00705 0
M  V30 1984 C 180.813 -0.0497823 -1.60723 0
M  V30 1985 O 182.003 -0.294654 -1.7169 0
M  V30 1986 C 179.135 -0.687164 -3.33902 0
M  V30 1987 H 180.328 -2.06817 -2.17179 0
M  V30 1988 H 177.881 -1.10473 -1.10569 0
M  V30 1989 H 178.616 0.275439 -3.23128 0
M  V30 1990 H 178.401 -1.45061 -3.6428 0
M  V30 1991 H 179.891 -0.590853 -4.13399 0
M  V30 1992 N 180.328 1.1314 -1.09713 0
M  V30 1993 C 181.574 1.84757 -0.836224 0
M  V30 1994 C 181.907 1.8347 0.636598 0
M  V30 1995 O 181.182 1.27491 1.46889 0
M  V30 1996 C 181.465 3.32782 -1.37578 0
M  V30 1997 C 181.318 3.42567 -2.91493 0
M  V30 1998 C 182.637 4.28307 -1.01198 0
M  V30 1999 H 179.756 0.67082 -0.305236 0
M  V30 2000 H 182.398 1.3278 -1.35903 0
M  V30 2001 H 180.548 3.77177 -0.931097 0
M  V30 2002 H 182.22 3.06862 -3.44432 0
M  V30 2003 H 180.463 2.83349 -3.28475 0
M  V30 2004 H 181.134 4.46674 -3.24324 0
M  V30 2005 H 183.61 3.91999 -1.39556 0
M  V30 2006 H 182.486 5.30307 -1.41653 0
M  V30 2007 H 182.747 4.42029 0.0794833 0
M  V30 2008 N 181.806 0.884767 1.30421 0
M  V30 2009 C 183.034 0.518044 2.0031 0
M  V30 2010 C 183.449 -0.893408 1.66324 0
M  V30 2011 O 182.806 -1.5875 0.900262 0
M  V30 2012 C 182.857 0.682997 3.54989 0
M  V30 2013 O 182.578 2.03888 3.87764 0
M  V30 2014 C 184.079 0.31924 4.42149 0
M  V30 2015 H 181.299 0.200265 0.640418 0
M  V30 2016 H 183.843 1.19001 1.6631 0
M  V30 2017 H 181.998 0.0584052 3.87356 0
M  V30 2018 H 182.412 2.05735 4.82466 0
M  V30 2019 H 183.886 0.485555 5.4986 0
M  V30 2020 H 184.363 -0.742717 4.32875 0
M  V30 2021 H 184.969 0.920147 4.15227 0
M  V30 2022 N 183.284 -1.43765 0.645699 0
M  V30 2023 C 184.7 -1.56509 0.312591 0
M  V30 2024 C 184.9 -1.6307 -1.18365 0
M  V30 2025 O 183.956 -1.58167 -1.96824 0
M  V30 2026 C 185.269 -2.82968 1.01733 0
M  V30 2027 C 186.817 -2.96701 0.996865 0
M  V30 2028 C 187.292 -4.25982 1.68236 0
M  V30 2029 N 188.783 -4.32829 1.64964 0
M  V30 2030 C 189.518 -5.31613 2.14885 0
M  V30 2031 N 189.014 -6.36718 2.73061 0
M  V30 2032 N 190.807 -5.23217 2.05428 0
M  V30 2033 H 182.958 -1.3775 1.61675 0
M  V30 2034 H 185.221 -0.661067 0.679481 0
M  V30 2035 H 184.927 -2.84156 2.0724 0
M  V30 2036 H 184.801 -3.72957 0.564177 0
M  V30 2037 H 187.188 -2.95058 -0.0497719 0
M  V30 2038 H 187.269 -2.08022 1.48865 0
M  V30 2039 H 186.913 -4.28386 2.72852 0
M  V30 2040 H 186.843 -5.13545 1.16529 0
M  V30 2041 H 189.334 -3.57493 1.22503 0
M  V30 2042 H 189.647 -7.08401 3.08848 0
M  V30 2043 H 187.992 -6.37362 2.77118 0
M  V30 2044 H 191.183 -4.40019 1.59689 0
M  V30 2045 H 191.356 -6.00045 2.44643 0
M  V30 2046 N 184.763 -0.387143 -1.52771 0
M  V30 2047 C 186.009 0.188506 -2.02525 0
M  V30 2048 C 186.364 1.44649 -1.26864 0
M  V30 2049 O 185.657 1.88189 -0.359945 0
M  V30 2050 C 185.851 0.512209 -3.53711 0
M  V30 2051 C 185.68 -0.712855 -4.44014 0
M  V30 2052 C 184.45 -1.23147 -4.90064 0
M  V30 2053 C 186.648 -1.58453 -4.89282 0
M  V30 2054 N 184.63 -2.41431 -5.64433 0
M  V30 2055 C 186.001 -2.61381 -5.6221 0
M  V30 2056 C 188.056 -1.60488 -4.71326 0
M  V30 2057 C 186.759 -3.66227 -6.19088 0
M  V30 2058 C 188.785 -2.6424 -5.29085 0
M  V30 2059 C 188.147 -3.6589 -6.01917 0
M  V30 2060 H 184.246 0.0311236 -0.78138 0
M  V30 2061 H 186.83 -0.536548 -1.87161 0
M  V30 2062 H 185.001 1.20632 -3.69192 0
M  V30 2063 H 186.733 1.07482 -3.90166 0
M  V30 2064 H 183.488 -0.792795 -4.66917 0
M  V30 2065 H 183.912 -3.01274 -6.0627 0
M  V30 2066 H 188.554 -0.83247 -4.14524 0
M  V30 2067 H 186.272 -4.44337 -6.74974 0
M  V30 2068 H 189.858 -2.66695 -5.17074 0
M  V30 2069 H 188.738 -4.44855 -6.45813 0
M  V30 2070 N 186.241 1.57166 -0.116904 0
M  V30 2071 C 187.151 2.18745 0.847812 0
M  V30 2072 C 188.167 1.163 1.29423 0
M  V30 2073 O 189.343 1.48761 1.35765 0
M  V30 2074 C 186.408 2.77307 2.0809 0
M  V30 2075 C 185.469 3.94781 1.68661 0
M  V30 2076 C 184.702 4.50541 2.86091 0
M  V30 2077 O 184.925 4.05202 4.01456 0
M  V30 2078 O 183.859 5.41256 2.63298 0
M  V30 2079 H 187.685 3.01632 0.353778 0
M  V30 2080 H 185.27 1.49005 0.108599 0
M  V30 2081 H 187.152 3.14647 2.80313 0
M  V30 2082 H 185.827 1.97452 2.56504 0
M  V30 2083 H 184.734 3.62214 0.935518 0
M  V30 2084 H 186.067 4.76065 1.24991 0
M  V30 2085 N 187.719 -0.156864 1.56817 0
M  V30 2086 C 188.666 -1.19394 1.97519 0
M  V30 2087 C 189.636 -1.4322 0.841265 0
M  V30 2088 O 190.821 -1.55719 1.10255 0
M  V30 2089 C 187.961 -2.52483 2.35258 0
M  V30 2090 C 187.074 -2.35914 3.61896 0
M  V30 2091 C 186.209 -3.61969 3.88782 0
M  V30 2092 C 185.248 -3.40395 5.08722 0
M  V30 2093 N 184.385 -4.58556 5.31668 0
M  V30 2094 H 189.225 -0.839845 2.85921 0
M  V30 2095 H 186.762 -0.403264 1.41464 0
M  V30 2096 H 188.72 -3.30071 2.55165 0
M  V30 2097 H 187.35 -2.85859 1.49949 0
M  V30 2098 H 186.402 -1.49429 3.49821 0
M  V30 2099 H 187.714 -2.15926 4.49641 0
M  V30 2100 H 186.868 -4.47989 4.09135 0
M  V30 2101 H 185.607 -3.84951 2.9944 0
M  V30 2102 H 184.612 -2.52763 4.88253 0
M  V30 2103 H 185.837 -3.18822 5.99608 0
M  V30 2104 H 183.783 -4.81729 4.45279 0
M  V30 2105 H 183.7 -4.41535 6.13664 0
M  V30 2106 H 184.968 -5.45817 5.5651 0
M  V30 2107 N 189.197 -1.51736 -0.425897 0
M  V30 2108 C 190.16 -1.73271 -1.50032 0
M  V30 2109 C 191.16 -0.602639 -1.4908 0
M  V30 2110 O 192.35 -0.87033 -1.509 0
M  V30 2111 C 189.482 -1.79969 -2.89523 0
M  V30 2112 H 190.675 -2.69172 -1.32237 0
M  V30 2113 H 188.228 -1.41899 -0.65532 0
M  V30 2114 H 188.963 -0.859241 -3.1271 0
M  V30 2115 H 188.748 -2.62109 -2.91619 0
M  V30 2116 H 190.238 -1.9843 -3.67444 0
M  V30 2117 N 190.675 0.682077 -1.42076 0
M  V30 2118 C 191.952 1.43755 -1.32642 0
M  V30 2119 C 192.332 2.11063 0.0396611 0
M  V30 2120 O 191.68 2.02701 1.05474 0
M  V30 2121 C 191.89 2.44596 -2.48946 0
M  V30 2122 C 193.238 3.09454 -2.9073 0
M  V30 2123 O 194.262 2.54922 -2.48783 0
M  V30 2124 O 193.121 4.08253 -3.63307 0
M  V30 2125 H 190.215 0.640857 -0.522715 0
M  V30 2126 H 192.761 0.711415 -1.54068 0
M  V30 2127 H 191.533 1.93609 -3.40046 0
M  V30 2128 H 191.156 3.24701 -2.29467 0
M  V30 2129 N 192.153 1.28127 0.917671 0
M  V30 2130 C 193.063 1.13556 2.05286 0
M  V30 2131 C 194.079 0.0630914 1.73886 0
M  V30 2132 O 195.255 0.271598 1.9956 0
M  V30 2133 C 192.32 0.794676 3.3747 0
M  V30 2134 C 191.381 1.94909 3.82504 0
M  V30 2135 C 190.614 1.62437 5.0838 0
M  V30 2136 O 190.837 0.536905 5.67867 0
M  V30 2137 O 189.771 2.46677 5.4903 0
M  V30 2138 H 193.597 2.08844 2.20495 0
M  V30 2139 H 191.182 1.07409 1.03845 0
M  V30 2140 H 193.064 0.618344 4.16839 0
M  V30 2141 H 191.739 -0.128581 3.23445 0
M  V30 2142 H 190.646 2.18055 3.03978 0
M  V30 2143 H 191.979 2.85291 4.01086 0
M  V30 2144 N 193.631 -1.12557 1.10312 0
M  V30 2145 C 194.877 -1.84311 0.846011 0
M  V30 2146 C 195.21 -1.83805 -0.626859 0
M  V30 2147 O 194.485 -1.28268 -1.46211 0
M  V30 2148 C 194.768 -3.32048 1.39341 0
M  V30 2149 C 194.621 -3.41016 2.93305 0
M  V30 2150 C 195.94 -4.27764 1.03468 0
M  V30 2151 H 193.059 -0.669192 0.30879 0
M  V30 2152 H 195.701 -1.32057 1.36605 0
M  V30 2153 H 193.851 -3.76678 0.951087 0
M  V30 2154 H 195.523 -3.05031 3.46055 0
M  V30 2155 H 193.766 -2.81603 3.29973 0
M  V30 2156 H 194.437 -4.44948 3.26689 0
M  V30 2157 H 196.913 -3.91253 1.41633 0
M  V30 2158 H 195.789 -5.29549 1.44463 0
M  V30 2159 H 196.05 -4.42064 -0.0560404 0
M  V30 2160 N 195.109 -0.891671 -1.2995 0
M  V30 2161 C 196.355 -0.514261 -1.96171 0
M  V30 2162 C 196.688 0.935506 -1.70182 0
M  V30 2163 O 195.963 1.66204 -1.01028 0
M  V30 2164 C 196.246 -0.797719 -3.51153 0
M  V30 2165 C 196.099 -2.2986 -3.86632 0
M  V30 2166 C 197.418 -0.278749 -4.39216 0
M  V30 2167 H 194.537 -0.188314 -0.712535 0
M  V30 2168 H 197.179 -1.11689 -1.53706 0
M  V30 2169 H 195.329 -0.284826 -3.87455 0
M  V30 2170 H 197.001 -2.88042 -3.60319 0
M  V30 2171 H 195.244 -2.76257 -3.34462 0
M  V30 2172 H 195.915 -2.44753 -4.94773 0
M  V30 2173 H 198.391 -0.717825 -4.09862 0
M  V30 2174 H 197.267 -0.506353 -5.46559 0
M  V30 2175 H 197.528 0.820266 -4.34424 0
M  V30 2176 N 196.587 1.43421 -0.653314 0
M  V30 2177 C 197.517 2.33487 0.0246656 0
M  V30 2178 C 198.498 1.49475 0.811863 0
M  V30 2179 O 199.683 1.78139 0.773322 0
M  V30 2180 C 196.813 3.32841 0.99166 0
M  V30 2181 C 195.767 4.26842 0.314568 0
M  V30 2182 C 195.093 5.16236 1.39302 0
M  V30 2183 C 196.393 5.16243 -0.793095 0
M  V30 2184 H 198.087 2.90427 -0.727481 0
M  V30 2185 H 195.633 1.39649 -0.351287 0
M  V30 2186 H 197.586 3.94747 1.47487 0
M  V30 2187 H 196.31 2.74158 1.77497 0
M  V30 2188 H 194.969 3.663 -0.148199 0
M  V30 2189 H 194.617 4.53891 2.16776 0
M  V30 2190 H 194.317 5.79948 0.945223 0
M  V30 2191 H 195.841 5.81015 1.87759 0
M  V30 2192 H 197.255 5.71958 -0.392039 0
M  V30 2193 H 195.652 5.88676 -1.16536 0
M  V30 2194 H 196.722 4.55927 -1.65103 0
M  V30 2195 N 198.065 0.39524 1.52563 0
M  V30 2196 C 199.312 -0.185044 2.01653 0
M  V30 2197 C 199.64 -1.46317 1.28146 0
M  V30 2198 O 198.895 -1.9213 0.372074 0
M  V30 2199 C 199.194 -0.493444 3.53977 0
M  V30 2200 C 198.86 0.69384 4.4553 0
M  V30 2201 C 197.522 1.01954 4.70275 0
M  V30 2202 C 199.874 1.48785 4.99512 0
M  V30 2203 C 197.202 2.14069 5.46252 0
M  V30 2204 C 199.554 2.59965 5.76716 0
M  V30 2205 C 198.218 2.93037 5.99738 0
M  V30 2206 H 197.488 -0.0677123 0.7379 0
M  V30 2207 H 200.135 0.533807 1.8391 0
M  V30 2208 H 198.44 -1.29369 3.69825 0
M  V30 2209 H 200.137 -0.955163 3.89458 0
M  V30 2210 H 196.727 0.429987 4.26438 0
M  V30 2211 H 200.911 1.24946 4.80315 0
M  V30 2212 H 196.167 2.40056 5.62302 0
M  V30 2213 H 200.341 3.21887 6.17545 0
M  V30 2214 H 197.968 3.8003 6.58393 0
M  V30 2215 N 199.544 -1.57102 0.125237 0
M  V30 2216 C 200.454 -2.19191 -0.8362 0
M  V30 2217 C 201.47 -1.16985 -1.28805 0
M  V30 2218 O 202.646 -1.49479 -1.34974 0
M  V30 2219 C 199.711 -2.78407 -2.06617 0
M  V30 2220 C 198.772 -3.9567 -1.66565 0
M  V30 2221 C 198.005 -4.52052 -2.83698 0
M  V30 2222 O 198.228 -4.07326 -3.99302 0
M  V30 2223 O 197.162 -5.42645 -2.60423 0
M  V30 2224 H 200.988 -3.01816 -0.337776 0
M  V30 2225 H 198.573 -1.4906 -0.100695 0
M  V30 2226 H 200.455 -3.16129 -2.7864 0
M  V30 2227 H 199.13 -1.9881 -2.55453 0
M  V30 2228 H 198.037 -3.62705 -0.916296 0
M  V30 2229 H 199.37 -4.76722 -1.22464 0
M  V30 2230 N 201.022 0.148545 -1.56898 0
M  V30 2231 C 201.932 1.20293 -2.01412 0
M  V30 2232 C 202.948 1.47107 -0.929273 0
M  V30 2233 O 204.124 1.58807 -1.23863 0
M  V30 2234 C 201.189 2.51682 -2.38447 0
M  V30 2235 C 200.25 2.32529 -3.60872 0
M  V30 2236 C 199.483 3.57653 -3.96132 0
M  V30 2237 O 199.706 4.63771 -3.32073 0
M  V30 2238 O 198.64 3.50408 -4.89385 0
M  V30 2239 H 202.466 0.855025 -2.91416 0
M  V30 2240 H 200.051 0.357151 -1.45068 0
M  V30 2241 H 201.933 3.29147 -2.63135 0
M  V30 2242 H 200.608 2.86006 -1.51599 0
M  V30 2243 H 199.515 1.53019 -3.41373 0
M  V30 2244 H 200.848 2.03121 -4.48333 0
M  V30 2245 N 202.5 1.5196 0.417844 0
M  V30 2246 C 203.463 1.74065 1.49111 0
M  V30 2247 C 204.463 0.610537 1.48758 0
M  V30 2248 O 205.653 0.87832 1.50437 0
M  V30 2249 C 202.785 1.81502 2.88565 0
M  V30 2250 H 203.978 2.69869 1.30807 0
M  V30 2251 H 201.531 1.42244 0.647785 0
M  V30 2252 H 202.266 0.875813 3.1225 0
M  V30 2253 H 202.051 2.63651 2.90225 0
M  V30 2254 H 203.541 2.00376 3.66387 0
M  V30 2255 N 203.978 -0.674533 1.42435 0
M  V30 2256 C 204.925 -1.78807 1.45934 0
M  V30 2257 C 205.895 -1.63157 0.311271 0
M  V30 2258 O 207.08 -1.83707 0.515383 0
M  V30 2259 C 204.22 -3.16839 1.36773 0
M  V30 2260 C 203.333 -3.43774 2.61617 0
M  V30 2261 C 202.468 -4.71536 2.44597 0
M  V30 2262 C 201.507 -4.91505 3.64814 0
M  V30 2263 N 200.644 -6.10508 3.46734 0
M  V30 2264 H 205.484 -1.75151 2.41093 0
M  V30 2265 H 203.021 -0.85504 1.19697 0
M  V30 2266 H 204.979 -3.96606 1.29459 0
M  V30 2267 H 203.609 -3.19619 0.452089 0
M  V30 2268 H 202.661 -2.58259 2.79297 0
M  V30 2269 H 203.973 -3.54423 3.50978 0
M  V30 2270 H 203.127 -5.59393 2.3487 0
M  V30 2271 H 201.866 -4.6317 1.52726 0
M  V30 2272 H 200.871 -4.0209 3.74972 0
M  V30 2273 H 202.096 -5.01716 4.57665 0
M  V30 2274 H 200.042 -6.03315 2.5758 0
M  V30 2275 H 199.959 -6.2202 4.29682 0
M  V30 2276 H 201.227 -7.01044 3.40819 0
M  V30 2277 N 205.456 -1.28612 -0.910864 0
M  V30 2278 C 206.366 -1.14643 -2.0468 0
M  V30 2279 C 207.382 -0.0723121 -1.7385 0
M  V30 2280 O 208.558 -0.282178 -1.99413 0
M  V30 2281 C 205.623 -0.812561 -3.37044 0
M  V30 2282 C 204.684 -1.96935 -3.81465 0
M  V30 2283 C 203.917 -1.65131 -5.07511 0
M  V30 2284 O 204.14 -0.567013 -5.67575 0
M  V30 2285 O 203.074 -2.49585 -5.47714 0
M  V30 2286 H 206.9 -2.1001 -2.19384 0
M  V30 2287 H 204.485 -1.07958 -1.03274 0
M  V30 2288 H 206.367 -0.640441 -4.16505 0
M  V30 2289 H 205.042 0.111426 -3.23508 0
M  V30 2290 H 203.949 -2.19664 -3.02818 0
M  V30 2291 H 205.282 -2.87414 -3.99567 0
M  V30 2292 N 206.934 1.1197 -1.10907 0
M  V30 2293 C 208.183 1.82947 -0.849302 0
M  V30 2294 C 208.496 1.85275 0.627112 0
M  V30 2295 O 209.702 2.52296 1.00295 0
M  V30 2296 C 208.158 3.28529 -1.46959 0
M  V30 2297 C 207.766 3.34546 -2.97965 0
M  V30 2298 C 209.51 4.04443 -1.28942 0
M  V30 2299 C 207.417 4.74491 -3.53004 0
M  V30 2300 H 206.347 0.685477 -0.314065 0
M  V30 2301 H 208.998 1.2604 -1.33365 0
M  V30 2302 H 207.38 3.85333 -0.912917 0
M  V30 2303 H 208.554 2.87654 -3.59989 0
M  V30 2304 H 206.869 2.72108 -3.15192 0
M  V30 2305 H 209.466 5.07787 -1.67502 0
M  V30 2306 H 209.809 4.15656 -0.231456 0
M  V30 2307 H 210.342 3.5401 -1.81443 0
M  V30 2308 H 207.081 4.68474 -4.58489 0
M  V30 2309 H 206.601 5.21816 -2.9575 0
M  V30 2310 H 208.28 5.4344 -3.51115 0
M  V30 2311 N 208.412 0.89855 1.29475 0
M  V30 2312 C 209.342 0.39201 2.30186 0
M  V30 2313 C 210.323 -0.532359 1.61555 0
M  V30 2314 O 211.508 -0.443331 1.89072 0
M  V30 2315 C 208.638 -0.382353 3.45189 0
M  V30 2316 C 207.592 0.451483 4.25612 0
M  V30 2317 C 206.918 -0.450307 5.328 0
M  V30 2318 C 208.218 1.70079 4.93832 0
M  V30 2319 H 209.912 1.23362 2.72804 0
M  V30 2320 H 207.458 0.594638 1.31149 0
M  V30 2321 H 209.411 -0.747451 4.14718 0
M  V30 2322 H 208.135 -1.25774 3.01411 0
M  V30 2323 H 206.794 0.798897 3.57789 0
M  V30 2324 H 206.442 -1.32379 4.85268 0
M  V30 2325 H 206.142 0.103902 5.87508 0
M  V30 2326 H 207.666 -0.811623 6.05182 0
M  V30 2327 H 209.08 1.40549 5.55805 0
M  V30 2328 H 207.477 2.19623 5.58467 0
M  V30 2329 H 208.547 2.43744 4.19186 0
M  V30 2330 N 209.89 -1.43072 0.660911 0
M  V30 2331 C 211.13 -2.03596 0.181146 0
M  V30 2332 C 211.494 -1.51057 -1.18515 0
M  V30 2333 O 212.695 -2.03275 -1.75877 0
M  V30 2334 C 210.966 -3.56845 0.19911 0
M  V30 2335 S 212.525 -4.38289 -0.211684 0
M  V30 2336 H 209.343 -0.706954 0.0757479 0
M  V30 2337 H 211.945 -1.75027 0.870965 0
M  V30 2338 H 210.649 -3.92583 1.1961 0
M  V30 2339 H 210.18 -3.90067 -0.510996 0
M  V30 2340 H 212.195 -4.74583 -1.44863 0
M  V30 2341 N 211.368 -0.403325 -1.52352 0
M  V30 2342 C 212.784 -0.0539281 -1.59509 0
M  V30 2343 C 212.984 1.43307 -1.41652 0
M  V30 2344 O 212.04 2.19924 -1.24056 0
M  V30 2345 C 213.353 -0.543654 -2.95745 0
M  V30 2346 C 214.901 -0.501125 -3.08962 0
M  V30 2347 C 215.376 -0.967267 -4.47669 0
M  V30 2348 N 216.867 -0.923849 -4.53893 0
M  V30 2349 C 217.602 -1.25578 -5.5948 0
M  V30 2350 N 217.098 -1.65889 -6.72646 0
M  V30 2351 N 218.891 -1.17613 -5.49658 0
M  V30 2352 H 211.042 -1.37123 -1.62206 0
M  V30 2353 H 213.305 -0.56294 -0.76276 0
M  V30 2354 H 213.011 -1.58275 -3.14073 0
M  V30 2355 H 212.885 0.0498042 -3.77167 0
M  V30 2356 H 215.272 0.528909 -2.90321 0
M  V30 2357 H 215.353 -1.13056 -2.2946 0
M  V30 2358 H 214.997 -1.9956 -4.67053 0
M  V30 2359 H 214.927 -0.314698 -5.25659 0
M  V30 2360 H 217.418 -0.627403 -3.72655 0
M  V30 2361 H 217.731 -1.89543 -7.49195 0
M  V30 2362 H 216.076 -1.69787 -6.73942 0
M  V30 2363 H 219.267 -0.860115 -4.6013 0
M  V30 2364 H 219.44 -1.43812 -6.3184 0
M  V30 2365 N 212.846 1.57033 -0.133567 0
M  V30 2366 C 214.092 1.95976 0.521649 0
M  V30 2367 C 214.425 1.01779 1.65393 0
M  V30 2368 O 213.7 0.0576581 1.94415 0
M  V30 2369 C 213.983 3.44738 1.04057 0
M  V30 2370 C 213.836 4.49711 -0.0892897 0
M  V30 2371 C 215.155 3.95682 1.92675 0
M  V30 2372 H 212.274 0.712579 0.188149 0
M  V30 2373 H 214.916 1.88813 -0.212076 0
M  V30 2374 H 213.066 3.50973 1.66583 0
M  V30 2375 H 214.738 4.55565 -0.725152 0
M  V30 2376 H 212.981 4.27261 -0.750378 0
M  V30 2377 H 213.652 5.51099 0.315284 0
M  V30 2378 H 216.128 3.91841 1.39998 0
M  V30 2379 H 215.004 5.00262 2.25897 0
M  V30 2380 H 215.265 3.37239 2.85872 0
M  V30 2381 N 214.325 -0.140222 1.56975 0
M  V30 2382 C 215.288 -1.15689 1.97861 0
M  V30 2383 C 216.288 -1.3549 0.865974 0
M  V30 2384 O 217.478 -1.32367 1.13246 0
M  V30 2385 C 214.61 -2.51582 2.30042 0
M  V30 2386 H 215.803 -0.805971 2.88867 0
M  V30 2387 H 213.356 -0.383801 1.51515 0
M  V30 2388 H 214.091 -2.91632 1.41849 0
M  V30 2389 H 213.876 -2.38569 3.11171 0
M  V30 2390 H 215.366 -3.24792 2.62488 0
M  V30 2391 N 215.803 -1.52179 -0.40978 0
M  V30 2392 C 217.043 -1.67882 -1.16597 0
M  V30 2393 C 217.407 -0.399795 -1.87791 0
M  V30 2394 O 218.608 -0.43292 -2.65291 0
M  V30 2395 C 216.879 -2.86662 -2.13448 0
M  V30 2396 S 218.438 -3.22843 -2.97183 0
M  V30 2397 H 215.256 -0.59118 -0.395002 0
M  V30 2398 H 217.858 -1.9017 -0.453373 0
M  V30 2399 H 216.562 -3.77998 -1.59831 0
M  V30 2400 H 216.093 -2.66645 -2.89247 0
M  V30 2401 H 218.108 -2.71415 -4.15389 0
M  V30 2402 N 217.281 0.66697 -1.42791 0
M  V30 2403 C 218.511 1.45294 -1.46878 0
M  V30 2404 C 218.919 1.89027 -0.0809861 0
M  V30 2405 O 218.262 1.59219 0.916246 0
M  V30 2406 C 218.324 2.72908 -2.34012 0
M  V30 2407 C 217.988 2.51203 -3.81767 0
M  V30 2408 C 218.985 2.15302 -4.73224 0
M  V30 2409 C 216.67 2.65954 -4.26115 0
M  V30 2410 C 218.664 1.94431 -6.07022 0
M  V30 2411 C 216.351 2.44699 -5.59969 0
M  V30 2412 C 217.349 2.08992 -6.5024 0
M  V30 2413 O 217.037 1.87948 -7.81621 0
M  V30 2414 H 216.769 0.453306 -0.501487 0
M  V30 2415 H 219.323 0.826232 -1.88049 0
M  V30 2416 H 217.553 3.38089 -1.87703 0
M  V30 2417 H 219.242 3.34816 -2.29462 0
M  V30 2418 H 220.008 2.03495 -4.40244 0
M  V30 2419 H 215.887 2.92724 -3.56137 0
M  V30 2420 H 219.431 1.66484 -6.77443 0
M  V30 2421 H 215.328 2.56105 -5.9252 0
M  V30 2422 H 216.096 2.02483 -7.93059 0
M  V30 2423 N 218.759 1.29093 0.90403 0
M  V30 2424 C 220.005 1.17996 1.65676 0
M  V30 2425 C 220.36 -0.266816 1.90541 0
M  V30 2426 O 219.653 -1.19 1.50165 0
M  V30 2427 C 219.847 1.92224 3.01305 0
M  V30 2428 C 219.676 3.43972 2.89678 0
M  V30 2429 C 218.446 4.1332 2.90679 0
M  V30 2430 C 220.644 4.39546 2.67028 0
M  V30 2431 N 218.626 5.51463 2.69743 0
M  V30 2432 C 219.997 5.65119 2.5503 0
M  V30 2433 C 222.052 4.29359 2.52101 0
M  V30 2434 C 220.755 6.81663 2.29626 0
M  V30 2435 C 222.781 5.4565 2.28079 0
M  V30 2436 C 222.143 6.70193 2.16843 0
M  V30 2437 H 218.242 0.486759 0.612037 0
M  V30 2438 H 220.826 1.62868 1.06688 0
M  V30 2439 H 218.997 1.49773 3.58361 0
M  V30 2440 H 220.729 1.73429 3.65656 0
M  V30 2441 H 217.484 3.64984 3.01801 0
M  V30 2442 H 217.908 6.24105 2.6234 0
M  V30 2443 H 222.55 3.33769 2.59534 0
M  V30 2444 H 220.268 7.77313 2.20932 0
M  V30 2445 H 223.854 5.39664 2.1738 0
M  V30 2446 H 222.734 7.58659 1.98511 0
M  V30 2447 N 220.237 -1.11381 1.11499 0
M  V30 2448 C 221.2 -2.15622 0.777153 0
M  V30 2449 C 222.2 -1.59504 -0.203779 0
M  V30 2450 O 223.39 -1.74188 0.020782 0
M  V30 2451 C 220.522 -3.40556 0.153116 0
M  V30 2452 H 221.715 -2.47021 1.70061 0
M  V30 2453 H 219.268 -1.26577 0.916952 0
M  V30 2454 H 220.003 -3.14767 -0.780536 0
M  V30 2455 H 219.788 -3.8257 0.859238 0
M  V30 2456 H 221.278 -4.17546 -0.0671044 0
M  V30 2457 N 221.715 -0.905404 -1.28997 0
M  V30 2458 C 222.963 -0.533192 -1.9494 0
M  V30 2459 C 223.284 0.924618 -1.71685 0
M  V30 2460 O 222.554 1.65268 -1.05183 0
M  V30 2461 H 221.134 -0.194194 -0.721317 0
M  V30 2462 H 223.796 -1.15294 -1.57141 0
M  V30 2463 H 222.892 -0.72059 -3.03667 0
M  V30 2464 N 223.193 1.4272 -0.668489 0
M  V30 2465 C 224.439 2.01923 -0.188419 0
M  V30 2466 C 224.772 1.52704 1.19979 0
M  V30 2467 O 224.047 0.726566 1.8042 0
M  V30 2468 C 224.33 3.59451 -0.216085 0
M  V30 2469 C 224.183 4.18864 -1.6393 0
M  V30 2470 C 225.502 4.37903 0.439179 0
M  V30 2471 H 222.621 0.733674 -0.0699412 0
M  V30 2472 H 225.263 1.69822 -0.852076 0
M  V30 2473 H 223.413 3.86929 0.349012 0
M  V30 2474 H 225.085 4.02362 -2.25616 0
M  V30 2475 H 223.328 3.74933 -2.18193 0
M  V30 2476 H 223.999 5.27987 -1.61039 0
M  V30 2477 H 226.475 4.16079 -0.0417878 0
M  V30 2478 H 225.351 5.47519 0.389157 0
M  V30 2479 H 225.612 4.15303 1.51577 0
M  V30 2480 N 224.671 0.411399 1.52136 0
M  V30 2481 C 226.082 -0.0576826 1.86611 0
M  V30 2482 C 226.433 -1.44238 1.33003 0
M  V30 2483 O 225.558 -2.05759 0.670228 0
M  V30 2484 C 226.153 -0.111448 3.38617 0
M  V30 2485 C 224.712 -0.52487 3.72723 0
M  V30 2486 C 223.859 0.299176 2.75681 0
M  V30 2487 H 226.81 0.628368 1.4573 0
M  V30 2488 H 226.831 -0.926252 3.69054 0
M  V30 2489 H 226.343 0.896488 3.77604 0
M  V30 2490 H 224.444 -1.53936 3.39315 0
M  V30 2491 H 224.557 -0.267681 4.78352 0
M  V30 2492 H 222.921 -0.238814 2.53578 0
M  V30 2493 H 223.704 1.3055 3.17508 0
M  V30 2494 N 226.149 -1.5696 0.141893 0
M  V30 2495 C 227.079 -2.19516 -0.795936 0
M  V30 2496 C 228.06 -1.14187 -1.26077 0
M  V30 2497 O 229.245 -1.42511 -1.31925 0
M  V30 2498 C 226.375 -2.81272 -2.03723 0
M  V30 2499 C 225.329 -3.92384 -1.70936 0
M  V30 2500 C 224.655 -4.41052 -3.02287 0
M  V30 2501 C 225.955 -5.13403 -0.959954 0
M  V30 2502 H 227.649 -2.98138 -0.274596 0
M  V30 2503 H 225.195 -1.43406 -0.130636 0
M  V30 2504 H 227.148 -3.237 -2.69808 0
M  V30 2505 H 225.872 -1.99973 -2.58221 0
M  V30 2506 H 224.531 -3.50566 -1.07232 0
M  V30 2507 H 224.179 -3.56582 -3.54765 0
M  V30 2508 H 223.879 -5.15993 -2.81114 0
M  V30 2509 H 225.403 -4.86146 -3.69451 0
M  V30 2510 H 226.817 -5.52706 -1.52279 0
M  V30 2511 H 225.214 -5.94073 -0.848357 0
M  V30 2512 H 226.284 -4.84875 0.0492434 0
M  V30 2513 N 227.627 0.131896 -1.57047 0
M  V30 2514 C 228.574 1.16236 -1.99393 0
M  V30 2515 C 229.544 1.41863 -0.863943 0
M  V30 2516 O 230.729 1.53946 -1.12718 0
M  V30 2517 C 227.869 2.48708 -2.39245 0
M  V30 2518 C 226.982 2.30127 -3.65603 0
M  V30 2519 C 226.117 3.55738 -3.94492 0
M  V30 2520 C 225.156 3.32259 -5.14073 0
M  V30 2521 N 224.293 4.50039 -5.38896 0
M  V30 2522 H 229.133 0.794251 -2.87221 0
M  V30 2523 H 226.67 0.380707 -1.42088 0
M  V30 2524 H 228.628 3.25969 -2.60384 0
M  V30 2525 H 227.258 2.83437 -1.54478 0
M  V30 2526 H 226.31 1.43845 -3.52154 0
M  V30 2527 H 227.622 2.08746 -4.5302 0
M  V30 2528 H 226.776 4.41423 -4.1621 0
M  V30 2529 H 225.515 3.80138 -3.05526 0
M  V30 2530 H 224.52 2.44963 -4.92212 0
M  V30 2531 H 225.745 3.09242 -6.04604 0
M  V30 2532 H 223.691 4.74584 -4.52886 0
M  V30 2533 H 223.608 4.31716 -6.2061 0
M  V30 2534 H 224.876 5.36895 -5.65123 0
M  V30 2535 N 229.106 1.52395 0.401703 0
M  V30 2536 C 230.016 1.7917 1.51444 0
M  V30 2537 C 231.032 0.677691 1.6026 0
M  V30 2538 O 232.208 0.963909 1.76835 0
M  V30 2539 C 229.273 1.94347 2.87107 0
M  V30 2540 C 228.334 3.18257 2.88116 0
M  V30 2541 C 227.567 3.32701 4.17308 0
M  V30 2542 O 227.79 2.52238 5.11598 0
M  V30 2543 O 226.724 4.25891 4.25324 0
M  V30 2544 H 230.55 2.73633 1.31752 0
M  V30 2545 H 228.135 1.3733 0.588296 0
M  V30 2546 H 230.017 2.06109 3.67555 0
M  V30 2547 H 228.692 1.03073 3.06851 0
M  V30 2548 H 227.599 3.11947 2.06494 0
M  V30 2549 H 228.932 4.09336 2.73322 0
M  V30 2550 N 230.584 -0.659388 1.43143 0
M  V30 2551 C 231.812 -1.44723 1.47861 0
M  V30 2552 C 232.227 -1.88563 0.0945886 0
M  V30 2553 O 231.584 -1.59108 -0.893915 0
M  V30 2554 C 231.635 -2.68627 2.41913 0
M  V30 2555 O 231.356 -2.26623 3.74932 0
M  V30 2556 C 232.857 -3.62045 2.55809 0
M  V30 2557 H 230.077 -0.444801 0.502387 0
M  V30 2558 H 232.621 -0.808916 1.87821 0
M  V30 2559 H 230.776 -3.28613 2.05164 0
M  V30 2560 H 231.19 -3.06745 4.2545 0
M  V30 2561 H 232.664 -4.45666 3.25708 0
M  V30 2562 H 233.141 -4.08981 1.60099 0
M  V30 2563 H 233.747 -3.07944 2.93344 0
M  V30 2564 N 232.062 -1.29571 -0.897171 0
M  V30 2565 C 232.972 -1.16808 -2.03453 0
M  V30 2566 C 233.988 -0.0907471 -1.73763 0
M  V30 2567 O 235.164 -0.303312 -1.99103 0
M  V30 2568 C 232.229 -0.848264 -3.36163 0
M  V30 2569 C 231.29 -2.0097 -3.79354 0
M  V30 2570 C 230.523 -1.70505 -5.05731 0
M  V30 2571 O 230.746 -0.62718 -5.66941 0
M  V30 2572 O 229.68 -2.5538 -5.45036 0
M  V30 2573 H 233.506 -2.12325 -2.17144 0
M  V30 2574 H 231.091 -1.09047 -1.02123 0
M  V30 2575 H 232.973 -0.684581 -4.15802 0
M  V30 2576 H 231.648 0.0771071 -3.23608 0
M  V30 2577 H 230.555 -2.22863 -3.00471 0
M  V30 2578 H 231.888 -2.91636 -3.96496 0
M  V30 2579 N 233.54 1.10788 -1.12088 0
M  V30 2580 C 234.786 1.82942 -0.875226 0
M  V30 2581 C 235.119 1.84779 0.597538 0
M  V30 2582 O 234.394 1.30578 1.44152 0
M  V30 2583 C 234.677 3.29789 -1.44606 0
M  V30 2584 C 234.53 3.36307 -2.98693 0
M  V30 2585 C 235.849 4.26064 -1.10261 0
M  V30 2586 H 232.968 0.664195 -0.319397 0
M  V30 2587 H 235.61 1.29867 -1.38689 0
M  V30 2588 H 233.76 3.75118 -1.01089 0
M  V30 2589 H 235.432 2.99487 -3.50864 0
M  V30 2590 H 233.675 2.76318 -3.34411 0
M  V30 2591 H 234.346 4.39694 -3.33726 0
M  V30 2592 H 236.822 3.88951 -1.4784 0
M  V30 2593 H 235.698 5.27183 -1.52869 0
M  V30 2594 H 235.959 4.42098 -0.0142953 0
M  V30 2595 N 235.018 0.912232 1.28515 0
M  V30 2596 C 235.965 0.397954 2.27343 0
M  V30 2597 C 236.935 -0.526766 1.57526 0
M  V30 2598 O 238.12 -0.449292 1.85435 0
M  V30 2599 C 235.26 -0.357263 3.43246 0
M  V30 2600 C 234.373 0.599788 4.27816 0
M  V30 2601 C 233.508 -0.173725 5.30916 0
M  V30 2602 C 232.547 0.777039 6.07148 0
M  V30 2603 N 231.684 0.0371398 7.0209 0
M  V30 2604 H 236.524 1.24577 2.70711 0
M  V30 2605 H 234.061 0.625612 1.33133 0
M  V30 2606 H 236.019 -0.8113 4.09236 0
M  V30 2607 H 234.649 -1.16943 3.00872 0
M  V30 2608 H 233.701 1.17235 3.61884 0
M  V30 2609 H 235.013 1.32704 4.80823 0
M  V30 2610 H 234.167 -0.688394 6.02782 0
M  V30 2611 H 232.906 -0.934041 4.78672 0
M  V30 2612 H 231.911 1.3031 5.34134 0
M  V30 2613 H 233.136 1.53689 6.61481 0
M  V30 2614 H 231.082 -0.705213 6.52198 0
M  V30 2615 H 230.999 0.704249 7.52713 0
M  V30 2616 H 232.267 -0.457383 7.78157 0
M  V30 2617 N 236.496 -1.42363 0.676048 0
M  V30 2618 C 237.406 -2.346 -0.00153389 0
M  V30 2619 C 238.422 -1.5516 -0.787485 0
M  V30 2620 O 239.598 -1.87723 -0.729521 0
M  V30 2621 C 236.663 -3.33705 -0.940298 0
M  V30 2622 C 235.724 -4.29042 -0.148739 0
M  V30 2623 C 234.957 -5.23413 -1.04279 0
M  V30 2624 O 235.18 -5.22749 -2.28232 0
M  V30 2625 O 234.114 -5.99795 -0.502925 0
M  V30 2626 H 237.94 -2.94082 0.758268 0
M  V30 2627 H 235.525 -1.42888 0.436289 0
M  V30 2628 H 237.407 -3.94586 -1.47917 0
M  V30 2629 H 236.082 -2.76695 -1.67993 0
M  V30 2630 H 234.989 -3.71571 0.43427 0
M  V30 2631 H 236.322 -4.89097 0.551805 0
M  V30 2632 N 237.974 -0.419461 -1.51915 0
M  V30 2633 C 239.39 -0.0708431 -1.59443 0
M  V30 2634 C 239.59 1.41796 -1.43164 0
M  V30 2635 O 238.646 2.18596 -1.26381 0
M  V30 2636 C 239.959 -0.574991 -2.95151 0
M  V30 2637 C 241.507 -0.533867 -3.08413 0
M  V30 2638 C 241.982 -1.01469 -4.46618 0
M  V30 2639 N 243.473 -0.971939 -4.52888 0
M  V30 2640 C 244.208 -1.31505 -5.58116 0
M  V30 2641 N 243.704 -1.73014 -6.70849 0
M  V30 2642 N 245.497 -1.23436 -5.48379 0
M  V30 2643 H 237.648 -1.38836 -1.60743 0
M  V30 2644 H 239.911 -0.570998 -0.756747 0
M  V30 2645 H 239.617 -1.61597 -3.12377 0
M  V30 2646 H 239.491 0.00979777 -3.77199 0
M  V30 2647 H 241.878 0.498086 -2.90866 0
M  V30 2648 H 241.959 -1.15484 -2.28248 0
M  V30 2649 H 241.603 -2.04502 -4.6491 0
M  V30 2650 H 241.533 -0.370433 -5.25295 0
M  V30 2651 H 244.024 -0.666893 -3.71969 0
M  V30 2652 H 244.337 -1.97479 -7.47143 0
M  V30 2653 H 242.682 -1.76926 -6.72103 0
M  V30 2654 H 245.873 -0.908869 -4.59192 0
M  V30 2655 H 246.046 -1.50506 -6.30279 0
M  V30 2656 N 239.452 1.56882 -0.150215 0
M  V30 2657 C 240.415 2.1573 0.774157 0
M  V30 2658 C 241.415 1.0999 1.17298 0
M  V30 2659 O 242.605 1.35613 1.09338 0
M  V30 2660 C 239.737 2.72302 2.05096 0
M  V30 2661 H 240.93 2.98752 0.262201 0
M  V30 2662 H 238.483 1.55985 0.099248 0
M  V30 2663 H 239.218 1.92956 2.6065 0
M  V30 2664 H 239.003 3.49665 1.77416 0
M  V30 2665 H 240.493 3.17632 2.71109 0
M  V30 2666 N 240.93 -0.123565 1.57115 0
M  V30 2667 C 242.207 -0.862196 1.75572 0
M  V30 2668 C 242.587 -1.98279 0.724475 0
M  V30 2669 O 241.935 -2.27102 -0.252407 0
M  V30 2670 C 242.145 -1.38309 3.20424 0
M  V30 2671 C 243.493 -1.83724 3.82793 0
M  V30 2672 O 244.517 -1.47999 3.23998 0
M  V30 2673 O 243.376 -2.49685 4.86127 0
M  V30 2674 H 240.47 -0.409113 0.718718 0
M  V30 2675 H 243.016 -0.107661 1.69358 0
M  V30 2676 H 241.788 -0.578889 3.86994 0
M  V30 2677 H 241.411 -2.20046 3.31158 0
M  V30 2678 N 242.408 -1.52605 -0.393616 0
M  V30 2679 C 243.685 -1.58001 -1.15304 0
M  V30 2680 C 244.065 -0.370385 -2.07825 0
M  V30 2681 O 243.413 0.641638 -2.19306 0
M  V30 2682 C 243.623 -2.91652 -1.91677 0
M  V30 2683 C 244.971 -3.4522 -2.47201 0
M  V30 2684 O 245.995 -2.93495 -2.01839 0
M  V30 2685 O 244.854 -4.35579 -3.3005 0
M  V30 2686 H 241.948 -0.637068 -0.527327 0
M  V30 2687 H 244.494 -1.64939 -0.399141 0
M  V30 2688 H 243.266 -3.71136 -1.23992 0
M  V30 2689 H 242.889 -2.88077 -2.74039 0
M  V30 2690 N 243.887 0.651787 -1.4349 0
M  V30 2691 C 245.134 1.41167 -1.45183 0
M  V30 2692 C 245.462 1.94349 -0.0766601 0
M  V30 2693 O 244.717 1.72804 0.918555 0
M  V30 2694 C 245.016 2.60914 -2.44251 0
M  V30 2695 C 244.682 2.26142 -3.9009 0
M  V30 2696 C 243.344 2.16371 -4.2981 0
M  V30 2697 C 245.696 1.98334 -4.81989 0
M  V30 2698 C 243.024 1.7695 -5.5938 0
M  V30 2699 C 245.376 1.6041 -6.11924 0
M  V30 2700 C 244.04 1.49166 -6.5062 0
M  V30 2701 H 243.31 0.516566 -0.531263 0
M  V30 2702 H 245.957 0.741099 -1.76579 0
M  V30 2703 H 244.262 3.3311 -2.06265 0
M  V30 2704 H 245.959 3.19127 -2.42815 0
M  V30 2705 H 242.549 2.34658 -3.58655 0
M  V30 2706 H 246.733 2.04803 -4.52072 0
M  V30 2707 H 241.989 1.66831 -5.88198 0
M  V30 2708 H 246.163 1.37925 -6.82605 0
M  V30 2709 H 243.79 1.1839 -7.50925 0
M  V30 2710 N 245.365 1.30045 0.890287 0
M  V30 2711 C 246.614 1.17929 1.63633 0
M  V30 2712 C 246.927 -0.266204 1.9378 0
M  V30 2713 O 248.133 -0.508804 2.6669 0
M  V30 2714 C 246.589 2.06317 2.94892 0
M  V30 2715 C 246.197 3.55745 2.72305 0
M  V30 2716 C 247.941 2.0295 3.72843 0
M  V30 2717 C 245.848 4.36205 3.99348 0
M  V30 2718 H 244.778 0.437782 0.613892 0
M  V30 2719 H 247.429 1.54754 0.986075 0
M  V30 2720 H 245.811 1.6237 3.61182 0
M  V30 2721 H 246.985 4.07805 2.1455 0
M  V30 2722 H 245.3 3.6088 2.07737 0
M  V30 2723 H 247.897 2.60319 4.67053 0
M  V30 2724 H 248.24 1.0117 4.0382 0
M  V30 2725 H 248.773 2.4499 3.13408 0
M  V30 2726 H 245.512 5.38659 3.73533 0
M  V30 2727 H 245.032 3.8891 4.56628 0
M  V30 2728 H 246.711 4.47362 4.67415 0
M  V30 2729 N 246.843 -1.10192 1.12674 0
M  V30 2730 C 248.12 -1.78717 0.794965 0
M  V30 2731 C 248.5 -1.98628 -0.714853 0
M  V30 2732 O 247.848 -1.58135 -1.64941 0
M  V30 2733 C 248.058 -3.11546 1.5729 0
M  V30 2734 C 249.406 -3.86382 1.76052 0
M  V30 2735 O 250.43 -3.21274 1.53823 0
M  V30 2736 O 249.289 -5.03246 2.13087 0
M  V30 2737 H 246.383 -0.774702 0.289423 0
M  V30 2738 H 248.929 -1.16819 1.23091 0
M  V30 2739 H 247.701 -2.92489 2.59935 0
M  V30 2740 H 247.324 -3.81164 1.13137 0
M  V30 2741 N 248.321 -0.919034 -1.28029 0
M  V30 2742 C 249.254 -0.355887 -2.25408 0
M  V30 2743 C 250.232 0.542874 -1.5327 0
M  V30 2744 O 251.416 0.485338 -1.82145 0
M  V30 2745 C 248.543 0.490759 -3.35126 0
M  V30 2746 C 247.589 -0.343358 -4.25116 0
M  V30 2747 S 248.422 -1.75344 -5.05979 0
M  V30 2748 C 249.578 -0.914244 -6.19187 0
M  V30 2749 H 249.811 -1.18123 -2.72826 0
M  V30 2750 H 247.344 -0.720636 -1.36551 0
M  V30 2751 H 249.302 0.973404 -3.98792 0
M  V30 2752 H 247.963 1.29054 -2.86363 0
M  V30 2753 H 247.156 0.304266 -5.03081 0
M  V30 2754 H 246.758 -0.759851 -3.662 0
M  V30 2755 H 249.05 -0.146282 -6.77342 0
M  V30 2756 H 249.993 -1.66661 -6.88208 0
M  V30 2757 H 250.401 -0.460082 -5.62622 0
M  V30 2758 N 249.799 1.42003 -0.683588 0
M  V30 2759 C 251.045 2.01712 -0.209825 0
M  V30 2760 C 251.378 1.53968 1.18353 0
M  V30 2761 O 250.653 0.745661 1.79639 0
M  V30 2762 C 250.936 3.59202 -0.254197 0
M  V30 2763 C 250.789 4.17102 -1.68363 0
M  V30 2764 C 252.108 4.38344 0.392709 0
M  V30 2765 H 249.227 0.732891 -0.0777189 0
M  V30 2766 H 251.869 1.68909 -0.87004 0
M  V30 2767 H 250.019 3.87278 0.307954 0
M  V30 2768 H 251.691 3.99946 -2.29871 0
M  V30 2769 H 249.934 3.72597 -2.22157 0
M  V30 2770 H 250.605 5.26249 -1.6663 0
M  V30 2771 H 253.081 4.16011 -0.0859162 0
M  V30 2772 H 251.957 5.47901 0.331063 0
M  V30 2773 H 252.218 4.16887 1.47164 0
M  V30 2774 N 251.277 0.427512 1.51691 0
M  V30 2775 C 252.554 -0.201684 1.94557 0
M  V30 2776 C 252.934 -1.60981 1.36559 0
M  V30 2777 O 252.282 -2.21814 0.548702 0
M  V30 2778 C 252.492 -0.189394 3.48486 0
M  V30 2779 C 253.84 -0.39978 4.22714 0
M  V30 2780 O 254.864 -0.267945 3.55191 0
M  V30 2781 O 253.723 -0.661249 5.42485 0
M  V30 2782 H 250.817 -0.135261 0.815864 0
M  V30 2783 H 253.363 0.484782 1.62628 0
M  V30 2784 H 252.135 0.795431 3.8313 0
M  V30 2785 H 251.758 -0.919187 3.86829 0
M  V30 2786 N 252.755 -1.56801 0.158532 0
M  V30 2787 C 253.718 -2.16138 -0.762705 0
M  V30 2788 C 254.718 -1.1061 -1.16713 0
M  V30 2789 O 255.908 -1.36191 -1.08617 0
M  V30 2790 C 253.04 -2.73386 -2.03649 0
M  V30 2791 H 254.233 -2.98886 -0.246354 0
M  V30 2792 H 251.786 -1.56035 -0.0909744 0
M  V30 2793 H 252.521 -1.94335 -2.59623 0
M  V30 2794 H 252.306 -3.50601 -1.75559 0
M  V30 2795 H 253.796 -3.19065 -2.6942 0
M  V30 2796 N 254.233 0.115231 -1.57178 0
M  V30 2797 C 255.48 0.822351 -1.8505 0
M  V30 2798 C 255.808 1.79701 -0.744168 0
M  V30 2799 O 255.063 1.93909 0.26414 0
M  V30 2800 C 255.362 1.60324 -3.19423 0
M  V30 2801 C 255.028 0.772536 -4.44233 0
M  V30 2802 C 253.69 0.543468 -4.78121 0
M  V30 2803 C 256.042 0.193746 -5.2084 0
M  V30 2804 C 253.37 -0.274583 -5.86057 0
M  V30 2805 C 255.722 -0.611517 -6.29637 0
M  V30 2806 C 254.386 -0.850867 -6.62055 0
M  V30 2807 H 253.656 0.30092 -0.677147 0
M  V30 2808 H 256.303 0.0845802 -1.91313 0
M  V30 2809 H 254.608 2.41203 -3.08753 0
M  V30 2810 H 256.305 2.1544 -3.38211 0
M  V30 2811 H 252.895 0.96117 -4.17683 0
M  V30 2812 H 257.079 0.357926 -4.95008 0
M  V30 2813 H 252.335 -0.469206 -6.09597 0
M  V30 2814 H 256.509 -1.06697 -6.88178 0
M  V30 2815 H 254.136 -1.48657 -7.45523 0
M  V30 2816 N 255.711 1.52812 0.385517 0
M  V30 2817 C 256.959 1.67694 1.12797 0
M  V30 2818 C 257.28 0.421115 1.90399 0
M  V30 2819 O 256.55 -0.564551 1.87589 0
M  V30 2820 H 255.13 0.618155 0.419396 0
M  V30 2821 H 257.792 1.89938 0.436972 0
M  V30 2822 H 256.888 2.52896 1.82894 0
M  V30 2823 N 257.189 -0.644168 1.43834 0
M  V30 2824 C 258.152 -1.73857 1.49353 0
M  V30 2825 C 259.152 -1.56315 0.377112 0
M  V30 2826 O 260.342 -1.62048 0.639226 0
M  V30 2827 C 257.474 -3.12819 1.35488 0
M  V30 2828 H 258.667 -1.70342 2.46827 0
M  V30 2829 H 256.22 -0.856652 1.30733 0
M  V30 2830 H 256.955 -3.2194 0.390569 0
M  V30 2831 H 256.74 -3.26958 2.16428 0
M  V30 2832 H 258.23 -3.92606 1.42302 0
M  V30 2833 N 258.668 -1.30515 -0.883378 0
M  V30 2834 C 259.914 -1.19607 -1.63774 0
M  V30 2835 C 260.247 0.248314 -1.92606 0
M  V30 2836 O 259.522 1.17742 -1.54813 0
M  V30 2837 C 259.805 -2.02669 -2.97653 0
M  V30 2838 C 259.658 -3.55335 -2.75784 0
M  V30 2839 C 260.977 -1.86573 -3.98596 0
M  V30 2840 H 258.096 -0.435856 -0.594305 0
M  V30 2841 H 260.738 -1.60165 -1.02212 0
M  V30 2842 H 258.888 -1.68208 -3.50197 0
M  V30 2843 H 260.56 -3.99863 -2.30016 0
M  V30 2844 H 258.803 -3.79438 -2.1026 0
M  V30 2845 H 259.474 -4.08745 -3.70988 0
M  V30 2846 H 261.95 -2.16703 -3.55217 0
M  V30 2847 H 260.826 -2.47014 -4.90179 0
M  V30 2848 H 261.087 -0.825321 -4.34328 0
M  V30 2849 N 260.146 1.09593 -1.13257 0
M  V30 2850 C 261.394 1.81375 -0.891492 0
M  V30 2851 C 261.715 1.86049 0.584009 0
M  V30 2852 O 260.985 1.34481 1.42449 0
M  V30 2853 H 259.565 0.671708 -0.326828 0
M  V30 2854 H 262.227 1.3256 -1.42877 0
M  V30 2855 H 261.323 2.84612 -1.28071 0
M  V30 2856 N 261.624 0.925811 1.2754 0
M  V30 2857 C 263.035 0.610102 1.7645 0
M  V30 2858 C 263.386 -0.874723 1.75622 0
M  V30 2859 O 262.511 -1.68444 1.35851 0
M  V30 2860 C 263.106 1.10073 3.20421 0
M  V30 2861 C 261.665 0.835723 3.67005 0
M  V30 2862 C 260.812 1.26054 2.46993 0
M  V30 2863 H 263.763 1.10579 1.13833 0
M  V30 2864 H 263.784 0.447557 3.77859 0
M  V30 2865 H 263.296 2.18143 3.20991 0
M  V30 2866 H 261.397 -0.231249 3.71882 0
M  V30 2867 H 261.51 1.45193 4.56569 0
M  V30 2868 H 259.874 0.679111 2.45479 0
M  V30 2869 H 260.657 2.34984 2.50275 0
M  V30 2870 N 263.102 -1.41638 0.69111 0
M  V30 2871 C 264.518 -1.55435 0.362224 0
M  V30 2872 C 264.718 -1.66754 -1.13117 0
M  V30 2873 O 263.774 -1.64348 -1.91692 0
M  V30 2874 C 265.087 -2.79588 1.10684 0
M  V30 2875 C 266.635 -2.9338 1.09075 0
M  V30 2876 C 267.11 -4.20414 1.81703 0
M  V30 2877 N 268.601 -4.27362 1.7865 0
M  V30 2878 C 269.336 -5.24507 2.31689 0
M  V30 2879 N 268.832 -6.27708 2.93179 0
M  V30 2880 N 270.625 -5.16416 2.2197 0
M  V30 2881 H 262.776 -1.32536 1.65976 0
M  V30 2882 H 265.039 -0.639115 0.700168 0
M  V30 2883 H 264.745 -2.77419 2.16175 0
M  V30 2884 H 264.619 -3.70973 0.682545 0
M  V30 2885 H 267.006 -2.95067 0.0441238 0
M  V30 2886 H 267.087 -2.0318 1.55407 0
M  V30 2887 H 266.731 -4.19488 2.86343 0
M  V30 2888 H 266.661 -5.09578 1.32808 0
M  V30 2889 H 269.152 -3.53415 1.33815 0
M  V30 2890 H 269.465 -6.98217 3.31229 0
M  V30 2891 H 267.81 -6.28223 2.97255 0
M  V30 2892 H 271.001 -4.34716 1.73607 0
M  V30 2893 H 271.174 -5.91958 2.63609 0
M  V30 2894 N 264.58 -0.43555 -1.51462 0
M  V30 2895 C 265.53 0.394701 -2.24558 0
M  V30 2896 C 266.514 0.99157 -1.26715 0
M  V30 2897 O 267.706 0.910007 -1.51815 0
M  V30 2898 C 264.835 1.4963 -3.08975 0
M  V30 2899 C 263.921 0.908912 -4.14246 0
M  V30 2900 N 264.312 0.0505335 -5.05775 0
M  V30 2901 C 262.61 1.17668 -4.30198 0
M  V30 2902 C 263.311 -0.279161 -5.8103 0
M  V30 2903 N 262.287 0.336767 -5.42556 0
M  V30 2904 H 266.089 -0.267106 -2.92684 0
M  V30 2905 H 263.603 -0.247518 -1.60503 0
M  V30 2906 H 265.6 2.10394 -3.59917 0
M  V30 2907 H 264.26 2.16046 -2.42393 0
M  V30 2908 H 265.271 -0.31577 -5.16936 0
M  V30 2909 H 261.948 1.83847 -3.74842 0
M  V30 2910 H 263.338 -0.977553 -6.64751 0
M  V30 2911 N 266.058 1.56714 -0.166846 0
M  V30 2912 C 267.304 1.97813 0.473473 0
M  V30 2913 C 267.659 1.05095 1.61161 0
M  V30 2914 O 266.952 0.0897541 1.9139 0
M  V30 2915 C 267.146 3.42889 1.00806 0
M  V30 2916 C 266.975 4.49635 -0.0767392 0
M  V30 2917 C 265.745 5.02566 -0.524894 0
M  V30 2918 C 267.943 5.06793 -0.875504 0
M  V30 2919 N 265.925 5.9294 -1.59047 0
M  V30 2920 C 267.296 5.93565 -1.79111 0
M  V30 2921 C 269.351 4.89306 -0.921083 0
M  V30 2922 C 268.054 6.64721 -2.74843 0
M  V30 2923 C 270.08 5.61179 -1.86633 0
M  V30 2924 C 269.442 6.47675 -2.76942 0
M  V30 2925 H 265.541 0.769093 0.141489 0
M  V30 2926 H 268.125 1.92874 -0.266031 0
M  V30 2927 H 266.296 3.48382 1.7171 0
M  V30 2928 H 268.028 3.71008 1.61664 0
M  V30 2929 H 264.783 4.73439 -0.123432 0
M  V30 2930 H 265.207 6.42831 -2.12361 0
M  V30 2931 H 269.849 4.22136 -0.23692 0
M  V30 2932 H 267.567 7.31107 -3.44249 0
M  V30 2933 H 271.153 5.49636 -1.90764 0
M  V30 2934 H 270.033 7.02313 -3.48893 0
M  V30 2935 N 267.536 -0.106894 1.57237 0
M  V30 2936 C 268.483 -1.13049 2.01217 0
M  V30 2937 C 269.453 -1.40471 0.886403 0
M  V30 2938 O 270.638 -1.52133 1.15153 0
M  V30 2939 C 267.778 -2.4487 2.43172 0
M  V30 2940 C 266.891 -2.24281 3.69218 0
M  V30 2941 C 266.026 -3.49417 4.00101 0
M  V30 2942 C 265.065 -3.24038 5.19294 0
M  V30 2943 N 264.202 -4.41409 5.45988 0
M  V30 2944 H 269.042 -0.748456 2.88448 0
M  V30 2945 H 266.579 -0.358054 1.42676 0
M  V30 2946 H 268.537 -3.21786 2.65537 0
M  V30 2947 H 267.167 -2.80944 1.58967 0
M  V30 2948 H 266.219 -1.38224 3.54398 0
M  V30 2949 H 267.531 -2.01512 4.56283 0
M  V30 2950 H 266.685 -4.34746 4.2318 0
M  V30 2951 H 265.424 -3.75229 3.11535 0
M  V30 2952 H 264.429 -2.37102 4.96047 0
M  V30 2953 H 265.654 -2.99584 6.09447 0
M  V30 2954 H 263.6 -4.67319 4.60379 0
M  V30 2955 H 263.517 -4.21788 6.274 0
M  V30 2956 H 264.785 -5.27836 5.73593 0
M  V30 2957 N 269.014 -1.53014 -0.377408 0
M  V30 2958 C 270.262 -1.6829 -1.11906 0
M  V30 2959 C 270.583 -0.431206 -1.90173 0
M  V30 2960 O 269.853 0.554595 -1.87886 0
M  V30 2961 H 268.433 -0.620371 -0.416112 0
M  V30 2962 H 271.095 -1.90167 -0.426893 0
M  V30 2963 H 270.191 -2.53862 -1.8155 0
M  V30 2964 N 270.492 0.636531 -1.44174 0
M  V30 2965 C 271.908 0.954104 -1.27941 0
M  V30 2966 C 272.108 2.0039 -0.211248 0
M  V30 2967 O 271.164 2.49236 0.404695 0
M  V30 2968 C 272.477 1.4225 -2.64925 0
M  V30 2969 C 274.025 1.53827 -2.72592 0
M  V30 2970 C 274.5 2.04053 -4.10032 0
M  V30 2971 N 275.991 2.11331 -4.12182 0
M  V30 2972 C 276.726 2.51352 -5.15374 0
M  V30 2973 N 276.222 2.90549 -6.2893 0
M  V30 2974 N 278.015 2.51438 -5.02728 0
M  V30 2975 H 270.166 -0.0578386 -2.12321 0
M  V30 2976 H 272.429 0.0367406 -0.947288 0
M  V30 2977 H 272.135 0.725466 -3.44136 0
M  V30 2978 H 272.009 2.39451 -2.9145 0
M  V30 2979 H 274.396 2.22628 -1.93702 0
M  V30 2980 H 274.477 0.550154 -2.49814 0
M  V30 2981 H 274.121 1.35848 -4.89395 0
M  V30 2982 H 274.051 3.03726 -4.30184 0
M  V30 2983 H 276.542 1.83745 -3.30222 0
M  V30 2984 H 276.855 3.19884 -7.03487 0
M  V30 2985 H 275.2 2.88313 -6.32377 0
M  V30 2986 H 278.391 2.20203 -4.13072 0
M  V30 2987 H 278.564 2.82304 -5.83274 0
M  V30 2988 N 271.97 1.30982 0.876444 0
M  V30 2989 C 273.386 1.09498 1.16113 0
M  V30 2990 C 273.586 -0.13875 2.01022 0
M  V30 2991 O 272.642 -0.829935 2.38471 0
M  V30 2992 C 273.955 2.36308 1.85954 0
M  V30 2993 C 275.503 2.41856 1.98683 0
M  V30 2994 C 275.978 3.6853 2.71937 0
M  V30 2995 N 277.469 3.69387 2.79477 0
M  V30 2996 C 278.204 4.64096 3.36753 0
M  V30 2997 N 277.7 5.69155 3.95012 0
M  V30 2998 N 279.493 4.51626 3.3465 0
M  V30 2999 H 271.644 2.10118 0.310494 0
M  V30 3000 H 273.907 0.926634 0.200131 0
M  V30 3001 H 273.613 3.26388 1.31011 0
M  V30 3002 H 273.487 2.4561 2.86278 0
M  V30 3003 H 275.874 1.52249 2.52793 0
M  V30 3004 H 275.955 2.36523 0.9742 0
M  V30 3005 H 275.599 4.58499 2.18496 0
M  V30 3006 H 275.529 3.71127 3.73593 0
M  V30 3007 H 278.02 2.93438 2.38123 0
M  V30 3008 H 278.333 6.3751 4.36808 0
M  V30 3009 H 276.678 5.72937 3.93406 0
M  V30 3010 H 279.869 3.68728 2.8837 0
M  V30 3011 H 280.042 5.25614 3.7899 0
M  V30 3012 N 273.449 -1.08991 1.13837 0
M  V30 3013 C 274.412 -2.13925 0.822715 0
M  V30 3014 C 275.412 -1.599 -0.1699 0
M  V30 3015 O 276.602 -1.74104 0.0577251 0
M  V30 3016 C 273.734 -3.40155 0.225318 0
M  V30 3017 H 274.927 -2.43358 1.75262 0
M  V30 3018 H 272.48 -1.24603 0.943594 0
M  V30 3019 H 273.215 -3.16352 -0.713594 0
M  V30 3020 H 273 -3.80661 0.940193 0
M  V30 3021 H 274.49 -4.17594 0.0214784 0
M  V30 3022 N 274.927 -0.932562 -1.27047 0
M  V30 3023 C 276.343 -0.633544 -1.46487 0
M  V30 3024 C 276.543 0.815746 -1.84249 0
M  V30 3025 O 275.599 1.59319 -1.95892 0
M  V30 3026 C 276.912 -1.58758 -2.55375 0
M  V30 3027 C 278.46 -1.59634 -2.69232 0
M  V30 3028 C 278.935 -2.53747 -3.81283 0
M  V30 3029 N 280.426 -2.51982 -3.88664 0
M  V30 3030 C 281.161 -3.21491 -4.74796 0
M  V30 3031 N 280.657 -4.00395 -5.65381 0
M  V30 3032 N 282.45 -3.10485 -4.68568 0
M  V30 3033 H 274.601 -1.86946 -1.00821 0
M  V30 3034 H 276.864 -0.802897 -0.504044 0
M  V30 3035 H 276.57 -2.62172 -2.34432 0
M  V30 3036 H 276.444 -1.33301 -3.52861 0
M  V30 3037 H 278.831 -0.569488 -2.89553 0
M  V30 3038 H 278.912 -1.89142 -1.72218 0
M  V30 3039 H 278.556 -3.56545 -3.61715 0
M  V30 3040 H 278.486 -2.21532 -4.77735 0
M  V30 3041 H 280.977 -1.94681 -3.23895 0
M  V30 3042 H 281.29 -4.50406 -6.27976 0
M  V30 3043 H 279.635 -4.04498 -5.65161 0
M  V30 3044 H 282.826 -2.48331 -3.96799 0
M  V30 3045 H 282.999 -3.64925 -5.35475 0
M  V30 3046 N 276.405 1.4127 -0.698611 0
M  V30 3047 C 277.816 1.84187 -0.305289 0
M  V30 3048 C 278.167 1.58449 1.15708 0
M  V30 3049 O 277.292 1.05651 1.88856 0
M  V30 3050 C 277.887 3.3435 -0.547314 0
M  V30 3051 C 276.446 3.75826 -0.207878 0
M  V30 3052 C 275.593 2.64647 -0.828099 0
M  V30 3053 H 278.544 1.30778 -0.89904 0
M  V30 3054 H 278.565 3.8001 0.192998 0
M  V30 3055 H 278.077 3.53051 -1.61172 0
M  V30 3056 H 276.178 3.62725 0.852143 0
M  V30 3057 H 276.291 4.74462 -0.665021 0
M  V30 3058 H 274.655 2.53395 -0.257458 0
M  V30 3059 H 275.438 2.86165 -1.89643 0
M  V30 3060 N 277.883 0.443576 1.51229 0
M  V30 3061 C 279.299 0.0962001 1.5931 0
M  V30 3062 C 279.499 -1.39501 1.45402 0
M  V30 3063 O 278.555 -2.16557 1.29843 0
M  V30 3064 C 279.868 0.621875 2.94199 0
M  V30 3065 C 281.416 0.582865 3.07525 0
M  V30 3066 C 281.891 1.08562 4.44948 0
M  V30 3067 N 283.382 1.04387 4.51284 0
M  V30 3068 C 284.117 1.40368 5.55954 0
M  V30 3069 N 283.613 1.83664 6.68011 0
M  V30 3070 N 285.406 1.32145 5.46346 0
M  V30 3071 H 277.557 1.41376 1.58514 0
M  V30 3072 H 279.82 0.582965 0.747567 0
M  V30 3073 H 279.526 1.66546 3.09767 0
M  V30 3074 H 279.4 0.0502125 3.77167 0
M  V30 3075 H 281.787 -0.451749 2.91622 0
M  V30 3076 H 281.868 1.191 2.26382 0
M  V30 3077 H 281.512 2.11873 4.61598 0
M  V30 3078 H 281.442 0.453956 5.2464 0
M  V30 3079 H 283.933 0.725986 3.70861 0
M  V30 3080 H 284.246 2.0934 7.43906 0
M  V30 3081 H 282.591 1.87596 6.69203 0
M  V30 3082 H 285.782 0.981808 4.57688 0
M  V30 3083 H 285.955 1.60514 6.27805 0
M  V30 3084 N 279.361 -1.56624 0.175154 0
M  V30 3085 C 280.324 -2.16934 -0.739738 0
M  V30 3086 C 281.324 -1.11842 -1.15533 0
M  V30 3087 O 282.514 -1.37335 -1.07167 0
M  V30 3088 C 279.646 -2.75531 -2.00738 0
M  V30 3089 H 280.839 -2.99131 -0.214639 0
M  V30 3090 H 278.392 -1.56123 -0.0744197 0
M  V30 3091 H 279.127 -1.97078 -2.57548 0
M  V30 3092 H 278.912 -3.52444 -1.71831 0
M  V30 3093 H 280.402 -3.21904 -2.66021 0
M  V30 3094 N 280.839 0.0985539 -1.57292 0
M  V30 3095 C 281.749 1.13824 -2.05137 0
M  V30 3096 C 282.765 1.44076 -0.975604 0
M  V30 3097 O 283.941 1.54786 -1.28853 0
M  V30 3098 C 281.006 2.43969 -2.46333 0
M  V30 3099 C 280.067 2.2093 -3.68087 0
M  V30 3100 C 279.3 3.44869 -4.0731 0
M  V30 3101 O 279.523 4.52972 -3.46659 0
M  V30 3102 O 278.457 3.34661 -5.00285 0
M  V30 3103 H 282.283 0.761881 -2.93988 0
M  V30 3104 H 279.868 0.310818 -1.46131 0
M  V30 3105 H 281.75 3.20609 -2.73473 0
M  V30 3106 H 280.425 2.81038 -1.60621 0
M  V30 3107 H 279.332 1.42081 -3.46069 0
M  V30 3108 H 280.665 1.88755 -4.54568 0
M  V30 3109 N 282.317 1.53212 0.369288 0
M  V30 3110 C 283.227 1.82342 1.47609 0
M  V30 3111 C 284.243 0.711532 1.58787 0
M  V30 3112 O 285.419 1.0012 1.74751 0
M  V30 3113 C 282.484 2.00393 2.8292 0
M  V30 3114 C 281.545 3.24297 2.81301 0
M  V30 3115 C 280.778 3.41478 4.10157 0
M  V30 3116 O 281.001 2.63033 5.06132 0
M  V30 3117 O 279.935 4.34817 4.16194 0
M  V30 3118 H 283.761 2.76366 1.25918 0
M  V30 3119 H 281.346 1.38547 0.559034 0
M  V30 3120 H 283.228 2.13859 3.63101 0
M  V30 3121 H 281.903 1.09559 3.04596 0
M  V30 3122 H 280.81 3.16257 1.99831 0
M  V30 3123 H 282.143 4.15041 2.64578 0
M  V30 3124 N 283.795 -0.628877 1.44509 0
M  V30 3125 C 285.041 -1.38863 1.48623 0
M  V30 3126 C 285.396 -1.92038 0.117933 0
M  V30 3127 O 284.689 -1.70853 -0.86716 0
M  V30 3128 C 284.883 -2.56995 2.48371 0
M  V30 3129 C 284.712 -2.15385 3.94765 0
M  V30 3130 C 283.482 -2.02558 4.62924 0
M  V30 3131 C 285.68 -1.74158 4.83915 0
M  V30 3132 N 283.662 -1.54534 5.94132 0
M  V30 3133 C 285.033 -1.37396 6.04584 0
M  V30 3134 C 287.088 -1.61559 4.7096 0
M  V30 3135 C 285.791 -0.892948 7.13736 0
M  V30 3136 C 287.817 -1.14862 5.80139 0
M  V30 3137 C 287.179 -0.790516 6.9995 0
M  V30 3138 H 283.278 -0.502858 0.59888 0
M  V30 3139 H 285.862 -0.72121 1.8085 0
M  V30 3140 H 284.033 -3.21362 2.1813 0
M  V30 3141 H 285.765 -3.23801 2.42766 0
M  V30 3142 H 282.52 -2.23082 4.1777 0
M  V30 3143 H 282.944 -1.32815 6.63844 0
M  V30 3144 H 287.586 -1.87876 3.78764 0
M  V30 3145 H 285.304 -0.617291 8.05739 0
M  V30 3146 H 288.89 -1.05569 5.72142 0
M  V30 3147 H 287.77 -0.434713 7.82994 0
M  V30 3148 N 285.273 -1.31445 -0.869486 0
M  V30 3149 C 286.522 -1.20517 -1.61736 0
M  V30 3150 C 286.835 0.235341 -1.94179 0
M  V30 3151 O 288.041 0.466312 -2.67465 0
M  V30 3152 C 286.497 -2.10982 -2.91573 0
M  V30 3153 C 286.105 -3.60032 -2.66611 0
M  V30 3154 C 287.849 -2.08856 -3.69567 0
M  V30 3155 C 285.756 -4.42503 -3.92358 0
M  V30 3156 H 284.686 -0.447493 -0.606849 0
M  V30 3157 H 287.337 -1.56303 -0.96133 0
M  V30 3158 H 285.719 -1.68095 -3.58553 0
M  V30 3159 H 286.893 -4.11167 -2.08035 0
M  V30 3160 H 285.208 -3.64139 -2.0197 0
M  V30 3161 H 287.805 -2.67716 -4.62852 0
M  V30 3162 H 288.148 -1.07582 -4.02159 0
M  V30 3163 H 288.681 -2.49945 -3.09471 0
M  V30 3164 H 285.42 -5.44533 -3.64916 0
M  V30 3165 H 284.94 -3.96125 -4.50383 0
M  V30 3166 H 286.619 -4.54741 -4.60238 0
M  V30 3167 N 286.751 1.08385 -1.14413 0
M  V30 3168 C 287.661 2.18856 -0.844951 0
M  V30 3169 C 288.677 1.73121 0.174668 0
M  V30 3170 O 289.853 2.014 0.00312857 0
M  V30 3171 C 286.918 3.45155 -0.32696 0
M  V30 3172 C 285.979 4.05513 -1.40916 0
M  V30 3173 C 285.212 5.25784 -0.915793 0
M  V30 3174 O 285.435 5.69884 0.242651 0
M  V30 3175 O 284.369 5.77545 -1.69487 0
M  V30 3176 H 288.195 2.46919 -1.76818 0
M  V30 3177 H 285.78 1.17524 -0.922411 0
M  V30 3178 H 287.662 4.21377 -0.0440211 0
M  V30 3179 H 286.337 3.18668 0.568539 0
M  V30 3180 H 285.244 3.30879 -1.74556 0
M  V30 3181 H 286.577 4.3625 -2.27919 0
M  V30 3182 N 288.23 0.939286 1.26551 0
M  V30 3183 C 289.476 0.586715 1.94128 0
M  V30 3184 C 289.809 -0.8717 1.73537 0
M  V30 3185 O 289.084 -1.62339 1.07127 0
M  V30 3186 C 289.367 0.927497 3.4795 0
M  V30 3187 C 289.22 2.44052 3.77834 0
M  V30 3188 C 290.539 0.441569 4.37879 0
M  V30 3189 H 287.658 0.21463 0.705055 0
M  V30 3190 H 290.3 1.17316 1.49455 0
M  V30 3191 H 288.45 0.428431 3.8613 0
M  V30 3192 H 290.122 3.01216 3.4938 0
M  V30 3193 H 288.365 2.8848 3.23978 0
M  V30 3194 H 289.036 2.62947 4.85348 0
M  V30 3195 H 291.512 0.869448 4.06915 0
M  V30 3196 H 290.388 0.708856 5.44304 0
M  V30 3197 H 290.649 -0.658467 4.37169 0
M  V30 3198 N 289.708 -1.40897 0.706093 0
M  V30 3199 C 290.641 -2.282 -0.00328781 0
M  V30 3200 C 291.619 -1.42816 -0.77732 0
M  V30 3201 O 292.803 -1.72237 -0.765944 0
M  V30 3202 C 289.93 -3.23226 -1.01205 0
M  V30 3203 C 288.976 -4.25222 -0.329955 0
M  V30 3204 S 289.809 -5.27269 0.935298 0
M  V30 3205 C 290.965 -6.25859 -0.0716061 0
M  V30 3206 H 291.198 -2.88016 0.737143 0
M  V30 3207 H 288.731 -1.46191 0.496756 0
M  V30 3208 H 290.689 -3.78503 -1.58888 0
M  V30 3209 H 289.35 -2.62485 -1.72513 0
M  V30 3210 H 288.543 -4.92023 -1.09221 0
M  V30 3211 H 288.145 -3.73595 0.174069 0
M  V30 3212 H 290.437 -6.71204 -0.921521 0
M  V30 3213 H 291.38 -7.0586 0.562765 0
M  V30 3214 H 291.788 -5.62852 -0.431088 0
M  V30 3215 N 291.186 -0.45159 -1.50991 0
M  V30 3216 C 292.435 0.111653 -2.01391 0
M  V30 3217 C 292.748 1.42529 -1.33959 0
M  V30 3218 O 293.954 2.07232 -1.75405 0
M  V30 3219 C 292.41 0.249514 -3.59034 0
M  V30 3220 C 292.018 -1.05453 -4.35412 0
M  V30 3221 C 293.762 0.765762 -4.17536 0
M  V30 3222 C 291.669 -0.881529 -5.84793 0
M  V30 3223 H 290.599 0.0455022 -0.752626 0
M  V30 3224 H 293.25 -0.583524 -1.73975 0
M  V30 3225 H 291.632 1.00803 -3.82955 0
M  V30 3226 H 292.806 -1.82248 -4.23229 0
M  V30 3227 H 291.121 -1.50039 -3.88429 0
M  V30 3228 H 293.718 0.911913 -5.26866 0
M  V30 3229 H 294.061 1.75201 -3.77638 0
M  V30 3230 H 294.594 0.0651744 -3.97747 0
M  V30 3231 H 291.333 -1.84057 -6.29129 0
M  V30 3232 H 290.853 -0.153625 -5.99603 0
M  V30 3233 H 292.532 -0.540363 -6.4474 0
M  V30 3234 N 292.664 1.56529 -0.183458 0
M  V30 3235 C 293.574 2.22144 0.754272 0
M  V30 3236 C 294.59 1.21684 1.24374 0
M  V30 3237 O 295.766 1.54385 1.29333 0
M  V30 3238 C 292.831 2.85884 1.96141 0
M  V30 3239 C 291.892 4.01579 1.51765 0
M  V30 3240 C 291.125 4.6227 2.66725 0
M  V30 3241 O 291.348 4.21865 3.83909 0
M  V30 3242 O 290.282 5.51936 2.40104 0
M  V30 3243 H 294.108 3.02861 0.225527 0
M  V30 3244 H 291.693 1.49331 0.0453032 0
M  V30 3245 H 293.575 3.26253 2.66715 0
M  V30 3246 H 292.25 2.08154 2.47899 0
M  V30 3247 H 291.157 3.65856 0.781049 0
M  V30 3248 H 292.49 4.80938 1.04686 0
M  V30 3249 N 294.142 -0.090211 1.57342 0
M  V30 3250 C 295.419 -0.824761 1.77361 0
M  V30 3251 C 295.799 -1.96698 0.76637 0
M  V30 3252 O 295.147 -2.27586 -0.204179 0
M  V30 3253 C 295.357 -1.31481 3.23286 0
M  V30 3254 C 296.705 -1.75563 3.86604 0
M  V30 3255 O 297.729 -1.41093 3.27065 0
M  V30 3256 O 296.588 -2.39317 4.91314 0
M  V30 3257 H 293.682 -0.393776 0.727234 0
M  V30 3258 H 296.228 -0.0717138 1.69548 0
M  V30 3259 H 295 -0.496671 3.88135 0
M  V30 3260 H 294.623 -2.12973 3.35751 0
M  V30 3261 N 295.62 -1.53406 -0.361157 0
M  V30 3262 C 296.583 -1.79479 -1.42548 0
M  V30 3263 C 297.583 -0.665327 -1.4639 0
M  V30 3264 O 298.773 -0.933549 -1.47073 0
M  V30 3265 C 295.905 -1.92087 -2.8163 0
M  V30 3266 H 297.098 -2.74538 -1.20701 0
M  V30 3267 H 294.651 -1.4455 -0.594546 0
M  V30 3268 H 295.386 -0.991099 -3.08784 0
M  V30 3269 H 295.171 -2.74241 -2.80239 0
M  V30 3270 H 296.661 -2.13836 -3.58697 0
M  V30 3271 N 297.098 0.621204 -1.44841 0
M  V30 3272 C 298.514 0.94048 -1.28946 0
M  V30 3273 C 298.714 2.00154 -0.23249 0
M  V30 3274 O 297.77 2.49651 0.378237 0
M  V30 3275 C 299.083 1.39433 -2.66419 0
M  V30 3276 C 300.631 1.50927 -2.74208 0
M  V30 3277 C 301.106 1.99692 -4.12174 0
M  V30 3278 N 302.597 2.06947 -4.144 0
M  V30 3279 C 303.332 2.45871 -5.1801 0
M  V30 3280 N 302.828 2.83862 -6.31977 0
M  V30 3281 N 304.621 2.46092 -5.05366 0
M  V30 3282 H 296.772 -0.0803548 -2.12248 0
M  V30 3283 H 299.035 0.0266913 -0.947624 0
M  V30 3284 H 298.741 0.688925 -3.44887 0
M  V30 3285 H 298.615 2.36347 -2.93973 0
M  V30 3286 H 301.002 2.20561 -1.96053 0
M  V30 3287 H 301.083 0.523627 -2.50383 0
M  V30 3288 H 300.727 1.30649 -4.90809 0
M  V30 3289 H 300.657 2.99146 -4.33381 0
M  V30 3290 H 303.148 1.80232 -3.32152 0
M  V30 3291 H 303.461 3.12405 -7.0684 0
M  V30 3292 H 301.806 2.8159 -6.35399 0
M  V30 3293 H 304.997 2.1581 -4.15384 0
M  V30 3294 H 305.17 2.76102 -5.86235 0
M  V30 3295 N 298.576 1.31904 0.862503 0
M  V30 3296 C 299.539 1.20131 1.95195 0
M  V30 3297 C 300.539 0.126409 1.60302 0
M  V30 3298 O 301.729 0.376234 1.70089 0
M  V30 3299 C 298.861 0.845691 3.30244 0
M  V30 3300 H 300.054 2.16943 2.07064 0
M  V30 3301 H 297.607 1.15622 1.05172 0
M  V30 3302 H 298.342 -0.120957 3.24074 0
M  V30 3303 H 298.127 1.62276 3.56944 0
M  V30 3304 H 299.617 0.787418 4.10109 0
M  V30 3305 N 300.054 -1.07777 1.14986 0
M  V30 3306 C 301.302 -1.79934 0.920235 0
M  V30 3307 C 301.623 -1.86955 -0.554336 0
M  V30 3308 O 300.893 -1.36731 -1.40291 0
M  V30 3309 H 299.473 -0.666424 0.337473 0
M  V30 3310 H 302.135 -1.3027 1.44968 0
M  V30 3311 H 301.231 -2.82539 1.32583 0
M  V30 3312 N 301.532 -0.945985 -1.26051 0
M  V30 3313 C 302.462 -0.477172 -2.28572 0
M  V30 3314 C 303.443 0.472032 -1.63419 0
M  V30 3315 O 304.628 0.372853 -1.90587 0
M  V30 3316 C 301.758 0.253975 -3.4637 0
M  V30 3317 C 300.712 -0.609135 -4.23643 0
M  V30 3318 C 300.038 0.252252 -5.34105 0
M  V30 3319 C 301.338 -1.8829 -4.8718 0
M  V30 3320 H 303.032 -1.33402 -2.68038 0
M  V30 3321 H 300.578 -0.642904 -1.28852 0
M  V30 3322 H 302.531 0.593016 -4.17207 0
M  V30 3323 H 301.255 1.145 -3.05871 0
M  V30 3324 H 299.914 -0.931138 -3.54578 0
M  V30 3325 H 299.562 1.14278 -4.89846 0
M  V30 3326 H 299.262 -0.32188 -5.86718 0
M  V30 3327 H 300.786 0.586454 -6.07777 0
M  V30 3328 H 302.2 -1.61081 -5.50205 0
M  V30 3329 H 300.597 -2.40199 -5.49931 0
M  V30 3330 H 301.667 -2.59134 -4.09851 0
M  V30 3331 N 303.011 1.40521 -0.713556 0
M  V30 3332 C 303.941 2.33381 -0.0743864 0
M  V30 3333 C 304.922 1.52784 0.747735 0
M  V30 3334 O 306.107 1.81258 0.697071 0
M  V30 3335 C 303.237 3.36748 0.849598 0
M  V30 3336 C 302.191 4.27793 0.133247 0
M  V30 3337 C 301.517 5.21679 1.17281 0
M  V30 3338 C 302.817 5.12415 -1.01134 0
M  V30 3339 H 304.511 2.87081 -0.850007 0
M  V30 3340 H 302.057 1.38034 -0.410201 0
M  V30 3341 H 304.01 4.00648 1.30612 0
M  V30 3342 H 302.734 2.81439 1.65709 0
M  V30 3343 H 301.393 3.65342 -0.303426 0
M  V30 3344 H 301.041 4.62677 1.9733 0
M  V30 3345 H 300.741 5.83435 0.698397 0
M  V30 3346 H 302.265 5.88456 1.62947 0
M  V30 3347 H 303.679 5.69781 -0.634274 0
M  V30 3348 H 302.076 5.83203 -1.41399 0
M  V30 3349 H 303.146 4.48514 -1.84292 0
M  V30 3350 N 304.489 0.459591 1.5075 0
M  V30 3351 C 305.436 -0.340524 2.28274 0
M  V30 3352 C 306.406 -0.997371 1.32822 0
M  V30 3353 O 307.591 -1.01202 1.61749 0
M  V30 3354 C 304.731 -1.42317 3.14388 0
M  V30 3355 C 303.844 -0.782251 4.24859 0
M  V30 3356 C 302.979 -1.84182 4.98247 0
M  V30 3357 C 302.018 -1.18053 6.00608 0
M  V30 3358 N 301.155 -2.18244 6.67319 0
M  V30 3359 H 305.995 0.326899 2.96202 0
M  V30 3360 H 303.532 0.173057 1.46078 0
M  V30 3361 H 305.49 -2.06241 3.62658 0
M  V30 3362 H 304.12 -2.05992 2.4853 0
M  V30 3363 H 303.172 -0.0307404 3.80388 0
M  V30 3364 H 304.484 -0.259663 4.98124 0
M  V30 3365 H 303.638 -2.55714 5.50177 0
M  V30 3366 H 302.377 -2.39819 4.24662 0
M  V30 3367 H 301.382 -0.450776 5.47949 0
M  V30 3368 H 302.607 -0.631202 6.7616 0
M  V30 3369 H 300.553 -2.72919 5.96533 0
M  V30 3370 H 300.47 -1.70938 7.36421 0
M  V30 3371 H 301.738 -2.89191 7.23871 0
M  V30 3372 N 305.967 -1.56429 0.191757 0
M  V30 3373 C 307.195 -2.01867 -0.453586 0
M  V30 3374 C 307.61 -1.07191 -1.5542 0
M  V30 3375 O 306.967 -0.0762108 -1.82341 0
M  V30 3376 C 307.018 -3.47017 -1.013 0
M  V30 3377 O 306.739 -4.38078 0.0437005 0
M  V30 3378 C 308.24 -4.07956 -1.73456 0
M  V30 3379 H 305.46 -0.661211 -0.114199 0
M  V30 3380 H 308.004 -2.02295 0.299483 0
M  V30 3381 H 306.159 -3.47298 -1.71647 0
M  V30 3382 H 306.573 -5.23178 -0.372212 0
M  V30 3383 H 308.047 -5.1138 -2.07833 0
M  V30 3384 H 308.524 -3.51222 -2.63704 0
M  V30 3385 H 309.13 -4.11437 -1.07702 0
M  V30 3386 N 307.445 0.0818655 -1.57387 0
M  V30 3387 C 308.673 0.796108 -1.9097 0
M  V30 3388 C 309.088 1.71626 -0.786757 0
M  V30 3389 O 308.445 1.80908 0.240513 0
M  V30 3390 C 308.496 1.59829 -3.24248 0
M  V30 3391 O 308.217 0.715131 -4.32224 0
M  V30 3392 C 309.718 2.41442 -3.7178 0
M  V30 3393 H 306.938 0.22691 -0.631469 0
M  V30 3394 H 309.482 0.0551439 -2.04426 0
M  V30 3395 H 307.637 2.29163 -3.12351 0
M  V30 3396 H 308.051 1.27205 -5.08841 0
M  V30 3397 H 309.525 2.932 -4.67694 0
M  V30 3398 H 310.002 3.2051 -3.00283 0
M  V30 3399 H 310.608 1.77283 -3.86589 0
M  V30 3400 N 308.923 1.53595 0.353017 0
M  V30 3401 C 310.148 1.7462 1.11904 0
M  V30 3402 C 310.573 0.479721 1.8188 0
M  V30 3403 O 309.931 -0.567066 1.72204 0
M  V30 3404 C 309.979 2.92029 2.11545 0
M  V30 3405 O 309.083 2.61516 3.18878 0
M  V30 3406 H 308.424 0.579531 0.324099 0
M  V30 3407 H 310.954 2.00525 0.406301 0
M  V30 3408 H 310.964 3.18551 2.5493 0
M  V30 3409 H 309.639 3.83888 1.60008 0
M  V30 3410 H 308.216 2.45852 2.80377 0
M  V30 3411 N 310.401 -0.613514 1.45168 0
M  V30 3412 C 311.649 -1.36997 1.48581 0
M  V30 3413 C 311.97 -1.94589 0.126545 0
M  V30 3414 O 311.24 -1.76816 -0.843372 0
M  V30 3415 H 309.82 -0.508558 0.547154 0
M  V30 3416 H 312.482 -0.720853 1.81079 0
M  V30 3417 H 311.578 -2.1924 2.22127 0
M  V30 3418 N 311.879 -1.3236 -0.855495 0
M  V30 3419 C 313.107 -1.2587 -1.64208 0
M  V30 3420 C 313.522 0.173457 -1.88002 0
M  V30 3421 O 312.879 1.11027 -1.44842 0
M  V30 3422 C 312.93 -2.01424 -3.00184 0
M  V30 3423 O 312.651 -3.39051 -2.77445 0
M  V30 3424 C 314.152 -2.01948 -3.94629 0
M  V30 3425 H 311.372 -0.434318 -0.511477 0
M  V30 3426 H 313.916 -1.74469 -1.0668 0
M  V30 3427 H 312.071 -1.56549 -3.5436 0
M  V30 3428 H 312.485 -3.77711 -3.63916 0
M  V30 3429 H 313.959 -2.59297 -4.87308 0
M  V30 3430 H 314.436 -1.00554 -4.27534 0
M  V30 3431 H 315.042 -2.46767 -3.4639 0
M  V30 3432 N 313.357 1.07166 -1.15556 0
M  V30 3433 C 314.32 2.12589 -0.856644 0
M  V30 3434 C 315.32 1.6015 0.14444 0
M  V30 3435 O 316.51 1.7399 -0.0854163 0
M  V30 3436 C 313.642 3.39753 -0.279405 0
M  V30 3437 H 314.835 2.40539 -1.79112 0
M  V30 3438 H 312.388 1.23086 -0.963298 0
M  V30 3439 H 313.123 3.17447 0.663174 0
M  V30 3440 H 312.908 3.79117 -1.00063 0
M  V30 3441 H 314.398 4.17507 -0.0879113 0
M  V30 3442 N 314.835 0.952656 1.25548 0
M  V30 3443 C 315.765 0.489287 2.28316 0
M  V30 3444 C 316.746 -0.463359 1.63667 0
M  V30 3445 O 317.931 -0.36274 1.90782 0
M  V30 3446 C 315.061 -0.235603 3.465 0
M  V30 3447 C 314.015 0.631593 4.23314 0
M  V30 3448 C 313.341 -0.223923 5.34231 0
M  V30 3449 C 314.641 1.90871 4.86174 0
M  V30 3450 H 316.335 1.34822 2.67326 0
M  V30 3451 H 313.881 0.649728 1.28509 0
M  V30 3452 H 315.834 -0.570882 4.17515 0
M  V30 3453 H 314.558 -1.12877 3.06474 0
M  V30 3454 H 313.217 0.949929 3.54079 0
M  V30 3455 H 312.865 -1.11678 4.90446 0
M  V30 3456 H 312.565 0.35299 5.86539 0
M  V30 3457 H 314.089 -0.554214 6.0808 0
M  V30 3458 H 315.503 1.63997 5.49343 0
M  V30 3459 H 313.9 2.43112 5.4865 0
M  V30 3460 H 314.97 2.61304 4.08471 0
M  V30 3461 N 316.313 -1.40141 0.720998 0
M  V30 3462 C 317.263 -2.27949 0.0482544 0
M  V30 3463 C 318.247 -1.43538 -0.727021 0
M  V30 3464 O 319.439 -1.6658 -0.598332 0
M  V30 3465 C 316.568 -3.32126 -0.868729 0
M  V30 3466 C 315.654 -4.24008 -0.0883515 0
M  V30 3467 N 316.045 -4.97154 0.931226 0
M  V30 3468 C 314.343 -4.4485 -0.320105 0
M  V30 3469 C 315.044 -5.64587 1.4006 0
M  V30 3470 N 314.02 -5.38787 0.721752 0
M  V30 3471 H 317.822 -2.81948 0.829609 0
M  V30 3472 H 315.336 -1.52656 0.554067 0
M  V30 3473 H 317.333 -3.93884 -1.36605 0
M  V30 3474 H 315.993 -2.79687 -1.6494 0
M  V30 3475 H 317.004 -5.01 1.31222 0
M  V30 3476 H 313.681 -4.03378 -1.07668 0
M  V30 3477 H 315.071 -6.33175 2.24808 0
M  V30 3478 N 317.792 -0.46758 -1.50504 0
M  V30 3479 C 318.702 0.33382 -2.32213 0
M  V30 3480 C 319.718 0.999323 -1.42441 0
M  V30 3481 O 320.894 0.988068 -1.75497 0
M  V30 3482 C 317.959 1.4035 -3.17022 0
M  V30 3483 C 317.02 0.754961 -4.2261 0
M  V30 3484 C 316.253 1.77367 -5.03365 0
M  V30 3485 O 316.476 2.99976 -4.8515 0
M  V30 3486 O 315.41 1.34744 -5.86624 0
M  V30 3487 H 319.236 -0.334067 -3.01857 0
M  V30 3488 H 316.821 -0.229496 -1.47627 0
M  V30 3489 H 318.703 2.02318 -3.69656 0
M  V30 3490 H 317.378 2.05492 -2.5011 0
M  V30 3491 H 316.285 0.0964244 -3.73976 0
M  V30 3492 H 317.618 0.146545 -4.91982 0
M  V30 3493 N 319.27 1.56325 -0.20005 0
M  V30 3494 C 320.203 2.15234 0.758267 0
M  V30 3495 C 321.181 1.09046 1.20614 0
M  V30 3496 O 322.365 1.37186 1.29276 0
M  V30 3497 C 319.492 2.71524 2.02466 0
M  V30 3498 C 318.538 3.90345 1.71852 0
M  V30 3499 S 319.371 5.28513 0.862249 0
M  V30 3500 C 320.527 5.88227 2.13868 0
M  V30 3501 H 320.76 2.96183 0.2575 0
M  V30 3502 H 318.293 1.54393 0.0150099 0
M  V30 3503 H 320.251 3.04598 2.75191 0
M  V30 3504 H 318.912 1.90607 2.49655 0
M  V30 3505 H 318.105 4.28158 2.65888 0
M  V30 3506 H 317.707 3.58306 1.07205 0
M  V30 3507 H 319.999 6.02891 3.09076 0
M  V30 3508 H 320.942 6.84714 1.80479 0
M  V30 3509 H 321.35 5.16874 2.2694 0
M  V30 3510 N 320.748 -0.0735177 1.57428 0
M  V30 3511 C 321.711 -1.07192 2.02589 0
M  V30 3512 C 322.711 -1.31695 0.922661 0
M  V30 3513 O 323.901 -1.27445 1.18758 0
M  V30 3514 C 321.033 -2.41599 2.40506 0
M  V30 3515 H 322.226 -0.682727 2.92025 0
M  V30 3516 H 319.779 -0.319193 1.53006 0
M  V30 3517 H 320.514 -2.85354 1.5409 0
M  V30 3518 H 320.299 -2.25156 3.21009 0
M  V30 3519 H 321.789 -3.13367 2.76027 0
M  V30 3520 N 322.226 -1.5378 -0.344866 0
M  V30 3521 C 323.473 -1.70963 -1.08526 0
M  V30 3522 C 323.801 -0.472126 -1.88683 0
M  V30 3523 O 323.056 0.546116 -1.87926 0
M  V30 3524 C 323.355 -2.92407 -2.05506 0
M  V30 3525 C 323.021 -4.28066 -1.41671 0
M  V30 3526 C 321.683 -4.64951 -1.2399 0
M  V30 3527 C 324.035 -5.12344 -0.956726 0
M  V30 3528 C 321.363 -5.83733 -0.589277 0
M  V30 3529 C 323.715 -6.3179 -0.320015 0
M  V30 3530 C 322.379 -6.67372 -0.130881 0
M  V30 3531 H 321.649 -0.625598 -0.397124 0
M  V30 3532 H 324.296 -1.87995 -0.36469 0
M  V30 3533 H 322.601 -2.69973 -2.8394 0
M  V30 3534 H 324.298 -3.02895 -2.62784 0
M  V30 3535 H 320.888 -3.99034 -1.56429 0
M  V30 3536 H 325.072 -4.8438 -1.08118 0
M  V30 3537 H 320.328 -6.09877 -0.431344 0
M  V30 3538 H 324.502 -6.96386 0.0445072 0
M  V30 3539 H 322.129 -7.59273 0.375318 0
M  V30 3540 N 323.704 0.605807 -1.45491 0
M  V30 3541 C 324.654 1.71074 -1.50724 0
M  V30 3542 C 325.638 1.5658 -0.37033 0
M  V30 3543 O 326.83 1.65887 -0.617299 0
M  V30 3544 C 323.959 3.0983 -1.47852 0
M  V30 3545 C 323.045 3.29704 -2.66751 0
M  V30 3546 N 323.436 3.19831 -3.91844 0
M  V30 3547 C 321.734 3.60579 -2.62486 0
M  V30 3548 C 322.435 3.41083 -4.71208 0
M  V30 3549 N 321.411 3.65157 -4.02693 0
M  V30 3550 H 325.213 1.61937 -2.45263 0
M  V30 3551 H 322.727 0.80912 -1.40808 0
M  V30 3552 H 324.724 3.89101 -1.49686 0
M  V30 3553 H 323.384 3.20115 -0.543714 0
M  V30 3554 H 324.395 2.98194 -4.23439 0
M  V30 3555 H 321.072 3.7769 -1.77922 0
M  V30 3556 H 322.462 3.38828 -5.80211 0
M  V30 3557 N 325.182 1.32811 0.848464 0
M  V30 3558 C 326.41 1.26739 1.63538 0
M  V30 3559 C 326.825 -0.163484 1.88091 0
M  V30 3560 O 326.182 -1.10258 1.45429 0
M  V30 3561 C 326.233 2.03013 2.99112 0
M  V30 3562 O 325.954 3.40518 2.75643 0
M  V30 3563 C 327.455 2.04038 3.93552 0
M  V30 3564 H 324.675 0.437024 0.509167 0
M  V30 3565 H 327.219 1.75033 1.05753 0
M  V30 3566 H 325.374 1.58426 3.53525 0
M  V30 3567 H 325.788 3.79635 3.61908 0
M  V30 3568 H 327.262 2.61877 4.85926 0
M  V30 3569 H 327.739 1.0282 4.26995 0
M  V30 3570 H 328.345 2.486 3.45077 0
M  V30 3571 N 326.66 -1.06551 1.16123 0
M  V30 3572 C 327.592 -2.13908 0.823171 0
M  V30 3573 C 328.605 -1.61926 -0.16843 0
M  V30 3574 O 329.794 -1.78412 0.055962 0
M  V30 3575 C 326.894 -3.38283 0.204424 0
M  V30 3576 C 326.067 -4.19589 1.23548 0
M  V30 3577 C 325.126 -5.2233 0.637011 0
M  V30 3578 O 324.152 -5.54034 1.30516 0
M  V30 3579 N 325.354 -5.77621 -0.577474 0
M  V30 3580 H 328.119 -2.43508 1.74711 0
M  V30 3581 H 325.68 -1.2253 1.05821 0
M  V30 3582 H 327.672 -4.0416 -0.208909 0
M  V30 3583 H 326.242 -3.06329 -0.623012 0
M  V30 3584 H 325.462 -3.49406 1.82507 0
M  V30 3585 H 326.75 -4.70718 1.93137 0
M  V30 3586 H 326.148 -5.54125 -1.13853 0
M  V30 3587 H 324.705 -6.45087 -0.933053 0
M  V30 3588 N 328.138 -0.959301 -1.25041 0
M  V30 3589 C 329.048 -0.489994 -2.29426 0
M  V30 3590 C 330.064 0.444944 -1.68215 0
M  V30 3591 O 331.24 0.320046 -1.98841 0
M  V30 3592 C 328.305 0.220309 -3.45999 0
M  V30 3593 C 327.366 -0.753418 -4.22637 0
M  V30 3594 C 326.599 -0.076918 -5.33645 0
M  V30 3595 O 326.822 1.13649 -5.58963 0
M  V30 3596 O 325.756 -0.764824 -5.97021 0
M  V30 3597 H 329.582 -1.35755 -2.71669 0
M  V30 3598 H 327.167 -0.725961 -1.30576 0
M  V30 3599 H 329.049 0.619677 -4.16819 0
M  V30 3600 H 327.724 1.06296 -3.0575 0
M  V30 3601 H 326.631 -1.20308 -3.54227 0
M  V30 3602 H 327.964 -1.56423 -4.66683 0
M  V30 3603 N 329.616 1.39756 -0.72842 0
M  V30 3604 C 330.893 1.94574 -0.200079 0
M  V30 3605 C 331.273 1.66569 1.29684 0
M  V30 3606 O 330.621 0.990326 2.05924 0
M  V30 3607 C 330.831 3.45004 -0.526608 0
M  V30 3608 C 332.179 4.21965 -0.472318 0
M  V30 3609 O 333.203 3.53173 -0.463413 0
M  V30 3610 O 332.062 5.44552 -0.461075 0
M  V30 3611 H 329.156 0.826289 -0.0342851 0
M  V30 3612 H 331.702 1.49293 -0.806829 0
M  V30 3613 H 330.474 3.58796 -1.56144 0
M  V30 3614 H 330.097 3.97449 0.109449 0
M  V30 3615 N 331.094 0.475555 1.50254 0
M  V30 3616 C 332.342 -0.077738 2.0195 0
M  V30 3617 C 332.663 -1.39813 1.35931 0
M  V30 3618 O 331.933 -1.89249 0.506123 0
M  V30 3619 H 330.513 -0.031719 0.746326 0
M  V30 3620 H 333.175 0.626995 1.84539 0
M  V30 3621 H 332.271 -0.225995 3.11281 0
M  V30 3622 N 332.573 -1.56217 0.208337 0
M  V30 3623 C 333.798 -2.02782 -0.435222 0
M  V30 3624 C 334.223 -1.08738 -1.53485 0
M  V30 3625 O 333.581 -0.0731855 -1.81152 0
M  V30 3626 C 333.629 -3.47687 -0.956335 0
M  V30 3627 O 332.733 -3.56773 -2.06849 0
M  V30 3628 H 332.074 -0.656403 -0.100158 0
M  V30 3629 H 334.604 -2.02033 0.3231 0
M  V30 3630 H 334.614 -3.87745 -1.26955 0
M  V30 3631 H 333.289 -4.15624 -0.15143 0
M  V30 3632 H 331.866 -3.28597 -1.76292 0
M  V30 3633 N 334.051 0.0651679 -1.57465 0
M  V30 3634 C 334.983 1.10359 -2.00882 0
M  V30 3635 C 335.996 1.346 -0.915788 0
M  V30 3636 O 337.185 1.32723 -1.1936 0
M  V30 3637 C 334.285 2.45312 -2.33828 0
M  V30 3638 C 333.458 2.40934 -3.65061 0
M  V30 3639 C 332.517 3.58047 -3.85602 0
M  V30 3640 O 331.543 3.39175 -4.57109 0
M  V30 3641 N 332.745 4.78637 -3.28462 0
M  V30 3642 H 335.51 0.733807 -2.90578 0
M  V30 3643 H 333.071 0.253719 -1.599 0
M  V30 3644 H 335.063 3.22314 -2.44737 0
M  V30 3645 H 333.633 2.74267 -1.49988 0
M  V30 3646 H 332.853 1.49273 -3.64844 0
M  V30 3647 H 334.141 2.35117 -4.51218 0
M  V30 3648 H 333.539 4.96872 -2.70433 0
M  V30 3649 H 332.096 5.53127 -3.44809 0
M  V30 3650 N 335.529 1.53961 0.336706 0
M  V30 3651 C 336.459 1.85417 1.41925 0
M  V30 3652 C 337.44 0.709856 1.5458 0
M  V30 3653 O 338.625 0.962396 1.68676 0
M  V30 3654 C 335.755 2.06985 2.78881 0
M  V30 3655 C 334.709 3.22813 2.81026 0
M  V30 3656 C 334.035 3.29727 4.20932 0
M  V30 3657 C 335.335 4.60767 2.45949 0
M  V30 3658 H 337.029 2.76079 1.15848 0
M  V30 3659 H 334.575 1.32839 0.555859 0
M  V30 3660 H 336.528 2.27575 3.54665 0
M  V30 3661 H 335.252 1.13061 3.06406 0
M  V30 3662 H 333.911 3.0209 2.07695 0
M  V30 3663 H 333.559 2.33385 4.45579 0
M  V30 3664 H 333.259 4.07566 4.23277 0
M  V30 3665 H 334.783 3.52536 4.98549 0
M  V30 3666 H 336.197 4.81325 3.11446 0
M  V30 3667 H 334.594 5.4106 2.59566 0
M  V30 3668 H 335.664 4.6391 1.41122 0
M  V30 3669 N 337.007 -0.598083 1.45811 0
M  V30 3670 C 338.284 -1.35777 1.40797 0
M  V30 3671 C 338.664 -2.10935 0.083462 0
M  V30 3672 O 338.012 -2.08505 -0.934763 0
M  V30 3673 C 338.222 -2.29666 2.62783 0
M  V30 3674 C 339.57 -2.91977 3.08277 0
M  V30 3675 O 340.594 -2.39984 2.63223 0
M  V30 3676 O 339.453 -3.86376 3.86491 0
M  V30 3677 H 336.547 -0.609291 0.55919 0
M  V30 3678 H 339.093 -0.620379 1.57954 0
M  V30 3679 H 337.865 -1.73454 3.50756 0
M  V30 3680 H 337.488 -3.1077 2.48008 0
M  V30 3681 N 338.485 -1.33259 -0.841409 0
M  V30 3682 C 339.71 -1.2775 -1.63385 0
M  V30 3683 C 340.135 0.149188 -1.87507 0
M  V30 3684 O 339.493 1.10498 -1.43736 0
M  V30 3685 C 339.541 -2.05571 -2.96265 0
M  V30 3686 O 338.645 -1.41257 -3.87453 0
M  V30 3687 H 337.986 -0.439627 -0.497618 0
M  V30 3688 H 340.516 -1.75782 -1.04699 0
M  V30 3689 H 340.526 -2.16241 -3.45982 0
M  V30 3690 H 339.201 -3.09309 -2.7803 0
M  V30 3691 H 337.778 -1.39217 -3.45938 0
M  V30 3692 N 339.963 1.05934 -1.16686 0
M  V30 3693 C 341.379 1.30938 -0.912542 0
M  V30 3694 C 341.579 1.96803 0.432533 0
M  V30 3695 O 340.635 2.23693 1.17123 0
M  V30 3696 C 341.948 2.18649 -2.06429 0
M  V30 3697 C 343.496 2.32055 -2.10047 0
M  V30 3698 C 343.971 3.23122 -3.24586 0
M  V30 3699 N 345.462 3.30706 -3.24327 0
M  V30 3700 C 346.197 4.01273 -4.09594 0
M  V30 3701 N 345.693 4.74332 -5.04956 0
M  V30 3702 N 347.486 3.97361 -3.97569 0
M  V30 3703 H 339.637 0.615777 -2.03278 0
M  V30 3704 H 341.9 0.334077 -0.887185 0
M  V30 3705 H 341.606 1.77534 -3.03603 0
M  V30 3706 H 341.48 3.19252 -2.00894 0
M  V30 3707 H 343.867 2.72415 -1.13464 0
M  V30 3708 H 343.948 1.31107 -2.19647 0
M  V30 3709 H 343.592 2.83477 -4.2143 0
M  V30 3710 H 343.522 4.24057 -3.12223 0
M  V30 3711 H 346.013 2.78644 -2.55276 0
M  V30 3712 H 346.326 5.25716 -5.6643 0
M  V30 3713 H 344.671 4.733 -5.08933 0
M  V30 3714 H 347.862 3.39405 -3.22369 0
M  V30 3715 H 348.035 4.52089 -4.64241 0
M  V30 3716 N 341.441 0.965919 1.2453 0
M  V30 3717 C 342.374 0.4393 2.23932 0
M  V30 3718 C 343.352 -0.485615 1.55179 0
M  V30 3719 O 344.536 -0.417402 1.83821 0
M  V30 3720 C 341.663 -0.366042 3.36716 0
M  V30 3721 C 340.709 0.5009 4.23548 0
M  V30 3722 S 341.542 1.94002 4.99123 0
M  V30 3723 C 342.698 1.14342 6.15367 0
M  V30 3724 H 342.931 1.28167 2.68254 0
M  V30 3725 H 340.464 0.770819 1.33782 0
M  V30 3726 H 342.422 -0.824724 4.0213 0
M  V30 3727 H 341.083 -1.18337 2.90956 0
M  V30 3728 H 340.276 -0.117341 5.03863 0
M  V30 3729 H 339.878 0.89524 3.63127 0
M  V30 3730 H 342.17 0.397572 6.76332 0
M  V30 3731 H 343.113 1.92089 6.81548 0
M  V30 3732 H 343.521 0.668579 5.60527 0
M  V30 3733 N 342.919 -1.39368 0.735821 0
M  V30 3734 C 343.882 -2.2896 0.104874 0
M  V30 3735 C 344.882 -1.46347 -0.666274 0
M  V30 3736 O 346.072 -1.67014 -0.49517 0
M  V30 3737 C 343.204 -3.29857 -0.860656 0
M  V30 3738 H 344.397 -2.86259 0.894205 0
M  V30 3739 H 341.95 -1.48029 0.501704 0
M  V30 3740 H 342.685 -2.77615 -1.67631 0
M  V30 3741 H 342.47 -3.9087 -0.310327 0
M  V30 3742 H 343.96 -3.96893 -1.29867 0
M  V30 3743 N 344.397 -0.483516 -1.5 0
M  V30 3744 C 345.36 0.292965 -2.2732 0
M  V30 3745 C 346.36 0.909499 -1.32608 0
M  V30 3746 O 347.55 0.776745 -1.55924 0
M  V30 3747 C 344.682 1.41854 -3.09984 0
M  V30 3748 H 345.875 -0.385289 -2.97415 0
M  V30 3749 H 343.428 -0.237942 -1.54478 0
M  V30 3750 H 344.163 2.13148 -2.44414 0
M  V30 3751 H 343.948 0.982114 -3.79601 0
M  V30 3752 H 345.438 1.96597 -3.68429 0
M  V30 3753 N 345.875 1.56104 -0.216619 0
M  V30 3754 C 347.124 1.97348 0.416744 0
M  V30 3755 C 347.437 1.10715 1.6125 0
M  V30 3756 O 348.643 1.41836 2.31506 0
M  V30 3757 C 347.099 3.51059 0.792835 0
M  V30 3758 C 346.707 4.46387 -0.379828 0
M  V30 3759 C 348.451 4.01026 1.39208 0
M  V30 3760 C 346.358 5.91397 0.0184223 0
M  V30 3761 H 345.288 0.736942 0.159475 0
M  V30 3762 H 347.939 1.80827 -0.31205 0
M  V30 3763 H 346.321 3.63162 1.57891 0
M  V30 3764 H 347.495 4.46029 -1.15737 0
M  V30 3765 H 345.81 4.06734 -0.891979 0
M  V30 3766 H 348.407 5.0686 1.70286 0
M  V30 3767 H 348.75 3.46587 2.30614 0
M  V30 3768 H 349.283 3.92125 0.669537 0
M  V30 3769 H 346.022 6.49807 -0.862002 0
M  V30 3770 H 345.542 5.94961 0.760384 0
M  V30 3771 H 347.221 6.45455 0.446818 0
M  V30 3772 N 347.353 -0.0568162 1.57498 0
M  V30 3773 C 348.263 -1.08346 2.08083 0
M  V30 3774 C 349.279 -1.41439 1.01346 0
M  V30 3775 O 350.455 -1.51316 1.32912 0
M  V30 3776 C 347.52 -2.37352 2.52715 0
M  V30 3777 C 346.581 -2.11093 3.73816 0
M  V30 3778 C 345.814 -3.33949 4.1631 0
M  V30 3779 O 346.037 -4.43622 3.58547 0
M  V30 3780 O 344.971 -3.21279 5.08983 0
M  V30 3781 H 348.797 -0.683667 2.95905 0
M  V30 3782 H 346.382 -0.271965 1.46904 0
M  V30 3783 H 348.264 -3.13246 2.81877 0
M  V30 3784 H 346.939 -2.76681 1.68016 0
M  V30 3785 H 345.846 -1.32856 3.49714 0
M  V30 3786 H 347.179 -1.76637 4.59413 0
M  V30 3787 N 348.832 -1.54138 -0.328536 0
M  V30 3788 C 349.762 -1.86167 -1.40939 0
M  V30 3789 C 350.743 -0.718044 -1.54202 0
M  V30 3790 O 351.928 -0.971328 -1.68163 0
M  V30 3791 C 349.058 -2.08461 -2.77779 0
M  V30 3792 C 348.012 -3.24299 -2.7931 0
M  V30 3793 C 347.338 -3.31955 -4.19178 0
M  V30 3794 C 348.638 -4.62065 -2.43502 0
M  V30 3795 H 350.332 -2.76689 -1.14383 0
M  V30 3796 H 347.878 -1.33132 -0.548806 0
M  V30 3797 H 349.831 -2.29453 -3.53454 0
M  V30 3798 H 348.555 -1.14684 -3.05802 0
M  V30 3799 H 347.214 -3.03187 -2.0609 0
M  V30 3800 H 346.862 -2.35745 -4.44335 0
M  V30 3801 H 346.562 -4.09805 -4.2111 0
M  V30 3802 H 348.086 -3.55175 -4.96672 0
M  V30 3803 H 349.5 -4.8297 -3.08889 0
M  V30 3804 H 347.897 -5.42429 -2.56693 0
M  V30 3805 H 348.967 -4.64652 -1.38659 0
M  V30 3806 N 350.31 0.590341 -1.46126 0
M  V30 3807 C 351.559 1.34499 -1.50309 0
M  V30 3808 C 351.872 1.94977 -0.156021 0
M  V30 3809 O 353.078 2.71395 -0.0756037 0
M  V30 3810 C 351.534 2.43723 -2.64815 0
M  V30 3811 C 351.142 1.89582 -4.0591 0
M  V30 3812 C 352.886 3.20579 -2.78262 0
M  V30 3813 C 350.793 2.9639 -5.11769 0
M  V30 3814 H 349.723 0.505593 -0.559368 0
M  V30 3815 H 352.374 0.630848 -1.72315 0
M  V30 3816 H 350.756 3.17902 -2.36124 0
M  V30 3817 H 351.93 1.21997 -4.44357 0
M  V30 3818 H 350.245 1.25418 -3.97063 0
M  V30 3819 H 352.842 4.00276 -3.54519 0
M  V30 3820 H 353.185 3.72684 -1.85505 0
M  V30 3821 H 353.718 2.53505 -3.06562 0
M  V30 3822 H 350.457 2.49181 -6.06291 0
M  V30 3823 H 349.977 3.62487 -4.77873 0
M  V30 3824 H 351.656 3.60474 -5.37278 0
M  V30 3825 N 351.788 1.33704 0.83433 0
M  V30 3826 C 352.736 1.24323 1.96587 0
M  V30 3827 C 353.73 0.143659 1.6879 0
M  V30 3828 O 354.936 0.30791 1.77347 0
M  V30 3829 H 351.311 0.385925 0.645419 0
M  V30 3830 H 353.282 2.19978 2.01624 0
M  V30 3831 C 352.031 1.00394 3.32891 0
M  V30 3832 H 351.354 1.84231 3.54822 0
M  V30 3833 H 352.794 0.97862 4.12552 0
M  V30 3834 C 351.253 -0.293047 3.35623 0
M  V30 3835 O 351.783 -1.29823 3.80143 0
M  V30 3836 N 349.989 -0.322174 2.88809 0
M  V30 3837 H 349.536 0.496379 2.52772 0
M  V30 3838 H 349.494 -1.18977 2.91019 0
M  V30 3839 N 353.266 -1.05314 1.17247 0
M  V30 3840 C 354.512 -1.78557 0.961513 0
M  V30 3841 C 354.845 -1.87419 -0.508697 0
M  V30 3842 O 354.12 -1.37307 -1.37757 0
M  V30 3843 C 354.403 -3.22514 1.60176 0
M  V30 3844 C 354.256 -3.21673 3.14399 0
M  V30 3845 C 355.575 -4.20318 1.30463 0
M  V30 3846 H 352.694 -0.6482 0.350723 0
M  V30 3847 H 355.336 -1.23102 1.44727 0
M  V30 3848 H 353.486 -3.69867 1.18871 0
M  V30 3849 H 355.158 -2.82405 3.64753 0
M  V30 3850 H 353.401 -2.60048 3.47214 0
M  V30 3851 H 354.072 -4.23271 3.54324 0
M  V30 3852 H 356.548 -3.81454 1.66229 0
M  V30 3853 H 355.424 -5.19289 1.77848 0
M  V30 3854 H 355.685 -4.41526 0.22521 0
M  V30 3855 N 354.744 -0.972509 -1.24016 0
M  V30 3856 C 355.674 -0.525548 -2.27509 0
M  V30 3857 C 356.655 0.437262 -1.64384 0
M  V30 3858 O 357.84 0.332343 -1.91335 0
M  V30 3859 C 354.97 0.180448 -3.46831 0
M  V30 3860 C 353.924 -0.698859 -4.22256 0
M  V30 3861 C 353.25 0.138903 -5.3452 0
M  V30 3862 C 354.55 -1.98582 -4.83076 0
M  V30 3863 H 356.244 -1.39058 -2.65148 0
M  V30 3864 H 353.79 -0.67009 -1.27459 0
M  V30 3865 H 355.743 0.504387 -4.18371 0
M  V30 3866 H 354.467 1.07987 -3.08231 0
M  V30 3867 H 353.126 -1.00614 -3.52523 0
M  V30 3868 H 352.774 1.03862 -4.9216 0
M  V30 3869 H 352.474 -0.446259 -5.85903 0
M  V30 3870 H 353.998 0.457404 -6.08884 0
M  V30 3871 H 355.412 -1.72715 -5.46665 0
M  V30 3872 H 353.809 -2.5181 -5.44713 0
M  V30 3873 H 354.879 -2.67769 -4.04262 0
M  V30 3874 N 356.222 1.38976 -0.743202 0
M  V30 3875 C 357.638 1.53984 -0.419664 0
M  V30 3876 C 357.838 1.70837 1.0685 0
M  V30 3877 O 356.894 1.7135 1.8546 0
M  V30 3878 C 358.207 2.75287 -1.20985 0
M  V30 3879 C 359.755 2.89129 -1.19889 0
M  V30 3880 C 360.23 4.13381 -1.97181 0
M  V30 3881 N 361.721 4.20437 -1.94389 0
M  V30 3882 C 362.456 5.15547 -2.50996 0
M  V30 3883 N 361.952 6.16395 -3.16274 0
M  V30 3884 N 363.745 5.07822 -2.40984 0
M  V30 3885 H 355.896 1.26285 -1.7078 0
M  V30 3886 H 358.159 0.612689 -0.723406 0
M  V30 3887 H 357.865 2.69204 -2.26323 0
M  V30 3888 H 357.739 3.68184 -0.819759 0
M  V30 3889 H 360.126 2.947 -0.153606 0
M  V30 3890 H 360.207 1.97272 -1.62841 0
M  V30 3891 H 359.851 4.08572 -3.01714 0
M  V30 3892 H 359.781 5.04298 -1.51629 0
M  V30 3893 H 362.272 3.48205 -1.46839 0
M  V30 3894 H 362.585 6.85443 -3.56915 0
M  V30 3895 H 360.93 6.16758 -3.20367 0
M  V30 3896 H 364.121 4.27973 -1.89622 0
M  V30 3897 H 364.294 5.81767 -2.85397 0
M  V30 3898 N 357.7 0.491464 1.49741 0
M  V30 3899 C 359.111 0.0413169 1.86654 0
M  V30 3900 C 359.462 -1.36985 1.40462 0
M  V30 3901 O 358.587 -2.01917 0.778354 0
M  V30 3902 C 359.182 0.0682023 3.38731 0
M  V30 3903 C 357.741 -0.32656 3.74981 0
M  V30 3904 C 356.888 0.444888 2.73708 0
M  V30 3905 H 359.839 0.704733 1.42194 0
M  V30 3906 H 359.86 -0.729322 3.73445 0
M  V30 3907 H 359.372 1.09539 3.72321 0
M  V30 3908 H 357.473 -1.35734 3.46997 0
M  V30 3909 H 357.586 -0.013741 4.79098 0
M  V30 3910 H 355.95 -0.104062 2.54487 0
M  V30 3911 H 356.733 1.47197 3.10142 0
M  V30 3912 N 359.178 -1.55987 0.224894 0
M  V30 3913 C 360.427 -1.97566 -0.406273 0
M  V30 3914 C 360.74 -1.11569 -1.6066 0
M  V30 3915 O 361.946 -1.43062 -2.3075 0
M  V30 3916 C 360.402 -3.51474 -0.774207 0
M  V30 3917 C 360.01 -4.46179 0.403496 0
M  V30 3918 C 361.754 -4.01758 -1.37079 0
M  V30 3919 C 359.661 -5.91399 0.0129412 0
M  V30 3920 H 358.591 -0.737777 -0.155565 0
M  V30 3921 H 361.242 -1.80659 0.321635 0
M  V30 3922 H 359.624 -3.63994 -1.55963 0
M  V30 3923 H 360.798 -4.45409 1.18101 0
M  V30 3924 H 359.113 -4.06255 0.913536 0
M  V30 3925 H 361.71 -5.07756 -1.67596 0
M  V30 3926 H 362.053 -3.47805 -2.28773 0
M  V30 3927 H 362.586 -3.92475 -0.648733 0
M  V30 3928 H 359.325 -6.49341 0.896451 0
M  V30 3929 H 358.845 -5.95356 -0.728821 0
M  V30 3930 H 360.524 -6.45683 -0.412582 0
M  V30 3931 N 360.656 0.0484629 -1.57525 0
M  V30 3932 C 361.902 0.744226 -1.88651 0
M  V30 3933 C 362.235 1.76029 -0.820212 0
M  V30 3934 O 361.51 1.93782 0.166985 0
M  V30 3935 C 361.793 1.43128 -3.30434 0
M  V30 3936 C 361.646 0.43005 -4.47739 0
M  V30 3937 C 362.965 2.37031 -3.70816 0
M  V30 3938 H 360.084 0.269089 -0.68612 0
M  V30 3939 H 362.726 0.00713532 -1.89999 0
M  V30 3940 H 360.876 2.05956 -3.29415 0
M  V30 3941 H 362.548 -0.194816 -4.60888 0
M  V30 3942 H 360.791 -0.252522 -4.33064 0
M  V30 3943 H 361.462 0.948874 -5.43783 0
M  V30 3944 H 363.938 1.84263 -3.73077 0
M  V30 3945 H 362.814 2.82094 -4.70865 0
M  V30 3946 H 363.075 3.22864 -3.02012 0
M  V30 3947 N 362.134 1.5431 0.320358 0
M  V30 3948 C 363.097 1.83195 1.3774 0
M  V30 3949 C 364.097 0.703906 1.44575 0
M  V30 3950 O 365.287 0.972214 1.44546 0
M  V30 3951 C 362.419 1.99487 2.76438 0
M  V30 3952 H 363.612 2.77642 1.1338 0
M  V30 3953 H 361.165 1.46076 0.556012 0
M  V30 3954 H 361.9 1.07262 3.06048 0
M  V30 3955 H 361.685 2.81575 2.7287 0
M  V30 3956 H 363.175 2.23271 3.52902 0
M  V30 3957 N 363.613 -0.582584 1.46437 0
M  V30 3958 C 364.862 -1.337 1.5102 0
M  V30 3959 C 365.175 -1.94891 0.166359 0
M  V30 3960 O 366.381 -2.71351 0.0899954 0
M  V30 3961 C 364.837 -2.42315 2.66104 0
M  V30 3962 C 364.445 -1.87427 4.06909 0
M  V30 3963 C 366.189 -3.19099 2.79958 0
M  V30 3964 C 364.096 -2.93672 5.13333 0
M  V30 3965 H 363.026 -0.502619 0.562041 0
M  V30 3966 H 365.677 -0.621701 1.72647 0
M  V30 3967 H 364.059 -3.16645 2.37807 0
M  V30 3968 H 365.233 -1.19639 4.44998 0
M  V30 3969 H 363.548 -1.2331 3.97723 0
M  V30 3970 H 366.145 -3.9839 3.56636 0
M  V30 3971 H 366.488 -3.71695 1.87479 0
M  V30 3972 H 367.021 -2.51875 3.07902 0
M  V30 3973 H 363.76 -2.45962 6.07604 0
M  V30 3974 H 363.28 -3.59948 4.79789 0
M  V30 3975 H 364.959 -3.5762 5.39182 0
M  V30 3976 N 365.091 -1.34144 -0.827227 0
M  V30 3977 C 366.316 -1.29476 -1.62021 0
M  V30 3978 C 366.741 0.129292 -1.87655 0
M  V30 3979 O 366.099 1.08967 -1.449 0
M  V30 3980 C 366.147 -2.08702 -2.94068 0
M  V30 3981 O 365.251 -1.45359 -3.85933 0
M  V30 3982 H 364.592 -0.444881 -0.492927 0
M  V30 3983 H 367.122 -1.76882 -1.02829 0
M  V30 3984 H 367.132 -2.19898 -3.43669 0
M  V30 3985 H 365.807 -3.12241 -2.74734 0
M  V30 3986 H 364.384 -1.42879 -3.44442 0
M  V30 3987 N 366.569 1.04691 -1.17803 0
M  V30 3988 C 367.799 1.81183 -0.992788 0
M  V30 3989 C 368.207 1.8347 0.462098 0
M  V30 3990 O 367.55 1.2643 1.33271 0
M  V30 3991 C 367.612 3.28363 -1.46349 0
M  V30 3992 C 367.276 3.49749 -2.94151 0
M  V30 3993 C 368.273 3.41456 -3.92051 0
M  V30 3994 C 365.958 3.76548 -3.32441 0
M  V30 3995 C 367.952 3.59656 -5.26238 0
M  V30 3996 C 365.639 3.94396 -4.66792 0
M  V30 3997 C 366.637 3.8595 -5.635 0
M  V30 3998 O 366.325 4.03294 -6.9542 0
M  V30 3999 H 366.057 0.577622 -0.351182 0
M  V30 4000 H 368.611 1.32876 -1.5663 0
M  V30 4001 H 366.841 3.77609 -0.833574 0
M  V30 4002 H 368.53 3.86395 -1.24313 0
M  V30 4003 H 369.296 3.20723 -3.63815 0
M  V30 4004 H 365.175 3.82224 -2.57732 0
M  V30 4005 H 368.719 3.52979 -6.01707 0
M  V30 4006 H 364.616 4.14622 -4.94731 0
M  V30 4007 H 365.384 4.2049 -7.02232 0
M  V30 4008 N 368.047 0.979072 1.23499 0
M  V30 4009 C 369.294 0.647219 1.91878 0
M  V30 4010 C 369.622 -0.819074 1.76413 0
M  V30 4011 O 368.877 -1.60616 1.11808 0
M  V30 4012 C 369.176 0.981932 3.43646 0
M  V30 4013 C 368.842 2.43822 3.79291 0
M  V30 4014 C 367.504 2.83622 3.88731 0
M  V30 4015 C 369.856 3.3828 3.96505 0
M  V30 4016 C 367.184 4.16897 4.12812 0
M  V30 4017 C 369.536 4.71197 4.22085 0
M  V30 4018 C 368.2 5.10758 4.29747 0
M  V30 4019 H 367.47 0.236834 0.702133 0
M  V30 4020 H 370.117 1.23268 1.46551 0
M  V30 4021 H 368.422 0.314365 3.90537 0
M  V30 4022 H 370.119 0.703395 3.94783 0
M  V30 4023 H 366.709 2.11966 3.72516 0
M  V30 4024 H 370.893 3.0871 3.88603 0
M  V30 4025 H 366.149 4.47157 4.16966 0
M  V30 4026 H 370.323 5.44348 4.34348 0
M  V30 4027 H 367.95 6.1405 4.48159 0
M  V30 4028 N 369.525 -1.3858 0.750561 0
M  V30 4029 C 370.455 -2.33102 0.136237 0
M  V30 4030 C 371.436 -1.54713 -0.706965 0
M  V30 4031 O 372.621 -1.83043 -0.648769 0
M  V30 4032 C 369.751 -3.38882 -0.760017 0
M  V30 4033 C 368.705 -4.27995 -0.0197785 0
M  V30 4034 C 368.031 -5.24605 -1.03408 0
M  V30 4035 C 369.331 -5.09554 1.14684 0
M  V30 4036 H 371.025 -2.84726 0.925822 0
M  V30 4037 H 368.571 -1.36898 0.446654 0
M  V30 4038 H 370.524 -4.0397 -1.19943 0
M  V30 4039 H 369.248 -2.85734 -1.58189 0
M  V30 4040 H 367.907 -3.64409 0.400184 0
M  V30 4041 H 367.555 -4.67746 -1.84994 0
M  V30 4042 H 367.255 -5.85081 -0.543464 0
M  V30 4043 H 368.779 -5.9257 -1.47288 0
M  V30 4044 H 370.193 -5.67899 0.785118 0
M  V30 4045 H 368.59 -5.7925 1.56812 0
M  V30 4046 H 369.66 -4.4347 1.96118 0
M  V30 4047 N 371.003 -0.499398 -1.49478 0
M  V30 4048 C 372.249 0.0457576 -2.02748 0
M  V30 4049 C 372.582 1.36793 -1.37846 0
M  V30 4050 O 371.857 1.87596 -0.513601 0
M  V30 4051 C 372.14 0.199986 -3.59544 0
M  V30 4052 C 371.993 -1.1452 -4.34977 0
M  V30 4053 C 373.312 0.94137 -4.29914 0
M  V30 4054 H 370.431 0.0151552 -0.736844 0
M  V30 4055 H 373.073 -0.650498 -1.78518 0
M  V30 4056 H 371.223 0.793007 -3.8032 0
M  V30 4057 H 372.895 -1.77697 -4.25701 0
M  V30 4058 H 371.138 -1.73488 -3.97598 0
M  V30 4059 H 371.809 -0.990607 -5.43039 0
M  V30 4060 H 374.285 0.43844 -4.13784 0
M  V30 4061 H 373.161 1.01812 -5.39375 0
M  V30 4062 H 373.422 1.98471 -3.95046 0
M  V30 4063 N 372.481 1.55866 -0.233164 0
M  V30 4064 C 373.728 1.98603 0.395374 0
M  V30 4065 C 374.056 1.12105 1.58942 0
M  V30 4066 O 373.311 0.168656 1.94972 0
M  V30 4067 C 373.61 3.46856 0.861724 0
M  V30 4068 C 373.276 4.50348 -0.223066 0
M  V30 4069 C 371.938 4.78371 -0.521038 0
M  V30 4070 C 374.29 5.12355 -0.956124 0
M  V30 4071 C 371.618 5.6568 -1.55638 0
M  V30 4072 C 373.97 6.00786 -1.98089 0
M  V30 4073 C 372.634 6.27148 -2.28565 0
M  V30 4074 H 371.904 0.726739 0.144677 0
M  V30 4075 H 374.551 1.88491 -0.338114 0
M  V30 4076 H 372.856 3.5423 1.67418 0
M  V30 4077 H 374.553 3.77302 1.35809 0
M  V30 4078 H 371.143 4.28596 0.0193234 0
M  V30 4079 H 375.327 4.90765 -0.739166 0
M  V30 4080 H 370.583 5.84365 -1.798 0
M  V30 4081 H 374.757 6.4788 -2.55391 0
M  V30 4082 H 372.384 6.94597 -3.08932 0
M  V30 4083 N 373.959 -0.0401083 1.57549 0
M  V30 4084 C 375.184 -0.748931 1.93406 0
M  V30 4085 C 375.609 -1.68686 0.832274 0
M  V30 4086 O 374.967 -1.80047 -0.212818 0
M  V30 4087 C 375.015 -1.4916 3.28304 0
M  V30 4088 O 374.119 -2.6042 3.19774 0
M  V30 4089 H 373.46 -0.202212 0.63246 0
M  V30 4090 H 375.99 0.00112086 2.046 0
M  V30 4091 H 376 -1.86395 3.62934 0
M  V30 4092 H 374.675 -0.80364 4.08062 0
M  V30 4093 H 373.252 -2.25808 2.96758 0
M  V30 4094 N 375.437 -1.54477 -0.31217 0
M  V30 4095 C 376.4 -1.83923 -1.36766 0
M  V30 4096 C 377.4 -0.711563 -1.44199 0
M  V30 4097 O 378.59 -0.979866 -1.44029 0
M  V30 4098 C 375.722 -2.0095 -2.75376 0
M  V30 4099 H 376.915 -2.78239 -1.11906 0
M  V30 4100 H 374.468 -1.46369 -0.548257 0
M  V30 4101 H 375.203 -1.08883 -3.05475 0
M  V30 4102 H 374.988 -2.83018 -2.71373 0
M  V30 4103 H 376.478 -2.2514 -3.51713 0
M  V30 4104 N 376.915 0.57481 -1.46744 0
M  V30 4105 C 377.845 1.69337 -1.60771 0
M  V30 4106 C 378.826 1.63825 -0.457736 0
M  V30 4107 O 380.011 1.8172 -0.684947 0
M  V30 4108 C 377.141 3.0798 -1.60517 0
M  V30 4109 C 376.095 3.28327 -2.74564 0
M  V30 4110 C 375.421 4.67578 -2.59373 0
M  V30 4111 C 376.721 3.15398 -4.16319 0
M  V30 4112 H 378.415 1.57853 -2.54407 0
M  V30 4113 H 375.961 0.75799 -1.22436 0
M  V30 4114 H 377.914 3.86061 -1.68923 0
M  V30 4115 H 376.638 3.20381 -0.634305 0
M  V30 4116 H 375.297 2.52649 -2.65639 0
M  V30 4117 H 374.945 4.76755 -1.60353 0
M  V30 4118 H 374.645 4.82144 -3.35873 0
M  V30 4119 H 376.169 5.47817 -2.69682 0
M  V30 4120 H 377.583 3.83315 -4.26313 0
M  V30 4121 H 375.98 3.41482 -4.93468 0
M  V30 4122 H 377.05 2.12372 -4.3592 0
M  V30 4123 N 378.394 1.34581 0.820102 0
M  V30 4124 C 379.357 1.2628 1.91275 0
M  V30 4125 C 380.357 0.177344 1.59819 0
M  V30 4126 O 381.547 0.430156 1.68806 0
M  V30 4127 C 378.679 0.950327 3.27386 0
M  V30 4128 H 379.872 2.23421 2.00057 0
M  V30 4129 H 377.425 1.1891 1.0144 0
M  V30 4130 H 378.16 -0.0177938 3.24295 0
M  V30 4131 H 377.945 1.73549 3.51601 0
M  V30 4132 H 379.435 0.917492 4.07396 0
M  V30 4133 N 379.872 -1.04064 1.18357 0
M  V30 4134 C 380.802 -2.14001 0.934113 0
M  V30 4135 C 381.783 -1.69616 -0.128186 0
M  V30 4136 O 382.968 -1.94185 0.0244093 0
M  V30 4137 C 380.098 -3.44253 0.459066 0
M  V30 4138 C 379.052 -4.02261 1.46185 0
M  V30 4139 C 378.378 -5.27992 0.844322 0
M  V30 4140 C 379.678 -4.38432 2.83856 0
M  V30 4141 H 381.372 -2.35127 1.85352 0
M  V30 4142 H 378.918 -1.12998 0.892604 0
M  V30 4143 H 380.871 -4.20522 0.271907 0
M  V30 4144 H 379.595 -3.22813 -0.495912 0
M  V30 4145 H 378.254 -3.28074 1.63595 0
M  V30 4146 H 377.902 -5.02862 -0.117845 0
M  V30 4147 H 377.602 -5.67765 1.51384 0
M  V30 4148 H 379.126 -6.06938 0.667693 0
M  V30 4149 H 380.54 -5.05688 2.70098 0
M  V30 4150 H 378.937 -4.89254 3.47491 0
M  V30 4151 H 380.007 -3.4826 3.37406 0
M  V30 4152 N 381.35 -0.985608 -1.22978 0
M  V30 4153 C 382.3 -0.50118 -2.22423 0
M  V30 4154 C 383.284 0.426649 -1.5514 0
M  V30 4155 O 384.476 0.254656 -1.75159 0
M  V30 4156 C 381.605 0.190003 -3.42774 0
M  V30 4157 C 380.691 -0.757703 -4.17276 0
M  V30 4158 N 381.082 -1.90251 -4.68656 0
M  V30 4159 C 379.38 -0.57209 -4.42316 0
M  V30 4160 C 380.081 -2.49676 -5.25392 0
M  V30 4161 N 379.057 -1.78013 -5.13627 0
M  V30 4162 H 382.859 -1.37441 -2.59783 0
M  V30 4163 H 380.373 -0.846941 -1.38567 0
M  V30 4164 H 382.37 0.55439 -4.13197 0
M  V30 4165 H 381.03 1.05946 -3.06929 0
M  V30 4166 H 382.041 -2.28354 -4.64839 0
M  V30 4167 H 378.718 0.251909 -4.16739 0
M  V30 4168 H 380.108 -3.46384 -5.75732 0
M  V30 4169 N 382.828 1.3818 -0.7579 0
M  V30 4170 C 383.738 2.3421 -0.135247 0
M  V30 4171 C 384.754 1.59487 0.695683 0
M  V30 4172 O 385.93 1.91657 0.618832 0
M  V30 4173 C 382.995 3.3862 0.744139 0
M  V30 4174 C 382.056 4.2918 -0.101658 0
M  V30 4175 C 381.289 5.28603 0.735851 0
M  V30 4176 O 381.512 5.35166 1.97366 0
M  V30 4177 O 380.446 6.01707 0.152372 0
M  V30 4178 H 384.272 2.8916 -0.928436 0
M  V30 4179 H 381.857 1.40101 -0.518855 0
M  V30 4180 H 383.739 4.02539 1.2466 0
M  V30 4181 H 382.414 2.86019 1.51575 0
M  V30 4182 H 381.321 3.68407 -0.650167 0
M  V30 4183 H 382.654 4.85048 -0.836024 0
M  V30 4184 N 384.306 0.507319 1.49211 0
M  V30 4185 C 385.256 -0.287112 2.26185 0
M  V30 4186 C 386.24 -0.929983 1.31302 0
M  V30 4187 O 387.432 -0.836538 1.55984 0
M  V30 4188 C 384.561 -1.34718 3.15763 0
M  V30 4189 C 383.647 -0.710235 4.18111 0
M  V30 4190 N 384.038 0.190836 5.0544 0
M  V30 4191 C 382.336 -0.97009 4.35322 0
M  V30 4192 C 383.037 0.55606 5.79036 0
M  V30 4193 N 382.013 -0.0775232 5.43545 0
M  V30 4194 H 385.815 0.406445 2.91076 0
M  V30 4195 H 383.329 0.323814 1.59139 0
M  V30 4196 H 385.326 -1.92982 3.69545 0
M  V30 4197 H 383.986 -2.04235 2.52424 0
M  V30 4198 H 384.997 0.562047 5.14841 0
M  V30 4199 H 381.674 -1.65753 3.83187 0
M  V30 4200 H 383.064 1.2936 6.5933 0
M  V30 4201 N 385.784 -1.5574 0.241426 0
M  V30 4202 C 387.195 -1.84842 -0.262755 0
M  V30 4203 C 387.546 -1.16317 -1.58003 0
M  V30 4204 O 386.671 -0.439653 -2.11887 0
M  V30 4205 C 387.266 -3.35332 -0.483523 0
M  V30 4206 C 385.825 -3.6468 -0.931977 0
M  V30 4207 C 384.972 -2.77299 -0.0061151 0
M  V30 4208 H 387.923 -1.51761 0.464129 0
M  V30 4209 H 387.944 -3.56615 -1.32688 0
M  V30 4210 H 387.456 -3.85178 0.47537 0
M  V30 4211 H 385.557 -3.20307 -1.90353 0
M  V30 4212 H 385.67 -4.72498 -0.792628 0
M  V30 4213 H 384.034 -2.49408 -0.516503 0
M  V30 4214 H 384.817 -3.2995 0.948052 0
M  V30 4215 N 387.262 0.0317525 -1.57568 0
M  V30 4216 C 388.209 1.0332 -2.06382 0
M  V30 4217 C 389.179 1.36082 -0.952414 0
M  V30 4218 O 390.364 1.46466 -1.2228 0
M  V30 4219 C 387.504 2.32989 -2.54578 0
M  V30 4220 C 386.617 2.0641 -3.79498 0
M  V30 4221 C 385.752 3.2993 -4.16317 0
M  V30 4222 C 384.791 2.98893 -5.34162 0
M  V30 4223 N 383.928 4.14857 -5.66426 0
M  V30 4224 H 388.768 0.609982 -2.9169 0
M  V30 4225 H 386.305 0.289573 -1.44222 0
M  V30 4226 H 388.263 3.0875 -2.80587 0
M  V30 4227 H 386.893 2.73039 -1.7219 0
M  V30 4228 H 385.945 1.21158 -3.6059 0
M  V30 4229 H 387.257 1.79513 -4.65378 0
M  V30 4230 H 386.411 4.1406 -4.4344 0
M  V30 4231 H 385.15 3.59938 -3.29083 0
M  V30 4232 H 384.155 2.13164 -5.06795 0
M  V30 4233 H 385.38 2.70165 -6.23047 0
M  V30 4234 H 383.326 4.44821 -4.82151 0
M  V30 4235 H 383.243 3.91374 -6.4681 0
M  V30 4236 H 384.511 4.99868 -5.98124 0
M  V30 4237 N 388.74 1.54641 0.303973 0
M  V30 4238 C 389.97 1.77511 1.05705 0
M  V30 4239 C 390.378 0.533228 1.81531 0
M  V30 4240 O 389.721 -0.506423 1.76582 0
M  V30 4241 C 389.783 2.92779 2.08617 0
M  V30 4242 C 389.447 4.30977 1.52013 0
M  V30 4243 C 390.444 5.11115 0.9517 0
M  V30 4244 C 388.129 4.77571 1.55665 0
M  V30 4245 C 390.123 6.35966 0.427327 0
M  V30 4246 C 387.81 6.02384 1.02841 0
M  V30 4247 C 388.808 6.81417 0.464713 0
M  V30 4248 O 388.496 8.03881 -0.0555283 0
M  V30 4249 H 388.228 0.59579 0.319391 0
M  V30 4250 H 390.782 2.02401 0.349712 0
M  V30 4251 H 389.012 2.63506 2.83022 0
M  V30 4252 H 390.701 3.03252 2.69802 0
M  V30 4253 H 391.467 4.76264 0.916407 0
M  V30 4254 H 387.346 4.16085 1.9848 0
M  V30 4255 H 390.89 6.97599 -0.0133062 0
M  V30 4256 H 386.787 6.36723 1.06084 0
M  V30 4257 H 387.555 8.18479 0.0580522 0
M  V30 4258 N 390.218 -0.567019 1.47046 0
M  V30 4259 C 391.165 -1.67489 1.58796 0
M  V30 4260 C 392.135 -1.60399 0.43144 0
M  V30 4261 O 393.32 -1.79378 0.650233 0
M  V30 4262 C 390.46 -3.05821 1.59899 0
M  V30 4263 C 389.573 -3.2342 2.86397 0
M  V30 4264 C 388.708 -4.52093 2.789 0
M  V30 4265 C 387.747 -4.6309 4.00267 0
M  V30 4266 N 386.884 -5.83106 3.91064 0
M  V30 4267 H 391.724 -1.56785 2.53422 0
M  V30 4268 H 389.261 -0.763896 1.2571 0
M  V30 4269 H 391.219 -3.8591 1.58522 0
M  V30 4270 H 389.849 -3.15384 0.687929 0
M  V30 4271 H 388.901 -2.3683 2.97684 0
M  V30 4272 H 390.213 -3.27412 3.76301 0
M  V30 4273 H 389.367 -5.4043 2.75718 0
M  V30 4274 H 388.106 -4.50565 1.86662 0
M  V30 4275 H 387.111 -3.73168 4.03765 0
M  V30 4276 H 388.336 -4.66386 4.93621 0
M  V30 4277 H 386.282 -5.82546 3.01623 0
M  V30 4278 H 386.199 -5.88434 4.74638 0
M  V30 4279 H 387.467 -6.73831 3.91882 0
M  V30 4280 N 391.696 -1.35014 -0.812953 0
M  V30 4281 C 392.606 -1.2951 -1.95613 0
M  V30 4282 C 393.622 -0.20107 -1.72834 0
M  V30 4283 O 394.798 -0.42932 -1.96771 0
M  V30 4284 C 391.863 -1.06033 -3.30088 0
M  V30 4285 C 390.924 -2.24688 -3.65805 0
M  V30 4286 C 390.157 -2.02322 -4.93864 0
M  V30 4287 O 390.38 -0.986464 -5.61805 0
M  V30 4288 O 389.314 -2.89525 -5.27692 0
M  V30 4289 H 393.14 -2.25705 -2.03202 0
M  V30 4290 H 390.725 -1.15321 -0.949811 0
M  V30 4291 H 392.607 -0.94763 -4.10607 0
M  V30 4292 H 391.282 -0.128852 -3.23443 0
M  V30 4293 H 390.189 -2.41521 -2.85689 0
M  V30 4294 H 391.522 -3.16261 -3.77147 0
M  V30 4295 N 393.175 1.03435 -1.18907 0
M  V30 4296 C 394.421 1.7713 -0.99982 0
M  V30 4297 C 394.776 1.86695 0.465049 0
M  V30 4298 O 394.069 1.36866 1.34083 0
M  V30 4299 C 394.263 3.19792 -1.59586 0
M  V30 4300 C 394.092 3.24134 -3.11717 0
M  V30 4301 C 392.862 3.32398 -3.80578 0
M  V30 4302 C 395.06 3.11625 -4.09138 0
M  V30 4303 N 393.042 3.26055 -5.20155 0
M  V30 4304 C 394.413 3.12855 -5.35277 0
M  V30 4305 C 396.468 2.95713 -4.00572 0
M  V30 4306 C 395.171 2.99805 -6.53842 0
M  V30 4307 C 397.197 2.84011 -5.1874 0
M  V30 4308 C 396.559 2.8589 -6.43775 0
M  V30 4309 H 392.658 0.659683 -0.419931 0
M  V30 4310 H 395.242 1.2317 -1.50789 0
M  V30 4311 H 393.413 3.72085 -1.11389 0
M  V30 4312 H 395.145 3.81819 -1.3415 0
M  V30 4313 H 391.9 3.38392 -3.31342 0
M  V30 4314 H 392.324 3.26307 -5.93172 0
M  V30 4315 H 396.966 2.93086 -3.0473 0
M  V30 4316 H 394.684 3.01184 -7.49876 0
M  V30 4317 H 398.27 2.72744 -5.13909 0
M  V30 4318 H 397.15 2.76931 -7.33675 0
M  V30 4319 N 394.653 0.992116 1.22453 0
M  V30 4320 C 395.583 0.561677 2.26644 0
M  V30 4321 C 396.564 -0.411055 1.65059 0
M  V30 4322 O 397.749 -0.301861 1.9184 0
M  V30 4323 C 394.879 -0.125247 3.47074 0
M  V30 4324 C 393.833 0.765948 4.21091 0
M  V30 4325 C 393.159 -0.0538484 5.34673 0
M  V30 4326 C 394.459 2.06242 4.79856 0
M  V30 4327 H 396.153 1.43259 2.62902 0
M  V30 4328 H 393.699 0.690283 1.26377 0
M  V30 4329 H 395.652 -0.437764 4.1912 0
M  V30 4330 H 394.376 -1.03069 3.0991 0
M  V30 4331 H 393.035 1.0621 3.50878 0
M  V30 4332 H 392.683 -0.960188 4.9375 0
M  V30 4333 H 392.383 0.539415 5.85119 0
M  V30 4334 H 393.907 -0.360477 6.09535 0
M  V30 4335 H 395.321 1.8139 5.43848 0
M  V30 4336 H 393.718 2.60444 5.40638 0
M  V30 4337 H 394.788 2.74167 3.99951 0
M  V30 4338 N 396.131 -1.37776 0.765217 0
M  V30 4339 C 397.547 -1.53297 0.444108 0
M  V30 4340 C 397.747 -1.72515 -1.04119 0
M  V30 4341 O 396.803 -1.74278 -1.82711 0
M  V30 4342 C 398.116 -2.73328 1.25349 0
M  V30 4343 C 399.664 -2.87185 1.24473 0
M  V30 4344 C 400.139 -4.10191 2.03733 0
M  V30 4345 N 401.63 -4.17291 2.01053 0
M  V30 4346 C 402.365 -5.11488 2.59166 0
M  V30 4347 N 401.861 -6.11285 3.26041 0
M  V30 4348 N 403.654 -5.03924 2.49032 0
M  V30 4349 H 395.805 -1.23552 1.72768 0
M  V30 4350 H 398.068 -0.601103 0.733062 0
M  V30 4351 H 397.774 -2.6557 2.30577 0
M  V30 4352 H 397.648 -3.66834 0.87823 0
M  V30 4353 H 400.035 -2.94418 0.20047 0
M  V30 4354 H 400.116 -1.94657 1.65959 0
M  V30 4355 H 399.76 -4.0372 3.08176 0
M  V30 4356 H 399.69 -5.01821 1.59633 0
M  V30 4357 H 402.181 -3.45825 1.5236 0
M  V30 4358 H 402.494 -6.79678 3.67774 0
M  V30 4359 H 400.839 -6.11583 3.30138 0
M  V30 4360 H 404.03 -4.24902 1.96407 0
M  V30 4361 H 404.203 -5.77152 2.94617 0
M  V30 4362 N 397.609 -0.515225 -1.4894 0
M  V30 4363 C 398.834 0.022727 -2.07388 0
M  V30 4364 C 399.259 1.2876 -1.37122 0
M  V30 4365 O 398.617 1.76067 -0.432431 0
M  V30 4366 C 398.665 0.244869 -3.59768 0
M  V30 4367 O 397.769 1.31667 -3.90817 0
M  V30 4368 H 397.11 -0.0325506 -0.663202 0
M  V30 4369 H 399.64 -0.718918 -1.91553 0
M  V30 4370 H 399.65 0.47205 -4.0526 0
M  V30 4371 H 398.325 -0.679194 -4.10317 0
M  V30 4372 H 396.902 1.07331 -3.5712 0
M  V30 4373 N 399.087 1.5561 -0.249682 0
M  V30 4374 C 400.335 1.98618 0.373548 0
M  V30 4375 C 400.656 1.13919 1.58264 0
M  V30 4376 O 399.926 0.222637 1.94631 0
M  V30 4377 H 398.506 0.733571 0.141006 0
M  V30 4378 H 401.168 1.91748 -0.349117 0
M  V30 4379 H 400.264 3.04584 0.680796 0
M  V30 4380 N 400.565 -0.0233959 1.57583 0
M  V30 4381 C 401.513 -1.04063 2.08023 0
M  V30 4382 C 402.507 -1.37084 0.995204 0
M  V30 4383 O 403.713 -1.35923 1.18004 0
M  V30 4384 H 400.088 -0.353144 0.663922 0
M  V30 4385 H 402.059 -0.589453 2.9252 0
M  V30 4386 C 400.808 -2.33123 2.57971 0
M  V30 4387 H 400.131 -2.08577 3.4108 0
M  V30 4388 H 401.571 -3.02632 2.96967 0
M  V30 4389 C 400.03 -3.02483 1.48342 0
M  V30 4390 O 400.56 -3.92541 0.852898 0
M  V30 4391 N 398.766 -2.63909 1.21658 0
M  V30 4392 H 398.313 -1.90758 1.73116 0
M  V30 4393 H 398.271 -3.10633 0.485218 0
M  V30 4394 N 402.043 -1.548 -0.295768 0
M  V30 4395 C 403.268 -1.78653 -1.05346 0
M  V30 4396 C 403.693 -0.546894 -1.79974 0
M  V30 4397 O 403.051 0.502763 -1.7419 0
M  V30 4398 C 403.099 -2.99679 -2.00561 0
M  V30 4399 O 402.203 -2.7317 -3.08953 0
M  V30 4400 H 401.544 -0.59116 -0.302367 0
M  V30 4401 H 404.074 -2.01895 -0.331598 0
M  V30 4402 H 404.084 -3.27793 -2.42932 0
M  V30 4403 H 402.759 -3.89562 -1.4565 0
M  V30 4404 H 401.336 -2.56089 -2.71059 0
M  V30 4405 N 403.521 0.559213 -1.47345 0
M  V30 4406 C 404.937 0.884943 -1.32819 0
M  V30 4407 C 405.137 1.98988 -0.317173 0
M  V30 4408 O 404.193 2.51031 0.272011 0
M  V30 4409 C 405.506 1.28007 -2.72093 0
M  V30 4410 C 407.054 1.39161 -2.80363 0
M  V30 4411 C 407.529 1.82031 -4.20272 0
M  V30 4412 N 409.02 1.89185 -4.22804 0
M  V30 4413 C 409.755 2.2368 -5.27973 0
M  V30 4414 N 409.251 2.56802 -6.43447 0
M  V30 4415 N 411.044 2.24436 -5.15349 0
M  V30 4416 H 403.195 -0.170304 -2.11716 0
M  V30 4417 H 405.458 -0.0135247 -0.947904 0
M  V30 4418 H 405.164 0.542027 -3.47498 0
M  V30 4419 H 405.038 2.23665 -3.03733 0
M  V30 4420 H 407.425 2.12048 -2.05231 0
M  V30 4421 H 407.506 0.41696 -2.52379 0
M  V30 4422 H 407.15 1.09715 -4.95908 0
M  V30 4423 H 407.08 2.80495 -4.45679 0
M  V30 4424 H 409.571 1.65982 -3.39497 0
M  V30 4425 H 409.884 2.82144 -7.19454 0
M  V30 4426 H 408.229 2.54387 -6.46771 0
M  V30 4427 H 411.42 1.97998 -4.24163 0
M  V30 4428 H 411.593 2.50989 -5.97418 0
M  V30 4429 N 404.999 1.35443 0.805782 0
M  V30 4430 C 405.909 1.30546 1.94923 0
M  V30 4431 C 406.925 0.210233 1.72725 0
M  V30 4432 O 408.101 0.43975 1.9654 0
M  V30 4433 C 405.166 1.07782 3.29521 0
M  V30 4434 C 404.227 2.26625 3.64609 0
M  V30 4435 C 403.46 2.04938 4.92784 0
M  V30 4436 O 403.683 1.01624 5.61274 0
M  V30 4437 O 402.617 2.9232 5.26149 0
M  V30 4438 H 406.443 2.26779 2.02002 0
M  V30 4439 H 404.028 1.15823 0.943682 0
M  V30 4440 H 405.91 0.969392 4.10098 0
M  V30 4441 H 404.585 0.146003 3.23371 0
M  V30 4442 H 403.492 2.43033 2.84404 0
M  V30 4443 H 404.825 3.18257 3.75464 0
M  V30 4444 N 406.477 -1.02803 1.19454 0
M  V30 4445 C 407.893 -1.28473 0.946937 0
M  V30 4446 C 408.093 -1.97881 -0.380202 0
M  V30 4447 O 407.149 -2.26719 -1.11151 0
M  V30 4448 C 408.462 -2.13099 2.12154 0
M  V30 4449 C 410.01 -2.26404 2.16126 0
M  V30 4450 C 410.485 -3.14402 3.33039 0
M  V30 4451 N 411.976 -3.21991 3.32981 0
M  V30 4452 C 412.711 -3.90272 4.20089 0
M  V30 4453 N 412.207 -4.60777 5.17355 0
M  V30 4454 N 414 -3.8668 4.07964 0
M  V30 4455 H 406.151 -0.561665 2.04839 0
M  V30 4456 H 408.414 -0.310438 0.89573 0
M  V30 4457 H 408.12 -1.69422 3.08203 0
M  V30 4458 H 407.994 -3.13813 2.09287 0
M  V30 4459 H 410.381 -2.69311 1.20647 0
M  V30 4460 H 410.462 -1.25237 2.23045 0
M  V30 4461 H 410.106 -2.72204 4.28798 0
M  V30 4462 H 410.036 -4.1563 3.23356 0
M  V30 4463 H 412.527 -2.71778 2.62574 0
M  V30 4464 H 412.84 -5.10513 5.80169 0
M  V30 4465 H 411.185 -4.5964 5.21302 0
M  V30 4466 H 414.376 -3.30739 3.31254 0
M  V30 4467 H 414.549 -4.39621 4.76064 0
M  V30 4468 N 407.956 -0.998596 -1.21925 0
M  V30 4469 C 408.866 -0.562736 -2.27751 0
M  V30 4470 C 409.882 0.391203 -1.69545 0
M  V30 4471 O 411.058 0.256625 -1.99758 0
M  V30 4472 C 408.123 0.11012 -3.46525 0
M  V30 4473 C 407.184 -0.887495 -4.20026 0
M  V30 4474 C 406.417 -0.246654 -5.3313 0
M  V30 4475 O 406.64 0.958088 -5.62296 0
M  V30 4476 O 405.574 -0.954374 -5.94286 0
M  V30 4477 H 409.4 -1.44329 -2.67213 0
M  V30 4478 H 406.985 -0.767135 -1.28201 0
M  V30 4479 H 408.867 0.486756 -4.18579 0
M  V30 4480 H 407.542 0.965154 -3.08976 0
M  V30 4481 H 406.449 -1.31517 -3.5022 0
M  V30 4482 H 407.782 -1.71191 -4.6147 0
M  V30 4483 N 409.434 1.37368 -0.772513 0
M  V30 4484 C 410.367 2.27956 -0.105593 0
M  V30 4485 C 411.345 1.46362 0.708295 0
M  V30 4486 O 412.529 1.75695 0.682895 0
M  V30 4487 C 409.656 3.27687 0.856686 0
M  V30 4488 C 408.702 4.26312 0.1267 0
M  V30 4489 S 409.535 5.22206 -1.1858 0
M  V30 4490 C 410.691 6.25488 -0.227081 0
M  V30 4491 H 410.924 2.84171 -0.87372 0
M  V30 4492 H 408.457 1.43654 -0.565939 0
M  V30 4493 H 410.415 3.85653 1.40648 0
M  V30 4494 H 409.076 2.70417 1.59793 0
M  V30 4495 H 408.269 4.96674 0.856212 0
M  V30 4496 H 407.871 3.72339 -0.352117 0
M  V30 4497 H 410.163 6.74836 0.600231 0
M  V30 4498 H 411.106 7.02371 -0.898899 0
M  V30 4499 H 411.514 5.64267 0.162053 0
M  V30 4500 N 410.912 0.523116 1.48665 0
M  V30 4501 C 412.159 -0.0134763 2.02496 0
M  V30 4502 C 412.487 -1.3493 1.40086 0
M  V30 4503 O 411.742 -1.88286 0.533567 0
M  V30 4504 C 412.041 -0.191671 3.56886 0
M  V30 4505 C 411.707 1.06893 4.38046 0
M  V30 4506 C 410.369 1.41443 4.59943 0
M  V30 4507 C 412.721 1.90584 4.85106 0
M  V30 4508 C 410.049 2.59594 5.26144 0
M  V30 4509 C 412.401 3.07907 5.52609 0
M  V30 4510 C 411.065 3.42811 5.72745 0
M  V30 4511 H 410.335 -0.00493133 0.740984 0
M  V30 4512 H 412.982 0.687751 1.78724 0
M  V30 4513 H 411.287 -0.97561 3.79459 0
M  V30 4514 H 412.984 -0.621659 3.96152 0
M  V30 4515 H 409.574 0.789848 4.21259 0
M  V30 4516 H 413.758 1.65203 4.67997 0
M  V30 4517 H 409.014 2.86847 5.39934 0
M  V30 4518 H 413.188 3.73066 5.88043 0
M  V30 4519 H 410.815 4.34462 6.23816 0
M  V30 4520 N 412.39 -1.55475 0.257931 0
M  V30 4521 C 413.636 -1.99502 -0.364266 0
M  V30 4522 C 413.969 -1.146 -1.56782 0
M  V30 4523 O 413.244 -0.211968 -1.93342 0
M  V30 4524 C 413.527 -3.51917 -0.763333 0
M  V30 4525 C 413.38 -4.4758 0.446371 0
M  V30 4526 C 414.699 -4.09742 -1.60623 0
M  V30 4527 H 411.818 -0.725277 -0.130929 0
M  V30 4528 H 414.46 -1.8653 0.361446 0
M  V30 4529 H 412.61 -3.63101 -1.38166 0
M  V30 4530 H 414.282 -4.48362 1.08487 0
M  V30 4531 H 412.525 -4.19947 1.08753 0
M  V30 4532 H 413.196 -5.51862 0.123645 0
M  V30 4533 H 415.672 -4.01727 -1.08418 0
M  V30 4534 H 414.548 -5.16631 -1.85429 0
M  V30 4535 H 414.809 -3.58889 -2.58169 0
M  V30 4536 N 413.868 0.0150385 -1.57593 0
M  V30 4537 C 414.8 1.03912 -2.04291 0
M  V30 4538 C 415.813 1.31618 -0.958146 0
M  V30 4539 O 417.002 1.28859 -1.23522 0
M  V30 4540 C 414.102 2.37749 -2.41514 0
M  V30 4541 C 413.275 2.29198 -3.72541 0
M  V30 4542 C 412.334 3.45598 -3.96797 0
M  V30 4543 O 411.36 3.24461 -4.67668 0
M  V30 4544 N 412.562 4.67945 -3.43523 0
M  V30 4545 H 415.327 0.64099 -2.92765 0
M  V30 4546 H 412.888 0.20272 -1.60626 0
M  V30 4547 H 414.88 3.14364 -2.54867 0
M  V30 4548 H 413.45 2.69357 -1.58637 0
M  V30 4549 H 412.67 1.3759 -3.69408 0
M  V30 4550 H 413.958 2.20642 -4.5847 0
M  V30 4551 H 413.356 4.88017 -2.86104 0
M  V30 4552 H 411.913 5.41878 -3.62232 0
M  V30 4553 N 415.346 1.54954 0.287554 0
M  V30 4554 C 416.256 1.8991 1.37736 0
M  V30 4555 C 417.272 0.794701 1.54792 0
M  V30 4556 O 418.448 1.09243 1.69198 0
M  V30 4557 C 415.513 2.15108 2.71899 0
M  V30 4558 C 414.574 3.38752 2.63715 0
M  V30 4559 C 413.807 3.62739 3.91479 0
M  V30 4560 O 414.03 2.89492 4.91478 0
M  V30 4561 O 412.964 4.56267 3.92561 0
M  V30 4562 H 416.79 2.82652 1.11092 0
M  V30 4563 H 414.375 1.41315 0.484807 0
M  V30 4564 H 416.257 2.32806 3.51254 0
M  V30 4565 H 414.932 1.25551 2.9836 0
M  V30 4566 H 413.839 3.26405 1.82786 0
M  V30 4567 H 415.172 4.28483 2.42205 0
M  V30 4568 N 416.824 -0.551391 1.4764 0
M  V30 4569 C 418.07 -1.31024 1.54792 0
M  V30 4570 C 418.403 -1.9304 0.211967 0
M  V30 4571 O 417.678 -1.78175 -0.77999 0
M  V30 4572 C 417.961 -2.41593 2.67029 0
M  V30 4573 C 417.814 -1.84408 4.10261 0
M  V30 4574 C 419.133 -3.43488 2.75143 0
M  V30 4575 H 416.252 -0.475031 0.563485 0
M  V30 4576 H 418.894 -0.616454 1.79722 0
M  V30 4577 H 417.044 -3.00772 2.45904 0
M  V30 4578 H 418.716 -1.29445 4.42766 0
M  V30 4579 H 416.959 -1.15051 4.18265 0
M  V30 4580 H 417.63 -2.64367 4.84576 0
M  V30 4581 H 420.106 -2.94236 2.94218 0
M  V30 4582 H 418.982 -4.18274 3.55441 0
M  V30 4583 H 419.243 -4.02703 1.82435 0
M  V30 4584 N 418.302 -1.35869 -0.798587 0
M  V30 4585 C 419.718 -1.16082 -1.09532 0
M  V30 4586 C 419.918 0.0213124 -2.01489 0
M  V30 4587 O 418.974 0.689488 -2.42904 0
M  V30 4588 C 420.287 -2.46748 -1.7186 0
M  V30 4589 C 421.835 -2.53028 -1.84244 0
M  V30 4590 C 422.31 -3.83758 -2.49988 0
M  V30 4591 N 423.801 -3.85053 -2.57465 0
M  V30 4592 C 424.536 -4.8294 -3.09122 0
M  V30 4593 N 424.032 -5.91217 -3.61157 0
M  V30 4594 N 425.825 -4.70369 -3.0775 0
M  V30 4595 H 417.976 -2.11571 -0.187461 0
M  V30 4596 H 420.239 -0.936726 -0.145765 0
M  V30 4597 H 419.945 -3.33471 -1.11759 0
M  V30 4598 H 419.819 -2.61883 -2.71472 0
M  V30 4599 H 422.206 -1.66729 -2.43486 0
M  V30 4600 H 422.287 -2.418 -0.834643 0
M  V30 4601 H 421.931 -4.70459 -1.91393 0
M  V30 4602 H 421.861 -3.92278 -3.5132 0
M  V30 4603 H 424.352 -3.06822 -2.20609 0
M  V30 4604 H 424.665 -6.61892 -3.98896 0
M  V30 4605 H 423.01 -5.94899 -3.59333 0
M  V30 4606 H 426.201 -3.84914 -2.66381 0
M  V30 4607 H 426.374 -5.46816 -3.47701 0
M  V30 4608 N 419.78 1.02168 -1.19998 0
M  V30 4609 C 421.196 1.27969 -0.953737 0
M  V30 4610 C 421.396 1.98079 0.369703 0
M  V30 4611 O 420.452 2.27306 1.09947 0
M  V30 4612 C 421.765 2.11971 -2.13281 0
M  V30 4613 C 423.313 2.25255 -2.17323 0
M  V30 4614 C 423.788 3.12632 -3.34702 0
M  V30 4615 N 425.279 3.2022 -3.34684 0
M  V30 4616 C 426.014 3.88039 -4.22153 0
M  V30 4617 N 425.51 4.58027 -5.19791 0
M  V30 4618 N 427.303 3.84511 -4.10009 0
M  V30 4619 H 419.454 0.550794 -2.05134 0
M  V30 4620 H 421.717 0.305683 -0.897364 0
M  V30 4621 H 421.423 1.67785 -3.09097 0
M  V30 4622 H 421.297 3.12699 -2.10949 0
M  V30 4623 H 423.684 2.68667 -1.22073 0
M  V30 4624 H 423.765 1.24053 -2.23706 0
M  V30 4625 H 423.409 2.69926 -4.30235 0
M  V30 4626 H 423.339 4.13909 -3.25556 0
M  V30 4627 H 425.83 2.70382 -2.64012 0
M  V30 4628 H 426.143 5.07429 -5.82868 0
M  V30 4629 H 424.488 4.56869 -5.23733 0
M  V30 4630 H 427.679 3.28978 -3.33003 0
M  V30 4631 H 427.852 4.3709 -4.78389 0
M  V30 4632 N 421.258 1.00505 1.21394 0
M  V30 4633 C 422.488 0.705584 1.94178 0
M  V30 4634 C 422.896 -0.735846 1.74304 0
M  V30 4635 O 422.239 -1.50954 1.04683 0
M  V30 4636 C 422.301 0.94689 3.46806 0
M  V30 4637 C 421.965 2.37517 3.90429 0
M  V30 4638 C 422.962 3.35539 3.97127 0
M  V30 4639 C 420.647 2.71284 4.22742 0
M  V30 4640 C 422.641 4.65395 4.3553 0
M  V30 4641 C 420.328 4.01356 4.60822 0
M  V30 4642 C 421.326 4.98223 4.67186 0
M  V30 4643 O 421.014 6.25969 5.04399 0
M  V30 4644 H 420.746 0.259216 0.624326 0
M  V30 4645 H 423.3 1.34592 1.55159 0
M  V30 4646 H 421.53 0.249386 3.85895 0
M  V30 4647 H 423.219 0.640804 4.0081 0
M  V30 4648 H 423.985 3.10786 3.7234 0
M  V30 4649 H 419.864 1.96581 4.16985 0
M  V30 4650 H 423.408 5.41002 4.40412 0
M  V30 4651 H 419.305 4.25893 4.85063 0
M  V30 4652 H 420.073 6.30085 5.22431 0
M  V30 4653 N 422.737 -1.36956 0.779787 0
M  V30 4654 C 423.967 -2.03459 0.358877 0
M  V30 4655 C 424.375 -1.58939 -1.02641 0
M  V30 4656 O 423.718 -0.769777 -1.66794 0
M  V30 4657 C 423.78 -3.5796 0.332393 0
M  V30 4658 C 423.444 -4.25644 1.66362 0
M  V30 4659 C 424.441 -4.49205 2.61746 0
M  V30 4660 C 422.126 -4.63313 1.94027 0
M  V30 4661 C 424.12 -5.09503 3.82996 0
M  V30 4662 C 421.807 -5.2333 3.15546 0
M  V30 4663 C 422.805 -5.46363 4.0985 0
M  V30 4664 O 422.493 -6.05122 5.29228 0
M  V30 4665 H 422.225 -0.659767 0.147254 0
M  V30 4666 H 424.779 -1.76111 1.05708 0
M  V30 4667 H 423.009 -3.84388 -0.422237 0
M  V30 4668 H 424.698 -4.05852 -0.0625389 0
M  V30 4669 H 425.464 -4.20508 2.41657 0
M  V30 4670 H 421.343 -4.44715 1.21448 0
M  V30 4671 H 424.887 -5.27397 4.56617 0
M  V30 4672 H 420.784 -5.51451 3.35517 0
M  V30 4673 H 421.552 -6.23595 5.30161 0
M  V30 4674 N 424.215 -0.530993 -1.48385 0
M  V30 4675 C 425.626 -0.0907905 -1.86479 0
M  V30 4676 C 425.977 1.33213 -1.44044 0
M  V30 4677 O 425.102 1.99783 -0.831615 0
M  V30 4678 C 425.697 -0.157987 -3.38431 0
M  V30 4679 C 424.256 0.227026 -3.75715 0
M  V30 4680 C 423.403 -0.5173 -2.72432 0
M  V30 4681 H 426.354 -0.742186 -1.40276 0
M  V30 4682 H 426.375 0.630053 -3.75247 0
M  V30 4683 H 425.887 -1.19372 -3.69286 0
M  V30 4684 H 423.988 1.26486 -3.50474 0
M  V30 4685 H 424.101 -0.113288 -4.78966 0
M  V30 4686 H 422.465 0.0365527 -2.54674 0
M  V30 4687 H 423.248 -1.55368 -3.0613 0
M  V30 4688 N 425.693 1.55336 -0.266172 0
M  V30 4689 C 426.94 1.99397 0.353158 0
M  V30 4690 C 427.268 1.15451 1.56529 0
M  V30 4691 O 426.523 0.209974 1.9457 0
M  V30 4692 C 426.822 3.48606 0.787957 0
M  V30 4693 C 426.488 4.49773 -0.318541 0
M  V30 4694 C 425.15 4.77158 -0.62239 0
M  V30 4695 C 427.502 5.10212 -1.06459 0
M  V30 4696 C 424.83 5.62251 -1.67602 0
M  V30 4697 C 427.182 5.96449 -2.10788 0
M  V30 4698 C 425.846 6.22158 -2.41817 0
M  V30 4699 H 425.116 0.729644 0.12923 0
M  V30 4700 H 427.763 1.87732 -0.37802 0
M  V30 4701 H 426.068 3.57701 1.59866 0
M  V30 4702 H 427.765 3.80098 1.27775 0
M  V30 4703 H 424.355 4.2854 -0.0715925 0
M  V30 4704 H 428.539 4.89086 -0.843098 0
M  V30 4705 H 423.795 5.80419 -1.92155 0
M  V30 4706 H 427.969 6.42317 -2.69076 0
M  V30 4707 H 425.596 6.87888 -3.23596 0
M  V30 4708 N 427.171 -0.0066808 1.57599 0
M  V30 4709 C 428.419 -0.691552 1.899 0
M  V30 4710 C 428.74 -1.74682 0.866672 0
M  V30 4711 O 428.01 -1.95661 -0.0968189 0
M  V30 4712 H 426.59 -0.258416 0.700878 0
M  V30 4713 H 429.252 0.0326655 1.94873 0
M  V30 4714 H 428.348 -1.16702 2.8946 0
M  V30 4715 N 428.649 -1.55105 -0.279332 0
M  V30 4716 C 430.06 -1.66186 -0.850832 0
M  V30 4717 C 430.411 -0.584707 -1.87285 0
M  V30 4718 O 429.536 0.274919 -2.14647 0
M  V30 4719 C 430.131 -3.01264 -1.55001 0
M  V30 4720 C 428.69 -3.14394 -2.06963 0
M  V30 4721 C 427.837 -2.61959 -0.909536 0
M  V30 4722 H 430.788 -1.58602 -0.0558235 0
M  V30 4723 H 430.809 -2.93899 -2.41669 0
M  V30 4724 H 430.321 -3.7964 -0.805931 0
M  V30 4725 H 428.422 -2.4078 -2.84352 0
M  V30 4726 H 428.535 -4.20867 -2.28928 0
M  V30 4727 H 426.899 -2.18957 -1.30116 0
M  V30 4728 H 427.682 -3.42833 -0.179062 0
M  V30 4729 N 430.127 0.543554 -1.4793 0
M  V30 4730 C 431.374 1.30008 -1.55255 0
M  V30 4731 C 431.702 1.93245 -0.220612 0
M  V30 4732 O 430.957 1.79141 0.787843 0
M  V30 4733 C 431.256 2.42078 -2.62932 0
M  V30 4734 C 430.922 1.96583 -4.0579 0
M  V30 4735 C 429.584 1.83893 -4.44676 0
M  V30 4736 C 431.936 1.62034 -4.95373 0
M  V30 4737 C 429.264 1.34969 -5.70964 0
M  V30 4738 C 431.616 1.14577 -6.22137 0
M  V30 4739 C 430.28 1.00493 -6.59892 0
M  V30 4740 H 429.55 0.475735 -0.568117 0
M  V30 4741 H 432.197 0.608075 -1.81589 0
M  V30 4742 H 430.502 3.16892 -2.30406 0
M  V30 4743 H 432.199 3.00236 -2.65818 0
M  V30 4744 H 428.789 2.07407 -3.75074 0
M  V30 4745 H 432.973 1.70705 -4.66019 0
M  V30 4746 H 428.229 1.2274 -5.98953 0
M  V30 4747 H 432.403 0.869109 -6.90955 0
M  V30 4748 H 430.03 0.623624 -7.57638 0
M  V30 4749 N 431.605 1.3629 0.791371 0
M  V30 4750 C 432.535 1.33137 1.91825 0
M  V30 4751 C 433.516 0.203168 1.68882 0
M  V30 4752 O 434.701 0.400509 1.90025 0
M  V30 4753 C 431.831 1.11793 3.28816 0
M  V30 4754 C 430.785 2.21417 3.66277 0
M  V30 4755 C 430.111 1.85218 5.01596 0
M  V30 4756 C 431.411 3.63489 3.75064 0
M  V30 4757 H 433.105 2.2743 1.9472 0
M  V30 4758 H 430.651 1.09479 0.935437 0
M  V30 4759 H 432.604 1.08222 4.07266 0
M  V30 4760 H 431.328 0.139501 3.26302 0
M  V30 4761 H 429.987 2.2411 2.90121 0
M  V30 4762 H 429.635 0.859544 4.95602 0
M  V30 4763 H 429.335 2.58611 5.27631 0
M  V30 4764 H 430.859 1.832 5.82469 0
M  V30 4765 H 432.273 3.63034 4.43711 0
M  V30 4766 H 430.67 4.35771 4.12582 0
M  V30 4767 H 431.74 3.98536 2.76219 0
M  V30 4768 N 433.083 -1.0153 1.20538 0
M  V30 4769 C 434.331 -1.74803 1.01432 0
M  V30 4770 C 434.652 -1.8963 -0.454456 0
M  V30 4771 O 433.922 -1.43975 -1.32846 0
M  V30 4772 H 432.502 -0.647598 0.372324 0
M  V30 4773 H 435.164 -1.22402 1.5167 0
M  V30 4774 H 434.26 -2.75114 1.47373 0
M  V30 4775 N 434.561 -1.01147 -1.20859 0
M  V30 4776 C 435.524 -0.582224 -2.21682 0
M  V30 4777 C 436.524 0.344887 -1.57058 0
M  V30 4778 O 437.714 0.134281 -1.73682 0
M  V30 4779 C 434.846 0.150496 -3.40568 0
M  V30 4780 H 436.039 -1.47408 -2.61172 0
M  V30 4781 H 433.592 -0.800695 -1.34233 0
M  V30 4782 H 434.327 1.0575 -3.06574 0
M  V30 4783 H 434.112 -0.515444 -3.88697 0
M  V30 4784 H 435.602 0.438344 -4.15293 0
M  V30 4785 N 436.039 1.36541 -0.78704 0
M  V30 4786 C 436.969 2.32659 -0.197992 0
M  V30 4787 C 437.95 1.56533 0.665697 0
M  V30 4788 O 439.135 1.84698 0.60001 0
M  V30 4789 C 436.265 3.40778 0.669901 0
M  V30 4790 C 435.219 4.27897 -0.0937039 0
M  V30 4791 C 434.545 5.27163 0.894629 0
M  V30 4792 C 435.845 5.06334 -1.28154 0
M  V30 4793 H 437.539 2.82171 -1.00099 0
M  V30 4794 H 435.085 1.35665 -0.482793 0
M  V30 4795 H 437.038 4.07008 1.09191 0
M  V30 4796 H 435.762 2.89827 1.50558 0
M  V30 4797 H 434.421 3.6322 -0.49666 0
M  V30 4798 H 434.069 4.72486 1.72527 0
M  V30 4799 H 433.769 5.86317 0.388149 0
M  V30 4800 H 435.293 5.96266 1.31525 0
M  V30 4801 H 436.707 5.65617 -0.93541 0
M  V30 4802 H 435.104 5.74888 -1.72115 0
M  V30 4803 H 436.174 4.38114 -2.07807 0
M  V30 4804 N 437.518 0.538854 1.48102 0
M  V30 4805 C 438.764 0.00801365 2.02798 0
M  V30 4806 C 439.097 -1.3309 1.41424 0
M  V30 4807 O 438.372 -1.86169 0.563158 0
M  V30 4808 C 438.655 -0.104589 3.59948 0
M  V30 4809 C 438.508 1.26012 4.31788 0
M  V30 4810 C 439.827 -0.827055 4.32259 0
M  V30 4811 H 436.946 0.00438624 0.736987 0
M  V30 4812 H 439.588 0.6976 1.7673 0
M  V30 4813 H 437.738 -0.691893 3.82289 0
M  V30 4814 H 439.41 1.88922 4.2084 0
M  V30 4815 H 437.653 1.83968 3.92859 0
M  V30 4816 H 438.324 1.13424 5.40221 0
M  V30 4817 H 440.8 -0.328578 4.14801 0
M  V30 4818 H 439.676 -0.87476 5.41885 0
M  V30 4819 H 439.937 -1.87927 4.0017 0
M  V30 4820 N 438.996 -1.55193 0.274407 0
M  V30 4821 C 439.943 -2.225 -0.613374 0
M  V30 4822 C 440.913 -1.19823 -1.15029 0
M  V30 4823 O 442.098 -1.48362 -1.19973 0
M  V30 4824 C 439.238 -2.94927 -1.79199 0
M  V30 4825 C 438.351 -4.12322 -1.28899 0
M  V30 4826 C 437.486 -4.72394 -2.42934 0
M  V30 4827 C 436.525 -5.81984 -1.89634 0
M  V30 4828 N 435.662 -6.36123 -2.9714 0
M  V30 4829 H 440.502 -2.97982 -0.032756 0
M  V30 4830 H 438.039 -1.47099 -0.00440146 0
M  V30 4831 H 439.997 -3.35134 -2.48478 0
M  V30 4832 H 438.627 -2.2187 -2.34465 0
M  V30 4833 H 437.679 -3.7724 -0.489327 0
M  V30 4834 H 438.991 -4.91355 -0.858587 0
M  V30 4835 H 438.145 -5.15317 -3.20208 0
M  V30 4836 H 436.884 -3.92636 -2.8929 0
M  V30 4837 H 435.889 -5.38511 -1.1084 0
M  V30 4838 H 437.114 -6.6361 -1.44215 0
M  V30 4839 H 435.06 -5.59259 -3.42878 0
M  V30 4840 H 434.977 -7.10427 -2.58515 0
M  V30 4841 H 436.245 -6.83704 -3.74391 0
M  V30 4842 N 440.474 -0.00167713 -1.576 0
M  V30 4843 C 441.421 0.989195 -2.08527 0
M  V30 4844 C 442.391 1.34031 -0.981065 0
M  V30 4845 O 443.576 1.43839 -1.2536 0
M  V30 4846 C 440.716 2.27537 -2.59463 0
M  V30 4847 C 439.829 1.98314 -3.83791 0
M  V30 4848 C 438.964 3.21025 -4.23222 0
M  V30 4849 C 438.003 2.87495 -5.40382 0
M  V30 4850 N 437.14 4.02749 -5.75098 0
M  V30 4851 H 441.98 0.547973 -2.92919 0
M  V30 4852 H 439.517 0.258917 -1.44803 0
M  V30 4853 H 441.475 3.02729 -2.87073 0
M  V30 4854 H 440.105 2.69325 -1.77943 0
M  V30 4855 H 439.157 1.13482 -3.63078 0
M  V30 4856 H 440.469 1.69601 -4.69081 0
M  V30 4857 H 439.623 4.04561 -4.52123 0
M  V30 4858 H 438.362 3.52877 -3.36644 0
M  V30 4859 H 437.367 2.02367 -5.11202 0
M  V30 4860 H 438.592 2.56889 -6.28637 0
M  V30 4861 H 436.538 4.34494 -4.91478 0
M  V30 4862 H 436.455 3.77566 -6.54966 0
M  V30 4863 H 437.723 4.87068 -6.08592 0
M  V30 4864 N 441.952 1.55251 0.271103 0
M  V30 4865 C 443.229 1.66664 1.02384 0
M  V30 4866 C 443.609 0.534363 2.04225 0
M  V30 4867 O 442.957 -0.465337 2.23712 0
M  V30 4868 C 443.167 3.05961 1.67895 0
M  V30 4869 C 444.515 3.63772 2.18986 0
M  V30 4870 O 445.539 3.08606 1.77878 0
M  V30 4871 O 444.398 4.60429 2.94393 0
M  V30 4872 H 441.492 0.676957 0.475035 0
M  V30 4873 H 444.038 1.67589 0.26681 0
M  V30 4874 H 442.81 3.79815 0.941071 0
M  V30 4875 H 442.433 3.08943 2.5028 0
M  V30 4876 N 443.43 -0.535701 1.48216 0
M  V30 4877 C 444.677 -1.29183 1.55942 0
M  V30 4878 C 445.005 -1.93125 0.230857 0
M  V30 4879 O 444.26 -1.79556 -0.778331 0
M  V30 4880 C 444.559 -2.4068 2.64212 0
M  V30 4881 C 444.225 -1.94428 4.06827 0
M  V30 4882 C 442.887 -1.81532 4.45645 0
M  V30 4883 C 445.239 -1.59405 4.96225 0
M  V30 4884 C 442.567 -1.31939 5.71672 0
M  V30 4885 C 444.919 -1.11276 6.22736 0
M  V30 4886 C 443.583 -0.969924 6.60416 0
M  V30 4887 H 442.853 -0.472715 0.570632 0
M  V30 4888 H 445.5 -0.598437 1.81909 0
M  V30 4889 H 443.805 -3.15666 2.32083 0
M  V30 4890 H 445.502 -2.98822 2.67407 0
M  V30 4891 H 442.092 -2.05415 3.76168 0
M  V30 4892 H 446.276 -1.68231 4.66917 0
M  V30 4893 H 441.532 -1.19562 5.99596 0
M  V30 4894 H 445.706 -0.832453 6.91407 0
M  V30 4895 H 443.333 -0.583436 7.57958 0
M  V30 4896 N 444.908 -1.36708 -0.784132 0
M  V30 4897 C 446.154 -1.31426 -1.54451 0
M  V30 4898 C 446.487 0.10476 -1.93917 0
M  V30 4899 O 445.762 1.05934 -1.6312 0
M  V30 4900 C 446.045 -2.24189 -2.818 0
M  V30 4901 C 445.898 -3.74813 -2.48667 0
M  V30 4902 C 447.217 -2.15626 -3.83658 0
M  V30 4903 H 444.336 -0.478739 -0.560337 0
M  V30 4904 H 446.978 -1.67305 -0.900498 0
M  V30 4905 H 445.128 -1.93722 -3.36755 0
M  V30 4906 H 446.8 -4.15823 -1.99722 0
M  V30 4907 H 445.043 -3.93989 -1.81535 0
M  V30 4908 H 445.714 -4.35138 -3.39646 0
M  V30 4909 H 448.19 -2.42456 -3.38163 0
M  V30 4910 H 447.066 -2.82694 -4.70506 0
M  V30 4911 H 447.327 -1.14522 -4.27009 0
M  V30 4912 N 446.386 1.0089 -1.21074 0
M  V30 4913 C 447.632 1.7497 -1.03717 0
M  V30 4914 C 447.987 1.8764 0.425344 0
M  V30 4915 O 447.28 1.39679 1.3115 0
M  V30 4916 C 447.474 3.16335 -1.66334 0
M  V30 4917 C 447.303 3.17449 -3.18522 0
M  V30 4918 C 446.073 3.2425 -3.87543 0
M  V30 4919 C 448.271 3.02877 -4.15656 0
M  V30 4920 N 446.253 3.14949 -5.26954 0
M  V30 4921 C 447.624 3.0143 -5.41793 0
M  V30 4922 C 449.679 2.8715 -4.06755 0
M  V30 4923 C 448.382 2.85869 -6.60054 0
M  V30 4924 C 450.408 2.72944 -5.24648 0
M  V30 4925 C 449.77 2.72171 -6.49694 0
M  V30 4926 H 445.869 0.650627 -0.43383 0
M  V30 4927 H 448.453 1.19944 -1.53367 0
M  V30 4928 H 446.624 3.69638 -1.19256 0
M  V30 4929 H 448.356 3.78888 -1.42219 0
M  V30 4930 H 445.111 3.31288 -3.38446 0
M  V30 4931 H 445.535 3.13651 -5.9996 0
M  V30 4932 H 450.177 2.86557 -3.10878 0
M  V30 4933 H 447.895 2.8521 -7.56096 0
M  V30 4934 H 451.481 2.61782 -5.19578 0
M  V30 4935 H 450.361 2.61307 -7.39384 0
M  V30 4936 N 447.864 1.01787 1.20321 0
M  V30 4937 C 448.812 0.58254 2.25187 0
M  V30 4938 C 449.806 -0.379359 1.65098 0
M  V30 4939 O 451.012 -0.249142 1.78267 0
M  V30 4940 H 447.387 0.170078 0.732514 0
M  V30 4941 H 449.358 1.47788 2.59232 0
M  V30 4942 C 448.107 -0.0620885 3.47645 0
M  V30 4943 H 447.43 0.669069 3.94162 0
M  V30 4944 H 448.87 -0.329784 4.22716 0
M  V30 4945 C 447.329 -1.3053 3.10586 0
M  V30 4946 O 447.859 -2.39848 3.22236 0
M  V30 4947 N 446.065 -1.18988 2.65123 0
M  V30 4948 H 445.612 -0.300341 2.55843 0
M  V30 4949 H 445.57 -2.02267 2.40698 0
M  V30 4950 N 449.342 -1.36122 0.79427 0
M  V30 4951 C 450.29 -2.31871 0.184023 0
M  V30 4952 C 451.284 -1.56041 -0.659365 0
M  V30 4953 O 452.49 -1.71266 -0.553906 0
M  V30 4954 H 448.865 -0.750896 0.0407373 0
M  V30 4955 H 450.836 -2.80898 1.00693 0
M  V30 4956 C 449.585 -3.41324 -0.662813 0
M  V30 4957 H 448.908 -3.99793 -0.0231944 0
M  V30 4958 H 450.348 -4.10629 -1.05639 0
M  V30 4959 C 448.807 -2.83308 -1.82313 0
M  V30 4960 O 449.337 -2.75863 -2.91997 0
M  V30 4961 N 447.543 -2.40529 -1.63077 0
M  V30 4962 H 447.09 -2.46785 -0.738591 0
M  V30 4963 H 447.048 -2.02059 -2.40872 0
M  V30 4964 N 450.82 -0.546701 -1.47814 0
M  V30 4965 C 452.06 -0.0209604 -2.04389 0
M  V30 4966 C 452.424 1.29993 -1.413 0
M  V30 4967 O 453.625 1.91273 -1.8886 0
M  V30 4968 C 451.896 0.0812844 -3.57308 0
M  V30 4969 S 453.455 0.55467 -4.3528 0
M  V30 4970 H 450.273 -0.0200865 -0.710716 0
M  V30 4971 H 452.875 -0.731055 -1.81317 0
M  V30 4972 H 451.579 -0.884616 -4.00753 0
M  V30 4973 H 451.11 0.815253 -3.8486 0
M  V30 4974 H 453.125 1.81627 -4.61764 0
M  V30 4975 N 452.299 1.55045 -0.282633 0
M  V30 4976 C 453.209 2.26491 0.61147 0
M  V30 4977 C 454.225 1.29348 1.16384 0
M  V30 4978 O 455.401 1.62298 1.19253 0
M  V30 4979 C 452.466 2.97779 1.77563 0
M  V30 4980 C 451.527 4.10418 1.25919 0
M  V30 4981 C 450.76 4.78297 2.36786 0
M  V30 4982 O 450.983 4.45426 3.56303 0
M  V30 4983 O 449.917 5.66089 2.04517 0
M  V30 4984 H 453.743 3.03683 0.0324615 0
M  V30 4985 H 451.328 1.49317 -0.0497576 0
M  V30 4986 H 453.21 3.42554 2.45427 0
M  V30 4987 H 451.885 2.23498 2.34159 0
M  V30 4988 H 450.792 3.70082 0.546797 0
M  V30 4989 H 452.125 4.86622 0.738887 0
M  V30 4990 N 453.777 0.010035 1.57597 0
M  V30 4991 C 455.024 -0.6727 1.91 0
M  V30 4992 C 455.352 -1.73219 0.884614 0
M  V30 4993 O 454.607 -1.95395 -0.109215 0
M  V30 4994 C 454.906 -1.34434 3.31153 0
M  V30 4995 C 454.572 -0.417083 4.48967 0
M  V30 4996 C 453.234 -0.161809 4.80928 0
M  V30 4997 C 455.586 0.220753 5.20732 0
M  V30 4998 C 452.914 0.739426 5.82022 0
M  V30 4999 C 455.266 1.10993 6.22787 0
M  V30 5000 C 453.93 1.37428 6.532 0
M  V30 5001 H 453.2 -0.246158 0.698918 0
M  V30 5002 H 455.847 0.0677145 1.9138 0
M  V30 5003 H 454.152 -2.15905 3.26944 0
M  V30 5004 H 455.849 -1.87883 3.54261 0
M  V30 5005 H 452.439 -0.626217 4.24001 0
M  V30 5006 H 456.623 0.0365643 4.96287 0
M  V30 5007 H 451.879 0.952139 6.03941 0
M  V30 5008 H 456.053 1.61046 6.77523 0
M  V30 5009 H 453.68 2.0743 7.31353 0
M  V30 5010 N 455.255 -1.55392 -0.262866 0
M  V30 5011 C 456.202 -1.88966 -1.32516 0
M  V30 5012 C 457.172 -0.742187 -1.48596 0
M  V30 5013 O 458.357 -0.99439 -1.62839 0
M  V30 5014 C 455.497 -2.17592 -2.67858 0
M  V30 5015 C 454.61 -3.45061 -2.59917 0
M  V30 5016 C 453.745 -3.63336 -3.87505 0
M  V30 5017 C 452.784 -4.84462 -3.74116 0
M  V30 5018 N 451.921 -4.99342 -4.93561 0
M  V30 5019 H 456.761 -2.79566 -1.03184 0
M  V30 5020 H 454.298 -1.38404 -0.498285 0
M  V30 5021 H 456.256 -2.3219 -3.46617 0
M  V30 5022 H 454.886 -1.30215 -2.95371 0
M  V30 5023 H 453.938 -3.38881 -1.72812 0
M  V30 5024 H 455.25 -4.3396 -2.45926 0
M  V30 5025 H 454.404 -3.77807 -4.74707 0
M  V30 5026 H 453.143 -2.72641 -4.04374 0
M  V30 5027 H 452.148 -4.69985 -2.85297 0
M  V30 5028 H 453.373 -5.76603 -3.58757 0
M  V30 5029 H 451.319 -4.1158 -5.10821 0
M  V30 5030 H 451.236 -5.82303 -4.82141 0
M  V30 5031 H 452.504 -5.18208 -5.82306 0
M  V30 5032 N 456.733 0.527833 -1.48498 0
M  V30 5033 C 457.68 1.6322 -1.6318 0
M  V30 5034 C 458.65 1.59199 -0.473815 0
M  V30 5035 O 459.835 1.77591 -0.697563 0
M  V30 5036 C 456.975 3.01474 -1.67951 0
M  V30 5037 C 456.088 3.15713 -2.94871 0
M  V30 5038 C 455.223 4.44539 -2.90789 0
M  V30 5039 C 454.262 4.52315 -4.12404 0
M  V30 5040 N 453.399 5.72533 -4.06387 0
M  V30 5041 H 458.239 1.50011 -2.57489 0
M  V30 5042 H 455.776 0.730298 -1.27691 0
M  V30 5043 H 457.734 3.81572 -1.68698 0
M  V30 5044 H 456.364 3.1345 -0.771306 0
M  V30 5045 H 455.416 2.28854 -3.03859 0
M  V30 5046 H 456.728 3.1732 -3.8485 0
M  V30 5047 H 455.882 5.3293 -2.89949 0
M  V30 5048 H 454.621 4.45457 -1.98542 0
M  V30 5049 H 453.626 3.62331 -4.13517 0
M  V30 5050 H 454.851 4.53134 -5.05812 0
M  V30 5051 H 452.797 5.74344 -3.16962 0
M  V30 5052 H 452.714 5.75643 -4.90073 0
M  V30 5053 H 453.982 6.63204 -4.0961 0
M  V30 5054 N 458.211 1.37122 0.776871 0
M  V30 5055 C 459.459 1.31787 1.53221 0
M  V30 5056 C 459.78 -0.0987589 1.9475 0
M  V30 5057 O 459.05 -1.0417 1.65908 0
M  V30 5058 H 457.63 0.484839 0.568278 0
M  V30 5059 H 460.292 1.71556 0.924917 0
M  V30 5060 H 459.388 1.95355 2.43398 0
M  V30 5061 N 459.689 -1.00246 1.21608 0
M  V30 5062 C 460.917 -1.77631 1.06089 0
M  V30 5063 C 461.332 -1.84746 -0.38916 0
M  V30 5064 O 460.689 -1.31068 -1.26994 0
M  V30 5065 C 460.74 -3.21415 1.65453 0
M  V30 5066 O 460.461 -3.14703 3.04785 0
M  V30 5067 C 461.962 -4.15289 1.55079 0
M  V30 5068 H 459.182 -0.558162 0.37242 0
M  V30 5069 H 461.726 -1.26093 1.60999 0
M  V30 5070 H 459.881 -3.70053 1.14629 0
M  V30 5071 H 460.295 -4.05056 3.33212 0
M  V30 5072 H 461.769 -5.13965 2.01355 0
M  V30 5073 H 462.246 -4.36279 0.505665 0
M  V30 5074 H 462.852 -3.72543 2.05163 0
M  V30 5075 N 461.167 -1.02423 -1.1978 0
M  V30 5076 C 462.392 -0.7373 -1.93852 0
M  V30 5077 C 462.817 0.696923 -1.74713 0
M  V30 5078 O 462.175 1.48056 -1.04638 0
M  V30 5079 C 462.223 -1.08783 -3.438 0
M  V30 5080 O 461.327 -0.20383 -4.11896 0
M  V30 5081 H 460.668 -0.27284 -0.605355 0
M  V30 5082 H 463.198 -1.36966 -1.51992 0
M  V30 5083 H 463.208 -1.04276 -3.9445 0
M  V30 5084 H 461.883 -2.13274 -3.57053 0
M  V30 5085 H 460.46 -0.307091 -3.71633 0
M  V30 5086 N 462.645 1.35699 -0.801477 0
M  V30 5087 C 463.891 1.99208 -0.380022 0
M  V30 5088 C 464.224 1.63445 1.04878 0
M  V30 5089 O 463.499 0.895223 1.72673 0
M  V30 5090 C 463.782 3.55755 -0.557708 0
M  V30 5091 C 463.635 4.01332 -2.03107 0
M  V30 5092 C 464.954 4.40096 0.0197968 0
M  V30 5093 H 462.073 0.723667 -0.139552 0
M  V30 5094 H 464.715 1.60928 -1.01006 0
M  V30 5095 H 462.865 3.88494 -0.0213741 0
M  V30 5096 H 464.537 3.79026 -2.62939 0
M  V30 5097 H 462.78 3.52429 -2.52936 0
M  V30 5098 H 463.451 5.10234 -2.1063 0
M  V30 5099 H 465.927 4.13786 -0.438179 0
M  V30 5100 H 464.803 5.48735 -0.134477 0
M  V30 5101 H 465.064 4.2786 1.11303 0
M  V30 5102 N 464.123 0.554532 1.47522 0
M  V30 5103 C 465.053 -0.182974 2.32782 0
M  V30 5104 C 466.034 -0.911377 1.43624 0
M  V30 5105 O 467.219 -0.892366 1.72483 0
M  V30 5106 C 464.349 -1.21513 3.25349 0
M  V30 5107 C 463.303 -0.603355 4.23726 0
M  V30 5108 C 462.629 -1.73995 5.05598 0
M  V30 5109 C 463.929 0.441121 5.20434 0
M  V30 5110 H 465.623 0.52882 2.94693 0
M  V30 5111 H 463.169 0.255759 1.41711 0
M  V30 5112 H 465.122 -1.73922 3.83835 0
M  V30 5113 H 463.846 -1.95683 2.61487 0
M  V30 5114 H 462.505 -0.10059 3.66462 0
M  V30 5115 H 462.153 -2.47063 4.38143 0
M  V30 5116 H 461.853 -1.3364 5.72201 0
M  V30 5117 H 463.377 -2.26735 5.66942 0
M  V30 5118 H 464.791 0.00319931 5.733 0
M  V30 5119 H 463.188 0.763402 5.95224 0
M  V30 5120 H 464.258 1.33799 4.66075 0
M  V30 5121 N 465.601 -1.54893 0.290851 0
M  V30 5122 C 466.531 -2.26103 -0.583084 0
M  V30 5123 C 467.512 -1.25684 -1.14619 0
M  V30 5124 O 468.697 -1.54436 -1.17741 0
M  V30 5125 C 465.827 -2.99409 -1.75987 0
M  V30 5126 C 464.781 -4.0689 -1.32758 0
M  V30 5127 C 464.107 -4.67856 -2.58872 0
M  V30 5128 C 465.407 -5.20215 -0.46624 0
M  V30 5129 H 467.101 -2.99398 0.0108214 0
M  V30 5130 H 464.647 -1.43998 0.00664468 0
M  V30 5131 H 466.6 -3.47943 -2.37727 0
M  V30 5132 H 465.324 -2.23675 -2.37985 0
M  V30 5133 H 463.983 -3.59191 -0.733299 0
M  V30 5134 H 463.631 -3.88772 -3.19163 0
M  V30 5135 H 463.331 -5.40438 -2.30653 0
M  V30 5136 H 464.855 -5.19147 -3.21433 0
M  V30 5137 H 466.269 -5.64704 -0.989047 0
M  V30 5138 H 464.666 -5.99455 -0.27826 0
M  V30 5139 H 465.736 -4.82198 0.511173 0
M  V30 5140 N 467.08 -0.0183926 -1.57589 0
M  V30 5141 C 468.357 0.700621 -1.82622 0
M  V30 5142 C 468.737 1.90951 -0.90005 0
M  V30 5143 O 468.085 2.28452 0.0469145 0
M  V30 5144 C 468.295 1.08899 -3.31575 0
M  V30 5145 C 469.643 1.48514 -3.9778 0
M  V30 5146 O 470.667 1.18227 -3.36007 0
M  V30 5147 O 469.526 2.04903 -5.06633 0
M  V30 5148 H 466.62 0.342743 -0.752633 0
M  V30 5149 H 469.166 -0.0452548 -1.6964 0
M  V30 5150 H 467.938 0.228113 -3.90635 0
M  V30 5151 H 467.561 1.89338 -3.49624 0
M  V30 5152 N 468.558 1.5553 0.254621 0
M  V30 5153 C 469.488 1.9268 1.31897 0
M  V30 5154 C 470.469 0.790797 1.506 0
M  V30 5155 O 471.654 1.05045 1.63337 0
M  V30 5156 C 468.784 2.21477 2.67517 0
M  V30 5157 C 467.738 3.37256 2.63519 0
M  V30 5158 C 467.064 3.51576 4.02862 0
M  V30 5159 C 468.364 4.73157 2.21179 0
M  V30 5160 H 470.058 2.81832 1.01051 0
M  V30 5161 H 467.604 1.35599 0.484662 0
M  V30 5162 H 469.557 2.46055 3.42104 0
M  V30 5163 H 468.281 1.29144 2.99982 0
M  V30 5164 H 466.94 3.12675 1.9139 0
M  V30 5165 H 466.588 2.56676 4.32581 0
M  V30 5166 H 466.288 4.2943 4.01078 0
M  V30 5167 H 467.812 3.78467 4.79161 0
M  V30 5168 H 469.226 4.97158 2.85494 0
M  V30 5169 H 467.623 5.54058 2.30521 0
M  V30 5170 H 468.693 4.70739 1.16332 0
M  V30 5171 N 470.036 -0.519951 1.48776 0
M  V30 5172 C 471.266 -1.29783 1.60748 0
M  V30 5173 C 471.674 -1.87253 0.27072 0
M  V30 5174 O 471.017 -1.67628 -0.751438 0
M  V30 5175 C 471.079 -2.47984 2.60277 0
M  V30 5176 C 470.743 -2.11526 4.051 0
M  V30 5177 C 471.74 -1.66608 4.92481 0
M  V30 5178 C 469.425 -2.21742 4.50706 0
M  V30 5179 C 471.419 -1.32384 6.23501 0
M  V30 5180 C 469.106 -1.87129 5.81744 0
M  V30 5181 C 470.104 -1.42523 6.67964 0
M  V30 5182 O 469.792 -1.0837 7.96562 0
M  V30 5183 H 469.524 -0.400562 0.544542 0
M  V30 5184 H 472.078 -0.632879 1.95407 0
M  V30 5185 H 470.308 -3.17493 2.2076 0
M  V30 5186 H 471.997 -3.10036 2.61978 0
M  V30 5187 H 472.763 -1.58178 4.58481 0
M  V30 5188 H 468.642 -2.55415 3.83776 0
M  V30 5189 H 472.186 -0.974949 6.90754 0
M  V30 5190 H 468.083 -1.95204 6.15277 0
M  V30 5191 H 468.851 -1.21681 8.09405 0
M  V30 5192 N 471.514 -1.37532 -0.769588 0
M  V30 5193 C 472.762 -1.32597 -1.5252 0
M  V30 5194 C 473.083 0.0884294 -1.94799 0
M  V30 5195 O 472.353 1.03289 -1.66458 0
M  V30 5196 H 470.933 -0.487846 -0.565699 0
M  V30 5197 H 473.595 -1.72044 -0.915806 0
M  V30 5198 H 472.691 -1.96643 -2.42359 0
M  V30 5199 N 472.992 0.995999 -1.22138 0
M  V30 5200 C 474.22 1.77066 -1.07029 0
M  V30 5201 C 474.635 1.8495 0.379357 0
M  V30 5202 O 473.992 1.3174 1.26297 0
M  V30 5203 C 474.043 3.20533 -1.67155 0
M  V30 5204 O 473.764 3.13082 -3.06449 0
M  V30 5205 C 475.265 4.14461 -1.5728 0
M  V30 5206 H 472.485 0.556179 -0.375374 0
M  V30 5207 H 475.029 1.25238 -1.61666 0
M  V30 5208 H 473.184 3.6944 -1.16589 0
M  V30 5209 H 473.598 4.03283 -3.35355 0
M  V30 5210 H 475.072 5.1289 -2.04078 0
M  V30 5211 H 475.549 4.36005 -0.528795 0
M  V30 5212 H 476.155 3.71449 -2.07136 0
M  V30 5213 N 474.47 1.03057 1.19235 0
M  V30 5214 C 475.418 0.606391 2.24557 0
M  V30 5215 C 476.412 -0.361826 1.65491 0
M  V30 5216 O 477.618 -0.23022 1.78522 0
M  V30 5217 H 473.993 0.177838 0.730669 0
M  V30 5218 H 475.964 1.50529 2.5765 0
M  V30 5219 C 474.713 -0.0252127 3.47691 0
M  V30 5220 H 474.036 0.710838 3.9343 0
M  V30 5221 H 475.476 -0.284931 4.23042 0
M  V30 5222 C 473.935 -1.27229 3.11953 0
M  V30 5223 O 474.465 -2.36416 3.24762 0
M  V30 5224 N 472.671 -1.16169 2.6637 0
M  V30 5225 H 472.218 -0.273189 2.56147 0
M  V30 5226 H 472.176 -1.99703 2.42829 0
M  V30 5227 N 475.948 -1.35272 0.808662 0
M  V30 5228 C 476.898 -2.27181 0.193124 0
M  V30 5229 C 477.882 -1.47871 -0.634265 0
M  V30 5230 O 479.074 -1.70048 -0.491182 0
M  V30 5231 C 476.203 -3.36979 -0.655751 0
M  V30 5232 C 475.289 -4.23712 0.181481 0
M  V30 5233 N 475.68 -4.90225 1.24551 0
M  V30 5234 C 473.978 -4.45985 -0.0365493 0
M  V30 5235 C 474.679 -5.54537 1.75682 0
M  V30 5236 N 473.655 -5.33107 1.06294 0
M  V30 5237 H 477.457 -2.76101 1.00724 0
M  V30 5238 H 474.971 -1.48823 0.650029 0
M  V30 5239 H 476.968 -4.01774 -1.11279 0
M  V30 5240 H 475.628 -2.89611 -1.46819 0
M  V30 5241 H 476.639 -4.91641 1.62818 0
M  V30 5242 H 473.316 -4.09409 -0.817964 0
M  V30 5243 H 474.706 -6.17597 2.64621 0
M  V30 5244 N 477.426 -0.562348 -1.47226 0
M  V30 5245 C 478.703 0.0256985 -1.95583 0
M  V30 5246 C 479.083 1.48032 -1.50498 0
M  V30 5247 O 478.431 2.15973 -0.746181 0
M  V30 5248 C 478.641 -0.125129 -3.48776 0
M  V30 5249 C 479.989 0.0175728 -4.24596 0
M  V30 5250 O 481.013 -0.0529341 -3.56161 0
M  V30 5251 O 479.872 0.170145 -5.46235 0
M  V30 5252 H 476.966 0.0612565 -0.824728 0
M  V30 5253 H 479.512 -0.629233 -1.57603 0
M  V30 5254 H 478.284 -1.13715 -3.74412 0
M  V30 5255 H 477.907 0.567178 -3.93534 0
M  V30 5256 N 478.904 1.54736 -0.299062 0
M  V30 5257 C 480.315 1.8569 0.193971 0
M  V30 5258 C 480.666 1.22101 1.53577 0
M  V30 5259 O 479.791 0.51799 2.10109 0
M  V30 5260 C 480.386 3.36895 0.358733 0
M  V30 5261 C 478.945 3.67887 0.795986 0
M  V30 5262 C 478.092 2.77131 -0.096807 0
M  V30 5263 H 481.043 1.49934 -0.520134 0
M  V30 5264 H 481.064 3.61294 1.19361 0
M  V30 5265 H 480.576 3.83148 -0.617998 0
M  V30 5266 H 478.677 3.27151 1.78334 0
M  V30 5267 H 478.79 4.75114 0.616718 0
M  V30 5268 H 477.154 2.51153 0.423581 0
M  V30 5269 H 477.937 3.26204 -1.06986 0
M  V30 5270 N 480.382 0.0267497 1.57577 0
M  V30 5271 C 481.798 -0.32962 1.56159 0
M  V30 5272 C 481.998 -1.73059 1.03213 0
M  V30 5273 O 481.054 -2.43233 0.677804 0
M  V30 5274 C 482.367 -0.18039 3.00158 0
M  V30 5275 C 483.915 -0.253334 3.11973 0
M  V30 5276 C 484.39 -0.132921 4.57807 0
M  V30 5277 N 485.881 -0.189979 4.6281 0
M  V30 5278 C 486.616 -0.120554 5.73273 0
M  V30 5279 N 486.112 -0.000180315 6.928 0
M  V30 5280 N 487.905 -0.174369 5.61829 0
M  V30 5281 H 480.056 0.942896 1.90324 0
M  V30 5282 H 482.319 0.3639 0.875375 0
M  V30 5283 H 482.025 0.784576 3.42837 0
M  V30 5284 H 481.899 -0.951565 3.65 0
M  V30 5285 H 484.286 -1.20876 2.69208 0
M  V30 5286 H 484.367 0.548177 2.49857 0
M  V30 5287 H 484.011 0.819073 5.01252 0
M  V30 5288 H 483.941 -0.953264 5.179 0
M  V30 5289 H 486.432 -0.283257 3.76837 0
M  V30 5290 H 486.745 0.0461666 7.72786 0
M  V30 5291 H 485.09 0.034569 6.94991 0
M  V30 5292 H 488.281 -0.266794 4.67339 0
M  V30 5293 H 488.454 -0.116802 6.47895 0
M  V30 5294 N 481.861 -1.55662 -0.24637 0
M  V30 5295 C 482.791 -1.93377 -1.30873 0
M  V30 5296 C 483.772 -0.798773 -1.50179 0
M  V30 5297 O 484.957 -1.0591 -1.62778 0
M  V30 5298 C 482.087 -2.22893 -2.66338 0
M  V30 5299 C 481.041 -3.38649 -2.61727 0
M  V30 5300 C 480.367 -3.53708 -4.00992 0
M  V30 5301 C 481.667 -4.74323 -2.18666 0
M  V30 5302 H 483.361 -2.82363 -0.995552 0
M  V30 5303 H 480.907 -1.35854 -0.477464 0
M  V30 5304 H 482.86 -2.47866 -3.40794 0
M  V30 5305 H 481.584 -1.30733 -2.99293 0
M  V30 5306 H 480.243 -3.13685 -1.89729 0
M  V30 5307 H 479.891 -2.58967 -4.31214 0
M  V30 5308 H 479.591 -4.31551 -3.98795 0
M  V30 5309 H 481.115 -3.81003 -4.77147 0
M  V30 5310 H 482.529 -4.98665 -2.82854 0
M  V30 5311 H 480.926 -5.55273 -2.27579 0
M  V30 5312 H 481.996 -4.71349 -1.13834 0
M  V30 5313 N 483.339 0.512053 -1.4905 0
M  V30 5314 C 484.585 1.26613 -1.59187 0
M  V30 5315 C 484.94 1.90494 -0.270163 0
M  V30 5316 O 484.233 1.77204 0.728648 0
M  V30 5317 C 484.427 2.36446 -2.68008 0
M  V30 5318 C 484.256 1.83334 -4.10632 0
M  V30 5319 C 483.026 1.65131 -4.77556 0
M  V30 5320 C 485.224 1.35153 -4.96224 0
M  V30 5321 N 483.206 1.06833 -6.04533 0
M  V30 5322 C 484.577 0.889186 -6.13591 0
M  V30 5323 C 486.632 1.23623 -4.82309 0
M  V30 5324 C 485.335 0.322953 -7.18575 0
M  V30 5325 C 487.361 0.683978 -5.87431 0
M  V30 5326 C 486.723 0.2318 -7.04018 0
M  V30 5327 H 482.822 0.453678 -0.636946 0
M  V30 5328 H 485.406 0.575217 -1.86009 0
M  V30 5329 H 483.577 3.03012 -2.42978 0
M  V30 5330 H 485.309 3.03485 -2.67729 0
M  V30 5331 H 482.064 1.89178 -4.34176 0
M  V30 5332 H 482.488 0.796425 -6.72299 0
M  V30 5333 H 487.13 1.57184 -3.92496 0
M  V30 5334 H 484.848 -0.024943 -8.08096 0
M  V30 5335 H 488.434 0.597694 -5.78722 0
M  V30 5336 H 487.314 -0.188869 -7.83973 0
M  V30 5337 N 484.817 1.37938 0.762283 0
M  V30 5338 C 486.094 1.24196 1.51112 0
M  V30 5339 C 486.474 -0.160409 2.1049 0
M  V30 5340 O 485.822 -1.16904 1.96331 0
M  V30 5341 C 486.032 2.34537 2.58445 0
M  V30 5342 C 487.38 2.7254 3.25588 0
M  V30 5343 O 488.404 2.33783 2.68745 0
M  V30 5344 O 487.263 3.39343 4.28379 0
M  V30 5345 H 484.357 0.485175 0.669727 0
M  V30 5346 H 486.903 1.49743 0.798438 0
M  V30 5347 H 485.675 3.28406 2.12756 0
M  V30 5348 H 485.298 2.10505 3.37303 0
M  V30 5349 N 486.295 -0.989507 1.22664 0
M  V30 5350 C 487.245 -2.06478 0.967005 0
M  V30 5351 C 488.229 -1.60682 -0.0836374 0
M  V30 5352 O 489.421 -1.76541 0.127322 0
M  V30 5353 C 486.55 -3.38861 0.550313 0
M  V30 5354 C 485.636 -3.9128 1.63587 0
M  V30 5355 N 486.027 -4.16884 2.86429 0
M  V30 5356 C 484.325 -4.1972 1.50834 0
M  V30 5357 C 485.026 -4.5954 3.56648 0
M  V30 5358 N 484.002 -4.63434 2.84131 0
M  V30 5359 H 487.804 -2.24219 1.90008 0
M  V30 5360 H 485.318 -1.17153 1.12467 0
M  V30 5361 H 487.315 -4.15465 0.345612 0
M  V30 5362 H 485.975 -3.22518 -0.375822 0
M  V30 5363 H 486.986 -4.04976 3.22823 0
M  V30 5364 H 483.663 -4.1243 0.648643 0
M  V30 5365 H 485.053 -4.87944 4.61909 0
M  V30 5366 N 487.773 -1.03688 -1.18687 0
M  V30 5367 C 489.184 -0.766488 -1.70241 0
M  V30 5368 C 489.535 0.713052 -1.82784 0
M  V30 5369 O 488.66 1.55529 -1.50465 0
M  V30 5370 C 489.255 -1.38475 -3.09209 0
M  V30 5371 C 487.814 -1.16276 -3.5799 0
M  V30 5372 C 486.961 -1.4778 -2.34641 0
M  V30 5373 H 489.912 -1.20378 -1.03415 0
M  V30 5374 H 489.933 -0.785939 -3.72295 0
M  V30 5375 H 489.445 -2.46157 -3.00048 0
M  V30 5376 H 487.546 -0.104508 -3.72453 0
M  V30 5377 H 487.659 -1.8571 -4.41643 0
M  V30 5378 H 486.023 -0.897366 -2.38368 0
M  V30 5379 H 486.806 -2.56562 -2.28102 0
M  V30 5380 N 489.251 1.34841 -0.815825 0
M  V30 5381 C 490.528 1.92908 -0.323416 0
M  V30 5382 C 490.908 1.74479 1.18828 0
M  V30 5383 O 490.256 1.11928 1.99209 0
M  V30 5384 C 490.466 3.40957 -0.744952 0
M  V30 5385 C 491.814 4.18107 -0.739716 0
M  V30 5386 O 492.838 3.49511 -0.68708 0
M  V30 5387 O 491.697 5.40517 -0.806456 0
M  V30 5388 H 488.791 0.822436 -0.0867646 0
M  V30 5389 H 491.337 1.4386 -0.90014 0
M  V30 5390 H 490.109 3.4814 -1.78646 0
M  V30 5391 H 489.732 3.97341 -0.143535 0
M  V30 5392 N 490.729 0.570148 1.46925 0
M  V30 5393 C 491.639 -0.173061 2.33961 0
M  V30 5394 C 492.655 -0.898825 1.48987 0
M  V30 5395 O 493.831 -0.864825 1.81887 0
M  V30 5396 C 490.896 -1.18177 3.25937 0
M  V30 5397 C 489.957 -0.462041 4.26806 0
M  V30 5398 C 489.19 -1.4227 5.14388 0
M  V30 5399 O 489.413 -2.65842 5.04662 0
M  V30 5400 O 488.347 -0.940127 5.94513 0
M  V30 5401 H 492.173 0.541216 2.98839 0
M  V30 5402 H 489.758 0.330647 1.45695 0
M  V30 5403 H 491.64 -1.76372 3.82715 0
M  V30 5404 H 490.315 -1.87774 2.63671 0
M  V30 5405 H 489.222 0.161429 3.73752 0
M  V30 5406 H 490.555 0.192719 4.91823 0
M  V30 5407 N 492.207 -1.54576 0.307264 0
M  V30 5408 C 493.454 -2.00263 -0.300167 0
M  V30 5409 C 493.782 -1.19561 -1.53413 0
M  V30 5410 O 493.037 -0.261487 -1.93945 0
M  V30 5411 C 493.336 -3.50572 -0.695253 0
M  V30 5412 C 493.002 -4.48771 0.437679 0
M  V30 5413 C 491.664 -4.7534 0.748681 0
M  V30 5414 C 494.016 -5.0721 1.19949 0
M  V30 5415 C 491.344 -5.5761 1.8245 0
M  V30 5416 C 493.696 -5.90651 2.26527 0
M  V30 5417 C 492.36 -6.15528 2.58227 0
M  V30 5418 H 491.63 -0.732814 -0.109839 0
M  V30 5419 H 494.277 -1.86664 0.427661 0
M  V30 5420 H 492.582 -3.61814 -1.50326 0
M  V30 5421 H 494.279 -3.83352 -1.17653 0
M  V30 5422 H 490.869 -4.282 0.185187 0
M  V30 5423 H 495.053 -4.86679 0.972474 0
M  V30 5424 H 490.309 -5.75121 2.07476 0
M  V30 5425 H 494.483 -6.34957 2.86011 0
M  V30 5426 H 492.11 -6.79066 3.4172 0
M  V30 5427 N 493.685 -0.035106 -1.57561 0
M  V30 5428 C 495.101 0.321334 -1.56332 0
M  V30 5429 C 495.301 1.72509 -1.04129 0
M  V30 5430 O 494.357 2.4287 -0.690694 0
M  V30 5431 C 495.67 0.164469 -3.0025 0
M  V30 5432 C 497.218 0.236786 -3.12103 0
M  V30 5433 C 497.693 0.10864 -4.57871 0
M  V30 5434 N 499.184 0.165433 -4.62904 0
M  V30 5435 C 499.919 0.0901506 -5.73329 0
M  V30 5436 N 499.415 -0.0365606 -6.9279 0
M  V30 5437 N 501.208 0.144572 -5.61914 0
M  V30 5438 H 493.359 -0.952976 -1.89821 0
M  V30 5439 H 495.622 -0.368537 -0.873432 0
M  V30 5440 H 495.328 -0.802746 -3.42416 0
M  V30 5441 H 495.202 0.932194 -3.655 0
M  V30 5442 H 497.589 1.19446 -2.69845 0
M  V30 5443 H 497.67 -0.561419 -2.49563 0
M  V30 5444 H 497.314 -0.845644 -5.00811 0
M  V30 5445 H 497.244 0.925786 -5.18398 0
M  V30 5446 H 499.735 0.263269 -3.76982 0
M  V30 5447 H 500.048 -0.0871487 -7.72751 0
M  V30 5448 H 498.393 -0.0714256 -6.94963 0
M  V30 5449 H 501.584 0.242006 -4.67474 0
M  V30 5450 H 501.757 0.0824413 -6.47948 0
M  V30 5451 N 495.163 1.55791 0.238111 0
M  V30 5452 C 496.574 1.68383 0.806472 0
M  V30 5453 C 496.925 0.634157 1.85669 0
M  V30 5454 O 496.05 -0.217913 2.153 0
M  V30 5455 C 496.645 3.05268 1.46959 0
M  V30 5456 C 495.204 3.1977 1.98555 0
M  V30 5457 C 494.351 2.64279 0.839763 0
M  V30 5458 H 497.302 1.58694 0.0137535 0
M  V30 5459 H 497.323 3.00203 2.33792 0
M  V30 5460 H 496.835 3.81643 0.704993 0
M  V30 5461 H 494.936 2.48234 2.77868 0
M  V30 5462 H 495.049 4.26788 2.17689 0
M  V30 5463 H 493.413 2.22329 1.24265 0
M  V30 5464 H 494.196 3.43187 0.0881032 0
M  V30 5465 N 496.642 -0.504142 1.49319 0
M  V30 5466 C 497.552 -1.63248 1.68486 0
M  V30 5467 C 498.568 -1.64488 0.567432 0
M  V30 5468 O 499.744 -1.82966 0.841749 0
M  V30 5469 C 496.809 -2.99627 1.74426 0
M  V30 5470 C 495.87 -3.09039 2.97982 0
M  V30 5471 C 495.103 -4.38913 3.0363 0
M  V30 5472 O 495.326 -5.27528 2.16958 0
M  V30 5473 O 494.26 -4.53231 3.96062 0
M  V30 5474 H 498.086 -1.50008 2.64067 0
M  V30 5475 H 495.671 -0.680086 1.33023 0
M  V30 5476 H 497.553 -3.80689 1.80705 0
M  V30 5477 H 496.228 -3.13136 0.820233 0
M  V30 5478 H 495.135 -2.27177 2.97223 0
M  V30 5479 H 496.468 -3.00456 3.89855 0
M  V30 5480 N 498.12 -1.38341 -0.754957 0
M  V30 5481 C 499.536 -1.19508 -1.05783 0
M  V30 5482 C 499.736 -0.0428005 -2.01455 0
M  V30 5483 O 498.792 0.611861 -2.44975 0
M  V30 5484 C 500.105 -2.52091 -1.63923 0
M  V30 5485 C 501.653 -2.58762 -1.76101 0
M  V30 5486 C 502.128 -3.91517 -2.37652 0
M  V30 5487 N 503.619 -3.93049 -2.45085 0
M  V30 5488 C 504.354 -4.9253 -2.93602 0
M  V30 5489 N 503.85 -6.02408 -3.42165 0
M  V30 5490 N 505.643 -4.79921 -2.92629 0
M  V30 5491 H 497.794 -2.1206 -0.120056 0
M  V30 5492 H 500.057 -0.94089 -0.11589 0
M  V30 5493 H 499.763 -3.36858 -1.01093 0
M  V30 5494 H 499.637 -2.70388 -2.63003 0
M  V30 5495 H 502.024 -1.74391 -2.38058 0
M  V30 5496 H 502.105 -2.44333 -0.757294 0
M  V30 5497 H 501.749 -4.76309 -1.76329 0
M  V30 5498 H 501.679 -4.03256 -3.38662 0
M  V30 5499 H 504.17 -3.13685 -2.10736 0
M  V30 5500 H 504.483 -6.74248 -3.77637 0
M  V30 5501 H 502.828 -6.0603 -3.40225 0
M  V30 5502 H 506.019 -3.93194 -2.54001 0
M  V30 5503 H 506.192 -5.57601 -3.30128 0
M  V30 5504 N 499.598 0.982988 -1.23187 0
M  V30 5505 C 500.845 1.72392 -1.06241 0
M  V30 5506 C 501.173 1.9032 0.40108 0
M  V30 5507 O 500.428 1.45084 1.31336 0
M  V30 5508 C 500.727 3.12736 -1.73006 0
M  V30 5509 C 500.393 3.14695 -3.22921 0
M  V30 5510 C 499.055 3.14937 -3.63824 0
M  V30 5511 C 501.407 3.10211 -4.1883 0
M  V30 5512 C 498.735 3.08408 -4.99101 0
M  V30 5513 C 501.087 3.05224 -5.54095 0
M  V30 5514 C 499.751 3.03787 -5.94365 0
M  V30 5515 H 499.021 0.630829 -0.388762 0
M  V30 5516 H 501.668 1.15053 -1.53085 0
M  V30 5517 H 499.973 3.73446 -1.18514 0
M  V30 5518 H 501.67 3.68828 -1.57374 0
M  V30 5519 H 498.26 3.15262 -2.90358 0
M  V30 5520 H 502.444 3.09166 -3.8824 0
M  V30 5521 H 497.7 3.05646 -5.29519 0
M  V30 5522 H 501.874 3.00712 -6.28128 0
M  V30 5523 H 499.501 2.98483 -6.99151 0
M  V30 5524 N 501.076 1.04316 1.18135 0
M  V30 5525 C 502.039 0.640794 2.2006 0
M  V30 5526 C 503.039 -0.303124 1.57917 0
M  V30 5527 O 504.229 -0.0881855 1.73977 0
M  V30 5528 C 501.361 -0.060148 3.40847 0
M  V30 5529 H 502.554 1.54281 2.57172 0
M  V30 5530 H 500.107 0.836004 1.32063 0
M  V30 5531 H 500.842 -0.975845 3.0927 0
M  V30 5532 H 500.627 0.618319 3.87194 0
M  V30 5533 H 502.117 -0.328082 4.16309 0
M  V30 5534 N 502.554 -1.34406 0.822964 0
M  V30 5535 C 503.464 -2.33298 0.246838 0
M  V30 5536 C 504.48 -1.62625 -0.618797 0
M  V30 5537 O 505.656 -1.94391 -0.526685 0
M  V30 5538 C 502.721 -3.41785 -0.581731 0
M  V30 5539 C 501.782 -4.28206 0.306309 0
M  V30 5540 C 501.015 -5.31512 -0.48281 0
M  V30 5541 O 501.238 -5.43973 -1.71607 0
M  V30 5542 O 500.172 -6.01749 0.134884 0
M  V30 5543 H 503.998 -2.84401 1.06534 0
M  V30 5544 H 501.583 -1.37466 0.585108 0
M  V30 5545 H 503.465 -4.08028 -1.05313 0
M  V30 5546 H 502.14 -2.92925 -1.37756 0
M  V30 5547 H 501.047 -3.64885 0.825199 0
M  V30 5548 H 502.38 -4.80507 1.06649 0
M  V30 5549 N 504.032 -0.577932 -1.46621 0
M  V30 5550 C 505.448 -0.239242 -1.57797 0
M  V30 5551 C 505.648 1.25843 -1.57371 0
M  V30 5552 O 504.704 2.03988 -1.48813 0
M  V30 5553 C 506.017 -0.884227 -2.87405 0
M  V30 5554 C 507.565 -0.857373 -3.01028 0
M  V30 5555 C 508.04 -1.48181 -4.33366 0
M  V30 5556 N 509.531 -1.44593 -4.40053 0
M  V30 5557 C 510.266 -1.89852 -5.41058 0
M  V30 5558 N 509.762 -2.43062 -6.48762 0
M  V30 5559 N 511.555 -1.80797 -5.3223 0
M  V30 5560 H 503.706 -1.55073 -1.45142 0
M  V30 5561 H 505.969 -0.647903 -0.692044 0
M  V30 5562 H 505.675 -1.93759 -2.93514 0
M  V30 5563 H 505.549 -0.389585 -3.75183 0
M  V30 5564 H 507.936 0.187357 -2.94505 0
M  V30 5565 H 508.017 -1.38999 -2.14739 0
M  V30 5566 H 507.661 -2.52572 -4.40647 0
M  V30 5567 H 507.591 -0.924464 -5.18422 0
M  V30 5568 H 510.082 -1.05694 -3.62819 0
M  V30 5569 H 510.395 -2.75466 -7.22038 0
M  V30 5570 H 508.74 -2.47085 -6.49595 0
M  V30 5571 H 511.931 -1.38989 -4.46989 0
M  V30 5572 H 512.104 -2.16385 -6.10804 0
M  V30 5573 N 505.51 1.54411 -0.315457 0
M  V30 5574 C 506.42 2.27737 0.56329 0
M  V30 5575 C 507.436 1.31787 1.13614 0
M  V30 5576 O 508.612 1.64791 1.15784 0
M  V30 5577 C 505.677 3.01478 1.71207 0
M  V30 5578 C 504.738 4.12997 1.17185 0
M  V30 5579 C 503.971 4.83212 2.26588 0
M  V30 5580 O 504.194 4.52884 3.46775 0
M  V30 5581 O 503.128 5.70299 1.92463 0
M  V30 5582 H 506.954 3.03683 -0.0319614 0
M  V30 5583 H 504.539 1.49178 -0.0814188 0
M  V30 5584 H 506.421 3.47683 2.38106 0
M  V30 5585 H 505.096 2.28414 2.29366 0
M  V30 5586 H 504.003 3.71159 0.468174 0
M  V30 5587 H 505.336 4.8808 0.635501 0
M  V30 5588 N 506.988 0.0434614 1.5754 0
M  V30 5589 C 507.898 -0.94893 2.14552 0
M  V30 5590 C 508.914 -1.34707 1.10136 0
M  V30 5591 O 510.09 -1.42557 1.42266 0
M  V30 5592 C 507.155 -2.208 2.67298 0
M  V30 5593 C 506.216 -1.86893 3.86484 0
M  V30 5594 C 505.449 -3.06797 4.36705 0
M  V30 5595 O 505.672 -4.19921 3.86034 0
M  V30 5596 O 504.606 -2.8826 5.28384 0
M  V30 5597 H 508.432 -0.494099 2.99654 0
M  V30 5598 H 506.017 -0.177989 1.48336 0
M  V30 5599 H 507.899 -2.94686 3.01228 0
M  V30 5600 H 506.574 -2.65436 1.85272 0
M  V30 5601 H 505.481 -1.10347 3.57455 0
M  V30 5602 H 506.814 -1.47062 4.69716 0
M  V30 5603 N 508.466 -1.55915 -0.229846 0
M  V30 5604 C 509.414 -1.9258 -1.30444 0
M  V30 5605 C 510.408 -0.806839 -1.48951 0
M  V30 5606 O 511.614 -0.991606 -1.50224 0
M  V30 5607 H 507.989 -0.611878 -0.437161 0
M  V30 5608 H 509.96 -2.82264 -0.96797 0
M  V30 5609 C 508.709 -2.25171 -2.6494 0
M  V30 5610 H 508.032 -3.10782 -2.51504 0
M  V30 5611 H 509.472 -2.54716 -3.38963 0
M  V30 5612 C 507.931 -1.07394 -3.19324 0
M  V30 5613 O 508.461 -0.330759 -4.00336 0
M  V30 5614 N 506.667 -0.859984 -2.77584 0
M  V30 5615 H 506.214 -1.46605 -2.11813 0
M  V30 5616 H 506.172 -0.0736671 -3.14314 0
M  V30 5617 N 509.944 0.496216 -1.49584 0
M  V30 5618 C 510.874 1.60576 -1.69521 0
M  V30 5619 C 511.855 1.61169 -0.543933 0
M  V30 5620 O 513.04 1.77834 -0.78031 0
M  V30 5621 C 510.17 2.99038 -1.76616 0
M  V30 5622 C 509.124 3.13312 -2.91581 0
M  V30 5623 C 508.45 4.53172 -2.83794 0
M  V30 5624 C 509.75 2.92886 -4.32452 0
M  V30 5625 H 511.444 1.44146 -2.62416 0
M  V30 5626 H 508.99 0.692024 -1.26282 0
M  V30 5627 H 510.943 3.76564 -1.8915 0
M  V30 5628 H 509.667 3.16568 -0.80324 0
M  V30 5629 H 508.326 2.38213 -2.78658 0
M  V30 5630 H 507.974 4.67585 -1.854 0
M  V30 5631 H 507.674 4.63662 -3.60958 0
M  V30 5632 H 509.198 5.32752 -2.98342 0
M  V30 5633 H 510.612 3.60178 -4.46032 0
M  V30 5634 H 509.009 3.14844 -5.10875 0
M  V30 5635 H 510.079 1.88966 -4.46565 0
M  V30 5636 N 511.423 1.38739 0.74761 0
M  V30 5637 C 512.67 1.35274 1.50689 0
M  V30 5638 C 512.998 -0.0553359 1.94421 0
M  V30 5639 O 512.253 -1.03365 1.66175 0
M  V30 5640 C 512.552 2.25992 2.7688 0
M  V30 5641 C 512.218 3.73854 2.5208 0
M  V30 5642 C 510.88 4.14145 2.45025 0
M  V30 5643 C 513.232 4.67427 2.30568 0
M  V30 5644 C 510.56 5.4609 2.14483 0
M  V30 5645 C 512.912 5.99635 2.01545 0
M  V30 5646 C 511.576 6.39004 1.92951 0
M  V30 5647 H 510.846 0.495003 0.55141 0
M  V30 5648 H 513.493 1.71145 0.859158 0
M  V30 5649 H 511.798 1.83196 3.46333 0
M  V30 5650 H 513.495 2.20611 3.34861 0
M  V30 5651 H 510.085 3.41913 2.58444 0
M  V30 5652 H 514.269 4.3714 2.34994 0
M  V30 5653 H 509.525 5.75528 2.06342 0
M  V30 5654 H 513.699 6.71678 1.83906 0
M  V30 5655 H 511.326 7.41165 1.6905 0
M  V30 5656 N 512.901 -0.976442 1.23707 0
M  V30 5657 C 514.178 -1.69296 0.979699 0
M  V30 5658 C 514.558 -2.0508 -0.500555 0
M  V30 5659 O 513.906 -1.74708 -1.47273 0
M  V30 5660 C 514.116 -2.93143 1.89389 0
M  V30 5661 C 515.464 -3.65572 2.15968 0
M  V30 5662 O 516.488 -3.03184 1.86971 0
M  V30 5663 O 515.347 -4.77859 2.65167 0
M  V30 5664 H 512.441 -0.739708 0.369812 0
M  V30 5665 H 514.987 -1.03131 1.34767 0
M  V30 5666 H 513.759 -2.63327 2.89439 0
M  V30 5667 H 513.382 -3.67044 1.52854 0
M  V30 5668 N 514.379 -1.04941 -1.1758 0
M  V30 5669 C 515.312 -0.592518 -2.20373 0
M  V30 5670 C 516.29 0.377561 -1.58156 0
M  V30 5671 O 517.474 0.28978 -1.86259 0
M  V30 5672 C 514.601 0.133215 -3.38438 0
M  V30 5673 C 513.647 -0.791484 -4.19092 0
M  V30 5674 S 514.48 -2.27925 -4.84572 0
M  V30 5675 C 515.636 -1.56462 -6.06028 0
M  V30 5676 H 515.869 -1.46342 -2.58788 0
M  V30 5677 H 513.402 -0.861148 -1.28155 0
M  V30 5678 H 515.36 0.545746 -4.06856 0
M  V30 5679 H 514.021 0.980124 -2.98416 0
M  V30 5680 H 513.214 -0.230039 -5.03475 0
M  V30 5681 H 512.816 -1.14326 -3.56098 0
M  V30 5682 H 515.108 -0.862539 -6.71987 0
M  V30 5683 H 516.051 -2.38583 -6.66696 0
M  V30 5684 H 516.459 -1.05313 -5.5459 0
M  V30 5685 N 515.857 1.33968 -0.830081 0
M  V30 5686 C 517.106 1.97323 -0.417928 0
M  V30 5687 C 517.419 1.6652 1.02618 0
M  V30 5688 O 518.625 2.2342 1.54259 0
M  V30 5689 C 517.081 3.53099 -0.696359 0
M  V30 5690 C 516.689 3.92788 -2.15457 0
M  V30 5691 C 518.433 4.23049 -0.350724 0
M  V30 5692 C 516.34 5.41506 -2.37751 0
M  V30 5693 H 515.27 0.738409 -0.152541 0
M  V30 5694 H 517.921 1.52711 -1.01744 0
M  V30 5695 H 516.303 3.95991 -0.0265904 0
M  V30 5696 H 517.477 3.6098 -2.86408 0
M  V30 5697 H 515.792 3.35795 -2.46232 0
M  V30 5698 H 518.389 5.32403 -0.495036 0
M  V30 5699 H 518.732 4.10279 0.705476 0
M  V30 5700 H 519.265 3.85657 -0.975362 0
M  V30 5701 H 516.004 5.5927 -3.41903 0
M  V30 5702 H 515.524 5.74804 -1.7135 0
M  V30 5703 H 517.203 6.0828 -2.20465 0
M  V30 5704 N 517.335 0.585699 1.46312 0
M  V30 5705 C 518.746 0.159938 1.86014 0
M  V30 5706 C 519.097 -1.27775 1.48889 0
M  V30 5707 O 518.222 -1.96559 0.90519 0
M  V30 5708 C 518.817 0.283485 3.37612 0
M  V30 5709 C 517.376 -0.0874256 3.76298 0
M  V30 5710 C 516.523 0.618055 2.70325 0
M  V30 5711 H 519.474 0.793737 1.37425 0
M  V30 5712 H 519.495 -0.490348 3.77327 0
M  V30 5713 H 519.007 1.32995 3.64601 0
M  V30 5714 H 517.108 -1.13391 3.54927 0
M  V30 5715 H 517.221 0.290975 4.78216 0
M  V30 5716 H 515.585 0.057993 2.54634 0
M  V30 5717 H 516.368 1.66623 3.00153 0
M  V30 5718 N 518.813 -1.54241 0.323641 0
M  V30 5719 C 519.745 -2.21836 -0.576311 0
M  V30 5720 C 520.758 -1.21837 -1.07979 0
M  V30 5721 O 521.947 -1.48306 -0.99336 0
M  V30 5722 C 519.047 -2.86923 -1.80356 0
M  V30 5723 C 518.22 -4.1306 -1.43875 0
M  V30 5724 C 517.279 -4.6174 -2.52353 0
M  V30 5725 O 516.305 -5.26421 -2.16494 0
M  V30 5726 N 517.507 -4.35974 -3.83284 0
M  V30 5727 H 520.272 -2.997 0.00247987 0
M  V30 5728 H 517.833 -1.61233 0.146848 0
M  V30 5729 H 519.825 -3.16414 -2.52318 0
M  V30 5730 H 518.395 -2.12765 -2.29019 0
M  V30 5731 H 517.615 -3.90334 -0.550752 0
M  V30 5732 H 518.903 -4.95148 -1.17071 0
M  V30 5733 H 518.301 -3.84203 -4.15216 0
M  V30 5734 H 516.858 -4.70119 -4.51477 0
M  V30 5735 N 520.291 -0.0518155 -1.57515 0
M  V30 5736 C 521.539 0.620595 -1.92336 0
M  V30 5737 C 521.86 1.71345 -0.930907 0
M  V30 5738 O 521.13 1.95885 0.0241341 0
M  V30 5739 H 519.71 0.232226 -0.709986 0
M  V30 5740 H 522.372 -0.104969 -1.94617 0
M  V30 5741 H 521.468 1.05879 -2.93592 0
M  V30 5742 N 521.769 1.56035 0.221574 0
M  V30 5743 C 523.017 1.78693 0.944102 0
M  V30 5744 C 523.338 0.620317 1.8487 0
M  V30 5745 O 522.608 -0.362784 1.92512 0
M  V30 5746 H 521.188 0.659082 0.351597 0
M  V30 5747 H 523.85 1.93497 0.233435 0
M  V30 5748 H 522.946 2.70837 1.55093 0
M  V30 5749 N 523.247 -0.488276 1.49845 0
M  V30 5750 C 524.495 -1.23911 1.59657 0
M  V30 5751 C 524.816 -1.92816 0.291005 0
M  V30 5752 O 524.086 -1.83328 -0.690485 0
M  V30 5753 H 522.666 -0.460357 0.588286 0
M  V30 5754 H 525.328 -0.564794 1.86537 0
M  V30 5755 H 524.424 -1.99625 2.39909 0
M  V30 5756 N 524.725 -1.39134 -0.740242 0
M  V30 5757 C 525.675 -1.33928 -1.84519 0
M  V30 5758 C 526.659 -0.221097 -1.59374 0
M  V30 5759 O 527.851 -0.458195 -1.70967 0
M  V30 5760 C 524.98 -1.17991 -3.22387 0
M  V30 5761 C 524.066 -2.34488 -3.53378 0
M  V30 5762 N 524.457 -3.59954 -3.5534 0
M  V30 5763 C 522.755 -2.27331 -3.83714 0
M  V30 5764 C 523.456 -4.36962 -3.83978 0
M  V30 5765 N 522.432 -3.66482 -4.01487 0
M  V30 5766 H 526.234 -2.28907 -1.84333 0
M  V30 5767 H 523.748 -1.32555 -0.938237 0
M  V30 5768 H 525.745 -1.12345 -4.01478 0
M  V30 5769 H 524.405 -0.23957 -3.23815 0
M  V30 5770 H 525.416 -3.93448 -3.36778 0
M  V30 5771 H 522.093 -1.41531 -3.92779 0
M  V30 5772 H 523.483 -5.45692 -3.92008 0
M  V30 5773 N 526.204 0.969867 -1.24223 0
M  V30 5774 C 527.167 2.04564 -1.03373 0
M  V30 5775 C 528.167 1.60798 0.00819206 0
M  V30 5776 O 529.357 1.72641 -0.232567 0
M  V30 5777 C 526.489 3.36163 -0.566343 0
M  V30 5778 H 527.682 2.24494 -1.98853 0
M  V30 5779 H 525.235 1.1448 -1.06415 0
M  V30 5780 H 525.97 3.21925 0.391751 0
M  V30 5781 H 525.755 3.69273 -1.31834 0
M  V30 5782 H 527.245 4.1526 -0.441435 0
M  V30 5783 N 527.682 1.05563 1.17022 0
M  V30 5784 C 528.592 0.670758 2.24807 0
M  V30 5785 C 529.608 -0.309865 1.71219 0
M  V30 5786 O 530.784 -0.161025 2.00755 0
M  V30 5787 C 527.849 0.055337 3.46656 0
M  V30 5788 C 526.91 1.08688 4.15314 0
M  V30 5789 C 526.143 0.500736 5.31346 0
M  V30 5790 O 526.366 -0.688718 5.66227 0
M  V30 5791 O 525.3 1.23683 5.89055 0
M  V30 5792 H 529.126 1.56914 2.60023 0
M  V30 5793 H 526.711 0.827428 1.24395 0
M  V30 5794 H 528.593 -0.286492 4.20425 0
M  V30 5795 H 527.268 -0.816638 3.13229 0
M  V30 5796 H 526.175 1.48077 3.43546 0
M  V30 5797 H 527.508 1.93014 4.52777 0
M  V30 5798 N 529.16 -1.33526 0.837174 0
M  V30 5799 C 530.107 -2.29248 0.267169 0
M  V30 5800 C 531.077 -1.54252 -0.616071 0
M  V30 5801 O 532.262 -1.82559 -0.554699 0
M  V30 5802 C 529.402 -3.40638 -0.553152 0
M  V30 5803 C 528.515 -4.30548 0.353921 0
M  V30 5804 C 527.65 -5.29051 -0.477339 0
M  V30 5805 C 526.689 -6.106 0.42823 0
M  V30 5806 N 525.826 -7.01152 -0.364801 0
M  V30 5807 H 530.666 -2.77398 1.08877 0
M  V30 5808 H 528.203 -1.36496 0.54838 0
M  V30 5809 H 530.161 -4.03921 -1.04422 0
M  V30 5810 H 528.791 -2.93685 -1.33973 0
M  V30 5811 H 527.843 -3.68001 0.963289 0
M  V30 5812 H 529.155 -4.87631 1.04964 0
M  V30 5813 H 528.309 -5.97853 -1.0323 0
M  V30 5814 H 527.048 -4.72541 -1.2065 0
M  V30 5815 H 526.053 -5.40718 0.995219 0
M  V30 5816 H 527.278 -6.69193 1.15573 0
M  V30 5817 H 525.224 -6.47092 -1.07738 0
M  V30 5818 H 525.141 -7.5551 0.272238 0
M  V30 5819 H 526.409 -7.74263 -0.902054 0
M  V30 5820 N 530.638 -0.59345 -1.46 0
M  V30 5821 C 531.886 -0.082988 -2.0193 0
M  V30 5822 C 532.207 1.28569 -1.46612 0
M  V30 5823 O 531.477 1.84629 -0.654909 0
M  V30 5824 H 530.057 -0.0276882 -0.746487 0
M  V30 5825 H 532.719 -0.771657 -1.78973 0
M  V30 5826 H 531.815 -0.022079 -3.12092 0
M  V30 5827 N 532.116 1.54067 -0.331816 0
M  V30 5828 C 533.066 2.21363 0.546101 0
M  V30 5829 C 534.05 1.19698 1.07523 0
M  V30 5830 O 535.242 1.45293 1.01088 0
M  V30 5831 C 532.371 2.98115 1.70242 0
M  V30 5832 C 531.457 4.07127 1.18779 0
M  V30 5833 N 531.848 5.04267 0.393465 0
M  V30 5834 C 530.146 4.21226 1.46576 0
M  V30 5835 C 530.847 5.81585 0.115572 0
M  V30 5836 N 529.823 5.39022 0.703987 0
M  V30 5837 H 533.625 2.93821 -0.0679751 0
M  V30 5838 H 531.139 1.61812 -0.138085 0
M  V30 5839 H 533.136 3.44818 2.34321 0
M  V30 5840 H 531.796 2.27181 2.31989 0
M  V30 5841 H 532.807 5.17888 0.0355757 0
M  V30 5842 H 529.484 3.61509 2.08848 0
M  V30 5843 H 530.874 6.6985 -0.524426 0
M  V30 5844 N 533.594 0.0601682 1.57485 0
M  V30 5845 C 535.01 -0.296422 1.56823 0
M  V30 5846 C 535.21 -1.70831 1.0686 0
M  V30 5847 O 534.266 -2.4174 0.729245 0
M  V30 5848 C 535.579 -0.116681 3.00474 0
M  V30 5849 C 537.127 -0.187103 3.1244 0
M  V30 5850 C 537.602 -0.035783 4.57986 0
M  V30 5851 N 539.093 -0.0917676 4.63109 0
M  V30 5852 C 539.828 0.00107251 5.734 0
M  V30 5853 N 539.324 0.146773 6.92645 0
M  V30 5854 N 541.117 -0.0551577 5.62073 0
M  V30 5855 H 533.268 0.983055 1.88281 0
M  V30 5856 H 535.531 0.382386 0.867459 0
M  V30 5857 H 535.237 0.85712 3.41096 0
M  V30 5858 H 535.111 -0.873929 3.66936 0
M  V30 5859 H 537.498 -1.15138 2.71712 0
M  V30 5860 H 537.579 0.601052 2.48638 0
M  V30 5861 H 537.223 0.925212 4.99402 0
M  V30 5862 H 537.153 -0.843196 5.19806 0
M  V30 5863 H 539.644 -0.203261 3.77353 0
M  V30 5864 H 539.957 0.210076 7.72514 0
M  V30 5865 H 538.302 0.181979 6.94762 0
M  V30 5866 H 541.493 -0.167605 4.678 0
M  V30 5867 H 541.666 0.020652 6.47997 0
M  V30 5868 N 535.072 -1.5615 -0.213296 0
M  V30 5869 C 536.312 -1.81325 -0.943435 0
M  V30 5870 C 536.676 -0.634934 -1.81198 0
M  V30 5871 O 537.877 -0.766166 -2.5765 0
M  V30 5872 C 536.148 -3.11437 -1.75334 0
M  V30 5873 S 537.707 -3.57955 -2.53799 0
M  V30 5874 H 534.525 -0.636538 -0.316766 0
M  V30 5875 H 537.127 -1.94387 -0.208313 0
M  V30 5876 H 535.831 -3.95228 -1.10556 0
M  V30 5877 H 535.362 -3.01204 -2.53061 0
M  V30 5878 H 537.377 -3.21947 -3.77577 0
M  V30 5879 N 536.55 0.480323 -1.50102 0
M  V30 5880 C 537.961 1.06142 -1.53593 0
M  V30 5881 C 538.312 1.93335 -0.334055 0
M  V30 5882 O 537.437 2.09188 0.55403 0
M  V30 5883 C 538.032 1.9317 -2.78336 0
M  V30 5884 C 536.591 2.46405 -2.84538 0
M  V30 5885 C 535.738 1.24521 -2.4777 0
M  V30 5886 H 538.689 0.26333 -1.565 0
M  V30 5887 H 538.71 2.78123 -2.59669 0
M  V30 5888 H 538.222 1.29683 -3.65792 0
M  V30 5889 H 536.323 3.13472 -2.01411 0
M  V30 5890 H 536.436 2.82143 -3.87211 0
M  V30 5891 H 534.8 1.57706 -2.00003 0
M  V30 5892 H 535.583 0.627102 -3.37524 0
M  V30 5893 N 538.028 1.39524 0.732853 0
M  V30 5894 C 539.276 1.36594 1.48951 0
M  V30 5895 C 539.597 -0.0367507 1.94965 0
M  V30 5896 O 538.867 -0.988391 1.69138 0
M  V30 5897 H 537.447 0.502673 0.552566 0
M  V30 5898 H 540.109 1.74411 0.869869 0
M  V30 5899 H 539.205 2.03 2.3706 0
M  V30 5900 N 539.506 -0.963266 1.24736 0
M  V30 5901 C 540.416 -2.09246 1.06082 0
M  V30 5902 C 541.432 -1.74 0.000363101 0
M  V30 5903 O 542.608 -2.0041 0.199479 0
M  V30 5904 C 539.673 -3.40115 0.672498 0
M  V30 5905 C 538.734 -3.89282 1.80993 0
M  V30 5906 C 537.967 -5.13905 1.44004 0
M  V30 5907 O 538.19 -5.69434 0.331835 0
M  V30 5908 O 537.124 -5.57566 2.26723 0
M  V30 5909 H 540.95 -2.27881 2.00759 0
M  V30 5910 H 538.535 -1.07649 1.03595 0
M  V30 5911 H 540.417 -4.18797 0.467668 0
M  V30 5912 H 539.092 -3.22771 -0.245102 0
M  V30 5913 H 537.999 -3.11642 2.06955 0
M  V30 5914 H 539.332 -4.1111 2.70646 0
M  V30 5915 N 540.985 -1.06182 -1.16461 0
M  V30 5916 C 542.233 -0.776326 -1.86595 0
M  V30 5917 C 542.554 0.69921 -1.82033 0
M  V30 5918 O 541.824 1.50579 -1.2531 0
M  V30 5919 H 540.404 -0.284184 -0.690832 0
M  V30 5920 H 543.066 -1.34308 -1.41235 0
M  V30 5921 H 542.162 -1.10022 -2.92064 0
M  V30 5922 N 542.463 1.3308 -0.844243 0
M  V30 5923 C 543.712 1.96868 -0.438833 0
M  V30 5924 C 544.025 1.67599 1.00846 0
M  V30 5925 O 545.231 2.25043 1.51881 0
M  V30 5926 C 543.687 3.5234 -0.73377 0
M  V30 5927 C 543.295 3.90481 -2.1961 0
M  V30 5928 C 545.039 4.22653 -0.395574 0
M  V30 5929 C 542.946 5.38954 -2.43481 0
M  V30 5930 H 541.876 0.736749 -0.160364 0
M  V30 5931 H 544.527 1.51623 -1.03358 0
M  V30 5932 H 542.909 3.95941 -0.068589 0
M  V30 5933 H 544.083 3.57922 -2.90221 0
M  V30 5934 H 542.398 3.33165 -2.4978 0
M  V30 5935 H 544.995 5.31848 -0.551477 0
M  V30 5936 H 545.338 4.11004 0.661921 0
M  V30 5937 H 545.871 3.84601 -1.01621 0
M  V30 5938 H 542.61 5.55612 -3.47816 0
M  V30 5939 H 542.13 5.72954 -1.77437 0
M  V30 5940 H 543.809 6.05907 -2.26905 0
M  V30 5941 N 543.941 0.601185 1.45683 0
M  V30 5942 C 545.169 0.100054 2.06658 0
M  V30 5943 C 545.584 -1.21285 1.44691 0
M  V30 5944 O 544.941 -1.73735 0.558772 0
M  V30 5945 C 544.992 -0.0528579 3.61461 0
M  V30 5946 O 544.713 1.20809 4.21114 0
M  V30 5947 C 546.214 -0.586193 4.39407 0
M  V30 5948 H 543.434 0.065905 0.667756 0
M  V30 5949 H 545.978 0.827101 1.87028 0
M  V30 5950 H 544.133 -0.730203 3.80456 0
M  V30 5951 H 544.547 1.03368 5.14213 0
M  V30 5952 H 546.021 -0.642297 5.4825 0
M  V30 5953 H 546.498 -1.60713 4.0874 0
M  V30 5954 H 547.104 0.0568935 4.25262 0
M  V30 5955 N 545.419 -1.53889 0.339982 0
M  V30 5956 C 546.668 -2.00035 -0.258604 0
M  V30 5957 C 546.981 -1.23179 -1.51942 0
M  V30 5958 O 548.187 -1.59784 -2.19503 0
M  V30 5959 C 546.643 -3.56249 -0.511359 0
M  V30 5960 C 546.251 -4.41957 0.733349 0
M  V30 5961 C 547.995 -4.1082 -1.069 0
M  V30 5962 C 545.902 -5.89673 0.451591 0
M  V30 5963 H 544.832 -0.747284 -0.10041 0
M  V30 5964 H 547.483 -1.77776 0.454758 0
M  V30 5965 H 545.865 -3.7456 -1.28533 0
M  V30 5966 H 547.039 -4.35421 1.50815 0
M  V30 5967 H 545.354 -3.9836 1.21237 0
M  V30 5968 H 547.951 -5.18789 -1.2947 0
M  V30 5969 H 548.294 -3.63817 -2.02343 0
M  V30 5970 H 548.827 -3.96205 -0.355817 0
M  V30 5971 H 545.566 -6.40903 1.37565 0
M  V30 5972 H 545.086 -5.99122 -0.285193 0
M  V30 5973 H 546.765 -6.46965 0.0675067 0
M  V30 5974 N 546.897 -0.0685191 -1.57451 0
M  V30 5975 C 547.807 0.914677 -2.16034 0
M  V30 5976 C 548.823 1.32938 -1.12265 0
M  V30 5977 O 549.999 1.40275 -1.44516 0
M  V30 5978 C 547.064 2.16519 -2.70777 0
M  V30 5979 C 546.125 1.80721 -3.89408 0
M  V30 5980 C 545.358 2.9981 -4.41531 0
M  V30 5981 O 545.581 4.13727 -3.92666 0
M  V30 5982 O 544.515 2.79817 -5.32903 0
M  V30 5983 H 548.341 0.446364 -3.00402 0
M  V30 5984 H 545.926 0.154367 -1.486 0
M  V30 5985 H 547.808 2.89856 -3.05878 0
M  V30 5986 H 546.483 2.62454 -1.89471 0
M  V30 5987 H 545.39 1.04646 -3.59166 0
M  V30 5988 H 546.723 1.39571 -4.71997 0
M  V30 5989 N 548.375 1.56261 0.205012 0
M  V30 5990 C 549.621 1.80306 0.9283 0
M  V30 5991 C 549.954 0.640932 1.83319 0
M  V30 5992 O 549.229 -0.359032 1.91158 0
M  V30 5993 C 549.512 3.14547 1.75306 0
M  V30 5994 C 549.365 4.41236 0.873562 0
M  V30 5995 C 550.684 3.45382 2.72762 0
M  V30 5996 H 547.803 0.655929 0.336044 0
M  V30 5997 H 550.445 1.88984 0.196211 0
M  V30 5998 H 548.595 3.0728 2.37721 0
M  V30 5999 H 550.267 4.60539 0.264887 0
M  V30 6000 H 548.51 4.33427 0.179773 0
M  V30 6001 H 549.181 5.31639 1.48541 0
M  V30 6002 H 551.657 3.52884 2.20481 0
M  V30 6003 H 550.533 4.40449 3.2756 0
M  V30 6004 H 550.794 2.68377 3.51321 0
M  V30 6005 N 549.853 -0.472356 1.50355 0
M  V30 6006 C 550.786 -1.58923 1.63764 0
M  V30 6007 C 551.764 -1.55173 0.485793 0
M  V30 6008 O 552.948 -1.74815 0.705132 0
M  V30 6009 C 550.075 -2.97497 1.61905 0
M  V30 6010 C 549.121 -3.19405 2.82635 0
M  V30 6011 S 549.954 -2.99441 4.43954 0
M  V30 6012 C 551.11 -4.40359 4.44786 0
M  V30 6013 H 551.343 -1.47309 2.58239 0
M  V30 6014 H 548.876 -0.659601 1.39602 0
M  V30 6015 H 550.834 -3.77389 1.61518 0
M  V30 6016 H 549.495 -3.06502 0.686683 0
M  V30 6017 H 548.688 -4.20636 2.77636 0
M  V30 6018 H 548.29 -2.47283 2.80583 0
M  V30 6019 H 550.582 -5.32969 4.1827 0
M  V30 6020 H 551.525 -4.50403 5.46391 0
M  V30 6021 H 551.933 -4.22378 3.74509 0
M  V30 6022 N 551.331 -1.39911 -0.725443 0
M  V30 6023 C 552.278 -1.39393 -1.83952 0
M  V30 6024 C 553.248 -0.252249 -1.64173 0
M  V30 6025 O 554.433 -0.44882 -1.85446 0
M  V30 6026 C 551.573 -1.25262 -3.21564 0
M  V30 6027 C 550.686 -2.49054 -3.52982 0
M  V30 6028 C 549.821 -2.27439 -4.80047 0
M  V30 6029 C 548.86 -3.46857 -5.04338 0
M  V30 6030 N 547.997 -3.24499 -6.22611 0
M  V30 6031 H 552.837 -2.34622 -1.83729 0
M  V30 6032 H 550.374 -1.16537 -0.897636 0
M  V30 6033 H 552.332 -1.15077 -4.01015 0
M  V30 6034 H 550.962 -0.33657 -3.21041 0
M  V30 6035 H 550.014 -2.69805 -2.6816 0
M  V30 6036 H 551.326 -3.37973 -3.66846 0
M  V30 6037 H 550.48 -2.14551 -5.67497 0
M  V30 6038 H 549.219 -1.35929 -4.68374 0
M  V30 6039 H 548.224 -3.60232 -4.15346 0
M  V30 6040 H 549.449 -4.3928 -5.17889 0
M  V30 6041 H 547.395 -2.35663 -6.12208 0
M  V30 6042 H 547.312 -4.06978 -6.37106 0
M  V30 6043 H 548.58 -3.15325 -7.12875 0
M  V30 6044 N 552.809 0.956637 -1.25245 0
M  V30 6045 C 553.772 2.03457 -1.05537 0
M  V30 6046 C 554.772 1.60798 -0.00886317 0
M  V30 6047 O 555.962 1.72384 -0.250865 0
M  V30 6048 C 553.094 3.35543 -0.601965 0
M  V30 6049 H 554.287 2.22372 -2.01223 0
M  V30 6050 H 551.84 1.13344 -1.07623 0
M  V30 6051 H 552.575 3.22323 0.357584 0
M  V30 6052 H 552.36 3.67854 -1.35743 0
M  V30 6053 H 553.85 4.14769 -0.485454 0
M  V30 6054 N 554.287 1.06798 1.15896 0
M  V30 6055 C 555.512 0.808739 1.90982 0
M  V30 6056 C 555.937 -0.6316 1.77179 0
M  V30 6057 O 555.295 -1.4407 1.10061 0
M  V30 6058 C 555.343 1.21468 3.39526 0
M  V30 6059 O 554.447 0.356562 4.10856 0
M  V30 6060 H 553.788 0.29512 0.594811 0
M  V30 6061 H 556.318 1.42513 1.46804 0
M  V30 6062 H 556.328 1.18844 3.90308 0
M  V30 6063 H 555.003 2.26379 3.48891 0
M  V30 6064 H 553.58 0.444808 3.70238 0
M  V30 6065 N 555.766 -1.3263 0.851289 0
M  V30 6066 C 556.696 -2.31449 0.308771 0
M  V30 6067 C 557.677 -1.59531 -0.590255 0
M  V30 6068 O 558.862 -1.87351 -0.511205 0
M  V30 6069 C 555.992 -3.43586 -0.506548 0
M  V30 6070 C 554.946 -4.26963 0.297753 0
M  V30 6071 C 554.272 -5.30831 -0.642094 0
M  V30 6072 C 555.572 -4.99643 1.52166 0
M  V30 6073 H 557.266 -2.77074 1.13447 0
M  V30 6074 H 554.812 -1.33207 0.546971 0
M  V30 6075 H 556.765 -4.11754 -0.896474 0
M  V30 6076 H 555.489 -2.96681 -1.36558 0
M  V30 6077 H 554.148 -3.60437 0.669391 0
M  V30 6078 H 553.796 -4.8018 -1.49788 0
M  V30 6079 H 553.496 -5.87501 -0.107968 0
M  V30 6080 H 555.02 -6.01862 -1.02927 0
M  V30 6081 H 556.434 -5.6051 1.20421 0
M  V30 6082 H 554.831 -5.66022 1.99347 0
M  V30 6083 H 555.901 -4.27701 2.28474 0
M  V30 6084 N 557.244 -0.608902 -1.45362 0
M  V30 6085 C 558.521 -0.0365378 -1.95566 0
M  V30 6086 C 558.901 1.43169 -1.55131 0
M  V30 6087 O 558.249 2.1349 -0.814513 0
M  V30 6088 C 558.459 -0.236026 -3.48201 0
M  V30 6089 C 559.807 -0.117518 -4.24437 0
M  V30 6090 O 560.831 -0.166217 -3.55812 0
M  V30 6091 O 559.69 -0.00372127 -5.465 0
M  V30 6092 H 556.784 0.0349874 -0.82626 0
M  V30 6093 H 559.33 -0.679055 -1.55521 0
M  V30 6094 H 558.102 -1.25569 -3.70605 0
M  V30 6095 H 557.725 0.441691 -3.95139 0
M  V30 6096 N 558.722 1.53707 -0.348139 0
M  V30 6097 C 559.969 2.00988 0.246966 0
M  V30 6098 C 560.297 1.23586 1.50189 0
M  V30 6099 O 559.552 0.312817 1.93184 0
M  V30 6100 C 559.851 3.52292 0.602061 0
M  V30 6101 C 559.517 4.47453 -0.556509 0
M  V30 6102 C 558.179 4.73188 -0.874446 0
M  V30 6103 C 560.531 5.03851 -1.33354 0
M  V30 6104 C 557.859 5.52577 -1.9717 0
M  V30 6105 C 560.211 5.84437 -2.42108 0
M  V30 6106 C 558.875 6.08465 -2.74456 0
M  V30 6107 H 558.145 0.735469 0.0903712 0
M  V30 6108 H 560.792 1.85464 -0.477001 0
M  V30 6109 H 559.097 3.65672 1.40681 0
M  V30 6110 H 560.794 3.86337 1.07447 0
M  V30 6111 H 557.384 4.27558 -0.298652 0
M  V30 6112 H 561.568 4.8393 -1.10117 0
M  V30 6113 H 556.824 5.69418 -2.22651 0
M  V30 6114 H 560.998 6.27151 -3.02745 0
M  V30 6115 H 558.625 6.69768 -3.59604 0
M  V30 6116 N 560.2 0.0768682 1.57412 0
M  V30 6117 C 561.13 -0.886026 2.16037 0
M  V30 6118 C 562.111 -1.30691 1.08876 0
M  V30 6119 O 563.296 -1.37705 1.36934 0
M  V30 6120 C 560.426 -2.1518 2.72608 0
M  V30 6121 C 559.38 -1.87015 3.8498 0
M  V30 6122 C 558.706 -3.20266 4.28175 0
M  V30 6123 C 560.006 -1.17143 5.08994 0
M  V30 6124 H 561.7 -0.397642 2.96748 0
M  V30 6125 H 559.246 -0.189823 1.42743 0
M  V30 6126 H 561.199 -2.82962 3.12266 0
M  V30 6127 H 559.923 -2.66269 1.89125 0
M  V30 6128 H 558.582 -1.21636 3.45833 0
M  V30 6129 H 558.23 -3.69207 3.41607 0
M  V30 6130 H 557.93 -3.0221 5.03927 0
M  V30 6131 H 559.454 -3.89237 4.70454 0
M  V30 6132 H 560.868 -1.75003 5.45937 0
M  V30 6133 H 559.265 -1.09328 5.90057 0
M  V30 6134 H 560.335 -0.151295 4.84664 0
M  V30 6135 N 561.678 -1.56367 -0.196722 0
M  V30 6136 C 562.924 -1.80796 -0.918725 0
M  V30 6137 C 563.257 -0.650645 -1.82976 0
M  V30 6138 O 562.532 0.348889 -1.91345 0
M  V30 6139 C 562.815 -3.15472 -1.73636 0
M  V30 6140 C 562.668 -4.41693 -0.85015 0
M  V30 6141 C 563.987 -3.46824 -2.70927 0
M  V30 6142 H 561.106 -0.657702 -0.332561 0
M  V30 6143 H 563.748 -1.89086 -0.186186 0
M  V30 6144 H 561.898 -3.08536 -2.36088 0
M  V30 6145 H 563.57 -4.60673 -0.240459 0
M  V30 6146 H 561.813 -4.33517 -0.156785 0
M  V30 6147 H 562.484 -5.32419 -1.45719 0
M  V30 6148 H 564.96 -3.54049 -2.18607 0
M  V30 6149 H 563.836 -4.4218 -3.25219 0
M  V30 6150 H 564.097 -2.70236 -3.49893 0
M  V30 6151 N 563.156 0.464375 -1.50603 0
M  V30 6152 C 564.106 1.55929 -1.66343 0
M  V30 6153 C 565.09 1.52338 -0.517887 0
M  V30 6154 O 566.282 1.59248 -0.772601 0
M  V30 6155 C 563.411 2.94327 -1.7671 0
M  V30 6156 C 562.497 3.02777 -2.96962 0
M  V30 6157 N 562.888 2.81026 -4.20545 0
M  V30 6158 C 561.186 3.33919 -2.95659 0
M  V30 6159 C 561.887 2.94618 -5.01573 0
M  V30 6160 N 560.863 3.25112 -4.35664 0
M  V30 6161 H 564.665 1.37822 -2.59581 0
M  V30 6162 H 562.179 0.671227 -1.47879 0
M  V30 6163 H 564.176 3.73063 -1.86091 0
M  V30 6164 H 562.836 3.13476 -0.846353 0
M  V30 6165 H 563.847 2.56477 -4.49933 0
M  V30 6166 H 560.524 3.59013 -2.13111 0
M  V30 6167 H 561.914 2.81984 -6.09865 0
M  V30 6168 N 564.634 1.40294 0.718013 0
M  V30 6169 C 565.566 1.36281 1.84283 0
M  V30 6170 C 566.579 0.268621 1.60569 0
M  V30 6171 O 567.768 0.528798 1.70487 0
M  V30 6172 C 564.868 1.09741 3.2064 0
M  V30 6173 C 564.041 2.30767 3.71571 0
M  V30 6174 C 563.1 2.00424 4.86535 0
M  V30 6175 O 562.126 2.73268 4.99313 0
M  V30 6176 N 563.328 0.980724 5.72156 0
M  V30 6177 H 566.093 2.3322 1.88225 0
M  V30 6178 H 563.654 1.34616 0.899453 0
M  V30 6179 H 565.646 0.874322 3.95143 0
M  V30 6180 H 564.216 0.214771 3.11861 0
M  V30 6181 H 563.436 2.68921 2.88228 0
M  V30 6182 H 564.724 3.11455 4.02335 0
M  V30 6183 H 564.122 0.377375 5.6444 0
M  V30 6184 H 562.679 0.817538 6.46653 0
M  V30 6185 N 566.112 -0.949982 1.2575 0
M  V30 6186 C 567.361 -1.68956 1.10168 0
M  V30 6187 C 567.674 -1.92327 -0.356309 0
M  V30 6188 O 568.88 -2.64026 -0.632657 0
M  V30 6189 C 567.336 -3.04196 1.92336 0
M  V30 6190 C 566.944 -2.88603 3.42655 0
M  V30 6191 C 568.688 -3.81904 1.85336 0
M  V30 6192 C 566.595 -4.19262 4.17101 0
M  V30 6193 H 565.525 -0.633645 0.408668 0
M  V30 6194 H 568.176 -1.05719 1.49986 0
M  V30 6195 H 566.558 -3.68363 1.45344 0
M  V30 6196 H 567.732 -2.3334 3.97353 0
M  V30 6197 H 566.047 -2.24345 3.50796 0
M  V30 6198 H 568.644 -4.78688 2.38248 0
M  V30 6199 H 568.987 -4.08099 0.822226 0
M  V30 6200 H 569.52 -3.24495 2.30104 0
M  V30 6201 H 566.259 -3.98254 5.20648 0
M  V30 6202 H 565.779 -4.74273 3.67186 0
M  V30 6203 H 567.458 -4.87775 4.25071 0
M  V30 6204 N 567.59 -1.07411 -1.15328 0
M  V30 6205 C 568.5 -0.706438 -2.23711 0
M  V30 6206 C 569.516 0.282586 -1.7169 0
M  V30 6207 O 570.692 0.129066 -2.00986 0
M  V30 6208 C 567.757 -0.11048 -3.46524 0
M  V30 6209 C 566.818 -1.15282 -4.13532 0
M  V30 6210 C 566.051 -0.585205 -5.30482 0
M  V30 6211 O 566.274 0.598549 -5.67251 0
M  V30 6212 O 565.208 -1.33039 -5.87013 0
M  V30 6213 H 569.034 -1.61031 -2.57493 0
M  V30 6214 H 566.619 -0.847113 -1.23062 0
M  V30 6215 H 568.501 0.21957 -4.20828 0
M  V30 6216 H 567.176 0.766703 -3.14489 0
M  V30 6217 H 566.083 -1.53523 -3.41147 0
M  V30 6218 H 567.416 -2.00192 -4.49649 0
M  V30 6219 N 569.068 1.32177 -0.85831 0
M  V30 6220 C 570.298 2.01021 -0.476889 0
M  V30 6221 C 570.706 1.64653 0.931995 0
M  V30 6222 O 570.049 0.865713 1.62022 0
M  V30 6223 C 570.111 3.55413 -0.540528 0
M  V30 6224 C 569.775 4.1522 -1.90895 0
M  V30 6225 C 570.772 4.3318 -2.87491 0
M  V30 6226 C 568.457 4.51212 -2.20709 0
M  V30 6227 C 570.451 4.86306 -4.1205 0
M  V30 6228 C 568.138 5.04042 -3.45521 0
M  V30 6229 C 569.136 5.21538 -4.41007 0
M  V30 6230 O 568.824 5.73238 -5.63608 0
M  V30 6231 H 568.556 0.650059 -0.18547 0
M  V30 6232 H 571.11 1.69648 -1.15796 0
M  V30 6233 H 569.34 3.86196 0.19741 0
M  V30 6234 H 571.029 4.05526 -0.174191 0
M  V30 6235 H 571.795 4.05704 -2.65762 0
M  V30 6236 H 567.674 4.36878 -1.4717 0
M  V30 6237 H 571.218 4.99877 -4.86589 0
M  V30 6238 H 567.115 5.30952 -3.67098 0
M  V30 6239 H 567.883 5.91625 -5.65617 0
M  V30 6240 N 570.547 0.616602 1.45037 0
M  V30 6241 C 571.824 0.0469086 1.95544 0
M  V30 6242 C 572.204 -1.42345 1.55888 0
M  V30 6243 O 571.552 -2.13055 0.825824 0
M  V30 6244 C 571.762 0.254489 3.48071 0
M  V30 6245 C 573.11 0.140025 4.24369 0
M  V30 6246 O 574.134 0.185084 3.55719 0
M  V30 6247 O 572.993 0.0327034 5.4649 0
M  V30 6248 H 570.087 -0.0306051 0.826433 0
M  V30 6249 H 572.633 0.687293 1.55159 0
M  V30 6250 H 571.405 1.27532 3.69934 0
M  V30 6251 H 571.028 -0.42073 3.95368 0
M  V30 6252 N 572.025 -1.5352 0.356285 0
M  V30 6253 C 573.271 -2.01414 -0.236653 0
M  V30 6254 C 573.604 -1.24339 -1.49176 0
M  V30 6255 O 572.879 -0.334496 -1.91602 0
M  V30 6256 C 573.162 -3.56059 -0.537982 0
M  V30 6257 C 573.015 -4.43835 0.730112 0
M  V30 6258 C 574.334 -4.19127 -1.34239 0
M  V30 6259 H 571.453 -0.732135 -0.0845386 0
M  V30 6260 H 574.095 -1.83854 0.479341 0
M  V30 6261 H 572.245 -3.71153 -1.14795 0
M  V30 6262 H 573.917 -4.40555 1.36782 0
M  V30 6263 H 572.16 -4.1218 1.3524 0
M  V30 6264 H 572.831 -5.49958 0.474358 0
M  V30 6265 H 575.307 -4.07809 -0.826498 0
M  V30 6266 H 574.183 -5.27378 -1.52198 0
M  V30 6267 H 574.444 -3.74581 -2.34822 0
M  V30 6268 N 573.503 -0.0852151 -1.57369 0
M  V30 6269 C 574.914 0.445428 -1.81309 0
M  V30 6270 C 575.265 1.68795 -1.00013 0
M  V30 6271 O 574.39 2.15211 -0.226573 0
M  V30 6272 C 574.985 0.814887 -3.28854 0
M  V30 6273 C 573.544 1.29032 -3.53592 0
M  V30 6274 C 572.691 0.282089 -2.75861 0
M  V30 6275 H 575.642 -0.310771 -1.55627 0
M  V30 6276 H 575.663 1.67524 -3.41637 0
M  V30 6277 H 575.175 -0.0896309 -3.87996 0
M  V30 6278 H 573.276 2.21289 -2.9977 0
M  V30 6279 H 573.389 1.25898 -4.62262 0
M  V30 6280 H 571.753 0.762182 -2.43029 0
M  V30 6281 H 572.536 -0.614936 -3.37748 0
M  V30 6282 N 574.981 1.5647 0.188427 0
M  V30 6283 C 575.891 1.98285 1.2538 0
M  V30 6284 C 576.907 0.891535 1.49424 0
M  V30 6285 O 578.083 1.19782 1.61908 0
M  V30 6286 C 575.148 2.31965 2.57669 0
M  V30 6287 C 574.209 3.54838 2.41638 0
M  V30 6288 C 573.442 3.86901 3.67618 0
M  V30 6289 O 573.665 3.20163 4.72072 0
M  V30 6290 O 572.599 4.80309 3.62749 0
M  V30 6291 H 576.425 2.89145 0.928912 0
M  V30 6292 H 574.01 1.44112 0.393955 0
M  V30 6293 H 575.892 2.54673 3.35737 0
M  V30 6294 H 574.567 1.44271 2.89771 0
M  V30 6295 H 573.474 3.37369 1.61658 0
M  V30 6296 H 574.807 4.43019 2.14465 0
M  V30 6297 N 576.459 -0.456382 1.50847 0
M  V30 6298 C 577.391 -1.57033 1.66953 0
M  V30 6299 C 578.404 -1.53207 0.550593 0
M  V30 6300 O 579.593 -1.58328 0.824285 0
M  V30 6301 C 576.693 -2.95937 1.65149 0
M  V30 6302 C 575.866 -3.24475 2.93317 0
M  V30 6303 C 574.925 -4.43007 2.83957 0
M  V30 6304 O 573.951 -4.42592 3.57912 0
M  V30 6305 N 575.153 -5.45503 1.9851 0
M  V30 6306 H 577.918 -1.43629 2.63042 0
M  V30 6307 H 575.479 -0.645037 1.48495 0
M  V30 6308 H 577.471 -3.73224 1.56481 0
M  V30 6309 H 576.041 -3.03036 0.767343 0
M  V30 6310 H 575.261 -2.35664 3.16 0
M  V30 6311 H 576.549 -3.4036 3.78196 0
M  V30 6312 H 575.947 -5.48668 1.37766 0
M  V30 6313 H 574.504 -6.21716 1.95735 0
M  V30 6314 N 577.937 -1.40673 -0.710563 0
M  V30 6315 C 579.162 -1.42741 -1.50465 0
M  V30 6316 C 579.587 -0.0302116 -1.88076 0
M  V30 6317 O 578.945 0.962945 -1.53613 0
M  V30 6318 C 578.993 -2.32873 -2.75322 0
M  V30 6319 O 578.097 -1.77544 -3.72226 0
M  V30 6320 H 577.438 -0.485056 -0.45345 0
M  V30 6321 H 579.968 -1.84961 -0.874681 0
M  V30 6322 H 579.978 -2.48233 -3.23797 0
M  V30 6323 H 578.653 -3.34401 -2.47283 0
M  V30 6324 H 577.23 -1.71556 -3.31093 0
M  V30 6325 N 579.415 0.9433 -1.26252 0
M  V30 6326 C 580.345 2.05902 -1.10122 0
M  V30 6327 C 581.326 1.70099 -0.00700552 0
M  V30 6328 O 582.511 1.93377 -0.178641 0
M  V30 6329 C 579.641 3.39516 -0.731175 0
M  V30 6330 C 578.595 3.89372 -1.77688 0
M  V30 6331 C 577.921 5.19613 -1.26122 0
M  V30 6332 C 579.221 4.14489 -3.17799 0
M  V30 6333 H 580.915 2.19655 -2.03451 0
M  V30 6334 H 578.461 1.05548 -0.979576 0
M  V30 6335 H 580.414 4.17031 -0.605215 0
M  V30 6336 H 579.138 3.25733 0.23782 0
M  V30 6337 H 577.797 3.14036 -1.89148 0
M  V30 6338 H 577.445 5.02208 -0.282128 0
M  V30 6339 H 577.145 5.53939 -1.96023 0
M  V30 6340 H 578.669 5.99713 -1.14789 0
M  V30 6341 H 580.083 4.82625 -3.09428 0
M  V30 6342 H 578.48 4.60094 -3.85271 0
M  V30 6343 H 579.55 3.20347 -3.64014 0
M  V30 6344 N 580.893 1.08022 1.14757 0
M  V30 6345 C 581.843 0.676345 2.17737 0
M  V30 6346 C 582.827 -0.302018 1.5804 0
M  V30 6347 O 584.019 -0.11466 1.76628 0
M  V30 6348 C 581.148 0.082984 3.432 0
M  V30 6349 C 580.234 1.0869 4.09936 0
M  V30 6350 N 580.625 2.26891 4.52055 0
M  V30 6351 C 578.923 0.921768 4.36371 0
M  V30 6352 C 579.624 2.90636 5.0389 0
M  V30 6353 N 578.6 2.18266 4.97856 0
M  V30 6354 H 582.402 1.5765 2.4804 0
M  V30 6355 H 579.916 0.954374 1.31398 0
M  V30 6356 H 581.913 -0.224289 4.16296 0
M  V30 6357 H 580.573 -0.812206 3.14378 0
M  V30 6358 H 581.584 2.6457 4.45223 0
M  V30 6359 H 578.261 0.0800499 4.17423 0
M  V30 6360 H 579.651 3.9104 5.46386 0
M  V30 6361 N 582.371 -1.3172 0.865308 0
M  V30 6362 C 583.601 -2.00765 0.487543 0
M  V30 6363 C 584.009 -1.65145 -0.92325 0
M  V30 6364 O 583.352 -0.874294 -1.61561 0
M  V30 6365 C 583.414 -3.55122 0.559369 0
M  V30 6366 C 583.078 -4.14202 1.93095 0
M  V30 6367 C 584.075 -4.3165 2.89784 0
M  V30 6368 C 581.76 -4.50036 2.23099 0
M  V30 6369 C 583.754 -4.84114 4.14623 0
M  V30 6370 C 581.441 -5.02203 3.48189 0
M  V30 6371 C 582.439 -5.19192 4.43767 0
M  V30 6372 O 582.127 -5.70241 5.6664 0
M  V30 6373 H 581.859 -0.649066 0.188915 0
M  V30 6374 H 584.413 -1.69032 1.16694 0
M  V30 6375 H 582.643 -3.86295 -0.176926 0
M  V30 6376 H 584.332 -4.05428 0.195694 0
M  V30 6377 H 585.098 -4.04288 2.6791 0
M  V30 6378 H 580.977 -4.36091 1.49485 0
M  V30 6379 H 584.521 -4.9729 4.89233 0
M  V30 6380 H 580.418 -5.28997 3.69908 0
M  V30 6381 H 581.186 -5.88617 5.68746 0
M  V30 6382 N 583.85 -0.624285 -1.44708 0
M  V30 6383 C 585.075 -0.131171 -2.06985 0
M  V30 6384 C 585.5 1.18234 -1.46295 0
M  V30 6385 O 584.858 1.72375 -0.561842 0
M  V30 6386 C 584.906 -0.0226724 -3.60593 0
M  V30 6387 O 584.01 1.02314 -3.99507 0
M  V30 6388 H 583.351 -0.0816556 -0.65896 0
M  V30 6389 H 585.88 -0.859027 -1.85693 0
M  V30 6390 H 585.891 0.170138 -4.07645 0
M  V30 6391 H 584.566 -0.981685 -4.04148 0
M  V30 6392 H 583.143 0.805452 -3.64097 0
M  V30 6393 N 585.328 1.53329 -0.364422 0
M  V30 6394 C 586.258 2.28627 0.474543 0
M  V30 6395 C 587.239 1.31009 1.08492 0
M  V30 6396 O 588.424 1.59878 1.10239 0
M  V30 6397 C 585.554 3.07465 1.61501 0
M  V30 6398 C 584.508 4.1276 1.13194 0
M  V30 6399 C 583.834 4.79674 2.36255 0
M  V30 6400 C 585.134 5.21847 0.217507 0
M  V30 6401 H 586.828 2.99005 -0.153656 0
M  V30 6402 H 584.374 1.43803 -0.0753406 0
M  V30 6403 H 586.327 3.58889 2.20855 0
M  V30 6404 H 585.051 2.34775 2.27042 0
M  V30 6405 H 583.71 3.62281 0.56109 0
M  V30 6406 H 583.358 4.03557 3.00251 0
M  V30 6407 H 583.058 5.50827 2.04606 0
M  V30 6408 H 584.582 5.33892 2.96297 0
M  V30 6409 H 585.996 5.6878 0.718493 0
M  V30 6410 H 584.393 6.00099 -0.00806408 0
M  V30 6411 H 585.463 4.7921 -0.740653 0
M  V30 6412 N 586.806 0.0935595 1.57322 0
M  V30 6413 C 587.769 -0.851426 2.12799 0
M  V30 6414 C 588.769 -1.21187 1.0569 0
M  V30 6415 O 589.959 -1.14156 1.31583 0
M  V30 6416 C 587.091 -2.14779 2.64731 0
M  V30 6417 H 588.284 -0.369733 2.97612 0
M  V30 6418 H 585.837 -0.155417 1.55525 0
M  V30 6419 H 586.572 -2.67437 1.83434 0
M  V30 6420 H 586.357 -1.89907 3.43042 0
M  V30 6421 H 587.847 -2.82383 3.07651 0
M  V30 6422 N 588.284 -1.56567 -0.180126 0
M  V30 6423 C 589.7 -1.50488 -0.531559 0
M  V30 6424 C 589.9 -0.796267 -1.851 0
M  V30 6425 O 588.956 -0.352978 -2.50021 0
M  V30 6426 C 590.269 -2.95201 -0.572456 0
M  V30 6427 C 591.817 -3.05957 -0.660264 0
M  V30 6428 C 592.292 -4.5211 -0.732135 0
M  V30 6429 N 593.783 -4.56322 -0.795262 0
M  V30 6430 C 594.518 -5.66742 -0.871296 0
M  V30 6431 N 594.014 -6.86815 -0.908708 0
M  V30 6432 N 595.807 -5.54691 -0.909639 0
M  V30 6433 H 587.958 -2.01045 0.685165 0
M  V30 6434 H 590.221 -0.915536 0.245962 0
M  V30 6435 H 589.927 -3.50165 0.328208 0
M  V30 6436 H 589.801 -3.49369 -1.422 0
M  V30 6437 H 592.188 -2.51032 -1.55136 0
M  V30 6438 H 592.269 -2.54888 0.215783 0
M  V30 6439 H 591.913 -5.07664 0.154664 0
M  V30 6440 H 591.843 -5.00926 -1.6242 0
M  V30 6441 H 594.334 -3.69868 -0.77499 0
M  V30 6442 H 594.647 -7.66718 -0.967654 0
M  V30 6443 H 592.992 -6.89443 -0.877132 0
M  V30 6444 H 596.183 -4.59804 -0.877353 0
M  V30 6445 H 596.356 -6.40768 -0.965434 0
M  V30 6446 N 589.762 0.448376 -1.51087 0
M  V30 6447 C 590.695 1.56298 -1.66272 0
M  V30 6448 C 591.673 1.54381 -0.510419 0
M  V30 6449 O 592.857 1.73671 -0.732854 0
M  V30 6450 C 589.984 2.94883 -1.66618 0
M  V30 6451 C 589.03 3.14868 -2.87681 0
M  V30 6452 S 589.863 2.9234 -4.48662 0
M  V30 6453 C 591.019 4.33227 -4.51735 0
M  V30 6454 H 591.252 1.43182 -2.6055 0
M  V30 6455 H 588.785 0.637309 -1.40633 0
M  V30 6456 H 590.743 3.74771 -1.67502 0
M  V30 6457 H 589.404 3.05371 -0.735358 0
M  V30 6458 H 588.597 4.16166 -2.84292 0
M  V30 6459 H 588.199 2.42788 -2.84482 0
M  V30 6460 H 590.491 5.26247 -4.26697 0
M  V30 6461 H 591.434 4.41653 -5.53487 0
M  V30 6462 H 591.842 4.16367 -3.81181 0
M  V30 6463 N 591.24 1.41047 0.703093 0
M  V30 6464 C 592.651 1.35657 1.28274 0
M  V30 6465 C 593.002 0.0360309 1.96167 0
M  V30 6466 O 592.127 -0.865833 1.98324 0
M  V30 6467 C 592.722 2.45707 2.33267 0
M  V30 6468 C 591.281 2.43738 2.86825 0
M  V30 6469 C 590.428 2.25941 1.60767 0
M  V30 6470 H 593.379 1.50672 0.49836 0
M  V30 6471 H 593.4 2.14333 3.14391 0
M  V30 6472 H 592.912 3.41805 1.83824 0
M  V30 6473 H 591.013 1.51375 3.40465 0
M  V30 6474 H 591.126 3.39779 3.37768 0
M  V30 6475 H 589.49 1.73681 1.86298 0
M  V30 6476 H 590.273 3.24054 1.1333 0
M  V30 6477 N 592.718 -0.936591 1.26751 0
M  V30 6478 C 593.943 -1.72288 1.15462 0
M  V30 6479 C 594.368 -1.85915 -0.285887 0
M  V30 6480 O 593.726 -1.35272 -1.20711 0
M  V30 6481 C 593.774 -3.10503 1.83359 0
M  V30 6482 O 592.878 -3.96745 1.1255 0
M  V30 6483 H 592.219 -0.52843 0.402067 0
M  V30 6484 H 594.749 -1.17271 1.67656 0
M  V30 6485 H 594.759 -3.60867 1.90365 0
M  V30 6486 H 593.434 -2.99901 2.88153 0
M  V30 6487 H 592.011 -3.55191 1.13551 0
M  V30 6488 N 594.196 -1.08629 -1.14182 0
M  V30 6489 C 595.126 -0.740003 -2.21464 0
M  V30 6490 C 596.107 0.278591 -1.67803 0
M  V30 6491 O 597.292 0.148461 -1.93632 0
M  V30 6492 C 594.422 -0.150952 -3.46972 0
M  V30 6493 C 593.376 -1.09815 -4.13672 0
M  V30 6494 C 592.702 -0.3712 -5.3341 0
M  V30 6495 C 594.002 -2.43722 -4.61949 0
M  V30 6496 H 595.696 -1.63697 -2.50686 0
M  V30 6497 H 593.242 -0.788526 -1.20492 0
M  V30 6498 H 595.195 0.103325 -4.21273 0
M  V30 6499 H 593.919 0.781164 -3.1712 0
M  V30 6500 H 592.578 -1.33756 -3.41328 0
M  V30 6501 H 592.226 0.564792 -4.99819 0
M  V30 6502 H 591.926 -1.00267 -5.78982 0
M  V30 6503 H 593.45 -0.12503 -6.10472 0
M  V30 6504 H 594.864 -2.24034 -5.27714 0
M  V30 6505 H 593.261 -3.02582 -5.18232 0
M  V30 6506 H 594.331 -3.05082 -3.76899 0
M  V30 6507 N 595.674 1.31259 -0.872281 0
M  V30 6508 C 597.085 1.78822 -0.536617 0
M  V30 6509 C 597.436 1.71855 0.946594 0
M  V30 6510 O 596.561 1.28769 1.73918 0
M  V30 6511 C 597.156 3.24698 -0.967294 0
M  V30 6512 C 595.715 3.70147 -0.683251 0
M  V30 6513 C 594.862 2.51994 -1.15733 0
M  V30 6514 H 597.813 1.18308 -1.05777 0
M  V30 6515 H 597.834 3.79386 -0.290929 0
M  V30 6516 H 597.346 3.29737 -2.04683 0
M  V30 6517 H 595.447 3.70607 0.384825 0
M  V30 6518 H 595.56 4.62183 -1.2619 0
M  V30 6519 H 593.924 2.48078 -0.577024 0
M  V30 6520 H 594.707 2.59778 -2.24434 0
M  V30 6521 N 597.152 0.631951 1.44375 0
M  V30 6522 C 598.062 -0.073674 2.34484 0
M  V30 6523 C 599.078 -0.834825 1.52665 0
M  V30 6524 O 600.254 -0.786902 1.85391 0
M  V30 6525 C 597.319 -1.04247 3.30656 0
M  V30 6526 C 596.38 -0.280602 4.28382 0
M  V30 6527 C 595.613 -1.20325 5.19959 0
M  V30 6528 O 595.836 -2.44199 5.15484 0
M  V30 6529 O 594.77 -0.687128 5.97965 0
M  V30 6530 H 598.596 0.667477 2.96274 0
M  V30 6531 H 596.181 0.392144 1.44162 0
M  V30 6532 H 598.063 -1.59981 3.89851 0
M  V30 6533 H 596.738 -1.76422 2.71398 0
M  V30 6534 H 595.645 0.319804 3.72731 0
M  V30 6535 H 596.978 0.401144 4.90563 0
M  V30 6536 N 598.631 -1.53133 0.372548 0
M  V30 6537 C 599.856 -2.0625 -0.218098 0
M  V30 6538 C 600.281 -1.24375 -1.41111 0
M  V30 6539 O 599.639 -0.264554 -1.79359 0
M  V30 6540 C 599.687 -3.55858 -0.582876 0
M  V30 6541 O 598.791 -3.76667 -1.67917 0
M  V30 6542 H 598.132 -0.663317 -0.030104 0
M  V30 6543 H 600.662 -1.97477 0.535169 0
M  V30 6544 H 600.672 -3.99007 -0.851925 0
M  V30 6545 H 599.347 -4.14892 0.289428 0
M  V30 6546 H 597.924 -3.45413 -1.40513 0
M  V30 6547 N 600.109 -0.101901 -1.5727 0
M  V30 6548 C 601.357 0.559091 -1.94213 0
M  V30 6549 C 601.678 1.68297 -0.984948 0
M  V30 6550 O 600.948 1.95863 -0.0381975 0
M  V30 6551 H 599.528 0.20952 -0.717015 0
M  V30 6552 H 602.19 -0.166831 -1.94185 0
M  V30 6553 H 601.286 0.96485 -2.96811 0
M  V30 6554 N 601.587 1.56661 0.17182 0
M  V30 6555 C 602.834 1.81965 0.888529 0
M  V30 6556 C 603.162 0.6789 1.82267 0
M  V30 6557 O 602.417 -0.333875 1.92831 0
M  V30 6558 C 602.716 3.13435 1.71736 0
M  V30 6559 C 602.382 4.41159 0.932184 0
M  V30 6560 C 601.044 4.75851 0.715481 0
M  V30 6561 C 603.396 5.19803 0.381387 0
M  V30 6562 C 600.724 5.86666 -0.063126 0
M  V30 6563 C 603.076 6.31433 -0.384129 0
M  V30 6564 C 601.74 6.64692 -0.611637 0
M  V30 6565 H 601.01 0.665859 0.325136 0
M  V30 6566 H 603.657 1.90884 0.153495 0
M  V30 6567 H 601.962 2.99857 2.52177 0
M  V30 6568 H 603.659 3.30224 2.27493 0
M  V30 6569 H 600.249 4.13947 1.11112 0
M  V30 6570 H 604.433 4.93396 0.536148 0
M  V30 6571 H 599.689 6.10892 -0.249136 0
M  V30 6572 H 603.863 6.91577 -0.818185 0
M  V30 6573 H 601.49 7.50398 -1.21684 0
M  V30 6574 N 603.065 -0.440357 1.51323 0
M  V30 6575 C 604.311 -1.19181 1.64085 0
M  V30 6576 C 604.644 -1.90936 0.354575 0
M  V30 6577 O 603.919 -1.8347 -0.645675 0
M  V30 6578 C 604.202 -2.2112 2.84215 0
M  V30 6579 C 604.055 -1.53468 4.22809 0
M  V30 6580 C 605.374 -3.22133 2.99864 0
M  V30 6581 H 602.493 -0.431924 0.597169 0
M  V30 6582 H 605.135 -0.481443 1.83799 0
M  V30 6583 H 603.285 -2.81703 2.67537 0
M  V30 6584 H 604.957 -0.962455 4.51148 0
M  V30 6585 H 603.2 -0.837086 4.25647 0
M  V30 6586 H 603.871 -2.27694 5.02852 0
M  V30 6587 H 606.347 -2.71601 3.15233 0
M  V30 6588 H 605.223 -3.90756 3.85488 0
M  V30 6589 H 605.484 -3.88061 2.11804 0
M  V30 6590 N 604.543 -1.41418 -0.695603 0
M  V30 6591 C 605.476 -1.3768 -1.81988 0
M  V30 6592 C 606.454 -0.244061 -1.60758 0
M  V30 6593 O 607.638 -0.430965 -1.83507 0
M  V30 6594 C 604.765 -1.1476 -3.18666 0
M  V30 6595 C 603.811 -2.30752 -3.58686 0
M  V30 6596 S 604.644 -3.9323 -3.63498 0
M  V30 6597 C 605.8 -3.72613 -5.02902 0
M  V30 6598 H 606.033 -2.32822 -1.84882 0
M  V30 6599 H 603.566 -1.27942 -0.86431 0
M  V30 6600 H 605.524 -1.02223 -3.97569 0
M  V30 6601 H 604.185 -0.212385 -3.13381 0
M  V30 6602 H 603.378 -2.10409 -4.57978 0
M  V30 6603 H 602.98 -2.39696 -2.87092 0
M  V30 6604 H 605.272 -3.32317 -5.904 0
M  V30 6605 H 606.215 -4.71507 -5.28286 0
M  V30 6606 H 606.623 -3.0589 -4.74438 0
M  V30 6607 N 606.021 0.929856 -1.27246 0
M  V30 6608 C 607.246 1.71674 -1.16374 0
M  V30 6609 C 607.671 1.86064 0.276024 0
M  V30 6610 O 607.029 1.3591 1.19992 0
M  V30 6611 C 607.077 3.09526 -1.85003 0
M  V30 6612 O 606.181 3.96142 -1.14653 0
M  V30 6613 H 605.522 0.52629 -0.404863 0
M  V30 6614 H 608.052 1.16381 -1.68276 0
M  V30 6615 H 608.062 3.59852 -1.92276 0
M  V30 6616 H 606.737 2.98369 -2.89739 0
M  V30 6617 H 605.314 3.54584 -1.15433 0
M  V30 6618 N 607.499 1.09233 1.13605 0
M  V30 6619 C 608.747 0.825525 1.84471 0
M  V30 6620 C 609.068 -0.650702 1.83823 0
M  V30 6621 O 608.338 -1.47204 1.29259 0
M  V30 6622 H 606.918 0.3024 0.683054 0
M  V30 6623 H 609.58 1.38006 1.37624 0
M  V30 6624 H 608.676 1.17727 2.89045 0
M  V30 6625 N 608.977 -1.30795 0.87923 0
M  V30 6626 C 610.226 -1.95636 0.490875 0
M  V30 6627 C 610.539 -1.70214 -0.963674 0
M  V30 6628 O 611.745 -2.28991 -1.45861 0
M  V30 6629 C 610.201 -3.50271 0.826929 0
M  V30 6630 C 609.809 -3.84521 2.29886 0
M  V30 6631 C 611.553 -4.21456 0.507494 0
M  V30 6632 C 609.46 -5.32309 2.57685 0
M  V30 6633 H 608.39 -0.732238 0.179841 0
M  V30 6634 H 611.041 -1.48829 1.07341 0
M  V30 6635 H 609.423 -3.9562 0.173542 0
M  V30 6636 H 610.597 -3.50102 2.99609 0
M  V30 6637 H 608.912 -3.26425 2.58526 0
M  V30 6638 H 611.509 -5.30199 0.692293 0
M  V30 6639 H 611.852 -4.12614 -0.552718 0
M  V30 6640 H 612.385 -3.81772 1.11782 0
M  V30 6641 H 609.124 -5.46195 3.62424 0
M  V30 6642 H 608.644 -5.68048 1.92566 0
M  V30 6643 H 610.323 -5.99678 2.42889 0
M  V30 6644 N 610.455 -0.639598 -1.44038 0
M  V30 6645 C 611.871 -0.305953 -1.5664 0
M  V30 6646 C 612.071 1.19055 -1.62567 0
M  V30 6647 O 611.127 1.97492 -1.57331 0
M  V30 6648 C 612.44 -1.00533 -2.83397 0
M  V30 6649 C 613.988 -0.984278 -2.97121 0
M  V30 6650 C 614.463 -1.66428 -4.26691 0
M  V30 6651 N 615.954 -1.63127 -4.33525 0
M  V30 6652 C 616.689 -2.12629 -5.32519 0
M  V30 6653 N 616.185 -2.70359 -6.3787 0
M  V30 6654 N 617.978 -2.03208 -5.24083 0
M  V30 6655 H 610.129 -1.6109 -1.38434 0
M  V30 6656 H 612.392 -0.676672 -0.663942 0
M  V30 6657 H 612.098 -2.06034 -2.85032 0
M  V30 6658 H 611.972 -0.548362 -3.73193 0
M  V30 6659 H 614.359 0.0622792 -2.95034 0
M  V30 6660 H 614.44 -1.47981 -2.08651 0
M  V30 6661 H 614.084 -2.71034 -4.29538 0
M  V30 6662 H 614.014 -1.14351 -5.14034 0
M  V30 6663 H 616.505 -1.20987 -3.58009 0
M  V30 6664 H 616.818 -3.05842 -7.09704 0
M  V30 6665 H 615.163 -2.74414 -6.38531 0
M  V30 6666 H 618.354 -1.57823 -4.40692 0
M  V30 6667 H 618.527 -2.42097 -6.01077 0
M  V30 6668 N 611.933 1.52934 -0.380664 0
M  V30 6669 C 613.349 1.59571 -0.0302429 0
M  V30 6670 C 613.549 1.39509 1.45394 0
M  V30 6671 O 612.605 1.20777 2.21741 0
M  V30 6672 C 613.918 2.96519 -0.499691 0
M  V30 6673 C 615.466 3.09672 -0.455204 0
M  V30 6674 C 615.941 4.49056 -0.900703 0
M  V30 6675 N 617.432 4.55215 -0.856367 0
M  V30 6676 C 618.167 5.61282 -1.17259 0
M  V30 6677 N 617.663 6.75035 -1.55885 0
M  V30 6678 N 619.456 5.51343 -1.0944 0
M  V30 6679 H 611.607 1.64224 -1.347 0
M  V30 6680 H 613.87 0.771033 -0.551554 0
M  V30 6681 H 613.576 3.16388 -1.53595 0
M  V30 6682 H 613.45 3.77052 0.105789 0
M  V30 6683 H 615.837 2.89504 0.571949 0
M  V30 6684 H 615.918 2.31113 -1.09638 0
M  V30 6685 H 615.562 4.69964 -1.92604 0
M  V30 6686 H 615.492 5.26068 -0.236629 0
M  V30 6687 H 617.983 3.73546 -0.572013 0
M  V30 6688 H 618.296 7.51926 -1.784 0
M  V30 6689 H 616.641 6.76388 -1.59764 0
M  V30 6690 H 619.832 4.61356 -0.791713 0
M  V30 6691 H 620.005 6.33905 -1.34417 0
M  V30 6692 N 613.412 0.11024 1.57214 0
M  V30 6693 C 614.359 -0.843195 2.14846 0
M  V30 6694 C 615.329 -1.26954 1.07107 0
M  V30 6695 O 616.514 -1.34861 1.34971 0
M  V30 6696 C 613.654 -2.09123 2.74521 0
M  V30 6697 C 612.767 -1.71404 3.96541 0
M  V30 6698 C 611.902 -2.91107 4.44331 0
M  V30 6699 C 610.941 -2.49586 5.58903 0
M  V30 6700 N 610.078 -3.62175 6.01477 0
M  V30 6701 H 614.918 -0.344886 2.95998 0
M  V30 6702 H 612.455 -0.15855 1.46243 0
M  V30 6703 H 614.413 -2.82234 3.07246 0
M  V30 6704 H 613.043 -2.56427 1.96074 0
M  V30 6705 H 612.095 -0.88201 3.70033 0
M  V30 6706 H 613.407 -1.36884 4.7965 0
M  V30 6707 H 612.561 -3.72454 4.78919 0
M  V30 6708 H 611.3 -3.28848 3.60153 0
M  V30 6709 H 610.305 -1.6667 5.23929 0
M  V30 6710 H 611.53 -2.12973 6.4484 0
M  V30 6711 H 609.476 -3.99605 5.20242 0
M  V30 6712 H 609.393 -3.3155 6.79419 0
M  V30 6713 H 610.661 -4.43987 6.407 0
M  V30 6714 N 614.89 -1.56749 -0.16351 0
M  V30 6715 C 616.115 -1.86938 -0.898264 0
M  V30 6716 C 616.54 -0.697456 -1.74692 0
M  V30 6717 O 615.898 0.353327 -1.77824 0
M  V30 6718 C 615.946 -3.15599 -1.74441 0
M  V30 6719 O 615.05 -2.98371 -2.8469 0
M  V30 6720 H 614.391 -0.614659 -0.251178 0
M  V30 6721 H 616.921 -2.03979 -0.159298 0
M  V30 6722 H 616.931 -3.47202 -2.14277 0
M  V30 6723 H 615.606 -4.00505 -1.1211 0
M  V30 6724 H 614.183 -2.7814 -2.4838 0
M  V30 6725 O 616.407 0.308401 -1.58528 0
M  V30 6726 H 617.098 0.955962 -1.68467 0
M  V30 END ATOM
M  V30 BEGIN BOND
M  V30 END BOND
M  V30 END CTAB
M  END
$$$$
