drugbank_target|O31465 Glutaminase 1 (DB01942; DB04522)
 OpenBabel12092120233D

  0  0  0     0  0            999 V3000
M  V30 BEGIN CTAB
M  V30 COUNTS 5072 5131 0 0 0
M  V30 BEGIN ATOM
M  V30 1 H -0.908 1.98254 -0.117106 0
M  V30 2 N 0 1.576 0 0
M  V30 3 C 0.933 2.03868 1.02534 0
M  V30 4 C 1.911 0.928543 1.3348 0
M  V30 5 O 3.095 1.19667 1.45644 0
M  V30 6 C 0.222 2.43627 2.35294 0
M  V30 7 C -0.732 3.65373 2.2001 0
M  V30 8 S 0.101 5.13292 1.52614 0
M  V30 9 C 1.257 5.56322 2.86805 0
M  V30 10 H 1.49 2.90518 0.631377 0
M  V30 11 H -0.977 1.52953 0.210867 0
M  V30 12 H 0.981 2.67203 3.11629 0
M  V30 13 H -0.358 1.57376 2.7183 0
M  V30 14 H -1.165 3.90944 3.18086 0
M  V30 15 H -1.563 3.418 1.51819 0
M  V30 16 H 0.729 5.58782 3.83104 0
M  V30 17 H 1.672 6.56266 2.65933 0
M  V30 18 H 2.08 4.83886 2.90714 0
M  V30 19 N 1.4781 -0.272755 1.55222 0
M  V30 20 C 2.4251 -1.33716 1.88119 0
M  V30 21 C 3.3951 -1.49066 0.73271 0
M  V30 22 O 4.5801 -1.63469 0.984002 0
M  V30 23 C 1.7201 -2.69238 2.15882 0
M  V30 24 C 0.8331 -2.62108 3.43399 0
M  V30 25 C -0.0319 -3.89811 3.60861 0
M  V30 26 C -0.9929 -3.77193 4.8207 0
M  V30 27 N -1.8559 -4.9673 4.96189 0
M  V30 28 H 2.9841 -1.04962 2.78903 0
M  V30 29 H 0.5211 -0.507088 1.38083 0
M  V30 30 H 2.4791 -3.48089 2.29978 0
M  V30 31 H 1.1091 -2.96194 1.28331 0
M  V30 32 H 0.1611 -1.74967 3.37773 0
M  V30 33 H 1.4731 -2.48685 4.32386 0
M  V30 34 H 0.6271 -4.77103 3.74777 0
M  V30 35 H -0.6339 -4.06102 2.7006 0
M  V30 36 H -1.6289 -2.88284 4.68159 0
M  V30 37 H -0.4039 -3.62421 5.74307 0
M  V30 38 H -2.4579 -5.13431 4.08319 0
M  V30 39 H -2.5409 -4.85839 5.79221 0
M  V30 40 H -1.2729 -5.85594 5.1449 0
M  V30 41 N 2.9562 -1.48159 -0.537278 0
M  V30 42 C 3.8662 -1.64807 -1.6696 0
M  V30 43 C 4.8822 -0.530651 -1.65711 0
M  V30 44 O 6.0582 -0.800784 -1.84796 0
M  V30 45 C 3.1232 -1.67708 -3.03438 0
M  V30 46 C 2.1842 -2.91025 -3.156 0
M  V30 47 C 1.4172 -2.93778 -4.45567 0
M  V30 48 O 1.6402 -2.05153 -5.3223 0
M  V30 49 O 0.5742 -3.85868 -4.61941 0
M  V30 50 H 4.4002 -2.6066 -1.55853 0
M  V30 51 H 1.9852 -1.31475 -0.709549 0
M  V30 52 H 3.8672 -1.7218 -3.84619 0
M  V30 53 H 2.5422 -0.750278 -3.14885 0
M  V30 54 H 1.4492 -2.92089 -2.33741 0
M  V30 55 H 2.7822 -3.83065 -3.09066 0
M  V30 56 N 4.4343 0.785586 -1.36625 0
M  V30 57 C 5.3643 1.91259 -1.33949 0
M  V30 58 C 6.3453 1.68795 -0.210325 0
M  V30 59 O 7.5303 1.89854 -0.408561 0
M  V30 60 C 4.6603 3.28339 -1.13186 0
M  V30 61 C 3.6143 3.65335 -2.22967 0
M  V30 62 C 2.9403 5.00806 -1.87342 0
M  V30 63 C 4.2403 3.7352 -3.65075 0
M  V30 64 H 5.9343 1.93755 -2.28253 0
M  V30 65 H 3.4803 0.930788 -1.09874 0
M  V30 66 H 5.4333 4.06804 -1.09948 0
M  V30 67 H 4.1573 3.2624 -0.153332 0
M  V30 68 H 2.8163 2.89169 -2.25337 0
M  V30 69 H 2.4643 4.95233 -0.880545 0
M  V30 70 H 2.1643 5.26529 -2.60846 0
M  V30 71 H 3.6883 5.81687 -1.85667 0
M  V30 72 H 5.1023 4.42168 -3.64911 0
M  V30 73 H 3.4993 4.10731 -4.37516 0
M  V30 74 H 4.5693 2.74527 -3.99703 0
M  V30 75 N 5.9124 1.20967 1.01018 0
M  V30 76 C 7.1614 1.01796 1.74128 0
M  V30 77 C 7.4744 -0.449691 1.90361 0
M  V30 78 O 8.6804 -0.76068 2.60626 0
M  V30 79 C 7.1364 1.7727 3.13215 0
M  V30 80 C 6.7444 3.28171 3.04972 0
M  V30 81 C 8.4884 1.66489 3.90489 0
M  V30 82 C 6.3954 3.96156 4.39107 0
M  V30 83 H 5.3254 0.377276 0.652824 0
M  V30 84 H 7.9764 1.44651 1.12909 0
M  V30 85 H 6.3584 1.27205 3.75013 0
M  V30 86 H 7.5324 3.85499 2.52443 0
M  V30 87 H 5.8474 3.39437 2.41188 0
M  V30 88 H 8.4444 2.14617 4.89738 0
M  V30 89 H 8.7874 0.6222 4.11624 0
M  V30 90 H 9.3204 2.14003 3.35332 0
M  V30 91 H 6.0594 5.00604 4.23174 0
M  V30 92 H 5.5794 3.43617 4.91617 0
M  V30 93 H 7.2584 4.00774 5.07926 0
M  V30 94 N 7.3905 -1.2043 1.01659 0
M  V30 95 C 8.3375 -2.23215 0.586822 0
M  V30 96 C 9.3075 -1.61382 -0.393085 0
M  V30 97 O 10.4925 -1.88544 -0.292525 0
M  V30 98 C 7.6325 -3.45032 -0.0687464 0
M  V30 99 C 6.7455 -4.21296 0.955724 0
M  V30 100 C 5.8805 -5.30507 0.271208 0
M  V30 101 C 4.9195 -5.98515 1.28244 0
M  V30 102 N 4.0565 -6.99316 0.62459 0
M  V30 103 H 8.8965 -2.59336 1.46796 0
M  V30 104 H 6.4335 -1.27431 0.734836 0
M  V30 105 H 8.3915 -4.1459 -0.465965 0
M  V30 106 H 7.0215 -3.09604 -0.913529 0
M  V30 107 H 6.0735 -3.50803 1.4711 0
M  V30 108 H 7.3855 -4.6803 1.72479 0
M  V30 109 H 6.5395 -6.06428 -0.18151 0
M  V30 110 H 5.2785 -4.8481 -0.530163 0
M  V30 111 H 4.2835 -5.21355 1.74554 0
M  V30 112 H 5.5085 -6.46298 2.08509 0
M  V30 113 H 3.4545 -6.55812 -0.156914 0
M  V30 114 H 3.3715 -7.44178 1.33172 0
M  V30 115 H 4.6395 -7.79255 0.195462 0
M  V30 116 N 8.8686 -0.792821 -1.36206 0
M  V30 117 C 9.7786 -0.194808 -2.3379 0
M  V30 118 C 10.7946 0.654869 -1.61206 0
M  V30 119 O 11.9706 0.569856 -1.9317 0
M  V30 120 C 9.0356 0.657721 -3.40404 0
M  V30 121 C 8.0966 -0.210849 -4.28782 0
M  V30 122 C 7.3296 0.601086 -5.30304 0
M  V30 123 O 7.5526 1.83682 -5.40016 0
M  V30 124 O 6.4866 -0.000808277 -6.019 0
M  V30 125 H 10.3126 -1.00172 -2.86704 0
M  V30 126 H 7.8976 -0.554341 -1.38735 0
M  V30 127 H 9.7796 1.14375 -4.05581 0
M  V30 128 H 8.4546 1.44247 -2.89784 0
M  V30 129 H 7.3616 -0.743714 -3.66633 0
M  V30 130 H 8.6946 -0.959195 -4.82763 0
M  V30 131 N 10.3467 1.47872 -0.545128 0
M  V30 132 C 11.2967 2.26842 0.229456 0
M  V30 133 C 12.2807 1.33626 0.896267 0
M  V30 134 O 13.4727 1.58063 0.79657 0
M  V30 135 C 10.6017 3.19089 1.26638 0
M  V30 136 C 9.6877 4.19783 0.603598 0
M  V30 137 N 10.0787 5.0479 -0.319405 0
M  V30 138 C 8.3767 4.3765 0.858989 0
M  V30 139 C 9.0777 5.77433 -0.703241 0
M  V30 140 N 8.0537 5.43566 -0.0608309 0
M  V30 141 H 11.8557 2.89947 -0.480391 0
M  V30 142 H 9.3697 1.58263 -0.364209 0
M  V30 143 H 11.3667 3.74337 1.83515 0
M  V30 144 H 10.0267 2.5754 1.97745 0
M  V30 145 H 11.0377 5.13244 -0.692889 0
M  V30 146 H 7.7147 3.87281 1.55948 0
M  V30 147 H 9.1047 6.55824 -1.46098 0
M  V30 148 N 11.8248 0.280983 1.55075 0
M  V30 149 C 12.7568 -0.637268 2.20163 0
M  V30 150 C 13.7698 -1.11298 1.18813 0
M  V30 151 O 14.9588 -1.03388 1.4551 0
M  V30 152 C 12.0588 -1.88199 2.81841 0
M  V30 153 C 11.2318 -1.55211 4.08936 0
M  V30 154 C 10.2908 -2.64991 4.54606 0
M  V30 155 O 9.3168 -2.30929 5.2025 0
M  V30 156 N 10.5188 -3.95161 4.25238 0
M  V30 157 H 13.2838 -0.0801694 2.99593 0
M  V30 158 H 10.8448 0.102329 1.61576 0
M  V30 159 H 12.8368 -2.60948 3.09335 0
M  V30 160 H 11.4068 -2.34799 2.06369 0
M  V30 161 H 10.6268 -0.658185 3.88666 0
M  V30 162 H 11.9148 -1.30681 4.91732 0
M  V30 163 H 11.3128 -4.25653 3.72607 0
M  V30 164 H 9.8698 -4.6427 4.5749 0
M  V30 165 N 13.3029 -1.57598 0.00835791 0
M  V30 166 C 14.2499 -2.08945 -0.980346 0
M  V30 167 C 15.2199 -0.986738 -1.33614 0
M  V30 168 O 16.4049 -1.25968 -1.43306 0
M  V30 169 C 13.5449 -2.60425 -2.26435 0
M  V30 170 C 12.6579 -3.84628 -1.96685 0
M  V30 171 C 11.7929 -4.24579 -3.19228 0
M  V30 172 C 10.8319 -5.41596 -2.85202 0
M  V30 173 N 9.9689 -5.768 -4.00307 0
M  V30 174 H 14.8089 -2.93148 -0.535551 0
M  V30 175 H 12.3459 -1.44912 -0.252776 0
M  V30 176 H 14.3039 -2.88354 -3.01509 0
M  V30 177 H 12.9339 -1.79083 -2.68568 0
M  V30 178 H 11.9859 -3.63556 -1.11942 0
M  V30 179 H 13.2979 -4.69796 -1.67611 0
M  V30 180 H 12.4519 -4.53834 -4.02641 0
M  V30 181 H 11.1909 -3.38137 -3.51447 0
M  V30 182 H 10.1959 -5.12056 -2.00198 0
M  V30 183 H 11.4209 -6.29721 -2.54222 0
M  V30 184 H 9.3669 -4.93316 -4.32407 0
M  V30 185 H 9.2839 -6.5656 -3.74786 0
M  V30 186 H 10.5519 -6.10652 -4.84484 0
M  V30 187 N 14.781 0.264519 -1.55364 0
M  V30 188 C 16.058 1.01677 -1.67096 0
M  V30 189 C 16.438 2.03996 -0.543015 0
M  V30 190 O 15.786 2.23907 0.45585 0
M  V30 191 C 15.996 1.66596 -3.0667 0
M  V30 192 C 17.344 2.17442 -3.64697 0
M  V30 193 O 18.368 1.76568 -3.09358 0
M  V30 194 O 17.227 2.92439 -4.61673 0
M  V30 195 H 14.321 0.472161 -0.678965 0
M  V30 196 H 16.867 0.259703 -1.67701 0
M  V30 197 H 15.639 0.924962 -3.80211 0
M  V30 198 H 15.262 2.48968 -3.10001 0
M  V30 199 N 16.2591 1.48442 0.529413 0
M  V30 200 C 17.5081 1.55742 1.28169 0
M  V30 201 C 17.8211 0.236511 1.94165 0
M  V30 202 O 19.0271 0.187761 2.7085 0
M  V30 203 C 17.4831 2.74667 2.32564 0
M  V30 204 C 17.0911 4.13402 1.72636 0
M  V30 205 C 18.8351 2.9128 3.08798 0
M  V30 206 C 16.7421 5.23587 2.74975 0
M  V30 207 H 15.6721 0.579796 0.48203 0
M  V30 208 H 18.3231 1.74776 0.559056 0
M  V30 209 H 16.7051 2.49067 3.07866 0
M  V30 210 H 17.8791 4.49022 1.03519 0
M  V30 211 H 16.1941 4.0191 1.08892 0
M  V30 212 H 18.7911 3.70767 3.85274 0
M  V30 213 H 19.1341 2.00757 3.64695 0
M  V30 214 H 19.6671 3.16782 2.40611 0
M  V30 215 H 16.4061 6.16076 2.23897 0
M  V30 216 H 15.9261 4.92454 3.42417 0
M  V30 217 H 17.6051 5.51724 3.37949 0
M  V30 218 N 17.7372 -0.778329 1.37039 0
M  V30 219 C 18.6852 -1.91278 1.32345 0
M  V30 220 C 19.6792 -1.68051 0.213331 0
M  V30 221 O 20.8852 -1.75922 0.38098 0
M  V30 222 H 17.2602 -0.628909 0.412283 0
M  V30 223 H 19.2312 -1.92355 2.28127 0
M  V30 224 C 17.9802 -3.28455 1.14073 0
M  V30 225 H 17.3032 -3.46901 1.98746 0
M  V30 226 H 18.7432 -4.08152 1.14837 0
M  V30 227 C 17.2022 -3.36548 -0.154015 0
M  V30 228 O 17.7322 -3.85186 -1.13993 0
M  V30 229 N 15.9382 -2.89894 -0.202475 0
M  V30 230 H 15.4852 -2.50504 0.600476 0
M  V30 231 H 15.4432 -2.9569 -1.06841 0
M  V30 232 N 19.2153 -1.21501 -1.00376 0
M  V30 233 C 20.6263 -1.03146 -1.55621 0
M  V30 234 C 20.9773 0.408375 -1.91903 0
M  V30 235 O 20.1023 1.29177 -1.73616 0
M  V30 236 C 20.6973 -1.86612 -2.82775 0
M  V30 237 C 19.2563 -1.72586 -3.34501 0
M  V30 238 C 18.4033 -1.83747 -2.07683 0
M  V30 239 H 21.3543 -1.35505 -0.826081 0
M  V30 240 H 21.3753 -1.3771 -3.54706 0
M  V30 241 H 20.8873 -2.91399 -2.56336 0
M  V30 242 H 18.9883 -0.704877 -3.65872 0
M  V30 243 H 19.1013 -2.54623 -4.05837 0
M  V30 244 H 17.4653 -1.27069 -2.20739 0
M  V30 245 H 18.2483 -2.90044 -1.83655 0
M  V30 246 N 20.6934 1.19889 -1.02296 0
M  V30 247 C 21.6564 2.21116 -0.603351 0
M  V30 248 C 22.6564 1.5738 0.329884 0
M  V30 249 O 23.8464 1.73802 0.117702 0
M  V30 250 C 20.9784 3.40696 0.117992 0
M  V30 251 H 22.1714 2.59754 -1.49893 0
M  V30 252 H 19.7244 1.33463 -0.813468 0
M  V30 253 H 20.4594 3.07569 1.0282 0
M  V30 254 H 20.2444 3.88188 -0.552511 0
M  V30 255 H 21.7344 4.15692 0.398696 0
M  V30 256 N 22.1715 0.800033 1.35784 0
M  V30 257 C 23.1015 0.220184 2.3246 0
M  V30 258 C 24.0825 -0.65073 1.57161 0
M  V30 259 O 25.2675 -0.582359 1.85263 0
M  V30 260 C 22.3975 -0.637353 3.41402 0
M  V30 261 C 21.3515 0.134531 4.27789 0
M  V30 262 C 20.6775 -0.844285 5.27992 0
M  V30 263 C 21.9775 1.32979 5.05088 0
M  V30 264 H 23.6715 1.02787 2.81203 0
M  V30 265 H 21.2175 0.495717 1.35199 0
M  V30 266 H 23.1705 -1.05302 4.08031 0
M  V30 267 H 21.8945 -1.47785 2.91251 0
M  V30 268 H 20.5535 0.531296 3.6273 0
M  V30 269 H 20.2015 -1.68011 4.74111 0
M  V30 270 H 19.9015 -0.332184 5.8666 0
M  V30 271 H 21.4255 -1.2583 5.97494 0
M  V30 272 H 22.8395 0.98934 5.64699 0
M  V30 273 H 21.2365 1.77593 5.7322 0
M  V30 274 H 22.3065 2.11978 4.36111 0
M  V30 275 N 23.6496 -1.47581 0.552962 0
M  V30 276 C 24.5816 -2.27997 -0.234533 0
M  V30 277 C 25.5946 -1.36753 -0.883321 0
M  V30 278 O 26.7836 -1.61612 -0.757889 0
M  V30 279 C 23.8836 -3.10879 -1.34935 0
M  V30 280 C 23.0566 -4.30056 -0.798158 0
M  V30 281 C 22.1156 -4.94567 -1.79694 0
M  V30 282 O 21.1416 -5.53087 -1.34474 0
M  V30 283 N 22.3436 -4.88878 -3.13015 0
M  V30 284 H 25.1086 -2.96222 0.455255 0
M  V30 285 H 22.6696 -1.57163 0.388761 0
M  V30 286 H 24.6616 -3.50903 -2.01616 0
M  V30 287 H 23.2316 -2.44924 -1.94244 0
M  V30 288 H 22.4516 -3.94174 0.0453079 0
M  V30 289 H 23.7396 -5.07152 -0.409173 0
M  V30 290 H 23.1376 -4.42526 -3.52402 0
M  V30 291 H 21.6946 -5.32934 -3.75266 0
M  V30 292 N 25.1277 -0.289203 -1.54924 0
M  V30 293 C 26.0577 0.58549 -2.2604 0
M  V30 294 C 27.0387 1.14753 -1.25562 0
M  V30 295 O 28.2237 1.17906 -1.54311 0
M  V30 296 C 25.3537 1.76305 -2.99222 0
M  V30 297 C 24.3077 1.33191 -4.06748 0
M  V30 298 C 23.6337 2.5937 -4.6758 0
M  V30 299 C 24.9337 0.471775 -5.20165 0
M  V30 300 H 26.6277 -0.00763532 -2.99399 0
M  V30 301 H 24.1737 -0.00511229 -1.43999 0
M  V30 302 H 26.1267 2.38097 -3.47689 0
M  V30 303 H 24.8507 2.38223 -2.23422 0
M  V30 304 H 23.5097 0.737121 -3.59113 0
M  V30 305 H 23.1577 3.19576 -3.88433 0
M  V30 306 H 22.8577 2.31228 -5.40192 0
M  V30 307 H 24.3817 3.21985 -5.18804 0
M  V30 308 H 25.7957 0.995056 -5.64599 0
M  V30 309 H 24.1927 0.284639 -5.99425 0
M  V30 310 H 25.2627 -0.506041 -4.82252 0
M  V30 311 N 26.6058 1.57591 -0.0167156 0
M  V30 312 C 27.5558 2.05953 0.978137 0
M  V30 313 C 28.5398 0.957532 1.29306 0
M  V30 314 O 29.7318 1.22119 1.28125 0
M  V30 315 C 26.8608 2.58006 2.26468 0
M  V30 316 C 25.9468 3.75113 1.97867 0
M  V30 317 N 26.3378 4.86187 1.39486 0
M  V30 318 C 24.6358 3.83363 2.27924 0
M  V30 319 C 25.3368 5.67502 1.27735 0
M  V30 320 N 24.3128 5.14023 1.76866 0
M  V30 321 H 28.1148 2.89236 0.521522 0
M  V30 322 H 25.6288 1.61301 0.188596 0
M  V30 323 H 27.6258 2.90937 2.98599 0
M  V30 324 H 26.2858 1.76148 2.72767 0
M  V30 325 H 27.2968 5.06695 1.07147 0
M  V30 326 H 23.9738 3.1239 2.76982 0
M  V30 327 H 25.3638 6.66791 0.826978 0
M  V30 328 N 28.0839 -0.256276 1.55502 0
M  V30 329 C 29.3609 -1.00789 1.67633 0
M  V30 330 C 29.7409 -2.03706 0.553826 0
M  V30 331 O 29.0889 -2.24145 -0.443969 0
M  V30 332 C 29.2989 -1.64968 3.07549 0
M  V30 333 C 30.6469 -2.15505 3.65845 0
M  V30 334 O 31.6709 -1.74925 3.1029 0
M  V30 335 O 30.5299 -2.89986 4.63217 0
M  V30 336 H 27.6239 -0.468553 0.681459 0
M  V30 337 H 30.1699 -0.250806 1.67836 0
M  V30 338 H 28.9419 -0.904785 3.80696 0
M  V30 339 H 28.5649 -2.47321 3.11317 0
M  V30 340 N 29.562 -1.4872 -0.521534 0
M  V30 341 C 30.808 -1.58378 -1.27624 0
M  V30 342 C 31.163 -0.258028 -1.90662 0
M  V30 343 O 30.456 0.739917 -1.76736 0
M  V30 344 C 30.65 -2.66497 -2.38148 0
M  V30 345 C 30.479 -4.09456 -1.85945 0
M  V30 346 C 29.249 -4.76495 -1.68168 0
M  V30 347 C 31.447 -4.95353 -1.3831 0
M  V30 348 N 29.429 -6.0384 -1.1068 0
M  V30 349 C 30.8 -6.13012 -0.928238 0
M  V30 350 C 32.855 -4.81512 -1.26692 0
M  V30 351 C 31.558 -7.18354 -0.368701 0
M  V30 352 C 33.584 -5.86984 -0.721368 0
M  V30 353 C 32.946 -7.03857 -0.276623 0
M  V30 354 H 29.045 -0.634045 -0.457724 0
M  V30 355 H 31.629 -1.85639 -0.587049 0
M  V30 356 H 29.8 -2.41043 -3.04553 0
M  V30 357 H 31.532 -2.65791 -3.05184 0
M  V30 358 H 28.287 -4.32962 -1.91939 0
M  V30 359 H 28.711 -6.71778 -0.839217 0
M  V30 360 H 33.353 -3.91487 -1.5968 0
M  V30 361 H 31.071 -8.08096 -0.0265122 0
M  V30 362 H 34.657 -5.78329 -0.634531 0
M  V30 363 H 33.537 -7.84077 0.138947 0
M  V30 364 N 31.0401 0.771051 -1.3745 0
M  V30 365 C 32.2861 1.5319 -1.32894 0
M  V30 366 C 32.6191 1.94008 0.0862511 0
M  V30 367 O 31.8941 1.64124 1.04373 0
M  V30 368 C 32.1771 2.79648 -2.26868 0
M  V30 369 C 32.0301 2.45079 -3.77169 0
M  V30 370 C 33.3491 3.81583 -2.19277 0
M  V30 371 H 30.4681 0.555744 -0.484064 0
M  V30 372 H 33.1101 0.884492 -1.68157 0
M  V30 373 H 31.2601 3.34891 -1.96926 0
M  V30 374 H 32.9321 1.95745 -4.1771 0
M  V30 375 H 31.1751 1.77767 -3.95704 0
M  V30 376 H 31.8461 3.35478 -4.38359 0
M  V30 377 H 34.3221 3.35835 -2.45671 0
M  V30 378 H 33.1981 4.67787 -2.87171 0
M  V30 379 H 33.4591 4.25897 -1.18592 0
M  V30 380 N 32.5182 1.22032 0.997298 0
M  V30 381 C 33.4282 1.00271 2.12092 0
M  V30 382 C 34.4442 -0.047621 1.73935 0
M  V30 383 O 35.6202 0.144136 2.00884 0
M  V30 384 C 32.6852 0.578449 3.4184 0
M  V30 385 C 31.7462 1.70189 3.94125 0
M  V30 386 C 30.9792 1.29778 5.17681 0
M  V30 387 O 31.2022 0.174676 5.70132 0
M  V30 388 O 30.1362 2.11261 5.63607 0
M  V30 389 H 33.9622 1.94398 2.3333 0
M  V30 390 H 31.5472 1.00587 1.10465 0
M  V30 391 H 33.4292 0.351998 4.19927 0
M  V30 392 H 32.1042 -0.334019 3.21972 0
M  V30 393 H 31.0112 1.98282 3.1723 0
M  V30 394 H 32.3442 2.59206 4.18417 0
M  V30 395 N 33.9963 -1.19345 1.0293 0
M  V30 396 C 35.2263 -1.92717 0.744563 0
M  V30 397 C 35.6343 -1.75751 -0.700579 0
M  V30 398 O 34.9773 -1.07703 -1.48815 0
M  V30 399 C 35.0393 -3.44828 1.01657 0
M  V30 400 C 34.7033 -3.85564 2.45335 0
M  V30 401 C 35.7003 -3.90286 3.43472 0
M  V30 402 C 33.3853 -4.1719 2.79746 0
M  V30 403 C 35.3793 -4.26065 4.74075 0
M  V30 404 C 33.0663 -4.52642 4.10559 0
M  V30 405 C 34.0643 -4.57054 5.07534 0
M  V30 406 O 33.7523 -4.91685 6.36004 0
M  V30 407 H 33.4843 -0.618977 0.271742 0
M  V30 408 H 36.0383 -1.52415 1.37691 0
M  V30 409 H 34.2683 -3.85314 0.327084 0
M  V30 410 H 35.9573 -3.99437 0.721427 0
M  V30 411 H 36.7233 -3.66002 3.18225 0
M  V30 412 H 32.6023 -4.1294 2.04943 0
M  V30 413 H 36.1463 -4.29423 5.49765 0
M  V30 414 H 32.0433 -4.76383 4.35579 0
M  V30 415 H 32.8113 -5.09631 6.40483 0
M  V30 416 N 35.4744 -0.807222 -1.35358 0
M  V30 417 C 36.7044 -0.399796 -2.02695 0
M  V30 418 C 37.1124 0.994176 -1.60974 0
M  V30 419 O 36.4554 1.65209 -0.803226 0
M  V30 420 C 36.5174 -0.404445 -3.57218 0
M  V30 421 C 36.1814 -1.74904 -4.22206 0
M  V30 422 C 37.1784 -2.70743 -4.4384 0
M  V30 423 C 34.8634 -2.03322 -4.5931 0
M  V30 424 C 36.8574 -3.93183 -5.01683 0
M  V30 425 C 34.5444 -3.26026 -5.16866 0
M  V30 426 C 35.5424 -4.20774 -5.37994 0
M  V30 427 O 35.2304 -5.41312 -5.94337 0
M  V30 428 H 34.9624 -0.160517 -0.656666 0
M  V30 429 H 37.5164 -1.09235 -1.73945 0
M  V30 430 H 35.7464 0.344707 -3.85161 0
M  V30 431 H 37.4354 -0.0192429 -4.05895 0
M  V30 432 H 38.2014 -2.5008 -4.15554 0
M  V30 433 H 34.0804 -1.30384 -4.42178 0
M  V30 434 H 37.6244 -4.6715 -5.1809 0
M  V30 435 H 33.5214 -3.46559 -5.44579 0
M  V30 436 H 34.2894 -5.42618 -6.12787 0
M  V30 437 N 36.9525 1.47285 -0.560781 0
M  V30 438 C 38.3685 1.58065 -0.22081 0
M  V30 439 C 38.5685 1.55892 1.27671 0
M  V30 440 O 37.6245 1.46422 2.0571 0
M  V30 441 C 38.9375 2.88418 -0.850625 0
M  V30 442 C 40.4855 3.02009 -0.822184 0
M  V30 443 C 40.9605 4.35066 -1.43113 0
M  V30 444 N 42.4515 4.41711 -1.39448 0
M  V30 445 C 43.1865 5.43237 -1.83525 0
M  V30 446 N 42.6825 6.51555 -2.35474 0
M  V30 447 N 44.4755 5.34304 -1.74574 0
M  V30 448 H 36.6265 1.46941 -1.53369 0
M  V30 449 H 38.8895 0.699558 -0.639783 0
M  V30 450 H 38.5955 2.95755 -1.9032 0
M  V30 451 H 38.4695 3.75612 -0.345773 0
M  V30 452 H 40.8565 2.94266 0.221714 0
M  V30 453 H 40.9375 2.16347 -1.36483 0
M  V30 454 H 40.5815 4.43565 -2.47412 0
M  V30 455 H 40.5115 5.19465 -0.863899 0
M  V30 456 H 43.0025 3.64027 -1.01452 0
M  V30 457 H 43.3155 7.25203 -2.67021 0
M  V30 458 H 41.6605 6.52435 -2.39487 0
M  V30 459 H 44.8515 4.48581 -1.33763 0
M  V30 460 H 45.0245 6.13288 -2.09242 0
M  V30 461 N 38.4306 0.297415 1.54768 0
M  V30 462 C 39.8416 -0.195947 1.85669 0
M  V30 463 C 40.1926 -1.53707 1.21937 0
M  V30 464 O 39.3176 -2.10164 0.515754 0
M  V30 465 C 39.9126 -0.362318 3.36857 0
M  V30 466 C 38.4716 -0.799901 3.67802 0
M  V30 467 C 37.6186 0.0938578 2.77141 0
M  V30 468 H 40.5696 0.518538 1.4999 0
M  V30 469 H 40.5906 -1.19745 3.61167 0
M  V30 470 H 40.1026 0.613921 3.83214 0
M  V30 471 H 38.2036 -1.78682 3.26961 0
M  V30 472 H 38.3166 -0.621773 4.75048 0
M  V30 473 H 36.6806 -0.426254 2.51108 0
M  V30 474 H 37.4636 1.06639 3.26318 0
M  V30 475 N 39.9087 -1.5758 0.0250728 0
M  V30 476 C 41.1557 -1.91633 -0.654444 0
M  V30 477 C 41.4837 -0.901103 -1.72367 0
M  V30 478 O 40.7387 0.0905647 -1.9549 0
M  V30 479 C 41.0377 -3.32421 -1.31268 0
M  V30 480 C 40.7037 -4.49344 -0.374223 0
M  V30 481 C 39.3657 -4.8106 -0.115911 0
M  V30 482 C 41.7177 -5.20498 0.270432 0
M  V30 483 C 39.0457 -5.8129 0.79493 0
M  V30 484 C 41.3977 -6.21699 1.1693 0
M  V30 485 C 40.0617 -6.51859 1.43655 0
M  V30 486 H 39.3317 -0.701236 -0.239478 0
M  V30 487 H 41.9787 -1.91307 0.0859734 0
M  V30 488 H 40.2837 -3.28989 -2.12775 0
M  V30 489 H 41.9807 -3.56038 -1.84494 0
M  V30 490 H 38.5707 -4.24579 -0.58573 0
M  V30 491 H 42.7547 -4.96229 0.0839194 0
M  V30 492 H 38.0107 -6.03005 1.00973 0
M  V30 493 H 42.1847 -6.75955 1.67504 0
M  V30 494 H 39.8117 -7.2934 2.144 0
M  V30 495 N 41.3868 0.248026 -1.55636 0
M  V30 496 C 42.3498 1.29044 -1.89421 0
M  V30 497 C 43.3498 1.41134 -0.770581 0
M  V30 498 O 44.5398 1.39854 -1.03858 0
M  V30 499 C 41.6718 2.66831 -2.12165 0
M  V30 500 H 42.8648 1.00305 -2.82629 0
M  V30 501 H 40.4178 0.487265 -1.48511 0
M  V30 502 H 41.1528 3.00711 -1.21422 0
M  V30 503 H 40.9378 2.59438 -2.93997 0
M  V30 504 H 42.4278 3.42103 -2.3949 0
M  V30 505 N 42.8649 1.48995 0.513639 0
M  V30 506 C 43.8279 1.64229 1.59879 0
M  V30 507 C 44.8279 0.514696 1.5234 0
M  V30 508 O 46.0179 0.78087 1.55718 0
M  V30 509 C 43.1499 1.62783 2.99524 0
M  V30 510 H 44.3429 2.61004 1.47705 0
M  V30 511 H 41.8959 1.37837 0.736936 0
M  V30 512 H 42.6309 0.675461 3.17188 0
M  V30 513 H 42.4159 2.4466 3.06404 0
M  V30 514 H 43.9059 1.76669 3.78388 0
M  V30 515 N 44.343 -0.763751 1.37857 0
M  V30 516 C 45.291 -1.89864 1.34367 0
M  V30 517 C 46.285 -1.67816 0.231143 0
M  V30 518 O 47.491 -1.75508 0.399617 0
M  V30 519 H 43.866 -0.624501 0.41893 0
M  V30 520 H 45.837 -1.89925 2.30155 0
M  V30 521 C 44.586 -3.27227 1.1755 0
M  V30 522 H 43.909 -3.44773 2.02414 0
M  V30 523 H 45.349 -4.06911 1.1916 0
M  V30 524 C 43.808 -3.36692 -0.118311 0
M  V30 525 O 44.338 -3.86374 -1.09902 0
M  V30 526 N 42.544 -2.90092 -0.171717 0
M  V30 527 H 42.091 -2.49853 0.627012 0
M  V30 528 H 42.049 -2.96806 -1.03699 0
M  V30 529 N 45.8211 -1.22559 -0.990812 0
M  V30 530 C 47.0691 -1.04933 -1.72724 0
M  V30 531 C 47.3901 0.416158 -1.90508 0
M  V30 532 O 46.6601 1.29918 -1.46622 0
M  V30 533 H 45.2401 -0.385296 -0.639965 0
M  V30 534 H 47.9021 -1.54105 -1.19322 0
M  V30 535 H 46.9981 -1.52886 -2.72089 0
M  V30 536 N 47.2992 1.18797 -1.03562 0
M  V30 537 C 48.2312 2.21731 -0.580337 0
M  V30 538 C 49.2442 1.59051 0.347349 0
M  V30 539 O 50.4332 1.77929 0.142669 0
M  V30 540 C 47.5332 3.38459 0.172805 0
M  V30 541 C 46.7062 4.3072 -0.761496 0
M  V30 542 C 45.7652 5.26174 -0.0525547 0
M  V30 543 O 44.7912 5.65108 -0.681333 0
M  V30 544 N 45.9932 5.67624 1.21586 0
M  V30 545 H 48.7582 2.61417 -1.46565 0
M  V30 546 H 46.3192 1.33531 -0.915476 0
M  V30 547 H 48.3112 3.99335 0.656793 0
M  V30 548 H 46.8812 2.97507 0.959602 0
M  V30 549 H 46.1012 3.67525 -1.42544 0
M  V30 550 H 47.3892 4.89267 -1.39626 0
M  V30 551 H 46.7872 5.38038 1.74732 0
M  V30 552 H 45.3442 6.30721 1.64421 0
M  V30 553 N 48.7773 0.814389 1.34928 0
M  V30 554 C 50.0023 0.410097 2.03305 0
M  V30 555 C 50.4273 -0.973464 1.60951 0
M  V30 556 O 49.7853 -1.63185 0.789964 0
M  V30 557 C 49.8333 0.51049 3.56968 0
M  V30 558 O 48.9373 -0.473035 4.09678 0
M  V30 559 H 48.2783 0.170088 0.641846 0
M  V30 560 H 50.8083 1.10244 1.72358 0
M  V30 561 H 50.8183 0.383135 4.06197 0
M  V30 562 H 49.4933 1.51963 3.87144 0
M  V30 563 H 48.0703 -0.305272 3.71648 0
M  V30 564 N 50.2554 -1.46986 0.568584 0
M  V30 565 C 51.2184 -2.28624 -0.162366 0
M  V30 566 C 52.2184 -1.37596 -0.832103 0
M  V30 567 O 53.4084 -1.60115 -0.68622 0
M  V30 568 C 50.5404 -3.17596 -1.23878 0
M  V30 569 H 51.7334 -2.94722 0.554899 0
M  V30 570 H 49.2864 -1.52863 0.325976 0
M  V30 571 H 50.0214 -2.56214 -1.98808 0
M  V30 572 H 49.8064 -3.846 -0.763219 0
M  V30 573 H 51.2964 -3.79078 -1.75185 0
M  V30 574 N 51.7335 -0.305618 -1.54608 0
M  V30 575 C 52.6815 0.584119 -2.25146 0
M  V30 576 C 53.6755 1.13326 -1.25911 0
M  V30 577 O 54.8815 1.08337 -1.43747 0
M  V30 578 H 51.2565 0.206983 -0.722954 0
M  V30 579 H 53.2275 -0.033291 -2.98381 0
M  V30 580 C 51.9765 1.74225 -3.009 0
M  V30 581 H 51.2995 1.32892 -3.77067 0
M  V30 582 H 52.7395 2.34077 -3.53531 0
M  V30 583 C 51.1985 2.64914 -2.0814 0
M  V30 584 O 51.7285 3.66137 -1.65246 0
M  V30 585 N 49.9345 2.3275 -1.74 0
M  V30 586 H 49.4815 1.50479 -2.09078 0
M  V30 587 H 49.4395 2.93694 -1.12211 0
M  V30 588 N 53.2116 1.57565 -0.0334293 0
M  V30 589 C 54.4416 1.95996 0.653398 0
M  V30 590 C 54.8496 0.908749 1.65947 0
M  V30 591 O 54.1926 -0.117471 1.83324 0
M  V30 592 C 54.2546 3.30589 1.41249 0
M  V30 593 C 53.9186 4.53503 0.564263 0
M  V30 594 C 54.9156 5.19647 -0.16225 0
M  V30 595 C 52.6006 4.99801 0.500398 0
M  V30 596 C 54.5946 6.30412 -0.941255 0
M  V30 597 C 52.2816 6.10448 -0.282308 0
M  V30 598 C 53.2796 6.75612 -1.00184 0
M  V30 599 O 52.9676 7.84134 -1.77171 0
M  V30 600 H 52.6996 0.65027 0.184728 0
M  V30 601 H 55.2536 2.05199 -0.0907841 0
M  V30 602 H 53.4836 3.17888 2.20191 0
M  V30 603 H 55.1726 3.53892 1.98784 0
M  V30 604 H 55.9386 4.84846 -0.12227 0
M  V30 605 H 51.8176 4.48883 1.05002 0
M  V30 606 H 55.3616 6.81208 -1.50339 0
M  V30 607 H 51.2586 6.44686 -0.323989 0
M  V30 608 H 52.0266 8.00822 -1.69194 0
M  V30 609 N 54.6897 -0.239769 1.55765 0
M  V30 610 C 55.9387 -0.964754 1.77131 0
M  V30 611 C 56.2517 -1.86213 0.59868 0
M  V30 612 O 57.4577 -2.6244 0.695522 0
M  V30 613 C 55.9137 -1.76552 3.1362 0
M  V30 614 C 55.5217 -0.915185 4.38553 0
M  V30 615 C 57.2657 -2.48281 3.44321 0
M  V30 616 C 55.1727 -1.71225 5.66071 0
M  V30 617 H 54.1027 -0.363953 0.660344 0
M  V30 618 H 56.7537 -0.219181 1.82186 0
M  V30 619 H 55.1357 -2.55331 3.02691 0
M  V30 620 H 56.3097 -0.169217 4.60489 0
M  V30 621 H 54.6247 -0.310889 4.15238 0
M  V30 622 H 57.2217 -3.08382 4.36812 0
M  V30 623 H 57.5647 -3.20256 2.65973 0
M  V30 624 H 58.0977 -1.76507 3.56497 0
M  V30 625 H 54.8367 -1.03612 6.4726 0
M  V30 626 H 54.3567 -2.43331 5.48224 0
M  V30 627 H 56.0357 -2.27758 6.05587 0
M  V30 628 N 56.1678 -1.49265 -0.50573 0
M  V30 629 C 57.5788 -1.51769 -1.08734 0
M  V30 630 C 57.9298 -0.301192 -1.93874 0
M  V30 631 O 57.0548 0.589456 -2.08217 0
M  V30 632 C 57.6498 -2.75017 -1.97867 0
M  V30 633 C 56.2088 -2.80314 -2.51199 0
M  V30 634 C 55.3558 -2.4562 -1.28709 0
M  V30 635 H 58.3068 -1.56031 -0.289855 0
M  V30 636 H 58.3278 -2.5491 -2.82491 0
M  V30 637 H 57.8398 -3.63539 -1.35873 0
M  V30 638 H 55.9408 -1.96061 -3.16845 0
M  V30 639 H 56.0538 -3.82366 -2.88675 0
M  V30 640 H 54.4178 -1.97297 -1.61078 0
M  V30 641 H 55.2008 -3.36411 -0.6843 0
M  V30 642 N 57.6459 0.756429 -1.3826 0
M  V30 643 C 58.6089 1.85176 -1.35065 0
M  V30 644 C 59.6089 1.58818 -0.251703 0
M  V30 645 O 60.7989 1.66615 -0.508433 0
M  V30 646 C 57.9309 3.22596 -1.10201 0
M  V30 647 H 59.1239 1.89417 -2.3251 0
M  V30 648 H 56.6769 0.95783 -1.23512 0
M  V30 649 H 57.4119 3.24025 -0.133504 0
M  V30 650 H 57.1969 3.43122 -1.89762 0
M  V30 651 H 58.6869 4.02673 -1.10654 0
M  V30 652 N 59.124 1.23083 0.984299 0
M  V30 653 C 60.054 1.03292 2.09411 0
M  V30 654 C 61.035 -0.048923 1.7003 0
M  V30 655 O 62.22 0.114967 1.93859 0
M  V30 656 C 59.35 0.619155 3.41736 0
M  V30 657 C 58.304 1.64791 3.95004 0
M  V30 658 C 57.63 1.0897 5.23478 0
M  V30 659 C 58.93 3.03999 4.24714 0
M  V30 660 H 60.624 1.96119 2.26225 0
M  V30 661 H 58.17 0.944344 1.08711 0
M  V30 662 H 60.123 0.467777 4.18796 0
M  V30 663 H 58.847 -0.344786 3.24775 0
M  V30 664 H 57.506 1.78721 3.20085 0
M  V30 665 H 57.154 0.11686 5.02864 0
M  V30 666 H 56.854 1.77704 5.60085 0
M  V30 667 H 58.378 0.950093 6.03163 0
M  V30 668 H 59.792 2.93393 4.92538 0
M  V30 669 H 58.189 3.69936 4.72512 0
M  V30 670 H 59.259 3.53285 3.32142 0
M  V30 671 N 60.6021 -1.18246 1.0419 0
M  V30 672 C 61.8501 -1.87886 0.744543 0
M  V30 673 C 62.1711 -1.8082 -0.730006 0
M  V30 674 O 61.4411 -1.22736 -1.52685 0
M  V30 675 H 60.0211 -0.695556 0.272417 0
M  V30 676 H 62.6831 -1.43494 1.31892 0
M  V30 677 H 61.7791 -2.9389 1.05049 0
M  V30 678 N 62.0802 -0.821533 -1.34494 0
M  V30 679 C 63.0272 -0.240397 -2.29545 0
M  V30 680 C 63.9972 0.634031 -1.53523 0
M  V30 681 O 65.1822 0.575966 -1.81899 0
M  V30 682 C 62.3222 0.592869 -3.39969 0
M  V30 683 C 61.4352 -0.30365 -4.30932 0
M  V30 684 C 60.5702 0.539049 -5.28458 0
M  V30 685 C 59.6092 -0.356942 -6.11058 0
M  V30 686 N 58.7462 0.446603 -7.00678 0
M  V30 687 H 63.5862 -1.05632 -2.7865 0
M  V30 688 H 61.1232 -0.532413 -1.37127 0
M  V30 689 H 63.0812 1.09129 -4.02675 0
M  V30 690 H 61.7112 1.37392 -2.92102 0
M  V30 691 H 60.7632 -0.920276 -3.691 0
M  V30 692 H 62.0752 -0.992661 -4.88823 0
M  V30 693 H 61.2292 1.102 -5.96608 0
M  V30 694 H 59.9682 1.26157 -4.71101 0
M  V30 695 H 58.9732 -0.932047 -5.41842 0
M  V30 696 H 60.1982 -1.07755 -6.70497 0
M  V30 697 H 58.1442 1.15282 -6.45791 0
M  V30 698 H 58.0612 -0.184048 -7.55776 0
M  V30 699 H 59.3292 0.992352 -7.73158 0
M  V30 700 N 63.5583 1.46682 -0.576371 0
M  V30 701 C 64.8043 2.02712 -0.0596221 0
M  V30 702 C 65.1373 1.44765 1.29448 0
M  V30 703 O 64.4123 0.610355 1.84675 0
M  V30 704 C 64.6953 3.60098 0.0129503 0
M  V30 705 C 64.5483 4.28441 -1.3696 0
M  V30 706 C 65.8673 4.34224 0.71678 0
M  V30 707 H 62.9863 0.736637 -0.0231407 0
M  V30 708 H 65.6283 1.74898 -0.742351 0
M  V30 709 H 63.7783 3.83926 0.594378 0
M  V30 710 H 65.4503 4.15896 -1.9957 0
M  V30 711 H 63.6933 3.8805 -1.93907 0
M  V30 712 H 64.3643 5.3716 -1.27135 0
M  V30 713 H 66.8403 4.15503 0.222908 0
M  V30 714 H 65.7163 5.43936 0.73657 0
M  V30 715 H 65.9773 4.04823 1.77682 0
M  V30 716 N 65.0364 0.313813 1.54444 0
M  V30 717 C 65.9844 -0.572171 2.25453 0
M  V30 718 C 66.9784 -1.12657 1.2651 0
M  V30 719 O 68.1844 -1.07573 1.44319 0
M  V30 720 H 64.5594 -0.203146 0.724041 0
M  V30 721 H 66.5304 0.0491145 2.9836 0
M  V30 722 C 65.2794 -1.72626 3.0182 0
M  V30 723 H 64.6024 -1.30891 3.77767 0
M  V30 724 H 66.0424 -2.32199 3.54767 0
M  V30 725 C 64.5014 -2.63806 2.09542 0
M  V30 726 O 65.0314 -3.65256 1.67185 0
M  V30 727 N 63.2374 -2.31824 1.75232 0
M  V30 728 H 62.7844 -1.49368 2.09873 0
M  V30 729 H 62.7424 -2.93095 1.13767 0
M  V30 730 N 66.5145 -1.57545 0.0417849 0
M  V30 731 C 67.7915 -1.83642 -0.673433 0
M  V30 732 C 68.1715 -0.928298 -1.89594 0
M  V30 733 O 67.5195 0.0129955 -2.28496 0
M  V30 734 C 67.7295 -3.33155 -1.03964 0
M  V30 735 C 69.0775 -3.99941 -1.42592 0
M  V30 736 O 70.1015 -3.37725 -1.13226 0
M  V30 737 O 68.9605 -5.09619 -1.9736 0
M  V30 738 H 66.0545 -0.757638 -0.331533 0
M  V30 739 H 68.6005 -1.69554 0.070433 0
M  V30 740 H 67.3725 -3.9093 -0.170098 0
M  V30 741 H 66.9955 -3.52396 -1.84126 0
M  V30 742 N 67.9926 0.231505 -1.5589 0
M  V30 743 C 69.2176 0.978689 -1.82856 0
M  V30 744 C 69.6426 1.77559 -0.620846 0
M  V30 745 O 69.0006 1.76119 0.430305 0
M  V30 746 C 69.0486 1.87997 -3.07716 0
M  V30 747 O 68.1526 2.97393 -2.85712 0
M  V30 748 H 67.4936 0.277663 -0.603158 0
M  V30 749 H 70.0236 0.24783 -2.03093 0
M  V30 750 H 70.0336 2.2917 -3.37558 0
M  V30 751 H 68.7086 1.29417 -3.95252 0
M  V30 752 H 67.2856 2.60238 -2.67078 0
M  V30 753 N 69.4707 1.49531 0.497807 0
M  V30 754 C 70.4027 1.62559 1.61578 0
M  V30 755 C 71.4157 0.508134 1.54667 0
M  V30 756 O 72.6047 0.780309 1.60541 0
M  V30 757 C 69.7047 1.56925 3.00379 0
M  V30 758 C 68.8777 2.84257 3.3244 0
M  V30 759 C 67.9367 2.71632 4.50669 0
M  V30 760 O 66.9627 3.4557 4.52294 0
M  V30 761 N 68.1647 1.83391 5.5077 0
M  V30 762 H 70.9297 2.58981 1.50828 0
M  V30 763 H 68.4907 1.4666 0.685743 0
M  V30 764 H 70.4827 1.46129 3.77397 0
M  V30 765 H 69.0527 0.683483 3.05037 0
M  V30 766 H 68.2727 3.09381 2.44289 0
M  V30 767 H 69.5607 3.68666 3.5066 0
M  V30 768 H 68.9587 1.22583 5.52259 0
M  V30 769 H 67.5157 1.78515 6.26878 0
M  V30 770 N 70.9488 -0.749086 1.3866 0
M  V30 771 C 71.8788 -1.8764 1.38973 0
M  V30 772 C 72.8598 -1.68178 0.255004 0
M  V30 773 O 74.0448 -1.88704 0.458754 0
M  V30 774 C 71.1748 -3.25222 1.21851 0
M  V30 775 C 70.1288 -3.59295 2.32575 0
M  V30 776 C 69.4548 -4.95663 2.00555 0
M  V30 777 C 70.7548 -3.63709 3.7485 0
M  V30 778 H 72.4488 -1.87635 2.3331 0
M  V30 779 H 69.9948 -0.901329 1.12303 0
M  V30 780 H 71.9478 -4.03746 1.20695 0
M  V30 781 H 70.6718 -3.25719 0.239775 0
M  V30 782 H 69.3308 -2.83093 2.32925 0
M  V30 783 H 68.9788 -4.92724 1.01154 0
M  V30 784 H 68.6788 -5.19429 2.74714 0
M  V30 785 H 70.2028 -5.7656 2.01024 0
M  V30 786 H 71.6168 -4.32338 3.76506 0
M  V30 787 H 70.0138 -3.98986 4.48252 0
M  V30 788 H 71.0838 -2.63834 4.06841 0
M  V30 789 N 72.4269 -1.23603 -0.977757 0
M  V30 790 C 73.6749 -1.06759 -1.71601 0
M  V30 791 C 73.9959 0.395929 -1.90938 0
M  V30 792 O 73.2659 1.28356 -1.47992 0
M  V30 793 H 71.8459 -0.392062 -0.635843 0
M  V30 794 H 74.5079 -1.55362 -1.1768 0
M  V30 795 H 73.6039 -1.55763 -2.70452 0
M  V30 796 N 73.905 1.17692 -1.04816 0
M  V30 797 C 75.154 1.87192 -0.751132 0
M  V30 798 C 75.467 1.8169 0.724441 0
M  V30 799 O 76.673 2.46625 1.13527 0
M  V30 800 C 75.129 3.35857 -1.29338 0
M  V30 801 C 74.737 3.4987 -2.79812 0
M  V30 802 C 76.481 4.10709 -1.07322 0
M  V30 803 C 74.388 4.92536 -3.27356 0
M  V30 804 H 73.318 0.701162 -0.277288 0
M  V30 805 H 75.969 1.32932 -1.26496 0
M  V30 806 H 74.351 3.89631 -0.707376 0
M  V30 807 H 75.525 3.06332 -3.44235 0
M  V30 808 H 73.84 2.88433 -3.00325 0
M  V30 809 H 76.437 5.15952 -1.4035 0
M  V30 810 H 76.78 4.16299 -0.0108001 0
M  V30 811 H 77.313 3.6313 -1.62423 0
M  V30 812 H 74.052 4.92119 -4.33012 0
M  V30 813 H 73.572 5.3676 -2.67673 0
M  V30 814 H 75.251 5.61288 -3.21815 0
M  V30 815 N 75.3831 0.828654 1.34056 0
M  V30 816 C 76.6231 0.425394 1.99924 0
M  V30 817 C 76.9871 -0.994294 1.64249 0
M  V30 818 O 78.1881 -1.50074 2.23005 0
M  V30 819 C 76.4591 0.628071 3.51838 0
M  V30 820 S 78.0181 0.318511 4.37642 0
M  V30 821 H 74.8361 0.160465 0.692656 0
M  V30 822 H 77.4381 1.07572 1.63244 0
M  V30 823 H 76.1421 1.66089 3.7529 0
M  V30 824 H 75.6731 -0.0367799 3.93383 0
M  V30 825 H 77.6881 -0.865632 4.88591 0
M  V30 826 N 76.8612 -1.46375 0.584142 0
M  V30 827 C 78.1072 -2.02678 0.0703716 0
M  V30 828 C 78.4402 -1.4545 -1.28678 0
M  V30 829 O 77.7152 -0.62014 -1.84349 0
M  V30 830 C 77.9982 -3.60099 0.00614674 0
M  V30 831 C 77.8512 -4.27709 1.3923 0
M  V30 832 C 79.1702 -4.34598 -0.693742 0
M  V30 833 H 76.2892 -0.736504 0.027047 0
M  V30 834 H 78.9312 -1.74501 0.751615 0
M  V30 835 H 77.0812 -3.84236 -0.574009 0
M  V30 836 H 78.7532 -4.14832 2.01773 0
M  V30 837 H 76.9962 -3.87016 1.95962 0
M  V30 838 H 77.6672 -5.36478 1.29982 0
M  V30 839 H 80.1432 -4.15615 -0.200869 0
M  V30 840 H 79.0192 -5.44318 -0.707714 0
M  V30 841 H 79.2802 -4.05759 -1.75533 0
M  V30 842 N 78.3393 -0.321999 -1.54275 0
M  V30 843 C 79.2693 0.537411 -2.27231 0
M  V30 844 C 80.2503 1.12064 -1.27968 0
M  V30 845 O 81.4353 1.14606 -1.56777 0
M  V30 846 C 78.5653 1.69919 -3.02894 0
M  V30 847 C 77.5193 1.24534 -4.09482 0
M  V30 848 C 76.8453 2.49394 -4.72977 0
M  V30 849 C 78.1453 0.361335 -5.21049 0
M  V30 850 H 79.8393 -0.0711406 -2.99315 0
M  V30 851 H 77.3853 -0.0356555 -1.43956 0
M  V30 852 H 79.3383 2.30668 -3.52662 0
M  V30 853 H 78.0623 2.33431 -2.28424 0
M  V30 854 H 76.7213 0.660782 -3.60596 0
M  V30 855 H 76.3693 3.11265 -3.95124 0
M  V30 856 H 76.0693 2.19718 -5.44975 0
M  V30 857 H 77.5933 3.10908 -5.25517 0
M  V30 858 H 79.0073 0.875072 -5.66582 0
M  V30 859 H 77.4043 0.157428 -5.99893 0
M  V30 860 H 78.4743 -0.60822 -4.8107 0
M  V30 861 N 79.8174 1.5752 -0.0501392 0
M  V30 862 C 80.7274 2.14952 0.939827 0
M  V30 863 C 81.7434 1.10706 1.34239 0
M  V30 864 O 82.9194 1.42869 1.41952 0
M  V30 865 C 79.9844 2.68232 2.19665 0
M  V30 866 C 79.0454 3.87272 1.85253 0
M  V30 867 C 78.2784 4.38002 3.04943 0
M  V30 868 O 78.5014 3.87811 4.18281 0
M  V30 869 O 77.4354 5.29602 2.86017 0
M  V30 870 H 81.2614 2.9986 0.481392 0
M  V30 871 H 78.8464 1.4841 0.171699 0
M  V30 872 H 80.7284 3.02475 2.93406 0
M  V30 873 H 79.4034 1.86395 2.64648 0
M  V30 874 H 78.3104 3.5792 1.0883 0
M  V30 875 H 79.6434 4.70336 1.4507 0
M  V30 876 N 81.2955 -0.223234 1.56011 0
M  V30 877 C 82.7065 -0.790368 1.69145 0
M  V30 878 C 83.0575 -1.85055 0.651845 0
M  V30 879 O 82.1825 -2.15498 -0.197359 0
M  V30 880 C 82.7775 -1.4404 3.06656 0
M  V30 881 C 81.3365 -1.95494 3.2165 0
M  V30 882 C 80.4835 -0.814506 2.65068 0
M  V30 883 H 83.4345 0.00139011 1.587 0
M  V30 884 H 83.4555 -2.30916 3.0242 0
M  V30 885 H 82.9675 -0.668543 3.82298 0
M  V30 886 H 81.0685 -2.75487 2.50874 0
M  V30 887 H 81.1815 -2.13607 4.28846 0
M  V30 888 H 79.5455 -1.22137 2.23505 0
M  V30 889 H 80.3285 -0.0553515 3.43255 0
M  V30 890 N 82.7736 -1.49793 -0.48987 0
M  V30 891 C 84.0506 -1.50348 -1.25119 0
M  V30 892 C 84.4306 -0.237466 -2.0976 0
M  V30 893 O 83.7786 0.77981 -2.14782 0
M  V30 894 C 83.9886 -2.78872 -2.09837 0
M  V30 895 C 85.3366 -3.288 -2.68655 0
M  V30 896 O 86.3606 -2.80065 -2.20096 0
M  V30 897 O 85.2196 -4.13707 -3.57083 0
M  V30 898 H 82.3136 -0.602242 -0.566775 0
M  V30 899 H 84.8596 -1.62067 -0.503229 0
M  V30 900 H 83.6316 -3.62499 -1.47343 0
M  V30 901 H 83.2546 -2.70066 -2.91805 0
M  V30 902 N 84.2517 0.741722 -1.39055 0
M  V30 903 C 85.4997 1.49818 -1.35643 0
M  V30 904 C 85.8207 1.94938 0.0491642 0
M  V30 905 O 85.0907 1.68505 0.999141 0
M  V30 906 H 83.6707 0.555755 -0.499144 0
M  V30 907 H 86.3327 0.880957 -1.73854 0
M  V30 908 H 85.4287 2.38348 -2.01486 0
M  V30 909 N 85.7298 1.2412 0.971189 0
M  V30 910 C 86.9578 1.10575 1.74874 0
M  V30 911 C 87.3728 -0.342017 1.85676 0
M  V30 912 O 86.7298 -1.23617 1.34258 0
M  V30 913 C 86.7808 1.73579 3.171 0
M  V30 914 O 86.5018 3.12695 3.06844 0
M  V30 915 C 88.0028 1.65598 4.11208 0
M  V30 916 H 85.2228 0.386504 0.548503 0
M  V30 917 H 87.7668 1.64156 1.21955 0
M  V30 918 H 85.9218 1.24009 3.67016 0
M  V30 919 H 86.3358 3.43412 3.96445 0
M  V30 920 H 87.8098 2.1437 5.08674 0
M  V30 921 H 88.2868 0.616532 4.34851 0
M  V30 922 H 88.8928 2.14578 3.67201 0
M  V30 923 N 87.2079 -1.17134 1.05439 0
M  V30 924 C 88.1409 -2.2012 0.601855 0
M  V30 925 C 89.1189 -1.58314 -0.370854 0
M  V30 926 O 90.3029 -1.8638 -0.281882 0
M  V30 927 C 87.4299 -3.38491 -0.118868 0
M  V30 928 C 86.4759 -4.18752 0.809242 0
M  V30 929 S 87.3089 -4.83602 2.29977 0
M  V30 930 C 88.4649 -6.0536 1.59029 0
M  V30 931 H 88.6979 -2.58165 1.47438 0
M  V30 932 H 86.2309 -1.27788 0.866573 0
M  V30 933 H 88.1889 -4.07084 -0.528495 0
M  V30 934 H 86.8499 -2.98829 -0.967465 0
M  V30 935 H 86.0429 -5.03373 0.251379 0
M  V30 936 H 85.6449 -3.5561 1.15835 0
M  V30 937 H 87.9369 -6.71615 0.891017 0
M  V30 938 H 88.8799 -6.65679 2.41407 0
M  V30 939 H 89.2879 -5.54138 1.07663 0
M  V30 940 N 88.686 -0.835752 -1.33615 0
M  V30 941 C 89.935 -0.426289 -1.97144 0
M  V30 942 C 90.248 1.01912 -1.66953 0
M  V30 943 O 91.454 1.53311 -2.24072 0
M  V30 944 C 89.91 -0.711321 -3.52801 0
M  V30 945 C 89.518 -2.1712 -3.91871 0
M  V30 946 C 91.262 -0.368654 -4.22896 0
M  V30 947 C 89.169 -2.40044 -5.40493 0
M  V30 948 H 88.099 -0.15567 -0.737755 0
M  V30 949 H 90.75 -1.0239 -1.52278 0
M  V30 950 H 89.132 -0.0433766 -3.95976 0
M  V30 951 H 90.306 -2.87936 -3.59763 0
M  V30 952 H 88.621 -2.47654 -3.34749 0
M  V30 953 H 91.218 -0.517601 -5.32189 0
M  V30 954 H 91.561 0.688078 -4.10574 0
M  V30 955 H 92.094 -0.991702 -3.8524 0
M  V30 956 H 88.833 -3.44271 -5.57815 0
M  V30 957 H 88.353 -1.73785 -5.74072 0
M  V30 958 H 90.032 -2.23042 -6.0734 0
M  V30 959 N 90.1641 1.46063 -0.591896 0
M  V30 960 C 91.1141 2.27458 0.157172 0
M  V30 961 C 92.0981 1.3641 0.853301 0
M  V30 962 O 93.2901 1.60517 0.74588 0
M  V30 963 C 90.4191 3.22956 1.16423 0
M  V30 964 C 89.5051 4.2149 0.469742 0
M  V30 965 N 89.8961 5.03519 -0.479839 0
M  V30 966 C 88.1941 4.40161 0.719319 0
M  V30 967 C 88.8951 5.74904 -0.886591 0
M  V30 968 N 87.8711 5.43097 -0.233731 0
M  V30 969 H 91.6731 2.88272 -0.572392 0
M  V30 970 H 89.1871 1.57024 -0.414375 0
M  V30 971 H 91.1841 3.79986 1.71513 0
M  V30 972 H 89.8441 2.63701 1.89451 0
M  V30 973 H 90.8551 5.1078 -0.855823 0
M  V30 974 H 87.5321 3.92046 1.43548 0
M  V30 975 H 88.9221 6.50844 -1.66888 0
M  V30 976 N 91.6422 0.330177 1.54103 0
M  V30 977 C 92.6052 -0.520144 2.2322 0
M  V30 978 C 93.6052 -1.03828 1.22786 0
M  V30 979 O 94.7952 -0.929652 1.4732 0
M  V30 980 C 91.9272 -1.72317 2.94142 0
M  V30 981 H 93.1202 0.0841605 2.99782 0
M  V30 982 H 90.6732 0.0813433 1.56088 0
M  V30 983 H 91.4082 -2.36653 2.21734 0
M  V30 984 H 91.1932 -1.35898 3.67796 0
M  V30 985 H 92.6832 -2.3266 3.46784 0
M  V30 986 N 93.1203 -1.57491 0.0584922 0
M  V30 987 C 94.3683 -1.92597 -0.612436 0
M  V30 988 C 94.6893 -0.938162 -1.70949 0
M  V30 989 O 93.9593 0.0158301 -1.95894 0
M  V30 990 H 92.5393 -0.710964 -0.229214 0
M  V30 991 H 95.2013 -1.94571 0.113218 0
M  V30 992 H 94.2973 -2.94038 -1.04633 0
M  V30 993 N 94.5984 0.214957 -1.56127 0
M  V30 994 C 95.8754 0.963093 -1.70247 0
M  V30 995 C 96.2554 2.02166 -0.60764 0
M  V30 996 O 95.6034 2.25244 0.384385 0
M  V30 997 C 95.8134 1.56756 -3.11815 0
M  V30 998 C 97.1614 2.0573 -3.7143 0
M  V30 999 O 98.1854 1.66637 -3.14818 0
M  V30 1000 O 97.0444 2.77603 -4.70743 0
M  V30 1001 H 94.1384 0.450321 -0.693643 0
M  V30 1002 H 96.6844 0.206219 -1.68442 0
M  V30 1003 H 95.4564 0.803533 -3.82961 0
M  V30 1004 H 95.0794 2.3898 -3.17765 0
M  V30 1005 N 96.0765 1.50051 0.48192 0
M  V30 1006 C 97.3225 1.61706 1.2338 0
M  V30 1007 C 97.6775 0.308488 1.89911 0
M  V30 1008 O 96.9705 -0.692798 1.78636 0
M  V30 1009 C 97.1645 2.72717 2.30998 0
M  V30 1010 C 96.9935 4.14242 1.75024 0
M  V30 1011 C 95.7635 4.80786 1.55476 0
M  V30 1012 C 97.9615 4.98846 1.25128 0
M  V30 1013 N 95.9435 6.06563 0.946311 0
M  V30 1014 C 97.3145 6.15258 0.765382 0
M  V30 1015 C 99.3695 4.84702 1.13881 0
M  V30 1016 C 98.0725 7.19079 0.178113 0
M  V30 1017 C 100.098 5.8869 0.565486 0
M  V30 1018 C 99.4605 7.04343 0.0899105 0
M  V30 1019 H 95.5595 0.645958 0.440753 0
M  V30 1020 H 98.1435 1.8713 0.537624 0
M  V30 1021 H 96.3145 2.49033 2.98055 0
M  V30 1022 H 98.0465 2.73789 2.9803 0
M  V30 1023 H 94.8015 4.37899 1.80392 0
M  V30 1024 H 95.2255 6.73767 0.660812 0
M  V30 1025 H 99.8675 3.95583 1.49244 0
M  V30 1026 H 97.5855 8.07882 -0.187749 0
M  V30 1027 H 101.171 5.79808 0.480974 0
M  V30 1028 H 100.051 7.83433 -0.346782 0
M  V30 1029 N 97.5546 -0.734337 1.39446 0
M  V30 1030 C 98.5026 -1.86971 1.38364 0
M  V30 1031 C 99.4966 -1.67288 0.266687 0
M  V30 1032 O 100.703 -1.74621 0.436755 0
M  V30 1033 H 97.0776 -0.615474 0.432082 0
M  V30 1034 H 99.0486 -1.85 2.34132 0
M  V30 1035 C 97.7976 -3.2466 1.24465 0
M  V30 1036 H 97.1206 -3.40402 2.09682 0
M  V30 1037 H 98.5606 -4.04292 1.27764 0
M  V30 1038 C 97.0196 -3.36867 -0.0468674 0
M  V30 1039 O 97.5496 -3.88618 -1.01681 0
M  V30 1040 N 95.7556 -2.90391 -0.110145 0
M  V30 1041 H 95.3026 -2.48466 0.679868 0
M  V30 1042 H 95.2606 -2.98939 -0.973799 0
M  V30 1043 N 99.0327 -1.24633 -0.964593 0
M  V30 1044 C 100.279 -1.08949 -1.71049 0
M  V30 1045 C 100.612 0.370302 -1.90637 0
M  V30 1046 O 99.8867 1.27349 -1.47011 0
M  V30 1047 C 100.17 -1.83329 -3.0994 0
M  V30 1048 C 100.023 -3.37077 -2.97824 0
M  V30 1049 C 101.342 -1.60846 -4.09654 0
M  V30 1050 H 98.4607 -0.397178 -0.620821 0
M  V30 1051 H 101.103 -1.5334 -1.12191 0
M  V30 1052 H 99.2527 -1.45597 -3.60186 0
M  V30 1053 H 100.925 -3.84425 -2.5498 0
M  V30 1054 H 99.1677 -3.65298 -2.33965 0
M  V30 1055 H 99.8387 -3.84324 -3.96231 0
M  V30 1056 H 102.315 -1.93674 -3.68279 0
M  V30 1057 H 101.191 -2.1534 -5.04896 0
M  V30 1058 H 101.452 -0.547434 -4.38698 0
M  V30 1059 N 100.511 1.16574 -1.06058 0
M  V30 1060 C 101.736 1.91493 -0.796562 0
M  V30 1061 C 102.161 1.76773 0.642868 0
M  V30 1062 O 101.519 1.09142 1.44768 0
M  V30 1063 C 101.567 3.40293 -1.19303 0
M  V30 1064 O 100.671 4.11074 -0.330394 0
M  V30 1065 H 100.012 0.596678 -0.291326 0
M  V30 1066 H 102.542 1.47708 -1.41575 0
M  V30 1067 H 102.552 3.91057 -1.16356 0
M  V30 1068 H 101.227 3.50326 -2.24153 0
M  V30 1069 H 99.8038 3.70513 -0.421225 0
M  V30 1070 N 101.989 0.842826 1.3317 0
M  V30 1071 C 103.236 0.440447 1.97652 0
M  V30 1072 C 103.564 -1.00123 1.6675 0
M  V30 1073 O 102.819 -1.7155 0.941761 0
M  V30 1074 C 103.118 0.612607 3.52111 0
M  V30 1075 C 102.784 2.02297 4.02972 0
M  V30 1076 C 101.446 2.40874 4.16573 0
M  V30 1077 C 103.798 2.94402 4.30089 0
M  V30 1078 C 101.126 3.70852 4.54627 0
M  V30 1079 C 103.478 4.23865 4.69597 0
M  V30 1080 C 102.142 4.62392 4.81404 0
M  V30 1081 H 101.412 0.161171 0.72326 0
M  V30 1082 H 104.059 1.07061 1.58777 0
M  V30 1083 H 102.364 -0.100849 3.9167 0
M  V30 1084 H 104.061 0.2815 4.00011 0
M  V30 1085 H 100.651 1.71338 3.92863 0
M  V30 1086 H 104.835 2.65835 4.19101 0
M  V30 1087 H 100.091 4.00501 4.61962 0
M  V30 1088 H 104.265 4.95306 4.89536 0
M  V30 1089 H 101.892 5.63154 5.10648 0
M  V30 1090 N 103.467 -1.45747 0.599634 0
M  V30 1091 C 104.695 -2.06668 0.0978551 0
M  V30 1092 C 105.11 -1.44562 -1.21439 0
M  V30 1093 O 104.467 -0.556923 -1.73795 0
M  V30 1094 C 104.518 -3.61456 -0.0567044 0
M  V30 1095 O 104.239 -4.21242 1.20361 0
M  V30 1096 C 105.74 -4.39345 -0.590869 0
M  V30 1097 H 102.96 -0.667825 0.0651943 0
M  V30 1098 H 105.504 -1.87115 0.82511 0
M  V30 1099 H 103.659 -3.80378 -0.734251 0
M  V30 1100 H 104.073 -5.14323 1.02821 0
M  V30 1101 H 105.547 -5.48182 -0.648131 0
M  V30 1102 H 106.024 -4.08568 -1.61147 0
M  V30 1103 H 106.63 -4.25268 0.0523679 0
M  V30 1104 N 104.945 -0.338344 -1.53925 0
M  V30 1105 C 105.878 0.563758 -2.21127 0
M  V30 1106 C 106.856 1.10433 -1.19345 0
M  V30 1107 O 108.04 1.16557 -1.48144 0
M  V30 1108 C 105.167 1.77505 -2.88461 0
M  V30 1109 C 104.213 1.3644 -4.04087 0
M  V30 1110 S 105.046 0.388593 -5.34088 0
M  V30 1111 C 106.202 1.60683 -6.04923 0
M  V30 1112 H 106.435 -0.00704546 -2.97299 0
M  V30 1113 H 103.968 -0.122418 -1.53914 0
M  V30 1114 H 105.926 2.46999 -3.27875 0
M  V30 1115 H 104.587 2.31706 -2.12064 0
M  V30 1116 H 103.78 2.26739 -4.50117 0
M  V30 1117 H 103.382 0.748998 -3.66423 0
M  V30 1118 H 105.674 2.54209 -6.28 0
M  V30 1119 H 106.617 1.18842 -6.98056 0
M  V30 1120 H 107.025 1.80052 -5.35015 0
M  V30 1121 N 106.423 1.57458 -0.0668435 0
M  V30 1122 C 107.355 2.09413 0.931601 0
M  V30 1123 C 108.368 1.02522 1.26464 0
M  V30 1124 O 109.557 1.30049 1.22269 0
M  V30 1125 C 106.657 2.53537 2.24882 0
M  V30 1126 C 105.83 3.83944 2.09537 0
M  V30 1127 C 104.889 4.14214 3.2452 0
M  V30 1128 O 103.915 4.83891 2.9973 0
M  V30 1129 N 105.117 3.67367 4.49469 0
M  V30 1130 H 107.882 2.95699 0.488048 0
M  V30 1131 H 105.443 1.61462 0.119009 0
M  V30 1132 H 107.435 2.70853 3.00701 0
M  V30 1133 H 106.005 1.72415 2.60753 0
M  V30 1134 H 105.225 3.76057 1.18215 0
M  V30 1135 H 106.513 4.69312 1.96529 0
M  V30 1136 H 105.911 3.11068 4.72497 0
M  V30 1137 H 104.468 3.89891 5.2233 0
M  V30 1138 N 107.901 -0.206675 1.56239 0
M  V30 1139 C 109.126 -0.949474 1.8439 0
M  V30 1140 C 109.551 -1.76549 0.649016 0
M  V30 1141 O 108.909 -1.76782 -0.402231 0
M  V30 1142 C 108.957 -1.83078 3.10668 0
M  V30 1143 O 108.061 -2.9281 2.90407 0
M  V30 1144 H 107.402 -0.268033 0.607499 0
M  V30 1145 H 109.932 -0.215488 2.03462 0
M  V30 1146 H 109.942 -2.2377 3.41161 0
M  V30 1147 H 108.617 -1.23112 3.97261 0
M  V30 1148 H 107.194 -2.55956 2.71184 0
M  V30 1149 N 109.379 -1.50304 -0.473955 0
M  V30 1150 C 110.628 -1.60392 -1.22301 0
M  V30 1151 C 110.941 -0.308411 -1.93153 0
M  V30 1152 O 112.147 -0.288156 -2.69966 0
M  V30 1153 C 110.603 -2.83109 -2.2221 0
M  V30 1154 C 110.211 -4.19524 -1.57173 0
M  V30 1155 C 111.955 -3.0254 -2.97775 0
M  V30 1156 C 109.862 -5.33431 -2.55353 0
M  V30 1157 H 108.792 -0.597286 -0.460179 0
M  V30 1158 H 111.443 -1.76731 -0.493803 0
M  V30 1159 H 109.825 -2.60322 -2.9841 0
M  V30 1160 H 110.999 -4.52554 -0.867824 0
M  V30 1161 H 109.314 -4.05674 -0.939002 0
M  V30 1162 H 111.911 -3.84811 -3.71248 0
M  V30 1163 H 112.254 -2.14154 -3.56992 0
M  V30 1164 H 112.787 -3.25494 -2.28688 0
M  V30 1165 H 109.526 -6.23962 -2.00878 0
M  V30 1166 H 109.046 -5.04823 -3.23904 0
M  V30 1167 H 110.725 -5.63887 -3.17239 0
M  V30 1168 N 110.857 0.726932 -1.39834 0
M  V30 1169 C 112.082 1.52121 -1.40976 0
M  V30 1170 C 112.507 1.88098 -0.00826029 0
M  V30 1171 O 111.865 1.52479 0.980807 0
M  V30 1172 C 111.913 2.78021 -2.29644 0
M  V30 1173 O 111.017 3.74272 -1.73188 0
M  V30 1174 H 110.358 0.45908 -0.479731 0
M  V30 1175 H 112.888 0.896207 -1.83927 0
M  V30 1176 H 112.898 3.26671 -2.44438 0
M  V30 1177 H 111.573 2.51169 -3.31492 0
M  V30 1178 H 110.15 3.33073 -1.6768 0
M  V30 1179 N 112.336 1.25143 0.95797 0
M  V30 1180 C 113.283 1.05235 2.05412 0
M  V30 1181 C 114.253 -0.0374561 1.66058 0
M  V30 1182 O 115.438 0.119073 1.90428 0
M  V30 1183 C 112.578 0.673589 3.38462 0
M  V30 1184 C 111.691 1.8379 3.90954 0
M  V30 1185 C 110.826 1.40381 5.12315 0
M  V30 1186 C 109.865 2.53746 5.57027 0
M  V30 1187 N 109.002 2.11136 6.69601 0
M  V30 1188 H 113.842 1.99048 2.21774 0
M  V30 1189 H 111.379 0.991277 1.08683 0
M  V30 1190 H 113.337 0.434964 4.14926 0
M  V30 1191 H 111.967 -0.227554 3.21997 0
M  V30 1192 H 111.019 2.18992 3.11041 0
M  V30 1193 H 112.331 2.68937 4.20089 0
M  V30 1194 H 111.485 1.12464 5.96185 0
M  V30 1195 H 110.224 0.523015 4.84887 0
M  V30 1196 H 109.229 2.82412 4.71724 0
M  V30 1197 H 110.454 3.42398 5.86464 0
M  V30 1198 H 108.4 1.25468 6.4389 0
M  V30 1199 H 108.317 2.89832 6.98236 0
M  V30 1200 H 109.585 1.86385 7.56889 0
M  V30 1201 N 113.814 -1.1601 1.06675 0
M  V30 1202 C 115.06 -1.86909 0.786945 0
M  V30 1203 C 115.393 -1.81717 -0.685018 0
M  V30 1204 O 114.668 -1.23551 -1.50218 0
M  V30 1205 C 114.951 -3.36313 1.28707 0
M  V30 1206 C 114.804 -3.50175 2.82308 0
M  V30 1207 C 116.123 -4.3084 0.898071 0
M  V30 1208 H 113.242 -0.678677 0.287343 0
M  V30 1209 H 115.884 -1.36336 1.32334 0
M  V30 1210 H 114.034 -3.79513 0.830768 0
M  V30 1211 H 115.706 -3.15886 3.36175 0
M  V30 1212 H 113.949 -2.91959 3.20847 0
M  V30 1213 H 114.62 -4.55116 3.12368 0
M  V30 1214 H 117.096 -3.95561 1.29114 0
M  V30 1215 H 115.972 -5.33876 1.27543 0
M  V30 1216 H 116.233 -4.41662 -0.196651 0
M  V30 1217 N 115.292 -0.849877 -1.32721 0
M  V30 1218 C 116.541 -0.447175 -1.96681 0
M  V30 1219 C 116.854 1.00135 -1.68025 0
M  V30 1220 O 118.06 1.50926 -2.25685 0
M  V30 1221 C 116.516 -0.7487 -3.52026 0
M  V30 1222 C 116.124 -2.21264 -3.89546 0
M  V30 1223 C 117.868 -0.413487 -4.22481 0
M  V30 1224 C 115.775 -2.45763 -5.37917 0
M  V30 1225 H 114.705 -0.163486 -0.736063 0
M  V30 1226 H 117.356 -1.03999 -1.51183 0
M  V30 1227 H 115.738 -0.0853727 -3.95908 0
M  V30 1228 H 116.912 -2.91736 -3.56689 0
M  V30 1229 H 115.227 -2.5119 -3.32103 0
M  V30 1230 H 117.824 -0.574017 -5.3161 0
M  V30 1231 H 118.167 0.644492 -4.11281 0
M  V30 1232 H 118.7 -1.03251 -3.84167 0
M  V30 1233 H 115.439 -3.50168 -5.54132 0
M  V30 1234 H 114.959 -1.79864 -5.72197 0
M  V30 1235 H 116.638 -2.29471 -6.0494 0
M  V30 1236 N 116.77 1.45427 -0.607355 0
M  V30 1237 C 117.995 2.07124 -0.107006 0
M  V30 1238 C 118.42 1.44906 1.19933 0
M  V30 1239 O 117.778 0.541687 1.73019 0
M  V30 1240 C 117.826 3.60595 0.0194119 0
M  V30 1241 O 116.93 3.98285 1.0697 0
M  V30 1242 H 116.271 0.659868 -0.0739597 0
M  V30 1243 H 118.801 1.86683 -0.837297 0
M  V30 1244 H 118.811 4.07419 0.2177 0
M  V30 1245 H 117.486 4.05266 -0.934453 0
M  V30 1246 H 116.063 3.63133 0.847889 0
M  V30 1247 N 118.248 0.346503 1.53744 0
M  V30 1248 C 119.495 -0.249104 2.00962 0
M  V30 1249 C 119.823 -1.5032 1.23426 0
M  V30 1250 O 119.078 -1.93217 0.310761 0
M  V30 1251 C 119.377 -0.605809 3.52228 0
M  V30 1252 C 119.043 0.551747 4.47512 0
M  V30 1253 C 117.705 0.86941 4.73281 0
M  V30 1254 C 120.057 1.32818 5.03993 0
M  V30 1255 C 117.385 1.96582 5.52786 0
M  V30 1256 C 119.737 2.41486 5.84694 0
M  V30 1257 C 118.401 2.73808 6.08757 0
M  V30 1258 H 117.671 -0.0911538 0.735372 0
M  V30 1259 H 120.318 0.475027 1.85515 0
M  V30 1260 H 118.623 -1.4107 3.65522 0
M  V30 1261 H 120.32 -1.07858 3.86222 0
M  V30 1262 H 116.91 0.294102 4.2759 0
M  V30 1263 H 121.094 1.09602 4.84047 0
M  V30 1264 H 116.35 2.22045 5.69654 0
M  V30 1265 H 120.524 3.02078 6.27473 0
M  V30 1266 H 118.151 3.58892 6.7015 0
M  V30 1267 N 119.726 -1.57421 0.075193 0
M  V30 1268 C 120.975 -1.92794 -0.592731 0
M  V30 1269 C 121.288 -0.957478 -1.70563 0
M  V30 1270 O 122.494 -1.20417 -2.43335 0
M  V30 1271 C 120.95 -3.42495 -1.10569 0
M  V30 1272 C 120.558 -4.47994 -0.0236121 0
M  V30 1273 C 122.302 -3.86864 -1.74748 0
M  V30 1274 C 120.209 -5.88829 -0.550803 0
M  V30 1275 H 119.139 -0.719591 -0.225177 0
M  V30 1276 H 121.79 -1.82902 0.147978 0
M  V30 1277 H 120.172 -3.47471 -1.89947 0
M  V30 1278 H 121.346 -4.54637 0.751099 0
M  V30 1279 H 119.661 -4.13113 0.522159 0
M  V30 1280 H 122.258 -4.8947 -2.15229 0
M  V30 1281 H 122.601 -3.24417 -2.60882 0
M  V30 1282 H 123.134 -3.84504 -1.01986 0
M  V30 1283 H 119.873 -6.54929 0.273457 0
M  V30 1284 H 119.393 -5.85698 -1.29296 0
M  V30 1285 H 121.072 -6.38811 -1.02613 0
M  V30 1286 N 121.204 0.198386 -1.56346 0
M  V30 1287 C 122.167 1.22952 -1.93431 0
M  V30 1288 C 123.167 1.38611 -0.815092 0
M  V30 1289 O 124.357 1.36479 -1.08255 0
M  V30 1290 C 121.489 2.59946 -2.20546 0
M  V30 1291 H 122.682 0.912626 -2.85677 0
M  V30 1292 H 120.235 0.43977 -1.49986 0
M  V30 1293 H 120.97 2.96696 -1.30927 0
M  V30 1294 H 120.755 2.49953 -3.02102 0
M  V30 1295 H 122.245 3.3431 -2.50253 0
M  V30 1296 N 122.682 1.50554 0.465978 0
M  V30 1297 C 123.645 1.69233 1.54574 0
M  V30 1298 C 124.645 0.562901 1.50626 0
M  V30 1299 O 125.835 0.830016 1.53155 0
M  V30 1300 C 122.967 1.7223 2.94193 0
M  V30 1301 H 124.16 2.65571 1.39327 0
M  V30 1302 H 121.713 1.40111 0.692711 0
M  V30 1303 H 122.448 0.77603 3.14878 0
M  V30 1304 H 122.233 2.54285 2.98466 0
M  V30 1305 H 123.723 1.88618 3.72576 0
M  V30 1306 N 124.16 -0.719506 1.40217 0
M  V30 1307 C 125.4 -1.49181 1.39729 0
M  V30 1308 C 125.764 -1.92 -0.00250614 0
M  V30 1309 O 126.965 -2.68473 -0.132479 0
M  V30 1310 C 125.236 -2.68767 2.35582 0
M  V30 1311 S 126.795 -3.58224 2.53418 0
M  V30 1312 H 123.613 -0.510091 0.495307 0
M  V30 1313 H 126.215 -0.841724 1.76452 0
M  V30 1314 H 124.919 -2.35475 3.36124 0
M  V30 1315 H 124.45 -3.38691 2.0013 0
M  V30 1316 H 126.465 -4.63033 1.78367 0
M  V30 1317 N 125.638 -1.25649 -0.95132 0
M  V30 1318 C 126.571 -1.00644 -2.04807 0
M  V30 1319 C 127.549 0.0654271 -1.62468 0
M  V30 1320 O 128.733 -0.074911 -1.88351 0
M  V30 1321 C 125.86 -0.522052 -3.34653 0
M  V30 1322 C 124.906 -1.58495 -3.95957 0
M  V30 1323 S 125.739 -3.17108 -4.31512 0
M  V30 1324 C 126.895 -2.70412 -5.64471 0
M  V30 1325 H 127.128 -1.93508 -2.25703 0
M  V30 1326 H 124.661 -1.09216 -1.09139 0
M  V30 1327 H 126.619 -0.24923 -4.09743 0
M  V30 1328 H 125.28 0.386146 -3.11717 0
M  V30 1329 H 124.473 -1.1968 -4.89584 0
M  V30 1330 H 124.075 -1.80862 -3.2736 0
M  V30 1331 H 126.367 -2.14245 -6.42733 0
M  V30 1332 H 127.31 -3.62693 -6.08161 0
M  V30 1333 H 127.718 -2.10302 -5.23864 0
M  V30 1334 N 127.117 1.15442 -1.07289 0
M  V30 1335 C 128.342 1.90638 -0.816828 0
M  V30 1336 C 128.767 1.77445 0.624083 0
M  V30 1337 O 128.125 1.10671 1.43602 0
M  V30 1338 C 128.173 3.39008 -1.22906 0
M  V30 1339 O 127.277 4.10701 -0.373975 0
M  V30 1340 H 126.618 0.593555 -0.297638 0
M  V30 1341 H 129.148 1.46198 -1.43134 0
M  V30 1342 H 129.158 3.89801 -1.20497 0
M  V30 1343 H 127.833 3.47929 -2.27856 0
M  V30 1344 H 126.41 3.70046 -0.460499 0
M  V30 1345 N 128.595 0.856903 1.32268 0
M  V30 1346 C 130.011 0.547061 1.49931 0
M  V30 1347 C 130.211 -0.921781 1.7918 0
M  V30 1348 O 129.267 -1.70469 1.8627 0
M  V30 1349 C 130.58 1.43599 2.64196 0
M  V30 1350 C 132.128 1.43665 2.78081 0
M  V30 1351 C 132.603 2.31085 3.95428 0
M  V30 1352 N 134.094 2.28893 4.02694 0
M  V30 1353 C 134.829 2.93262 4.92732 0
M  V30 1354 N 134.325 3.66751 5.87763 0
M  V30 1355 N 136.118 2.82638 4.85873 0
M  V30 1356 H 128.269 1.8075 1.11549 0
M  V30 1357 H 130.532 0.772144 0.549997 0
M  V30 1358 H 130.238 2.48058 2.49319 0
M  V30 1359 H 130.112 1.12502 3.60032 0
M  V30 1360 H 132.499 0.399701 2.92381 0
M  V30 1361 H 132.58 1.7878 1.82952 0
M  V30 1362 H 132.224 3.34849 3.81888 0
M  V30 1363 H 132.154 1.93302 4.89839 0
M  V30 1364 H 134.645 1.75466 3.34694 0
M  V30 1365 H 134.958 4.13027 6.53168 0
M  V30 1366 H 133.303 3.70859 5.87783 0
M  V30 1367 H 136.494 2.24774 4.10602 0
M  V30 1368 H 136.667 3.33084 5.55841 0
M  V30 1369 N 130.073 -1.45103 0.615059 0
M  V30 1370 C 131.321 -2.01784 0.112955 0
M  V30 1371 C 131.642 -1.48504 -1.26378 0
M  V30 1372 O 130.912 -0.682245 -1.83636 0
M  V30 1373 H 129.492 -0.745993 0.0387668 0
M  V30 1374 H 132.154 -1.77808 0.798141 0
M  V30 1375 H 131.25 -3.12025 0.0684069 0
M  V30 1376 N 131.551 -0.354651 -1.53558 0
M  V30 1377 C 132.8 0.239504 -2.00273 0
M  V30 1378 C 133.113 1.50759 -1.24623 0
M  V30 1379 O 134.319 2.17968 -1.61871 0
M  V30 1380 C 132.775 0.477341 -3.5672 0
M  V30 1381 C 132.383 -0.775488 -4.41237 0
M  V30 1382 C 134.127 1.02975 -4.11821 0
M  V30 1383 C 132.034 -0.507838 -5.89216 0
M  V30 1384 H 130.964 0.0932743 -0.748208 0
M  V30 1385 H 133.615 -0.471701 -1.77334 0
M  V30 1386 H 131.997 1.24953 -3.7577 0
M  V30 1387 H 133.171 -1.54963 -4.33962 0
M  V30 1388 H 131.486 -1.25033 -3.97185 0
M  V30 1389 H 134.083 1.24513 -5.2 0
M  V30 1390 H 134.426 1.98862 -3.65731 0
M  V30 1391 H 134.959 0.317994 -3.96527 0
M  V30 1392 H 131.698 -1.43674 -6.39561 0
M  V30 1393 H 131.218 0.228011 -5.99366 0
M  V30 1394 H 132.897 -0.129238 -6.46871 0
M  V30 1395 N 133.029 1.57378 -0.0835403 0
M  V30 1396 C 134.44 1.81261 0.447358 0
M  V30 1397 C 134.791 0.998331 1.68902 0
M  V30 1398 O 133.916 0.224282 2.15235 0
M  V30 1399 C 134.511 3.28767 0.818386 0
M  V30 1400 C 133.07 3.53455 1.29409 0
M  V30 1401 C 132.217 2.75831 0.285024 0
M  V30 1402 H 135.168 1.5566 -0.309115 0
M  V30 1403 H 135.189 3.41459 1.67887 0
M  V30 1404 H 134.701 3.88006 -0.0855019 0
M  V30 1405 H 132.802 2.99534 2.21608 0
M  V30 1406 H 132.915 4.62128 1.2639 0
M  V30 1407 H 131.279 2.42947 0.764767 0
M  V30 1408 H 132.062 3.37813 -0.611341 0
M  V30 1409 N 134.507 -0.190092 1.56449 0
M  V30 1410 C 135.737 -0.92443 1.84764 0
M  V30 1411 C 136.145 -1.77146 0.664529 0
M  V30 1412 O 135.488 -1.79812 -0.375957 0
M  V30 1413 C 135.55 -1.86651 3.07248 0
M  V30 1414 C 135.214 -1.20094 4.40938 0
M  V30 1415 C 136.211 -0.575445 5.16706 0
M  V30 1416 C 133.896 -1.2033 4.87674 0
M  V30 1417 C 135.89 0.0388111 6.37388 0
M  V30 1418 C 133.577 -0.585214 6.08291 0
M  V30 1419 C 134.575 0.0347578 6.82991 0
M  V30 1420 O 134.263 0.643147 8.01323 0
M  V30 1421 H 133.995 -0.274974 0.617548 0
M  V30 1422 H 136.549 -0.200788 2.04416 0
M  V30 1423 H 134.779 -2.62998 2.83494 0
M  V30 1424 H 136.468 -2.46907 3.22167 0
M  V30 1425 H 137.234 -0.565728 4.81689 0
M  V30 1426 H 133.113 -1.67526 4.29484 0
M  V30 1427 H 136.657 0.523329 6.95634 0
M  V30 1428 H 132.554 -0.592451 6.42775 0
M  V30 1429 H 133.322 0.540545 8.16713 0
M  V30 1430 N 135.985 -1.50799 -0.457987 0
M  V30 1431 C 137.231 -1.62683 -1.21088 0
M  V30 1432 C 137.564 -0.332268 -1.91336 0
M  V30 1433 O 136.839 0.667043 -1.82704 0
M  V30 1434 C 137.122 -2.81615 -2.24422 0
M  V30 1435 C 136.975 -4.20989 -1.58392 0
M  V30 1436 C 138.294 -2.96085 -3.2561 0
M  V30 1437 H 135.413 -0.592087 -0.438864 0
M  V30 1438 H 138.055 -1.83225 -0.50286 0
M  V30 1439 H 136.205 -2.64231 -2.84806 0
M  V30 1440 H 137.877 -4.49994 -1.01504 0
M  V30 1441 H 136.12 -4.24641 -0.886704 0
M  V30 1442 H 136.791 -5.0016 -2.33547 0
M  V30 1443 H 139.267 -3.12042 -2.75262 0
M  V30 1444 H 138.143 -3.80902 -3.95228 0
M  V30 1445 H 138.404 -2.0726 -3.90507 0
M  V30 1446 N 137.463 0.71206 -1.40597 0
M  V30 1447 C 138.393 1.83889 -1.43899 0
M  V30 1448 C 139.374 1.67442 -0.299504 0
M  V30 1449 O 140.559 1.87421 -0.508624 0
M  V30 1450 C 137.689 3.21877 -1.30431 0
M  V30 1451 C 136.643 3.53002 -2.42019 0
M  V30 1452 C 135.969 4.90172 -2.13626 0
M  V30 1453 C 137.269 3.53643 -3.84362 0
M  V30 1454 H 138.963 1.81383 -2.38203 0
M  V30 1455 H 136.509 0.871237 -1.14654 0
M  V30 1456 H 138.462 4.00404 -1.31357 0
M  V30 1457 H 137.186 3.24968 -0.326049 0
M  V30 1458 H 135.845 2.76818 -2.40349 0
M  V30 1459 H 135.493 4.89869 -1.14182 0
M  V30 1460 H 135.193 5.11962 -2.88389 0
M  V30 1461 H 136.717 5.71028 -2.1624 0
M  V30 1462 H 138.131 4.22203 -3.87837 0
M  V30 1463 H 136.528 3.86961 -4.58673 0
M  V30 1464 H 137.598 2.52954 -4.13693 0
M  V30 1465 N 138.941 1.26152 0.944643 0
M  V30 1466 C 140.218 1.02247 1.66748 0
M  V30 1467 C 140.598 -0.448202 2.06287 0
M  V30 1468 O 139.946 -1.42779 1.78399 0
M  V30 1469 C 140.156 1.96788 2.88228 0
M  V30 1470 C 141.504 2.25201 3.59958 0
M  V30 1471 O 142.528 1.94626 2.98327 0
M  V30 1472 O 141.387 2.77242 4.70956 0
M  V30 1473 H 138.481 0.388517 0.730057 0
M  V30 1474 H 141.027 1.37348 0.99668 0
M  V30 1475 H 139.799 2.96047 2.55875 0
M  V30 1476 H 139.422 1.62145 3.63035 0
M  V30 1477 N 140.419 -1.14872 1.07899 0
M  V30 1478 C 141.835 -1.37776 0.805606 0
M  V30 1479 C 142.035 -1.92743 -0.587555 0
M  V30 1480 O 141.091 -2.13678 -1.34528 0
M  V30 1481 C 142.404 -2.34361 1.88402 0
M  V30 1482 C 143.952 -2.48012 1.90942 0
M  V30 1483 C 144.427 -3.47893 2.97883 0
M  V30 1484 N 145.918 -3.55433 2.97021 0
M  V30 1485 C 146.653 -4.32553 3.76412 0
M  V30 1486 N 146.149 -5.12959 4.65666 0
M  V30 1487 N 147.942 -4.27697 3.64735 0
M  V30 1488 H 140.093 -0.775365 1.97742 0
M  V30 1489 H 142.356 -0.403521 0.857831 0
M  V30 1490 H 142.062 -2.01098 2.88535 0
M  V30 1491 H 141.936 -3.34206 1.74889 0
M  V30 1492 H 144.323 -2.8057 0.914579 0
M  V30 1493 H 144.404 -1.48147 2.08534 0
M  V30 1494 H 144.048 -3.16069 3.97571 0
M  V30 1495 H 143.978 -4.47527 2.77538 0
M  V30 1496 H 146.469 -2.98048 2.32326 0
M  V30 1497 H 146.782 -5.69065 5.22862 0
M  V30 1498 H 145.127 -5.12245 4.69712 0
M  V30 1499 H 148.318 -3.63949 2.94378 0
M  V30 1500 H 148.491 -4.8755 4.26848 0
M  V30 1501 N 141.898 -0.863906 -1.31812 0
M  V30 1502 C 143.144 -0.472535 -1.97218 0
M  V30 1503 C 143.477 0.971394 -1.68159 0
M  V30 1504 O 142.752 1.68309 -0.974798 0
M  V30 1505 C 143.035 -0.723054 -3.52766 0
M  V30 1506 C 142.888 -2.21608 -3.91421 0
M  V30 1507 C 144.207 -0.185522 -4.39709 0
M  V30 1508 H 141.326 -0.173158 -0.71637 0
M  V30 1509 H 143.968 -1.08403 -1.56041 0
M  V30 1510 H 142.118 -0.202577 -3.87971 0
M  V30 1511 H 143.79 -2.80334 -3.66347 0
M  V30 1512 H 142.033 -2.691 -3.40246 0
M  V30 1513 H 142.704 -2.34203 -4.99853 0
M  V30 1514 H 145.18 -0.630726 -4.11292 0
M  V30 1515 H 144.056 -0.390306 -5.47511 0
M  V30 1516 H 144.317 0.912229 -4.32586 0
M  V30 1517 N 143.376 1.44774 -0.622745 0
M  V30 1518 C 144.653 1.95522 -0.0551974 0
M  V30 1519 C 145.033 1.5649 1.41683 0
M  V30 1520 O 144.381 0.834848 2.12703 0
M  V30 1521 C 144.591 3.4796 -0.269242 0
M  V30 1522 C 145.939 4.24306 -0.158014 0
M  V30 1523 O 146.963 3.55637 -0.200162 0
M  V30 1524 O 145.822 5.46471 -0.0558693 0
M  V30 1525 H 142.916 0.826556 0.0271015 0
M  V30 1526 H 145.462 1.54866 -0.693864 0
M  V30 1527 H 144.234 3.6939 -1.29099 0
M  V30 1528 H 143.857 3.95543 0.403966 0
M  V30 1529 N 144.854 0.36279 1.53368 0
M  V30 1530 C 146.1 -0.228113 2.01513 0
M  V30 1531 C 146.433 -1.48648 1.2497 0
M  V30 1532 O 145.708 -1.91459 0.342616 0
M  V30 1533 C 145.991 -0.522884 3.56284 0
M  V30 1534 C 145.844 0.74892 4.43521 0
M  V30 1535 C 147.163 -1.32461 4.19693 0
M  V30 1536 H 144.282 -0.0814343 0.732487 0
M  V30 1537 H 146.924 0.48713 1.83649 0
M  V30 1538 H 145.074 -1.1322 3.71636 0
M  V30 1539 H 146.746 1.38648 4.39971 0
M  V30 1540 H 144.989 1.36986 4.11603 0
M  V30 1541 H 145.66 0.497667 5.49752 0
M  V30 1542 H 148.136 -0.809203 4.08156 0
M  V30 1543 H 147.012 -1.49961 5.28018 0
M  V30 1544 H 147.273 -2.33232 3.75573 0
M  V30 1545 N 146.332 -1.57332 0.0918853 0
M  V30 1546 C 147.242 -2.17368 -0.882505 0
M  V30 1547 C 148.258 -1.14226 -1.31257 0
M  V30 1548 O 149.434 -1.46582 -1.38115 0
M  V30 1549 C 146.499 -2.73962 -2.12476 0
M  V30 1550 C 145.56 -3.92048 -1.7492 0
M  V30 1551 C 144.793 -4.45933 -2.93223 0
M  V30 1552 O 145.016 -3.98764 -4.07852 0
M  V30 1553 O 143.95 -5.36999 -2.71875 0
M  V30 1554 H 147.776 -3.01031 -0.40172 0
M  V30 1555 H 145.361 -1.48813 -0.132291 0
M  V30 1556 H 147.243 -3.10147 -2.85283 0
M  V30 1557 H 145.918 -1.93347 -2.59613 0
M  V30 1558 H 144.825 -3.6068 -0.993025 0
M  V30 1559 H 146.158 -4.74017 -1.32548 0
M  V30 1560 N 147.81 0.181792 -1.56548 0
M  V30 1561 C 149.221 0.745244 -1.71181 0
M  V30 1562 C 149.572 1.83262 -0.70068 0
M  V30 1563 O 148.697 2.15946 0.140154 0
M  V30 1564 C 149.292 1.35859 -3.10367 0
M  V30 1565 C 147.851 1.86898 -3.2672 0
M  V30 1566 C 146.998 0.743942 -2.67134 0
M  V30 1567 H 149.949 -0.0434661 -1.5864 0
M  V30 1568 H 149.97 2.22817 -3.08436 0
M  V30 1569 H 149.482 0.566948 -3.83937 0
M  V30 1570 H 147.583 2.68738 -2.5809 0
M  V30 1571 H 147.696 2.02162 -4.34359 0
M  V30 1572 H 146.06 1.16169 -2.26665 0
M  V30 1573 H 146.843 -0.035676 -3.43281 0
M  V30 1574 N 149.288 1.51039 0.449983 0
M  V30 1575 C 150.516 1.66869 1.2232 0
M  V30 1576 C 150.931 0.360727 1.85322 0
M  V30 1577 O 150.288 -0.659531 1.70166 0
M  V30 1578 C 150.339 2.77524 2.31652 0
M  V30 1579 O 150.06 4.03252 1.7123 0
M  V30 1580 C 151.561 3.04512 3.2216 0
M  V30 1581 H 148.781 0.560326 0.369155 0
M  V30 1582 H 151.325 1.97385 0.534719 0
M  V30 1583 H 149.48 2.49642 2.96239 0
M  V30 1584 H 149.894 4.64609 2.43389 0
M  V30 1585 H 151.368 3.85551 3.95038 0
M  V30 1586 H 151.845 2.16415 3.8218 0
M  V30 1587 H 152.451 3.34005 2.63288 0
M  V30 1588 N 150.766 -0.704594 1.40972 0
M  V30 1589 C 152.014 -1.46169 1.39568 0
M  V30 1590 C 152.335 -1.95 0.00253745 0
M  V30 1591 O 151.605 -1.71095 -0.954114 0
M  V30 1592 H 150.185 -0.542326 0.513704 0
M  V30 1593 H 152.847 -0.834553 1.76128 0
M  V30 1594 H 151.943 -2.32922 2.07735 0
M  V30 1595 N 152.244 -1.26651 -0.937939 0
M  V30 1596 C 153.521 -1.0313 -1.66204 0
M  V30 1597 C 153.901 0.437256 -2.06522 0
M  V30 1598 O 153.249 1.41831 -1.79154 0
M  V30 1599 C 153.459 -1.98314 -2.87181 0
M  V30 1600 C 154.807 -2.27107 -3.58758 0
M  V30 1601 O 155.831 -1.96205 -2.97291 0
M  V30 1602 O 154.69 -2.79736 -4.69479 0
M  V30 1603 H 151.784 -0.392384 -0.727986 0
M  V30 1604 H 154.33 -1.37874 -0.989382 0
M  V30 1605 H 153.102 -2.97399 -2.54302 0
M  V30 1606 H 152.725 -1.64068 -3.6217 0
M  V30 1607 N 153.722 1.14298 -1.08507 0
M  V30 1608 C 154.685 2.17607 -0.719711 0
M  V30 1609 C 155.685 1.58907 0.245997 0
M  V30 1610 O 156.875 1.74181 0.0254081 0
M  V30 1611 C 154.007 3.40842 -0.0627695 0
M  V30 1612 H 155.2 2.51443 -1.63452 0
M  V30 1613 H 152.753 1.28963 -0.88307 0
M  V30 1614 H 153.488 3.12587 0.863716 0
M  V30 1615 H 153.273 3.84713 -0.757504 0
M  V30 1616 H 154.763 4.17221 0.177786 0
M  V30 1617 N 155.201 0.870884 1.31352 0
M  V30 1618 C 156.448 0.482273 1.96673 0
M  V30 1619 C 156.776 -0.965638 1.68836 0
M  V30 1620 O 156.031 -1.69514 0.977937 0
M  V30 1621 C 156.33 0.687157 3.50732 0
M  V30 1622 C 155.996 2.108 3.9859 0
M  V30 1623 C 154.658 2.49656 4.1137 0
M  V30 1624 C 157.01 3.03459 4.23748 0
M  V30 1625 C 154.338 3.80412 4.46659 0
M  V30 1626 C 156.69 4.3373 4.60501 0
M  V30 1627 C 155.354 4.725 4.71487 0
M  V30 1628 H 154.624 0.176476 0.719679 0
M  V30 1629 H 157.271 1.10405 1.56471 0
M  V30 1630 H 155.576 -0.0177476 3.91796 0
M  V30 1631 H 157.273 0.366284 3.99324 0
M  V30 1632 H 153.863 1.79633 3.8914 0
M  V30 1633 H 158.047 2.74665 4.13368 0
M  V30 1634 H 153.303 4.1021 4.53362 0
M  V30 1635 H 157.477 5.05578 4.78919 0
M  V30 1636 H 155.104 5.73859 4.98588 0
M  V30 1637 N 156.679 -1.44442 0.630414 0
M  V30 1638 C 157.627 -2.32437 -0.0871428 0
M  V30 1639 C 158.621 -1.47304 -0.836525 0
M  V30 1640 O 159.827 -1.63653 -0.749506 0
M  V30 1641 H 156.202 -0.750533 -0.0469495 0
M  V30 1642 H 158.173 -2.90709 0.673096 0
M  V30 1643 C 156.922 -3.31288 -1.05563 0
M  V30 1644 H 156.245 -3.96805 -0.488426 0
M  V30 1645 H 157.685 -3.9554 -1.52721 0
M  V30 1646 C 156.144 -2.6016 -2.14052 0
M  V30 1647 O 156.674 -2.39997 -3.22124 0
M  V30 1648 N 154.88 -2.19911 -1.89967 0
M  V30 1649 H 154.427 -2.36509 -1.02085 0
M  V30 1650 H 154.385 -1.72646 -2.62756 0
M  V30 1651 N 158.157 -0.370918 -1.53173 0
M  V30 1652 C 159.382 0.220293 -2.06227 0
M  V30 1653 C 159.807 1.41243 -1.24225 0
M  V30 1654 O 159.165 1.79387 -0.262645 0
M  V30 1655 C 159.213 0.586663 -3.55796 0
M  V30 1656 O 158.317 1.68317 -3.76488 0
M  V30 1657 H 157.658 0.0308099 -0.663285 0
M  V30 1658 H 160.188 -0.533068 -1.97534 0
M  V30 1659 H 160.198 0.85617 -3.98916 0
M  V30 1660 H 158.873 -0.285013 -4.14922 0
M  V30 1661 H 157.45 1.40881 -3.45264 0
M  V30 1662 N 159.635 1.57281 -0.100228 0
M  V30 1663 C 160.884 1.93713 0.561984 0
M  V30 1664 C 161.197 0.984492 1.69018 0
M  V30 1665 O 162.403 1.24273 2.41389 0
M  V30 1666 C 160.859 3.4421 1.05106 0
M  V30 1667 C 160.467 4.47975 -0.0476628 0
M  V30 1668 C 162.211 3.89595 1.68571 0
M  V30 1669 C 160.118 5.89631 0.457055 0
M  V30 1670 H 159.048 0.723082 0.2137 0
M  V30 1671 H 161.699 1.82644 -0.177057 0
M  V30 1672 H 160.081 3.50449 1.84395 0
M  V30 1673 H 161.255 4.53385 -0.823333 0
M  V30 1674 H 159.57 4.1223 -0.587816 0
M  V30 1675 H 162.167 4.92832 2.07414 0
M  V30 1676 H 162.51 3.28526 2.55688 0
M  V30 1677 H 163.043 3.86078 0.958562 0
M  V30 1678 H 159.782 6.54411 -0.377616 0
M  V30 1679 H 159.302 5.87681 1.19962 0
M  V30 1680 H 160.981 6.40363 0.92437 0
M  V30 1681 N 161.113 -0.173488 1.56642 0
M  V30 1682 C 162.362 -0.888758 1.81063 0
M  V30 1683 C 162.675 -1.83506 0.67712 0
M  V30 1684 O 163.881 -2.59254 0.806206 0
M  V30 1685 C 162.337 -1.63091 3.20826 0
M  V30 1686 C 161.945 -0.728357 4.4204 0
M  V30 1687 C 163.689 -2.33454 3.54541 0
M  V30 1688 C 161.596 -1.47062 5.72823 0
M  V30 1689 H 160.526 -0.335618 0.675186 0
M  V30 1690 H 163.177 -0.141712 1.82952 0
M  V30 1691 H 161.559 -2.42263 3.13248 0
M  V30 1692 H 162.733 0.0262449 4.60793 0
M  V30 1693 H 161.048 -0.134492 4.16183 0
M  V30 1694 H 163.645 -2.89578 4.49498 0
M  V30 1695 H 163.988 -3.08687 2.79317 0
M  V30 1696 H 164.521 -1.61227 3.63663 0
M  V30 1697 H 161.26 -0.760658 6.51072 0
M  V30 1698 H 160.78 -2.1986 5.58052 0
M  V30 1699 H 162.459 -2.01868 6.14702 0
M  V30 1700 N 162.591 -1.51276 -0.441967 0
M  V30 1701 C 164.007 -1.39349 -0.778083 0
M  V30 1702 C 164.207 -0.472212 -1.95889 0
M  V30 1703 O 163.263 0.0743551 -2.5239 0
M  V30 1704 C 164.576 -2.81292 -1.0628 0
M  V30 1705 C 166.124 -2.9041 -1.16751 0
M  V30 1706 C 166.599 -4.33251 -1.48519 0
M  V30 1707 N 168.09 -4.36336 -1.55453 0
M  V30 1708 C 168.825 -5.43885 -1.81596 0
M  V30 1709 N 168.321 -6.61601 -2.05562 0
M  V30 1710 N 170.114 -5.3136 -1.8334 0
M  V30 1711 H 162.265 -2.09729 0.335774 0
M  V30 1712 H 164.528 -0.943925 0.0878028 0
M  V30 1713 H 164.234 -3.50678 -0.267905 0
M  V30 1714 H 164.108 -3.20334 -1.99163 0
M  V30 1715 H 166.495 -2.21225 -1.95304 0
M  V30 1716 H 166.576 -2.54871 -0.217801 0
M  V30 1717 H 166.22 -5.02984 -0.704958 0
M  V30 1718 H 166.15 -4.66299 -2.44689 0
M  V30 1719 H 168.641 -3.51466 -1.38853 0
M  V30 1720 H 168.954 -7.39361 -2.24867 0
M  V30 1721 H 167.299 -6.64725 -2.02894 0
M  V30 1722 H 170.49 -4.38382 -1.64132 0
M  V30 1723 H 170.663 -6.15258 -2.03377 0
M  V30 1724 N 164.069 0.697108 -1.41344 0
M  V30 1725 C 164.999 1.82353 -1.45841 0
M  V30 1726 C 165.98 1.67115 -0.317247 0
M  V30 1727 O 167.165 1.86871 -0.528474 0
M  V30 1728 C 164.295 3.20476 -1.33838 0
M  V30 1729 C 163.249 3.50415 -2.4575 0
M  V30 1730 C 162.575 4.87878 -2.18813 0
M  V30 1731 C 163.875 3.49546 -3.88091 0
M  V30 1732 H 165.569 1.78846 -2.40113 0
M  V30 1733 H 163.115 0.859028 -1.15571 0
M  V30 1734 H 165.068 3.98988 -1.35596 0
M  V30 1735 H 163.792 3.24604 -0.360498 0
M  V30 1736 H 162.451 2.74253 -2.43271 0
M  V30 1737 H 162.099 4.8863 -1.19371 0
M  V30 1738 H 161.799 5.08875 -2.93803 0
M  V30 1739 H 163.323 5.68702 -2.22284 0
M  V30 1740 H 164.737 4.18066 -3.92293 0
M  V30 1741 H 163.134 3.82075 -4.62751 0
M  V30 1742 H 164.204 2.48552 -4.16353 0
M  V30 1743 N 165.547 1.27147 0.931209 0
M  V30 1744 C 166.457 1.11372 2.06478 0
M  V30 1745 C 167.473 0.044645 1.73943 0
M  V30 1746 O 168.649 0.250417 1.99837 0
M  V30 1747 C 165.714 0.758838 3.38294 0
M  V30 1748 C 164.775 1.90841 3.84549 0
M  V30 1749 C 164.008 1.57036 5.10074 0
M  V30 1750 O 164.231 0.476645 5.68405 0
M  V30 1751 O 163.165 2.40839 5.51616 0
M  V30 1752 H 166.991 2.06493 2.22698 0
M  V30 1753 H 164.576 1.06301 1.04978 0
M  V30 1754 H 166.458 0.574098 4.17471 0
M  V30 1755 H 165.133 -0.162879 3.2329 0
M  V30 1756 H 164.04 2.14819 3.06274 0
M  V30 1757 H 165.373 2.81021 4.04089 0
M  V30 1758 N 167.025 -1.13721 1.09112 0
M  V30 1759 C 168.274 -1.84275 0.82009 0
M  V30 1760 C 168.587 -1.84253 -0.656509 0
M  V30 1761 O 169.793 -2.50668 -1.04296 0
M  V30 1762 C 168.249 -3.30825 1.41714 0
M  V30 1763 C 167.857 -3.39244 2.92605 0
M  V30 1764 C 169.601 -4.06443 1.22492 0
M  V30 1765 C 167.508 -4.80047 3.45411 0
M  V30 1766 H 166.438 -0.690387 0.30312 0
M  V30 1767 H 169.089 -1.28146 1.31343 0
M  V30 1768 H 167.471 -3.86737 0.851498 0
M  V30 1769 H 168.645 -2.93344 3.55367 0
M  V30 1770 H 166.96 -2.77088 3.10823 0
M  V30 1771 H 169.557 -5.10387 1.59402 0
M  V30 1772 H 169.9 -4.15972 0.165299 0
M  V30 1773 H 170.433 -3.56852 1.75788 0
M  V30 1774 H 167.172 -4.75709 4.50978 0
M  V30 1775 H 166.692 -5.26455 2.87411 0
M  V30 1776 H 168.371 -5.48957 3.42425 0
M  V30 1777 N 168.503 -0.877838 -1.30888 0
M  V30 1778 C 169.451 -0.328662 -2.30266 0
M  V30 1779 C 170.445 0.560496 -1.59859 0
M  V30 1780 O 171.651 0.445722 -1.74394 0
M  V30 1781 H 168.026 -0.0876142 -0.746879 0
M  V30 1782 H 169.997 -1.18061 -2.74051 0
M  V30 1783 C 168.746 0.448071 -3.44801 0
M  V30 1784 H 168.069 -0.226859 -3.99156 0
M  V30 1785 H 169.509 0.797541 -4.16432 0
M  V30 1786 C 167.968 1.64239 -2.94155 0
M  V30 1787 O 168.498 2.74175 -2.93583 0
M  V30 1788 N 166.704 1.47716 -2.50256 0
M  V30 1789 H 166.251 0.582821 -2.5092 0
M  V30 1790 H 166.209 2.27765 -2.16727 0
M  V30 1791 N 169.982 1.44106 -0.638065 0
M  V30 1792 C 170.929 2.30715 0.062701 0
M  V30 1793 C 171.899 1.43882 0.829883 0
M  V30 1794 O 173.084 1.72775 0.809532 0
M  V30 1795 C 170.224 3.29258 1.03358 0
M  V30 1796 C 169.337 4.31192 0.26409 0
M  V30 1797 C 168.472 5.16825 1.22741 0
M  V30 1798 C 167.511 6.10462 0.447475 0
M  V30 1799 N 166.648 6.8877 1.36161 0
M  V30 1800 H 171.488 2.90096 -0.681781 0
M  V30 1801 H 169.025 1.42925 -0.347988 0
M  V30 1802 H 170.983 3.84886 1.60992 0
M  V30 1803 H 169.613 2.71562 1.74511 0
M  V30 1804 H 168.665 3.77981 -0.428295 0
M  V30 1805 H 169.977 4.97619 -0.343052 0
M  V30 1806 H 169.131 5.77004 1.87487 0
M  V30 1807 H 167.87 4.50488 1.86847 0
M  V30 1808 H 166.875 5.49386 -0.213433 0
M  V30 1809 H 168.1 6.78837 -0.188968 0
M  V30 1810 H 166.046 6.25096 1.98975 0
M  V30 1811 H 165.963 7.51663 0.808656 0
M  V30 1812 H 167.231 7.53467 1.99769 0
M  V30 1813 N 171.46 0.379036 1.52974 0
M  V30 1814 C 172.871 -0.0972525 1.86447 0
M  V30 1815 C 173.222 -1.47027 1.29914 0
M  V30 1816 O 172.347 -2.07135 0.626433 0
M  V30 1817 C 172.942 -0.183248 3.38304 0
M  V30 1818 C 171.501 -0.603812 3.71525 0
M  V30 1819 C 170.648 0.240632 2.76254 0
M  V30 1820 H 173.599 0.597316 1.4703 0
M  V30 1821 H 173.62 -1.00432 3.67006 0
M  V30 1822 H 173.132 0.816191 3.79421 0
M  V30 1823 H 171.233 -1.61099 3.35973 0
M  V30 1824 H 171.346 -0.369086 4.77676 0
M  V30 1825 H 169.71 -0.292548 2.53014 0
M  V30 1826 H 170.493 1.23786 3.20206 0
M  V30 1827 N 172.938 -1.57226 0.108567 0
M  V30 1828 C 174.186 -1.94448 -0.550853 0
M  V30 1829 C 174.507 -0.992074 -1.67878 0
M  V30 1830 O 173.777 -0.0465 -1.95845 0
M  V30 1831 H 172.357 -0.717897 -0.206479 0
M  V30 1832 H 175.019 -1.94112 0.175062 0
M  V30 1833 H 174.115 -2.97218 -0.952259 0
M  V30 1834 N 174.416 0.165178 -1.56732 0
M  V30 1835 C 175.363 1.2044 -1.96883 0
M  V30 1836 C 176.333 1.43664 -0.833657 0
M  V30 1837 O 177.518 1.56302 -1.09427 0
M  V30 1838 C 174.658 2.53727 -2.33916 0
M  V30 1839 C 173.771 2.3783 -3.6064 0
M  V30 1840 C 172.906 3.64026 -3.86857 0
M  V30 1841 C 171.945 3.43088 -5.06909 0
M  V30 1842 N 171.082 4.61369 -5.29229 0
M  V30 1843 H 175.922 0.854996 -2.85471 0
M  V30 1844 H 173.459 0.41076 -1.41249 0
M  V30 1845 H 175.417 3.31419 -2.53411 0
M  V30 1846 H 174.047 2.8665 -1.48431 0
M  V30 1847 H 173.099 1.51282 -3.49024 0
M  V30 1848 H 174.411 2.18308 -4.4849 0
M  V30 1849 H 173.565 4.50152 -4.06753 0
M  V30 1850 H 172.304 3.86533 -2.97394 0
M  V30 1851 H 171.309 2.55349 -4.86906 0
M  V30 1852 H 172.534 3.21997 -5.97909 0
M  V30 1853 H 170.48 4.84084 -4.42718 0
M  V30 1854 H 170.397 4.44783 -6.11313 0
M  V30 1855 H 171.665 5.48761 -5.53608 0
M  V30 1856 N 175.894 1.51508 0.433938 0
M  V30 1857 C 177.305 1.56784 1.01369 0
M  V30 1858 C 177.656 0.393349 1.92217 0
M  V30 1859 O 176.781 -0.489441 2.10792 0
M  V30 1860 C 177.376 2.84144 1.8452 0
M  V30 1861 C 175.935 2.9198 2.37539 0
M  V30 1862 C 175.082 2.51482 1.16843 0
M  V30 1863 H 178.033 1.57236 0.215081 0
M  V30 1864 H 178.054 2.68098 2.70007 0
M  V30 1865 H 177.566 3.69607 1.18373 0
M  V30 1866 H 175.667 2.10955 3.0713 0
M  V30 1867 H 175.78 3.95704 2.70103 0
M  V30 1868 H 174.144 2.04758 1.51481 0
M  V30 1869 H 174.927 3.39293 0.523015 0
M  V30 1870 N 177.372 -0.689602 1.41712 0
M  V30 1871 C 178.619 -1.44966 1.4139 0
M  V30 1872 C 178.947 -1.94484 0.025105 0
M  V30 1873 O 178.202 -1.70307 -0.964048 0
M  V30 1874 C 178.501 -2.67298 2.37247 0
M  V30 1875 C 178.167 -2.36405 3.83958 0
M  V30 1876 C 176.829 -2.27691 4.23923 0
M  V30 1877 C 179.181 -2.11043 4.76561 0
M  V30 1878 C 176.509 -1.91719 5.54492 0
M  V30 1879 C 178.861 -1.76578 6.07456 0
M  V30 1880 C 177.525 -1.66363 6.46436 0
M  V30 1881 H 176.795 -0.53047 0.517381 0
M  V30 1882 H 179.442 -0.787655 1.74552 0
M  V30 1883 H 177.747 -3.38461 1.9736 0
M  V30 1884 H 179.444 -3.25452 2.34269 0
M  V30 1885 H 176.034 -2.44085 3.52308 0
M  V30 1886 H 180.218 -2.16717 4.46483 0
M  V30 1887 H 175.474 -1.82367 5.83568 0
M  V30 1888 H 179.648 -1.55974 6.78708 0
M  V30 1889 H 177.275 -1.38258 7.47522 0
M  V30 1890 N 178.85 -1.27639 -0.924453 0
M  V30 1891 C 179.798 -1.10485 -2.04685 0
M  V30 1892 C 180.792 -0.0270421 -1.69378 0
M  V30 1893 O 181.998 -0.185008 -1.79047 0
M  V30 1894 H 178.373 -0.340546 -0.670472 0
M  V30 1895 H 180.344 -2.05566 -2.16298 0
M  V30 1896 C 179.093 -0.772229 -3.39016 0
M  V30 1897 H 178.416 -1.59351 -3.66671 0
M  V30 1898 H 179.856 -0.692097 -4.18313 0
M  V30 1899 C 178.315 0.523554 -3.32807 0
M  V30 1900 O 178.845 1.55702 -3.70297 0
M  V30 1901 N 177.051 0.520363 -2.85903 0
M  V30 1902 H 176.598 -0.32107 -2.55591 0
M  V30 1903 H 176.556 1.38742 -2.82131 0
M  V30 1904 N 180.328 1.1314 -1.09713 0
M  V30 1905 C 181.739 1.66029 -0.853885 0
M  V30 1906 C 182.09 1.86241 0.617142 0
M  V30 1907 O 181.215 1.5834 1.47503 0
M  V30 1908 C 181.81 3.01599 -1.5435 0
M  V30 1909 C 180.369 3.51467 -1.34714 0
M  V30 1910 C 179.516 2.26648 -1.59769 0
M  V30 1911 H 182.467 0.970226 -1.25588 0
M  V30 1912 H 182.488 3.67709 -0.978267 0
M  V30 1913 H 182 2.86856 -2.6141 0
M  V30 1914 H 180.101 3.71408 -0.297838 0
M  V30 1915 H 180.214 4.314 -2.08401 0
M  V30 1916 H 178.578 2.33385 -1.01998 0
M  V30 1917 H 179.361 2.14467 -2.68065 0
M  V30 1918 N 181.806 0.884767 1.30421 0
M  V30 1919 C 182.739 0.295999 2.26272 0
M  V30 1920 C 183.717 -0.58332 1.51777 0
M  V30 1921 O 184.901 -0.53346 1.80794 0
M  V30 1922 C 182.028 -0.57944 3.33707 0
M  V30 1923 C 181.074 0.230525 4.25877 0
M  V30 1924 S 181.907 1.61867 5.1045 0
M  V30 1925 C 183.063 0.749756 6.21393 0
M  V30 1926 H 183.296 1.10848 2.75862 0
M  V30 1927 H 180.829 0.684178 1.38414 0
M  V30 1928 H 182.787 -1.07879 3.96071 0
M  V30 1929 H 181.448 -1.36601 2.82841 0
M  V30 1930 H 180.641 -0.437542 5.02097 0
M  V30 1931 H 180.243 0.662493 3.68086 0
M  V30 1932 H 182.535 -0.0333547 6.77492 0
M  V30 1933 H 183.478 1.48356 6.92384 0
M  V30 1934 H 183.886 0.310751 5.63644 0
M  V30 1935 N 183.284 -1.43765 0.645699 0
M  V30 1936 C 184.533 -2.01116 0.153412 0
M  V30 1937 C 184.846 -1.51493 -1.23731 0
M  V30 1938 O 186.052 -2.01067 -1.8244 0
M  V30 1939 C 184.508 -3.59206 0.223473 0
M  V30 1940 C 184.116 -4.17823 1.61642 0
M  V30 1941 C 185.86 -4.23972 -0.211597 0
M  V30 1942 C 183.767 -5.68183 1.64081 0
M  V30 1943 H 182.697 -0.752093 0.0535891 0
M  V30 1944 H 185.348 -1.6482 0.806633 0
M  V30 1945 H 183.73 -3.92867 -0.497118 0
M  V30 1946 H 184.904 -3.95674 2.36176 0
M  V30 1947 H 183.219 -3.65399 1.99681 0
M  V30 1948 H 185.816 -5.34275 -0.213112 0
M  V30 1949 H 186.159 -3.97352 -1.24165 0
M  V30 1950 H 186.692 -3.95166 0.456988 0
M  V30 1951 H 183.431 -5.99559 2.64971 0
M  V30 1952 H 182.951 -5.9241 0.938611 0
M  V30 1953 H 184.63 -6.32085 1.3812 0
M  V30 1954 N 184.763 -0.387143 -1.52771 0
M  V30 1955 C 185.711 0.463953 -2.27926 0
M  V30 1956 C 186.705 1.06493 -1.31741 0
M  V30 1957 O 187.911 1.00565 -1.49287 0
M  V30 1958 H 184.286 0.16837 -0.732909 0
M  V30 1959 H 186.257 -0.19141 -2.97785 0
M  V30 1960 C 185.006 1.5803 -3.09713 0
M  V30 1961 H 184.329 1.12718 -3.83581 0
M  V30 1962 H 185.769 2.15008 -3.65442 0
M  V30 1963 C 184.228 2.53509 -2.2189 0
M  V30 1964 O 184.758 3.56863 -1.84422 0
M  V30 1965 N 182.964 2.23199 -1.86093 0
M  V30 1966 H 182.511 1.39185 -2.16761 0
M  V30 1967 H 182.469 2.87333 -1.27621 0
M  V30 1968 N 186.241 1.57166 -0.116904 0
M  V30 1969 C 187.204 2.14039 0.819742 0
M  V30 1970 C 188.204 1.07477 1.19605 0
M  V30 1971 O 189.394 1.33263 1.1219 0
M  V30 1972 C 186.526 2.67891 2.10826 0
M  V30 1973 H 187.719 2.98128 0.325511 0
M  V30 1974 H 185.272 1.55739 0.132312 0
M  V30 1975 H 186.007 1.87384 2.64685 0
M  V30 1976 H 185.792 3.45823 1.84793 0
M  V30 1977 H 187.282 3.11809 2.77785 0
M  V30 1978 N 187.719 -0.156864 1.56817 0
M  V30 1979 C 188.967 -0.869404 1.82444 0
M  V30 1980 C 189.288 -1.82147 0.69623 0
M  V30 1981 O 188.558 -1.93847 -0.28287 0
M  V30 1982 H 187.138 -0.324043 0.673056 0
M  V30 1983 H 189.8 -0.153224 1.94297 0
M  V30 1984 H 188.896 -1.43761 2.77019 0
M  V30 1985 N 189.197 -1.51736 -0.425897 0
M  V30 1986 C 190.16 -1.73271 -1.50032 0
M  V30 1987 C 191.16 -0.602639 -1.4908 0
M  V30 1988 O 192.35 -0.87033 -1.509 0
M  V30 1989 C 189.482 -1.79969 -2.89523 0
M  V30 1990 H 190.675 -2.69172 -1.32237 0
M  V30 1991 H 188.228 -1.41899 -0.65532 0
M  V30 1992 H 188.963 -0.859241 -3.1271 0
M  V30 1993 H 188.748 -2.62109 -2.91619 0
M  V30 1994 H 190.238 -1.9843 -3.67444 0
M  V30 1995 N 190.675 0.682077 -1.42076 0
M  V30 1996 C 191.605 1.80796 -1.47767 0
M  V30 1997 C 192.586 1.6677 -0.334954 0
M  V30 1998 O 193.771 1.863 -0.548264 0
M  V30 1999 C 190.901 3.19038 -1.37229 0
M  V30 2000 C 189.855 3.47789 -2.49453 0
M  V30 2001 C 189.181 4.8553 -2.23975 0
M  V30 2002 C 190.481 3.45411 -3.91776 0
M  V30 2003 H 192.175 1.7629 -2.41997 0
M  V30 2004 H 189.721 0.846721 -1.16476 0
M  V30 2005 H 191.674 3.97528 -1.39821 0
M  V30 2006 H 190.398 3.24204 -0.394907 0
M  V30 2007 H 189.057 2.71657 -2.46166 0
M  V30 2008 H 188.705 4.87337 -1.24547 0
M  V30 2009 H 188.405 5.0573 -2.99184 0
M  V30 2010 H 189.929 5.66312 -2.28304 0
M  V30 2011 H 191.343 4.13882 -3.96705 0
M  V30 2012 H 189.74 3.77145 -4.66778 0
M  V30 2013 H 190.81 2.44122 -4.18966 0
M  V30 2014 N 192.153 1.28127 0.917671 0
M  V30 2015 C 193.381 1.17892 1.70026 0
M  V30 2016 C 193.796 -0.262958 1.8696 0
M  V30 2017 O 193.153 -1.17811 1.3938 0
M  V30 2018 C 193.204 1.86872 3.09453 0
M  V30 2019 O 192.925 3.25428 2.93306 0
M  V30 2020 C 194.426 1.8289 4.03815 0
M  V30 2021 H 191.646 0.40942 0.531617 0
M  V30 2022 H 194.19 1.69181 1.14883 0
M  V30 2023 H 192.345 1.39464 3.61426 0
M  V30 2024 H 192.759 3.59918 3.81523 0
M  V30 2025 H 194.233 2.35751 4.99125 0
M  V30 2026 H 194.71 0.800412 4.31845 0
M  V30 2027 H 195.316 2.29959 3.57769 0
M  V30 2028 N 193.631 -1.12557 1.10312 0
M  V30 2029 C 194.88 -1.83395 0.839588 0
M  V30 2030 C 195.193 -1.84939 -0.636929 0
M  V30 2031 O 196.399 -2.51761 -1.01631 0
M  V30 2032 C 194.855 -3.29303 1.45215 0
M  V30 2033 C 194.463 -3.36122 2.96186 0
M  V30 2034 C 196.207 -4.05121 1.26796 0
M  V30 2035 C 194.114 -4.76357 3.50483 0
M  V30 2036 H 193.044 -0.687133 0.310425 0
M  V30 2037 H 195.695 -1.26746 1.32694 0
M  V30 2038 H 194.077 -3.85812 0.892469 0
M  V30 2039 H 195.251 -2.89559 3.58458 0
M  V30 2040 H 193.566 -2.73776 3.13745 0
M  V30 2041 H 196.163 -5.08668 1.64806 0
M  V30 2042 H 196.506 -4.15773 0.209409 0
M  V30 2043 H 197.039 -3.54967 1.79563 0
M  V30 2044 H 193.778 -4.70899 4.55998 0
M  V30 2045 H 193.298 -5.23377 2.92978 0
M  V30 2046 H 194.977 -5.45294 3.48228 0
M  V30 2047 N 195.109 -0.891671 -1.2995 0
M  V30 2048 C 196.072 -0.36828 -2.26222 0
M  V30 2049 C 197.072 0.493014 -1.53056 0
M  V30 2050 O 198.262 0.299213 -1.71611 0
M  V30 2051 C 195.394 0.47442 -3.37583 0
M  V30 2052 H 196.587 -1.21844 -2.74033 0
M  V30 2053 H 194.14 -0.669107 -1.41254 0
M  V30 2054 H 194.875 1.34489 -2.95099 0
M  V30 2055 H 194.66 -0.142615 -3.91841 0
M  V30 2056 H 196.15 0.83218 -4.09224 0
M  V30 2057 N 196.587 1.43421 -0.653314 0
M  V30 2058 C 197.812 2.06678 -0.172846 0
M  V30 2059 C 198.237 1.48648 1.15262 0
M  V30 2060 O 197.595 0.596457 1.71208 0
M  V30 2061 C 197.643 3.60474 -0.0953184 0
M  V30 2062 O 196.747 4.01487 0.942442 0
M  V30 2063 H 196.088 0.657181 -0.0949155 0
M  V30 2064 H 198.618 1.83925 -0.896265 0
M  V30 2065 H 198.628 4.07905 0.0879728 0
M  V30 2066 H 197.303 4.02088 -1.06291 0
M  V30 2067 H 195.88 3.65646 0.731932 0
M  V30 2068 N 198.065 0.39524 1.52563 0
M  V30 2069 C 199.314 -0.186321 2.00838 0
M  V30 2070 C 199.627 -1.47402 1.28577 0
M  V30 2071 O 200.833 -2.13599 1.67593 0
M  V30 2072 C 199.289 -0.382595 3.57861 0
M  V30 2073 C 198.897 0.892202 4.39026 0
M  V30 2074 C 200.641 -0.9202 4.14406 0
M  V30 2075 C 198.548 0.66388 5.87662 0
M  V30 2076 H 197.478 -0.0734041 0.750418 0
M  V30 2077 H 200.129 0.518552 1.76021 0
M  V30 2078 H 198.511 -1.14946 3.7895 0
M  V30 2079 H 199.685 1.66414 4.29701 0
M  V30 2080 H 198 1.35519 3.9373 0
M  V30 2081 H 200.597 -1.10683 5.23119 0
M  V30 2082 H 200.94 -1.89096 3.70875 0
M  V30 2083 H 201.473 -0.212751 3.97231 0
M  V30 2084 H 198.212 1.6058 6.35527 0
M  V30 2085 H 197.732 -0.0690193 5.9976 0
M  V30 2086 H 199.411 0.300699 6.46301 0
M  V30 2087 N 199.544 -1.57102 0.125237 0
M  V30 2088 C 200.474 -2.18659 -0.819174 0
M  V30 2089 C 201.455 -1.12843 -1.27281 0
M  V30 2090 O 202.64 -1.41104 -1.33429 0
M  V30 2091 C 199.77 -2.79096 -2.06695 0
M  V30 2092 C 198.724 -3.90548 -1.75088 0
M  V30 2093 C 198.05 -4.37821 -3.06948 0
M  V30 2094 C 199.35 -5.12356 -1.01435 0
M  V30 2095 H 201.044 -2.9783 -0.306202 0
M  V30 2096 H 198.59 -1.4326 -0.145839 0
M  V30 2097 H 200.543 -3.2082 -2.73226 0
M  V30 2098 H 199.267 -1.97223 -2.60328 0
M  V30 2099 H 197.926 -3.49409 -1.10944 0
M  V30 2100 H 197.574 -3.52799 -3.58527 0
M  V30 2101 H 197.274 -5.12982 -2.86571 0
M  V30 2102 H 198.798 -4.822 -3.74587 0
M  V30 2103 H 200.212 -5.5106 -1.58132 0
M  V30 2104 H 198.609 -5.9314 -0.911319 0
M  V30 2105 H 199.679 -4.849 -0.00218681 0
M  V30 2106 N 201.022 0.148545 -1.56898 0
M  V30 2107 C 202.433 0.708766 -1.72723 0
M  V30 2108 C 202.784 1.81734 -0.739395 0
M  V30 2109 O 201.909 2.16194 0.0943169 0
M  V30 2110 C 202.504 1.29245 -3.13179 0
M  V30 2111 C 201.063 1.79925 -3.30611 0
M  V30 2112 C 200.21 0.687111 -2.68652 0
M  V30 2113 H 203.161 -0.0771063 -1.58513 0
M  V30 2114 H 203.182 2.16224 -3.13093 0
M  V30 2115 H 202.694 0.485382 -3.85053 0
M  V30 2116 H 200.795 2.63203 -2.63732 0
M  V30 2117 H 200.908 1.92903 -4.38549 0
M  V30 2118 H 199.272 1.11335 -2.29078 0
M  V30 2119 H 200.055 -0.108483 -3.43129 0
M  V30 2120 N 202.5 1.5196 0.417844 0
M  V30 2121 C 203.748 1.65263 1.16329 0
M  V30 2122 C 204.069 0.380634 1.91249 0
M  V30 2123 O 203.339 -0.604214 1.86349 0
M  V30 2124 H 201.919 0.60912 0.432414 0
M  V30 2125 H 204.581 1.88969 0.477162 0
M  V30 2126 H 203.677 2.4896 1.88217 0
M  V30 2127 N 203.978 -0.674533 1.42435 0
M  V30 2128 C 204.888 -1.81751 1.48337 0
M  V30 2129 C 205.904 -1.69975 0.372099 0
M  V30 2130 O 207.08 -1.91521 0.62304 0
M  V30 2131 C 204.145 -3.17895 1.38361 0
M  V30 2132 C 203.206 -3.41625 2.59982 0
M  V30 2133 C 202.439 -4.71274 2.50473 0
M  V30 2134 O 202.662 -5.49197 1.54075 0
M  V30 2135 O 201.596 -4.96254 3.4061 0
M  V30 2136 H 205.422 -1.79728 2.44809 0
M  V30 2137 H 203.007 -0.830312 1.24202 0
M  V30 2138 H 204.889 -3.99136 1.35161 0
M  V30 2139 H 203.564 -3.20555 0.450144 0
M  V30 2140 H 202.471 -2.60231 2.68757 0
M  V30 2141 H 203.804 -3.43796 3.52229 0
M  V30 2142 N 205.456 -1.28612 -0.910864 0
M  V30 2143 C 206.681 -1.1891 -1.69927 0
M  V30 2144 C 207.106 0.248372 -1.86453 0
M  V30 2145 O 206.464 1.17961 -1.37676 0
M  V30 2146 C 206.512 -1.89578 -3.06745 0
M  V30 2147 O 205.616 -1.20521 -3.94396 0
M  V30 2148 H 204.957 -0.412632 -0.520222 0
M  V30 2149 H 207.487 -1.69985 -1.1387 0
M  V30 2150 H 207.497 -1.97597 -3.56958 0
M  V30 2151 H 206.172 -2.94136 -2.94035 0
M  V30 2152 H 204.749 -1.20684 -3.52831 0
M  V30 2153 N 206.934 1.1197 -1.10907 0
M  V30 2154 C 207.897 2.16031 -0.765707 0
M  V30 2155 C 208.897 1.59393 0.212235 0
M  V30 2156 O 210.087 1.74196 -0.0115441 0
M  V30 2157 C 207.219 3.40632 -0.135053 0
M  V30 2158 H 208.412 2.47919 -1.68748 0
M  V30 2159 H 205.965 1.27061 -0.910226 0
M  V30 2160 H 206.7 3.14348 0.797218 0
M  V30 2161 H 206.485 3.8302 -0.838937 0
M  V30 2162 H 207.975 4.17505 0.0892469 0
M  V30 2163 N 208.412 0.89855 1.29475 0
M  V30 2164 C 209.642 0.538479 1.99459 0
M  V30 2165 C 210.05 -0.880922 1.67441 0
M  V30 2166 O 209.393 -1.59283 0.915127 0
M  V30 2167 C 209.455 0.649564 3.53583 0
M  V30 2168 C 209.119 2.03573 4.09154 0
M  V30 2169 C 210.116 3.00675 4.24135 0
M  V30 2170 C 207.801 2.3448 4.44212 0
M  V30 2171 C 209.795 4.26809 4.73405 0
M  V30 2172 C 207.482 3.60857 4.93179 0
M  V30 2173 C 208.48 4.56836 5.0773 0
M  V30 2174 O 208.168 5.80969 5.55635 0
M  V30 2175 H 207.9 0.205372 0.644048 0
M  V30 2176 H 210.454 1.20958 1.66007 0
M  V30 2177 H 208.684 -0.0785592 3.8662 0
M  V30 2178 H 210.373 0.29881 4.04799 0
M  V30 2179 H 211.139 2.78112 3.97339 0
M  V30 2180 H 207.018 1.60534 4.32145 0
M  V30 2181 H 210.562 5.0173 4.84678 0
M  V30 2182 H 206.459 3.83251 5.19412 0
M  V30 2183 H 207.227 5.83542 5.73952 0
M  V30 2184 N 209.89 -1.43072 0.660911 0
M  V30 2185 C 210.8 -2.34585 -0.0264163 0
M  V30 2186 C 211.816 -1.54316 -0.803898 0
M  V30 2187 O 212.992 -1.86939 -0.749391 0
M  V30 2188 C 210.057 -3.32689 -0.975639 0
M  V30 2189 C 209.118 -4.2886 -0.194236 0
M  V30 2190 C 208.351 -5.22278 -1.09825 0
M  V30 2191 O 208.574 -5.20299 -2.33763 0
M  V30 2192 O 207.508 -5.99228 -0.566513 0
M  V30 2193 H 211.334 -2.94869 0.727034 0
M  V30 2194 H 208.919 -1.43342 0.42111 0
M  V30 2195 H 210.801 -3.92995 -1.52094 0
M  V30 2196 H 209.476 -2.74898 -1.70918 0
M  V30 2197 H 208.383 -3.72011 0.394835 0
M  V30 2198 H 209.716 -4.89655 0.499899 0
M  V30 2199 N 211.368 -0.403325 -1.52352 0
M  V30 2200 C 212.315 0.425011 -2.26853 0
M  V30 2201 C 213.285 1.04598 -1.29029 0
M  V30 2202 O 214.47 1.07135 -1.57882 0
M  V30 2203 C 211.61 1.53888 -3.08889 0
M  V30 2204 C 210.723 0.939396 -4.21663 0
M  V30 2205 C 209.858 2.02547 -4.91068 0
M  V30 2206 C 208.897 1.40263 -5.95813 0
M  V30 2207 N 208.034 2.4286 -6.58759 0
M  V30 2208 H 212.874 -0.21674 -2.97211 0
M  V30 2209 H 210.411 -0.118722 -1.4662 0
M  V30 2210 H 212.369 2.19558 -3.54753 0
M  V30 2211 H 210.999 2.15074 -2.40714 0
M  V30 2212 H 210.051 0.171898 -3.80011 0
M  V30 2213 H 211.363 0.44436 -4.96817 0
M  V30 2214 H 210.517 2.75958 -5.40308 0
M  V30 2215 H 209.256 2.55415 -4.15469 0
M  V30 2216 H 208.261 0.653833 -5.45898 0
M  V30 2217 H 209.486 0.881719 -6.73352 0
M  V30 2218 H 207.432 2.94871 -5.85992 0
M  V30 2219 H 207.349 1.98152 -7.2957 0
M  V30 2220 H 208.617 3.15858 -7.12639 0
M  V30 2221 N 212.846 1.57033 -0.133567 0
M  V30 2222 C 213.776 2.1909 0.807567 0
M  V30 2223 C 214.757 1.13517 1.26681 0
M  V30 2224 O 215.942 1.41809 1.32679 0
M  V30 2225 C 213.072 2.80188 2.05212 0
M  V30 2226 C 212.026 3.91471 1.73015 0
M  V30 2227 C 211.352 4.39443 3.04622 0
M  V30 2228 C 212.652 5.12886 0.987168 0
M  V30 2229 H 214.346 2.97988 0.290403 0
M  V30 2230 H 211.892 1.43335 0.138239 0
M  V30 2231 H 213.845 3.22264 2.71521 0
M  V30 2232 H 212.569 1.98601 2.59278 0
M  V30 2233 H 211.228 3.49993 1.0909 0
M  V30 2234 H 210.876 3.54695 3.56651 0
M  V30 2235 H 210.576 5.14495 2.83847 0
M  V30 2236 H 212.1 4.8418 3.72024 0
M  V30 2237 H 213.514 5.51891 1.55208 0
M  V30 2238 H 211.911 5.93615 0.87985 0
M  V30 2239 H 212.981 4.84894 -0.0235286 0
M  V30 2240 N 214.325 -0.140222 1.56975 0
M  V30 2241 C 215.235 -1.19223 2.02047 0
M  V30 2242 C 216.251 -1.46612 0.937062 0
M  V30 2243 O 217.427 -1.58148 1.24704 0
M  V30 2244 C 214.492 -2.50414 2.39778 0
M  V30 2245 C 213.553 -2.30612 3.621 0
M  V30 2246 C 212.786 -3.55547 3.98023 0
M  V30 2247 O 213.009 -4.62004 3.34528 0
M  V30 2248 O 211.943 -3.47808 4.91237 0
M  V30 2249 H 215.769 -0.839559 2.91865 0
M  V30 2250 H 213.354 -0.349453 1.45256 0
M  V30 2251 H 215.236 -3.27747 2.64877 0
M  V30 2252 H 213.911 -2.85198 1.53114 0
M  V30 2253 H 212.818 -1.51207 3.4218 0
M  V30 2254 H 214.151 -2.00741 4.49404 0
M  V30 2255 N 215.803 -1.52179 -0.40978 0
M  V30 2256 C 217.05 -1.66206 -1.15679 0
M  V30 2257 C 217.378 -0.391674 -1.90516 0
M  V30 2258 O 216.633 0.62533 -1.8544 0
M  V30 2259 C 216.932 -2.83428 -2.17723 0
M  V30 2260 C 216.598 -4.21672 -1.59699 0
M  V30 2261 C 215.26 -4.59274 -1.43599 0
M  V30 2262 C 217.612 -5.07825 -1.17317 0
M  V30 2263 C 214.94 -5.80709 -0.836328 0
M  V30 2264 C 217.292 -6.29864 -0.587691 0
M  V30 2265 C 215.956 -6.66216 -0.413818 0
M  V30 2266 H 215.226 -0.608192 -0.423301 0
M  V30 2267 H 217.873 -1.86279 -0.444097 0
M  V30 2268 H 216.178 -2.57687 -2.95135 0
M  V30 2269 H 217.875 -2.91477 -2.75394 0
M  V30 2270 H 214.465 -3.9204 -1.73213 0
M  V30 2271 H 218.649 -4.79359 -1.28565 0
M  V30 2272 H 213.905 -6.07498 -0.689626 0
M  V30 2273 H 218.079 -6.95948 -0.250894 0
M  V30 2274 H 215.706 -7.60182 0.0529471 0
M  V30 2275 N 217.281 0.66697 -1.42791 0
M  V30 2276 C 218.211 1.79218 -1.49677 0
M  V30 2277 C 219.192 1.66405 -0.352623 0
M  V30 2278 O 220.377 1.85708 -0.567993 0
M  V30 2279 C 217.507 3.17565 -1.40605 0
M  V30 2280 C 216.461 3.45124 -2.53127 0
M  V30 2281 C 215.787 4.83127 -2.29112 0
M  V30 2282 C 217.087 3.41236 -3.95418 0
M  V30 2283 H 218.781 1.73713 -2.43853 0
M  V30 2284 H 216.327 0.83432 -1.17367 0
M  V30 2285 H 218.28 3.96022 -1.44029 0
M  V30 2286 H 217.004 3.23767 -0.429271 0
M  V30 2287 H 215.663 2.69031 -2.49034 0
M  V30 2288 H 215.311 4.85988 -1.29709 0
M  V30 2289 H 215.011 5.02528 -3.04531 0
M  V30 2290 H 216.535 5.63859 -2.34297 0
M  V30 2291 H 217.949 4.09651 -4.01073 0
M  V30 2292 H 216.346 3.72173 -4.70752 0
M  V30 2293 H 217.416 2.39665 -4.21532 0
M  V30 2294 N 218.759 1.29093 0.90403 0
M  V30 2295 C 219.989 1.19516 1.68522 0
M  V30 2296 C 220.397 -0.24738 1.87576 0
M  V30 2297 O 219.74 -1.17798 1.40959 0
M  V30 2298 C 219.802 1.83249 3.0929 0
M  V30 2299 C 219.466 3.32531 3.13484 0
M  V30 2300 C 220.463 4.28821 2.93953 0
M  V30 2301 C 218.148 3.73656 3.35688 0
M  V30 2302 C 220.142 5.64212 2.96553 0
M  V30 2303 C 217.829 5.0917 3.37919 0
M  V30 2304 C 218.827 6.04258 3.18373 0
M  V30 2305 O 218.515 7.37298 3.20385 0
M  V30 2306 H 218.247 0.415467 0.533257 0
M  V30 2307 H 220.801 1.70912 1.13922 0
M  V30 2308 H 219.031 1.26358 3.65473 0
M  V30 2309 H 220.72 1.68054 3.69476 0
M  V30 2310 H 221.486 3.98382 2.76616 0
M  V30 2311 H 217.365 3.00101 3.49943 0
M  V30 2312 H 220.909 6.38407 2.81216 0
M  V30 2313 H 216.806 5.39256 3.54787 0
M  V30 2314 H 217.574 7.46048 3.36681 0
M  V30 2315 N 220.237 -1.11381 1.11499 0
M  V30 2316 C 221.462 -1.87475 0.887019 0
M  V30 2317 C 221.887 -1.79639 -0.557796 0
M  V30 2318 O 221.245 -1.15924 -1.39396 0
M  V30 2319 C 221.293 -3.34213 1.35403 0
M  V30 2320 O 220.397 -4.0903 0.526146 0
M  V30 2321 H 219.738 -0.582099 0.319463 0
M  V30 2322 H 222.268 -1.40785 1.48461 0
M  V30 2323 H 222.278 -3.8506 1.34881 0
M  V30 2324 H 220.953 -3.39232 2.40612 0
M  V30 2325 H 219.53 -3.68082 0.597522 0
M  V30 2326 N 221.715 -0.905404 -1.28997 0
M  V30 2327 C 222.961 -0.535039 -1.95615 0
M  V30 2328 C 223.294 0.917404 -1.71165 0
M  V30 2329 O 222.569 1.65123 -1.02785 0
M  V30 2330 C 222.852 -0.834918 -3.50287 0
M  V30 2331 C 222.705 -2.33948 -3.84172 0
M  V30 2332 C 224.024 -0.325318 -4.38896 0
M  V30 2333 H 221.143 -0.195861 -0.710498 0
M  V30 2334 H 223.785 -1.13313 -1.52513 0
M  V30 2335 H 221.935 -0.325904 -3.87131 0
M  V30 2336 H 223.607 -2.91847 -3.57243 0
M  V30 2337 H 221.85 -2.79789 -3.31513 0
M  V30 2338 H 222.521 -2.49987 -4.92149 0
M  V30 2339 H 224.997 -0.761256 -4.09077 0
M  V30 2340 H 223.873 -0.564295 -5.45992 0
M  V30 2341 H 224.134 0.774144 -4.35269 0
M  V30 2342 N 223.193 1.4272 -0.668489 0
M  V30 2343 C 224.126 2.28111 0.0637898 0
M  V30 2344 C 225.104 1.40705 0.814912 0
M  V30 2345 O 226.288 1.70146 0.81134 0
M  V30 2346 C 223.415 3.20429 1.0974 0
M  V30 2347 C 222.461 4.24197 0.442579 0
M  V30 2348 S 223.294 5.29563 -0.795173 0
M  V30 2349 C 224.45 6.25449 0.237516 0
M  V30 2350 H 224.683 2.8987 -0.660521 0
M  V30 2351 H 222.216 1.47456 -0.457821 0
M  V30 2352 H 224.174 3.74158 1.68868 0
M  V30 2353 H 222.835 2.57818 1.79411 0
M  V30 2354 H 222.028 4.88954 1.22227 0
M  V30 2355 H 221.63 3.73925 -0.0749554 0
M  V30 2356 H 223.922 6.68524 1.09915 0
M  V30 2357 H 224.865 7.07104 -0.375421 0
M  V30 2358 H 225.273 5.61511 0.580167 0
M  V30 2359 N 224.671 0.411399 1.52136 0
M  V30 2360 C 225.581 -0.419774 2.30814 0
M  V30 2361 C 226.597 -1.0515 1.38634 0
M  V30 2362 O 227.773 -1.05252 1.71709 0
M  V30 2363 C 224.838 -1.52019 3.11594 0
M  V30 2364 C 223.899 -0.91129 4.19516 0
M  V30 2365 C 223.132 -1.95927 4.96436 0
M  V30 2366 O 223.355 -3.17775 4.73683 0
M  V30 2367 O 222.289 -1.56423 5.81219 0
M  V30 2368 H 226.115 0.221805 3.02889 0
M  V30 2369 H 223.7 0.174547 1.48377 0
M  V30 2370 H 225.582 -2.15898 3.61892 0
M  V30 2371 H 224.257 -2.14633 2.42311 0
M  V30 2372 H 223.164 -0.235157 3.7336 0
M  V30 2373 H 224.497 -0.32904 4.91099 0
M  V30 2374 N 226.149 -1.5696 0.141893 0
M  V30 2375 C 227.377 -2.00322 -0.517579 0
M  V30 2376 C 227.792 -1.02193 -1.58752 0
M  V30 2377 O 227.149 -0.0181619 -1.82491 0
M  V30 2378 C 227.2 -3.43618 -1.12289 0
M  V30 2379 O 226.921 -4.37995 -0.0956929 0
M  V30 2380 C 228.422 -4.02231 -1.86347 0
M  V30 2381 H 225.642 -0.657243 -0.135177 0
M  V30 2382 H 228.186 -2.03146 0.234973 0
M  V30 2383 H 226.341 -3.41662 -1.82609 0
M  V30 2384 H 226.755 -5.21729 -0.538469 0
M  V30 2385 H 228.229 -5.04509 -2.23997 0
M  V30 2386 H 228.706 -3.42655 -2.74744 0
M  V30 2387 H 229.312 -4.07802 -1.20737 0
M  V30 2388 N 227.627 0.131896 -1.57047 0
M  V30 2389 C 228.557 1.16384 -2.02428 0
M  V30 2390 C 229.538 1.43936 -0.90644 0
M  V30 2391 O 230.723 1.54599 -1.17528 0
M  V30 2392 C 227.853 2.49328 -2.4177 0
M  V30 2393 C 226.807 2.36266 -3.56879 0
M  V30 2394 C 226.133 3.74057 -3.8208 0
M  V30 2395 C 227.433 1.834 -4.89042 0
M  V30 2396 H 229.127 0.786433 -2.88887 0
M  V30 2397 H 226.673 0.376855 -1.38981 0
M  V30 2398 H 228.626 3.21759 -2.7212 0
M  V30 2399 H 227.35 2.88934 -1.52266 0
M  V30 2400 H 226.009 1.66286 -3.26718 0
M  V30 2401 H 225.657 4.11125 -2.89803 0
M  V30 2402 H 225.357 3.66174 -4.59554 0
M  V30 2403 H 226.881 4.48012 -4.1487 0
M  V30 2404 H 228.295 2.45636 -5.18011 0
M  V30 2405 H 226.692 1.8637 -5.70426 0
M  V30 2406 H 227.762 0.790662 -4.7841 0
M  V30 2407 N 229.106 1.52395 0.401703 0
M  V30 2408 C 230.355 1.66044 1.14509 0
M  V30 2409 C 230.668 0.400216 1.91462 0
M  V30 2410 O 231.874 0.416632 2.68284 0
M  V30 2411 C 230.33 2.93388 2.0845 0
M  V30 2412 C 229.938 4.26545 1.36978 0
M  V30 2413 C 231.682 3.16402 2.83001 0
M  V30 2414 C 229.589 5.45007 2.29611 0
M  V30 2415 H 228.519 0.618562 0.431158 0
M  V30 2416 H 231.17 1.78886 0.40892 0
M  V30 2417 H 229.552 2.74263 2.8565 0
M  V30 2418 H 230.726 4.56179 0.650916 0
M  V30 2419 H 229.041 4.09692 0.74438 0
M  V30 2420 H 231.638 4.02085 3.52465 0
M  V30 2421 H 231.981 2.30943 3.46368 0
M  V30 2422 H 232.514 3.36034 2.12898 0
M  V30 2423 H 229.253 6.32835 1.70879 0
M  V30 2424 H 228.773 5.19702 2.9945 0
M  V30 2425 H 230.452 5.7838 2.89974 0
M  V30 2426 N 230.584 -0.659388 1.43143 0
M  V30 2427 C 231.832 -1.41654 1.44147 0
M  V30 2428 C 232.153 -1.94893 0.0645739 0
M  V30 2429 O 231.423 -1.74044 -0.899198 0
M  V30 2430 H 230.003 -0.525708 0.530697 0
M  V30 2431 H 232.665 -0.778097 1.78694 0
M  V30 2432 H 231.761 -2.26195 2.1504 0
M  V30 2433 N 232.062 -1.29571 -0.897171 0
M  V30 2434 C 233.009 -1.14916 -2.00158 0
M  V30 2435 C 233.979 -0.0418149 -1.66047 0
M  V30 2436 O 235.164 -0.209793 -1.89643 0
M  V30 2437 C 232.304 -0.834307 -3.34863 0
M  V30 2438 C 231.417 -2.02234 -3.8174 0
M  V30 2439 C 230.552 -1.64664 -5.05034 0
M  V30 2440 C 229.591 -2.80033 -5.44286 0
M  V30 2441 N 228.728 -2.42843 -6.58765 0
M  V30 2442 H 233.568 -2.09403 -2.12025 0
M  V30 2443 H 231.105 -1.042 -1.0383 0
M  V30 2444 H 233.063 -0.632436 -4.12379 0
M  V30 2445 H 231.693 0.0736656 -3.22716 0
M  V30 2446 H 230.745 -2.33583 -3.00238 0
M  V30 2447 H 232.057 -2.88673 -4.06779 0
M  V30 2448 H 231.211 -1.4078 -5.9014 0
M  V30 2449 H 229.95 -0.753766 -4.8184 0
M  V30 2450 H 228.955 -3.04596 -4.57713 0
M  V30 2451 H 230.18 -3.69989 -5.6946 0
M  V30 2452 H 228.126 -1.56046 -6.3717 0
M  V30 2453 H 228.043 -3.22815 -6.83613 0
M  V30 2454 H 229.311 -2.22285 -7.47134 0
M  V30 2455 N 233.54 1.10788 -1.12088 0
M  V30 2456 C 234.956 1.34691 -0.856186 0
M  V30 2457 C 235.156 1.94791 0.515615 0
M  V30 2458 O 234.212 2.18524 1.26505 0
M  V30 2459 C 235.525 2.27208 -1.9697 0
M  V30 2460 C 237.073 2.40755 -2.00016 0
M  V30 2461 C 237.548 3.36598 -3.1059 0
M  V30 2462 N 239.039 3.44164 -3.10008 0
M  V30 2463 C 239.774 4.18284 -3.92206 0
M  V30 2464 N 239.27 4.95322 -4.84384 0
M  V30 2465 N 241.063 4.13865 -3.80357 0
M  V30 2466 H 233.214 0.70144 -2.00483 0
M  V30 2467 H 235.477 0.371405 -0.872217 0
M  V30 2468 H 235.183 1.90251 -2.958 0
M  V30 2469 H 235.057 3.27485 -1.87172 0
M  V30 2470 H 237.444 2.76982 -1.01808 0
M  V30 2471 H 237.525 1.40305 -2.13888 0
M  V30 2472 H 237.169 3.01096 -4.09028 0
M  V30 2473 H 237.099 4.36918 -2.93956 0
M  V30 2474 H 239.59 2.8922 -2.43228 0
M  V30 2475 H 239.903 5.49267 -5.43623 0
M  V30 2476 H 238.248 4.94459 -4.884 0
M  V30 2477 H 241.439 3.52773 -3.07683 0
M  V30 2478 H 241.612 4.71372 -4.44649 0
M  V30 2479 N 235.018 0.912232 1.28515 0
M  V30 2480 C 236.429 0.591352 1.77087 0
M  V30 2481 C 236.78 -0.8933 1.74684 0
M  V30 2482 O 235.905 -1.69876 1.34056 0
M  V30 2483 C 236.5 1.06668 3.2157 0
M  V30 2484 C 235.059 0.79675 3.67871 0
M  V30 2485 C 234.206 1.23427 2.48316 0
M  V30 2486 H 237.157 1.09365 1.15 0
M  V30 2487 H 237.178 0.407455 3.78312 0
M  V30 2488 H 236.69 2.14726 3.23287 0
M  V30 2489 H 234.791 -0.270679 3.71616 0
M  V30 2490 H 234.904 1.40343 4.58084 0
M  V30 2491 H 233.268 0.653036 2.46186 0
M  V30 2492 H 234.051 2.32316 2.52753 0
M  V30 2493 N 236.496 -1.42363 0.676048 0
M  V30 2494 C 237.912 -1.55811 0.345718 0
M  V30 2495 C 238.112 -1.65544 -1.14879 0
M  V30 2496 O 237.168 -1.62306 -1.93424 0
M  V30 2497 C 238.481 -2.80746 1.07713 0
M  V30 2498 C 240.029 -2.9452 1.05958 0
M  V30 2499 C 240.504 -4.22318 1.77233 0
M  V30 2500 N 241.995 -4.29233 1.74108 0
M  V30 2501 C 242.73 -5.26935 2.26113 0
M  V30 2502 N 242.226 -6.30783 2.86505 0
M  V30 2503 N 244.019 -5.18741 2.1648 0
M  V30 2504 H 236.17 -1.34289 1.6456 0
M  V30 2505 H 238.433 -0.646506 0.69335 0
M  V30 2506 H 238.139 -2.79696 2.13221 0
M  V30 2507 H 238.013 -3.71676 0.64316 0
M  V30 2508 H 240.4 -2.95097 0.0128255 0
M  V30 2509 H 240.481 -2.04817 1.53244 0
M  V30 2510 H 240.125 -4.22502 2.81877 0
M  V30 2511 H 240.055 -5.10958 1.27396 0
M  V30 2512 H 242.546 -3.54814 1.30059 0
M  V30 2513 H 242.859 -7.01691 3.23805 0
M  V30 2514 H 241.204 -6.31341 2.90575 0
M  V30 2515 H 244.395 -4.36533 1.68987 0
M  V30 2516 H 244.568 -5.94721 2.57316 0
M  V30 2517 N 237.974 -0.419461 -1.51915 0
M  V30 2518 C 239.223 0.154346 -2.01109 0
M  V30 2519 C 239.536 1.45338 -1.30905 0
M  V30 2520 O 240.742 2.10906 -1.7097 0
M  V30 2521 C 239.198 0.325615 -3.58424 0
M  V30 2522 C 238.806 -0.961934 -4.37551 0
M  V30 2523 C 240.55 0.854155 -4.15818 0
M  V30 2524 C 238.457 -0.757287 -5.86531 0
M  V30 2525 H 237.387 0.0614563 -0.751491 0
M  V30 2526 H 240.038 -0.54649 -1.75173 0
M  V30 2527 H 238.42 1.08903 -3.80731 0
M  V30 2528 H 239.594 -1.7323 -4.26999 0
M  V30 2529 H 237.909 -1.41766 -3.91524 0
M  V30 2530 H 240.506 1.02346 -5.24814 0
M  V30 2531 H 240.849 1.83172 -3.73837 0
M  V30 2532 H 241.382 0.149528 -3.97519 0
M  V30 2533 H 238.121 -1.70671 -6.32892 0
M  V30 2534 H 237.641 -0.0264061 -5.99794 0
M  V30 2535 H 239.32 -0.403482 -6.45741 0
M  V30 2536 N 239.452 1.56882 -0.150215 0
M  V30 2537 C 240.402 2.13501 0.800071 0
M  V30 2538 C 241.386 1.06368 1.20726 0
M  V30 2539 O 242.578 1.32538 1.17314 0
M  V30 2540 C 239.707 2.76271 2.03787 0
M  V30 2541 C 238.793 3.90533 1.65364 0
M  V30 2542 N 239.184 4.96259 0.977794 0
M  V30 2543 C 237.482 4.013 1.94613 0
M  V30 2544 C 238.183 5.76286 0.791794 0
M  V30 2545 N 237.159 5.27163 1.32666 0
M  V30 2546 H 240.961 2.92615 0.274517 0
M  V30 2547 H 238.475 1.62319 0.0512144 0
M  V30 2548 H 240.472 3.15197 2.72867 0
M  V30 2549 H 239.132 1.98631 2.56857 0
M  V30 2550 H 240.143 5.13953 0.638193 0
M  V30 2551 H 236.82 3.3474 2.4951 0
M  V30 2552 H 238.21 6.71401 0.258894 0
M  V30 2553 N 240.93 -0.123565 1.57115 0
M  V30 2554 C 241.84 -1.17074 2.033 0
M  V30 2555 C 242.856 -1.4561 0.952559 0
M  V30 2556 O 244.032 -1.56817 1.26374 0
M  V30 2557 C 241.097 -2.47857 2.42421 0
M  V30 2558 C 240.158 -2.26758 3.64526 0
M  V30 2559 C 239.391 -3.51305 4.01771 0
M  V30 2560 O 239.614 -4.5843 3.39409 0
M  V30 2561 O 238.548 -3.42578 4.94898 0
M  V30 2562 H 242.374 -0.808555 2.92739 0
M  V30 2563 H 239.959 -0.334027 1.45618 0
M  V30 2564 H 241.841 -3.2492 2.68338 0
M  V30 2565 H 240.516 -2.83558 1.5613 0
M  V30 2566 H 239.423 -1.47569 3.43765 0
M  V30 2567 H 240.756 -1.95963 4.51508 0
M  V30 2568 N 242.408 -1.52605 -0.393616 0
M  V30 2569 C 243.318 -1.79971 -1.50492 0
M  V30 2570 C 244.334 -0.686181 -1.59899 0
M  V30 2571 O 245.51 -0.973274 -1.76322 0
M  V30 2572 C 242.575 -1.95867 -2.86072 0
M  V30 2573 C 241.636 -3.19781 -2.86424 0
M  V30 2574 C 240.869 -3.34909 -4.15538 0
M  V30 2575 O 241.092 -2.54948 -5.10253 0
M  V30 2576 O 240.026 -4.28141 -4.23059 0
M  V30 2577 H 243.852 -2.74328 -1.30299 0
M  V30 2578 H 241.437 -1.3764 -0.581005 0
M  V30 2579 H 243.319 -2.08056 -3.66457 0
M  V30 2580 H 241.994 -1.04699 -3.063 0
M  V30 2581 H 240.901 -3.13038 -2.04837 0
M  V30 2582 H 242.234 -4.1078 -2.71147 0
M  V30 2583 N 243.887 0.651787 -1.4349 0
M  V30 2584 C 245.133 1.41376 -1.45398 0
M  V30 2585 C 245.466 1.94041 -0.0784823 0
M  V30 2586 O 244.741 1.72379 0.900878 0
M  V30 2587 C 245.024 2.59414 -2.49752 0
M  V30 2588 C 244.877 2.12232 -3.96582 0
M  V30 2589 C 246.196 3.61626 -2.50827 0
M  V30 2590 H 243.315 0.512719 -0.529422 0
M  V30 2591 H 245.957 0.738796 -1.75048 0
M  V30 2592 H 244.107 3.16997 -2.246 0
M  V30 2593 H 245.779 1.59639 -4.32797 0
M  V30 2594 H 244.022 1.43592 -4.09346 0
M  V30 2595 H 244.693 2.9712 -4.65214 0
M  V30 2596 H 247.169 3.13805 -2.7325 0
M  V30 2597 H 246.045 4.41766 -3.25783 0
M  V30 2598 H 246.306 4.14314 -1.5426 0
M  V30 2599 N 245.365 1.30045 0.890287 0
M  V30 2600 C 246.612 1.18561 1.64163 0
M  V30 2601 C 246.94 -0.260852 1.92743 0
M  V30 2602 O 246.195 -1.20376 1.54299 0
M  V30 2603 C 246.494 1.95409 2.99249 0
M  V30 2604 C 246.16 3.45066 2.90242 0
M  V30 2605 C 244.822 3.85878 2.87492 0
M  V30 2606 C 247.174 4.4039 2.78758 0
M  V30 2607 C 244.502 5.20314 2.7109 0
M  V30 2608 C 246.854 5.74928 2.63894 0
M  V30 2609 C 245.518 6.14986 2.59516 0
M  V30 2610 H 244.788 0.433846 0.600715 0
M  V30 2611 H 247.435 1.61088 1.03552 0
M  V30 2612 H 245.74 1.45501 3.63781 0
M  V30 2613 H 247.437 1.8392 3.56334 0
M  V30 2614 H 244.027 3.12631 2.93189 0
M  V30 2615 H 248.211 4.09806 2.79952 0
M  V30 2616 H 243.467 5.50449 2.66112 0
M  V30 2617 H 247.641 6.48434 2.53981 0
M  V30 2618 H 245.268 7.19104 2.46565 0
M  V30 2619 N 246.843 -1.10192 1.12674 0
M  V30 2620 C 248.259 -1.34235 0.863317 0
M  V30 2621 C 248.459 -1.95062 -0.505277 0
M  V30 2622 O 247.515 -2.19192 -1.25345 0
M  V30 2623 C 248.828 -2.2616 1.98172 0
M  V30 2624 C 250.376 -2.3969 2.0129 0
M  V30 2625 C 250.851 -3.34946 3.1237 0
M  V30 2626 N 252.342 -3.42515 3.11829 0
M  V30 2627 C 253.077 -4.16199 3.94419 0
M  V30 2628 N 252.573 -4.92747 4.87004 0
M  V30 2629 N 254.366 -4.11843 3.82547 0
M  V30 2630 H 246.517 -0.690798 2.00853 0
M  V30 2631 H 248.78 -0.366774 0.874174 0
M  V30 2632 H 248.486 -1.8868 2.96804 0
M  V30 2633 H 248.36 -3.26488 1.88906 0
M  V30 2634 H 250.747 -2.76438 1.03276 0
M  V30 2635 H 250.828 -1.39169 2.14629 0
M  V30 2636 H 250.472 -2.98923 4.10619 0
M  V30 2637 H 250.402 -4.35353 2.96269 0
M  V30 2638 H 252.893 -2.87926 2.44759 0
M  V30 2639 H 253.206 -5.46376 5.46528 0
M  V30 2640 H 251.551 -4.91862 4.91016 0
M  V30 2641 H 254.742 -3.51136 3.0955 0
M  V30 2642 H 254.915 -4.69007 4.47142 0
M  V30 2643 N 248.321 -0.919034 -1.28029 0
M  V30 2644 C 249.546 -0.570357 -1.99403 0
M  V30 2645 C 249.971 0.842486 -1.68178 0
M  V30 2646 O 249.329 1.56391 -0.917141 0
M  V30 2647 C 249.377 -0.792541 -3.51783 0
M  V30 2648 O 248.481 0.145988 -4.12142 0
M  V30 2649 H 247.822 -0.220555 -0.6263 0
M  V30 2650 H 250.352 -1.23592 -1.63053 0
M  V30 2651 H 250.362 -0.704708 -4.01868 0
M  V30 2652 H 249.037 -1.82247 -3.73844 0
M  V30 2653 H 247.614 0.00897528 -3.72899 0
M  V30 2654 N 249.799 1.42003 -0.683588 0
M  V30 2655 C 250.709 2.34597 -0.0109075 0
M  V30 2656 C 251.725 1.55576 0.779245 0
M  V30 2657 O 252.901 1.88107 0.719555 0
M  V30 2658 C 249.966 3.34199 0.922588 0
M  V30 2659 C 249.027 4.29115 0.125984 0
M  V30 2660 C 248.26 5.23959 1.01502 0
M  V30 2661 O 248.483 5.23952 2.25456 0
M  V30 2662 O 247.417 6.00053 0.47111 0
M  V30 2663 H 251.243 2.93675 -0.773853 0
M  V30 2664 H 248.828 1.42654 -0.443861 0
M  V30 2665 H 250.71 3.95365 1.45823 0
M  V30 2666 H 249.385 2.77582 1.66523 0
M  V30 2667 H 248.292 3.71335 -0.453969 0
M  V30 2668 H 249.625 4.88798 -0.577736 0
M  V30 2669 N 251.277 0.427512 1.51691 0
M  V30 2670 C 252.523 -0.134744 2.02953 0
M  V30 2671 C 252.878 -1.41235 1.30654 0
M  V30 2672 O 252.171 -1.87168 0.409713 0
M  V30 2673 C 252.365 -0.418249 3.54944 0
M  V30 2674 C 252.194 0.830327 4.41968 0
M  V30 2675 C 250.964 1.36097 4.86627 0
M  V30 2676 C 253.162 1.7137 4.84909 0
M  V30 2677 N 251.144 2.56311 5.57833 0
M  V30 2678 C 252.515 2.76195 5.55082 0
M  V30 2679 C 254.57 1.72928 4.66905 0
M  V30 2680 C 253.273 3.82512 6.09161 0
M  V30 2681 C 255.299 2.78175 5.21894 0
M  V30 2682 C 254.661 3.8172 5.92004 0
M  V30 2683 H 250.76 -0.0103958 0.781931 0
M  V30 2684 H 253.344 0.585981 1.85673 0
M  V30 2685 H 251.515 -1.10801 3.7226 0
M  V30 2686 H 253.247 -0.970999 3.92879 0
M  V30 2687 H 250.002 0.916311 4.64651 0
M  V30 2688 H 250.426 3.17242 5.98069 0
M  V30 2689 H 255.068 0.942081 4.12171 0
M  V30 2690 H 252.786 4.62077 6.62956 0
M  V30 2691 H 256.372 2.8031 5.09821 0
M  V30 2692 H 255.252 4.61821 6.33791 0
M  V30 2693 N 252.755 -1.56801 0.158532 0
M  V30 2694 C 253.665 -2.20916 -0.789518 0
M  V30 2695 C 254.681 -1.1969 -1.26294 0
M  V30 2696 O 255.857 -1.52308 -1.31773 0
M  V30 2697 C 252.922 -2.82727 -2.00665 0
M  V30 2698 C 251.983 -3.99114 -1.58134 0
M  V30 2699 C 251.216 -4.57968 -2.74045 0
M  V30 2700 O 251.439 -4.15704 -3.90572 0
M  V30 2701 O 250.373 -5.48047 -2.48855 0
M  V30 2702 H 254.199 -3.02464 -0.273681 0
M  V30 2703 H 251.784 -1.4924 -0.0690548 0
M  V30 2704 H 253.666 -3.21968 -2.71872 0
M  V30 2705 H 252.341 -2.04184 -2.51179 0
M  V30 2706 H 251.248 -3.64567 -0.839155 0
M  V30 2707 H 252.581 -4.79212 -1.12325 0
M  V30 2708 N 254.233 0.115231 -1.57178 0
M  V30 2709 C 255.461 0.836437 -1.89239 0
M  V30 2710 C 255.876 1.73256 -0.750175 0
M  V30 2711 O 255.233 1.80357 0.278832 0
M  V30 2712 C 255.284 1.66671 -3.20785 0
M  V30 2713 O 255.005 0.806652 -4.3061 0
M  V30 2714 C 256.506 2.49274 -3.66575 0
M  V30 2715 H 253.726 0.240253 -0.626514 0
M  V30 2716 H 256.27 0.0984932 -2.04263 0
M  V30 2717 H 254.425 2.35737 -3.0742 0
M  V30 2718 H 254.839 1.37969 -5.06028 0
M  V30 2719 H 256.313 3.03055 -4.6137 0
M  V30 2720 H 256.79 3.26807 -2.93417 0
M  V30 2721 H 257.396 1.85443 -3.82741 0
M  V30 2722 N 255.711 1.52812 0.385517 0
M  V30 2723 C 256.674 1.77188 1.45386 0
M  V30 2724 C 257.674 0.641953 1.4743 0
M  V30 2725 O 258.864 0.910033 1.4854 0
M  V30 2726 C 255.996 1.87582 2.8465 0
M  V30 2727 H 257.189 2.72583 1.25054 0
M  V30 2728 H 254.742 1.43586 0.617467 0
M  V30 2729 H 255.477 0.941849 3.10322 0
M  V30 2730 H 255.262 2.69748 2.84567 0
M  V30 2731 H 256.752 2.08102 3.62054 0
M  V30 2732 N 257.189 -0.644168 1.43834 0
M  V30 2733 C 258.139 -1.7501 1.46135 0
M  V30 2734 C 259.123 -1.57507 0.328685 0
M  V30 2735 O 260.315 -1.67465 0.5731 0
M  V30 2736 C 257.444 -3.13641 1.39585 0
M  V30 2737 C 256.53 -3.3666 2.57916 0
M  V30 2738 N 256.921 -3.30107 3.83227 0
M  V30 2739 C 255.219 -3.67411 2.52834 0
M  V30 2740 C 255.92 -3.53456 4.61999 0
M  V30 2741 N 254.896 -3.75705 3.9287 0
M  V30 2742 H 258.698 -1.68382 2.40883 0
M  V30 2743 H 256.212 -0.846169 1.38614 0
M  V30 2744 H 258.209 -3.92933 1.39317 0
M  V30 2745 H 256.869 -3.21444 0.45865 0
M  V30 2746 H 257.88 -3.09316 4.15384 0
M  V30 2747 H 254.557 -3.82275 1.67845 0
M  V30 2748 H 255.947 -3.54093 5.71024 0
M  V30 2749 N 258.668 -1.30515 -0.883378 0
M  V30 2750 C 260.084 -1.08881 -1.16692 0
M  V30 2751 C 260.284 0.149409 -2.00945 0
M  V30 2752 O 259.34 0.84257 -2.38027 0
M  V30 2753 C 260.653 -2.35319 -1.87204 0
M  V30 2754 C 262.201 -2.40799 -1.99962 0
M  V30 2755 C 262.676 -3.67083 -2.73887 0
M  V30 2756 N 264.167 -3.679 -2.81432 0
M  V30 2757 C 264.902 -4.62303 -3.3921 0
M  V30 2758 N 264.398 -5.67052 -3.98025 0
M  V30 2759 N 266.191 -4.49845 -3.3704 0
M  V30 2760 H 258.342 -2.09951 -0.321633 0
M  V30 2761 H 260.605 -0.92556 -0.205043 0
M  V30 2762 H 260.311 -3.25689 -1.3274 0
M  V30 2763 H 260.185 -2.44089 -2.87577 0
M  V30 2764 H 262.572 -1.50907 -2.53597 0
M  V30 2765 H 262.653 -2.36003 -0.98673 0
M  V30 2766 H 262.297 -4.57334 -2.20925 0
M  V30 2767 H 262.227 -3.69141 -3.75556 0
M  V30 2768 H 264.718 -2.92171 -2.39676 0
M  V30 2769 H 265.031 -6.35184 -4.40183 0
M  V30 2770 H 263.376 -5.70842 -3.96439 0
M  V30 2771 H 266.567 -3.67194 -2.90321 0
M  V30 2772 H 266.74 -5.23597 -3.81772 0
M  V30 2773 N 260.146 1.09593 -1.13257 0
M  V30 2774 C 261.094 2.18271 -0.803783 0
M  V30 2775 C 262.088 1.68054 0.213148 0
M  V30 2776 O 263.294 1.79862 0.0704699 0
M  V30 2777 H 259.669 0.711949 -0.242143 0
M  V30 2778 H 261.64 2.43235 -1.72856 0
M  V30 2779 C 260.389 3.46536 -0.28424 0
M  V30 2780 H 259.712 3.85545 -1.05807 0
M  V30 2781 H 261.152 4.23899 -0.0925945 0
M  V30 2782 C 259.611 3.22036 0.989684 0
M  V30 2783 O 260.141 3.44509 2.06584 0
M  V30 2784 N 258.347 2.7565 0.920086 0
M  V30 2785 H 257.894 2.57562 0.0442019 0
M  V30 2786 H 257.852 2.59635 1.77306 0
M  V30 2787 N 261.624 0.925811 1.2754 0
M  V30 2788 C 263.04 0.625767 1.46821 0
M  V30 2789 C 263.24 -0.825506 1.83814 0
M  V30 2790 O 262.296 -1.60356 1.95044 0
M  V30 2791 C 263.609 1.57402 2.56213 0
M  V30 2792 C 265.157 1.58204 2.70075 0
M  V30 2793 C 265.632 2.51721 3.82623 0
M  V30 2794 N 267.123 2.49917 3.89994 0
M  V30 2795 C 267.858 3.18968 4.76494 0
M  V30 2796 N 267.354 3.97391 5.67496 0
M  V30 2797 N 269.147 3.07996 4.70208 0
M  V30 2798 H 261.298 1.86409 1.01811 0
M  V30 2799 H 263.561 0.800213 0.508295 0
M  V30 2800 H 263.267 2.60925 2.35819 0
M  V30 2801 H 263.141 1.31428 3.53563 0
M  V30 2802 H 265.528 0.554124 2.89851 0
M  V30 2803 H 265.609 1.88226 1.73218 0
M  V30 2804 H 265.253 3.54622 3.63601 0
M  V30 2805 H 265.183 2.18996 4.78903 0
M  V30 2806 H 267.674 1.9296 3.24923 0
M  V30 2807 H 267.987 4.4707 6.30356 0
M  V30 2808 H 266.332 4.01495 5.67298 0
M  V30 2809 H 269.523 2.46223 3.9811 0
M  V30 2810 H 269.696 3.6208 5.37403 0
M  V30 2811 N 263.102 -1.41638 0.69111 0
M  V30 2812 C 264.065 -2.29178 0.0319786 0
M  V30 2813 C 265.065 -1.44153 -0.712496 0
M  V30 2814 O 266.255 -1.65354 -0.548053 0
M  V30 2815 C 263.387 -3.26952 -0.965161 0
M  V30 2816 H 264.58 -2.88959 0.802681 0
M  V30 2817 H 262.133 -1.4955 0.454356 0
M  V30 2818 H 262.868 -2.72142 -1.76378 0
M  V30 2819 H 262.653 -3.89685 -0.434522 0
M  V30 2820 H 264.143 -3.92561 -1.42428 0
M  V30 2821 N 264.58 -0.43555 -1.51462 0
M  V30 2822 C 265.51 0.367376 -2.30592 0
M  V30 2823 C 266.491 1.02263 -1.35928 0
M  V30 2824 O 267.676 1.02661 -1.64847 0
M  V30 2825 C 264.806 1.46983 -3.14664 0
M  V30 2826 C 263.76 0.938161 -4.17591 0
M  V30 2827 C 263.086 2.13622 -4.90173 0
M  V30 2828 C 264.386 -0.0261621 -5.22293 0
M  V30 2829 H 266.08 -0.292969 -2.97963 0
M  V30 2830 H 263.626 -0.14234 -1.43295 0
M  V30 2831 H 265.579 2.03873 -3.688 0
M  V30 2832 H 264.303 2.15843 -2.4511 0
M  V30 2833 H 262.962 0.391481 -3.64504 0
M  V30 2834 H 262.61 2.81098 -4.17124 0
M  V30 2835 H 262.31 1.78688 -5.59772 0
M  V30 2836 H 263.834 2.7107 -5.47132 0
M  V30 2837 H 265.248 0.452384 -5.71512 0
M  V30 2838 H 263.645 -0.287992 -5.99409 0
M  V30 2839 H 264.715 -0.963391 -4.75233 0
M  V30 2840 N 266.058 1.56714 -0.166846 0
M  V30 2841 C 267.021 2.16539 0.751232 0
M  V30 2842 C 268.021 1.11228 1.16125 0
M  V30 2843 O 269.211 1.36765 1.07894 0
M  V30 2844 C 266.343 2.74462 2.02196 0
M  V30 2845 H 267.536 2.99013 0.230499 0
M  V30 2846 H 265.089 1.56081 0.0826982 0
M  V30 2847 H 265.824 1.95709 2.58589 0
M  V30 2848 H 265.609 3.51527 1.73698 0
M  V30 2849 H 267.099 3.20489 2.67725 0
M  V30 2850 N 267.536 -0.106894 1.57237 0
M  V30 2851 C 268.766 -0.825191 1.89405 0
M  V30 2852 C 269.174 -1.73374 0.757496 0
M  V30 2853 O 268.517 -1.81552 -0.280115 0
M  V30 2854 C 268.579 -1.70102 3.1671 0
M  V30 2855 C 268.243 -0.965523 4.46684 0
M  V30 2856 C 269.24 -0.300741 5.19029 0
M  V30 2857 C 266.925 -0.943105 4.93367 0
M  V30 2858 C 268.919 0.376622 6.36286 0
M  V30 2859 C 266.606 -0.261949 6.10538 0
M  V30 2860 C 267.604 0.396748 6.81847 0
M  V30 2861 O 267.292 1.06701 7.96787 0
M  V30 2862 H 267.024 -0.241852 0.631255 0
M  V30 2863 H 269.578 -0.0921491 2.05193 0
M  V30 2864 H 267.808 -2.47601 2.97036 0
M  V30 2865 H 269.497 -2.29483 3.34802 0
M  V30 2866 H 270.263 -0.309599 4.84011 0
M  V30 2867 H 266.142 -1.44524 4.3776 0
M  V30 2868 H 269.686 0.891334 6.91882 0
M  V30 2869 H 265.583 -0.250896 6.45012 0
M  V30 2870 H 266.351 0.972707 8.127 0
M  V30 2871 N 269.014 -1.53014 -0.377408 0
M  V30 2872 C 270.244 -1.72265 -1.14054 0
M  V30 2873 C 270.652 -0.44601 -1.83868 0
M  V30 2874 O 269.995 0.590095 -1.73964 0
M  V30 2875 C 270.057 -2.82492 -2.22348 0
M  V30 2876 C 269.721 -4.23233 -1.72402 0
M  V30 2877 C 270.718 -5.05992 -1.19448 0
M  V30 2878 C 268.403 -4.696 -1.78273 0
M  V30 2879 C 270.397 -6.33203 -0.730268 0
M  V30 2880 C 268.084 -5.96792 -1.31464 0
M  V30 2881 C 269.082 -6.78424 -0.789297 0
M  V30 2882 O 268.77 -8.0323 -0.328077 0
M  V30 2883 H 268.502 -0.579873 -0.347453 0
M  V30 2884 H 271.056 -2.00502 -0.445882 0
M  V30 2885 H 269.286 -2.49702 -2.95272 0
M  V30 2886 H 270.975 -2.90034 -2.83963 0
M  V30 2887 H 271.741 -4.71349 -1.14259 0
M  V30 2888 H 267.62 -4.06142 -2.18106 0
M  V30 2889 H 271.164 -6.96868 -0.319542 0
M  V30 2890 H 267.061 -6.30937 -1.36342 0
M  V30 2891 H 267.829 -8.1727 -0.448493 0
M  V30 2892 N 270.492 0.636531 -1.44174 0
M  V30 2893 C 271.422 1.76003 -1.53444 0
M  V30 2894 C 272.403 1.65619 -0.387841 0
M  V30 2895 O 273.588 1.84461 -0.607257 0
M  V30 2896 C 270.718 3.14511 -1.4731 0
M  V30 2897 C 269.672 3.39677 -2.60391 0
M  V30 2898 C 268.998 4.78159 -2.39308 0
M  V30 2899 C 270.298 3.32772 -4.02567 0
M  V30 2900 H 271.992 1.68501 -2.47483 0
M  V30 2901 H 269.538 0.809237 -1.19111 0
M  V30 2902 H 271.491 3.92878 -1.52397 0
M  V30 2903 H 270.215 3.22783 -0.49785 0
M  V30 2904 H 268.874 2.63688 -2.54684 0
M  V30 2905 H 268.522 4.83128 -1.39988 0
M  V30 2906 H 268.222 4.95956 -3.15122 0
M  V30 2907 H 269.746 5.58762 -2.46205 0
M  V30 2908 H 271.16 4.01051 -4.09672 0
M  V30 2909 H 269.557 3.62104 -4.7854 0
M  V30 2910 H 270.627 2.30669 -4.2652 0
M  V30 2911 N 271.97 1.30982 0.876444 0
M  V30 2912 C 272.917 1.18085 1.98304 0
M  V30 2913 C 273.887 0.0682263 1.6596 0
M  V30 2914 O 275.072 0.239937 1.89285 0
M  V30 2915 C 272.212 0.887475 3.33493 0
M  V30 2916 C 271.325 2.08281 3.78475 0
M  V30 2917 C 270.46 1.72678 5.0235 0
M  V30 2918 C 269.499 2.88657 5.39762 0
M  V30 2919 N 268.636 2.53292 6.54819 0
M  V30 2920 H 273.476 2.1275 2.08666 0
M  V30 2921 H 271.013 1.05839 1.02159 0
M  V30 2922 H 272.971 0.697961 4.1132 0
M  V30 2923 H 271.601 -0.022315 3.22792 0
M  V30 2924 H 270.653 2.3833 2.96484 0
M  V30 2925 H 271.965 2.95108 4.02135 0
M  V30 2926 H 271.119 1.50151 5.87826 0
M  V30 2927 H 269.858 0.830327 4.8058 0
M  V30 2928 H 268.863 3.1184 4.52809 0
M  V30 2929 H 270.088 3.79002 5.63502 0
M  V30 2930 H 268.034 1.66163 6.34607 0
M  V30 2931 H 267.951 3.3365 6.7839 0
M  V30 2932 H 269.219 2.34143 7.43503 0
M  V30 2933 N 273.449 -1.08991 1.13837 0
M  V30 2934 C 274.359 -2.19301 0.833333 0
M  V30 2935 C 275.375 -1.73026 -0.183847 0
M  V30 2936 O 276.551 -2.01395 -0.0138092 0
M  V30 2937 C 273.616 -3.45323 0.308651 0
M  V30 2938 C 272.677 -4.06255 1.38764 0
M  V30 2939 C 271.91 -5.26262 0.887896 0
M  V30 2940 O 272.133 -5.69747 -0.27287 0
M  V30 2941 O 271.067 -5.78435 1.66421 0
M  V30 2942 H 274.893 -2.47854 1.75506 0
M  V30 2943 H 272.478 -1.18012 0.916166 0
M  V30 2944 H 274.36 -4.21394 0.0216739 0
M  V30 2945 H 273.035 -3.18362 -0.585431 0
M  V30 2946 H 271.942 -3.318 1.72799 0
M  V30 2947 H 273.275 -4.37452 2.25602 0
M  V30 2948 N 274.927 -0.932562 -1.27047 0
M  V30 2949 C 276.155 -0.592031 -1.98249 0
M  V30 2950 C 276.57 0.831062 -1.69525 0
M  V30 2951 O 275.927 1.55299 -0.958561 0
M  V30 2952 C 275.978 -0.814279 -3.5221 0
M  V30 2953 O 275.699 -2.18139 -3.7993 0
M  V30 2954 C 277.2 -0.483121 -4.4066 0
M  V30 2955 H 274.42 -0.223896 -0.632544 0
M  V30 2956 H 276.964 -1.25091 -1.61779 0
M  V30 2957 H 275.119 -0.20213 -3.86872 0
M  V30 2958 H 275.533 -2.235 -4.74498 0
M  V30 2959 H 277.007 -0.689298 -5.47679 0
M  V30 2960 H 277.484 0.581546 -4.35333 0
M  V30 2961 H 278.09 -1.07362 -4.11526 0
M  V30 2962 N 276.405 1.4127 -0.698611 0
M  V30 2963 C 277.353 2.32588 -0.023855 0
M  V30 2964 C 278.347 1.51128 0.765292 0
M  V30 2965 O 279.553 1.67043 0.670571 0
M  V30 2966 H 275.928 0.751918 0.0110871 0
M  V30 2967 H 277.899 2.87167 -0.811031 0
M  V30 2968 C 276.648 3.35947 0.896369 0
M  V30 2969 H 275.971 3.98684 0.298548 0
M  V30 2970 H 277.411 4.02376 1.33676 0
M  V30 2971 C 275.87 2.70076 2.01396 0
M  V30 2972 O 276.4 2.55093 3.10307 0
M  V30 2973 N 274.606 2.28724 1.79259 0
M  V30 2974 H 274.153 2.4111 0.906841 0
M  V30 2975 H 274.111 1.84986 2.54219 0
M  V30 2976 N 277.883 0.443576 1.51229 0
M  V30 2977 C 279.13 -0.120796 2.02139 0
M  V30 2978 C 279.458 -1.42166 1.32736 0
M  V30 2979 O 278.713 -1.90849 0.43301 0
M  V30 2980 C 279.012 -0.380579 3.55368 0
M  V30 2981 C 278.678 0.83523 4.43097 0
M  V30 2982 C 277.34 1.16864 4.66794 0
M  V30 2983 C 279.692 1.64601 4.94526 0
M  V30 2984 C 277.02 2.31339 5.39165 0
M  V30 2985 C 279.372 2.78181 5.68153 0
M  V30 2986 C 278.036 3.11969 5.90112 0
M  V30 2987 H 277.306 -0.0442023 0.73968 0
M  V30 2988 H 279.953 0.592046 1.82118 0
M  V30 2989 H 278.258 -1.17538 3.73754 0
M  V30 2990 H 279.955 -0.830777 3.923 0
M  V30 2991 H 276.545 0.565437 4.24854 0
M  V30 2992 H 280.729 1.40163 4.76097 0
M  V30 2993 H 275.985 2.57823 5.5438 0
M  V30 2994 H 280.159 3.41371 6.06992 0
M  V30 2995 H 277.786 4.00784 6.45969 0
M  V30 2996 N 279.361 -1.56624 0.175154 0
M  V30 2997 C 280.291 -2.21155 -0.749195 0
M  V30 2998 C 281.272 -1.16836 -1.23626 0
M  V30 2999 O 282.457 -1.45277 -1.28873 0
M  V30 3000 C 279.587 -2.8553 -1.97711 0
M  V30 3001 C 278.541 -3.95921 -1.62575 0
M  V30 3002 C 277.867 -4.47365 -2.92864 0
M  V30 3003 C 279.167 -5.15323 -0.850838 0
M  V30 3004 H 280.861 -2.98653 -0.211295 0
M  V30 3005 H 278.407 -1.43651 -0.100188 0
M  V30 3006 H 280.36 -3.2935 -2.62881 0
M  V30 3007 H 279.084 -2.05406 -2.53921 0
M  V30 3008 H 277.743 -3.52762 -0.997719 0
M  V30 3009 H 277.391 -3.64027 -3.47122 0
M  V30 3010 H 277.091 -5.21839 -2.70106 0
M  V30 3011 H 278.615 -4.93873 -3.59056 0
M  V30 3012 H 280.029 -5.55812 -1.40521 0
M  V30 3013 H 278.426 -5.95739 -0.722154 0
M  V30 3014 H 279.496 -4.84661 0.152082 0
M  V30 3015 N 280.839 0.0985539 -1.57292 0
M  V30 3016 C 281.749 1.13824 -2.05137 0
M  V30 3017 C 282.765 1.44076 -0.975604 0
M  V30 3018 O 283.941 1.54786 -1.28853 0
M  V30 3019 C 281.006 2.43969 -2.46333 0
M  V30 3020 C 280.067 2.2093 -3.68087 0
M  V30 3021 C 279.3 3.44869 -4.0731 0
M  V30 3022 O 279.523 4.52972 -3.46659 0
M  V30 3023 O 278.457 3.34661 -5.00285 0
M  V30 3024 H 282.283 0.761881 -2.93988 0
M  V30 3025 H 279.868 0.310818 -1.46131 0
M  V30 3026 H 281.75 3.20609 -2.73473 0
M  V30 3027 H 280.425 2.81038 -1.60621 0
M  V30 3028 H 279.332 1.42081 -3.46069 0
M  V30 3029 H 280.665 1.88755 -4.54568 0
M  V30 3030 N 282.317 1.53212 0.369288 0
M  V30 3031 C 283.28 1.7872 1.43498 0
M  V30 3032 C 284.28 0.657554 1.46741 0
M  V30 3033 O 285.47 0.925736 1.47566 0
M  V30 3034 C 282.602 1.90591 2.82645 0
M  V30 3035 H 283.795 2.73894 1.22156 0
M  V30 3036 H 281.348 1.44233 0.602203 0
M  V30 3037 H 282.083 0.974709 3.09306 0
M  V30 3038 H 281.868 2.72751 2.8169 0
M  V30 3039 H 283.358 2.11931 3.59826 0
M  V30 3040 N 283.795 -0.628877 1.44509 0
M  V30 3041 C 284.705 -1.7694 1.54044 0
M  V30 3042 C 285.721 -1.68705 0.425987 0
M  V30 3043 O 286.897 -1.89442 0.683656 0
M  V30 3044 C 283.962 -3.13332 1.48405 0
M  V30 3045 C 283.023 -3.33181 2.70719 0
M  V30 3046 C 282.256 -4.63067 2.6534 0
M  V30 3047 O 282.479 -5.44017 1.71469 0
M  V30 3048 O 281.413 -4.85167 3.56226 0
M  V30 3049 H 285.239 -1.71848 2.50403 0
M  V30 3050 H 282.824 -0.790378 1.26781 0
M  V30 3051 H 284.706 -3.94634 1.47791 0
M  V30 3052 H 283.381 -3.1896 0.551898 0
M  V30 3053 H 282.288 -2.51549 2.769 0
M  V30 3054 H 283.621 -3.32416 3.62988 0
M  V30 3055 N 285.273 -1.31445 -0.869486 0
M  V30 3056 C 286.519 -1.21337 -1.62496 0
M  V30 3057 C 286.852 0.227872 -1.92858 0
M  V30 3058 O 286.127 1.16094 -1.56053 0
M  V30 3059 C 286.41 -2.05814 -2.95487 0
M  V30 3060 C 286.263 -3.5824 -2.72 0
M  V30 3061 C 287.582 -1.9079 -3.96594 0
M  V30 3062 H 284.701 -0.442135 -0.589649 0
M  V30 3063 H 287.343 -1.6124 -1.00507 0
M  V30 3064 H 285.493 -1.71913 -3.48394 0
M  V30 3065 H 287.165 -4.0228 -2.25762 0
M  V30 3066 H 285.408 -3.81647 -2.06224 0
M  V30 3067 H 286.079 -4.12657 -3.66631 0
M  V30 3068 H 288.555 -2.20459 -3.52898 0
M  V30 3069 H 287.431 -2.52199 -4.87531 0
M  V30 3070 H 287.692 -0.871341 -4.33428 0
M  V30 3071 N 286.751 1.08385 -1.14413 0
M  V30 3072 C 287.661 2.18856 -0.844951 0
M  V30 3073 C 288.677 1.73121 0.174668 0
M  V30 3074 O 289.853 2.014 0.00312857 0
M  V30 3075 C 286.918 3.45155 -0.32696 0
M  V30 3076 C 285.979 4.05513 -1.40916 0
M  V30 3077 C 285.212 5.25784 -0.915793 0
M  V30 3078 O 285.435 5.69884 0.242651 0
M  V30 3079 O 284.369 5.77545 -1.69487 0
M  V30 3080 H 288.195 2.46919 -1.76818 0
M  V30 3081 H 285.78 1.17524 -0.922411 0
M  V30 3082 H 287.662 4.21377 -0.0440211 0
M  V30 3083 H 286.337 3.18668 0.568539 0
M  V30 3084 H 285.244 3.30879 -1.74556 0
M  V30 3085 H 286.577 4.3625 -2.27919 0
M  V30 3086 N 288.23 0.939286 1.26551 0
M  V30 3087 C 289.14 0.453432 2.30176 0
M  V30 3088 C 290.156 -0.471649 1.67486 0
M  V30 3089 O 291.332 -0.35164 1.98306 0
M  V30 3090 C 288.397 -0.275326 3.45605 0
M  V30 3091 C 287.458 0.686084 4.23782 0
M  V30 3092 C 286.691 -0.00798994 5.33699 0
M  V30 3093 O 286.914 -1.22528 5.57085 0
M  V30 3094 O 285.848 0.669746 5.98162 0
M  V30 3095 H 289.674 1.31416 2.73795 0
M  V30 3096 H 287.259 0.705095 1.31715 0
M  V30 3097 H 289.141 -0.685911 4.1578 0
M  V30 3098 H 287.816 -1.11147 3.0402 0
M  V30 3099 H 286.723 1.14658 3.56096 0
M  V30 3100 H 288.056 1.48979 4.69112 0
M  V30 3101 N 289.708 -1.40897 0.706093 0
M  V30 3102 C 290.936 -2.05373 0.250887 0
M  V30 3103 C 291.351 -1.53172 -1.10381 0
M  V30 3104 O 290.708 -0.684305 -1.69185 0
M  V30 3105 C 290.759 -3.6088 0.211571 0
M  V30 3106 O 290.48 -4.11153 1.51276 0
M  V30 3107 C 291.981 -4.42517 -0.263346 0
M  V30 3108 H 289.201 -0.66115 0.114552 0
M  V30 3109 H 291.745 -1.80479 0.961635 0
M  V30 3110 H 289.9 -3.84777 -0.450073 0
M  V30 3111 H 290.314 -5.05279 1.40689 0
M  V30 3112 H 291.788 -5.51479 -0.239718 0
M  V30 3113 H 292.265 -4.19396 -1.30397 0
M  V30 3114 H 292.871 -4.23708 0.367677 0
M  V30 3115 N 291.186 -0.45159 -1.50991 0
M  V30 3116 C 292.116 0.342898 -2.30969 0
M  V30 3117 C 293.097 1.00815 -1.37005 0
M  V30 3118 O 294.282 1.00907 -1.65926 0
M  V30 3119 C 291.412 1.43637 -3.16205 0
M  V30 3120 C 290.366 0.893818 -4.18563 0
M  V30 3121 C 289.692 2.08411 -4.92411 0
M  V30 3122 C 290.992 -0.0815568 -5.22236 0
M  V30 3123 H 292.686 -0.324556 -2.97636 0
M  V30 3124 H 290.232 -0.157531 -1.43136 0
M  V30 3125 H 292.185 1.9995 -3.70942 0
M  V30 3126 H 290.909 2.13232 -2.47386 0
M  V30 3127 H 289.568 0.352798 -3.64898 0
M  V30 3128 H 289.216 2.76658 -4.20082 0
M  V30 3129 H 288.916 1.72741 -5.61636 0
M  V30 3130 H 290.44 2.65251 -5.49976 0
M  V30 3131 H 291.854 0.391742 -5.7196 0
M  V30 3132 H 290.251 -0.351551 -5.99069 0
M  V30 3133 H 291.321 -1.01374 -4.74185 0
M  V30 3134 N 292.664 1.56529 -0.183458 0
M  V30 3135 C 293.574 2.22144 0.754272 0
M  V30 3136 C 294.59 1.21684 1.24374 0
M  V30 3137 O 295.766 1.54385 1.29333 0
M  V30 3138 C 292.831 2.85884 1.96141 0
M  V30 3139 C 291.892 4.01579 1.51765 0
M  V30 3140 C 291.125 4.6227 2.66725 0
M  V30 3141 O 291.348 4.21865 3.83909 0
M  V30 3142 O 290.282 5.51936 2.40104 0
M  V30 3143 H 294.108 3.02861 0.225527 0
M  V30 3144 H 291.693 1.49331 0.0453032 0
M  V30 3145 H 293.575 3.26253 2.66715 0
M  V30 3146 H 292.25 2.08154 2.47899 0
M  V30 3147 H 291.157 3.65856 0.781049 0
M  V30 3148 H 292.49 4.80938 1.04686 0
M  V30 3149 N 294.142 -0.090211 1.57342 0
M  V30 3150 C 295.388 -0.793982 1.86611 0
M  V30 3151 C 295.721 -1.78142 0.773252 0
M  V30 3152 O 294.996 -1.93271 -0.218304 0
M  V30 3153 C 295.279 -1.51839 3.26523 0
M  V30 3154 C 295.132 -0.548609 4.46442 0
M  V30 3155 C 296.451 -2.46779 3.64401 0
M  V30 3156 H 293.57 -0.287186 0.678744 0
M  V30 3157 H 296.212 -0.0575076 1.89913 0
M  V30 3158 H 294.362 -2.14617 3.23839 0
M  V30 3159 H 296.034 0.0725513 4.61243 0
M  V30 3160 H 294.277 0.137614 4.33582 0
M  V30 3161 H 294.948 -1.09271 5.41076 0
M  V30 3162 H 297.424 -1.94089 3.68061 0
M  V30 3163 H 296.3 -2.94479 4.63221 0
M  V30 3164 H 296.561 -3.30758 2.93346 0
M  V30 3165 N 295.62 -1.53406 -0.361157 0
M  V30 3166 C 296.85 -1.73465 -1.1222 0
M  V30 3167 C 297.258 -0.465486 -1.83384 0
M  V30 3168 O 296.601 0.571611 -1.7458 0
M  V30 3169 C 296.663 -2.84834 -2.19339 0
M  V30 3170 C 296.327 -4.25038 -1.67903 0
M  V30 3171 C 297.324 -5.07231 -1.14074 0
M  V30 3172 C 295.009 -4.71464 -1.73282 0
M  V30 3173 C 297.003 -6.33942 -0.663068 0
M  V30 3174 C 294.69 -5.98153 -1.25127 0
M  V30 3175 C 295.688 -6.79223 -0.717296 0
M  V30 3176 O 295.376 -8.03533 -0.242865 0
M  V30 3177 H 295.108 -0.583526 -0.341283 0
M  V30 3178 H 297.662 -2.00964 -0.424591 0
M  V30 3179 H 295.892 -2.5282 -2.92607 0
M  V30 3180 H 297.581 -2.9303 -2.80871 0
M  V30 3181 H 298.347 -4.72534 -1.09254 0
M  V30 3182 H 294.226 -4.08432 -2.13786 0
M  V30 3183 H 297.77 -6.97167 -0.245612 0
M  V30 3184 H 293.667 -6.32347 -1.29642 0
M  V30 3185 H 294.435 -8.177 -0.361786 0
M  V30 3186 N 297.098 0.621204 -1.44841 0
M  V30 3187 C 298.028 1.74366 -1.55303 0
M  V30 3188 C 299.009 1.65199 -0.405385 0
M  V30 3189 O 300.194 1.83807 -0.626787 0
M  V30 3190 C 297.324 3.12931 -1.50637 0
M  V30 3191 C 296.278 3.36896 -2.63979 0
M  V30 3192 C 295.604 4.75594 -2.44366 0
M  V30 3193 C 296.904 3.28483 -4.06074 0
M  V30 3194 H 298.598 1.65867 -2.49256 0
M  V30 3195 H 296.144 0.796558 -1.19962 0
M  V30 3196 H 298.097 3.9124 -1.56555 0
M  V30 3197 H 296.821 3.22237 -0.532057 0
M  V30 3198 H 295.48 2.60972 -2.57467 0
M  V30 3199 H 295.128 4.81616 -1.45105 0
M  V30 3200 H 294.828 4.92586 -3.20364 0
M  V30 3201 H 296.352 5.5612 -2.52117 0
M  V30 3202 H 297.766 3.96684 -4.13902 0
M  V30 3203 H 296.163 3.57008 -4.82354 0
M  V30 3204 H 297.233 2.26133 -4.28943 0
M  V30 3205 N 298.576 1.31904 0.862503 0
M  V30 3206 C 299.523 1.20182 1.9704 0
M  V30 3207 C 300.493 0.0858247 1.65878 0
M  V30 3208 O 301.678 0.26 1.8902 0
M  V30 3209 C 298.818 0.922797 3.32533 0
M  V30 3210 C 297.931 2.12284 3.76244 0
M  V30 3211 C 297.066 1.77996 5.00491 0
M  V30 3212 C 296.105 2.94366 5.36671 0
M  V30 3213 N 295.242 2.60223 6.52095 0
M  V30 3214 H 300.082 2.14951 2.06398 0
M  V30 3215 H 297.619 1.06917 1.01031 0
M  V30 3216 H 299.577 0.741548 4.10557 0
M  V30 3217 H 298.207 0.0119227 3.22798 0
M  V30 3218 H 297.259 2.41461 2.9394 0
M  V30 3219 H 298.571 2.99357 3.98982 0
M  V30 3220 H 297.725 1.56377 5.862 0
M  V30 3221 H 296.464 0.881252 4.79672 0
M  V30 3222 H 295.469 3.16625 4.49476 0
M  V30 3223 H 296.694 3.84957 5.59451 0
M  V30 3224 H 294.64 1.72884 6.32809 0
M  V30 3225 H 294.557 3.40827 6.74814 0
M  V30 3226 H 295.825 2.42016 7.40978 0
M  V30 3227 N 300.054 -1.07777 1.14986 0
M  V30 3228 C 300.986 -2.14769 0.800436 0
M  V30 3229 C 301.999 -1.61739 -0.185595 0
M  V30 3230 O 303.188 -1.78462 0.0370358 0
M  V30 3231 C 300.288 -3.38481 0.168533 0
M  V30 3232 C 299.461 -4.20876 1.1909 0
M  V30 3233 C 298.52 -5.22976 0.581575 0
M  V30 3234 O 297.546 -5.55388 1.24633 0
M  V30 3235 N 298.748 -5.76976 -0.638706 0
M  V30 3236 H 301.513 -2.45348 1.72118 0
M  V30 3237 H 299.074 -1.23645 1.04515 0
M  V30 3238 H 301.066 -4.03916 -0.251764 0
M  V30 3239 H 299.636 -3.05651 -0.655467 0
M  V30 3240 H 298.856 -3.51322 1.78791 0
M  V30 3241 H 300.144 -4.7274 1.88133 0
M  V30 3242 H 299.542 -5.52886 -1.19723 0
M  V30 3243 H 298.099 -6.44061 -1.00142 0
M  V30 3244 N 301.532 -0.945985 -1.26051 0
M  V30 3245 C 302.772 -0.603665 -1.95282 0
M  V30 3246 C 303.136 0.842377 -1.72534 0
M  V30 3247 O 304.337 1.29387 -2.35611 0
M  V30 3248 C 302.608 -0.942292 -3.44754 0
M  V30 3249 S 304.167 -0.711242 -4.32997 0
M  V30 3250 H 300.985 -0.222176 -0.675395 0
M  V30 3251 H 303.587 -1.21832 -1.52896 0
M  V30 3252 H 302.291 -1.99203 -3.58812 0
M  V30 3253 H 301.822 -0.317546 -3.92116 0
M  V30 3254 H 303.837 0.422221 -4.944 0
M  V30 3255 N 303.011 1.40521 -0.713556 0
M  V30 3256 C 303.974 2.29098 -0.0684347 0
M  V30 3257 C 304.974 1.45268 0.689472 0
M  V30 3258 O 306.164 1.66205 0.521677 0
M  V30 3259 C 303.296 3.28446 0.913024 0
M  V30 3260 H 304.489 2.87645 -0.84855 0
M  V30 3261 H 302.042 1.48809 -0.47809 0
M  V30 3262 H 302.777 2.74913 1.72027 0
M  V30 3263 H 302.562 3.90327 0.372472 0
M  V30 3264 H 304.052 3.94777 1.36165 0
M  V30 3265 N 304.489 0.459591 1.5075 0
M  V30 3266 C 305.422 -0.386257 2.24907 0
M  V30 3267 C 306.4 -1.006 1.27744 0
M  V30 3268 O 307.584 -1.04416 1.56938 0
M  V30 3269 C 304.711 -1.54021 3.01654 0
M  V30 3270 C 303.757 -1.03898 4.13651 0
M  V30 3271 S 304.59 0.0370501 5.35487 0
M  V30 3272 C 305.746 -1.12105 6.15779 0
M  V30 3273 H 305.979 0.243272 2.96303 0
M  V30 3274 H 303.512 0.244339 1.52454 0
M  V30 3275 H 305.47 -2.20163 3.46466 0
M  V30 3276 H 304.131 -2.14121 2.29806 0
M  V30 3277 H 303.324 -1.90254 4.66711 0
M  V30 3278 H 302.926 -0.45545 3.71216 0
M  V30 3279 H 305.218 -2.03501 6.46215 0
M  V30 3280 H 306.161 -0.62995 7.05292 0
M  V30 3281 H 306.569 -1.36967 5.47631 0
M  V30 3282 N 305.967 -1.56429 0.191757 0
M  V30 3283 C 306.877 -2.22541 -0.742481 0
M  V30 3284 C 307.893 -1.22342 -1.23727 0
M  V30 3285 O 309.069 -1.55069 -1.28513 0
M  V30 3286 C 306.134 -2.8692 -1.94623 0
M  V30 3287 C 305.195 -4.02378 -1.49633 0
M  V30 3288 C 304.428 -4.63678 -2.6427 0
M  V30 3289 O 304.651 -4.23895 -3.81666 0
M  V30 3290 O 303.585 -5.53202 -2.37174 0
M  V30 3291 H 307.411 -3.02977 -0.209462 0
M  V30 3292 H 304.996 -1.49353 -0.0373832 0
M  V30 3293 H 306.878 -3.27663 -2.64982 0
M  V30 3294 H 305.553 -2.09466 -2.46791 0
M  V30 3295 H 304.46 -3.66265 -0.761636 0
M  V30 3296 H 305.793 -4.81487 -1.02134 0
M  V30 3297 N 307.445 0.0818655 -1.57387 0
M  V30 3298 C 308.67 0.799946 -1.91352 0
M  V30 3299 C 309.095 1.70833 -0.787258 0
M  V30 3300 O 308.453 1.79419 0.26048 0
M  V30 3301 C 308.501 1.57812 -3.24234 0
M  V30 3302 O 307.605 2.68806 -3.12757 0
M  V30 3303 H 306.946 0.21891 -0.626877 0
M  V30 3304 H 309.476 0.0531256 -2.04531 0
M  V30 3305 H 309.486 1.95952 -3.57864 0
M  V30 3306 H 308.161 0.911548 -4.05788 0
M  V30 3307 H 306.738 2.33597 -2.90666 0
M  V30 3308 N 308.923 1.53595 0.353017 0
M  V30 3309 C 310.151 1.74311 1.1146 0
M  V30 3310 C 310.566 0.477854 1.82653 0
M  V30 3311 O 309.923 -0.549977 1.74016 0
M  V30 3312 C 309.974 2.91694 2.13534 0
M  V30 3313 O 309.695 4.13325 1.45238 0
M  V30 3314 C 311.196 3.24384 3.02142 0
M  V30 3315 H 308.416 0.582669 0.332773 0
M  V30 3316 H 310.96 2.00386 0.408107 0
M  V30 3317 H 309.115 2.67977 2.79763 0
M  V30 3318 H 309.529 4.79148 2.13349 0
M  V30 3319 H 311.003 4.09893 3.69718 0
M  V30 3320 H 311.48 2.40282 3.67643 0
M  V30 3321 H 312.086 3.50073 2.41514 0
M  V30 3322 N 310.401 -0.613514 1.45168 0
M  V30 3323 C 311.629 -1.39946 1.5239 0
M  V30 3324 C 312.044 -1.88167 0.154531 0
M  V30 3325 O 311.401 -1.61872 -0.842843 0
M  V30 3326 C 311.452 -2.60795 2.50337 0
M  V30 3327 O 311.173 -2.1458 3.81952 0
M  V30 3328 C 312.674 -3.53723 2.67198 0
M  V30 3329 H 309.894 -0.428593 0.516284 0
M  V30 3330 H 312.438 -0.748753 1.903 0
M  V30 3331 H 310.593 -3.21919 2.15515 0
M  V30 3332 H 311.007 -2.93055 4.34993 0
M  V30 3333 H 312.481 -4.35079 3.39721 0
M  V30 3334 H 312.958 -4.0368 1.73029 0
M  V30 3335 H 313.564 -2.98456 3.02992 0
M  V30 3336 N 311.879 -1.3236 -0.855495 0
M  V30 3337 C 312.789 -1.23221 -1.99634 0
M  V30 3338 C 313.805 -0.145983 -1.73387 0
M  V30 3339 O 314.981 -0.366502 -1.98037 0
M  V30 3340 C 312.046 -0.954782 -3.33294 0
M  V30 3341 C 311.107 -2.12937 -3.72769 0
M  V30 3342 C 310.34 -1.86508 -5.00051 0
M  V30 3343 O 310.563 -0.807231 -5.64659 0
M  V30 3344 O 309.497 -2.72591 -5.36636 0
M  V30 3345 H 313.323 -2.19126 -2.1028 0
M  V30 3346 H 310.908 -1.12241 -0.986018 0
M  V30 3347 H 312.79 -0.816519 -4.13414 0
M  V30 3348 H 311.465 -0.0258854 -3.2369 0
M  V30 3349 H 310.372 -2.3231 -2.93228 0
M  V30 3350 H 311.705 -3.04102 -3.87018 0
M  V30 3351 N 313.357 1.07166 -1.15556 0
M  V30 3352 C 314.634 1.76546 -0.842069 0
M  V30 3353 C 315.014 2.00453 0.661939 0
M  V30 3354 O 314.362 1.62452 1.60691 0
M  V30 3355 C 314.572 3.07266 -1.65495 0
M  V30 3356 C 315.92 3.81578 -1.86234 0
M  V30 3357 O 316.944 3.17083 -1.62287 0
M  V30 3358 O 315.803 4.97419 -2.26355 0
M  V30 3359 H 312.897 0.766756 -0.309862 0
M  V30 3360 H 315.443 1.13514 -1.26145 0
M  V30 3361 H 314.215 2.85494 -2.67598 0
M  V30 3362 H 313.838 3.7803 -1.23203 0
M  V30 3363 N 314.835 0.952656 1.25548 0
M  V30 3364 C 316.084 0.602053 1.92505 0
M  V30 3365 C 316.397 -0.864663 1.75451 0
M  V30 3366 O 317.603 -1.32514 2.36965 0
M  V30 3367 C 316.059 1.02607 3.44963 0
M  V30 3368 C 315.667 2.51519 3.70732 0
M  V30 3369 C 317.411 0.747905 4.1786 0
M  V30 3370 C 315.318 2.87732 5.16686 0
M  V30 3371 H 314.248 0.22146 0.720744 0
M  V30 3372 H 316.899 1.15684 1.42441 0
M  V30 3373 H 315.281 0.399712 3.93978 0
M  V30 3374 H 316.455 3.19157 3.32378 0
M  V30 3375 H 314.77 2.76786 3.11092 0
M  V30 3376 H 317.367 0.994647 5.25367 0
M  V30 3377 H 317.71 -0.315629 4.15102 0
M  V30 3378 H 318.243 1.33452 3.74747 0
M  V30 3379 H 314.982 3.93095 5.24554 0
M  V30 3380 H 314.502 2.24765 5.56094 0
M  V30 3381 H 316.181 2.76817 5.84792 0
M  V30 3382 N 316.313 -1.40141 0.720998 0
M  V30 3383 C 317.276 -2.29058 0.0805834 0
M  V30 3384 C 318.276 -1.45632 -0.681758 0
M  V30 3385 O 319.466 -1.6648 -0.512856 0
M  V30 3386 C 316.598 -3.28925 -0.895593 0
M  V30 3387 H 317.791 -2.87191 0.863793 0
M  V30 3388 H 315.344 -1.48553 0.485975 0
M  V30 3389 H 316.079 -2.75822 -1.70566 0
M  V30 3390 H 315.864 -3.90519 -0.351766 0
M  V30 3391 H 317.354 -3.95494 -1.34069 0
M  V30 3392 N 317.792 -0.46758 -1.50504 0
M  V30 3393 C 318.722 0.318381 -2.31319 0
M  V30 3394 C 319.703 0.993564 -1.38066 0
M  V30 3395 O 320.888 0.991411 -1.66987 0
M  V30 3396 C 318.018 1.40275 -3.17711 0
M  V30 3397 C 316.972 0.849373 -4.19487 0
M  V30 3398 C 316.298 2.03177 -4.94594 0
M  V30 3399 C 317.598 -0.136942 -5.2212 0
M  V30 3400 H 319.292 -0.356106 -2.97275 0
M  V30 3401 H 316.838 -0.172703 -1.42961 0
M  V30 3402 H 318.791 1.96004 -3.73042 0
M  V30 3403 H 317.515 2.10596 -2.49634 0
M  V30 3404 H 316.174 0.314076 -3.65252 0
M  V30 3405 H 315.822 2.72187 -4.22993 0
M  V30 3406 H 315.522 1.66774 -5.63436 0
M  V30 3407 H 317.046 2.59403 -5.52759 0
M  V30 3408 H 318.46 0.331056 -5.72343 0
M  V30 3409 H 316.857 -0.41507 -5.98663 0
M  V30 3410 H 317.927 -1.06398 -4.73083 0
M  V30 3411 N 319.27 1.56325 -0.20005 0
M  V30 3412 C 320.519 1.96895 0.437652 0
M  V30 3413 C 320.832 1.08999 1.62415 0
M  V30 3414 O 322.038 1.39372 2.32997 0
M  V30 3415 C 320.494 3.50198 0.830025 0
M  V30 3416 C 320.102 4.46765 -0.332461 0
M  V30 3417 C 321.846 3.99526 1.43453 0
M  V30 3418 C 319.753 5.91344 0.0811468 0
M  V30 3419 H 318.683 0.735209 0.167282 0
M  V30 3420 H 321.334 1.81148 -0.292853 0
M  V30 3421 H 319.716 3.61467 1.61734 0
M  V30 3422 H 320.89 4.47231 -1.11 0
M  V30 3423 H 319.205 4.07657 -0.848789 0
M  V30 3424 H 321.802 5.05025 1.75652 0
M  V30 3425 H 322.145 3.44122 2.34277 0
M  V30 3426 H 322.678 3.91393 0.71109 0
M  V30 3427 H 319.417 6.50685 -0.793033 0
M  V30 3428 H 318.937 5.94121 0.823445 0
M  V30 3429 H 320.616 6.44945 0.515252 0
M  V30 3430 N 320.748 -0.0735177 1.57428 0
M  V30 3431 C 321.996 -0.771472 1.86796 0
M  V30 3432 C 322.317 -1.78201 0.791804 0
M  V30 3433 O 321.587 -1.95074 -0.179718 0
M  V30 3434 H 320.167 -0.28791 0.689287 0
M  V30 3435 H 322.829 -0.0500161 1.94836 0
M  V30 3436 H 321.925 -1.28874 2.8425 0
M  V30 3437 N 322.226 -1.5378 -0.344866 0
M  V30 3438 C 323.156 -1.84662 -1.42906 0
M  V30 3439 C 324.137 -0.701648 -1.54955 0
M  V30 3440 O 325.322 -0.953438 -1.69184 0
M  V30 3441 C 322.452 -2.05503 -2.79974 0
M  V30 3442 C 321.406 -3.21318 -2.82734 0
M  V30 3443 C 320.732 -3.2749 -4.22675 0
M  V30 3444 C 322.032 -4.59456 -2.48389 0
M  V30 3445 H 323.726 -2.75461 -1.17311 0
M  V30 3446 H 321.272 -1.32542 -0.562896 0
M  V30 3447 H 323.225 -2.25691 -3.55867 0
M  V30 3448 H 321.949 -1.11434 -3.07002 0
M  V30 3449 H 320.608 -3.00984 -2.09294 0
M  V30 3450 H 320.256 -2.31019 -4.4681 0
M  V30 3451 H 319.956 -4.05316 -4.25433 0
M  V30 3452 H 321.48 -3.49887 -5.00412 0
M  V30 3453 H 322.894 -4.79667 -3.13995 0
M  V30 3454 H 321.291 -5.39675 -2.62432 0
M  V30 3455 H 322.361 -4.63155 -1.4358 0
M  V30 3456 N 323.704 0.605807 -1.45491 0
M  V30 3457 C 324.953 1.36086 -1.48874 0
M  V30 3458 C 325.266 1.95131 -0.135333 0
M  V30 3459 O 326.472 2.7146 -0.0468144 0
M  V30 3460 C 324.928 2.46518 -2.62215 0
M  V30 3461 C 324.536 1.93877 -4.03876 0
M  V30 3462 C 326.28 3.23512 -2.74846 0
M  V30 3463 C 324.187 3.01801 -5.08596 0
M  V30 3464 H 323.117 0.511497 -0.553974 0
M  V30 3465 H 325.768 0.649089 -1.71636 0
M  V30 3466 H 324.15 3.20388 -2.32739 0
M  V30 3467 H 325.324 1.26704 -4.43038 0
M  V30 3468 H 323.639 1.29622 -3.95711 0
M  V30 3469 H 326.236 4.04013 -3.50253 0
M  V30 3470 H 326.579 3.74631 -1.81542 0
M  V30 3471 H 327.112 2.56742 -3.03856 0
M  V30 3472 H 323.851 2.55597 -6.03614 0
M  V30 3473 H 323.371 3.67535 -4.74002 0
M  V30 3474 H 325.05 3.66152 -5.33424 0
M  V30 3475 N 325.182 1.32811 0.848464 0
M  V30 3476 C 326.112 1.24882 1.97299 0
M  V30 3477 C 327.093 0.131357 1.69592 0
M  V30 3478 O 328.278 0.319553 1.91553 0
M  V30 3479 C 325.408 0.97746 3.33261 0
M  V30 3480 C 324.362 2.05682 3.75338 0
M  V30 3481 C 323.688 1.63777 5.09 0
M  V30 3482 C 324.988 3.47254 3.90144 0
M  V30 3483 H 326.682 2.18966 2.04191 0
M  V30 3484 H 324.228 1.05413 0.981029 0
M  V30 3485 H 326.181 0.908513 4.1149 0
M  V30 3486 H 324.905 0.000980011 3.266 0
M  V30 3487 H 323.564 2.11603 2.99366 0
M  V30 3488 H 323.212 0.648569 4.98801 0
M  V30 3489 H 322.912 2.36 5.38124 0
M  V30 3490 H 324.436 1.5833 5.89715 0
M  V30 3491 H 325.85 3.43888 4.58709 0
M  V30 3492 H 324.247 4.1788 4.30693 0
M  V30 3493 H 325.317 3.86462 2.92874 0
M  V30 3494 N 326.66 -1.06551 1.16123 0
M  V30 3495 C 327.623 -2.12132 0.867906 0
M  V30 3496 C 328.623 -1.60224 -0.135944 0
M  V30 3497 O 329.813 -1.73943 0.0946422 0
M  V30 3498 C 326.945 -3.396 0.297419 0
M  V30 3499 H 328.138 -2.39586 1.80385 0
M  V30 3500 H 325.691 -1.22574 0.969812 0
M  V30 3501 H 326.426 -3.17794 -0.64633 0
M  V30 3502 H 326.211 -3.78581 1.02073 0
M  V30 3503 H 327.701 -4.17455 0.110052 0
M  V30 3504 N 328.138 -0.959301 -1.25041 0
M  V30 3505 C 329.088 -0.453888 -2.23436 0
M  V30 3506 C 330.072 0.459461 -1.542 0
M  V30 3507 O 331.264 0.291752 -1.74579 0
M  V30 3508 C 328.393 0.262667 -3.42294 0
M  V30 3509 C 327.479 -0.669022 -4.1879 0
M  V30 3510 N 327.87 -1.80267 -4.72586 0
M  V30 3511 C 326.168 -0.47814 -4.4343 0
M  V30 3512 C 326.869 -2.38475 -5.3057 0
M  V30 3513 N 325.845 -1.67078 -5.17287 0
M  V30 3514 H 329.647 -1.319 -2.6264 0
M  V30 3515 H 327.161 -0.817358 -1.40332 0
M  V30 3516 H 329.158 0.641911 -4.11929 0
M  V30 3517 H 327.818 1.12432 -3.04613 0
M  V30 3518 H 328.829 -2.18442 -4.69578 0
M  V30 3519 H 325.506 0.340249 -4.16111 0
M  V30 3520 H 326.896 -3.34094 -5.8295 0
M  V30 3521 N 329.616 1.39756 -0.72842 0
M  V30 3522 C 330.893 1.94574 -0.200079 0
M  V30 3523 C 331.273 1.66569 1.29684 0
M  V30 3524 O 330.621 0.990326 2.05924 0
M  V30 3525 C 330.831 3.45004 -0.526608 0
M  V30 3526 C 332.179 4.21965 -0.472318 0
M  V30 3527 O 333.203 3.53173 -0.463413 0
M  V30 3528 O 332.062 5.44552 -0.461075 0
M  V30 3529 H 329.156 0.826289 -0.0342851 0
M  V30 3530 H 331.702 1.49293 -0.806829 0
M  V30 3531 H 330.474 3.58796 -1.56144 0
M  V30 3532 H 330.097 3.97449 0.109449 0
M  V30 3533 N 331.094 0.475555 1.50254 0
M  V30 3534 C 332.342 -0.077738 2.0195 0
M  V30 3535 C 332.663 -1.39813 1.35931 0
M  V30 3536 O 331.933 -1.89249 0.506123 0
M  V30 3537 H 330.513 -0.031719 0.746326 0
M  V30 3538 H 333.175 0.626995 1.84539 0
M  V30 3539 H 332.271 -0.225995 3.11281 0
M  V30 3540 N 332.573 -1.56217 0.208337 0
M  V30 3541 C 333.803 -2.02043 -0.431523 0
M  V30 3542 C 334.211 -1.08755 -1.54819 0
M  V30 3543 O 333.554 -0.0870009 -1.83494 0
M  V30 3544 C 333.616 -3.44239 -1.03633 0
M  V30 3545 C 333.28 -4.56965 -0.0567502 0
M  V30 3546 C 334.277 -5.14624 0.738773 0
M  V30 3547 C 331.962 -5.02266 0.0581736 0
M  V30 3548 C 333.956 -6.16045 1.63605 0
M  V30 3549 C 331.643 -6.03528 0.959001 0
M  V30 3550 C 332.641 -6.60293 1.7465 0
M  V30 3551 O 332.329 -7.59586 2.6322 0
M  V30 3552 H 332.061 -0.666772 -0.111313 0
M  V30 3553 H 334.615 -2.02919 0.318277 0
M  V30 3554 H 332.845 -3.40391 -1.83497 0
M  V30 3555 H 334.534 -3.73793 -1.58221 0
M  V30 3556 H 335.3 -4.80483 0.660364 0
M  V30 3557 H 331.179 -4.57771 -0.544633 0
M  V30 3558 H 334.723 -6.60279 2.25116 0
M  V30 3559 H 330.62 -6.37092 1.03848 0
M  V30 3560 H 331.388 -7.77057 2.57148 0
M  V30 3561 N 334.051 0.0651679 -1.57465 0
M  V30 3562 C 335.001 1.0838 -2.00594 0
M  V30 3563 C 335.985 1.34106 -0.889071 0
M  V30 3564 O 337.177 1.34295 -1.15299 0
M  V30 3565 C 334.306 2.39565 -2.45894 0
M  V30 3566 C 333.392 2.17085 -3.64328 0
M  V30 3567 N 333.783 1.64553 -4.78285 0
M  V30 3568 C 332.081 2.4753 -3.71006 0
M  V30 3569 C 332.782 1.57042 -5.60101 0
M  V30 3570 N 331.758 2.03328 -5.04141 0
M  V30 3571 H 335.56 0.671062 -2.86136 0
M  V30 3572 H 333.074 0.27213 -1.60104 0
M  V30 3573 H 335.071 3.13308 -2.75034 0
M  V30 3574 H 333.731 2.81549 -1.61741 0
M  V30 3575 H 334.742 1.33323 -5.00445 0
M  V30 3576 H 331.419 2.92835 -2.9758 0
M  V30 3577 H 332.809 1.17223 -6.61595 0
M  V30 3578 N 335.529 1.53961 0.336706 0
M  V30 3579 C 336.94 1.62914 0.911925 0
M  V30 3580 C 337.291 0.514795 1.89326 0
M  V30 3581 O 336.416 -0.354395 2.13478 0
M  V30 3582 C 337.011 2.95304 1.66076 0
M  V30 3583 C 335.57 3.06496 2.18489 0
M  V30 3584 C 334.717 2.58403 1.00613 0
M  V30 3585 H 337.668 1.58285 0.114649 0
M  V30 3586 H 337.689 2.84727 2.5241 0
M  V30 3587 H 337.201 3.76387 0.946276 0
M  V30 3588 H 335.302 2.3006 2.93092 0
M  V30 3589 H 335.415 4.1208 2.44391 0
M  V30 3590 H 333.779 2.13977 1.38152 0
M  V30 3591 H 334.562 3.41932 0.306179 0
M  V30 3592 N 337.007 -0.598083 1.45811 0
M  V30 3593 C 338.256 -1.35295 1.49594 0
M  V30 3594 C 338.569 -1.95057 0.145679 0
M  V30 3595 O 339.775 -2.71431 0.0612099 0
M  V30 3596 C 338.231 -2.45124 2.63519 0
M  V30 3597 C 337.839 -1.91732 4.04899 0
M  V30 3598 C 339.583 -3.2205 2.76558 0
M  V30 3599 C 337.49 -2.991 5.1019 0
M  V30 3600 H 336.42 -0.508552 0.556679 0
M  V30 3601 H 339.071 -0.639977 1.71978 0
M  V30 3602 H 337.453 -3.19149 2.34435 0
M  V30 3603 H 338.627 -1.24352 4.43704 0
M  V30 3604 H 336.942 -1.27522 3.96393 0
M  V30 3605 H 339.539 -4.0215 3.52391 0
M  V30 3606 H 339.882 -3.73663 1.83526 0
M  V30 3607 H 340.415 -2.55127 3.05213 0
M  V30 3608 H 337.154 -2.52393 6.04961 0
M  V30 3609 H 336.674 -3.65017 4.75944 0
M  V30 3610 H 338.353 -3.63318 5.35359 0
M  V30 3611 N 338.485 -1.33259 -0.841409 0
M  V30 3612 C 339.901 -1.12538 -1.13169 0
M  V30 3613 C 340.101 0.0854037 -2.01319 0
M  V30 3614 O 339.157 0.766417 -2.40587 0
M  V30 3615 C 340.47 -2.41156 -1.79623 0
M  V30 3616 C 342.018 -2.47038 -1.922 0
M  V30 3617 C 342.493 -3.7561 -2.6207 0
M  V30 3618 N 343.984 -3.76667 -2.69585 0
M  V30 3619 C 344.719 -4.72861 -3.2433 0
M  V30 3620 N 344.215 -5.79428 -3.79783 0
M  V30 3621 N 346.008 -4.6034 -3.22558 0
M  V30 3622 H 338.159 -2.10868 -0.254676 0
M  V30 3623 H 340.422 -0.931615 -0.175493 0
M  V30 3624 H 340.128 -3.29747 -1.22311 0
M  V30 3625 H 340.002 -2.53114 -2.79666 0
M  V30 3626 H 342.389 -1.58898 -2.48667 0
M  V30 3627 H 342.47 -2.39022 -0.911148 0
M  V30 3628 H 342.114 -4.64131 -2.06263 0
M  V30 3629 H 342.044 -3.80902 -3.63622 0
M  V30 3630 H 344.535 -2.99648 -2.30259 0
M  V30 3631 H 344.848 -6.48867 -4.19752 0
M  V30 3632 H 343.193 -5.83166 -3.78078 0
M  V30 3633 H 346.384 -3.76244 -2.78492 0
M  V30 3634 H 346.557 -5.35478 -3.64921 0
M  V30 3635 N 339.963 1.05934 -1.16686 0
M  V30 3636 C 340.913 2.11764 -0.844978 0
M  V30 3637 C 341.897 1.59922 0.177178 0
M  V30 3638 O 343.089 1.76983 -0.0241768 0
M  V30 3639 C 340.218 3.41493 -0.351812 0
M  V30 3640 C 339.304 4.00152 -1.40496 0
M  V30 3641 N 339.695 4.32874 -2.61636 0
M  V30 3642 C 337.993 4.278 -1.26106 0
M  V30 3643 C 338.694 4.79552 -3.29249 0
M  V30 3644 N 337.67 4.79211 -2.56628 0
M  V30 3645 H 341.472 2.34916 -1.76612 0
M  V30 3646 H 338.986 1.23511 -1.05446 0
M  V30 3647 H 340.983 4.16773 -0.102796 0
M  V30 3648 H 339.643 3.19778 0.56322 0
M  V30 3649 H 340.654 4.23109 -2.98663 0
M  V30 3650 H 337.331 4.15511 -0.407081 0
M  V30 3651 H 338.721 5.14045 -4.32675 0
M  V30 3652 N 341.441 0.965919 1.2453 0
M  V30 3653 C 342.351 0.502154 2.29163 0
M  V30 3654 C 343.367 -0.436017 1.68448 0
M  V30 3655 O 344.543 -0.309497 1.99008 0
M  V30 3656 C 341.608 -0.201956 3.46111 0
M  V30 3657 C 340.669 0.775821 4.22232 0
M  V30 3658 C 339.902 0.105217 5.33596 0
M  V30 3659 O 340.125 -1.10683 5.59558 0
M  V30 3660 O 339.059 0.796475 5.96607 0
M  V30 3661 H 342.885 1.37194 2.70946 0
M  V30 3662 H 340.47 0.732875 1.30189 0
M  V30 3663 H 342.352 -0.597564 4.17142 0
M  V30 3664 H 341.027 -1.04673 3.06309 0
M  V30 3665 H 339.934 1.22185 3.53584 0
M  V30 3666 H 341.267 1.58896 4.65846 0
M  V30 3667 N 342.919 -1.39368 0.735821 0
M  V30 3668 C 343.851 -2.2913 0.0567723 0
M  V30 3669 C 344.864 -1.46859 -0.702589 0
M  V30 3670 O 346.053 -1.69925 -0.546616 0
M  V30 3671 C 343.153 -3.25492 -0.943823 0
M  V30 3672 C 342.326 -4.36709 -0.24581 0
M  V30 3673 C 341.385 -5.13376 -1.15463 0
M  V30 3674 O 340.411 -5.65683 -0.631803 0
M  V30 3675 N 341.613 -5.24656 -2.48427 0
M  V30 3676 H 344.378 -2.88047 0.827582 0
M  V30 3677 H 341.939 -1.50957 0.585112 0
M  V30 3678 H 343.931 -3.73657 -1.55443 0
M  V30 3679 H 342.501 -2.676 -1.61583 0
M  V30 3680 H 341.721 -3.9041 0.545286 0
M  V30 3681 H 343.009 -5.08244 0.237891 0
M  V30 3682 H 342.407 -4.83679 -2.93379 0
M  V30 3683 H 340.964 -5.76258 -3.04582 0
M  V30 3684 N 344.397 -0.483516 -1.5 0
M  V30 3685 C 345.643 0.0672592 -2.02688 0
M  V30 3686 C 345.976 1.38247 -1.36387 0
M  V30 3687 O 345.251 1.88131 -0.493675 0
M  V30 3688 C 345.534 0.238109 -3.59312 0
M  V30 3689 C 345.387 -1.099 -4.36168 0
M  V30 3690 C 346.706 0.986916 -4.28892 0
M  V30 3691 H 343.825 0.0229696 -0.736642 0
M  V30 3692 H 346.467 -0.631527 -1.79197 0
M  V30 3693 H 344.617 0.8333 -3.79458 0
M  V30 3694 H 346.289 -1.73172 -4.27562 0
M  V30 3695 H 344.532 -1.69261 -3.99416 0
M  V30 3696 H 345.203 -0.932954 -5.44059 0
M  V30 3697 H 347.679 0.482302 -4.13295 0
M  V30 3698 H 346.555 1.07527 -5.38265 0
M  V30 3699 H 346.816 2.0265 -3.92919 0
M  V30 3700 N 345.875 1.56104 -0.216619 0
M  V30 3701 C 347.124 1.97348 0.416744 0
M  V30 3702 C 347.437 1.10715 1.6125 0
M  V30 3703 O 348.643 1.41836 2.31506 0
M  V30 3704 C 347.099 3.51059 0.792835 0
M  V30 3705 C 346.707 4.46387 -0.379828 0
M  V30 3706 C 348.451 4.01026 1.39208 0
M  V30 3707 C 346.358 5.91397 0.0184223 0
M  V30 3708 H 345.288 0.736942 0.159475 0
M  V30 3709 H 347.939 1.80827 -0.31205 0
M  V30 3710 H 346.321 3.63162 1.57891 0
M  V30 3711 H 347.495 4.46029 -1.15737 0
M  V30 3712 H 345.81 4.06734 -0.891979 0
M  V30 3713 H 348.407 5.0686 1.70286 0
M  V30 3714 H 348.75 3.46587 2.30614 0
M  V30 3715 H 349.283 3.92125 0.669537 0
M  V30 3716 H 346.022 6.49807 -0.862002 0
M  V30 3717 H 345.542 5.94961 0.760384 0
M  V30 3718 H 347.221 6.45455 0.446818 0
M  V30 3719 N 347.353 -0.0568162 1.57498 0
M  V30 3720 C 348.764 -0.606858 1.76562 0
M  V30 3721 C 349.115 -1.77114 0.844094 0
M  V30 3722 O 348.24 -2.16376 0.0318911 0
M  V30 3723 C 348.835 -1.10766 3.20182 0
M  V30 3724 C 347.394 -1.60344 3.40539 0
M  V30 3725 C 346.541 -0.529311 2.72201 0
M  V30 3726 H 349.492 0.169393 1.57793 0
M  V30 3727 H 349.513 -1.97602 3.25167 0
M  V30 3728 H 349.025 -0.26006 3.87228 0
M  V30 3729 H 347.126 -2.47379 2.78629 0
M  V30 3730 H 347.239 -1.67006 4.4905 0
M  V30 3731 H 345.603 -0.977893 2.35179 0
M  V30 3732 H 346.386 0.308352 3.41912 0
M  V30 3733 N 348.832 -1.54138 -0.328536 0
M  V30 3734 C 349.779 -1.83176 -1.40411 0
M  V30 3735 C 350.749 -0.678494 -1.5161 0
M  V30 3736 O 351.934 -0.92443 -1.6691 0
M  V30 3737 C 349.074 -2.06035 -2.76846 0
M  V30 3738 C 348.187 -3.33727 -2.74318 0
M  V30 3739 C 347.322 -3.46574 -4.02567 0
M  V30 3740 C 346.361 -4.68159 -3.94327 0
M  V30 3741 N 345.498 -4.77959 -5.14296 0
M  V30 3742 H 350.338 -2.74938 -1.14948 0
M  V30 3743 H 347.875 -1.36166 -0.556538 0
M  V30 3744 H 349.833 -2.1728 -3.56153 0
M  V30 3745 H 348.463 -1.1757 -3.00628 0
M  V30 3746 H 347.515 -3.31246 -1.8703 0
M  V30 3747 H 348.827 -4.23139 -2.64111 0
M  V30 3748 H 347.981 -3.57333 -4.90304 0
M  V30 3749 H 346.72 -2.55245 -4.15574 0
M  V30 3750 H 345.725 -4.57461 -3.04974 0
M  V30 3751 H 346.95 -5.60868 -3.82889 0
M  V30 3752 H 344.896 -3.89544 -5.27818 0
M  V30 3753 H 344.813 -5.6133 -5.06404 0
M  V30 3754 H 346.081 -4.93044 -6.03761 0
M  V30 3755 N 350.31 0.590341 -1.46126 0
M  V30 3756 C 351.587 1.35029 -1.41515 0
M  V30 3757 C 351.967 2.10888 -0.0946472 0
M  V30 3758 O 351.315 2.08998 0.923693 0
M  V30 3759 C 351.525 2.28269 -2.63997 0
M  V30 3760 C 352.873 2.90338 -3.09821 0
M  V30 3761 O 353.897 2.38585 -2.64492 0
M  V30 3762 O 352.756 3.84321 -3.88535 0
M  V30 3763 H 349.85 0.606317 -0.562413 0
M  V30 3764 H 352.396 0.611994 -1.58281 0
M  V30 3765 H 351.168 1.71591 -3.51671 0
M  V30 3766 H 350.791 3.0945 -2.49652 0
M  V30 3767 N 351.788 1.33704 0.83433 0
M  V30 3768 C 353.034 1.25603 1.59222 0
M  V30 3769 C 353.367 -0.176659 1.93395 0
M  V30 3770 O 352.642 -1.11915 1.59076 0
M  V30 3771 C 352.925 2.13576 2.89926 0
M  V30 3772 C 352.778 3.65326 2.62406 0
M  V30 3773 C 354.097 2.01238 3.91397 0
M  V30 3774 H 351.216 0.457613 0.577719 0
M  V30 3775 H 353.858 1.63848 0.961972 0
M  V30 3776 H 352.008 1.8109 3.43713 0
M  V30 3777 H 353.68 4.08124 2.15017 0
M  V30 3778 H 351.923 3.8698 1.96033 0
M  V30 3779 H 352.594 4.22232 3.55562 0
M  V30 3780 H 355.07 2.29738 3.46929 0
M  V30 3781 H 353.946 2.65036 4.80673 0
M  V30 3782 H 354.207 0.985951 4.30966 0
M  V30 3783 N 353.266 -1.05314 1.17247 0
M  V30 3784 C 354.229 -2.112 0.890357 0
M  V30 3785 C 355.229 -1.60359 -0.118943 0
M  V30 3786 O 356.419 -1.73833 0.113086 0
M  V30 3787 C 353.551 -3.39266 0.333422 0
M  V30 3788 H 354.744 -2.37659 1.82916 0
M  V30 3789 H 352.297 -1.21538 0.982758 0
M  V30 3790 H 353.032 -3.18462 -0.612587 0
M  V30 3791 H 352.817 -3.77477 1.06082 0
M  V30 3792 H 354.307 -4.17315 0.154322 0
M  V30 3793 N 354.744 -0.972509 -1.24016 0
M  V30 3794 C 355.691 -0.505969 -2.25186 0
M  V30 3795 C 356.661 0.451009 -1.5986 0
M  V30 3796 O 357.846 0.360307 -1.87367 0
M  V30 3797 C 354.986 0.193089 -3.44559 0
M  V30 3798 C 354.099 -0.803222 -4.24467 0
M  V30 3799 C 353.234 -0.0797793 -5.3114 0
M  V30 3800 C 352.273 -1.06583 -6.02749 0
M  V30 3801 N 351.41 -0.372074 -7.01113 0
M  V30 3802 H 356.25 -1.37351 -2.64459 0
M  V30 3803 H 353.787 -0.688419 -1.29997 0
M  V30 3804 H 355.745 0.615125 -4.1264 0
M  V30 3805 H 354.375 1.02455 -3.06109 0
M  V30 3806 H 353.427 -1.34368 -3.55878 0
M  V30 3807 H 354.739 -1.55494 -4.73944 0
M  V30 3808 H 353.893 0.400015 -6.0538 0
M  V30 3809 H 352.632 0.704597 -4.82583 0
M  V30 3810 H 351.637 -1.55645 -5.27309 0
M  V30 3811 H 352.862 -1.85074 -6.53395 0
M  V30 3812 H 350.808 0.393238 -6.5482 0
M  V30 3813 H 350.725 -1.06258 -7.48495 0
M  V30 3814 H 351.993 0.0855932 -7.79453 0
M  V30 3815 N 356.222 1.38976 -0.743202 0
M  V30 3816 C 357.152 2.33171 -0.123873 0
M  V30 3817 C 358.133 1.54336 0.71516 0
M  V30 3818 O 359.318 1.82696 0.658467 0
M  V30 3819 C 356.448 3.38474 0.777978 0
M  V30 3820 C 355.402 4.27979 0.0424758 0
M  V30 3821 C 354.728 5.2405 1.06189 0
M  V30 3822 C 356.028 5.10155 -1.1198 0
M  V30 3823 H 357.722 2.85213 -0.910709 0
M  V30 3824 H 355.268 1.37133 -0.439388 0
M  V30 3825 H 357.221 4.03328 1.22084 0
M  V30 3826 H 355.945 2.84891 1.59702 0
M  V30 3827 H 354.604 3.64616 -0.380853 0
M  V30 3828 H 354.252 4.66758 1.87472 0
M  V30 3829 H 353.952 5.84785 0.574485 0
M  V30 3830 H 355.476 5.9178 1.50428 0
M  V30 3831 H 356.89 5.68307 -0.75499 0
M  V30 3832 H 355.287 5.80073 -1.53738 0
M  V30 3833 H 356.357 4.44504 -1.93764 0
M  V30 3834 N 357.7 0.491464 1.49741 0
M  V30 3835 C 358.663 -0.280906 2.27472 0
M  V30 3836 C 359.663 -0.902454 1.33088 0
M  V30 3837 O 360.853 -0.768465 1.56334 0
M  V30 3838 C 357.985 -1.40209 3.10732 0
M  V30 3839 H 359.178 0.401056 2.97206 0
M  V30 3840 H 356.731 0.246131 1.5435 0
M  V30 3841 H 357.466 -2.11849 2.45541 0
M  V30 3842 H 357.251 -0.961969 3.80117 0
M  V30 3843 H 358.741 -1.9464 3.69466 0
M  V30 3844 N 359.178 -1.55987 0.224894 0
M  V30 3845 C 360.125 -2.20436 -0.68385 0
M  V30 3846 C 361.095 -1.16102 -1.18783 0
M  V30 3847 O 362.28 -1.4447 -1.24632 0
M  V30 3848 C 359.42 -2.89076 -1.88491 0
M  V30 3849 C 358.533 -4.08012 -1.41951 0
M  V30 3850 C 357.668 -4.64426 -2.5784 0
M  V30 3851 C 356.707 -5.75656 -2.08053 0
M  V30 3852 N 355.844 -6.26347 -3.17227 0
M  V30 3853 H 360.684 -2.97727 -0.12754 0
M  V30 3854 H 358.221 -1.47011 -0.0511978 0
M  V30 3855 H 360.179 -3.27059 -2.59014 0
M  V30 3856 H 358.809 -2.14298 -2.41405 0
M  V30 3857 H 357.861 -3.75492 -0.609095 0
M  V30 3858 H 359.173 -4.88375 -1.01447 0
M  V30 3859 H 358.327 -5.04869 -3.3644 0
M  V30 3860 H 357.066 -3.83233 -3.01635 0
M  V30 3861 H 356.071 -5.34712 -1.27916 0
M  V30 3862 H 357.296 -6.58686 -1.65255 0
M  V30 3863 H 355.242 -5.48067 -3.60497 0
M  V30 3864 H 355.159 -7.01843 -2.80986 0
M  V30 3865 H 356.427 -6.71447 -3.95953 0
M  V30 3866 N 360.656 0.0484629 -1.57525 0
M  V30 3867 C 361.619 1.03956 -2.04269 0
M  V30 3868 C 362.619 1.30211 -0.943496 0
M  V30 3869 O 363.809 1.25539 -1.20771 0
M  V30 3870 C 360.941 2.37742 -2.44319 0
M  V30 3871 H 362.134 0.636182 -2.93075 0
M  V30 3872 H 359.687 0.294811 -1.53494 0
M  V30 3873 H 360.422 2.82866 -1.5861 0
M  V30 3874 H 360.207 2.20021 -3.24551 0
M  V30 3875 H 361.697 3.08936 -2.80978 0
M  V30 3876 N 362.134 1.5431 0.320358 0
M  V30 3877 C 363.064 1.86912 1.3995 0
M  V30 3878 C 364.045 0.726211 1.53819 0
M  V30 3879 O 365.23 0.980233 1.67646 0
M  V30 3880 C 362.36 2.09932 2.7667 0
M  V30 3881 C 361.314 3.25776 2.77586 0
M  V30 3882 C 360.64 3.34173 4.17412 0
M  V30 3883 C 361.94 4.6335 2.41048 0
M  V30 3884 H 363.634 2.77292 1.12914 0
M  V30 3885 H 361.18 1.33421 0.541738 0
M  V30 3886 H 363.133 2.31324 3.52232 0
M  V30 3887 H 361.857 1.16304 3.0519 0
M  V30 3888 H 360.516 3.04276 2.04479 0
M  V30 3889 H 360.164 2.38098 4.43078 0
M  V30 3890 H 359.864 4.12033 4.18931 0
M  V30 3891 H 361.388 3.57803 4.94782 0
M  V30 3892 H 362.802 4.84602 3.06324 0
M  V30 3893 H 361.199 5.43782 2.53813 0
M  V30 3894 H 362.269 4.65381 1.36193 0
M  V30 3895 N 363.613 -0.582584 1.46437 0
M  V30 3896 C 364.546 -1.70633 1.51524 0
M  V30 3897 C 365.524 -1.58349 0.369351 0
M  V30 3898 O 366.708 -1.79563 0.573516 0
M  V30 3899 C 363.835 -3.08687 1.39392 0
M  V30 3900 C 362.881 -3.3949 2.58164 0
M  V30 3901 S 363.714 -3.31548 4.20519 0
M  V30 3902 C 364.87 -4.72139 4.10896 0
M  V30 3903 H 365.103 -1.66058 2.46601 0
M  V30 3904 H 362.636 -0.761337 1.34324 0
M  V30 3905 H 364.594 -3.8833 1.33079 0
M  V30 3906 H 363.255 -3.10751 0.457436 0
M  V30 3907 H 362.448 -4.40071 2.45669 0
M  V30 3908 H 362.05 -2.67415 2.61468 0
M  V30 3909 H 364.342 -5.62527 3.77584 0
M  V30 3910 H 365.285 -4.89692 5.11476 0
M  V30 3911 H 365.693 -4.48995 3.42146 0
M  V30 3912 N 365.091 -1.34144 -0.827227 0
M  V30 3913 C 366.021 -1.28005 -1.95287 0
M  V30 3914 C 367.002 -0.158321 -1.69362 0
M  V30 3915 O 368.187 -0.349987 -1.9102 0
M  V30 3916 C 365.317 -1.03036 -3.31664 0
M  V30 3917 C 364.271 -2.11628 -3.72019 0
M  V30 3918 C 363.597 -1.71854 -5.0633 0
M  V30 3919 C 364.897 -3.53417 -3.8457 0
M  V30 3920 H 366.591 -2.22187 -2.00682 0
M  V30 3921 H 364.137 -1.0696 -0.964135 0
M  V30 3922 H 366.09 -0.973863 -4.09993 0
M  V30 3923 H 364.814 -0.0529391 -3.26557 0
M  V30 3924 H 363.473 -2.16339 -2.95961 0
M  V30 3925 H 363.121 -0.727841 -4.97706 0
M  V30 3926 H 362.821 -2.44531 -5.34302 0
M  V30 3927 H 364.345 -1.67692 -5.87122 0
M  V30 3928 H 365.759 -3.51142 -4.5318 0
M  V30 3929 H 364.156 -4.24679 -4.2399 0
M  V30 3930 H 365.226 -3.91072 -2.86689 0
M  V30 3931 N 366.569 1.04691 -1.17803 0
M  V30 3932 C 367.797 1.81446 -0.99423 0
M  V30 3933 C 368.212 1.83174 0.457459 0
M  V30 3934 O 367.569 1.26265 1.31771 0
M  V30 3935 C 367.62 3.27334 -1.5341 0
M  V30 3936 O 367.341 3.25798 -2.92895 0
M  V30 3937 C 368.842 4.20759 -1.39559 0
M  V30 3938 H 366.062 0.571599 -0.351447 0
M  V30 3939 H 368.606 1.31982 -1.56208 0
M  V30 3940 H 366.761 3.74052 -1.00815 0
M  V30 3941 H 367.175 4.17144 -3.17949 0
M  V30 3942 H 368.649 5.21084 -1.82141 0
M  V30 3943 H 369.126 4.37856 -0.343394 0
M  V30 3944 H 369.732 3.79901 -1.91195 0
M  V30 3945 N 368.047 0.979072 1.23499 0
M  V30 3946 C 369.287 0.655228 1.93613 0
M  V30 3947 C 369.651 -0.796336 1.74707 0
M  V30 3948 O 370.852 -1.23094 2.38959 0
M  V30 3949 C 369.123 1.03337 3.42135 0
M  V30 3950 S 370.682 0.825793 4.3096 0
M  V30 3951 H 367.5 0.240004 0.669267 0
M  V30 3952 H 370.102 1.25843 1.49612 0
M  V30 3953 H 368.806 2.08646 3.53405 0
M  V30 3954 H 368.337 0.421397 3.91137 0
M  V30 3955 H 370.352 -0.290991 4.95346 0
M  V30 3956 N 369.525 -1.3858 0.750561 0
M  V30 3957 C 370.773 -1.99789 0.30477 0
M  V30 3958 C 371.094 -1.59874 -1.11649 0
M  V30 3959 O 370.364 -0.85417 -1.76297 0
M  V30 3960 H 368.944 -0.738902 0.109694 0
M  V30 3961 H 371.606 -1.69391 0.963983 0
M  V30 3962 H 370.702 -3.09952 0.365499 0
M  V30 3963 N 371.003 -0.499398 -1.49478 0
M  V30 3964 C 371.936 0.326491 -2.25852 0
M  V30 3965 C 372.914 0.971776 -1.30366 0
M  V30 3966 O 374.098 1.00219 -1.59651 0
M  V30 3967 C 371.225 1.45969 -3.05632 0
M  V30 3968 C 370.271 0.928938 -4.16261 0
M  V30 3969 S 371.104 -0.179012 -5.35201 0
M  V30 3970 C 372.26 0.957389 -6.18534 0
M  V30 3971 H 372.493 -0.321746 -2.95554 0
M  V30 3972 H 370.026 -0.284674 -1.51753 0
M  V30 3973 H 371.984 2.109 -3.52181 0
M  V30 3974 H 370.645 2.07953 -2.35402 0
M  V30 3975 H 369.838 1.77813 -4.71592 0
M  V30 3976 H 369.44 0.356869 -3.72293 0
M  V30 3977 H 371.732 1.86296 -6.51383 0
M  V30 3978 H 372.675 0.442733 -7.06715 0
M  V30 3979 H 373.083 1.224 -5.5107 0
M  V30 3980 N 372.481 1.55866 -0.233164 0
M  V30 3981 C 373.711 2.02704 0.399325 0
M  V30 3982 C 374.119 1.11204 1.53069 0
M  V30 3983 O 373.462 0.116182 1.83332 0
M  V30 3984 C 373.524 3.45844 0.981429 0
M  V30 3985 C 373.188 4.56997 -0.0159561 0
M  V30 3986 C 374.185 5.13384 -0.820552 0
M  V30 3987 C 371.87 5.0211 -0.138072 0
M  V30 3988 C 373.864 6.13365 -1.73386 0
M  V30 3989 C 371.551 6.01926 -1.0549 0
M  V30 3990 C 372.549 6.57431 -1.85132 0
M  V30 3991 O 372.237 7.55302 -2.75272 0
M  V30 3992 H 371.969 0.668459 0.100692 0
M  V30 3993 H 374.523 2.02387 -0.35052 0
M  V30 3994 H 372.753 3.43267 1.78058 0
M  V30 3995 H 374.442 3.76262 1.52255 0
M  V30 3996 H 375.208 4.79372 -0.736721 0
M  V30 3997 H 371.087 4.5858 0.471737 0
M  V30 3998 H 374.631 6.56614 -2.35592 0
M  V30 3999 H 370.528 6.35359 -1.1397 0
M  V30 4000 H 371.296 7.72867 -2.69477 0
M  V30 4001 N 373.959 -0.0401083 1.57549 0
M  V30 4002 C 374.907 -1.06264 2.06908 0
M  V30 4003 C 375.901 -1.38132 0.980608 0
M  V30 4004 O 377.107 -1.37167 1.16556 0
M  V30 4005 H 373.482 -0.360166 0.660139 0
M  V30 4006 H 375.453 -0.620445 2.91878 0
M  V30 4007 C 374.202 -2.35846 2.55483 0
M  V30 4008 H 373.525 -2.12183 3.38849 0
M  V30 4009 H 374.965 -3.05765 2.93741 0
M  V30 4010 C 373.424 -3.0404 1.45126 0
M  V30 4011 O 373.954 -3.93424 0.811216 0
M  V30 4012 N 372.16 -2.65184 1.18852 0
M  V30 4013 H 371.707 -1.92584 1.71083 0
M  V30 4014 H 371.665 -3.1113 0.452244 0
M  V30 4015 N 375.437 -1.54477 -0.31217 0
M  V30 4016 C 376.4 -1.83923 -1.36766 0
M  V30 4017 C 377.4 -0.711563 -1.44199 0
M  V30 4018 O 378.59 -0.979866 -1.44029 0
M  V30 4019 C 375.722 -2.0095 -2.75376 0
M  V30 4020 H 376.915 -2.78239 -1.11906 0
M  V30 4021 H 374.468 -1.46369 -0.548257 0
M  V30 4022 H 375.203 -1.08883 -3.05475 0
M  V30 4023 H 374.988 -2.83018 -2.71373 0
M  V30 4024 H 376.478 -2.2514 -3.51713 0
M  V30 4025 N 376.915 0.57481 -1.46744 0
M  V30 4026 C 378.14 1.36341 -1.56288 0
M  V30 4027 C 378.565 1.86954 -0.207347 0
M  V30 4028 O 377.923 1.62006 0.813871 0
M  V30 4029 C 377.971 2.52147 -2.57787 0
M  V30 4030 O 377.075 3.53834 -2.11838 0
M  V30 4031 H 376.416 0.405713 -0.525636 0
M  V30 4032 H 378.946 0.696453 -1.92382 0
M  V30 4033 H 378.956 2.98958 -2.77648 0
M  V30 4034 H 377.631 2.14663 -3.5622 0
M  V30 4035 H 376.208 3.1345 -2.01999 0
M  V30 4036 N 378.394 1.34581 0.820102 0
M  V30 4037 C 379.642 1.26845 1.57336 0
M  V30 4038 C 379.963 -0.160667 1.94337 0
M  V30 4039 O 379.233 -1.09396 1.6251 0
M  V30 4040 H 377.813 0.466514 0.583415 0
M  V30 4041 H 380.475 1.68526 0.979027 0
M  V30 4042 H 379.571 1.87513 2.4949 0
M  V30 4043 N 379.872 -1.04064 1.18357 0
M  V30 4044 C 380.819 -2.12077 0.910603 0
M  V30 4045 C 381.789 -1.65421 -0.15 0
M  V30 4046 O 382.974 -1.90797 -0.0103614 0
M  V30 4047 C 380.114 -3.42252 0.442472 0
M  V30 4048 C 379.227 -4.0252 1.5685 0
M  V30 4049 C 378.362 -5.20657 1.05309 0
M  V30 4050 C 377.401 -5.72955 2.1538 0
M  V30 4051 N 376.538 -6.8238 1.65233 0
M  V30 4052 H 381.378 -2.34764 1.83548 0
M  V30 4053 H 378.915 -1.15157 0.915279 0
M  V30 4054 H 380.873 -4.16921 0.152534 0
M  V30 4055 H 379.503 -3.19712 -0.445428 0
M  V30 4056 H 378.555 -3.25178 1.97391 0
M  V30 4057 H 379.867 -4.37362 2.39824 0
M  V30 4058 H 379.021 -6.0244 0.717677 0
M  V30 4059 H 377.76 -4.87318 0.19293 0
M  V30 4060 H 376.765 -4.89793 2.49766 0
M  V30 4061 H 377.99 -6.08337 3.01832 0
M  V30 4062 H 375.936 -6.50917 0.815064 0
M  V30 4063 H 375.853 -7.16286 2.41805 0
M  V30 4064 H 377.121 -7.67788 1.34619 0
M  V30 4065 N 381.35 -0.985608 -1.22978 0
M  V30 4066 C 382.58 -0.674603 -1.95276 0
M  V30 4067 C 382.988 0.763483 -1.73111 0
M  V30 4068 O 382.331 1.52601 -1.02268 0
M  V30 4069 C 382.393 -0.891597 -3.48268 0
M  V30 4070 C 382.057 -2.31275 -3.94158 0
M  V30 4071 C 383.054 -3.29179 -4.02415 0
M  V30 4072 C 380.739 -2.64524 -4.27004 0
M  V30 4073 C 382.733 -4.58407 -4.42879 0
M  V30 4074 C 380.42 -3.93974 -4.67149 0
M  V30 4075 C 381.418 -4.90727 -4.75053 0
M  V30 4076 O 381.106 -6.17865 -5.14294 0
M  V30 4077 H 380.838 -0.249251 -0.628371 0
M  V30 4078 H 383.392 -1.32106 -1.5728 0
M  V30 4079 H 381.622 -0.187962 -3.86243 0
M  V30 4080 H 383.311 -0.576957 -4.01779 0
M  V30 4081 H 384.077 -3.04823 -3.77237 0
M  V30 4082 H 379.956 -1.89923 -4.2006 0
M  V30 4083 H 383.5 -5.33926 -4.48964 0
M  V30 4084 H 379.397 -4.18122 -4.91777 0
M  V30 4085 H 380.165 -6.21694 -5.32389 0
M  V30 4086 N 382.828 1.3818 -0.7579 0
M  V30 4087 C 383.791 2.28764 -0.141286 0
M  V30 4088 C 384.791 1.47388 0.642907 0
M  V30 4089 O 385.981 1.67781 0.468536 0
M  V30 4090 C 383.113 3.31184 0.808069 0
M  V30 4091 H 384.306 2.848 -0.939633 0
M  V30 4092 H 381.859 1.47212 -0.525191 0
M  V30 4093 H 382.594 2.80247 1.63193 0
M  V30 4094 H 382.379 3.91314 0.248104 0
M  V30 4095 H 383.869 3.98909 1.23536 0
M  V30 4096 N 384.306 0.507319 1.49211 0
M  V30 4097 C 385.269 -0.256763 2.27757 0
M  V30 4098 C 386.269 -0.888287 1.34038 0
M  V30 4099 O 387.459 -0.751841 1.5714 0
M  V30 4100 C 384.591 -1.36905 3.12202 0
M  V30 4101 H 385.784 0.432557 2.96764 0
M  V30 4102 H 383.337 0.262488 1.5408 0
M  V30 4103 H 384.072 -2.09233 2.47775 0
M  V30 4104 H 383.857 -0.921599 3.81115 0
M  V30 4105 H 385.347 -1.9071 3.7151 0
M  V30 4106 N 385.784 -1.5574 0.241426 0
M  V30 4107 C 387.031 -1.9881 -0.384836 0
M  V30 4108 C 387.359 -1.12947 -1.58346 0
M  V30 4109 O 386.614 -0.178993 -1.9488 0
M  V30 4110 C 386.913 -3.47308 -0.843317 0
M  V30 4111 C 386.579 -4.50223 0.246946 0
M  V30 4112 C 385.241 -4.78088 0.546399 0
M  V30 4113 C 387.593 -5.11841 0.983282 0
M  V30 4114 C 384.921 -5.64846 1.58636 0
M  V30 4115 C 387.273 -5.99727 2.01272 0
M  V30 4116 C 385.937 -6.25927 2.31888 0
M  V30 4117 H 385.207 -0.727496 -0.140821 0
M  V30 4118 H 387.854 -1.8831 0.348106 0
M  V30 4119 H 386.159 -3.55112 -1.65537 0
M  V30 4120 H 387.856 -3.78017 -1.33806 0
M  V30 4121 H 384.446 -4.286 0.00340639 0
M  V30 4122 H 388.63 -4.90366 0.765182 0
M  V30 4123 H 383.886 -5.83403 1.82896 0
M  V30 4124 H 388.06 -6.46517 2.58823 0
M  V30 4125 H 385.687 -6.92949 3.12611 0
M  V30 4126 N 387.262 0.0317525 -1.57568 0
M  V30 4127 C 388.508 0.724175 -1.8943 0
M  V30 4128 C 388.841 1.75149 -0.838836 0
M  V30 4129 O 388.116 1.93948 0.146422 0
M  V30 4130 C 388.399 1.39615 -3.31933 0
M  V30 4131 C 388.252 0.382537 -4.4817 0
M  V30 4132 C 389.571 2.33084 -3.73309 0
M  V30 4133 H 386.69 0.261797 -0.688935 0
M  V30 4134 H 389.332 -0.013017 -1.89996 0
M  V30 4135 H 387.482 2.02451 -3.31581 0
M  V30 4136 H 389.154 -0.243689 -4.60656 0
M  V30 4137 H 387.397 -0.29844 -4.32772 0
M  V30 4138 H 388.068 0.891145 -5.44759 0
M  V30 4139 H 390.544 1.80295 -3.7501 0
M  V30 4140 H 389.42 2.77084 -4.73831 0
M  V30 4141 H 389.681 3.19643 -3.05419 0
M  V30 4142 N 388.74 1.54641 0.303973 0
M  V30 4143 C 389.988 1.73437 1.0375 0
M  V30 4144 C 390.309 0.521449 1.87899 0
M  V30 4145 O 389.579 -0.46432 1.90318 0
M  V30 4146 H 388.159 0.639518 0.386039 0
M  V30 4147 H 390.821 1.91988 0.335675 0
M  V30 4148 H 389.917 2.62235 1.69231 0
M  V30 4149 N 390.218 -0.567019 1.47046 0
M  V30 4150 C 391.464 -1.32658 1.53394 0
M  V30 4151 C 391.797 -1.93254 0.19148 0
M  V30 4152 O 391.072 -1.77338 -0.798844 0
M  V30 4153 C 391.355 -2.44412 2.64452 0
M  V30 4154 C 391.208 -1.88749 4.08282 0
M  V30 4155 C 392.527 -3.46387 2.71485 0
M  V30 4156 H 389.646 -0.48098 0.558415 0
M  V30 4157 H 392.288 -0.635481 1.79058 0
M  V30 4158 H 390.438 -3.03363 2.427 0
M  V30 4159 H 392.11 -1.34134 4.41368 0
M  V30 4160 H 390.353 -1.19481 4.17021 0
M  V30 4161 H 391.024 -2.69491 4.81745 0
M  V30 4162 H 393.5 -2.9734 2.91081 0
M  V30 4163 H 392.376 -4.2202 3.50985 0
M  V30 4164 H 392.637 -4.04616 1.78153 0
M  V30 4165 N 391.696 -1.35014 -0.812953 0
M  V30 4166 C 393.107 -1.25035 -1.38648 0
M  V30 4167 C 393.458 0.119967 -1.95833 0
M  V30 4168 O 392.583 1.02069 -1.90816 0
M  V30 4169 C 393.178 -2.26394 -2.52054 0
M  V30 4170 C 391.737 -2.20175 -3.05287 0
M  V30 4171 C 390.884 -2.12451 -1.78213 0
M  V30 4172 H 393.835 -1.46235 -0.616516 0
M  V30 4173 H 393.856 -1.88672 -3.30429 0
M  V30 4174 H 393.368 -3.26116 -2.10404 0
M  V30 4175 H 391.469 -1.23841 -3.51417 0
M  V30 4176 H 391.582 -3.11863 -3.63701 0
M  V30 4177 H 389.946 -1.58328 -1.9951 0
M  V30 4178 H 390.729 -3.14024 -1.38723 0
M  V30 4179 N 393.175 1.03435 -1.18907 0
M  V30 4180 C 394.138 2.09756 -0.923844 0
M  V30 4181 C 395.138 1.60528 0.093416 0
M  V30 4182 O 396.328 1.73631 -0.140727 0
M  V30 4183 C 393.46 3.38692 -0.387354 0
M  V30 4184 H 394.653 2.34719 -1.86674 0
M  V30 4185 H 392.206 1.19959 -1.00197 0
M  V30 4186 H 392.941 3.19396 0.561845 0
M  V30 4187 H 392.726 3.75742 -1.12074 0
M  V30 4188 H 394.216 4.17016 -0.220694 0
M  V30 4189 N 394.653 0.992116 1.22453 0
M  V30 4190 C 395.6 0.541731 2.24352 0
M  V30 4191 C 396.57 -0.425519 1.60557 0
M  V30 4192 O 397.755 -0.330453 1.87917 0
M  V30 4193 C 394.895 -0.138248 3.44823 0
M  V30 4194 C 394.008 0.870649 4.23136 0
M  V30 4195 C 393.143 0.164269 5.30946 0
M  V30 4196 C 392.182 1.16159 6.00977 0
M  V30 4197 N 391.319 0.483568 7.00433 0
M  V30 4198 H 396.159 1.41541 2.62241 0
M  V30 4199 H 393.696 0.709013 1.28885 0
M  V30 4200 H 395.654 -0.5494 4.13567 0
M  V30 4201 H 394.284 -0.975721 3.077 0
M  V30 4202 H 393.336 1.40013 3.53696 0
M  V30 4203 H 394.648 1.63014 4.7141 0
M  V30 4204 H 393.802 -0.303653 6.0594 0
M  V30 4205 H 392.541 -0.627733 4.83643 0
M  V30 4206 H 391.546 1.64015 5.24766 0
M  V30 4207 H 392.771 1.95445 6.50368 0
M  V30 4208 H 390.717 -0.289012 6.55363 0
M  V30 4209 H 390.634 1.18152 7.4671 0
M  V30 4210 H 391.902 0.0384219 7.79491 0
M  V30 4211 N 396.131 -1.37776 0.765217 0
M  V30 4212 C 397.356 -2.04651 0.336537 0
M  V30 4213 C 397.781 -1.57337 -1.03086 0
M  V30 4214 O 397.139 -0.730621 -1.65927 0
M  V30 4215 C 397.187 -3.58577 0.381468 0
M  V30 4216 O 396.291 -4.07706 -0.62042 0
M  V30 4217 H 395.632 -0.64756 0.146838 0
M  V30 4218 H 398.162 -1.76221 1.03959 0
M  V30 4219 H 398.172 -4.07314 0.236448 0
M  V30 4220 H 396.847 -3.9237 1.37907 0
M  V30 4221 H 395.424 -3.70306 -0.439056 0
M  V30 4222 N 397.609 -0.515225 -1.4894 0
M  V30 4223 C 398.857 0.0241671 -2.02086 0
M  V30 4224 C 399.178 1.3616 -1.3959 0
M  V30 4225 O 398.448 1.87841 -0.556121 0
M  V30 4226 H 397.028 0.0119203 -0.746905 0
M  V30 4227 H 399.69 -0.675702 -1.82812 0
M  V30 4228 H 398.786 0.143385 -3.1177 0
M  V30 4229 N 399.087 1.5561 -0.249682 0
M  V30 4230 C 400.333 1.99306 0.374841 0
M  V30 4231 C 400.666 1.13767 1.57387 0
M  V30 4232 O 399.941 0.201711 1.93451 0
M  V30 4233 C 400.224 3.51507 0.781986 0
M  V30 4234 C 400.077 4.4781 -0.422629 0
M  V30 4235 C 401.396 4.08884 1.62793 0
M  V30 4236 H 398.515 0.724572 0.134773 0
M  V30 4237 H 401.157 1.86719 -0.351549 0
M  V30 4238 H 399.307 3.62363 1.4009 0
M  V30 4239 H 400.979 4.48931 -1.06108 0
M  V30 4240 H 399.222 4.20518 -1.06524 0
M  V30 4241 H 399.893 5.51919 -0.0943766 0
M  V30 4242 H 402.369 4.01147 1.10547 0
M  V30 4243 H 401.245 5.1564 1.88166 0
M  V30 4244 H 401.506 3.57515 2.60068 0
M  V30 4245 N 400.565 -0.0233959 1.57583 0
M  V30 4246 C 401.79 -0.728376 1.94189 0
M  V30 4247 C 402.215 -1.67793 0.850119 0
M  V30 4248 O 401.573 -1.80262 -0.19371 0
M  V30 4249 C 401.621 -1.45669 3.29868 0
M  V30 4250 O 400.725 -2.57013 3.22518 0
M  V30 4251 H 400.066 -0.195493 0.63457 0
M  V30 4252 H 402.596 0.0228214 2.04587 0
M  V30 4253 H 402.606 -1.82535 3.6489 0
M  V30 4254 H 401.281 -0.760314 4.08891 0
M  V30 4255 H 399.858 -2.22648 2.99136 0
M  V30 4256 N 402.043 -1.548 -0.295768 0
M  V30 4257 C 403.291 -1.73985 -1.02828 0
M  V30 4258 C 403.612 -0.531406 -1.87619 0
M  V30 4259 O 402.882 0.454221 -1.90561 0
M  V30 4260 H 401.462 -0.641556 -0.382642 0
M  V30 4261 H 404.124 -1.92163 -0.325489 0
M  V30 4262 H 403.22 -2.63129 -1.67838 0
M  V30 4263 N 403.521 0.559213 -1.47345 0
M  V30 4264 C 404.769 1.31388 -1.53563 0
M  V30 4265 C 405.09 1.93985 -0.198678 0
M  V30 4266 O 404.36 1.79825 0.777167 0
M  V30 4267 H 402.94 0.487901 -0.565652 0
M  V30 4268 H 405.602 0.65315 -1.8363 0
M  V30 4269 H 404.698 2.10844 -2.30111 0
M  V30 4270 N 404.999 1.35443 0.805782 0
M  V30 4271 C 406.248 1.28097 1.55801 0
M  V30 4272 C 406.561 -0.142428 1.95081 0
M  V30 4273 O 407.767 -0.33817 2.69386 0
M  V30 4274 C 406.223 2.24653 2.81174 0
M  V30 4275 C 405.831 3.72342 2.49129 0
M  V30 4276 C 407.575 2.2625 3.59181 0
M  V30 4277 C 405.482 4.60719 3.70799 0
M  V30 4278 H 404.412 0.475937 0.584808 0
M  V30 4279 H 407.063 1.60712 0.885661 0
M  V30 4280 H 405.445 1.85011 3.50124 0
M  V30 4281 H 406.619 4.20624 1.88181 0
M  V30 4282 H 404.934 3.73361 1.84366 0
M  V30 4283 H 407.531 2.89495 4.49552 0
M  V30 4284 H 407.874 1.26647 3.96568 0
M  V30 4285 H 408.407 2.64426 2.97193 0
M  V30 4286 H 405.146 5.61324 3.3852 0
M  V30 4287 H 404.666 4.17163 4.3097 0
M  V30 4288 H 406.345 4.76182 4.38018 0
M  V30 4289 N 406.477 -1.02803 1.19454 0
M  V30 4290 C 407.41 -2.107 0.876396 0
M  V30 4291 C 408.388 -1.61741 -0.166897 0
M  V30 4292 O 409.572 -1.88451 -0.0430195 0
M  V30 4293 C 406.699 -3.37262 0.311758 0
M  V30 4294 C 405.745 -4.05093 1.33424 0
M  V30 4295 S 406.578 -4.50498 2.89503 0
M  V30 4296 C 407.734 -5.80277 2.34584 0
M  V30 4297 H 407.967 -2.37362 1.79016 0
M  V30 4298 H 405.5 -1.15755 1.02177 0
M  V30 4299 H 407.458 -4.10499 -0.00748752 0
M  V30 4300 H 406.119 -3.08693 -0.58032 0
M  V30 4301 H 405.312 -4.9611 0.888302 0
M  V30 4302 H 404.914 -3.3803 1.60037 0
M  V30 4303 H 407.206 -6.54873 1.73633 0
M  V30 4304 H 408.149 -6.29651 3.23952 0
M  V30 4305 H 408.557 -5.3599 1.77131 0
M  V30 4306 N 407.956 -0.998596 -1.21925 0
M  V30 4307 C 408.919 -0.558679 -2.22287 0
M  V30 4308 C 409.919 0.361525 -1.56683 0
M  V30 4309 O 411.109 0.152695 -1.73529 0
M  V30 4310 C 408.241 0.18661 -3.40389 0
M  V30 4311 H 409.434 -1.4463 -2.62721 0
M  V30 4312 H 406.987 -0.786413 -1.35075 0
M  V30 4313 H 407.722 1.08996 -3.05435 0
M  V30 4314 H 407.507 -0.474188 -3.89222 0
M  V30 4315 H 408.997 0.482367 -4.14805 0
M  V30 4316 N 409.434 1.37368 -0.772513 0
M  V30 4317 C 410.364 2.32856 -0.173304 0
M  V30 4318 C 411.345 1.55818 0.682262 0
M  V30 4319 O 412.53 1.84052 0.619566 0
M  V30 4320 C 409.66 3.40048 0.706007 0
M  V30 4321 C 408.614 4.27973 -0.0483144 0
M  V30 4322 C 407.94 5.26184 0.950491 0
M  V30 4323 C 409.24 5.07665 -1.22776 0
M  V30 4324 H 410.934 2.83217 -0.971002 0
M  V30 4325 H 408.48 1.3617 -0.468377 0
M  V30 4326 H 410.433 4.05827 1.13501 0
M  V30 4327 H 409.157 2.88214 1.53623 0
M  V30 4328 H 407.816 3.63726 -0.458107 0
M  V30 4329 H 407.464 4.7063 1.77529 0
M  V30 4330 H 407.164 5.85872 0.450314 0
M  V30 4331 H 408.688 5.94838 1.37842 0
M  V30 4332 H 410.102 5.66578 -0.875366 0
M  V30 4333 H 408.499 5.76681 -1.66007 0
M  V30 4334 H 409.569 4.40294 -2.03149 0
M  V30 4335 N 410.912 0.523116 1.48665 0
M  V30 4336 C 412.158 -0.0134963 2.02796 0
M  V30 4337 C 412.491 -1.34582 1.40004 0
M  V30 4338 O 411.766 -1.86756 0.543381 0
M  V30 4339 C 412.049 -0.14276 3.59817 0
M  V30 4340 C 411.902 1.21425 4.331 0
M  V30 4341 C 413.221 -0.872856 4.31357 0
M  V30 4342 H 410.34 -0.00343074 0.736992 0
M  V30 4343 H 412.982 0.678816 1.7746 0
M  V30 4344 H 411.132 -0.732401 3.81534 0
M  V30 4345 H 412.804 1.84447 4.2282 0
M  V30 4346 H 411.047 1.79791 3.94788 0
M  V30 4347 H 411.718 1.07687 5.41394 0
M  V30 4348 H 414.194 -0.372555 4.14429 0
M  V30 4349 H 413.07 -0.932185 5.40927 0
M  V30 4350 H 413.331 -1.92161 3.98154 0
M  V30 4351 N 412.39 -1.55475 0.257931 0
M  V30 4352 C 413.801 -1.8511 -0.243135 0
M  V30 4353 C 414.152 -1.17986 -1.5676 0
M  V30 4354 O 413.277 -0.462102 -2.11409 0
M  V30 4355 C 413.872 -3.35826 -0.447929 0
M  V30 4356 C 412.431 -3.65647 -0.893245 0
M  V30 4357 C 411.578 -2.7729 0.0232965 0
M  V30 4358 H 414.529 -1.51261 0.480199 0
M  V30 4359 H 414.55 -3.58002 -1.28898 0
M  V30 4360 H 414.062 -3.84652 0.516196 0
M  V30 4361 H 412.163 -3.22308 -1.86945 0
M  V30 4362 H 412.276 -4.73312 -0.742469 0
M  V30 4363 H 410.64 -2.49942 -0.490021 0
M  V30 4364 H 411.423 -3.28926 0.982994 0
M  V30 4365 N 413.868 0.0150385 -1.57593 0
M  V30 4366 C 415.279 0.559832 -1.78109 0
M  V30 4367 C 415.63 1.74814 -0.890756 0
M  V30 4368 O 414.755 2.16216 -0.0892482 0
M  V30 4369 C 415.35 1.02238 -3.23006 0
M  V30 4370 C 413.909 1.51258 -3.44671 0
M  V30 4371 C 413.056 0.456955 -2.73509 0
M  V30 4372 H 416.007 -0.211169 -1.57289 0
M  V30 4373 H 416.028 1.88912 -3.30292 0
M  V30 4374 H 415.54 0.157302 -3.87781 0
M  V30 4375 H 413.641 2.39905 -2.8509 0
M  V30 4376 H 413.754 1.55042 -4.5332 0
M  V30 4377 H 412.118 0.915196 -2.37689 0
M  V30 4378 H 412.901 -0.398896 -3.40975 0
M  V30 4379 N 415.346 1.54954 0.287554 0
M  V30 4380 C 416.571 1.79209 1.04397 0
M  V30 4381 C 416.996 0.556431 1.79682 0
M  V30 4382 O 416.354 -0.493518 1.74454 0
M  V30 4383 C 416.402 3.00739 1.98969 0
M  V30 4384 O 415.506 2.74805 3.075 0
M  V30 4385 H 414.847 0.592755 0.299227 0
M  V30 4386 H 417.377 2.02068 0.320886 0
M  V30 4387 H 417.387 3.29077 2.4119 0
M  V30 4388 H 416.062 3.90329 1.43582 0
M  V30 4389 H 414.639 2.57523 2.69697 0
M  V30 4390 N 416.824 -0.551391 1.4764 0
M  V30 4391 C 417.787 -1.64007 1.60107 0
M  V30 4392 C 418.787 -1.53601 0.47576 0
M  V30 4393 O 419.977 -1.57655 0.740988 0
M  V30 4394 C 417.109 -3.03569 1.55108 0
M  V30 4395 H 418.302 -1.543 2.57161 0
M  V30 4396 H 415.855 -0.771776 1.35917 0
M  V30 4397 H 416.59 -3.18804 0.594519 0
M  V30 4398 H 416.375 -3.12532 2.36783 0
M  V30 4399 H 417.865 -3.82762 1.66982 0
M  V30 4400 N 418.302 -1.35869 -0.798587 0
M  V30 4401 C 419.718 -1.16082 -1.09532 0
M  V30 4402 C 419.918 0.0213124 -2.01489 0
M  V30 4403 O 418.974 0.689488 -2.42904 0
M  V30 4404 C 420.287 -2.46748 -1.7186 0
M  V30 4405 C 421.835 -2.53028 -1.84244 0
M  V30 4406 C 422.31 -3.83758 -2.49988 0
M  V30 4407 N 423.801 -3.85053 -2.57465 0
M  V30 4408 C 424.536 -4.8294 -3.09122 0
M  V30 4409 N 424.032 -5.91217 -3.61157 0
M  V30 4410 N 425.825 -4.70369 -3.0775 0
M  V30 4411 H 417.976 -2.11571 -0.187461 0
M  V30 4412 H 420.239 -0.936726 -0.145765 0
M  V30 4413 H 419.945 -3.33471 -1.11759 0
M  V30 4414 H 419.819 -2.61883 -2.71472 0
M  V30 4415 H 422.206 -1.66729 -2.43486 0
M  V30 4416 H 422.287 -2.418 -0.834643 0
M  V30 4417 H 421.931 -4.70459 -1.91393 0
M  V30 4418 H 421.861 -3.92278 -3.5132 0
M  V30 4419 H 424.352 -3.06822 -2.20609 0
M  V30 4420 H 424.665 -6.61892 -3.98896 0
M  V30 4421 H 423.01 -5.94899 -3.59333 0
M  V30 4422 H 426.201 -3.84914 -2.66381 0
M  V30 4423 H 426.374 -5.46816 -3.47701 0
M  V30 4424 N 419.78 1.02168 -1.19998 0
M  V30 4425 C 421.196 1.27969 -0.953737 0
M  V30 4426 C 421.396 1.98079 0.369703 0
M  V30 4427 O 420.452 2.27306 1.09947 0
M  V30 4428 C 421.765 2.11971 -2.13281 0
M  V30 4429 C 423.313 2.25255 -2.17323 0
M  V30 4430 C 423.788 3.12632 -3.34702 0
M  V30 4431 N 425.279 3.2022 -3.34684 0
M  V30 4432 C 426.014 3.88039 -4.22153 0
M  V30 4433 N 425.51 4.58027 -5.19791 0
M  V30 4434 N 427.303 3.84511 -4.10009 0
M  V30 4435 H 419.454 0.550794 -2.05134 0
M  V30 4436 H 421.717 0.305683 -0.897364 0
M  V30 4437 H 421.423 1.67785 -3.09097 0
M  V30 4438 H 421.297 3.12699 -2.10949 0
M  V30 4439 H 423.684 2.68667 -1.22073 0
M  V30 4440 H 423.765 1.24053 -2.23706 0
M  V30 4441 H 423.409 2.69926 -4.30235 0
M  V30 4442 H 423.339 4.13909 -3.25556 0
M  V30 4443 H 425.83 2.70382 -2.64012 0
M  V30 4444 H 426.143 5.07429 -5.82868 0
M  V30 4445 H 424.488 4.56869 -5.23733 0
M  V30 4446 H 427.679 3.28978 -3.33003 0
M  V30 4447 H 427.852 4.3709 -4.78389 0
M  V30 4448 N 421.258 1.00505 1.21394 0
M  V30 4449 C 422.168 0.574806 2.27449 0
M  V30 4450 C 423.184 -0.382206 1.6975 0
M  V30 4451 O 424.36 -0.246027 1.99892 0
M  V30 4452 C 421.425 -0.0917414 3.46579 0
M  V30 4453 C 420.486 0.909758 4.1955 0
M  V30 4454 C 419.719 0.274924 5.32991 0
M  V30 4455 O 419.942 -0.928254 5.62796 0
M  V30 4456 O 418.876 0.985877 5.93771 0
M  V30 4457 H 422.702 1.45744 2.66444 0
M  V30 4458 H 420.287 0.773923 1.27792 0
M  V30 4459 H 422.169 -0.464551 4.18832 0
M  V30 4460 H 420.844 -0.948755 3.09484 0
M  V30 4461 H 419.751 1.33372 3.49518 0
M  V30 4462 H 421.084 1.73636 4.60555 0
M  V30 4463 N 422.737 -1.36956 0.779787 0
M  V30 4464 C 423.669 -2.28833 0.129639 0
M  V30 4465 C 424.682 -1.4902 -0.655511 0
M  V30 4466 O 425.871 -1.71578 -0.492279 0
M  V30 4467 C 422.971 -3.2833 -0.839792 0
M  V30 4468 C 422.144 -4.3727 -0.10675 0
M  V30 4469 C 421.203 -5.16789 -0.990717 0
M  V30 4470 O 420.229 -5.67406 -0.451516 0
M  V30 4471 N 421.431 -5.32294 -2.3161 0
M  V30 4472 H 424.196 -2.85268 0.918803 0
M  V30 4473 H 421.757 -1.49019 0.632841 0
M  V30 4474 H 423.749 -3.78413 -1.43477 0
M  V30 4475 H 422.319 -2.72605 -1.52988 0
M  V30 4476 H 421.539 -3.88478 0.669216 0
M  V30 4477 H 422.827 -5.07229 0.399464 0
M  V30 4478 H 422.225 -4.92768 -2.77843 0
M  V30 4479 H 420.782 -5.85656 -2.86095 0
M  V30 4480 N 424.215 -0.530993 -1.48385 0
M  V30 4481 C 425.626 -0.0907905 -1.86479 0
M  V30 4482 C 425.977 1.33213 -1.44044 0
M  V30 4483 O 425.102 1.99783 -0.831615 0
M  V30 4484 C 425.697 -0.157987 -3.38431 0
M  V30 4485 C 424.256 0.227026 -3.75715 0
M  V30 4486 C 423.403 -0.5173 -2.72432 0
M  V30 4487 H 426.354 -0.742186 -1.40276 0
M  V30 4488 H 426.375 0.630053 -3.75247 0
M  V30 4489 H 425.887 -1.19372 -3.69286 0
M  V30 4490 H 423.988 1.26486 -3.50474 0
M  V30 4491 H 424.101 -0.113288 -4.78966 0
M  V30 4492 H 422.465 0.0365527 -2.54674 0
M  V30 4493 H 423.248 -1.55368 -3.0613 0
M  V30 4494 N 425.693 1.55336 -0.266172 0
M  V30 4495 C 426.94 1.99397 0.353158 0
M  V30 4496 C 427.268 1.15451 1.56529 0
M  V30 4497 O 426.523 0.209974 1.9457 0
M  V30 4498 C 426.822 3.48606 0.787957 0
M  V30 4499 C 426.488 4.49773 -0.318541 0
M  V30 4500 C 425.15 4.77158 -0.62239 0
M  V30 4501 C 427.502 5.10212 -1.06459 0
M  V30 4502 C 424.83 5.62251 -1.67602 0
M  V30 4503 C 427.182 5.96449 -2.10788 0
M  V30 4504 C 425.846 6.22158 -2.41817 0
M  V30 4505 H 425.116 0.729644 0.12923 0
M  V30 4506 H 427.763 1.87732 -0.37802 0
M  V30 4507 H 426.068 3.57701 1.59866 0
M  V30 4508 H 427.765 3.80098 1.27775 0
M  V30 4509 H 424.355 4.2854 -0.0715925 0
M  V30 4510 H 428.539 4.89086 -0.843098 0
M  V30 4511 H 423.795 5.80419 -1.92155 0
M  V30 4512 H 427.969 6.42317 -2.69076 0
M  V30 4513 H 425.596 6.87888 -3.23596 0
M  V30 4514 N 427.171 -0.0066808 1.57599 0
M  V30 4515 C 428.103 -1.02827 2.04839 0
M  V30 4516 C 429.116 -1.31108 0.965113 0
M  V30 4517 O 430.305 -1.28202 1.24203 0
M  V30 4518 C 427.405 -2.36464 2.42771 0
M  V30 4519 C 426.578 -2.27219 3.73751 0
M  V30 4520 C 425.637 -3.43489 3.98625 0
M  V30 4521 O 424.663 -3.21976 4.69382 0
M  V30 4522 N 425.865 -4.66116 3.46 0
M  V30 4523 H 428.63 -0.625455 2.93101 0
M  V30 4524 H 426.191 -0.194198 1.60731 0
M  V30 4525 H 428.183 -3.13008 2.56531 0
M  V30 4526 H 426.753 -2.68512 1.60063 0
M  V30 4527 H 425.973 -1.35629 3.70133 0
M  V30 4528 H 427.261 -2.18208 4.59633 0
M  V30 4529 H 426.659 -4.86493 2.88688 0
M  V30 4530 H 425.216 -5.39949 3.65101 0
M  V30 4531 N 428.649 -1.55105 -0.279332 0
M  V30 4532 C 429.874 -1.7976 -1.03446 0
M  V30 4533 C 430.299 -0.565952 -1.79384 0
M  V30 4534 O 429.657 0.484259 -1.74713 0
M  V30 4535 C 429.705 -3.0179 -1.97371 0
M  V30 4536 O 428.809 -2.76432 -3.06038 0
M  V30 4537 H 428.15 -0.594334 -0.29608 0
M  V30 4538 H 430.68 -2.02235 -0.310165 0
M  V30 4539 H 430.69 -3.30351 -2.39441 0
M  V30 4540 H 429.365 -3.91085 -1.4151 0
M  V30 4541 H 427.942 -2.58949 -2.68328 0
M  V30 4542 N 430.127 0.543554 -1.4793 0
M  V30 4543 C 431.375 1.29752 -1.54948 0
M  V30 4544 C 431.696 1.93764 -0.219242 0
M  V30 4545 O 430.966 1.80639 0.75805 0
M  V30 4546 H 429.546 0.481874 -0.570795 0
M  V30 4547 H 432.208 0.633636 -1.84312 0
M  V30 4548 H 431.304 2.08392 -2.32334 0
M  V30 4549 N 431.605 1.3629 0.791371 0
M  V30 4550 C 432.845 1.31792 1.56238 0
M  V30 4551 C 433.209 -0.102237 1.91728 0
M  V30 4552 O 434.41 -0.271759 2.67423 0
M  V30 4553 C 432.681 2.21303 2.80642 0
M  V30 4554 S 434.24 2.34468 3.70904 0
M  V30 4555 H 431.058 0.468141 0.535131 0
M  V30 4556 H 433.66 1.71841 0.932246 0
M  V30 4557 H 432.364 3.23439 2.52617 0
M  V30 4558 H 431.895 1.82266 3.4863 0
M  V30 4559 H 433.91 1.54074 4.71673 0
M  V30 4560 N 433.083 -1.0153 1.20538 0
M  V30 4561 C 434.331 -1.74803 1.01432 0
M  V30 4562 C 434.652 -1.8963 -0.454456 0
M  V30 4563 O 433.922 -1.43975 -1.32846 0
M  V30 4564 H 432.502 -0.647598 0.372324 0
M  V30 4565 H 435.164 -1.22402 1.5167 0
M  V30 4566 H 434.26 -2.75114 1.47373 0
M  V30 4567 N 434.561 -1.01147 -1.20859 0
M  V30 4568 C 435.81 -0.693214 -1.89413 0
M  V30 4569 C 436.123 0.779969 -1.79376 0
M  V30 4570 O 437.329 1.21057 -2.43017 0
M  V30 4571 C 435.785 -1.18949 -3.39675 0
M  V30 4572 C 435.393 -2.68921 -3.58309 0
M  V30 4573 C 437.137 -0.94642 -4.13815 0
M  V30 4574 C 435.044 -3.12056 -5.0237 0
M  V30 4575 H 433.974 -0.255595 -0.709357 0
M  V30 4576 H 436.625 -1.22349 -1.36759 0
M  V30 4577 H 435.007 -0.587228 -3.91622 0
M  V30 4578 H 436.181 -3.34652 -3.16772 0
M  V30 4579 H 434.496 -2.91314 -2.97532 0
M  V30 4580 H 437.093 -1.24417 -5.20023 0
M  V30 4581 H 437.436 0.117219 -4.16135 0
M  V30 4582 H 437.969 -1.5118 -3.67953 0
M  V30 4583 H 434.708 -4.17674 -5.05202 0
M  V30 4584 H 434.228 -2.51041 -5.44737 0
M  V30 4585 H 435.907 -3.04403 -5.70918 0
M  V30 4586 N 436.039 1.36541 -0.78704 0
M  V30 4587 C 437.287 1.98911 -0.357633 0
M  V30 4588 C 437.608 1.62778 1.07371 0
M  V30 4589 O 436.878 0.900612 1.73971 0
M  V30 4590 H 435.458 0.735734 -0.129246 0
M  V30 4591 H 438.12 1.66776 -1.00855 0
M  V30 4592 H 437.216 3.08874 -0.447549 0
M  V30 4593 N 437.518 0.538854 1.48102 0
M  V30 4594 C 438.767 0.0059532 2.01699 0
M  V30 4595 C 439.08 -1.34476 1.42041 0
M  V30 4596 O 440.286 -1.96653 1.87189 0
M  V30 4597 C 438.742 -0.0397627 3.59878 0
M  V30 4598 C 438.35 1.30659 4.28523 0
M  V30 4599 C 440.094 -0.521024 4.2129 0
M  V30 4600 C 438.001 1.22098 5.78659 0
M  V30 4601 H 436.931 -0.00154456 0.753998 0
M  V30 4602 H 439.582 0.683963 1.70277 0
M  V30 4603 H 437.964 -0.783037 3.88181 0
M  V30 4604 H 439.138 2.06613 4.11883 0
M  V30 4605 H 437.453 1.7243 3.79021 0
M  V30 4606 H 440.05 -0.603184 5.31287 0
M  V30 4607 H 440.393 -1.52885 3.8721 0
M  V30 4608 H 440.926 0.166834 3.9745 0
M  V30 4609 H 437.665 2.20424 6.17328 0
M  V30 4610 H 437.185 0.50295 5.97688 0
M  V30 4611 H 438.864 0.915345 6.40492 0
M  V30 4612 N 438.996 -1.55193 0.274407 0
M  V30 4613 C 440.226 -2.03692 -0.345442 0
M  V30 4614 C 440.634 -1.15224 -1.50067 0
M  V30 4615 O 439.977 -0.164749 -1.8296 0
M  V30 4616 C 440.039 -3.48325 -0.88939 0
M  V30 4617 C 439.703 -4.56794 0.137115 0
M  V30 4618 C 440.7 -5.11028 0.956378 0
M  V30 4619 C 438.385 -5.01568 0.27115 0
M  V30 4620 C 440.379 -6.08552 1.89587 0
M  V30 4621 C 438.066 -5.98918 1.21412 0
M  V30 4622 C 439.064 -6.52291 2.02498 0
M  V30 4623 O 438.752 -7.47738 2.952 0
M  V30 4624 H 438.484 -0.670893 -0.0829332 0
M  V30 4625 H 441.038 -2.01387 0.404056 0
M  V30 4626 H 439.268 -3.47867 -1.68895 0
M  V30 4627 H 440.957 -3.80167 -1.42225 0
M  V30 4628 H 441.723 -4.7725 0.863559 0
M  V30 4629 H 437.602 -4.5967 -0.349987 0
M  V30 4630 H 441.146 -6.50137 2.52918 0
M  V30 4631 H 437.043 -6.32114 1.30776 0
M  V30 4632 H 437.811 -7.65451 2.89874 0
M  V30 4633 N 440.474 -0.00167713 -1.576 0
M  V30 4634 C 441.722 0.681471 -1.90264 0
M  V30 4635 C 442.043 1.7422 -0.875924 0
M  V30 4636 O 441.313 1.95709 0.0864412 0
M  V30 4637 H 439.893 0.254696 -0.702239 0
M  V30 4638 H 442.555 -0.0429996 -1.94853 0
M  V30 4639 H 441.651 1.15166 -2.90075 0
M  V30 4640 N 441.952 1.55251 0.271103 0
M  V30 4641 C 443.363 1.66635 0.842007 0
M  V30 4642 C 443.714 0.594631 1.86972 0
M  V30 4643 O 442.839 -0.263532 2.14789 0
M  V30 4644 C 443.434 3.02082 1.53401 0
M  V30 4645 C 441.993 3.15487 2.05293 0
M  V30 4646 C 441.14 2.62438 0.895631 0
M  V30 4647 H 444.091 1.58629 0.0474117 0
M  V30 4648 H 444.112 2.95176 2.40107 0
M  V30 4649 H 443.624 3.80062 0.785786 0
M  V30 4650 H 441.725 2.42284 2.83071 0
M  V30 4651 H 441.838 4.22075 2.26693 0
M  V30 4652 H 440.202 2.19644 1.28953 0
M  V30 4653 H 440.985 3.42923 0.160878 0
M  V30 4654 N 443.43 -0.535701 1.48216 0
M  V30 4655 C 444.393 -1.623 1.61838 0
M  V30 4656 C 445.393 -1.53087 0.492024 0
M  V30 4657 O 446.583 -1.5686 0.757668 0
M  V30 4658 C 443.715 -3.01907 1.58319 0
M  V30 4659 H 444.908 -1.51564 2.58783 0
M  V30 4660 H 442.461 -0.757317 1.36727 0
M  V30 4661 H 443.196 -3.18155 0.628299 0
M  V30 4662 H 442.981 -3.10003 2.40085 0
M  V30 4663 H 444.471 -3.80969 1.71033 0
M  V30 4664 N 444.908 -1.36708 -0.784132 0
M  V30 4665 C 446.157 -1.30559 -1.53744 0
M  V30 4666 C 446.47 0.111374 -1.95283 0
M  V30 4667 O 447.676 0.29527 -2.6989 0
M  V30 4668 C 446.132 -2.29098 -2.77565 0
M  V30 4669 C 445.74 -3.76258 -2.43174 0
M  V30 4670 C 447.484 -2.31936 -3.55536 0
M  V30 4671 C 445.391 -4.6656 -3.63422 0
M  V30 4672 H 444.321 -0.48518 -0.577162 0
M  V30 4673 H 446.972 -1.62101 -0.859981 0
M  V30 4674 H 445.354 -1.90557 -3.47137 0
M  V30 4675 H 446.528 -4.23565 -1.81465 0
M  V30 4676 H 444.843 -3.76246 -1.78403 0
M  V30 4677 H 447.44 -2.9661 -4.44889 0
M  V30 4678 H 447.783 -1.3294 -3.94503 0
M  V30 4679 H 448.316 -2.6912 -2.92949 0
M  V30 4680 H 445.055 -5.66638 -3.29547 0
M  V30 4681 H 444.575 -4.23966 -4.24279 0
M  V30 4682 H 446.254 -4.8309 -4.30387 0
M  V30 4683 N 446.386 1.0089 -1.21074 0
M  V30 4684 C 447.663 1.71834 -0.934469 0
M  V30 4685 C 448.043 2.0368 0.554753 0
M  V30 4686 O 447.391 1.70742 1.51854 0
M  V30 4687 C 447.601 2.98061 -1.8155 0
M  V30 4688 C 448.949 3.7117 -2.06199 0
M  V30 4689 O 449.973 3.08034 -1.78867 0
M  V30 4690 O 448.832 4.84721 -2.52404 0
M  V30 4691 H 445.926 0.749253 -0.35007 0
M  V30 4692 H 448.472 1.06668 -1.31985 0
M  V30 4693 H 447.244 2.70908 -2.82355 0
M  V30 4694 H 446.867 3.70968 -1.43068 0
M  V30 4695 N 447.864 1.01787 1.20321 0
M  V30 4696 C 448.774 0.598898 2.26827 0
M  V30 4697 C 449.79 -0.36418 1.70146 0
M  V30 4698 O 450.966 -0.224812 2.00141 0
M  V30 4699 C 448.031 -0.0549769 3.46656 0
M  V30 4700 C 447.092 0.954205 4.18561 0
M  V30 4701 C 446.325 0.331439 5.3267 0
M  V30 4702 O 446.548 -0.86851 5.63749 0
M  V30 4703 O 445.482 1.0488 5.92692 0
M  V30 4704 H 449.308 1.48562 2.64883 0
M  V30 4705 H 446.893 0.787434 1.26964 0
M  V30 4706 H 448.775 -0.420102 4.19301 0
M  V30 4707 H 447.45 -0.915876 3.10473 0
M  V30 4708 H 446.357 1.37072 3.48083 0
M  V30 4709 H 447.69 1.78511 4.58688 0
M  V30 4710 N 449.342 -1.36122 0.79427 0
M  V30 4711 C 450.572 -2.03067 0.380437 0
M  V30 4712 C 450.98 -1.60018 -1.00949 0
M  V30 4713 O 450.323 -0.787425 -1.65968 0
M  V30 4714 C 450.385 -3.57587 0.37034 0
M  V30 4715 C 450.049 -4.23855 1.70867 0
M  V30 4716 C 451.046 -4.46404 2.66496 0
M  V30 4717 C 448.731 -4.61229 1.9893 0
M  V30 4718 C 450.725 -5.05412 3.88378 0
M  V30 4719 C 448.412 -5.19953 3.21079 0
M  V30 4720 C 449.41 -5.41985 4.15621 0
M  V30 4721 O 449.098 -5.99475 5.35616 0
M  V30 4722 H 448.83 -0.658168 0.154243 0
M  V30 4723 H 451.384 -1.7498 1.0757 0
M  V30 4724 H 449.614 -3.84814 -0.381444 0
M  V30 4725 H 451.303 -4.05895 -0.0194894 0
M  V30 4726 H 452.069 -4.17921 2.46103 0
M  V30 4727 H 447.948 -4.43402 1.26158 0
M  V30 4728 H 451.492 -5.22524 4.62185 0
M  V30 4729 H 447.389 -5.47862 3.41347 0
M  V30 4730 H 448.157 -6.17937 5.36745 0
M  V30 4731 N 450.82 -0.546701 -1.47814 0
M  V30 4732 C 452.068 -0.0187037 -2.02091 0
M  V30 4733 C 452.389 1.33168 -1.42447 0
M  V30 4734 O 451.659 1.86619 -0.595839 0
M  V30 4735 H 450.239 -0.00392531 -0.74699 0
M  V30 4736 H 452.901 -0.714327 -1.81338 0
M  V30 4737 H 451.997 0.0772219 -3.12004 0
M  V30 4738 N 452.299 1.55045 -0.282633 0
M  V30 4739 C 453.247 2.24254 0.617478 0
M  V30 4740 C 454.241 1.24215 1.15183 0
M  V30 4741 O 455.447 1.42123 1.10459 0
M  V30 4742 H 451.822 0.719801 0.217693 0
M  V30 4743 H 453.793 2.98398 0.0110076 0
M  V30 4744 C 452.542 2.98281 1.78672 0
M  V30 4745 H 451.865 3.75053 1.38475 0
M  V30 4746 H 453.305 3.50017 2.393 0
M  V30 4747 C 451.764 2.04184 2.67975 0
M  V30 4748 O 452.294 1.59792 3.6855 0
M  V30 4749 N 450.5 1.70526 2.35307 0
M  V30 4750 H 450.047 2.06821 1.53567 0
M  V30 4751 H 450.005 1.07839 2.95327 0
M  V30 4752 N 453.777 0.010035 1.57597 0
M  V30 4753 C 455.002 -0.687021 1.95691 0
M  V30 4754 C 455.427 -1.65952 0.885519 0
M  V30 4755 O 454.785 -1.80633 -0.15543 0
M  V30 4756 C 454.833 -1.3864 3.32884 0
M  V30 4757 O 453.937 -2.50115 3.27897 0
M  V30 4758 H 453.278 -0.181989 0.638573 0
M  V30 4759 H 455.808 0.0662122 2.04493 0
M  V30 4760 H 455.818 -1.74754 3.6868 0
M  V30 4761 H 454.493 -0.673411 4.10412 0
M  V30 4762 H 453.07 -2.16253 3.03791 0
M  V30 4763 N 455.255 -1.55392 -0.262866 0
M  V30 4764 C 456.185 -1.91978 -1.32917 0
M  V30 4765 C 457.166 -0.7828 -1.51017 0
M  V30 4766 O 458.351 -1.04178 -1.63892 0
M  V30 4767 C 455.481 -2.20055 -2.68687 0
M  V30 4768 C 454.435 -3.35854 -2.65304 0
M  V30 4769 C 453.761 -3.49435 -4.04721 0
M  V30 4770 C 455.061 -4.71977 -2.23685 0
M  V30 4771 H 456.755 -2.81292 -1.02544 0
M  V30 4772 H 454.301 -1.3534 -0.491846 0
M  V30 4773 H 456.254 -2.44237 -3.43404 0
M  V30 4774 H 454.978 -1.27551 -3.00663 0
M  V30 4775 H 453.637 -3.11655 -1.93045 0
M  V30 4776 H 453.285 -2.54379 -4.33936 0
M  V30 4777 H 452.985 -4.27297 -4.0335 0
M  V30 4778 H 454.509 -3.7592 -4.81161 0
M  V30 4779 H 455.923 -4.95637 -2.88127 0
M  V30 4780 H 454.32 -5.52828 -2.33456 0
M  V30 4781 H 455.39 -4.70115 -1.18827 0
M  V30 4782 N 456.733 0.527833 -1.48498 0
M  V30 4783 C 457.961 1.30823 -1.6029 0
M  V30 4784 C 458.376 1.86945 -0.263974 0
M  V30 4785 O 457.733 1.6651 0.747034 0
M  V30 4786 C 457.784 2.45756 -2.65116 0
M  V30 4787 O 457.505 1.91946 -3.93813 0
M  V30 4788 C 459.006 3.37543 -2.87367 0
M  V30 4789 H 456.226 0.397763 -0.540394 0
M  V30 4790 H 458.77 0.636529 -1.94341 0
M  V30 4791 H 456.925 3.08806 -2.33917 0
M  V30 4792 H 457.339 2.67195 -4.51339 0
M  V30 4793 H 458.813 4.14532 -3.6451 0
M  V30 4794 H 459.29 3.92905 -1.9627 0
M  V30 4795 H 459.896 2.80283 -3.19878 0
M  V30 4796 N 458.211 1.37122 0.776871 0
M  V30 4797 C 459.459 1.31787 1.53221 0
M  V30 4798 C 459.78 -0.0987589 1.9475 0
M  V30 4799 O 459.05 -1.0417 1.65908 0
M  V30 4800 H 457.63 0.484839 0.568278 0
M  V30 4801 H 460.292 1.71556 0.924917 0
M  V30 4802 H 459.388 1.95355 2.43398 0
M  V30 4803 N 459.689 -1.00246 1.21608 0
M  V30 4804 C 460.937 -1.73717 1.0328 0
M  V30 4805 C 461.258 -1.90102 -0.434318 0
M  V30 4806 O 460.528 -1.45376 -1.31311 0
M  V30 4807 H 459.108 -0.643613 0.379172 0
M  V30 4808 H 461.77 -1.20787 1.52959 0
M  V30 4809 H 460.866 -2.73535 1.50283 0
M  V30 4810 N 461.167 -1.02423 -1.1978 0
M  V30 4811 C 462.1 -0.545641 -2.21581 0
M  V30 4812 C 463.078 0.411024 -1.57319 0
M  V30 4813 O 464.262 0.329223 -1.85603 0
M  V30 4814 C 461.389 0.204973 -3.38079 0
M  V30 4815 C 460.435 -0.70241 -4.20676 0
M  V30 4816 S 461.268 -2.17595 -4.89298 0
M  V30 4817 C 462.424 -1.43572 -6.09211 0
M  V30 4818 H 462.657 -1.4082 -2.61834 0
M  V30 4819 H 460.19 -0.833771 -1.29952 0
M  V30 4820 H 462.148 0.631924 -4.05607 0
M  V30 4821 H 460.809 1.0432 -2.9627 0
M  V30 4822 H 460.002 -0.123193 -5.03849 0
M  V30 4823 H 459.604 -1.06747 -3.58442 0
M  V30 4824 H 461.896 -0.719806 -6.73665 0
M  V30 4825 H 462.839 -2.24388 -6.71607 0
M  V30 4826 H 463.247 -0.935252 -5.56699 0
M  V30 4827 N 462.645 1.35699 -0.801477 0
M  V30 4828 C 463.575 2.32436 -0.222658 0
M  V30 4829 C 464.556 1.5723 0.649057 0
M  V30 4830 O 465.741 1.85324 0.580387 0
M  V30 4831 C 462.871 3.41469 0.633719 0
M  V30 4832 C 461.825 4.27774 -0.139083 0
M  V30 4833 C 461.151 5.28082 0.838666 0
M  V30 4834 C 462.451 5.04946 -1.33517 0
M  V30 4835 H 464.145 2.81094 -1.03086 0
M  V30 4836 H 461.691 1.35146 -0.497155 0
M  V30 4837 H 463.644 4.08143 1.04868 0
M  V30 4838 H 462.368 2.91408 1.47475 0
M  V30 4839 H 461.027 3.62673 -0.535156 0
M  V30 4840 H 460.675 4.7429 1.67506 0
M  V30 4841 H 460.375 5.86695 0.32594 0
M  V30 4842 H 461.899 5.97628 1.25194 0
M  V30 4843 H 463.313 5.64593 -0.995349 0
M  V30 4844 H 461.71 5.7303 -1.78202 0
M  V30 4845 H 462.78 4.35886 -2.12442 0
M  V30 4846 N 464.123 0.554532 1.47522 0
M  V30 4847 C 465.053 -0.182974 2.32782 0
M  V30 4848 C 466.034 -0.911377 1.43624 0
M  V30 4849 O 467.219 -0.892366 1.72483 0
M  V30 4850 C 464.349 -1.21513 3.25349 0
M  V30 4851 C 463.303 -0.603355 4.23726 0
M  V30 4852 C 462.629 -1.73995 5.05598 0
M  V30 4853 C 463.929 0.441121 5.20434 0
M  V30 4854 H 465.623 0.52882 2.94693 0
M  V30 4855 H 463.169 0.255759 1.41711 0
M  V30 4856 H 465.122 -1.73922 3.83835 0
M  V30 4857 H 463.846 -1.95683 2.61487 0
M  V30 4858 H 462.505 -0.10059 3.66462 0
M  V30 4859 H 462.153 -2.47063 4.38143 0
M  V30 4860 H 461.853 -1.3364 5.72201 0
M  V30 4861 H 463.377 -2.26735 5.66942 0
M  V30 4862 H 464.791 0.00319931 5.733 0
M  V30 4863 H 463.188 0.763402 5.95224 0
M  V30 4864 H 464.258 1.33799 4.66075 0
M  V30 4865 N 465.601 -1.54893 0.290851 0
M  V30 4866 C 466.548 -2.23138 -0.58974 0
M  V30 4867 C 467.518 -1.21036 -1.13752 0
M  V30 4868 O 468.703 -1.49626 -1.18392 0
M  V30 4869 C 465.843 -2.96811 -1.76061 0
M  V30 4870 C 464.956 -4.13665 -1.24519 0
M  V30 4871 C 464.091 -4.74944 -2.3791 0
M  V30 4872 C 463.13 -5.83963 -1.83451 0
M  V30 4873 N 462.267 -6.39239 -2.90376 0
M  V30 4874 H 467.107 -2.98 -0.00114915 0
M  V30 4875 H 464.644 -1.47096 0.0112006 0
M  V30 4876 H 466.602 -3.37751 -2.44909 0
M  V30 4877 H 465.232 -2.24344 -2.32098 0
M  V30 4878 H 464.284 -3.77737 -0.449288 0
M  V30 4879 H 465.596 -4.92238 -0.806424 0
M  V30 4880 H 464.75 -5.18684 -3.14724 0
M  V30 4881 H 463.489 -3.95682 -2.85109 0
M  V30 4882 H 462.494 -5.39657 -1.05122 0
M  V30 4883 H 463.719 -6.65103 -1.37169 0
M  V30 4884 H 461.665 -5.62864 -3.36927 0
M  V30 4885 H 461.582 -7.13129 -2.50965 0
M  V30 4886 H 462.85 -6.87637 -3.67118 0
M  V30 4887 N 467.08 -0.0183926 -1.57589 0
M  V30 4888 C 468.03 0.975944 -2.06057 0
M  V30 4889 C 469.014 1.29204 -0.958908 0
M  V30 4890 O 470.206 1.27995 -1.22255 0
M  V30 4891 C 467.335 2.26194 -2.58247 0
M  V30 4892 C 466.421 1.97467 -3.75323 0
M  V30 4893 N 466.812 1.38968 -4.86335 0
M  V30 4894 C 465.11 2.27515 -3.83605 0
M  V30 4895 C 465.811 1.27131 -5.67638 0
M  V30 4896 N 464.787 1.76319 -5.14211 0
M  V30 4897 H 468.589 0.518444 -2.89291 0
M  V30 4898 H 466.103 0.18688 -1.61321 0
M  V30 4899 H 468.1 2.98289 -2.91255 0
M  V30 4900 H 466.76 2.7258 -1.76438 0
M  V30 4901 H 467.771 1.06608 -5.06809 0
M  V30 4902 H 464.448 2.76649 -3.12684 0
M  V30 4903 H 465.838 0.819882 -6.66879 0
M  V30 4904 N 468.558 1.5553 0.254621 0
M  V30 4905 C 469.491 1.84624 1.34124 0
M  V30 4906 C 470.469 0.700693 1.46728 0
M  V30 4907 O 471.653 0.94564 1.63064 0
M  V30 4908 C 468.78 2.02412 2.71564 0
M  V30 4909 C 467.826 3.25028 2.7615 0
M  V30 4910 S 468.659 4.81893 2.33538 0
M  V30 4911 C 469.815 5.02677 3.72917 0
M  V30 4912 H 470.048 2.76501 1.09245 0
M  V30 4913 H 467.581 1.47537 0.455211 0
M  V30 4914 H 469.539 2.13345 3.50705 0
M  V30 4915 H 468.2 1.11391 2.93685 0
M  V30 4916 H 467.393 3.34418 3.77069 0
M  V30 4917 H 466.995 3.12781 2.05046 0
M  V30 4918 H 469.287 4.89546 4.68349 0
M  V30 4919 H 470.23 6.0468 3.68467 0
M  V30 4920 H 470.638 4.30561 3.65072 0
M  V30 4921 N 470.036 -0.519951 1.48776 0
M  V30 4922 C 470.999 -1.60574 1.6355 0
M  V30 4923 C 471.999 -1.52557 0.508234 0
M  V30 4924 O 473.189 -1.56047 0.774262 0
M  V30 4925 C 470.321 -3.00211 1.61512 0
M  V30 4926 H 471.514 -1.4881 2.60376 0
M  V30 4927 H 469.067 -0.742772 1.37523 0
M  V30 4928 H 469.802 -3.17471 0.662009 0
M  V30 4929 H 469.587 -3.07439 2.43359 0
M  V30 4930 H 471.077 -3.79134 1.75064 0
M  V30 4931 N 471.514 -1.37532 -0.769588 0
M  V30 4932 C 472.446 -1.29347 -1.89214 0
M  V30 4933 C 473.459 -0.208842 -1.61455 0
M  V30 4934 O 474.648 -0.465158 -1.72333 0
M  V30 4935 C 471.748 -0.977649 -3.24492 0
M  V30 4936 C 470.921 -2.16817 -3.7988 0
M  V30 4937 C 469.98 -1.82229 -4.93639 0
M  V30 4938 O 469.006 -2.54548 -5.09111 0
M  V30 4939 N 470.208 -0.767696 -5.75401 0
M  V30 4940 H 472.973 -2.26073 -1.96751 0
M  V30 4941 H 470.534 -1.31185 -0.948795 0
M  V30 4942 H 472.526 -0.727065 -3.98115 0
M  V30 4943 H 471.096 -0.0988777 -3.12444 0
M  V30 4944 H 470.316 -2.58038 -2.9801 0
M  V30 4945 H 471.604 -2.96308 -4.13617 0
M  V30 4946 H 471.002 -0.167626 -5.65452 0
M  V30 4947 H 469.559 -0.576973 -6.49241 0
M  V30 4948 N 472.992 0.995999 -1.22138 0
M  V30 4949 C 473.902 2.11985 -1.00496 0
M  V30 4950 C 474.918 1.7394 0.0457701 0
M  V30 4951 O 476.094 2.00868 -0.146273 0
M  V30 4952 C 473.159 3.41779 -0.582086 0
M  V30 4953 C 472.22 3.93943 -1.70608 0
M  V30 4954 C 471.453 5.17542 -1.30328 0
M  V30 4955 O 471.676 5.70114 -0.180743 0
M  V30 4956 O 470.61 5.63382 -2.11861 0
M  V30 4957 H 474.436 2.33123 -1.94647 0
M  V30 4958 H 472.021 1.10358 -1.00705 0
M  V30 4959 H 473.903 4.1989 -0.356467 0
M  V30 4960 H 472.578 3.22007 0.330592 0
M  V30 4961 H 471.485 3.17019 -1.98619 0
M  V30 4962 H 472.818 4.18141 -2.59651 0
M  V30 4963 N 474.47 1.03057 1.19235 0
M  V30 4964 C 475.716 0.738841 1.89506 0
M  V30 4965 C 476.071 -0.724807 1.78225 0
M  V30 4966 O 475.364 -1.52118 1.16494 0
M  V30 4967 C 475.558 1.1268 3.39172 0
M  V30 4968 C 475.387 2.62662 3.65019 0
M  V30 4969 C 474.157 3.29658 3.82954 0
M  V30 4970 C 476.355 3.60873 3.66436 0
M  V30 4971 N 474.337 4.68726 3.96446 0
M  V30 4972 C 475.708 4.85566 3.8552 0
M  V30 4973 C 477.763 3.54647 3.49471 0
M  V30 4974 C 476.466 6.04783 3.89397 0
M  V30 4975 C 478.492 4.73281 3.54625 0
M  V30 4976 C 477.854 5.96789 3.74196 0
M  V30 4977 H 473.953 0.322256 0.712513 0
M  V30 4978 H 476.537 1.31822 1.43287 0
M  V30 4979 H 474.708 0.575612 3.84111 0
M  V30 4980 H 476.44 0.787145 3.96971 0
M  V30 4981 H 473.195 2.8007 3.81913 0
M  V30 4982 H 473.619 5.40971 4.07037 0
M  V30 4983 H 478.261 2.60143 3.33295 0
M  V30 4984 H 475.979 6.99654 4.04364 0
M  V30 4985 H 479.565 4.70094 3.42787 0
M  V30 4986 H 478.445 6.87051 3.78061 0
M  V30 4987 N 475.948 -1.35272 0.808662 0
M  V30 4988 C 476.858 -2.33546 0.222079 0
M  V30 4989 C 477.874 -1.6196 -0.636011 0
M  V30 4990 O 479.05 -1.93822 -0.547274 0
M  V30 4991 C 476.115 -3.41148 -0.61795 0
M  V30 4992 C 475.176 -4.28507 0.260875 0
M  V30 4993 C 474.409 -5.3097 -0.539156 0
M  V30 4994 O 474.632 -5.42123 -1.77367 0
M  V30 4995 O 473.566 -6.01858 0.0710526 0
M  V30 4996 H 477.392 -2.85515 1.03512 0
M  V30 4997 H 474.977 -1.38079 0.570495 0
M  V30 4998 H 476.859 -4.06889 -1.09634 0
M  V30 4999 H 475.534 -2.91447 -1.40855 0
M  V30 5000 H 474.441 -3.6574 0.786451 0
M  V30 5001 H 475.774 -4.81611 1.01547 0
M  V30 5002 N 477.426 -0.562348 -1.47226 0
M  V30 5003 C 478.356 0.170627 -2.32876 0
M  V30 5004 C 479.337 0.903748 -1.44106 0
M  V30 5005 O 480.522 0.883206 -1.72954 0
M  V30 5006 C 477.652 1.19786 -3.25989 0
M  V30 5007 C 476.606 0.580875 -4.2404 0
M  V30 5008 C 475.932 1.71311 -5.06514 0
M  V30 5009 C 477.232 -0.468714 -5.20193 0
M  V30 5010 H 478.926 -0.544441 -2.94408 0
M  V30 5011 H 476.472 -0.263271 -1.41573 0
M  V30 5012 H 478.425 1.71884 -3.84752 0
M  V30 5013 H 477.149 1.94294 -2.62521 0
M  V30 5014 H 475.808 0.0811538 -3.6651 0
M  V30 5015 H 475.456 2.44736 -4.39447 0
M  V30 5016 H 475.156 1.30604 -5.72902 0
M  V30 5017 H 476.68 2.23725 -5.68137 0
M  V30 5018 H 478.094 -0.0336028 -5.7329 0
M  V30 5019 H 476.491 -0.794957 -5.94811 0
M  V30 5020 H 477.561 -1.36269 -4.65359 0
M  V30 5021 N 478.904 1.54736 -0.299062 0
M  V30 5022 C 480.129 2.04975 0.316254 0
M  V30 5023 C 480.554 1.17501 1.46885 0
M  V30 5024 O 479.912 0.178678 1.80417 0
M  V30 5025 C 479.96 3.52672 0.751997 0
M  V30 5026 O 479.064 3.68226 1.85697 0
M  V30 5027 H 478.405 0.661126 0.0617175 0
M  V30 5028 H 480.935 1.99805 -0.440341 0
M  V30 5029 H 480.945 3.94488 1.04133 0
M  V30 5030 H 479.62 4.158 -0.0911482 0
M  V30 5031 H 478.197 3.38316 1.56834 0
M  V30 5032 N 480.382 0.0267497 1.57577 0
M  V30 5033 C 481.631 -0.651736 1.9088 0
M  V30 5034 C 481.944 -1.73427 0.904576 0
M  V30 5035 O 483.15 -2.46923 1.12877 0
M  V30 5036 C 481.606 -1.21048 3.38933 0
M  V30 5037 C 481.214 -0.161362 4.47709 0
M  V30 5038 C 482.958 -1.86562 3.81307 0
M  V30 5039 C 480.865 -0.731611 5.86857 0
M  V30 5040 H 479.795 -0.247198 0.712326 0
M  V30 5041 H 482.446 0.0916641 1.83271 0
M  V30 5042 H 480.828 -2.00542 3.41466 0
M  V30 5043 H 482.002 0.61094 4.56732 0
M  V30 5044 H 480.317 0.394877 4.14523 0
M  V30 5045 H 482.914 -2.30178 4.8262 0
M  V30 5046 H 483.257 -2.70735 3.16241 0
M  V30 5047 H 483.79 -1.13762 3.81186 0
M  V30 5048 H 480.529 0.0719329 6.55461 0
M  V30 5049 H 480.049 -1.47245 5.81445 0
M  V30 5050 H 481.728 -1.22208 6.35354 0
M  V30 5051 N 481.861 -1.55662 -0.24637 0
M  V30 5052 C 483.108 -1.77519 -0.974335 0
M  V30 5053 C 483.436 -0.591165 -1.85298 0
M  V30 5054 O 482.691 0.425497 -1.91018 0
M  V30 5055 C 482.99 -3.04885 -1.86494 0
M  V30 5056 C 482.656 -4.36209 -1.14161 0
M  V30 5057 C 481.318 -4.71896 -0.941701 0
M  V30 5058 C 483.67 -5.17391 -0.628957 0
M  V30 5059 C 480.998 -5.86299 -0.216852 0
M  V30 5060 C 483.35 -6.32546 0.0824273 0
M  V30 5061 C 482.014 -6.66853 0.293807 0
M  V30 5062 H 481.284 -0.649588 -0.356535 0
M  V30 5063 H 483.931 -1.89934 -0.244394 0
M  V30 5064 H 482.236 -2.87484 -2.66196 0
M  V30 5065 H 483.933 -3.18994 -2.42989 0
M  V30 5066 H 480.523 -4.08174 -1.30736 0
M  V30 5067 H 484.707 -4.90276 -0.770943 0
M  V30 5068 H 479.963 -6.11385 -0.0426124 0
M  V30 5069 H 484.137 -6.94693 0.487292 0
M  V30 5070 H 481.764 -7.55349 0.857428 0
M  V30 5071 O 483.378 0.392 -1.5667 0
M  V30 5072 H 484.069 1.04392 -1.63163 0
M  V30 END ATOM
M  V30 BEGIN BOND
M  V30 END BOND
M  V30 END CTAB
M  END
$$$$
