drugbank_target|O31616 Glycine oxidase (DB02713; DB03147)
 OpenBabel12092119563D

  0  0  0     0  0            999 V3000
M  V30 BEGIN CTAB
M  V30 COUNTS 5717 5787 0 0 0
M  V30 BEGIN ATOM
M  V30 1 H -0.908 1.98254 -0.117106 0
M  V30 2 N 0 1.576 0 0
M  V30 3 C 0.933 2.03868 1.02534 0
M  V30 4 C 1.911 0.928543 1.3348 0
M  V30 5 O 3.095 1.19667 1.45644 0
M  V30 6 C 0.222 2.43627 2.35294 0
M  V30 7 C -0.732 3.65373 2.2001 0
M  V30 8 S 0.101 5.13292 1.52614 0
M  V30 9 C 1.257 5.56322 2.86805 0
M  V30 10 H 1.49 2.90518 0.631377 0
M  V30 11 H -0.977 1.52953 0.210867 0
M  V30 12 H 0.981 2.67203 3.11629 0
M  V30 13 H -0.358 1.57376 2.7183 0
M  V30 14 H -1.165 3.90944 3.18086 0
M  V30 15 H -1.563 3.418 1.51819 0
M  V30 16 H 0.729 5.58782 3.83104 0
M  V30 17 H 1.672 6.56266 2.65933 0
M  V30 18 H 2.08 4.83886 2.90714 0
M  V30 19 N 1.4781 -0.272755 1.55222 0
M  V30 20 C 2.4251 -1.33716 1.88119 0
M  V30 21 C 3.3951 -1.49066 0.73271 0
M  V30 22 O 4.5801 -1.63469 0.984002 0
M  V30 23 C 1.7201 -2.69238 2.15882 0
M  V30 24 C 0.8331 -2.62108 3.43399 0
M  V30 25 C -0.0319 -3.89811 3.60861 0
M  V30 26 C -0.9929 -3.77193 4.8207 0
M  V30 27 N -1.8559 -4.9673 4.96189 0
M  V30 28 H 2.9841 -1.04962 2.78903 0
M  V30 29 H 0.5211 -0.507088 1.38083 0
M  V30 30 H 2.4791 -3.48089 2.29978 0
M  V30 31 H 1.1091 -2.96194 1.28331 0
M  V30 32 H 0.1611 -1.74967 3.37773 0
M  V30 33 H 1.4731 -2.48685 4.32386 0
M  V30 34 H 0.6271 -4.77103 3.74777 0
M  V30 35 H -0.6339 -4.06102 2.7006 0
M  V30 36 H -1.6289 -2.88284 4.68159 0
M  V30 37 H -0.4039 -3.62421 5.74307 0
M  V30 38 H -2.4579 -5.13431 4.08319 0
M  V30 39 H -2.5409 -4.85839 5.79221 0
M  V30 40 H -1.2729 -5.85594 5.1449 0
M  V30 41 N 2.9562 -1.48159 -0.537278 0
M  V30 42 C 4.3722 -1.34118 -0.865129 0
M  V30 43 C 4.5722 -0.346678 -1.98495 0
M  V30 44 O 3.6282 0.234715 -2.51407 0
M  V30 45 C 4.9412 -2.73963 -1.23954 0
M  V30 46 C 6.4892 -2.82397 -1.34984 0
M  V30 47 C 6.9642 -4.22928 -1.75772 0
M  V30 48 N 8.4552 -4.25566 -1.82887 0
M  V30 49 C 9.1902 -5.31235 -2.15817 0
M  V30 50 N 8.6862 -6.47189 -2.47222 0
M  V30 51 N 10.4792 -5.18624 -2.16761 0
M  V30 52 H 2.6302 -2.1144 0.201715 0
M  V30 53 H 4.8932 -0.947598 0.0275949 0
M  V30 54 H 4.5992 -3.48264 -0.490381 0
M  V30 55 H 4.4732 -3.0702 -2.19132 0
M  V30 56 H 6.8602 -2.08356 -2.08978 0
M  V30 57 H 6.9412 -2.5297 -0.379448 0
M  V30 58 H 6.5852 -4.97482 -1.02341 0
M  V30 59 H 6.5152 -4.49794 -2.73848 0
M  V30 60 H 9.0062 -3.41924 -1.60924 0
M  V30 61 H 9.3192 -7.23564 -2.71433 0
M  V30 62 H 7.6642 -6.50476 -2.44757 0
M  V30 63 H 10.8552 -4.27056 -1.91679 0
M  V30 64 H 11.0282 -6.01078 -2.42093 0
M  V30 65 N 4.4343 0.785586 -1.36625 0
M  V30 66 C 5.3843 1.88822 -1.27789 0
M  V30 67 C 6.3683 1.60014 -0.168579 0
M  V30 68 O 7.5603 1.72381 -0.401737 0
M  V30 69 C 4.6893 3.26092 -1.07327 0
M  V30 70 C 3.7753 3.60897 -2.22743 0
M  V30 71 N 4.1663 3.66982 -3.48077 0
M  V30 72 C 2.4643 3.90981 -2.14593 0
M  V30 73 C 3.1653 3.98137 -4.24101 0
M  V30 74 N 2.1413 4.13319 -3.53084 0
M  V30 75 H 5.9433 1.91759 -2.22723 0
M  V30 76 H 3.4573 0.981311 -1.29399 0
M  V30 77 H 5.4543 4.04954 -0.990842 0
M  V30 78 H 4.1143 3.24428 -0.132977 0
M  V30 79 H 5.1253 3.49531 -3.82163 0
M  V30 80 H 1.8023 3.9722 -1.2854 0
M  V30 81 H 3.1923 4.09737 -5.32509 0
M  V30 82 N 5.9124 1.20967 1.01018 0
M  V30 83 C 7.1424 1.04803 1.78044 0
M  V30 84 C 7.5504 -0.405462 1.84804 0
M  V30 85 O 6.8934 -1.2932 1.30468 0
M  V30 86 C 6.9554 1.56377 3.23707 0
M  V30 87 C 6.6194 3.04767 3.40538 0
M  V30 88 C 7.6164 4.02366 3.29239 0
M  V30 89 C 5.3014 3.43862 3.66147 0
M  V30 90 C 7.2954 5.37049 3.43304 0
M  V30 91 C 4.9824 4.78699 3.79855 0
M  V30 92 C 5.9804 5.75101 3.68439 0
M  V30 93 O 5.6684 7.07493 3.81719 0
M  V30 94 H 5.4004 0.368778 0.56655 0
M  V30 95 H 7.9544 1.60642 1.27997 0
M  V30 96 H 6.1844 0.949297 3.74867 0
M  V30 97 H 7.8734 1.36136 3.8239 0
M  V30 98 H 8.6394 3.73506 3.09384 0
M  V30 99 H 4.5184 2.69364 3.74118 0
M  V30 100 H 8.0624 6.12277 3.34309 0
M  V30 101 H 3.9594 5.07247 3.99213 0
M  V30 102 H 4.7274 7.1483 3.98697 0
M  V30 103 N 7.3905 -1.2043 1.01659 0
M  V30 104 C 8.3005 -2.2689 0.596484 0
M  V30 105 C 9.3165 -1.70107 -0.36599 0
M  V30 106 O 10.4925 -2.00117 -0.226942 0
M  V30 107 C 7.5575 -3.4665 -0.0586659 0
M  V30 108 C 6.6185 -4.18662 0.949751 0
M  V30 109 C 5.8515 -5.32705 0.32577 0
M  V30 110 O 6.0745 -5.63656 -0.874509 0
M  V30 111 O 5.0085 -5.92803 1.04249 0
M  V30 112 H 8.8345 -2.65041 1.4828 0
M  V30 113 H 6.4195 -1.27048 0.786082 0
M  V30 114 H 8.3015 -4.19256 -0.424564 0
M  V30 115 H 6.9765 -3.10375 -0.91918 0
M  V30 116 H 5.8835 -3.48229 1.36702 0
M  V30 117 H 7.2165 -4.58878 1.78023 0
M  V30 118 N 8.8686 -0.792821 -1.36206 0
M  V30 119 C 9.8316 -0.199459 -2.2833 0
M  V30 120 C 10.8316 0.605189 -1.48977 0
M  V30 121 O 12.0216 0.425685 -1.68919 0
M  V30 122 C 9.1536 0.723523 -3.33134 0
M  V30 123 H 10.3466 -1.01181 -2.82316 0
M  V30 124 H 7.8996 -0.562485 -1.45828 0
M  V30 125 H 8.6346 1.56008 -2.84309 0
M  V30 126 H 8.4196 0.148436 -3.91819 0
M  V30 127 H 9.9096 1.13344 -4.01924 0
M  V30 128 N 10.3467 1.47872 -0.545128 0
M  V30 129 C 11.5927 2.02793 -0.0166104 0
M  V30 130 C 11.9257 1.41987 1.32489 0
M  V30 131 O 11.2007 0.571045 1.85928 0
M  V30 132 C 11.4837 3.59989 0.0893294 0
M  V30 133 C 11.3367 4.3125 -1.27841 0
M  V30 134 C 12.6557 4.32606 0.808724 0
M  V30 135 H 9.7747 0.736962 -0.00751035 0
M  V30 136 H 12.4167 1.76433 -0.705085 0
M  V30 137 H 10.5667 3.82579 0.675681 0
M  V30 138 H 12.2387 4.20035 -1.90704 0
M  V30 139 H 10.4817 3.92076 -1.85632 0
M  V30 140 H 11.1527 5.39736 -1.15713 0
M  V30 141 H 13.6287 4.14936 0.310992 0
M  V30 142 H 12.5047 5.42251 0.851782 0
M  V30 143 H 12.7657 4.00963 1.86229 0
M  V30 144 N 11.8248 0.280983 1.55075 0
M  V30 145 C 13.0708 -0.33461 2.00021 0
M  V30 146 C 13.4038 -1.55063 1.16915 0
M  V30 147 O 12.6788 -1.93006 0.240646 0
M  V30 148 C 12.9618 -0.711007 3.53011 0
M  V30 149 C 12.8148 0.512766 4.46868 0
M  V30 150 C 14.1338 -1.54522 4.12081 0
M  V30 151 H 11.2528 -0.120147 0.727141 0
M  V30 152 H 13.8948 0.389097 1.85973 0
M  V30 153 H 12.0448 -1.32761 3.65112 0
M  V30 154 H 13.7168 1.15131 4.46702 0
M  V30 155 H 11.9598 1.14975 4.18286 0
M  V30 156 H 12.6308 0.205556 5.51617 0
M  V30 157 H 15.1068 -1.02442 4.03293 0
M  V30 158 H 13.9828 -1.77739 5.19327 0
M  V30 159 H 14.2438 -2.52813 3.62682 0
M  V30 160 N 13.3029 -1.57598 0.00835791 0
M  V30 161 C 14.5519 -1.90107 -0.673968 0
M  V30 162 C 14.8649 -0.884275 -1.7447 0
M  V30 163 O 16.0709 -1.09987 -2.48224 0
M  V30 164 C 14.5269 -3.37497 -1.24995 0
M  V30 165 C 14.1349 -4.47491 -0.2136 0
M  V30 166 C 15.8789 -3.79104 -1.90999 0
M  V30 167 C 13.7859 -5.85963 -0.80005 0
M  V30 168 H 12.7159 -0.709393 -0.255495 0
M  V30 169 H 15.3669 -1.83365 0.0702693 0
M  V30 170 H 13.7489 -3.39102 -2.04513 0
M  V30 171 H 14.9229 -4.57414 0.557596 0
M  V30 172 H 13.2379 -4.14956 0.346474 0
M  V30 173 H 15.8349 -4.79901 -2.35795 0
M  V30 174 H 16.1779 -3.1306 -2.74407 0
M  V30 175 H 16.7109 -3.79833 -1.18203 0
M  V30 176 H 13.4499 -6.555 -0.00456708 0
M  V30 177 H 12.9699 -5.79687 -1.54021 0
M  V30 178 H 14.6489 -6.33884 -1.29615 0
M  V30 179 N 14.781 0.264519 -1.55364 0
M  V30 180 C 16.029 0.993021 -1.76021 0
M  V30 181 C 16.35 1.86511 -0.569099 0
M  V30 182 O 15.62 1.91438 0.415735 0
M  V30 183 H 14.2 0.369639 -0.649135 0
M  V30 184 H 16.862 0.286707 -1.9278 0
M  V30 185 H 15.958 1.62502 -2.66457 0
M  V30 186 N 16.2591 1.48442 0.529413 0
M  V30 187 C 17.5071 1.56179 1.28267 0
M  V30 188 C 17.8281 0.237721 1.93546 0
M  V30 189 O 17.0981 -0.740779 1.81354 0
M  V30 190 H 15.6781 0.575367 0.476405 0
M  V30 191 H 18.3401 1.84909 0.61602 0
M  V30 192 H 17.4361 2.34312 2.06165 0
M  V30 193 N 17.7372 -0.778329 1.37039 0
M  V30 194 C 18.9852 -1.53361 1.31623 0
M  V30 195 C 19.3062 -1.94739 -0.100831 0
M  V30 196 O 18.5762 -1.65797 -1.04347 0
M  V30 197 H 17.1562 -0.568794 0.484234 0
M  V30 198 H 19.8182 -0.926742 1.71457 0
M  V30 199 H 18.9142 -2.43606 1.95096 0
M  V30 200 N 19.2153 -1.21501 -1.00376 0
M  V30 201 C 20.4643 -1.02718 -1.73586 0
M  V30 202 C 20.7773 0.439589 -1.90596 0
M  V30 203 O 21.9833 0.746848 -2.61026 0
M  V30 204 C 20.4393 -1.78929 -3.1227 0
M  V30 205 C 20.0473 -3.29783 -3.03228 0
M  V30 206 C 21.7913 -1.68557 -3.89601 0
M  V30 207 C 19.6983 -3.98479 -4.36999 0
M  V30 208 H 18.6283 -0.380733 -0.650814 0
M  V30 209 H 21.2793 -1.45248 -1.1214 0
M  V30 210 H 19.6613 -1.29192 -3.74333 0
M  V30 211 H 20.8353 -3.86832 -2.50395 0
M  V30 212 H 19.1503 -3.40711 -2.39385 0
M  V30 213 H 21.7473 -2.17211 -4.88593 0
M  V30 214 H 22.0903 -0.644021 -4.11288 0
M  V30 215 H 22.6233 -2.15778 -3.34193 0
M  V30 216 H 19.3623 -5.02841 -4.20513 0
M  V30 217 H 18.8823 -3.46219 -4.89788 0
M  V30 218 H 20.5613 -4.03462 -5.05794 0
M  V30 219 N 20.6934 1.19889 -1.02296 0
M  V30 220 C 21.9424 1.88743 -0.711257 0
M  V30 221 C 22.2554 1.80112 0.762817 0
M  V30 222 O 23.4614 2.44161 1.18733 0
M  V30 223 C 21.9174 3.38525 -1.22185 0
M  V30 224 C 21.5254 3.55727 -2.72328 0
M  V30 225 C 23.2694 4.12893 -0.985864 0
M  V30 226 C 21.1764 4.99369 -3.16835 0
M  V30 227 H 20.1064 0.706885 -0.262353 0
M  V30 228 H 22.7574 1.35586 -1.23648 0
M  V30 229 H 21.1394 3.91044 -0.624571 0
M  V30 230 H 22.3134 3.13564 -3.3766 0
M  V30 231 H 20.6284 2.94739 -2.9414 0
M  V30 232 H 23.2254 5.18813 -1.29374 0
M  V30 233 H 23.5684 4.16228 0.0775055 0
M  V30 234 H 24.1014 3.66494 -1.54684 0
M  V30 235 H 20.8404 5.01193 -4.22476 0
M  V30 236 H 20.3604 5.42317 -2.56228 0
M  V30 237 H 22.0394 5.67988 -3.09837 0
M  V30 238 N 22.1715 0.800033 1.35784 0
M  V30 239 C 23.4195 0.376597 1.9856 0
M  V30 240 C 23.7405 -1.05812 1.63795 0
M  V30 241 O 23.0105 -1.73103 0.917171 0
M  V30 242 H 21.5905 0.136261 0.734467 0
M  V30 243 H 24.2525 1.02442 1.65806 0
M  V30 244 H 23.3485 0.477002 3.08433 0
M  V30 245 N 23.6496 -1.47581 0.552962 0
M  V30 246 C 24.8746 -2.07378 0.0300593 0
M  V30 247 C 25.2996 -1.40355 -1.25229 0
M  V30 248 O 24.6576 -0.477099 -1.7491 0
M  V30 249 C 24.7056 -3.60274 -0.153231 0
M  V30 250 O 23.8096 -3.94041 -1.21678 0
M  V30 251 H 23.1506 -0.662158 0.0494182 0
M  V30 252 H 25.6806 -1.89662 0.767434 0
M  V30 253 H 25.6906 -4.0633 -0.368761 0
M  V30 254 H 24.3656 -4.08455 0.783397 0
M  V30 255 H 22.9426 -3.59735 -0.982079 0
M  V30 256 N 25.1277 -0.289203 -1.54924 0
M  V30 257 C 26.0907 0.579144 -2.21762 0
M  V30 258 C 27.0907 1.07047 -1.1999 0
M  V30 259 O 28.2807 0.968384 -1.44803 0
M  V30 260 C 25.4127 1.80055 -2.8947 0
M  V30 261 H 26.6057 -0.00464908 -2.999 0
M  V30 262 H 24.1587 -0.0399306 -1.56249 0
M  V30 263 H 24.8937 2.42449 -2.15381 0
M  V30 264 H 24.6787 1.45602 -3.64064 0
M  V30 265 H 26.1687 2.41773 -3.40493 0
M  V30 266 N 26.6058 1.57591 -0.0167156 0
M  V30 267 C 27.8548 1.90461 0.663877 0
M  V30 268 C 28.1678 0.893515 1.73999 0
M  V30 269 O 29.3738 1.11302 2.47637 0
M  V30 270 C 27.8298 3.38155 1.23204 0
M  V30 271 C 27.4378 4.47597 0.189866 0
M  V30 272 C 29.1818 3.80111 1.88986 0
M  V30 273 C 27.0888 5.86379 0.768964 0
M  V30 274 H 26.0188 0.710738 0.251729 0
M  V30 275 H 28.6698 1.83326 -0.0799926 0
M  V30 276 H 27.0518 3.40182 2.02712 0
M  V30 277 H 28.2258 4.57112 -0.581846 0
M  V30 278 H 26.5408 4.14766 -0.368475 0
M  V30 279 H 29.1378 4.81145 2.33247 0
M  V30 280 H 29.4808 3.14511 2.72743 0
M  V30 281 H 30.0138 3.80454 1.16187 0
M  V30 282 H 26.7528 6.55493 -0.0301957 0
M  V30 283 H 26.2728 5.80496 1.50945 0
M  V30 284 H 27.9518 6.34563 1.26251 0
M  V30 285 N 28.0839 -0.256276 1.55502 0
M  V30 286 C 29.0469 -1.30047 1.88734 0
M  V30 287 C 30.0469 -1.4154 0.763086 0
M  V30 288 O 31.2369 -1.40403 1.03115 0
M  V30 289 C 28.3689 -2.67953 2.10747 0
M  V30 290 H 29.5619 -1.01802 2.82093 0
M  V30 291 H 27.1149 -0.495134 1.4825 0
M  V30 292 H 27.8499 -3.01351 1.19825 0
M  V30 293 H 27.6349 -2.60993 2.92617 0
M  V30 294 H 29.1249 -3.43368 2.37673 0
M  V30 295 N 29.562 -1.4872 -0.521534 0
M  V30 296 C 30.792 -1.6061 -1.29954 0
M  V30 297 C 31.2 -0.268728 -1.87282 0
M  V30 298 O 30.543 0.753221 -1.67548 0
M  V30 299 C 30.605 -2.60013 -2.48261 0
M  V30 300 C 30.269 -4.04874 -2.11957 0
M  V30 301 C 31.266 -4.92304 -1.67132 0
M  V30 302 C 28.951 -4.5047 -2.22221 0
M  V30 303 C 30.945 -6.2336 -1.33047 0
M  V30 304 C 28.632 -5.81544 -1.87748 0
M  V30 305 C 29.63 -6.67812 -1.43234 0
M  V30 306 O 29.318 -7.96446 -1.09217 0
M  V30 307 H 29.05 -0.544116 -0.401141 0
M  V30 308 H 31.604 -1.95339 -0.634958 0
M  V30 309 H 29.834 -2.20422 -3.17728 0
M  V30 310 H 31.523 -2.61648 -3.10315 0
M  V30 311 H 32.289 -4.58312 -1.58665 0
M  V30 312 H 28.168 -3.83504 -2.55823 0
M  V30 313 H 31.712 -6.90649 -0.982299 0
M  V30 314 H 27.609 -6.15069 -1.95858 0
M  V30 315 H 28.377 -8.09275 -1.22542 0
M  V30 316 N 31.0401 0.771051 -1.3745 0
M  V30 317 C 32.2701 1.55789 -1.35696 0
M  V30 318 C 32.6781 1.89107 0.0594523 0
M  V30 319 O 32.0211 1.51984 1.03183 0
M  V30 320 C 32.0831 2.89515 -2.13123 0
M  V30 321 C 31.7471 2.78829 -3.62082 0
M  V30 322 C 32.7441 2.49812 -4.5595 0
M  V30 323 C 30.4291 2.9683 -4.05213 0
M  V30 324 C 32.4231 2.38923 -5.90927 0
M  V30 325 C 30.1101 2.85562 -5.40276 0
M  V30 326 C 31.1081 2.56649 -6.32946 0
M  V30 327 O 30.7961 2.45408 -7.65526 0
M  V30 328 H 30.5281 0.489257 -0.466481 0
M  V30 329 H 33.0821 0.963446 -1.81403 0
M  V30 330 H 31.3121 3.51081 -1.62107 0
M  V30 331 H 33.0011 3.50915 -2.03994 0
M  V30 332 H 33.7671 2.3559 -4.23937 0
M  V30 333 H 29.6461 3.18335 -3.33442 0
M  V30 334 H 33.1901 2.16277 -6.63227 0
M  V30 335 H 29.0871 2.99351 -5.71891 0
M  V30 336 H 29.8551 2.60753 -7.75855 0
M  V30 337 N 32.5182 1.22032 0.997298 0
M  V30 338 C 33.4482 1.01065 2.10495 0
M  V30 339 C 34.4292 -0.0669542 1.69968 0
M  V30 340 O 35.6142 0.0943987 1.9397 0
M  V30 341 C 32.7442 0.582874 3.42374 0
M  V30 342 C 31.6982 1.60592 3.96729 0
M  V30 343 C 31.0242 1.03412 5.24605 0
M  V30 344 C 32.3242 2.99478 4.27914 0
M  V30 345 H 34.0182 1.93708 2.28292 0
M  V30 346 H 31.5642 0.932761 1.09707 0
M  V30 347 H 33.5172 0.423332 4.19268 0
M  V30 348 H 32.2412 -0.379213 3.24391 0
M  V30 349 H 30.9002 1.75316 3.21963 0
M  V30 350 H 30.5482 0.063518 5.0296 0
M  V30 351 H 30.2482 1.71754 5.61938 0
M  V30 352 H 31.7722 0.886066 6.04137 0
M  V30 353 H 33.1862 2.88153 4.95622 0
M  V30 354 H 31.5832 3.64903 4.76409 0
M  V30 355 H 32.6532 3.49742 3.3587 0
M  V30 356 N 33.9963 -1.19345 1.0293 0
M  V30 357 C 34.9593 -2.20793 0.615069 0
M  V30 358 C 35.9593 -1.57553 -0.321533 0
M  V30 359 O 37.1493 -1.73862 -0.108483 0
M  V30 360 C 34.2813 -3.40754 -0.0999222 0
M  V30 361 H 35.4743 -2.58955 1.51269 0
M  V30 362 H 33.0273 -1.3303 0.820534 0
M  V30 363 H 33.7623 -3.0811 -1.01187 0
M  V30 364 H 33.5473 -3.87889 0.57309 0
M  V30 365 H 35.0373 -4.15898 -0.376645 0
M  V30 366 N 35.4744 -0.807222 -1.35358 0
M  V30 367 C 36.4214 -0.216037 -2.29787 0
M  V30 368 C 37.3914 0.650278 -1.52842 0
M  V30 369 O 38.5764 0.595227 -1.81278 0
M  V30 370 C 35.7164 0.628893 -3.39321 0
M  V30 371 C 34.8294 -0.257927 -4.31229 0
M  V30 372 C 33.9644 0.595069 -5.27856 0
M  V30 373 C 33.0034 -0.292111 -6.11403 0
M  V30 374 N 32.1404 0.520895 -7.00165 0
M  V30 375 H 36.9804 -1.02671 -2.79755 0
M  V30 376 H 34.5174 -0.517839 -1.37684 0
M  V30 377 H 36.4754 1.13393 -4.01494 0
M  V30 378 H 35.1054 1.40482 -2.90628 0
M  V30 379 H 34.1574 -0.881076 -3.70056 0
M  V30 380 H 35.4694 -0.940759 -4.89848 0
M  V30 381 H 34.6234 1.16522 -5.95405 0
M  V30 382 H 33.3624 1.31146 -4.69736 0
M  V30 383 H 32.3674 -0.874525 -5.428 0
M  V30 384 H 33.5924 -1.00638 -6.71602 0
M  V30 385 H 31.5384 1.22125 -6.44532 0
M  V30 386 H 31.4554 -0.103877 -7.55929 0
M  V30 387 H 32.7234 1.0743 -7.72062 0
M  V30 388 N 36.9525 1.47285 -0.560781 0
M  V30 389 C 37.8625 2.33846 0.187954 0
M  V30 390 C 38.8785 1.48412 0.908293 0
M  V30 391 O 40.0545 1.81332 0.876388 0
M  V30 392 C 37.1195 3.25178 1.2025 0
M  V30 393 C 36.1805 4.26504 0.489208 0
M  V30 394 C 35.4135 5.13472 1.45542 0
M  V30 395 O 35.6365 5.02959 2.6905 0
M  V30 396 O 34.5705 5.93902 0.977963 0
M  V30 397 H 38.3965 2.99177 -0.522177 0
M  V30 398 H 35.9815 1.45903 -0.321364 0
M  V30 399 H 37.8635 3.81584 1.78805 0
M  V30 400 H 36.5385 2.6247 1.89449 0
M  V30 401 H 35.4455 3.73847 -0.137627 0
M  V30 402 H 36.7785 4.91935 -0.161399 0
M  V30 403 N 38.4306 0.297415 1.54768 0
M  V30 404 C 39.3786 -0.596051 2.24833 0
M  V30 405 C 40.3726 -1.13992 1.25308 0
M  V30 406 O 41.5786 -1.09098 1.4317 0
M  V30 407 H 37.9536 -0.210814 0.721846 0
M  V30 408 H 39.9246 0.0174667 2.98395 0
M  V30 409 C 38.6736 -1.75818 2.99972 0
M  V30 410 H 37.9966 -1.3489 3.76357 0
M  V30 411 H 39.4366 -2.35949 3.52284 0
M  V30 412 C 37.8956 -2.66014 2.06732 0
M  V30 413 O 38.4256 -3.67009 1.63302 0
M  V30 414 N 36.6316 -2.33669 1.72763 0
M  V30 415 H 36.1786 -1.51586 2.08277 0
M  V30 416 H 36.1366 -2.94285 1.10652 0
M  V30 417 N 39.9087 -1.5758 0.0250728 0
M  V30 418 C 40.8557 -2.09973 -0.958129 0
M  V30 419 C 41.8257 -1.00085 -1.3256 0
M  V30 420 O 43.0107 -1.27481 -1.41962 0
M  V30 421 C 40.1507 -2.62812 -2.2366 0
M  V30 422 C 39.2637 -3.86693 -1.92594 0
M  V30 423 C 38.3987 -4.27941 -3.14707 0
M  V30 424 C 37.4377 -5.44591 -2.79442 0
M  V30 425 N 36.5747 -5.81014 -3.94167 0
M  V30 426 H 41.4147 -2.937 -0.504428 0
M  V30 427 H 38.9517 -1.45172 -0.237392 0
M  V30 428 H 40.9097 -2.91536 -2.98434 0
M  V30 429 H 39.5397 -1.81922 -2.66654 0
M  V30 430 H 38.5917 -3.64723 -1.0808 0
M  V30 431 H 39.9037 -4.71547 -1.62619 0
M  V30 432 H 39.0577 -4.58079 -3.97804 0
M  V30 433 H 37.7967 -3.41845 -3.4784 0
M  V30 434 H 36.8017 -5.1415 -1.94755 0
M  V30 435 H 38.0267 -6.32382 -2.47528 0
M  V30 436 H 35.9727 -4.97874 -4.2715 0
M  V30 437 H 35.8897 -6.60498 -3.67801 0
M  V30 438 H 37.1577 -6.15756 -4.7798 0
M  V30 439 N 41.3868 0.248026 -1.55636 0
M  V30 440 C 42.3348 1.32683 -1.91045 0
M  V30 441 C 43.3288 1.49883 -0.789401 0
M  V30 442 O 44.5348 1.51371 -0.974007 0
M  V30 443 H 40.9098 0.444272 -0.606734 0
M  V30 444 H 42.8808 1.00085 -2.81115 0
M  V30 445 C 41.6298 2.6755 -2.22064 0
M  V30 446 H 40.9528 2.55114 -3.07826 0
M  V30 447 H 42.3928 3.41912 -2.50743 0
M  V30 448 C 40.8518 3.20556 -1.0366 0
M  V30 449 O 41.3818 4.00695 -0.284016 0
M  V30 450 N 39.5878 2.78568 -0.82753 0
M  V30 451 H 39.1348 2.1351 -1.44123 0
M  V30 452 H 39.0928 3.14378 -0.0369803 0
M  V30 453 N 42.8649 1.48995 0.513639 0
M  V30 454 C 44.0929 1.61531 1.29288 0
M  V30 455 C 44.5079 0.281801 1.86685 0
M  V30 456 O 43.8649 -0.731111 1.67215 0
M  V30 457 C 43.9159 2.67449 2.43215 0
M  V30 458 O 43.6369 3.95626 1.88179 0
M  V30 459 C 45.1379 2.90575 3.34785 0
M  V30 460 H 42.3579 0.544165 0.392588 0
M  V30 461 H 44.9019 1.9494 0.617956 0
M  V30 462 H 43.0569 2.36853 3.0656 0
M  V30 463 H 43.4709 4.53868 2.62876 0
M  V30 464 H 44.9449 3.68449 4.11035 0
M  V30 465 H 45.4219 2.00011 3.91015 0
M  V30 466 H 46.0279 3.22538 2.77218 0
M  V30 467 N 44.343 -0.763751 1.37857 0
M  V30 468 C 45.306 -1.85889 1.34081 0
M  V30 469 C 46.306 -1.58949 0.243277 0
M  V30 470 O 47.496 -1.66882 0.499589 0
M  V30 471 C 44.628 -3.23176 1.08489 0
M  V30 472 H 45.821 -1.90648 2.31502 0
M  V30 473 H 43.374 -0.964367 1.23003 0
M  V30 474 H 44.109 -3.24091 0.116318 0
M  V30 475 H 43.894 -3.44124 1.8794 0
M  V30 476 H 45.384 -4.03254 1.08517 0
M  V30 477 N 45.8211 -1.22559 -0.990812 0
M  V30 478 C 46.7511 -1.0218 -2.09956 0
M  V30 479 C 47.7321 0.0579394 -1.70001 0
M  V30 480 O 48.9171 -0.104684 -1.93918 0
M  V30 481 C 46.0471 -0.601023 -3.4206 0
M  V30 482 C 45.0011 -1.62694 -3.95872 0
M  V30 483 C 44.3271 -1.06193 -5.24049 0
M  V30 484 C 45.6271 -3.01743 -4.2632 0
M  V30 485 H 47.3211 -1.94916 -2.27262 0
M  V30 486 H 44.8671 -0.938566 -1.09211 0
M  V30 487 H 46.8201 -0.445561 -4.19038 0
M  V30 488 H 45.5441 0.362005 -3.24588 0
M  V30 489 H 44.2031 -1.77021 -3.21028 0
M  V30 490 H 43.8511 -0.0901903 -5.02919 0
M  V30 491 H 43.5511 -1.74732 -5.61019 0
M  V30 492 H 45.0751 -0.918092 -6.03658 0
M  V30 493 H 46.4891 -2.90777 -4.94087 0
M  V30 494 H 44.8861 -3.67425 -4.74467 0
M  V30 495 H 45.9561 -3.51518 -3.34011 0
M  V30 496 N 47.2992 1.18797 -1.03562 0
M  V30 497 C 48.5462 1.8865 -0.736023 0
M  V30 498 C 48.8742 1.80041 0.735889 0
M  V30 499 O 48.1292 1.19179 1.55225 0
M  V30 500 C 48.4282 3.38692 -1.14117 0
M  V30 501 C 48.0942 3.67504 -2.6125 0
M  V30 502 C 46.7562 3.75078 -3.01447 0
M  V30 503 C 49.1082 3.80293 -3.56408 0
M  V30 504 C 46.4362 3.92915 -4.35701 0
M  V30 505 C 48.7882 3.99645 -4.90374 0
M  V30 506 C 47.4522 4.05453 -5.30249 0
M  V30 507 H 46.7222 0.690321 -0.26933 0
M  V30 508 H 49.3692 1.40641 -1.29971 0
M  V30 509 H 47.6742 3.88645 -0.496202 0
M  V30 510 H 49.3712 3.91072 -0.886789 0
M  V30 511 H 45.9612 3.62223 -2.29113 0
M  V30 512 H 50.1452 3.73779 -3.26501 0
M  V30 513 H 45.4012 3.95653 -4.66121 0
M  V30 514 H 49.5752 4.08482 -5.64017 0
M  V30 515 H 47.2022 4.19027 -6.34288 0
M  V30 516 N 48.7773 0.814389 1.34928 0
M  V30 517 C 49.6873 0.231978 2.3345 0
M  V30 518 C 50.7033 -0.629139 1.62228 0
M  V30 519 O 51.8793 -0.539052 1.94052 0
M  V30 520 C 48.9443 -0.603482 3.41407 0
M  V30 521 C 48.0053 0.279037 4.28392 0
M  V30 522 C 47.2383 -0.516643 5.31193 0
M  V30 523 O 47.4613 -1.75068 5.4287 0
M  V30 524 O 46.3953 0.0965652 6.01823 0
M  V30 525 H 50.2213 1.04721 2.85074 0
M  V30 526 H 47.8063 0.576343 1.37836 0
M  V30 527 H 49.6883 -1.07908 4.0735 0
M  V30 528 H 48.3633 -1.39618 2.92042 0
M  V30 529 H 47.2703 0.801948 3.65403 0
M  V30 530 H 48.6033 1.03588 4.81176 0
M  V30 531 N 50.2554 -1.46986 0.568584 0
M  V30 532 C 51.4804 -2.07335 0.0520528 0
M  V30 533 C 51.9054 -1.41675 -1.23733 0
M  V30 534 O 51.2634 -0.495623 -1.74394 0
M  V30 535 C 51.3114 -3.60417 -0.11501 0
M  V30 536 O 50.4154 -3.95309 -1.17492 0
M  V30 537 H 49.7564 -0.661597 0.0564385 0
M  V30 538 H 52.2864 -1.88837 0.787507 0
M  V30 539 H 52.2964 -4.06698 -0.325644 0
M  V30 540 H 50.9714 -4.07601 0.826675 0
M  V30 541 H 49.5484 -3.60757 -0.943869 0
M  V30 542 N 51.7335 -0.305618 -1.54608 0
M  V30 543 C 52.9815 0.301701 -1.99835 0
M  V30 544 C 53.3025 1.54054 -1.19551 0
M  V30 545 O 52.5725 1.93702 -0.292658 0
M  V30 546 H 51.1525 0.114468 -0.738178 0
M  V30 547 H 53.8145 -0.418016 -1.90364 0
M  V30 548 H 52.9105 0.570548 -3.06841 0
M  V30 549 N 53.2116 1.57565 -0.0334293 0
M  V30 550 C 54.4396 1.9628 0.654347 0
M  V30 551 C 54.8546 0.910138 1.65414 0
M  V30 552 O 54.2116 -0.107595 1.82183 0
M  V30 553 C 54.2626 3.35067 1.35693 0
M  V30 554 O 53.9836 4.36296 0.397191 0
M  V30 555 C 55.4846 3.88439 2.13613 0
M  V30 556 H 52.7046 0.646369 0.180132 0
M  V30 557 H 55.2486 2.04282 -0.0944721 0
M  V30 558 H 53.4036 3.2827 2.05712 0
M  V30 559 H 53.8176 5.1678 0.896597 0
M  V30 560 H 55.2916 4.8788 2.58219 0
M  V30 561 H 55.7686 3.22914 2.97696 0
M  V30 562 H 56.3746 3.98516 1.48543 0
M  V30 563 N 54.6897 -0.239769 1.55765 0
M  V30 564 C 55.6227 -1.32356 1.85895 0
M  V30 565 C 56.6007 -1.46053 0.714662 0
M  V30 566 O 57.7847 -1.62154 0.961157 0
M  V30 567 C 54.9117 -2.6962 2.04994 0
M  V30 568 C 53.9577 -2.73036 3.27648 0
M  V30 569 S 54.7907 -2.28929 4.84099 0
M  V30 570 C 55.9467 -3.68103 5.06212 0
M  V30 571 H 56.1797 -1.06601 2.77531 0
M  V30 572 H 53.7127 -0.441112 1.47965 0
M  V30 573 H 55.6707 -3.48653 2.16682 0
M  V30 574 H 54.3317 -2.92609 1.14188 0
M  V30 575 H 53.5247 -3.7386 3.38 0
M  V30 576 H 53.1267 -2.02052 3.14723 0
M  V30 577 H 55.4187 -4.63656 4.93993 0
M  V30 578 H 56.3617 -3.6268 6.08168 0
M  V30 579 H 56.7697 -3.60947 4.34025 0
M  V30 580 N 56.1678 -1.49265 -0.50573 0
M  V30 581 C 57.4158 -1.582 -1.25766 0
M  V30 582 C 57.7368 -0.268482 -1.93143 0
M  V30 583 O 57.0068 0.711833 -1.8251 0
M  V30 584 H 55.5868 -0.582873 -0.467191 0
M  V30 585 H 58.2488 -1.85865 -0.586525 0
M  V30 586 H 57.3448 -2.37563 -2.02412 0
M  V30 587 N 57.6459 0.756429 -1.3826 0
M  V30 588 C 58.8939 1.51248 -1.34047 0
M  V30 589 C 59.2149 1.94875 0.0698372 0
M  V30 590 O 58.4849 1.67436 1.01696 0
M  V30 591 H 57.0649 0.561018 -0.493222 0
M  V30 592 H 59.7269 0.899347 -1.7291 0
M  V30 593 H 58.8229 2.40472 -1.98947 0
M  V30 594 N 59.124 1.23083 0.984299 0
M  V30 595 C 60.54 0.992637 1.24975 0
M  V30 596 C 60.74 -0.308618 1.99123 0
M  V30 597 O 59.796 -1.02905 2.30579 0
M  V30 598 C 61.109 2.19698 2.05312 0
M  V30 599 C 62.657 2.24147 2.18465 0
M  V30 600 C 63.132 3.44157 3.02192 0
M  V30 601 N 64.623 3.44372 3.09777 0
M  V30 602 C 65.358 4.33886 3.74874 0
M  V30 603 N 64.854 5.3363 4.41827 0
M  V30 604 N 66.647 4.21639 3.71721 0
M  V30 605 H 58.798 2.06731 0.487453 0
M  V30 606 H 61.061 0.906339 0.277944 0
M  V30 607 H 60.767 3.1411 1.58201 0
M  V30 608 H 60.641 2.20465 3.06064 0
M  V30 609 H 63.028 1.30277 2.64786 0
M  V30 610 H 63.109 2.27415 1.17115 0
M  V30 611 H 62.753 4.38332 2.56568 0
M  V30 612 H 62.683 3.3813 4.03702 0
M  V30 613 H 65.174 2.72201 2.62135 0
M  V30 614 H 65.487 5.98196 4.89266 0
M  V30 615 H 63.832 5.37534 4.40548 0
M  V30 616 H 67.023 3.42962 3.18582 0
M  V30 617 H 67.196 4.91604 4.22173 0
M  V30 618 N 60.6021 -1.18246 1.0419 0
M  V30 619 C 61.8301 -1.92195 0.766072 0
M  V30 620 C 62.2451 -1.76247 -0.676933 0
M  V30 621 O 61.6021 -1.09293 -1.46155 0
M  V30 622 C 61.6531 -3.43568 1.12442 0
M  V30 623 O 61.3741 -3.59015 2.51078 0
M  V30 624 C 62.8751 -4.34613 0.873275 0
M  V30 625 H 60.0951 -0.610114 0.279288 0
M  V30 626 H 62.6391 -1.50007 1.38989 0
M  V30 627 H 60.7941 -3.8354 0.545542 0
M  V30 628 H 61.2081 -4.5273 2.64831 0
M  V30 629 H 62.6821 -5.39374 1.17385 0
M  V30 630 H 63.1591 -4.38781 -0.191909 0
M  V30 631 H 63.7651 -4.00341 1.43551 0
M  V30 632 N 62.0802 -0.821533 -1.34494 0
M  V30 633 C 63.3082 -0.421884 -2.02553 0
M  V30 634 C 63.7232 0.971745 -1.61872 0
M  V30 635 O 63.0802 1.62864 -0.823496 0
M  V30 636 C 63.1312 -0.51285 -3.57844 0
M  V30 637 O 62.8522 -1.85155 -3.97051 0
M  V30 638 C 64.3532 -0.107921 -4.43169 0
M  V30 639 H 61.5732 -0.169482 -0.649243 0
M  V30 640 H 64.1172 -1.1093 -1.71798 0
M  V30 641 H 62.2722 0.126474 -3.87193 0
M  V30 642 H 62.6862 -1.82482 -4.91732 0
M  V30 643 H 64.1602 -0.222657 -5.51551 0
M  V30 644 H 64.6372 0.948401 -4.28838 0
M  V30 645 H 65.2432 -0.720989 -4.19144 0
M  V30 646 N 63.5583 1.46682 -0.576371 0
M  V30 647 C 64.7833 2.07304 -0.0630475 0
M  V30 648 C 65.2083 1.42329 1.2298 0
M  V30 649 O 64.5663 0.504865 1.74129 0
M  V30 650 C 64.6143 3.60472 0.095895 0
M  V30 651 O 63.7183 3.95927 1.15394 0
M  V30 652 H 63.0593 0.661288 -0.0599463 0
M  V30 653 H 65.5893 1.88417 -0.797511 0
M  V30 654 H 65.5993 4.06865 0.304071 0
M  V30 655 H 64.2743 4.07157 -0.84828 0
M  V30 656 H 62.8513 3.61252 0.924724 0
M  V30 657 N 65.0364 0.313813 1.54444 0
M  V30 658 C 65.9994 -0.54379 2.22656 0
M  V30 659 C 66.9994 -1.05124 1.21678 0
M  V30 660 O 68.1894 -0.945225 1.46325 0
M  V30 661 C 65.3214 -1.75427 2.92298 0
M  V30 662 H 66.5144 0.0523599 2.99854 0
M  V30 663 H 64.0674 0.0647834 1.56166 0
M  V30 664 H 64.8024 -2.38991 2.19211 0
M  V30 665 H 64.5874 -1.39791 3.66334 0
M  V30 666 H 66.0774 -2.36325 3.44297 0
M  V30 667 N 66.5145 -1.57545 0.0417849 0
M  V30 668 C 67.4775 -2.09885 -0.92093 0
M  V30 669 C 68.4775 -1.01648 -1.24596 0
M  V30 670 O 69.6675 -1.27759 -1.1842 0
M  V30 671 C 66.7995 -2.57527 -2.23367 0
M  V30 672 H 67.9925 -2.96236 -0.467382 0
M  V30 673 H 65.5455 -1.5493 -0.206467 0
M  V30 674 H 66.2805 -1.74542 -2.73323 0
M  V30 675 H 66.0655 -3.36613 -2.01083 0
M  V30 676 H 67.5555 -2.98201 -2.92346 0
M  V30 677 N 67.9926 0.231505 -1.5589 0
M  V30 678 C 68.9556 1.27028 -1.90779 0
M  V30 679 C 69.9556 1.40308 -0.785507 0
M  V30 680 O 71.1456 1.38744 -1.05336 0
M  V30 681 C 68.2776 2.64566 -2.14983 0
M  V30 682 H 69.4706 0.973017 -2.83677 0
M  V30 683 H 67.0236 0.471486 -1.49019 0
M  V30 684 H 67.7586 2.99406 -1.24604 0
M  V30 685 H 67.5436 2.56305 -2.96732 0
M  V30 686 H 69.0336 3.39543 -2.43105 0
M  V30 687 N 69.4707 1.49531 0.497807 0
M  V30 688 C 70.7187 1.58865 1.24926 0
M  V30 689 C 71.0397 0.278721 1.92998 0
M  V30 690 O 70.3097 -0.702144 1.82885 0
M  V30 691 H 68.8897 0.585343 0.464094 0
M  V30 692 H 71.5517 1.86174 0.57666 0
M  V30 693 H 70.6477 2.38633 2.01149 0
M  V30 694 N 70.9488 -0.749086 1.3866 0
M  V30 695 C 71.8818 -1.87111 1.30631 0
M  V30 696 C 72.8598 -1.61572 0.18251 0
M  V30 697 O 74.0438 -1.85019 0.360592 0
M  V30 698 C 71.1708 -3.22815 1.02511 0
M  V30 699 C 70.2168 -3.67234 2.1689 0
M  V30 700 S 71.0498 -3.78245 3.79066 0
M  V30 701 C 72.2058 -5.16761 3.53142 0
M  V30 702 H 72.4388 -1.93636 2.25594 0
M  V30 703 H 69.9718 -0.912525 1.24549 0
M  V30 704 H 71.9298 -4.01181 0.869701 0
M  V30 705 H 70.5908 -3.13964 0.0925884 0
M  V30 706 H 69.7838 -4.65677 1.92771 0
M  V30 707 H 69.3858 -2.96034 2.28561 0
M  V30 708 H 71.6778 -6.02656 3.09534 0
M  V30 709 H 72.6208 -5.45902 4.50995 0
M  V30 710 H 73.0288 -4.85771 2.87554 0
M  V30 711 N 72.4269 -1.23603 -0.977757 0
M  V30 712 C 73.3569 -1.04401 -2.0886 0
M  V30 713 C 74.3379 0.0399052 -1.70053 0
M  V30 714 O 75.5229 -0.125246 -1.93796 0
M  V30 715 C 72.6529 -0.637269 -3.41403 0
M  V30 716 C 71.6069 -1.66883 -3.94124 0
M  V30 717 C 70.9329 -1.11745 -5.22893 0
M  V30 718 C 72.2329 -3.06247 -4.23096 0
M  V30 719 H 73.9269 -1.97316 -2.25182 0
M  V30 720 H 71.4729 -0.950096 -1.08209 0
M  V30 721 H 73.4259 -0.48998 -4.18542 0
M  V30 722 H 72.1499 0.327557 -3.24953 0
M  V30 723 H 70.8089 -1.80416 -3.19133 0
M  V30 724 H 70.4569 -0.143527 -5.02795 0
M  V30 725 H 70.1569 -1.80672 -5.59134 0
M  V30 726 H 71.6809 -0.982067 -6.02651 0
M  V30 727 H 73.0949 -2.96001 -4.90975 0
M  V30 728 H 71.4919 -3.72436 -4.70544 0
M  V30 729 H 72.5619 -3.55041 -3.30263 0
M  V30 730 N 73.905 1.17692 -1.04816 0
M  V30 731 C 75.153 1.87488 -0.754497 0
M  V30 732 C 75.474 1.81205 0.720407 0
M  V30 733 O 74.744 1.23544 1.52032 0
M  V30 734 H 73.324 0.694101 -0.276102 0
M  V30 735 H 75.986 1.42793 -1.32651 0
M  V30 736 H 75.082 2.93328 -1.06606 0
M  V30 737 N 75.3831 0.828654 1.34056 0
M  V30 738 C 76.3461 0.259927 2.27721 0
M  V30 739 C 77.3461 -0.565478 1.50529 0
M  V30 740 O 78.5361 -0.38075 1.69988 0
M  V30 741 C 75.6681 -0.634944 3.34935 0
M  V30 742 H 76.8611 1.0863 2.79534 0
M  V30 743 H 74.4141 0.600951 1.44285 0
M  V30 744 H 75.1491 -1.48416 2.88346 0
M  V30 745 H 74.9341 -0.0444999 3.92075 0
M  V30 746 H 76.4241 -1.02648 4.04788 0
M  V30 747 N 76.8612 -1.46375 0.584142 0
M  V30 748 C 77.8112 -2.27371 -0.169232 0
M  V30 749 C 78.7952 -1.35955 -0.860523 0
M  V30 750 O 79.9872 -1.60119 -0.754382 0
M  V30 751 C 77.1162 -3.22334 -1.18134 0
M  V30 752 C 76.2022 -4.21235 -0.492088 0
M  V30 753 N 76.5932 -5.03766 0.453129 0
M  V30 754 C 74.8912 -4.39773 -0.742652 0
M  V30 755 C 75.5922 -5.75366 0.85609 0
M  V30 756 N 74.5682 -5.43214 0.204926 0
M  V30 757 H 78.3702 -2.88572 0.557097 0
M  V30 758 H 75.8842 -1.57242 0.406042 0
M  V30 759 H 77.8812 -3.79071 -1.73525 0
M  V30 760 H 76.5412 -2.62693 -1.90847 0
M  V30 761 H 77.5522 -5.11227 0.828723 0
M  V30 762 H 74.2292 -3.91279 -1.45625 0
M  V30 763 H 75.6192 -6.5172 1.63434 0
M  V30 764 N 78.3393 -0.321999 -1.54275 0
M  V30 765 C 79.3023 0.531975 -2.22941 0
M  V30 766 C 80.3023 1.04478 -1.22234 0
M  V30 767 O 81.4923 0.937452 -1.46825 0
M  V30 768 C 78.6243 1.73874 -2.93224 0
M  V30 769 H 79.8173 -0.0682612 -2.99822 0
M  V30 770 H 77.3703 -0.0730644 -1.56129 0
M  V30 771 H 78.1053 2.37825 -2.20476 0
M  V30 772 H 77.8903 1.37847 -3.6707 0
M  V30 773 H 79.3803 2.34496 -3.45545 0
M  V30 774 N 79.8174 1.5752 -0.0501392 0
M  V30 775 C 80.7274 2.14952 0.939827 0
M  V30 776 C 81.7434 1.10706 1.34239 0
M  V30 777 O 82.9194 1.42869 1.41952 0
M  V30 778 C 79.9844 2.68232 2.19665 0
M  V30 779 C 79.0454 3.87272 1.85253 0
M  V30 780 C 78.2784 4.38002 3.04943 0
M  V30 781 O 78.5014 3.87811 4.18281 0
M  V30 782 O 77.4354 5.29602 2.86017 0
M  V30 783 H 81.2614 2.9986 0.481392 0
M  V30 784 H 78.8464 1.4841 0.171699 0
M  V30 785 H 80.7284 3.02475 2.93406 0
M  V30 786 H 79.4034 1.86395 2.64648 0
M  V30 787 H 78.3104 3.5792 1.0883 0
M  V30 788 H 79.6434 4.70336 1.4507 0
M  V30 789 N 81.2955 -0.223234 1.56011 0
M  V30 790 C 82.5355 -0.954962 1.8072 0
M  V30 791 C 82.8995 -1.81598 0.623384 0
M  V30 792 O 84.1005 -2.58132 0.749745 0
M  V30 793 C 82.3715 -1.77313 3.10314 0
M  V30 794 S 83.9305 -2.56073 3.56332 0
M  V30 795 H 80.7485 -0.320812 0.634508 0
M  V30 796 H 83.3505 -0.220686 1.9425 0
M  V30 797 H 82.0545 -1.13071 3.94516 0
M  V30 798 H 81.5855 -2.54974 2.99586 0
M  V30 799 H 83.6005 -3.79619 3.19536 0
M  V30 800 N 82.7736 -1.49793 -0.48987 0
M  V30 801 C 83.6836 -1.70036 -1.61632 0
M  V30 802 C 84.6996 -0.583102 -1.63939 0
M  V30 803 O 85.8756 -0.859169 -1.82154 0
M  V30 804 C 82.9406 -1.77277 -2.97949 0
M  V30 805 C 82.0016 -3.00918 -3.06181 0
M  V30 806 C 81.2346 -3.07804 -4.35996 0
M  V30 807 O 81.4576 -2.21982 -5.25433 0
M  V30 808 O 80.3916 -4.00369 -4.49431 0
M  V30 809 H 84.2176 -2.65486 -1.47482 0
M  V30 810 H 81.8026 -1.33666 -0.667362 0
M  V30 811 H 83.6846 -1.84329 -3.78947 0
M  V30 812 H 82.3596 -0.850076 -3.12339 0
M  V30 813 H 81.2666 -2.99377 -2.2433 0
M  V30 814 H 82.5996 -3.92704 -2.96723 0
M  V30 815 N 84.2517 0.741722 -1.39055 0
M  V30 816 C 85.1617 1.88621 -1.39496 0
M  V30 817 C 86.1777 1.71557 -0.290578 0
M  V30 818 O 87.3537 1.94275 -0.530954 0
M  V30 819 C 84.4187 3.24134 -1.23037 0
M  V30 820 C 83.4797 3.5364 -2.43387 0
M  V30 821 C 82.7127 4.82687 -2.27703 0
M  V30 822 O 82.9357 5.55922 -1.27696 0
M  V30 823 O 81.8697 5.1194 -3.16545 0
M  V30 824 H 85.6957 1.91203 -2.35956 0
M  V30 825 H 83.2807 0.888625 -1.20099 0
M  V30 826 H 85.1627 4.0513 -1.15964 0
M  V30 827 H 83.8377 3.22337 -0.296691 0
M  V30 828 H 82.7447 2.72758 -2.56035 0
M  V30 829 H 84.0777 3.60209 -3.35425 0
M  V30 830 N 85.7298 1.2412 0.971189 0
M  V30 831 C 87.1458 1.00584 1.23916 0
M  V30 832 C 87.3458 -0.287481 1.99439 0
M  V30 833 O 86.4018 -1.00454 2.31658 0
M  V30 834 C 87.7148 2.21864 2.0297 0
M  V30 835 C 89.2628 2.26452 2.16076 0
M  V30 836 C 89.7378 3.47343 2.98524 0
M  V30 837 N 91.2288 3.47639 3.06107 0
M  V30 838 C 91.9638 4.37837 3.70251 0
M  V30 839 N 91.4598 5.38286 4.36142 0
M  V30 840 N 93.2528 4.25558 3.67228 0
M  V30 841 H 85.4038 2.07236 0.465499 0
M  V30 842 H 87.6668 0.909236 0.268315 0
M  V30 843 H 87.3728 3.15771 1.54861 0
M  V30 844 H 87.2468 2.23698 3.03709 0
M  V30 845 H 89.6338 1.33078 2.6339 0
M  V30 846 H 89.7148 2.28645 1.14696 0
M  V30 847 H 89.3588 4.41029 2.51905 0
M  V30 848 H 89.2888 3.42393 4.00093 0
M  V30 849 H 91.7798 2.74966 2.59233 0
M  V30 850 H 92.0928 6.03352 4.82894 0
M  V30 851 H 90.4378 5.42176 4.34822 0
M  V30 852 H 93.6288 3.46322 3.14927 0
M  V30 853 H 93.8018 4.96054 4.16935 0
M  V30 854 N 87.2079 -1.17134 1.05439 0
M  V30 855 C 88.4849 -1.83411 0.679699 0
M  V30 856 C 88.8649 -1.9368 -0.839726 0
M  V30 857 O 88.2129 -1.47325 -1.74664 0
M  V30 858 C 88.4229 -3.20918 1.37159 0
M  V30 859 C 89.7709 -3.96796 1.51123 0
M  V30 860 O 90.7949 -3.30406 1.3308 0
M  V30 861 O 89.6539 -5.15778 1.80651 0
M  V30 862 H 86.7479 -0.79154 0.239569 0
M  V30 863 H 89.2939 -1.24411 1.15413 0
M  V30 864 H 88.0659 -3.08428 2.40807 0
M  V30 865 H 87.6889 -3.87587 0.886674 0
M  V30 866 N 88.686 -0.835752 -1.33615 0
M  V30 867 C 89.649 -0.272 -2.2758 0
M  V30 868 C 90.649 0.557487 -1.50827 0
M  V30 869 O 91.839 0.37173 -1.70188 0
M  V30 870 C 88.971 0.617173 -3.35267 0
M  V30 871 H 90.164 -1.10111 -2.78954 0
M  V30 872 H 87.717 -0.608594 -1.43965 0
M  V30 873 H 88.452 1.46884 -2.89129 0
M  V30 874 H 88.237 0.0237066 -3.92093 0
M  V30 875 H 89.727 1.005 -4.05326 0
M  V30 876 N 90.1641 1.46063 -0.591896 0
M  V30 877 C 91.4111 2.02338 -0.0809991 0
M  V30 878 C 91.7391 1.46228 1.28249 0
M  V30 879 O 90.9941 0.620818 1.85592 0
M  V30 880 C 91.2931 3.57391 0.0249813 0
M  V30 881 C 90.9591 4.32583 -1.27211 0
M  V30 882 C 89.6211 4.52844 -1.62745 0
M  V30 883 C 91.9731 4.75687 -2.13005 0
M  V30 884 C 89.3011 5.13462 -2.83855 0
M  V30 885 C 91.6531 5.37644 -3.3335 0
M  V30 886 C 90.3171 5.5613 -3.69155 0
M  V30 887 H 89.5871 0.740407 -0.0296397 0
M  V30 888 H 92.2341 1.75321 -0.770374 0
M  V30 889 H 90.5391 3.83597 0.797537 0
M  V30 890 H 92.2361 3.98621 0.436184 0
M  V30 891 H 88.8261 4.17116 -0.985499 0
M  V30 892 H 93.0101 4.59782 -1.86855 0
M  V30 893 H 88.2661 5.25965 -3.11722 0
M  V30 894 H 92.4401 5.7 -4.00092 0
M  V30 895 H 90.0671 6.0287 -4.63089 0
M  V30 896 N 91.6422 0.330177 1.54103 0
M  V30 897 C 92.8892 -0.270405 2.00686 0
M  V30 898 C 93.2172 -1.51621 1.21825 0
M  V30 899 O 92.4722 -1.93536 0.29025 0
M  V30 900 C 92.7712 -0.643134 3.51566 0
M  V30 901 C 92.4372 0.504251 4.48072 0
M  V30 902 C 91.0992 0.819163 4.74176 0
M  V30 903 C 93.4512 1.27465 5.05373 0
M  V30 904 C 90.7792 1.90708 5.5484 0
M  V30 905 C 93.1312 2.35271 5.87223 0
M  V30 906 C 91.7952 2.67336 6.11627 0
M  V30 907 H 91.0652 -0.0989482 0.734364 0
M  V30 908 H 93.7122 0.455324 1.86008 0
M  V30 909 H 92.0172 -1.44938 3.64006 0
M  V30 910 H 93.7142 -1.11949 3.85056 0
M  V30 911 H 90.3042 0.248733 4.27878 0
M  V30 912 H 94.4882 1.04462 4.85182 0
M  V30 913 H 89.7442 2.15991 5.71977 0
M  V30 914 H 93.9182 2.95405 6.30641 0
M  V30 915 H 91.5452 3.51763 6.73919 0
M  V30 916 N 93.1203 -1.57491 0.0584922 0
M  V30 917 C 94.3973 -1.84346 -0.653918 0
M  V30 918 C 94.7773 -0.948355 -1.88599 0
M  V30 919 O 94.1253 -0.0112403 -2.28497 0
M  V30 920 C 94.3353 -3.34239 -1.00425 0
M  V30 921 C 95.6833 -4.01431 -1.38342 0
M  V30 922 O 96.7073 -3.38907 -1.09637 0
M  V30 923 O 95.5663 -5.11683 -1.91943 0
M  V30 924 H 92.6603 -0.761112 -0.323478 0
M  V30 925 H 95.2063 -1.6947 0.0884125 0
M  V30 926 H 93.9783 -3.91089 -0.128625 0
M  V30 927 H 93.6013 -3.54329 -1.80378 0
M  V30 928 N 94.5984 0.214957 -1.56127 0
M  V30 929 C 95.8454 0.938372 -1.79446 0
M  V30 930 C 96.1734 1.8407 -0.628378 0
M  V30 931 O 95.4284 1.91837 0.386925 0
M  V30 932 C 95.7274 1.80314 -3.0858 0
M  V30 933 C 95.3934 1.05349 -4.3842 0
M  V30 934 C 94.0554 0.846435 -4.73697 0
M  V30 935 C 96.4074 0.524588 -5.18553 0
M  V30 936 C 93.7354 0.098683 -5.86617 0
M  V30 937 C 96.0874 -0.209853 -6.32252 0
M  V30 938 C 94.7514 -0.428102 -6.66126 0
M  V30 939 H 94.0214 0.343375 -0.656639 0
M  V30 940 H 96.6684 0.206077 -1.90388 0
M  V30 941 H 94.9734 2.6035 -2.92789 0
M  V30 942 H 96.6704 2.36513 -3.23825 0
M  V30 943 H 93.2604 1.22486 -4.10725 0
M  V30 944 H 97.4444 0.672008 -4.91729 0
M  V30 945 H 92.7004 -0.0805753 -6.11347 0
M  V30 946 H 96.8744 -0.627157 -6.9357 0
M  V30 947 H 94.5014 -1.00944 -7.53468 0
M  V30 948 N 96.0765 1.50051 0.48192 0
M  V30 949 C 97.0395 1.67584 1.5636 0
M  V30 950 C 98.0395 0.546894 1.51214 0
M  V30 951 O 99.2295 0.813725 1.54026 0
M  V30 952 C 96.3615 1.691 2.96003 0
M  V30 953 H 97.5545 2.64078 1.42136 0
M  V30 954 H 95.1075 1.39369 0.707533 0
M  V30 955 H 95.8425 0.742589 3.15684 0
M  V30 956 H 95.6275 2.51105 3.01146 0
M  V30 957 H 97.1175 1.84656 3.74556 0
M  V30 958 N 97.5546 -0.734337 1.39446 0
M  V30 959 C 98.4876 -1.85715 1.32609 0
M  V30 960 C 99.4656 -1.6137 0.199636 0
M  V30 961 O 100.65 -1.84626 0.380195 0
M  V30 962 C 97.7766 -3.21709 1.05929 0
M  V30 963 C 96.8226 -3.64913 2.20773 0
M  V30 964 S 97.6556 -3.74203 3.83056 0
M  V30 965 C 98.8116 -5.12986 3.58603 0
M  V30 966 H 99.0446 -1.91232 2.27635 0
M  V30 967 H 96.5776 -0.899263 1.25509 0
M  V30 968 H 98.5356 -4.00236 0.912203 0
M  V30 969 H 97.1966 -3.13848 0.125883 0
M  V30 970 H 96.3896 -4.63606 1.97699 0
M  V30 971 H 95.9916 -2.93593 2.31688 0
M  V30 972 H 98.2836 -5.99339 3.15909 0
M  V30 973 H 99.2266 -5.41088 4.5676 0
M  V30 974 H 99.6346 -4.82694 2.9269 0
M  V30 975 N 99.0327 -1.24633 -0.964593 0
M  V30 976 C 99.9827 -1.00841 -2.04487 0
M  V30 977 C 100.967 0.0512468 -1.60818 0
M  V30 978 O 102.159 -0.162865 -1.76249 0
M  V30 979 C 99.2877 -0.618474 -3.37683 0
M  V30 980 C 98.3737 -1.71437 -3.87905 0
M  V30 981 N 98.7647 -2.9477 -4.11029 0
M  V30 982 C 97.0627 -1.5926 -4.16596 0
M  V30 983 C 97.7637 -3.65834 -4.52261 0
M  V30 984 N 96.7397 -2.9341 -4.57615 0
M  V30 985 H 100.542 -1.94487 -2.20345 0
M  V30 986 H 98.0557 -1.14805 -1.14863 0
M  V30 987 H 100.053 -0.429247 -4.14684 0
M  V30 988 H 98.7127 0.310766 -3.23209 0
M  V30 989 H 99.7237 -3.30917 -3.9839 0
M  V30 990 H 96.4007 -0.731606 -4.1104 0
M  V30 991 H 97.7907 -4.71646 -4.78539 0
M  V30 992 N 100.511 1.16574 -1.06058 0
M  V30 993 C 101.736 1.91493 -0.796562 0
M  V30 994 C 102.161 1.76773 0.642868 0
M  V30 995 O 101.519 1.09142 1.44768 0
M  V30 996 C 101.567 3.40293 -1.19303 0
M  V30 997 O 100.671 4.11074 -0.330394 0
M  V30 998 H 100.012 0.596678 -0.291326 0
M  V30 999 H 102.542 1.47708 -1.41575 0
M  V30 1000 H 102.552 3.91057 -1.16356 0
M  V30 1001 H 101.227 3.50326 -2.24153 0
M  V30 1002 H 99.8038 3.70513 -0.421225 0
M  V30 1003 N 101.989 0.842826 1.3317 0
M  V30 1004 C 102.921 0.236245 2.27979 0
M  V30 1005 C 103.934 -0.585282 1.51915 0
M  V30 1006 O 105.123 -0.411705 1.73687 0
M  V30 1007 C 102.223 -0.685717 3.3189 0
M  V30 1008 C 101.396 0.0973448 4.37292 0
M  V30 1009 C 100.455 -0.748565 5.20848 0
M  V30 1010 O 99.4809 -0.186339 5.68895 0
M  V30 1011 N 100.683 -2.06527 5.42519 0
M  V30 1012 H 103.448 1.05088 2.80672 0
M  V30 1013 H 101.009 0.701667 1.45905 0
M  V30 1014 H 103.001 -1.25669 3.84694 0
M  V30 1015 H 101.571 -1.40105 2.79445 0
M  V30 1016 H 100.791 0.849706 3.84933 0
M  V30 1017 H 102.079 0.635643 5.04814 0
M  V30 1018 H 101.477 -2.54554 5.05192 0
M  V30 1019 H 100.034 -2.58464 5.98364 0
M  V30 1020 N 103.467 -1.45747 0.599634 0
M  V30 1021 C 104.883 -1.57424 0.26264 0
M  V30 1022 C 105.083 -1.59222 -1.23493 0
M  V30 1023 O 104.139 -1.51825 -2.01756 0
M  V30 1024 C 105.452 -2.86061 0.926795 0
M  V30 1025 C 107 -2.99722 0.901967 0
M  V30 1026 C 107.475 -4.31119 1.54598 0
M  V30 1027 N 108.966 -4.37858 1.5111 0
M  V30 1028 C 109.701 -5.3818 1.97863 0
M  V30 1029 N 109.197 -6.45083 2.52666 0
M  V30 1030 N 110.99 -5.29487 1.88679 0
M  V30 1031 H 103.141 -1.42823 1.57211 0
M  V30 1032 H 105.404 -0.68235 0.658105 0
M  V30 1033 H 105.11 -2.90605 1.98095 0
M  V30 1034 H 104.984 -3.74563 0.445238 0
M  V30 1035 H 107.371 -2.9475 -0.143617 0
M  V30 1036 H 107.452 -2.12652 1.42171 0
M  V30 1037 H 107.096 -4.36849 2.59085 0
M  V30 1038 H 107.026 -5.16992 1.00132 0
M  V30 1039 H 109.517 -3.61209 1.11068 0
M  V30 1040 H 109.83 -7.17869 2.86155 0
M  V30 1041 H 108.175 -6.45856 2.56701 0
M  V30 1042 H 111.366 -4.44877 1.4561 0
M  V30 1043 H 111.539 -6.07524 2.25429 0
M  V30 1044 N 104.945 -0.338344 -1.53925 0
M  V30 1045 C 105.875 0.51328 -2.27789 0
M  V30 1046 C 106.856 1.107 -1.29149 0
M  V30 1047 O 108.041 1.12937 -1.57984 0
M  V30 1048 C 105.171 1.66697 -3.04679 0
M  V30 1049 C 104.125 1.20183 -4.1078 0
M  V30 1050 C 103.451 2.44363 -4.75595 0
M  V30 1051 C 104.751 0.30605 -5.21403 0
M  V30 1052 H 106.445 -0.102883 -2.99223 0
M  V30 1053 H 103.991 -0.0509219 -1.4391 0
M  V30 1054 H 105.944 2.26915 -3.55088 0
M  V30 1055 H 104.668 2.30995 -2.30887 0
M  V30 1056 H 103.327 0.622499 -3.61276 0
M  V30 1057 H 102.975 3.07057 -3.98403 0
M  V30 1058 H 102.675 2.13925 -5.47275 0
M  V30 1059 H 104.199 3.05317 -5.28786 0
M  V30 1060 H 105.613 0.814929 -5.67478 0
M  V30 1061 H 104.01 0.0937929 -6.00027 0
M  V30 1062 H 105.08 -0.65921 -4.80398 0
M  V30 1063 N 106.423 1.57458 -0.0668435 0
M  V30 1064 C 107.653 1.97337 0.611677 0
M  V30 1065 C 108.061 0.943744 1.63982 0
M  V30 1066 O 107.404 -0.0785584 1.83532 0
M  V30 1067 C 107.466 3.33511 1.34205 0
M  V30 1068 C 107.13 4.54598 0.467941 0
M  V30 1069 C 108.127 5.19186 -0.272439 0
M  V30 1070 C 105.812 5.0075 0.39427 0
M  V30 1071 C 107.806 6.28274 -1.07476 0
M  V30 1072 C 105.493 6.09711 -0.411729 0
M  V30 1073 C 106.491 6.73335 -1.14492 0
M  V30 1074 O 106.179 7.80199 -1.93763 0
M  V30 1075 H 105.911 0.654042 0.170893 0
M  V30 1076 H 108.465 2.04961 -0.134289 0
M  V30 1077 H 106.695 3.22487 2.13398 0
M  V30 1078 H 108.384 3.58029 1.91233 0
M  V30 1079 H 109.15 4.84477 -0.225086 0
M  V30 1080 H 105.029 4.51009 0.954569 0
M  V30 1081 H 108.573 6.77866 -1.64755 0
M  V30 1082 H 104.47 6.43854 -0.460664 0
M  V30 1083 H 105.238 7.97053 -1.86142 0
M  V30 1084 N 107.901 -0.206675 1.56239 0
M  V30 1085 C 108.848 -1.25617 1.93621 0
M  V30 1086 C 109.818 -1.45824 0.795274 0
M  V30 1087 O 111.003 -1.59148 1.05245 0
M  V30 1088 C 108.143 -2.59839 2.27107 0
M  V30 1089 C 107.256 -2.47308 3.54207 0
M  V30 1090 C 106.391 -3.74155 3.7707 0
M  V30 1091 C 105.43 -3.56407 4.97635 0
M  V30 1092 N 104.567 -4.75238 5.1681 0
M  V30 1093 H 109.407 -0.930383 2.83104 0
M  V30 1094 H 106.944 -0.448065 1.4011 0
M  V30 1095 H 108.902 -3.38021 2.44535 0
M  V30 1096 H 107.532 -2.90485 1.40778 0
M  V30 1097 H 106.584 -1.60483 3.4489 0
M  V30 1098 H 107.896 -2.30122 4.42544 0
M  V30 1099 H 107.05 -4.60778 3.94675 0
M  V30 1100 H 105.789 -3.94282 2.87042 0
M  V30 1101 H 104.794 -2.68168 4.79964 0
M  V30 1102 H 106.019 -3.37736 5.89161 0
M  V30 1103 H 103.965 -4.95651 4.29728 0
M  V30 1104 H 103.882 -4.60835 5.99306 0
M  V30 1105 H 105.15 -5.63246 5.38864 0
M  V30 1106 N 109.379 -1.50304 -0.473955 0
M  V30 1107 C 110.627 -1.60832 -1.22382 0
M  V30 1108 C 110.948 -0.30939 -1.9253 0
M  V30 1109 O 110.218 0.67296 -1.83978 0
M  V30 1110 H 108.798 -0.592652 -0.454723 0
M  V30 1111 H 111.46 -1.87068 -0.546968 0
M  V30 1112 H 110.556 -2.41803 -1.97327 0
M  V30 1113 N 110.857 0.726932 -1.39834 0
M  V30 1114 C 111.787 1.85405 -1.41941 0
M  V30 1115 C 112.768 1.67751 -0.281728 0
M  V30 1116 O 113.953 1.8795 -0.488717 0
M  V30 1117 C 111.083 3.23243 -1.2701 0
M  V30 1118 C 110.037 3.55549 -2.38262 0
M  V30 1119 C 109.363 4.9241 -2.08415 0
M  V30 1120 C 110.663 3.577 -3.80589 0
M  V30 1121 H 112.357 1.83899 -2.36266 0
M  V30 1122 H 109.903 0.883349 -1.13723 0
M  V30 1123 H 111.856 4.01775 -1.27103 0
M  V30 1124 H 110.58 3.25296 -0.291564 0
M  V30 1125 H 109.239 2.79351 -2.37399 0
M  V30 1126 H 108.887 4.91052 -1.0898 0
M  V30 1127 H 108.587 5.14992 -2.82943 0
M  V30 1128 H 110.111 5.73289 -2.10171 0
M  V30 1129 H 111.525 4.26293 -3.83337 0
M  V30 1130 H 109.922 3.91804 -4.54543 0
M  V30 1131 H 110.992 2.57328 -4.10987 0
M  V30 1132 N 112.336 1.25143 0.95797 0
M  V30 1133 C 113.584 1.09476 1.69881 0
M  V30 1134 C 113.905 -0.365502 1.91544 0
M  V30 1135 O 113.175 -1.25985 1.50015 0
M  V30 1136 H 111.755 0.402128 0.629525 0
M  V30 1137 H 114.417 1.57214 1.15194 0
M  V30 1138 H 113.513 1.60046 2.6794 0
M  V30 1139 N 113.814 -1.1601 1.06675 0
M  V30 1140 C 114.724 -2.24156 0.692179 0
M  V30 1141 C 115.74 -1.71507 -0.293513 0
M  V30 1142 O 116.916 -2.009 -0.141861 0
M  V30 1143 C 113.981 -3.46587 0.0884131 0
M  V30 1144 C 113.042 -4.14257 1.12646 0
M  V30 1145 C 112.275 -5.30844 0.551416 0
M  V30 1146 O 112.498 -5.66858 -0.634656 0
M  V30 1147 O 111.432 -5.87848 1.29298 0
M  V30 1148 H 115.258 -2.58513 1.59388 0
M  V30 1149 H 112.843 -1.23599 0.83926 0
M  V30 1150 H 114.725 -4.20679 -0.246361 0
M  V30 1151 H 113.4 -3.13994 -0.786712 0
M  V30 1152 H 112.307 -3.42118 1.51348 0
M  V30 1153 H 113.64 -4.50914 1.97325 0
M  V30 1154 N 115.292 -0.849877 -1.32721 0
M  V30 1155 C 116.202 -0.293791 -2.32753 0
M  V30 1156 C 117.218 0.585906 -1.63839 0
M  V30 1157 O 118.394 0.487413 -1.95413 0
M  V30 1158 C 115.459 0.512752 -3.42887 0
M  V30 1159 C 114.52 -0.39252 -4.27502 0
M  V30 1160 C 113.753 0.375625 -5.32377 0
M  V30 1161 O 113.976 1.60613 -5.4732 0
M  V30 1162 O 112.91 -0.256094 -6.01355 0
M  V30 1163 H 116.736 -1.12242 -2.82197 0
M  V30 1164 H 114.321 -0.612685 -1.36259 0
M  V30 1165 H 116.203 0.970704 -4.10067 0
M  V30 1166 H 114.878 1.31826 -2.95641 0
M  V30 1167 H 113.785 -0.898547 -3.63149 0
M  V30 1168 H 115.118 -1.16309 -4.7826 0
M  V30 1169 N 116.77 1.45427 -0.607355 0
M  V30 1170 C 117.7 2.3329 0.0989352 0
M  V30 1171 C 118.681 1.46816 0.859007 0
M  V30 1172 O 119.866 1.75588 0.829604 0
M  V30 1173 C 116.996 3.29518 1.09705 0
M  V30 1174 C 115.95 4.25626 0.450206 0
M  V30 1175 C 115.276 5.11542 1.55655 0
M  V30 1176 C 116.576 5.18505 -0.628455 0
M  V30 1177 H 118.27 2.92595 -0.634716 0
M  V30 1178 H 115.816 1.40696 -0.306681 0
M  V30 1179 H 117.769 3.89855 1.59971 0
M  V30 1180 H 116.493 2.68372 1.86129 0
M  V30 1181 H 115.152 3.66586 -0.0315886 0
M  V30 1182 H 114.8 4.46765 2.31107 0
M  V30 1183 H 114.5 5.76647 1.12925 0
M  V30 1184 H 116.024 5.74748 2.06148 0
M  V30 1185 H 117.438 5.72916 -0.209877 0
M  V30 1186 H 115.835 5.92085 -0.977489 0
M  V30 1187 H 116.905 4.60948 -1.50514 0
M  V30 1188 N 118.248 0.346503 1.53744 0
M  V30 1189 C 119.478 -0.250047 2.05081 0
M  V30 1190 C 119.886 -1.44529 1.22098 0
M  V30 1191 O 119.229 -1.81992 0.249917 0
M  V30 1192 C 119.291 -0.725934 3.52094 0
M  V30 1193 C 118.955 0.350053 4.55657 0
M  V30 1194 C 119.952 1.19372 5.0601 0
M  V30 1195 C 117.637 0.504827 4.99757 0
M  V30 1196 C 119.631 2.17768 5.99046 0
M  V30 1197 C 117.318 1.49218 5.92602 0
M  V30 1198 C 118.316 2.32706 6.42135 0
M  V30 1199 O 118.004 3.2976 7.33153 0
M  V30 1200 H 117.736 -0.0515469 0.674032 0
M  V30 1201 H 120.29 0.497559 1.99282 0
M  V30 1202 H 118.52 -1.52483 3.55367 0
M  V30 1203 H 120.209 -1.24336 3.86388 0
M  V30 1204 H 120.975 1.08525 4.72702 0
M  V30 1205 H 116.854 -0.135178 4.60802 0
M  V30 1206 H 120.398 2.82971 6.37631 0
M  V30 1207 H 116.295 1.6012 6.25325 0
M  V30 1208 H 117.063 3.25265 7.51096 0
M  V30 1209 N 119.726 -1.57421 0.075193 0
M  V30 1210 C 120.689 -2.11791 -0.876203 0
M  V30 1211 C 121.689 -1.04268 -1.22412 0
M  V30 1212 O 122.879 -1.30242 -1.15684 0
M  V30 1213 C 120.011 -2.62207 -2.17854 0
M  V30 1214 H 121.204 -2.9716 -0.40444 0
M  V30 1215 H 118.757 -1.55333 -0.173557 0
M  V30 1216 H 119.492 -1.803 -2.6956 0
M  V30 1217 H 119.277 -3.40802 -1.93897 0
M  V30 1218 H 120.767 -3.04335 -2.85955 0
M  V30 1219 N 121.204 0.198386 -1.56346 0
M  V30 1220 C 122.134 1.24865 -1.9731 0
M  V30 1221 C 123.115 1.47651 -0.844576 0
M  V30 1222 O 124.3 1.59444 -1.10866 0
M  V30 1223 C 121.43 2.59358 -2.30977 0
M  V30 1224 C 120.384 2.5119 -3.46537 0
M  V30 1225 C 119.71 3.89926 -3.65871 0
M  V30 1226 C 121.01 2.03977 -4.80823 0
M  V30 1227 H 122.704 0.908252 -2.85291 0
M  V30 1228 H 120.25 0.435462 -1.37258 0
M  V30 1229 H 122.203 3.33011 -2.58228 0
M  V30 1230 H 120.927 2.95132 -1.39874 0
M  V30 1231 H 119.586 1.79993 -3.19371 0
M  V30 1232 H 119.234 4.23046 -2.72105 0
M  V30 1233 H 118.934 3.85336 -4.4361 0
M  V30 1234 H 120.458 4.65205 -3.95495 0
M  V30 1235 H 121.872 2.67386 -5.07127 0
M  V30 1236 H 120.269 2.10397 -5.62008 0
M  V30 1237 H 121.339 0.992861 -4.74626 0
M  V30 1238 N 122.682 1.50554 0.465978 0
M  V30 1239 C 123.907 1.65838 1.24549 0
M  V30 1240 C 124.332 0.343486 1.84937 0
M  V30 1241 O 123.69 -0.69324 1.67523 0
M  V30 1242 C 123.738 2.75533 2.32624 0
M  V30 1243 O 122.842 2.37142 3.37398 0
M  V30 1244 H 122.183 0.553893 0.366194 0
M  V30 1245 H 124.713 1.96959 0.553927 0
M  V30 1246 H 124.723 2.98763 2.77857 0
M  V30 1247 H 123.398 3.70962 1.88043 0
M  V30 1248 H 121.975 2.24377 2.97841 0
M  V30 1249 N 124.16 -0.719506 1.40217 0
M  V30 1250 C 125.408 -1.47641 1.3801 0
M  V30 1251 C 125.729 -1.94992 -0.018145 0
M  V30 1252 O 124.999 -1.70073 -0.972207 0
M  V30 1253 H 123.579 -0.547744 0.507923 0
M  V30 1254 H 126.241 -0.853187 1.75233 0
M  V30 1255 H 125.337 -2.35112 2.05253 0
M  V30 1256 N 125.638 -1.25649 -0.95132 0
M  V30 1257 C 126.884 -1.10757 -1.69884 0
M  V30 1258 C 127.217 0.350061 -1.91019 0
M  V30 1259 O 126.492 1.25783 -1.48354 0
M  V30 1260 C 126.775 -1.86606 -3.07978 0
M  V30 1261 C 126.628 -3.40217 -2.94232 0
M  V30 1262 C 127.947 -1.65182 -4.07925 0
M  V30 1263 H 125.066 -0.40374 -0.616574 0
M  V30 1264 H 127.708 -1.54521 -1.10558 0
M  V30 1265 H 125.858 -1.49409 -3.58621 0
M  V30 1266 H 127.53 -3.87108 -2.50889 0
M  V30 1267 H 125.773 -3.67759 -2.30078 0
M  V30 1268 H 126.444 -3.88505 -3.92133 0
M  V30 1269 H 128.92 -1.9757 -3.66204 0
M  V30 1270 H 127.796 -2.20683 -5.02583 0
M  V30 1271 H 128.057 -0.593933 -4.38092 0
M  V30 1272 N 127.117 1.15442 -1.07289 0
M  V30 1273 C 128.394 1.82306 -0.708792 0
M  V30 1274 C 128.774 1.94991 0.808807 0
M  V30 1275 O 128.122 1.50085 1.72298 0
M  V30 1276 C 128.332 3.18695 -1.42247 0
M  V30 1277 C 129.68 3.94341 -1.57417 0
M  V30 1278 O 130.704 3.28247 -1.38319 0
M  V30 1279 O 129.563 5.12839 -1.88834 0
M  V30 1280 H 126.657 0.787628 -0.252132 0
M  V30 1281 H 129.203 1.22559 -1.17377 0
M  V30 1282 H 127.975 3.04557 -2.45684 0
M  V30 1283 H 127.598 3.86128 -0.948223 0
M  V30 1284 N 128.595 0.856903 1.32268 0
M  V30 1285 C 129.844 0.457599 1.96441 0
M  V30 1286 C 130.157 -0.992426 1.68553 0
M  V30 1287 O 131.363 -1.49727 2.26482 0
M  V30 1288 C 129.819 0.767358 3.51624 0
M  V30 1289 C 129.427 2.23326 3.88367 0
M  V30 1290 C 131.171 0.435887 4.22256 0
M  V30 1291 C 129.078 2.48613 5.36606 0
M  V30 1292 H 128.008 0.167387 0.735185 0
M  V30 1293 H 130.659 1.048 1.5063 0
M  V30 1294 H 129.041 0.106367 3.95857 0
M  V30 1295 H 130.215 2.93623 3.55137 0
M  V30 1296 H 128.53 2.52948 3.30766 0
M  V30 1297 H 131.127 0.602202 5.31298 0
M  V30 1298 H 131.47 -0.622672 4.11617 0
M  V30 1299 H 132.003 1.05286 3.83614 0
M  V30 1300 H 128.742 3.53101 5.52268 0
M  V30 1301 H 128.262 1.82896 5.71235 0
M  V30 1302 H 129.941 2.32676 6.03714 0
M  V30 1303 N 130.073 -1.45103 0.615059 0
M  V30 1304 C 131.489 -1.57137 0.279322 0
M  V30 1305 C 131.689 -1.60523 -1.21797 0
M  V30 1306 O 130.745 -1.53956 -2.00134 0
M  V30 1307 C 132.058 -2.85062 0.957083 0
M  V30 1308 C 133.606 -2.98749 0.933706 0
M  V30 1309 C 134.081 -4.29455 1.59162 0
M  V30 1310 N 135.572 -4.36231 1.55746 0
M  V30 1311 C 136.307 -5.36051 2.0356 0
M  V30 1312 N 135.803 -6.42367 2.59494 0
M  V30 1313 N 137.596 -5.27456 1.94284 0
M  V30 1314 H 129.747 -1.41148 1.58717 0
M  V30 1315 H 132.01 -0.675331 0.665306 0
M  V30 1316 H 131.716 -2.88488 2.01166 0
M  V30 1317 H 131.59 -3.7407 0.48494 0
M  V30 1318 H 133.977 -2.94886 -0.112347 0
M  V30 1319 H 134.058 -2.11132 1.44419 0
M  V30 1320 H 133.702 -4.34077 2.63704 0
M  V30 1321 H 133.632 -5.15901 1.0561 0
M  V30 1322 H 136.123 -3.60011 1.14893 0
M  V30 1323 H 136.436 -7.14793 2.93752 0
M  V30 1324 H 134.781 -6.43097 2.63537 0
M  V30 1325 H 137.972 -4.43308 1.5032 0
M  V30 1326 H 138.145 -6.05099 2.3186 0
M  V30 1327 N 131.551 -0.354651 -1.53558 0
M  V30 1328 C 132.483 0.5315 -2.22952 0
M  V30 1329 C 133.496 1.05503 -1.23988 0
M  V30 1330 O 134.685 0.963279 -1.50277 0
M  V30 1331 C 131.785 1.74538 -2.90499 0
M  V30 1332 C 130.958 1.35524 -4.15875 0
M  V30 1333 C 130.017 2.42999 -4.66731 0
M  V30 1334 O 129.043 2.05844 -5.30676 0
M  V30 1335 N 130.245 3.74423 -4.43608 0
M  V30 1336 H 133.01 -0.0628615 -2.99634 0
M  V30 1337 H 130.571 -0.179302 -1.60904 0
M  V30 1338 H 132.563 2.45892 -3.21433 0
M  V30 1339 H 131.133 2.24686 -2.17336 0
M  V30 1340 H 130.353 0.471998 -3.91364 0
M  V30 1341 H 131.641 1.07071 -4.97406 0
M  V30 1342 H 131.039 4.07391 -3.92491 0
M  V30 1343 H 129.596 4.41913 -4.7912 0
M  V30 1344 N 133.029 1.57378 -0.0835403 0
M  V30 1345 C 133.979 2.09916 0.889905 0
M  V30 1346 C 134.963 1.01151 1.25129 0
M  V30 1347 O 136.155 1.27443 1.2283 0
M  V30 1348 C 133.284 2.67379 2.15322 0
M  V30 1349 C 132.37 3.83167 1.81779 0
M  V30 1350 N 132.761 4.91665 1.18739 0
M  V30 1351 C 131.059 3.92685 2.11459 0
M  V30 1352 C 131.76 5.72409 1.0355 0
M  V30 1353 N 130.736 5.21062 1.54906 0
M  V30 1354 H 134.538 2.91188 0.398378 0
M  V30 1355 H 132.052 1.61956 0.120013 0
M  V30 1356 H 134.049 3.0334 2.8599 0
M  V30 1357 H 132.709 1.87558 2.65051 0
M  V30 1358 H 133.72 5.10784 0.855604 0
M  V30 1359 H 130.397 3.23856 2.63483 0
M  V30 1360 H 131.787 6.69699 0.543425 0
M  V30 1361 N 134.507 -0.190092 1.56449 0
M  V30 1362 C 135.455 -1.25501 1.95837 0
M  V30 1363 C 136.449 -1.4685 0.844485 0
M  V30 1364 O 137.655 -1.47651 1.02952 0
M  V30 1365 H 134.03 -0.421447 0.622805 0
M  V30 1366 H 136.001 -0.895821 2.84636 0
M  V30 1367 C 134.75 -2.59124 2.31841 0
M  V30 1368 H 134.073 -2.43514 3.17082 0
M  V30 1369 H 135.513 -3.32371 2.6326 0
M  V30 1370 C 133.972 -3.16488 1.15486 0
M  V30 1371 O 134.502 -3.99365 0.432535 0
M  V30 1372 N 132.708 -2.75305 0.930349 0
M  V30 1373 H 132.255 -2.08013 1.51948 0
M  V30 1374 H 132.213 -3.14024 0.153634 0
M  V30 1375 N 135.985 -1.50799 -0.457987 0
M  V30 1376 C 137.233 -1.62121 -1.2067 0
M  V30 1377 C 137.554 -0.329793 -1.92191 0
M  V30 1378 O 136.824 0.653409 -1.84682 0
M  V30 1379 H 135.404 -0.597441 -0.448411 0
M  V30 1380 H 138.066 -1.87637 -0.527096 0
M  V30 1381 H 137.162 -2.43882 -1.94751 0
M  V30 1382 N 137.463 0.71206 -1.40597 0
M  V30 1383 C 138.711 1.46907 -1.38791 0
M  V30 1384 C 139.032 1.94998 0.00780391 0
M  V30 1385 O 138.302 1.70587 0.963174 0
M  V30 1386 H 136.882 0.545043 -0.51082 0
M  V30 1387 H 139.544 0.843882 -1.75683 0
M  V30 1388 H 138.64 2.34021 -2.06496 0
M  V30 1389 N 138.941 1.26152 0.944643 0
M  V30 1390 C 139.874 1.01729 2.04271 0
M  V30 1391 C 140.852 -0.0568101 1.62501 0
M  V30 1392 O 142.036 0.0848987 1.88309 0
M  V30 1393 C 139.163 0.539792 3.34371 0
M  V30 1394 C 138.209 1.60593 3.9511 0
M  V30 1395 S 139.042 3.19392 4.29825 0
M  V30 1396 C 140.198 2.73402 5.63029 0
M  V30 1397 H 140.431 1.94703 2.24673 0
M  V30 1398 H 137.964 1.09793 1.08558 0
M  V30 1399 H 139.922 0.270956 4.09605 0
M  V30 1400 H 138.583 -0.369609 3.11918 0
M  V30 1401 H 137.776 1.22275 4.88943 0
M  V30 1402 H 137.378 1.82596 3.26397 0
M  V30 1403 H 139.67 2.1765 6.41588 0
M  V30 1404 H 140.613 3.65913 6.06229 0
M  V30 1405 H 141.021 2.13077 5.22741 0
M  V30 1406 N 140.419 -1.14872 1.07899 0
M  V30 1407 C 141.666 -1.85789 0.805532 0
M  V30 1408 C 141.994 -1.82649 -0.668561 0
M  V30 1409 O 141.249 -1.24858 -1.50695 0
M  V30 1410 C 141.548 -3.34223 1.26609 0
M  V30 1411 C 141.214 -3.57555 2.74709 0
M  V30 1412 C 139.876 -3.63631 3.1516 0
M  V30 1413 C 142.228 -3.66803 3.70277 0
M  V30 1414 C 139.556 -3.76473 4.49983 0
M  V30 1415 C 141.908 -3.8117 5.04869 0
M  V30 1416 C 140.572 -3.85494 5.44932 0
M  V30 1417 H 139.842 -0.679849 0.294765 0
M  V30 1418 H 142.489 -1.3572 1.35101 0
M  V30 1419 H 140.794 -3.86536 0.640103 0
M  V30 1420 H 142.491 -3.87511 1.03132 0
M  V30 1421 H 139.081 -3.5347 2.42398 0
M  V30 1422 H 143.265 -3.61404 3.40149 0
M  V30 1423 H 138.521 -3.7808 4.80484 0
M  V30 1424 H 142.695 -3.87268 5.78789 0
M  V30 1425 H 140.322 -3.95197 6.49403 0
M  V30 1426 N 141.898 -0.863906 -1.31812 0
M  V30 1427 C 142.845 -0.313303 -2.28664 0
M  V30 1428 C 143.815 0.584868 -1.55462 0
M  V30 1429 O 145 0.517805 -1.83639 0
M  V30 1430 C 142.14 0.48441 -3.41683 0
M  V30 1431 C 141.253 -0.440594 -4.29747 0
M  V30 1432 C 140.388 0.370652 -5.29905 0
M  V30 1433 C 139.427 -0.551164 -6.09613 0
M  V30 1434 N 138.564 0.223462 -7.01744 0
M  V30 1435 H 143.404 -1.14444 -2.75148 0
M  V30 1436 H 140.941 -0.575769 -1.35364 0
M  V30 1437 H 142.899 0.962627 -4.05943 0
M  V30 1438 H 141.529 1.28029 -2.96325 0
M  V30 1439 H 140.581 -1.03724 -3.65986 0
M  V30 1440 H 141.893 -1.14767 -4.85417 0
M  V30 1441 H 141.047 0.911638 -5.99812 0
M  V30 1442 H 139.786 1.11105 -4.74876 0
M  V30 1443 H 138.791 -1.10396 -5.38603 0
M  V30 1444 H 140.016 -1.29032 -6.66729 0
M  V30 1445 H 137.962 0.946787 -6.49132 0
M  V30 1446 H 137.879 -0.424399 -7.54808 0
M  V30 1447 H 139.147 0.745876 -7.75923 0
M  V30 1448 N 143.376 1.44774 -0.622745 0
M  V30 1449 C 144.306 2.33382 0.0741861 0
M  V30 1450 C 145.287 1.47719 0.843387 0
M  V30 1451 O 146.472 1.76458 0.810934 0
M  V30 1452 C 143.602 3.30663 1.06204 0
M  V30 1453 C 142.556 4.26079 0.405037 0
M  V30 1454 C 141.882 5.13165 1.5022 0
M  V30 1455 C 143.182 5.1781 -0.683414 0
M  V30 1456 H 144.876 2.91905 -0.665713 0
M  V30 1457 H 142.422 1.40363 -0.321587 0
M  V30 1458 H 144.375 3.9153 1.55827 0
M  V30 1459 H 143.099 2.70331 1.83272 0
M  V30 1460 H 141.758 3.66532 -0.0704683 0
M  V30 1461 H 141.406 4.49191 2.26355 0
M  V30 1462 H 141.106 5.77812 1.06803 0
M  V30 1463 H 142.63 5.76902 2.00041 0
M  V30 1464 H 144.044 5.72661 -0.270631 0
M  V30 1465 H 142.441 5.91015 -1.04023 0
M  V30 1466 H 143.511 4.59326 -1.55395 0
M  V30 1467 N 144.854 0.36279 1.53368 0
M  V30 1468 C 145.817 -0.472679 2.24273 0
M  V30 1469 C 146.817 -1.012 1.24961 0
M  V30 1470 O 148.007 -0.898194 1.49259 0
M  V30 1471 C 145.139 -1.66039 2.97731 0
M  V30 1472 H 146.332 0.14773 2.99536 0
M  V30 1473 H 143.885 0.114434 1.55881 0
M  V30 1474 H 144.62 -2.31896 2.26704 0
M  V30 1475 H 144.405 -1.28066 3.70596 0
M  V30 1476 H 145.895 -2.25252 3.51641 0
M  V30 1477 N 146.332 -1.57332 0.0918853 0
M  V30 1478 C 147.579 -1.94236 -0.572577 0
M  V30 1479 C 147.907 -0.973398 -1.6839 0
M  V30 1480 O 147.162 0.00756912 -1.95699 0
M  V30 1481 C 147.461 -3.37689 -1.17051 0
M  V30 1482 C 147.127 -4.50527 -0.183304 0
M  V30 1483 C 145.789 -4.81119 0.0882276 0
M  V30 1484 C 148.141 -5.18883 0.49095 0
M  V30 1485 C 145.469 -5.77395 1.04076 0
M  V30 1486 C 147.821 -6.1618 1.43193 0
M  V30 1487 C 146.485 -6.45179 1.71173 0
M  V30 1488 H 145.755 -0.710762 -0.209521 0
M  V30 1489 H 148.402 -1.9077 0.167036 0
M  V30 1490 H 146.707 -3.37718 -1.9863 0
M  V30 1491 H 148.404 -3.63543 -1.69227 0
M  V30 1492 H 144.994 -4.26681 -0.405124 0
M  V30 1493 H 149.178 -4.95427 0.294312 0
M  V30 1494 H 144.434 -5.98179 1.26457 0
M  V30 1495 H 148.608 -6.68243 1.96023 0
M  V30 1496 H 146.235 -7.1959 2.4514 0
M  V30 1497 N 147.81 0.181792 -1.56548 0
M  V30 1498 C 149.035 0.920019 -1.85877 0
M  V30 1499 C 149.46 1.75494 -0.677021 0
M  V30 1500 O 148.818 1.77399 0.374056 0
M  V30 1501 C 148.866 1.78112 -3.13542 0
M  V30 1502 O 147.97 2.88152 -2.95029 0
M  V30 1503 H 147.311 0.258334 -0.611686 0
M  V30 1504 H 149.841 0.183092 -2.03779 0
M  V30 1505 H 149.851 2.18314 -3.44678 0
M  V30 1506 H 148.526 1.16777 -3.99169 0
M  V30 1507 H 147.103 2.51609 -2.75222 0
M  V30 1508 N 149.288 1.51039 0.449983 0
M  V30 1509 C 150.198 1.74261 1.57067 0
M  V30 1510 C 151.214 0.626363 1.62335 0
M  V30 1511 O 152.39 0.907162 1.79812 0
M  V30 1512 C 149.455 1.85114 2.93144 0
M  V30 1513 C 148.516 3.0893 2.98095 0
M  V30 1514 C 147.749 3.19256 4.27681 0
M  V30 1515 O 147.972 2.35835 5.19363 0
M  V30 1516 O 146.906 4.12144 4.38658 0
M  V30 1517 H 150.732 2.69303 1.40391 0
M  V30 1518 H 148.317 1.35389 0.631688 0
M  V30 1519 H 150.199 1.94311 3.73926 0
M  V30 1520 H 148.874 0.932588 3.09975 0
M  V30 1521 H 147.781 3.0522 2.16314 0
M  V30 1522 H 149.114 4.00433 2.86206 0
M  V30 1523 N 150.766 -0.704594 1.40972 0
M  V30 1524 C 151.676 -1.84856 1.44448 0
M  V30 1525 C 152.692 -1.70726 0.335961 0
M  V30 1526 O 153.868 -1.92799 0.582276 0
M  V30 1527 C 150.933 -3.20758 1.31587 0
M  V30 1528 C 149.994 -3.47063 2.52677 0
M  V30 1529 C 149.227 -4.76481 2.4042 0
M  V30 1530 O 149.45 -5.52341 1.42391 0
M  V30 1531 O 148.384 -5.03367 3.30007 0
M  V30 1532 H 152.21 -1.8488 2.40942 0
M  V30 1533 H 149.795 -0.85647 1.22413 0
M  V30 1534 H 151.677 -4.01913 1.26665 0
M  V30 1535 H 150.352 -3.21438 0.382049 0
M  V30 1536 H 149.259 -2.65873 2.63177 0
M  V30 1537 H 150.592 -3.5119 3.44858 0
M  V30 1538 N 152.244 -1.26651 -0.937939 0
M  V30 1539 C 153.521 -1.0313 -1.66204 0
M  V30 1540 C 153.901 0.437256 -2.06522 0
M  V30 1541 O 153.249 1.41831 -1.79154 0
M  V30 1542 C 153.459 -1.98314 -2.87181 0
M  V30 1543 C 154.807 -2.27107 -3.58758 0
M  V30 1544 O 155.831 -1.96205 -2.97291 0
M  V30 1545 O 154.69 -2.79736 -4.69479 0
M  V30 1546 H 151.784 -0.392384 -0.727986 0
M  V30 1547 H 154.33 -1.37874 -0.989382 0
M  V30 1548 H 153.102 -2.97399 -2.54302 0
M  V30 1549 H 152.725 -1.64068 -3.6217 0
M  V30 1550 N 153.722 1.14298 -1.08507 0
M  V30 1551 C 154.968 1.85633 -0.816581 0
M  V30 1552 C 155.301 1.82784 0.656021 0
M  V30 1553 O 154.576 1.25926 1.48233 0
M  V30 1554 C 154.859 3.34223 -1.34041 0
M  V30 1555 C 154.712 3.45639 -2.87843 0
M  V30 1556 C 156.031 4.29356 -0.9665 0
M  V30 1557 H 153.15 0.67402 -0.298104 0
M  V30 1558 H 155.792 1.34214 -1.34487 0
M  V30 1559 H 153.942 3.78144 -0.89104 0
M  V30 1560 H 155.614 3.10498 -3.41158 0
M  V30 1561 H 153.857 2.86817 -3.25451 0
M  V30 1562 H 154.528 4.50089 -3.19569 0
M  V30 1563 H 157.004 3.93457 -1.35391 0
M  V30 1564 H 155.88 5.3178 -1.3602 0
M  V30 1565 H 156.141 4.41919 0.126362 0
M  V30 1566 N 155.201 0.870884 1.31352 0
M  V30 1567 C 156.131 0.343096 2.30966 0
M  V30 1568 C 157.112 -0.566507 1.60389 0
M  V30 1569 O 158.297 -0.483336 1.88089 0
M  V30 1570 C 155.427 -0.455487 3.443 0
M  V30 1571 C 154.381 0.361103 4.26474 0
M  V30 1572 C 153.707 -0.563221 5.31725 0
M  V30 1573 C 155.007 1.59566 4.97329 0
M  V30 1574 H 156.701 1.17548 2.75359 0
M  V30 1575 H 154.247 0.566686 1.32381 0
M  V30 1576 H 156.2 -0.83525 4.13039 0
M  V30 1577 H 154.924 -1.32139 2.98675 0
M  V30 1578 H 153.583 0.722825 3.59403 0
M  V30 1579 H 153.231 -1.42643 4.82351 0
M  V30 1580 H 152.931 -0.0207409 5.87596 0
M  V30 1581 H 154.455 -0.939808 6.03324 0
M  V30 1582 H 155.869 1.28728 5.58661 0
M  V30 1583 H 154.266 2.07728 5.63 0
M  V30 1584 H 155.336 2.34798 4.24262 0
M  V30 1585 N 156.679 -1.44442 0.630414 0
M  V30 1586 C 157.611 -2.2892 -0.113347 0
M  V30 1587 C 158.624 -1.41243 -0.80959 0
M  V30 1588 O 159.813 -1.65402 -0.671156 0
M  V30 1589 C 156.913 -3.17594 -1.18266 0
M  V30 1590 C 156.086 -4.33682 -0.569073 0
M  V30 1591 C 155.145 -5.03397 -1.53226 0
M  V30 1592 O 154.171 -5.59438 -1.04967 0
M  V30 1593 N 155.373 -5.04783 -2.86661 0
M  V30 1594 H 158.138 -2.93392 0.611636 0
M  V30 1595 H 155.699 -1.54881 0.471523 0
M  V30 1596 H 157.691 -3.61097 -1.82732 0
M  V30 1597 H 156.261 -2.54876 -1.80988 0
M  V30 1598 H 155.481 -3.9338 0.254187 0
M  V30 1599 H 156.769 -5.08608 -0.139767 0
M  V30 1600 H 156.167 -4.60584 -3.28449 0
M  V30 1601 H 154.724 -5.52077 -3.46489 0
M  V30 1602 N 158.157 -0.370918 -1.53173 0
M  V30 1603 C 159.087 0.464847 -2.28826 0
M  V30 1604 C 160.068 1.07936 -1.31468 0
M  V30 1605 O 161.253 1.0956 -1.60344 0
M  V30 1606 C 158.383 1.60196 -3.08147 0
M  V30 1607 C 157.337 1.11443 -4.13237 0
M  V30 1608 C 156.663 2.3422 -4.80672 0
M  V30 1609 C 157.963 0.195384 -5.21934 0
M  V30 1610 H 159.657 -0.166329 -2.98938 0
M  V30 1611 H 157.203 -0.0814359 -1.4377 0
M  V30 1612 H 159.156 2.19332 -3.59822 0
M  V30 1613 H 157.88 2.26045 -2.35735 0
M  V30 1614 H 156.539 0.545727 -3.62515 0
M  V30 1615 H 156.187 2.98537 -4.04827 0
M  V30 1616 H 155.887 2.02269 -5.51689 0
M  V30 1617 H 157.411 2.94032 -5.35143 0
M  V30 1618 H 158.825 0.694375 -5.69079 0
M  V30 1619 H 157.222 -0.0335027 -6.00091 0
M  V30 1620 H 158.292 -0.760961 -4.78892 0
M  V30 1621 N 159.635 1.57281 -0.100228 0
M  V30 1622 C 161.051 1.57527 0.256416 0
M  V30 1623 C 161.251 1.11173 1.68056 0
M  V30 1624 O 160.307 0.79053 2.39806 0
M  V30 1625 C 161.62 3.00673 0.0401747 0
M  V30 1626 C 163.168 3.12815 0.107528 0
M  V30 1627 C 163.643 4.57929 -0.0807834 0
M  V30 1628 N 165.134 4.63193 -0.0261207 0
M  V30 1629 C 165.869 5.73212 -0.146999 0
M  V30 1630 N 165.365 6.92047 -0.322999 0
M  V30 1631 N 167.158 5.62031 -0.0879044 0
M  V30 1632 H 159.309 1.85718 -1.03065 0
M  V30 1633 H 161.572 0.857446 -0.404339 0
M  V30 1634 H 161.278 3.38804 -0.943649 0
M  V30 1635 H 161.152 3.69042 0.780262 0
M  V30 1636 H 163.539 2.74554 1.08186 0
M  V30 1637 H 163.62 2.47028 -0.664134 0
M  V30 1638 H 163.264 4.96886 -1.05201 0
M  V30 1639 H 163.194 5.21783 0.710635 0
M  V30 1640 H 165.685 3.77748 0.107161 0
M  V30 1641 H 165.998 7.7173 -0.406608 0
M  V30 1642 H 164.343 6.94074 -0.358733 0
M  V30 1643 H 167.534 4.68075 0.048498 0
M  V30 1644 H 167.707 6.47734 -0.185557 0
M  V30 1645 N 161.113 -0.173488 1.56642 0
M  V30 1646 C 162.045 -1.23935 1.92802 0
M  V30 1647 C 163.058 -1.40589 0.820889 0
M  V30 1648 O 164.247 -1.40631 1.09933 0
M  V30 1649 C 161.347 -2.60837 2.16373 0
M  V30 1650 C 160.52 -2.6551 3.47596 0
M  V30 1651 C 159.579 -3.8376 3.60021 0
M  V30 1652 O 158.605 -3.69859 4.32658 0
M  V30 1653 N 159.807 -5.00127 2.94709 0
M  V30 1654 H 162.572 -0.932236 2.84832 0
M  V30 1655 H 160.133 -0.363268 1.57772 0
M  V30 1656 H 162.125 -3.38407 2.21952 0
M  V30 1657 H 160.695 -2.83948 1.30738 0
M  V30 1658 H 159.915 -1.74052 3.53694 0
M  V30 1659 H 161.203 -2.65641 4.33949 0
M  V30 1660 H 160.601 -5.14322 2.35563 0
M  V30 1661 H 159.158 -5.75567 3.05886 0
M  V30 1662 N 162.591 -1.51276 -0.441967 0
M  V30 1663 C 163.524 -1.66933 -1.55591 0
M  V30 1664 C 164.502 -0.516958 -1.54163 0
M  V30 1665 O 165.686 -0.740209 -1.73358 0
M  V30 1666 C 162.813 -1.67866 -2.94174 0
M  V30 1667 C 161.859 -2.89013 -3.13646 0
M  V30 1668 S 162.692 -4.49897 -2.90436 0
M  V30 1669 C 163.848 -4.53568 -4.31308 0
M  V30 1670 H 164.081 -2.61155 -1.42076 0
M  V30 1671 H 161.614 -1.40902 -0.631341 0
M  V30 1672 H 163.572 -1.69089 -3.74058 0
M  V30 1673 H 162.233 -0.748296 -3.05056 0
M  V30 1674 H 161.426 -2.86054 -4.14957 0
M  V30 1675 H 161.028 -2.85509 -2.4158 0
M  V30 1676 H 163.32 -4.28924 -5.24434 0
M  V30 1677 H 164.263 -5.55355 -4.39303 0
M  V30 1678 H 164.671 -3.82943 -4.14747 0
M  V30 1679 N 164.069 0.697108 -1.41344 0
M  V30 1680 C 165.346 1.45154 -1.31109 0
M  V30 1681 C 165.726 2.11009 0.0620449 0
M  V30 1682 O 165.074 2.01571 1.07618 0
M  V30 1683 C 165.284 2.47223 -2.46337 0
M  V30 1684 C 166.632 3.1252 -2.87431 0
M  V30 1685 O 167.656 2.57547 -2.46065 0
M  V30 1686 O 166.515 4.12083 -3.58957 0
M  V30 1687 H 163.609 0.646365 -0.515889 0
M  V30 1688 H 166.155 0.727716 -1.53305 0
M  V30 1689 H 164.927 1.97204 -3.37974 0
M  V30 1690 H 164.55 3.27116 -2.2601 0
M  V30 1691 N 165.547 1.27147 0.931209 0
M  V30 1692 C 166.824 1.0401 1.65654 0
M  V30 1693 C 167.204 -0.426297 2.06751 0
M  V30 1694 O 166.552 -1.40879 1.79904 0
M  V30 1695 C 166.762 1.99834 2.86125 0
M  V30 1696 C 168.11 2.29007 3.57549 0
M  V30 1697 O 169.134 1.97779 2.96246 0
M  V30 1698 O 167.993 2.82222 4.67989 0
M  V30 1699 H 165.087 0.396239 0.725895 0
M  V30 1700 H 167.633 1.38397 0.982056 0
M  V30 1701 H 166.405 2.98744 2.52721 0
M  V30 1702 H 166.028 1.65987 3.61295 0
M  V30 1703 N 167.025 -1.13721 1.09112 0
M  V30 1704 C 167.955 -2.21148 0.749385 0
M  V30 1705 C 168.936 -1.6792 -0.271475 0
M  V30 1706 O 170.121 -1.93693 -0.140251 0
M  V30 1707 C 167.251 -3.46905 0.165659 0
M  V30 1708 C 166.205 -4.13203 1.11567 0
M  V30 1709 C 165.531 -5.33248 0.393809 0
M  V30 1710 C 166.831 -4.60912 2.45678 0
M  V30 1711 H 168.525 -2.4999 1.64758 0
M  V30 1712 H 166.071 -1.20156 0.793626 0
M  V30 1713 H 168.024 -4.21313 -0.085466 0
M  V30 1714 H 166.748 -3.17449 -0.767714 0
M  V30 1715 H 165.407 -3.40758 1.35202 0
M  V30 1716 H 165.055 -5.00054 -0.543599 0
M  V30 1717 H 164.755 -5.78552 1.02721 0
M  V30 1718 H 166.279 -6.10413 0.150908 0
M  V30 1719 H 167.693 -5.26759 2.26269 0
M  V30 1720 H 166.09 -5.16944 3.04776 0
M  V30 1721 H 167.16 -3.75603 3.06677 0
M  V30 1722 N 168.503 -0.877838 -1.30888 0
M  V30 1723 C 169.78 -0.413052 -1.91189 0
M  V30 1724 C 170.16 1.1056 -1.79832 0
M  V30 1725 O 169.508 1.93771 -1.21099 0
M  V30 1726 C 169.718 -0.903191 -3.3711 0
M  V30 1727 C 171.066 -0.93395 -4.14201 0
M  V30 1728 O 172.09 -0.849373 -3.45925 0
M  V30 1729 O 170.949 -1.05772 -5.36167 0
M  V30 1730 H 168.043 -0.125035 -0.817493 0
M  V30 1731 H 170.589 -0.966269 -1.39504 0
M  V30 1732 H 169.361 -1.94692 -3.39427 0
M  V30 1733 H 168.984 -0.328732 -3.96239 0
M  V30 1734 N 169.982 1.44106 -0.638065 0
M  V30 1735 C 171.207 2.0685 -0.150916 0
M  V30 1736 C 171.632 1.47417 1.16833 0
M  V30 1737 O 170.99 0.578264 1.71831 0
M  V30 1738 C 171.038 3.60555 -0.05708 0
M  V30 1739 O 170.142 4.00465 0.984972 0
M  V30 1740 H 169.483 0.658151 -0.0879399 0
M  V30 1741 H 172.013 1.84865 -0.876707 0
M  V30 1742 H 172.023 4.07789 0.131232 0
M  V30 1743 H 170.698 4.03193 -1.02021 0
M  V30 1744 H 169.275 3.64849 0.770672 0
M  V30 1745 N 171.46 0.379036 1.52974 0
M  V30 1746 C 172.706 -0.206727 2.01744 0
M  V30 1747 C 173.039 -1.47314 1.26539 0
M  V30 1748 O 172.314 -1.91084 0.362903 0
M  V30 1749 C 172.597 -0.485066 3.56818 0
M  V30 1750 C 172.45 0.795919 4.42702 0
M  V30 1751 C 173.769 -1.28003 4.21074 0
M  V30 1752 H 170.888 -0.0736607 0.73331 0
M  V30 1753 H 173.53 0.506581 1.83122 0
M  V30 1754 H 171.68 -1.09272 3.72816 0
M  V30 1755 H 173.352 1.43307 4.38476 0
M  V30 1756 H 171.595 1.41344 4.10127 0
M  V30 1757 H 172.266 0.555947 5.49193 0
M  V30 1758 H 174.742 -0.765867 4.08991 0
M  V30 1759 H 173.618 -1.44352 5.29579 0
M  V30 1760 H 173.879 -2.29236 3.78026 0
M  V30 1761 N 172.938 -1.57226 0.108567 0
M  V30 1762 C 174.163 -1.99604 -0.563303 0
M  V30 1763 C 174.588 -0.987563 -1.6009 0
M  V30 1764 O 173.946 0.0421687 -1.81251 0
M  V30 1765 C 173.994 -3.40902 -1.17552 0
M  V30 1766 O 173.098 -3.42896 -2.2912 0
M  V30 1767 H 172.439 -0.648704 -0.1417 0
M  V30 1768 H 174.969 -2.03679 0.193961 0
M  V30 1769 H 174.979 -3.78886 -1.51357 0
M  V30 1770 H 173.654 -4.1382 -0.415445 0
M  V30 1771 H 172.231 -3.1672 -1.96832 0
M  V30 1772 N 174.416 0.165178 -1.56732 0
M  V30 1773 C 175.662 0.877389 -1.83503 0
M  V30 1774 C 176.017 1.79602 -0.689996 0
M  V30 1775 O 175.31 1.89023 0.313205 0
M  V30 1776 C 175.504 1.70405 -3.1416 0
M  V30 1777 C 175.333 0.866961 -4.41264 0
M  V30 1778 C 174.103 0.539646 -5.0241 0
M  V30 1779 C 176.301 0.205671 -5.13889 0
M  V30 1780 N 174.283 -0.312946 -6.13102 0
M  V30 1781 C 175.654 -0.507823 -6.17917 0
M  V30 1782 C 177.709 0.124468 -4.97744 0
M  V30 1783 C 176.412 -1.29483 -7.0755 0
M  V30 1784 C 178.438 -0.649222 -5.87826 0
M  V30 1785 C 177.8 -1.35106 -6.91322 0
M  V30 1786 H 173.899 0.299477 -0.722383 0
M  V30 1787 H 176.483 0.143949 -1.94167 0
M  V30 1788 H 174.654 2.40887 -3.04677 0
M  V30 1789 H 176.386 2.35804 -3.28905 0
M  V30 1790 H 173.141 0.871176 -4.65519 0
M  V30 1791 H 173.565 -0.729731 -6.73056 0
M  V30 1792 H 178.207 0.652724 -4.17731 0
M  V30 1793 H 175.925 -1.83441 -7.87004 0
M  V30 1794 H 179.511 -0.713804 -5.77405 0
M  V30 1795 H 178.391 -1.94013 -7.59821 0
M  V30 1796 N 175.894 1.51508 0.433938 0
M  V30 1797 C 177.124 1.67914 1.20369 0
M  V30 1798 C 177.532 0.377461 1.85397 0
M  V30 1799 O 176.875 -0.654255 1.71654 0
M  V30 1800 C 176.937 2.74045 2.32679 0
M  V30 1801 C 176.601 4.16543 1.87991 0
M  V30 1802 C 177.598 5.01211 1.38145 0
M  V30 1803 C 175.283 4.6266 1.95579 0
M  V30 1804 C 177.277 6.30056 0.964774 0
M  V30 1805 C 174.964 5.91501 1.53523 0
M  V30 1806 C 175.962 6.75027 1.04055 0
M  V30 1807 O 175.65 8.01459 0.625964 0
M  V30 1808 H 175.382 0.566578 0.368735 0
M  V30 1809 H 177.936 1.98709 0.51999 0
M  V30 1810 H 176.166 2.38572 3.04336 0
M  V30 1811 H 177.855 2.79295 2.94532 0
M  V30 1812 H 178.621 4.66783 1.31675 0
M  V30 1813 H 174.5 3.97767 2.33029 0
M  V30 1814 H 178.044 6.95202 0.57796 0
M  V30 1815 H 173.941 6.25442 1.59665 0
M  V30 1816 H 174.709 8.15043 0.751509 0
M  V30 1817 N 177.372 -0.689602 1.41712 0
M  V30 1818 C 178.597 -1.48329 1.44959 0
M  V30 1819 C 179.022 -1.8801 0.0581283 0
M  V30 1820 O 178.38 -1.55026 -0.940035 0
M  V30 1821 C 178.428 -2.71835 2.36935 0
M  V30 1822 O 177.532 -3.69549 1.8305 0
M  V30 1823 H 176.873 -0.446199 0.491734 0
M  V30 1824 H 179.403 -0.847127 1.86239 0
M  V30 1825 H 179.413 -3.20076 2.53013 0
M  V30 1826 H 178.088 -2.42291 3.38035 0
M  V30 1827 H 176.665 -3.2851 1.76452 0
M  V30 1828 N 178.85 -1.27639 -0.924453 0
M  V30 1829 C 179.797 -1.10644 -2.0255 0
M  V30 1830 C 180.767 -0.00658438 -1.66099 0
M  V30 1831 O 181.952 -0.16952 -1.90045 0
M  V30 1832 C 179.092 -0.76309 -3.36557 0
M  V30 1833 C 178.205 -1.94091 -3.85944 0
M  V30 1834 C 177.34 -1.53914 -5.08413 0
M  V30 1835 C 176.379 -2.68425 -5.50104 0
M  V30 1836 N 175.516 -2.28815 -6.63768 0
M  V30 1837 H 180.356 -2.04858 -2.16419 0
M  V30 1838 H 177.893 -1.01974 -1.06017 0
M  V30 1839 H 179.851 -0.544822 -4.13627 0
M  V30 1840 H 178.481 0.142102 -3.22487 0
M  V30 1841 H 177.533 -2.27162 -3.05125 0
M  V30 1842 H 178.845 -2.7998 -4.12811 0
M  V30 1843 H 177.999 -1.28231 -5.92994 0
M  V30 1844 H 176.738 -0.651391 -4.8333 0
M  V30 1845 H 175.743 -2.94819 -4.64071 0
M  V30 1846 H 176.968 -3.57826 -5.7718 0
M  V30 1847 H 174.914 -1.42495 -6.40337 0
M  V30 1848 H 174.831 -3.08242 -6.90306 0
M  V30 1849 H 176.099 -2.06387 -7.51681 0
M  V30 1850 N 180.328 1.1314 -1.09713 0
M  V30 1851 C 181.238 2.22242 -0.751367 0
M  V30 1852 C 182.254 1.72224 0.247938 0
M  V30 1853 O 183.43 2.01205 0.0885463 0
M  V30 1854 C 180.495 3.46231 -0.180274 0
M  V30 1855 C 179.556 4.11125 -1.2359 0
M  V30 1856 C 178.789 5.29195 -0.691966 0
M  V30 1857 O 179.012 5.68342 0.48414 0
M  V30 1858 O 177.946 5.84214 -1.44838 0
M  V30 1859 H 181.772 2.54197 -1.66186 0
M  V30 1860 H 179.357 1.21331 -0.871735 0
M  V30 1861 H 181.239 4.21185 0.134739 0
M  V30 1862 H 179.914 3.1597 0.703185 0
M  V30 1863 H 178.821 3.37985 -1.60366 0
M  V30 1864 H 180.154 4.45524 -2.09211 0
M  V30 1865 N 181.806 0.884767 1.30421 0
M  V30 1866 C 182.716 0.355398 2.31892 0
M  V30 1867 C 183.732 -0.542261 1.65335 0
M  V30 1868 O 184.908 -0.435432 1.96637 0
M  V30 1869 C 181.973 -0.421661 3.44126 0
M  V30 1870 C 181.034 0.505727 4.26311 0
M  V30 1871 C 180.267 -0.234343 5.33185 0
M  V30 1872 O 180.49 -1.46045 5.51386 0
M  V30 1873 O 179.424 0.415443 6.00465 0
M  V30 1874 H 183.25 1.19685 2.79122 0
M  V30 1875 H 180.835 0.648596 1.34587 0
M  V30 1876 H 182.717 -0.861641 4.12497 0
M  V30 1877 H 181.392 -1.23942 2.99032 0
M  V30 1878 H 180.299 0.994513 3.60639 0
M  V30 1879 H 181.632 1.28948 4.75009 0
M  V30 1880 N 183.284 -1.43765 0.645699 0
M  V30 1881 C 184.53 -2.02197 0.156271 0
M  V30 1882 C 184.863 -1.50776 -1.22393 0
M  V30 1883 O 184.138 -0.697771 -1.81553 0
M  V30 1884 C 184.421 -3.59749 0.158872 0
M  V30 1885 C 184.274 -4.21419 1.57245 0
M  V30 1886 C 185.593 -4.37149 -0.50879 0
M  V30 1887 H 182.712 -0.734694 0.0582602 0
M  V30 1888 H 185.354 -1.71157 0.824951 0
M  V30 1889 H 183.504 -3.86325 -0.410525 0
M  V30 1890 H 185.176 -4.059 2.19186 0
M  V30 1891 H 183.419 -3.78356 2.122 0
M  V30 1892 H 184.09 -5.30482 1.52619 0
M  V30 1893 H 186.566 -4.16093 -0.024412 0
M  V30 1894 H 185.442 -5.4683 -0.476213 0
M  V30 1895 H 185.703 -4.12839 -1.58165 0
M  V30 1896 N 184.763 -0.387143 -1.52771 0
M  V30 1897 C 185.693 0.440551 -2.29306 0
M  V30 1898 C 186.674 1.06535 -1.32606 0
M  V30 1899 O 187.859 1.07853 -1.61497 0
M  V30 1900 C 184.989 1.56919 -3.09829 0
M  V30 1901 C 183.943 1.07054 -4.14395 0
M  V30 1902 C 183.269 2.29109 -4.83129 0
M  V30 1903 C 184.569 0.140015 -5.22112 0
M  V30 1904 H 186.263 -0.198026 -2.98744 0
M  V30 1905 H 183.809 -0.09668 -1.43675 0
M  V30 1906 H 185.762 2.15503 -3.62128 0
M  V30 1907 H 184.486 2.23532 -2.3812 0
M  V30 1908 H 183.145 0.507247 -3.63074 0
M  V30 1909 H 182.793 2.94227 -4.0797 0
M  V30 1910 H 182.493 1.96406 -5.53804 0
M  V30 1911 H 184.017 2.88339 -5.38231 0
M  V30 1912 H 185.431 0.633978 -5.69784 0
M  V30 1913 H 183.828 -0.0971485 -6.00021 0
M  V30 1914 H 184.898 -0.811711 -4.78058 0
M  V30 1915 N 186.241 1.57166 -0.116904 0
M  V30 1916 C 187.151 2.18745 0.847812 0
M  V30 1917 C 188.167 1.163 1.29423 0
M  V30 1918 O 189.343 1.48761 1.35765 0
M  V30 1919 C 186.408 2.77307 2.0809 0
M  V30 1920 C 185.469 3.94781 1.68661 0
M  V30 1921 C 184.702 4.50541 2.86091 0
M  V30 1922 O 184.925 4.05202 4.01456 0
M  V30 1923 O 183.859 5.41256 2.63298 0
M  V30 1924 H 187.685 3.01632 0.353778 0
M  V30 1925 H 185.27 1.49005 0.108599 0
M  V30 1926 H 187.152 3.14647 2.80313 0
M  V30 1927 H 185.827 1.97452 2.56504 0
M  V30 1928 H 184.734 3.62214 0.935518 0
M  V30 1929 H 186.067 4.76065 1.24991 0
M  V30 1930 N 187.719 -0.156864 1.56817 0
M  V30 1931 C 188.666 -1.19394 1.97519 0
M  V30 1932 C 189.636 -1.4322 0.841265 0
M  V30 1933 O 190.821 -1.55719 1.10255 0
M  V30 1934 C 187.961 -2.52483 2.35258 0
M  V30 1935 C 187.074 -2.35914 3.61896 0
M  V30 1936 C 186.209 -3.61969 3.88782 0
M  V30 1937 C 185.248 -3.40395 5.08722 0
M  V30 1938 N 184.385 -4.58556 5.31668 0
M  V30 1939 H 189.225 -0.839845 2.85921 0
M  V30 1940 H 186.762 -0.403264 1.41464 0
M  V30 1941 H 188.72 -3.30071 2.55165 0
M  V30 1942 H 187.35 -2.85859 1.49949 0
M  V30 1943 H 186.402 -1.49429 3.49821 0
M  V30 1944 H 187.714 -2.15926 4.49641 0
M  V30 1945 H 186.868 -4.47989 4.09135 0
M  V30 1946 H 185.607 -3.84951 2.9944 0
M  V30 1947 H 184.612 -2.52763 4.88253 0
M  V30 1948 H 185.837 -3.18822 5.99608 0
M  V30 1949 H 183.783 -4.81729 4.45279 0
M  V30 1950 H 183.7 -4.41535 6.13664 0
M  V30 1951 H 184.968 -5.45817 5.5651 0
M  V30 1952 N 189.197 -1.51736 -0.425897 0
M  V30 1953 C 190.107 -1.76738 -1.54275 0
M  V30 1954 C 191.123 -0.65211 -1.61318 0
M  V30 1955 O 192.299 -0.935654 -1.78346 0
M  V30 1956 C 189.364 -1.89755 -2.90162 0
M  V30 1957 C 188.425 -3.13633 -2.93143 0
M  V30 1958 C 187.658 -3.2602 -4.22548 0
M  V30 1959 O 187.881 -2.44067 -5.15546 0
M  V30 1960 O 186.815 -4.19071 -4.32046 0
M  V30 1961 H 190.641 -2.71502 -1.36089 0
M  V30 1962 H 188.226 -1.36376 -0.610069 0
M  V30 1963 H 190.108 -2.00236 -3.70788 0
M  V30 1964 H 188.783 -0.981785 -3.08452 0
M  V30 1965 H 187.69 -3.08622 -2.11431 0
M  V30 1966 H 189.023 -4.04936 -2.798 0
M  V30 1967 N 190.675 0.682077 -1.42076 0
M  V30 1968 C 192.086 1.26246 -1.37546 0
M  V30 1969 C 192.437 1.96092 -0.0651481 0
M  V30 1970 O 191.562 1.99587 0.836297 0
M  V30 1971 C 192.157 2.29594 -2.49143 0
M  V30 1972 C 190.716 2.83175 -2.47969 0
M  V30 1973 C 189.863 1.57395 -2.28303 0
M  V30 1974 H 192.814 0.475937 -1.51395 0
M  V30 1975 H 192.835 3.11175 -2.18976 0
M  V30 1976 H 192.347 1.78729 -3.44496 0
M  V30 1977 H 190.448 3.3818 -1.56413 0
M  V30 1978 H 190.561 3.32687 -3.44755 0
M  V30 1979 H 188.925 1.83699 -1.76428 0
M  V30 1980 H 189.708 1.08507 -3.25701 0
M  V30 1981 N 192.153 1.28127 0.917671 0
M  V30 1982 C 193.383 1.17722 1.6978 0
M  V30 1983 C 193.791 -0.267261 1.87303 0
M  V30 1984 O 193.134 -1.19286 1.39702 0
M  V30 1985 C 193.196 1.79958 3.11216 0
M  V30 1986 C 192.86 3.29187 3.16993 0
M  V30 1987 C 193.857 4.25679 2.98485 0
M  V30 1988 C 191.542 3.70075 3.39632 0
M  V30 1989 C 193.536 5.61035 3.02521 0
M  V30 1990 C 191.223 5.05557 3.433 0
M  V30 1991 C 192.221 6.00847 3.24764 0
M  V30 1992 O 191.909 7.33859 3.28187 0
M  V30 1993 H 191.641 0.409788 0.537634 0
M  V30 1994 H 194.195 1.69694 1.15728 0
M  V30 1995 H 192.425 1.22475 3.66793 0
M  V30 1996 H 194.114 1.64125 3.71238 0
M  V30 1997 H 194.88 3.95426 2.80826 0
M  V30 1998 H 190.759 2.96373 3.53106 0
M  V30 1999 H 194.303 6.35388 2.87971 0
M  V30 2000 H 190.2 5.35462 3.60486 0
M  V30 2001 H 190.968 7.42436 3.44575 0
M  V30 2002 N 193.631 -1.12557 1.10312 0
M  V30 2003 C 194.594 -2.16434 0.75424 0
M  V30 2004 C 195.594 -1.59278 -0.220685 0
M  V30 2005 O 196.784 -1.742 0.00230591 0
M  V30 2006 C 193.916 -3.40699 0.116987 0
M  V30 2007 H 195.109 -2.48811 1.67431 0
M  V30 2008 H 192.662 -1.27542 0.903475 0
M  V30 2009 H 193.397 -3.13921 -0.813877 0
M  V30 2010 H 193.182 -3.83459 0.818613 0
M  V30 2011 H 194.672 -4.17451 -0.111387 0
M  V30 2012 N 195.109 -0.891671 -1.2995 0
M  V30 2013 C 196.334 -0.527932 -2.00568 0
M  V30 2014 C 196.759 0.877969 -1.66353 0
M  V30 2015 O 196.117 1.58301 -0.883762 0
M  V30 2016 C 196.165 -0.717745 -3.53385 0
M  V30 2017 O 195.269 0.233376 -4.11739 0
M  V30 2018 H 194.61 -0.20722 -0.630837 0
M  V30 2019 H 197.14 -1.20105 -1.65638 0
M  V30 2020 H 197.15 -0.619307 -4.03272 0
M  V30 2021 H 195.825 -1.74276 -3.77625 0
M  V30 2022 H 194.402 0.0880706 -3.72796 0
M  V30 2023 N 196.587 1.43421 -0.653314 0
M  V30 2024 C 197.835 2.01414 -0.166415 0
M  V30 2025 C 198.156 1.51803 1.22397 0
M  V30 2026 O 197.426 0.730693 1.81763 0
M  V30 2027 H 196.006 0.744703 -0.0585319 0
M  V30 2028 H 198.668 1.75629 -0.845003 0
M  V30 2029 H 197.764 3.11734 -0.151111 0
M  V30 2030 N 198.065 0.39524 1.52563 0
M  V30 2031 C 199.342 -0.242908 1.94086 0
M  V30 2032 C 199.722 -1.63841 1.33114 0
M  V30 2033 O 199.07 -2.22928 0.501529 0
M  V30 2034 C 199.28 -0.26327 3.48006 0
M  V30 2035 C 200.628 -0.489354 4.21771 0
M  V30 2036 O 201.652 -0.343226 3.54543 0
M  V30 2037 O 200.511 -0.776169 5.4096 0
M  V30 2038 H 197.605 -0.152536 0.812811 0
M  V30 2039 H 200.151 0.450178 1.6362 0
M  V30 2040 H 198.923 0.713985 3.84731 0
M  V30 2041 H 198.546 -1.00103 3.84792 0
M  V30 2042 N 199.544 -1.57102 0.125237 0
M  V30 2043 C 200.793 -1.94582 -0.531095 0
M  V30 2044 C 201.106 -1.01126 -1.6743 0
M  V30 2045 O 202.312 -1.28097 -2.39381 0
M  V30 2046 C 200.768 -3.45839 -0.996164 0
M  V30 2047 C 200.376 -4.47842 0.118926 0
M  V30 2048 C 202.12 -3.92227 -1.62352 0
M  V30 2049 C 200.027 -5.90284 -0.363192 0
M  V30 2050 H 198.957 -0.726391 -0.20217 0
M  V30 2051 H 201.608 -1.82339 0.206092 0
M  V30 2052 H 199.99 -3.53338 -1.78796 0
M  V30 2053 H 201.164 -4.52018 0.895358 0
M  V30 2054 H 199.479 -4.11243 0.653324 0
M  V30 2055 H 202.076 -4.96069 -1.99548 0
M  V30 2056 H 202.419 -3.32552 -2.50429 0
M  V30 2057 H 202.952 -3.87554 -0.897019 0
M  V30 2058 H 199.691 -6.53728 0.481679 0
M  V30 2059 H 199.211 -5.89515 -1.10597 0
M  V30 2060 H 200.89 -6.41752 -0.822377 0
M  V30 2061 N 201.022 0.148545 -1.56898 0
M  V30 2062 C 202.269 0.861418 -1.83264 0
M  V30 2063 C 202.597 1.81239 -0.705883 0
M  V30 2064 O 201.852 1.93305 0.305212 0
M  V30 2065 C 202.151 1.67064 -3.1595 0
M  V30 2066 C 201.817 0.866591 -4.42494 0
M  V30 2067 C 200.479 0.644762 -4.76861 0
M  V30 2068 C 202.831 0.30418 -5.20312 0
M  V30 2069 C 200.159 -0.15021 -5.86508 0
M  V30 2070 C 202.511 -0.477824 -6.30793 0
M  V30 2071 C 201.175 -0.710244 -6.63711 0
M  V30 2072 H 200.445 0.315215 -0.670612 0
M  V30 2073 H 203.092 0.125142 -1.91091 0
M  V30 2074 H 201.397 2.47698 -3.03567 0
M  V30 2075 H 203.094 2.22566 -3.33565 0
M  V30 2076 H 199.684 1.04955 -4.15551 0
M  V30 2077 H 203.868 0.462844 -4.94137 0
M  V30 2078 H 199.124 -0.339796 -6.10455 0
M  V30 2079 H 203.298 -0.92076 -6.90286 0
M  V30 2080 H 200.925 -1.3281 -7.48509 0
M  V30 2081 N 202.5 1.5196 0.417844 0
M  V30 2082 C 203.748 1.65263 1.16329 0
M  V30 2083 C 204.069 0.380634 1.91249 0
M  V30 2084 O 203.339 -0.604214 1.86349 0
M  V30 2085 H 201.919 0.60912 0.432414 0
M  V30 2086 H 204.581 1.88969 0.477162 0
M  V30 2087 H 203.677 2.4896 1.88217 0
M  V30 2088 N 203.978 -0.674533 1.42435 0
M  V30 2089 C 204.941 -1.76986 1.45632 0
M  V30 2090 C 205.941 -1.5708 0.343871 0
M  V30 2091 O 207.131 -1.63367 0.604709 0
M  V30 2092 C 204.263 -3.15623 1.28822 0
M  V30 2093 H 205.456 -1.75539 2.43158 0
M  V30 2094 H 203.009 -0.884189 1.28887 0
M  V30 2095 H 203.744 -3.22696 0.322193 0
M  V30 2096 H 203.529 -3.31475 2.09444 0
M  V30 2097 H 205.019 -3.95537 1.33942 0
M  V30 2098 N 205.456 -1.28612 -0.910864 0
M  V30 2099 C 206.681 -1.1891 -1.69927 0
M  V30 2100 C 207.106 0.248372 -1.86453 0
M  V30 2101 O 206.464 1.17961 -1.37676 0
M  V30 2102 C 206.512 -1.89578 -3.06745 0
M  V30 2103 O 205.616 -1.20521 -3.94396 0
M  V30 2104 H 204.957 -0.412632 -0.520222 0
M  V30 2105 H 207.487 -1.69985 -1.1387 0
M  V30 2106 H 207.497 -1.97597 -3.56958 0
M  V30 2107 H 206.172 -2.94136 -2.94035 0
M  V30 2108 H 204.749 -1.20684 -3.52831 0
M  V30 2109 N 206.934 1.1197 -1.10907 0
M  V30 2110 C 208.181 1.83588 -0.854507 0
M  V30 2111 C 208.509 1.84357 0.6199 0
M  V30 2112 O 207.764 1.28809 1.47332 0
M  V30 2113 C 208.063 3.30749 -1.35425 0
M  V30 2114 C 207.729 3.50146 -2.84093 0
M  V30 2115 C 206.391 3.55148 -3.2469 0
M  V30 2116 C 208.743 3.56857 -3.79872 0
M  V30 2117 C 206.071 3.6441 -4.59806 0
M  V30 2118 C 208.423 3.6765 -5.14797 0
M  V30 2119 C 207.087 3.7091 -5.54961 0
M  V30 2120 H 206.357 0.671795 -0.312686 0
M  V30 2121 H 209.004 1.32091 -1.38652 0
M  V30 2122 H 207.309 3.84703 -0.742361 0
M  V30 2123 H 209.006 3.8464 -1.1337 0
M  V30 2124 H 205.596 3.46919 -2.51685 0
M  V30 2125 H 209.78 3.52258 -3.49611 0
M  V30 2126 H 205.036 3.65208 -4.9034 0
M  V30 2127 H 209.21 3.71786 -5.88853 0
M  V30 2128 H 206.837 3.7784 -6.59652 0
M  V30 2129 N 208.412 0.89855 1.29475 0
M  V30 2130 C 209.661 0.519863 1.94885 0
M  V30 2131 C 209.974 -0.9383 1.71625 0
M  V30 2132 O 211.18 -1.42445 2.31131 0
M  V30 2133 C 209.636 0.878836 3.49005 0
M  V30 2134 C 209.244 2.35569 3.81066 0
M  V30 2135 C 210.988 0.570004 4.20656 0
M  V30 2136 C 208.895 2.65558 5.28425 0
M  V30 2137 H 207.825 0.190692 0.729488 0
M  V30 2138 H 210.476 1.09539 1.47219 0
M  V30 2139 H 208.858 0.232253 3.95318 0
M  V30 2140 H 210.032 3.04773 3.45616 0
M  V30 2141 H 208.347 2.63343 3.22552 0
M  V30 2142 H 210.944 0.770925 5.29113 0
M  V30 2143 H 211.287 -0.491404 4.1339 0
M  V30 2144 H 211.82 1.17438 3.8007 0
M  V30 2145 H 208.559 3.70493 5.40754 0
M  V30 2146 H 208.079 2.00977 5.65127 0
M  V30 2147 H 209.758 2.51765 5.96006 0
M  V30 2148 N 209.89 -1.43072 0.660911 0
M  V30 2149 C 210.822 -2.29108 -0.0647641 0
M  V30 2150 C 211.835 -1.42928 -0.779448 0
M  V30 2151 O 213.024 -1.66788 -0.635921 0
M  V30 2152 C 210.124 -3.20032 -1.11503 0
M  V30 2153 C 209.297 -4.34792 -0.476955 0
M  V30 2154 C 208.356 -5.06534 -1.42513 0
M  V30 2155 O 207.382 -5.61538 -0.930771 0
M  V30 2156 N 208.584 -5.1075 -2.75889 0
M  V30 2157 H 211.349 -2.92029 0.673731 0
M  V30 2158 H 208.91 -1.53846 0.50427 0
M  V30 2159 H 210.902 -3.64892 -1.75032 0
M  V30 2160 H 209.472 -2.58658 -1.75541 0
M  V30 2161 H 208.692 -3.92752 0.337572 0
M  V30 2162 H 209.98 -5.0879 -0.0318525 0
M  V30 2163 H 209.378 -4.67447 -3.18606 0
M  V30 2164 H 207.935 -5.59302 -3.347 0
M  V30 2165 N 211.368 -0.403325 -1.52352 0
M  V30 2166 C 212.645 0.232611 -1.94212 0
M  V30 2167 C 213.025 1.63133 -1.33981 0
M  V30 2168 O 212.373 2.22659 -0.513344 0
M  V30 2169 C 212.583 0.244811 -3.4814 0
M  V30 2170 C 213.931 0.46698 -4.22024 0
M  V30 2171 O 214.955 0.324419 -3.5472 0
M  V30 2172 O 213.814 0.74747 -5.41364 0
M  V30 2173 H 210.908 0.148223 -0.813609 0
M  V30 2174 H 213.454 -0.458848 -1.63379 0
M  V30 2175 H 212.226 -0.734378 -3.84347 0
M  V30 2176 H 211.849 0.980611 -3.85318 0
M  V30 2177 N 212.846 1.57033 -0.133567 0
M  V30 2178 C 214.123 1.87256 0.56522 0
M  V30 2179 C 214.503 1.03726 1.83859 0
M  V30 2180 O 213.851 0.120247 2.28183 0
M  V30 2181 C 214.061 3.3865 0.843636 0
M  V30 2182 C 215.409 4.07574 1.19032 0
M  V30 2183 O 216.433 3.43752 0.933429 0
M  V30 2184 O 215.292 5.20259 1.67312 0
M  V30 2185 H 212.386 0.775678 0.286796 0
M  V30 2186 H 214.932 1.68855 -0.169168 0
M  V30 2187 H 213.704 3.91257 -0.0581149 0
M  V30 2188 H 213.327 3.62532 1.63268 0
M  V30 2189 N 214.325 -0.140222 1.56975 0
M  V30 2190 C 215.571 -0.852949 1.83991 0
M  V30 2191 C 215.904 -1.80512 0.716187 0
M  V30 2192 O 215.179 -1.92479 -0.279681 0
M  V30 2193 C 215.462 -1.6215 3.21527 0
M  V30 2194 C 215.315 -0.690363 4.4447 0
M  V30 2195 C 216.634 -2.58247 3.56366 0
M  V30 2196 H 213.753 -0.308634 0.669264 0
M  V30 2197 H 216.395 -0.117898 1.89634 0
M  V30 2198 H 214.545 -2.24812 3.16847 0
M  V30 2199 H 216.217 -0.0742264 4.6124 0
M  V30 2200 H 214.46 -0.000396433 4.338 0
M  V30 2201 H 215.131 -1.2643 5.37326 0
M  V30 2202 H 217.607 -2.05701 3.61699 0
M  V30 2203 H 216.483 -3.09067 4.53617 0
M  V30 2204 H 216.744 -3.39923 2.82674 0
M  V30 2205 N 215.803 -1.52179 -0.40978 0
M  V30 2206 C 216.753 -1.71857 -1.49831 0
M  V30 2207 C 217.737 -0.572469 -1.50372 0
M  V30 2208 O 218.929 -0.829509 -1.56359 0
M  V30 2209 C 216.058 -1.87206 -2.87765 0
M  V30 2210 C 215.144 -3.07685 -2.91875 0
M  V30 2211 N 215.535 -4.30403 -2.65683 0
M  V30 2212 C 213.833 -3.07505 -3.23043 0
M  V30 2213 C 214.534 -5.11868 -2.76344 0
M  V30 2214 N 213.51 -4.47101 -3.09195 0
M  V30 2215 H 217.312 -2.64381 -1.28375 0
M  V30 2216 H 214.826 -1.50203 -0.617479 0
M  V30 2217 H 216.823 -1.99419 -3.66111 0
M  V30 2218 H 215.483 -0.958814 -3.10221 0
M  V30 2219 H 216.494 -4.58887 -2.4009 0
M  V30 2220 H 213.171 -2.25915 -3.51096 0
M  V30 2221 H 214.561 -6.19634 -2.59814 0
M  V30 2222 N 217.281 0.66697 -1.42791 0
M  V30 2223 C 218.527 1.4291 -1.43891 0
M  V30 2224 C 218.86 1.94114 -0.0578972 0
M  V30 2225 O 218.135 1.71414 0.91911 0
M  V30 2226 C 218.418 2.62049 -2.46987 0
M  V30 2227 C 218.271 2.16426 -3.94309 0
M  V30 2228 C 219.59 3.64266 -2.46978 0
M  V30 2229 H 216.709 0.518306 -0.523954 0
M  V30 2230 H 219.351 0.757321 -1.74255 0
M  V30 2231 H 217.501 3.19361 -2.21225 0
M  V30 2232 H 219.173 1.64221 -4.31079 0
M  V30 2233 H 217.416 1.47925 -4.078 0
M  V30 2234 H 218.087 3.02038 -4.62036 0
M  V30 2235 H 220.563 3.16686 -2.69906 0
M  V30 2236 H 219.439 4.45196 -3.21079 0
M  V30 2237 H 219.7 4.15927 -1.49857 0
M  V30 2238 N 218.759 1.29093 0.90403 0
M  V30 2239 C 219.669 1.15727 2.0407 0
M  V30 2240 C 220.685 0.0815308 1.73809 0
M  V30 2241 O 221.861 0.292749 1.99261 0
M  V30 2242 C 218.926 0.830424 3.36608 0
M  V30 2243 C 217.987 1.98955 3.80415 0
M  V30 2244 C 217.22 1.6782 5.06628 0
M  V30 2245 O 217.443 0.597105 5.67266 0
M  V30 2246 O 216.377 2.52486 5.46383 0
M  V30 2247 H 220.203 2.11171 2.18267 0
M  V30 2248 H 217.788 1.08504 1.027 0
M  V30 2249 H 219.67 0.662521 4.16159 0
M  V30 2250 H 218.345 -0.0942678 3.23563 0
M  V30 2251 H 217.252 2.21267 3.01648 0
M  V30 2252 H 218.585 2.89529 3.98037 0
M  V30 2253 N 220.237 -1.11381 1.11499 0
M  V30 2254 C 221.648 -1.6465 0.880191 0
M  V30 2255 C 221.999 -1.87199 -0.587434 0
M  V30 2256 O 221.124 -1.60667 -1.44966 0
M  V30 2257 C 221.719 -2.99105 1.59128 0
M  V30 2258 C 220.278 -3.49279 1.40289 0
M  V30 2259 C 219.425 -2.24077 1.63354 0
M  V30 2260 H 222.376 -0.950123 1.27116 0
M  V30 2261 H 222.397 -3.66107 1.03664 0
M  V30 2262 H 221.909 -2.82661 2.65941 0
M  V30 2263 H 220.01 -3.70887 0.356888 0
M  V30 2264 H 220.123 -4.2803 2.15238 0
M  V30 2265 H 218.487 -2.31733 1.05698 0
M  V30 2266 H 219.27 -2.10175 2.71443 0
M  V30 2267 N 221.715 -0.905404 -1.28997 0
M  V30 2268 C 222.945 -0.549049 -1.99171 0
M  V30 2269 C 223.353 0.87203 -1.67906 0
M  V30 2270 O 222.696 1.58796 -0.923561 0
M  V30 2271 C 222.758 -0.668306 -3.53234 0
M  V30 2272 C 222.422 -2.0574 -4.08069 0
M  V30 2273 C 223.419 -3.0292 -4.22534 0
M  V30 2274 C 221.104 -2.36833 -4.42962 0
M  V30 2275 C 223.098 -4.29314 -4.71135 0
M  V30 2276 C 220.785 -3.63467 -4.91258 0
M  V30 2277 C 221.783 -4.59522 -5.053 0
M  V30 2278 O 221.471 -5.83907 -5.52546 0
M  V30 2279 H 221.203 -0.208784 -0.64295 0
M  V30 2280 H 223.757 -1.21836 -1.65363 0
M  V30 2281 H 221.987 0.0580547 -3.86656 0
M  V30 2282 H 223.676 -0.320273 -4.04634 0
M  V30 2283 H 224.442 -2.80216 -3.95859 0
M  V30 2284 H 220.321 -1.62824 -4.31288 0
M  V30 2285 H 223.865 -5.04293 -4.8201 0
M  V30 2286 H 219.762 -3.86 -5.17372 0
M  V30 2287 H 220.53 -5.86578 -5.70849 0
M  V30 2288 N 223.193 1.4272 -0.668489 0
M  V30 2289 C 224.44 2.01624 -0.18814 0
M  V30 2290 C 224.768 1.5282 1.20317 0
M  V30 2291 O 224.023 0.718323 1.8204 0
M  V30 2292 C 224.322 3.57021 -0.164499 0
M  V30 2293 C 223.988 4.25232 -1.49962 0
M  V30 2294 C 222.65 4.4358 -1.8652 0
M  V30 2295 C 225.002 4.63727 -2.37921 0
M  V30 2296 C 222.33 4.97694 -3.10674 0
M  V30 2297 C 224.682 5.19218 -3.6138 0
M  V30 2298 C 223.346 5.3578 -3.98115 0
M  V30 2299 H 222.616 0.737795 -0.0688454 0
M  V30 2300 H 225.263 1.70991 -0.862225 0
M  V30 2301 H 223.568 3.87285 0.593079 0
M  V30 2302 H 225.265 4.00372 0.224271 0
M  V30 2303 H 221.855 4.11306 -1.20522 0
M  V30 2304 H 226.039 4.4923 -2.10964 0
M  V30 2305 H 221.295 5.08702 -3.39164 0
M  V30 2306 H 225.469 5.4799 -4.29743 0
M  V30 2307 H 223.096 5.77475 -4.94395 0
M  V30 2308 N 224.671 0.411399 1.52136 0
M  V30 2309 C 225.917 -0.163888 2.02137 0
M  V30 2310 C 226.25 -1.44597 1.29636 0
M  V30 2311 O 225.525 -1.90272 0.403353 0
M  V30 2312 C 225.808 -0.40927 3.57767 0
M  V30 2313 C 225.661 0.889643 4.40914 0
M  V30 2314 C 226.98 -1.19042 4.23694 0
M  V30 2315 H 224.099 -0.0580896 0.734707 0
M  V30 2316 H 226.741 0.54531 1.82007 0
M  V30 2317 H 224.891 -1.0134 3.7505 0
M  V30 2318 H 226.563 1.52575 4.35337 0
M  V30 2319 H 224.806 1.50011 4.07037 0
M  V30 2320 H 225.477 0.672314 5.4789 0
M  V30 2321 H 227.953 -0.678942 4.10524 0
M  V30 2322 H 226.829 -1.33086 5.32522 0
M  V30 2323 H 227.09 -2.21166 3.82803 0
M  V30 2324 N 226.149 -1.5696 0.141893 0
M  V30 2325 C 227.389 -1.9785 -0.513304 0
M  V30 2326 C 227.753 -1.02467 -1.62371 0
M  V30 2327 O 228.954 -1.32382 -2.33941 0
M  V30 2328 C 227.225 -3.42797 -1.01118 0
M  V30 2329 S 228.784 -4.05709 -1.67169 0
M  V30 2330 H 225.602 -0.691318 -0.166135 0
M  V30 2331 H 228.204 -1.94114 0.232398 0
M  V30 2332 H 226.908 -4.0995 -0.192179 0
M  V30 2333 H 226.439 -3.50235 -1.79162 0
M  V30 2334 H 228.454 -3.98342 -2.95868 0
M  V30 2335 N 227.627 0.131896 -1.57047 0
M  V30 2336 C 228.574 1.16236 -1.99393 0
M  V30 2337 C 229.544 1.41863 -0.863943 0
M  V30 2338 O 230.729 1.53946 -1.12718 0
M  V30 2339 C 227.869 2.48708 -2.39245 0
M  V30 2340 C 226.982 2.30127 -3.65603 0
M  V30 2341 C 226.117 3.55738 -3.94492 0
M  V30 2342 C 225.156 3.32259 -5.14073 0
M  V30 2343 N 224.293 4.50039 -5.38896 0
M  V30 2344 H 229.133 0.794251 -2.87221 0
M  V30 2345 H 226.67 0.380707 -1.42088 0
M  V30 2346 H 228.628 3.25969 -2.60384 0
M  V30 2347 H 227.258 2.83437 -1.54478 0
M  V30 2348 H 226.31 1.43845 -3.52154 0
M  V30 2349 H 227.622 2.08746 -4.5302 0
M  V30 2350 H 226.776 4.41423 -4.1621 0
M  V30 2351 H 225.515 3.80138 -3.05526 0
M  V30 2352 H 224.52 2.44963 -4.92212 0
M  V30 2353 H 225.745 3.09242 -6.04604 0
M  V30 2354 H 223.691 4.74584 -4.52886 0
M  V30 2355 H 223.608 4.31716 -6.2061 0
M  V30 2356 H 224.876 5.36895 -5.65123 0
M  V30 2357 N 229.106 1.52395 0.401703 0
M  V30 2358 C 230.069 1.75636 1.47257 0
M  V30 2359 C 231.069 0.62628 1.48103 0
M  V30 2360 O 232.259 0.894227 1.49497 0
M  V30 2361 C 229.391 1.84553 2.86624 0
M  V30 2362 H 230.584 2.71241 1.27938 0
M  V30 2363 H 228.137 1.42923 0.632662 0
M  V30 2364 H 228.872 0.908882 3.11303 0
M  V30 2365 H 228.657 2.66715 2.87412 0
M  V30 2366 H 230.147 2.04251 3.64241 0
M  V30 2367 N 230.584 -0.659388 1.43143 0
M  V30 2368 C 231.814 -1.44513 1.47646 0
M  V30 2369 C 232.222 -1.88981 0.0910095 0
M  V30 2370 O 231.565 -1.59702 -0.907789 0
M  V30 2371 C 231.627 -2.71663 2.35456 0
M  V30 2372 C 231.291 -2.49175 3.83094 0
M  V30 2373 C 232.288 -2.1279 4.74359 0
M  V30 2374 C 229.973 -2.63691 4.27519 0
M  V30 2375 C 231.967 -1.9121 6.08044 0
M  V30 2376 C 229.654 -2.41726 5.61259 0
M  V30 2377 C 230.652 -2.0554 6.51339 0
M  V30 2378 O 230.34 -1.838 7.82606 0
M  V30 2379 H 230.072 -0.45064 0.503884 0
M  V30 2380 H 232.626 -0.816248 1.88485 0
M  V30 2381 H 230.856 -3.37089 1.89493 0
M  V30 2382 H 232.545 -3.33595 2.31235 0
M  V30 2383 H 233.311 -2.01157 4.41317 0
M  V30 2384 H 229.19 -2.90832 3.57684 0
M  V30 2385 H 232.734 -1.62889 6.78316 0
M  V30 2386 H 228.631 -2.52959 5.9387 0
M  V30 2387 H 229.399 -1.98275 7.94122 0
M  V30 2388 N 232.062 -1.29571 -0.897171 0
M  V30 2389 C 233.308 -1.17863 -1.65034 0
M  V30 2390 C 233.641 0.268729 -1.92332 0
M  V30 2391 O 232.916 1.19378 -1.53555 0
M  V30 2392 C 233.199 -1.995 -2.99786 0
M  V30 2393 C 233.052 -3.5239 -2.79538 0
M  V30 2394 C 234.371 -1.82335 -4.00552 0
M  V30 2395 H 231.49 -0.429528 -0.598895 0
M  V30 2396 H 234.132 -1.59072 -1.03905 0
M  V30 2397 H 232.282 -1.64485 -3.51962 0
M  V30 2398 H 233.954 -3.97401 -2.34244 0
M  V30 2399 H 232.197 -3.77187 -2.14273 0
M  V30 2400 H 232.868 -4.04787 -3.75302 0
M  V30 2401 H 235.344 -2.12924 -3.57495 0
M  V30 2402 H 234.22 -2.41801 -4.92771 0
M  V30 2403 H 234.481 -0.779209 -4.35179 0
M  V30 2404 N 233.54 1.10788 -1.12088 0
M  V30 2405 C 234.487 2.17025 -0.785407 0
M  V30 2406 C 235.457 1.64265 0.246191 0
M  V30 2407 O 236.642 1.90412 0.121584 0
M  V30 2408 C 233.782 3.44249 -0.242177 0
M  V30 2409 C 232.895 4.1098 -1.33115 0
M  V30 2410 C 232.03 5.25911 -0.747741 0
M  V30 2411 C 231.069 5.84538 -1.81609 0
M  V30 2412 N 230.206 6.90853 -1.25167 0
M  V30 2413 H 235.046 2.45066 -1.69548 0
M  V30 2414 H 232.583 1.20297 -0.846582 0
M  V30 2415 H 234.541 4.17101 0.0908026 0
M  V30 2416 H 233.171 3.16571 0.631072 0
M  V30 2417 H 232.223 3.36133 -1.78097 0
M  V30 2418 H 233.535 4.50601 -2.13917 0
M  V30 2419 H 232.689 6.056 -0.365216 0
M  V30 2420 H 231.428 4.87614 0.0915188 0
M  V30 2421 H 230.433 5.03522 -2.20785 0
M  V30 2422 H 231.658 6.249 -2.6585 0
M  V30 2423 H 229.604 6.54562 -0.434174 0
M  V30 2424 H 229.521 7.29166 -1.99633 0
M  V30 2425 H 230.789 7.7433 -0.896259 0
M  V30 2426 N 235.018 0.912232 1.28515 0
M  V30 2427 C 235.981 0.404223 2.25607 0
M  V30 2428 C 236.981 -0.468602 1.53821 0
M  V30 2429 O 238.171 -0.271873 1.72065 0
M  V30 2430 C 235.303 -0.420653 3.38295 0
M  V30 2431 H 236.496 1.26188 2.7206 0
M  V30 2432 H 234.049 0.691495 1.40171 0
M  V30 2433 H 234.784 -1.29777 2.97201 0
M  V30 2434 H 234.569 0.204935 3.91564 0
M  V30 2435 H 236.059 -0.766971 4.10496 0
M  V30 2436 N 236.496 -1.42363 0.676048 0
M  V30 2437 C 237.459 -2.29199 0.00766941 0
M  V30 2438 C 238.459 -1.43389 -0.727745 0
M  V30 2439 O 239.649 -1.64764 -0.56556 0
M  V30 2440 C 236.781 -3.2591 -0.999785 0
M  V30 2441 H 237.974 -2.89794 0.771988 0
M  V30 2442 H 235.527 -1.50024 0.438468 0
M  V30 2443 H 236.262 -2.70256 -1.79255 0
M  V30 2444 H 236.047 -3.89202 -0.475829 0
M  V30 2445 H 237.537 -3.91028 -1.46583 0
M  V30 2446 N 237.974 -0.419461 -1.51915 0
M  V30 2447 C 238.921 0.400927 -2.27291 0
M  V30 2448 C 239.891 1.03224 -1.30131 0
M  V30 2449 O 241.076 1.05455 -1.59009 0
M  V30 2450 C 238.216 1.50603 -3.10504 0
M  V30 2451 C 237.329 0.89462 -4.22635 0
M  V30 2452 C 236.464 1.97328 -4.93189 0
M  V30 2453 C 235.503 1.33935 -5.97267 0
M  V30 2454 N 234.64 2.3586 -6.61298 0
M  V30 2455 H 239.48 -0.248251 -2.96964 0
M  V30 2456 H 237.017 -0.134266 -1.46486 0
M  V30 2457 H 238.975 2.15783 -3.57062 0
M  V30 2458 H 237.605 2.12509 -2.42981 0
M  V30 2459 H 236.657 0.131583 -3.80172 0
M  V30 2460 H 237.969 0.391641 -4.9726 0
M  V30 2461 H 237.123 2.70211 -5.43204 0
M  V30 2462 H 235.862 2.50994 -4.18155 0
M  V30 2463 H 234.867 0.595896 -5.46561 0
M  V30 2464 H 236.092 0.810252 -6.74249 0
M  V30 2465 H 234.038 2.88639 -5.89087 0
M  V30 2466 H 233.955 1.90403 -7.3163 0
M  V30 2467 H 235.223 3.08282 -7.15949 0
M  V30 2468 N 239.452 1.56882 -0.150215 0
M  V30 2469 C 240.385 2.12712 0.826358 0
M  V30 2470 C 241.363 1.05154 1.24022 0
M  V30 2471 O 242.547 1.33004 1.33575 0
M  V30 2472 C 239.674 2.64945 2.11002 0
M  V30 2473 C 238.72 3.8468 1.84183 0
M  V30 2474 S 239.553 5.25502 1.02995 0
M  V30 2475 C 240.709 5.81125 2.32474 0
M  V30 2476 H 240.942 2.95214 0.351598 0
M  V30 2477 H 238.475 1.54267 0.0641211 0
M  V30 2478 H 240.433 2.95689 2.84742 0
M  V30 2479 H 239.094 1.82568 2.55593 0
M  V30 2480 H 238.287 4.19482 2.79375 0
M  V30 2481 H 237.889 3.54714 1.1855 0
M  V30 2482 H 240.181 5.92753 3.281 0
M  V30 2483 H 241.124 6.78625 2.02171 0
M  V30 2484 H 241.532 5.09392 2.43269 0
M  V30 2485 N 240.93 -0.123565 1.57115 0
M  V30 2486 C 241.86 -1.15309 2.03042 0
M  V30 2487 C 242.841 -1.43454 0.914061 0
M  V30 2488 O 244.026 -1.53973 1.18347 0
M  V30 2489 C 241.156 -2.48043 2.43089 0
M  V30 2490 C 240.11 -2.3437 3.58127 0
M  V30 2491 C 239.436 -3.72026 3.84059 0
M  V30 2492 C 240.736 -1.80804 4.90007 0
M  V30 2493 H 242.43 -0.771102 2.893 0
M  V30 2494 H 239.976 -0.369479 1.39179 0
M  V30 2495 H 241.929 -3.20311 2.73823 0
M  V30 2496 H 240.653 -2.88122 1.53796 0
M  V30 2497 H 239.312 -1.64551 3.27595 0
M  V30 2498 H 238.96 -4.09582 2.91979 0
M  V30 2499 H 238.66 -3.63732 4.6149 0
M  V30 2500 H 240.184 -4.45806 4.1724 0
M  V30 2501 H 241.598 -2.42886 5.19307 0
M  V30 2502 H 239.995 -1.83343 5.71407 0
M  V30 2503 H 241.065 -0.76528 4.78823 0
M  V30 2504 N 242.408 -1.52605 -0.393616 0
M  V30 2505 C 243.656 -1.67093 -1.13685 0
M  V30 2506 C 243.977 -0.411011 -1.90619 0
M  V30 2507 O 243.247 0.574491 -1.87287 0
M  V30 2508 H 241.827 -0.615923 -0.422668 0
M  V30 2509 H 244.489 -1.89704 -0.447039 0
M  V30 2510 H 243.585 -2.51922 -1.84232 0
M  V30 2511 N 243.887 0.651787 -1.4349 0
M  V30 2512 C 244.85 1.74647 -1.48429 0
M  V30 2513 C 245.85 1.56513 -0.368817 0
M  V30 2514 O 247.04 1.62385 -0.630623 0
M  V30 2515 C 244.172 3.13533 -1.33827 0
M  V30 2516 H 245.365 1.71649 -2.4592 0
M  V30 2517 H 242.918 0.863573 -1.30277 0
M  V30 2518 H 243.653 3.22142 -0.37349 0
M  V30 2519 H 243.438 3.28101 -2.14691 0
M  V30 2520 H 244.928 3.93356 -1.40218 0
M  V30 2521 N 245.365 1.30045 0.890287 0
M  V30 2522 C 246.275 1.17885 2.02831 0
M  V30 2523 C 247.291 0.0999609 1.73713 0
M  V30 2524 O 248.467 0.313867 1.98939 0
M  V30 2525 C 245.532 0.866079 3.35708 0
M  V30 2526 C 244.593 2.02979 3.78283 0
M  V30 2527 C 243.826 1.73184 5.0482 0
M  V30 2528 O 244.049 0.657237 5.66601 0
M  V30 2529 O 242.983 2.58267 5.43674 0
M  V30 2530 H 246.809 2.13474 2.16015 0
M  V30 2531 H 244.394 1.09587 1.01543 0
M  V30 2532 H 246.276 0.706623 4.15433 0
M  V30 2533 H 244.951 -0.0599443 3.23644 0
M  V30 2534 H 243.858 2.24454 2.99285 0
M  V30 2535 H 245.191 2.93734 3.94944 0
M  V30 2536 N 246.843 -1.10192 1.12674 0
M  V30 2537 C 248.092 -1.81573 0.8783 0
M  V30 2538 C 248.405 -1.86249 -0.597557 0
M  V30 2539 O 249.611 -2.5386 -0.962681 0
M  V30 2540 C 248.067 -3.26149 1.52167 0
M  V30 2541 C 247.675 -3.29763 3.03249 0
M  V30 2542 C 249.419 -4.0234 1.3536 0
M  V30 2543 C 247.326 -4.68815 3.60508 0
M  V30 2544 H 246.256 -0.680394 0.324931 0
M  V30 2545 H 248.907 -1.23902 1.35353 0
M  V30 2546 H 247.289 -3.83832 0.974104 0
M  V30 2547 H 248.463 -2.8189 3.6452 0
M  V30 2548 H 246.778 -2.67059 3.19481 0
M  V30 2549 H 249.375 -5.05058 1.75559 0
M  V30 2550 H 249.718 -4.15235 0.297554 0
M  V30 2551 H 250.251 -3.51079 1.87052 0
M  V30 2552 H 246.99 -4.61121 4.65884 0
M  V30 2553 H 246.51 -5.17045 3.04014 0
M  V30 2554 H 248.189 -5.37785 3.59717 0
M  V30 2555 N 248.321 -0.919034 -1.28029 0
M  V30 2556 C 249.568 -0.554934 -1.94748 0
M  V30 2557 C 249.896 0.90231 -1.72304 0
M  V30 2558 O 249.151 1.65767 -1.04018 0
M  V30 2559 C 249.45 -0.816855 -3.4794 0
M  V30 2560 C 249.116 -2.25448 -3.90492 0
M  V30 2561 C 247.778 -2.64752 -4.01821 0
M  V30 2562 C 250.13 -3.18977 -4.12193 0
M  V30 2563 C 247.458 -3.96727 -4.32232 0
M  V30 2564 C 249.81 -4.50523 -4.44086 0
M  V30 2565 C 248.474 -4.89673 -4.53626 0
M  V30 2566 H 247.744 -0.203065 -0.712633 0
M  V30 2567 H 250.391 -1.16136 -1.52265 0
M  V30 2568 H 248.696 -0.127677 -3.91592 0
M  V30 2569 H 250.393 -0.514238 -3.97689 0
M  V30 2570 H 246.983 -1.93952 -3.82205 0
M  V30 2571 H 251.167 -2.89817 -4.02889 0
M  V30 2572 H 246.423 -4.26754 -4.37825 0
M  V30 2573 H 250.597 -5.23005 -4.59825 0
M  V30 2574 H 248.224 -5.91969 -4.76946 0
M  V30 2575 N 249.799 1.42003 -0.683588 0
M  V30 2576 C 250.709 2.34597 -0.0109075 0
M  V30 2577 C 251.725 1.55576 0.779245 0
M  V30 2578 O 252.901 1.88107 0.719555 0
M  V30 2579 C 249.966 3.34199 0.922588 0
M  V30 2580 C 249.027 4.29115 0.125984 0
M  V30 2581 C 248.26 5.23959 1.01502 0
M  V30 2582 O 248.483 5.23952 2.25456 0
M  V30 2583 O 247.417 6.00053 0.47111 0
M  V30 2584 H 251.243 2.93675 -0.773853 0
M  V30 2585 H 248.828 1.42654 -0.443861 0
M  V30 2586 H 250.71 3.95365 1.45823 0
M  V30 2587 H 249.385 2.77582 1.66523 0
M  V30 2588 H 248.292 3.71335 -0.453969 0
M  V30 2589 H 249.625 4.88798 -0.577736 0
M  V30 2590 N 251.277 0.427512 1.51691 0
M  V30 2591 C 252.227 -0.406604 2.24345 0
M  V30 2592 C 253.211 -0.998276 1.26187 0
M  V30 2593 O 254.403 -0.918045 1.51331 0
M  V30 2594 C 251.532 -1.51266 3.08177 0
M  V30 2595 C 250.618 -0.930868 4.13758 0
M  V30 2596 N 251.009 -0.0773552 5.05741 0
M  V30 2597 C 249.307 -1.19948 4.29568 0
M  V30 2598 C 250.008 0.248344 5.8117 0
M  V30 2599 N 248.984 -0.365535 5.4237 0
M  V30 2600 H 252.786 0.251581 2.92821 0
M  V30 2601 H 250.3 0.239003 1.60632 0
M  V30 2602 H 252.297 -2.123 3.58796 0
M  V30 2603 H 250.957 -2.17328 2.41244 0
M  V30 2604 H 251.968 0.288351 5.17097 0
M  V30 2605 H 248.645 -1.85832 3.73862 0
M  V30 2606 H 250.035 0.942286 6.6526 0
M  V30 2607 N 252.755 -1.56801 0.158532 0
M  V30 2608 C 253.983 -2.00859 -0.496303 0
M  V30 2609 C 254.398 -1.03871 -1.57659 0
M  V30 2610 O 253.755 -0.0375165 -1.82461 0
M  V30 2611 C 253.806 -3.4479 -1.08638 0
M  V30 2612 O 253.527 -4.38072 -0.0492322 0
M  V30 2613 C 255.028 -4.04185 -1.8207 0
M  V30 2614 H 252.248 -0.65864 -0.128199 0
M  V30 2615 H 254.792 -2.02885 0.256506 0
M  V30 2616 H 252.947 -3.43579 -1.78975 0
M  V30 2617 H 253.361 -5.2227 -0.483102 0
M  V30 2618 H 254.835 -5.06857 -2.18633 0
M  V30 2619 H 255.312 -3.45549 -2.71095 0
M  V30 2620 H 255.918 -4.0906 -1.16405 0
M  V30 2621 N 254.233 0.115231 -1.57178 0
M  V30 2622 C 255.644 0.67197 -1.74188 0
M  V30 2623 C 255.995 1.80125 -0.777777 0
M  V30 2624 O 255.12 2.16346 0.0484376 0
M  V30 2625 C 255.715 1.22573 -3.1585 0
M  V30 2626 C 254.274 1.72872 -3.34353 0
M  V30 2627 C 253.421 0.629972 -2.70049 0
M  V30 2628 H 256.372 -0.110712 -1.58313 0
M  V30 2629 H 256.393 2.09535 -3.17609 0
M  V30 2630 H 255.905 0.403598 -3.85996 0
M  V30 2631 H 254.006 2.5755 -2.69256 0
M  V30 2632 H 254.119 1.83557 -4.42542 0
M  V30 2633 H 252.483 1.0645 -2.31388 0
M  V30 2634 H 253.266 -0.181241 -3.42821 0
M  V30 2635 N 255.711 1.52812 0.385517 0
M  V30 2636 C 256.957 1.68275 1.13188 0
M  V30 2637 C 257.29 0.423179 1.89533 0
M  V30 2638 O 256.565 -0.579113 1.85679 0
M  V30 2639 C 256.848 2.92001 2.1073 0
M  V30 2640 C 256.701 4.28067 1.38125 0
M  V30 2641 C 258.02 3.11283 3.11113 0
M  V30 2642 H 255.139 0.612352 0.410115 0
M  V30 2643 H 257.781 1.85415 0.414869 0
M  V30 2644 H 255.931 2.77519 2.71874 0
M  V30 2645 H 257.603 4.54324 0.799187 0
M  V30 2646 H 255.846 4.28388 0.683092 0
M  V30 2647 H 256.517 5.10733 2.09417 0
M  V30 2648 H 258.993 3.2482 2.6006 0
M  V30 2649 H 257.869 3.99325 3.76605 0
M  V30 2650 H 258.13 2.25656 3.80173 0
M  V30 2651 N 257.189 -0.644168 1.43834 0
M  V30 2652 C 258.119 -1.76814 1.52509 0
M  V30 2653 C 259.1 -1.65823 0.379052 0
M  V30 2654 O 260.285 -1.84781 0.597466 0
M  V30 2655 C 257.415 -3.15288 1.4564 0
M  V30 2656 C 256.369 -3.41053 2.58586 0
M  V30 2657 C 255.695 -4.79421 2.36769 0
M  V30 2658 C 256.995 -3.34902 4.00797 0
M  V30 2659 H 258.689 -1.69812 2.46586 0
M  V30 2660 H 256.235 -0.815542 1.1868 0
M  V30 2661 H 258.188 -3.93681 1.50311 0
M  V30 2662 H 256.912 -3.23043 0.480725 0
M  V30 2663 H 255.571 -2.65035 2.53282 0
M  V30 2664 H 255.219 -4.83863 1.37424 0
M  V30 2665 H 254.919 -4.9762 3.12487 0
M  V30 2666 H 256.443 -5.6006 2.43238 0
M  V30 2667 H 257.857 -4.03218 4.07539 0
M  V30 2668 H 256.254 -3.64637 4.76613 0
M  V30 2669 H 257.324 -2.32928 4.25291 0
M  V30 2670 N 258.668 -1.30515 -0.883378 0
M  V30 2671 C 259.618 -1.13641 -1.9766 0
M  V30 2672 C 260.602 -0.0511314 -1.60819 0
M  V30 2673 O 261.794 -0.274623 -1.74857 0
M  V30 2674 C 258.923 -0.831976 -3.33066 0
M  V30 2675 C 258.009 -1.95759 -3.76217 0
M  V30 2676 N 258.4 -3.20313 -3.9145 0
M  V30 2677 C 256.698 -1.85431 -4.05625 0
M  V30 2678 C 257.399 -3.93856 -4.2808 0
M  V30 2679 N 256.375 -3.21919 -4.38029 0
M  V30 2680 H 260.177 -2.08106 -2.07531 0
M  V30 2681 H 257.691 -1.21877 -1.0733 0
M  V30 2682 H 259.688 -0.692102 -4.11115 0
M  V30 2683 H 258.348 0.104588 -3.24532 0
M  V30 2684 H 259.359 -3.55583 -3.76538 0
M  V30 2685 H 256.036 -0.991531 -4.05555 0
M  V30 2686 H 257.426 -5.01125 -4.47575 0
M  V30 2687 N 260.146 1.09593 -1.13257 0
M  V30 2688 C 261.392 1.82003 -0.89458 0
M  V30 2689 C 261.725 1.85402 0.577906 0
M  V30 2690 O 261 1.32099 1.42759 0
M  V30 2691 C 261.283 3.28237 -1.48096 0
M  V30 2692 C 261.136 3.3312 -3.02244 0
M  V30 2693 C 262.455 4.24871 -1.14774 0
M  V30 2694 H 259.574 0.66077 -0.326424 0
M  V30 2695 H 262.216 1.28389 -1.40058 0
M  V30 2696 H 260.366 3.74024 -1.05062 0
M  V30 2697 H 262.038 2.95748 -3.54021 0
M  V30 2698 H 260.281 2.72756 -3.37323 0
M  V30 2699 H 260.952 4.3613 -3.38371 0
M  V30 2700 H 263.428 3.87361 -1.51957 0
M  V30 2701 H 262.304 5.25532 -1.58452 0
M  V30 2702 H 262.565 4.42058 -0.0611849 0
M  V30 2703 N 261.624 0.925811 1.2754 0
M  V30 2704 C 262.534 0.428993 2.30644 0
M  V30 2705 C 263.55 -0.489387 1.66976 0
M  V30 2706 O 264.726 -0.372653 1.97922 0
M  V30 2707 C 261.791 -0.311967 3.45294 0
M  V30 2708 C 260.852 0.641098 4.24486 0
M  V30 2709 C 260.085 -0.0645955 5.33661 0
M  V30 2710 O 260.308 -1.28429 5.55754 0
M  V30 2711 O 259.242 0.606265 5.98839 0
M  V30 2712 H 263.068 1.28504 2.75173 0
M  V30 2713 H 260.653 0.691086 1.32455 0
M  V30 2714 H 262.535 -0.729972 4.15029 0
M  V30 2715 H 261.21 -1.14365 3.02824 0
M  V30 2716 H 260.117 1.10874 3.57292 0
M  V30 2717 H 261.45 1.43995 4.70666 0
M  V30 2718 N 263.102 -1.41638 0.69111 0
M  V30 2719 C 264.518 -1.55435 0.362224 0
M  V30 2720 C 264.718 -1.66754 -1.13117 0
M  V30 2721 O 263.774 -1.64348 -1.91692 0
M  V30 2722 C 265.087 -2.79588 1.10684 0
M  V30 2723 C 266.635 -2.9338 1.09075 0
M  V30 2724 C 267.11 -4.20414 1.81703 0
M  V30 2725 N 268.601 -4.27362 1.7865 0
M  V30 2726 C 269.336 -5.24507 2.31689 0
M  V30 2727 N 268.832 -6.27708 2.93179 0
M  V30 2728 N 270.625 -5.16416 2.2197 0
M  V30 2729 H 262.776 -1.32536 1.65976 0
M  V30 2730 H 265.039 -0.639115 0.700168 0
M  V30 2731 H 264.745 -2.77419 2.16175 0
M  V30 2732 H 264.619 -3.70973 0.682545 0
M  V30 2733 H 267.006 -2.95067 0.0441238 0
M  V30 2734 H 267.087 -2.0318 1.55407 0
M  V30 2735 H 266.731 -4.19488 2.86343 0
M  V30 2736 H 266.661 -5.09578 1.32808 0
M  V30 2737 H 269.152 -3.53415 1.33815 0
M  V30 2738 H 269.465 -6.98217 3.31229 0
M  V30 2739 H 267.81 -6.28223 2.97255 0
M  V30 2740 H 271.001 -4.34716 1.73607 0
M  V30 2741 H 271.174 -5.91958 2.63609 0
M  V30 2742 N 264.58 -0.43555 -1.51462 0
M  V30 2743 C 265.857 0.191364 -1.94662 0
M  V30 2744 C 266.237 1.60254 -1.37411 0
M  V30 2745 O 265.585 2.2152 -0.560458 0
M  V30 2746 C 265.795 0.17091 -3.48581 0
M  V30 2747 C 267.143 0.377357 -4.2292 0
M  V30 2748 O 268.167 0.249104 -3.55328 0
M  V30 2749 O 267.026 0.63247 -5.42828 0
M  V30 2750 H 264.12 0.130932 -0.816569 0
M  V30 2751 H 266.666 -0.4934 -1.62369 0
M  V30 2752 H 265.438 -0.815738 -3.82703 0
M  V30 2753 H 265.061 0.898659 -3.87311 0
M  V30 2754 N 266.058 1.56714 -0.166846 0
M  V30 2755 C 267.306 1.96358 0.478305 0
M  V30 2756 C 267.627 1.0537 1.6408 0
M  V30 2757 O 266.897 0.119154 1.95537 0
M  V30 2758 H 265.477 0.725065 0.179692 0
M  V30 2759 H 268.139 1.93329 -0.246985 0
M  V30 2760 H 267.235 3.00547 0.841292 0
M  V30 2761 N 267.536 -0.106894 1.57237 0
M  V30 2762 C 268.446 -1.14911 2.0453 0
M  V30 2763 C 269.462 -1.44592 0.96795 0
M  V30 2764 O 270.638 -1.55468 1.2803 0
M  V30 2765 C 267.703 -2.45272 2.45036 0
M  V30 2766 C 266.764 -2.22879 3.66911 0
M  V30 2767 C 265.997 -3.47024 4.05475 0
M  V30 2768 O 266.22 -4.54804 3.44252 0
M  V30 2769 O 265.154 -3.3731 4.98504 0
M  V30 2770 H 268.98 -0.777461 2.9358 0
M  V30 2771 H 266.565 -0.318563 1.45964 0
M  V30 2772 H 268.447 -3.22055 2.71769 0
M  V30 2773 H 267.122 -2.81886 1.59129 0
M  V30 2774 H 266.029 -1.43915 3.45311 0
M  V30 2775 H 267.362 -1.91163 4.53561 0
M  V30 2776 N 269.014 -1.53014 -0.377408 0
M  V30 2777 C 269.977 -1.77957 -1.44444 0
M  V30 2778 C 270.977 -0.649763 -1.47087 0
M  V30 2779 O 272.167 -0.917897 -1.48055 0
M  V30 2780 C 269.299 -1.89089 -2.83651 0
M  V30 2781 H 270.492 -2.73243 -1.23606 0
M  V30 2782 H 268.045 -1.43912 -0.609844 0
M  V30 2783 H 268.78 -0.958293 -3.09818 0
M  V30 2784 H 268.565 -2.71254 -2.83132 0
M  V30 2785 H 270.055 -2.1002 -3.60945 0
M  V30 2786 N 270.492 0.636531 -1.44174 0
M  V30 2787 C 271.422 1.76003 -1.53444 0
M  V30 2788 C 272.403 1.65619 -0.387841 0
M  V30 2789 O 273.588 1.84461 -0.607257 0
M  V30 2790 C 270.718 3.14511 -1.4731 0
M  V30 2791 C 269.672 3.39677 -2.60391 0
M  V30 2792 C 268.998 4.78159 -2.39308 0
M  V30 2793 C 270.298 3.32772 -4.02567 0
M  V30 2794 H 271.992 1.68501 -2.47483 0
M  V30 2795 H 269.538 0.809237 -1.19111 0
M  V30 2796 H 271.491 3.92878 -1.52397 0
M  V30 2797 H 270.215 3.22783 -0.49785 0
M  V30 2798 H 268.874 2.63688 -2.54684 0
M  V30 2799 H 268.522 4.83128 -1.39988 0
M  V30 2800 H 268.222 4.95956 -3.15122 0
M  V30 2801 H 269.746 5.58762 -2.46205 0
M  V30 2802 H 271.16 4.01051 -4.09672 0
M  V30 2803 H 269.557 3.62104 -4.7854 0
M  V30 2804 H 270.627 2.30669 -4.2652 0
M  V30 2805 N 271.97 1.30982 0.876444 0
M  V30 2806 C 273.217 1.20296 1.62896 0
M  V30 2807 C 273.545 -0.240395 1.93009 0
M  V30 2808 O 272.8 -1.18733 1.55567 0
M  V30 2809 C 273.099 1.98572 2.9716 0
M  V30 2810 C 272.765 3.48125 2.86566 0
M  V30 2811 C 271.427 3.88905 2.83383 0
M  V30 2812 C 273.779 4.43322 2.74071 0
M  V30 2813 C 271.107 5.2316 2.65556 0
M  V30 2814 C 273.459 5.77695 2.57781 0
M  V30 2815 C 272.123 6.17704 2.52979 0
M  V30 2816 H 271.393 0.440193 0.59608 0
M  V30 2817 H 274.04 1.62177 1.01837 0
M  V30 2818 H 272.345 1.49352 3.62217 0
M  V30 2819 H 274.042 1.8769 3.54364 0
M  V30 2820 H 270.632 3.15723 2.89856 0
M  V30 2821 H 274.816 4.12752 2.75589 0
M  V30 2822 H 270.072 5.53241 2.60259 0
M  V30 2823 H 274.246 6.51091 2.47089 0
M  V30 2824 H 271.873 7.21678 2.38924 0
M  V30 2825 N 273.449 -1.08991 1.13837 0
M  V30 2826 C 274.698 -1.80631 0.897509 0
M  V30 2827 C 275.011 -1.86872 -0.57777 0
M  V30 2828 O 276.217 -2.54866 -0.935701 0
M  V30 2829 C 274.673 -3.24517 1.55618 0
M  V30 2830 C 274.281 -3.26529 3.0673 0
M  V30 2831 C 276.025 -4.00882 1.3962 0
M  V30 2832 C 273.932 -4.64965 3.65461 0
M  V30 2833 H 272.862 -0.67691 0.332129 0
M  V30 2834 H 275.513 -1.2246 1.3666 0
M  V30 2835 H 273.895 -3.82778 1.01476 0
M  V30 2836 H 275.069 -2.78008 3.67489 0
M  V30 2837 H 273.384 -2.63656 3.22296 0
M  V30 2838 H 275.981 -5.03167 1.80906 0
M  V30 2839 H 276.324 -4.14896 0.341578 0
M  V30 2840 H 276.857 -3.49075 1.90766 0
M  V30 2841 H 273.596 -4.56153 4.70749 0
M  V30 2842 H 273.116 -5.13792 3.09481 0
M  V30 2843 H 274.795 -5.3394 3.654 0
M  V30 2844 N 274.927 -0.932562 -1.27047 0
M  V30 2845 C 275.874 -0.434072 -2.26681 0
M  V30 2846 C 276.844 0.501639 -1.58344 0
M  V30 2847 O 278.029 0.419734 -1.86126 0
M  V30 2848 C 275.169 0.30261 -3.43771 0
M  V30 2849 C 274.282 -0.667774 -4.26808 0
M  V30 2850 C 273.417 0.0892393 -5.31125 0
M  V30 2851 C 272.456 -0.873532 -6.05835 0
M  V30 2852 N 271.593 -0.148832 -7.01942 0
M  V30 2853 H 276.433 -1.28868 -2.68695 0
M  V30 2854 H 273.97 -0.646713 -1.32121 0
M  V30 2855 H 275.928 0.746092 -4.10474 0
M  V30 2856 H 274.558 1.12142 -3.02695 0
M  V30 2857 H 273.61 -1.22978 -3.59973 0
M  V30 2858 H 274.922 -1.40337 -4.78651 0
M  V30 2859 H 274.076 0.592409 -6.03801 0
M  V30 2860 H 272.815 0.85777 -4.80097 0
M  V30 2861 H 271.82 -1.38791 -5.31994 0
M  V30 2862 H 273.045 -1.64193 -6.58952 0
M  V30 2863 H 270.991 0.601365 -6.53238 0
M  V30 2864 H 270.908 -0.82391 -7.51497 0
M  V30 2865 H 272.176 0.333527 -7.78786 0
M  V30 2866 N 276.405 1.4127 -0.698611 0
M  V30 2867 C 277.633 2.05503 -0.239992 0
M  V30 2868 C 278.048 1.52584 1.11191 0
M  V30 2869 O 277.405 0.675323 1.69545 0
M  V30 2870 C 277.456 3.60987 -0.192429 0
M  V30 2871 O 277.177 4.1195 -1.49094 0
M  V30 2872 C 278.678 4.42371 0.28681 0
M  V30 2873 H 275.898 0.661748 -0.111045 0
M  V30 2874 H 278.442 1.80987 -0.95205 0
M  V30 2875 H 276.597 3.84533 0.470472 0
M  V30 2876 H 277.011 5.06018 -1.38007 0
M  V30 2877 H 278.485 5.51344 0.26896 0
M  V30 2878 H 278.962 4.18699 1.32619 0
M  V30 2879 H 279.568 4.23897 -0.345201 0
M  V30 2880 N 277.883 0.443576 1.51229 0
M  V30 2881 C 279.294 -0.0180867 1.86691 0
M  V30 2882 C 279.645 -1.41384 1.36033 0
M  V30 2883 O 278.77 -2.04291 0.713722 0
M  V30 2884 C 279.365 -0.039597 3.38777 0
M  V30 2885 C 277.924 -0.445692 3.73752 0
M  V30 2886 C 277.071 0.357584 2.74985 0
M  V30 2887 H 280.022 0.659138 1.44364 0
M  V30 2888 H 280.043 -0.847761 3.70936 0
M  V30 2889 H 279.555 0.976382 3.75617 0
M  V30 2890 H 277.656 -1.46704 3.42503 0
M  V30 2891 H 277.769 -0.166155 4.78812 0
M  V30 2892 H 276.133 -0.184973 2.54027 0
M  V30 2893 H 276.916 1.37256 3.14668 0
M  V30 2894 N 279.361 -1.56624 0.175154 0
M  V30 2895 C 280.586 -2.01813 -0.478137 0
M  V30 2896 C 281.011 -1.05457 -1.55757 0
M  V30 2897 O 280.369 -0.0347439 -1.81267 0
M  V30 2898 C 280.417 -3.45581 -1.02987 0
M  V30 2899 O 279.521 -3.52305 -2.14371 0
M  V30 2900 H 278.862 -0.65413 -0.114059 0
M  V30 2901 H 281.392 -2.02673 0.280173 0
M  V30 2902 H 281.402 -3.84965 -1.35151 0
M  V30 2903 H 280.077 -4.1521 -0.239556 0
M  V30 2904 H 278.654 -3.24783 -1.83222 0
M  V30 2905 N 280.839 0.0985539 -1.57292 0
M  V30 2906 C 282.087 0.801092 -1.85545 0
M  V30 2907 C 282.408 1.79438 -0.763353 0
M  V30 2908 O 281.678 1.94763 0.21073 0
M  V30 2909 H 280.258 0.29884 -0.684619 0
M  V30 2910 H 282.92 0.0810064 -1.94732 0
M  V30 2911 H 282.016 1.3338 -2.82163 0
M  V30 2912 N 282.317 1.53212 0.369288 0
M  V30 2913 C 283.594 1.59815 1.12776 0
M  V30 2914 C 283.974 0.403402 2.0721 0
M  V30 2915 O 283.322 -0.606667 2.20299 0
M  V30 2916 C 283.532 2.94664 1.87013 0
M  V30 2917 C 284.88 3.49109 2.41677 0
M  V30 2918 O 285.904 2.96669 1.97144 0
M  V30 2919 O 284.763 4.40775 3.23079 0
M  V30 2920 H 281.857 0.645376 0.517125 0
M  V30 2921 H 284.403 1.65553 0.37285 0
M  V30 2922 H 283.175 3.73061 1.18071 0
M  V30 2923 H 282.798 2.92401 2.69421 0
M  V30 2924 N 283.795 -0.628877 1.44509 0
M  V30 2925 C 285.041 -1.39045 1.47629 0
M  V30 2926 C 285.374 -1.93892 0.109343 0
M  V30 2927 O 284.649 -1.7379 -0.87334 0
M  V30 2928 C 284.932 -2.55408 2.53848 0
M  V30 2929 C 284.785 -2.05896 3.99909 0
M  V30 2930 C 286.104 -3.5759 2.56549 0
M  V30 2931 H 283.223 -0.504232 0.537512 0
M  V30 2932 H 285.865 -0.710854 1.76201 0
M  V30 2933 H 284.015 -3.13384 2.29615 0
M  V30 2934 H 285.687 -1.52734 4.35282 0
M  V30 2935 H 283.93 -1.37061 4.11578 0
M  V30 2936 H 284.601 -2.89681 4.69882 0
M  V30 2937 H 287.077 -3.09419 2.78207 0
M  V30 2938 H 285.953 -4.36527 3.32769 0
M  V30 2939 H 286.214 -4.11808 1.60832 0
M  V30 2940 N 285.273 -1.31445 -0.869486 0
M  V30 2941 C 286.519 -1.22347 -1.62489 0
M  V30 2942 C 286.874 0.216204 -1.91181 0
M  V30 2943 O 286.167 1.14977 -1.53268 0
M  V30 2944 C 286.361 -2.00145 -2.96102 0
M  V30 2945 C 286.19 -3.51531 -2.80456 0
M  V30 2946 C 284.96 -4.20882 -2.79618 0
M  V30 2947 C 287.158 -4.46471 -2.5528 0
M  V30 2948 N 285.14 -5.58421 -2.55027 0
M  V30 2949 C 286.511 -5.71682 -2.39957 0
M  V30 2950 C 288.566 -4.35892 -2.40629 0
M  V30 2951 C 287.269 -6.87511 -2.11472 0
M  V30 2952 C 289.295 -5.51505 -2.13532 0
M  V30 2953 C 288.657 -6.75707 -1.98998 0
M  V30 2954 H 284.756 -0.502815 -0.598917 0
M  V30 2955 H 287.34 -1.65639 -1.02332 0
M  V30 2956 H 285.511 -1.59221 -3.54264 0
M  V30 2957 H 287.243 -1.83063 -3.60929 0
M  V30 2958 H 283.998 -3.72857 -2.92018 0
M  V30 2959 H 284.422 -6.30841 -2.45701 0
M  V30 2960 H 289.064 -3.40533 -2.50593 0
M  V30 2961 H 286.782 -7.82897 -2.00245 0
M  V30 2962 H 290.368 -5.45238 -2.02995 0
M  V30 2963 H 289.248 -7.63655 -1.78326 0
M  V30 2964 N 286.751 1.08385 -1.14413 0
M  V30 2965 C 287.714 2.13486 -0.834048 0
M  V30 2966 C 288.714 1.59988 0.161418 0
M  V30 2967 O 289.904 1.74071 -0.0669575 0
M  V30 2968 C 287.036 3.4003 -0.243354 0
M  V30 2969 H 288.229 2.42425 -1.7655 0
M  V30 2970 H 285.782 1.24101 -0.950189 0
M  V30 2971 H 286.517 3.16726 0.696807 0
M  V30 2972 H 286.302 3.80157 -0.960367 0
M  V30 2973 H 287.792 4.17577 -0.0436242 0
M  V30 2974 N 288.23 0.939286 1.26551 0
M  V30 2975 C 289.178 0.43815 2.28436 0
M  V30 2976 C 290.172 -0.483587 1.62351 0
M  V30 2977 O 291.378 -0.362009 1.76322 0
M  V30 2978 H 287.753 0.123149 0.741848 0
M  V30 2979 H 289.724 1.31002 2.68106 0
M  V30 2980 C 288.473 -0.283052 3.46546 0
M  V30 2981 H 287.796 0.417043 3.97619 0
M  V30 2982 H 289.236 -0.597948 4.19763 0
M  V30 2983 C 287.695 -1.50018 3.01656 0
M  V30 2984 O 288.225 -2.59855 3.0633 0
M  V30 2985 N 286.431 -1.35608 2.57019 0
M  V30 2986 H 285.978 -0.46244 2.53415 0
M  V30 2987 H 285.936 -2.17165 2.27347 0
M  V30 2988 N 289.708 -1.40897 0.706093 0
M  V30 2989 C 290.658 -2.27987 0.0240746 0
M  V30 2990 C 291.642 -1.42759 -0.742204 0
M  V30 2991 O 292.834 -1.65936 -0.615966 0
M  V30 2992 C 289.963 -3.31186 -0.903907 0
M  V30 2993 C 289.049 -4.2389 -0.133318 0
M  V30 2994 N 289.44 -4.98113 0.878444 0
M  V30 2995 C 287.738 -4.44485 -0.367269 0
M  V30 2996 C 288.439 -5.6604 1.34064 0
M  V30 2997 N 287.415 -5.39522 0.664565 0
M  V30 2998 H 291.217 -2.82812 0.799658 0
M  V30 2999 H 288.731 -1.53235 0.537845 0
M  V30 3000 H 290.728 -3.92413 -1.40775 0
M  V30 3001 H 289.388 -2.77922 -1.67897 0
M  V30 3002 H 290.399 -5.02364 1.25901 0
M  V30 3003 H 287.076 -4.02213 -1.1194 0
M  V30 3004 H 288.466 -6.35524 2.1808 0
M  V30 3005 N 291.186 -0.45159 -1.50991 0
M  V30 3006 C 292.432 0.110237 -2.025 0
M  V30 3007 C 292.765 1.41109 -1.33424 0
M  V30 3008 O 292.04 1.89135 -0.453659 0
M  V30 3009 C 292.323 0.314271 -3.58726 0
M  V30 3010 C 292.176 -1.00623 -4.38401 0
M  V30 3011 C 293.495 1.07767 -4.26702 0
M  V30 3012 H 290.614 0.0385897 -0.735989 0
M  V30 3013 H 293.256 -0.593374 -1.80497 0
M  V30 3014 H 291.406 0.913601 -3.77605 0
M  V30 3015 H 293.078 -1.64064 -4.31139 0
M  V30 3016 H 291.321 -1.6075 -4.02917 0
M  V30 3017 H 291.992 -0.817341 -5.45915 0
M  V30 3018 H 294.468 0.56986 -4.12179 0
M  V30 3019 H 293.344 1.18921 -5.35863 0
M  V30 3020 H 293.605 2.10939 -3.88532 0
M  V30 3021 N 292.664 1.56529 -0.183458 0
M  V30 3022 C 293.91 1.97537 0.459036 0
M  V30 3023 C 294.243 1.06989 1.62071 0
M  V30 3024 O 293.518 0.11948 1.94133 0
M  V30 3025 C 293.801 3.47874 0.930368 0
M  V30 3026 C 293.654 4.492 -0.232317 0
M  V30 3027 C 294.973 4.01612 1.79989 0
M  V30 3028 H 292.092 0.718204 0.165383 0
M  V30 3029 H 294.734 1.88042 -0.272038 0
M  V30 3030 H 292.884 3.56095 1.55333 0
M  V30 3031 H 294.556 4.53027 -0.86972 0
M  V30 3032 H 292.799 4.24657 -0.885928 0
M  V30 3033 H 293.47 5.51823 0.139796 0
M  V30 3034 H 295.946 3.96097 1.27461 0
M  V30 3035 H 294.822 5.07195 2.09867 0
M  V30 3036 H 295.083 3.46163 2.74998 0
M  V30 3037 N 294.142 -0.090211 1.57342 0
M  V30 3038 C 295.388 -0.793982 1.86611 0
M  V30 3039 C 295.721 -1.78142 0.773252 0
M  V30 3040 O 294.996 -1.93271 -0.218304 0
M  V30 3041 C 295.279 -1.51839 3.26523 0
M  V30 3042 C 295.132 -0.548609 4.46442 0
M  V30 3043 C 296.451 -2.46779 3.64401 0
M  V30 3044 H 293.57 -0.287186 0.678744 0
M  V30 3045 H 296.212 -0.0575076 1.89913 0
M  V30 3046 H 294.362 -2.14617 3.23839 0
M  V30 3047 H 296.034 0.0725513 4.61243 0
M  V30 3048 H 294.277 0.137614 4.33582 0
M  V30 3049 H 294.948 -1.09271 5.41076 0
M  V30 3050 H 297.424 -1.94089 3.68061 0
M  V30 3051 H 296.3 -2.94479 4.63221 0
M  V30 3052 H 296.561 -3.30758 2.93346 0
M  V30 3053 N 295.62 -1.53406 -0.361157 0
M  V30 3054 C 296.583 -1.79479 -1.42548 0
M  V30 3055 C 297.583 -0.665327 -1.4639 0
M  V30 3056 O 298.773 -0.933549 -1.47073 0
M  V30 3057 C 295.905 -1.92087 -2.8163 0
M  V30 3058 H 297.098 -2.74538 -1.20701 0
M  V30 3059 H 294.651 -1.4455 -0.594546 0
M  V30 3060 H 295.386 -0.991099 -3.08784 0
M  V30 3061 H 295.171 -2.74241 -2.80239 0
M  V30 3062 H 296.661 -2.13836 -3.58697 0
M  V30 3063 N 297.098 0.621204 -1.44841 0
M  V30 3064 C 298.323 1.41244 -1.51871 0
M  V30 3065 C 298.748 1.87519 -0.147764 0
M  V30 3066 O 298.106 1.59334 0.865 0
M  V30 3067 C 298.154 2.60221 -2.49634 0
M  V30 3068 O 297.258 3.60395 -2.00473 0
M  V30 3069 H 296.599 0.42223 -0.512463 0
M  V30 3070 H 299.129 0.757305 -1.90069 0
M  V30 3071 H 299.139 3.0764 -2.67996 0
M  V30 3072 H 297.814 2.25887 -3.4921 0
M  V30 3073 H 296.391 3.19717 -1.91925 0
M  V30 3074 N 298.576 1.31904 0.862503 0
M  V30 3075 C 299.824 1.21776 1.61292 0
M  V30 3076 C 300.145 -0.222413 1.93727 0
M  V30 3077 O 299.415 -1.1451 1.58947 0
M  V30 3078 H 297.995 0.447717 0.597962 0
M  V30 3079 H 300.657 1.65326 1.03215 0
M  V30 3080 H 299.753 1.7948 2.5533 0
M  V30 3081 N 300.054 -1.07777 1.14986 0
M  V30 3082 C 301.3 -1.80557 0.923422 0
M  V30 3083 C 301.633 -1.86298 -0.548337 0
M  V30 3084 O 300.908 -1.34354 -1.40639 0
M  V30 3085 C 301.191 -3.25839 1.53299 0
M  V30 3086 C 301.044 -3.28269 3.07505 0
M  V30 3087 C 302.363 -4.22991 1.21518 0
M  V30 3088 H 299.482 -0.655493 0.336894 0
M  V30 3089 H 302.124 -1.26144 1.42083 0
M  V30 3090 H 300.274 -3.72306 1.10999 0
M  V30 3091 H 301.946 -2.90079 3.58681 0
M  V30 3092 H 300.189 -2.67355 3.4162 0
M  V30 3093 H 300.86 -4.30691 3.45266 0
M  V30 3094 H 303.336 -3.84894 1.581 0
M  V30 3095 H 302.212 -5.22945 1.66793 0
M  V30 3096 H 302.473 -4.41904 0.131505 0
M  V30 3097 N 301.532 -0.945985 -1.26051 0
M  V30 3098 C 302.778 -0.606539 -1.94146 0
M  V30 3099 C 303.133 0.84586 -1.72809 0
M  V30 3100 O 302.426 1.59781 -1.05738 0
M  V30 3101 C 302.62 -0.890475 -3.46129 0
M  V30 3102 C 302.449 -2.36892 -3.82246 0
M  V30 3103 C 301.219 -3.02494 -4.04753 0
M  V30 3104 C 303.417 -3.34772 -3.90425 0
M  V30 3105 N 301.399 -4.40302 -4.27794 0
M  V30 3106 C 302.77 -4.57855 -4.18054 0
M  V30 3107 C 304.825 -3.2973 -3.73072 0
M  V30 3108 C 303.528 -5.76522 -4.30134 0
M  V30 3109 C 305.554 -4.47727 -3.86386 0
M  V30 3110 C 304.916 -5.69593 -4.14419 0
M  V30 3111 H 301.015 -0.272407 -0.73302 0
M  V30 3112 H 303.599 -1.21638 -1.52027 0
M  V30 3113 H 301.77 -0.309638 -3.87164 0
M  V30 3114 H 303.502 -0.51181 -4.01451 0
M  V30 3115 H 300.257 -2.53095 -4.003 0
M  V30 3116 H 300.681 -5.11646 -4.43337 0
M  V30 3117 H 305.323 -2.36565 -3.50424 0
M  V30 3118 H 303.041 -6.70136 -4.51601 0
M  V30 3119 H 306.627 -4.45363 -3.74356 0
M  V30 3120 H 305.507 -6.59375 -4.24493 0
M  V30 3121 N 303.011 1.40521 -0.713556 0
M  V30 3122 C 304.236 2.05759 -0.26035 0
M  V30 3123 C 304.661 1.53403 1.08854 0
M  V30 3124 O 304.019 0.668535 1.68524 0
M  V30 3125 C 304.067 3.59745 -0.248122 0
M  V30 3126 O 303.171 4.05123 0.77131 0
M  V30 3127 H 302.512 0.652564 -0.122703 0
M  V30 3128 H 305.042 1.79958 -0.973467 0
M  V30 3129 H 305.052 4.07911 -0.0851129 0
M  V30 3130 H 303.727 3.97218 -1.2325 0
M  V30 3131 H 302.304 3.68422 0.57619 0
M  V30 3132 N 304.489 0.459591 1.5075 0
M  V30 3133 C 305.737 -0.0991532 2.01857 0
M  V30 3134 C 306.058 -1.41247 1.34441 0
M  V30 3135 O 305.328 -1.89775 0.486022 0
M  V30 3136 H 303.908 -0.039633 0.745948 0
M  V30 3137 H 306.57 0.607387 1.85194 0
M  V30 3138 H 305.666 -0.258998 3.11023 0
M  V30 3139 N 305.967 -1.56429 0.191757 0
M  V30 3140 C 306.9 -2.14829 -0.76967 0
M  V30 3141 C 307.878 -1.08405 -1.2119 0
M  V30 3142 O 309.062 -1.36498 -1.30002 0
M  V30 3143 C 306.189 -2.70446 -2.03903 0
M  V30 3144 C 305.235 -3.89428 -1.7392 0
M  V30 3145 S 306.068 -5.28048 -0.890265 0
M  V30 3146 C 307.224 -5.87085 -2.16984 0
M  V30 3147 H 307.457 -2.96042 -0.273204 0
M  V30 3148 H 304.99 -1.54383 -0.0231975 0
M  V30 3149 H 306.948 -3.03134 -2.76803 0
M  V30 3150 H 305.609 -1.89281 -2.50662 0
M  V30 3151 H 304.802 -4.26742 -2.68155 0
M  V30 3152 H 304.404 -3.57732 -1.09103 0
M  V30 3153 H 306.696 -6.01244 -3.12269 0
M  V30 3154 H 307.639 -6.83747 -1.84108 0
M  V30 3155 H 308.047 -5.15663 -2.29678 0
M  V30 3156 N 307.445 0.0818655 -1.57387 0
M  V30 3157 C 308.692 0.782914 -1.86753 0
M  V30 3158 C 309.02 1.78082 -0.782118 0
M  V30 3159 O 308.275 1.94426 0.22295 0
M  V30 3160 C 308.574 1.53513 -3.22752 0
M  V30 3161 C 308.24 0.678134 -4.45771 0
M  V30 3162 C 306.902 0.441929 -4.79166 0
M  V30 3163 C 309.254 0.0832243 -5.21134 0
M  V30 3164 C 306.582 -0.398833 -5.85343 0
M  V30 3165 C 308.934 -0.744935 -6.28199 0
M  V30 3166 C 307.598 -0.991107 -6.60101 0
M  V30 3167 H 306.868 0.286489 -0.683378 0
M  V30 3168 H 309.515 0.0439808 -1.91449 0
M  V30 3169 H 307.82 2.34599 -3.138 0
M  V30 3170 H 309.517 2.08218 -3.42705 0
M  V30 3171 H 306.107 0.872357 -4.19628 0
M  V30 3172 H 310.291 0.252847 -4.95655 0
M  V30 3173 H 305.547 -0.598405 -6.08465 0
M  V30 3174 H 309.721 -1.21271 -6.8576 0
M  V30 3175 H 307.348 -1.64437 -7.42202 0
M  V30 3176 N 308.923 1.53595 0.353017 0
M  V30 3177 C 310.17 1.70385 1.09431 0
M  V30 3178 C 310.498 0.462113 1.88931 0
M  V30 3179 O 309.753 -0.556074 1.87633 0
M  V30 3180 C 310.052 2.91313 2.07054 0
M  V30 3181 C 309.718 4.27308 1.43939 0
M  V30 3182 C 308.38 4.64287 1.26454 0
M  V30 3183 C 310.732 5.11829 0.983883 0
M  V30 3184 C 308.06 5.83412 0.620226 0
M  V30 3185 C 310.412 6.31611 0.353516 0
M  V30 3186 C 309.076 6.67293 0.166272 0
M  V30 3187 H 308.346 0.623484 0.400436 0
M  V30 3188 H 310.993 1.87799 0.374655 0
M  V30 3189 H 309.298 2.68463 2.85368 0
M  V30 3190 H 310.995 3.01497 2.64387 0
M  V30 3191 H 307.585 3.98198 1.58543 0
M  V30 3192 H 311.769 4.838 1.10685 0
M  V30 3193 H 307.025 6.09639 0.463681 0
M  V30 3194 H 311.199 6.964 -0.00757555 0
M  V30 3195 H 308.826 7.59461 -0.335047 0
M  V30 3196 N 310.401 -0.613514 1.45168 0
M  V30 3197 C 311.348 -1.72456 1.53387 0
M  V30 3198 C 312.318 -1.6169 0.380191 0
M  V30 3199 O 313.503 -1.81356 0.592836 0
M  V30 3200 C 310.643 -3.10753 1.50088 0
M  V30 3201 C 309.756 -3.32368 2.75963 0
M  V30 3202 C 308.891 -4.60737 2.64376 0
M  V30 3203 C 307.93 -4.7559 3.85332 0
M  V30 3204 N 307.067 -5.95253 3.72315 0
M  V30 3205 H 311.907 -1.64768 2.48305 0
M  V30 3206 H 309.444 -0.803503 1.23216 0
M  V30 3207 H 311.402 -3.90758 1.46164 0
M  V30 3208 H 310.032 -3.17413 0.587243 0
M  V30 3209 H 309.084 -2.4618 2.89999 0
M  V30 3210 H 310.396 -3.39218 3.65695 0
M  V30 3211 H 309.55 -5.48928 2.58385 0
M  V30 3212 H 308.289 -4.56275 1.72233 0
M  V30 3213 H 307.294 -3.85824 3.91688 0
M  V30 3214 H 308.519 -4.81854 4.78533 0
M  V30 3215 H 306.465 -5.91847 2.82937 0
M  V30 3216 H 306.382 -6.03236 4.55677 0
M  V30 3217 H 307.65 -6.85958 3.70246 0
M  V30 3218 N 311.879 -1.3236 -0.855495 0
M  V30 3219 C 312.811 -1.17052 -1.97057 0
M  V30 3220 C 313.824 -0.10574 -1.62456 0
M  V30 3221 O 315.013 -0.354619 -1.74942 0
M  V30 3222 C 312.113 -0.769305 -3.30053 0
M  V30 3223 C 311.286 -1.9222 -3.929 0
M  V30 3224 C 310.345 -1.50466 -5.04228 0
M  V30 3225 O 309.371 -2.21655 -5.24269 0
M  V30 3226 N 310.573 -0.400209 -5.79119 0
M  V30 3227 H 313.338 -2.13103 -2.1073 0
M  V30 3228 H 310.899 -1.24885 -1.0303 0
M  V30 3229 H 312.891 -0.472407 -4.01933 0
M  V30 3230 H 311.461 0.100025 -3.1244 0
M  V30 3231 H 310.681 -2.38563 -3.13817 0
M  V30 3232 H 311.969 -2.69403 -4.31624 0
M  V30 3233 H 311.367 0.192319 -5.65373 0
M  V30 3234 H 309.924 -0.162912 -6.51596 0
M  V30 3235 N 313.357 1.07166 -1.15556 0
M  V30 3236 C 314.287 2.16403 -0.877046 0
M  V30 3237 C 315.268 1.69217 0.173111 0
M  V30 3238 O 316.453 1.94181 0.027084 0
M  V30 3239 C 313.583 3.45349 -0.367632 0
M  V30 3240 C 312.537 4.05995 -1.35468 0
M  V30 3241 C 311.863 5.30045 -0.704038 0
M  V30 3242 C 313.163 4.45804 -2.72132 0
M  V30 3243 H 314.857 2.39959 -1.79053 0
M  V30 3244 H 312.403 1.15325 -0.862331 0
M  V30 3245 H 314.356 4.21095 -0.160317 0
M  V30 3246 H 313.08 3.21385 0.581326 0
M  V30 3247 H 311.739 3.32296 -1.54839 0
M  V30 3248 H 311.387 5.02373 0.251128 0
M  V30 3249 H 311.087 5.71579 -1.36277 0
M  V30 3250 H 312.611 6.08495 -0.50654 0
M  V30 3251 H 314.025 5.12671 -2.56595 0
M  V30 3252 H 312.422 4.98296 -3.34397 0
M  V30 3253 H 313.492 3.57083 -3.28054 0
M  V30 3254 N 314.835 0.952656 1.25548 0
M  V30 3255 C 316.083 0.605176 1.92826 0
M  V30 3256 C 316.404 -0.860261 1.74999 0
M  V30 3257 O 315.674 -1.6125 1.11244 0
M  V30 3258 H 314.254 0.220832 0.713612 0
M  V30 3259 H 316.916 1.21047 1.52754 0
M  V30 3260 H 316.012 0.832798 3.00784 0
M  V30 3261 N 316.313 -1.40141 0.720998 0
M  V30 3262 C 317.243 -2.33339 0.0867621 0
M  V30 3263 C 318.224 -1.53178 -0.739622 0
M  V30 3264 O 319.409 -1.81625 -0.687449 0
M  V30 3265 C 316.539 -3.37194 -0.831728 0
M  V30 3266 C 315.493 -4.27857 -0.110558 0
M  V30 3267 C 314.819 -5.22294 -1.14513 0
M  V30 3268 C 316.119 -5.11872 1.0385 0
M  V30 3269 H 317.813 -2.86626 0.865219 0
M  V30 3270 H 315.359 -1.37814 0.417516 0
M  V30 3271 H 317.312 -4.01335 -1.28485 0
M  V30 3272 H 316.036 -2.82314 -1.64214 0
M  V30 3273 H 314.695 -3.65176 0.322797 0
M  V30 3274 H 314.343 -4.63717 -1.94874 0
M  V30 3275 H 314.043 -5.83797 -0.667446 0
M  V30 3276 H 315.567 -5.89312 -1.59824 0
M  V30 3277 H 316.981 -5.69436 0.664482 0
M  V30 3278 H 315.378 -5.82445 1.4449 0
M  V30 3279 H 316.448 -4.4753 1.86668 0
M  V30 3280 N 317.792 -0.46758 -1.50504 0
M  V30 3281 C 318.74 0.342482 -2.30065 0
M  V30 3282 C 319.734 0.993596 -1.37201 0
M  V30 3283 O 320.94 0.925102 -1.54408 0
M  V30 3284 H 317.315 0.129283 -0.740803 0
M  V30 3285 H 319.286 -0.34899 -2.96352 0
M  V30 3286 C 318.035 1.4139 -3.17654 0
M  V30 3287 H 317.358 0.922264 -3.89017 0
M  V30 3288 H 318.798 1.95335 -3.76325 0
M  V30 3289 C 317.257 2.4139 -2.35016 0
M  V30 3290 O 317.787 3.46586 -2.03079 0
M  V30 3291 N 315.993 2.13021 -1.97662 0
M  V30 3292 H 315.54 1.27499 -2.23834 0
M  V30 3293 H 315.498 2.80164 -1.42673 0
M  V30 3294 N 319.27 1.56325 -0.20005 0
M  V30 3295 C 320.218 2.20666 0.735482 0
M  V30 3296 C 321.212 1.17934 1.21605 0
M  V30 3297 O 322.418 1.36068 1.17837 0
M  V30 3298 H 318.793 0.70725 0.255542 0
M  V30 3299 H 320.764 2.9792 0.169166 0
M  V30 3300 C 319.513 2.88391 1.94232 0
M  V30 3301 H 318.836 3.67185 1.58161 0
M  V30 3302 H 320.276 3.3684 2.57517 0
M  V30 3303 C 318.735 1.89692 2.78421 0
M  V30 3304 O 319.265 1.40032 3.76502 0
M  V30 3305 N 317.471 1.57813 2.44015 0
M  V30 3306 H 317.018 1.9839 1.64314 0
M  V30 3307 H 316.976 0.920325 3.00628 0
M  V30 3308 N 320.748 -0.0735177 1.57428 0
M  V30 3309 C 321.711 -1.07192 2.02589 0
M  V30 3310 C 322.711 -1.31695 0.922661 0
M  V30 3311 O 323.901 -1.27445 1.18758 0
M  V30 3312 C 321.033 -2.41599 2.40506 0
M  V30 3313 H 322.226 -0.682727 2.92025 0
M  V30 3314 H 319.779 -0.319193 1.53006 0
M  V30 3315 H 320.514 -2.85354 1.5409 0
M  V30 3316 H 320.299 -2.25156 3.21009 0
M  V30 3317 H 321.789 -3.13367 2.76027 0
M  V30 3318 N 322.226 -1.5378 -0.344866 0
M  V30 3319 C 323.473 -1.70963 -1.08526 0
M  V30 3320 C 323.801 -0.472126 -1.88683 0
M  V30 3321 O 323.056 0.546116 -1.87926 0
M  V30 3322 C 323.355 -2.92407 -2.05506 0
M  V30 3323 C 323.021 -4.28066 -1.41671 0
M  V30 3324 C 321.683 -4.64951 -1.2399 0
M  V30 3325 C 324.035 -5.12344 -0.956726 0
M  V30 3326 C 321.363 -5.83733 -0.589277 0
M  V30 3327 C 323.715 -6.3179 -0.320015 0
M  V30 3328 C 322.379 -6.67372 -0.130881 0
M  V30 3329 H 321.649 -0.625598 -0.397124 0
M  V30 3330 H 324.296 -1.87995 -0.36469 0
M  V30 3331 H 322.601 -2.69973 -2.8394 0
M  V30 3332 H 324.298 -3.02895 -2.62784 0
M  V30 3333 H 320.888 -3.99034 -1.56429 0
M  V30 3334 H 325.072 -4.8438 -1.08118 0
M  V30 3335 H 320.328 -6.09877 -0.431344 0
M  V30 3336 H 324.502 -6.96386 0.0445072 0
M  V30 3337 H 322.129 -7.59273 0.375318 0
M  V30 3338 N 323.704 0.605807 -1.45491 0
M  V30 3339 C 324.634 1.72709 -1.57143 0
M  V30 3340 C 325.615 1.6476 -0.422884 0
M  V30 3341 O 326.8 1.83132 -0.646247 0
M  V30 3342 C 323.93 3.11316 -1.53948 0
M  V30 3343 C 322.884 3.34077 -2.67537 0
M  V30 3344 C 322.21 4.72975 -2.49397 0
M  V30 3345 C 323.51 3.24158 -4.09535 0
M  V30 3346 H 325.204 1.63214 -2.51001 0
M  V30 3347 H 322.75 0.78379 -1.208 0
M  V30 3348 H 324.703 3.89557 -1.60696 0
M  V30 3349 H 323.427 3.21655 -0.566205 0
M  V30 3350 H 322.086 2.58227 -2.6022 0
M  V30 3351 H 321.734 4.8005 -1.50205 0
M  V30 3352 H 321.434 4.8916 -3.25571 0
M  V30 3353 H 322.958 5.53414 -2.58002 0
M  V30 3354 H 324.372 3.92271 -4.18086 0
M  V30 3355 H 322.769 3.51872 -4.86113 0
M  V30 3356 H 323.839 2.2157 -4.31317 0
M  V30 3357 N 325.182 1.32811 0.848464 0
M  V30 3358 C 326.593 1.21315 1.41914 0
M  V30 3359 C 326.944 -0.171847 1.95446 0
M  V30 3360 O 326.069 -1.07093 1.88043 0
M  V30 3361 C 326.664 2.19631 2.57968 0
M  V30 3362 C 325.223 2.12003 3.11017 0
M  V30 3363 C 324.37 2.07651 1.83783 0
M  V30 3364 H 327.321 1.44549 0.655071 0
M  V30 3365 H 327.342 1.79845 3.35315 0
M  V30 3366 H 326.854 3.20423 2.18976 0
M  V30 3367 H 324.955 1.14481 3.54577 0
M  V30 3368 H 325.068 3.02111 3.71841 0
M  V30 3369 H 323.432 1.52983 2.03638 0
M  V30 3370 H 324.215 3.10235 1.47 0
M  V30 3371 N 326.66 -1.06551 1.16123 0
M  V30 3372 C 327.906 -1.79567 0.94252 0
M  V30 3373 C 328.239 -1.86869 -0.528547 0
M  V30 3374 O 327.514 -1.35838 -1.39206 0
M  V30 3375 C 327.797 -3.24195 1.56747 0
M  V30 3376 C 327.65 -3.24989 3.10969 0
M  V30 3377 C 328.969 -4.21678 1.25998 0
M  V30 3378 H 326.088 -0.651883 0.343828 0
M  V30 3379 H 328.73 -1.2463 1.43413 0
M  V30 3380 H 326.88 -3.71107 1.14942 0
M  V30 3381 H 328.552 -2.86258 3.61737 0
M  V30 3382 H 326.795 -2.63716 3.44436 0
M  V30 3383 H 327.466 -4.27005 3.49815 0
M  V30 3384 H 329.942 -3.83196 1.62174 0
M  V30 3385 H 328.818 -5.21146 1.7233 0
M  V30 3386 H 329.079 -4.4174 0.178367 0
M  V30 3387 N 328.138 -0.959301 -1.25041 0
M  V30 3388 C 329.085 -0.482057 -2.2571 0
M  V30 3389 C 330.055 0.467939 -1.59372 0
M  V30 3390 O 331.24 0.380159 -1.86974 0
M  V30 3391 C 328.38 0.229623 -3.44335 0
M  V30 3392 C 327.493 -0.758156 -4.25295 0
M  V30 3393 C 326.628 -0.0234403 -5.31195 0
M  V30 3394 C 325.667 -1.00184 -6.03846 0
M  V30 3395 N 324.804 -0.29769 -7.01469 0
M  V30 3396 H 329.644 -1.34538 -2.65901 0
M  V30 3397 H 327.181 -0.674592 -1.3072 0
M  V30 3398 H 329.139 0.658856 -4.11965 0
M  V30 3399 H 327.769 1.05696 -3.05005 0
M  V30 3400 H 326.821 -1.30586 -3.57284 0
M  V30 3401 H 328.133 -1.50458 -4.75567 0
M  V30 3402 H 327.287 0.464201 -6.04922 0
M  V30 3403 H 326.026 0.755741 -4.81809 0
M  V30 3404 H 325.031 -1.50044 -5.2893 0
M  V30 3405 H 326.256 -1.78133 -6.55321 0
M  V30 3406 H 324.202 0.462668 -6.54366 0
M  V30 3407 H 324.119 -0.983128 -7.4958 0
M  V30 3408 H 325.387 0.16826 -7.79318 0
M  V30 3409 N 329.616 1.39756 -0.72842 0
M  V30 3410 C 330.864 2.00248 -0.272946 0
M  V30 3411 C 331.185 1.58077 1.14178 0
M  V30 3412 O 330.455 0.826014 1.77634 0
M  V30 3413 H 329.035 0.740554 -0.0979247 0
M  V30 3414 H 331.697 1.70903 -0.936912 0
M  V30 3415 H 330.793 3.10495 -0.316142 0
M  V30 3416 N 331.094 0.475555 1.50254 0
M  V30 3417 C 332.004 -0.321501 2.32387 0
M  V30 3418 C 333.02 -0.991755 1.42969 0
M  V30 3419 O 334.196 -0.978747 1.76018 0
M  V30 3420 C 331.261 -1.38667 3.17762 0
M  V30 3421 C 330.322 -0.732538 4.23004 0
M  V30 3422 C 329.555 -1.74695 5.04299 0
M  V30 3423 O 329.778 -2.97399 4.86734 0
M  V30 3424 O 328.712 -1.31631 5.8733 0
M  V30 3425 H 332.538 0.350071 3.01676 0
M  V30 3426 H 330.123 0.237321 1.47503 0
M  V30 3427 H 332.005 -2.00354 3.70724 0
M  V30 3428 H 330.68 -2.04163 2.51196 0
M  V30 3429 H 329.587 -0.0765902 3.74022 0
M  V30 3430 H 330.92 -0.120452 4.92053 0
M  V30 3431 N 332.573 -1.56217 0.208337 0
M  V30 3432 C 333.813 -1.99849 -0.428927 0
M  V30 3433 C 334.177 -1.09262 -1.57879 0
M  V30 3434 O 335.378 -1.42185 -2.28116 0
M  V30 3435 C 333.649 -3.46777 -0.864879 0
M  V30 3436 S 335.208 -4.12434 -1.49811 0
M  V30 3437 H 332.026 -0.697742 -0.136665 0
M  V30 3438 H 334.628 -1.92953 0.314519 0
M  V30 3439 H 333.332 -4.10396 -0.0181326 0
M  V30 3440 H 332.863 -3.57518 -1.64147 0
M  V30 3441 H 334.878 -4.10532 -2.78707 0
M  V30 3442 N 334.051 0.0651679 -1.57465 0
M  V30 3443 C 334.981 1.07693 -2.07182 0
M  V30 3444 C 335.962 1.39962 -0.966673 0
M  V30 3445 O 337.147 1.49475 -1.2398 0
M  V30 3446 C 334.277 2.3885 -2.52127 0
M  V30 3447 C 333.231 2.20917 -3.66579 0
M  V30 3448 C 332.557 3.57515 -3.97601 0
M  V30 3449 C 333.857 1.62493 -4.9638 0
M  V30 3450 H 335.551 0.663199 -2.91962 0
M  V30 3451 H 333.097 0.317569 -1.40455 0
M  V30 3452 H 335.05 3.09928 -2.85522 0
M  V30 3453 H 333.774 2.82215 -1.64384 0
M  V30 3454 H 332.433 1.52279 -3.33477 0
M  V30 3455 H 332.081 3.98463 -3.06979 0
M  V30 3456 H 331.781 3.46353 -4.74672 0
M  V30 3457 H 333.305 4.30013 -4.33499 0
M  V30 3458 H 334.719 2.23445 -5.27963 0
M  V30 3459 H 333.116 1.62009 -5.77818 0
M  V30 3460 H 334.186 0.587041 -4.81333 0
M  V30 3461 N 335.529 1.53961 0.336706 0
M  V30 3462 C 336.754 1.75797 1.10046 0
M  V30 3463 C 337.179 0.498985 1.81361 0
M  V30 3464 O 336.537 -0.548769 1.72795 0
M  V30 3465 C 336.585 2.94257 2.08436 0
M  V30 3466 O 335.689 2.64883 3.16087 0
M  V30 3467 H 335.03 0.582936 0.317934 0
M  V30 3468 H 337.56 2.00945 0.38501 0
M  V30 3469 H 337.57 3.21237 2.51537 0
M  V30 3470 H 336.245 3.85564 1.55927 0
M  V30 3471 H 334.822 2.48812 2.77753 0
M  V30 3472 N 337.007 -0.598083 1.45811 0
M  V30 3473 C 338.253 -1.35882 1.50545 0
M  V30 3474 C 338.586 -1.93616 0.150445 0
M  V30 3475 O 337.861 -1.75604 -0.83628 0
M  V30 3476 C 338.144 -2.49966 2.59208 0
M  V30 3477 C 337.997 -1.97367 4.04186 0
M  V30 3478 C 339.316 -3.52068 2.64076 0
M  V30 3479 H 336.435 -0.492717 0.548087 0
M  V30 3480 H 339.077 -0.673319 1.77669 0
M  V30 3481 H 337.227 -3.08443 2.3621 0
M  V30 3482 H 338.899 -1.43466 4.38423 0
M  V30 3483 H 337.142 -1.283 4.14393 0
M  V30 3484 H 337.813 -2.79649 4.75921 0
M  V30 3485 H 340.289 -3.03448 2.84708 0
M  V30 3486 H 339.165 -4.2937 3.41954 0
M  V30 3487 H 339.426 -4.08304 1.69531 0
M  V30 3488 N 338.485 -1.33259 -0.841409 0
M  V30 3489 C 339.731 -1.25766 -1.59857 0
M  V30 3490 C 340.086 0.175602 -1.91597 0
M  V30 3491 O 339.379 1.117 -1.55672 0
M  V30 3492 C 339.573 -2.06381 -2.9179 0
M  V30 3493 C 339.402 -3.57401 -2.72937 0
M  V30 3494 C 338.172 -4.26718 -2.70628 0
M  V30 3495 C 340.37 -4.51786 -2.45753 0
M  V30 3496 N 338.352 -5.63705 -2.43125 0
M  V30 3497 C 339.723 -5.76643 -2.27777 0
M  V30 3498 C 341.778 -4.40898 -2.31329 0
M  V30 3499 C 340.481 -6.91842 -1.96841 0
M  V30 3500 C 342.507 -5.55911 -2.01786 0
M  V30 3501 C 341.869 -6.79776 -1.8462 0
M  V30 3502 H 337.968 -0.515406 -0.588117 0
M  V30 3503 H 340.552 -1.67772 -0.987955 0
M  V30 3504 H 338.723 -1.667 -3.50807 0
M  V30 3505 H 340.455 -1.90678 -3.56965 0
M  V30 3506 H 337.21 -3.78968 -2.84043 0
M  V30 3507 H 337.634 -6.35911 -2.32265 0
M  V30 3508 H 342.276 -3.45772 -2.43314 0
M  V30 3509 H 339.994 -7.86968 -1.83594 0
M  V30 3510 H 343.58 -5.49421 -1.91384 0
M  V30 3511 H 342.46 -7.67266 -1.62088 0
M  V30 3512 N 339.963 1.05934 -1.16686 0
M  V30 3513 C 340.911 2.15603 -0.872817 0
M  V30 3514 C 341.905 1.68647 0.159576 0
M  V30 3515 O 343.111 1.79995 0.0132125 0
M  V30 3516 H 339.486 0.703885 -0.264671 0
M  V30 3517 H 341.457 2.37613 -1.80507 0
M  V30 3518 C 340.206 3.45457 -0.394344 0
M  V30 3519 H 339.529 3.81984 -1.18019 0
M  V30 3520 H 340.969 4.2339 -0.227408 0
M  V30 3521 C 339.428 3.25021 0.88673 0
M  V30 3522 O 339.958 3.50906 1.95519 0
M  V30 3523 N 338.164 2.78437 0.831925 0
M  V30 3524 H 337.711 2.57572 -0.0377619 0
M  V30 3525 H 337.669 2.65144 1.68956 0
M  V30 3526 N 341.441 0.965919 1.2453 0
M  V30 3527 C 342.718 0.543777 1.87889 0
M  V30 3528 C 343.098 -0.97909 1.87021 0
M  V30 3529 O 342.446 -1.84969 1.3416 0
M  V30 3530 C 342.656 1.13327 3.30088 0
M  V30 3531 C 344.004 1.21707 4.06783 0
M  V30 3532 O 345.028 1.08566 3.39252 0
M  V30 3533 O 343.887 1.42456 5.27606 0
M  V30 3534 H 340.981 0.181054 0.806938 0
M  V30 3535 H 343.527 1.06007 1.32516 0
M  V30 3536 H 342.299 2.17612 3.25209 0
M  V30 3537 H 341.922 0.600911 3.93033 0
M  V30 3538 N 342.919 -1.39368 0.735821 0
M  V30 3539 C 344.196 -1.94465 0.210395 0
M  V30 3540 C 344.576 -1.67254 -1.28799 0
M  V30 3541 O 343.924 -1.00123 -2.05396 0
M  V30 3542 C 344.134 -3.4472 0.544897 0
M  V30 3543 C 345.482 -4.21708 0.494689 0
M  V30 3544 O 346.506 -3.52922 0.482136 0
M  V30 3545 O 345.365 -5.44299 0.489947 0
M  V30 3546 H 342.459 -0.826096 0.0386666 0
M  V30 3547 H 345.005 -1.48863 0.814735 0
M  V30 3548 H 343.777 -3.57963 1.58045 0
M  V30 3549 H 343.4 -3.97502 -0.08837 0
M  V30 3550 N 344.397 -0.483516 -1.5 0
M  V30 3551 C 345.646 0.0689102 -2.01582 0
M  V30 3552 C 345.959 1.39655 -1.36952 0
M  V30 3553 O 347.165 2.03465 -1.79762 0
M  V30 3554 C 345.621 0.173302 -3.59483 0
M  V30 3555 C 345.229 -1.14665 -4.33077 0
M  V30 3556 C 346.973 0.677024 -4.19066 0
M  V30 3557 C 344.88 -1.00537 -5.82792 0
M  V30 3558 H 343.81 0.0295277 -0.753422 0
M  V30 3559 H 346.461 -0.620295 -1.72698 0
M  V30 3560 H 344.843 0.926569 -3.85007 0
M  V30 3561 H 346.017 -1.91184 -4.19268 0
M  V30 3562 H 344.332 -1.58244 -3.85159 0
M  V30 3563 H 346.929 0.799952 -5.28682 0
M  V30 3564 H 347.272 1.67151 -3.81269 0
M  V30 3565 H 347.805 -0.0192083 -3.97795 0
M  V30 3566 H 344.544 -1.9736 -6.25083 0
M  V30 3567 H 344.064 -0.280776 -5.99142 0
M  V30 3568 H 345.743 -0.677 -6.43448 0
M  V30 3569 N 345.875 1.56104 -0.216619 0
M  V30 3570 C 347.286 1.844 0.292128 0
M  V30 3571 C 347.637 1.13788 1.59833 0
M  V30 3572 O 346.762 0.405888 2.12559 0
M  V30 3573 C 347.357 3.3452 0.53681 0
M  V30 3574 C 345.916 3.63151 0.989876 0
M  V30 3575 C 345.063 2.77255 0.0502302 0
M  V30 3576 H 348.014 1.52481 -0.439926 0
M  V30 3577 H 348.035 3.54459 1.38345 0
M  V30 3578 H 347.547 3.85885 -0.414031 0
M  V30 3579 H 345.648 3.17238 1.95425 0
M  V30 3580 H 345.761 4.71177 0.867698 0
M  V30 3581 H 344.125 2.48555 0.556117 0
M  V30 3582 H 344.908 3.31416 -0.89544 0
M  V30 3583 N 347.353 -0.0568162 1.57498 0
M  V30 3584 C 348.283 -1.06593 2.0775 0
M  V30 3585 C 349.264 -1.39448 0.974082 0
M  V30 3586 O 350.449 -1.48815 1.24771 0
M  V30 3587 C 347.579 -2.37509 2.5339 0
M  V30 3588 C 346.533 -2.1897 3.67745 0
M  V30 3589 C 345.859 -3.55402 3.99492 0
M  V30 3590 C 347.159 -1.59859 4.97235 0
M  V30 3591 H 348.853 -0.647706 2.9231 0
M  V30 3592 H 346.399 -0.310116 1.40621 0
M  V30 3593 H 348.352 -3.08409 2.87162 0
M  V30 3594 H 347.076 -2.8134 1.65878 0
M  V30 3595 H 345.735 -1.50508 3.3428 0
M  V30 3596 H 345.383 -3.9683 3.09088 0
M  V30 3597 H 345.083 -3.43831 4.76502 0
M  V30 3598 H 346.607 -4.27708 4.35773 0
M  V30 3599 H 348.021 -2.20642 5.29141 0
M  V30 3600 H 346.418 -1.58942 5.78669 0
M  V30 3601 H 347.488 -0.561506 4.81638 0
M  V30 3602 N 348.832 -1.54138 -0.328536 0
M  V30 3603 C 350.06 -1.76062 -1.08673 0
M  V30 3604 C 350.475 -0.506852 -1.81869 0
M  V30 3605 O 349.832 0.522223 -1.74869 0
M  V30 3606 C 349.883 -2.95054 -2.08866 0
M  V30 3607 O 349.604 -4.15583 -1.38644 0
M  V30 3608 C 351.105 -3.2915 -2.96943 0
M  V30 3609 H 348.325 -0.587889 -0.323461 0
M  V30 3610 H 350.869 -2.0101 -0.376175 0
M  V30 3611 H 349.024 -2.72394 -2.75464 0
M  V30 3612 H 349.438 -4.82481 -2.05699 0
M  V30 3613 H 350.912 -4.15723 -3.63151 0
M  V30 3614 H 351.389 -2.461 -3.63774 0
M  V30 3615 H 351.995 -3.53871 -2.35914 0
M  V30 3616 N 350.31 0.590341 -1.46126 0
M  V30 3617 C 351.257 1.69994 -1.56111 0
M  V30 3618 C 352.227 1.61065 -0.405867 0
M  V30 3619 O 353.412 1.8039 -0.621613 0
M  V30 3620 C 350.552 3.08326 -1.55013 0
M  V30 3621 C 349.665 3.27936 -2.81215 0
M  V30 3622 C 348.8 4.56473 -2.71673 0
M  V30 3623 C 347.839 4.694 -3.92849 0
M  V30 3624 N 346.976 5.89254 -3.81738 0
M  V30 3625 H 351.816 1.60797 -2.50895 0
M  V30 3626 H 349.353 0.783799 -1.24479 0
M  V30 3627 H 351.311 3.88383 -1.52362 0
M  V30 3628 H 349.941 3.16439 -0.637667 0
M  V30 3629 H 348.993 2.41536 -2.93879 0
M  V30 3630 H 350.305 3.33357 -3.71045 0
M  V30 3631 H 349.459 5.44748 -2.67085 0
M  V30 3632 H 348.198 4.53477 -1.7947 0
M  V30 3633 H 347.203 3.79544 -3.97777 0
M  V30 3634 H 348.428 4.7418 -4.86138 0
M  V30 3635 H 346.374 5.87271 -2.92317 0
M  V30 3636 H 346.291 5.95911 -4.65217 0
M  V30 3637 H 347.559 6.79981 -3.81112 0
M  V30 3638 N 351.788 1.33704 0.83433 0
M  V30 3639 C 353.016 1.28467 1.62185 0
M  V30 3640 C 353.431 -0.143526 1.88254 0
M  V30 3641 O 352.788 -1.08709 1.4659 0
M  V30 3642 C 352.839 2.06174 2.96942 0
M  V30 3643 O 352.56 3.43422 2.72016 0
M  V30 3644 C 354.061 2.08201 3.91366 0
M  V30 3645 H 351.281 0.4424 0.504503 0
M  V30 3646 H 353.825 1.76145 1.03891 0
M  V30 3647 H 351.98 1.62167 3.51825 0
M  V30 3648 H 352.394 3.83453 3.57861 0
M  V30 3649 H 353.868 2.67017 4.83121 0
M  V30 3650 H 354.345 1.07343 4.2588 0
M  V30 3651 H 354.951 2.52246 3.42421 0
M  V30 3652 N 353.266 -1.05314 1.17247 0
M  V30 3653 C 354.196 -2.1498 0.911362 0
M  V30 3654 C 355.177 -1.69471 -0.146169 0
M  V30 3655 O 356.362 -1.942 0.003812 0
M  V30 3656 C 353.492 -3.4472 0.422528 0
M  V30 3657 C 352.446 -4.03789 1.4191 0
M  V30 3658 C 351.772 -5.28858 0.788274 0
M  V30 3659 C 353.072 -4.41418 2.7919 0
M  V30 3660 H 354.766 -2.3708 1.82848 0
M  V30 3661 H 352.312 -1.13938 0.880569 0
M  V30 3662 H 354.265 -4.20787 0.227289 0
M  V30 3663 H 352.989 -3.22269 -0.530123 0
M  V30 3664 H 351.648 -3.2979 1.60106 0
M  V30 3665 H 351.296 -5.02709 -0.171173 0
M  V30 3666 H 350.996 -5.69338 1.45353 0
M  V30 3667 H 352.52 -6.07612 0.603282 0
M  V30 3668 H 353.934 -5.08524 2.64719 0
M  V30 3669 H 352.331 -4.92913 3.42282 0
M  V30 3670 H 353.401 -3.51819 3.33693 0
M  V30 3671 N 354.744 -0.972509 -1.24016 0
M  V30 3672 C 355.974 -0.653853 -1.9598 0
M  V30 3673 C 356.382 0.781801 -1.72292 0
M  V30 3674 O 355.725 1.53677 -1.00644 0
M  V30 3675 C 355.787 -0.854608 -3.49194 0
M  V30 3676 C 355.451 -2.27082 -3.96589 0
M  V30 3677 C 356.448 -3.24892 -4.05883 0
M  V30 3678 C 354.133 -2.5998 -4.29786 0
M  V30 3679 C 356.127 -4.53684 -4.47716 0
M  V30 3680 C 353.814 -3.88997 -4.71301 0
M  V30 3681 C 354.812 -4.85661 -4.80232 0
M  V30 3682 O 354.5 -6.12376 -5.20818 0
M  V30 3683 H 354.232 -0.242572 -0.630979 0
M  V30 3684 H 356.786 -1.30431 -1.58673 0
M  V30 3685 H 355.016 -0.146985 -3.86421 0
M  V30 3686 H 356.705 -0.534311 -4.02368 0
M  V30 3687 H 357.471 -3.00805 -3.80449 0
M  V30 3688 H 353.35 -1.85457 -4.22051 0
M  V30 3689 H 356.894 -5.29135 -4.54601 0
M  V30 3690 H 352.791 -4.12882 -4.96184 0
M  V30 3691 H 353.559 -6.16013 -5.38953 0
M  V30 3692 N 356.222 1.38976 -0.743202 0
M  V30 3693 C 357.172 2.27843 -0.084513 0
M  V30 3694 C 358.156 1.44677 0.704094 0
M  V30 3695 O 359.348 1.67511 0.571755 0
M  V30 3696 C 356.477 3.33466 0.815781 0
M  V30 3697 C 355.563 4.24095 0.0208844 0
M  V30 3698 N 355.954 4.95609 -1.0102 0
M  V30 3699 C 354.252 4.45303 0.249293 0
M  V30 3700 C 354.953 5.62287 -1.49024 0
M  V30 3701 N 353.929 5.37571 -0.807377 0
M  V30 3702 H 357.731 2.80593 -0.87436 0
M  V30 3703 H 355.245 1.51755 -0.578283 0
M  V30 3704 H 357.242 3.96008 1.30321 0
M  V30 3705 H 355.902 2.82276 1.6047 0
M  V30 3706 H 356.913 4.98849 -1.39176 0
M  V30 3707 H 353.59 4.0504 1.01237 0
M  V30 3708 H 354.98 6.29519 -2.34853 0
M  V30 3709 N 357.7 0.491464 1.49741 0
M  V30 3710 C 358.977 -0.118984 1.95238 0
M  V30 3711 C 359.357 -1.55044 1.43264 0
M  V30 3712 O 358.705 -2.19287 0.642287 0
M  V30 3713 C 358.915 -0.0414187 3.48975 0
M  V30 3714 C 360.263 -0.220133 4.24029 0
M  V30 3715 O 361.287 -0.117055 3.56008 0
M  V30 3716 O 360.146 -0.430567 5.44801 0
M  V30 3717 H 357.24 -0.100536 0.820866 0
M  V30 3718 H 359.786 0.553322 1.60426 0
M  V30 3719 H 358.558 0.957214 3.79412 0
M  V30 3720 H 358.181 -0.754292 3.9038 0
M  V30 3721 N 359.178 -1.55987 0.224894 0
M  V30 3722 C 360.128 -2.17076 -0.697296 0
M  V30 3723 C 361.112 -1.12006 -1.15514 0
M  V30 3724 O 362.304 -1.37985 -1.10857 0
M  V30 3725 C 359.433 -2.85679 -1.90374 0
M  V30 3726 C 358.519 -3.97977 -1.46543 0
M  V30 3727 N 358.91 -5.00359 -0.739909 0
M  V30 3728 C 357.208 -4.10128 -1.75245 0
M  V30 3729 C 357.909 -5.79407 -0.515939 0
M  V30 3730 N 356.885 -5.32892 -1.07364 0
M  V30 3731 H 360.687 -2.93592 -0.134594 0
M  V30 3732 H 358.201 -1.62379 0.0262885 0
M  V30 3733 H 360.198 -3.27857 -2.57518 0
M  V30 3734 H 358.858 -2.1066 -2.47088 0
M  V30 3735 H 359.869 -5.16412 -0.392253 0
M  V30 3736 H 356.546 -3.46263 -2.33255 0
M  V30 3737 H 357.936 -6.71872 0.0617349 0
M  V30 3738 N 360.656 0.0484629 -1.57525 0
M  V30 3739 C 361.896 0.748196 -1.90214 0
M  V30 3740 C 362.26 1.73545 -0.821347 0
M  V30 3741 O 363.461 2.48201 -1.03198 0
M  V30 3742 C 361.732 1.41727 -3.28098 0
M  V30 3743 S 363.291 2.14884 -3.82584 0
M  V30 3744 H 360.109 0.248307 -0.666232 0
M  V30 3745 H 362.711 0.00343188 -1.955 0
M  V30 3746 H 361.415 0.685244 -4.04639 0
M  V30 3747 H 360.946 2.20099 -3.26068 0
M  V30 3748 H 362.961 3.41755 -3.59747 0
M  V30 3749 N 362.134 1.5431 0.320358 0
M  V30 3750 C 363.364 1.7638 1.07582 0
M  V30 3751 C 363.772 0.513944 1.82086 0
M  V30 3752 O 363.115 -0.525123 1.76035 0
M  V30 3753 C 363.177 2.9055 2.1171 0
M  V30 3754 C 362.841 4.2934 1.56575 0
M  V30 3755 C 363.838 5.10077 1.00586 0
M  V30 3756 C 361.523 4.75893 1.60722 0
M  V30 3757 C 363.517 6.35477 0.494756 0
M  V30 3758 C 361.204 6.0126 1.09224 0
M  V30 3759 C 362.202 6.80886 0.53696 0
M  V30 3760 O 361.89 8.03894 0.0297371 0
M  V30 3761 H 361.622 0.592369 0.325692 0
M  V30 3762 H 364.176 2.02019 0.37116 0
M  V30 3763 H 362.406 2.60489 2.85801 0
M  V30 3764 H 364.095 3.00373 2.73003 0
M  V30 3765 H 364.861 4.75265 0.966869 0
M  V30 3766 H 360.74 4.13957 2.02882 0
M  V30 3767 H 364.284 6.97574 0.0606842 0
M  V30 3768 H 360.181 6.35562 1.12831 0
M  V30 3769 H 360.949 8.18372 0.14486 0
M  V30 3770 N 363.613 -0.582584 1.46437 0
M  V30 3771 C 364.862 -1.337 1.5102 0
M  V30 3772 C 365.175 -1.94891 0.166359 0
M  V30 3773 O 366.381 -2.71351 0.0899954 0
M  V30 3774 C 364.837 -2.42315 2.66104 0
M  V30 3775 C 364.445 -1.87427 4.06909 0
M  V30 3776 C 366.189 -3.19099 2.79958 0
M  V30 3777 C 364.096 -2.93672 5.13333 0
M  V30 3778 H 363.026 -0.502619 0.562041 0
M  V30 3779 H 365.677 -0.621701 1.72647 0
M  V30 3780 H 364.059 -3.16645 2.37807 0
M  V30 3781 H 365.233 -1.19639 4.44998 0
M  V30 3782 H 363.548 -1.2331 3.97723 0
M  V30 3783 H 366.145 -3.9839 3.56636 0
M  V30 3784 H 366.488 -3.71695 1.87479 0
M  V30 3785 H 367.021 -2.51875 3.07902 0
M  V30 3786 H 363.76 -2.45962 6.07604 0
M  V30 3787 H 363.28 -3.59948 4.79789 0
M  V30 3788 H 364.959 -3.5762 5.39182 0
M  V30 3789 N 365.091 -1.34144 -0.827227 0
M  V30 3790 C 366.337 -1.26446 -1.58554 0
M  V30 3791 C 366.67 0.1664 -1.93486 0
M  V30 3792 O 365.945 1.1107 -1.59667 0
M  V30 3793 C 366.228 -2.15111 -2.8879 0
M  V30 3794 C 366.081 -3.66712 -2.60465 0
M  V30 3795 C 367.4 -2.03311 -3.90324 0
M  V30 3796 H 364.519 -0.46067 -0.575284 0
M  V30 3797 H 367.161 -1.64356 -0.953269 0
M  V30 3798 H 365.311 -1.8291 -3.42748 0
M  V30 3799 H 366.983 -4.09259 -2.1285 0
M  V30 3800 H 365.226 -3.88014 -1.93978 0
M  V30 3801 H 365.897 -4.24112 -3.53317 0
M  V30 3802 H 368.373 -2.31574 -3.45706 0
M  V30 3803 H 367.249 -2.67582 -4.79261 0
M  V30 3804 H 367.51 -1.00879 -4.30437 0
M  V30 3805 N 366.569 1.04691 -1.17803 0
M  V30 3806 C 367.98 1.59238 -0.974689 0
M  V30 3807 C 368.331 1.90306 0.477292 0
M  V30 3808 O 367.456 1.68846 1.35352 0
M  V30 3809 C 368.051 2.89318 -1.76296 0
M  V30 3810 C 366.61 3.40506 -1.60414 0
M  V30 3811 C 365.757 2.14172 -1.76141 0
M  V30 3812 H 368.708 0.874395 -1.32439 0
M  V30 3813 H 368.729 3.5944 -1.24833 0
M  V30 3814 H 368.241 2.66675 -2.81968 0
M  V30 3815 H 366.342 3.68175 -0.572519 0
M  V30 3816 H 366.455 4.14753 -2.39827 0
M  V30 3817 H 364.819 2.25176 -1.19028 0
M  V30 3818 H 365.602 1.93992 -2.83235 0
M  V30 3819 N 368.047 0.979072 1.23499 0
M  V30 3820 C 369.463 0.687475 1.44034 0
M  V30 3821 C 369.663 -0.746801 1.8715 0
M  V30 3822 O 368.719 -1.51939 2.0167 0
M  V30 3823 C 370.032 1.68127 2.49307 0
M  V30 3824 C 371.58 1.69516 2.63122 0
M  V30 3825 C 372.055 2.67723 3.71603 0
M  V30 3826 N 373.546 2.66233 3.79044 0
M  V30 3827 C 374.281 3.38891 4.62537 0
M  V30 3828 N 373.777 4.21103 5.50131 0
M  V30 3829 N 375.57 3.27661 4.56721 0
M  V30 3830 H 367.721 1.90559 0.938135 0
M  V30 3831 H 369.984 0.821051 0.473897 0
M  V30 3832 H 369.69 2.70693 2.2454 0
M  V30 3833 H 369.564 1.46306 3.4767 0
M  V30 3834 H 371.951 0.676561 2.8724 0
M  V30 3835 H 372.032 1.95404 1.65079 0
M  V30 3836 H 371.676 3.69724 3.48233 0
M  V30 3837 H 371.606 2.39111 4.69184 0
M  V30 3838 H 374.097 2.06568 3.16446 0
M  V30 3839 H 374.41 4.73403 6.10827 0
M  V30 3840 H 372.755 4.25195 5.49759 0
M  V30 3841 H 375.946 2.62887 3.87309 0
M  V30 3842 H 376.119 3.84547 5.21562 0
M  V30 3843 N 369.525 -1.3858 0.750561 0
M  V30 3844 C 370.472 -2.30483 0.120835 0
M  V30 3845 C 371.442 -1.50022 -0.712923 0
M  V30 3846 O 372.627 -1.78662 -0.669676 0
M  V30 3847 C 369.767 -3.36431 -0.768666 0
M  V30 3848 C 368.88 -4.31927 0.0793922 0
M  V30 3849 C 368.015 -5.24944 -0.81283 0
M  V30 3850 C 367.054 -6.12088 0.0390447 0
M  V30 3851 N 366.191 -6.97412 -0.809969 0
M  V30 3852 H 371.031 -2.83761 0.91015 0
M  V30 3853 H 368.568 -1.39707 0.460463 0
M  V30 3854 H 370.526 -3.96462 -1.29898 0
M  V30 3855 H 369.156 -2.8457 -1.5238 0
M  V30 3856 H 368.208 -3.73382 0.727303 0
M  V30 3857 H 369.52 -4.93319 0.737401 0
M  V30 3858 H 368.674 -5.90078 -1.41042 0
M  V30 3859 H 367.413 -4.63911 -1.50458 0
M  V30 3860 H 366.418 -5.45952 0.649328 0
M  V30 3861 H 367.643 -6.75189 0.727809 0
M  V30 3862 H 365.589 -6.38931 -1.48672 0
M  V30 3863 H 365.506 -7.55712 -0.208789 0
M  V30 3864 H 366.774 -7.66959 -1.39263 0
M  V30 3865 N 371.003 -0.499398 -1.49478 0
M  V30 3866 C 372.228 0.044722 -2.07352 0
M  V30 3867 C 372.653 1.30207 -1.35749 0
M  V30 3868 O 372.011 1.76516 -0.413732 0
M  V30 3869 C 372.059 0.283013 -3.59488 0
M  V30 3870 O 371.163 1.35804 -3.89398 0
M  V30 3871 H 370.504 -0.0255147 -0.66351 0
M  V30 3872 H 373.034 -0.698561 -1.92305 0
M  V30 3873 H 373.044 0.515007 -4.04737 0
M  V30 3874 H 371.719 -0.635636 -4.11014 0
M  V30 3875 H 370.296 1.11113 -3.55961 0
M  V30 3876 N 372.481 1.55866 -0.233164 0
M  V30 3877 C 373.729 1.9821 0.394593 0
M  V30 3878 C 374.05 1.12234 1.59463 0
M  V30 3879 O 373.32 0.201981 1.94856 0
M  V30 3880 H 371.9 0.732034 0.148778 0
M  V30 3881 H 374.562 1.92107 -0.32876 0
M  V30 3882 H 373.658 3.03845 0.713063 0
M  V30 3883 N 373.959 -0.0401083 1.57549 0
M  V30 3884 C 375.375 -0.395556 1.54621 0
M  V30 3885 C 375.575 -1.77281 0.957799 0
M  V30 3886 O 374.631 -2.45888 0.574031 0
M  V30 3887 C 375.944 -0.307535 2.99123 0
M  V30 3888 C 377.492 -0.385425 3.10618 0
M  V30 3889 C 377.967 -0.326973 4.56831 0
M  V30 3890 N 379.458 -0.386102 4.61588 0
M  V30 3891 C 380.193 -0.363591 5.72246 0
M  V30 3892 N 379.689 -0.29402 6.92176 0
M  V30 3893 N 381.482 -0.412503 5.60584 0
M  V30 3894 H 373.633 0.861325 1.94152 0
M  V30 3895 H 375.896 0.326445 0.890021 0
M  V30 3896 H 375.602 0.638461 3.45856 0
M  V30 3897 H 375.476 -1.10552 3.60636 0
M  V30 3898 H 377.863 -1.32185 2.63839 0
M  V30 3899 H 377.944 0.44171 2.51957 0
M  V30 3900 H 377.588 0.605738 5.04275 0
M  V30 3901 H 377.518 -1.17207 5.13391 0
M  V30 3902 H 380.009 -0.442832 3.75296 0
M  V30 3903 H 380.322 -0.28164 7.72287 0
M  V30 3904 H 378.667 -0.260232 6.94513 0
M  V30 3905 H 381.858 -0.464769 4.65787 0
M  V30 3906 H 382.031 -0.391492 6.46816 0
M  V30 3907 N 375.437 -1.54477 -0.31217 0
M  V30 3908 C 376.367 -1.87652 -1.38957 0
M  V30 3909 C 377.348 -0.734358 -1.53431 0
M  V30 3910 O 378.533 -0.98911 -1.67123 0
M  V30 3911 C 375.663 -2.11396 -2.75552 0
M  V30 3912 C 374.617 -3.27243 -2.75855 0
M  V30 3913 C 373.943 -3.36382 -4.15633 0
M  V30 3914 C 375.243 -4.64622 -2.38587 0
M  V30 3915 H 376.937 -2.77887 -1.11442 0
M  V30 3916 H 374.483 -1.33707 -0.534655 0
M  V30 3917 H 376.436 -2.33189 -3.51 0
M  V30 3918 H 375.16 -1.17921 -3.04569 0
M  V30 3919 H 373.819 -3.05356 -2.02863 0
M  V30 3920 H 373.467 -2.40445 -4.41809 0
M  V30 3921 H 373.167 -4.14249 -4.1674 0
M  V30 3922 H 374.691 -3.60422 -4.92877 0
M  V30 3923 H 376.105 -4.86219 -3.03749 0
M  V30 3924 H 374.502 -5.45121 -2.50925 0
M  V30 3925 H 375.572 -4.66097 -1.33723 0
M  V30 3926 N 376.915 0.57481 -1.46744 0
M  V30 3927 C 378.161 1.3347 -1.52688 0
M  V30 3928 C 378.494 1.93353 -0.181229 0
M  V30 3929 O 377.769 1.76912 0.808237 0
M  V30 3930 C 378.052 2.45811 -2.63152 0
M  V30 3931 C 377.905 1.90912 -4.07275 0
M  V30 3932 C 379.224 3.47822 -2.69644 0
M  V30 3933 H 376.343 0.483935 -0.555856 0
M  V30 3934 H 378.985 0.644968 -1.78718 0
M  V30 3935 H 377.135 3.04646 -2.41088 0
M  V30 3936 H 378.807 1.36473 -4.4065 0
M  V30 3937 H 377.05 1.21691 -4.16382 0
M  V30 3938 H 377.721 2.72042 -4.80309 0
M  V30 3939 H 380.197 2.9888 -2.895 0
M  V30 3940 H 379.073 4.23876 -3.48742 0
M  V30 3941 H 379.334 4.05555 -1.76005 0
M  V30 3942 N 378.394 1.34581 0.820102 0
M  V30 3943 C 379.64 1.27285 1.57881 0
M  V30 3944 C 379.973 -0.156137 1.93571 0
M  V30 3945 O 379.248 -1.10222 1.60254 0
M  V30 3946 C 379.531 2.16639 2.87645 0
M  V30 3947 C 379.384 3.68088 2.58517 0
M  V30 3948 C 380.703 2.05378 3.8924 0
M  V30 3949 H 377.822 0.463714 0.572833 0
M  V30 3950 H 380.464 1.64859 0.944539 0
M  V30 3951 H 378.614 1.84725 3.41773 0
M  V30 3952 H 380.286 4.10382 2.10676 0
M  V30 3953 H 378.529 3.89038 1.91917 0
M  V30 3954 H 379.2 4.2598 3.51063 0
M  V30 3955 H 381.676 2.33404 3.44473 0
M  V30 3956 H 380.552 2.7012 4.77835 0
M  V30 3957 H 380.813 1.0316 4.29896 0
M  V30 3958 N 379.872 -1.04064 1.18357 0
M  V30 3959 C 381.12 -1.76915 0.977013 0
M  V30 3960 C 381.441 -1.88624 -0.494577 0
M  V30 3961 O 380.711 -1.41125 -1.3587 0
M  V30 3962 H 379.291 -0.65535 0.358504 0
M  V30 3963 H 381.953 -1.25592 1.49039 0
M  V30 3964 H 381.049 -2.78178 1.41504 0
M  V30 3965 N 381.35 -0.985608 -1.22978 0
M  V30 3966 C 382.313 -0.535071 -2.22867 0
M  V30 3967 C 383.313 0.378123 -1.56291 0
M  V30 3968 O 384.503 0.171092 -1.73358 0
M  V30 3969 C 381.635 0.222702 -3.40172 0
M  V30 3970 H 382.828 -1.41835 -2.6424 0
M  V30 3971 H 380.381 -0.772042 -1.35901 0
M  V30 3972 H 381.116 1.12229 -3.04262 0
M  V30 3973 H 380.901 -0.43288 -3.89703 0
M  V30 3974 H 382.391 0.526335 -4.1427 0
M  V30 3975 N 382.828 1.3818 -0.7579 0
M  V30 3976 C 384.056 2.04301 -0.326937 0
M  V30 3977 C 384.471 1.57163 1.0462 0
M  V30 3978 O 383.828 0.746626 1.66529 0
M  V30 3979 C 383.879 3.59846 -0.345363 0
M  V30 3980 O 383.6 4.05256 -1.66432 0
M  V30 3981 C 385.101 4.4319 0.098927 0
M  V30 3982 H 382.321 0.656443 -0.139012 0
M  V30 3983 H 384.865 1.76786 -1.02796 0
M  V30 3984 H 383.02 3.86182 0.306955 0
M  V30 3985 H 383.434 4.99709 -1.59345 0
M  V30 3986 H 384.908 5.51989 0.0348745 0
M  V30 3987 H 385.385 4.23947 1.14741 0
M  V30 3988 H 385.991 4.22051 -0.52468 0
M  V30 3989 N 384.306 0.507319 1.49211 0
M  V30 3990 C 385.239 -0.314509 2.26022 0
M  V30 3991 C 386.217 -0.964849 1.30879 0
M  V30 3992 O 387.401 -0.993707 1.6018 0
M  V30 3993 C 384.528 -1.44346 3.06402 0
M  V30 3994 C 383.574 -0.90685 4.16748 0
M  V30 3995 S 384.407 0.207392 5.35098 0
M  V30 3996 C 385.563 -0.924573 6.19033 0
M  V30 3997 H 385.796 0.337416 2.95379 0
M  V30 3998 H 383.329 0.292718 1.516 0
M  V30 3999 H 385.287 -2.09029 3.53295 0
M  V30 4000 H 383.948 -2.06702 2.36502 0
M  V30 4001 H 383.141 -1.75309 4.72528 0
M  V30 4002 H 382.743 -0.33712 3.72478 0
M  V30 4003 H 385.035 -1.82839 6.52362 0
M  V30 4004 H 385.978 -0.405248 7.06939 0
M  V30 4005 H 386.386 -1.19476 5.51712 0
M  V30 4006 N 385.784 -1.5574 0.241426 0
M  V30 4007 C 386.731 -2.21149 -0.660432 0
M  V30 4008 C 387.701 -1.17356 -1.17545 0
M  V30 4009 O 388.886 -1.45784 -1.23093 0
M  V30 4010 C 386.026 -2.91059 -1.85414 0
M  V30 4011 C 385.139 -4.09495 -1.37616 0
M  V30 4012 C 384.274 -4.67135 -2.529 0
M  V30 4013 C 383.313 -5.77831 -2.01936 0
M  V30 4014 N 382.45 -6.29677 -3.10566 0
M  V30 4015 H 387.29 -2.97845 -0.095955 0
M  V30 4016 H 384.827 -1.47057 -0.0356024 0
M  V30 4017 H 386.785 -3.29788 -2.5553 0
M  V30 4018 H 385.415 -2.16846 -2.39118 0
M  V30 4019 H 384.467 -3.76117 -0.569235 0
M  V30 4020 H 385.779 -4.89423 -0.962618 0
M  V30 4021 H 384.933 -5.08409 -3.31067 0
M  V30 4022 H 383.672 -3.86411 -2.97553 0
M  V30 4023 H 382.677 -5.36039 -1.22238 0
M  V30 4024 H 383.902 -6.60402 -1.58259 0
M  V30 4025 H 381.848 -5.5186 -3.54664 0
M  V30 4026 H 381.765 -7.04783 -2.73526 0
M  V30 4027 H 383.033 -6.75609 -3.88809 0
M  V30 4028 N 387.262 0.0317525 -1.57568 0
M  V30 4029 C 388.673 0.578692 -1.77505 0
M  V30 4030 C 389.024 1.75749 -0.872164 0
M  V30 4031 O 388.149 2.16298 -0.0663106 0
M  V30 4032 C 388.744 1.05658 -3.21904 0
M  V30 4033 C 387.303 1.54906 -3.43047 0
M  V30 4034 C 386.45 0.485939 -2.73009 0
M  V30 4035 H 389.401 -0.194475 -1.57504 0
M  V30 4036 H 389.422 1.92404 -3.28269 0
M  V30 4037 H 388.934 0.198422 -3.87592 0
M  V30 4038 H 387.035 2.42915 -2.82529 0
M  V30 4039 H 387.148 1.59841 -4.5165 0
M  V30 4040 H 385.512 0.940354 -2.36705 0
M  V30 4041 H 386.295 -0.362709 -3.41379 0
M  V30 4042 N 388.74 1.54641 0.303973 0
M  V30 4043 C 389.988 1.73437 1.0375 0
M  V30 4044 C 390.309 0.521449 1.87899 0
M  V30 4045 O 389.579 -0.46432 1.90318 0
M  V30 4046 H 388.159 0.639518 0.386039 0
M  V30 4047 H 390.821 1.91988 0.335675 0
M  V30 4048 H 389.917 2.62235 1.69231 0
M  V30 4049 N 390.218 -0.567019 1.47046 0
M  V30 4050 C 391.495 -1.3276 1.43646 0
M  V30 4051 C 391.875 -2.1071 0.128186 0
M  V30 4052 O 391.223 -2.10441 -0.890326 0
M  V30 4053 C 391.433 -2.2404 2.67595 0
M  V30 4054 C 392.781 -2.85372 3.14401 0
M  V30 4055 O 393.805 -2.34346 2.68254 0
M  V30 4056 O 392.664 -3.78091 3.946 0
M  V30 4057 H 389.758 -0.597293 0.571988 0
M  V30 4058 H 392.304 -0.586735 1.59234 0
M  V30 4059 H 391.076 -1.65975 3.54356 0
M  V30 4060 H 390.699 -3.05439 2.54544 0
M  V30 4061 N 391.696 -1.35014 -0.812953 0
M  V30 4062 C 392.942 -1.29129 -1.57154 0
M  V30 4063 C 393.297 0.134922 -1.91926 0
M  V30 4064 O 392.59 1.08373 -1.58006 0
M  V30 4065 C 392.784 -2.12524 -2.87347 0
M  V30 4066 C 392.613 -3.6311 -2.65294 0
M  V30 4067 C 391.383 -4.32363 -2.61516 0
M  V30 4068 C 393.581 -4.56897 -2.36114 0
M  V30 4069 N 391.563 -5.68735 -2.31113 0
M  V30 4070 C 392.934 -5.81345 -2.15494 0
M  V30 4071 C 394.989 -4.45706 -2.21925 0
M  V30 4072 C 393.692 -6.95862 -1.82122 0
M  V30 4073 C 395.718 -5.60066 -1.89948 0
M  V30 4074 C 395.08 -6.83539 -1.7016 0
M  V30 4075 H 391.179 -0.527764 -0.577052 0
M  V30 4076 H 393.763 -1.6983 -0.952146 0
M  V30 4077 H 391.934 -1.74104 -3.47192 0
M  V30 4078 H 393.666 -1.98207 -3.5284 0
M  V30 4079 H 390.421 -3.84907 -2.75941 0
M  V30 4080 H 390.845 -6.40694 -2.18724 0
M  V30 4081 H 395.487 -3.50855 -2.35925 0
M  V30 4082 H 393.205 -7.90685 -1.6686 0
M  V30 4083 H 396.791 -5.53357 -1.79687 0
M  V30 4084 H 395.671 -7.70531 -1.45777 0
M  V30 4085 N 393.175 1.03435 -1.18907 0
M  V30 4086 C 394.4 1.80919 -1.01406 0
M  V30 4087 C 394.825 1.83055 0.432721 0
M  V30 4088 O 394.183 1.25252 1.31079 0
M  V30 4089 C 394.231 3.24091 -1.58105 0
M  V30 4090 O 393.335 4.04434 -0.806669 0
M  V30 4091 H 392.676 0.558709 -0.358803 0
M  V30 4092 H 395.206 1.30223 -1.57807 0
M  V30 4093 H 395.216 3.74853 -1.61087 0
M  V30 4094 H 393.891 3.21851 -2.6341 0
M  V30 4095 H 392.468 3.63091 -0.849666 0
M  V30 4096 N 394.653 0.992116 1.22453 0
M  V30 4097 C 395.563 0.55065 2.28046 0
M  V30 4098 C 396.579 -0.400189 1.69335 0
M  V30 4099 O 397.755 -0.267215 1.99619 0
M  V30 4100 C 394.82 -0.128496 3.46462 0
M  V30 4101 C 393.881 0.865208 4.20491 0
M  V30 4102 C 393.114 0.218377 5.33253 0
M  V30 4103 O 393.337 -0.987894 5.6178 0
M  V30 4104 O 392.271 0.922845 5.94783 0
M  V30 4105 H 396.097 1.4291 2.67975 0
M  V30 4106 H 393.682 0.760326 1.28606 0
M  V30 4107 H 395.564 -0.508947 4.18315 0
M  V30 4108 H 394.239 -0.981526 3.0846 0
M  V30 4109 H 393.146 1.29658 3.50913 0
M  V30 4110 H 394.479 1.68741 4.62371 0
M  V30 4111 N 396.131 -1.37776 0.765217 0
M  V30 4112 C 397.359 -2.04124 0.337767 0
M  V30 4113 C 397.774 -1.57715 -1.03785 0
M  V30 4114 O 397.131 -0.755447 -1.6613 0
M  V30 4115 C 397.182 -3.59658 0.364442 0
M  V30 4116 O 396.903 -4.04367 1.68579 0
M  V30 4117 C 398.404 -4.43236 -0.0754221 0
M  V30 4118 H 395.624 -0.655696 0.142491 0
M  V30 4119 H 398.168 -1.76238 1.03732 0
M  V30 4120 H 396.323 -3.86339 -0.286471 0
M  V30 4121 H 396.737 -4.98857 1.61993 0
M  V30 4122 H 398.211 -5.52 -0.00560067 0
M  V30 4123 H 398.688 -4.2455 -1.12491 0
M  V30 4124 H 399.294 -4.21767 0.547055 0
M  V30 4125 N 397.609 -0.515225 -1.4894 0
M  V30 4126 C 399.02 -0.0710067 -1.86565 0
M  V30 4127 C 399.371 1.34733 -1.42623 0
M  V30 4128 O 398.496 2.00653 -0.810379 0
M  V30 4129 C 399.091 -0.122083 -3.3858 0
M  V30 4130 C 397.65 0.266863 -3.75453 0
M  V30 4131 C 396.797 -0.488376 -2.72966 0
M  V30 4132 H 399.748 -0.727266 -1.41055 0
M  V30 4133 H 399.769 0.669818 -3.74558 0
M  V30 4134 H 399.281 -1.15448 -3.70531 0
M  V30 4135 H 397.382 1.30196 -3.49113 0
M  V30 4136 H 397.495 -0.0624811 -4.79059 0
M  V30 4137 H 395.859 0.0635622 -2.54621 0
M  V30 4138 H 396.642 -1.52113 -3.07761 0
M  V30 4139 N 399.087 1.5561 -0.249682 0
M  V30 4140 C 400.364 1.90932 0.424761 0
M  V30 4141 C 400.744 1.17078 1.75658 0
M  V30 4142 O 400.092 0.289176 2.26663 0
M  V30 4143 C 400.302 3.43975 0.590109 0
M  V30 4144 C 401.65 4.15281 0.884714 0
M  V30 4145 O 402.674 3.49729 0.67587 0
M  V30 4146 O 401.533 5.31236 1.28259 0
M  V30 4147 H 398.627 0.794815 0.228468 0
M  V30 4148 H 401.173 1.67135 -0.293954 0
M  V30 4149 H 399.945 3.89748 -0.34818 0
M  V30 4150 H 399.568 3.73644 1.35926 0
M  V30 4151 N 400.565 -0.0233959 1.57583 0
M  V30 4152 C 401.495 -1.02162 2.09965 0
M  V30 4153 C 402.476 -1.3735 1.00344 0
M  V30 4154 O 403.661 -1.46135 1.27899 0
M  V30 4155 C 400.791 -2.32081 2.58371 0
M  V30 4156 C 399.745 -2.1112 3.72307 0
M  V30 4157 C 399.071 -3.46848 4.06941 0
M  V30 4158 C 400.371 -1.49276 5.00514 0
M  V30 4159 H 402.065 -0.585557 2.93618 0
M  V30 4160 H 399.611 -0.280218 1.41247 0
M  V30 4161 H 401.564 -3.02249 2.93639 0
M  V30 4162 H 400.288 -2.77758 1.71808 0
M  V30 4163 H 398.947 -1.43384 3.37397 0
M  V30 4164 H 398.595 -3.90184 3.17436 0
M  V30 4165 H 398.295 -3.33646 4.83688 0
M  V30 4166 H 399.819 -4.18369 4.44747 0
M  V30 4167 H 401.233 -2.09368 5.33702 0
M  V30 4168 H 399.63 -1.46632 5.8191 0
M  V30 4169 H 400.7 -0.459217 4.82721 0
M  V30 4170 N 402.043 -1.548 -0.295768 0
M  V30 4171 C 403.291 -1.73985 -1.02828 0
M  V30 4172 C 403.612 -0.531406 -1.87619 0
M  V30 4173 O 402.882 0.454221 -1.90561 0
M  V30 4174 H 401.462 -0.641556 -0.382642 0
M  V30 4175 H 404.124 -1.92163 -0.325489 0
M  V30 4176 H 403.22 -2.63129 -1.67838 0
M  V30 4177 N 403.521 0.559213 -1.47345 0
M  V30 4178 C 404.769 1.31388 -1.53563 0
M  V30 4179 C 405.09 1.93985 -0.198678 0
M  V30 4180 O 404.36 1.79825 0.777167 0
M  V30 4181 H 402.94 0.487901 -0.565652 0
M  V30 4182 H 405.602 0.65315 -1.8363 0
M  V30 4183 H 404.698 2.10844 -2.30111 0
M  V30 4184 N 404.999 1.35443 0.805782 0
M  V30 4185 C 405.929 1.31095 1.93226 0
M  V30 4186 C 406.91 0.185244 1.69088 0
M  V30 4187 O 408.095 0.380332 1.90439 0
M  V30 4188 C 405.225 1.08299 3.29983 0
M  V30 4189 C 404.179 2.17519 3.68605 0
M  V30 4190 C 403.505 1.79887 5.03532 0
M  V30 4191 C 404.805 3.5949 3.78898 0
M  V30 4192 H 406.499 2.25352 1.97122 0
M  V30 4193 H 404.045 1.0848 0.946996 0
M  V30 4194 H 405.998 1.03897 4.08391 0
M  V30 4195 H 404.722 0.104885 3.26432 0
M  V30 4196 H 403.381 2.2102 2.92482 0
M  V30 4197 H 403.029 0.80693 4.96485 0
M  V30 4198 H 402.729 2.53001 5.30344 0
M  V30 4199 H 404.253 1.77011 5.84379 0
M  V30 4200 H 405.667 3.58307 4.47536 0
M  V30 4201 H 404.064 4.31371 4.1718 0
M  V30 4202 H 405.134 3.95584 2.80431 0
M  V30 4203 N 406.477 -1.02803 1.19454 0
M  V30 4204 C 407.387 -2.14575 0.948408 0
M  V30 4205 C 408.403 -1.73757 -0.091871 0
M  V30 4206 O 409.579 -2.01185 0.0929654 0
M  V30 4207 C 406.644 -3.43202 0.491265 0
M  V30 4208 C 405.705 -3.98328 1.60103 0
M  V30 4209 C 404.938 -5.20816 1.16561 0
M  V30 4210 O 405.161 -5.70392 0.0295238 0
M  V30 4211 O 404.095 -5.68801 1.96849 0
M  V30 4212 H 407.921 -2.38202 1.88397 0
M  V30 4213 H 405.506 -1.12989 0.977433 0
M  V30 4214 H 407.388 -4.20687 0.245015 0
M  V30 4215 H 406.063 -3.21018 -0.415851 0
M  V30 4216 H 404.97 -3.22174 1.90144 0
M  V30 4217 H 406.303 -4.24879 2.48473 0
M  V30 4218 N 407.956 -0.998596 -1.21925 0
M  V30 4219 C 409.181 -0.696015 -1.95372 0
M  V30 4220 C 409.606 0.733826 -1.73195 0
M  V30 4221 O 408.964 1.50242 -1.01474 0
M  V30 4222 C 409.012 -1.01466 -3.4603 0
M  V30 4223 O 408.116 -0.116415 -4.12236 0
M  V30 4224 H 407.457 -0.259938 -0.611006 0
M  V30 4225 H 409.987 -1.33711 -1.54863 0
M  V30 4226 H 409.997 -0.958855 -3.96573 0
M  V30 4227 H 408.672 -2.05653 -3.61497 0
M  V30 4228 H 407.249 -0.228193 -3.72201 0
M  V30 4229 N 409.434 1.37368 -0.772513 0
M  V30 4230 C 410.68 1.99969 -0.337681 0
M  V30 4231 C 411.013 1.61184 1.08321 0
M  V30 4232 O 410.288 0.858395 1.74533 0
M  V30 4233 C 410.571 3.56858 -0.482121 0
M  V30 4234 C 410.424 4.0555 -1.94549 0
M  V30 4235 C 411.743 4.39955 0.113143 0
M  V30 4236 H 408.862 0.726464 -0.124171 0
M  V30 4237 H 411.504 1.63034 -0.975699 0
M  V30 4238 H 409.654 3.88452 0.0610361 0
M  V30 4239 H 411.326 3.84518 -2.54841 0
M  V30 4240 H 409.569 3.57715 -2.45403 0
M  V30 4241 H 410.24 5.14587 -1.9976 0
M  V30 4242 H 412.716 4.14623 -0.35031 0
M  V30 4243 H 411.592 5.48897 -0.0180514 0
M  V30 4244 H 411.853 4.25403 1.20354 0
M  V30 4245 N 410.912 0.523116 1.48665 0
M  V30 4246 C 411.845 -0.290518 2.26343 0
M  V30 4247 C 412.823 -0.950913 1.31895 0
M  V30 4248 O 414.007 -0.976662 1.61225 0
M  V30 4249 C 411.134 -1.41088 3.07915 0
M  V30 4250 C 410.18 -0.862597 4.17686 0
M  V30 4251 S 411.013 0.264135 5.34848 0
M  V30 4252 C 412.169 -0.858864 6.19979 0
M  V30 4253 H 412.402 0.368726 2.95005 0
M  V30 4254 H 409.935 0.30878 1.51281 0
M  V30 4255 H 411.893 -2.0527 3.55492 0
M  V30 4256 H 410.554 -2.04182 2.38681 0
M  V30 4257 H 409.747 -1.70287 4.74361 0
M  V30 4258 H 409.349 -0.297595 3.72814 0
M  V30 4259 H 411.641 -1.7591 6.54264 0
M  V30 4260 H 412.584 -0.330244 7.07329 0
M  V30 4261 H 412.992 -1.13617 5.52948 0
M  V30 4262 N 412.39 -1.55475 0.257931 0
M  V30 4263 C 413.337 -2.21837 -0.636939 0
M  V30 4264 C 414.307 -1.18596 -1.16294 0
M  V30 4265 O 415.492 -1.47081 -1.21539 0
M  V30 4266 C 412.632 -2.9301 -1.82317 0
M  V30 4267 C 411.745 -4.10931 -1.33265 0
M  V30 4268 C 410.88 -4.69791 -2.47931 0
M  V30 4269 C 409.919 -5.7994 -1.95796 0
M  V30 4270 N 409.056 -6.32935 -3.0387 0
M  V30 4271 H 413.896 -2.9793 -0.0643591 0
M  V30 4272 H 411.433 -1.47086 -0.0200031 0
M  V30 4273 H 413.391 -3.3248 -2.52018 0
M  V30 4274 H 412.021 -2.1937 -2.36805 0
M  V30 4275 H 411.073 -3.76699 -0.52931 0
M  V30 4276 H 412.385 -4.90417 -0.910654 0
M  V30 4277 H 411.539 -5.11892 -3.25656 0
M  V30 4278 H 410.278 -3.89545 -2.93438 0
M  V30 4279 H 409.283 -5.37305 -1.16546 0
M  V30 4280 H 410.508 -6.62043 -1.51246 0
M  V30 4281 H 408.454 -5.55591 -3.48791 0
M  V30 4282 H 408.371 -7.07645 -2.66035 0
M  V30 4283 H 409.639 -6.79695 -3.81621 0
M  V30 4284 N 413.868 0.0150385 -1.57593 0
M  V30 4285 C 414.815 1.01126 -2.07466 0
M  V30 4286 C 415.785 1.35064 -0.966794 0
M  V30 4287 O 416.97 1.4516 -1.23827 0
M  V30 4288 C 414.11 2.30276 -2.57035 0
M  V30 4289 C 413.223 2.02373 -3.81666 0
M  V30 4290 C 412.358 3.25496 -4.19793 0
M  V30 4291 C 411.397 2.93211 -5.37303 0
M  V30 4292 N 410.534 4.08826 -5.70794 0
M  V30 4293 H 415.374 0.57901 -2.92321 0
M  V30 4294 H 412.911 0.27426 -1.44521 0
M  V30 4295 H 414.869 3.05757 -2.83846 0
M  V30 4296 H 413.499 2.71197 -1.75077 0
M  V30 4297 H 412.551 1.17327 -3.61854 0
M  V30 4298 H 413.863 1.74567 -4.67256 0
M  V30 4299 H 413.017 4.09333 -4.47807 0
M  V30 4300 H 411.756 3.56428 -3.32882 0
M  V30 4301 H 410.761 2.07777 -5.09027 0
M  V30 4302 H 411.986 2.63542 -6.25877 0
M  V30 4303 H 409.932 4.39682 -4.86842 0
M  V30 4304 H 409.849 3.84491 -6.50924 0
M  V30 4305 H 411.117 4.93496 -6.03392 0
M  V30 4306 N 415.346 1.54954 0.287554 0
M  V30 4307 C 416.309 1.86076 1.33823 0
M  V30 4308 C 417.309 0.734414 1.43049 0
M  V30 4309 O 418.499 1.00266 1.42452 0
M  V30 4310 C 415.631 2.05305 2.72144 0
M  V30 4311 H 416.824 2.79984 1.07465 0
M  V30 4312 H 414.377 1.47223 0.524902 0
M  V30 4313 H 415.112 1.1373 3.03704 0
M  V30 4314 H 414.897 2.873 2.66836 0
M  V30 4315 H 416.387 2.30706 3.48087 0
M  V30 4316 N 416.824 -0.551391 1.4764 0
M  V30 4317 C 417.771 -1.65796 1.60563 0
M  V30 4318 C 418.741 -1.59932 0.448428 0
M  V30 4319 O 419.926 -1.78679 0.669222 0
M  V30 4320 C 417.066 -3.04108 1.63133 0
M  V30 4321 C 416.179 -3.20365 2.89811 0
M  V30 4322 C 415.314 -4.49109 2.8368 0
M  V30 4323 C 414.353 -4.58819 4.05156 0
M  V30 4324 N 413.49 -5.78926 3.97227 0
M  V30 4325 H 418.33 -1.54088 2.5507 0
M  V30 4326 H 415.867 -0.75052 1.26513 0
M  V30 4327 H 417.825 -3.84207 1.62606 0
M  V30 4328 H 416.455 -3.14637 0.721341 0
M  V30 4329 H 415.507 -2.33659 3.00179 0
M  V30 4330 H 416.819 -3.23402 3.79753 0
M  V30 4331 H 415.973 -5.37475 2.81434 0
M  V30 4332 H 414.712 -4.4856 1.91431 0
M  V30 4333 H 413.717 -3.68864 4.077 0
M  V30 4334 H 414.942 -4.61124 4.98539 0
M  V30 4335 H 412.888 -5.79314 3.07785 0
M  V30 4336 H 412.805 -5.83367 4.80853 0
M  V30 4337 H 414.073 -6.69637 3.99007 0
M  V30 4338 N 418.302 -1.35869 -0.798587 0
M  V30 4339 C 419.53 -1.32722 -1.58722 0
M  V30 4340 C 419.945 0.0935631 -1.88568 0
M  V30 4341 O 419.302 1.04784 -1.49421 0
M  V30 4342 C 419.353 -2.13974 -2.91371 0
M  V30 4343 O 419.074 -3.50514 -2.62815 0
M  V30 4344 C 420.575 -2.18504 -3.85708 0
M  V30 4345 H 417.795 -0.45562 -0.492596 0
M  V30 4346 H 420.339 -1.78837 -0.991843 0
M  V30 4347 H 418.494 -1.71438 -3.47402 0
M  V30 4348 H 418.908 -3.92806 -3.47568 0
M  V30 4349 H 420.382 -2.79732 -4.75872 0
M  V30 4350 H 420.859 -1.18597 -4.22885 0
M  V30 4351 H 421.465 -2.61236 -3.35612 0
M  V30 4352 N 419.78 1.02168 -1.19998 0
M  V30 4353 C 420.713 2.10232 -0.887558 0
M  V30 4354 C 421.691 1.61827 0.158317 0
M  V30 4355 O 422.875 1.88471 0.0330249 0
M  V30 4356 C 420.002 3.37092 -0.32964 0
M  V30 4357 C 419.048 4.0438 -1.3557 0
M  V30 4358 S 419.881 4.48956 -2.91888 0
M  V30 4359 C 421.037 5.79024 -2.37658 0
M  V30 4360 H 421.27 2.36409 -1.80272 0
M  V30 4361 H 418.803 1.15211 -1.0279 0
M  V30 4362 H 420.761 4.10498 -0.0142824 0
M  V30 4363 H 419.422 3.08996 0.563941 0
M  V30 4364 H 418.615 4.95632 -0.9146 0
M  V30 4365 H 418.217 3.37176 -1.61828 0
M  V30 4366 H 420.509 6.53942 -1.77103 0
M  V30 4367 H 421.452 6.27924 -3.27287 0
M  V30 4368 H 421.86 5.35043 -1.79971 0
M  V30 4369 N 421.258 1.00505 1.21394 0
M  V30 4370 C 422.188 0.585684 2.26035 0
M  V30 4371 C 423.169 -0.393525 1.65485 0
M  V30 4372 O 424.354 -0.281497 1.92149 0
M  V30 4373 C 421.484 -0.0884283 3.47187 0
M  V30 4374 C 420.438 0.810567 4.20254 0
M  V30 4375 C 419.764 0.00286382 5.347 0
M  V30 4376 C 421.064 2.1132 4.77641 0
M  V30 4377 H 422.758 1.46039 2.61368 0
M  V30 4378 H 420.304 0.703648 1.25638 0
M  V30 4379 H 422.257 -0.393286 4.19561 0
M  V30 4380 H 420.981 -0.997766 3.10986 0
M  V30 4381 H 419.64 1.09925 3.49731 0
M  V30 4382 H 419.288 -0.907765 4.94741 0
M  V30 4383 H 418.988 0.601444 5.84514 0
M  V30 4384 H 420.512 -0.295808 6.09883 0
M  V30 4385 H 421.926 1.87148 5.41893 0
M  V30 4386 H 420.323 2.66164 5.37845 0
M  V30 4387 H 421.393 2.78393 3.9702 0
M  V30 4388 N 422.737 -1.36956 0.779787 0
M  V30 4389 C 424.148 -1.82094 0.412156 0
M  V30 4390 C 424.499 -1.64926 -1.06273 0
M  V30 4391 O 423.624 -1.16483 -1.82375 0
M  V30 4392 C 424.219 -3.3059 0.741319 0
M  V30 4393 C 422.778 -3.73974 0.426641 0
M  V30 4394 C 421.925 -2.59368 0.980987 0
M  V30 4395 H 424.876 -1.25314 0.973758 0
M  V30 4396 H 424.897 -3.80489 0.028887 0
M  V30 4397 H 424.409 -3.43054 1.81482 0
M  V30 4398 H 422.51 -3.67076 -0.639215 0
M  V30 4399 H 422.623 -4.69778 0.940515 0
M  V30 4400 H 420.987 -2.51463 0.404757 0
M  V30 4401 H 421.77 -2.74621 2.06005 0
M  V30 4402 N 424.215 -0.530993 -1.48385 0
M  V30 4403 C 425.178 0.220497 -2.28137 0
M  V30 4404 C 426.178 0.866851 -1.35434 0
M  V30 4405 O 427.368 0.726746 -1.58316 0
M  V30 4406 C 424.5 1.31921 -3.1434 0
M  V30 4407 H 425.693 -0.479714 -2.96038 0
M  V30 4408 H 423.246 -0.286968 -1.53643 0
M  V30 4409 H 423.981 2.05264 -2.51072 0
M  V30 4410 H 423.766 0.86085 -3.82533 0
M  V30 4411 H 425.256 1.84776 -3.74497 0
M  V30 4412 N 425.693 1.55336 -0.266172 0
M  V30 4413 C 426.942 1.98574 0.353749 0
M  V30 4414 C 427.255 1.15789 1.57646 0
M  V30 4415 O 428.461 1.49129 2.26876 0
M  V30 4416 C 426.917 3.53403 0.680747 0
M  V30 4417 C 426.525 4.44953 -0.52165 0
M  V30 4418 C 428.269 4.05251 1.26379 0
M  V30 4419 C 426.176 5.91156 -0.169736 0
M  V30 4420 H 425.106 0.741643 0.135949 0
M  V30 4421 H 427.757 1.79743 -0.369421 0
M  V30 4422 H 426.139 3.68001 1.46257 0
M  V30 4423 H 427.313 4.42121 -1.29869 0
M  V30 4424 H 425.628 4.03691 -1.02093 0
M  V30 4425 H 428.225 5.12021 1.54074 0
M  V30 4426 H 428.568 3.53749 2.19471 0
M  V30 4427 H 429.101 3.94057 0.544447 0
M  V30 4428 H 425.84 6.46736 -1.0683 0
M  V30 4429 H 425.36 5.97079 0.570717 0
M  V30 4430 H 427.039 6.4655 0.241245 0
M  V30 4431 N 427.171 -0.0066808 1.57599 0
M  V30 4432 C 428.103 -1.02827 2.04839 0
M  V30 4433 C 429.116 -1.31108 0.965113 0
M  V30 4434 O 430.305 -1.28202 1.24203 0
M  V30 4435 C 427.405 -2.36464 2.42771 0
M  V30 4436 C 426.578 -2.27219 3.73751 0
M  V30 4437 C 425.637 -3.43489 3.98625 0
M  V30 4438 O 424.663 -3.21976 4.69382 0
M  V30 4439 N 425.865 -4.66116 3.46 0
M  V30 4440 H 428.63 -0.625455 2.93101 0
M  V30 4441 H 426.191 -0.194198 1.60731 0
M  V30 4442 H 428.183 -3.13008 2.56531 0
M  V30 4443 H 426.753 -2.68512 1.60063 0
M  V30 4444 H 425.973 -1.35629 3.70133 0
M  V30 4445 H 427.261 -2.18208 4.59633 0
M  V30 4446 H 426.659 -4.86493 2.88688 0
M  V30 4447 H 425.216 -5.39949 3.65101 0
M  V30 4448 N 428.649 -1.55105 -0.279332 0
M  V30 4449 C 429.597 -1.88333 -1.36505 0
M  V30 4450 C 430.591 -0.759043 -1.51443 0
M  V30 4451 O 431.797 -0.943312 -1.53302 0
M  V30 4452 H 428.172 -0.59766 -0.456406 0
M  V30 4453 H 430.143 -2.79041 -1.05728 0
M  V30 4454 C 428.892 -2.16628 -2.7197 0
M  V30 4455 H 428.215 -3.02624 -2.61264 0
M  V30 4456 H 429.655 -2.43803 -3.46895 0
M  V30 4457 C 428.114 -0.971807 -3.22579 0
M  V30 4458 O 428.644 -0.203228 -4.01186 0
M  V30 4459 N 426.85 -0.771238 -2.80179 0
M  V30 4460 H 426.397 -1.39792 -2.1637 0
M  V30 4461 H 426.355 0.0263667 -3.14389 0
M  V30 4462 N 430.127 0.543554 -1.4793 0
M  V30 4463 C 431.06 1.66556 -1.55995 0
M  V30 4464 C 432.038 1.57315 -0.411205 0
M  V30 4465 O 433.222 1.7798 -0.620922 0
M  V30 4466 C 430.349 3.04883 -1.47527 0
M  V30 4467 C 429.395 3.32526 -2.67074 0
M  V30 4468 S 430.228 3.20282 -4.29162 0
M  V30 4469 C 431.384 4.61079 -4.23269 0
M  V30 4470 H 431.617 1.59462 -2.50917 0
M  V30 4471 H 429.15 0.725456 -1.36296 0
M  V30 4472 H 431.108 3.84665 -1.43328 0
M  V30 4473 H 429.769 3.09429 -0.539665 0
M  V30 4474 H 428.962 4.33403 -2.5725 0
M  V30 4475 H 428.564 2.60389 -2.68466 0
M  V30 4476 H 430.856 5.52318 -3.92365 0
M  V30 4477 H 431.799 4.75959 -5.24279 0
M  V30 4478 H 432.207 4.39766 -3.5393 0
M  V30 4479 N 431.605 1.3629 0.791371 0
M  V30 4480 C 432.552 1.30458 1.90393 0
M  V30 4481 C 433.522 0.173632 1.6519 0
M  V30 4482 O 434.707 0.35983 1.87376 0
M  V30 4483 C 431.847 1.09777 3.27174 0
M  V30 4484 C 430.96 2.31929 3.64462 0
M  V30 4485 C 430.095 2.04276 4.90352 0
M  V30 4486 C 429.134 3.224 5.20312 0
M  V30 4487 N 428.271 2.94424 6.37385 0
M  V30 4488 H 433.111 2.25589 1.94714 0
M  V30 4489 H 430.648 1.12122 0.952216 0
M  V30 4490 H 432.606 0.958133 4.06049 0
M  V30 4491 H 431.236 0.183014 3.22281 0
M  V30 4492 H 430.288 2.56703 2.80727 0
M  V30 4493 H 431.6 3.20085 3.82553 0
M  V30 4494 H 430.754 1.87231 5.77087 0
M  V30 4495 H 429.493 1.13428 4.74326 0
M  V30 4496 H 428.498 3.40005 4.32061 0
M  V30 4497 H 429.723 4.14071 5.38258 0
M  V30 4498 H 427.669 2.06185 6.22755 0
M  V30 4499 H 427.586 3.76118 6.55798 0
M  V30 4500 H 428.854 2.80953 7.27108 0
M  V30 4501 N 433.083 -1.0153 1.20538 0
M  V30 4502 C 434.329 -1.75408 1.01783 0
M  V30 4503 C 434.662 -1.88943 -0.448814 0
M  V30 4504 O 433.937 -1.4162 -1.33319 0
M  V30 4505 C 434.22 -3.17255 1.70356 0
M  V30 4506 C 434.073 -3.11508 3.24473 0
M  V30 4507 C 435.392 -4.15955 1.43769 0
M  V30 4508 H 432.511 -0.636713 0.371167 0
M  V30 4509 H 435.153 -1.18436 1.4857 0
M  V30 4510 H 433.303 -3.65898 1.30578 0
M  V30 4511 H 434.975 -2.70658 3.73553 0
M  V30 4512 H 433.218 -2.4887 3.55311 0
M  V30 4513 H 433.889 -4.11784 3.67611 0
M  V30 4514 H 436.365 -3.75973 1.7828 0
M  V30 4515 H 435.241 -5.13368 1.94279 0
M  V30 4516 H 435.502 -4.40586 0.365564 0
M  V30 4517 N 434.561 -1.01147 -1.20859 0
M  V30 4518 C 435.838 -0.613136 -1.85742 0
M  V30 4519 C 436.218 0.909004 -1.90526 0
M  V30 4520 O 435.566 1.79862 -1.40932 0
M  V30 4521 C 435.776 -1.255 -3.25654 0
M  V30 4522 C 437.124 -1.3672 -4.01986 0
M  V30 4523 O 438.148 -1.21082 -3.34989 0
M  V30 4524 O 437.007 -1.6194 -5.21956 0
M  V30 4525 H 434.101 -0.210878 -0.799662 0
M  V30 4526 H 436.647 -1.10853 -1.2849 0
M  V30 4527 H 435.419 -2.29532 -3.16908 0
M  V30 4528 H 435.042 -0.746369 -3.90532 0
M  V30 4529 N 436.039 1.36541 -0.78704 0
M  V30 4530 C 437.455 1.52571 -0.46844 0
M  V30 4531 C 437.655 1.7415 1.01361 0
M  V30 4532 O 436.711 1.77163 1.79915 0
M  V30 4533 C 438.024 2.71299 -1.29682 0
M  V30 4534 C 439.572 2.85169 -1.29027 0
M  V30 4535 C 440.047 4.06898 -2.10233 0
M  V30 4536 N 441.538 4.1404 -2.07666 0
M  V30 4537 C 442.273 5.07301 -2.67271 0
M  V30 4538 N 441.769 6.06021 -3.35724 0
M  V30 4539 N 443.562 4.99898 -2.57018 0
M  V30 4540 H 435.713 1.20788 -1.74711 0
M  V30 4541 H 437.976 0.589364 -0.742532 0
M  V30 4542 H 437.682 2.61868 -2.34773 0
M  V30 4543 H 437.556 3.6539 -0.936479 0
M  V30 4544 H 439.943 2.94062 -0.247284 0
M  V30 4545 H 440.024 1.91992 -1.69035 0
M  V30 4546 H 439.668 3.98766 -3.1456 0
M  V30 4547 H 439.598 4.99218 -1.67597 0
M  V30 4548 H 442.089 3.43357 -1.57843 0
M  V30 4549 H 442.402 6.73741 -3.78541 0
M  V30 4550 H 440.747 6.06253 -3.39826 0
M  V30 4551 H 443.938 4.21724 -2.03142 0
M  V30 4552 H 444.111 5.72392 -3.03761 0
M  V30 4553 N 437.518 0.538854 1.48102 0
M  V30 4554 C 438.765 0.0080018 2.02498 0
M  V30 4555 C 439.093 -1.33437 1.41509 0
M  V30 4556 O 438.348 -1.87709 0.553507 0
M  V30 4557 C 438.647 -0.153808 3.57069 0
M  V30 4558 C 438.313 1.11533 4.36888 0
M  V30 4559 C 436.975 1.46314 4.58417 0
M  V30 4560 C 439.327 1.95718 4.83057 0
M  V30 4561 C 436.655 2.6516 5.23361 0
M  V30 4562 C 439.007 3.13751 5.49312 0
M  V30 4563 C 437.671 3.48866 5.69077 0
M  V30 4564 H 436.941 0.00292807 0.740994 0
M  V30 4565 H 439.588 0.706668 1.77984 0
M  V30 4566 H 437.893 -0.935309 3.80472 0
M  V30 4567 H 439.59 -0.579607 3.96789 0
M  V30 4568 H 436.18 0.834484 4.20398 0
M  V30 4569 H 440.364 1.70158 4.66219 0
M  V30 4570 H 435.62 2.92558 5.36861 0
M  V30 4571 H 439.794 3.79282 5.84053 0
M  V30 4572 H 437.421 4.41054 6.19173 0
M  V30 4573 N 438.996 -1.55193 0.274407 0
M  V30 4574 C 440.242 -2.00604 -0.33608 0
M  V30 4575 C 440.597 -1.15948 -1.53538 0
M  V30 4576 O 439.89 -0.221385 -1.90317 0
M  V30 4577 C 440.084 -3.49019 -0.769458 0
M  V30 4578 C 439.913 -4.48038 0.386301 0
M  V30 4579 C 438.683 -4.97757 0.869854 0
M  V30 4580 C 440.881 -4.99558 1.22254 0
M  V30 4581 N 438.863 -5.80575 1.99515 0
M  V30 4582 C 440.234 -5.79816 2.19575 0
M  V30 4583 C 442.289 -4.81799 1.25597 0
M  V30 4584 C 440.992 -6.44208 3.19981 0
M  V30 4585 C 443.018 -5.46989 2.24848 0
M  V30 4586 C 442.38 -6.27058 3.20901 0
M  V30 4587 H 438.479 -0.777013 -0.088172 0
M  V30 4588 H 441.063 -1.90583 0.398266 0
M  V30 4589 H 439.234 -3.59383 -1.47303 0
M  V30 4590 H 440.966 -3.81263 -1.35722 0
M  V30 4591 H 437.721 -4.71464 0.449281 0
M  V30 4592 H 438.145 -6.26675 2.5614 0
M  V30 4593 H 442.787 -4.19501 0.527158 0
M  V30 4594 H 440.505 -7.05656 3.93796 0
M  V30 4595 H 444.091 -5.35189 2.28174 0
M  V30 4596 H 442.971 -6.7661 3.96445 0
M  V30 4597 N 440.474 -0.00167713 -1.576 0
M  V30 4598 C 441.437 0.974046 -2.07473 0
M  V30 4599 C 442.437 1.27143 -0.984444 0
M  V30 4600 O 443.627 1.21633 -1.24703 0
M  V30 4601 C 440.759 2.29849 -2.51759 0
M  V30 4602 H 441.952 0.54262 -2.9495 0
M  V30 4603 H 439.505 0.245829 -1.54355 0
M  V30 4604 H 440.24 2.77677 -1.67529 0
M  V30 4605 H 440.025 2.09584 -3.31386 0
M  V30 4606 H 441.515 2.9984 -2.90664 0
M  V30 4607 N 441.952 1.55251 0.271103 0
M  V30 4608 C 443.2 1.75599 1.00047 0
M  V30 4609 C 443.521 0.561188 1.8675 0
M  V30 4610 O 442.791 -0.423846 1.9126 0
M  V30 4611 H 441.371 0.647562 0.372387 0
M  V30 4612 H 444.033 1.92656 0.294876 0
M  V30 4613 H 443.129 2.65766 1.6363 0
M  V30 4614 N 443.43 -0.535701 1.48216 0
M  V30 4615 C 444.36 -1.65014 1.65204 0
M  V30 4616 C 445.341 -1.62554 0.501011 0
M  V30 4617 O 446.526 -1.7984 0.732886 0
M  V30 4618 C 443.656 -3.03616 1.68626 0
M  V30 4619 C 442.61 -3.20932 2.83172 0
M  V30 4620 C 441.936 -4.60537 2.71679 0
M  V30 4621 C 443.236 -3.04249 4.24535 0
M  V30 4622 H 444.93 -1.51053 2.58502 0
M  V30 4623 H 442.476 -0.725262 1.24402 0
M  V30 4624 H 444.429 -3.81446 1.79099 0
M  V30 4625 H 443.153 -3.18587 0.719026 0
M  V30 4626 H 441.812 -2.45517 2.72244 0
M  V30 4627 H 441.46 -4.72336 1.72937 0
M  V30 4628 H 441.16 -4.73069 3.48538 0
M  V30 4629 H 442.684 -5.40475 2.84112 0
M  V30 4630 H 444.098 -3.71877 4.36326 0
M  V30 4631 H 442.495 -3.28278 5.02348 0
M  V30 4632 H 443.565 -2.00739 4.41397 0
M  V30 4633 N 444.908 -1.36708 -0.784132 0
M  V30 4634 C 446.324 -1.17237 -1.08294 0
M  V30 4635 C 446.524 -5.93947e-05 -2.015 0
M  V30 4636 O 445.58 0.663686 -2.43622 0
M  V30 4637 C 446.893 -2.48557 -1.69233 0
M  V30 4638 C 448.441 -2.54968 -1.8155 0
M  V30 4639 C 448.916 -3.86388 -2.45904 0
M  V30 4640 N 450.407 -3.87762 -2.53367 0
M  V30 4641 C 451.142 -4.86191 -3.03983 0
M  V30 4642 N 450.638 -5.95015 -3.54866 0
M  V30 4643 N 452.431 -4.73606 -3.02743 0
M  V30 4644 H 444.582 -2.11758 -0.16501 0
M  V30 4645 H 446.845 -0.93822 -0.135822 0
M  V30 4646 H 446.551 -3.34638 -1.08215 0
M  V30 4647 H 446.425 -2.64748 -2.68679 0
M  V30 4648 H 448.812 -1.69302 -2.41704 0
M  V30 4649 H 448.893 -2.42672 -0.80895 0
M  V30 4650 H 448.537 -4.72462 -1.86392 0
M  V30 4651 H 448.467 -3.95982 -3.4714 0
M  V30 4652 H 450.958 -3.09145 -2.17343 0
M  V30 4653 H 451.271 -6.66086 -3.91854 0
M  V30 4654 H 449.616 -5.98676 -3.53003 0
M  V30 4655 H 452.807 -3.87717 -2.62284 0
M  V30 4656 H 452.98 -5.50473 -3.41881 0
M  V30 4657 N 446.386 1.0089 -1.21074 0
M  V30 4658 C 447.797 1.56056 -1.02486 0
M  V30 4659 C 448.148 1.91728 0.416506 0
M  V30 4660 O 447.273 1.73066 1.29912 0
M  V30 4661 C 447.868 2.83563 -1.85411 0
M  V30 4662 C 446.427 3.3523 -1.71166 0
M  V30 4663 C 445.574 2.0846 -1.82865 0
M  V30 4664 H 448.525 0.831818 -1.35154 0
M  V30 4665 H 448.546 3.55286 -1.36205 0
M  V30 4666 H 448.058 2.57569 -2.9031 0
M  V30 4667 H 446.159 3.66167 -0.689361 0
M  V30 4668 H 446.272 4.06913 -2.52901 0
M  V30 4669 H 444.636 2.21275 -1.26132 0
M  V30 4670 H 445.419 1.84883 -2.89263 0
M  V30 4671 N 447.864 1.01787 1.20321 0
M  V30 4672 C 449.112 0.706538 1.89347 0
M  V30 4673 C 449.433 -0.766289 1.79313 0
M  V30 4674 O 448.703 -1.55126 1.19635 0
M  V30 4675 H 447.283 0.258348 0.700903 0
M  V30 4676 H 449.945 1.28974 1.46122 0
M  V30 4677 H 449.041 0.991066 2.95946 0
M  V30 4678 N 449.342 -1.36122 0.79427 0
M  V30 4679 C 450.57 -2.03362 0.380989 0
M  V30 4680 C 450.985 -1.59881 -1.00416 0
M  V30 4681 O 450.342 -0.790515 -1.6449 0
M  V30 4682 C 450.393 -3.58804 0.440649 0
M  V30 4683 O 450.114 -4.007 1.77118 0
M  V30 4684 C 451.615 -4.43296 0.0186117 0
M  V30 4685 H 448.835 -0.652526 0.156367 0
M  V30 4686 H 451.379 -1.73998 1.07447 0
M  V30 4687 H 449.534 -3.8686 -0.204458 0
M  V30 4688 H 449.948 -4.95309 1.72538 0
M  V30 4689 H 451.422 -5.51887 0.111488 0
M  V30 4690 H 451.899 -4.2684 -1.03461 0
M  V30 4691 H 452.505 -4.20512 0.636395 0
M  V30 4692 N 450.82 -0.546701 -1.47814 0
M  V30 4693 C 451.767 0.206854 -2.29871 0
M  V30 4694 C 452.737 0.918235 -1.38411 0
M  V30 4695 O 453.922 0.915991 -1.67375 0
M  V30 4696 C 451.062 1.23746 -3.22151 0
M  V30 4697 C 450.175 0.533216 -4.28697 0
M  V30 4698 C 449.31 1.5482 -5.08138 0
M  V30 4699 C 448.349 0.828347 -6.06469 0
M  V30 4700 N 447.486 1.78966 -6.78908 0
M  V30 4701 H 452.326 -0.499037 -2.93792 0
M  V30 4702 H 449.863 -0.25793 -1.44821 0
M  V30 4703 H 451.821 1.84746 -3.74065 0
M  V30 4704 H 450.451 1.91151 -2.60117 0
M  V30 4705 H 449.503 -0.191089 -3.7992 0
M  V30 4706 H 450.815 -0.0311987 -4.9879 0
M  V30 4707 H 449.969 2.23202 -5.6415 0
M  V30 4708 H 448.708 2.14652 -4.37922 0
M  V30 4709 H 447.713 0.130539 -5.49645 0
M  V30 4710 H 448.938 0.235907 -6.7869 0
M  V30 4711 H 446.884 2.37675 -6.1143 0
M  V30 4712 H 446.801 1.27712 -7.45135 0
M  V30 4713 H 448.069 2.46496 -7.395 0
M  V30 4714 N 452.299 1.55045 -0.282633 0
M  V30 4715 C 453.576 1.9179 0.384166 0
M  V30 4716 C 453.956 1.20778 1.73136 0
M  V30 4717 O 453.304 0.33719 2.25998 0
M  V30 4718 C 453.514 3.45149 0.517014 0
M  V30 4719 C 454.862 4.17064 0.796427 0
M  V30 4720 O 455.886 3.51084 0.601535 0
M  V30 4721 O 454.745 5.33837 1.16962 0
M  V30 4722 H 451.839 0.799483 0.211558 0
M  V30 4723 H 454.385 1.66474 -0.32934 0
M  V30 4724 H 453.157 3.88922 -0.430772 0
M  V30 4725 H 452.78 3.76443 1.2797 0
M  V30 4726 N 453.777 0.010035 1.57597 0
M  V30 4727 C 455.025 -0.671371 1.90623 0
M  V30 4728 C 455.346 -1.73753 0.885151 0
M  V30 4729 O 454.616 -1.95752 -0.0760611 0
M  V30 4730 H 453.196 -0.250968 0.703579 0
M  V30 4731 H 455.858 0.0533325 1.94827 0
M  V30 4732 H 454.954 -1.13626 2.90681 0
M  V30 4733 N 455.255 -1.55392 -0.262866 0
M  V30 4734 C 456.202 -1.88966 -1.32516 0
M  V30 4735 C 457.172 -0.742187 -1.48596 0
M  V30 4736 O 458.357 -0.99439 -1.62839 0
M  V30 4737 C 455.497 -2.17592 -2.67858 0
M  V30 4738 C 454.61 -3.45061 -2.59917 0
M  V30 4739 C 453.745 -3.63336 -3.87505 0
M  V30 4740 C 452.784 -4.84462 -3.74116 0
M  V30 4741 N 451.921 -4.99342 -4.93561 0
M  V30 4742 H 456.761 -2.79566 -1.03184 0
M  V30 4743 H 454.298 -1.38404 -0.498285 0
M  V30 4744 H 456.256 -2.3219 -3.46617 0
M  V30 4745 H 454.886 -1.30215 -2.95371 0
M  V30 4746 H 453.938 -3.38881 -1.72812 0
M  V30 4747 H 455.25 -4.3396 -2.45926 0
M  V30 4748 H 454.404 -3.77807 -4.74707 0
M  V30 4749 H 453.143 -2.72641 -4.04374 0
M  V30 4750 H 452.148 -4.69985 -2.85297 0
M  V30 4751 H 453.373 -5.76603 -3.58757 0
M  V30 4752 H 451.319 -4.1158 -5.10821 0
M  V30 4753 H 451.236 -5.82303 -4.82141 0
M  V30 4754 H 452.504 -5.18208 -5.82306 0
M  V30 4755 N 456.733 0.527833 -1.48498 0
M  V30 4756 C 458.144 1.10975 -1.50138 0
M  V30 4757 C 458.495 1.943 -0.272378 0
M  V30 4758 O 457.62 2.07319 0.620301 0
M  V30 4759 C 458.215 2.01927 -2.72049 0
M  V30 4760 C 456.774 2.55332 -2.76554 0
M  V30 4761 C 455.921 1.32341 -2.43683 0
M  V30 4762 H 458.872 0.312986 -1.55583 0
M  V30 4763 H 458.893 2.86244 -2.50689 0
M  V30 4764 H 458.405 1.41254 -3.61481 0
M  V30 4765 H 456.506 3.19721 -1.91336 0
M  V30 4766 H 456.619 2.94319 -3.78038 0
M  V30 4767 H 454.983 1.63989 -1.94884 0
M  V30 4768 H 455.766 0.734165 -3.35358 0
M  V30 4769 N 458.211 1.37122 0.776871 0
M  V30 4770 C 459.441 1.35034 1.56363 0
M  V30 4771 C 459.849 -0.0674681 1.8908 0
M  V30 4772 O 459.192 -1.03826 1.51545 0
M  V30 4773 C 459.254 2.11894 2.90415 0
M  V30 4774 C 458.918 3.60897 2.80362 0
M  V30 4775 C 459.915 4.54887 2.51742 0
M  V30 4776 C 457.6 4.03951 2.98545 0
M  V30 4777 C 459.594 5.89909 2.41426 0
M  V30 4778 C 457.281 5.3906 2.87849 0
M  V30 4779 C 458.279 6.31852 2.5933 0
M  V30 4780 O 457.967 7.64479 2.48651 0
M  V30 4781 H 457.699 0.464402 0.49123 0
M  V30 4782 H 460.253 1.80992 0.971127 0
M  V30 4783 H 458.483 1.60618 3.51765 0
M  V30 4784 H 460.172 2.02505 3.51776 0
M  V30 4785 H 460.938 4.22934 2.37385 0
M  V30 4786 H 456.817 3.3209 3.19746 0
M  V30 4787 H 460.361 6.62304 2.19086 0
M  V30 4788 H 456.258 5.70617 3.01773 0
M  V30 4789 H 457.026 7.74742 2.64039 0
M  V30 4790 N 459.689 -1.00246 1.21608 0
M  V30 4791 C 460.938 -1.73476 1.02902 0
M  V30 4792 C 461.251 -1.90643 -0.437561 0
M  V30 4793 O 462.457 -2.61105 -0.74407 0
M  V30 4794 C 460.913 -3.12079 1.79261 0
M  V30 4795 C 460.521 -3.02877 3.30106 0
M  V30 4796 C 462.265 -3.89421 1.68972 0
M  V30 4797 C 460.172 -4.36575 3.98944 0
M  V30 4798 H 459.102 -0.650408 0.381425 0
M  V30 4799 H 461.753 -1.11985 1.45367 0
M  V30 4800 H 460.135 -3.74196 1.2959 0
M  V30 4801 H 461.309 -2.49983 3.87098 0
M  V30 4802 H 459.624 -2.39022 3.40965 0
M  V30 4803 H 462.221 -4.88362 2.17731 0
M  V30 4804 H 462.564 -4.1122 0.648397 0
M  V30 4805 H 463.097 -3.33963 2.16133 0
M  V30 4806 H 459.836 -4.19978 5.03288 0
M  V30 4807 H 459.356 -4.8942 3.4674 0
M  V30 4808 H 461.035 -5.05364 4.04 0
M  V30 4809 N 461.167 -1.02423 -1.1978 0
M  V30 4810 C 462.415 -0.716569 -1.8897 0
M  V30 4811 C 462.736 0.756769 -1.79716 0
M  V30 4812 O 462.006 1.5449 -1.20456 0
M  V30 4813 H 460.586 -0.262062 -0.699523 0
M  V30 4814 H 463.248 -1.29747 -1.45436 0
M  V30 4815 H 462.344 -1.00675 -2.95417 0
M  V30 4816 N 462.645 1.35699 -0.801477 0
M  V30 4817 C 464.061 1.52065 -0.484596 0
M  V30 4818 C 464.261 1.75215 0.995084 0
M  V30 4819 O 463.317 1.79061 1.78026 0
M  V30 4820 C 464.63 2.69908 -1.32552 0
M  V30 4821 C 466.178 2.83784 -1.32044 0
M  V30 4822 C 466.653 4.04646 -2.14536 0
M  V30 4823 N 468.144 4.11814 -2.12046 0
M  V30 4824 C 468.879 5.04437 -2.72636 0
M  V30 4825 N 468.375 6.02426 -3.42133 0
M  V30 4826 N 470.168 4.97144 -2.62305 0
M  V30 4827 H 462.319 1.18928 -1.75983 0
M  V30 4828 H 464.582 0.581455 -0.748741 0
M  V30 4829 H 464.288 2.59363 -2.37537 0
M  V30 4830 H 464.162 3.64376 -0.975181 0
M  V30 4831 H 466.549 2.93783 -0.27846 0
M  V30 4832 H 466.63 1.90188 -1.71062 0
M  V30 4833 H 466.274 3.95407 -3.18772 0
M  V30 4834 H 466.204 4.97413 -1.72882 0
M  V30 4835 H 468.695 3.41664 -1.61476 0
M  V30 4836 H 469.008 6.69688 -3.85666 0
M  V30 4837 H 467.353 6.02615 -3.46237 0
M  V30 4838 H 470.544 4.19546 -2.07603 0
M  V30 4839 H 470.717 5.69138 -3.09815 0
M  V30 4840 N 464.123 0.554532 1.47522 0
M  V30 4841 C 465.073 -0.215008 2.26984 0
M  V30 4842 C 466.057 -0.88774 1.34194 0
M  V30 4843 O 467.249 -0.786489 1.58567 0
M  V30 4844 C 464.378 -1.24604 3.19889 0
M  V30 4845 C 463.464 -0.576857 4.20159 0
M  V30 4846 N 463.855 0.351541 5.04577 0
M  V30 4847 C 462.153 -0.831104 4.38188 0
M  V30 4848 C 462.854 0.739995 5.76974 0
M  V30 4849 N 461.83 0.0954407 5.43516 0
M  V30 4850 H 465.632 0.498843 2.89636 0
M  V30 4851 H 463.146 0.374279 1.58028 0
M  V30 4852 H 465.143 -1.81128 3.75498 0
M  V30 4853 H 463.803 -1.96101 2.58794 0
M  V30 4854 H 464.814 0.725556 5.12792 0
M  V30 4855 H 461.491 -1.53479 3.88266 0
M  V30 4856 H 462.881 1.50271 6.5488 0
M  V30 4857 N 465.601 -1.54893 0.290851 0
M  V30 4858 C 467.012 -1.85584 -0.203816 0
M  V30 4859 C 467.363 -1.21285 -1.54222 0
M  V30 4860 O 466.488 -0.506841 -2.10381 0
M  V30 4861 C 467.083 -3.367 -0.376595 0
M  V30 4862 C 465.642 -3.6746 -0.815485 0
M  V30 4863 C 464.789 -2.77178 0.0821087 0
M  V30 4864 H 467.74 -1.50208 0.512175 0
M  V30 4865 H 467.761 -3.60656 -1.21275 0
M  V30 4866 H 467.273 -3.8347 0.59767 0
M  V30 4867 H 465.374 -3.26201 -1.80066 0
M  V30 4868 H 465.487 -4.7478 -0.641905 0
M  V30 4869 H 463.851 -2.50925 -0.436895 0
M  V30 4870 H 464.634 -3.26767 1.05254 0
M  V30 4871 N 467.08 -0.0183926 -1.57589 0
M  V30 4872 C 467.99 0.982943 -2.13015 0
M  V30 4873 C 469.006 1.36443 -1.07979 0
M  V30 4874 O 470.182 1.44802 -1.3998 0
M  V30 4875 C 467.247 2.25024 -2.63752 0
M  V30 4876 C 466.308 1.93018 -3.83461 0
M  V30 4877 C 465.541 3.13706 -4.31769 0
M  V30 4878 O 465.764 4.2601 -3.79305 0
M  V30 4879 O 464.698 2.96629 -5.23732 0
M  V30 4880 H 468.524 0.541709 -2.9883 0
M  V30 4881 H 466.109 0.201565 -1.48034 0
M  V30 4882 H 467.991 2.99441 -2.96502 0
M  V30 4883 H 466.666 2.68349 -1.81026 0
M  V30 4884 H 465.573 1.16019 -3.55655 0
M  V30 4885 H 466.906 1.54516 -4.67317 0
M  V30 4886 N 468.558 1.5553 0.254621 0
M  V30 4887 C 469.835 1.6774 1.00611 0
M  V30 4888 C 470.215 0.555993 2.03647 0
M  V30 4889 O 469.563 -0.441583 2.24193 0
M  V30 4890 C 469.773 3.07725 1.6464 0
M  V30 4891 C 471.121 3.66074 2.15116 0
M  V30 4892 O 472.145 3.10476 1.74595 0
M  V30 4893 O 471.004 4.63526 2.89493 0
M  V30 4894 H 468.098 0.681958 0.467828 0
M  V30 4895 H 470.644 1.67863 0.24902 0
M  V30 4896 H 469.416 3.80792 0.900734 0
M  V30 4897 H 469.039 3.1158 2.46989 0
M  V30 4898 N 470.036 -0.519951 1.48776 0
M  V30 4899 C 471.261 -1.30447 1.6124 0
M  V30 4900 C 471.686 -1.86055 0.276591 0
M  V30 4901 O 471.044 -1.64915 -0.753183 0
M  V30 4902 C 471.092 -2.42406 2.66967 0
M  V30 4903 O 470.196 -3.45728 2.24824 0
M  V30 4904 H 469.537 -0.385924 0.540332 0
M  V30 4905 H 472.067 -0.624572 1.94834 0
M  V30 4906 H 472.077 -2.88447 2.88552 0
M  V30 4907 H 470.752 -2.01294 3.63941 0
M  V30 4908 H 469.329 -3.05737 2.13494 0
M  V30 4909 N 471.514 -1.37532 -0.769588 0
M  V30 4910 C 472.93 -1.18379 -1.07045 0
M  V30 4911 C 473.13 -0.0214312 -2.01489 0
M  V30 4912 O 472.186 0.637809 -2.44312 0
M  V30 4913 C 473.499 -2.50338 -1.66588 0
M  V30 4914 C 475.047 -2.56879 -1.78835 0
M  V30 4915 C 475.522 -3.88974 -2.41792 0
M  V30 4916 N 477.013 -3.90428 -2.4924 0
M  V30 4917 C 477.748 -4.89388 -2.98809 0
M  V30 4918 N 477.244 -5.98745 -3.48535 0
M  V30 4919 N 479.037 -4.76791 -2.97703 0
M  V30 4920 H 471.188 -2.11921 -0.142541 0
M  V30 4921 H 473.451 -0.939608 -0.125863 0
M  V30 4922 H 473.157 -3.35767 -1.0466 0
M  V30 4923 H 473.031 -2.67583 -2.65856 0
M  V30 4924 H 475.418 -1.71856 -2.39895 0
M  V30 4925 H 475.499 -2.43516 -0.783166 0
M  V30 4926 H 475.143 -4.74412 -1.81371 0
M  V30 4927 H 475.073 -3.99641 -3.4292 0
M  V30 4928 H 477.564 -3.11433 -2.14052 0
M  V30 4929 H 477.877 -6.70205 -3.84767 0
M  V30 4930 H 476.222 -6.02387 -3.46634 0
M  V30 4931 H 479.413 -3.90478 -2.58157 0
M  V30 4932 H 479.586 -5.54069 -3.36024 0
M  V30 4933 N 472.992 0.995999 -1.22138 0
M  V30 4934 C 474.241 1.72928 -1.03821 0
M  V30 4935 C 474.554 1.90872 0.427444 0
M  V30 4936 O 475.76 2.61496 0.730212 0
M  V30 4937 C 474.216 3.11124 -1.80913 0
M  V30 4938 C 473.824 3.01122 -3.31707 0
M  V30 4939 C 475.568 3.8852 -1.71035 0
M  V30 4940 C 473.475 4.34453 -4.01253 0
M  V30 4941 H 472.405 0.648376 -0.384869 0
M  V30 4942 H 475.056 1.11213 -1.45959 0
M  V30 4943 H 473.438 3.73503 -1.31573 0
M  V30 4944 H 474.612 2.47926 -3.88419 0
M  V30 4945 H 472.927 2.3721 -3.42228 0
M  V30 4946 H 475.524 4.872 -2.20318 0
M  V30 4947 H 475.867 4.1087 -0.670196 0
M  V30 4948 H 476.4 3.32812 -2.17902 0
M  V30 4949 H 473.139 4.17303 -5.05508 0
M  V30 4950 H 472.659 4.87574 -3.49331 0
M  V30 4951 H 474.338 5.03215 -4.06674 0
M  V30 4952 N 474.47 1.03057 1.19235 0
M  V30 4953 C 475.4 0.633497 2.24742 0
M  V30 4954 C 476.381 -0.358335 1.66283 0
M  V30 4955 O 477.566 -0.240676 1.92703 0
M  V30 4956 C 474.696 -0.0147648 3.47297 0
M  V30 4957 C 473.65 0.899527 4.18441 0
M  V30 4958 C 472.976 0.116281 5.34574 0
M  V30 4959 C 474.276 2.21404 4.73051 0
M  V30 4960 H 475.97 1.5155 2.58211 0
M  V30 4961 H 473.516 0.73014 1.24117 0
M  V30 4962 H 475.469 -0.304202 4.20301 0
M  V30 4963 H 474.193 -0.931577 3.13032 0
M  V30 4964 H 472.852 1.17319 3.47321 0
M  V30 4965 H 472.5 -0.802619 4.96555 0
M  V30 4966 H 472.2 0.725293 5.83107 0
M  V30 4967 H 473.724 -0.166376 6.10373 0
M  V30 4968 H 475.138 1.98601 5.37802 0
M  V30 4969 H 473.535 2.77512 5.32078 0
M  V30 4970 H 474.605 2.86752 3.91026 0
M  V30 4971 N 475.948 -1.35272 0.808662 0
M  V30 4972 C 477.195 -1.98709 0.390003 0
M  V30 4973 C 477.523 -1.64148 -1.04335 0
M  V30 4974 O 476.778 -0.897797 -1.73891 0
M  V30 4975 C 477.077 -3.53556 0.522798 0
M  V30 4976 C 476.743 -4.0799 1.91977 0
M  V30 4977 C 475.405 -4.22568 2.30195 0
M  V30 4978 C 477.757 -4.37442 2.83361 0
M  V30 4979 C 475.085 -4.63918 3.59162 0
M  V30 4980 C 477.437 -4.80232 4.11776 0
M  V30 4981 C 476.101 -4.93016 4.49991 0
M  V30 4982 H 475.371 -0.727127 0.142712 0
M  V30 4983 H 478.018 -1.6145 1.02985 0
M  V30 4984 H 476.323 -3.91287 -0.200494 0
M  V30 4985 H 478.02 -4.00598 0.179608 0
M  V30 4986 H 474.61 -3.97096 1.61284 0
M  V30 4987 H 478.794 -4.25731 2.55083 0
M  V30 4988 H 474.05 -4.72005 3.88615 0
M  V30 4989 H 478.224 -5.01982 4.82687 0
M  V30 4990 H 475.851 -5.24814 5.49976 0
M  V30 4991 N 477.426 -0.562348 -1.47226 0
M  V30 4992 C 478.389 0.172056 -2.28553 0
M  V30 4993 C 479.389 0.837928 -1.37242 0
M  V30 4994 O 480.579 0.693001 -1.59822 0
M  V30 4995 C 477.711 1.25223 -3.17068 0
M  V30 4996 H 478.904 -0.542401 -2.94954 0
M  V30 4997 H 476.457 -0.319493 -1.53 0
M  V30 4998 H 477.192 1.99892 -2.55369 0
M  V30 4999 H 476.977 0.779515 -3.84273 0
M  V30 5000 H 478.467 1.76791 -3.78332 0
M  V30 5001 N 478.904 1.54736 -0.299062 0
M  V30 5002 C 479.867 2.22127 0.565012 0
M  V30 5003 C 480.867 1.20669 1.06281 0
M  V30 5004 O 482.057 1.45417 0.959145 0
M  V30 5005 C 479.189 2.90611 1.78208 0
M  V30 5006 H 480.382 2.99891 -0.0237448 0
M  V30 5007 H 477.935 1.5622 -0.0498788 0
M  V30 5008 H 478.67 2.16921 2.41072 0
M  V30 5009 H 478.455 3.64984 1.43281 0
M  V30 5010 H 479.945 3.42026 2.396 0
M  V30 5011 N 480.382 0.0267497 1.57577 0
M  V30 5012 C 481.63 -0.651116 1.91324 0
M  V30 5013 C 481.951 -1.72804 0.90353 0
M  V30 5014 O 481.221 -1.95822 -0.0552946 0
M  V30 5015 H 479.801 -0.243491 0.706202 0
M  V30 5016 H 482.463 0.0739935 1.94759 0
M  V30 5017 H 481.559 -1.10536 2.9187 0
M  V30 5018 N 481.861 -1.55662 -0.24637 0
M  V30 5019 C 482.811 -1.86753 -1.30795 0
M  V30 5020 C 483.795 -0.728445 -1.43466 0
M  V30 5021 O 484.987 -0.99038 -1.46699 0
M  V30 5022 C 482.116 -2.16618 -2.66329 0
M  V30 5023 C 481.202 -3.36855 -2.57661 0
M  V30 5024 N 481.593 -4.56111 -2.18624 0
M  V30 5025 C 479.891 -3.39976 -2.88673 0
M  V30 5026 C 480.592 -5.38247 -2.20601 0
M  V30 5027 N 479.568 -4.77322 -2.60124 0
M  V30 5028 H 483.37 -2.76486 -0.996642 0
M  V30 5029 H 480.884 -1.55896 -0.454994 0
M  V30 5030 H 482.881 -2.37057 -3.42942 0
M  V30 5031 H 481.541 -1.28185 -2.98327 0
M  V30 5032 H 482.552 -4.81726 -1.9016 0
M  V30 5033 H 479.229 -2.61815 -3.25206 0
M  V30 5034 H 480.619 -6.43657 -1.92756 0
M  V30 5035 N 483.339 0.512053 -1.4905 0
M  V30 5036 C 484.586 1.26686 -1.57978 0
M  V30 5037 C 484.914 1.92733 -0.261553 0
M  V30 5038 O 484.169 1.80772 0.749667 0
M  V30 5039 C 484.468 2.36446 -2.68008 0
M  V30 5040 C 484.134 1.87932 -4.09869 0
M  V30 5041 C 482.796 1.74419 -4.48477 0
M  V30 5042 C 485.148 1.5149 -4.98698 0
M  V30 5043 C 482.476 1.22827 -5.73699 0
M  V30 5044 C 484.828 1.01355 -6.24428 0
M  V30 5045 C 483.492 0.864735 -6.61875 0
M  V30 5046 H 482.762 0.463577 -0.578081 0
M  V30 5047 H 485.409 0.569421 -1.82838 0
M  V30 5048 H 483.714 3.11933 -2.37076 0
M  V30 5049 H 485.411 2.9453 -2.72127 0
M  V30 5050 H 482.001 1.99405 -3.79389 0
M  V30 5051 H 486.185 1.60782 -4.69535 0
M  V30 5052 H 481.441 1.10008 -6.01422 0
M  V30 5053 H 485.615 0.722351 -6.92644 0
M  V30 5054 H 483.242 0.462777 -7.5879 0
M  V30 5055 N 484.817 1.37938 0.762283 0
M  V30 5056 C 486.233 1.18945 1.06415 0
M  V30 5057 C 486.433 0.0321163 2.01474 0
M  V30 5058 O 485.489 -0.624844 2.44647 0
M  V30 5059 C 486.802 2.51218 1.65258 0
M  V30 5060 C 488.35 2.57824 1.7747 0
M  V30 5061 C 488.825 3.90251 2.39725 0
M  V30 5062 N 490.316 3.91744 2.47166 0
M  V30 5063 C 491.051 4.90966 2.96209 0
M  V30 5064 N 490.547 6.00585 3.45354 0
M  V30 5065 N 492.34 4.78363 2.9517 0
M  V30 5066 H 484.491 2.11994 0.131301 0
M  V30 5067 H 486.754 0.940262 0.120879 0
M  V30 5068 H 486.46 3.36317 1.02878 0
M  V30 5069 H 486.334 2.68989 2.64433 0
M  V30 5070 H 488.721 1.73126 2.3898 0
M  V30 5071 H 488.802 2.43928 0.770241 0
M  V30 5072 H 488.446 4.75368 1.78852 0
M  V30 5073 H 488.376 4.01454 3.40796 0
M  V30 5074 H 490.867 3.12563 2.12397 0
M  V30 5075 H 491.18 6.72236 3.81207 0
M  V30 5076 H 489.525 6.04217 3.43434 0
M  V30 5077 H 492.716 3.91841 2.56082 0
M  V30 5078 H 492.889 5.55843 3.33081 0
M  V30 5079 N 486.295 -0.989507 1.22664 0
M  V30 5080 C 487.243 -2.10148 0.997035 0
M  V30 5081 C 488.237 -1.6929 -0.0609783 0
M  V30 5082 O 489.443 -1.79766 0.0917523 0
M  V30 5083 H 485.818 -0.687256 0.305259 0
M  V30 5084 H 487.789 -2.26685 1.94053 0
M  V30 5085 C 486.538 -3.4257 0.595085 0
M  V30 5086 H 485.861 -3.74453 1.40089 0
M  V30 5087 H 487.301 -4.21344 0.473869 0
M  V30 5088 C 485.76 -3.29638 -0.695725 0
M  V30 5089 O 486.29 -3.61709 -1.74727 0
M  V30 5090 N 484.496 -2.82814 -0.668173 0
M  V30 5091 H 484.043 -2.56914 0.18787 0
M  V30 5092 H 484.001 -2.74544 -1.5321 0
M  V30 5093 N 487.773 -1.03688 -1.18687 0
M  V30 5094 C 489.021 -0.736572 -1.88199 0
M  V30 5095 C 489.342 0.737665 -1.80509 0
M  V30 5096 O 488.612 1.53204 -1.22088 0
M  V30 5097 H 487.192 -0.269466 -0.696704 0
M  V30 5098 H 489.854 -1.31282 -1.44052 0
M  V30 5099 H 488.95 -1.03802 -2.94332 0
M  V30 5100 N 489.251 1.34841 -0.815825 0
M  V30 5101 C 490.5 1.97755 -0.396976 0
M  V30 5102 C 490.813 1.65422 1.04379 0
M  V30 5103 O 492.019 2.21771 1.5662 0
M  V30 5104 C 490.475 3.53818 -0.658869 0
M  V30 5105 C 490.083 3.95051 -2.11278 0
M  V30 5106 C 491.827 4.23397 -0.305834 0
M  V30 5107 C 489.734 5.43997 -2.31994 0
M  V30 5108 H 488.664 0.739985 -0.1447 0
M  V30 5109 H 491.315 1.53781 -1.00118 0
M  V30 5110 H 489.697 3.95997 0.0154112 0
M  V30 5111 H 490.871 3.63998 -2.82564 0
M  V30 5112 H 489.186 3.38388 -2.42657 0
M  V30 5113 H 491.783 5.32899 -0.43854 0
M  V30 5114 H 492.126 4.09508 0.748952 0
M  V30 5115 H 492.659 3.8667 -0.934403 0
M  V30 5116 H 489.398 5.62865 -3.35952 0
M  V30 5117 H 488.918 5.76589 -1.65244 0
M  V30 5118 H 490.597 6.10584 -2.14001 0
M  V30 5119 N 490.729 0.570148 1.46925 0
M  V30 5120 C 491.659 -0.158274 2.32963 0
M  V30 5121 C 492.64 -0.896093 1.44583 0
M  V30 5122 O 493.825 -0.874022 1.7342 0
M  V30 5123 C 490.955 -1.18055 3.26619 0
M  V30 5124 C 489.909 -0.558379 4.24342 0
M  V30 5125 C 489.235 -1.68623 5.07415 0
M  V30 5126 C 490.535 0.496295 5.19937 0
M  V30 5127 H 492.229 0.560046 2.94115 0
M  V30 5128 H 489.775 0.270775 1.41431 0
M  V30 5129 H 491.728 -1.69841 3.85658 0
M  V30 5130 H 490.452 -1.92899 2.63548 0
M  V30 5131 H 489.111 -0.0617157 3.66548 0
M  V30 5132 H 488.759 -2.42402 4.40738 0
M  V30 5133 H 488.459 -1.27564 5.73586 0
M  V30 5134 H 489.983 -2.20709 5.69315 0
M  V30 5135 H 491.397 0.0640052 5.73264 0
M  V30 5136 H 489.794 0.82649 5.94381 0
M  V30 5137 H 490.864 1.38735 4.6463 0
M  V30 5138 N 492.207 -1.54576 0.307264 0
M  V30 5139 C 493.137 -2.26708 -0.55907 0
M  V30 5140 C 494.118 -1.26893 -1.1328 0
M  V30 5141 O 495.303 -1.55677 -1.16097 0
M  V30 5142 C 492.433 -3.01259 -1.72801 0
M  V30 5143 C 491.387 -4.08275 -1.28435 0
M  V30 5144 C 490.713 -4.70575 -2.53895 0
M  V30 5145 C 492.013 -5.2068 -0.411038 0
M  V30 5146 H 493.707 -2.9937 0.042576 0
M  V30 5147 H 491.253 -1.43983 0.0219173 0
M  V30 5148 H 493.206 -3.50444 -2.34023 0
M  V30 5149 H 491.93 -2.26187 -2.356 0
M  V30 5150 H 490.589 -3.59949 -0.695161 0
M  V30 5151 H 490.237 -3.92136 -3.15021 0
M  V30 5152 H 489.937 -5.42854 -2.24908 0
M  V30 5153 H 491.461 -5.22527 -3.15908 0
M  V30 5154 H 492.875 -5.65721 -0.929097 0
M  V30 5155 H 491.272 -5.99716 -0.214664 0
M  V30 5156 H 492.342 -4.81629 0.562287 0
M  V30 5157 N 493.685 -0.035106 -1.57561 0
M  V30 5158 C 494.648 0.929819 -2.09492 0
M  V30 5159 C 495.648 1.25026 -1.01119 0
M  V30 5160 O 496.838 1.18961 -1.27255 0
M  V30 5161 C 493.97 2.24457 -2.56577 0
M  V30 5162 H 495.163 0.479935 -2.96035 0
M  V30 5163 H 492.716 0.213033 -1.54841 0
M  V30 5164 H 493.451 2.74061 -1.73382 0
M  V30 5165 H 493.236 2.02508 -3.35757 0
M  V30 5166 H 494.726 2.93607 -2.96959 0
M  V30 5167 N 495.163 1.55791 0.238111 0
M  V30 5168 C 496.574 1.68383 0.806472 0
M  V30 5169 C 496.925 0.634157 1.85669 0
M  V30 5170 O 496.05 -0.217913 2.153 0
M  V30 5171 C 496.645 3.05268 1.46959 0
M  V30 5172 C 495.204 3.1977 1.98555 0
M  V30 5173 C 494.351 2.64279 0.839763 0
M  V30 5174 H 497.302 1.58694 0.0137535 0
M  V30 5175 H 497.323 3.00203 2.33792 0
M  V30 5176 H 496.835 3.81643 0.704993 0
M  V30 5177 H 494.936 2.48234 2.77868 0
M  V30 5178 H 495.049 4.26788 2.17689 0
M  V30 5179 H 493.413 2.22329 1.24265 0
M  V30 5180 H 494.196 3.43187 0.0881032 0
M  V30 5181 N 496.642 -0.504142 1.49319 0
M  V30 5182 C 497.605 -1.5883 1.65244 0
M  V30 5183 C 498.605 -1.52009 0.524386 0
M  V30 5184 O 499.795 -1.55218 0.79077 0
M  V30 5185 C 496.927 -2.98481 1.64687 0
M  V30 5186 H 498.12 -1.4604 2.61939 0
M  V30 5187 H 495.673 -0.728144 1.38303 0
M  V30 5188 H 496.408 -3.16751 0.695644 0
M  V30 5189 H 496.193 -3.0484 2.46607 0
M  V30 5190 H 497.683 -3.77256 1.79075 0
M  V30 5191 N 498.12 -1.38341 -0.754957 0
M  V30 5192 C 499.348 -1.37704 -1.54419 0
M  V30 5193 C 499.763 0.0335243 -1.8877 0
M  V30 5194 O 499.12 0.999773 -1.52679 0
M  V30 5195 C 499.171 -2.23136 -2.84416 0
M  V30 5196 O 498.892 -3.58697 -2.51531 0
M  V30 5197 C 500.393 -2.30664 -3.78562 0
M  V30 5198 H 497.613 -0.471061 -0.477852 0
M  V30 5199 H 500.157 -1.81902 -0.934446 0
M  V30 5200 H 498.312 -1.82403 -3.41772 0
M  V30 5201 H 498.726 -4.03665 -3.34896 0
M  V30 5202 H 500.2 -2.9473 -4.66732 0
M  V30 5203 H 500.677 -1.3199 -4.18898 0
M  V30 5204 H 501.283 -2.71781 -3.27131 0
M  V30 5205 N 499.598 0.982988 -1.23187 0
M  V30 5206 C 500.846 1.72052 -1.06031 0
M  V30 5207 C 501.167 1.90769 0.404019 0
M  V30 5208 O 500.437 1.47446 1.28982 0
M  V30 5209 H 499.017 0.637499 -0.389363 0
M  V30 5210 H 501.679 1.18338 -1.54862 0
M  V30 5211 H 500.775 2.7111 -1.54615 0
M  V30 5212 N 501.076 1.04316 1.18135 0
M  V30 5213 C 502.039 0.640794 2.2006 0
M  V30 5214 C 503.039 -0.303124 1.57917 0
M  V30 5215 O 504.229 -0.0881855 1.73977 0
M  V30 5216 C 501.361 -0.060148 3.40847 0
M  V30 5217 H 502.554 1.54281 2.57172 0
M  V30 5218 H 500.107 0.836004 1.32063 0
M  V30 5219 H 500.842 -0.975845 3.0927 0
M  V30 5220 H 500.627 0.618319 3.87194 0
M  V30 5221 H 502.117 -0.328082 4.16309 0
M  V30 5222 N 502.554 -1.34406 0.822964 0
M  V30 5223 C 503.484 -2.32052 0.259608 0
M  V30 5224 C 504.465 -1.58243 -0.623961 0
M  V30 5225 O 505.65 -1.86224 -0.55083 0
M  V30 5226 C 502.78 -3.42434 -0.579314 0
M  V30 5227 C 501.734 -4.27499 0.20712 0
M  V30 5228 C 501.06 -5.29349 -0.754547 0
M  V30 5229 C 502.36 -5.02758 1.41533 0
M  V30 5230 H 504.054 -2.79418 1.07545 0
M  V30 5231 H 501.6 -1.34338 0.518593 0
M  V30 5232 H 503.553 -4.0976 -0.983612 0
M  V30 5233 H 502.277 -2.93717 -1.4282 0
M  V30 5234 H 500.936 -3.61776 0.592787 0
M  V30 5235 H 500.584 -4.76895 -1.59939 0
M  V30 5236 H 500.284 -5.8714 -0.232561 0
M  V30 5237 H 501.808 -5.99544 -1.1567 0
M  V30 5238 H 503.222 -5.62938 1.08504 0
M  V30 5239 H 501.619 -5.70123 1.87296 0
M  V30 5240 H 502.689 -4.32451 2.1935 0
M  V30 5241 N 504.032 -0.577932 -1.46621 0
M  V30 5242 C 505.281 -0.0594281 -2.01612 0
M  V30 5243 C 505.594 1.30663 -1.45556 0
M  V30 5244 O 506.8 1.91621 -1.92337 0
M  V30 5245 C 505.256 -0.0556666 -3.59857 0
M  V30 5246 C 504.864 -1.41975 -4.24908 0
M  V30 5247 C 506.608 0.409143 -4.22524 0
M  V30 5248 C 504.515 -1.37397 -5.75218 0
M  V30 5249 H 503.445 -0.0184469 -0.753774 0
M  V30 5250 H 506.096 -0.728869 -1.68404 0
M  V30 5251 H 504.478 0.679843 -3.90121 0
M  V30 5252 H 505.652 -2.17461 -4.0626 0
M  V30 5253 H 503.967 -1.82419 -3.74316 0
M  V30 5254 H 506.564 0.46211 -5.32699 0
M  V30 5255 H 506.907 1.42565 -3.91128 0
M  V30 5256 H 507.44 -0.272152 -3.96868 0
M  V30 5257 H 504.179 -2.36714 -6.11267 0
M  V30 5258 H 503.699 -0.661239 -5.96144 0
M  V30 5259 H 505.378 -1.08484 -6.3784 0
M  V30 5260 N 505.51 1.54411 -0.315457 0
M  V30 5261 C 506.735 2.05299 0.294496 0
M  V30 5262 C 507.16 1.19052 1.4563 0
M  V30 5263 O 506.518 0.197804 1.80218 0
M  V30 5264 C 506.566 3.5345 0.714549 0
M  V30 5265 O 505.67 3.70175 1.81781 0
M  V30 5266 H 505.011 0.661743 0.0547019 0
M  V30 5267 H 507.541 1.99327 -0.461508 0
M  V30 5268 H 507.551 3.9557 0.999426 0
M  V30 5269 H 506.226 4.1568 -0.135244 0
M  V30 5270 H 504.803 3.3996 1.53236 0
M  V30 5271 N 506.988 0.0434614 1.5754 0
M  V30 5272 C 508.265 -0.671479 1.83713 0
M  V30 5273 C 508.645 -1.89495 0.930315 0
M  V30 5274 O 507.993 -2.28498 -0.0105639 0
M  V30 5275 C 508.203 -1.0361 3.33266 0
M  V30 5276 C 509.551 -1.42167 4.00092 0
M  V30 5277 O 510.575 -1.12866 3.37846 0
M  V30 5278 O 509.434 -1.96817 5.09829 0
M  V30 5279 H 506.528 -0.330726 0.75799 0
M  V30 5280 H 509.074 0.0722373 1.69546 0
M  V30 5281 H 507.846 -0.165938 3.90948 0
M  V30 5282 H 507.469 -1.83751 3.52592 0
M  V30 5283 N 508.466 -1.55915 -0.229846 0
M  V30 5284 C 509.396 -1.94754 -1.28815 0
M  V30 5285 C 510.377 -0.814657 -1.49323 0
M  V30 5286 O 511.562 -1.07631 -1.61645 0
M  V30 5287 C 508.692 -2.25705 -2.63959 0
M  V30 5288 C 507.646 -3.41406 -2.5812 0
M  V30 5289 C 506.972 -3.57941 -3.97218 0
M  V30 5290 C 508.272 -4.76616 -2.13623 0
M  V30 5291 H 509.966 -2.83404 -0.965547 0
M  V30 5292 H 507.512 -1.36353 -0.463028 0
M  V30 5293 H 509.465 -2.51467 -3.38146 0
M  V30 5294 H 508.189 -1.339 -2.9789 0
M  V30 5295 H 506.848 -3.1568 -1.86391 0
M  V30 5296 H 506.496 -2.63526 -4.28443 0
M  V30 5297 H 506.196 -4.35757 -3.94195 0
M  V30 5298 H 507.72 -3.86042 -4.73079 0
M  V30 5299 H 509.134 -5.01637 -2.77549 0
M  V30 5300 H 507.531 -5.57655 -2.21677 0
M  V30 5301 H 508.601 -4.7253 -1.08829 0
M  V30 5302 N 509.944 0.496216 -1.49584 0
M  V30 5303 C 511.193 1.24668 -1.58558 0
M  V30 5304 C 511.506 1.9359 -0.279703 0
M  V30 5305 O 512.712 2.70365 -0.248048 0
M  V30 5306 C 511.168 2.26388 -2.79779 0
M  V30 5307 C 510.776 1.63384 -4.17145 0
M  V30 5308 C 512.52 3.02233 -2.98086 0
M  V30 5309 C 510.427 2.63243 -5.29582 0
M  V30 5310 H 509.357 0.468995 -0.590389 0
M  V30 5311 H 512.008 0.519985 -1.75978 0
M  V30 5312 H 510.39 3.02241 -2.55863 0
M  V30 5313 H 511.564 0.93491 -4.51216 0
M  V30 5314 H 509.879 0.999121 -4.04236 0
M  V30 5315 H 512.476 3.76919 -3.79257 0
M  V30 5316 H 512.819 3.60132 -2.08831 0
M  V30 5317 H 513.352 2.33495 -3.22063 0
M  V30 5318 H 510.091 2.10119 -6.20911 0
M  V30 5319 H 509.611 3.31363 -4.99959 0
M  V30 5320 H 511.29 3.25575 -5.59115 0
M  V30 5321 N 511.423 1.38739 0.74761 0
M  V30 5322 C 512.356 1.3083 1.86972 0
M  V30 5323 C 513.334 0.184229 1.61553 0
M  V30 5324 O 514.518 0.36256 1.8498 0
M  V30 5325 C 511.645 1.02854 3.22705 0
M  V30 5326 C 510.691 2.17281 3.67003 0
M  V30 5327 S 511.524 3.79468 3.77842 0
M  V30 5328 C 512.68 3.53692 5.16385 0
M  V30 5329 H 512.913 2.258 1.93395 0
M  V30 5330 H 510.446 1.24646 0.911199 0
M  V30 5331 H 512.404 0.87397 4.01089 0
M  V30 5332 H 511.065 0.0959295 3.13953 0
M  V30 5333 H 510.258 1.93267 4.65472 0
M  V30 5334 H 509.86 2.28876 2.9579 0
M  V30 5335 H 512.152 3.10176 6.02327 0
M  V30 5336 H 513.095 4.51576 5.45422 0
M  V30 5337 H 513.503 2.8807 4.85464 0
M  V30 5338 N 512.901 -0.976442 1.23707 0
M  V30 5339 C 513.849 -2.09078 1.01927 0
M  V30 5340 C 514.843 -1.69345 -0.0430193 0
M  V30 5341 O 516.049 -1.79659 0.110814 0
M  V30 5342 H 512.424 -0.68398 0.312531 0
M  V30 5343 H 514.395 -2.24614 1.96447 0
M  V30 5344 C 513.144 -3.41919 0.631385 0
M  V30 5345 H 512.467 -3.72946 1.44053 0
M  V30 5346 H 513.907 -4.20817 0.518532 0
M  V30 5347 C 512.366 -3.30357 -0.660723 0
M  V30 5348 O 512.896 -3.63542 -1.70881 0
M  V30 5349 N 511.102 -2.83507 -0.638139 0
M  V30 5350 H 510.649 -2.567 0.215108 0
M  V30 5351 H 510.607 -2.76153 -1.50289 0
M  V30 5352 N 514.379 -1.04941 -1.1758 0
M  V30 5353 C 515.326 -0.648155 -2.21512 0
M  V30 5354 C 516.296 0.348431 -1.62404 0
M  V30 5355 O 517.481 0.240419 -1.89279 0
M  V30 5356 C 514.621 -0.0264291 -3.4509 0
M  V30 5357 C 513.734 -1.07154 -4.185 0
M  V30 5358 C 512.869 -0.417403 -5.29558 0
M  V30 5359 C 511.908 -1.447 -5.94751 0
M  V30 5360 N 511.045 -0.817203 -6.97328 0
M  V30 5361 H 515.885 -1.53891 -2.55189 0
M  V30 5362 H 513.422 -0.769699 -1.25356 0
M  V30 5363 H 515.38 0.351456 -4.15717 0
M  V30 5364 H 514.01 0.827802 -3.12005 0
M  V30 5365 H 513.062 -1.56728 -3.46613 0
M  V30 5366 H 514.374 -1.8532 -4.63096 0
M  V30 5367 H 513.528 0.0142061 -6.06698 0
M  V30 5368 H 512.267 0.396265 -4.86087 0
M  V30 5369 H 511.272 -1.88865 -5.16343 0
M  V30 5370 H 512.497 -2.26252 -6.40302 0
M  V30 5371 H 510.443 -0.0239995 -6.55996 0
M  V30 5372 H 510.36 -1.53644 -7.40223 0
M  V30 5373 H 511.628 -0.410283 -7.7842 0
M  V30 5374 N 515.857 1.33968 -0.830081 0
M  V30 5375 C 516.767 2.33164 -0.259207 0
M  V30 5376 C 517.783 1.62951 0.610164 0
M  V30 5377 O 518.959 1.94668 0.516369 0
M  V30 5378 C 516.024 3.42088 0.563598 0
M  V30 5379 C 515.085 4.28037 -0.329014 0
M  V30 5380 C 514.318 5.3176 0.454616 0
M  V30 5381 O 514.541 5.44876 1.6872 0
M  V30 5382 O 513.475 6.01669 -0.166794 0
M  V30 5383 H 517.301 2.83832 -1.08041 0
M  V30 5384 H 514.886 1.37154 -0.59239 0
M  V30 5385 H 516.768 4.08581 1.03147 0
M  V30 5386 H 515.443 2.93651 1.36201 0
M  V30 5387 H 514.35 3.64443 -0.844538 0
M  V30 5388 H 515.683 4.79934 -1.09196 0
M  V30 5389 N 517.335 0.585699 1.46312 0
M  V30 5390 C 518.581 0.0725284 2.0267 0
M  V30 5391 C 518.914 -1.28523 1.45586 0
M  V30 5392 O 518.189 -1.84283 0.622101 0
M  V30 5393 C 518.472 0.0099788 3.60099 0
M  V30 5394 C 518.325 1.39685 4.27561 0
M  V30 5395 C 519.644 -0.689117 4.34671 0
M  V30 5396 H 516.763 0.0278307 0.736474 0
M  V30 5397 H 519.405 0.753472 1.74421 0
M  V30 5398 H 517.555 -0.56992 3.84297 0
M  V30 5399 H 519.227 2.02215 4.14617 0
M  V30 5400 H 517.47 1.96374 3.86807 0
M  V30 5401 H 518.141 1.30553 5.36339 0
M  V30 5402 H 520.617 -0.196446 4.15636 0
M  V30 5403 H 519.493 -0.701921 5.44393 0
M  V30 5404 H 519.754 -1.75101 4.05946 0
M  V30 5405 N 518.813 -1.54241 0.323641 0
M  V30 5406 C 519.761 -2.25813 -0.557804 0
M  V30 5407 C 520.755 -1.27225 -1.11849 0
M  V30 5408 O 521.961 -1.45001 -1.06652 0
M  V30 5409 H 518.336 -0.72532 -0.198532 0
M  V30 5410 H 520.307 -2.98322 0.0681112 0
M  V30 5411 C 519.056 -3.02913 -1.70701 0
M  V30 5412 H 518.379 -3.78593 -1.28482 0
M  V30 5413 H 519.819 -3.56238 -2.29935 0
M  V30 5414 C 518.278 -2.11217 -2.62467 0
M  V30 5415 O 518.808 -1.69508 -3.64184 0
M  V30 5416 N 517.014 -1.76704 -2.30703 0
M  V30 5417 H 516.561 -2.1082 -1.48029 0
M  V30 5418 H 516.519 -1.15631 -2.92364 0
M  V30 5419 N 520.291 -0.0518155 -1.57515 0
M  V30 5420 C 521.223 0.951542 -2.08515 0
M  V30 5421 C 522.236 1.27436 -1.01311 0
M  V30 5422 O 523.425 1.23504 -1.28876 0
M  V30 5423 C 520.525 2.27291 -2.5138 0
M  V30 5424 C 519.698 2.13191 -3.81927 0
M  V30 5425 C 518.757 3.28458 -4.11098 0
M  V30 5426 O 517.783 3.04334 -4.81009 0
M  V30 5427 N 518.985 4.52954 -3.63061 0
M  V30 5428 H 521.75 0.516242 -2.9522 0
M  V30 5429 H 519.311 0.13441 -1.61341 0
M  V30 5430 H 521.303 3.03272 -2.67971 0
M  V30 5431 H 519.873 2.62386 -1.69919 0
M  V30 5432 H 519.093 1.21798 -3.74912 0
M  V30 5433 H 520.381 2.00999 -4.67415 0
M  V30 5434 H 519.779 4.75444 -3.06545 0
M  V30 5435 H 518.336 5.26026 -3.84889 0
M  V30 5436 N 521.769 1.56035 0.221574 0
M  V30 5437 C 523.046 1.69837 0.970301 0
M  V30 5438 C 523.426 0.599065 2.02421 0
M  V30 5439 O 522.774 -0.393929 2.25079 0
M  V30 5440 C 522.984 3.11148 1.58076 0
M  V30 5441 C 524.332 3.70555 2.07302 0
M  V30 5442 O 525.356 3.14109 1.6797 0
M  V30 5443 O 524.215 4.69562 2.79596 0
M  V30 5444 H 521.309 0.691727 0.453257 0
M  V30 5445 H 523.855 1.68353 0.213358 0
M  V30 5446 H 522.627 3.82617 0.819759 0
M  V30 5447 H 522.25 3.16749 2.40324 0
M  V30 5448 N 523.247 -0.488276 1.49845 0
M  V30 5449 C 524.493 -1.24065 1.61182 0
M  V30 5450 C 524.848 -1.9004 0.300435 0
M  V30 5451 O 524.141 -1.78341 -0.700365 0
M  V30 5452 C 524.335 -2.32152 2.71735 0
M  V30 5453 C 524.164 -1.76778 4.13497 0
M  V30 5454 C 522.934 -1.57513 4.80123 0
M  V30 5455 C 525.132 -1.27242 4.98311 0
M  V30 5456 N 523.114 -0.972015 6.06156 0
M  V30 5457 C 524.485 -0.791457 6.14928 0
M  V30 5458 C 526.54 -1.15934 4.84214 0
M  V30 5459 C 525.243 -0.208593 7.18997 0
M  V30 5460 C 527.269 -0.590436 5.88445 0
M  V30 5461 C 526.631 -0.119767 7.04298 0
M  V30 5462 H 522.73 -0.443487 0.644083 0
M  V30 5463 H 525.314 -0.545551 1.86901 0
M  V30 5464 H 523.485 -2.99108 2.47768 0
M  V30 5465 H 525.217 -2.99187 2.72523 0
M  V30 5466 H 521.972 -1.82247 4.37131 0
M  V30 5467 H 522.396 -0.689367 6.73481 0
M  V30 5468 H 527.038 -1.5092 3.94947 0
M  V30 5469 H 524.756 0.153501 8.07954 0
M  V30 5470 H 528.342 -0.505548 5.79599 0
M  V30 5471 H 527.222 0.313568 7.83573 0
M  V30 5472 N 524.725 -1.39134 -0.740242 0
M  V30 5473 C 525.655 -1.40165 -1.86751 0
M  V30 5474 C 526.636 -0.265708 -1.68012 0
M  V30 5475 O 527.821 -0.47076 -1.88408 0
M  V30 5476 C 524.951 -1.2392 -3.2444 0
M  V30 5477 C 523.905 -2.34858 -3.57807 0
M  V30 5478 C 523.231 -2.03707 -4.94376 0
M  V30 5479 C 524.531 -3.77159 -3.61315 0
M  V30 5480 H 526.225 -2.345 -1.86145 0
M  V30 5481 H 523.771 -1.12875 -0.89416 0
M  V30 5482 H 525.724 -1.23263 -4.02969 0
M  V30 5483 H 524.448 -0.26051 -3.25559 0
M  V30 5484 H 523.107 -2.34723 -2.81604 0
M  V30 5485 H 522.755 -1.04289 -4.9207 0
M  V30 5486 H 522.455 -2.78016 -5.17669 0
M  V30 5487 H 523.979 -2.04691 -5.75268 0
M  V30 5488 H 525.393 -3.79252 -4.29931 0
M  V30 5489 H 523.79 -4.50784 -3.96124 0
M  V30 5490 H 524.86 -4.08513 -2.61238 0
M  V30 5491 N 526.204 0.969867 -1.24223 0
M  V30 5492 C 527.154 2.04913 -0.999732 0
M  V30 5493 C 528.138 1.60795 0.0580636 0
M  V30 5494 O 529.33 1.76317 -0.155392 0
M  V30 5495 C 526.459 3.37942 -0.604154 0
M  V30 5496 C 525.545 3.88628 -1.69791 0
M  V30 5497 N 525.936 4.12274 -2.93025 0
M  V30 5498 C 524.234 4.17268 -1.57492 0
M  V30 5499 C 524.935 4.53808 -3.63914 0
M  V30 5500 N 523.911 4.58855 -2.91468 0
M  V30 5501 H 527.713 2.21168 -1.93551 0
M  V30 5502 H 525.227 1.15349 -1.14317 0
M  V30 5503 H 527.224 4.14863 -0.411665 0
M  V30 5504 H 525.884 3.23075 0.324465 0
M  V30 5505 H 526.895 3.99789 -3.29225 0
M  V30 5506 H 523.572 4.11346 -0.714175 0
M  V30 5507 H 524.962 4.80534 -4.69614 0
M  V30 5508 N 527.682 1.05563 1.17022 0
M  V30 5509 C 528.645 0.664098 2.19368 0
M  V30 5510 C 529.645 -0.286358 1.5823 0
M  V30 5511 O 530.835 -0.069728 1.7406 0
M  V30 5512 C 527.967 -0.0239932 3.40892 0
M  V30 5513 H 529.16 1.57 2.55521 0
M  V30 5514 H 526.713 0.849964 1.31169 0
M  V30 5515 H 527.448 -0.942988 3.10287 0
M  V30 5516 H 527.233 0.659351 3.86516 0
M  V30 5517 H 528.723 -0.283909 4.16634 0
M  V30 5518 N 529.16 -1.33526 0.837174 0
M  V30 5519 C 530.407 -1.97837 0.432064 0
M  V30 5520 C 530.735 -1.66324 -1.00829 0
M  V30 5521 O 529.99 -0.93448 -1.71948 0
M  V30 5522 C 530.289 -3.52367 0.597675 0
M  V30 5523 C 529.955 -4.03826 2.00587 0
M  V30 5524 C 528.617 -4.1759 2.39106 0
M  V30 5525 C 530.969 -4.31333 2.92576 0
M  V30 5526 C 528.297 -4.56195 3.68921 0
M  V30 5527 C 530.649 -4.7139 4.2187 0
M  V30 5528 C 529.313 -4.8336 4.60347 0
M  V30 5529 H 528.583 -0.723937 0.158104 0
M  V30 5530 H 531.23 -1.5923 1.06387 0
M  V30 5531 H 529.535 -3.91624 -0.117452 0
M  V30 5532 H 531.232 -4.00126 0.26454 0
M  V30 5533 H 527.822 -3.93586 1.69671 0
M  V30 5534 H 532.006 -4.20224 2.64056 0
M  V30 5535 H 527.262 -4.63655 3.9854 0
M  V30 5536 H 531.436 -4.91631 4.93226 0
M  V30 5537 H 529.063 -5.1303 5.60985 0
M  V30 5538 N 530.638 -0.59345 -1.46 0
M  V30 5539 C 532.054 -0.255965 -1.57534 0
M  V30 5540 C 532.254 1.24167 -1.58697 0
M  V30 5541 O 531.31 2.02398 -1.50968 0
M  V30 5542 C 532.623 -0.91466 -2.86451 0
M  V30 5543 C 534.171 -0.889253 -3.00102 0
M  V30 5544 C 534.646 -1.52769 -4.3177 0
M  V30 5545 N 536.137 -1.49253 -4.38495 0
M  V30 5546 C 536.872 -1.9558 -5.39014 0
M  V30 5547 N 536.368 -2.49929 -6.46148 0
M  V30 5548 N 538.161 -1.86432 -5.30282 0
M  V30 5549 H 530.312 -1.56604 -1.43489 0
M  V30 5550 H 532.575 -0.655207 -0.685133 0
M  V30 5551 H 532.281 -1.96861 -2.91442 0
M  V30 5552 H 532.155 -0.429356 -3.74748 0
M  V30 5553 H 534.542 0.156111 -2.94687 0
M  V30 5554 H 534.623 -1.41268 -2.13253 0
M  V30 5555 H 534.267 -2.57231 -4.37944 0
M  V30 5556 H 534.197 -0.979398 -5.17412 0
M  V30 5557 H 536.688 -1.09536 -3.61677 0
M  V30 5558 H 537.001 -2.83109 -7.19075 0
M  V30 5559 H 535.346 -2.53961 -6.46938 0
M  V30 5560 H 538.537 -1.43722 -4.4549 0
M  V30 5561 H 538.71 -2.22852 -6.08474 0
M  V30 5562 N 532.116 1.54067 -0.331816 0
M  V30 5563 C 533.365 1.99895 0.269209 0
M  V30 5564 C 533.678 1.22371 1.52593 0
M  V30 5565 O 534.884 1.58618 2.20347 0
M  V30 5566 C 533.34 3.55972 0.530244 0
M  V30 5567 C 532.948 4.4234 -0.709901 0
M  V30 5568 C 534.692 4.10247 1.09077 0
M  V30 5569 C 532.599 5.89905 -0.420312 0
M  V30 5570 H 531.529 0.746741 0.104371 0
M  V30 5571 H 534.18 1.78014 -0.445324 0
M  V30 5572 H 532.562 3.73873 1.30518 0
M  V30 5573 H 533.736 4.36215 -1.48504 0
M  V30 5574 H 532.051 3.98997 -1.19123 0
M  V30 5575 H 534.648 5.18095 1.32219 0
M  V30 5576 H 534.991 3.62739 2.0427 0
M  V30 5577 H 535.524 3.96011 0.376824 0
M  V30 5578 H 532.263 6.41623 -1.34164 0
M  V30 5579 H 531.783 5.98962 0.316962 0
M  V30 5580 H 533.462 6.46991 -0.0331956 0
M  V30 5581 N 533.594 0.0601682 1.57485 0
M  V30 5582 C 534.871 -0.651956 1.84415 0
M  V30 5583 C 535.251 -1.88498 0.950361 0
M  V30 5584 O 534.599 -2.28496 0.0136719 0
M  V30 5585 C 534.809 -1.00069 3.34346 0
M  V30 5586 C 536.157 -1.37915 4.01578 0
M  V30 5587 O 537.181 -1.09277 3.39024 0
M  V30 5588 O 536.04 -1.91399 5.11887 0
M  V30 5589 H 533.134 -0.322668 0.761455 0
M  V30 5590 H 535.68 0.0902159 1.6946 0
M  V30 5591 H 534.452 -0.124463 3.91102 0
M  V30 5592 H 534.075 -1.80001 3.54521 0
M  V30 5593 N 535.072 -1.5615 -0.213296 0
M  V30 5594 C 536.488 -1.49327 -0.56336 0
M  V30 5595 C 536.688 -0.756826 -1.86747 0
M  V30 5596 O 535.744 -0.299866 -2.50713 0
M  V30 5597 C 537.057 -2.9392 -0.634944 0
M  V30 5598 C 538.605 -3.04487 -0.725013 0
M  V30 5599 C 539.08 -4.50456 -0.82787 0
M  V30 5600 N 540.571 -4.54533 -0.891876 0
M  V30 5601 C 541.306 -5.64766 -0.991315 0
M  V30 5602 N 540.802 -6.84733 -1.05419 0
M  V30 5603 N 542.595 -5.52637 -1.02709 0
M  V30 5604 H 534.746 -2.02453 0.642366 0
M  V30 5605 H 537.009 -0.920548 0.226487 0
M  V30 5606 H 536.715 -3.50783 0.253859 0
M  V30 5607 H 536.589 -3.46274 -1.49579 0
M  V30 5608 H 538.976 -2.47685 -1.60425 0
M  V30 5609 H 539.057 -2.55289 0.161669 0
M  V30 5610 H 538.701 -5.07878 0.0469464 0
M  V30 5611 H 538.631 -4.97369 -1.73009 0
M  V30 5612 H 541.122 -3.68141 -0.85327 0
M  V30 5613 H 541.435 -7.64493 -1.13007 0
M  V30 5614 H 539.78 -6.87427 -1.02318 0
M  V30 5615 H 542.971 -4.5784 -0.974687 0
M  V30 5616 H 543.144 -6.38576 -1.10113 0
M  V30 5617 N 536.55 0.480323 -1.50102 0
M  V30 5618 C 537.497 1.57946 -1.6829 0
M  V30 5619 C 538.467 1.57611 -0.524223 0
M  V30 5620 O 539.652 1.75282 -0.753709 0
M  V30 5621 C 536.792 2.95978 -1.77457 0
M  V30 5622 C 535.905 3.06173 -3.04766 0
M  V30 5623 C 535.04 4.35063 -3.04784 0
M  V30 5624 C 534.079 4.38966 -4.26586 0
M  V30 5625 N 533.216 5.59314 -4.24396 0
M  V30 5626 H 538.056 1.41743 -2.62131 0
M  V30 5627 H 535.593 0.689304 -1.2995 0
M  V30 5628 H 537.551 3.76011 -1.80752 0
M  V30 5629 H 536.181 3.10837 -0.870637 0
M  V30 5630 H 535.233 2.19071 -3.10986 0
M  V30 5631 H 536.545 3.04916 -3.9475 0
M  V30 5632 H 535.699 5.23436 -3.06757 0
M  V30 5633 H 534.438 4.38915 -2.12614 0
M  V30 5634 H 533.443 3.48992 -4.24835 0
M  V30 5635 H 534.668 4.36813 -5.19972 0
M  V30 5636 H 532.614 5.63969 -3.35074 0
M  V30 5637 H 532.531 5.5976 -5.08138 0
M  V30 5638 H 533.799 6.49837 -4.30502 0
M  V30 5639 N 538.028 1.39524 0.732853 0
M  V30 5640 C 538.938 1.40695 1.87729 0
M  V30 5641 C 539.954 0.301496 1.71368 0
M  V30 5642 O 541.13 0.543313 1.93933 0
M  V30 5643 C 538.195 1.25098 3.23344 0
M  V30 5644 C 537.256 2.45634 3.52083 0
M  V30 5645 C 536.489 2.30772 4.81228 0
M  V30 5646 O 536.712 1.31233 5.55098 0
M  V30 5647 O 535.646 3.19799 5.09914 0
M  V30 5648 H 539.472 2.37168 1.89697 0
M  V30 5649 H 537.057 1.20663 0.880959 0
M  V30 5650 H 538.939 1.18541 4.04383 0
M  V30 5651 H 537.614 0.317209 3.22142 0
M  V30 5652 H 536.521 2.57767 2.71122 0
M  V30 5653 H 537.854 3.37712 3.58066 0
M  V30 5654 N 539.506 -0.963266 1.24736 0
M  V30 5655 C 540.469 -2.04013 1.04457 0
M  V30 5656 C 541.469 -1.608 0.000335555 0
M  V30 5657 O 542.659 -1.72515 0.241719 0
M  V30 5658 C 539.791 -3.35858 0.584162 0
M  V30 5659 H 540.984 -2.23436 2.00041 0
M  V30 5660 H 538.537 -1.13914 1.07021 0
M  V30 5661 H 539.272 -3.22128 -0.374673 0
M  V30 5662 H 539.057 -3.68568 1.3379 0
M  V30 5663 H 540.547 -4.1502 0.463451 0
M  V30 5664 N 540.985 -1.06182 -1.16461 0
M  V30 5665 C 542.231 -0.779015 -1.87241 0
M  V30 5666 C 542.564 0.692715 -1.81425 0
M  V30 5667 O 541.839 1.5074 -1.22913 0
M  V30 5668 C 542.122 -1.2728 -3.36856 0
M  V30 5669 C 541.975 -2.80821 -3.51368 0
M  V30 5670 C 543.294 -0.879799 -4.31216 0
M  V30 5671 H 540.413 -0.284464 -0.679889 0
M  V30 5672 H 543.055 -1.31755 -1.36896 0
M  V30 5673 H 541.205 -0.814673 -3.79862 0
M  V30 5674 H 542.877 -3.34833 -3.17308 0
M  V30 5675 H 541.12 -3.19606 -2.93316 0
M  V30 5676 H 541.791 -3.10435 -4.56436 0
M  V30 5677 H 544.267 -1.27436 -3.96105 0
M  V30 5678 H 543.143 -1.25278 -5.34412 0
M  V30 5679 H 543.404 0.215372 -4.41575 0
M  V30 5680 N 542.463 1.3308 -0.844243 0
M  V30 5681 C 543.395 2.27954 -0.238671 0
M  V30 5682 C 544.408 1.51978 0.583665 0
M  V30 5683 O 545.597 1.73731 0.409857 0
M  V30 5684 C 542.697 3.31963 0.682185 0
M  V30 5685 C 541.87 4.37281 -0.101998 0
M  V30 5686 C 540.929 5.20928 0.743022 0
M  V30 5687 O 539.955 5.68914 0.180285 0
M  V30 5688 N 541.157 5.42738 2.0595 0
M  V30 5689 H 543.922 2.8056 -1.05386 0
M  V30 5690 H 541.483 1.4583 -0.70322 0
M  V30 5691 H 543.475 3.84828 1.25259 0
M  V30 5692 H 542.045 2.79594 1.39808 0
M  V30 5693 H 541.265 3.84843 -0.853802 0
M  V30 5694 H 542.553 5.04746 -0.641015 0
M  V30 5695 H 541.951 5.05463 2.54016 0
M  V30 5696 H 540.508 5.98639 2.57827 0
M  V30 5697 N 543.941 0.601185 1.45683 0
M  V30 5698 C 545.19 0.0914953 2.01492 0
M  V30 5699 C 545.503 -1.28331 1.47616 0
M  V30 5700 O 546.709 -1.88537 1.95362 0
M  V30 5701 C 545.165 0.11291 3.59723 0
M  V30 5702 C 544.773 1.48717 4.22596 0
M  V30 5703 C 546.517 -0.341871 4.23121 0
M  V30 5704 C 544.424 1.46531 5.7296 0
M  V30 5705 H 543.354 0.0304365 0.753385 0
M  V30 5706 H 546.005 0.755568 1.67223 0
M  V30 5707 H 544.387 -0.617692 3.91153 0
M  V30 5708 H 545.561 2.23897 4.02749 0
M  V30 5709 H 543.876 1.88351 3.71366 0
M  V30 5710 H 546.473 -0.377304 5.33367 0
M  V30 5711 H 546.816 -1.36325 3.93346 0
M  V30 5712 H 547.349 0.335256 3.96385 0
M  V30 5713 H 544.088 2.46408 6.07423 0
M  V30 5714 H 543.608 0.755997 5.95017 0
M  V30 5715 H 545.287 1.18618 6.36034 0
M  V30 5716 O 545.458 -1.54135 0.48216 0
M  V30 5717 H 546.149 -1.93658 -0.0403371 0
M  V30 END ATOM
M  V30 BEGIN BOND
M  V30 END BOND
M  V30 END CTAB
M  END
$$$$
