drugbank_target|O32248 Uncharacterized N-acetyltransferase YvbK (DB01992)
 OpenBabel12092120233D

  0  0  0     0  0            999 V3000
M  V30 BEGIN CTAB
M  V30 COUNTS 2492 2510 0 0 0
M  V30 BEGIN ATOM
M  V30 1 H -0.908 1.98254 -0.117106 0
M  V30 2 N 0 1.576 0 0
M  V30 3 C 0.933 2.03868 1.02534 0
M  V30 4 C 1.911 0.928543 1.3348 0
M  V30 5 O 3.095 1.19667 1.45644 0
M  V30 6 C 0.222 2.43627 2.35294 0
M  V30 7 C -0.732 3.65373 2.2001 0
M  V30 8 S 0.101 5.13292 1.52614 0
M  V30 9 C 1.257 5.56322 2.86805 0
M  V30 10 H 1.49 2.90518 0.631377 0
M  V30 11 H -0.977 1.52953 0.210867 0
M  V30 12 H 0.981 2.67203 3.11629 0
M  V30 13 H -0.358 1.57376 2.7183 0
M  V30 14 H -1.165 3.90944 3.18086 0
M  V30 15 H -1.563 3.418 1.51819 0
M  V30 16 H 0.729 5.58782 3.83104 0
M  V30 17 H 1.672 6.56266 2.65933 0
M  V30 18 H 2.08 4.83886 2.90714 0
M  V30 19 N 1.4781 -0.272755 1.55222 0
M  V30 20 C 2.4261 -1.35705 1.88909 0
M  V30 21 C 3.4201 -1.5112 0.765456 0
M  V30 22 O 4.6261 -1.52901 0.949802 0
M  V30 23 H 1.0011 -0.453868 0.59959 0
M  V30 24 H 2.9721 -1.04544 2.79487 0
M  V30 25 C 1.7211 -2.71049 2.17779 0
M  V30 26 H 1.0441 -2.59979 3.03728 0
M  V30 27 H 2.4841 -3.45858 2.45272 0
M  V30 28 C 0.9431 -3.22165 0.985473 0
M  V30 29 O 1.4731 -4.01096 0.220233 0
M  V30 30 N -0.3209 -2.7985 0.783108 0
M  V30 31 H -0.7739 -2.15775 1.40708 0
M  V30 32 H -0.8159 -3.14397 -0.0130392 0
M  V30 33 N 2.9562 -1.48159 -0.537278 0
M  V30 34 C 3.8892 -1.567 -1.65893 0
M  V30 35 C 4.8672 -0.41787 -1.57139 0
M  V30 36 O 6.0512 -0.628461 -1.77715 0
M  V30 37 C 3.1782 -1.48818 -3.04255 0
M  V30 38 C 2.2242 -2.68482 -3.31391 0
M  V30 39 S 3.0572 -4.30516 -3.1846 0
M  V30 40 C 4.2132 -4.2522 -4.59281 0
M  V30 41 H 4.4462 -2.5159 -1.58397 0
M  V30 42 H 1.9792 -1.36602 -0.719672 0
M  V30 43 H 3.9372 -1.44958 -3.84054 0
M  V30 44 H 2.5982 -0.552777 -3.09198 0
M  V30 45 H 1.7912 -2.59085 -4.32309 0
M  V30 46 H 1.3932 -2.69567 -2.59248 0
M  V30 47 H 3.6852 -3.94703 -5.5065 0
M  V30 48 H 4.6282 -5.26292 -4.73732 0
M  V30 49 H 5.0362 -3.55791 -4.38261 0
M  V30 50 N 4.4343 0.785586 -1.36625 0
M  V30 51 C 5.3663 1.90711 -1.2713 0
M  V30 52 C 6.3793 1.61688 -0.189986 0
M  V30 53 O 7.5683 1.72864 -0.445014 0
M  V30 54 C 4.6683 3.25611 -0.939713 0
M  V30 55 C 3.8413 3.82385 -2.12369 0
M  V30 56 C 2.9003 4.95732 -1.76456 0
M  V30 57 O 1.9263 5.12047 -2.48589 0
M  V30 58 N 3.1283 5.76258 -0.700492 0
M  V30 59 H 5.8933 1.99376 -2.23762 0
M  V30 60 H 3.4543 0.964041 -1.30069 0
M  V30 61 H 5.4463 3.98937 -0.680554 0
M  V30 62 H 4.0163 3.12538 -0.0624074 0
M  V30 63 H 3.2363 3.01001 -2.54543 0
M  V30 64 H 4.5243 4.17047 -2.9146 0
M  V30 65 H 3.9223 5.65609 -0.101624 0
M  V30 66 H 2.4793 6.4987 -0.501165 0
M  V30 67 N 5.9124 1.20967 1.01018 0
M  V30 68 C 6.8594 0.964281 2.09691 0
M  V30 69 C 7.8294 -0.107853 1.65749 0
M  V30 70 O 9.0144 0.0381987 1.90762 0
M  V30 71 C 6.1544 0.52943 3.41015 0
M  V30 72 C 5.2674 1.67043 3.98398 0
M  V30 73 C 4.4024 1.18525 5.17808 0
M  V30 74 C 3.4414 2.29892 5.67288 0
M  V30 75 N 2.5784 1.82546 6.77954 0
M  V30 76 H 7.4184 1.89463 2.30017 0
M  V30 77 H 4.9554 0.944289 1.1279 0
M  V30 78 H 6.9134 0.258588 4.16398 0
M  V30 79 H 5.5434 -0.363919 3.20742 0
M  V30 80 H 4.5954 2.05603 3.20049 0
M  V30 81 H 5.9074 2.50877 4.31117 0
M  V30 82 H 5.0614 0.870762 6.00419 0
M  V30 83 H 3.8004 0.316887 4.86669 0
M  V30 84 H 2.8054 2.6215 4.83278 0
M  V30 85 H 4.0304 3.17216 6.00459 0
M  V30 86 H 1.9764 0.980454 6.48632 0
M  V30 87 H 1.8934 2.59956 7.09901 0
M  V30 88 H 3.1614 1.54115 7.64113 0
M  V30 89 N 7.3905 -1.2043 1.01659 0
M  V30 90 C 8.3205 -2.25466 0.607226 0
M  V30 91 C 9.3015 -1.65853 -0.377716 0
M  V30 92 O 10.4865 -1.92409 -0.263149 0
M  V30 93 C 7.6165 -3.47256 -0.0552949 0
M  V30 94 C 6.5705 -4.19462 0.850632 0
M  V30 95 C 5.8965 -5.34673 0.0538859 0
M  V30 96 C 7.1965 -4.75603 2.15868 0
M  V30 97 H 8.8905 -2.59962 1.48526 0
M  V30 98 H 6.4365 -1.2496 0.715605 0
M  V30 99 H 8.3895 -4.19917 -0.353233 0
M  V30 100 H 7.1135 -3.11924 -0.968045 0
M  V30 101 H 5.7725 -3.48667 1.13257 0
M  V30 102 H 5.4205 -4.95585 -0.860514 0
M  V30 103 H 5.1205 -5.83913 0.657192 0
M  V30 104 H 6.6445 -6.10138 -0.237598 0
M  V30 105 H 8.0585 -5.40083 1.92311 0
M  V30 106 H 6.4555 -5.3528 2.71284 0
M  V30 107 H 7.5255 -3.94346 2.82169 0
M  V30 108 N 8.8686 -0.792821 -1.36206 0
M  V30 109 C 10.2846 -0.474903 -1.52371 0
M  V30 110 C 10.4846 1.00622 -1.74578 0
M  V30 111 O 9.5406 1.79162 -1.77924 0
M  V30 112 C 10.8536 -1.3083 -2.70747 0
M  V30 113 C 12.4016 -1.30234 -2.84619 0
M  V30 114 C 12.8766 -2.11956 -4.06004 0
M  V30 115 N 14.3676 -2.09419 -4.13156 0
M  V30 116 C 15.1026 -2.69419 -5.06163 0
M  V30 117 N 14.5986 -3.3829 -6.04592 0
M  V30 118 N 16.3916 -2.59134 -4.98804 0
M  V30 119 H 8.5426 -1.75222 -1.20046 0
M  V30 120 H 10.8056 -0.745024 -0.586211 0
M  V30 121 H 10.5116 -2.35881 -2.6087 0
M  V30 122 H 10.3856 -0.95196 -3.6499 0
M  V30 123 H 12.7726 -0.259748 -2.93955 0
M  V30 124 H 12.8536 -1.69847 -1.91274 0
M  V30 125 H 12.4976 -3.16248 -3.97429 0
M  V30 126 H 12.4276 -1.69711 -4.98503 0
M  V30 127 H 14.9186 -1.59297 -3.42685 0
M  V30 128 H 15.2316 -3.81394 -6.7213 0
M  V30 129 H 13.5766 -3.42393 -6.04807 0
M  V30 130 H 16.7676 -2.04927 -4.20859 0
M  V30 131 H 16.9406 -3.06185 -5.711 0
M  V30 132 N 10.3467 1.47872 -0.545128 0
M  V30 133 C 11.5957 2.01695 -0.0145033 0
M  V30 134 C 11.9087 1.42609 1.33873 0
M  V30 135 O 13.1147 1.88021 1.95858 0
M  V30 136 C 11.5707 3.59892 0.0245068 0
M  V30 137 C 11.1787 4.27966 -1.32475 0
M  V30 138 C 12.9227 4.21507 0.50316 0
M  V30 139 C 10.8297 5.78136 -1.2455 0
M  V30 140 H 9.7597 0.753998 -0.00165172 0
M  V30 141 H 12.4107 1.69985 -0.691175 0
M  V30 142 H 10.7927 3.88509 0.766575 0
M  V30 143 H 11.9667 4.11003 -2.08357 0
M  V30 144 H 10.2817 3.78286 -1.74036 0
M  V30 145 H 12.8787 5.31538 0.580656 0
M  V30 146 H 13.2217 3.87855 1.51243 0
M  V30 147 H 13.7547 3.97376 -0.183681 0
M  V30 148 H 10.4937 6.16388 -2.23039 0
M  V30 149 H 10.0137 5.97469 -0.528282 0
M  V30 150 H 11.6927 6.40099 -0.942488 0
M  V30 151 N 11.8248 0.280983 1.55075 0
M  V30 152 C 12.7348 -0.61388 2.26426 0
M  V30 153 C 13.7508 -1.16521 1.29224 0
M  V30 154 O 14.9268 -1.19426 1.62171 0
M  V30 155 C 11.9918 -1.7788 2.9759 0
M  V30 156 C 11.0528 -1.26355 4.10284 0
M  V30 157 C 10.2858 -2.37295 4.78045 0
M  V30 158 O 10.5088 -3.56777 4.45047 0
M  V30 159 O 9.4428 -2.05119 5.65871 0
M  V30 160 H 13.2688 -0.0356932 3.03679 0
M  V30 161 H 10.8538 0.0481686 1.49322 0
M  V30 162 H 12.7358 -2.45791 3.42293 0
M  V30 163 H 11.4108 -2.34397 2.23249 0
M  V30 164 H 10.3178 -0.550735 3.70024 0
M  V30 165 H 11.6508 -0.744065 4.86543 0
M  V30 166 N 13.3029 -1.57598 0.00835791 0
M  V30 167 C 14.2329 -2.1198 -0.979113 0
M  V30 168 C 15.2139 -1.03091 -1.35301 0
M  V30 169 O 16.3989 -1.30818 -1.43528 0
M  V30 170 C 13.5289 -2.62995 -2.26828 0
M  V30 171 C 12.4829 -3.76485 -2.03576 0
M  V30 172 C 11.8089 -4.13846 -3.38579 0
M  V30 173 C 13.1089 -5.0342 -1.39161 0
M  V30 174 H 14.8029 -2.94738 -0.526281 0
M  V30 175 H 12.3489 -1.41783 -0.251704 0
M  V30 176 H 14.3019 -2.99669 -2.96271 0
M  V30 177 H 13.0259 -1.7737 -2.7424 0
M  V30 178 H 11.6849 -3.40217 -1.36557 0
M  V30 179 H 11.3329 -3.25232 -3.83709 0
M  V30 180 H 11.0329 -4.90312 -3.23834 0
M  V30 181 H 12.5569 -4.53086 -4.09323 0
M  V30 182 H 13.9709 -5.37812 -1.98573 0
M  V30 183 H 12.3679 -5.84746 -1.34878 0
M  V30 184 H 13.4379 -4.83548 -0.361868 0
M  V30 185 N 14.781 0.264519 -1.55364 0
M  V30 186 C 16.029 0.993021 -1.76021 0
M  V30 187 C 16.35 1.86511 -0.569099 0
M  V30 188 O 15.62 1.91438 0.415735 0
M  V30 189 H 14.2 0.369639 -0.649135 0
M  V30 190 H 16.862 0.286707 -1.9278 0
M  V30 191 H 15.958 1.62502 -2.66457 0
M  V30 192 N 16.2591 1.48442 0.529413 0
M  V30 193 C 17.1691 1.6569 1.66084 0
M  V30 194 C 18.1851 0.539432 1.65427 0
M  V30 195 O 19.3611 0.810572 1.84368 0
M  V30 196 C 16.4261 1.69315 3.02545 0
M  V30 197 C 15.4871 2.92694 3.14052 0
M  V30 198 C 14.7201 2.96137 4.44003 0
M  V30 199 O 14.9431 2.07973 5.31134 0
M  V30 200 O 13.8771 3.88312 4.59888 0
M  V30 201 H 17.7031 2.61483 1.54469 0
M  V30 202 H 15.2881 1.3185 0.702567 0
M  V30 203 H 17.1701 1.74217 3.83701 0
M  V30 204 H 15.8451 0.766966 3.14483 0
M  V30 205 H 14.7521 2.93324 2.32189 0
M  V30 206 H 16.0851 3.84699 3.0703 0
M  V30 207 N 17.7372 -0.778329 1.37039 0
M  V30 208 C 18.6472 -1.92253 1.34446 0
M  V30 209 C 19.6632 -1.72267 0.244991 0
M  V30 210 O 20.8392 -1.95615 0.479258 0
M  V30 211 C 17.9042 -3.27282 1.144 0
M  V30 212 C 16.9652 -3.59969 2.33925 0
M  V30 213 C 16.1982 -4.88555 2.14825 0
M  V30 214 O 16.4212 -5.59113 1.12912 0
M  V30 215 O 15.3552 -5.20153 3.02861 0
M  V30 216 H 19.1812 -1.97392 2.30803 0
M  V30 217 H 16.7662 -0.920154 1.17701 0
M  V30 218 H 18.6482 -4.08062 1.05182 0
M  V30 219 H 17.3232 -3.23011 0.211124 0
M  V30 220 H 16.2302 -2.7945 2.48714 0
M  V30 221 H 17.5632 -3.68976 3.25757 0
M  V30 222 N 19.2153 -1.21501 -1.00376 0
M  V30 223 C 20.4433 -1.059 -1.77744 0
M  V30 224 C 20.8583 0.391125 -1.84704 0
M  V30 225 O 20.2153 1.27133 -1.30933 0
M  V30 226 C 20.2663 -1.65111 -3.21591 0
M  V30 227 O 19.9873 -3.0445 -3.15027 0
M  V30 228 C 21.4883 -1.54637 -4.15454 0
M  V30 229 H 18.7083 -0.371825 -0.558558 0
M  V30 230 H 21.2523 -1.60865 -1.26264 0
M  V30 231 H 19.4073 -1.14235 -3.70175 0
M  V30 232 H 19.8213 -3.3278 -4.0541 0
M  V30 233 H 21.2953 -2.00808 -5.14179 0
M  V30 234 H 21.7723 -0.501022 -4.36333 0
M  V30 235 H 22.3783 -2.04767 -3.72761 0
M  V30 236 N 20.6934 1.19889 -1.02296 0
M  V30 237 C 21.6414 2.24938 -0.592081 0
M  V30 238 C 22.6354 1.65257 0.372357 0
M  V30 239 O 23.8414 1.78371 0.241583 0
M  V30 240 H 20.2164 0.731787 -0.173182 0
M  V30 241 H 22.1874 2.58603 -1.48885 0
M  V30 242 C 20.9364 3.47668 0.047351 0
M  V30 243 H 20.2594 3.93875 -0.685772 0
M  V30 244 H 21.6994 4.22852 0.311862 0
M  V30 245 C 20.1584 3.11136 1.29212 0
M  V30 246 O 20.6884 3.2325 2.38479 0
M  V30 247 N 18.8944 2.65625 1.17863 0
M  V30 248 H 18.4414 2.55968 0.289493 0
M  V30 249 H 18.3994 2.41553 2.01245 0
M  V30 250 N 22.1715 0.800033 1.35784 0
M  V30 251 C 23.4485 0.30088 1.93272 0
M  V30 252 C 23.8285 -1.20857 1.73081 0
M  V30 253 O 23.1765 -2.00502 1.09596 0
M  V30 254 C 23.3865 0.70511 3.41803 0
M  V30 255 C 24.7345 0.690871 4.18942 0
M  V30 256 O 25.7585 0.646244 3.50289 0
M  V30 257 O 24.6175 0.74332 5.41421 0
M  V30 258 H 21.7115 0.0771605 0.823393 0
M  V30 259 H 24.2575 0.88329 1.449 0
M  V30 260 H 23.0295 1.74571 3.50201 0
M  V30 261 H 22.6525 0.0971541 3.97481 0
M  V30 262 N 23.6496 -1.47581 0.552962 0
M  V30 263 C 24.5596 -2.33743 -0.200353 0
M  V30 264 C 25.5756 -1.47928 -0.916151 0
M  V30 265 O 26.7516 -1.80865 -0.885993 0
M  V30 266 C 23.8166 -3.24536 -1.21973 0
M  V30 267 C 22.8776 -4.26238 -0.511819 0
M  V30 268 C 22.1106 -5.12693 -1.48263 0
M  V30 269 O 22.3336 -5.01525 -2.71714 0
M  V30 270 O 21.2676 -5.93375 -1.00945 0
M  V30 271 H 25.0936 -2.9945 0.506304 0
M  V30 272 H 22.6786 -1.46071 0.313622 0
M  V30 273 H 24.5606 -3.80631 -1.80827 0
M  V30 274 H 23.2356 -2.61462 -1.90839 0
M  V30 275 H 22.1426 -3.73914 0.117799 0
M  V30 276 H 23.4756 -4.92014 0.135308 0
M  V30 277 N 25.1277 -0.289203 -1.54924 0
M  V30 278 C 26.0577 0.58549 -2.2604 0
M  V30 279 C 27.0387 1.14753 -1.25562 0
M  V30 280 O 28.2237 1.17906 -1.54311 0
M  V30 281 C 25.3537 1.76305 -2.99222 0
M  V30 282 C 24.3077 1.33191 -4.06748 0
M  V30 283 C 23.6337 2.5937 -4.6758 0
M  V30 284 C 24.9337 0.471775 -5.20165 0
M  V30 285 H 26.6277 -0.00763532 -2.99399 0
M  V30 286 H 24.1737 -0.00511229 -1.43999 0
M  V30 287 H 26.1267 2.38097 -3.47689 0
M  V30 288 H 24.8507 2.38223 -2.23422 0
M  V30 289 H 23.5097 0.737121 -3.59113 0
M  V30 290 H 23.1577 3.19576 -3.88433 0
M  V30 291 H 22.8577 2.31228 -5.40192 0
M  V30 292 H 24.3817 3.21985 -5.18804 0
M  V30 293 H 25.7957 0.995056 -5.64599 0
M  V30 294 H 24.1927 0.284639 -5.99425 0
M  V30 295 H 25.2627 -0.506041 -4.82252 0
M  V30 296 N 26.6058 1.57591 -0.0167156 0
M  V30 297 C 27.8358 1.95292 0.674149 0
M  V30 298 C 28.2438 0.891097 1.66901 0
M  V30 299 O 27.5868 -0.136908 1.83189 0
M  V30 300 C 27.6488 3.29072 1.44747 0
M  V30 301 C 27.3128 4.52879 0.612331 0
M  V30 302 C 28.3098 5.1979 -0.107126 0
M  V30 303 C 25.9948 4.99242 0.553381 0
M  V30 304 C 27.9888 6.31375 -0.874339 0
M  V30 305 C 25.6758 6.10713 -0.217546 0
M  V30 306 C 26.6738 6.76637 -0.930123 0
M  V30 307 O 26.3618 7.85969 -1.68844 0
M  V30 308 H 26.0938 0.648275 0.191615 0
M  V30 309 H 28.6478 2.05284 -0.0690148 0
M  V30 310 H 26.8778 3.15535 2.2355 0
M  V30 311 H 28.5668 3.51764 2.02526 0
M  V30 312 H 29.3328 4.84948 -0.0708392 0
M  V30 313 H 25.2118 4.47744 1.09757 0
M  V30 314 H 28.7558 6.82764 -1.43106 0
M  V30 315 H 24.6528 6.44994 -0.255593 0
M  V30 316 H 25.4208 8.02571 -1.6069 0
M  V30 317 N 28.0839 -0.256276 1.55502 0
M  V30 318 C 29.3609 -1.00789 1.67633 0
M  V30 319 C 29.7409 -2.03706 0.553826 0
M  V30 320 O 29.0889 -2.24145 -0.443969 0
M  V30 321 C 29.2989 -1.64968 3.07549 0
M  V30 322 C 30.6469 -2.15505 3.65845 0
M  V30 323 O 31.6709 -1.74925 3.1029 0
M  V30 324 O 30.5299 -2.89986 4.63217 0
M  V30 325 H 27.6239 -0.468553 0.681459 0
M  V30 326 H 30.1699 -0.250806 1.67836 0
M  V30 327 H 28.9419 -0.904785 3.80696 0
M  V30 328 H 28.5649 -2.47321 3.11317 0
M  V30 329 N 29.562 -1.4872 -0.521534 0
M  V30 330 C 30.492 -1.66771 -1.63431 0
M  V30 331 C 31.473 -0.516499 -1.62069 0
M  V30 332 O 32.658 -0.750013 -1.79132 0
M  V30 333 C 29.788 -1.71515 -3.01993 0
M  V30 334 C 28.742 -2.86222 -3.18216 0
M  V30 335 C 28.068 -2.76061 -4.57924 0
M  V30 336 C 29.368 -4.27419 -3.00184 0
M  V30 337 H 31.062 -2.59932 -1.48579 0
M  V30 338 H 28.608 -1.25089 -0.713358 0
M  V30 339 H 30.561 -1.82731 -3.7972 0
M  V30 340 H 29.285 -0.749393 -3.17886 0
M  V30 341 H 27.944 -2.74575 -2.42908 0
M  V30 342 H 27.592 -1.77437 -4.70665 0
M  V30 343 H 27.292 -3.53037 -4.69722 0
M  V30 344 H 28.816 -2.89256 -5.37739 0
M  V30 345 H 30.23 -4.39855 -3.67697 0
M  V30 346 H 28.627 -5.05458 -3.2347 0
M  V30 347 H 29.697 -4.43293 -1.96518 0
M  V30 348 N 31.0401 0.771051 -1.3745 0
M  V30 349 C 31.9701 1.89827 -1.3597 0
M  V30 350 C 32.9511 1.68562 -0.228216 0
M  V30 351 O 34.1361 1.8941 -0.428675 0
M  V30 352 C 31.2661 3.2712 -1.16662 0
M  V30 353 C 30.2201 3.6295 -2.2683 0
M  V30 354 C 29.5461 4.98791 -1.92644 0
M  V30 355 C 30.8461 3.69627 -3.69017 0
M  V30 356 H 32.5401 1.91323 -2.30295 0
M  V30 357 H 30.0861 0.919082 -1.10855 0
M  V30 358 H 32.0391 4.05615 -1.14256 0
M  V30 359 H 30.7631 3.26059 -0.187926 0
M  V30 360 H 29.4221 2.86763 -2.28392 0
M  V30 361 H 29.0701 4.94271 -0.933021 0
M  V30 362 H 28.7701 5.23733 -2.66416 0
M  V30 363 H 30.2941 5.79685 -1.91826 0
M  V30 364 H 31.7081 4.38273 -3.69581 0
M  V30 365 H 30.1051 4.06067 -4.41848 0
M  V30 366 H 31.1751 2.70273 -4.02592 0
M  V30 367 N 32.5182 1.22032 0.997298 0
M  V30 368 C 33.4482 1.01065 2.10495 0
M  V30 369 C 34.4292 -0.0669542 1.69968 0
M  V30 370 O 35.6142 0.0943987 1.9397 0
M  V30 371 C 32.7442 0.582874 3.42374 0
M  V30 372 C 31.6982 1.60592 3.96729 0
M  V30 373 C 31.0242 1.03412 5.24605 0
M  V30 374 C 32.3242 2.99478 4.27914 0
M  V30 375 H 34.0182 1.93708 2.28292 0
M  V30 376 H 31.5642 0.932761 1.09707 0
M  V30 377 H 33.5172 0.423332 4.19268 0
M  V30 378 H 32.2412 -0.379213 3.24391 0
M  V30 379 H 30.9002 1.75316 3.21963 0
M  V30 380 H 30.5482 0.063518 5.0296 0
M  V30 381 H 30.2482 1.71754 5.61938 0
M  V30 382 H 31.7722 0.886066 6.04137 0
M  V30 383 H 33.1862 2.88153 4.95622 0
M  V30 384 H 31.5832 3.64903 4.76409 0
M  V30 385 H 32.6532 3.49742 3.3587 0
M  V30 386 N 33.9963 -1.19345 1.0293 0
M  V30 387 C 34.9263 -2.2481 0.631105 0
M  V30 388 C 35.9073 -1.66245 -0.360104 0
M  V30 389 O 37.0923 -1.92677 -0.242726 0
M  V30 390 C 34.2223 -3.47295 -0.0184607 0
M  V30 391 C 33.1763 -4.18536 0.895073 0
M  V30 392 C 32.5023 -5.34586 0.110592 0
M  V30 393 C 33.8023 -4.73287 2.209 0
M  V30 394 H 35.4963 -2.58372 1.51275 0
M  V30 395 H 33.0423 -1.24194 0.728818 0
M  V30 396 H 34.9953 -4.20268 -0.308675 0
M  V30 397 H 33.7193 -3.12933 -0.934907 0
M  V30 398 H 32.3783 -3.47446 1.16949 0
M  V30 399 H 32.0263 -4.96469 -0.807902 0
M  V30 400 H 31.7263 -5.83183 0.719087 0
M  V30 401 H 33.2503 -6.10355 -0.172871 0
M  V30 402 H 34.6643 -5.38013 1.98028 0
M  V30 403 H 33.0613 -5.32373 2.76946 0
M  V30 404 H 34.1313 -3.91331 2.86336 0
M  V30 405 N 35.4744 -0.807222 -1.35358 0
M  V30 406 C 36.4374 -0.223665 -2.28106 0
M  V30 407 C 37.4374 0.589354 -1.4961 0
M  V30 408 O 38.6274 0.407745 -1.69361 0
M  V30 409 C 35.7594 0.688149 -3.33882 0
M  V30 410 H 36.9524 -1.04169 -2.81227 0
M  V30 411 H 34.5054 -0.577921 -1.45223 0
M  V30 412 H 35.2404 1.52984 -2.85948 0
M  V30 413 H 35.0254 0.10687 -3.91954 0
M  V30 414 H 36.5154 1.09075 -4.03104 0
M  V30 415 N 36.9525 1.47285 -0.560781 0
M  V30 416 C 38.2295 1.9558 0.0277798 0
M  V30 417 C 38.6095 1.5034 1.48192 0
M  V30 418 O 37.9575 0.743882 2.16052 0
M  V30 419 C 38.1675 3.48789 -0.121418 0
M  V30 420 C 39.5155 4.24594 0.0220912 0
M  V30 421 O 40.5395 3.56166 -0.0491439 0
M  V30 422 O 39.3985 5.46217 0.175958 0
M  V30 423 H 36.4925 0.824663 0.0621342 0
M  V30 424 H 39.0385 1.5767 -0.627556 0
M  V30 425 H 37.8105 3.74533 -1.13316 0
M  V30 426 H 37.4335 3.93473 0.571366 0
M  V30 427 N 38.4306 0.297415 1.54768 0
M  V30 428 C 39.8416 -0.195947 1.85669 0
M  V30 429 C 40.1926 -1.53707 1.21937 0
M  V30 430 O 39.3176 -2.10164 0.515754 0
M  V30 431 C 39.9126 -0.362318 3.36857 0
M  V30 432 C 38.4716 -0.799901 3.67802 0
M  V30 433 C 37.6186 0.0938578 2.77141 0
M  V30 434 H 40.5696 0.518538 1.4999 0
M  V30 435 H 40.5906 -1.19745 3.61167 0
M  V30 436 H 40.1026 0.613921 3.83214 0
M  V30 437 H 38.2036 -1.78682 3.26961 0
M  V30 438 H 38.3166 -0.621773 4.75048 0
M  V30 439 H 36.6806 -0.426254 2.51108 0
M  V30 440 H 37.4636 1.06639 3.26318 0
M  V30 441 N 39.9087 -1.5758 0.0250728 0
M  V30 442 C 41.1337 -1.96337 -0.668317 0
M  V30 443 C 41.5587 -0.901314 -1.651 0
M  V30 444 O 40.9167 0.138187 -1.80773 0
M  V30 445 C 40.9647 -3.34191 -1.35457 0
M  V30 446 O 40.0687 -3.30269 -2.46974 0
M  V30 447 H 39.4097 -0.640281 -0.175887 0
M  V30 448 H 41.9397 -2.0442 0.0857224 0
M  V30 449 H 41.9497 -3.70331 -1.71228 0
M  V30 450 H 40.6247 -4.11036 -0.634218 0
M  V30 451 H 39.2017 -3.05841 -2.13344 0
M  V30 452 N 41.3868 0.248026 -1.55636 0
M  V30 453 C 42.3338 1.30707 -1.90222 0
M  V30 454 C 43.3038 1.47881 -0.756332 0
M  V30 455 O 44.4888 1.61883 -1.00988 0
M  V30 456 C 41.6288 2.65769 -2.20138 0
M  V30 457 C 40.7418 2.56612 -3.47526 0
M  V30 458 C 39.8768 3.8402 -3.67017 0
M  V30 459 C 38.9158 3.69476 -4.8801 0
M  V30 460 N 38.0528 4.88774 -5.04029 0
M  V30 461 H 42.8928 1.00512 -2.80538 0
M  V30 462 H 40.4298 0.485055 -1.38873 0
M  V30 463 H 42.3878 3.44386 -2.35487 0
M  V30 464 H 41.0178 2.94115 -1.33027 0
M  V30 465 H 40.0698 1.69571 -3.40514 0
M  V30 466 H 41.3818 2.41774 -4.36287 0
M  V30 467 H 40.5358 4.7108 -3.8232 0
M  V30 468 H 39.2748 4.01754 -2.76487 0
M  V30 469 H 38.2798 2.80799 -4.72686 0
M  V30 470 H 39.5048 3.53238 -5.8 0
M  V30 471 H 37.4508 5.0687 -4.16435 0
M  V30 472 H 37.3678 4.76562 -5.86877 0
M  V30 473 H 38.6358 5.77335 -5.23741 0
M  V30 474 N 42.8649 1.48995 0.513639 0
M  V30 475 C 44.1419 1.48338 1.27495 0
M  V30 476 C 44.5219 0.204065 2.10111 0
M  V30 477 O 43.8699 -0.813881 2.13514 0
M  V30 478 C 44.0799 2.75498 2.14247 0
M  V30 479 C 45.4279 3.24484 2.73852 0
M  V30 480 O 46.4519 2.76528 2.24523 0
M  V30 481 O 45.3109 4.07974 3.6362 0
M  V30 482 H 42.4049 0.593149 0.576284 0
M  V30 483 H 44.9509 1.61246 0.528948 0
M  V30 484 H 43.7229 3.60109 1.53092 0
M  V30 485 H 43.3459 2.6539 2.96064 0
M  V30 486 N 44.343 -0.763751 1.37857 0
M  V30 487 C 45.592 -1.51789 1.32827 0
M  V30 488 C 45.905 -1.95426 -0.0823719 0
M  V30 489 O 47.111 -2.70298 -0.255172 0
M  V30 490 C 45.567 -2.74133 2.33193 0
M  V30 491 C 45.175 -2.37562 3.79827 0
M  V30 492 C 46.919 -3.52054 2.37188 0
M  V30 493 C 44.826 -3.56456 4.71904 0
M  V30 494 H 43.756 -0.569896 0.493695 0
M  V30 495 H 46.407 -0.835822 1.63359 0
M  V30 496 H 44.789 -3.4427 1.9569 0
M  V30 497 H 45.963 -1.75157 4.26212 0
M  V30 498 H 44.278 -1.72798 3.78853 0
M  V30 499 H 46.875 -4.40437 3.03182 0
M  V30 500 H 47.218 -3.92486 1.38782 0
M  V30 501 H 47.751 -2.88921 2.7344 0
M  V30 502 H 44.49 -3.21099 5.71468 0
M  V30 503 H 44.01 -4.17938 4.30218 0
M  V30 504 H 45.689 -4.23168 4.89426 0
M  V30 505 N 45.8211 -1.22559 -0.990812 0
M  V30 506 C 47.0671 -1.05297 -1.73322 0
M  V30 507 C 47.4001 0.410655 -1.89808 0
M  V30 508 O 46.6751 1.30439 -1.44277 0
M  V30 509 C 46.9581 -1.76713 -3.13759 0
M  V30 510 C 46.8111 -3.30684 -3.04907 0
M  V30 511 C 48.1301 -1.52121 -4.12974 0
M  V30 512 H 45.2491 -0.38392 -0.629106 0
M  V30 513 H 47.8911 -1.50926 -1.15418 0
M  V30 514 H 46.0411 -1.37924 -3.63193 0
M  V30 515 H 47.7131 -3.7893 -2.63077 0
M  V30 516 H 45.9561 -3.60253 -2.41661 0
M  V30 517 H 46.6271 -3.75833 -4.04294 0
M  V30 518 H 49.1031 -1.85819 -3.72304 0
M  V30 519 H 47.9791 -2.04582 -5.0935 0
M  V30 520 H 48.2401 -0.454257 -4.3976 0
M  V30 521 N 47.2992 1.18797 -1.03562 0
M  V30 522 C 48.5762 1.84469 -0.650434 0
M  V30 523 C 48.9562 1.92319 0.870433 0
M  V30 524 O 48.3042 1.44528 1.76986 0
M  V30 525 C 48.5142 3.2306 -1.32036 0
M  V30 526 C 49.8622 3.9915 -1.44792 0
M  V30 527 O 50.8862 3.32481 -1.27806 0
M  V30 528 O 49.7452 5.18587 -1.72423 0
M  V30 529 H 46.8392 0.795251 -0.226946 0
M  V30 530 H 49.3852 1.26231 -1.13419 0
M  V30 531 H 48.1572 3.1222 -2.3587 0
M  V30 532 H 47.7802 3.88949 -0.8249 0
M  V30 533 N 48.7773 0.814389 1.34928 0
M  V30 534 C 49.6873 0.231978 2.3345 0
M  V30 535 C 50.7033 -0.629139 1.62228 0
M  V30 536 O 51.8793 -0.539052 1.94052 0
M  V30 537 C 48.9443 -0.603482 3.41407 0
M  V30 538 C 48.0053 0.279037 4.28392 0
M  V30 539 C 47.2383 -0.516643 5.31193 0
M  V30 540 O 47.4613 -1.75068 5.4287 0
M  V30 541 O 46.3953 0.0965652 6.01823 0
M  V30 542 H 50.2213 1.04721 2.85074 0
M  V30 543 H 47.8063 0.576343 1.37836 0
M  V30 544 H 49.6883 -1.07908 4.0735 0
M  V30 545 H 48.3633 -1.39618 2.92042 0
M  V30 546 H 47.2703 0.801948 3.65403 0
M  V30 547 H 48.6033 1.03588 4.81176 0
M  V30 548 N 50.2554 -1.46986 0.568584 0
M  V30 549 C 51.4854 -2.0653 0.0539173 0
M  V30 550 C 51.8934 -1.42004 -1.25026 0
M  V30 551 O 51.2364 -0.514541 -1.76347 0
M  V30 552 C 51.2984 -3.58938 -0.200854 0
M  V30 553 C 50.9624 -4.45572 1.01559 0
M  V30 554 C 51.9594 -4.82986 1.92407 0
M  V30 555 C 49.6444 -4.8692 1.23346 0
M  V30 556 C 51.6384 -5.60559 3.03402 0
M  V30 557 C 49.3254 -5.64255 2.34649 0
M  V30 558 C 50.3234 -6.00986 3.24507 0
M  V30 559 O 50.0114 -6.76761 4.33878 0
M  V30 560 H 49.7434 -0.674292 0.0480234 0
M  V30 561 H 52.2974 -1.89812 0.784896 0
M  V30 562 H 50.5274 -3.73911 -0.986279 0
M  V30 563 H 52.2164 -4.0046 -0.662294 0
M  V30 564 H 52.9824 -4.51633 1.76785 0
M  V30 565 H 48.8614 -4.57789 0.543178 0
M  V30 566 H 52.4054 -5.89147 3.73565 0
M  V30 567 H 48.3024 -5.95021 2.5024 0
M  V30 568 H 49.0704 -6.95168 4.32068 0
M  V30 569 N 51.7335 -0.305618 -1.54608 0
M  V30 570 C 52.6635 0.561482 -2.26649 0
M  V30 571 C 53.6445 1.13415 -1.26772 0
M  V30 572 O 54.8295 1.16262 -1.55553 0
M  V30 573 C 51.9595 1.73122 -3.01075 0
M  V30 574 C 50.9135 1.2887 -4.08138 0
M  V30 575 C 50.2395 2.54396 -4.70305 0
M  V30 576 C 51.5395 0.416578 -5.20636 0
M  V30 577 H 53.2335 -0.0393902 -2.99374 0
M  V30 578 H 50.7795 -0.020385 -1.43986 0
M  V30 579 H 52.7325 2.34396 -3.50195 0
M  V30 580 H 51.4565 2.3584 -2.25936 0
M  V30 581 H 50.1155 0.698991 -3.59875 0
M  V30 582 H 49.7635 3.15439 -3.918 0
M  V30 583 H 49.4635 2.25486 -5.42614 0
M  V30 584 H 50.9875 3.16464 -5.2219 0
M  V30 585 H 52.4015 0.935116 -5.65622 0
M  V30 586 H 50.7985 0.221046 -5.99693 0
M  V30 587 H 51.8685 -0.557162 -4.81688 0
M  V30 588 N 53.2116 1.57565 -0.0334293 0
M  V30 589 C 54.1216 2.13943 0.962572 0
M  V30 590 C 55.1376 1.09276 1.35406 0
M  V30 591 O 56.3136 1.41355 1.4346 0
M  V30 592 C 53.3786 2.65887 2.22497 0
M  V30 593 C 52.4396 3.85286 1.8935 0
M  V30 594 C 51.6726 4.34743 3.09571 0
M  V30 595 O 51.8956 3.83352 4.22371 0
M  V30 596 O 50.8296 5.26538 2.91618 0
M  V30 597 H 54.6556 2.99333 0.513169 0
M  V30 598 H 52.2406 1.4822 0.18743 0
M  V30 599 H 54.1226 2.99346 2.96598 0
M  V30 600 H 52.7976 1.83578 2.6661 0
M  V30 601 H 51.7046 3.56746 1.1262 0
M  V30 602 H 53.0376 4.68771 1.5005 0
M  V30 603 N 54.6897 -0.239769 1.55765 0
M  V30 604 C 56.1057 -0.588624 1.48349 0
M  V30 605 C 56.3057 -1.88005 0.72502 0
M  V30 606 O 55.3617 -2.51186 0.257269 0
M  V30 607 C 56.6747 -0.68474 2.928 0
M  V30 608 C 58.2227 -0.77659 3.03213 0
M  V30 609 C 58.6977 -0.904207 4.48986 0
M  V30 610 N 60.1887 -0.968896 4.52953 0
M  V30 611 C 60.9237 -1.08703 5.63002 0
M  V30 612 N 60.4197 -1.17026 6.82845 0
M  V30 613 N 62.2127 -1.12074 5.50814 0
M  V30 614 H 54.3637 0.607911 2.03515 0
M  V30 615 H 56.6267 0.21083 0.924259 0
M  V30 616 H 56.3327 0.194284 3.51163 0
M  V30 617 H 56.2067 -1.55435 3.43686 0
M  V30 618 H 58.5937 -1.64606 2.44926 0
M  V30 619 H 58.6747 0.118315 2.55526 0
M  V30 620 H 58.3187 -0.0392633 5.07885 0
M  V30 621 H 58.2487 -1.81426 4.9436 0
M  V30 622 H 60.7397 -0.915633 3.6664 0
M  V30 623 H 61.0527 -1.25966 7.62465 0
M  V30 624 H 59.3977 -1.13971 6.85591 0
M  V30 625 H 62.5887 -1.05226 4.5612 0
M  V30 626 H 62.7617 -1.20936 6.36615 0
M  V30 627 N 56.1678 -1.49265 -0.50573 0
M  V30 628 C 57.4158 -1.582 -1.25766 0
M  V30 629 C 57.7368 -0.268482 -1.93143 0
M  V30 630 O 57.0068 0.711833 -1.8251 0
M  V30 631 H 55.5868 -0.582873 -0.467191 0
M  V30 632 H 58.2488 -1.85865 -0.586525 0
M  V30 633 H 57.3448 -2.37563 -2.02412 0
M  V30 634 N 57.6459 0.756429 -1.3826 0
M  V30 635 C 58.5559 1.9009 -1.37488 0
M  V30 636 C 59.5719 1.71855 -0.272366 0
M  V30 637 O 60.7479 1.94827 -0.510318 0
M  V30 638 C 57.8129 3.25421 -1.19592 0
M  V30 639 C 56.8739 3.56202 -2.39622 0
M  V30 640 C 56.1069 4.85075 -2.2257 0
M  V30 641 O 56.3299 5.57246 -1.21793 0
M  V30 642 O 55.2639 5.15269 -3.11098 0
M  V30 643 H 59.0899 1.93695 -2.33914 0
M  V30 644 H 56.6749 0.901313 -1.1915 0
M  V30 645 H 58.5569 4.06337 -1.11661 0
M  V30 646 H 57.2319 3.22634 -0.262486 0
M  V30 647 H 56.1389 2.75458 -2.53128 0
M  V30 648 H 57.4719 3.63747 -3.31586 0
M  V30 649 N 59.124 1.23083 0.984299 0
M  V30 650 C 60.364 1.07226 1.74017 0
M  V30 651 C 60.728 -0.384766 1.88105 0
M  V30 652 O 61.929 -0.664411 2.60459 0
M  V30 653 C 60.2 1.77348 3.10294 0
M  V30 654 S 61.759 1.77014 4.01512 0
M  V30 655 H 58.577 0.383819 0.598502 0
M  V30 656 H 61.179 1.56158 1.17622 0
M  V30 657 H 59.883 2.82506 2.97689 0
M  V30 658 H 59.414 1.28682 3.71759 0
M  V30 659 H 61.429 0.825956 4.89277 0
M  V30 660 N 60.6021 -1.18246 1.0419 0
M  V30 661 C 61.8321 -1.91916 0.764961 0
M  V30 662 C 62.2401 -1.76485 -0.681898 0
M  V30 663 O 61.5831 -1.09275 -1.47664 0
M  V30 664 C 61.6451 -3.4373 1.05309 0
M  V30 665 C 61.3091 -3.8294 2.4941 0
M  V30 666 C 62.3061 -3.86621 3.47592 0
M  V30 667 C 59.9911 -4.142 2.84155 0
M  V30 668 C 61.9851 -4.21013 4.78568 0
M  V30 669 C 59.6721 -4.48262 4.15337 0
M  V30 670 C 60.6701 -4.51645 5.12353 0
M  V30 671 O 60.3581 -4.84911 6.41183 0
M  V30 672 H 60.0901 -0.61606 0.278292 0
M  V30 673 H 62.6441 -1.50947 1.39299 0
M  V30 674 H 60.8741 -3.84946 0.367933 0
M  V30 675 H 62.5631 -3.9865 0.763752 0
M  V30 676 H 63.3291 -3.62607 3.22089 0
M  V30 677 H 59.2081 -4.10743 2.09311 0
M  V30 678 H 62.7521 -4.23568 5.54289 0
M  V30 679 H 58.6491 -4.71737 4.40607 0
M  V30 680 H 59.4171 -5.02809 6.45852 0
M  V30 681 N 62.0802 -0.821533 -1.34494 0
M  V30 682 C 63.3082 -0.421884 -2.02553 0
M  V30 683 C 63.7232 0.971745 -1.61872 0
M  V30 684 O 63.0802 1.62864 -0.823496 0
M  V30 685 C 63.1312 -0.51285 -3.57844 0
M  V30 686 O 62.8522 -1.85155 -3.97051 0
M  V30 687 C 64.3532 -0.107921 -4.43169 0
M  V30 688 H 61.5732 -0.169482 -0.649243 0
M  V30 689 H 64.1172 -1.1093 -1.71798 0
M  V30 690 H 62.2722 0.126474 -3.87193 0
M  V30 691 H 62.6862 -1.82482 -4.91732 0
M  V30 692 H 64.1602 -0.222657 -5.51551 0
M  V30 693 H 64.6372 0.948401 -4.28838 0
M  V30 694 H 65.2432 -0.720989 -4.19144 0
M  V30 695 N 63.5583 1.46682 -0.576371 0
M  V30 696 C 64.5213 2.28707 0.150239 0
M  V30 697 C 65.5213 1.38035 0.824794 0
M  V30 698 O 66.7113 1.60476 0.677719 0
M  V30 699 C 63.8433 3.18248 1.22192 0
M  V30 700 H 65.0363 2.94423 -0.570521 0
M  V30 701 H 62.5893 1.52688 -0.334078 0
M  V30 702 H 63.3243 2.57265 1.97447 0
M  V30 703 H 63.1093 3.85 0.742812 0
M  V30 704 H 64.5993 3.80001 1.73172 0
M  V30 705 N 65.0364 0.313813 1.54444 0
M  V30 706 C 66.2824 -0.284918 2.01395 0
M  V30 707 C 66.6374 -1.50537 1.19818 0
M  V30 708 O 65.9304 -1.89692 0.269748 0
M  V30 709 C 66.1244 -0.680386 3.50864 0
M  V30 710 C 65.9534 0.500198 4.4691 0
M  V30 711 C 64.7234 0.996248 4.95382 0
M  V30 712 C 66.9214 1.34928 4.96285 0
M  V30 713 N 64.9034 2.14226 5.75309 0
M  V30 714 C 66.2744 2.3426 5.7404 0
M  V30 715 C 68.3294 1.37818 4.78446 0
M  V30 716 C 67.0324 3.36272 6.35856 0
M  V30 717 C 69.0584 2.38695 5.4109 0
M  V30 718 C 68.4204 3.36755 6.18688 0
M  V30 719 H 64.5194 -0.0683689 0.779006 0
M  V30 720 H 67.1034 0.44664 1.89508 0
M  V30 721 H 65.2744 -1.38109 3.63016 0
M  V30 722 H 67.0064 -1.25975 3.84594 0
M  V30 723 H 63.7614 0.56912 4.70168 0
M  V30 724 H 64.1854 2.72005 6.19953 0
M  V30 725 H 68.8274 0.633747 4.18023 0
M  V30 726 H 66.5454 4.11627 6.95405 0
M  V30 727 H 70.1314 2.41721 5.29209 0
M  V30 728 H 69.0114 4.13535 6.66302 0
M  V30 729 N 66.5145 -1.57545 0.0417849 0
M  V30 730 C 67.4775 -2.09885 -0.92093 0
M  V30 731 C 68.4775 -1.01648 -1.24596 0
M  V30 732 O 69.6675 -1.27759 -1.1842 0
M  V30 733 C 66.7995 -2.57527 -2.23367 0
M  V30 734 H 67.9925 -2.96236 -0.467382 0
M  V30 735 H 65.5455 -1.5493 -0.206467 0
M  V30 736 H 66.2805 -1.74542 -2.73323 0
M  V30 737 H 66.0655 -3.36613 -2.01083 0
M  V30 738 H 67.5555 -2.98201 -2.92346 0
M  V30 739 N 67.9926 0.231505 -1.5589 0
M  V30 740 C 69.2406 0.955461 -1.78088 0
M  V30 741 C 69.5616 1.85262 -0.608533 0
M  V30 742 O 68.8316 1.92277 0.375035 0
M  V30 743 H 67.4116 0.355787 -0.656829 0
M  V30 744 H 70.0736 0.245751 -1.93344 0
M  V30 745 H 69.1696 1.56814 -2.69844 0
M  V30 746 N 69.4707 1.49531 0.497807 0
M  V30 747 C 70.7477 1.49682 1.25915 0
M  V30 748 C 71.1277 0.226339 2.09883 0
M  V30 749 O 70.4757 -0.791189 2.14365 0
M  V30 750 C 70.6857 2.77755 2.11313 0
M  V30 751 C 72.0337 3.27371 2.70395 0
M  V30 752 O 73.0577 2.78894 2.21578 0
M  V30 753 O 71.9167 4.11808 3.59272 0
M  V30 754 H 69.0107 0.599228 0.56996 0
M  V30 755 H 71.5567 1.61798 0.511816 0
M  V30 756 H 70.3287 3.61713 1.49264 0
M  V30 757 H 69.9517 2.68515 2.93233 0
M  V30 758 N 70.9488 -0.749086 1.3866 0
M  V30 759 C 71.8588 -1.89358 1.38494 0
M  V30 760 C 72.8748 -1.71708 0.281476 0
M  V30 761 O 74.0508 -1.94554 0.520643 0
M  V30 762 C 71.1158 -3.24782 1.21316 0
M  V30 763 C 70.1768 -3.54926 2.41508 0
M  V30 764 C 69.4098 -4.83888 2.2514 0
M  V30 765 O 69.6328 -5.56592 1.24746 0
M  V30 766 O 68.5668 -5.13612 3.13826 0
M  V30 767 H 72.3928 -1.92452 2.34938 0
M  V30 768 H 69.9778 -0.894981 1.19626 0
M  V30 769 H 71.8598 -4.05739 1.13814 0
M  V30 770 H 70.5348 -3.2249 0.279592 0
M  V30 771 H 69.4418 -2.74112 2.54585 0
M  V30 772 H 70.7748 -3.61983 3.3351 0
M  V30 773 N 72.4269 -1.23603 -0.977757 0
M  V30 774 C 73.3569 -1.04401 -2.0886 0
M  V30 775 C 74.3379 0.0399052 -1.70053 0
M  V30 776 O 75.5229 -0.125246 -1.93796 0
M  V30 777 C 72.6529 -0.637269 -3.41403 0
M  V30 778 C 71.6069 -1.66883 -3.94124 0
M  V30 779 C 70.9329 -1.11745 -5.22893 0
M  V30 780 C 72.2329 -3.06247 -4.23096 0
M  V30 781 H 73.9269 -1.97316 -2.25182 0
M  V30 782 H 71.4729 -0.950096 -1.08209 0
M  V30 783 H 73.4259 -0.48998 -4.18542 0
M  V30 784 H 72.1499 0.327557 -3.24953 0
M  V30 785 H 70.8089 -1.80416 -3.19133 0
M  V30 786 H 70.4569 -0.143527 -5.02795 0
M  V30 787 H 70.1569 -1.80672 -5.59134 0
M  V30 788 H 71.6809 -0.982067 -6.02651 0
M  V30 789 H 73.0949 -2.96001 -4.90975 0
M  V30 790 H 71.4919 -3.72436 -4.70544 0
M  V30 791 H 72.5619 -3.55041 -3.30263 0
M  V30 792 N 73.905 1.17692 -1.04816 0
M  V30 793 C 74.868 2.19787 -0.650117 0
M  V30 794 C 75.868 1.58044 0.296427 0
M  V30 795 O 77.058 1.74012 0.0808097 0
M  V30 796 C 74.19 3.40869 0.0456987 0
M  V30 797 H 75.383 2.56516 -1.5537 0
M  V30 798 H 72.936 1.31708 -0.841594 0
M  V30 799 H 73.671 3.09681 0.962726 0
M  V30 800 H 73.456 3.86928 -0.634727 0
M  V30 801 H 74.946 4.16445 0.310432 0
M  V30 802 N 75.3831 0.828654 1.34056 0
M  V30 803 C 76.6311 0.41863 1.97717 0
M  V30 804 C 76.9521 -1.02314 1.66002 0
M  V30 805 O 76.2221 -1.71119 0.953683 0
M  V30 806 H 74.8021 0.151809 0.731412 0
M  V30 807 H 77.4641 1.05936 1.63596 0
M  V30 808 H 76.5601 0.542318 3.07352 0
M  V30 809 N 76.8612 -1.46375 0.584142 0
M  V30 810 C 78.1072 -2.02678 0.0703716 0
M  V30 811 C 78.4402 -1.4545 -1.28678 0
M  V30 812 O 77.7152 -0.62014 -1.84349 0
M  V30 813 C 77.9982 -3.60099 0.00614674 0
M  V30 814 C 77.8512 -4.27709 1.3923 0
M  V30 815 C 79.1702 -4.34598 -0.693742 0
M  V30 816 H 76.2892 -0.736504 0.027047 0
M  V30 817 H 78.9312 -1.74501 0.751615 0
M  V30 818 H 77.0812 -3.84236 -0.574009 0
M  V30 819 H 78.7532 -4.14832 2.01773 0
M  V30 820 H 76.9962 -3.87016 1.95962 0
M  V30 821 H 77.6672 -5.36478 1.29982 0
M  V30 822 H 80.1432 -4.15615 -0.200869 0
M  V30 823 H 79.0192 -5.44318 -0.707714 0
M  V30 824 H 79.2802 -4.05759 -1.75533 0
M  V30 825 N 78.3393 -0.321999 -1.54275 0
M  V30 826 C 79.5693 0.282642 -2.04658 0
M  V30 827 C 79.9773 1.46453 -1.19784 0
M  V30 828 O 79.3203 1.82367 -0.220932 0
M  V30 829 C 79.3823 0.781857 -3.50895 0
M  V30 830 C 79.0463 -0.277517 -4.56157 0
M  V30 831 C 80.0433 -1.11307 -5.07845 0
M  V30 832 C 77.7283 -0.425256 -5.00497 0
M  V30 833 C 79.7223 -2.08211 -6.02434 0
M  V30 834 C 77.4093 -1.39771 -5.94901 0
M  V30 835 C 78.4073 -2.2246 -6.45756 0
M  V30 836 O 78.0953 -3.18054 -7.38307 0
M  V30 837 H 77.8273 0.0622636 -0.673126 0
M  V30 838 H 80.3813 -0.465792 -2.00049 0
M  V30 839 H 78.6113 1.58118 -3.52896 0
M  V30 840 H 80.3003 1.30467 -3.84361 0
M  V30 841 H 81.0663 -1.00991 -4.74369 0
M  V30 842 H 76.9453 0.20847 -4.60528 0
M  V30 843 H 80.4893 -2.72791 -6.42052 0
M  V30 844 H 76.3863 -1.50152 -6.27794 0
M  V30 845 H 77.1543 -3.13275 -7.56175 0
M  V30 846 N 79.8174 1.5752 -0.0501392 0
M  V30 847 C 81.0634 1.92936 0.624798 0
M  V30 848 C 81.3964 0.928685 1.70555 0
M  V30 849 O 80.6714 -0.0454779 1.94447 0
M  V30 850 C 80.9544 3.38737 1.22185 0
M  V30 851 C 80.8074 4.49552 0.149218 0
M  V30 852 C 82.1264 3.84913 2.13378 0
M  V30 853 H 79.2454 0.701604 0.225657 0
M  V30 854 H 81.8874 1.89671 -0.111693 0
M  V30 855 H 80.0374 3.4165 1.84953 0
M  V30 856 H 81.7094 4.58768 -0.482648 0
M  V30 857 H 79.9524 4.30638 -0.522841 0
M  V30 858 H 80.6234 5.48653 0.606966 0
M  V30 859 H 83.0994 3.8387 1.60572 0
M  V30 860 H 81.9754 4.87584 2.52097 0
M  V30 861 H 82.2364 3.21611 3.03346 0
M  V30 862 N 81.2955 -0.223234 1.56011 0
M  V30 863 C 82.2255 -1.27988 1.95298 0
M  V30 864 C 83.2065 -1.48976 0.820979 0
M  V30 865 O 84.3915 -1.61188 1.08315 0
M  V30 866 C 81.5215 -2.63 2.26822 0
M  V30 867 C 80.4755 -2.56671 3.42497 0
M  V30 868 C 79.8015 -3.95697 3.59622 0
M  V30 869 C 81.1015 -2.11601 4.77517 0
M  V30 870 H 82.7955 -0.953525 2.8381 0
M  V30 871 H 80.3415 -0.457244 1.36548 0
M  V30 872 H 82.2945 -3.37077 2.52898 0
M  V30 873 H 81.0185 -2.9732 1.35161 0
M  V30 874 H 79.6775 -1.85051 3.16467 0
M  V30 875 H 79.3255 -4.27322 2.6534 0
M  V30 876 H 79.0255 -3.92345 4.37424 0
M  V30 877 H 80.5495 -4.71438 3.88044 0
M  V30 878 H 81.9635 -2.7542 5.02809 0
M  V30 879 H 80.3605 -2.19311 5.5859 0
M  V30 880 H 81.4305 -1.06824 4.72987 0
M  V30 881 N 82.7736 -1.49793 -0.48987 0
M  V30 882 C 83.7036 -1.70201 -1.59856 0
M  V30 883 C 84.6846 -0.55076 -1.60937 0
M  V30 884 O 85.8696 -0.787841 -1.77501 0
M  V30 885 C 82.9996 -1.77882 -2.98287 0
M  V30 886 C 81.9536 -2.92907 -3.12073 0
M  V30 887 C 81.2796 -2.85712 -4.51965 0
M  V30 888 C 82.5796 -4.3369 -2.91051 0
M  V30 889 H 84.2736 -2.63025 -1.43032 0
M  V30 890 H 81.8196 -1.26574 -0.686664 0
M  V30 891 H 83.7726 -1.90744 -3.75759 0
M  V30 892 H 82.4966 -0.816653 -3.16225 0
M  V30 893 H 81.1556 -2.79665 -2.37029 0
M  V30 894 H 80.8036 -1.8738 -4.66795 0
M  V30 895 H 80.5036 -3.62921 -4.62128 0
M  V30 896 H 82.0276 -3.00598 -5.31482 0
M  V30 897 H 83.4416 -4.47555 -3.58284 0
M  V30 898 H 81.8386 -5.12205 -3.12675 0
M  V30 899 H 82.9086 -4.47362 -1.87071 0
M  V30 900 N 84.2517 0.741722 -1.39055 0
M  V30 901 C 85.1987 1.85566 -1.37237 0
M  V30 902 C 86.1687 1.64457 -0.233072 0
M  V30 903 O 87.3537 1.85957 -0.427147 0
M  V30 904 C 84.4937 3.23004 -1.215 0
M  V30 905 C 83.6067 3.55864 -2.44918 0
M  V30 906 C 82.7417 4.82669 -2.21821 0
M  V30 907 C 81.7807 5.08351 -3.40948 0
M  V30 908 N 80.9177 6.26356 -3.17211 0
M  V30 909 H 85.7577 1.86455 -2.32462 0
M  V30 910 H 83.2947 0.911176 -1.15482 0
M  V30 911 H 85.2527 4.02331 -1.10389 0
M  V30 912 H 83.8827 3.21411 -0.29908 0
M  V30 913 H 82.9347 2.7129 -2.66657 0
M  V30 914 H 84.2467 3.70765 -3.33668 0
M  V30 915 H 83.4007 5.69962 -2.07914 0
M  V30 916 H 82.1397 4.69929 -1.30454 0
M  V30 917 H 81.1447 4.19522 -3.55361 0
M  V30 918 H 82.3697 5.22981 -4.33207 0
M  V30 919 H 80.3157 6.14917 -2.28502 0
M  V30 920 H 80.2327 6.41813 -3.99515 0
M  V30 921 H 81.5007 7.16506 -3.06984 0
M  V30 922 N 85.7298 1.2412 0.971189 0
M  V30 923 C 86.9578 1.10575 1.74874 0
M  V30 924 C 87.3728 -0.342017 1.85676 0
M  V30 925 O 86.7298 -1.23617 1.34258 0
M  V30 926 C 86.7808 1.73579 3.171 0
M  V30 927 O 86.5018 3.12695 3.06844 0
M  V30 928 C 88.0028 1.65598 4.11208 0
M  V30 929 H 85.2228 0.386504 0.548503 0
M  V30 930 H 87.7668 1.64156 1.21955 0
M  V30 931 H 85.9218 1.24009 3.67016 0
M  V30 932 H 86.3358 3.43412 3.96445 0
M  V30 933 H 87.8098 2.1437 5.08674 0
M  V30 934 H 88.2868 0.616532 4.34851 0
M  V30 935 H 88.8928 2.14578 3.67201 0
M  V30 936 N 87.2079 -1.17134 1.05439 0
M  V30 937 C 88.6239 -1.39454 0.776201 0
M  V30 938 C 88.8239 -1.91454 -0.628307 0
M  V30 939 O 87.8799 -2.10777 -1.39031 0
M  V30 940 C 89.1929 -2.38305 1.83388 0
M  V30 941 C 90.7409 -2.52006 1.85639 0
M  V30 942 C 91.2159 -3.54133 2.90437 0
M  V30 943 N 92.7069 -3.61653 2.89415 0
M  V30 944 C 93.4419 -4.4044 3.67152 0
M  V30 945 N 92.9379 -5.22721 4.54681 0
M  V30 946 N 94.7309 -4.35337 3.55581 0
M  V30 947 H 86.8819 -0.817134 1.96053 0
M  V30 948 H 89.1449 -0.421626 0.849079 0
M  V30 949 H 88.8509 -2.07173 2.84204 0
M  V30 950 H 88.7249 -3.37841 1.67761 0
M  V30 951 H 91.1119 -2.82447 0.85486 0
M  V30 952 H 91.1929 -1.52537 2.05344 0
M  V30 953 H 90.8369 -3.24431 3.90777 0
M  V30 954 H 90.7669 -4.53313 2.67983 0
M  V30 955 H 93.2579 -3.02909 2.25952 0
M  V30 956 H 93.5709 -5.80027 5.10674 0
M  V30 957 H 91.9159 -5.22093 4.58741 0
M  V30 958 H 95.1069 -3.70112 2.86592 0
M  V30 959 H 95.2799 -4.96494 4.1641 0
M  V30 960 N 88.686 -0.835752 -1.33615 0
M  V30 961 C 90.097 -0.487099 -1.80234 0
M  V30 962 C 90.448 0.993627 -1.69179 0
M  V30 963 O 89.573 1.77403 -1.23924 0
M  V30 964 C 90.168 -0.877385 -3.27242 0
M  V30 965 C 88.727 -0.580915 -3.7189 0
M  V30 966 C 87.874 -1.0874 -2.5509 0
M  V30 967 H 90.825 -1.02474 -1.2118 0
M  V30 968 H 90.846 -0.186195 -3.80044 0
M  V30 969 H 90.358 -1.95512 -3.35256 0
M  V30 970 H 88.459 0.486881 -3.69405 0
M  V30 971 H 88.572 -1.13396 -4.65487 0
M  V30 972 H 86.936 -0.508392 -2.49575 0
M  V30 973 H 87.719 -2.17184 -2.65868 0
M  V30 974 N 90.1641 1.46063 -0.591896 0
M  V30 975 C 91.0961 2.28539 0.174001 0
M  V30 976 C 92.1091 1.39047 0.846753 0
M  V30 977 O 93.2981 1.63564 0.714774 0
M  V30 978 C 90.3981 3.14347 1.26645 0
M  V30 979 C 89.5711 4.32021 0.683856 0
M  V30 980 C 88.6301 4.99157 1.66518 0
M  V30 981 O 87.6561 5.56458 1.19763 0
M  V30 982 N 88.8581 4.97005 2.99943 0
M  V30 983 H 91.6231 2.94911 -0.533633 0
M  V30 984 H 89.1841 1.56077 -0.430294 0
M  V30 985 H 91.1761 3.56125 1.92242 0
M  V30 986 H 89.7461 2.49988 1.87682 0
M  V30 987 H 88.9661 3.93915 -0.1498 0
M  V30 988 H 90.2541 5.08059 0.274567 0
M  V30 989 H 89.6521 4.51714 3.40545 0
M  V30 990 H 88.2091 5.42696 3.61004 0
M  V30 991 N 91.6422 0.330177 1.54103 0
M  V30 992 C 92.8702 -0.272179 2.05102 0
M  V30 993 C 93.2852 -1.45267 1.20595 0
M  V30 994 O 92.6422 -1.8094 0.238144 0
M  V30 995 C 92.6932 -0.70023 3.54653 0
M  V30 996 O 92.4142 0.433301 4.35952 0
M  V30 997 C 93.9152 -1.3647 4.21771 0
M  V30 998 H 91.1352 -0.0549159 0.668749 0
M  V30 999 H 93.6792 0.478285 1.98828 0
M  V30 1000 H 91.8342 -1.40066 3.61193 0
M  V30 1001 H 92.2482 0.0947539 5.24414 0
M  V30 1002 H 93.7222 -1.61509 5.27843 0
M  V30 1003 H 94.1992 -2.31409 3.73292 0
M  V30 1004 H 94.8052 -0.706675 4.19388 0
M  V30 1005 N 93.1203 -1.57491 0.0584922 0
M  V30 1006 C 94.3663 -1.93264 -0.614558 0
M  V30 1007 C 94.6993 -0.937717 -1.7006 0
M  V30 1008 O 93.9743 0.0351652 -1.94468 0
M  V30 1009 C 94.2573 -3.3938 -1.20386 0
M  V30 1010 C 94.1103 -4.49625 -0.125375 0
M  V30 1011 C 95.4293 -3.86039 -2.11334 0
M  V30 1012 H 92.5483 -0.702791 -0.221933 0
M  V30 1013 H 95.1903 -1.8961 0.12175 0
M  V30 1014 H 93.3403 -3.42626 -1.83139 0
M  V30 1015 H 95.0123 -4.58506 0.506971 0
M  V30 1016 H 93.2553 -4.30354 0.545672 0
M  V30 1017 H 93.9263 -5.48967 -0.577861 0
M  V30 1018 H 96.4023 -3.84716 -1.58534 0
M  V30 1019 H 95.2783 -4.88914 -2.49507 0
M  V30 1020 H 95.5393 -3.23215 -3.01636 0
M  V30 1021 N 94.5984 0.214957 -1.56127 0
M  V30 1022 C 95.5084 1.28727 -1.96129 0
M  V30 1023 C 96.5244 1.50916 -0.866044 0
M  V30 1024 O 97.7004 1.63918 -1.17016 0
M  V30 1025 C 94.7654 2.61569 -2.27558 0
M  V30 1026 C 93.8264 2.47625 -3.50685 0
M  V30 1027 C 93.0594 3.74132 -3.80606 0
M  V30 1028 O 93.2824 4.77438 -3.12104 0
M  V30 1029 O 92.2164 3.70849 -4.74083 0
M  V30 1030 H 96.0424 0.977855 -2.87527 0
M  V30 1031 H 93.6274 0.418358 -1.43423 0
M  V30 1032 H 95.5094 3.40012 -2.48938 0
M  V30 1033 H 94.1844 2.92178 -1.39332 0
M  V30 1034 H 93.0914 1.67361 -3.34576 0
M  V30 1035 H 94.4244 2.21954 -4.39315 0
M  V30 1036 N 96.0765 1.50051 0.48192 0
M  V30 1037 C 97.3255 1.59741 1.23149 0
M  V30 1038 C 97.6385 0.298163 1.93314 0
M  V30 1039 O 98.8445 0.273835 2.70116 0
M  V30 1040 C 97.3005 2.81926 2.23708 0
M  V30 1041 C 96.9085 4.18685 1.59396 0
M  V30 1042 C 98.6525 3.00956 2.99375 0
M  V30 1043 C 96.5595 5.3207 2.58178 0
M  V30 1044 H 95.4895 0.594838 0.46334 0
M  V30 1045 H 98.1405 1.76467 0.503169 0
M  V30 1046 H 96.5225 2.58736 2.99786 0
M  V30 1047 H 97.6965 4.52088 0.891811 0
M  V30 1048 H 96.0115 4.05171 0.960503 0
M  V30 1049 H 98.6085 3.82836 3.73283 0
M  V30 1050 H 98.9515 2.12258 3.58123 0
M  V30 1051 H 99.4845 3.24277 2.30411 0
M  V30 1052 H 96.2235 6.22888 2.04184 0
M  V30 1053 H 95.7435 5.03098 3.26577 0
M  V30 1054 H 97.4225 5.62196 3.20225 0
M  V30 1055 N 97.5546 -0.734337 1.39446 0
M  V30 1056 C 98.8006 -1.49613 1.36908 0
M  V30 1057 C 99.1336 -1.94169 -0.0347829 0
M  V30 1058 O 98.4086 -1.66833 -0.999847 0
M  V30 1059 C 98.6916 -2.73534 2.34203 0
M  V30 1060 C 98.5446 -2.34993 3.83534 0
M  V30 1061 C 99.8636 -3.75635 2.29317 0
M  V30 1062 H 96.9826 -0.542714 0.498629 0
M  V30 1063 H 99.6246 -0.839597 1.70443 0
M  V30 1064 H 97.7746 -3.29553 2.05736 0
M  V30 1065 H 99.4466 -1.84601 4.22753 0
M  V30 1066 H 97.6896 -1.67213 4.00278 0
M  V30 1067 H 98.3606 -3.23738 4.47099 0
M  V30 1068 H 100.837 -3.29203 2.54489 0
M  V30 1069 H 99.7126 -4.60008 2.99472 0
M  V30 1070 H 99.9736 -4.22603 1.29842 0
M  V30 1071 N 99.0327 -1.24633 -0.964593 0
M  V30 1072 C 99.9807 -1.03917 -2.08096 0
M  V30 1073 C 100.975 0.0268581 -1.69379 0
M  V30 1074 O 102.181 -0.127952 -1.79545 0
M  V30 1075 H 98.5557 -0.319044 -0.680966 0
M  V30 1076 H 100.527 -1.98581 -2.22729 0
M  V30 1077 C 99.2757 -0.663983 -3.41301 0
M  V30 1078 H 98.5987 -1.47605 -3.71555 0
M  V30 1079 H 100.039 -0.558663 -4.20303 0
M  V30 1080 C 98.4977 0.629169 -3.30973 0
M  V30 1081 O 99.0277 1.67404 -3.65156 0
M  V30 1082 N 97.2337 0.611057 -2.84103 0
M  V30 1083 H 96.7807 -0.239593 -2.56483 0
M  V30 1084 H 96.7387 1.47647 -2.77575 0
M  V30 1085 N 100.511 1.16574 -1.06058 0
M  V30 1086 C 101.76 1.86385 -0.770944 0
M  V30 1087 C 102.073 1.82448 0.705129 0
M  V30 1088 O 103.279 2.47815 1.10905 0
M  V30 1089 C 101.735 3.34466 -1.32893 0
M  V30 1090 C 101.343 3.46883 -2.83507 0
M  V30 1091 C 103.087 4.09548 -1.11672 0
M  V30 1092 C 100.994 4.89036 -3.32562 0
M  V30 1093 H 99.9238 0.698181 -0.284709 0
M  V30 1094 H 102.575 1.31583 -1.27899 0
M  V30 1095 H 100.957 3.88859 -0.748662 0
M  V30 1096 H 102.131 3.02663 -3.47465 0
M  V30 1097 H 100.446 2.85232 -3.03368 0
M  V30 1098 H 103.043 5.14434 -1.45814 0
M  V30 1099 H 103.386 4.16264 -0.0549535 0
M  V30 1100 H 103.919 3.61387 -1.66265 0
M  V30 1101 H 100.658 4.87499 -4.38207 0
M  V30 1102 H 100.178 5.3389 -2.73351 0
M  V30 1103 H 101.857 5.57843 -3.2775 0
M  V30 1104 N 101.989 0.842826 1.3317 0
M  V30 1105 C 102.952 0.284065 2.27433 0
M  V30 1106 C 103.952 -0.54948 1.5112 0
M  V30 1107 O 105.142 -0.362699 1.70382 0
M  V30 1108 C 102.274 -0.599384 3.35589 0
M  V30 1109 H 103.467 1.11589 2.78366 0
M  V30 1110 H 101.02 0.616221 1.4364 0
M  V30 1111 H 101.755 -1.45349 2.89904 0
M  V30 1112 H 101.54 -0.00291266 3.921 0
M  V30 1113 H 103.03 -0.983488 4.05854 0
M  V30 1114 N 103.467 -1.45747 0.599634 0
M  V30 1115 C 104.713 -2.02592 0.0918643 0
M  V30 1116 C 105.046 -1.46806 -1.27128 0
M  V30 1117 O 104.321 -0.639658 -1.83681 0
M  V30 1118 C 104.604 -3.60073 0.0443398 0
M  V30 1119 C 104.457 -4.26208 1.43759 0
M  V30 1120 C 105.776 -4.35309 -0.647608 0
M  V30 1121 H 102.895 -0.736175 0.034857 0
M  V30 1122 H 105.537 -1.73694 0.770081 0
M  V30 1123 H 103.687 -3.84823 -0.533224 0
M  V30 1124 H 105.359 -4.12668 2.06162 0
M  V30 1125 H 103.602 -3.84916 2.00056 0
M  V30 1126 H 104.273 -5.35069 1.35665 0
M  V30 1127 H 106.749 -4.15805 -0.156776 0
M  V30 1128 H 105.625 -5.45038 -0.649942 0
M  V30 1129 H 105.886 -4.07598 -1.71219 0
M  V30 1130 N 104.945 -0.338344 -1.53925 0
M  V30 1131 C 105.892 0.520845 -2.24846 0
M  V30 1132 C 106.862 1.09976 -1.24477 0
M  V30 1133 O 108.047 1.13735 -1.53196 0
M  V30 1134 C 105.187 1.6685 -3.02084 0
M  V30 1135 C 104.3 1.11739 -4.17299 0
M  V30 1136 C 103.435 2.23193 -4.82036 0
M  V30 1137 C 102.474 1.65407 -5.89328 0
M  V30 1138 N 101.611 2.70582 -6.47866 0
M  V30 1139 H 106.451 -0.0904881 -2.97863 0
M  V30 1140 H 103.988 -0.0564282 -1.46992 0
M  V30 1141 H 105.946 2.34407 -3.45122 0
M  V30 1142 H 104.576 2.2509 -2.31375 0
M  V30 1143 H 103.628 0.332919 -3.7894 0
M  V30 1144 H 104.94 0.654677 -4.94485 0
M  V30 1145 H 104.094 2.98626 -5.28117 0
M  V30 1146 H 102.833 2.72807 -4.04262 0
M  V30 1147 H 101.838 0.884779 -5.42634 0
M  V30 1148 H 103.063 1.16652 -6.69006 0
M  V30 1149 H 101.009 3.1946 -5.72959 0
M  V30 1150 H 100.926 2.28917 -7.20509 0
M  V30 1151 H 102.194 3.45799 -6.98601 0
M  V30 1152 N 106.423 1.57458 -0.0668435 0
M  V30 1153 C 107.333 2.15937 0.916975 0
M  V30 1154 C 108.349 1.12123 1.33058 0
M  V30 1155 O 109.525 1.44366 1.40429 0
M  V30 1156 C 106.59 2.70547 2.16807 0
M  V30 1157 C 105.651 3.89215 1.81135 0
M  V30 1158 C 104.884 4.41211 3.0028 0
M  V30 1159 O 105.107 3.92225 4.14144 0
M  V30 1160 O 104.041 5.32605 2.80384 0
M  V30 1161 H 107.867 3.00354 0.449561 0
M  V30 1162 H 105.452 1.48584 0.155949 0
M  V30 1163 H 107.334 3.0557 2.90181 0
M  V30 1164 H 106.009 1.89192 2.62656 0
M  V30 1165 H 104.916 3.59054 1.05028 0
M  V30 1166 H 106.249 4.71848 1.40073 0
M  V30 1167 N 107.901 -0.206675 1.56239 0
M  V30 1168 C 109.126 -0.949474 1.8439 0
M  V30 1169 C 109.551 -1.76549 0.649016 0
M  V30 1170 O 108.909 -1.76782 -0.402231 0
M  V30 1171 C 108.957 -1.83078 3.10668 0
M  V30 1172 O 108.061 -2.9281 2.90407 0
M  V30 1173 H 107.402 -0.268033 0.607499 0
M  V30 1174 H 109.932 -0.215488 2.03462 0
M  V30 1175 H 109.942 -2.2377 3.41161 0
M  V30 1176 H 108.617 -1.23112 3.97261 0
M  V30 1177 H 107.194 -2.55956 2.71184 0
M  V30 1178 N 109.379 -1.50304 -0.473955 0
M  V30 1179 C 110.309 -1.71886 -1.58042 0
M  V30 1180 C 111.29 -0.567799 -1.60344 0
M  V30 1181 O 112.475 -0.806623 -1.76656 0
M  V30 1182 C 109.605 -1.81036 -2.96384 0
M  V30 1183 C 108.559 -2.962 -3.08949 0
M  V30 1184 C 107.885 -2.9049 -4.48909 0
M  V30 1185 C 109.185 -4.36752 -2.86434 0
M  V30 1186 H 110.879 -2.64527 -1.40234 0
M  V30 1187 H 108.425 -1.27295 -0.673201 0
M  V30 1188 H 110.378 -1.94719 -3.73714 0
M  V30 1189 H 109.102 -0.850147 -3.15341 0
M  V30 1190 H 107.761 -2.82164 -2.3405 0
M  V30 1191 H 107.409 -1.92321 -4.64781 0
M  V30 1192 H 107.109 -3.67802 -4.58253 0
M  V30 1193 H 108.633 -3.06218 -5.28264 0
M  V30 1194 H 110.047 -4.5133 -3.53517 0
M  V30 1195 H 108.444 -5.15493 -3.07225 0
M  V30 1196 H 109.514 -4.49321 -1.82316 0
M  V30 1197 N 110.857 0.726932 -1.39834 0
M  V30 1198 C 111.789 1.85147 -1.35104 0
M  V30 1199 C 112.802 1.60736 -0.258392 0
M  V30 1200 O 113.991 1.70821 -0.517931 0
M  V30 1201 C 111.091 3.21332 -1.07697 0
M  V30 1202 C 110.264 3.73033 -2.28396 0
M  V30 1203 C 109.323 4.87802 -1.97322 0
M  V30 1204 O 108.349 5.01043 -2.70083 0
M  V30 1205 N 109.551 5.72768 -0.944273 0
M  V30 1206 H 112.316 1.89706 -2.32017 0
M  V30 1207 H 109.877 0.908006 -1.3404 0
M  V30 1208 H 111.869 3.95691 -0.849144 0
M  V30 1209 H 110.439 3.11992 -0.194909 0
M  V30 1210 H 109.659 2.89934 -2.6708 0
M  V30 1211 H 110.947 4.0431 -3.08887 0
M  V30 1212 H 110.345 5.64669 -0.341427 0
M  V30 1213 H 108.902 6.4716 -0.776346 0
M  V30 1214 N 112.336 1.25143 0.95797 0
M  V30 1215 C 113.283 1.05235 2.05412 0
M  V30 1216 C 114.253 -0.0374561 1.66058 0
M  V30 1217 O 115.438 0.119073 1.90428 0
M  V30 1218 C 112.578 0.673589 3.38462 0
M  V30 1219 C 111.691 1.8379 3.90954 0
M  V30 1220 C 110.826 1.40381 5.12315 0
M  V30 1221 C 109.865 2.53746 5.57027 0
M  V30 1222 N 109.002 2.11136 6.69601 0
M  V30 1223 H 113.842 1.99048 2.21774 0
M  V30 1224 H 111.379 0.991277 1.08683 0
M  V30 1225 H 113.337 0.434964 4.14926 0
M  V30 1226 H 111.967 -0.227554 3.21997 0
M  V30 1227 H 111.019 2.18992 3.11041 0
M  V30 1228 H 112.331 2.68937 4.20089 0
M  V30 1229 H 111.485 1.12464 5.96185 0
M  V30 1230 H 110.224 0.523015 4.84887 0
M  V30 1231 H 109.229 2.82412 4.71724 0
M  V30 1232 H 110.454 3.42398 5.86464 0
M  V30 1233 H 108.4 1.25468 6.4389 0
M  V30 1234 H 108.317 2.89832 6.98236 0
M  V30 1235 H 109.585 1.86385 7.56889 0
M  V30 1236 N 113.814 -1.1601 1.06675 0
M  V30 1237 C 114.761 -2.20525 0.680967 0
M  V30 1238 C 115.731 -1.62904 -0.324283 0
M  V30 1239 O 116.916 -1.89615 -0.212294 0
M  V30 1240 C 114.056 -3.45013 0.0776551 0
M  V30 1241 C 113.169 -4.16863 1.13355 0
M  V30 1242 C 112.304 -5.2888 0.49597 0
M  V30 1243 C 111.343 -5.92537 1.53513 0
M  V30 1244 N 110.48 -6.96038 0.920631 0
M  V30 1245 H 115.32 -2.52876 1.57663 0
M  V30 1246 H 112.857 -1.24199 0.788223 0
M  V30 1247 H 114.815 -4.16193 -0.289704 0
M  V30 1248 H 113.445 -3.132 -0.781393 0
M  V30 1249 H 112.497 -3.44248 1.61857 0
M  V30 1250 H 113.809 -4.60294 1.92174 0
M  V30 1251 H 112.963 -6.06653 0.0758604 0
M  V30 1252 H 111.702 -4.86622 -0.324062 0
M  V30 1253 H 110.707 -5.13482 1.9651 0
M  V30 1254 H 111.932 -6.36873 2.35733 0
M  V30 1255 H 109.878 -6.55888 0.12138 0
M  V30 1256 H 109.795 -7.3786 1.64616 0
M  V30 1257 H 111.063 -7.77725 0.525795 0
M  V30 1258 N 115.292 -0.849877 -1.32721 0
M  V30 1259 C 116.54 -0.450032 -1.97026 0
M  V30 1260 C 116.861 0.996604 -1.67609 0
M  V30 1261 O 116.131 1.6958 -0.980786 0
M  V30 1262 H 114.711 -0.163426 -0.728904 0
M  V30 1263 H 117.373 -1.08526 -1.6189 0
M  V30 1264 H 116.469 -0.591146 -3.0645 0
M  V30 1265 N 116.77 1.45427 -0.607355 0
M  V30 1266 C 118.017 2.02241 -0.102455 0
M  V30 1267 C 118.345 1.4758 1.26691 0
M  V30 1268 O 117.6 0.640468 1.84923 0
M  V30 1269 C 117.899 3.57398 -0.0129263 0
M  V30 1270 C 117.565 4.3121 -1.31792 0
M  V30 1271 C 116.227 4.51092 -1.67539 0
M  V30 1272 C 118.579 4.73401 -2.18039 0
M  V30 1273 C 115.907 5.10422 -2.89285 0
M  V30 1274 C 118.259 5.34078 -3.39034 0
M  V30 1275 C 116.923 5.52184 -3.75033 0
M  V30 1276 H 116.193 0.740051 -0.037491 0
M  V30 1277 H 118.84 1.74494 -0.788926 0
M  V30 1278 H 117.145 3.84421 0.756806 0
M  V30 1279 H 118.842 3.99061 0.393881 0
M  V30 1280 H 115.432 4.16047 -1.02968 0
M  V30 1281 H 119.616 4.57774 -1.91721 0
M  V30 1282 H 114.872 5.22629 -3.17283 0
M  V30 1283 H 119.046 5.65724 -4.06115 0
M  V30 1284 H 116.673 5.97925 -4.69457 0
M  V30 1285 N 118.248 0.346503 1.53744 0
M  V30 1286 C 119.496 -0.248612 2.00565 0
M  V30 1287 C 119.817 -1.5083 1.23593 0
M  V30 1288 O 119.087 -1.92858 0.343912 0
M  V30 1289 H 117.667 -0.0948564 0.740953 0
M  V30 1290 H 120.329 0.468341 1.89189 0
M  V30 1291 H 119.425 -0.488994 3.08245 0
M  V30 1292 N 119.726 -1.57421 0.075193 0
M  V30 1293 C 120.673 -2.12915 -0.890843 0
M  V30 1294 C 121.643 -1.04252 -1.29309 0
M  V30 1295 O 122.828 -1.31933 -1.37834 0
M  V30 1296 C 119.968 -2.69795 -2.15186 0
M  V30 1297 C 119.081 -3.92624 -1.80194 0
M  V30 1298 C 118.216 -4.37736 -3.00933 0
M  V30 1299 C 117.255 -5.53205 -2.61974 0
M  V30 1300 N 116.392 -5.9326 -3.75483 0
M  V30 1301 H 121.232 -2.95156 -0.410735 0
M  V30 1302 H 118.769 -1.45854 -0.191086 0
M  V30 1303 H 120.727 -3.00883 -2.89008 0
M  V30 1304 H 119.357 -1.90313 -2.60731 0
M  V30 1305 H 118.409 -3.67977 -0.964218 0
M  V30 1306 H 119.721 -4.76482 -1.47534 0
M  V30 1307 H 118.875 -4.70503 -3.8303 0
M  V30 1308 H 117.614 -3.52739 -3.36789 0
M  V30 1309 H 116.619 -5.20086 -1.783 0
M  V30 1310 H 117.844 -6.39936 -2.27284 0
M  V30 1311 H 115.79 -5.11212 -4.11094 0
M  V30 1312 H 115.707 -6.71865 -3.46602 0
M  V30 1313 H 116.975 -6.30651 -4.58148 0
M  V30 1314 N 121.204 0.198386 -1.56346 0
M  V30 1315 C 122.136 1.26987 -1.90806 0
M  V30 1316 C 123.149 1.41877 -0.798419 0
M  V30 1317 O 124.338 1.42362 -1.07682 0
M  V30 1318 C 121.438 2.64246 -2.12196 0
M  V30 1319 C 120.611 2.71007 -3.43328 0
M  V30 1320 C 119.67 3.89439 -3.5387 0
M  V30 1321 O 118.696 3.76695 -4.26719 0
M  V30 1322 N 119.898 5.04752 -2.86715 0
M  V30 1323 H 122.663 0.977433 -2.83313 0
M  V30 1324 H 120.224 0.388322 -1.57174 0
M  V30 1325 H 122.216 3.41896 -2.1654 0
M  V30 1326 H 120.786 2.85992 -1.26204 0
M  V30 1327 H 120.006 1.79657 -3.50881 0
M  V30 1328 H 121.294 2.72512 -4.29668 0
M  V30 1329 H 120.692 5.18004 -2.2735 0
M  V30 1330 H 119.249 5.8036 -2.96691 0
M  V30 1331 N 122.682 1.50554 0.465978 0
M  V30 1332 C 123.612 1.72722 1.57128 0
M  V30 1333 C 124.593 0.576294 1.6004 0
M  V30 1334 O 125.778 0.81598 1.76225 0
M  V30 1335 C 122.908 1.82605 2.95419 0
M  V30 1336 C 121.862 2.97835 3.07373 0
M  V30 1337 C 121.188 2.92867 4.47363 0
M  V30 1338 C 122.488 4.38265 2.84114 0
M  V30 1339 H 124.182 2.65267 1.38829 0
M  V30 1340 H 121.728 1.2765 0.666441 0
M  V30 1341 H 123.681 1.96698 3.72677 0
M  V30 1342 H 122.405 0.866858 3.14886 0
M  V30 1343 H 121.064 2.83401 2.3255 0
M  V30 1344 H 120.712 1.94783 4.63755 0
M  V30 1345 H 120.412 3.70227 4.56296 0
M  V30 1346 H 121.936 3.09015 5.26633 0
M  V30 1347 H 123.35 4.53198 3.51118 0
M  V30 1348 H 121.747 5.17115 3.04487 0
M  V30 1349 H 122.817 4.50281 1.7993 0
M  V30 1350 N 124.16 -0.719506 1.40217 0
M  V30 1351 C 125.406 -1.48152 1.38488 0
M  V30 1352 C 125.739 -1.94195 -0.0141867 0
M  V30 1353 O 125.014 -1.67884 -0.982096 0
M  V30 1354 C 125.297 -2.71035 2.37091 0
M  V30 1355 C 125.15 -2.30912 3.86005 0
M  V30 1356 C 126.469 -3.73182 2.33288 0
M  V30 1357 H 123.588 -0.537395 0.504357 0
M  V30 1358 H 126.23 -0.821472 1.71324 0
M  V30 1359 H 124.38 -3.27352 2.0922 0
M  V30 1360 H 126.052 -1.80107 4.24687 0
M  V30 1361 H 124.295 -1.62958 4.02029 0
M  V30 1362 H 124.966 -3.18978 4.50508 0
M  V30 1363 H 127.442 -3.26485 2.57966 0
M  V30 1364 H 126.318 -4.56806 3.04334 0
M  V30 1365 H 126.579 -4.21202 1.34317 0
M  V30 1366 N 125.638 -1.25649 -0.95132 0
M  V30 1367 C 126.568 -1.08808 -2.06599 0
M  V30 1368 C 127.549 0.00382547 -1.701 0
M  V30 1369 O 128.734 -0.166325 -1.93486 0
M  V30 1370 C 125.864 -0.709542 -3.39975 0
M  V30 1371 C 124.818 -1.75206 -3.90496 0
M  V30 1372 C 124.144 -1.22811 -5.20405 0
M  V30 1373 C 125.444 -3.15153 -4.16504 0
M  V30 1374 H 127.138 -2.02048 -2.20946 0
M  V30 1375 H 124.684 -0.972835 -1.06169 0
M  V30 1376 H 126.637 -0.578649 -4.17408 0
M  V30 1377 H 125.361 0.258556 -3.25575 0
M  V30 1378 H 124.02 -1.87145 -3.15234 0
M  V30 1379 H 123.668 -0.250145 -5.02378 0
M  V30 1380 H 123.368 -1.92492 -5.55176 0
M  V30 1381 H 124.892 -1.10968 -6.00432 0
M  V30 1382 H 126.306 -3.06349 -4.84586 0
M  V30 1383 H 124.703 -3.82333 -4.62538 0
M  V30 1384 H 125.773 -3.61966 -3.22658 0
M  V30 1385 N 127.117 1.15442 -1.07289 0
M  V30 1386 C 128.394 1.82306 -0.708792 0
M  V30 1387 C 128.774 1.94991 0.808807 0
M  V30 1388 O 128.122 1.50085 1.72298 0
M  V30 1389 C 128.332 3.18695 -1.42247 0
M  V30 1390 C 129.68 3.94341 -1.57417 0
M  V30 1391 O 130.704 3.28247 -1.38319 0
M  V30 1392 O 129.563 5.12839 -1.88834 0
M  V30 1393 H 126.657 0.787628 -0.252132 0
M  V30 1394 H 129.203 1.22559 -1.17377 0
M  V30 1395 H 127.975 3.04557 -2.45684 0
M  V30 1396 H 127.598 3.86128 -0.948223 0
M  V30 1397 N 128.595 0.856903 1.32268 0
M  V30 1398 C 129.558 0.308171 2.27119 0
M  V30 1399 C 130.558 -0.533421 1.51695 0
M  V30 1400 O 131.748 -0.344607 1.70757 0
M  V30 1401 C 128.88 -0.563757 3.36206 0
M  V30 1402 H 130.073 1.14535 2.77167 0
M  V30 1403 H 127.626 0.631421 1.42978 0
M  V30 1404 H 128.361 -1.42266 2.91429 0
M  V30 1405 H 128.146 0.0386749 3.92081 0
M  V30 1406 H 129.636 -0.940386 4.06874 0
M  V30 1407 N 130.073 -1.45103 0.615059 0
M  V30 1408 C 131.322 -2.01396 0.110718 0
M  V30 1409 C 131.635 -1.48834 -1.26916 0
M  V30 1410 O 132.841 -1.97152 -1.86664 0
M  V30 1411 C 131.297 -3.59599 0.14723 0
M  V30 1412 C 130.905 -4.21158 1.52743 0
M  V30 1413 C 132.649 -4.23428 -0.30148 0
M  V30 1414 C 130.556 -5.71535 1.51992 0
M  V30 1415 H 129.486 -0.753061 0.0376241 0
M  V30 1416 H 132.137 -1.66494 0.77149 0
M  V30 1417 H 130.519 -3.91724 -0.580339 0
M  V30 1418 H 131.693 -4.00594 2.2773 0
M  V30 1419 H 130.008 -3.69552 1.91886 0
M  V30 1420 H 132.605 -5.33703 -0.326392 0
M  V30 1421 H 132.948 -3.94629 -1.32565 0
M  V30 1422 H 133.481 -3.96047 0.373065 0
M  V30 1423 H 130.22 -6.05044 2.52193 0
M  V30 1424 H 129.74 -5.94268 0.81274 0
M  V30 1425 H 131.419 -6.34873 1.24681 0
M  V30 1426 N 131.551 -0.354651 -1.53558 0
M  V30 1427 C 132.461 0.50515 -2.29097 0
M  V30 1428 C 133.477 1.10223 -1.34636 0
M  V30 1429 O 134.653 1.11553 -1.67684 0
M  V30 1430 C 131.718 1.63479 -3.05738 0
M  V30 1431 C 130.779 1.06636 -4.15845 0
M  V30 1432 C 130.012 2.14217 -4.88822 0
M  V30 1433 O 130.235 3.35137 -4.61562 0
M  V30 1434 O 129.169 1.77887 -5.75013 0
M  V30 1435 H 132.995 -0.109237 -3.03503 0
M  V30 1436 H 130.58 -0.119357 -1.48922 0
M  V30 1437 H 132.462 2.2918 -3.5363 0
M  V30 1438 H 131.137 2.23478 -2.34178 0
M  V30 1439 H 130.044 0.373565 -3.7223 0
M  V30 1440 H 131.377 0.511081 -4.89539 0
M  V30 1441 N 133.029 1.57378 -0.0835403 0
M  V30 1442 C 133.976 2.13384 0.879539 0
M  V30 1443 C 134.946 1.04936 1.28754 0
M  V30 1444 O 136.131 1.32662 1.37133 0
M  V30 1445 C 133.271 2.70932 2.13752 0
M  V30 1446 C 132.384 3.93575 1.7811 0
M  V30 1447 C 131.519 4.39326 2.98607 0
M  V30 1448 C 130.558 5.54587 2.59037 0
M  V30 1449 N 129.695 5.95243 3.72331 0
M  V30 1450 H 134.535 2.9537 0.395076 0
M  V30 1451 H 132.072 1.45953 0.183349 0
M  V30 1452 H 134.03 3.02411 2.87408 0
M  V30 1453 H 132.66 1.91693 2.59718 0
M  V30 1454 H 131.712 3.68483 0.94469 0
M  V30 1455 H 133.024 4.77258 1.45005 0
M  V30 1456 H 132.178 4.72528 3.80529 0
M  V30 1457 H 130.917 3.5452 3.34913 0
M  V30 1458 H 129.922 5.21024 1.75539 0
M  V30 1459 H 131.147 6.41133 2.23887 0
M  V30 1460 H 129.093 5.13385 4.08378 0
M  V30 1461 H 129.01 6.73694 3.43034 0
M  V30 1462 H 130.278 6.33072 4.54797 0
M  V30 1463 N 134.507 -0.190092 1.56449 0
M  V30 1464 C 135.47 -1.21925 1.9408 0
M  V30 1465 C 136.47 -1.38176 0.822431 0
M  V30 1466 O 137.66 -1.35903 1.08977 0
M  V30 1467 C 134.792 -2.58773 2.21922 0
M  V30 1468 H 135.985 -0.897464 2.86157 0
M  V30 1469 H 133.538 -0.43181 1.50217 0
M  V30 1470 H 134.273 -2.95998 1.32499 0
M  V30 1471 H 134.058 -2.48348 3.03424 0
M  V30 1472 H 135.548 -3.32978 2.52022 0
M  V30 1473 N 135.985 -1.50799 -0.457987 0
M  V30 1474 C 136.932 -1.70617 -1.5543 0
M  V30 1475 C 137.902 -0.547562 -1.56815 0
M  V30 1476 O 139.087 -0.779647 -1.74144 0
M  V30 1477 C 136.227 -1.81831 -2.93311 0
M  V30 1478 C 135.34 -3.09278 -3.01615 0
M  V30 1479 C 134.475 -3.11209 -4.30491 0
M  V30 1480 C 133.514 -4.33055 -4.32585 0
M  V30 1481 N 132.651 -4.32652 -5.52952 0
M  V30 1482 H 137.491 -2.64207 -1.37836 0
M  V30 1483 H 135.028 -1.30959 -0.669937 0
M  V30 1484 H 136.986 -1.86314 -3.73287 0
M  V30 1485 H 135.616 -0.916685 -3.0951 0
M  V30 1486 H 134.668 -3.14203 -2.1443 0
M  V30 1487 H 135.98 -3.99233 -2.99022 0
M  V30 1488 H 135.134 -3.14494 -5.18824 0
M  V30 1489 H 133.873 -2.19106 -4.35711 0
M  V30 1490 H 132.878 -4.29969 -3.42647 0
M  V30 1491 H 134.103 -5.264 -4.29046 0
M  V30 1492 H 132.049 -3.43409 -5.58933 0
M  V30 1493 H 131.966 -5.16392 -5.52155 0
M  V30 1494 H 133.234 -4.40101 -6.43375 0
M  V30 1495 N 137.463 0.71206 -1.40597 0
M  V30 1496 C 138.41 1.82613 -1.41142 0
M  V30 1497 C 139.38 1.63925 -0.267903 0
M  V30 1498 O 140.565 1.85009 -0.466495 0
M  V30 1499 C 137.705 3.20354 -1.28324 0
M  V30 1500 C 136.818 3.50589 -2.52411 0
M  V30 1501 C 135.953 4.77855 -2.32009 0
M  V30 1502 C 134.992 5.01005 -3.51654 0
M  V30 1503 N 134.129 6.19487 -3.30425 0
M  V30 1504 H 138.969 1.81482 -2.36365 0
M  V30 1505 H 136.506 0.886475 -1.17388 0
M  V30 1506 H 138.464 3.99899 -1.18899 0
M  V30 1507 H 137.094 3.20705 -0.367189 0
M  V30 1508 H 136.146 2.65573 -2.72351 0
M  V30 1509 H 137.458 3.63604 -3.41458 0
M  V30 1510 H 136.612 5.65424 -2.19956 0
M  V30 1511 H 135.351 4.67056 -1.40392 0
M  V30 1512 H 134.356 4.1189 -3.64179 0
M  V30 1513 H 135.581 5.13674 -4.44202 0
M  V30 1514 H 133.527 6.09932 -2.41494 0
M  V30 1515 H 133.444 6.33194 -4.13039 0
M  V30 1516 H 134.712 7.09834 -3.22113 0
M  V30 1517 N 138.941 1.26152 0.944643 0
M  V30 1518 C 139.871 1.09902 2.06019 0
M  V30 1519 C 140.852 0.00519538 1.70099 0
M  V30 1520 O 142.037 0.176583 1.93396 0
M  V30 1521 C 139.167 0.727562 3.39594 0
M  V30 1522 C 138.121 1.77274 3.89561 0
M  V30 1523 C 137.447 1.25569 5.19747 0
M  V30 1524 C 138.747 3.17357 4.14827 0
M  V30 1525 H 140.441 2.03217 2.19871 0
M  V30 1526 H 137.987 0.978452 1.05652 0
M  V30 1527 H 139.94 0.600777 4.17095 0
M  V30 1528 H 138.664 -0.241287 3.25707 0
M  V30 1529 H 137.323 1.88814 3.14237 0
M  V30 1530 H 136.971 0.276783 5.02238 0
M  V30 1531 H 136.671 1.95433 5.54148 0
M  V30 1532 H 138.195 1.1415 5.99835 0
M  V30 1533 H 139.609 3.08914 4.82954 0
M  V30 1534 H 138.006 3.84781 4.60504 0
M  V30 1535 H 139.076 3.63673 3.20734 0
M  V30 1536 N 140.419 -1.14872 1.07899 0
M  V30 1537 C 141.667 -1.85422 0.803941 0
M  V30 1538 C 141.988 -1.83051 -0.67211 0
M  V30 1539 O 141.258 -1.27532 -1.48703 0
M  V30 1540 H 139.838 -0.686537 0.294408 0
M  V30 1541 H 142.5 -1.39226 1.3639 0
M  V30 1542 H 141.596 -2.90399 1.14346 0
M  V30 1543 N 141.898 -0.863906 -1.31812 0
M  V30 1544 C 142.861 -0.320212 -2.26952 0
M  V30 1545 C 143.861 0.525369 -1.51975 0
M  V30 1546 O 145.051 0.335547 -1.70938 0
M  V30 1547 C 142.183 0.545919 -3.365 0
M  V30 1548 H 143.376 -1.16004 -2.76556 0
M  V30 1549 H 140.929 -0.638995 -1.42641 0
M  V30 1550 H 141.664 1.40718 -2.92179 0
M  V30 1551 H 141.449 -0.0594674 -3.92055 0
M  V30 1552 H 142.939 0.918796 -4.07367 0
M  V30 1553 N 143.376 1.44774 -0.622745 0
M  V30 1554 C 144.653 1.95522 -0.0551974 0
M  V30 1555 C 145.033 1.5649 1.41683 0
M  V30 1556 O 144.381 0.834848 2.12703 0
M  V30 1557 C 144.591 3.4796 -0.269242 0
M  V30 1558 C 145.939 4.24306 -0.158014 0
M  V30 1559 O 146.963 3.55637 -0.200162 0
M  V30 1560 O 145.822 5.46471 -0.0558693 0
M  V30 1561 H 142.916 0.826556 0.0271015 0
M  V30 1562 H 145.462 1.54866 -0.693864 0
M  V30 1563 H 144.234 3.6939 -1.29099 0
M  V30 1564 H 143.857 3.95543 0.403966 0
M  V30 1565 N 144.854 0.36279 1.53368 0
M  V30 1566 C 146.082 -0.228613 2.05633 0
M  V30 1567 C 146.497 -1.42676 1.23649 0
M  V30 1568 O 145.854 -1.80394 0.27647 0
M  V30 1569 C 145.905 -0.624845 3.56059 0
M  V30 1570 O 145.626 0.525675 4.34935 0
M  V30 1571 C 147.127 -1.27493 4.24571 0
M  V30 1572 H 144.347 -0.0407183 0.669763 0
M  V30 1573 H 146.891 0.520352 1.97769 0
M  V30 1574 H 145.046 -1.32373 3.64083 0
M  V30 1575 H 145.46 0.205969 5.24095 0
M  V30 1576 H 146.934 -1.50277 5.31151 0
M  V30 1577 H 147.411 -2.23439 3.78116 0
M  V30 1578 H 148.017 -0.617558 4.20792 0
M  V30 1579 N 146.332 -1.57332 0.0918853 0
M  V30 1580 C 147.581 -1.93412 -0.572249 0
M  V30 1581 C 147.894 -0.975515 -1.69538 0
M  V30 1582 O 149.1 -1.22991 -2.42045 0
M  V30 1583 C 147.556 -3.43648 -1.0693 0
M  V30 1584 C 147.164 -4.47994 0.0239049 0
M  V30 1585 C 148.908 -3.88695 -1.70635 0
M  V30 1586 C 146.815 -5.89381 -0.488319 0
M  V30 1587 H 145.745 -0.721939 -0.217532 0
M  V30 1588 H 148.396 -1.82735 0.167369 0
M  V30 1589 H 146.778 -3.49466 -1.8625 0
M  V30 1590 H 147.952 -4.53815 0.799277 0
M  V30 1591 H 146.267 -4.12536 0.565946 0
M  V30 1592 H 148.864 -4.91725 -2.10025 0
M  V30 1593 H 149.207 -3.27166 -2.57426 0
M  V30 1594 H 149.74 -3.85564 -0.979023 0
M  V30 1595 H 146.479 -6.54602 0.342906 0
M  V30 1596 H 145.999 -5.87037 -1.23077 0
M  V30 1597 H 147.678 -6.39863 -0.958317 0
M  V30 1598 N 147.81 0.181792 -1.56548 0
M  V30 1599 C 148.72 1.24538 -1.98815 0
M  V30 1600 C 149.736 1.49045 -0.897861 0
M  V30 1601 O 150.912 1.61399 -1.20467 0
M  V30 1602 C 147.977 2.56683 -2.33055 0
M  V30 1603 C 147.038 2.40131 -3.55859 0
M  V30 1604 C 146.271 3.65975 -3.88456 0
M  V30 1605 O 146.494 4.70711 -3.22161 0
M  V30 1606 O 145.428 3.6071 -4.81842 0
M  V30 1607 H 149.254 0.916647 -2.89536 0
M  V30 1608 H 146.839 0.387842 -1.44278 0
M  V30 1609 H 148.721 3.34655 -2.56094 0
M  V30 1610 H 147.396 2.89157 -1.45498 0
M  V30 1611 H 146.303 1.60226 -3.38051 0
M  V30 1612 H 147.636 2.12585 -4.43924 0
M  V30 1613 N 149.288 1.51039 0.449983 0
M  V30 1614 C 150.537 1.62317 1.19733 0
M  V30 1615 C 150.85 0.339101 1.92638 0
M  V30 1616 O 152.056 0.331069 2.69474 0
M  V30 1617 C 150.512 2.86608 2.17678 0
M  V30 1618 C 150.12 4.21972 1.50479 0
M  V30 1619 C 151.864 3.07239 2.92924 0
M  V30 1620 C 149.771 5.37426 2.46834 0
M  V30 1621 H 148.701 0.604532 0.450619 0
M  V30 1622 H 151.352 1.77494 0.465625 0
M  V30 1623 H 149.734 2.65037 2.94231 0
M  V30 1624 H 150.908 4.53878 0.795716 0
M  V30 1625 H 149.223 4.07117 0.874344 0
M  V30 1626 H 151.82 3.90668 3.65079 0
M  V30 1627 H 152.163 2.19807 3.5354 0
M  V30 1628 H 152.696 3.29091 2.23481 0
M  V30 1629 H 149.435 6.27079 1.90926 0
M  V30 1630 H 148.955 5.09912 3.15832 0
M  V30 1631 H 150.634 5.68862 3.08228 0
M  V30 1632 N 150.766 -0.704594 1.40972 0
M  V30 1633 C 152.014 -1.46169 1.39568 0
M  V30 1634 C 152.335 -1.95 0.00253745 0
M  V30 1635 O 151.605 -1.71095 -0.954114 0
M  V30 1636 H 150.185 -0.542326 0.513704 0
M  V30 1637 H 152.847 -0.834553 1.76128 0
M  V30 1638 H 151.943 -2.32922 2.07735 0
M  V30 1639 N 152.244 -1.26651 -0.937939 0
M  V30 1640 C 153.472 -1.15173 -1.7188 0
M  V30 1641 C 153.887 0.292668 -1.86518 0
M  V30 1642 O 153.244 1.20014 -1.37488 0
M  V30 1643 C 153.295 -1.81925 -3.12387 0
M  V30 1644 O 153.016 -3.2072 -2.98446 0
M  V30 1645 C 154.517 -1.76442 -4.06673 0
M  V30 1646 H 151.737 -0.400911 -0.538063 0
M  V30 1647 H 154.281 -1.67332 -1.1756 0
M  V30 1648 H 152.436 -1.33696 -3.63599 0
M  V30 1649 H 152.85 -3.53802 -3.872 0
M  V30 1650 H 154.324 -2.27781 -5.02812 0
M  V30 1651 H 154.801 -0.731608 -4.33064 0
M  V30 1652 H 155.407 -2.24238 -3.61382 0
M  V30 1653 N 153.722 1.14298 -1.08507 0
M  V30 1654 C 154.97 1.84993 -0.813763 0
M  V30 1655 C 155.291 1.83405 0.662393 0
M  V30 1656 O 154.561 1.28319 1.48024 0
M  V30 1657 H 153.141 0.684966 -0.298045 0
M  V30 1658 H 155.803 1.385 -1.37126 0
M  V30 1659 H 154.899 2.89788 -1.15884 0
M  V30 1660 N 155.201 0.870884 1.31352 0
M  V30 1661 C 156.149 0.316445 2.30437 0
M  V30 1662 C 157.143 -0.568965 1.59559 0
M  V30 1663 O 158.349 -0.454964 1.74155 0
M  V30 1664 H 154.724 0.0836521 0.747333 0
M  V30 1665 H 156.695 1.16606 2.74673 0
M  V30 1666 C 155.444 -0.46635 3.44558 0
M  V30 1667 H 154.767 0.205687 3.99271 0
M  V30 1668 H 156.207 -0.819614 4.16003 0
M  V30 1669 C 154.666 -1.65797 2.9328 0
M  V30 1670 O 155.196 -2.75728 2.92125 0
M  V30 1671 N 153.402 -1.49041 2.4947 0
M  V30 1672 H 152.949 -0.59612 2.50608 0
M  V30 1673 H 152.907 -2.28911 2.15516 0
M  V30 1674 N 156.679 -1.44442 0.630414 0
M  V30 1675 C 157.904 -2.06927 0.139944 0
M  V30 1676 C 158.329 -1.46795 -1.17613 0
M  V30 1677 O 157.687 -0.569144 -1.72135 0
M  V30 1678 C 157.735 -3.6058 0.0379581 0
M  V30 1679 O 156.839 -3.99937 -1.0062 0
M  V30 1680 H 156.18 -0.658608 0.0844483 0
M  V30 1681 H 158.71 -1.85327 0.866891 0
M  V30 1682 H 158.72 -4.07714 -0.152856 0
M  V30 1683 H 157.395 -4.03728 0.998809 0
M  V30 1684 H 155.972 -3.64436 -0.79001 0
M  V30 1685 N 158.157 -0.370918 -1.53173 0
M  V30 1686 C 159.382 0.220293 -2.06227 0
M  V30 1687 C 159.807 1.41243 -1.24225 0
M  V30 1688 O 159.165 1.79387 -0.262645 0
M  V30 1689 C 159.213 0.586663 -3.55796 0
M  V30 1690 O 158.317 1.68317 -3.76488 0
M  V30 1691 H 157.658 0.0308099 -0.663285 0
M  V30 1692 H 160.188 -0.533068 -1.97534 0
M  V30 1693 H 160.198 0.85617 -3.98916 0
M  V30 1694 H 158.873 -0.285013 -4.14922 0
M  V30 1695 H 157.45 1.40881 -3.45264 0
M  V30 1696 N 159.635 1.57281 -0.100228 0
M  V30 1697 C 160.884 1.93713 0.561984 0
M  V30 1698 C 161.197 0.984492 1.69018 0
M  V30 1699 O 162.403 1.24273 2.41389 0
M  V30 1700 C 160.859 3.4421 1.05106 0
M  V30 1701 C 160.467 4.47975 -0.0476628 0
M  V30 1702 C 162.211 3.89595 1.68571 0
M  V30 1703 C 160.118 5.89631 0.457055 0
M  V30 1704 H 159.048 0.723082 0.2137 0
M  V30 1705 H 161.699 1.82644 -0.177057 0
M  V30 1706 H 160.081 3.50449 1.84395 0
M  V30 1707 H 161.255 4.53385 -0.823333 0
M  V30 1708 H 159.57 4.1223 -0.587816 0
M  V30 1709 H 162.167 4.92832 2.07414 0
M  V30 1710 H 162.51 3.28526 2.55688 0
M  V30 1711 H 163.043 3.86078 0.958562 0
M  V30 1712 H 159.782 6.54411 -0.377616 0
M  V30 1713 H 159.302 5.87681 1.19962 0
M  V30 1714 H 160.981 6.40363 0.92437 0
M  V30 1715 N 161.113 -0.173488 1.56642 0
M  V30 1716 C 162.063 -1.21941 1.92651 0
M  V30 1717 C 163.047 -1.39912 0.794577 0
M  V30 1718 O 164.239 -1.41919 1.05773 0
M  V30 1719 C 161.368 -2.55935 2.28806 0
M  V30 1720 C 160.454 -2.41667 3.48508 0
M  V30 1721 N 160.845 -1.9711 4.65813 0
M  V30 1722 C 159.143 -2.72499 3.53072 0
M  V30 1723 C 159.844 -1.95253 5.47952 0
M  V30 1724 N 158.82 -2.37575 4.88937 0
M  V30 1725 H 162.622 -0.866581 2.80834 0
M  V30 1726 H 160.136 -0.381776 1.57849 0
M  V30 1727 H 162.133 -3.31511 2.52797 0
M  V30 1728 H 160.793 -2.92022 1.41961 0
M  V30 1729 H 161.804 -1.67481 4.90072 0
M  V30 1730 H 158.481 -3.12639 2.767 0
M  V30 1731 H 159.871 -1.6252 6.51948 0
M  V30 1732 N 162.591 -1.51276 -0.441967 0
M  V30 1733 C 163.523 -1.68444 -1.55433 0
M  V30 1734 C 164.536 -0.565187 -1.52674 0
M  V30 1735 O 165.725 -0.839356 -1.57534 0
M  V30 1736 C 162.825 -1.67966 -2.94348 0
M  V30 1737 C 161.998 -2.964 -3.21661 0
M  V30 1738 C 161.057 -2.88171 -4.40277 0
M  V30 1739 O 160.083 -3.62119 -4.39157 0
M  V30 1740 N 161.285 -2.03706 -5.43584 0
M  V30 1741 H 164.05 -2.644 -1.41112 0
M  V30 1742 H 161.611 -1.49104 -0.630838 0
M  V30 1743 H 163.603 -1.60035 -3.71713 0
M  V30 1744 H 162.173 -0.796225 -3.0229 0
M  V30 1745 H 161.393 -3.18234 -2.32638 0
M  V30 1746 H 162.681 -3.81427 -3.36736 0
M  V30 1747 H 162.079 -1.42995 -5.47329 0
M  V30 1748 H 160.636 -2.01658 -6.1982 0
M  V30 1749 N 164.069 0.697108 -1.41344 0
M  V30 1750 C 164.999 1.82353 -1.45841 0
M  V30 1751 C 165.98 1.67115 -0.317247 0
M  V30 1752 O 167.165 1.86871 -0.528474 0
M  V30 1753 C 164.295 3.20476 -1.33838 0
M  V30 1754 C 163.249 3.50415 -2.4575 0
M  V30 1755 C 162.575 4.87878 -2.18813 0
M  V30 1756 C 163.875 3.49546 -3.88091 0
M  V30 1757 H 165.569 1.78846 -2.40113 0
M  V30 1758 H 163.115 0.859028 -1.15571 0
M  V30 1759 H 165.068 3.98988 -1.35596 0
M  V30 1760 H 163.792 3.24604 -0.360498 0
M  V30 1761 H 162.451 2.74253 -2.43271 0
M  V30 1762 H 162.099 4.8863 -1.19371 0
M  V30 1763 H 161.799 5.08875 -2.93803 0
M  V30 1764 H 163.323 5.68702 -2.22284 0
M  V30 1765 H 164.737 4.18066 -3.92293 0
M  V30 1766 H 163.134 3.82075 -4.62751 0
M  V30 1767 H 164.204 2.48552 -4.16353 0
M  V30 1768 N 165.547 1.27147 0.931209 0
M  V30 1769 C 166.772 1.16191 1.71797 0
M  V30 1770 C 167.197 -0.278004 1.86034 0
M  V30 1771 O 166.555 -1.20137 1.35782 0
M  V30 1772 C 166.603 1.84673 3.09723 0
M  V30 1773 O 165.707 1.14231 3.96264 0
M  V30 1774 H 165.048 0.404303 0.526721 0
M  V30 1775 H 167.578 1.68152 1.1656 0
M  V30 1776 H 167.588 1.91893 3.60057 0
M  V30 1777 H 166.263 2.89421 2.98677 0
M  V30 1778 H 164.84 1.15056 3.54706 0
M  V30 1779 N 167.025 -1.13721 1.09112 0
M  V30 1780 C 167.955 -2.21148 0.749385 0
M  V30 1781 C 168.936 -1.6792 -0.271475 0
M  V30 1782 O 170.121 -1.93693 -0.140251 0
M  V30 1783 C 167.251 -3.46905 0.165659 0
M  V30 1784 C 166.205 -4.13203 1.11567 0
M  V30 1785 C 165.531 -5.33248 0.393809 0
M  V30 1786 C 166.831 -4.60912 2.45678 0
M  V30 1787 H 168.525 -2.4999 1.64758 0
M  V30 1788 H 166.071 -1.20156 0.793626 0
M  V30 1789 H 168.024 -4.21313 -0.085466 0
M  V30 1790 H 166.748 -3.17449 -0.767714 0
M  V30 1791 H 165.407 -3.40758 1.35202 0
M  V30 1792 H 165.055 -5.00054 -0.543599 0
M  V30 1793 H 164.755 -5.78552 1.02721 0
M  V30 1794 H 166.279 -6.10413 0.150908 0
M  V30 1795 H 167.693 -5.26759 2.26269 0
M  V30 1796 H 166.09 -5.16944 3.04776 0
M  V30 1797 H 167.16 -3.75603 3.06677 0
M  V30 1798 N 168.503 -0.877838 -1.30888 0
M  V30 1799 C 169.733 -0.506678 -2.00291 0
M  V30 1800 C 170.141 0.907449 -1.66018 0
M  V30 1801 O 169.484 1.60719 -0.88967 0
M  V30 1802 C 169.546 -0.59323 -3.54572 0
M  V30 1803 C 169.21 -1.97038 -4.12341 0
M  V30 1804 C 170.207 -2.93889 -4.28865 0
M  V30 1805 C 167.892 -2.27383 -4.47886 0
M  V30 1806 C 169.886 -4.19224 -4.80136 0
M  V30 1807 C 167.573 -3.52965 -4.98857 0
M  V30 1808 C 168.571 -4.48701 -5.14934 0
M  V30 1809 O 168.259 -5.72056 -5.64808 0
M  V30 1810 H 167.991 -0.1951 -0.647234 0
M  V30 1811 H 170.545 -1.18301 -1.6791 0
M  V30 1812 H 168.775 0.140057 -3.86446 0
M  V30 1813 H 170.464 -0.234372 -4.05223 0
M  V30 1814 H 171.23 -2.71756 -4.01714 0
M  V30 1815 H 167.109 -1.53639 -4.34645 0
M  V30 1816 H 170.653 -4.93956 -4.92599 0
M  V30 1817 H 166.55 -3.74939 -5.25443 0
M  V30 1818 H 167.318 -5.74337 -5.83163 0
M  V30 1819 N 169.982 1.44106 -0.638065 0
M  V30 1820 C 170.914 2.28976 0.101205 0
M  V30 1821 C 171.927 1.4167 0.802088 0
M  V30 1822 O 173.116 1.65755 0.662375 0
M  V30 1823 C 170.216 3.18217 1.16581 0
M  V30 1824 C 169.389 4.33978 0.546066 0
M  V30 1825 C 168.448 5.04202 1.50554 0
M  V30 1826 O 167.474 5.59986 1.01999 0
M  V30 1827 N 168.676 5.06296 2.8398 0
M  V30 1828 H 171.441 2.93064 -0.627186 0
M  V30 1829 H 169.002 1.54629 -0.479731 0
M  V30 1830 H 170.994 3.62061 1.80815 0
M  V30 1831 H 169.564 2.55833 1.79634 0
M  V30 1832 H 168.784 3.93239 -0.275046 0
M  V30 1833 H 170.072 5.08675 0.112793 0
M  V30 1834 H 169.47 4.62319 3.26002 0
M  V30 1835 H 168.027 5.53907 3.43556 0
M  V30 1836 N 171.46 0.379036 1.52974 0
M  V30 1837 C 172.407 -0.461048 2.26148 0
M  V30 1838 C 173.377 -1.06637 1.27349 0
M  V30 1839 O 174.562 -1.09633 1.56157 0
M  V30 1840 C 171.702 -1.58782 3.06402 0
M  V30 1841 C 170.815 -1.00636 4.20115 0
M  V30 1842 C 169.95 -2.10334 4.87784 0
M  V30 1843 C 168.989 -1.49724 5.93506 0
M  V30 1844 N 168.126 -2.5331 6.54812 0
M  V30 1845 H 172.966 0.169429 2.97518 0
M  V30 1846 H 170.503 0.0953806 1.4679 0
M  V30 1847 H 172.461 -2.25174 3.51215 0
M  V30 1848 H 171.091 -2.18876 2.37261 0
M  V30 1849 H 170.143 -0.232332 3.7969 0
M  V30 1850 H 171.455 -0.523343 4.96047 0
M  V30 1851 H 170.609 -2.84519 5.35849 0
M  V30 1852 H 169.348 -2.61992 4.11353 0
M  V30 1853 H 168.353 -0.740598 5.44789 0
M  V30 1854 H 169.578 -0.988732 6.71864 0
M  V30 1855 H 167.524 -3.04156 5.81227 0
M  V30 1856 H 167.441 -2.09734 7.26325 0
M  V30 1857 H 168.709 -3.27155 7.07524 0
M  V30 1858 N 172.938 -1.57226 0.108567 0
M  V30 1859 C 174.178 -1.96717 -0.555155 0
M  V30 1860 C 174.542 -0.990003 -1.64508 0
M  V30 1861 O 175.743 -1.2739 -2.36696 0
M  V30 1862 C 174.014 -3.40575 -1.08367 0
M  V30 1863 S 175.573 -4.02072 -1.75737 0
M  V30 1864 H 172.391 -0.687638 -0.180762 0
M  V30 1865 H 174.993 -1.94563 0.191172 0
M  V30 1866 H 173.697 -4.0945 -0.279092 0
M  V30 1867 H 173.228 -3.46356 -1.86551 0
M  V30 1868 H 175.243 -3.91977 -3.04251 0
M  V30 1869 N 174.416 0.165178 -1.56732 0
M  V30 1870 C 175.664 0.879068 -1.8198 0
M  V30 1871 C 175.985 1.82514 -0.686561 0
M  V30 1872 O 175.255 1.93694 0.293146 0
M  V30 1873 H 173.835 0.327608 -0.671329 0
M  V30 1874 H 176.497 0.163526 -1.94213 0
M  V30 1875 H 175.593 1.45228 -2.76252 0
M  V30 1876 N 175.894 1.51508 0.433938 0
M  V30 1877 C 177.141 1.64345 1.18309 0
M  V30 1878 C 177.469 0.361315 1.91115 0
M  V30 1879 O 176.724 -0.654753 1.84422 0
M  V30 1880 C 177.023 2.79928 2.22205 0
M  V30 1881 C 176.689 4.19078 1.66387 0
M  V30 1882 C 175.351 4.56932 1.50887 0
M  V30 1883 C 177.703 5.05894 1.25381 0
M  V30 1884 C 175.031 5.79305 0.928608 0
M  V30 1885 C 177.383 6.2885 0.687823 0
M  V30 1886 C 176.047 6.65473 0.519755 0
M  V30 1887 H 175.317 0.601381 0.432923 0
M  V30 1888 H 177.964 1.85549 0.473676 0
M  V30 1889 H 176.269 2.52959 2.99197 0
M  V30 1890 H 177.966 2.87059 2.79997 0
M  V30 1891 H 174.556 3.89234 1.79428 0
M  V30 1892 H 178.74 4.77253 1.36175 0
M  V30 1893 H 173.996 6.06324 0.786186 0
M  V30 1894 H 178.17 6.95461 0.361581 0
M  V30 1895 H 175.797 7.6017 0.0679979 0
M  V30 1896 N 177.372 -0.689602 1.41712 0
M  V30 1897 C 178.788 -1.00093 1.24312 0
M  V30 1898 C 178.988 -2.01036 0.136729 0
M  V30 1899 O 178.044 -2.47562 -0.496918 0
M  V30 1900 C 179.357 -1.51985 2.59463 0
M  V30 1901 C 180.905 -1.63838 2.66695 0
M  V30 1902 C 181.38 -2.1913 4.02177 0
M  V30 1903 N 182.871 -2.26483 4.04054 0
M  V30 1904 C 183.606 -2.70306 5.0569 0
M  V30 1905 N 183.102 -3.13691 6.17713 0
M  V30 1906 N 184.895 -2.69923 4.9305 0
M  V30 1907 H 177.046 -0.0210029 2.1239 0
M  V30 1908 H 179.309 -0.0718733 0.945272 0
M  V30 1909 H 179.015 -0.85269 3.41207 0
M  V30 1910 H 178.889 -2.50103 2.82362 0
M  V30 1911 H 181.276 -2.29664 1.85306 0
M  V30 1912 H 181.357 -0.642492 2.476 0
M  V30 1913 H 181.001 -1.53918 4.84016 0
M  V30 1914 H 180.931 -3.19482 4.18615 0
M  V30 1915 H 183.422 -1.95874 3.23174 0
M  V30 1916 H 183.735 -3.45773 6.9113 0
M  V30 1917 H 182.08 -3.11585 6.21241 0
M  V30 1918 H 185.271 -2.35382 4.04614 0
M  V30 1919 H 185.444 -3.03758 5.72394 0
M  V30 1920 N 178.85 -1.27639 -0.924453 0
M  V30 1921 C 180.099 -1.13549 -1.66702 0
M  V30 1922 C 180.412 0.317487 -1.93006 0
M  V30 1923 O 181.618 0.579333 -2.65247 0
M  V30 1924 C 180.074 -1.98426 -3.00259 0
M  V30 1925 C 179.682 -3.484 -2.81641 0
M  V30 1926 C 181.426 -1.92993 -3.78092 0
M  V30 1927 C 179.333 -4.25464 -4.10773 0
M  V30 1928 H 178.263 -0.421351 -0.625283 0
M  V30 1929 H 180.914 -1.52085 -1.02676 0
M  V30 1930 H 179.296 -1.52736 -3.6536 0
M  V30 1931 H 180.47 -4.01973 -2.25287 0
M  V30 1932 H 178.785 -3.55245 -2.17232 0
M  V30 1933 H 181.382 -2.47844 -4.7379 0
M  V30 1934 H 181.725 -0.904281 -4.0636 0
M  V30 1935 H 182.258 -2.36595 -3.19793 0
M  V30 1936 H 178.997 -5.28566 -3.87683 0
M  V30 1937 H 178.517 -3.76667 -4.66779 0
M  V30 1938 H 180.196 -4.34812 -4.79111 0
M  V30 1939 N 180.328 1.1314 -1.09713 0
M  V30 1940 C 181.26 2.18343 -0.697056 0
M  V30 1941 C 182.273 1.60669 0.262551 0
M  V30 1942 O 183.462 1.78435 0.0481527 0
M  V30 1943 C 180.562 3.38899 -0.00684728 0
M  V30 1944 C 179.735 4.26078 -0.988741 0
M  V30 1945 C 178.794 5.25155 -0.331394 0
M  V30 1946 O 177.82 5.60701 -0.979926 0
M  V30 1947 N 179.022 5.73271 0.913261 0
M  V30 1948 H 181.787 2.5328 -1.60216 0
M  V30 1949 H 179.348 1.28491 -0.984971 0
M  V30 1950 H 181.34 4.02255 0.444191 0
M  V30 1951 H 179.91 3.02175 0.800551 0
M  V30 1952 H 179.13 3.59453 -1.61826 0
M  V30 1953 H 180.418 4.81178 -1.65364 0
M  V30 1954 H 179.816 5.46544 1.45966 0
M  V30 1955 H 178.373 6.3855 1.30757 0
M  V30 1956 N 181.806 0.884767 1.30421 0
M  V30 1957 C 182.769 0.356277 2.26414 0
M  V30 1958 C 183.769 -0.501124 1.52792 0
M  V30 1959 O 184.959 -0.30831 1.7145 0
M  V30 1960 C 182.091 -0.492316 3.37326 0
M  V30 1961 H 183.284 1.20389 2.74675 0
M  V30 1962 H 180.837 0.661607 1.41607 0
M  V30 1963 H 181.572 -1.36052 2.94381 0
M  V30 1964 H 181.357 0.121832 3.91911 0
M  V30 1965 H 182.847 -0.853871 4.08777 0
M  V30 1966 N 183.284 -1.43765 0.645699 0
M  V30 1967 C 184.533 -2.01116 0.153412 0
M  V30 1968 C 184.846 -1.51493 -1.23731 0
M  V30 1969 O 186.052 -2.01067 -1.8244 0
M  V30 1970 C 184.508 -3.59206 0.223473 0
M  V30 1971 C 184.116 -4.17823 1.61642 0
M  V30 1972 C 185.86 -4.23972 -0.211597 0
M  V30 1973 C 183.767 -5.68183 1.64081 0
M  V30 1974 H 182.697 -0.752093 0.0535891 0
M  V30 1975 H 185.348 -1.6482 0.806633 0
M  V30 1976 H 183.73 -3.92867 -0.497118 0
M  V30 1977 H 184.904 -3.95674 2.36176 0
M  V30 1978 H 183.219 -3.65399 1.99681 0
M  V30 1979 H 185.816 -5.34275 -0.213112 0
M  V30 1980 H 186.159 -3.97352 -1.24165 0
M  V30 1981 H 186.692 -3.95166 0.456988 0
M  V30 1982 H 183.431 -5.99559 2.64971 0
M  V30 1983 H 182.951 -5.9241 0.938611 0
M  V30 1984 H 184.63 -6.32085 1.3812 0
M  V30 1985 N 184.763 -0.387143 -1.52771 0
M  V30 1986 C 186.04 0.253197 -1.93954 0
M  V30 1987 C 186.42 1.64545 -1.32243 0
M  V30 1988 O 185.768 2.23191 -0.489699 0
M  V30 1989 C 185.978 0.281722 -3.47861 0
M  V30 1990 C 187.326 0.511715 -4.21505 0
M  V30 1991 O 188.35 0.362023 -3.54356 0
M  V30 1992 O 187.209 0.804847 -5.40541 0
M  V30 1993 H 184.303 0.156845 -0.811991 0
M  V30 1994 H 186.849 -0.441494 -1.63856 0
M  V30 1995 H 185.621 -0.693571 -3.85104 0
M  V30 1996 H 185.244 1.02142 -3.84256 0
M  V30 1997 N 186.241 1.57166 -0.116904 0
M  V30 1998 C 187.191 2.11756 0.845178 0
M  V30 1999 C 188.175 1.03783 1.22955 0
M  V30 2000 O 189.367 1.3002 1.20099 0
M  V30 2001 C 186.496 2.71886 2.09602 0
M  V30 2002 C 185.582 3.86937 1.7361 0
M  V30 2003 N 185.973 4.94073 1.08284 0
M  V30 2004 C 184.271 3.97082 2.03082 0
M  V30 2005 C 184.972 5.74477 0.913855 0
M  V30 2006 N 183.948 5.2423 1.43818 0
M  V30 2007 H 187.75 2.91967 0.336523 0
M  V30 2008 H 185.264 1.62174 0.0856332 0
M  V30 2009 H 187.261 3.09338 2.79492 0
M  V30 2010 H 185.921 1.93138 2.61013 0
M  V30 2011 H 186.932 5.12483 0.747067 0
M  V30 2012 H 183.609 3.29372 2.56554 0
M  V30 2013 H 184.999 6.70701 0.40125 0
M  V30 2014 N 187.719 -0.156864 1.56817 0
M  V30 2015 C 188.996 -0.899244 1.73704 0
M  V30 2016 C 189.376 -1.99771 0.682254 0
M  V30 2017 O 188.724 -2.26515 -0.300522 0
M  V30 2018 C 188.934 -1.45075 3.17418 0
M  V30 2019 C 190.282 -1.91802 3.7881 0
M  V30 2020 O 191.306 -1.54838 3.20786 0
M  V30 2021 O 190.165 -2.5994 4.80722 0
M  V30 2022 H 187.259 -0.424267 0.709878 0
M  V30 2023 H 189.805 -0.143561 1.69092 0
M  V30 2024 H 188.577 -0.660846 3.85679 0
M  V30 2025 H 188.2 -2.27021 3.26416 0
M  V30 2026 N 189.197 -1.51736 -0.425897 0
M  V30 2027 C 190.444 -1.6497 -1.17436 0
M  V30 2028 C 190.772 -0.371445 -1.9092 0
M  V30 2029 O 190.027 0.644963 -1.84767 0
M  V30 2030 C 190.326 -2.81103 -2.20717 0
M  V30 2031 C 189.992 -4.19954 -1.64162 0
M  V30 2032 C 188.654 -4.57725 -1.48462 0
M  V30 2033 C 191.006 -5.06552 -1.22696 0
M  V30 2034 C 188.334 -5.79789 -0.897873 0
M  V30 2035 C 190.686 -6.29205 -0.654464 0
M  V30 2036 C 189.35 -6.6574 -0.484456 0
M  V30 2037 H 188.62 -0.603668 -0.429727 0
M  V30 2038 H 191.267 -1.85798 -0.463829 0
M  V30 2039 H 189.572 -2.54542 -2.97852 0
M  V30 2040 H 191.269 -2.8854 -2.78471 0
M  V30 2041 H 187.859 -3.90181 -1.77361 0
M  V30 2042 H 192.043 -4.77968 -1.33642 0
M  V30 2043 H 187.299 -6.06733 -0.75402 0
M  V30 2044 H 191.473 -6.95643 -0.324694 0
M  V30 2045 H 189.1 -7.60195 -0.0276833 0
M  V30 2046 N 190.675 0.682077 -1.42076 0
M  V30 2047 C 191.922 1.44215 -1.42156 0
M  V30 2048 C 192.25 1.94468 -0.0354186 0
M  V30 2049 O 191.505 1.70816 0.955002 0
M  V30 2050 C 191.804 2.66036 -2.38662 0
M  V30 2051 C 191.47 2.34366 -3.85206 0
M  V30 2052 C 190.132 2.25439 -4.25124 0
M  V30 2053 C 192.484 2.08513 -4.77673 0
M  V30 2054 C 189.812 1.88775 -5.55501 0
M  V30 2055 C 192.164 1.73354 -6.08384 0
M  V30 2056 C 190.828 1.62933 -6.47309 0
M  V30 2057 H 190.098 0.527718 -0.520187 0
M  V30 2058 H 192.745 0.778387 -1.74967 0
M  V30 2059 H 191.05 3.3741 -1.99152 0
M  V30 2060 H 192.747 3.24205 -2.35991 0
M  V30 2061 H 189.337 2.42213 -3.53597 0
M  V30 2062 H 193.521 2.14346 -4.47626 0
M  V30 2063 H 188.777 1.7927 -5.84527 0
M  V30 2064 H 192.951 1.52373 -6.79526 0
M  V30 2065 H 190.578 1.34292 -7.48244 0
M  V30 2066 N 192.153 1.28127 0.917671 0
M  V30 2067 C 193.083 1.14248 2.03641 0
M  V30 2068 C 194.064 0.0412748 1.7005 0
M  V30 2069 O 195.249 0.217566 1.92977 0
M  V30 2070 C 192.379 0.799431 3.37974 0
M  V30 2071 C 191.333 1.85497 3.85713 0
M  V30 2072 C 190.659 1.36565 5.16966 0
M  V30 2073 C 191.959 3.26085 4.08002 0
M  V30 2074 H 193.653 2.07835 2.15511 0
M  V30 2075 H 191.199 1.00064 1.03553 0
M  V30 2076 H 193.152 0.689114 4.15727 0
M  V30 2077 H 191.876 -0.172145 3.26146 0
M  V30 2078 H 190.535 1.95437 3.10161 0
M  V30 2079 H 190.183 0.383253 5.01538 0
M  V30 2080 H 189.883 2.07143 5.49878 0
M  V30 2081 H 191.407 1.26848 5.97279 0
M  V30 2082 H 192.821 3.19089 4.76293 0
M  V30 2083 H 191.218 3.94462 4.52238 0
M  V30 2084 H 192.288 3.70394 3.12948 0
M  V30 2085 N 193.631 -1.12557 1.10312 0
M  V30 2086 C 195.047 -1.36036 0.834649 0
M  V30 2087 C 195.247 -1.93946 -0.546539 0
M  V30 2088 O 194.303 -2.16484 -1.29966 0
M  V30 2089 C 195.616 -2.30312 1.9333 0
M  V30 2090 C 197.164 -2.43906 1.9616 0
M  V30 2091 C 197.639 -3.41496 3.05195 0
M  V30 2092 N 199.13 -3.49053 3.04494 0
M  V30 2093 C 199.865 -4.24471 3.85502 0
M  V30 2094 N 199.361 -5.02966 4.76442 0
M  V30 2095 N 201.154 -4.19864 3.73725 0
M  V30 2096 H 193.305 -0.733246 1.99342 0
M  V30 2097 H 195.568 -0.385234 0.866198 0
M  V30 2098 H 195.274 -1.94933 2.92735 0
M  V30 2099 H 195.148 -3.30421 1.81939 0
M  V30 2100 H 197.535 -2.78567 0.973886 0
M  V30 2101 H 197.616 -1.4369 2.11629 0
M  V30 2102 H 197.26 -3.07565 4.04186 0
M  V30 2103 H 197.19 -4.41539 2.86968 0
M  V30 2104 H 199.681 -2.93053 2.38596 0
M  V30 2105 H 199.994 -5.57846 5.34815 0
M  V30 2106 H 198.339 -5.02167 4.80472 0
M  V30 2107 H 201.53 -3.57623 3.02032 0
M  V30 2108 H 201.703 -4.78386 4.37093 0
M  V30 2109 N 195.109 -0.891671 -1.2995 0
M  V30 2110 C 196.059 -0.334811 -2.25528 0
M  V30 2111 C 197.043 0.540553 -1.51548 0
M  V30 2112 O 198.235 0.383882 -1.72787 0
M  V30 2113 C 195.364 0.44374 -3.4042 0
M  V30 2114 C 194.45 -0.44609 -4.21747 0
M  V30 2115 N 194.841 -1.54963 -4.81477 0
M  V30 2116 C 193.139 -0.242415 -4.45341 0
M  V30 2117 C 193.84 -2.10015 -5.42465 0
M  V30 2118 N 192.816 -1.39423 -5.25416 0
M  V30 2119 H 196.618 -1.17792 -2.69262 0
M  V30 2120 H 194.132 -0.741822 -1.44467 0
M  V30 2121 H 196.129 0.859362 -4.07947 0
M  V30 2122 H 194.789 1.28421 -2.98225 0
M  V30 2123 H 195.8 -1.93244 -4.80497 0
M  V30 2124 H 192.477 0.560342 -4.13723 0
M  V30 2125 H 193.867 -3.02724 -5.9984 0
M  V30 2126 N 196.587 1.43421 -0.653314 0
M  V30 2127 C 197.817 2.05864 -0.174238 0
M  V30 2128 C 198.225 1.49052 1.16534 0
M  V30 2129 O 197.568 0.616481 1.73047 0
M  V30 2130 C 197.63 3.59499 -0.00875873 0
M  V30 2131 C 197.294 4.38893 -1.27364 0
M  V30 2132 C 198.291 4.70947 -2.20239 0
M  V30 2133 C 195.976 4.789 -1.51525 0
M  V30 2134 C 197.97 5.41916 -3.35568 0
M  V30 2135 C 195.657 5.49614 -2.67147 0
M  V30 2136 C 196.655 5.81044 -3.58994 0
M  V30 2137 O 196.343 6.50313 -4.72597 0
M  V30 2138 H 196.075 0.670345 -0.0872549 0
M  V30 2139 H 198.629 1.84913 -0.894226 0
M  V30 2140 H 196.859 3.79025 0.7666 0
M  V30 2141 H 198.548 4.0364 0.427687 0
M  V30 2142 H 199.314 4.40558 -2.02815 0
M  V30 2143 H 195.193 4.53843 -0.809158 0
M  V30 2144 H 198.737 5.66365 -4.07279 0
M  V30 2145 H 194.634 5.79419 -2.84505 0
M  V30 2146 H 195.402 6.68795 -4.71864 0
M  V30 2147 N 198.065 0.39524 1.52563 0
M  V30 2148 C 199.342 -0.242908 1.94086 0
M  V30 2149 C 199.722 -1.63841 1.33114 0
M  V30 2150 O 199.07 -2.22928 0.501529 0
M  V30 2151 C 199.28 -0.26327 3.48006 0
M  V30 2152 C 200.628 -0.489354 4.21771 0
M  V30 2153 O 201.652 -0.343226 3.54543 0
M  V30 2154 O 200.511 -0.776169 5.4096 0
M  V30 2155 H 197.605 -0.152536 0.812811 0
M  V30 2156 H 200.151 0.450178 1.6362 0
M  V30 2157 H 198.923 0.713985 3.84731 0
M  V30 2158 H 198.546 -1.00103 3.84792 0
M  V30 2159 N 199.544 -1.57102 0.125237 0
M  V30 2160 C 200.454 -2.19191 -0.8362 0
M  V30 2161 C 201.47 -1.16985 -1.28805 0
M  V30 2162 O 202.646 -1.49479 -1.34974 0
M  V30 2163 C 199.711 -2.78407 -2.06617 0
M  V30 2164 C 198.772 -3.9567 -1.66565 0
M  V30 2165 C 198.005 -4.52052 -2.83698 0
M  V30 2166 O 198.228 -4.07326 -3.99302 0
M  V30 2167 O 197.162 -5.42645 -2.60423 0
M  V30 2168 H 200.988 -3.01816 -0.337776 0
M  V30 2169 H 198.573 -1.4906 -0.100695 0
M  V30 2170 H 200.455 -3.16129 -2.7864 0
M  V30 2171 H 199.13 -1.9881 -2.55453 0
M  V30 2172 H 198.037 -3.62705 -0.916296 0
M  V30 2173 H 199.37 -4.76722 -1.22464 0
M  V30 2174 N 201.022 0.148545 -1.56898 0
M  V30 2175 C 202.299 0.890019 -1.74178 0
M  V30 2176 C 202.679 1.99407 -0.692839 0
M  V30 2177 O 202.027 2.26671 0.288505 0
M  V30 2178 C 202.237 1.43389 -3.18183 0
M  V30 2179 C 203.585 1.89791 -3.79822 0
M  V30 2180 O 204.609 1.53134 -3.21603 0
M  V30 2181 O 203.468 2.57387 -4.82093 0
M  V30 2182 H 200.562 0.420496 -0.712118 0
M  V30 2183 H 203.108 0.134591 -1.69165 0
M  V30 2184 H 201.88 0.640383 -3.86024 0
M  V30 2185 H 201.503 2.25287 -3.27615 0
M  V30 2186 N 202.5 1.5196 0.417844 0
M  V30 2187 C 203.749 1.6482 1.16264 0
M  V30 2188 C 204.062 0.379886 1.91876 0
M  V30 2189 O 205.268 0.388154 2.68711 0
M  V30 2190 C 203.724 2.91161 2.1155 0
M  V30 2191 C 203.332 4.25068 1.41495 0
M  V30 2192 C 205.076 3.13383 2.86341 0
M  V30 2193 C 202.983 5.42541 2.35379 0
M  V30 2194 H 201.913 0.613954 0.437694 0
M  V30 2195 H 204.564 1.78442 0.427871 0
M  V30 2196 H 202.946 2.71218 2.88543 0
M  V30 2197 H 204.12 4.55463 0.699263 0
M  V30 2198 H 202.435 4.0888 0.787792 0
M  V30 2199 H 205.032 3.98324 3.5671 0
M  V30 2200 H 205.375 2.27256 3.48798 0
M  V30 2201 H 205.908 3.33757 2.1645 0
M  V30 2202 H 202.647 6.30987 1.77582 0
M  V30 2203 H 202.167 5.16497 3.04945 0
M  V30 2204 H 203.846 5.75272 2.96093 0
M  V30 2205 N 203.978 -0.674533 1.42435 0
M  V30 2206 C 205.225 -1.43459 1.42919 0
M  V30 2207 C 205.553 -1.94446 0.0457312 0
M  V30 2208 O 204.808 -1.7132 -0.94593 0
M  V30 2209 C 205.107 -2.64767 2.40069 0
M  V30 2210 C 204.773 -2.3232 3.86443 0
M  V30 2211 C 203.435 -2.23182 4.26314 0
M  V30 2212 C 205.787 -2.05977 4.78773 0
M  V30 2213 C 203.115 -1.85827 5.56494 0
M  V30 2214 C 205.467 -1.70125 6.09295 0
M  V30 2215 C 204.131 -1.59498 6.48164 0
M  V30 2216 H 203.401 -0.524952 0.522978 0
M  V30 2217 H 206.048 -0.769097 1.75377 0
M  V30 2218 H 204.353 -3.36349 2.00939 0
M  V30 2219 H 206.05 -3.22949 2.37707 0
M  V30 2220 H 202.64 -2.40334 3.54877 0
M  V30 2221 H 206.824 -2.11969 4.48757 0
M  V30 2222 H 202.08 -1.76168 5.8547 0
M  V30 2223 H 206.254 -1.48767 6.80324 0
M  V30 2224 H 203.881 -1.30322 7.48946 0
M  V30 2225 N 205.456 -1.28612 -0.910864 0
M  V30 2226 C 206.366 -1.14643 -2.0468 0
M  V30 2227 C 207.382 -0.0723121 -1.7385 0
M  V30 2228 O 208.558 -0.282178 -1.99413 0
M  V30 2229 C 205.623 -0.812561 -3.37044 0
M  V30 2230 C 204.684 -1.96935 -3.81465 0
M  V30 2231 C 203.917 -1.65131 -5.07511 0
M  V30 2232 O 204.14 -0.567013 -5.67575 0
M  V30 2233 O 203.074 -2.49585 -5.47714 0
M  V30 2234 H 206.9 -2.1001 -2.19384 0
M  V30 2235 H 204.485 -1.07958 -1.03274 0
M  V30 2236 H 206.367 -0.640441 -4.16505 0
M  V30 2237 H 205.042 0.111426 -3.23508 0
M  V30 2238 H 203.949 -2.19664 -3.02818 0
M  V30 2239 H 205.282 -2.87414 -3.99567 0
M  V30 2240 N 206.934 1.1197 -1.10907 0
M  V30 2241 C 207.882 2.19927 -0.757303 0
M  V30 2242 C 208.876 1.67564 0.248747 0
M  V30 2243 O 210.082 1.79672 0.108605 0
M  V30 2244 H 206.457 0.716925 -0.226987 0
M  V30 2245 H 208.428 2.46847 -1.67658 0
M  V30 2246 C 207.177 3.47061 -0.210671 0
M  V30 2247 H 206.5 3.87703 -0.976049 0
M  V30 2248 H 207.94 4.24 -0.0026584 0
M  V30 2249 C 206.399 3.19864 1.05777 0
M  V30 2250 O 206.929 3.40049 2.13845 0
M  V30 2251 N 205.135 2.73636 0.978349 0
M  V30 2252 H 204.682 2.5741 0.0988246 0
M  V30 2253 H 204.64 2.55815 1.82773 0
M  V30 2254 N 208.412 0.89855 1.29475 0
M  V30 2255 C 209.66 0.522847 1.9522 0
M  V30 2256 C 209.981 -0.93371 1.71192 0
M  V30 2257 O 209.251 -1.65823 1.04305 0
M  V30 2258 H 207.831 0.190366 0.722336 0
M  V30 2259 H 210.493 1.14459 1.5775 0
M  V30 2260 H 209.589 0.704476 3.04045 0
M  V30 2261 N 209.89 -1.43072 0.660911 0
M  V30 2262 C 211.139 -2.00942 0.174735 0
M  V30 2263 C 211.452 -1.52797 -1.22117 0
M  V30 2264 O 212.658 -2.02991 -1.80297 0
M  V30 2265 C 211.114 -3.58948 0.261559 0
M  V30 2266 C 210.722 -4.16085 1.66064 0
M  V30 2267 C 212.466 -4.24173 -0.166617 0
M  V30 2268 C 210.373 -5.6641 1.70098 0
M  V30 2269 H 209.303 -0.751483 0.0615631 0
M  V30 2270 H 211.954 -1.63955 0.824069 0
M  V30 2271 H 210.336 -3.93372 -0.455421 0
M  V30 2272 H 211.51 -3.93147 2.40359 0
M  V30 2273 H 209.825 -3.6326 2.03546 0
M  V30 2274 H 212.422 -5.34471 -0.156433 0
M  V30 2275 H 212.765 -3.98647 -1.19943 0
M  V30 2276 H 213.298 -3.94659 0.498875 0
M  V30 2277 H 210.037 -5.96715 2.71315 0
M  V30 2278 H 209.557 -5.91382 1.00139 0
M  V30 2279 H 211.236 -6.30585 1.44816 0
M  V30 2280 N 211.368 -0.403325 -1.52352 0
M  V30 2281 C 212.3 0.4603 -2.2453 0
M  V30 2282 C 213.313 1.01505 -1.27282 0
M  V30 2283 O 214.502 0.914982 -1.53266 0
M  V30 2284 C 211.602 1.65208 -2.95905 0
M  V30 2285 C 210.775 1.22224 -4.19976 0
M  V30 2286 C 209.834 2.28028 -4.74226 0
M  V30 2287 O 208.86 1.88857 -5.36956 0
M  V30 2288 N 210.062 3.6012 -4.55295 0
M  V30 2289 H 212.827 -0.158156 -2.99282 0
M  V30 2290 H 210.388 -0.230402 -1.60252 0
M  V30 2291 H 212.38 2.35541 -3.29093 0
M  V30 2292 H 210.95 2.17658 -2.24374 0
M  V30 2293 H 210.17 0.34725 -3.92668 0
M  V30 2294 H 211.458 0.911924 -5.00561 0
M  V30 2295 H 210.856 3.94698 -4.05253 0
M  V30 2296 H 209.413 4.26447 -4.92936 0
M  V30 2297 N 212.846 1.57033 -0.133567 0
M  V30 2298 C 214.086 1.97575 0.523789 0
M  V30 2299 C 214.45 1.01605 1.62912 0
M  V30 2300 O 215.651 1.3114 2.3464 0
M  V30 2301 C 213.922 3.42256 1.02935 0
M  V30 2302 S 215.481 4.04817 1.69319 0
M  V30 2303 H 212.299 0.690427 0.169799 0
M  V30 2304 H 214.901 1.94234 -0.222101 0
M  V30 2305 H 213.605 4.09842 0.213917 0
M  V30 2306 H 213.136 3.4928 1.81017 0
M  V30 2307 H 215.151 3.96767 2.97977 0
M  V30 2308 N 214.325 -0.140222 1.56975 0
M  V30 2309 C 215.741 -0.493088 1.51792 0
M  V30 2310 C 215.941 -1.83013 0.843116 0
M  V30 2311 O 214.997 -2.49041 0.416493 0
M  V30 2312 C 216.31 -0.497144 2.96562 0
M  V30 2313 C 217.858 -0.582186 3.07538 0
M  V30 2314 C 218.333 -0.616838 4.53827 0
M  V30 2315 N 219.824 -0.678873 4.58198 0
M  V30 2316 C 220.559 -0.726782 5.68775 0
M  V30 2317 N 220.055 -0.733623 6.88905 0
M  V30 2318 N 221.848 -0.768179 5.56826 0
M  V30 2319 H 213.999 0.736108 1.99237 0
M  V30 2320 H 216.262 0.269182 0.90898 0
M  V30 2321 H 215.968 0.417217 3.49217 0
M  V30 2322 H 215.842 -1.33263 3.52875 0
M  V30 2323 H 218.229 -1.48697 2.54899 0
M  V30 2324 H 218.31 0.280581 2.54257 0
M  V30 2325 H 217.954 0.283812 5.07106 0
M  V30 2326 H 217.884 -1.49619 5.04898 0
M  V30 2327 H 220.375 -0.68061 3.7172 0
M  V30 2328 H 220.688 -0.772215 7.68932 0
M  V30 2329 H 219.033 -0.701389 6.91452 0
M  V30 2330 H 222.224 -0.760051 4.61888 0
M  V30 2331 H 222.397 -0.80205 6.43017 0
M  V30 2332 N 215.803 -1.52179 -0.40978 0
M  V30 2333 C 217.08 -1.56769 -1.16974 0
M  V30 2334 C 217.46 -0.348322 -2.08206 0
M  V30 2335 O 216.808 0.664862 -2.18613 0
M  V30 2336 C 217.018 -2.89603 -1.9476 0
M  V30 2337 C 218.366 -3.42579 -2.50849 0
M  V30 2338 O 219.39 -2.91338 -2.04941 0
M  V30 2339 O 218.249 -4.32054 -3.34652 0
M  V30 2340 H 215.343 -0.631439 -0.534054 0
M  V30 2341 H 217.889 -1.64507 -0.416613 0
M  V30 2342 H 216.661 -3.698 -1.27921 0
M  V30 2343 H 216.284 -2.85155 -2.77079 0
M  V30 2344 N 217.281 0.66697 -1.42791 0
M  V30 2345 C 218.214 1.79177 -1.41318 0
M  V30 2346 C 219.192 1.60234 -0.276401 0
M  V30 2347 O 220.376 1.82602 -0.46785 0
M  V30 2348 C 217.503 3.16289 -1.21157 0
M  V30 2349 C 216.549 3.53964 -2.37932 0
M  V30 2350 S 217.382 3.55501 -4.00474 0
M  V30 2351 C 218.538 4.95292 -3.8267 0
M  V30 2352 H 218.771 1.80153 -2.365 0
M  V30 2353 H 216.304 0.838357 -1.29657 0
M  V30 2354 H 218.262 3.95428 -1.10212 0
M  V30 2355 H 216.923 3.1289 -0.275481 0
M  V30 2356 H 216.116 4.53646 -2.19594 0
M  V30 2357 H 215.718 2.82204 -2.45432 0
M  V30 2358 H 218.01 5.83584 -3.44145 0
M  V30 2359 H 218.953 5.18679 -4.82055 0
M  V30 2360 H 219.361 4.68179 -3.15386 0
M  V30 2361 N 218.759 1.29093 0.90403 0
M  V30 2362 C 220.005 1.16986 1.65656 0
M  V30 2363 C 220.338 -0.278925 1.92186 0
M  V30 2364 O 219.613 -1.2019 1.5292 0
M  V30 2365 C 219.896 1.97908 3.0084 0
M  V30 2366 C 219.749 3.50903 2.81403 0
M  V30 2367 C 221.068 1.80208 4.01513 0
M  V30 2368 H 218.187 0.426346 0.601164 0
M  V30 2369 H 220.829 1.58518 1.04747 0
M  V30 2370 H 218.979 1.62616 3.52829 0
M  V30 2371 H 220.651 3.96153 2.36348 0
M  V30 2372 H 218.894 3.76045 2.1627 0
M  V30 2373 H 219.565 4.02791 3.77443 0
M  V30 2374 H 222.041 2.11025 3.58619 0
M  V30 2375 H 220.917 2.39184 4.94047 0
M  V30 2376 H 221.178 0.756119 4.35586 0
M  V30 2377 N 220.237 -1.11381 1.11499 0
M  V30 2378 C 221.653 -1.35143 0.849031 0
M  V30 2379 C 221.853 -1.94515 -0.525938 0
M  V30 2380 O 220.909 -2.1785 -1.27662 0
M  V30 2381 C 222.222 -2.28249 1.95762 0
M  V30 2382 C 223.77 -2.41812 1.98736 0
M  V30 2383 C 224.245 -3.3824 3.088 0
M  V30 2384 N 225.736 -3.45803 3.08179 0
M  V30 2385 C 226.471 -4.20358 3.89982 0
M  V30 2386 N 225.967 -4.97884 4.8175 0
M  V30 2387 N 227.76 -4.15877 3.78157 0
M  V30 2388 H 219.911 -0.712062 2.00109 0
M  V30 2389 H 222.174 -0.376025 0.870235 0
M  V30 2390 H 221.88 -1.91817 2.94787 0
M  V30 2391 H 221.754 -3.28473 1.85433 0
M  V30 2392 H 224.141 -2.77518 1.00338 0
M  V30 2393 H 224.222 -1.41437 2.13141 0
M  V30 2394 H 223.866 -3.03261 4.07425 0
M  V30 2395 H 223.796 -4.38471 2.91635 0
M  V30 2396 H 226.287 -2.90506 2.41691 0
M  V30 2397 H 226.6 -5.52142 5.40702 0
M  V30 2398 H 224.945 -4.97043 4.85771 0
M  V30 2399 H 228.136 -3.544 3.05808 0
M  V30 2400 H 228.309 -4.73723 4.42143 0
M  V30 2401 N 221.715 -0.905404 -1.28997 0
M  V30 2402 C 222.645 -0.404212 -2.29975 0
M  V30 2403 C 223.626 0.523784 -1.61835 0
M  V30 2404 O 224.811 0.433298 -1.89304 0
M  V30 2405 C 221.941 0.364042 -3.45387 0
M  V30 2406 C 220.895 -0.474048 -4.25367 0
M  V30 2407 C 220.221 0.422045 -5.33032 0
M  V30 2408 C 221.521 -1.72696 -4.92923 0
M  V30 2409 H 223.215 -1.24807 -2.72146 0
M  V30 2410 H 220.761 -0.601585 -1.30832 0
M  V30 2411 H 222.714 0.725447 -4.15109 0
M  V30 2412 H 221.438 1.24174 -3.02074 0
M  V30 2413 H 220.097 -0.81786 -3.57361 0
M  V30 2414 H 219.745 1.29804 -4.85963 0
M  V30 2415 H 219.445 -0.135057 -5.87445 0
M  V30 2416 H 220.969 0.779517 -6.05604 0
M  V30 2417 H 222.383 -1.43495 -5.55051 0
M  V30 2418 H 220.78 -2.22582 -5.57295 0
M  V30 2419 H 221.85 -2.45964 -4.17887 0
M  V30 2420 N 223.193 1.4272 -0.668489 0
M  V30 2421 C 224.423 2.05668 -0.196063 0
M  V30 2422 C 224.831 1.5028 1.14946 0
M  V30 2423 O 224.174 0.6348 1.72383 0
M  V30 2424 C 224.236 3.59469 -0.0468879 0
M  V30 2425 C 223.9 4.37518 -1.32012 0
M  V30 2426 C 224.897 4.68584 -2.25222 0
M  V30 2427 C 222.582 4.77266 -1.56596 0
M  V30 2428 C 224.576 5.38326 -3.41297 0
M  V30 2429 C 222.263 5.4675 -2.72962 0
M  V30 2430 C 223.261 5.77204 -3.65137 0
M  V30 2431 O 222.949 6.45264 -4.79468 0
M  V30 2432 H 222.681 0.669382 -0.0943599 0
M  V30 2433 H 225.235 1.83954 -0.913788 0
M  V30 2434 H 223.465 3.79817 0.726357 0
M  V30 2435 H 225.154 4.04071 0.384852 0
M  V30 2436 H 225.92 4.38382 -2.07477 0
M  V30 2437 H 221.799 4.52959 -0.857249 0
M  V30 2438 H 225.343 5.62014 -4.13263 0
M  V30 2439 H 221.24 5.76369 -2.90635 0
M  V30 2440 H 222.008 6.63753 -4.78931 0
M  V30 2441 N 224.671 0.411399 1.52136 0
M  V30 2442 C 225.601 -0.404015 2.29978 0
M  V30 2443 C 226.582 -1.04412 1.34284 0
M  V30 2444 O 227.767 -1.0527 1.63192 0
M  V30 2445 C 224.897 -1.5197 3.12286 0
M  V30 2446 C 223.851 -1.00448 4.16046 0
M  V30 2447 C 223.177 -2.21393 4.86712 0
M  V30 2448 C 224.477 -0.0569336 5.22269 0
M  V30 2449 H 226.171 0.245529 2.98392 0
M  V30 2450 H 223.717 0.119525 1.43503 0
M  V30 2451 H 225.67 -2.09715 3.6551 0
M  V30 2452 H 224.394 -2.19716 2.41646 0
M  V30 2453 H 223.053 -0.449421 3.63835 0
M  V30 2454 H 222.701 -2.87699 4.12599 0
M  V30 2455 H 222.401 -1.87571 5.56858 0
M  V30 2456 H 223.925 -2.7974 5.4275 0
M  V30 2457 H 225.339 -0.54325 5.7072 0
M  V30 2458 H 223.736 0.192594 5.99791 0
M  V30 2459 H 224.806 0.887663 4.76706 0
M  V30 2460 N 226.149 -1.5696 0.141893 0
M  V30 2461 C 227.426 -1.87553 -0.555281 0
M  V30 2462 C 227.806 -1.04699 -1.83306 0
M  V30 2463 O 227.154 -0.132346 -2.28116 0
M  V30 2464 C 227.364 -3.39093 -0.825664 0
M  V30 2465 C 228.712 -4.08199 -1.16869 0
M  V30 2466 O 229.736 -3.44242 -0.915185 0
M  V30 2467 O 228.595 -5.21139 -1.6455 0
M  V30 2468 H 225.689 -0.777188 -0.282679 0
M  V30 2469 H 228.235 -1.68763 0.17812 0
M  V30 2470 H 227.007 -3.91221 0.0788633 0
M  V30 2471 H 226.63 -3.63393 -1.61343 0
M  V30 2472 N 227.627 0.131896 -1.57047 0
M  V30 2473 C 228.557 1.16384 -2.02428 0
M  V30 2474 C 229.538 1.43936 -0.90644 0
M  V30 2475 O 230.723 1.54599 -1.17528 0
M  V30 2476 C 227.853 2.49328 -2.4177 0
M  V30 2477 C 226.807 2.36266 -3.56879 0
M  V30 2478 C 226.133 3.74057 -3.8208 0
M  V30 2479 C 227.433 1.834 -4.89042 0
M  V30 2480 H 229.127 0.786433 -2.88887 0
M  V30 2481 H 226.673 0.376855 -1.38981 0
M  V30 2482 H 228.626 3.21759 -2.7212 0
M  V30 2483 H 227.35 2.88934 -1.52266 0
M  V30 2484 H 226.009 1.66286 -3.26718 0
M  V30 2485 H 225.657 4.11125 -2.89803 0
M  V30 2486 H 225.357 3.66174 -4.59554 0
M  V30 2487 H 226.881 4.48012 -4.1487 0
M  V30 2488 H 228.295 2.45636 -5.18011 0
M  V30 2489 H 226.692 1.8637 -5.70426 0
M  V30 2490 H 227.762 0.790662 -4.7841 0
M  V30 2491 O 229.144 1.59117 0.276399 0
M  V30 2492 H 229.835 1.70359 0.921826 0
M  V30 END ATOM
M  V30 BEGIN BOND
M  V30 END BOND
M  V30 END CTAB
M  END
$$$$
