drugbank_target|O33199 MutT/nudix family protein (DB01975; DB02059; DB03148)
 OpenBabel12092120233D

  0  0  0     0  0            999 V3000
M  V30 BEGIN CTAB
M  V30 COUNTS 3189 3226 0 0 0
M  V30 BEGIN ATOM
M  V30 1 H -0.908 1.98254 -0.117106 0
M  V30 2 N 0 1.576 0 0
M  V30 3 C 0.933 2.03868 1.02534 0
M  V30 4 C 1.911 0.928543 1.3348 0
M  V30 5 O 3.095 1.19667 1.45644 0
M  V30 6 C 0.222 2.43627 2.35294 0
M  V30 7 C -0.732 3.65373 2.2001 0
M  V30 8 S 0.101 5.13292 1.52614 0
M  V30 9 C 1.257 5.56322 2.86805 0
M  V30 10 H 1.49 2.90518 0.631377 0
M  V30 11 H -0.977 1.52953 0.210867 0
M  V30 12 H 0.981 2.67203 3.11629 0
M  V30 13 H -0.358 1.57376 2.7183 0
M  V30 14 H -1.165 3.90944 3.18086 0
M  V30 15 H -1.563 3.418 1.51819 0
M  V30 16 H 0.729 5.58782 3.83104 0
M  V30 17 H 1.672 6.56266 2.65933 0
M  V30 18 H 2.08 4.83886 2.90714 0
M  V30 19 N 1.4781 -0.272755 1.55222 0
M  V30 20 C 2.4411 -1.32041 1.87344 0
M  V30 21 C 3.4411 -1.42342 0.74803 0
M  V30 22 O 4.6311 -1.41488 1.0162 0
M  V30 23 C 1.7631 -2.70173 2.07893 0
M  V30 24 H 2.9561 -1.04789 2.80997 0
M  V30 25 H 0.5091 -0.51083 1.47717 0
M  V30 26 H 1.2441 -3.02605 1.16622 0
M  V30 27 H 1.0291 -2.64082 2.89833 0
M  V30 28 H 2.5191 -3.45869 2.34017 0
M  V30 29 N 2.9562 -1.48159 -0.537278 0
M  V30 30 C 3.8662 -1.64807 -1.6696 0
M  V30 31 C 4.8822 -0.530651 -1.65711 0
M  V30 32 O 6.0582 -0.800784 -1.84796 0
M  V30 33 C 3.1232 -1.67708 -3.03438 0
M  V30 34 C 2.1842 -2.91025 -3.156 0
M  V30 35 C 1.4172 -2.93778 -4.45567 0
M  V30 36 O 1.6402 -2.05153 -5.3223 0
M  V30 37 O 0.5742 -3.85868 -4.61941 0
M  V30 38 H 4.4002 -2.6066 -1.55853 0
M  V30 39 H 1.9852 -1.31475 -0.709549 0
M  V30 40 H 3.8672 -1.7218 -3.84619 0
M  V30 41 H 2.5422 -0.750278 -3.14885 0
M  V30 42 H 1.4492 -2.92089 -2.33741 0
M  V30 43 H 2.7822 -3.83065 -3.09066 0
M  V30 44 N 4.4343 0.785586 -1.36625 0
M  V30 45 C 5.3843 1.88822 -1.27789 0
M  V30 46 C 6.3683 1.60014 -0.168579 0
M  V30 47 O 7.5603 1.72381 -0.401737 0
M  V30 48 C 4.6893 3.26092 -1.07327 0
M  V30 49 C 3.7753 3.60897 -2.22743 0
M  V30 50 N 4.1663 3.66982 -3.48077 0
M  V30 51 C 2.4643 3.90981 -2.14593 0
M  V30 52 C 3.1653 3.98137 -4.24101 0
M  V30 53 N 2.1413 4.13319 -3.53084 0
M  V30 54 H 5.9433 1.91759 -2.22723 0
M  V30 55 H 3.4573 0.981311 -1.29399 0
M  V30 56 H 5.4543 4.04954 -0.990842 0
M  V30 57 H 4.1143 3.24428 -0.132977 0
M  V30 58 H 5.1253 3.49531 -3.82163 0
M  V30 59 H 1.8023 3.9722 -1.2854 0
M  V30 60 H 3.1923 4.09737 -5.32509 0
M  V30 61 N 5.9124 1.20967 1.01018 0
M  V30 62 C 7.1894 0.93264 1.71934 0
M  V30 63 C 7.5694 -0.55692 2.03621 0
M  V30 64 O 6.9174 -1.52035 1.7058 0
M  V30 65 C 7.1274 1.81233 2.98254 0
M  V30 66 C 8.4754 2.05804 3.71389 0
M  V30 67 O 9.4994 1.78539 3.08225 0
M  V30 68 O 8.3584 2.51888 4.84989 0
M  V30 69 H 5.4524 0.349272 0.749625 0
M  V30 70 H 7.9984 1.31871 1.06808 0
M  V30 71 H 6.7704 2.82067 2.71208 0
M  V30 72 H 6.3934 1.42674 3.7112 0
M  V30 73 N 7.3905 -1.2043 1.01659 0
M  V30 74 C 8.6375 -1.89797 0.705917 0
M  V30 75 C 8.9655 -1.78848 -0.764439 0
M  V30 76 O 8.2205 -1.16694 -1.57102 0
M  V30 77 C 8.5195 -3.40464 1.08714 0
M  V30 78 C 8.1855 -3.71614 2.5537 0
M  V30 79 C 6.8475 -3.79826 2.95441 0
M  V30 80 C 9.1995 -3.85915 3.50313 0
M  V30 81 C 6.5275 -3.99797 4.29394 0
M  V30 82 C 8.8795 -4.07396 4.83954 0
M  V30 83 C 7.5435 -4.13837 5.23732 0
M  V30 84 H 6.8135 -0.694518 0.258313 0
M  V30 85 H 9.4605 -1.42691 1.27717 0
M  V30 86 H 7.7655 -3.89385 0.434309 0
M  V30 87 H 9.4625 -3.92433 0.824461 0
M  V30 88 H 6.0525 -3.65822 2.23321 0
M  V30 89 H 10.2365 -3.78926 3.20513 0
M  V30 90 H 5.4925 -4.03018 4.59768 0
M  V30 91 H 9.6665 -4.17404 5.57447 0
M  V30 92 H 7.2935 -4.29064 6.27541 0
M  V30 93 N 8.8686 -0.792821 -1.36206 0
M  V30 94 C 9.7786 -0.194808 -2.3379 0
M  V30 95 C 10.7946 0.654869 -1.61206 0
M  V30 96 O 11.9706 0.569856 -1.9317 0
M  V30 97 C 9.0356 0.657721 -3.40404 0
M  V30 98 C 8.0966 -0.210849 -4.28782 0
M  V30 99 C 7.3296 0.601086 -5.30304 0
M  V30 100 O 7.5526 1.83682 -5.40016 0
M  V30 101 O 6.4866 -0.000808277 -6.019 0
M  V30 102 H 10.3126 -1.00172 -2.86704 0
M  V30 103 H 7.8976 -0.554341 -1.38735 0
M  V30 104 H 9.7796 1.14375 -4.05581 0
M  V30 105 H 8.4546 1.44247 -2.89784 0
M  V30 106 H 7.3616 -0.743714 -3.66633 0
M  V30 107 H 8.6946 -0.959195 -4.82763 0
M  V30 108 N 10.3467 1.47872 -0.545128 0
M  V30 109 C 11.5747 2.06889 -0.021084 0
M  V30 110 C 11.9897 1.39955 1.2672 0
M  V30 111 O 11.3467 0.492036 1.75742 0
M  V30 112 C 11.3977 3.60996 0.190817 0
M  V30 113 O 11.1187 4.25419 -1.04644 0
M  V30 114 C 12.6197 4.36849 0.753521 0
M  V30 115 H 9.8397 0.669785 -0.0403635 0
M  V30 116 H 12.3837 1.90049 -0.755095 0
M  V30 117 H 10.5387 3.77391 0.87492 0
M  V30 118 H 10.9527 5.17785 -0.836611 0
M  V30 119 H 12.4267 5.45399 0.851139 0
M  V30 120 H 12.9037 4.02306 1.762 0
M  V30 121 H 13.5097 4.25169 0.105503 0
M  V30 122 N 11.8248 0.280983 1.55075 0
M  V30 123 C 13.0738 -0.334784 1.98902 0
M  V30 124 C 13.3868 -1.56534 1.17288 0
M  V30 125 O 14.5928 -2.25443 1.51287 0
M  V30 126 C 13.0488 -0.646994 3.54037 0
M  V30 127 C 12.6568 0.564085 4.44435 0
M  V30 128 C 14.4008 -1.22506 4.06439 0
M  V30 129 C 12.3078 0.226137 5.90967 0
M  V30 130 H 11.2378 -0.128866 0.742906 0
M  V30 131 H 13.8888 0.386556 1.79382 0
M  V30 132 H 12.2708 -1.42739 3.6938 0
M  V30 133 H 13.4448 1.34082 4.40861 0
M  V30 134 H 11.7598 1.0594 4.02698 0
M  V30 135 H 14.3568 -1.49182 5.13468 0
M  V30 136 H 14.6998 -2.16085 3.55827 0
M  V30 137 H 15.2328 -0.50682 3.94558 0
M  V30 138 H 11.9718 1.12996 6.45687 0
M  V30 139 H 11.4918 -0.513717 5.97596 0
M  V30 140 H 13.1708 -0.179539 6.46751 0
M  V30 141 N 13.3029 -1.57598 0.00835791 0
M  V30 142 C 14.5279 -1.95617 -0.689103 0
M  V30 143 C 14.9529 -0.883753 -1.66046 0
M  V30 144 O 14.3109 0.157352 -1.80616 0
M  V30 145 C 14.3589 -3.32736 -1.38994 0
M  V30 146 O 13.4629 -3.27631 -2.50463 0
M  V30 147 H 12.8039 -0.638379 -0.182668 0
M  V30 148 H 15.3339 -2.045 0.064036 0
M  V30 149 H 15.3439 -3.68494 -1.75147 0
M  V30 150 H 14.0189 -4.1034 -0.677778 0
M  V30 151 H 12.5959 -3.03561 -2.16576 0
M  V30 152 N 14.781 0.264519 -1.55364 0
M  V30 153 C 16.006 1.01726 -1.80739 0
M  V30 154 C 16.431 1.78836 -0.583044 0
M  V30 155 O 15.789 1.75167 0.467566 0
M  V30 156 C 15.837 1.94482 -3.03659 0
M  V30 157 O 14.941 3.03386 -2.7934 0
M  V30 158 H 14.282 0.290395 -0.597132 0
M  V30 159 H 16.812 0.290854 -2.02522 0
M  V30 160 H 16.822 2.36278 -3.32621 0
M  V30 161 H 15.497 1.37772 -3.92418 0
M  V30 162 H 14.074 2.65844 -2.61498 0
M  V30 163 N 16.2591 1.48442 0.529413 0
M  V30 164 C 17.1691 1.6569 1.66084 0
M  V30 165 C 18.1851 0.539432 1.65427 0
M  V30 166 O 19.3611 0.810572 1.84368 0
M  V30 167 C 16.4261 1.69315 3.02545 0
M  V30 168 C 15.4871 2.92694 3.14052 0
M  V30 169 C 14.7201 2.96137 4.44003 0
M  V30 170 O 14.9431 2.07973 5.31134 0
M  V30 171 O 13.8771 3.88312 4.59888 0
M  V30 172 H 17.7031 2.61483 1.54469 0
M  V30 173 H 15.2881 1.3185 0.702567 0
M  V30 174 H 17.1701 1.74217 3.83701 0
M  V30 175 H 15.8451 0.766966 3.14483 0
M  V30 176 H 14.7521 2.93324 2.32189 0
M  V30 177 H 16.0851 3.84699 3.0703 0
M  V30 178 N 17.7372 -0.778329 1.37039 0
M  V30 179 C 18.9652 -1.56734 1.35063 0
M  V30 180 C 19.3802 -1.88686 -0.0655597 0
M  V30 181 O 18.7372 -1.5096 -1.02554 0
M  V30 182 C 18.7882 -2.88163 2.18276 0
M  V30 183 O 18.5092 -2.57583 3.54376 0
M  V30 184 C 20.0102 -3.82422 2.24206 0
M  V30 185 H 17.2302 -0.485778 0.462883 0
M  V30 186 H 19.7742 -0.965185 1.8029 0
M  V30 187 H 17.9292 -3.44818 1.76576 0
M  V30 188 H 18.3432 -3.41699 3.97922 0
M  V30 189 H 19.8172 -4.71667 2.86765 0
M  V30 190 H 20.2942 -4.21078 1.24861 0
M  V30 191 H 20.9002 -3.31697 2.6619 0
M  V30 192 N 19.2153 -1.21501 -1.00376 0
M  V30 193 C 20.1453 -0.999478 -2.11028 0
M  V30 194 C 21.1263 0.0759671 -1.6993 0
M  V30 195 O 22.3113 -0.0841106 -1.94018 0
M  V30 196 C 19.4413 -0.564709 -3.42678 0
M  V30 197 C 18.3953 -1.58486 -3.97576 0
M  V30 198 C 17.7213 -1.00628 -5.25146 0
M  V30 199 C 19.0213 -2.97204 -4.29496 0
M  V30 200 H 20.7153 -1.92495 -2.29317 0
M  V30 201 H 18.2613 -0.92693 -1.102 0
M  V30 202 H 20.2143 -0.401091 -4.19487 0
M  V30 203 H 18.9383 0.396411 -3.24185 0
M  V30 204 H 17.5973 -1.73606 -3.22888 0
M  V30 205 H 17.2453 -0.0368439 -5.02987 0
M  V30 206 H 16.9453 -1.68771 -5.62841 0
M  V30 207 H 18.4693 -0.854015 -6.04598 0
M  V30 208 H 19.8833 -2.8552 -4.97143 0
M  V30 209 H 18.2803 -3.62372 -4.78338 0
M  V30 210 H 19.3503 -3.47956 -3.3772 0
M  V30 211 N 20.6934 1.19889 -1.02296 0
M  V30 212 C 21.6434 2.20777 -0.56934 0
M  V30 213 C 22.6274 1.56379 0.378741 0
M  V30 214 O 23.8194 1.75859 0.200673 0
M  V30 215 C 20.9484 3.43196 0.0845077 0
M  V30 216 C 20.0344 4.14749 -0.88566 0
M  V30 217 N 20.4254 4.62584 -2.04573 0
M  V30 218 C 18.7234 4.40347 -0.707835 0
M  V30 219 C 19.4244 5.17466 -2.65714 0
M  V30 220 N 18.4004 5.0791 -1.93723 0
M  V30 221 H 22.2024 2.55434 -1.45365 0
M  V30 222 H 19.7164 1.35897 -0.88915 0
M  V30 223 H 21.7134 4.14707 0.427067 0
M  V30 224 H 20.3734 3.10042 0.964574 0
M  V30 225 H 21.3844 4.57597 -2.4254 0
M  V30 226 H 18.0614 4.17317 0.12364 0
M  V30 227 H 19.4514 5.64808 -3.63925 0
M  V30 228 N 22.1715 0.800033 1.35784 0
M  V30 229 C 23.3995 0.389606 2.03199 0
M  V30 230 C 23.8145 -0.997375 1.60306 0
M  V30 231 O 23.1715 -1.64154 0.797481 0
M  V30 232 C 23.2225 0.455855 3.58614 0
M  V30 233 O 22.9435 1.78815 3.99946 0
M  V30 234 C 24.4445 0.0374032 4.43284 0
M  V30 235 H 21.6645 0.159132 0.651857 0
M  V30 236 H 24.2085 1.08183 1.73541 0
M  V30 237 H 22.3635 -0.188057 3.86943 0
M  V30 238 H 22.7775 1.74636 4.94573 0
M  V30 239 H 24.2515 0.134882 5.51835 0
M  V30 240 H 24.7285 -1.01651 4.27275 0
M  V30 241 H 25.3345 0.654215 4.20238 0
M  V30 242 N 23.6496 -1.47581 0.552962 0
M  V30 243 C 24.8976 -2.02082 0.0272703 0
M  V30 244 C 25.2186 -1.4301 -1.32563 0
M  V30 245 O 24.4886 -0.603745 -1.86365 0
M  V30 246 H 23.0686 -0.746966 0.00709182 0
M  V30 247 H 25.7306 -1.81033 0.722008 0
M  V30 248 H 24.8266 -3.12034 -0.0639951 0
M  V30 249 N 25.1277 -0.289203 -1.54924 0
M  V30 250 C 26.0907 0.579144 -2.21762 0
M  V30 251 C 27.0907 1.07047 -1.1999 0
M  V30 252 O 28.2807 0.968384 -1.44803 0
M  V30 253 C 25.4127 1.80055 -2.8947 0
M  V30 254 H 26.6057 -0.00464908 -2.999 0
M  V30 255 H 24.1587 -0.0399306 -1.56249 0
M  V30 256 H 24.8937 2.42449 -2.15381 0
M  V30 257 H 24.6787 1.45602 -3.64064 0
M  V30 258 H 26.1687 2.41773 -3.40493 0
M  V30 259 N 26.6058 1.57591 -0.0167156 0
M  V30 260 C 27.8548 1.90461 0.663877 0
M  V30 261 C 28.1678 0.893515 1.73999 0
M  V30 262 O 29.3738 1.11302 2.47637 0
M  V30 263 C 27.8298 3.38155 1.23204 0
M  V30 264 C 27.4378 4.47597 0.189866 0
M  V30 265 C 29.1818 3.80111 1.88986 0
M  V30 266 C 27.0888 5.86379 0.768964 0
M  V30 267 H 26.0188 0.710738 0.251729 0
M  V30 268 H 28.6698 1.83326 -0.0799926 0
M  V30 269 H 27.0518 3.40182 2.02712 0
M  V30 270 H 28.2258 4.57112 -0.581846 0
M  V30 271 H 26.5408 4.14766 -0.368475 0
M  V30 272 H 29.1378 4.81145 2.33247 0
M  V30 273 H 29.4808 3.14511 2.72743 0
M  V30 274 H 30.0138 3.80454 1.16187 0
M  V30 275 H 26.7528 6.55493 -0.0301957 0
M  V30 276 H 26.2728 5.80496 1.50945 0
M  V30 277 H 27.9518 6.34563 1.26251 0
M  V30 278 N 28.0839 -0.256276 1.55502 0
M  V30 279 C 29.3309 -0.985619 1.76895 0
M  V30 280 C 29.6589 -1.85671 0.579355 0
M  V30 281 O 28.9139 -1.90744 -0.437651 0
M  V30 282 C 29.2129 -1.88432 3.03691 0
M  V30 283 C 28.8789 -1.16936 4.35473 0
M  V30 284 C 27.5409 -0.97173 4.71286 0
M  V30 285 C 29.8929 -0.661889 5.1698 0
M  V30 286 C 27.2209 -0.254179 5.86149 0
M  V30 287 C 29.5729 0.042149 6.32586 0
M  V30 288 C 28.2369 0.25134 6.67027 0
M  V30 289 H 27.5069 -0.360663 0.647304 0
M  V30 290 H 30.1539 -0.256483 1.89775 0
M  V30 291 H 28.4589 -2.68021 2.85783 0
M  V30 292 H 30.1559 -2.45015 3.1744 0
M  V30 293 H 26.7459 -1.33332 4.07333 0
M  V30 294 H 30.9299 -0.802145 4.89775 0
M  V30 295 H 26.1859 -0.0815408 6.11346 0
M  V30 296 H 30.3599 0.443049 6.94989 0
M  V30 297 H 27.9869 0.809314 7.5588 0
M  V30 298 N 29.562 -1.4872 -0.521534 0
M  V30 299 C 30.525 -1.63379 -1.60748 0
M  V30 300 C 31.525 -0.50661 -1.52611 0
M  V30 301 O 32.715 -0.772601 -1.5613 0
M  V30 302 C 29.847 -1.61192 -3.00383 0
M  V30 303 H 31.04 -2.60217 -1.49087 0
M  V30 304 H 28.593 -1.37444 -0.744235 0
M  V30 305 H 29.328 -0.65863 -3.17541 0
M  V30 306 H 29.113 -2.43032 -3.07698 0
M  V30 307 H 30.603 -1.7466 -3.7932 0
M  V30 308 N 31.0401 0.771051 -1.3745 0
M  V30 309 C 31.9701 1.89827 -1.3597 0
M  V30 310 C 32.9511 1.68562 -0.228216 0
M  V30 311 O 34.1361 1.8941 -0.428675 0
M  V30 312 C 31.2661 3.2712 -1.16662 0
M  V30 313 C 30.2201 3.6295 -2.2683 0
M  V30 314 C 29.5461 4.98791 -1.92644 0
M  V30 315 C 30.8461 3.69627 -3.69017 0
M  V30 316 H 32.5401 1.91323 -2.30295 0
M  V30 317 H 30.0861 0.919082 -1.10855 0
M  V30 318 H 32.0391 4.05615 -1.14256 0
M  V30 319 H 30.7631 3.26059 -0.187926 0
M  V30 320 H 29.4221 2.86763 -2.28392 0
M  V30 321 H 29.0701 4.94271 -0.933021 0
M  V30 322 H 28.7701 5.23733 -2.66416 0
M  V30 323 H 30.2941 5.79685 -1.91826 0
M  V30 324 H 31.7081 4.38273 -3.69581 0
M  V30 325 H 30.1051 4.06067 -4.41848 0
M  V30 326 H 31.1751 2.70273 -4.02592 0
M  V30 327 N 32.5182 1.22032 0.997298 0
M  V30 328 C 33.9342 0.979326 1.26021 0
M  V30 329 C 34.1342 -0.32972 1.98784 0
M  V30 330 O 33.1902 -1.05345 2.29475 0
M  V30 331 C 34.5032 2.17509 2.07631 0
M  V30 332 C 36.0512 2.21817 2.2083 0
M  V30 333 C 36.5262 3.40933 3.05825 0
M  V30 334 N 38.0172 3.41067 3.13412 0
M  V30 335 C 38.7522 4.29885 3.79455 0
M  V30 336 N 38.2482 5.28914 4.47462 0
M  V30 337 N 40.0412 4.17673 3.76173 0
M  V30 338 H 32.1922 2.06202 0.509352 0
M  V30 339 H 34.4552 0.90334 0.287541 0
M  V30 340 H 34.1612 3.12415 1.61524 0
M  V30 341 H 34.0352 2.17206 3.08385 0
M  V30 342 H 36.4222 1.27462 2.66153 0
M  V30 343 H 36.5032 2.2616 1.1952 0
M  V30 344 H 36.1472 4.35586 2.61203 0
M  V30 345 H 36.0772 3.33829 4.07266 0
M  V30 346 H 38.5682 2.69406 2.65007 0
M  V30 347 H 38.8812 5.92973 4.95583 0
M  V30 348 H 37.2262 5.32831 4.46224 0
M  V30 349 H 40.4172 3.39564 3.22202 0
M  V30 350 H 40.5902 4.87098 4.27363 0
M  V30 351 N 33.9963 -1.19345 1.0293 0
M  V30 352 C 35.4123 -1.41069 0.746446 0
M  V30 353 C 35.6123 -1.90078 -0.668776 0
M  V30 354 O 34.6683 -2.0778 -1.4347 0
M  V30 355 C 35.9813 -2.42141 1.78292 0
M  V30 356 C 37.5293 -2.55887 1.80252 0
M  V30 357 C 38.0043 -3.60214 2.8286 0
M  V30 358 N 39.4953 -3.67711 2.81679 0
M  V30 359 C 40.2303 -4.48128 3.57727 0
M  V30 360 N 39.7263 -5.32248 4.43491 0
M  V30 361 N 41.5193 -4.42782 3.46267 0
M  V30 362 H 33.6703 -0.858536 1.94275 0
M  V30 363 H 35.9333 -0.439541 0.839945 0
M  V30 364 H 35.6393 -2.13155 2.79746 0
M  V30 365 H 35.5133 -3.41323 1.60557 0
M  V30 366 H 37.9003 -2.84196 0.794757 0
M  V30 367 H 37.9813 -1.56858 2.02062 0
M  V30 368 H 37.6253 -3.32647 3.83807 0
M  V30 369 H 37.5553 -4.58895 2.58307 0
M  V30 370 H 40.0463 -3.07634 2.19476 0
M  V30 371 H 40.3593 -5.90729 4.98256 0
M  V30 372 H 38.7043 -5.31707 4.47564 0
M  V30 373 H 41.8953 -3.76107 2.78677 0
M  V30 374 H 42.0683 -5.05215 4.05785 0
M  V30 375 N 35.4744 -0.807222 -1.35358 0
M  V30 376 C 36.7514 -0.311126 -1.9311 0
M  V30 377 C 37.1314 1.19937 -1.73719 0
M  V30 378 O 36.4794 1.99918 -1.10657 0
M  V30 379 C 36.6894 -0.723226 -3.41424 0
M  V30 380 C 38.0374 -0.713078 -4.18569 0
M  V30 381 O 39.0614 -0.664811 -3.49941 0
M  V30 382 O 37.9204 -0.772022 -5.41019 0
M  V30 383 H 35.0144 -0.081526 -0.822972 0
M  V30 384 H 37.5604 -0.890962 -1.4443 0
M  V30 385 H 36.3324 -1.76426 -3.4927 0
M  V30 386 H 35.9554 -0.118232 -3.97424 0
M  V30 387 N 36.9525 1.47285 -0.560781 0
M  V30 388 C 37.8845 2.28118 0.222438 0
M  V30 389 C 38.8975 1.37219 0.876056 0
M  V30 390 O 40.0865 1.62011 0.749307 0
M  V30 391 C 37.1865 3.1159 1.33285 0
M  V30 392 C 36.3595 4.30473 0.77534 0
M  V30 393 C 35.4185 4.95513 1.77069 0
M  V30 394 O 34.4445 5.53792 1.31539 0
M  V30 395 N 35.6465 4.90531 3.10418 0
M  V30 396 H 38.4115 2.95976 -0.470958 0
M  V30 397 H 35.9725 1.56955 -0.39709 0
M  V30 398 H 37.9645 3.51967 1.99752 0
M  V30 399 H 36.5345 2.45951 1.92943 0
M  V30 400 H 35.7545 3.94144 -0.0662113 0
M  V30 401 H 37.0425 5.07362 0.382272 0
M  V30 402 H 36.4405 4.44389 3.5005 0
M  V30 403 H 34.9975 5.34917 3.72434 0
M  V30 404 N 38.4306 0.297415 1.54768 0
M  V30 405 C 39.6766 -0.313376 2.00364 0
M  V30 406 C 40.0096 -1.53815 1.18553 0
M  V30 407 O 39.2846 -1.92739 0.261103 0
M  V30 408 C 39.5676 -0.673525 3.53745 0
M  V30 409 C 39.4206 0.560133 4.46299 0
M  V30 410 C 40.7396 -1.50143 4.13697 0
M  V30 411 H 37.8586 -0.112428 0.728374 0
M  V30 412 H 40.5006 0.4088 1.8555 0
M  V30 413 H 38.6506 -1.28881 3.665 0
M  V30 414 H 40.3226 1.19863 4.45455 0
M  V30 415 H 38.5656 1.19405 4.17043 0
M  V30 416 H 39.2366 0.26405 5.51368 0
M  V30 417 H 41.7126 -0.981588 4.04356 0
M  V30 418 H 40.5886 -1.72221 5.21182 0
M  V30 419 H 40.8496 -2.48952 3.65343 0
M  V30 420 N 39.9087 -1.5758 0.0250728 0
M  V30 421 C 41.3247 -1.56124 -0.331282 0
M  V30 422 C 41.5247 -1.03029 -1.73169 0
M  V30 423 O 40.5807 -0.675215 -2.43305 0
M  V30 424 C 41.8937 -3.00139 -0.183584 0
M  V30 425 C 43.4417 -3.11946 -0.256654 0
M  V30 426 C 43.9167 -4.57793 -0.137792 0
M  V30 427 N 45.4077 -4.6279 -0.194904 0
M  V30 428 C 46.1427 -5.7326 -0.126655 0
M  V30 429 N 45.6387 -6.928 -0.00755288 0
M  V30 430 N 47.4317 -5.61811 -0.180348 0
M  V30 431 H 39.5827 -1.90424 0.94087 0
M  V30 432 H 41.8457 -0.875761 0.362968 0
M  V30 433 H 41.5517 -3.4292 0.780927 0
M  V30 434 H 41.4257 -3.64899 -0.955448 0
M  V30 435 H 43.8127 -2.69079 -1.21162 0
M  V30 436 H 43.8937 -2.49915 0.545517 0
M  V30 437 H 43.5377 -5.01339 0.813739 0
M  V30 438 H 43.4677 -5.17798 -0.958775 0
M  V30 439 H 45.9587 -3.76807 -0.287267 0
M  V30 440 H 46.2717 -7.72791 0.0379428 0
M  V30 441 H 44.6167 -6.94995 0.0271731 0
M  V30 442 H 47.8077 -4.6731 -0.271767 0
M  V30 443 H 47.9807 -6.47882 -0.123697 0
M  V30 444 N 41.3868 0.248026 -1.55636 0
M  V30 445 C 42.3198 1.3334 -1.85191 0
M  V30 446 C 43.2978 1.46429 -0.706906 0
M  V30 447 O 44.4818 1.62662 -0.952544 0
M  V30 448 C 41.6088 2.70703 -2.03562 0
M  V30 449 C 40.6548 2.7477 -3.26196 0
M  V30 450 S 41.4878 2.31493 -4.82878 0
M  V30 451 C 42.6438 3.70783 -5.04253 0
M  V30 452 H 42.8768 1.08072 -2.76962 0
M  V30 453 H 40.4098 0.448952 -1.47729 0
M  V30 454 H 42.3678 3.49798 -2.1483 0
M  V30 455 H 41.0288 2.9321 -1.12635 0
M  V30 456 H 40.2218 3.75648 -3.36013 0
M  V30 457 H 39.8238 2.03719 -3.13647 0
M  V30 458 H 42.1158 4.6627 -4.91527 0
M  V30 459 H 43.0588 3.65901 -6.06236 0
M  V30 460 H 43.4668 3.63244 -4.32105 0
M  V30 461 N 42.8649 1.48995 0.513639 0
M  V30 462 C 44.2759 1.5119 1.09537 0
M  V30 463 C 44.6269 0.290906 1.94031 0
M  V30 464 O 43.7519 -0.60049 2.07902 0
M  V30 465 C 44.3469 2.73964 1.99322 0
M  V30 466 C 42.9059 2.78978 2.52682 0
M  V30 467 C 42.0529 2.44934 1.30009 0
M  V30 468 H 45.0039 1.55875 0.298125 0
M  V30 469 H 45.0249 2.53409 2.83838 0
M  V30 470 H 44.5369 3.62813 1.37799 0
M  V30 471 H 42.6379 1.94378 3.1788 0
M  V30 472 H 42.7509 3.8083 2.90698 0
M  V30 473 H 41.1149 1.9644 1.62122 0
M  V30 474 H 41.8979 3.36043 0.702131 0
M  V30 475 N 44.343 -0.763751 1.37857 0
M  V30 476 C 45.591 -1.51957 1.33243 0
M  V30 477 C 45.912 -1.94835 -0.0801709 0
M  V30 478 O 45.182 -1.66894 -1.02582 0
M  V30 479 H 43.762 -0.563626 0.49024 0
M  V30 480 H 46.424 -0.908504 1.7243 0
M  V30 481 H 45.52 -2.41523 1.97669 0
M  V30 482 N 45.8211 -1.22559 -0.990812 0
M  V30 483 C 47.0691 -1.04933 -1.72724 0
M  V30 484 C 47.3901 0.416158 -1.90508 0
M  V30 485 O 46.6601 1.29918 -1.46622 0
M  V30 486 H 45.2401 -0.385296 -0.639965 0
M  V30 487 H 47.9021 -1.54105 -1.19322 0
M  V30 488 H 46.9981 -1.52886 -2.72089 0
M  V30 489 N 47.2992 1.18797 -1.03562 0
M  V30 490 C 48.5472 1.88278 -0.734569 0
M  V30 491 C 48.8682 1.8043 0.739586 0
M  V30 492 O 48.1382 1.21925 1.53333 0
M  V30 493 H 46.7182 0.696991 -0.268725 0
M  V30 494 H 49.3802 1.44192 -1.31129 0
M  V30 495 H 48.4762 2.94443 -1.03489 0
M  V30 496 N 48.7773 0.814389 1.34928 0
M  V30 497 C 50.0263 0.394871 1.97797 0
M  V30 498 C 50.3393 -1.04555 1.65311 0
M  V30 499 O 51.5453 -1.56856 2.21604 0
M  V30 500 C 50.0013 0.655103 3.53888 0
M  V30 501 C 49.6093 2.10858 3.95276 0
M  V30 502 C 51.3533 0.301329 4.23429 0
M  V30 503 C 49.2603 2.31415 5.44244 0
M  V30 504 H 48.1903 0.143913 0.740139 0
M  V30 505 H 50.8413 0.999544 1.53888 0
M  V30 506 H 49.2233 -0.0196253 3.95995 0
M  V30 507 H 50.3973 2.82176 3.64298 0
M  V30 508 H 48.7123 2.42297 3.38646 0
M  V30 509 H 51.3093 0.432869 5.32945 0
M  V30 510 H 51.6523 -0.75331 4.09428 0
M  V30 511 H 52.1853 0.930288 3.86769 0
M  V30 512 H 48.9243 3.35353 5.63222 0
M  V30 513 H 48.4443 1.6463 5.76764 0
M  V30 514 H 50.1233 2.13352 6.10811 0
M  V30 515 N 50.2554 -1.46986 0.568584 0
M  V30 516 C 51.5014 -2.02741 0.0488709 0
M  V30 517 C 51.8344 -1.44077 -1.30214 0
M  V30 518 O 51.1094 -0.600552 -1.84996 0
M  V30 519 C 51.3924 -3.60086 -0.032047 0
M  V30 520 C 51.2454 -4.29162 1.34686 0
M  V30 521 C 52.5644 -4.33838 -0.739798 0
M  V30 522 H 49.6834 -0.736749 0.0192338 0
M  V30 523 H 52.3254 -1.75289 0.733065 0
M  V30 524 H 50.4754 -3.83606 -0.61473 0
M  V30 525 H 52.1474 -4.16948 1.97362 0
M  V30 526 H 50.3904 -3.89073 1.91846 0
M  V30 527 H 51.0614 -5.37826 1.24285 0
M  V30 528 H 53.5374 -4.15378 -0.244939 0
M  V30 529 H 52.4134 -5.43537 -0.765406 0
M  V30 530 H 52.6744 -4.03875 -1.79827 0
M  V30 531 N 51.7335 -0.305618 -1.54608 0
M  V30 532 C 52.9615 0.304775 -2.04643 0
M  V30 533 C 53.3765 1.47167 -1.18268 0
M  V30 534 O 52.7335 1.81296 -0.209328 0
M  V30 535 C 52.7845 0.756564 -3.53495 0
M  V30 536 O 52.5055 -0.36389 -4.36586 0
M  V30 537 C 54.0065 1.43163 -4.19546 0
M  V30 538 H 51.2265 0.0655481 -0.667791 0
M  V30 539 H 53.7705 -0.446592 -1.99564 0
M  V30 540 H 51.9255 1.45794 -3.58919 0
M  V30 541 H 52.3395 -0.0113121 -5.24499 0
M  V30 542 H 53.8135 1.69886 -5.25207 0
M  V30 543 H 54.2905 2.37318 -3.69563 0
M  V30 544 H 54.8965 0.773307 -4.18211 0
M  V30 545 N 53.2116 1.57565 -0.0334293 0
M  V30 546 C 54.6276 1.56297 0.322997 0
M  V30 547 C 54.8276 1.03945 1.7262 0
M  V30 548 O 53.8836 0.688109 2.42943 0
M  V30 549 C 55.1966 3.00232 0.167664 0
M  V30 550 C 56.7446 3.12078 0.240107 0
M  V30 551 C 57.2196 4.57859 0.113513 0
M  V30 552 N 58.7106 4.62887 0.170359 0
M  V30 553 C 59.4456 5.73319 0.0962517 0
M  V30 554 N 58.9416 6.92794 -0.0291881 0
M  V30 555 N 60.7346 5.61898 0.150551 0
M  V30 556 H 52.8856 1.89923 -0.950956 0
M  V30 557 H 55.1486 0.873824 -0.367608 0
M  V30 558 H 54.8546 3.42501 -0.799102 0
M  V30 559 H 54.7286 3.654 0.936083 0
M  V30 560 H 57.1156 2.69718 1.19733 0
M  V30 561 H 57.1966 2.49623 -0.558763 0
M  V30 562 H 56.8406 5.009 -0.840314 0
M  V30 563 H 56.7706 5.18299 0.931302 0
M  V30 564 H 59.2616 3.76954 0.26728 0
M  V30 565 H 59.5746 7.7276 -0.0789252 0
M  V30 566 H 57.9196 6.94971 -0.0640299 0
M  V30 567 H 61.1106 4.67448 0.246981 0
M  V30 568 H 61.2836 6.47938 0.0893365 0
M  V30 569 N 54.6897 -0.239769 1.55765 0
M  V30 570 C 55.5997 -1.31831 1.94056 0
M  V30 571 C 56.6157 -1.52275 0.841925 0
M  V30 572 O 57.7917 -1.65759 1.14394 0
M  V30 573 C 54.8567 -2.65156 2.23368 0
M  V30 574 C 53.9177 -2.53173 3.46701 0
M  V30 575 C 53.1507 -3.8014 3.74606 0
M  V30 576 O 53.3737 -4.82343 3.04469 0
M  V30 577 O 52.3077 -3.78344 4.68123 0
M  V30 578 H 56.1337 -1.02347 2.85935 0
M  V30 579 H 53.7187 -0.441123 1.42739 0
M  V30 580 H 55.6007 -3.43929 2.43497 0
M  V30 581 H 54.2757 -2.94358 1.34666 0
M  V30 582 H 53.1827 -1.72662 3.31871 0
M  V30 583 H 54.5157 -2.28915 4.35728 0
M  V30 584 N 56.1678 -1.49265 -0.50573 0
M  V30 585 C 57.4138 -1.58748 -1.26202 0
M  V30 586 C 57.7468 -0.271227 -1.92297 0
M  V30 587 O 57.0218 0.724831 -1.80489 0
M  V30 588 C 57.3048 -2.74332 -2.33268 0
M  V30 589 C 57.1578 -4.15737 -1.71705 0
M  V30 590 C 58.4768 -2.85576 -3.34865 0
M  V30 591 H 55.5958 -0.577826 -0.457478 0
M  V30 592 H 58.2378 -1.81532 -0.560897 0
M  V30 593 H 56.3878 -2.55036 -2.93068 0
M  V30 594 H 58.0598 -4.46537 -1.15769 0
M  V30 595 H 56.3028 -4.21605 -1.02135 0
M  V30 596 H 56.9738 -4.92477 -2.49341 0
M  V30 597 H 59.4498 -3.03127 -2.8505 0
M  V30 598 H 58.3258 -3.68135 -4.07146 0
M  V30 599 H 58.5868 -1.94732 -3.96903 0
M  V30 600 N 57.6459 0.756429 -1.3826 0
M  V30 601 C 58.8919 1.51772 -1.34511 0
M  V30 602 C 59.2249 1.94089 0.0656691 0
M  V30 603 O 58.4999 1.65221 1.02626 0
M  V30 604 C 58.7829 2.77226 -2.29821 0
M  V30 605 C 58.6359 2.41065 -3.79747 0
M  V30 606 C 59.9549 3.79236 -2.23312 0
M  V30 607 H 57.0739 0.550578 -0.489931 0
M  V30 608 H 59.7159 0.866607 -1.69086 0
M  V30 609 H 57.8659 3.32784 -2.00467 0
M  V30 610 H 59.5379 1.91303 -4.19763 0
M  V30 611 H 57.7809 1.7356 -3.97567 0
M  V30 612 H 58.4519 3.3081 -4.41892 0
M  V30 613 H 60.9279 3.3321 -2.49219 0
M  V30 614 H 59.8039 4.64714 -2.92116 0
M  V30 615 H 60.0649 4.24615 -1.23102 0
M  V30 616 N 59.124 1.23083 0.984299 0
M  V30 617 C 60.034 1.02515 2.11016 0
M  V30 618 C 61.05 -0.0291702 1.73976 0
M  V30 619 O 62.226 0.165434 2.00719 0
M  V30 620 C 59.291 0.614673 3.41208 0
M  V30 621 C 58.352 1.74359 3.92297 0
M  V30 622 C 57.585 1.35261 5.16275 0
M  V30 623 O 57.808 0.235136 5.69915 0
M  V30 624 O 56.742 2.17227 5.61334 0
M  V30 625 H 60.568 1.96862 2.31255 0
M  V30 626 H 58.153 1.01753 1.09392 0
M  V30 627 H 60.035 0.396518 4.1953 0
M  V30 628 H 58.71 -0.299851 3.22308 0
M  V30 629 H 57.617 2.01635 3.1511 0
M  V30 630 H 58.95 2.63629 4.15645 0
M  V30 631 N 60.6021 -1.18246 1.0419 0
M  V30 632 C 61.5521 -2.19843 0.604392 0
M  V30 633 C 62.5361 -1.56962 -0.353814 0
M  V30 634 O 63.7281 -1.76156 -0.17267 0
M  V30 635 C 60.8571 -3.43287 -0.0298975 0
M  V30 636 C 59.9431 -4.13288 0.951531 0
M  V30 637 N 60.3341 -4.59271 2.11906 0
M  V30 638 C 58.6321 -4.39165 0.7778 0
M  V30 639 C 59.3331 -5.13173 2.73912 0
M  V30 640 N 58.3091 -5.04763 2.01779 0
M  V30 641 H 62.1111 -2.53089 1.4941 0
M  V30 642 H 59.6251 -1.34465 0.910658 0
M  V30 643 H 61.6221 -4.15334 -0.361037 0
M  V30 644 H 60.2821 -3.11537 -0.915127 0
M  V30 645 H 61.2931 -4.5368 2.49789 0
M  V30 646 H 57.9701 -4.17461 -0.0572331 0
M  V30 647 H 59.3601 -5.58947 3.72864 0
M  V30 648 N 62.0802 -0.821533 -1.34494 0
M  V30 649 C 63.3272 -0.408946 -1.98328 0
M  V30 650 C 63.6552 1.02764 -1.65136 0
M  V30 651 O 62.9102 1.73026 -0.914349 0
M  V30 652 C 63.2092 -0.556512 -3.53041 0
M  V30 653 C 62.8752 -1.95861 -4.0614 0
M  V30 654 C 61.5372 -2.34217 -4.20352 0
M  V30 655 C 63.8892 -2.87523 -4.34718 0
M  V30 656 C 61.2172 -3.63572 -4.6047 0
M  V30 657 C 63.5692 -4.1634 -4.76281 0
M  V30 658 C 62.2332 -4.54675 -4.88699 0
M  V30 659 H 61.5032 -0.149644 -0.725732 0
M  V30 660 H 64.1502 -1.04521 -1.6046 0
M  V30 661 H 62.4552 0.163148 -3.9146 0
M  V30 662 H 64.1522 -0.217826 -4.00408 0
M  V30 663 H 60.7422 -1.65066 -3.95539 0
M  V30 664 H 64.9262 -2.59133 -4.23277 0
M  V30 665 H 60.1822 -3.93101 -4.68275 0
M  V30 666 H 64.3562 -4.87455 -4.97354 0
M  V30 667 H 61.9832 -5.54959 -5.19542 0
M  V30 668 N 63.5583 1.46682 -0.576371 0
M  V30 669 C 64.8063 2.02013 -0.0594163 0
M  V30 670 C 65.1273 1.45101 1.30271 0
M  V30 671 O 64.3973 0.633317 1.8538 0
M  V30 672 H 62.9773 0.746759 -0.0189745 0
M  V30 673 H 65.6393 1.79862 -0.750717 0
M  V30 674 H 64.7353 3.12097 0.014345 0
M  V30 675 N 65.0364 0.313813 1.54444 0
M  V30 676 C 65.9994 -0.54379 2.22656 0
M  V30 677 C 66.9994 -1.05124 1.21678 0
M  V30 678 O 68.1894 -0.945225 1.46325 0
M  V30 679 C 65.3214 -1.75427 2.92298 0
M  V30 680 H 66.5144 0.0523599 2.99854 0
M  V30 681 H 64.0674 0.0647834 1.56166 0
M  V30 682 H 64.8024 -2.38991 2.19211 0
M  V30 683 H 64.5874 -1.39791 3.66334 0
M  V30 684 H 66.0774 -2.36325 3.44297 0
M  V30 685 N 66.5145 -1.57545 0.0417849 0
M  V30 686 C 67.7605 -1.92601 -0.635021 0
M  V30 687 C 68.0935 -0.919627 -1.71045 0
M  V30 688 O 67.3685 0.0557892 -1.9442 0
M  V30 689 C 67.6515 -3.38085 -1.23979 0
M  V30 690 C 67.5045 -4.49467 -0.173057 0
M  V30 691 C 68.8235 -3.83776 -2.15416 0
M  V30 692 H 65.9425 -0.700397 -0.229374 0
M  V30 693 H 68.5845 -1.89728 0.101633 0
M  V30 694 H 66.7345 -3.40664 -1.86762 0
M  V30 695 H 68.4065 -4.59018 0.458312 0
M  V30 696 H 66.6495 -4.30909 0.499996 0
M  V30 697 H 67.3205 -5.48323 -0.636054 0
M  V30 698 H 69.7965 -3.83013 -1.62605 0
M  V30 699 H 68.6725 -4.8624 -2.54679 0
M  V30 700 H 68.9335 -3.19998 -3.05047 0
M  V30 701 N 67.9926 0.231505 -1.5589 0
M  V30 702 C 68.9556 1.27028 -1.90779 0
M  V30 703 C 69.9556 1.40308 -0.785507 0
M  V30 704 O 71.1456 1.38744 -1.05336 0
M  V30 705 C 68.2776 2.64566 -2.14983 0
M  V30 706 H 69.4706 0.973017 -2.83677 0
M  V30 707 H 67.0236 0.471486 -1.49019 0
M  V30 708 H 67.7586 2.99406 -1.24604 0
M  V30 709 H 67.5436 2.56305 -2.96732 0
M  V30 710 H 69.0336 3.39543 -2.43105 0
M  V30 711 N 69.4707 1.49531 0.497807 0
M  V30 712 C 70.7197 1.58426 1.24837 0
M  V30 713 C 71.0327 0.277643 1.93619 0
M  V30 714 O 72.2387 0.24517 2.70391 0
M  V30 715 C 70.6947 2.79538 2.26686 0
M  V30 716 C 70.3027 4.16971 1.63828 0
M  V30 717 C 72.0467 2.97764 3.0255 0
M  V30 718 C 69.9537 5.29301 2.63807 0
M  V30 719 H 68.8837 0.58989 0.469623 0
M  V30 720 H 71.5347 1.75923 0.521857 0
M  V30 721 H 69.9167 2.55542 3.02514 0
M  V30 722 H 71.0907 4.51116 0.939711 0
M  V30 723 H 69.4057 4.04129 1.00342 0
M  V30 724 H 72.0027 3.78856 3.77323 0
M  V30 725 H 72.3457 2.08448 3.60354 0
M  V30 726 H 72.8787 3.21815 2.33838 0
M  V30 727 H 69.6177 6.20687 2.10779 0
M  V30 728 H 69.1377 4.99606 3.31894 0
M  V30 729 H 70.8167 5.58768 3.2617 0
M  V30 730 N 70.9488 -0.749086 1.3866 0
M  V30 731 C 72.1948 -1.51056 1.35314 0
M  V30 732 C 72.5278 -1.94121 -0.0553751 0
M  V30 733 O 71.8028 -1.65763 -1.01749 0
M  V30 734 C 72.0858 -2.76003 2.31288 0
M  V30 735 C 71.9388 -2.39047 3.8102 0
M  V30 736 C 73.2578 -3.78046 2.2532 0
M  V30 737 H 70.3768 -0.547972 0.492844 0
M  V30 738 H 73.0188 -0.857628 1.69543 0
M  V30 739 H 71.1688 -3.31716 2.02229 0
M  V30 740 H 72.8408 -1.89074 4.20771 0
M  V30 741 H 71.0838 -1.71449 3.98482 0
M  V30 742 H 71.7548 -3.28462 4.4364 0
M  V30 743 H 74.2308 -3.31884 2.50983 0
M  V30 744 H 73.1068 -4.63159 2.94576 0
M  V30 745 H 73.3678 -4.23957 1.25352 0
M  V30 746 N 72.4269 -1.23603 -0.977757 0
M  V30 747 C 73.3899 -1.02069 -2.05218 0
M  V30 748 C 74.3899 0.0184305 -1.60789 0
M  V30 749 O 75.5799 -0.221569 -1.72785 0
M  V30 750 C 72.7119 -0.544926 -3.36517 0
M  V30 751 H 73.9049 -1.9742 -2.25755 0
M  V30 752 H 71.4579 -1.05684 -1.15155 0
M  V30 753 H 72.1929 0.412241 -3.21669 0
M  V30 754 H 71.9779 -1.2948 -3.70105 0
M  V30 755 H 73.4679 -0.414985 -4.15533 0
M  V30 756 N 73.905 1.17692 -1.04816 0
M  V30 757 C 74.838 2.20436 -0.590173 0
M  V30 758 C 75.816 1.58115 0.379244 0
M  V30 759 O 77 1.86228 0.291762 0
M  V30 760 C 74.127 3.38424 0.136817 0
M  V30 761 C 73.173 4.19176 -0.787023 0
M  V30 762 S 74.006 4.84815 -2.27409 0
M  V30 763 C 75.162 6.06195 -1.55817 0
M  V30 764 H 75.395 2.58944 -1.46067 0
M  V30 765 H 72.928 1.28246 -0.859784 0
M  V30 766 H 74.886 4.06798 0.550076 0
M  V30 767 H 73.547 2.98312 0.983299 0
M  V30 768 H 72.74 5.03499 -0.224681 0
M  V30 769 H 72.342 3.56219 -1.13947 0
M  V30 770 H 74.634 6.72078 -0.855387 0
M  V30 771 H 75.577 6.6695 -2.37873 0
M  V30 772 H 75.985 5.54701 -1.04722 0
M  V30 773 N 75.3831 0.828654 1.34056 0
M  V30 774 C 76.6601 0.341809 1.9259 0
M  V30 775 C 77.0401 -1.17158 1.75605 0
M  V30 776 O 76.3881 -1.98132 1.13824 0
M  V30 777 C 76.5981 0.777453 3.4023 0
M  V30 778 C 77.9461 0.779579 4.17382 0
M  V30 779 O 78.9701 0.7204 3.48839 0
M  V30 780 O 77.8291 0.857996 5.39723 0
M  V30 781 H 74.9231 0.0946085 0.821571 0
M  V30 782 H 77.4691 0.913827 1.42994 0
M  V30 783 H 76.2411 1.8196 3.46419 0
M  V30 784 H 75.8641 0.181444 3.97186 0
M  V30 785 N 76.8612 -1.46375 0.584142 0
M  V30 786 C 78.1382 -1.956 0.0033388 0
M  V30 787 C 78.5182 -1.52679 -1.45782 0
M  V30 788 O 77.8662 -0.77816 -2.14842 0
M  V30 789 C 78.0762 -3.48551 0.176891 0
M  V30 790 C 79.4242 -4.24576 0.0454609 0
M  V30 791 O 80.4482 -3.56043 0.105801 0
M  V30 792 O 79.3072 -5.46427 -0.0890376 0
M  V30 793 H 76.4012 -0.825547 -0.0490066 0
M  V30 794 H 78.9472 -1.56652 0.65256 0
M  V30 795 H 77.7192 -3.72683 1.1926 0
M  V30 796 H 77.3422 -3.94332 -0.508695 0
M  V30 797 N 78.3393 -0.321999 -1.54275 0
M  V30 798 C 79.2873 0.560206 -2.25753 0
M  V30 799 C 80.2813 1.11984 -1.27106 0
M  V30 800 O 81.4873 1.06806 -1.44888 0
M  V30 801 H 77.8623 0.199304 -0.725108 0
M  V30 802 H 79.8333 -0.0649365 -2.98329 0
M  V30 803 C 78.5823 1.71023 -3.02731 0
M  V30 804 H 77.9053 1.28885 -3.78456 0
M  V30 805 H 79.3453 2.30314 -3.55993 0
M  V30 806 C 77.8043 2.62692 -2.10938 0
M  V30 807 O 78.3343 3.64364 -1.6912 0
M  V30 808 N 76.5403 2.30891 -1.76459 0
M  V30 809 H 76.0873 1.48253 -2.10663 0
M  V30 810 H 76.0453 2.92487 -1.1532 0
M  V30 811 N 79.8174 1.5752 -0.0501392 0
M  V30 812 C 81.0654 1.9227 0.622642 0
M  V30 813 C 81.3864 0.929083 1.71444 0
M  V30 814 O 80.6564 -0.0262186 1.95882 0
M  V30 815 H 79.2364 0.709739 0.232981 0
M  V30 816 H 81.8984 1.94628 -0.102898 0
M  V30 817 H 80.9944 2.93479 1.06191 0
M  V30 818 N 81.2955 -0.223234 1.56011 0
M  V30 819 C 82.2435 -1.29627 1.93131 0
M  V30 820 C 83.2375 -1.48608 0.813146 0
M  V30 821 O 84.4435 -1.49802 0.997966 0
M  V30 822 H 80.8185 -0.434563 0.613726 0
M  V30 823 H 82.7895 -0.955995 2.82672 0
M  V30 824 C 81.5385 -2.63983 2.26292 0
M  V30 825 H 80.8615 -2.50185 3.11846 0
M  V30 826 H 82.3015 -3.3788 2.56151 0
M  V30 827 C 80.7605 -3.18866 1.08747 0
M  V30 828 O 81.2905 -4.00192 0.347727 0
M  V30 829 N 79.4965 -2.77217 0.871743 0
M  V30 830 H 79.0435 -2.1119 1.47501 0
M  V30 831 H 79.0015 -3.1428 0.0869905 0
M  V30 832 N 82.7736 -1.49793 -0.48987 0
M  V30 833 C 84.0226 -1.59085 -1.23995 0
M  V30 834 C 84.3356 -0.287907 -1.9347 0
M  V30 835 O 85.5416 -0.259506 -2.70257 0
M  V30 836 C 83.9976 -2.80736 -2.252 0
M  V30 837 C 83.6056 -4.17833 -1.61614 0
M  V30 838 C 85.3496 -2.99364 -3.00967 0
M  V30 839 C 83.2566 -5.30693 -2.60996 0
M  V30 840 H 82.1866 -0.592372 -0.466488 0
M  V30 841 H 84.8376 -1.76197 -0.51252 0
M  V30 842 H 83.2196 -2.57142 -3.01154 0
M  V30 843 H 84.3936 -4.51608 -0.915774 0
M  V30 844 H 82.7086 -4.04656 -0.981977 0
M  V30 845 H 85.3056 -3.80851 -3.75308 0
M  V30 846 H 85.6486 -2.10356 -3.59244 0
M  V30 847 H 86.1816 -3.2305 -2.32128 0
M  V30 848 H 82.9206 -6.21796 -2.07485 0
M  V30 849 H 82.4406 -5.01359 -3.2924 0
M  V30 850 H 84.1196 -5.6049 -3.23202 0
M  V30 851 N 84.2517 0.741722 -1.39055 0
M  V30 852 C 85.6627 1.31966 -1.32068 0
M  V30 853 C 86.0137 1.96192 0.0180797 0
M  V30 854 O 85.1387 1.95861 0.920196 0
M  V30 855 C 85.7337 2.39954 -2.39181 0
M  V30 856 C 84.2927 2.93438 -2.35735 0
M  V30 857 C 83.4397 1.66936 -2.21422 0
M  V30 858 H 86.3907 0.539721 -1.4924 0
M  V30 859 H 86.4117 3.20182 -2.05581 0
M  V30 860 H 85.9237 1.9318 -3.36605 0
M  V30 861 H 84.0247 3.4451 -1.41929 0
M  V30 862 H 84.1377 3.4701 -3.30335 0
M  V30 863 H 82.5017 1.91016 -1.68478 0
M  V30 864 H 83.2847 1.22224 -3.20806 0
M  V30 865 N 85.7298 1.2412 0.971189 0
M  V30 866 C 86.6628 0.97373 2.06382 0
M  V30 867 C 87.6408 -0.0912662 1.62344 0
M  V30 868 O 88.8248 0.0449365 1.88446 0
M  V30 869 C 85.9518 0.468746 3.35441 0
M  V30 870 C 84.9978 1.52176 3.98428 0
M  V30 871 S 85.8308 3.10203 4.36503 0
M  V30 872 C 86.9868 2.61398 5.68702 0
M  V30 873 H 87.2198 1.89893 2.28753 0
M  V30 874 H 84.7528 1.07466 1.10862 0
M  V30 875 H 86.7108 0.184012 4.10087 0
M  V30 876 H 85.3718 -0.435688 3.11064 0
M  V30 877 H 84.5648 1.11876 4.91426 0
M  V30 878 H 84.1668 1.75632 3.30196 0
M  V30 879 H 86.4588 2.03992 6.4606 0
M  V30 880 H 87.4018 3.52972 6.13854 0
M  V30 881 H 87.8098 2.01941 5.27143 0
M  V30 882 N 87.2079 -1.17134 1.05439 0
M  V30 883 C 88.4539 -1.87733 0.767077 0
M  V30 884 C 88.7869 -1.8098 -0.704253 0
M  V30 885 O 88.0619 -1.21951 -1.5152 0
M  V30 886 C 88.3449 -3.37659 1.25133 0
M  V30 887 C 88.1979 -3.53149 2.78578 0
M  V30 888 C 89.5169 -4.31768 0.852324 0
M  V30 889 H 86.6359 -0.681687 0.280129 0
M  V30 890 H 89.2779 -1.37732 1.30881 0
M  V30 891 H 87.4279 -3.80373 0.790469 0
M  V30 892 H 89.0999 -3.19434 3.32806 0
M  V30 893 H 87.3429 -2.95345 3.17732 0
M  V30 894 H 88.0139 -4.58403 3.07523 0
M  V30 895 H 90.4899 -3.96909 1.24911 0
M  V30 896 H 89.3659 -5.35199 1.21873 0
M  V30 897 H 89.6269 -4.41429 -0.243485 0
M  V30 898 N 88.686 -0.835752 -1.33615 0
M  V30 899 C 89.916 -0.442701 -2.01801 0
M  V30 900 C 90.324 0.959807 -1.63047 0
M  V30 901 O 89.667 1.63468 -0.838088 0
M  V30 902 C 89.729 -0.480125 -3.56279 0
M  V30 903 C 89.393 -1.8382 -4.18401 0
M  V30 904 C 90.39 -2.80097 -4.37998 0
M  V30 905 C 88.075 -2.13019 -4.54894 0
M  V30 906 C 90.069 -4.03736 -4.9323 0
M  V30 907 C 87.756 -3.36916 -5.09834 0
M  V30 908 C 88.754 -4.32091 -5.28948 0
M  V30 909 O 88.442 -5.53797 -5.82721 0
M  V30 910 H 88.174 -0.17441 -0.653114 0
M  V30 911 H 90.728 -1.129 -1.71589 0
M  V30 912 H 88.958 0.262931 -3.85805 0
M  V30 913 H 90.647 -0.105335 -4.05763 0
M  V30 914 H 91.413 -2.58838 -4.10156 0
M  V30 915 H 87.292 -1.39733 -4.39313 0
M  V30 916 H 90.836 -4.78034 -5.08064 0
M  V30 917 H 86.733 -3.58033 -5.37106 0
M  V30 918 H 87.501 -5.55494 -6.0114 0
M  V30 919 N 90.1641 1.46063 -0.591896 0
M  V30 920 C 91.0961 2.28539 0.174001 0
M  V30 921 C 92.1091 1.39047 0.846753 0
M  V30 922 O 93.2981 1.63564 0.714774 0
M  V30 923 C 90.3981 3.14347 1.26645 0
M  V30 924 C 89.5711 4.32021 0.683856 0
M  V30 925 C 88.6301 4.99157 1.66518 0
M  V30 926 O 87.6561 5.56458 1.19763 0
M  V30 927 N 88.8581 4.97005 2.99943 0
M  V30 928 H 91.6231 2.94911 -0.533633 0
M  V30 929 H 89.1841 1.56077 -0.430294 0
M  V30 930 H 91.1761 3.56125 1.92242 0
M  V30 931 H 89.7461 2.49988 1.87682 0
M  V30 932 H 88.9661 3.93915 -0.1498 0
M  V30 933 H 90.2541 5.08059 0.274567 0
M  V30 934 H 89.6521 4.51714 3.40545 0
M  V30 935 H 88.2091 5.42696 3.61004 0
M  V30 936 N 91.6422 0.330177 1.54103 0
M  V30 937 C 92.8722 -0.271784 2.04805 0
M  V30 938 C 93.2802 -1.45816 1.20559 0
M  V30 939 O 92.6232 -1.82247 0.2306 0
M  V30 940 C 92.6852 -0.763238 3.51305 0
M  V30 941 C 92.3492 0.301705 4.56003 0
M  V30 942 C 93.3462 1.13999 5.07248 0
M  V30 943 C 91.0312 0.451793 5.00264 0
M  V30 944 C 93.0252 2.11402 6.01322 0
M  V30 945 C 90.7122 1.42924 5.94151 0
M  V30 946 C 91.7102 2.25882 6.44567 0
M  V30 947 O 91.3982 3.21965 7.3661 0
M  V30 948 H 91.1302 -0.058693 0.673447 0
M  V30 949 H 93.6842 0.476395 1.99799 0
M  V30 950 H 91.9142 -1.56244 3.5373 0
M  V30 951 H 93.6032 -1.28427 3.85047 0
M  V30 952 H 94.3692 1.03505 4.73827 0
M  V30 953 H 90.2482 -0.184044 4.60632 0
M  V30 954 H 93.7922 2.76192 6.40596 0
M  V30 955 H 89.6892 1.53479 6.26988 0
M  V30 956 H 90.4572 3.17281 7.54503 0
M  V30 957 N 93.1203 -1.57491 0.0584922 0
M  V30 958 C 94.5363 -1.56792 -0.298091 0
M  V30 959 C 94.7363 -1.06679 -1.70944 0
M  V30 960 O 93.7923 -0.726672 -2.41818 0
M  V30 961 C 95.1053 -3.00461 -0.119879 0
M  V30 962 C 96.6533 -3.1242 -0.190428 0
M  V30 963 C 97.1283 -4.57982 -0.0406567 0
M  V30 964 N 98.6193 -4.63099 -0.0966958 0
M  V30 965 C 99.3543 -5.734 -0.00502943 0
M  V30 966 N 98.8503 -6.9266 0.139402 0
M  V30 967 N 100.643 -5.62067 -0.0611391 0
M  V30 968 H 92.7943 -1.88386 0.98105 0
M  V30 969 H 95.0573 -0.867865 0.381463 0
M  V30 970 H 94.7633 -3.41187 0.85349 0
M  V30 971 H 94.6373 -3.66843 -0.877833 0
M  V30 972 H 97.0243 -2.71589 -1.15427 0
M  V30 973 H 97.1053 -2.48702 0.598405 0
M  V30 974 H 96.7493 -4.995 0.919897 0
M  V30 975 H 96.6793 -5.19715 -0.848727 0
M  V30 976 H 99.1703 -3.77331 -0.207277 0
M  V30 977 H 99.4833 -7.72536 0.201855 0
M  V30 978 H 97.8283 -6.94781 0.174586 0
M  V30 979 H 101.019 -4.67782 -0.172583 0
M  V30 980 H 101.192 -6.47999 0.0137562 0
M  V30 981 N 94.5984 0.214957 -1.56127 0
M  V30 982 C 95.5484 1.27006 -1.8935 0
M  V30 983 C 96.5324 1.41969 -0.757202 0
M  V30 984 O 97.7244 1.44673 -1.01973 0
M  V30 985 C 94.8534 2.61911 -2.2194 0
M  V30 986 C 93.9394 2.50822 -3.41978 0
M  V30 987 N 94.3304 2.09391 -4.60423 0
M  V30 988 C 92.6284 2.81765 -3.45723 0
M  V30 989 C 93.3294 2.09712 -5.42582 0
M  V30 990 N 92.3054 2.50454 -4.82466 0
M  V30 991 H 96.1074 0.940734 -2.78437 0
M  V30 992 H 93.6214 0.423492 -1.56781 0
M  V30 993 H 95.6184 3.38096 -2.43919 0
M  V30 994 H 94.2784 2.95684 -1.34169 0
M  V30 995 H 95.2894 1.80416 -4.85459 0
M  V30 996 H 91.9664 3.19865 -2.68314 0
M  V30 997 H 93.3564 1.79748 -6.4741 0
M  V30 998 N 96.0765 1.50051 0.48192 0
M  V30 999 C 97.3045 1.64237 1.25832 0
M  V30 1000 C 97.7195 0.321336 1.86045 0
M  V30 1001 O 97.0765 -0.695478 1.68729 0
M  V30 1002 C 97.1275 2.72548 2.37487 0
M  V30 1003 O 96.8485 3.99529 1.79745 0
M  V30 1004 C 98.3495 2.9761 3.28547 0
M  V30 1005 H 95.5695 0.55237 0.380957 0
M  V30 1006 H 98.1135 1.96207 0.576467 0
M  V30 1007 H 96.2685 2.43303 3.01467 0
M  V30 1008 H 96.6825 4.59342 2.5319 0
M  V30 1009 H 98.1565 3.77084 4.03127 0
M  V30 1010 H 98.6335 2.0826 3.86684 0
M  V30 1011 H 99.2395 3.28345 2.70314 0
M  V30 1012 N 97.5546 -0.734337 1.39446 0
M  V30 1013 C 98.7846 -1.52137 1.39778 0
M  V30 1014 C 99.1926 -1.89198 -0.00929312 0
M  V30 1015 O 98.5356 -1.54666 -0.991168 0
M  V30 1016 C 98.5976 -2.83762 2.20724 0
M  V30 1017 C 98.2616 -2.69131 3.69347 0
M  V30 1018 C 99.2586 -2.37635 4.62413 0
M  V30 1019 C 96.9436 -2.85982 4.1294 0
M  V30 1020 C 98.9376 -2.23172 5.97054 0
M  V30 1021 C 96.6246 -2.71137 5.47657 0
M  V30 1022 C 97.6226 -2.39777 6.39528 0
M  V30 1023 O 97.3106 -2.25026 7.71763 0
M  V30 1024 H 97.0426 -0.476717 0.479288 0
M  V30 1025 H 99.5966 -0.915012 1.83893 0
M  V30 1026 H 97.8266 -3.4666 1.71359 0
M  V30 1027 H 99.5156 -3.45383 2.13226 0
M  V30 1028 H 100.282 -2.24267 4.30034 0
M  V30 1029 H 96.1606 -3.09383 3.41765 0
M  V30 1030 H 99.7046 -1.98617 6.68728 0
M  V30 1031 H 95.6016 -2.84083 5.79626 0
M  V30 1032 H 96.3696 -2.40091 7.82495 0
M  V30 1033 N 99.0327 -1.24633 -0.964593 0
M  V30 1034 C 100.281 -1.08573 -1.70459 0
M  V30 1035 C 100.602 0.375655 -1.91347 0
M  V30 1036 O 99.8717 1.26779 -1.49345 0
M  V30 1037 H 98.4517 -0.398784 -0.631649 0
M  V30 1038 H 101.114 -1.56601 -1.16026 0
M  V30 1039 H 100.21 -1.58623 -2.68785 0
M  V30 1040 N 100.511 1.16574 -1.06058 0
M  V30 1041 C 101.927 1.3904 -0.783585 0
M  V30 1042 C 102.127 1.91784 0.618145 0
M  V30 1043 O 101.183 2.11511 1.37911 0
M  V30 1044 C 102.496 2.37329 -1.84649 0
M  V30 1045 C 104.044 2.51018 -1.86973 0
M  V30 1046 C 104.519 3.52588 -2.92311 0
M  V30 1047 N 106.01 3.60113 -2.91329 0
M  V30 1048 C 106.745 4.38486 -3.69482 0
M  V30 1049 N 106.241 5.20302 -4.57447 0
M  V30 1050 N 108.034 4.33446 -3.57885 0
M  V30 1051 H 100.185 0.806725 -1.96483 0
M  V30 1052 H 102.448 0.417117 -0.851303 0
M  V30 1053 H 102.154 2.05663 -2.85299 0
M  V30 1054 H 102.028 3.36946 -1.6955 0
M  V30 1055 H 104.415 2.81989 -0.869827 0
M  V30 1056 H 104.496 1.51445 -2.0615 0
M  V30 1057 H 104.14 3.22354 -3.92492 0
M  V30 1058 H 104.07 4.51886 -2.70383 0
M  V30 1059 H 106.561 3.01707 -2.27555 0
M  V30 1060 H 106.874 5.77311 -5.13743 0
M  V30 1061 H 105.219 5.19653 -4.61503 0
M  V30 1062 H 108.41 3.68586 -2.88551 0
M  V30 1063 H 108.583 4.94279 -4.19037 0
M  V30 1064 N 101.989 0.842826 1.3317 0
M  V30 1065 C 103.405 0.531128 1.50503 0
M  V30 1066 C 103.605 -0.940734 1.78192 0
M  V30 1067 O 102.661 -1.72436 1.84451 0
M  V30 1068 C 103.974 1.40789 2.65705 0
M  V30 1069 C 105.522 1.40708 2.79589 0
M  V30 1070 C 105.997 2.26878 3.97857 0
M  V30 1071 N 107.488 2.24609 4.05099 0
M  V30 1072 C 108.223 2.88019 4.95815 0
M  V30 1073 N 107.719 3.60496 5.9162 0
M  V30 1074 N 109.512 2.77469 4.88843 0
M  V30 1075 H 101.663 1.79557 1.1346 0
M  V30 1076 H 103.926 0.766267 0.558156 0
M  V30 1077 H 103.632 2.454 2.51936 0
M  V30 1078 H 103.506 1.08677 3.61205 0
M  V30 1079 H 105.893 0.368668 2.92788 0
M  V30 1080 H 105.974 1.76829 1.84838 0
M  V30 1081 H 105.618 3.3078 3.85418 0
M  V30 1082 H 105.548 1.88096 4.91861 0
M  V30 1083 H 108.039 1.71906 3.36536 0
M  V30 1084 H 108.352 4.06076 6.57512 0
M  V30 1085 H 106.697 3.64604 5.91683 0
M  V30 1086 H 109.888 2.20406 4.12963 0
M  V30 1087 H 110.061 3.2717 5.59342 0
M  V30 1088 N 103.467 -1.45747 0.599634 0
M  V30 1089 C 104.397 -2.33235 -0.111306 0
M  V30 1090 C 105.378 -1.46359 -0.866781 0
M  V30 1091 O 106.563 -1.75146 -0.838904 0
M  V30 1092 C 103.693 -3.28932 -1.11451 0
M  V30 1093 C 102.647 -4.25381 -0.472772 0
M  V30 1094 C 101.973 -5.1071 -1.58365 0
M  V30 1095 C 103.273 -5.18831 0.600948 0
M  V30 1096 H 104.967 -2.92927 0.61919 0
M  V30 1097 H 102.513 -1.40857 0.299215 0
M  V30 1098 H 104.466 -3.89002 -1.62036 0
M  V30 1099 H 103.19 -2.67381 -1.8755 0
M  V30 1100 H 101.849 -3.66598 0.0121472 0
M  V30 1101 H 101.497 -4.45533 -2.33473 0
M  V30 1102 H 101.197 -5.7604 -1.15982 0
M  V30 1103 H 102.721 -5.73647 -2.09194 0
M  V30 1104 H 104.135 -5.73019 0.179491 0
M  V30 1105 H 102.532 -5.92595 0.946076 0
M  V30 1106 H 103.602 -4.6174 1.48068 0
M  V30 1107 N 104.945 -0.338344 -1.53925 0
M  V30 1108 C 106.191 0.252842 -2.01822 0
M  V30 1109 C 106.546 1.48612 -1.22197 0
M  V30 1110 O 105.839 1.89238 -0.299892 0
M  V30 1111 C 106.033 0.62448 -3.51902 0
M  V30 1112 C 105.862 -0.571235 -4.46057 0
M  V30 1113 C 104.632 -1.07493 -4.93734 0
M  V30 1114 C 106.83 -1.42807 -4.94076 0
M  V30 1115 N 104.812 -2.23351 -5.71828 0
M  V30 1116 C 106.183 -2.43362 -5.70241 0
M  V30 1117 C 108.238 -1.45412 -4.76193 0
M  V30 1118 C 106.941 -3.46346 -6.30426 0
M  V30 1119 C 108.967 -2.47274 -5.37224 0
M  V30 1120 C 108.329 -3.46555 -6.13253 0
M  V30 1121 H 104.428 0.0559669 -0.779995 0
M  V30 1122 H 107.012 -0.476732 -1.88773 0
M  V30 1123 H 105.183 1.32317 -3.65167 0
M  V30 1124 H 106.915 1.19841 -3.86549 0
M  V30 1125 H 103.67 -0.643848 -4.69203 0
M  V30 1126 H 104.094 -2.81834 -6.15548 0
M  V30 1127 H 108.736 -0.700171 -4.16962 0
M  V30 1128 H 106.454 -4.22638 -6.88769 0
M  V30 1129 H 110.04 -2.50109 -5.25297 0
M  V30 1130 H 108.92 -4.24083 -6.59638 0
M  V30 1131 N 106.423 1.57458 -0.0668435 0
M  V30 1132 C 107.333 2.15937 0.916975 0
M  V30 1133 C 108.349 1.12123 1.33058 0
M  V30 1134 O 109.525 1.44366 1.40429 0
M  V30 1135 C 106.59 2.70547 2.16807 0
M  V30 1136 C 105.651 3.89215 1.81135 0
M  V30 1137 C 104.884 4.41211 3.0028 0
M  V30 1138 O 105.107 3.92225 4.14144 0
M  V30 1139 O 104.041 5.32605 2.80384 0
M  V30 1140 H 107.867 3.00354 0.449561 0
M  V30 1141 H 105.452 1.48584 0.155949 0
M  V30 1142 H 107.334 3.0557 2.90181 0
M  V30 1143 H 106.009 1.89192 2.62656 0
M  V30 1144 H 104.916 3.59054 1.05028 0
M  V30 1145 H 106.249 4.71848 1.40073 0
M  V30 1146 N 107.901 -0.206675 1.56239 0
M  V30 1147 C 108.831 -1.25909 1.96645 0
M  V30 1148 C 109.812 -1.48097 0.836734 0
M  V30 1149 O 110.997 -1.6003 1.10019 0
M  V30 1150 C 108.127 -2.6058 2.29599 0
M  V30 1151 C 107.081 -2.53024 3.452 0
M  V30 1152 C 106.407 -3.91861 3.63798 0
M  V30 1153 C 107.707 -2.06524 4.79734 0
M  V30 1154 H 109.401 -0.923369 2.84806 0
M  V30 1155 H 106.947 -0.442735 1.37025 0
M  V30 1156 H 108.9 -3.34375 2.56459 0
M  V30 1157 H 107.624 -2.95869 1.38307 0
M  V30 1158 H 106.283 -1.81684 3.18412 0
M  V30 1159 H 105.931 -4.24483 2.69857 0
M  V30 1160 H 105.631 -3.87683 4.4156 0
M  V30 1161 H 107.155 -4.67296 3.93022 0
M  V30 1162 H 108.569 -2.70072 5.05702 0
M  V30 1163 H 106.966 -2.13374 5.60885 0
M  V30 1164 H 108.036 -1.01802 4.74093 0
M  V30 1165 N 109.379 -1.50304 -0.473955 0
M  V30 1166 C 110.79 -1.54042 -1.0549 0
M  V30 1167 C 111.141 -0.342248 -1.93192 0
M  V30 1168 O 110.266 0.545157 -2.09421 0
M  V30 1169 C 110.861 -2.79152 -1.91989 0
M  V30 1170 C 109.42 -2.8558 -2.45196 0
M  V30 1171 C 108.567 -2.48295 -1.2347 0
M  V30 1172 H 111.518 -1.5661 -0.256693 0
M  V30 1173 H 111.539 -2.60845 -2.7702 0
M  V30 1174 H 111.051 -3.66339 -1.28131 0
M  V30 1175 H 109.152 -2.02738 -3.12615 0
M  V30 1176 H 109.265 -3.88403 -2.80499 0
M  V30 1177 H 107.629 -2.00669 -1.56856 0
M  V30 1178 H 108.412 -3.37787 -0.612789 0
M  V30 1179 N 110.857 0.726932 -1.39834 0
M  V30 1180 C 111.82 1.82269 -1.38962 0
M  V30 1181 C 112.82 1.58248 -0.285334 0
M  V30 1182 O 114.01 1.65499 -0.54366 0
M  V30 1183 C 111.142 3.20186 -1.17019 0
M  V30 1184 H 112.335 1.84443 -2.36476 0
M  V30 1185 H 109.888 0.931416 -1.25516 0
M  V30 1186 H 110.623 3.23669 -0.202204 0
M  V30 1187 H 110.408 3.3902 -1.96998 0
M  V30 1188 H 111.898 4.00235 -1.1917 0
M  V30 1189 N 112.336 1.25143 0.95797 0
M  V30 1190 C 113.584 1.09476 1.69881 0
M  V30 1191 C 113.905 -0.365502 1.91544 0
M  V30 1192 O 113.175 -1.25985 1.50015 0
M  V30 1193 H 111.755 0.402128 0.629525 0
M  V30 1194 H 114.417 1.57214 1.15194 0
M  V30 1195 H 113.513 1.60046 2.6794 0
M  V30 1196 N 113.814 -1.1601 1.06675 0
M  V30 1197 C 114.744 -2.22688 0.702307 0
M  V30 1198 C 115.725 -1.67306 -0.307032 0
M  V30 1199 O 116.91 -1.93352 -0.181305 0
M  V30 1200 C 114.04 -3.47178 0.092038 0
M  V30 1201 C 112.994 -4.15477 1.02777 0
M  V30 1202 C 112.32 -5.33963 0.28061 0
M  V30 1203 C 113.62 -4.66019 2.35846 0
M  V30 1204 H 115.314 -2.53429 1.59419 0
M  V30 1205 H 112.86 -1.21813 0.767961 0
M  V30 1206 H 114.813 -4.21037 -0.174814 0
M  V30 1207 H 113.537 -3.15749 -0.834877 0
M  V30 1208 H 112.196 -3.43549 1.27944 0
M  V30 1209 H 111.844 -4.98788 -0.649545 0
M  V30 1210 H 111.544 -5.806 0.904258 0
M  V30 1211 H 113.068 -6.10596 0.021396 0
M  V30 1212 H 114.482 -5.3144 2.15045 0
M  V30 1213 H 112.879 -5.23293 2.93743 0
M  V30 1214 H 113.949 -3.82023 2.98641 0
M  V30 1215 N 115.292 -0.849877 -1.32721 0
M  V30 1216 C 116.222 -0.306308 -2.31482 0
M  V30 1217 C 117.203 0.591952 -1.59468 0
M  V30 1218 O 118.388 0.513199 -1.87296 0
M  V30 1219 C 115.518 0.510204 -3.43532 0
M  V30 1220 C 114.472 -0.293209 -4.26994 0
M  V30 1221 C 113.798 0.647743 -5.30762 0
M  V30 1222 C 115.098 -1.51634 -4.99804 0
M  V30 1223 H 116.792 -1.13153 -2.77195 0
M  V30 1224 H 114.338 -0.545553 -1.33266 0
M  V30 1225 H 116.291 0.900856 -4.11658 0
M  V30 1226 H 115.015 1.36874 -2.96535 0
M  V30 1227 H 113.674 -0.665555 -3.60508 0
M  V30 1228 H 113.322 1.50299 -4.8002 0
M  V30 1229 H 113.022 0.11422 -5.87489 0
M  V30 1230 H 114.546 1.03567 -6.01753 0
M  V30 1231 H 115.96 -1.19824 -5.60638 0
M  V30 1232 H 114.357 -1.98745 -5.66234 0
M  V30 1233 H 115.427 -2.28018 -4.27943 0
M  V30 1234 N 116.77 1.45427 -0.607355 0
M  V30 1235 C 118.047 1.9557 -0.0344566 0
M  V30 1236 C 118.427 1.54979 1.43334 0
M  V30 1237 O 117.775 0.812241 2.13576 0
M  V30 1238 C 117.985 3.48226 -0.232321 0
M  V30 1239 C 119.333 4.2445 -0.113001 0
M  V30 1240 O 120.357 3.55829 -0.162431 0
M  V30 1241 O 119.216 5.465 0.00209442 0
M  V30 1242 H 116.31 0.826222 0.0358667 0
M  V30 1243 H 118.856 1.55594 -0.6774 0
M  V30 1244 H 117.628 3.70739 -1.25174 0
M  V30 1245 H 117.251 3.95092 0.445896 0
M  V30 1246 N 118.248 0.346503 1.53744 0
M  V30 1247 C 119.494 -0.249473 2.0126 0
M  V30 1248 C 119.827 -1.49965 1.23386 0
M  V30 1249 O 119.102 -1.91811 0.32229 0
M  V30 1250 C 119.385 -0.560643 3.55709 0
M  V30 1251 C 119.238 0.701836 4.44291 0
M  V30 1252 C 120.557 -1.36905 4.18264 0
M  V30 1253 H 117.676 -0.0891987 0.731582 0
M  V30 1254 H 120.318 0.467624 1.84156 0
M  V30 1255 H 118.468 -1.17156 3.70414 0
M  V30 1256 H 120.14 1.33974 4.41417 0
M  V30 1257 H 118.383 1.32612 4.13033 0
M  V30 1258 H 119.054 0.43933 5.50249 0
M  V30 1259 H 121.53 -0.852448 4.07275 0
M  V30 1260 H 120.406 -1.55553 5.26398 0
M  V30 1261 H 120.667 -2.37203 3.73078 0
M  V30 1262 N 119.726 -1.57421 0.075193 0
M  V30 1263 C 120.689 -2.11791 -0.876203 0
M  V30 1264 C 121.689 -1.04268 -1.22412 0
M  V30 1265 O 122.879 -1.30242 -1.15684 0
M  V30 1266 C 120.011 -2.62207 -2.17854 0
M  V30 1267 H 121.204 -2.9716 -0.40444 0
M  V30 1268 H 118.757 -1.55333 -0.173557 0
M  V30 1269 H 119.492 -1.803 -2.6956 0
M  V30 1270 H 119.277 -3.40802 -1.93897 0
M  V30 1271 H 120.767 -3.04335 -2.85955 0
M  V30 1272 N 121.204 0.198386 -1.56346 0
M  V30 1273 C 122.452 0.91747 -1.80075 0
M  V30 1274 C 122.773 1.83929 -0.647692 0
M  V30 1275 O 122.043 1.93029 0.334166 0
M  V30 1276 H 120.623 0.341774 -0.664228 0
M  V30 1277 H 123.285 0.204684 -1.93822 0
M  V30 1278 H 122.381 1.51055 -2.7311 0
M  V30 1279 N 122.682 1.50554 0.465978 0
M  V30 1280 C 123.592 1.72585 1.58907 0
M  V30 1281 C 124.608 0.60911 1.6299 0
M  V30 1282 O 125.784 0.88804 1.80765 0
M  V30 1283 C 122.849 1.81995 2.95091 0
M  V30 1284 C 121.91 3.05751 3.01355 0
M  V30 1285 C 121.143 3.14702 4.31043 0
M  V30 1286 O 121.366 2.30313 5.21835 0
M  V30 1287 O 120.3 4.07468 4.43005 0
M  V30 1288 H 124.126 2.67799 1.43239 0
M  V30 1289 H 121.711 1.34711 0.646013 0
M  V30 1290 H 123.593 1.90335 3.75966 0
M  V30 1291 H 122.268 0.899659 3.10947 0
M  V30 1292 H 121.175 3.02908 2.19539 0
M  V30 1293 H 122.508 3.97375 2.90437 0
M  V30 1294 N 124.16 -0.719506 1.40217 0
M  V30 1295 C 125.571 -1.29848 1.34151 0
M  V30 1296 C 125.922 -1.96196 0.0131349 0
M  V30 1297 O 125.047 -1.973 -0.88892 0
M  V30 1298 C 125.642 -2.36118 2.42968 0
M  V30 1299 C 124.201 -2.8965 2.40374 0
M  V30 1300 C 123.348 -1.63393 2.24049 0
M  V30 1301 H 126.299 -0.51591 1.5008 0
M  V30 1302 H 126.32 -3.16871 2.10649 0
M  V30 1303 H 125.832 -1.878 3.39636 0
M  V30 1304 H 123.933 -3.42208 1.47392 0
M  V30 1305 H 124.046 -3.4171 3.35814 0
M  V30 1306 H 122.41 -1.88312 1.71495 0
M  V30 1307 H 123.193 -1.17104 3.2271 0
M  V30 1308 N 125.638 -1.25649 -0.95132 0
M  V30 1309 C 127.049 -1.09654 -1.51106 0
M  V30 1310 C 127.4 0.326615 -1.93462 0
M  V30 1311 O 126.525 1.21697 -1.78938 0
M  V30 1312 C 127.12 -1.98437 -2.74605 0
M  V30 1313 C 125.679 -1.86618 -3.2688 0
M  V30 1314 C 124.826 -1.9239 -1.99703 0
M  V30 1315 H 127.777 -1.38887 -0.767865 0
M  V30 1316 H 127.798 -1.5263 -3.48546 0
M  V30 1317 H 127.31 -3.02009 -2.43746 0
M  V30 1318 H 125.411 -0.859421 -3.62553 0
M  V30 1319 H 125.524 -2.71607 -3.94673 0
M  V30 1320 H 123.888 -1.36317 -2.15151 0
M  V30 1321 H 124.671 -2.97573 -1.71188 0
M  V30 1322 N 127.117 1.15442 -1.07289 0
M  V30 1323 C 128.067 2.18164 -0.662467 0
M  V30 1324 C 129.051 1.57845 0.312074 0
M  V30 1325 O 130.243 1.76552 0.125905 0
M  V30 1326 C 127.372 3.43246 -0.0611295 0
M  V30 1327 C 126.458 4.1062 -1.06077 0
M  V30 1328 N 126.849 4.53491 -2.24008 0
M  V30 1329 C 125.147 4.36949 -0.893964 0
M  V30 1330 C 125.848 5.05731 -2.87422 0
M  V30 1331 N 124.824 4.99236 -2.15091 0
M  V30 1332 H 128.626 2.49038 -1.56068 0
M  V30 1333 H 126.14 1.32003 -0.945988 0
M  V30 1334 H 128.137 4.16145 0.250792 0
M  V30 1335 H 126.797 3.13854 0.832207 0
M  V30 1336 H 127.808 4.46898 -2.6173 0
M  V30 1337 H 124.485 4.17466 -0.0534693 0
M  V30 1338 H 125.875 5.48865 -3.87553 0
M  V30 1339 N 128.595 0.856903 1.32268 0
M  V30 1340 C 129.525 0.31858 2.31316 0
M  V30 1341 C 130.506 -0.583487 1.59779 0
M  V30 1342 O 131.691 -0.503259 1.87566 0
M  V30 1343 C 128.821 -0.491979 3.43798 0
M  V30 1344 C 127.775 0.315849 4.26833 0
M  V30 1345 C 127.101 -0.619586 5.31098 0
M  V30 1346 C 128.401 1.54282 4.98993 0
M  V30 1347 H 130.095 1.14621 2.76591 0
M  V30 1348 H 127.641 0.552613 1.32974 0
M  V30 1349 H 129.594 -0.879012 4.1213 0
M  V30 1350 H 128.318 -1.35299 2.97257 0
M  V30 1351 H 126.977 0.684664 3.6015 0
M  V30 1352 H 126.625 -1.47751 4.8081 0
M  V30 1353 H 126.325 -0.0830621 5.87541 0
M  V30 1354 H 127.849 -1.00375 6.02293 0
M  V30 1355 H 129.263 1.22796 5.59995 0
M  V30 1356 H 127.66 2.01745 5.65172 0
M  V30 1357 H 128.73 2.30285 4.26728 0
M  V30 1358 N 130.073 -1.45103 0.615059 0
M  V30 1359 C 131.301 -2.06553 0.11977 0
M  V30 1360 C 131.716 -1.45842 -1.19898 0
M  V30 1361 O 131.073 -0.575325 -1.73194 0
M  V30 1362 C 131.124 -3.61495 -0.018364 0
M  V30 1363 O 130.845 -4.19942 1.24822 0
M  V30 1364 C 132.346 -4.39947 -0.544237 0
M  V30 1365 H 129.566 -0.667096 0.0722739 0
M  V30 1366 H 132.11 -1.8623 0.84491 0
M  V30 1367 H 130.265 -3.81135 -0.693865 0
M  V30 1368 H 130.679 -5.13204 1.0827 0
M  V30 1369 H 132.153 -5.48838 -0.589953 0
M  V30 1370 H 132.63 -4.10255 -1.56805 0
M  V30 1371 H 133.236 -4.25188 0.0974703 0
M  V30 1372 N 131.551 -0.354651 -1.53558 0
M  V30 1373 C 132.514 0.484566 -2.24019 0
M  V30 1374 C 133.514 1.01861 -1.24422 0
M  V30 1375 O 134.704 0.906097 -1.4878 0
M  V30 1376 C 131.836 1.67615 -2.96847 0
M  V30 1377 H 133.029 -0.131843 -2.9961 0
M  V30 1378 H 130.582 -0.106165 -1.55939 0
M  V30 1379 H 131.317 2.33095 -2.25471 0
M  V30 1380 H 131.102 1.30029 -3.69912 0
M  V30 1381 H 132.592 2.27114 -3.50441 0
M  V30 1382 N 133.029 1.57378 -0.0835403 0
M  V30 1383 C 133.992 2.12252 0.864959 0
M  V30 1384 C 134.992 1.04916 1.21858 0
M  V30 1385 O 136.182 1.30853 1.14991 0
M  V30 1386 C 133.314 2.63358 2.16461 0
M  V30 1387 H 134.507 2.97371 0.388676 0
M  V30 1388 H 132.06 1.55423 0.165317 0
M  V30 1389 H 132.795 1.81727 2.686 0
M  V30 1390 H 132.58 3.41826 1.92087 0
M  V30 1391 H 134.07 3.05847 2.84337 0
M  V30 1392 N 134.507 -0.190092 1.56449 0
M  V30 1393 C 135.923 -0.54113 1.50146 0
M  V30 1394 C 136.123 -1.85603 0.784465 0
M  V30 1395 O 135.179 -2.5024 0.337051 0
M  V30 1396 C 136.492 -0.591241 2.9483 0
M  V30 1397 C 138.04 -0.679732 3.0553 0
M  V30 1398 C 138.515 -0.760908 4.51635 0
M  V30 1399 N 140.006 -0.824302 4.55806 0
M  V30 1400 C 140.741 -0.907365 5.66175 0
M  V30 1401 N 140.237 -0.952422 6.86222 0
M  V30 1402 N 142.03 -0.94494 5.541 0
M  V30 1403 H 134.181 0.67235 2.01478 0
M  V30 1404 H 136.444 0.240127 0.917084 0
M  V30 1405 H 136.15 0.305905 3.50367 0
M  V30 1406 H 136.024 -1.44422 3.48457 0
M  V30 1407 H 138.411 -1.56731 2.50039 0
M  V30 1408 H 138.492 0.199549 2.5502 0
M  V30 1409 H 138.136 0.122336 5.07753 0
M  V30 1410 H 138.066 -1.65606 4.99882 0
M  V30 1411 H 140.557 -0.798526 3.69367 0
M  V30 1412 H 140.87 -1.01645 7.66086 0
M  V30 1413 H 139.215 -0.921014 6.8887 0
M  V30 1414 H 142.406 -0.906612 4.59236 0
M  V30 1415 H 142.579 -1.00622 6.4014 0
M  V30 1416 N 135.985 -1.50799 -0.457987 0
M  V30 1417 C 136.895 -1.73426 -1.57989 0
M  V30 1418 C 137.911 -0.617745 -1.62665 0
M  V30 1419 O 139.087 -0.897614 -1.80291 0
M  V30 1420 C 136.152 -1.83557 -2.94122 0
M  V30 1421 C 135.213 -3.07345 -2.99729 0
M  V30 1422 C 134.446 -3.16983 -4.29368 0
M  V30 1423 O 134.669 -2.33077 -5.20607 0
M  V30 1424 O 133.603 -4.09812 -4.40837 0
M  V30 1425 H 137.429 -2.68555 -1.41817 0
M  V30 1426 H 135.014 -1.35052 -0.638859 0
M  V30 1427 H 136.896 -1.92326 -3.74952 0
M  V30 1428 H 135.571 -0.916137 -3.10465 0
M  V30 1429 H 134.478 -3.04068 -2.1793 0
M  V30 1430 H 135.811 -3.9891 -2.88326 0
M  V30 1431 N 137.463 0.71206 -1.40597 0
M  V30 1432 C 138.393 1.83889 -1.43899 0
M  V30 1433 C 139.374 1.67442 -0.299504 0
M  V30 1434 O 140.559 1.87421 -0.508624 0
M  V30 1435 C 137.689 3.21877 -1.30431 0
M  V30 1436 C 136.643 3.53002 -2.42019 0
M  V30 1437 C 135.969 4.90172 -2.13626 0
M  V30 1438 C 137.269 3.53643 -3.84362 0
M  V30 1439 H 138.963 1.81383 -2.38203 0
M  V30 1440 H 136.509 0.871237 -1.14654 0
M  V30 1441 H 138.462 4.00404 -1.31357 0
M  V30 1442 H 137.186 3.24968 -0.326049 0
M  V30 1443 H 135.845 2.76818 -2.40349 0
M  V30 1444 H 135.493 4.89869 -1.14182 0
M  V30 1445 H 135.193 5.11962 -2.88389 0
M  V30 1446 H 136.717 5.71028 -2.1624 0
M  V30 1447 H 138.131 4.22203 -3.87837 0
M  V30 1448 H 136.528 3.86961 -4.58673 0
M  V30 1449 H 137.598 2.52954 -4.13693 0
M  V30 1450 N 138.941 1.26152 0.944643 0
M  V30 1451 C 140.357 1.03189 1.21754 0
M  V30 1452 C 140.557 -0.245112 2.00004 0
M  V30 1453 O 139.613 -0.955176 2.33736 0
M  V30 1454 C 140.926 2.26119 1.98219 0
M  V30 1455 C 142.474 2.30984 2.11224 0
M  V30 1456 C 142.949 3.53597 2.91089 0
M  V30 1457 N 144.44 3.54053 2.98664 0
M  V30 1458 C 145.175 4.45593 3.60881 0
M  V30 1459 N 144.671 5.47416 4.24626 0
M  V30 1460 N 146.464 4.33252 3.58119 0
M  V30 1461 H 138.615 2.08177 0.421437 0
M  V30 1462 H 140.878 0.914723 0.248969 0
M  V30 1463 H 140.584 3.18984 1.48128 0
M  V30 1464 H 140.458 2.3009 2.98895 0
M  V30 1465 H 142.845 1.38635 2.60508 0
M  V30 1466 H 142.926 2.31026 1.09821 0
M  V30 1467 H 142.57 4.46273 2.42493 0
M  V30 1468 H 142.5 3.50802 3.92741 0
M  V30 1469 H 144.991 2.80403 2.53343 0
M  V30 1470 H 145.304 6.13459 4.69987 0
M  V30 1471 H 143.649 5.51278 4.23223 0
M  V30 1472 H 146.84 3.52924 3.0751 0
M  V30 1473 H 147.013 5.04786 4.06319 0
M  V30 1474 N 140.419 -1.14872 1.07899 0
M  V30 1475 C 141.329 -2.2341 0.715915 0
M  V30 1476 C 142.345 -1.71808 -0.275306 0
M  V30 1477 O 143.521 -2.01039 -0.120545 0
M  V30 1478 C 140.586 -3.46474 0.125168 0
M  V30 1479 C 139.647 -4.13039 1.17034 0
M  V30 1480 C 138.88 -5.30229 0.607688 0
M  V30 1481 O 139.103 -5.675 -0.574497 0
M  V30 1482 O 138.037 -5.86444 1.35526 0
M  V30 1483 H 141.863 -2.56808 1.62121 0
M  V30 1484 H 139.448 -1.22702 0.852322 0
M  V30 1485 H 141.33 -4.20917 -0.201729 0
M  V30 1486 H 140.005 -3.14811 -0.753364 0
M  V30 1487 H 138.912 -3.40493 1.54968 0
M  V30 1488 H 140.245 -4.48796 2.02097 0
M  V30 1489 N 141.898 -0.863906 -1.31812 0
M  V30 1490 C 142.808 -0.318461 -2.32428 0
M  V30 1491 C 143.824 0.568496 -1.64451 0
M  V30 1492 O 145 0.46666 -1.95919 0
M  V30 1493 C 142.065 0.476355 -3.43412 0
M  V30 1494 C 141.126 -0.43784 -4.27061 0
M  V30 1495 C 140.359 0.319138 -5.32745 0
M  V30 1496 O 140.582 1.54799 -5.48993 0
M  V30 1497 O 139.516 -0.319861 -6.01049 0
M  V30 1498 H 143.342 -1.15229 -2.80991 0
M  V30 1499 H 140.927 -0.627103 -1.35602 0
M  V30 1500 H 142.809 0.927156 -4.11074 0
M  V30 1501 H 141.484 1.28683 -2.97022 0
M  V30 1502 H 140.391 -0.937013 -3.62175 0
M  V30 1503 H 141.724 -1.21375 -4.77 0
M  V30 1504 N 143.376 1.44774 -0.622745 0
M  V30 1505 C 144.622 2.0242 -0.124083 0
M  V30 1506 C 144.955 1.4881 1.24777 0
M  V30 1507 O 144.23 0.668799 1.8264 0
M  V30 1508 C 144.513 3.59957 -0.101619 0
M  V30 1509 C 144.366 4.23867 -1.50521 0
M  V30 1510 C 145.685 4.36284 0.578272 0
M  V30 1511 H 142.804 0.735528 -0.0465645 0
M  V30 1512 H 145.446 1.72447 -0.797617 0
M  V30 1513 H 143.596 3.85623 0.471934 0
M  V30 1514 H 145.268 4.09336 -2.12701 0
M  V30 1515 H 143.511 3.81684 -2.06154 0
M  V30 1516 H 144.182 5.32843 -1.4416 0
M  V30 1517 H 146.658 4.16001 0.0906057 0
M  V30 1518 H 145.534 5.46004 0.563149 0
M  V30 1519 H 145.795 4.10271 1.64713 0
M  V30 1520 N 144.854 0.36279 1.53368 0
M  V30 1521 C 146.102 -0.227326 2.00817 0
M  V30 1522 C 146.423 -1.49511 1.25186 0
M  V30 1523 O 145.693 -1.92482 0.364348 0
M  V30 1524 H 144.273 -0.0869923 0.741917 0
M  V30 1525 H 146.935 0.488381 1.88682 0
M  V30 1526 H 146.031 -0.456273 3.08747 0
M  V30 1527 N 146.332 -1.57332 0.0918853 0
M  V30 1528 C 147.262 -2.16872 -0.865371 0
M  V30 1529 C 148.243 -1.10118 -1.29646 0
M  V30 1530 O 149.428 -1.38242 -1.36392 0
M  V30 1531 C 146.558 -2.74649 -2.12569 0
M  V30 1532 C 145.512 -3.86747 -1.83333 0
M  V30 1533 C 144.838 -4.31212 -3.16166 0
M  V30 1534 C 146.138 -5.10089 -1.1228 0
M  V30 1535 H 147.832 -2.97114 -0.369307 0
M  V30 1536 H 145.378 -1.42918 -0.176194 0
M  V30 1537 H 147.331 -3.14952 -2.7997 0
M  V30 1538 H 146.055 -1.91657 -2.64452 0
M  V30 1539 H 144.714 -3.46978 -1.18331 0
M  V30 1540 H 144.362 -3.45115 -3.6593 0
M  V30 1541 H 144.062 -5.06788 -2.97388 0
M  V30 1542 H 145.586 -4.74146 -3.84731 0
M  V30 1543 H 147 -5.47582 -1.69785 0
M  V30 1544 H 145.397 -5.91073 -1.03693 0
M  V30 1545 H 146.467 -4.84786 -0.105041 0
M  V30 1546 N 147.81 0.181792 -1.56548 0
M  V30 1547 C 148.742 1.24956 -1.92142 0
M  V30 1548 C 149.755 1.41022 -0.813422 0
M  V30 1549 O 150.944 1.41212 -1.09186 0
M  V30 1550 C 148.044 2.61981 -2.14987 0
M  V30 1551 C 147.217 2.6735 -3.46183 0
M  V30 1552 C 146.276 3.85664 -3.5798 0
M  V30 1553 O 145.302 3.72148 -4.30691 0
M  V30 1554 N 146.504 5.01683 -2.92053 0
M  V30 1555 H 149.269 0.947329 -2.84334 0
M  V30 1556 H 146.83 0.371629 -1.57577 0
M  V30 1557 H 148.822 3.3958 -2.20154 0
M  V30 1558 H 147.392 2.84637 -1.2923 0
M  V30 1559 H 146.612 1.75925 -3.52766 0
M  V30 1560 H 147.9 2.67939 -4.32534 0
M  V30 1561 H 147.298 5.15564 -2.32832 0
M  V30 1562 H 145.855 5.77181 -3.0283 0
M  V30 1563 N 149.288 1.51039 0.449983 0
M  V30 1564 C 150.251 1.70863 1.5277 0
M  V30 1565 C 151.251 0.578846 1.5002 0
M  V30 1566 O 152.441 0.846213 1.52266 0
M  V30 1567 C 149.573 1.75341 2.9235 0
M  V30 1568 H 150.766 2.67034 1.36502 0
M  V30 1569 H 148.319 1.40838 0.677812 0
M  V30 1570 H 149.054 0.809383 3.14037 0
M  V30 1571 H 148.839 2.57436 2.95752 0
M  V30 1572 H 150.329 1.92559 3.70555 0
M  V30 1573 N 150.766 -0.704594 1.40972 0
M  V30 1574 C 151.991 -1.49858 1.43378 0
M  V30 1575 C 152.416 -1.88061 0.038184 0
M  V30 1576 O 151.774 -1.5402 -0.956425 0
M  V30 1577 C 151.822 -2.74333 2.34038 0
M  V30 1578 O 150.926 -3.7147 1.7912 0
M  V30 1579 H 150.267 -0.45139 0.486974 0
M  V30 1580 H 152.797 -0.866832 1.8533 0
M  V30 1581 H 152.807 -3.22741 2.49604 0
M  V30 1582 H 151.482 -2.45863 3.35446 0
M  V30 1583 H 150.059 -3.30363 1.72958 0
M  V30 1584 N 152.244 -1.26651 -0.937939 0
M  V30 1585 C 153.472 -1.15173 -1.7188 0
M  V30 1586 C 153.887 0.292668 -1.86518 0
M  V30 1587 O 153.244 1.20014 -1.37488 0
M  V30 1588 C 153.295 -1.81925 -3.12387 0
M  V30 1589 O 153.016 -3.2072 -2.98446 0
M  V30 1590 C 154.517 -1.76442 -4.06673 0
M  V30 1591 H 151.737 -0.400911 -0.538063 0
M  V30 1592 H 154.281 -1.67332 -1.1756 0
M  V30 1593 H 152.436 -1.33696 -3.63599 0
M  V30 1594 H 152.85 -3.53802 -3.872 0
M  V30 1595 H 154.324 -2.27781 -5.02812 0
M  V30 1596 H 154.801 -0.731608 -4.33064 0
M  V30 1597 H 155.407 -2.24238 -3.61382 0
M  V30 1598 N 153.722 1.14298 -1.08507 0
M  V30 1599 C 154.968 1.85854 -0.826438 0
M  V30 1600 C 155.323 1.81413 0.640878 0
M  V30 1601 O 154.616 1.23463 1.46518 0
M  V30 1602 C 154.81 3.33547 -1.28379 0
M  V30 1603 C 154.639 3.52369 -2.79403 0
M  V30 1604 C 153.409 3.67159 -3.47164 0
M  V30 1605 C 155.607 3.49203 -3.77573 0
M  V30 1606 N 153.589 3.74149 -4.86709 0
M  V30 1607 C 154.96 3.6245 -5.03021 0
M  V30 1608 C 157.015 3.32547 -3.70563 0
M  V30 1609 C 155.718 3.60761 -6.2229 0
M  V30 1610 C 157.744 3.32162 -4.89308 0
M  V30 1611 C 157.106 3.45949 -6.13595 0
M  V30 1612 H 153.205 0.696705 -0.355143 0
M  V30 1613 H 155.789 1.36981 -1.38362 0
M  V30 1614 H 153.96 3.81008 -0.754166 0
M  V30 1615 H 155.692 3.92867 -0.971469 0
M  V30 1616 H 152.447 3.68433 -2.9758 0
M  V30 1617 H 152.871 3.81359 -5.5937 0
M  V30 1618 H 157.513 3.20797 -2.75407 0
M  V30 1619 H 155.231 3.71286 -7.17755 0
M  V30 1620 H 158.817 3.20485 -4.85573 0
M  V30 1621 H 157.697 3.456 -7.03939 0
M  V30 1622 N 155.201 0.870884 1.31352 0
M  V30 1623 C 156.133 0.28455 2.27427 0
M  V30 1624 C 157.146 -0.552927 1.53123 0
M  V30 1625 O 158.335 -0.374771 1.74521 0
M  V30 1626 C 155.435 -0.615164 3.3327 0
M  V30 1627 C 154.608 0.190079 4.36987 0
M  V30 1628 C 153.667 -0.637917 5.22319 0
M  V30 1629 O 152.693 -0.065626 5.69162 0
M  V30 1630 N 153.895 -1.94973 5.46778 0
M  V30 1631 H 156.66 1.11017 2.7838 0
M  V30 1632 H 154.221 0.732458 1.44384 0
M  V30 1633 H 156.213 -1.1748 3.87273 0
M  V30 1634 H 154.783 -1.34146 2.82354 0
M  V30 1635 H 154.003 0.931165 3.83044 0
M  V30 1636 H 155.291 0.742579 5.03352 0
M  V30 1637 H 154.689 -2.4378 5.10478 0
M  V30 1638 H 153.246 -2.45713 6.03712 0
M  V30 1639 N 156.679 -1.44442 0.630414 0
M  V30 1640 C 157.925 -2.02351 0.134816 0
M  V30 1641 C 158.258 -1.4947 -1.23986 0
M  V30 1642 O 157.533 -0.678475 -1.82283 0
M  V30 1643 C 157.816 -3.59898 0.120707 0
M  V30 1644 C 157.669 -4.23063 1.52767 0
M  V30 1645 C 158.988 -4.36585 -0.555127 0
M  V30 1646 H 156.107 -0.73527 0.0504646 0
M  V30 1647 H 158.749 -1.72022 0.806751 0
M  V30 1648 H 156.899 -3.85868 -0.451477 0
M  V30 1649 H 158.571 -4.08202 2.14869 0
M  V30 1650 H 156.814 -3.80586 2.08175 0
M  V30 1651 H 157.485 -5.32071 1.46984 0
M  V30 1652 H 159.961 -4.16044 -0.0685429 0
M  V30 1653 H 158.837 -5.46294 -0.534185 0
M  V30 1654 H 159.098 -4.11138 -1.62535 0
M  V30 1655 N 158.157 -0.370918 -1.53173 0
M  V30 1656 C 159.087 0.464847 -2.28826 0
M  V30 1657 C 160.068 1.07936 -1.31468 0
M  V30 1658 O 161.253 1.0956 -1.60344 0
M  V30 1659 C 158.383 1.60196 -3.08147 0
M  V30 1660 C 157.337 1.11443 -4.13237 0
M  V30 1661 C 156.663 2.3422 -4.80672 0
M  V30 1662 C 157.963 0.195384 -5.21934 0
M  V30 1663 H 159.657 -0.166329 -2.98938 0
M  V30 1664 H 157.203 -0.0814359 -1.4377 0
M  V30 1665 H 159.156 2.19332 -3.59822 0
M  V30 1666 H 157.88 2.26045 -2.35735 0
M  V30 1667 H 156.539 0.545727 -3.62515 0
M  V30 1668 H 156.187 2.98537 -4.04827 0
M  V30 1669 H 155.887 2.02269 -5.51689 0
M  V30 1670 H 157.411 2.94032 -5.35143 0
M  V30 1671 H 158.825 0.694375 -5.69079 0
M  V30 1672 H 157.222 -0.0335027 -6.00091 0
M  V30 1673 H 158.292 -0.760961 -4.78892 0
M  V30 1674 N 159.635 1.57281 -0.100228 0
M  V30 1675 C 160.881 1.94826 0.563101 0
M  V30 1676 C 161.214 0.982475 1.67514 0
M  V30 1677 O 160.489 0.0164069 1.94493 0
M  V30 1678 C 160.772 3.42453 1.11346 0
M  V30 1679 C 160.625 4.498 0.00612081 0
M  V30 1680 C 161.944 3.91506 2.01024 0
M  V30 1681 H 159.063 0.708428 0.203221 0
M  V30 1682 H 161.705 1.8922 -0.171979 0
M  V30 1683 H 159.855 3.47361 1.7399 0
M  V30 1684 H 161.527 4.57 -0.628357 0
M  V30 1685 H 159.77 4.28756 -0.659581 0
M  V30 1686 H 160.441 5.50306 0.432109 0
M  V30 1687 H 162.917 3.88784 1.48278 0
M  V30 1688 H 161.793 4.95358 2.36457 0
M  V30 1689 H 162.054 3.31099 2.92961 0
M  V30 1690 N 161.113 -0.173488 1.56642 0
M  V30 1691 C 162.39 -0.917617 1.7274 0
M  V30 1692 C 162.77 -2.00484 0.661027 0
M  V30 1693 O 162.118 -2.26184 -0.32453 0
M  V30 1694 C 162.328 -1.48433 3.15862 0
M  V30 1695 C 163.676 -1.95809 3.76754 0
M  V30 1696 O 164.7 -1.58231 3.19126 0
M  V30 1697 O 163.559 -2.65024 4.77938 0
M  V30 1698 H 160.653 -0.431772 0.705338 0
M  V30 1699 H 163.199 -0.161487 1.6893 0
M  V30 1700 H 161.971 -0.701715 3.84957 0
M  V30 1701 H 161.594 -2.30471 3.23989 0
M  V30 1702 N 162.591 -1.51276 -0.441967 0
M  V30 1703 C 163.521 -1.752 -1.54361 0
M  V30 1704 C 164.502 -0.601682 -1.59103 0
M  V30 1705 O 165.687 -0.843913 -1.74905 0
M  V30 1706 C 162.817 -1.87282 -2.92477 0
M  V30 1707 C 161.771 -3.02687 -3.02596 0
M  V30 1708 C 161.097 -2.99947 -4.42647 0
M  V30 1709 C 162.397 -4.4273 -2.77106 0
M  V30 1710 H 164.091 -2.67442 -1.34592 0
M  V30 1711 H 161.637 -1.28694 -0.646048 0
M  V30 1712 H 163.59 -2.02602 -3.695 0
M  V30 1713 H 162.314 -0.916844 -3.13467 0
M  V30 1714 H 160.973 -2.87065 -2.28012 0
M  V30 1715 H 160.621 -2.02136 -4.60597 0
M  V30 1716 H 160.321 -3.77439 -4.50348 0
M  V30 1717 H 161.845 -3.17354 -5.2165 0
M  V30 1718 H 163.259 -4.58727 -3.43864 0
M  V30 1719 H 161.656 -5.21893 -2.96222 0
M  V30 1720 H 162.726 -4.53087 -1.72744 0
M  V30 1721 N 164.069 0.697108 -1.41344 0
M  V30 1722 C 165.346 1.45154 -1.31109 0
M  V30 1723 C 165.726 2.11009 0.0620449 0
M  V30 1724 O 165.074 2.01571 1.07618 0
M  V30 1725 C 165.284 2.47223 -2.46337 0
M  V30 1726 C 166.632 3.1252 -2.87431 0
M  V30 1727 O 167.656 2.57547 -2.46065 0
M  V30 1728 O 166.515 4.12083 -3.58957 0
M  V30 1729 H 163.609 0.646365 -0.515889 0
M  V30 1730 H 166.155 0.727716 -1.53305 0
M  V30 1731 H 164.927 1.97204 -3.37974 0
M  V30 1732 H 164.55 3.27116 -2.2601 0
M  V30 1733 N 165.547 1.27147 0.931209 0
M  V30 1734 C 166.775 1.16082 1.71267 0
M  V30 1735 C 167.19 -0.282772 1.8667 0
M  V30 1736 O 166.547 -1.19283 1.38122 0
M  V30 1737 C 166.598 1.8358 3.11417 0
M  V30 1738 O 166.319 3.22299 2.96741 0
M  V30 1739 C 167.82 1.78597 4.05732 0
M  V30 1740 H 165.04 0.403758 0.535929 0
M  V30 1741 H 167.584 1.67953 1.16671 0
M  V30 1742 H 165.739 1.35623 3.62885 0
M  V30 1743 H 166.153 3.55851 3.85319 0
M  V30 1744 H 167.627 2.30444 5.01597 0
M  V30 1745 H 168.104 0.754564 4.3267 0
M  V30 1746 H 168.71 2.26152 3.60188 0
M  V30 1747 N 167.025 -1.13721 1.09112 0
M  V30 1748 C 167.988 -2.17222 0.731241 0
M  V30 1749 C 168.988 -1.59035 -0.237566 0
M  V30 1750 O 170.178 -1.74192 -0.0161704 0
M  V30 1751 C 167.31 -3.40804 0.0808443 0
M  V30 1752 H 168.503 -2.50573 1.64783 0
M  V30 1753 H 166.056 -1.28493 0.889897 0
M  V30 1754 H 166.791 -3.1304 -0.847127 0
M  V30 1755 H 166.576 -3.84306 0.777896 0
M  V30 1756 H 168.066 -4.1731 -0.155657 0
M  V30 1757 N 168.503 -0.877838 -1.30888 0
M  V30 1758 C 169.914 -0.544193 -1.78593 0
M  V30 1759 C 170.265 0.939301 -1.72254 0
M  V30 1760 O 169.39 1.7337 -1.29505 0
M  V30 1761 C 169.985 -0.98105 -3.24285 0
M  V30 1762 C 168.544 -0.698935 -3.69854 0
M  V30 1763 C 167.691 -1.168 -2.51502 0
M  V30 1764 H 170.642 -1.06278 -1.17859 0
M  V30 1765 H 170.663 -0.307009 -3.79259 0
M  V30 1766 H 170.175 -2.06079 -3.28866 0
M  V30 1767 H 168.276 0.369112 -3.70767 0
M  V30 1768 H 168.389 -1.28148 -4.61644 0
M  V30 1769 H 166.753 -0.587535 -2.47831 0
M  V30 1770 H 167.536 -2.25533 -2.58824 0
M  V30 1771 N 169.982 1.44106 -0.638065 0
M  V30 1772 C 171.23 2.01579 -0.145043 0
M  V30 1773 C 171.551 1.50496 1.24 0
M  V30 1774 O 170.821 0.711374 1.82527 0
M  V30 1775 H 169.401 0.745282 -0.05063 0
M  V30 1776 H 172.063 1.76516 -0.826327 0
M  V30 1777 H 171.159 3.11877 -0.118039 0
M  V30 1778 N 171.46 0.379036 1.52974 0
M  V30 1779 C 172.707 -0.206421 2.01445 0
M  V30 1780 C 173.035 -1.47668 1.26587 0
M  V30 1781 O 172.29 -1.92514 0.351675 0
M  V30 1782 C 172.589 -0.53096 3.53434 0
M  V30 1783 C 172.255 0.646546 4.46241 0
M  V30 1784 C 170.917 0.969604 4.7133 0
M  V30 1785 C 173.269 1.43479 5.01062 0
M  V30 1786 C 170.597 2.08263 5.48492 0
M  V30 1787 C 172.949 2.53834 5.7944 0
M  V30 1788 C 171.613 2.86659 6.02812 0
M  V30 1789 H 170.883 -0.0755349 0.73714 0
M  V30 1790 H 173.53 0.514271 1.84465 0
M  V30 1791 H 171.835 -1.33285 3.68432 0
M  V30 1792 H 173.532 -0.996417 3.88423 0
M  V30 1793 H 170.122 0.384734 4.2687 0
M  V30 1794 H 174.306 1.19844 4.81613 0
M  V30 1795 H 169.562 2.34078 5.64816 0
M  V30 1796 H 173.736 3.15319 6.20924 0
M  V30 1797 H 171.363 3.73026 6.62387 0
M  V30 1798 N 172.938 -1.57226 0.108567 0
M  V30 1799 C 174.163 -1.99604 -0.563303 0
M  V30 1800 C 174.588 -0.987563 -1.6009 0
M  V30 1801 O 173.946 0.0421687 -1.81251 0
M  V30 1802 C 173.994 -3.40902 -1.17552 0
M  V30 1803 O 173.098 -3.42896 -2.2912 0
M  V30 1804 H 172.439 -0.648704 -0.1417 0
M  V30 1805 H 174.969 -2.03679 0.193961 0
M  V30 1806 H 174.979 -3.78886 -1.51357 0
M  V30 1807 H 173.654 -4.1382 -0.415445 0
M  V30 1808 H 172.231 -3.1672 -1.96832 0
M  V30 1809 N 174.416 0.165178 -1.56732 0
M  V30 1810 C 175.693 0.908443 -1.73224 0
M  V30 1811 C 176.073 2.0013 -0.67165 0
M  V30 1812 O 175.421 2.26353 0.31253 0
M  V30 1813 C 175.631 1.46756 -3.16644 0
M  V30 1814 C 176.979 1.93809 -3.77787 0
M  V30 1815 O 178.003 1.56537 -3.1996 0
M  V30 1816 O 176.862 2.62486 -4.79336 0
M  V30 1817 H 173.956 0.428025 -0.707618 0
M  V30 1818 H 176.502 0.152526 -1.69013 0
M  V30 1819 H 175.274 0.68129 -3.85323 0
M  V30 1820 H 174.897 2.28749 -3.25207 0
M  V30 1821 N 175.894 1.51508 0.433938 0
M  V30 1822 C 176.804 1.75917 1.5521 0
M  V30 1823 C 177.82 0.643545 1.61662 0
M  V30 1824 O 178.996 0.926183 1.7884 0
M  V30 1825 C 176.061 1.88213 2.91164 0
M  V30 1826 C 175.122 3.12074 2.94802 0
M  V30 1827 C 174.355 3.23774 4.24271 0
M  V30 1828 O 174.578 2.4133 5.16833 0
M  V30 1829 O 173.512 4.16774 4.34262 0
M  V30 1830 H 177.338 2.70777 1.37527 0
M  V30 1831 H 174.923 1.36051 0.617293 0
M  V30 1832 H 176.805 1.98267 3.71845 0
M  V30 1833 H 175.48 0.965413 3.08968 0
M  V30 1834 H 174.387 3.07497 2.13065 0
M  V30 1835 H 175.72 4.03446 2.81943 0
M  V30 1836 N 177.372 -0.689602 1.41712 0
M  V30 1837 C 178.597 -1.48329 1.44959 0
M  V30 1838 C 179.022 -1.8801 0.0581283 0
M  V30 1839 O 178.38 -1.55026 -0.940035 0
M  V30 1840 C 178.428 -2.71835 2.36935 0
M  V30 1841 O 177.532 -3.69549 1.8305 0
M  V30 1842 H 176.873 -0.446199 0.491734 0
M  V30 1843 H 179.403 -0.847127 1.86239 0
M  V30 1844 H 179.413 -3.20076 2.53013 0
M  V30 1845 H 178.088 -2.42291 3.38035 0
M  V30 1846 H 176.665 -3.2851 1.76452 0
M  V30 1847 N 178.85 -1.27639 -0.924453 0
M  V30 1848 C 180.096 -1.14336 -1.67497 0
M  V30 1849 C 180.429 0.309465 -1.91718 0
M  V30 1850 O 179.704 1.22608 -1.50989 0
M  V30 1851 C 179.987 -1.93096 -3.0395 0
M  V30 1852 C 179.84 -3.46381 -2.8695 0
M  V30 1853 C 181.159 -1.73798 -4.0433 0
M  V30 1854 H 178.278 -0.416728 -0.607871 0
M  V30 1855 H 180.92 -1.56832 -1.07256 0
M  V30 1856 H 179.07 -1.56982 -3.55372 0
M  V30 1857 H 180.742 -3.92343 -2.42621 0
M  V30 1858 H 178.985 -3.72557 -2.22225 0
M  V30 1859 H 179.656 -3.96735 -3.83804 0
M  V30 1860 H 182.132 -2.05293 -3.61931 0
M  V30 1861 H 181.008 -2.31294 -4.97789 0
M  V30 1862 H 181.269 -0.686725 -4.36734 0
M  V30 1863 N 180.328 1.1314 -1.09713 0
M  V30 1864 C 181.744 1.36477 -0.827423 0
M  V30 1865 C 181.944 1.93654 0.556817 0
M  V30 1866 O 181 2.15791 1.31112 0
M  V30 1867 C 182.313 2.31334 -1.92106 0
M  V30 1868 C 183.861 2.44943 -1.94864 0
M  V30 1869 C 184.336 3.4311 -3.0338 0
M  V30 1870 N 185.827 3.50662 -3.02639 0
M  V30 1871 C 186.562 4.2651 -3.83246 0
M  V30 1872 N 186.058 5.05485 -4.73768 0
M  V30 1873 N 187.851 4.2184 -3.71493 0
M  V30 1874 H 180.002 0.743807 -1.9895 0
M  V30 1875 H 182.265 0.389823 -0.864143 0
M  V30 1876 H 181.971 1.96483 -2.91698 0
M  V30 1877 H 181.845 3.31381 -1.80184 0
M  V30 1878 H 184.232 2.79079 -0.959099 0
M  V30 1879 H 184.313 1.4481 -2.10864 0
M  V30 1880 H 183.957 3.09704 -4.02549 0
M  V30 1881 H 183.887 4.43055 -2.84622 0
M  V30 1882 H 186.378 2.94315 -2.37039 0
M  V30 1883 H 186.691 5.60675 -5.3185 0
M  V30 1884 H 185.036 5.04708 -4.77802 0
M  V30 1885 H 188.227 3.5922 -3.00131 0
M  V30 1886 H 188.4 4.80697 -4.3455 0
M  V30 1887 N 181.806 0.884767 1.30421 0
M  V30 1888 C 183.052 0.503851 1.96441 0
M  V30 1889 C 183.385 -0.944518 1.69684 0
M  V30 1890 O 182.66 -1.66737 1.00145 0
M  V30 1891 C 182.943 0.779085 3.51571 0
M  V30 1892 C 182.796 2.27807 3.87846 0
M  V30 1893 C 184.115 0.255452 4.39358 0
M  V30 1894 H 181.234 0.184533 0.713524 0
M  V30 1895 H 183.876 1.10872 1.54297 0
M  V30 1896 H 182.026 0.264274 3.876 0
M  V30 1897 H 183.698 2.86127 3.61841 0
M  V30 1898 H 181.941 2.74479 3.35922 0
M  V30 1899 H 182.612 2.42125 4.96064 0
M  V30 1900 H 185.088 0.696079 4.10236 0
M  V30 1901 H 183.964 0.477361 5.4682 0
M  V30 1902 H 184.225 -0.843293 4.33983 0
M  V30 1903 N 183.284 -1.43765 0.645699 0
M  V30 1904 C 184.514 -2.05953 0.163318 0
M  V30 1905 C 184.922 -1.48432 -1.17322 0
M  V30 1906 O 184.265 -0.607295 -1.73371 0
M  V30 1907 C 184.327 -3.59499 -0.0103065 0
M  V30 1908 C 183.991 -4.39563 1.25035 0
M  V30 1909 C 184.988 -4.72108 2.17739 0
M  V30 1910 C 182.673 -4.79697 1.48983 0
M  V30 1911 C 184.667 -5.43688 3.3269 0
M  V30 1912 C 182.354 -5.51023 2.64229 0
M  V30 1913 C 183.352 -5.8294 3.55908 0
M  V30 1914 O 183.04 -6.5281 4.69142 0
M  V30 1915 H 182.772 -0.670798 0.0836986 0
M  V30 1916 H 185.326 -1.85384 0.884407 0
M  V30 1917 H 183.556 -3.78613 -0.78669 0
M  V30 1918 H 185.245 -4.03408 -0.449087 0
M  V30 1919 H 186.011 -4.41627 2.00476 0
M  V30 1920 H 181.89 -4.54266 0.785078 0
M  V30 1921 H 185.434 -5.68517 4.04269 0
M  V30 1922 H 181.331 -5.8092 2.81429 0
M  V30 1923 H 182.099 -6.71288 4.6831 0
M  V30 1924 N 184.763 -0.387143 -1.52771 0
M  V30 1925 C 185.693 0.440551 -2.29306 0
M  V30 1926 C 186.674 1.06535 -1.32606 0
M  V30 1927 O 187.859 1.07853 -1.61497 0
M  V30 1928 C 184.989 1.56919 -3.09829 0
M  V30 1929 C 183.943 1.07054 -4.14395 0
M  V30 1930 C 183.269 2.29109 -4.83129 0
M  V30 1931 C 184.569 0.140015 -5.22112 0
M  V30 1932 H 186.263 -0.198026 -2.98744 0
M  V30 1933 H 183.809 -0.09668 -1.43675 0
M  V30 1934 H 185.762 2.15503 -3.62128 0
M  V30 1935 H 184.486 2.23532 -2.3812 0
M  V30 1936 H 183.145 0.507247 -3.63074 0
M  V30 1937 H 182.793 2.94227 -4.0797 0
M  V30 1938 H 182.493 1.96406 -5.53804 0
M  V30 1939 H 184.017 2.88339 -5.38231 0
M  V30 1940 H 185.431 0.633978 -5.69784 0
M  V30 1941 H 183.828 -0.0971485 -6.00021 0
M  V30 1942 H 184.898 -0.811711 -4.78058 0
M  V30 1943 N 186.241 1.57166 -0.116904 0
M  V30 1944 C 187.204 2.14039 0.819742 0
M  V30 1945 C 188.204 1.07477 1.19605 0
M  V30 1946 O 189.394 1.33263 1.1219 0
M  V30 1947 C 186.526 2.67891 2.10826 0
M  V30 1948 H 187.719 2.98128 0.325511 0
M  V30 1949 H 185.272 1.55739 0.132312 0
M  V30 1950 H 186.007 1.87384 2.64685 0
M  V30 1951 H 185.792 3.45823 1.84793 0
M  V30 1952 H 187.282 3.11809 2.77785 0
M  V30 1953 N 187.719 -0.156864 1.56817 0
M  V30 1954 C 188.947 -0.886316 1.86955 0
M  V30 1955 C 189.362 -1.75185 0.703975 0
M  V30 1956 O 188.719 -1.79555 -0.326552 0
M  V30 1957 C 188.77 -1.75117 3.16253 0
M  V30 1958 O 188.491 -0.920537 4.2832 0
M  V30 1959 C 189.992 -2.58905 3.59837 0
M  V30 1960 H 187.212 -0.25678 0.619923 0
M  V30 1961 H 189.756 -0.152615 2.0393 0
M  V30 1962 H 187.911 -2.43805 3.01062 0
M  V30 1963 H 188.325 -1.51337 5.02192 0
M  V30 1964 H 189.799 -3.1518 4.53172 0
M  V30 1965 H 190.276 -3.34472 2.84649 0
M  V30 1966 H 190.882 -1.95526 3.7769 0
M  V30 1967 N 189.197 -1.51736 -0.425897 0
M  V30 1968 C 190.445 -1.64644 -1.17204 0
M  V30 1969 C 190.766 -0.370486 -1.91448 0
M  V30 1970 O 190.036 0.614088 -1.86026 0
M  V30 1971 H 188.616 -0.606819 -0.435638 0
M  V30 1972 H 191.278 -1.88713 -0.487177 0
M  V30 1973 H 190.374 -2.47958 -1.89534 0
M  V30 1974 N 190.675 0.682077 -1.42076 0
M  V30 1975 C 191.605 1.80796 -1.47767 0
M  V30 1976 C 192.586 1.6677 -0.334954 0
M  V30 1977 O 193.771 1.863 -0.548264 0
M  V30 1978 C 190.901 3.19038 -1.37229 0
M  V30 1979 C 189.855 3.47789 -2.49453 0
M  V30 1980 C 189.181 4.8553 -2.23975 0
M  V30 1981 C 190.481 3.45411 -3.91776 0
M  V30 1982 H 192.175 1.7629 -2.41997 0
M  V30 1983 H 189.721 0.846721 -1.16476 0
M  V30 1984 H 191.674 3.97528 -1.39821 0
M  V30 1985 H 190.398 3.24204 -0.394907 0
M  V30 1986 H 189.057 2.71657 -2.46166 0
M  V30 1987 H 188.705 4.87337 -1.24547 0
M  V30 1988 H 188.405 5.0573 -2.99184 0
M  V30 1989 H 189.929 5.66312 -2.28304 0
M  V30 1990 H 191.343 4.13882 -3.96705 0
M  V30 1991 H 189.74 3.77145 -4.66778 0
M  V30 1992 H 190.81 2.44122 -4.18966 0
M  V30 1993 N 192.153 1.28127 0.917671 0
M  V30 1994 C 193.569 1.05749 1.19538 0
M  V30 1995 C 193.769 -0.202633 2.00479 0
M  V30 1996 O 192.825 -0.905382 2.3571 0
M  V30 1997 C 194.138 2.30273 1.93378 0
M  V30 1998 C 195.686 2.35412 2.06277 0
M  V30 1999 C 196.161 3.59692 2.83524 0
M  V30 2000 N 197.652 3.60309 2.91087 0
M  V30 2001 C 198.387 4.53147 3.51348 0
M  V30 2002 N 197.883 5.563 4.12919 0
M  V30 2003 N 199.676 4.40751 3.48849 0
M  V30 2004 H 191.827 2.09024 0.377184 0
M  V30 2005 H 194.09 0.919798 0.22951 0
M  V30 2006 H 193.796 3.22055 1.41328 0
M  V30 2007 H 193.67 2.36378 2.93947 0
M  V30 2008 H 196.057 1.4413 2.57508 0
M  V30 2009 H 196.138 2.33304 1.04895 0
M  V30 2010 H 195.782 4.51316 2.32973 0
M  V30 2011 H 195.712 3.59054 3.85211 0
M  V30 2012 H 198.203 2.85714 2.47338 0
M  V30 2013 H 198.516 6.2329 4.56869 0
M  V30 2014 H 196.861 5.60131 4.11435 0
M  V30 2015 H 200.052 3.59367 2.99955 0
M  V30 2016 H 200.225 5.13291 3.9552 0
M  V30 2017 N 193.631 -1.12557 1.10312 0
M  V30 2018 C 194.541 -2.21841 0.763142 0
M  V30 2019 C 195.557 -1.72354 -0.238801 0
M  V30 2020 O 196.733 -2.01249 -0.0778746 0
M  V30 2021 C 193.798 -3.46131 0.198632 0
M  V30 2022 C 192.859 -4.10464 1.25769 0
M  V30 2023 C 192.092 -5.28821 0.72002 0
M  V30 2024 O 192.315 -5.6859 -0.453993 0
M  V30 2025 O 191.249 -5.83437 1.47935 0
M  V30 2026 H 195.075 -2.53312 1.67532 0
M  V30 2027 H 192.66 -1.20867 0.878157 0
M  V30 2028 H 194.542 -4.2125 -0.112401 0
M  V30 2029 H 193.217 -3.16338 -0.686419 0
M  V30 2030 H 192.124 -3.3713 1.62156 0
M  V30 2031 H 193.457 -4.44408 2.11571 0
M  V30 2032 N 195.109 -0.891671 -1.2995 0
M  V30 2033 C 196.355 -0.514261 -1.96171 0
M  V30 2034 C 196.688 0.935506 -1.70182 0
M  V30 2035 O 195.963 1.66204 -1.01028 0
M  V30 2036 C 196.246 -0.797719 -3.51153 0
M  V30 2037 C 196.099 -2.2986 -3.86632 0
M  V30 2038 C 197.418 -0.278749 -4.39216 0
M  V30 2039 H 194.537 -0.188314 -0.712535 0
M  V30 2040 H 197.179 -1.11689 -1.53706 0
M  V30 2041 H 195.329 -0.284826 -3.87455 0
M  V30 2042 H 197.001 -2.88042 -3.60319 0
M  V30 2043 H 195.244 -2.76257 -3.34462 0
M  V30 2044 H 195.915 -2.44753 -4.94773 0
M  V30 2045 H 198.391 -0.717825 -4.09862 0
M  V30 2046 H 197.267 -0.506353 -5.46559 0
M  V30 2047 H 197.528 0.820266 -4.34424 0
M  V30 2048 N 196.587 1.43421 -0.653314 0
M  V30 2049 C 197.835 2.01414 -0.166415 0
M  V30 2050 C 198.156 1.51803 1.22397 0
M  V30 2051 O 197.426 0.730693 1.81763 0
M  V30 2052 H 196.006 0.744703 -0.0585319 0
M  V30 2053 H 198.668 1.75629 -0.845003 0
M  V30 2054 H 197.764 3.11734 -0.151111 0
M  V30 2055 N 198.065 0.39524 1.52563 0
M  V30 2056 C 199.481 0.0454682 1.59535 0
M  V30 2057 C 199.681 -1.44056 1.4089 0
M  V30 2058 O 198.737 -2.20579 1.22888 0
M  V30 2059 C 200.05 0.527963 2.96029 0
M  V30 2060 C 201.598 0.484733 3.09224 0
M  V30 2061 C 202.073 0.943512 4.48176 0
M  V30 2062 N 203.564 0.899765 4.54377 0
M  V30 2063 C 204.299 1.22609 5.60138 0
M  V30 2064 N 203.795 1.62319 6.73516 0
M  V30 2065 N 205.588 1.14696 5.50274 0
M  V30 2066 H 197.739 1.36261 1.62931 0
M  V30 2067 H 200.002 0.558887 0.765735 0
M  V30 2068 H 199.708 1.56607 3.14908 0
M  V30 2069 H 199.582 -0.0698056 3.77135 0
M  V30 2070 H 201.969 -0.544298 2.90037 0
M  V30 2071 H 202.05 1.11838 2.30056 0
M  V30 2072 H 201.694 1.9708 4.68104 0
M  V30 2073 H 201.624 0.286817 5.25818 0
M  V30 2074 H 204.115 0.607632 3.72983 0
M  V30 2075 H 204.428 1.85567 7.5019 0
M  V30 2076 H 202.773 1.66211 6.74833 0
M  V30 2077 H 205.964 0.835701 4.6058 0
M  V30 2078 H 206.137 1.40459 6.32594 0
M  V30 2079 N 199.544 -1.57102 0.125237 0
M  V30 2080 C 200.955 -1.82384 -0.399142 0
M  V30 2081 C 201.306 -1.04276 -1.66195 0
M  V30 2082 O 200.431 -0.281269 -2.14564 0
M  V30 2083 C 201.026 -3.30821 -0.730932 0
M  V30 2084 C 199.585 -3.56762 -1.19992 0
M  V30 2085 C 198.732 -2.7649 -0.211792 0
M  V30 2086 H 201.683 -1.54786 0.350277 0
M  V30 2087 H 201.704 -3.4579 -1.58775 0
M  V30 2088 H 201.216 -3.87643 0.188345 0
M  V30 2089 H 199.317 -3.05305 -2.13588 0
M  V30 2090 H 199.43 -4.65317 -1.14093 0
M  V30 2091 H 197.794 -2.4489 -0.700085 0
M  V30 2092 H 198.577 -3.36073 0.700691 0
M  V30 2093 N 201.022 0.148545 -1.56898 0
M  V30 2094 C 201.932 1.20293 -2.01412 0
M  V30 2095 C 202.948 1.47107 -0.929273 0
M  V30 2096 O 204.124 1.58807 -1.23863 0
M  V30 2097 C 201.189 2.51682 -2.38447 0
M  V30 2098 C 200.25 2.32529 -3.60872 0
M  V30 2099 C 199.483 3.57653 -3.96132 0
M  V30 2100 O 199.706 4.63771 -3.32073 0
M  V30 2101 O 198.64 3.50408 -4.89385 0
M  V30 2102 H 202.466 0.855025 -2.91416 0
M  V30 2103 H 200.051 0.357151 -1.45068 0
M  V30 2104 H 201.933 3.29147 -2.63135 0
M  V30 2105 H 200.608 2.86006 -1.51599 0
M  V30 2106 H 199.515 1.53019 -3.41373 0
M  V30 2107 H 200.848 2.03121 -4.48333 0
M  V30 2108 N 202.5 1.5196 0.417844 0
M  V30 2109 C 203.463 1.74065 1.49111 0
M  V30 2110 C 204.463 0.610537 1.48758 0
M  V30 2111 O 205.653 0.87832 1.50437 0
M  V30 2112 C 202.785 1.81502 2.88565 0
M  V30 2113 H 203.978 2.69869 1.30807 0
M  V30 2114 H 201.531 1.42244 0.647785 0
M  V30 2115 H 202.266 0.875813 3.1225 0
M  V30 2116 H 202.051 2.63651 2.90225 0
M  V30 2117 H 203.541 2.00376 3.66387 0
M  V30 2118 N 203.978 -0.674533 1.42435 0
M  V30 2119 C 204.928 -1.7807 1.4239 0
M  V30 2120 C 205.912 -1.58169 0.295202 0
M  V30 2121 O 207.104 -1.68643 0.537449 0
M  V30 2122 C 204.233 -3.16532 1.32901 0
M  V30 2123 C 203.319 -3.42055 2.50717 0
M  V30 2124 N 203.71 -3.38162 3.76139 0
M  V30 2125 C 202.008 -3.72692 2.44983 0
M  V30 2126 C 202.709 -3.63177 4.54398 0
M  V30 2127 N 201.685 -3.83954 3.84812 0
M  V30 2128 H 205.487 -1.73454 2.37257 0
M  V30 2129 H 203.001 -0.875381 1.36788 0
M  V30 2130 H 204.998 -3.958 1.30951 0
M  V30 2131 H 203.658 -3.22345 0.390363 0
M  V30 2132 H 204.669 -3.18057 4.0873 0
M  V30 2133 H 201.346 -3.85749 1.59699 0
M  V30 2134 H 202.736 -3.66125 5.63384 0
M  V30 2135 N 205.456 -1.28612 -0.910864 0
M  V30 2136 C 206.406 -1.09423 -2.00026 0
M  V30 2137 C 207.39 -0.0170079 -1.60891 0
M  V30 2138 O 208.582 -0.237472 -1.754 0
M  V30 2139 C 205.711 -0.76114 -3.34756 0
M  V30 2140 C 204.797 -1.87735 -3.80285 0
M  V30 2141 N 205.188 -3.11938 -3.98156 0
M  V30 2142 C 203.486 -1.76786 -4.09467 0
M  V30 2143 C 204.187 -3.84687 -4.36338 0
M  V30 2144 N 203.163 -3.12555 -4.44759 0
M  V30 2145 H 206.965 -2.03658 -2.11898 0
M  V30 2146 H 204.479 -1.19573 -1.09891 0
M  V30 2147 H 206.476 -0.604743 -4.12491 0
M  V30 2148 H 205.136 0.173403 -3.24237 0
M  V30 2149 H 206.147 -3.47516 -3.83996 0
M  V30 2150 H 202.824 -0.905284 -4.07567 0
M  V30 2151 H 204.214 -4.91518 -4.58104 0
M  V30 2152 N 206.934 1.1197 -1.10907 0
M  V30 2153 C 207.844 2.21433 -0.774896 0
M  V30 2154 C 208.86 1.72478 0.229657 0
M  V30 2155 O 210.036 2.01288 0.0672008 0
M  V30 2156 C 207.101 3.4602 -0.216986 0
M  V30 2157 C 206.162 4.09791 -1.27944 0
M  V30 2158 C 205.395 5.28431 -0.748055 0
M  V30 2159 O 205.618 5.68823 0.423833 0
M  V30 2160 O 204.552 5.82644 -1.51027 0
M  V30 2161 H 208.378 2.5242 -1.68873 0
M  V30 2162 H 205.963 1.20399 -0.884555 0
M  V30 2163 H 207.845 4.21304 0.090059 0
M  V30 2164 H 206.52 3.16698 0.669633 0
M  V30 2165 H 205.427 3.36265 -1.63941 0
M  V30 2166 H 206.76 4.4328 -2.13925 0
M  V30 2167 N 208.412 0.89855 1.29475 0
M  V30 2168 C 209.322 0.379974 2.31502 0
M  V30 2169 C 210.338 -0.524695 1.659 0
M  V30 2170 O 211.514 -0.414551 1.97087 0
M  V30 2171 C 208.579 -0.385138 3.44554 0
M  V30 2172 C 207.64 0.550914 4.2575 0
M  V30 2173 C 206.873 -0.177778 5.33404 0
M  V30 2174 O 207.096 -1.40189 5.52904 0
M  V30 2175 O 206.03 0.479106 5.9999 0
M  V30 2176 H 209.856 1.22639 2.77837 0
M  V30 2177 H 207.441 0.662834 1.33891 0
M  V30 2178 H 209.323 -0.817841 4.13388 0
M  V30 2179 H 207.998 -1.20763 3.0033 0
M  V30 2180 H 206.905 1.03271 3.59564 0
M  V30 2181 H 208.238 1.33979 4.73614 0
M  V30 2182 N 209.89 -1.43072 0.660911 0
M  V30 2183 C 210.853 -2.29194 -0.0166406 0
M  V30 2184 C 211.853 -1.42609 -0.742912 0
M  V30 2185 O 213.043 -1.64155 -0.583004 0
M  V30 2186 C 210.175 -3.24831 -1.0343 0
M  V30 2187 H 211.368 -2.90596 0.741208 0
M  V30 2188 H 208.921 -1.5048 0.422532 0
M  V30 2189 H 209.656 -2.68339 -1.82111 0
M  V30 2190 H 209.441 -3.88676 -0.517082 0
M  V30 2191 H 210.931 -3.89451 -1.50723 0
M  V30 2192 N 211.368 -0.403325 -1.52352 0
M  V30 2193 C 212.645 0.232611 -1.94212 0
M  V30 2194 C 213.025 1.63133 -1.33981 0
M  V30 2195 O 212.373 2.22659 -0.513344 0
M  V30 2196 C 212.583 0.244811 -3.4814 0
M  V30 2197 C 213.931 0.46698 -4.22024 0
M  V30 2198 O 214.955 0.324419 -3.5472 0
M  V30 2199 O 213.814 0.74747 -5.41364 0
M  V30 2200 H 210.908 0.148223 -0.813609 0
M  V30 2201 H 213.454 -0.458848 -1.63379 0
M  V30 2202 H 212.226 -0.734378 -3.84347 0
M  V30 2203 H 211.849 0.980611 -3.85318 0
M  V30 2204 N 212.846 1.57033 -0.133567 0
M  V30 2205 C 213.779 2.11824 0.848872 0
M  V30 2206 C 214.757 1.03833 1.2513 0
M  V30 2207 O 215.941 1.31579 1.34978 0
M  V30 2208 C 213.068 2.62692 2.138 0
M  V30 2209 C 212.114 3.82705 1.88253 0
M  V30 2210 S 212.947 5.2438 1.08563 0
M  V30 2211 C 214.103 5.78627 2.38624 0
M  V30 2212 H 214.336 2.94824 0.38289 0
M  V30 2213 H 211.869 1.5419 0.0804796 0
M  V30 2214 H 213.827 2.92652 2.87863 0
M  V30 2215 H 212.488 1.79847 2.57515 0
M  V30 2216 H 211.681 4.16496 2.83809 0
M  V30 2217 H 211.283 3.53437 1.22305 0
M  V30 2218 H 213.575 5.8924 3.34369 0
M  V30 2219 H 214.518 6.76443 2.09358 0
M  V30 2220 H 214.926 5.06783 2.48658 0
M  V30 2221 N 214.325 -0.140222 1.56975 0
M  V30 2222 C 215.553 -0.866437 1.87884 0
M  V30 2223 C 215.968 -1.74428 0.722517 0
M  V30 2224 O 215.325 -1.79891 -0.30749 0
M  V30 2225 C 215.376 -1.71753 3.18093 0
M  V30 2226 O 215.097 -0.875056 4.29272 0
M  V30 2227 C 216.598 -2.55074 3.62563 0
M  V30 2228 H 213.818 -0.25019 0.622612 0
M  V30 2229 H 216.362 -0.130977 2.0408 0
M  V30 2230 H 214.517 -2.40598 3.03631 0
M  V30 2231 H 214.931 -1.46002 5.03769 0
M  V30 2232 H 216.405 -3.10356 4.5649 0
M  V30 2233 H 216.882 -3.31434 2.88181 0
M  V30 2234 H 217.488 -1.91509 3.79743 0
M  V30 2235 N 215.803 -1.52179 -0.40978 0
M  V30 2236 C 216.736 -1.70196 -1.52015 0
M  V30 2237 C 217.714 -0.549542 -1.53032 0
M  V30 2238 O 218.898 -0.776815 -1.71749 0
M  V30 2239 C 216.025 -1.74069 -2.90547 0
M  V30 2240 C 215.071 -2.95601 -3.07445 0
M  V30 2241 S 215.904 -4.55956 -2.80827 0
M  V30 2242 C 217.06 -4.62614 -4.21591 0
M  V30 2243 H 217.293 -2.64109 -1.36504 0
M  V30 2244 H 214.826 -1.4221 -0.601312 0
M  V30 2245 H 216.784 -1.76985 -3.70387 0
M  V30 2246 H 215.445 -0.812835 -3.034 0
M  V30 2247 H 214.638 -2.94791 -4.08796 0
M  V30 2248 H 214.24 -2.90569 -2.35469 0
M  V30 2249 H 216.532 -4.39951 -5.15218 0
M  V30 2250 H 217.475 -5.64548 -4.27424 0
M  V30 2251 H 217.883 -3.91654 -4.06531 0
M  V30 2252 N 217.281 0.66697 -1.42791 0
M  V30 2253 C 218.529 1.42417 -1.43394 0
M  V30 2254 C 218.85 1.94925 -0.0542373 0
M  V30 2255 O 218.12 1.73564 0.908415 0
M  V30 2256 H 216.7 0.528515 -0.527902 0
M  V30 2257 H 219.362 0.787562 -1.78279 0
M  V30 2258 H 218.458 2.27333 -2.13837 0
M  V30 2259 N 218.759 1.29093 0.90403 0
M  V30 2260 C 220.005 1.17996 1.65676 0
M  V30 2261 C 220.36 -0.266816 1.90541 0
M  V30 2262 O 219.653 -1.19 1.50165 0
M  V30 2263 C 219.847 1.92224 3.01305 0
M  V30 2264 C 219.676 3.43972 2.89678 0
M  V30 2265 C 218.446 4.1332 2.90679 0
M  V30 2266 C 220.644 4.39546 2.67028 0
M  V30 2267 N 218.626 5.51463 2.69743 0
M  V30 2268 C 219.997 5.65119 2.5503 0
M  V30 2269 C 222.052 4.29359 2.52101 0
M  V30 2270 C 220.755 6.81663 2.29626 0
M  V30 2271 C 222.781 5.4565 2.28079 0
M  V30 2272 C 222.143 6.70193 2.16843 0
M  V30 2273 H 218.242 0.486759 0.612037 0
M  V30 2274 H 220.826 1.62868 1.06688 0
M  V30 2275 H 218.997 1.49773 3.58361 0
M  V30 2276 H 220.729 1.73429 3.65656 0
M  V30 2277 H 217.484 3.64984 3.01801 0
M  V30 2278 H 217.908 6.24105 2.6234 0
M  V30 2279 H 222.55 3.33769 2.59534 0
M  V30 2280 H 220.268 7.77313 2.20932 0
M  V30 2281 H 223.854 5.39664 2.1738 0
M  V30 2282 H 222.734 7.58659 1.98511 0
M  V30 2283 N 220.237 -1.11381 1.11499 0
M  V30 2284 C 221.467 -1.86663 0.885464 0
M  V30 2285 C 221.875 -1.80464 -0.568281 0
M  V30 2286 O 221.218 -1.18445 -1.40415 0
M  V30 2287 C 221.28 -3.36337 1.26956 0
M  V30 2288 C 220.944 -3.66304 2.73259 0
M  V30 2289 C 221.941 -3.63733 3.71476 0
M  V30 2290 C 219.626 -3.9529 3.09921 0
M  V30 2291 C 221.62 -3.89725 5.04374 0
M  V30 2292 C 219.307 -4.20941 4.43004 0
M  V30 2293 C 220.305 -4.18147 5.40039 0
M  V30 2294 O 219.993 -4.43153 6.70724 0
M  V30 2295 H 219.725 -0.597114 0.316908 0
M  V30 2296 H 222.279 -1.41782 1.48617 0
M  V30 2297 H 220.509 -3.81826 0.611999 0
M  V30 2298 H 222.198 -3.92986 1.01573 0
M  V30 2299 H 222.964 -3.41389 3.44498 0
M  V30 2300 H 218.843 -3.966 2.35009 0
M  V30 2301 H 222.387 -3.8746 5.80104 0
M  V30 2302 H 218.284 -4.42761 4.69716 0
M  V30 2303 H 219.052 -4.60717 6.76522 0
M  V30 2304 N 221.715 -0.905404 -1.28997 0
M  V30 2305 C 223.126 -0.581953 -1.77398 0
M  V30 2306 C 223.477 0.902552 -1.74208 0
M  V30 2307 O 222.602 1.70584 -1.33154 0
M  V30 2308 C 223.197 -1.04961 -3.22131 0
M  V30 2309 C 221.756 -0.777229 -3.68288 0
M  V30 2310 C 220.903 -1.22109 -2.48967 0
M  V30 2311 H 223.854 -1.08754 -1.15578 0
M  V30 2312 H 223.875 -0.387387 -3.78523 0
M  V30 2313 H 223.387 -2.13008 -3.24421 0
M  V30 2314 H 221.488 0.290383 -3.71467 0
M  V30 2315 H 221.601 -1.37911 -4.58822 0
M  V30 2316 H 219.965 -0.639971 -2.46529 0
M  V30 2317 H 220.748 -2.30972 -2.53982 0
M  V30 2318 N 223.193 1.4272 -0.668489 0
M  V30 2319 C 224.442 2.00846 -0.185389 0
M  V30 2320 C 224.755 1.53442 1.21305 0
M  V30 2321 O 225.961 2.03944 1.79218 0
M  V30 2322 C 224.417 3.58805 -0.280591 0
M  V30 2323 C 224.025 4.15198 -1.68268 0
M  V30 2324 C 225.769 4.24255 0.14412 0
M  V30 2325 C 223.676 5.655 -1.73099 0
M  V30 2326 H 222.606 0.751145 -0.0655475 0
M  V30 2327 H 225.257 1.63516 -0.832752 0
M  V30 2328 H 223.639 3.93608 0.434553 0
M  V30 2329 H 224.813 3.91866 -2.42441 0
M  V30 2330 H 223.128 3.62176 -2.05469 0
M  V30 2331 H 225.725 5.34547 0.128086 0
M  V30 2332 H 226.068 3.99277 1.17827 0
M  V30 2333 H 226.601 3.94389 -0.519798 0
M  V30 2334 H 223.34 5.95268 -2.74475 0
M  V30 2335 H 222.86 5.90842 -1.03274 0
M  V30 2336 H 224.539 6.29808 -1.48158 0
M  V30 2337 N 224.671 0.411399 1.52136 0
M  V30 2338 C 225.634 -0.401089 2.25663 0
M  V30 2339 C 226.634 -0.971732 1.28117 0
M  V30 2340 O 227.824 -0.850254 1.52041 0
M  V30 2341 C 224.956 -1.56483 3.02863 0
M  V30 2342 H 226.149 0.24295 2.98914 0
M  V30 2343 H 223.702 0.163968 1.55438 0
M  V30 2344 H 224.437 -2.24567 2.33967 0
M  V30 2345 H 224.222 -1.16211 3.74483 0
M  V30 2346 H 225.712 -2.13951 3.58629 0
M  V30 2347 N 226.149 -1.5696 0.141893 0
M  V30 2348 C 227.059 -2.20066 -0.812905 0
M  V30 2349 C 228.075 -1.18344 -1.27557 0
M  V30 2350 O 229.251 -1.50902 -1.33381 0
M  V30 2351 C 226.316 -2.80583 -2.03652 0
M  V30 2352 C 225.377 -3.97414 -1.62359 0
M  V30 2353 C 224.61 -4.55036 -2.78887 0
M  V30 2354 O 224.833 -4.11538 -3.94959 0
M  V30 2355 O 223.767 -5.45376 -2.54653 0
M  V30 2356 H 227.593 -3.02157 -0.305746 0
M  V30 2357 H 225.178 -1.49159 -0.0848799 0
M  V30 2358 H 227.06 -3.19067 -2.75272 0
M  V30 2359 H 225.735 -2.01508 -2.5333 0
M  V30 2360 H 224.642 -3.63656 -0.877775 0
M  V30 2361 H 225.975 -4.77994 -1.17401 0
M  V30 2362 N 227.627 0.131896 -1.57047 0
M  V30 2363 C 228.59 1.14638 -1.98471 0
M  V30 2364 C 229.59 1.35029 -0.873148 0
M  V30 2365 O 230.78 1.31764 -1.13946 0
M  V30 2366 C 227.912 2.50358 -2.31373 0
M  V30 2367 H 229.105 0.79064 -2.8929 0
M  V30 2368 H 226.658 0.375761 -1.51716 0
M  V30 2369 H 227.393 2.90876 -1.43393 0
M  V30 2370 H 227.178 2.36915 -3.12432 0
M  V30 2371 H 228.668 3.23395 -2.64207 0
M  V30 2372 N 229.106 1.52395 0.401703 0
M  V30 2373 C 230.069 1.75636 1.47257 0
M  V30 2374 C 231.069 0.62628 1.48103 0
M  V30 2375 O 232.259 0.894227 1.49497 0
M  V30 2376 C 229.391 1.84553 2.86624 0
M  V30 2377 H 230.584 2.71241 1.27938 0
M  V30 2378 H 228.137 1.42923 0.632662 0
M  V30 2379 H 228.872 0.908882 3.11303 0
M  V30 2380 H 228.657 2.66715 2.87412 0
M  V30 2381 H 230.147 2.04251 3.64241 0
M  V30 2382 N 230.584 -0.659388 1.43143 0
M  V30 2383 C 232 -0.974337 1.26407 0
M  V30 2384 C 232.2 -2.007 0.179341 0
M  V30 2385 O 231.256 -2.4856 -0.444295 0
M  V30 2386 C 232.569 -1.46447 2.62628 0
M  V30 2387 C 234.117 -1.58144 2.7011 0
M  V30 2388 C 234.592 -2.1055 4.06734 0
M  V30 2389 N 236.083 -2.17861 4.08767 0
M  V30 2390 C 236.818 -2.59519 5.1131 0
M  V30 2391 N 236.314 -3.00518 6.24228 0
M  V30 2392 N 238.107 -2.59404 4.98664 0
M  V30 2393 H 230.258 0.0240528 2.12386 0
M  V30 2394 H 232.521 -0.0518065 0.946583 0
M  V30 2395 H 232.227 -0.780123 3.42939 0
M  V30 2396 H 232.101 -2.44058 2.87603 0
M  V30 2397 H 234.488 -2.25682 1.90136 0
M  V30 2398 H 234.569 -0.589828 2.48907 0
M  V30 2399 H 234.213 -1.43616 4.87172 0
M  V30 2400 H 234.143 -3.10531 4.25298 0
M  V30 2401 H 236.634 -1.88975 3.27257 0
M  V30 2402 H 236.947 -3.31036 6.98309 0
M  V30 2403 H 235.292 -2.98337 6.2771 0
M  V30 2404 H 238.483 -2.26747 4.09516 0
M  V30 2405 H 238.656 -2.91548 5.78709 0
M  V30 2406 N 232.062 -1.29571 -0.897171 0
M  V30 2407 C 233.478 -1.07637 -1.17841 0
M  V30 2408 C 233.678 0.170713 -2.00776 0
M  V30 2409 O 232.734 0.867768 -2.3712 0
M  V30 2410 C 234.047 -2.3332 -1.8969 0
M  V30 2411 C 235.595 -2.38664 -2.02505 0
M  V30 2412 C 236.07 -3.64157 -2.77765 0
M  V30 2413 N 237.561 -3.64894 -2.85318 0
M  V30 2414 C 238.296 -4.58679 -3.44094 0
M  V30 2415 N 237.792 -5.62799 -4.04017 0
M  V30 2416 N 239.585 -4.46245 -3.41793 0
M  V30 2417 H 231.736 -2.09598 -0.343883 0
M  V30 2418 H 233.999 -0.923333 -0.214848 0
M  V30 2419 H 233.705 -3.24262 -1.36187 0
M  V30 2420 H 233.579 -2.41025 -2.9015 0
M  V30 2421 H 235.966 -1.48208 -2.55183 0
M  V30 2422 H 236.047 -2.34943 -1.01171 0
M  V30 2423 H 235.691 -4.54965 -2.25763 0
M  V30 2424 H 235.621 -3.65137 -3.7945 0
M  V30 2425 H 238.112 -2.89613 -2.42761 0
M  V30 2426 H 238.425 -6.3048 -4.46895 0
M  V30 2427 H 236.77 -5.66605 -4.02472 0
M  V30 2428 H 239.961 -3.64094 -2.94199 0
M  V30 2429 H 240.134 -5.19518 -3.87304 0
M  V30 2430 N 233.54 1.10788 -1.12088 0
M  V30 2431 C 234.786 1.82942 -0.875226 0
M  V30 2432 C 235.119 1.84779 0.597538 0
M  V30 2433 O 234.394 1.30578 1.44152 0
M  V30 2434 C 234.677 3.29789 -1.44606 0
M  V30 2435 C 234.53 3.36307 -2.98693 0
M  V30 2436 C 235.849 4.26064 -1.10261 0
M  V30 2437 H 232.968 0.664195 -0.319397 0
M  V30 2438 H 235.61 1.29867 -1.38689 0
M  V30 2439 H 233.76 3.75118 -1.01089 0
M  V30 2440 H 235.432 2.99487 -3.50864 0
M  V30 2441 H 233.675 2.76318 -3.34411 0
M  V30 2442 H 234.346 4.39694 -3.33726 0
M  V30 2443 H 236.822 3.88951 -1.4784 0
M  V30 2444 H 235.698 5.27183 -1.52869 0
M  V30 2445 H 235.959 4.42098 -0.0142953 0
M  V30 2446 N 235.018 0.912232 1.28515 0
M  V30 2447 C 235.948 0.416403 2.29757 0
M  V30 2448 C 236.929 -0.515194 1.6211 0
M  V30 2449 O 238.114 -0.423253 1.89532 0
M  V30 2450 C 235.244 -0.34572 3.45575 0
M  V30 2451 C 234.198 0.496599 4.25109 0
M  V30 2452 C 233.524 -0.393771 5.33248 0
M  V30 2453 C 234.824 1.75307 4.92001 0
M  V30 2454 H 236.518 1.26249 2.7148 0
M  V30 2455 H 234.064 0.608515 1.30511 0
M  V30 2456 H 236.017 -0.703422 4.15488 0
M  V30 2457 H 234.741 -1.2257 3.02728 0
M  V30 2458 H 233.4 0.8368 3.56922 0
M  V30 2459 H 233.048 -1.27225 4.86644 0
M  V30 2460 H 232.748 0.166209 5.87365 0
M  V30 2461 H 234.272 -0.747389 6.06009 0
M  V30 2462 H 235.686 1.46437 5.54283 0
M  V30 2463 H 234.083 2.25534 5.56106 0
M  V30 2464 H 235.153 2.48176 4.16577 0
M  V30 2465 N 236.496 -1.42363 0.676048 0
M  V30 2466 C 237.912 -1.55811 0.345718 0
M  V30 2467 C 238.112 -1.65544 -1.14879 0
M  V30 2468 O 237.168 -1.62306 -1.93424 0
M  V30 2469 C 238.481 -2.80746 1.07713 0
M  V30 2470 C 240.029 -2.9452 1.05958 0
M  V30 2471 C 240.504 -4.22318 1.77233 0
M  V30 2472 N 241.995 -4.29233 1.74108 0
M  V30 2473 C 242.73 -5.26935 2.26113 0
M  V30 2474 N 242.226 -6.30783 2.86505 0
M  V30 2475 N 244.019 -5.18741 2.1648 0
M  V30 2476 H 236.17 -1.34289 1.6456 0
M  V30 2477 H 238.433 -0.646506 0.69335 0
M  V30 2478 H 238.139 -2.79696 2.13221 0
M  V30 2479 H 238.013 -3.71676 0.64316 0
M  V30 2480 H 240.4 -2.95097 0.0128255 0
M  V30 2481 H 240.481 -2.04817 1.53244 0
M  V30 2482 H 240.125 -4.22502 2.81877 0
M  V30 2483 H 240.055 -5.10958 1.27396 0
M  V30 2484 H 242.546 -3.54814 1.30059 0
M  V30 2485 H 242.859 -7.01691 3.23805 0
M  V30 2486 H 241.204 -6.31341 2.90575 0
M  V30 2487 H 244.395 -4.36533 1.68987 0
M  V30 2488 H 244.568 -5.94721 2.57316 0
M  V30 2489 N 237.974 -0.419461 -1.51915 0
M  V30 2490 C 239.222 0.152637 -2.01523 0
M  V30 2491 C 239.543 1.44762 -1.30649 0
M  V30 2492 O 238.813 1.90997 -0.435535 0
M  V30 2493 H 237.393 0.0593966 -0.744635 0
M  V30 2494 H 240.055 -0.558073 -1.86739 0
M  V30 2495 H 239.151 0.341369 -3.10227 0
M  V30 2496 N 239.452 1.56882 -0.150215 0
M  V30 2497 C 240.362 2.20494 0.801222 0
M  V30 2498 C 241.378 1.19019 1.26927 0
M  V30 2499 O 242.554 1.51607 1.32579 0
M  V30 2500 C 239.619 2.81659 2.02161 0
M  V30 2501 C 238.68 3.9827 1.60249 0
M  V30 2502 C 237.913 4.56508 2.7647 0
M  V30 2503 O 238.136 4.13627 3.92771 0
M  V30 2504 O 237.07 5.46719 2.51757 0
M  V30 2505 H 240.896 3.02315 0.289717 0
M  V30 2506 H 238.481 1.49202 0.0769684 0
M  V30 2507 H 240.363 3.20522 2.73576 0
M  V30 2508 H 239.038 2.02849 2.52258 0
M  V30 2509 H 237.945 3.64117 0.858477 0
M  V30 2510 H 239.278 4.78609 1.14864 0
M  V30 2511 N 240.93 -0.123565 1.57115 0
M  V30 2512 C 242.179 -0.830704 1.83799 0
M  V30 2513 C 242.492 -1.81259 0.735158 0
M  V30 2514 O 243.698 -2.56558 0.888278 0
M  V30 2515 C 242.154 -1.52802 3.25852 0
M  V30 2516 C 241.762 -0.587356 4.44133 0
M  V30 2517 C 243.506 -2.22056 3.61789 0
M  V30 2518 C 241.413 -1.28764 5.77212 0
M  V30 2519 H 240.343 -0.313967 0.685522 0
M  V30 2520 H 242.994 -0.0834359 1.8331 0
M  V30 2521 H 241.376 -2.32175 3.20797 0
M  V30 2522 H 242.55 0.172829 4.60476 0
M  V30 2523 H 240.865 -0.00201892 4.164 0
M  V30 2524 H 243.462 -2.75131 4.58483 0
M  V30 2525 H 243.805 -2.99644 2.88997 0
M  V30 2526 H 244.338 -1.49576 3.68608 0
M  V30 2527 H 241.077 -0.55314 6.53162 0
M  V30 2528 H 240.597 -2.01995 5.64764 0
M  V30 2529 H 242.276 -1.8221 6.20813 0
M  V30 2530 N 242.408 -1.52605 -0.393616 0
M  V30 2531 C 243.654 -1.67672 -1.14079 0
M  V30 2532 C 243.987 -0.413121 -1.89755 0
M  V30 2533 O 243.262 0.588952 -1.85369 0
M  V30 2534 C 243.545 -2.9088 -2.12276 0
M  V30 2535 C 243.398 -4.27329 -1.40394 0
M  V30 2536 C 244.717 -3.09628 -3.12759 0
M  V30 2537 H 241.836 -0.610168 -0.413356 0
M  V30 2538 H 244.478 -1.85193 -0.424696 0
M  V30 2539 H 242.628 -2.76073 -2.73342 0
M  V30 2540 H 244.3 -4.53894 -0.82327 0
M  V30 2541 H 242.543 -4.2802 -0.705801 0
M  V30 2542 H 243.214 -5.09615 -2.12123 0
M  V30 2543 H 245.69 -3.23436 -2.61779 0
M  V30 2544 H 244.566 -3.97322 -3.78717 0
M  V30 2545 H 244.827 -2.23637 -3.81365 0
M  V30 2546 N 243.887 0.651787 -1.4349 0
M  V30 2547 C 244.835 1.78586 -1.49029 0
M  V30 2548 C 245.829 1.65448 -0.363767 0
M  V30 2549 O 247.035 1.71777 -0.537821 0
M  V30 2550 H 243.41 0.589236 -0.467231 0
M  V30 2551 H 245.381 1.71035 -2.44519 0
M  V30 2552 C 244.13 3.16851 -1.43181 0
M  V30 2553 H 243.453 3.27598 -2.29171 0
M  V30 2554 H 244.893 3.96156 -1.51118 0
M  V30 2555 C 243.352 3.36568 -0.149616 0
M  V30 2556 O 243.882 3.93885 0.788509 0
M  V30 2557 N 242.088 2.90539 -0.0593484 0
M  V30 2558 H 241.635 2.4408 -0.823575 0
M  V30 2559 H 241.593 3.04108 0.797853 0
M  V30 2560 N 245.365 1.30045 0.890287 0
M  V30 2561 C 246.59 1.21598 1.68014 0
M  V30 2562 C 247.015 -0.218678 1.86825 0
M  V30 2563 O 246.373 -1.15756 1.39536 0
M  V30 2564 C 246.421 1.94434 3.03691 0
M  V30 2565 O 245.525 1.2678 3.92429 0
M  V30 2566 H 244.866 0.420856 0.513592 0
M  V30 2567 H 247.396 1.71775 1.11151 0
M  V30 2568 H 247.406 2.03251 3.5377 0
M  V30 2569 H 246.081 2.98777 2.89318 0
M  V30 2570 H 244.658 1.26282 3.50866 0
M  V30 2571 N 246.843 -1.10192 1.12674 0
M  V30 2572 C 248.092 -1.81573 0.8783 0
M  V30 2573 C 248.405 -1.86249 -0.597557 0
M  V30 2574 O 249.611 -2.5386 -0.962681 0
M  V30 2575 C 248.067 -3.26149 1.52167 0
M  V30 2576 C 247.675 -3.29763 3.03249 0
M  V30 2577 C 249.419 -4.0234 1.3536 0
M  V30 2578 C 247.326 -4.68815 3.60508 0
M  V30 2579 H 246.256 -0.680394 0.324931 0
M  V30 2580 H 248.907 -1.23902 1.35353 0
M  V30 2581 H 247.289 -3.83832 0.974104 0
M  V30 2582 H 248.463 -2.8189 3.6452 0
M  V30 2583 H 246.778 -2.67059 3.19481 0
M  V30 2584 H 249.375 -5.05058 1.75559 0
M  V30 2585 H 249.718 -4.15235 0.297554 0
M  V30 2586 H 250.251 -3.51079 1.87052 0
M  V30 2587 H 246.99 -4.61121 4.65884 0
M  V30 2588 H 246.51 -5.17045 3.04014 0
M  V30 2589 H 248.189 -5.37785 3.59717 0
M  V30 2590 N 248.321 -0.919034 -1.28029 0
M  V30 2591 C 249.284 -0.416182 -2.2539 0
M  V30 2592 C 250.284 0.460438 -1.54067 0
M  V30 2593 O 251.474 0.262744 -1.72207 0
M  V30 2594 C 248.606 0.402707 -3.38513 0
M  V30 2595 H 249.799 -1.27629 -2.71387 0
M  V30 2596 H 247.352 -0.698919 -1.39803 0
M  V30 2597 H 248.087 1.282 -2.97885 0
M  V30 2598 H 247.872 -0.225698 -3.9145 0
M  V30 2599 H 249.362 0.745191 -4.10897 0
M  V30 2600 N 249.799 1.42003 -0.683588 0
M  V30 2601 C 251.048 2.00638 -0.206681 0
M  V30 2602 C 251.361 1.5472 1.19671 0
M  V30 2603 O 252.567 2.05833 1.77045 0
M  V30 2604 C 251.023 3.58487 -0.318632 0
M  V30 2605 C 250.631 4.1339 -1.72663 0
M  V30 2606 C 252.375 4.24384 0.0991141 0
M  V30 2607 C 250.282 5.63633 -1.79087 0
M  V30 2608 H 249.212 0.750408 -0.0735107 0
M  V30 2609 H 251.863 1.62624 -0.850048 0
M  V30 2610 H 250.245 3.94047 0.392781 0
M  V30 2611 H 251.419 3.89273 -2.46583 0
M  V30 2612 H 249.734 3.59976 -2.09299 0
M  V30 2613 H 252.331 5.34652 0.0713833 0
M  V30 2614 H 252.674 4.00505 1.13586 0
M  V30 2615 H 253.207 3.93816 -0.561599 0
M  V30 2616 H 249.946 5.92323 -2.80774 0
M  V30 2617 H 249.466 5.89714 -1.09535 0
M  V30 2618 H 251.145 6.28201 -1.5483 0
M  V30 2619 N 251.277 0.427512 1.51691 0
M  V30 2620 C 252.24 -0.377132 2.26076 0
M  V30 2621 C 253.24 -0.958089 1.29141 0
M  V30 2622 O 254.43 -0.83408 1.52934 0
M  V30 2623 C 251.562 -1.53262 3.04506 0
M  V30 2624 H 252.755 0.27464 2.9864 0
M  V30 2625 H 250.308 0.180445 1.55255 0
M  V30 2626 H 251.043 -2.22072 2.36335 0
M  V30 2627 H 250.828 -1.12232 3.75694 0
M  V30 2628 H 252.318 -2.10135 3.60878 0
M  V30 2629 N 252.755 -1.56801 0.158532 0
M  V30 2630 C 254.003 -1.96102 -0.488712 0
M  V30 2631 C 254.324 -1.04498 -1.64636 0
M  V30 2632 O 253.594 -0.108783 -1.95598 0
M  V30 2633 H 252.174 -0.724102 -0.183535 0
M  V30 2634 H 254.836 -1.93457 0.236728 0
M  V30 2635 H 253.932 -3.00097 -0.857219 0
M  V30 2636 N 254.233 0.115231 -1.57178 0
M  V30 2637 C 255.479 0.82357 -1.85325 0
M  V30 2638 C 255.812 1.79349 -0.744814 0
M  V30 2639 O 255.087 1.92899 0.249024 0
M  V30 2640 C 255.37 1.57014 -3.24066 0
M  V30 2641 C 255.223 0.619565 -4.45513 0
M  V30 2642 C 256.542 2.52545 -3.60429 0
M  V30 2643 H 253.661 0.297948 -0.674089 0
M  V30 2644 H 256.303 0.0877138 -1.89797 0
M  V30 2645 H 254.453 2.19742 -3.20383 0
M  V30 2646 H 256.125 0.000837639 -4.613 0
M  V30 2647 H 254.368 -0.0686174 -4.33746 0
M  V30 2648 H 255.039 1.17866 -5.3927 0
M  V30 2649 H 257.515 1.9992 -3.64926 0
M  V30 2650 H 256.391 3.01811 -4.58477 0
M  V30 2651 H 256.652 3.35383 -2.88047 0
M  V30 2652 N 255.711 1.52812 0.385517 0
M  V30 2653 C 256.641 1.80808 1.47752 0
M  V30 2654 C 257.622 0.660318 1.5676 0
M  V30 2655 O 258.807 0.908246 1.71652 0
M  V30 2656 C 255.937 1.98008 2.85324 0
M  V30 2657 C 254.891 3.13709 2.91154 0
M  V30 2658 C 254.217 3.16169 4.31209 0
M  V30 2659 C 255.517 4.52709 2.60483 0
M  V30 2660 H 257.211 2.72253 1.24573 0
M  V30 2661 H 254.757 1.31003 0.597839 0
M  V30 2662 H 256.71 2.16176 3.61726 0
M  V30 2663 H 255.434 1.03255 3.09848 0
M  V30 2664 H 254.093 2.95329 2.17201 0
M  V30 2665 H 253.741 2.19092 4.52778 0
M  V30 2666 H 253.441 3.93894 4.36029 0
M  V30 2667 H 254.965 3.36496 5.09512 0
M  V30 2668 H 256.379 4.71173 3.26602 0
M  V30 2669 H 254.776 5.32528 2.76648 0
M  V30 2670 H 255.846 4.59186 1.55809 0
M  V30 2671 N 257.189 -0.644168 1.43834 0
M  V30 2672 C 258.152 -1.73857 1.49353 0
M  V30 2673 C 259.152 -1.56315 0.377112 0
M  V30 2674 O 260.342 -1.62048 0.639226 0
M  V30 2675 C 257.474 -3.12819 1.35488 0
M  V30 2676 H 258.667 -1.70342 2.46827 0
M  V30 2677 H 256.22 -0.856652 1.30733 0
M  V30 2678 H 256.955 -3.2194 0.390569 0
M  V30 2679 H 256.74 -3.26958 2.16428 0
M  V30 2680 H 258.23 -3.92606 1.42302 0
M  V30 2681 N 258.668 -1.30515 -0.883378 0
M  V30 2682 C 259.914 -1.19607 -1.63774 0
M  V30 2683 C 260.247 0.248314 -1.92606 0
M  V30 2684 O 259.522 1.17742 -1.54813 0
M  V30 2685 C 259.805 -2.02669 -2.97653 0
M  V30 2686 C 259.658 -3.55335 -2.75784 0
M  V30 2687 C 260.977 -1.86573 -3.98596 0
M  V30 2688 H 258.096 -0.435856 -0.594305 0
M  V30 2689 H 260.738 -1.60165 -1.02212 0
M  V30 2690 H 258.888 -1.68208 -3.50197 0
M  V30 2691 H 260.56 -3.99863 -2.30016 0
M  V30 2692 H 258.803 -3.79438 -2.1026 0
M  V30 2693 H 259.474 -4.08745 -3.70988 0
M  V30 2694 H 261.95 -2.16703 -3.55217 0
M  V30 2695 H 260.826 -2.47014 -4.90179 0
M  V30 2696 H 261.087 -0.825321 -4.34328 0
M  V30 2697 N 260.146 1.09593 -1.13257 0
M  V30 2698 C 261.096 2.14345 -0.777179 0
M  V30 2699 C 262.08 1.59277 0.227966 0
M  V30 2700 O 263.272 1.76971 0.0321413 0
M  V30 2701 C 260.401 3.42439 -0.242991 0
M  V30 2702 C 259.487 4.04419 -1.27694 0
M  V30 2703 N 259.878 4.40979 -2.47732 0
M  V30 2704 C 258.176 4.31596 -1.12432 0
M  V30 2705 C 258.877 4.89784 -3.13826 0
M  V30 2706 N 257.853 4.87133 -2.41252 0
M  V30 2707 H 261.655 2.40415 -1.69049 0
M  V30 2708 H 259.169 1.26803 -1.01463 0
M  V30 2709 H 261.166 4.16889 0.0298496 0
M  V30 2710 H 259.826 3.17824 0.66467 0
M  V30 2711 H 260.837 4.32396 -2.85051 0
M  V30 2712 H 257.514 4.16595 -0.274684 0
M  V30 2713 H 258.904 5.2755 -4.16102 0
M  V30 2714 N 261.624 0.925811 1.2754 0
M  V30 2715 C 262.587 0.428129 2.25166 0
M  V30 2716 C 263.587 -0.452261 1.54309 0
M  V30 2717 O 264.777 -0.253608 1.72344 0
M  V30 2718 C 261.909 -0.384749 3.38722 0
M  V30 2719 H 263.102 1.29066 2.70706 0
M  V30 2720 H 260.655 0.706323 1.3943 0
M  V30 2721 H 261.39 -1.26618 2.98561 0
M  V30 2722 H 261.175 0.246454 3.91325 0
M  V30 2723 H 262.665 -0.723389 4.11287 0
M  V30 2724 N 263.102 -1.41638 0.69111 0
M  V30 2725 C 264.348 -2.01598 0.220519 0
M  V30 2726 C 264.681 -1.54594 -1.17535 0
M  V30 2727 O 263.956 -0.755177 -1.79241 0
M  V30 2728 C 264.239 -3.59062 0.273243 0
M  V30 2729 C 264.092 -4.16203 1.70573 0
M  V30 2730 C 265.411 -4.38546 -0.369457 0
M  V30 2731 H 262.53 -0.732468 0.0816045 0
M  V30 2732 H 265.172 -1.68445 0.878986 0
M  V30 2733 H 263.322 -3.87435 -0.287411 0
M  V30 2734 H 264.994 -3.98722 2.31989 0
M  V30 2735 H 263.237 -3.71414 2.2413 0
M  V30 2736 H 263.908 -5.25358 1.69419 0
M  V30 2737 H 266.384 -4.1596 0.107977 0
M  V30 2738 H 265.26 -5.48069 -0.302002 0
M  V30 2739 H 265.521 -4.17662 -1.44951 0
M  V30 2740 N 264.58 -0.43555 -1.51462 0
M  V30 2741 C 265.808 0.130242 -2.0649 0
M  V30 2742 C 266.223 1.36614 -1.30315 0
M  V30 2743 O 265.58 1.78869 -0.362223 0
M  V30 2744 C 265.631 0.454253 -3.58635 0
M  V30 2745 O 265.352 -0.73259 -4.31931 0
M  V30 2746 C 266.853 1.07091 -4.3017 0
M  V30 2747 H 264.073 0.00871669 -0.670943 0
M  V30 2748 H 266.617 -0.614117 -1.95061 0
M  V30 2749 H 264.772 1.14851 -3.69984 0
M  V30 2750 H 265.186 -0.455787 -5.22516 0
M  V30 2751 H 266.66 1.24764 -5.37716 0
M  V30 2752 H 267.137 2.05144 -3.88346 0
M  V30 2753 H 267.743 0.416089 -4.2326 0
M  V30 2754 N 266.058 1.56714 -0.166846 0
M  V30 2755 C 267.286 2.0112 0.485644 0
M  V30 2756 C 267.701 1.04705 1.57106 0
M  V30 2757 O 267.058 0.0471923 1.82439 0
M  V30 2758 C 267.109 3.45361 1.06808 0
M  V30 2759 O 266.83 4.38092 0.0259995 0
M  V30 2760 C 268.331 4.05145 1.79924 0
M  V30 2761 H 265.551 0.65931 0.124704 0
M  V30 2762 H 268.095 2.02746 -0.267262 0
M  V30 2763 H 266.25 3.44524 1.7715 0
M  V30 2764 H 266.664 5.22519 0.455398 0
M  V30 2765 H 268.138 5.08009 2.15942 0
M  V30 2766 H 268.615 3.46982 2.69258 0
M  V30 2767 H 269.221 4.09672 1.14234 0
M  V30 2768 N 267.536 -0.106894 1.57237 0
M  V30 2769 C 268.784 -0.810921 1.85117 0
M  V30 2770 C 269.105 -1.7984 0.753827 0
M  V30 2771 O 268.375 -1.94649 -0.221056 0
M  V30 2772 H 266.955 -0.302466 0.683025 0
M  V30 2773 H 269.617 -0.0913324 1.94686 0
M  V30 2774 H 268.713 -1.34875 2.81452 0
M  V30 2775 N 269.014 -1.53014 -0.377408 0
M  V30 2776 C 270.261 -1.68623 -1.12128 0
M  V30 2777 C 270.589 -0.431997 -1.89642 0
M  V30 2778 O 269.844 0.585855 -1.86725 0
M  V30 2779 C 270.143 -2.87982 -2.11663 0
M  V30 2780 C 269.809 -4.24964 -1.50719 0
M  V30 2781 C 268.471 -4.62217 -1.33825 0
M  V30 2782 C 270.823 -5.10199 -1.06519 0
M  V30 2783 C 268.151 -5.82352 -0.712963 0
M  V30 2784 C 270.503 -6.30969 -0.453955 0
M  V30 2785 C 269.167 -6.66944 -0.272411 0
M  V30 2786 H 268.437 -0.617034 -0.410305 0
M  V30 2787 H 271.084 -1.8718 -0.404484 0
M  V30 2788 H 269.389 -2.63889 -2.89603 0
M  V30 2789 H 271.086 -2.97253 -2.6915 0
M  V30 2790 H 267.676 -3.95626 -1.64858 0
M  V30 2791 H 271.86 -4.81978 -1.18368 0
M  V30 2792 H 267.116 -6.08824 -0.560611 0
M  V30 2793 H 271.29 -6.96324 -0.103217 0
M  V30 2794 H 268.917 -7.59898 0.214181 0
M  V30 2795 N 270.492 0.636531 -1.44174 0
M  V30 2796 C 271.455 1.73063 -1.50273 0
M  V30 2797 C 272.455 1.56113 -0.385397 0
M  V30 2798 O 273.645 1.61707 -0.64781 0
M  V30 2799 C 270.777 3.12096 -1.37145 0
M  V30 2800 H 271.97 1.69031 -2.47727 0
M  V30 2801 H 269.523 0.849706 -1.31186 0
M  V30 2802 H 270.258 3.21728 -0.407636 0
M  V30 2803 H 270.043 3.25805 -2.18159 0
M  V30 2804 H 271.533 3.91846 -1.44382 0
M  V30 2805 N 271.97 1.30982 0.876444 0
M  V30 2806 C 272.902 1.13902 1.98894 0
M  V30 2807 C 273.915 0.0798815 1.62604 0
M  V30 2808 O 275.104 0.326743 1.75484 0
M  V30 2809 C 272.204 0.716699 3.31235 0
M  V30 2810 C 271.377 1.85945 3.95908 0
M  V30 2811 C 270.436 1.42426 5.06558 0
M  V30 2812 O 269.462 2.13287 5.27729 0
M  V30 2813 N 270.664 0.308025 5.79682 0
M  V30 2814 H 273.429 2.09724 2.14094 0
M  V30 2815 H 270.99 1.2323 1.05004 0
M  V30 2816 H 272.982 0.408403 4.02634 0
M  V30 2817 H 271.552 -0.149719 3.12241 0
M  V30 2818 H 270.772 2.33541 3.17573 0
M  V30 2819 H 272.06 2.62503 4.35855 0
M  V30 2820 H 271.458 -0.282241 5.64995 0
M  V30 2821 H 270.015 0.0592282 6.51773 0
M  V30 2822 N 273.449 -1.08991 1.13837 0
M  V30 2823 C 274.86 -1.62746 0.914917 0
M  V30 2824 C 275.211 -1.88403 -0.547594 0
M  V30 2825 O 274.336 -1.63706 -1.41525 0
M  V30 2826 C 274.931 -2.95662 1.65437 0
M  V30 2827 C 273.49 -3.46225 1.47666 0
M  V30 2828 C 272.637 -2.20562 1.6807 0
M  V30 2829 H 275.588 -0.922946 1.29102 0
M  V30 2830 H 275.609 -3.63825 1.11407 0
M  V30 2831 H 275.121 -2.76956 2.71877 0
M  V30 2832 H 273.222 -3.70046 0.435478 0
M  V30 2833 H 273.335 -4.23368 2.24268 0
M  V30 2834 H 271.699 -2.29439 1.10589 0
M  V30 2835 H 272.482 -2.0437 2.7584 0
M  V30 2836 N 274.927 -0.932562 -1.27047 0
M  V30 2837 C 276.343 -0.633544 -1.46487 0
M  V30 2838 C 276.543 0.815746 -1.84249 0
M  V30 2839 O 275.599 1.59319 -1.95892 0
M  V30 2840 C 276.912 -1.58758 -2.55375 0
M  V30 2841 C 278.46 -1.59634 -2.69232 0
M  V30 2842 C 278.935 -2.53747 -3.81283 0
M  V30 2843 N 280.426 -2.51982 -3.88664 0
M  V30 2844 C 281.161 -3.21491 -4.74796 0
M  V30 2845 N 280.657 -4.00395 -5.65381 0
M  V30 2846 N 282.45 -3.10485 -4.68568 0
M  V30 2847 H 274.601 -1.86946 -1.00821 0
M  V30 2848 H 276.864 -0.802897 -0.504044 0
M  V30 2849 H 276.57 -2.62172 -2.34432 0
M  V30 2850 H 276.444 -1.33301 -3.52861 0
M  V30 2851 H 278.831 -0.569488 -2.89553 0
M  V30 2852 H 278.912 -1.89142 -1.72218 0
M  V30 2853 H 278.556 -3.56545 -3.61715 0
M  V30 2854 H 278.486 -2.21532 -4.77735 0
M  V30 2855 H 280.977 -1.94681 -3.23895 0
M  V30 2856 H 281.29 -4.50406 -6.27976 0
M  V30 2857 H 279.635 -4.04498 -5.65161 0
M  V30 2858 H 282.826 -2.48331 -3.96799 0
M  V30 2859 H 282.999 -3.64925 -5.35475 0
M  V30 2860 N 276.405 1.4127 -0.698611 0
M  V30 2861 C 277.816 1.84187 -0.305289 0
M  V30 2862 C 278.167 1.58449 1.15708 0
M  V30 2863 O 277.292 1.05651 1.88856 0
M  V30 2864 C 277.887 3.3435 -0.547314 0
M  V30 2865 C 276.446 3.75826 -0.207878 0
M  V30 2866 C 275.593 2.64647 -0.828099 0
M  V30 2867 H 278.544 1.30778 -0.89904 0
M  V30 2868 H 278.565 3.8001 0.192998 0
M  V30 2869 H 278.077 3.53051 -1.61172 0
M  V30 2870 H 276.178 3.62725 0.852143 0
M  V30 2871 H 276.291 4.74462 -0.665021 0
M  V30 2872 H 274.655 2.53395 -0.257458 0
M  V30 2873 H 275.438 2.86165 -1.89643 0
M  V30 2874 N 277.883 0.443576 1.51229 0
M  V30 2875 C 278.813 -0.355142 2.30783 0
M  V30 2876 C 279.794 -1.0154 1.36468 0
M  V30 2877 O 280.979 -1.01785 1.65389 0
M  V30 2878 C 278.109 -1.45312 3.15439 0
M  V30 2879 C 277.063 -0.916002 4.18083 0
M  V30 2880 C 276.389 -2.1102 4.91299 0
M  V30 2881 C 277.689 0.0538602 5.22272 0
M  V30 2882 H 279.383 0.308767 2.97804 0
M  V30 2883 H 276.929 0.149937 1.43217 0
M  V30 2884 H 278.882 -2.01914 3.69876 0
M  V30 2885 H 277.606 -2.14541 2.46252 0
M  V30 2886 H 276.265 -0.372145 3.64706 0
M  V30 2887 H 275.913 -2.78882 4.18609 0
M  V30 2888 H 275.613 -1.75717 5.60712 0
M  V30 2889 H 277.137 -2.68164 5.48562 0
M  V30 2890 H 278.551 -0.422069 5.71744 0
M  V30 2891 H 276.948 0.319776 5.99247 0
M  V30 2892 H 278.018 0.98858 4.74716 0
M  V30 2893 N 279.361 -1.56624 0.175154 0
M  V30 2894 C 280.638 -1.88688 -0.515373 0
M  V30 2895 C 281.018 -1.08564 -1.81044 0
M  V30 2896 O 280.366 -0.180703 -2.27784 0
M  V30 2897 C 280.576 -3.40768 -0.753552 0
M  V30 2898 C 281.924 -4.10587 -1.08184 0
M  V30 2899 O 282.948 -3.46106 -0.841961 0
M  V30 2900 O 281.807 -5.24512 -1.53459 0
M  V30 2901 H 278.901 -0.78301 -0.26613 0
M  V30 2902 H 281.447 -1.68347 0.213877 0
M  V30 2903 H 280.219 -3.90965 0.161829 0
M  V30 2904 H 279.842 -3.66733 -1.53598 0
M  V30 2905 N 280.839 0.0985539 -1.57292 0
M  V30 2906 C 282.067 0.816318 -1.90115 0
M  V30 2907 C 282.482 1.72451 -0.768509 0
M  V30 2908 O 281.839 1.80643 0.259687 0
M  V30 2909 C 281.89 1.63259 -3.22535 0
M  V30 2910 O 281.611 0.760934 -4.31441 0
M  V30 2911 C 283.112 2.45372 -3.69199 0
M  V30 2912 H 280.332 0.233595 -0.629027 0
M  V30 2913 H 282.876 0.0768229 -2.04356 0
M  V30 2914 H 281.031 2.32463 -3.09903 0
M  V30 2915 H 281.445 1.32595 -5.07463 0
M  V30 2916 H 282.919 2.98144 -4.64558 0
M  V30 2917 H 283.396 3.23677 -2.96867 0
M  V30 2918 H 284.002 1.81373 -3.84687 0
M  V30 2919 N 282.317 1.53212 0.369288 0
M  V30 2920 C 283.227 1.82342 1.47609 0
M  V30 2921 C 284.243 0.711532 1.58787 0
M  V30 2922 O 285.419 1.0012 1.74751 0
M  V30 2923 C 282.484 2.00393 2.8292 0
M  V30 2924 C 281.545 3.24297 2.81301 0
M  V30 2925 C 280.778 3.41478 4.10157 0
M  V30 2926 O 281.001 2.63033 5.06132 0
M  V30 2927 O 279.935 4.34817 4.16194 0
M  V30 2928 H 283.761 2.76366 1.25918 0
M  V30 2929 H 281.346 1.38547 0.559034 0
M  V30 2930 H 283.228 2.13859 3.63101 0
M  V30 2931 H 281.903 1.09559 3.04596 0
M  V30 2932 H 280.81 3.16257 1.99831 0
M  V30 2933 H 282.143 4.15041 2.64578 0
M  V30 2934 N 283.795 -0.628877 1.44509 0
M  V30 2935 C 285.041 -1.38863 1.48623 0
M  V30 2936 C 285.396 -1.92038 0.117933 0
M  V30 2937 O 284.689 -1.70853 -0.86716 0
M  V30 2938 C 284.883 -2.56995 2.48371 0
M  V30 2939 C 284.712 -2.15385 3.94765 0
M  V30 2940 C 283.482 -2.02558 4.62924 0
M  V30 2941 C 285.68 -1.74158 4.83915 0
M  V30 2942 N 283.662 -1.54534 5.94132 0
M  V30 2943 C 285.033 -1.37396 6.04584 0
M  V30 2944 C 287.088 -1.61559 4.7096 0
M  V30 2945 C 285.791 -0.892948 7.13736 0
M  V30 2946 C 287.817 -1.14862 5.80139 0
M  V30 2947 C 287.179 -0.790516 6.9995 0
M  V30 2948 H 283.278 -0.502858 0.59888 0
M  V30 2949 H 285.862 -0.72121 1.8085 0
M  V30 2950 H 284.033 -3.21362 2.1813 0
M  V30 2951 H 285.765 -3.23801 2.42766 0
M  V30 2952 H 282.52 -2.23082 4.1777 0
M  V30 2953 H 282.944 -1.32815 6.63844 0
M  V30 2954 H 287.586 -1.87876 3.78764 0
M  V30 2955 H 285.304 -0.617291 8.05739 0
M  V30 2956 H 288.89 -1.05569 5.72142 0
M  V30 2957 H 287.77 -0.434713 7.82994 0
M  V30 2958 N 285.273 -1.31445 -0.869486 0
M  V30 2959 C 286.522 -1.20517 -1.61736 0
M  V30 2960 C 286.835 0.235341 -1.94179 0
M  V30 2961 O 288.041 0.466312 -2.67465 0
M  V30 2962 C 286.497 -2.10982 -2.91573 0
M  V30 2963 C 286.105 -3.60032 -2.66611 0
M  V30 2964 C 287.849 -2.08856 -3.69567 0
M  V30 2965 C 285.756 -4.42503 -3.92358 0
M  V30 2966 H 284.686 -0.447493 -0.606849 0
M  V30 2967 H 287.337 -1.56303 -0.96133 0
M  V30 2968 H 285.719 -1.68095 -3.58553 0
M  V30 2969 H 286.893 -4.11167 -2.08035 0
M  V30 2970 H 285.208 -3.64139 -2.0197 0
M  V30 2971 H 287.805 -2.67716 -4.62852 0
M  V30 2972 H 288.148 -1.07582 -4.02159 0
M  V30 2973 H 288.681 -2.49945 -3.09471 0
M  V30 2974 H 285.42 -5.44533 -3.64916 0
M  V30 2975 H 284.94 -3.96125 -4.50383 0
M  V30 2976 H 286.619 -4.54741 -4.60238 0
M  V30 2977 N 286.751 1.08385 -1.14413 0
M  V30 2978 C 288.028 1.77429 -0.823297 0
M  V30 2979 C 288.408 1.9974 0.683163 0
M  V30 2980 O 287.756 1.60739 1.62405 0
M  V30 2981 C 287.966 3.09004 -1.62227 0
M  V30 2982 C 289.314 3.83532 -1.82177 0
M  V30 2983 O 290.338 3.18786 -1.58915 0
M  V30 2984 O 289.197 4.99792 -2.21067 0
M  V30 2985 H 286.291 0.769999 -0.301712 0
M  V30 2986 H 288.837 1.14846 -1.24934 0
M  V30 2987 H 287.609 2.88316 -2.64555 0
M  V30 2988 H 287.232 3.79316 -1.19187 0
M  V30 2989 N 288.23 0.939286 1.26551 0
M  V30 2990 C 289.646 0.641304 1.46149 0
M  V30 2991 C 289.846 -0.805964 1.84679 0
M  V30 2992 O 288.902 -1.58278 1.96734 0
M  V30 2993 C 290.215 1.6011 2.54529 0
M  V30 2994 C 291.763 1.6106 2.68382 0
M  V30 2995 C 292.238 2.55765 3.79932 0
M  V30 2996 N 293.729 2.5404 3.87322 0
M  V30 2997 C 294.464 3.24004 4.73085 0
M  V30 2998 N 293.96 4.03388 5.63249 0
M  V30 2999 N 295.753 3.12965 4.66914 0
M  V30 3000 H 287.904 1.87478 0.998285 0
M  V30 3001 H 290.167 0.805559 0.499779 0
M  V30 3002 H 289.873 2.63412 2.33039 0
M  V30 3003 H 289.747 1.35171 3.52149 0
M  V30 3004 H 292.134 0.584835 2.89247 0
M  V30 3005 H 292.215 1.90053 1.71212 0
M  V30 3006 H 291.859 3.58458 3.5982 0
M  V30 3007 H 291.789 2.24063 4.76554 0
M  V30 3008 H 294.28 1.96396 3.22858 0
M  V30 3009 H 294.593 4.5373 6.25579 0
M  V30 3010 H 292.938 4.07489 5.63008 0
M  V30 3011 H 296.129 2.50432 3.95476 0
M  V30 3012 H 296.302 3.67759 5.33533 0
M  V30 3013 N 289.708 -1.40897 0.706093 0
M  V30 3014 C 291.119 -1.84023 0.315052 0
M  V30 3015 C 291.47 -1.5906 -1.14866 0
M  V30 3016 O 290.595 -1.06651 -1.88293 0
M  V30 3017 C 291.19 -3.34055 0.565038 0
M  V30 3018 C 289.749 -3.7571 0.227806 0
M  V30 3019 C 288.896 -2.64204 0.842122 0
M  V30 3020 H 291.847 -1.303 0.905963 0
M  V30 3021 H 291.868 -3.80107 -0.172843 0
M  V30 3022 H 291.38 -3.52192 1.63042 0
M  V30 3023 H 289.481 -3.63172 -0.832895 0
M  V30 3024 H 289.594 -4.74103 0.690174 0
M  V30 3025 H 287.958 -2.53255 0.270893 0
M  V30 3026 H 288.741 -2.85155 1.91158 0
M  V30 3027 N 291.186 -0.45159 -1.50991 0
M  V30 3028 C 292.414 0.108334 -2.06616 0
M  V30 3029 C 292.829 1.35224 -1.31757 0
M  V30 3030 O 292.186 1.78475 -0.381174 0
M  V30 3031 C 292.237 0.41619 -3.59096 0
M  V30 3032 O 291.958 -0.778361 -4.3113 0
M  V30 3033 C 293.459 1.02523 -4.31282 0
M  V30 3034 H 290.679 0.00159995 -0.670998 0
M  V30 3035 H 293.223 -0.634771 -1.94399 0
M  V30 3036 H 291.378 1.10921 -3.71181 0
M  V30 3037 H 291.792 -0.511181 -5.22003 0
M  V30 3038 H 293.266 1.19053 -5.39009 0
M  V30 3039 H 293.743 2.01013 -3.905 0
M  V30 3040 H 294.349 0.371173 -4.23677 0
M  V30 3041 N 292.664 1.56529 -0.183458 0
M  V30 3042 C 293.627 2.17324 0.728223 0
M  V30 3043 C 294.627 1.12453 1.14939 0
M  V30 3044 O 295.817 1.37902 1.06437 0
M  V30 3045 C 292.949 2.76591 1.99274 0
M  V30 3046 H 294.142 2.99241 0.198772 0
M  V30 3047 H 291.695 1.5616 0.0661391 0
M  V30 3048 H 292.43 1.98441 2.56499 0
M  V30 3049 H 292.215 3.5335 1.69959 0
M  V30 3050 H 293.705 3.23311 2.6431 0
M  V30 3051 N 294.142 -0.090211 1.57342 0
M  V30 3052 C 295.389 -0.792807 1.86335 0
M  V30 3053 C 295.717 -1.78494 0.772662 0
M  V30 3054 O 294.972 -1.94305 -0.233258 0
M  V30 3055 C 295.271 -1.55222 3.21933 0
M  V30 3056 C 294.937 -0.701765 4.45406 0
M  V30 3057 C 293.599 -0.467334 4.78925 0
M  V30 3058 C 295.951 -0.11086 5.21082 0
M  V30 3059 C 293.279 0.367785 5.85546 0
M  V30 3060 C 295.631 0.711609 6.28585 0
M  V30 3061 C 294.295 0.956086 6.60617 0
M  V30 3062 H 293.565 -0.290109 0.681849 0
M  V30 3063 H 296.212 -0.0541332 1.91423 0
M  V30 3064 H 294.517 -2.3626 3.12551 0
M  V30 3065 H 296.214 -2.10032 3.41595 0
M  V30 3066 H 292.804 -0.894598 4.1916 0
M  V30 3067 H 296.988 -0.279129 4.95514 0
M  V30 3068 H 292.244 0.566128 6.08773 0
M  V30 3069 H 296.418 1.17632 6.86393 0
M  V30 3070 H 294.045 1.60499 7.43064 0
M  V30 3071 N 295.62 -1.53406 -0.361157 0
M  V30 3072 C 296.583 -1.79479 -1.42548 0
M  V30 3073 C 297.583 -0.665327 -1.4639 0
M  V30 3074 O 298.773 -0.933549 -1.47073 0
M  V30 3075 C 295.905 -1.92087 -2.8163 0
M  V30 3076 H 297.098 -2.74538 -1.20701 0
M  V30 3077 H 294.651 -1.4455 -0.594546 0
M  V30 3078 H 295.386 -0.991099 -3.08784 0
M  V30 3079 H 295.171 -2.74241 -2.80239 0
M  V30 3080 H 296.661 -2.13836 -3.58697 0
M  V30 3081 N 297.098 0.621204 -1.44841 0
M  V30 3082 C 298.061 1.71459 -1.521 0
M  V30 3083 C 299.061 1.55696 -0.401933 0
M  V30 3084 O 300.251 1.61011 -0.664925 0
M  V30 3085 C 297.383 3.10624 -1.40447 0
M  V30 3086 H 298.576 1.66394 -2.49506 0
M  V30 3087 H 296.129 0.835745 -1.3208 0
M  V30 3088 H 296.864 3.21277 -0.441737 0
M  V30 3089 H 296.649 3.23473 -2.21602 0
M  V30 3090 H 298.139 3.90293 -1.4853 0
M  V30 3091 N 298.576 1.31904 0.862503 0
M  V30 3092 C 299.992 1.10724 1.14945 0
M  V30 3093 C 300.192 -0.117421 2.01158 0
M  V30 3094 O 299.248 -0.804595 2.39338 0
M  V30 3095 C 300.561 2.38267 1.83437 0
M  V30 3096 C 302.109 2.43949 1.96106 0
M  V30 3097 C 302.584 3.71394 2.68013 0
M  V30 3098 N 304.075 3.72331 2.75543 0
M  V30 3099 C 304.81 4.67641 3.31812 0
M  V30 3100 N 304.306 5.73313 3.88953 0
M  V30 3101 N 306.099 4.5515 3.29841 0
M  V30 3102 H 298.25 2.10436 0.288191 0
M  V30 3103 H 300.513 0.928705 0.190292 0
M  V30 3104 H 300.219 3.27759 1.27542 0
M  V30 3105 H 300.093 2.48633 2.83657 0
M  V30 3106 H 302.48 1.54922 2.51164 0
M  V30 3107 H 302.561 2.37543 0.949059 0
M  V30 3108 H 302.205 4.60791 2.13621 0
M  V30 3109 H 302.135 3.75069 3.69636 0
M  V30 3110 H 304.626 2.95947 2.34997 0
M  V30 3111 H 304.939 6.42107 4.30022 0
M  V30 3112 H 303.284 5.77077 3.87308 0
M  V30 3113 H 306.475 3.71766 2.84443 0
M  V30 3114 H 306.648 5.29604 3.73394 0
M  V30 3115 N 300.054 -1.07777 1.14986 0
M  V30 3116 C 301.47 -1.32373 0.891596 0
M  V30 3117 C 301.67 -1.9609 -0.463788 0
M  V30 3118 O 300.726 -2.21801 -1.20667 0
M  V30 3119 C 302.039 -2.21905 2.02925 0
M  V30 3120 C 303.587 -2.35367 2.06329 0
M  V30 3121 C 304.062 -3.28245 3.19405 0
M  V30 3122 N 305.553 -3.35824 3.19024 0
M  V30 3123 C 306.288 -4.07739 4.03158 0
M  V30 3124 N 305.784 -4.82306 4.97346 0
M  V30 3125 N 307.577 -4.03635 3.91197 0
M  V30 3126 H 299.728 -0.648039 2.02273 0
M  V30 3127 H 301.991 -0.348149 0.881757 0
M  V30 3128 H 301.697 -1.82342 3.0074 0
M  V30 3129 H 301.571 -3.22407 1.95789 0
M  V30 3130 H 303.958 -2.74186 1.09116 0
M  V30 3131 H 304.039 -1.34585 2.17533 0
M  V30 3132 H 303.683 -2.90146 4.16867 0
M  V30 3133 H 303.613 -4.28971 3.05437 0
M  V30 3134 H 306.104 -2.8267 2.50811 0
M  V30 3135 H 306.417 -5.34661 5.57994 0
M  V30 3136 H 304.762 -4.81337 5.01338 0
M  V30 3137 H 307.953 -3.44491 3.16928 0
M  V30 3138 H 308.126 -4.59417 4.5699 0
M  V30 3139 N 301.532 -0.945985 -1.26051 0
M  V30 3140 C 302.495 -0.463897 -2.24456 0
M  V30 3141 C 303.495 0.427655 -1.55009 0
M  V30 3142 O 304.685 0.226157 -1.72726 0
M  V30 3143 C 301.817 0.330812 -3.39291 0
M  V30 3144 H 303.01 -1.33357 -2.68619 0
M  V30 3145 H 300.563 -0.728416 -1.38289 0
M  V30 3146 H 301.298 1.21852 -3.00537 0
M  V30 3147 H 301.083 -0.308679 -3.90883 0
M  V30 3148 H 302.573 0.657865 -4.12386 0
M  V30 3149 N 303.011 1.40521 -0.713556 0
M  V30 3150 C 303.921 2.34522 -0.0606667 0
M  V30 3151 C 304.937 1.57193 0.74607 0
M  V30 3152 O 306.113 1.89591 0.679493 0
M  V30 3153 C 303.178 3.36081 0.851491 0
M  V30 3154 C 302.239 4.29286 0.0349339 0
M  V30 3155 C 301.472 5.25994 0.903649 0
M  V30 3156 O 301.695 5.28616 2.14292 0
M  V30 3157 O 300.629 6.00918 0.343723 0
M  V30 3158 H 304.455 2.91968 -0.835972 0
M  V30 3159 H 302.04 1.41681 -0.47402 0
M  V30 3160 H 303.922 3.98369 1.37404 0
M  V30 3161 H 302.597 2.81052 1.60598 0
M  V30 3162 H 301.504 3.70289 -0.532633 0
M  V30 3163 H 302.837 4.87462 -0.681287 0
M  V30 3164 N 304.489 0.459591 1.5075 0
M  V30 3165 C 305.905 0.113092 1.59199 0
M  V30 3166 C 306.105 -1.37951 1.46874 0
M  V30 3167 O 305.161 -2.15168 1.32132 0
M  V30 3168 C 306.474 0.653043 2.93523 0
M  V30 3169 C 308.022 0.615449 3.0689 0
M  V30 3170 C 308.497 1.13275 4.43771 0
M  V30 3171 N 309.988 1.09167 4.50152 0
M  V30 3172 C 310.723 1.46256 5.54434 0
M  V30 3173 N 310.219 1.90739 6.66026 0
M  V30 3174 N 312.012 1.37932 5.44914 0
M  V30 3175 H 304.163 1.43049 1.57005 0
M  V30 3176 H 306.426 0.590861 0.741341 0
M  V30 3177 H 306.132 1.69822 3.07983 0
M  V30 3178 H 306.006 0.0902132 3.77092 0
M  V30 3179 H 308.393 -0.420793 2.92084 0
M  V30 3180 H 308.474 1.21495 2.25106 0
M  V30 3181 H 308.118 2.16757 4.59324 0
M  V30 3182 H 308.048 0.509576 5.24129 0
M  V30 3183 H 310.539 0.76528 3.7007 0
M  V30 3184 H 310.852 2.17218 7.41644 0
M  V30 3185 H 309.197 1.94683 6.67176 0
M  V30 3186 H 312.388 1.0303 4.56621 0
M  V30 3187 H 312.561 1.67164 6.26067 0
M  V30 3188 O 306.006 -1.58029 0.333053 0
M  V30 3189 H 306.697 -1.92392 -0.224736 0
M  V30 END ATOM
M  V30 BEGIN BOND
M  V30 END BOND
M  V30 END CTAB
M  END
$$$$
