drugbank_target|O33407 Esterase EstA (DB04233)
 OpenBabel12092120443D

  0  0  0     0  0            999 V3000
M  V30 BEGIN CTAB
M  V30 COUNTS 9589 9703 0 0 0
M  V30 BEGIN ATOM
M  V30 1 H -0.908 1.98254 -0.117106 0
M  V30 2 N 0 1.576 0 0
M  V30 3 C 0.933 2.03868 1.02534 0
M  V30 4 C 1.911 0.928543 1.3348 0
M  V30 5 O 3.095 1.19667 1.45644 0
M  V30 6 C 0.222 2.43627 2.35294 0
M  V30 7 C -0.732 3.65373 2.2001 0
M  V30 8 S 0.101 5.13292 1.52614 0
M  V30 9 C 1.257 5.56322 2.86805 0
M  V30 10 H 1.49 2.90518 0.631377 0
M  V30 11 H -0.977 1.52953 0.210867 0
M  V30 12 H 0.981 2.67203 3.11629 0
M  V30 13 H -0.358 1.57376 2.7183 0
M  V30 14 H -1.165 3.90944 3.18086 0
M  V30 15 H -1.563 3.418 1.51819 0
M  V30 16 H 0.729 5.58782 3.83104 0
M  V30 17 H 1.672 6.56266 2.65933 0
M  V30 18 H 2.08 4.83886 2.90714 0
M  V30 19 N 1.4781 -0.272755 1.55222 0
M  V30 20 C 2.7271 -1.00211 1.75045 0
M  V30 21 C 3.0401 -1.87441 0.559046 0
M  V30 22 O 4.2461 -2.63856 0.639698 0
M  V30 23 C 2.7021 -1.83165 3.09804 0
M  V30 24 C 2.3101 -1.008 4.36513 0
M  V30 25 C 4.0541 -2.55529 3.38977 0
M  V30 26 C 1.9611 -1.83194 5.62311 0
M  V30 27 H 0.8911 -0.377878 0.652476 0
M  V30 28 H 3.5421 -0.257776 1.8168 0
M  V30 29 H 1.9241 -2.61694 2.97207 0
M  V30 30 H 3.0981 -0.266855 4.60027 0
M  V30 31 H 1.4131 -0.398897 4.14485 0
M  V30 32 H 4.0101 -3.17578 4.30172 0
M  V30 33 H 4.3531 -3.25825 2.59121 0
M  V30 34 H 4.8861 -1.84029 3.52673 0
M  V30 35 H 1.6251 -1.17318 6.44916 0
M  V30 36 H 1.1451 -2.54905 5.4294 0
M  V30 37 H 2.8241 -2.40552 6.00619 0
M  V30 38 N 2.9562 -1.48159 -0.537278 0
M  V30 39 C 4.3722 -1.34118 -0.865129 0
M  V30 40 C 4.5722 -0.346678 -1.98495 0
M  V30 41 O 3.6282 0.234715 -2.51407 0
M  V30 42 C 4.9412 -2.73963 -1.23954 0
M  V30 43 C 6.4892 -2.82397 -1.34984 0
M  V30 44 C 6.9642 -4.22928 -1.75772 0
M  V30 45 N 8.4552 -4.25566 -1.82887 0
M  V30 46 C 9.1902 -5.31235 -2.15817 0
M  V30 47 N 8.6862 -6.47189 -2.47222 0
M  V30 48 N 10.4792 -5.18624 -2.16761 0
M  V30 49 H 2.6302 -2.1144 0.201715 0
M  V30 50 H 4.8932 -0.947598 0.0275949 0
M  V30 51 H 4.5992 -3.48264 -0.490381 0
M  V30 52 H 4.4732 -3.0702 -2.19132 0
M  V30 53 H 6.8602 -2.08356 -2.08978 0
M  V30 54 H 6.9412 -2.5297 -0.379448 0
M  V30 55 H 6.5852 -4.97482 -1.02341 0
M  V30 56 H 6.5152 -4.49794 -2.73848 0
M  V30 57 H 9.0062 -3.41924 -1.60924 0
M  V30 58 H 9.3192 -7.23564 -2.71433 0
M  V30 59 H 7.6642 -6.50476 -2.44757 0
M  V30 60 H 10.8552 -4.27056 -1.91679 0
M  V30 61 H 11.0282 -6.01078 -2.42093 0
M  V30 62 N 4.4343 0.785586 -1.36625 0
M  V30 63 C 5.3673 1.90509 -1.25625 0
M  V30 64 C 6.3453 1.62 -0.139607 0
M  V30 65 O 7.5293 1.8591 -0.31141 0
M  V30 66 C 4.6563 3.25419 -0.939158 0
M  V30 67 C 3.7023 3.72856 -2.07077 0
M  V30 68 S 4.5353 3.88162 -3.68904 0
M  V30 69 C 5.6913 5.25942 -3.39317 0
M  V30 70 H 5.9243 1.99549 -2.20381 0
M  V30 71 H 3.4573 0.945226 -1.22085 0
M  V30 72 H 5.4153 4.03346 -0.763029 0
M  V30 73 H 4.0763 3.14099 -0.00931402 0
M  V30 74 H 3.2693 4.70624 -1.80357 0
M  V30 75 H 2.8713 3.01989 -2.20632 0
M  V30 76 H 5.1633 6.10651 -2.93447 0
M  V30 77 H 6.1063 5.57668 -4.36363 0
M  V30 78 H 6.5143 4.93224 -2.74573 0
M  V30 79 N 5.9124 1.20967 1.01018 0
M  V30 80 C 6.8754 0.965918 2.07853 0
M  V30 81 C 7.8754 -0.0610545 1.60684 0
M  V30 82 O 9.0654 0.175681 1.73312 0
M  V30 83 C 6.1974 0.455513 3.37843 0
M  V30 84 H 7.3904 1.91365 2.3091 0
M  V30 85 H 4.9434 1.02594 1.17916 0
M  V30 86 H 5.6784 -0.497381 3.20463 0
M  V30 87 H 5.4634 1.19622 3.73407 0
M  V30 88 H 6.9534 0.304667 4.16487 0
M  V30 89 N 7.3905 -1.2043 1.01659 0
M  V30 90 C 8.3205 -2.25466 0.607226 0
M  V30 91 C 9.3015 -1.65853 -0.377716 0
M  V30 92 O 10.4865 -1.92409 -0.263149 0
M  V30 93 C 7.6165 -3.47256 -0.0552949 0
M  V30 94 C 6.5705 -4.19462 0.850632 0
M  V30 95 C 5.8965 -5.34673 0.0538859 0
M  V30 96 C 7.1965 -4.75603 2.15868 0
M  V30 97 H 8.8905 -2.59962 1.48526 0
M  V30 98 H 6.4365 -1.2496 0.715605 0
M  V30 99 H 8.3895 -4.19917 -0.353233 0
M  V30 100 H 7.1135 -3.11924 -0.968045 0
M  V30 101 H 5.7725 -3.48667 1.13257 0
M  V30 102 H 5.4205 -4.95585 -0.860514 0
M  V30 103 H 5.1205 -5.83913 0.657192 0
M  V30 104 H 6.6445 -6.10138 -0.237598 0
M  V30 105 H 8.0585 -5.40083 1.92311 0
M  V30 106 H 6.4555 -5.3528 2.71284 0
M  V30 107 H 7.5255 -3.94346 2.82169 0
M  V30 108 N 8.8686 -0.792821 -1.36206 0
M  V30 109 C 9.8156 -0.191653 -2.30003 0
M  V30 110 C 10.7856 0.666453 -1.52143 0
M  V30 111 O 11.9706 0.61442 -1.80636 0
M  V30 112 C 9.1106 0.664848 -3.38635 0
M  V30 113 C 8.2236 -0.212175 -4.31479 0
M  V30 114 C 7.3586 0.651022 -5.27196 0
M  V30 115 C 6.3976 -0.227247 -6.11678 0
M  V30 116 N 5.5346 0.595127 -6.99573 0
M  V30 117 H 10.3746 -0.996978 -2.80828 0
M  V30 118 H 7.9116 -0.503206 -1.38225 0
M  V30 119 H 9.8696 1.17645 -4.00269 0
M  V30 120 H 8.4996 1.43557 -2.89122 0
M  V30 121 H 7.5516 -0.841777 -3.70969 0
M  V30 122 H 8.8636 -0.888751 -4.90818 0
M  V30 123 H 8.0176 1.2283 -5.94136 0
M  V30 124 H 6.7566 1.36121 -4.68319 0
M  V30 125 H 5.7616 -0.816904 -5.43697 0
M  V30 126 H 6.9866 -0.93509 -6.72631 0
M  V30 127 H 4.9326 1.28955 -6.432 0
M  V30 128 H 4.8496 -0.0236952 -7.55996 0
M  V30 129 H 6.1176 1.15613 -7.70879 0
M  V30 130 N 10.3467 1.47872 -0.545128 0
M  V30 131 C 11.7577 1.86384 -0.108581 0
M  V30 132 C 12.1087 1.45309 1.31832 0
M  V30 133 O 11.2337 0.850641 1.9898 0
M  V30 134 C 11.8287 3.38265 -0.190274 0
M  V30 135 C 10.3877 3.75914 0.191164 0
M  V30 136 C 9.5347 2.71926 -0.543273 0
M  V30 137 H 12.4857 1.39561 -0.755537 0
M  V30 138 H 12.5067 3.75831 0.594217 0
M  V30 139 H 12.0187 3.6813 -1.2289 0
M  V30 140 H 10.1197 3.51665 1.23136 0
M  V30 141 H 10.2327 4.78836 -0.158987 0
M  V30 142 H 8.5967 2.54697 0.0122495 0
M  V30 143 H 9.3797 3.04634 -1.58282 0
M  V30 144 N 11.8248 0.280983 1.55075 0
M  V30 145 C 12.7548 -0.597469 2.25727 0
M  V30 146 C 13.7358 -1.15417 1.24952 0
M  V30 147 O 14.9208 -1.18722 1.53684 0
M  V30 148 C 12.0508 -1.7789 2.98283 0
M  V30 149 C 11.0048 -1.35347 4.06036 0
M  V30 150 C 10.3308 -2.61846 4.66198 0
M  V30 151 C 11.6308 -0.499354 5.19907 0
M  V30 152 H 13.3248 -0.00824265 2.99399 0
M  V30 153 H 10.8708 -0.0025244 1.44 0
M  V30 154 H 12.8238 -2.39937 3.46422 0
M  V30 155 H 11.5478 -2.39405 2.22155 0
M  V30 156 H 10.2068 -0.756156 3.58717 0
M  V30 157 H 9.8548 -3.21632 3.86732 0
M  V30 158 H 9.5548 -2.3409 5.38958 0
M  V30 159 H 11.0788 -3.24732 5.1709 0
M  V30 160 H 12.4928 -1.02498 5.64063 0
M  V30 161 H 10.8898 -0.316424 5.99265 0
M  V30 162 H 11.9598 0.480459 4.82514 0
M  V30 163 N 13.3029 -1.57598 0.00835791 0
M  V30 164 C 14.5489 -1.91211 -0.675732 0
M  V30 165 C 14.8819 -0.883139 -1.72958 0
M  V30 166 O 14.1569 0.097016 -1.94258 0
M  V30 167 C 14.4399 -3.35379 -1.31123 0
M  V30 168 C 14.2929 -4.48999 -0.268356 0
M  V30 169 C 15.6119 -3.7912 -2.23508 0
M  V30 170 H 12.7309 -0.695374 -0.244179 0
M  V30 171 H 15.3729 -1.89901 0.0613655 0
M  V30 172 H 13.5229 -3.36626 -1.93946 0
M  V30 173 H 15.1949 -4.59887 0.360844 0
M  V30 174 H 13.4379 -4.31873 0.408482 0
M  V30 175 H 14.1089 -5.46851 -0.752218 0
M  V30 176 H 16.5849 -3.79477 -1.70693 0
M  V30 177 H 15.4609 -4.80729 -2.64936 0
M  V30 178 H 15.7219 -3.13455 -3.11766 0
M  V30 179 N 14.781 0.264519 -1.55364 0
M  V30 180 C 15.744 1.31046 -1.88042 0
M  V30 181 C 16.744 1.41943 -0.755569 0
M  V30 182 O 17.934 1.40947 -1.02369 0
M  V30 183 C 15.066 2.69067 -2.09323 0
M  V30 184 H 16.259 1.03297 -2.81549 0
M  V30 185 H 13.812 0.502989 -1.47986 0
M  V30 186 H 14.547 3.01982 -1.18226 0
M  V30 187 H 14.332 2.62542 -2.91229 0
M  V30 188 H 15.822 3.44623 -2.35848 0
M  V30 189 N 16.2591 1.48442 0.529413 0
M  V30 190 C 17.2221 1.62524 1.61612 0
M  V30 191 C 18.2221 0.498509 1.52877 0
M  V30 192 O 19.4121 0.76431 1.56537 0
M  V30 193 C 16.5441 1.59597 3.01233 0
M  V30 194 H 17.7371 2.59423 1.50465 0
M  V30 195 H 15.2901 1.37047 0.751514 0
M  V30 196 H 16.0251 0.641781 3.17886 0
M  V30 197 H 15.8101 2.41397 3.08982 0
M  V30 198 H 17.3001 1.72646 3.80241 0
M  V30 199 N 17.7372 -0.778329 1.37039 0
M  V30 200 C 18.9772 -1.54973 1.33276 0
M  V30 201 C 19.3412 -1.91816 -0.0839376 0
M  V30 202 O 20.5422 -2.6767 -0.246228 0
M  V30 203 C 18.8132 -2.78517 2.23971 0
M  V30 204 S 20.3722 -3.6865 2.37997 0
M  V30 205 H 17.1902 -0.530639 0.473226 0
M  V30 206 H 19.7922 -0.915806 1.72723 0
M  V30 207 H 18.4962 -2.4952 3.25835 0
M  V30 208 H 18.0272 -3.46875 1.85584 0
M  V30 209 H 20.0422 -4.70182 1.58567 0
M  V30 210 N 19.2153 -1.21501 -1.00376 0
M  V30 211 C 20.1453 -0.999478 -2.11028 0
M  V30 212 C 21.1263 0.0759671 -1.6993 0
M  V30 213 O 22.3113 -0.0841106 -1.94018 0
M  V30 214 C 19.4413 -0.564709 -3.42678 0
M  V30 215 C 18.3953 -1.58486 -3.97576 0
M  V30 216 C 17.7213 -1.00628 -5.25146 0
M  V30 217 C 19.0213 -2.97204 -4.29496 0
M  V30 218 H 20.7153 -1.92495 -2.29317 0
M  V30 219 H 18.2613 -0.92693 -1.102 0
M  V30 220 H 20.2143 -0.401091 -4.19487 0
M  V30 221 H 18.9383 0.396411 -3.24185 0
M  V30 222 H 17.5973 -1.73606 -3.22888 0
M  V30 223 H 17.2453 -0.0368439 -5.02987 0
M  V30 224 H 16.9453 -1.68771 -5.62841 0
M  V30 225 H 18.4693 -0.854015 -6.04598 0
M  V30 226 H 19.8833 -2.8552 -4.97143 0
M  V30 227 H 18.2803 -3.62372 -4.78338 0
M  V30 228 H 19.3503 -3.47956 -3.3772 0
M  V30 229 N 20.6934 1.19889 -1.02296 0
M  V30 230 C 21.6234 2.25141 -0.619174 0
M  V30 231 C 22.6044 1.66051 0.368915 0
M  V30 232 O 23.7894 1.92546 0.252941 0
M  V30 233 C 20.9194 3.4728 0.0368783 0
M  V30 234 C 19.8734 4.19005 -0.872865 0
M  V30 235 C 19.1994 5.34637 -0.0822402 0
M  V30 236 C 20.4994 4.74452 -2.18387 0
M  V30 237 H 22.1934 2.59171 -1.49903 0
M  V30 238 H 19.7394 1.24579 -0.722222 0
M  V30 239 H 21.6924 4.20098 0.330958 0
M  V30 240 H 20.4164 3.12433 0.95149 0
M  V30 241 H 19.0754 3.48061 -1.15105 0
M  V30 242 H 18.7234 4.96034 0.83422 0
M  V30 243 H 18.4234 5.83557 -0.688149 0
M  V30 244 H 19.9474 6.10255 0.205238 0
M  V30 245 H 21.3614 5.39055 -1.95172 0
M  V30 246 H 19.7584 5.33834 -2.74119 0
M  V30 247 H 20.8284 3.92844 -2.84257 0
M  V30 248 N 22.1715 0.800033 1.35784 0
M  V30 249 C 23.1345 0.211565 2.28221 0
M  V30 250 C 24.1345 -0.59728 1.49296 0
M  V30 251 O 25.3245 -0.416721 1.69142 0
M  V30 252 C 22.4565 -0.705846 3.33513 0
M  V30 253 H 23.6495 1.02677 2.81776 0
M  V30 254 H 21.2025 0.570211 1.45528 0
M  V30 255 H 21.9375 -1.54498 2.85133 0
M  V30 256 H 21.7225 -0.127655 3.91892 0
M  V30 257 H 23.2125 -1.11211 4.02519 0
M  V30 258 N 23.6496 -1.47581 0.552962 0
M  V30 259 C 24.8746 -2.07378 0.0300593 0
M  V30 260 C 25.2996 -1.40355 -1.25229 0
M  V30 261 O 24.6576 -0.477099 -1.7491 0
M  V30 262 C 24.7056 -3.60274 -0.153231 0
M  V30 263 O 23.8096 -3.94041 -1.21678 0
M  V30 264 H 23.1506 -0.662158 0.0494182 0
M  V30 265 H 25.6806 -1.89662 0.767434 0
M  V30 266 H 25.6906 -4.0633 -0.368761 0
M  V30 267 H 24.3656 -4.08455 0.783397 0
M  V30 268 H 22.9426 -3.59735 -0.982079 0
M  V30 269 N 25.1277 -0.289203 -1.54924 0
M  V30 270 C 26.0577 0.58549 -2.2604 0
M  V30 271 C 27.0387 1.14753 -1.25562 0
M  V30 272 O 28.2237 1.17906 -1.54311 0
M  V30 273 C 25.3537 1.76305 -2.99222 0
M  V30 274 C 24.3077 1.33191 -4.06748 0
M  V30 275 C 23.6337 2.5937 -4.6758 0
M  V30 276 C 24.9337 0.471775 -5.20165 0
M  V30 277 H 26.6277 -0.00763532 -2.99399 0
M  V30 278 H 24.1737 -0.00511229 -1.43999 0
M  V30 279 H 26.1267 2.38097 -3.47689 0
M  V30 280 H 24.8507 2.38223 -2.23422 0
M  V30 281 H 23.5097 0.737121 -3.59113 0
M  V30 282 H 23.1577 3.19576 -3.88433 0
M  V30 283 H 22.8577 2.31228 -5.40192 0
M  V30 284 H 24.3817 3.21985 -5.18804 0
M  V30 285 H 25.7957 0.995056 -5.64599 0
M  V30 286 H 24.1927 0.284639 -5.99425 0
M  V30 287 H 25.2627 -0.506041 -4.82252 0
M  V30 288 N 26.6058 1.57591 -0.0167156 0
M  V30 289 C 27.8308 1.9598 0.67872 0
M  V30 290 C 28.2558 0.892546 1.65575 0
M  V30 291 O 27.6138 -0.147772 1.80697 0
M  V30 292 C 27.6618 3.33468 1.37227 0
M  V30 293 O 26.7658 3.28954 2.48722 0
M  V30 294 H 26.1068 0.639339 0.17928 0
M  V30 295 H 28.6368 2.04463 -0.0748802 0
M  V30 296 H 28.6468 3.69417 1.7319 0
M  V30 297 H 27.3218 4.10694 0.656007 0
M  V30 298 H 25.8988 3.04705 2.14963 0
M  V30 299 N 28.0839 -0.256276 1.55502 0
M  V30 300 C 29.3119 -1.00342 1.8094 0
M  V30 301 C 29.7269 -1.79307 0.59114 0
M  V30 302 O 29.0839 -1.77114 -0.440081 0
M  V30 303 C 29.1349 -1.94875 3.04476 0
M  V30 304 O 28.8559 -1.19107 4.21598 0
M  V30 305 C 30.3569 -2.81266 3.42644 0
M  V30 306 H 27.5769 -0.295685 0.602338 0
M  V30 307 H 30.1209 -0.281998 2.02546 0
M  V30 308 H 28.2759 -2.62457 2.84947 0
M  V30 309 H 28.6899 -1.82969 4.91551 0
M  V30 310 H 30.1639 -3.43362 4.32211 0
M  V30 311 H 30.6409 -3.51897 2.62802 0
M  V30 312 H 31.2469 -2.1915 3.64491 0
M  V30 313 N 29.562 -1.4872 -0.521534 0
M  V30 314 C 30.525 -1.63379 -1.60748 0
M  V30 315 C 31.525 -0.50661 -1.52611 0
M  V30 316 O 32.715 -0.772601 -1.5613 0
M  V30 317 C 29.847 -1.61192 -3.00383 0
M  V30 318 H 31.04 -2.60217 -1.49087 0
M  V30 319 H 28.593 -1.37444 -0.744235 0
M  V30 320 H 29.328 -0.65863 -3.17541 0
M  V30 321 H 29.113 -2.43032 -3.07698 0
M  V30 322 H 30.603 -1.7466 -3.7932 0
M  V30 323 N 31.0401 0.771051 -1.3745 0
M  V30 324 C 32.4511 1.34737 -1.29239 0
M  V30 325 C 32.8021 1.96109 0.0596908 0
M  V30 326 O 31.9271 1.93865 0.961534 0
M  V30 327 C 32.5221 2.44973 -2.34037 0
M  V30 328 C 31.0811 2.98372 -2.29458 0
M  V30 329 C 30.2281 1.71595 -2.17831 0
M  V30 330 H 33.1791 0.571256 -1.48062 0
M  V30 331 H 33.2001 3.24471 -1.98744 0
M  V30 332 H 32.7121 2.00276 -3.32432 0
M  V30 333 H 30.8131 3.47443 -1.34589 0
M  V30 334 H 30.9261 3.53939 -3.229 0
M  V30 335 H 29.2901 1.94547 -1.64388 0
M  V30 336 H 30.0731 1.29001 -3.18141 0
M  V30 337 N 32.5182 1.22032 0.997298 0
M  V30 338 C 33.4502 0.944263 2.08845 0
M  V30 339 C 34.4632 -0.0754663 1.62625 0
M  V30 340 O 35.6522 0.157994 1.77799 0
M  V30 341 C 32.7522 0.397723 3.36558 0
M  V30 342 C 31.9252 1.47362 4.11829 0
M  V30 343 C 30.9842 0.934951 5.17827 0
M  V30 344 O 30.0102 1.62016 5.45655 0
M  V30 345 N 31.2122 -0.245895 5.79979 0
M  V30 346 H 33.9772 1.88363 2.33109 0
M  V30 347 H 31.5382 1.12661 1.16272 0
M  V30 348 H 33.5302 0.0227771 4.04694 0
M  V30 349 H 32.1002 -0.446646 3.09393 0
M  V30 350 H 31.3202 2.02208 3.38386 0
M  V30 351 H 32.6082 2.19764 4.58891 0
M  V30 352 H 32.0062 -0.819475 5.59733 0
M  V30 353 H 30.5632 -0.562272 6.4937 0
M  V30 354 N 33.9963 -1.19345 1.0293 0
M  V30 355 C 34.9593 -2.20793 0.615069 0
M  V30 356 C 35.9593 -1.57553 -0.321533 0
M  V30 357 O 37.1493 -1.73862 -0.108483 0
M  V30 358 C 34.2813 -3.40754 -0.0999222 0
M  V30 359 H 35.4743 -2.58955 1.51269 0
M  V30 360 H 33.0273 -1.3303 0.820534 0
M  V30 361 H 33.7623 -3.0811 -1.01187 0
M  V30 362 H 33.5473 -3.87889 0.57309 0
M  V30 363 H 35.0373 -4.15898 -0.376645 0
M  V30 364 N 35.4744 -0.807222 -1.35358 0
M  V30 365 C 36.4374 -0.223665 -2.28106 0
M  V30 366 C 37.4374 0.589354 -1.4961 0
M  V30 367 O 38.6274 0.407745 -1.69361 0
M  V30 368 C 35.7594 0.688149 -3.33882 0
M  V30 369 H 36.9524 -1.04169 -2.81227 0
M  V30 370 H 34.5054 -0.577921 -1.45223 0
M  V30 371 H 35.2404 1.52984 -2.85948 0
M  V30 372 H 35.0254 0.10687 -3.91954 0
M  V30 373 H 36.5154 1.09075 -4.03104 0
M  V30 374 N 36.9525 1.47285 -0.560781 0
M  V30 375 C 38.3635 1.86258 -0.128343 0
M  V30 376 C 38.7145 1.46699 1.30284 0
M  V30 377 O 37.8395 0.871698 1.98067 0
M  V30 378 C 38.4345 3.38044 -0.22614 0
M  V30 379 C 36.9935 3.76096 0.151283 0
M  V30 380 C 36.1405 2.71335 -0.572084 0
M  V30 381 H 39.0915 1.38752 -0.770297 0
M  V30 382 H 39.1125 3.76441 0.554322 0
M  V30 383 H 38.6245 3.66806 -1.26788 0
M  V30 384 H 36.7255 3.52951 1.19399 0
M  V30 385 H 36.8385 4.78641 -0.209765 0
M  V30 386 H 35.2025 2.54696 -0.0147653 0
M  V30 387 H 35.9855 3.02938 -1.61504 0
M  V30 388 N 38.4306 0.297415 1.54768 0
M  V30 389 C 39.6556 -0.318435 2.04941 0
M  V30 390 C 40.0806 -1.4701 1.17345 0
M  V30 391 O 39.4386 -1.80436 0.176758 0
M  V30 392 C 39.4866 -0.755749 3.52592 0
M  V30 393 O 38.5906 -1.86088 3.68028 0
M  V30 394 H 37.9316 -0.062421 0.661059 0
M  V30 395 H 40.4616 0.438215 1.99852 0
M  V30 396 H 40.4716 -1.04552 3.94376 0
M  V30 397 H 39.1466 0.0867233 4.1581 0
M  V30 398 H 37.7236 -1.57193 3.38149 0
M  V30 399 N 39.9087 -1.5758 0.0250728 0
M  V30 400 C 41.3197 -1.79476 -0.514323 0
M  V30 401 C 41.6707 -0.934956 -1.72491 0
M  V30 402 O 40.7957 -0.144245 -2.15919 0
M  V30 403 C 41.3907 -3.25503 -0.939842 0
M  V30 404 C 39.9497 -3.48408 -1.42438 0
M  V30 405 C 39.0967 -2.74583 -0.387201 0
M  V30 406 H 42.0477 -1.567 0.25113 0
M  V30 407 H 42.0687 -3.34992 -1.80445 0
M  V30 408 H 41.5807 -3.88056 -0.0585628 0
M  V30 409 H 39.6817 -2.91103 -2.32572 0
M  V30 410 H 39.7947 -4.57119 -1.43455 0
M  V30 411 H 38.1587 -2.39942 -0.854409 0
M  V30 412 H 38.9417 -3.39849 0.485543 0
M  V30 413 N 41.3868 0.248026 -1.55636 0
M  V30 414 C 42.6168 0.992367 -1.81206 0
M  V30 415 C 43.0248 1.7949 -0.598324 0
M  V30 416 O 42.3678 1.78292 0.442434 0
M  V30 417 C 42.4298 1.97926 -3.00109 0
M  V30 418 C 42.0938 1.36377 -4.36177 0
M  V30 419 C 43.0908 0.76682 -5.14214 0
M  V30 420 C 40.7758 1.38347 -4.82872 0
M  V30 421 C 42.7698 0.197778 -6.37093 0
M  V30 422 C 40.4568 0.810574 -6.057 0
M  V30 423 C 41.4548 0.218754 -6.8265 0
M  V30 424 O 41.1428 -0.345298 -8.03158 0
M  V30 425 H 40.8748 0.297704 -0.606917 0
M  V30 426 H 43.4288 0.276517 -2.0353 0
M  V30 427 H 41.6588 2.73339 -2.73538 0
M  V30 428 H 43.3478 2.58694 -3.12781 0
M  V30 429 H 44.1138 0.744114 -4.79258 0
M  V30 430 H 39.9928 1.8335 -4.2297 0
M  V30 431 H 43.5368 -0.264788 -6.97097 0
M  V30 432 H 39.4338 0.830604 -6.40134 0
M  V30 433 H 40.2018 -0.237055 -8.18157 0
M  V30 434 N 42.8649 1.48995 0.513639 0
M  V30 435 C 44.0899 1.61792 1.29762 0
M  V30 436 C 44.5149 0.284475 1.85936 0
M  V30 437 O 43.8729 -0.746185 1.65232 0
M  V30 438 C 43.9209 2.67993 2.41272 0
M  V30 439 O 43.0249 2.26287 3.44772 0
M  V30 440 H 42.3659 0.541963 0.38363 0
M  V30 441 H 44.8959 1.95097 0.616307 0
M  V30 442 H 44.9059 2.89772 2.87221 0
M  V30 443 H 43.5809 3.64791 1.9975 0
M  V30 444 H 42.1579 2.14788 3.04829 0
M  V30 445 N 44.343 -0.763751 1.37857 0
M  V30 446 C 45.571 -1.55293 1.36718 0
M  V30 447 C 45.986 -1.88745 -0.0455434 0
M  V30 448 O 45.343 -1.52039 -1.00947 0
M  V30 449 C 45.394 -2.85831 2.2132 0
M  V30 450 O 45.115 -2.5381 3.57089 0
M  V30 451 C 46.616 -3.80023 2.28249 0
M  V30 452 H 43.836 -0.480841 0.468009 0
M  V30 453 H 46.38 -0.946009 1.81303 0
M  V30 454 H 44.535 -3.42926 1.80223 0
M  V30 455 H 44.949 -3.37459 4.01524 0
M  V30 456 H 46.423 -4.68599 2.91752 0
M  V30 457 H 46.9 -4.1973 1.2932 0
M  V30 458 H 47.506 -3.28855 2.69693 0
M  V30 459 N 45.8211 -1.22559 -0.990812 0
M  V30 460 C 46.7511 -1.0218 -2.09956 0
M  V30 461 C 47.7321 0.0579394 -1.70001 0
M  V30 462 O 48.9171 -0.104684 -1.93918 0
M  V30 463 C 46.0471 -0.601023 -3.4206 0
M  V30 464 C 45.0011 -1.62694 -3.95872 0
M  V30 465 C 44.3271 -1.06193 -5.24049 0
M  V30 466 C 45.6271 -3.01743 -4.2632 0
M  V30 467 H 47.3211 -1.94916 -2.27262 0
M  V30 468 H 44.8671 -0.938566 -1.09211 0
M  V30 469 H 46.8201 -0.445561 -4.19038 0
M  V30 470 H 45.5441 0.362005 -3.24588 0
M  V30 471 H 44.2031 -1.77021 -3.21028 0
M  V30 472 H 43.8511 -0.0901903 -5.02919 0
M  V30 473 H 43.5511 -1.74732 -5.61019 0
M  V30 474 H 45.0751 -0.918092 -6.03658 0
M  V30 475 H 46.4891 -2.90777 -4.94087 0
M  V30 476 H 44.8861 -3.67425 -4.74467 0
M  V30 477 H 45.9561 -3.51518 -3.34011 0
M  V30 478 N 47.2992 1.18797 -1.03562 0
M  V30 479 C 48.5452 1.8893 -0.737113 0
M  V30 480 C 48.8782 1.79837 0.732956 0
M  V30 481 O 48.1532 1.19525 1.5344 0
M  V30 482 C 48.4362 3.39607 -1.19745 0
M  V30 483 C 48.2892 3.57537 -2.72924 0
M  V30 484 C 49.6082 4.33069 -0.783526 0
M  V30 485 H 46.7272 0.686057 -0.269249 0
M  V30 486 H 49.3692 1.39797 -1.28673 0
M  V30 487 H 47.5192 3.81583 -0.729855 0
M  V30 488 H 49.1912 3.24688 -3.27682 0
M  V30 489 H 47.4342 3.00363 -3.12993 0
M  V30 490 H 48.1052 4.63238 -3.00191 0
M  V30 491 H 50.5812 3.98846 -1.18581 0
M  V30 492 H 49.4572 5.3707 -1.13343 0
M  V30 493 H 49.7182 4.40986 0.313681 0
M  V30 494 N 48.7773 0.814389 1.34928 0
M  V30 495 C 50.0233 0.399013 1.98836 0
M  V30 496 C 50.3563 -1.03314 1.64438 0
M  V30 497 O 49.6313 -1.71811 0.911659 0
M  V30 498 C 49.9143 0.591629 3.55207 0
M  V30 499 C 49.7673 2.06928 3.99376 0
M  V30 500 C 51.0863 0.022199 4.40094 0
M  V30 501 H 48.2053 0.146451 0.722303 0
M  V30 502 H 50.8473 1.02537 1.59957 0
M  V30 503 H 48.9973 0.0584441 3.88456 0
M  V30 504 H 50.6693 2.66544 3.76499 0
M  V30 505 H 48.9123 2.56287 3.49999 0
M  V30 506 H 49.5833 2.1549 5.08201 0
M  V30 507 H 52.0593 0.477643 4.13349 0
M  V30 508 H 50.9353 0.186832 5.48582 0
M  V30 509 H 51.1963 -1.07215 4.28902 0
M  V30 510 N 50.2554 -1.46986 0.568584 0
M  V30 511 C 51.5024 -2.02441 0.0487986 0
M  V30 512 C 51.8304 -1.44169 -1.30559 0
M  V30 513 O 51.0854 -0.591213 -1.86556 0
M  V30 514 C 51.3844 -3.57306 -0.081836 0
M  V30 515 C 51.0504 -4.34552 1.20313 0
M  V30 516 C 49.7124 -4.55376 1.5552 0
M  V30 517 C 52.0644 -4.79016 2.05411 0
M  V30 518 C 49.3924 -5.17913 2.7565 0
M  V30 519 C 51.7444 -5.42879 3.24754 0
M  V30 520 C 50.4084 -5.61933 3.60261 0
M  V30 521 H 49.6784 -0.740785 0.0178567 0
M  V30 522 H 52.3254 -1.76525 0.742384 0
M  V30 523 H 50.6304 -3.8228 -0.858463 0
M  V30 524 H 52.3274 -3.97876 -0.499546 0
M  V30 525 H 48.9174 -4.18631 0.919014 0
M  V30 526 H 53.1014 -4.62696 1.79516 0
M  V30 527 H 48.3574 -5.30858 3.03315 0
M  V30 528 H 52.5314 -5.76293 3.90973 0
M  V30 529 H 50.1584 -6.10161 4.53439 0
M  V30 530 N 51.7335 -0.305618 -1.54608 0
M  V30 531 C 52.9815 0.301701 -1.99835 0
M  V30 532 C 53.3025 1.54054 -1.19551 0
M  V30 533 O 52.5725 1.93702 -0.292658 0
M  V30 534 H 51.1525 0.114468 -0.738178 0
M  V30 535 H 53.8145 -0.418016 -1.90364 0
M  V30 536 H 52.9105 0.570548 -3.06841 0
M  V30 537 N 53.2116 1.57565 -0.0334293 0
M  V30 538 C 54.4886 1.83282 0.683163 0
M  V30 539 C 54.8686 0.91823 1.90084 0
M  V30 540 O 54.2166 -0.025113 2.28486 0
M  V30 541 C 54.4266 3.32599 1.0573 0
M  V30 542 C 55.7746 3.99179 1.44711 0
M  V30 543 O 56.7986 3.3712 1.15015 0
M  V30 544 O 55.6576 5.08565 2.0006 0
M  V30 545 H 52.7516 0.755869 0.335546 0
M  V30 546 H 55.2976 1.69589 -0.0614402 0
M  V30 547 H 54.0696 3.90834 0.190828 0
M  V30 548 H 53.6926 3.51415 1.85993 0
M  V30 549 N 54.6897 -0.239769 1.55765 0
M  V30 550 C 55.9147 -0.988373 1.82335 0
M  V30 551 C 56.3397 -1.77886 0.611421 0
M  V30 552 O 55.6977 -1.75889 -0.439639 0
M  V30 553 C 55.7457 -1.89627 3.06715 0
M  V30 554 O 54.8497 -2.98904 2.84131 0
M  V30 555 H 54.1907 -0.280858 0.601677 0
M  V30 556 H 56.7207 -0.258597 2.02959 0
M  V30 557 H 56.7307 -2.30957 3.36338 0
M  V30 558 H 55.4057 -1.31511 3.9456 0
M  V30 559 H 53.9827 -2.61651 2.65694 0
M  V30 560 N 56.1678 -1.49265 -0.50573 0
M  V30 561 C 57.0978 -1.68495 -1.61653 0
M  V30 562 C 58.0788 -0.53366 -1.61512 0
M  V30 563 O 59.2638 -0.76897 -1.78327 0
M  V30 564 C 56.3938 -1.74709 -3.00157 0
M  V30 565 C 55.3478 -2.89581 -3.15162 0
M  V30 566 C 54.6738 -2.80903 -4.5497 0
M  V30 567 C 55.9738 -4.30578 -2.95634 0
M  V30 568 H 57.6678 -2.61493 -1.45814 0
M  V30 569 H 55.2138 -1.25838 -0.70005 0
M  V30 570 H 57.1668 -1.86748 -3.77761 0
M  V30 571 H 55.8908 -0.783067 -3.17074 0
M  V30 572 H 54.5498 -2.77136 -2.39982 0
M  V30 573 H 54.1978 -1.82419 -4.68756 0
M  V30 574 H 53.8978 -3.57999 -4.65951 0
M  V30 575 H 55.4218 -2.94944 -5.34641 0
M  V30 576 H 56.8358 -4.4373 -3.63011 0
M  V30 577 H 55.2328 -5.0886 -3.18091 0
M  V30 578 H 56.3028 -4.45352 -1.91806 0
M  V30 579 N 57.6459 0.756429 -1.3826 0
M  V30 580 C 58.8709 1.55077 -1.37717 0
M  V30 581 C 59.2959 1.88073 0.03164 0
M  V30 582 O 58.6539 1.50364 1.01293 0
M  V30 583 C 58.7019 2.8283 -2.23695 0
M  V30 584 O 57.8059 3.77862 -1.6521 0
M  V30 585 H 57.1469 0.469152 -0.469885 0
M  V30 586 H 59.6769 0.935019 -1.81985 0
M  V30 587 H 59.6869 3.31783 -2.37453 0
M  V30 588 H 58.3619 2.58144 -3.2609 0
M  V30 589 H 56.9389 3.36555 -1.60578 0
M  V30 590 N 59.124 1.23083 0.984299 0
M  V30 591 C 60.401 0.9689 1.69917 0
M  V30 592 C 60.781 -0.513604 2.04757 0
M  V30 593 O 60.129 -1.48383 1.73767 0
M  V30 594 C 60.339 1.87518 2.94343 0
M  V30 595 C 61.687 2.13636 3.6694 0
M  V30 596 O 62.711 1.85036 3.04368 0
M  V30 597 O 61.57 2.62119 4.79537 0
M  V30 598 H 58.664 0.365095 0.742048 0
M  V30 599 H 61.21 1.34107 1.03987 0
M  V30 600 H 59.982 2.87756 2.65164 0
M  V30 601 H 59.605 1.50514 3.6801 0
M  V30 602 N 60.6021 -1.18246 1.0419 0
M  V30 603 C 61.5651 -2.20128 0.638452 0
M  V30 604 C 62.5651 -1.57885 -0.304805 0
M  V30 605 O 63.7551 -1.73967 -0.0900369 0
M  V30 606 C 60.8871 -3.4084 -0.0637751 0
M  V30 607 H 62.0801 -2.57336 1.54007 0
M  V30 608 H 59.6331 -1.32152 0.834598 0
M  V30 609 H 60.3681 -3.09166 -0.979136 0
M  V30 610 H 60.1531 -3.8726 0.614198 0
M  V30 611 H 61.6431 -4.16274 -0.332512 0
M  V30 612 N 62.0802 -0.821533 -1.34494 0
M  V30 613 C 63.3282 -0.408139 -1.97936 0
M  V30 614 C 63.6492 1.03193 -1.65457 0
M  V30 615 O 62.9192 1.71622 -0.944595 0
M  V30 616 H 61.4992 -0.147928 -0.732206 0
M  V30 617 H 64.1612 -1.05067 -1.64155 0
M  V30 618 H 63.2572 -0.52601 -3.07635 0
M  V30 619 N 63.5583 1.46682 -0.576371 0
M  V30 620 C 64.4903 2.28341 0.198231 0
M  V30 621 C 65.5033 1.38141 0.861453 0
M  V30 622 O 66.6923 1.62797 0.732082 0
M  V30 623 C 63.7923 3.12986 1.29972 0
M  V30 624 C 62.9653 4.31271 0.729639 0
M  V30 625 C 62.0243 4.97363 1.71803 0
M  V30 626 O 61.0503 5.55156 1.25658 0
M  V30 627 N 62.2523 4.93796 3.05198 0
M  V30 628 H 65.0173 2.9546 -0.502324 0
M  V30 629 H 62.5783 1.56525 -0.413715 0
M  V30 630 H 64.5703 3.54066 1.96008 0
M  V30 631 H 63.1403 2.47984 1.90323 0
M  V30 632 H 62.3603 3.94052 -0.108012 0
M  V30 633 H 63.6483 5.07739 0.328438 0
M  V30 634 H 63.0463 4.48077 3.45317 0
M  V30 635 H 61.6033 5.38837 3.6674 0
M  V30 636 N 65.0364 0.313813 1.54444 0
M  V30 637 C 66.2834 -0.291675 2.00388 0
M  V30 638 C 66.6114 -1.52904 1.2021 0
M  V30 639 O 65.8664 -1.93833 0.269707 0
M  V30 640 C 66.1654 -0.680386 3.50864 0
M  V30 641 C 65.8314 0.456699 4.48581 0
M  V30 642 C 64.4934 0.768824 4.75018 0
M  V30 643 C 66.8454 1.22098 5.06697 0
M  V30 644 C 64.1734 1.84812 5.56831 0
M  V30 645 C 66.5254 2.29029 5.89685 0
M  V30 646 C 65.1894 2.60834 6.14428 0
M  V30 647 H 64.4594 -0.106732 0.733273 0
M  V30 648 H 67.1064 0.43557 1.86481 0
M  V30 649 H 65.4114 -1.48791 3.62448 0
M  V30 650 H 67.1084 -1.16026 3.83847 0
M  V30 651 H 63.6984 0.203337 4.28117 0
M  V30 652 H 67.8824 0.993096 4.86263 0
M  V30 653 H 63.1384 2.09912 5.74236 0
M  V30 654 H 67.3124 2.887 6.33739 0
M  V30 655 H 64.9394 3.44596 6.77612 0
M  V30 656 N 66.5145 -1.57545 0.0417849 0
M  V30 657 C 67.9255 -1.80011 -0.495259 0
M  V30 658 C 68.2765 -0.953199 -1.71489 0
M  V30 659 O 67.4015 -0.167138 -2.15754 0
M  V30 660 C 67.9965 -3.26482 -0.905265 0
M  V30 661 C 66.5555 -3.499 -1.38734 0
M  V30 662 C 65.7025 -2.74979 -0.358056 0
M  V30 663 H 68.6535 -1.56425 0.267736 0
M  V30 664 H 68.6745 -3.36887 -1.76882 0
M  V30 665 H 68.1865 -3.88096 -0.017401 0
M  V30 666 H 66.2875 -2.93553 -2.29471 0
M  V30 667 H 66.4005 -4.58615 -1.38598 0
M  V30 668 H 64.7645 -2.40834 -0.828912 0
M  V30 669 H 65.5475 -3.39315 0.521561 0
M  V30 670 N 67.9926 0.231505 -1.5589 0
M  V30 671 C 69.2696 0.981096 -1.69215 0
M  V30 672 C 69.6496 2.02799 -0.586164 0
M  V30 673 O 68.9976 2.24823 0.408253 0
M  V30 674 C 69.2076 1.60054 -3.10135 0
M  V30 675 C 70.5556 2.09658 -3.69227 0
M  V30 676 O 71.5796 1.69967 -3.13033 0
M  V30 677 O 70.4386 2.8258 -4.67772 0
M  V30 678 H 67.5326 0.457653 -0.688827 0
M  V30 679 H 70.0786 0.224073 -1.68214 0
M  V30 680 H 68.8506 0.844105 -3.82087 0
M  V30 681 H 68.4736 2.42336 -3.15212 0
M  V30 682 N 69.4707 1.49531 0.497807 0
M  V30 683 C 70.8817 1.52344 1.07927 0
M  V30 684 C 71.2327 0.311469 1.93712 0
M  V30 685 O 70.3577 -0.578405 2.08527 0
M  V30 686 C 70.9527 2.76062 1.96405 0
M  V30 687 C 69.5117 2.81643 2.49709 0
M  V30 688 C 68.6587 2.46299 1.27404 0
M  V30 689 H 71.6097 1.56182 0.281576 0
M  V30 690 H 71.6307 2.56405 2.81135 0
M  V30 691 H 71.1427 3.64254 1.33943 0
M  V30 692 H 69.2437 1.97739 3.15801 0
M  V30 693 H 69.3567 3.83891 2.86643 0
M  V30 694 H 67.7207 1.98148 1.60029 0
M  V30 695 H 68.5037 3.36769 0.66645 0
M  V30 696 N 70.9488 -0.749086 1.3866 0
M  V30 697 C 71.9118 -1.84457 1.36045 0
M  V30 698 C 72.9118 -1.58682 0.260122 0
M  V30 699 O 74.1018 -1.66343 0.517261 0
M  V30 700 C 71.2338 -3.22008 1.11911 0
M  V30 701 H 72.4268 -1.88182 2.33512 0
M  V30 702 H 69.9798 -0.951266 1.24019 0
M  V30 703 H 70.7148 -3.2395 0.150686 0
M  V30 704 H 70.4998 -3.42111 1.91579 0
M  V30 705 H 71.9898 -4.0208 1.12788 0
M  V30 706 N 72.4269 -1.23603 -0.977757 0
M  V30 707 C 73.6749 -1.06759 -1.71601 0
M  V30 708 C 73.9959 0.395929 -1.90938 0
M  V30 709 O 73.2659 1.28356 -1.47992 0
M  V30 710 H 71.8459 -0.392062 -0.635843 0
M  V30 711 H 74.5079 -1.55362 -1.1768 0
M  V30 712 H 73.6039 -1.55763 -2.70452 0
M  V30 713 N 73.905 1.17692 -1.04816 0
M  V30 714 C 75.316 1.69501 -0.782698 0
M  V30 715 C 75.667 1.83456 0.695577 0
M  V30 716 O 74.792 1.51942 1.54086 0
M  V30 717 C 75.387 3.07874 -1.41419 0
M  V30 718 C 73.946 3.56864 -1.19686 0
M  V30 719 C 73.093 2.3322 -1.50012 0
M  V30 720 H 76.044 1.02262 -1.2136 0
M  V30 721 H 76.065 3.71528 -0.821428 0
M  V30 722 H 75.577 2.97685 -2.49009 0
M  V30 723 H 73.678 3.72337 -0.140043 0
M  V30 724 H 73.791 4.39851 -1.89916 0
M  V30 725 H 72.155 2.37501 -0.920071 0
M  V30 726 H 72.938 2.25644 -2.58727 0
M  V30 727 N 75.3831 0.828654 1.34056 0
M  V30 728 C 76.3461 0.259927 2.27721 0
M  V30 729 C 77.3461 -0.565478 1.50529 0
M  V30 730 O 78.5361 -0.38075 1.69988 0
M  V30 731 C 75.6681 -0.634944 3.34935 0
M  V30 732 H 76.8611 1.0863 2.79534 0
M  V30 733 H 74.4141 0.600951 1.44285 0
M  V30 734 H 75.1491 -1.48416 2.88346 0
M  V30 735 H 74.9341 -0.0444999 3.92075 0
M  V30 736 H 76.4241 -1.02648 4.04788 0
M  V30 737 N 76.8612 -1.46375 0.584142 0
M  V30 738 C 78.1092 -2.01978 0.0701287 0
M  V30 739 C 78.4302 -1.4579 -1.295 0
M  V30 740 O 77.7002 -0.64314 -1.85042 0
M  V30 741 H 76.2802 -0.746648 0.0229345 0
M  V30 742 H 78.9422 -1.79461 0.760245 0
M  V30 743 H 78.0382 -3.121 0.0022064 0
M  V30 744 N 78.3393 -0.321999 -1.54275 0
M  V30 745 C 79.5643 0.285791 -2.05422 0
M  V30 746 C 79.9893 1.45124 -1.19669 0
M  V30 747 O 79.3473 1.80132 -0.205441 0
M  V30 748 C 79.3953 0.69956 -3.53749 0
M  V30 749 O 78.4993 1.8021 -3.70942 0
M  V30 750 H 77.8403 0.0518962 -0.661969 0
M  V30 751 H 80.3703 -0.469954 -1.9913 0
M  V30 752 H 80.3803 0.982649 -3.9599 0
M  V30 753 H 79.0553 -0.152864 -4.15619 0
M  V30 754 H 77.6323 1.51794 -3.40607 0
M  V30 755 N 79.8174 1.5752 -0.0501392 0
M  V30 756 C 81.0454 1.96963 0.633492 0
M  V30 757 C 81.4604 0.927631 1.6444 0
M  V30 758 O 80.8174 -0.0882665 1.82286 0
M  V30 759 C 80.8684 3.36487 1.32132 0
M  V30 760 O 80.5894 4.36693 0.350894 0
M  V30 761 C 82.0904 3.90682 2.09481 0
M  V30 762 H 79.3104 0.648244 0.173266 0
M  V30 763 H 81.8544 2.0417 -0.116134 0
M  V30 764 H 80.0094 3.30434 2.02218 0
M  V30 765 H 80.4234 5.17702 0.841735 0
M  V30 766 H 81.8974 4.90591 2.5303 0
M  V30 767 H 82.3744 3.26053 2.94255 0
M  V30 768 H 82.9804 4.00069 1.44307 0
M  V30 769 N 81.2955 -0.223234 1.56011 0
M  V30 770 C 82.5205 -0.968978 1.83373 0
M  V30 771 C 82.9455 -1.77227 0.630254 0
M  V30 772 O 82.3035 -1.76345 -0.420959 0
M  V30 773 C 82.3515 -1.86363 3.08709 0
M  V30 774 O 81.4555 -2.95873 2.87285 0
M  V30 775 H 80.7965 -0.274461 0.604622 0
M  V30 776 H 83.3265 -0.237056 2.03222 0
M  V30 777 H 83.3365 -2.27376 3.38768 0
M  V30 778 H 82.0115 -1.27319 3.95933 0
M  V30 779 H 80.5885 -2.58818 2.68454 0
M  V30 780 N 82.7736 -1.49793 -0.48987 0
M  V30 781 C 84.1896 -1.36803 -0.822022 0
M  V30 782 C 84.3896 -0.409652 -1.97292 0
M  V30 783 O 83.4456 0.154614 -2.52026 0
M  V30 784 C 84.7586 -2.77768 -1.15175 0
M  V30 785 C 86.3066 -2.86549 -1.25931 0
M  V30 786 C 86.7816 -4.28306 -1.62228 0
M  V30 787 N 88.2726 -4.31169 -1.69256 0
M  V30 788 C 89.0076 -5.37832 -1.98807 0
M  V30 789 N 88.5036 -6.54726 -2.26507 0
M  V30 790 N 90.2966 -5.25258 -2.00152 0
M  V30 791 H 82.4476 -2.10691 0.268881 0
M  V30 792 H 84.7106 -0.946241 0.057728 0
M  V30 793 H 84.4166 -3.49648 -0.379335 0
M  V30 794 H 84.2906 -3.13836 -2.09253 0
M  V30 795 H 86.6776 -2.14899 -2.02243 0
M  V30 796 H 86.7586 -2.54049 -0.298776 0
M  V30 797 H 86.4026 -5.00486 -0.864622 0
M  V30 798 H 86.3326 -4.58279 -2.594 0
M  V30 799 H 88.8236 -3.4687 -1.49965 0
M  V30 800 H 89.1366 -7.31833 -2.48276 0
M  V30 801 H 87.4816 -6.57933 -2.23939 0
M  V30 802 H 90.6726 -4.32938 -1.77996 0
M  V30 803 H 90.8456 -6.08476 -2.22848 0
M  V30 804 N 84.2517 0.741722 -1.39055 0
M  V30 805 C 85.4987 1.50114 -1.35912 0
M  V30 806 C 85.8267 1.94443 0.0470937 0
M  V30 807 O 85.0817 1.66612 1.02659 0
M  V30 808 C 85.3807 2.7592 -2.27163 0
M  V30 809 C 85.0467 2.50493 -3.74919 0
M  V30 810 C 83.7087 2.43267 -4.1518 0
M  V30 811 C 86.0607 2.28585 -4.684 0
M  V30 812 C 83.3887 2.12166 -5.46994 0
M  V30 813 C 85.7407 1.99002 -6.00484 0
M  V30 814 C 84.4047 1.90241 -6.39816 0
M  V30 815 H 83.6747 0.549306 -0.497336 0
M  V30 816 H 86.3217 0.851896 -1.71508 0
M  V30 817 H 84.6267 3.45553 -1.84663 0
M  V30 818 H 86.3237 3.33923 -2.22028 0
M  V30 819 H 82.9137 2.56992 -3.43006 0
M  V30 820 H 87.0977 2.33139 -4.38132 0
M  V30 821 H 82.3537 2.03901 -5.76398 0
M  V30 822 H 86.5277 1.81057 -6.72452 0
M  V30 823 H 84.1547 1.65907 -7.41875 0
M  V30 824 N 85.7298 1.2412 0.971189 0
M  V30 825 C 86.9578 1.10575 1.74874 0
M  V30 826 C 87.3728 -0.342017 1.85676 0
M  V30 827 O 86.7298 -1.23617 1.34258 0
M  V30 828 C 86.7808 1.73579 3.171 0
M  V30 829 O 86.5018 3.12695 3.06844 0
M  V30 830 C 88.0028 1.65598 4.11208 0
M  V30 831 H 85.2228 0.386504 0.548503 0
M  V30 832 H 87.7668 1.64156 1.21955 0
M  V30 833 H 85.9218 1.24009 3.67016 0
M  V30 834 H 86.3358 3.43412 3.96445 0
M  V30 835 H 87.8098 2.1437 5.08674 0
M  V30 836 H 88.2868 0.616532 4.34851 0
M  V30 837 H 88.8928 2.14578 3.67201 0
M  V30 838 N 87.2079 -1.17134 1.05439 0
M  V30 839 C 88.1559 -2.23289 0.651511 0
M  V30 840 C 89.1499 -1.66186 -0.328411 0
M  V30 841 O 90.3559 -1.78949 -0.194206 0
M  V30 842 H 86.7309 -0.726938 0.192523 0
M  V30 843 H 88.7019 -2.54565 1.55689 0
M  V30 844 C 87.4509 -3.47671 0.0448436 0
M  V30 845 H 86.7739 -3.91918 0.78996 0
M  V30 846 H 88.2139 -4.2353 -0.19964 0
M  V30 847 C 86.6729 -3.14453 -1.20918 0
M  V30 848 O 87.2029 -3.29459 -2.29825 0
M  V30 849 N 85.4089 -2.68657 -1.10779 0
M  V30 850 H 84.9559 -2.56646 -0.221526 0
M  V30 851 H 84.9139 -2.46804 -1.9477 0
M  V30 852 N 88.686 -0.835752 -1.33615 0
M  V30 853 C 90.102 -0.523139 -1.50783 0
M  V30 854 C 90.302 0.950171 -1.77691 0
M  V30 855 O 89.358 1.73411 -1.83534 0
M  V30 856 C 90.671 -1.39378 -2.66448 0
M  V30 857 C 92.219 -1.39223 -2.80332 0
M  V30 858 C 92.694 -2.24765 -3.99055 0
M  V30 859 N 94.185 -2.22458 -4.06284 0
M  V30 860 C 94.92 -2.85386 -4.97336 0
M  V30 861 N 94.416 -3.57354 -5.93523 0
M  V30 862 N 96.209 -2.74872 -4.90308 0
M  V30 863 H 88.36 -1.78952 -1.14411 0
M  V30 864 H 90.623 -0.763297 -0.562212 0
M  V30 865 H 90.329 -2.44061 -2.53234 0
M  V30 866 H 90.203 -1.0676 -3.61776 0
M  V30 867 H 92.59 -0.353136 -2.92979 0
M  V30 868 H 92.671 -1.75846 -1.85773 0
M  V30 869 H 92.315 -3.28732 -3.87167 0
M  V30 870 H 92.245 -1.85485 -4.92852 0
M  V30 871 H 94.736 -1.70119 -3.37443 0
M  V30 872 H 95.049 -4.02584 -6.59656 0
M  V30 873 H 93.394 -3.61461 -5.93608 0
M  V30 874 H 96.585 -2.18213 -4.14126 0
M  V30 875 H 96.758 -3.24199 -5.61069 0
M  V30 876 N 90.1641 1.46063 -0.591896 0
M  V30 877 C 91.4101 2.02638 -0.0811191 0
M  V30 878 C 91.7431 1.4613 1.27905 0
M  V30 879 O 91.0181 0.629908 1.84017 0
M  V30 880 C 91.3011 3.60091 -0.0252436 0
M  V30 881 C 91.1541 4.26965 -1.41496 0
M  V30 882 C 92.4731 4.3496 0.670685 0
M  V30 883 H 89.5921 0.73635 -0.0309524 0
M  V30 884 H 92.2341 1.741 -0.760859 0
M  V30 885 H 90.3841 3.84535 0.553624 0
M  V30 886 H 92.0561 4.13756 -2.0397 0
M  V30 887 H 90.2991 3.85971 -1.98011 0
M  V30 888 H 90.9701 5.35781 -1.32825 0
M  V30 889 H 93.4461 4.15716 0.178825 0
M  V30 890 H 92.3221 5.44686 0.678837 0
M  V30 891 H 92.5831 4.06685 1.73379 0
M  V30 892 N 91.6422 0.330177 1.54103 0
M  V30 893 C 92.8902 -0.269871 2.0029 0
M  V30 894 C 93.2112 -1.52133 1.21986 0
M  V30 895 O 92.4812 -1.93212 0.323438 0
M  V30 896 H 91.0612 -0.10271 0.739905 0
M  V30 897 H 93.7232 0.448249 1.89675 0
M  V30 898 H 92.8192 -0.52166 3.07709 0
M  V30 899 N 93.1203 -1.57491 0.0584922 0
M  V30 900 C 94.5313 -1.80526 -0.476138 0
M  V30 901 C 94.8823 -0.971334 -1.70469 0
M  V30 902 O 94.0073 -0.190012 -2.15564 0
M  V30 903 C 94.6023 -3.27424 -0.870587 0
M  V30 904 C 93.1613 -3.51351 -1.35015 0
M  V30 905 C 92.3083 -2.75343 -0.32887 0
M  V30 906 H 95.2593 -1.56133 0.284312 0
M  V30 907 H 95.2803 -3.38745 -1.73299 0
M  V30 908 H 94.7923 -3.88093 0.0237627 0
M  V30 909 H 92.8933 -2.95971 -2.26345 0
M  V30 910 H 93.0063 -4.60059 -1.33726 0
M  V30 911 H 91.3703 -2.417 -0.803321 0
M  V30 912 H 92.1533 -3.38743 0.557521 0
M  V30 913 N 94.5984 0.214957 -1.56127 0
M  V30 914 C 95.8264 0.955092 -1.83536 0
M  V30 915 C 96.2414 1.77677 -0.638472 0
M  V30 916 O 95.5984 1.78219 0.392968 0
M  V30 917 C 95.6494 1.86734 -3.09536 0
M  V30 918 O 95.3704 1.07887 -4.24608 0
M  V30 919 C 96.8714 2.72082 -3.4998 0
M  V30 920 H 94.0914 0.279611 -0.609966 0
M  V30 921 H 96.6354 0.228197 -2.03223 0
M  V30 922 H 94.7904 2.5481 -2.91806 0
M  V30 923 H 95.2044 1.69872 -4.9623 0
M  V30 924 H 96.6784 3.31782 -4.41163 0
M  V30 925 H 97.1554 3.44806 -2.7204 0
M  V30 926 H 97.7614 2.09409 -3.70173 0
M  V30 927 N 96.0765 1.50051 0.48192 0
M  V30 928 C 97.3065 1.63999 1.2565 0
M  V30 929 C 97.7145 0.318288 1.86504 0
M  V30 930 O 97.0575 -0.708534 1.69486 0
M  V30 931 C 97.1195 2.66504 2.4128 0
M  V30 932 C 96.7835 4.10352 2.01148 0
M  V30 933 C 97.7805 4.96562 1.54021 0
M  V30 934 C 95.4655 4.56203 2.10199 0
M  V30 935 C 97.4595 6.26668 1.16473 0
M  V30 936 C 95.1465 5.86318 1.72264 0
M  V30 937 C 96.1445 6.71375 1.25477 0
M  V30 938 O 95.8325 7.99062 0.880626 0
M  V30 939 H 95.5645 0.55456 0.386574 0
M  V30 940 H 98.1185 1.96954 0.582944 0
M  V30 941 H 96.3485 2.28769 3.11772 0
M  V30 942 H 98.0375 2.69783 3.03268 0
M  V30 943 H 98.8035 4.62358 1.46458 0
M  V30 944 H 94.6825 3.90152 2.45566 0
M  V30 945 H 98.2265 6.93011 0.798841 0
M  V30 946 H 94.1235 6.20046 1.79482 0
M  V30 947 H 94.8915 8.12239 1.01043 0
M  V30 948 N 97.5546 -0.734337 1.39446 0
M  V30 949 C 98.4866 -1.85861 1.34121 0
M  V30 950 C 99.4996 -1.60871 0.249864 0
M  V30 951 O 100.689 -1.71093 0.508865 0
M  V30 952 C 97.7886 -3.21899 1.05991 0
M  V30 953 C 96.9616 -3.74239 2.26415 0
M  V30 954 C 96.0206 -4.88841 1.94733 0
M  V30 955 O 95.0466 -5.02468 2.67422 0
M  V30 956 N 96.2486 -5.73261 0.913884 0
M  V30 957 H 99.0136 -1.90934 2.31007 0
M  V30 958 H 96.5746 -0.915102 1.33557 0
M  V30 959 H 98.5666 -3.96136 0.828147 0
M  V30 960 H 97.1366 -3.12091 0.178361 0
M  V30 961 H 96.3566 -2.91347 2.65539 0
M  V30 962 H 97.6446 -4.05942 3.06738 0
M  V30 963 H 97.0426 -5.64842 0.311476 0
M  V30 964 H 95.5996 -6.47563 0.742015 0
M  V30 965 N 99.0327 -1.24633 -0.964593 0
M  V30 966 C 99.9807 -1.03917 -2.08096 0
M  V30 967 C 100.975 0.0268581 -1.69379 0
M  V30 968 O 102.181 -0.127952 -1.79545 0
M  V30 969 H 98.5557 -0.319044 -0.680966 0
M  V30 970 H 100.527 -1.98581 -2.22729 0
M  V30 971 C 99.2757 -0.663983 -3.41301 0
M  V30 972 H 98.5987 -1.47605 -3.71555 0
M  V30 973 H 100.039 -0.558663 -4.20303 0
M  V30 974 C 98.4977 0.629169 -3.30973 0
M  V30 975 O 99.0277 1.67404 -3.65156 0
M  V30 976 N 97.2337 0.611057 -2.84103 0
M  V30 977 H 96.7807 -0.239593 -2.56483 0
M  V30 978 H 96.7387 1.47647 -2.77575 0
M  V30 979 N 100.511 1.16574 -1.06058 0
M  V30 980 C 101.759 1.86677 -0.77434 0
M  V30 981 C 102.08 1.81959 0.701147 0
M  V30 982 O 101.35 1.2515 1.50713 0
M  V30 983 H 99.9298 0.691134 -0.283449 0
M  V30 984 H 102.592 1.41378 -1.34158 0
M  V30 985 H 101.688 2.92181 -1.09711 0
M  V30 986 N 101.989 0.842826 1.3317 0
M  V30 987 C 103.214 0.453129 2.02389 0
M  V30 988 C 103.639 -0.939105 1.6298 0
M  V30 989 O 102.997 -1.61472 0.8244 0
M  V30 990 C 103.045 0.586094 3.55805 0
M  V30 991 O 102.149 -0.386029 4.10589 0
M  V30 992 H 101.49 0.183664 0.638094 0
M  V30 993 H 104.02 1.13875 1.69981 0
M  V30 994 H 104.03 0.469209 4.05293 0
M  V30 995 H 102.705 1.6014 3.83833 0
M  V30 996 H 101.282 -0.226371 3.72212 0
M  V30 997 N 103.467 -1.45747 0.599634 0
M  V30 998 C 104.715 -2.01893 0.0915472 0
M  V30 999 C 105.036 -1.47155 -1.27946 0
M  V30 1000 O 104.306 -0.66273 -1.84349 0
M  V30 1001 H 102.886 -0.746363 0.0308524 0
M  V30 1002 H 105.548 -1.78645 0.779237 0
M  V30 1003 H 104.644 -3.1208 0.0353086 0
M  V30 1004 N 104.945 -0.338344 -1.53925 0
M  V30 1005 C 105.855 0.529421 -2.28548 0
M  V30 1006 C 106.871 1.11645 -1.3346 0
M  V30 1007 O 108.047 1.13325 -1.66492 0
M  V30 1008 C 105.112 1.66713 -3.03987 0
M  V30 1009 C 104.173 1.11041 -4.14691 0
M  V30 1010 C 103.406 2.19389 -4.86522 0
M  V30 1011 O 103.629 3.40013 -4.57982 0
M  V30 1012 O 102.563 1.83976 -5.73094 0
M  V30 1013 H 106.389 -0.0770399 -3.03602 0
M  V30 1014 H 103.974 -0.103555 -1.49041 0
M  V30 1015 H 105.856 2.32918 -3.5118 0
M  V30 1016 H 104.531 2.25949 -2.31794 0
M  V30 1017 H 103.438 0.413024 -3.71813 0
M  V30 1018 H 104.771 0.562975 -4.8897 0
M  V30 1019 N 106.423 1.57458 -0.0668435 0
M  V30 1020 C 107.672 1.92477 0.602947 0
M  V30 1021 C 107.985 0.948419 1.71068 0
M  V30 1022 O 109.191 1.19124 2.43971 0
M  V30 1023 C 107.647 3.41903 1.12383 0
M  V30 1024 C 107.255 4.47975 0.04737 0
M  V30 1025 C 108.999 3.85931 1.76797 0
M  V30 1026 C 106.906 5.88529 0.582022 0
M  V30 1027 H 105.836 0.718387 0.22899 0
M  V30 1028 H 108.487 1.82978 -0.138276 0
M  V30 1029 H 106.869 3.46459 1.91787 0
M  V30 1030 H 108.043 4.55029 -0.726978 0
M  V30 1031 H 106.358 4.13384 -0.500243 0
M  V30 1032 H 108.955 4.88322 2.17821 0
M  V30 1033 H 109.298 3.23029 2.62599 0
M  V30 1034 H 109.831 3.83958 1.04024 0
M  V30 1035 H 106.57 6.55065 -0.238721 0
M  V30 1036 H 106.09 5.85004 1.324 0
M  V30 1037 H 107.769 6.38258 1.05999 0
M  V30 1038 N 107.901 -0.206675 1.56239 0
M  V30 1039 C 109.148 -0.928842 1.79941 0
M  V30 1040 C 109.476 -1.83734 0.638131 0
M  V30 1041 O 108.731 -1.92039 -0.376746 0
M  V30 1042 C 109.03 -1.78675 3.09532 0
M  V30 1043 C 108.696 -1.03022 4.38973 0
M  V30 1044 C 107.358 -0.821302 4.74139 0
M  V30 1045 C 109.71 -0.497081 5.18824 0
M  V30 1046 C 107.038 -0.0675719 5.86661 0
M  V30 1047 C 109.39 0.24338 6.32132 0
M  V30 1048 C 108.054 0.463422 6.65889 0
M  V30 1049 H 107.324 -0.339887 0.658451 0
M  V30 1050 H 109.971 -0.195977 1.90495 0
M  V30 1051 H 108.276 -2.58794 2.94165 0
M  V30 1052 H 109.973 -2.34792 3.25075 0
M  V30 1053 H 106.563 -1.20306 4.11369 0
M  V30 1054 H 110.747 -0.645921 4.92079 0
M  V30 1055 H 106.003 0.112995 6.11296 0
M  V30 1056 H 110.177 0.66393 6.93228 0
M  V30 1057 H 107.804 1.04938 7.52922 0
M  V30 1058 N 109.379 -1.50304 -0.473955 0
M  V30 1059 C 110.627 -1.60832 -1.22382 0
M  V30 1060 C 110.948 -0.30939 -1.9253 0
M  V30 1061 O 110.218 0.67296 -1.83978 0
M  V30 1062 H 108.798 -0.592652 -0.454723 0
M  V30 1063 H 111.46 -1.87068 -0.546968 0
M  V30 1064 H 110.556 -2.41803 -1.97327 0
M  V30 1065 N 110.857 0.726932 -1.39834 0
M  V30 1066 C 112.268 1.30558 -1.3346 0
M  V30 1067 C 112.619 1.962 -0.00273003 0
M  V30 1068 O 111.744 1.96826 0.899371 0
M  V30 1069 C 112.339 2.37404 -2.41713 0
M  V30 1070 C 110.898 2.90921 -2.38835 0
M  V30 1071 C 110.045 1.64578 -2.2318 0
M  V30 1072 H 112.996 0.523862 -1.49804 0
M  V30 1073 H 113.017 3.17984 -2.08966 0
M  V30 1074 H 112.529 1.89599 -3.38635 0
M  V30 1075 H 110.63 3.42985 -1.45575 0
M  V30 1076 H 110.743 3.43487 -3.33997 0
M  V30 1077 H 109.107 1.89219 -1.70494 0
M  V30 1078 H 109.89 1.18814 -3.22084 0
M  V30 1079 N 112.336 1.25143 0.95797 0
M  V30 1080 C 113.564 1.12424 1.73691 0
M  V30 1081 C 113.979 -0.322304 1.86029 0
M  V30 1082 O 113.336 -1.22186 1.35561 0
M  V30 1083 C 113.387 1.76933 3.15241 0
M  V30 1084 O 113.108 3.15932 3.03511 0
M  V30 1085 C 114.609 1.6995 4.09429 0
M  V30 1086 H 111.829 0.3923 0.544373 0
M  V30 1087 H 114.373 1.6544 1.20207 0
M  V30 1088 H 112.528 1.27895 3.6568 0
M  V30 1089 H 112.942 3.47598 3.9278 0
M  V30 1090 H 114.416 2.19753 5.06372 0
M  V30 1091 H 114.893 0.662619 4.34173 0
M  V30 1092 H 115.499 2.18461 3.64904 0
M  V30 1093 N 113.814 -1.1601 1.06675 0
M  V30 1094 C 114.777 -2.18724 0.685001 0
M  V30 1095 C 115.777 -1.58496 -0.271246 0
M  V30 1096 O 116.967 -1.74119 -0.0531156 0
M  V30 1097 C 114.099 -3.40899 0.00853648 0
M  V30 1098 H 115.292 -2.54011 1.59431 0
M  V30 1099 H 112.845 -1.30352 0.862441 0
M  V30 1100 H 113.58 -3.11173 -0.913337 0
M  V30 1101 H 113.365 -3.8587 0.696204 0
M  V30 1102 H 114.855 -4.16886 -0.24414 0
M  V30 1103 N 115.292 -0.849877 -1.32721 0
M  V30 1104 C 116.703 -0.506188 -1.79707 0
M  V30 1105 C 117.054 0.975627 -1.70223 0
M  V30 1106 O 116.179 1.76078 -1.25799 0
M  V30 1107 C 116.774 -0.912044 -3.26293 0
M  V30 1108 C 115.333 -0.620326 -3.71253 0
M  V30 1109 C 114.48 -1.11439 -2.53922 0
M  V30 1110 H 117.431 -1.03754 -1.20087 0
M  V30 1111 H 117.452 -0.226493 -3.79825 0
M  V30 1112 H 116.964 -1.99057 -3.33164 0
M  V30 1113 H 115.065 0.447674 -3.69901 0
M  V30 1114 H 115.178 -1.18327 -4.64258 0
M  V30 1115 H 113.542 -0.534834 -2.49021 0
M  V30 1116 H 114.325 -2.19992 -2.6355 0
M  V30 1117 N 116.77 1.45427 -0.607355 0
M  V30 1118 C 117.703 2.27635 0.160482 0
M  V30 1119 C 118.681 1.37122 0.873857 0
M  V30 1120 O 119.865 1.66551 0.882775 0
M  V30 1121 C 116.992 3.15486 1.23231 0
M  V30 1122 C 116.038 4.21939 0.622097 0
M  V30 1123 S 116.871 5.32459 -0.569852 0
M  V30 1124 C 118.027 6.23879 0.502577 0
M  V30 1125 H 118.26 2.9241 -0.536983 0
M  V30 1126 H 115.793 1.49265 -0.394868 0
M  V30 1127 H 117.751 3.66659 1.84585 0
M  V30 1128 H 116.412 2.49977 1.90185 0
M  V30 1129 H 115.605 4.8333 1.42856 0
M  V30 1130 H 115.207 3.73906 0.0837063 0
M  V30 1131 H 117.499 6.63261 1.38171 0
M  V30 1132 H 118.442 7.0806 -0.0751759 0
M  V30 1133 H 118.85 5.58545 0.8178 0
M  V30 1134 N 118.248 0.346503 1.53744 0
M  V30 1135 C 119.178 -0.501193 2.28058 0
M  V30 1136 C 120.159 -1.10014 1.29734 0
M  V30 1137 O 121.344 -1.12097 1.58581 0
M  V30 1138 C 118.474 -1.65078 3.05559 0
M  V30 1139 C 117.428 -1.18003 4.11411 0
M  V30 1140 C 116.754 -2.41837 4.76884 0
M  V30 1141 C 118.054 -0.278394 5.21558 0
M  V30 1142 H 119.748 0.11875 2.99164 0
M  V30 1143 H 117.294 0.0585531 1.43881 0
M  V30 1144 H 119.247 -2.25028 3.56287 0
M  V30 1145 H 117.971 -2.29767 2.32109 0
M  V30 1146 H 116.63 -0.603331 3.61601 0
M  V30 1147 H 116.278 -3.0494 4.00026 0
M  V30 1148 H 115.978 -2.1102 5.48402 0
M  V30 1149 H 117.502 -3.02508 5.30397 0
M  V30 1150 H 118.916 -0.784823 5.67903 0
M  V30 1151 H 117.313 -0.0619707 6.00068 0
M  V30 1152 H 118.383 0.684677 4.80042 0
M  V30 1153 N 119.726 -1.57421 0.075193 0
M  V30 1154 C 120.656 -2.15942 -0.888324 0
M  V30 1155 C 121.637 -1.08737 -1.30806 0
M  V30 1156 O 122.822 -1.36787 -1.37851 0
M  V30 1157 C 119.952 -2.72379 -2.1547 0
M  V30 1158 C 118.906 -3.8478 -1.87425 0
M  V30 1159 C 118.232 -4.27834 -3.20721 0
M  V30 1160 C 119.532 -5.08869 -1.17684 0
M  V30 1161 H 121.226 -2.96705 -0.400799 0
M  V30 1162 H 118.772 -1.42723 -0.191342 0
M  V30 1163 H 120.725 -3.11965 -2.83295 0
M  V30 1164 H 119.449 -1.88841 -2.6647 0
M  V30 1165 H 118.108 -3.45703 -1.22004 0
M  V30 1166 H 117.756 -3.41214 -3.6957 0
M  V30 1167 H 117.456 -5.03605 -3.02746 0
M  V30 1168 H 118.98 -4.70039 -3.89738 0
M  V30 1169 H 120.394 -5.4575 -1.75584 0
M  V30 1170 H 118.791 -5.8994 -1.09956 0
M  V30 1171 H 119.861 -4.84648 -0.156453 0
M  V30 1172 N 121.204 0.198386 -1.56346 0
M  V30 1173 C 122.452 0.91747 -1.80075 0
M  V30 1174 C 122.773 1.83929 -0.647692 0
M  V30 1175 O 122.043 1.93029 0.334166 0
M  V30 1176 H 120.623 0.341774 -0.664228 0
M  V30 1177 H 123.285 0.204684 -1.93822 0
M  V30 1178 H 122.381 1.51055 -2.7311 0
M  V30 1179 N 122.682 1.50554 0.465978 0
M  V30 1180 C 123.63 1.70324 1.58406 0
M  V30 1181 C 124.624 0.569139 1.59553 0
M  V30 1182 O 125.83 0.749776 1.63641 0
M  V30 1183 H 122.205 0.537688 0.525734 0
M  V30 1184 H 124.176 2.64104 1.38894 0
M  V30 1185 C 122.925 1.81928 2.96307 0
M  V30 1186 H 122.248 2.68586 2.96144 0
M  V30 1187 H 123.688 1.99784 3.73982 0
M  V30 1188 C 122.147 0.572095 3.32007 0
M  V30 1189 O 122.677 -0.286416 4.00678 0
M  V30 1190 N 120.883 0.424606 2.87481 0
M  V30 1191 H 120.43 1.12427 2.31771 0
M  V30 1192 H 120.388 -0.408697 3.11732 0
M  V30 1193 N 124.16 -0.719506 1.40217 0
M  V30 1194 C 125.092 -1.84428 1.36084 0
M  V30 1195 C 126.105 -1.60597 0.266913 0
M  V30 1196 O 127.294 -1.70544 0.526983 0
M  V30 1197 C 124.394 -3.20757 1.094 0
M  V30 1198 C 123.567 -3.71817 2.30372 0
M  V30 1199 C 122.626 -4.86748 1.99907 0
M  V30 1200 O 121.652 -4.99603 2.72737 0
M  V30 1201 N 122.854 -5.7226 0.974635 0
M  V30 1202 H 125.619 -1.88473 2.33019 0
M  V30 1203 H 123.18 -0.900885 1.3452 0
M  V30 1204 H 125.172 -3.95235 0.870116 0
M  V30 1205 H 123.742 -3.11884 0.211452 0
M  V30 1206 H 122.962 -2.88514 2.68614 0
M  V30 1207 H 124.25 -4.02666 3.11026 0
M  V30 1208 H 123.648 -5.6448 0.371368 0
M  V30 1209 H 122.205 -6.46739 0.810656 0
M  V30 1210 N 125.638 -1.25649 -0.95132 0
M  V30 1211 C 126.568 -1.08808 -2.06599 0
M  V30 1212 C 127.549 0.00382547 -1.701 0
M  V30 1213 O 128.734 -0.166325 -1.93486 0
M  V30 1214 C 125.864 -0.709542 -3.39975 0
M  V30 1215 C 124.818 -1.75206 -3.90496 0
M  V30 1216 C 124.144 -1.22811 -5.20405 0
M  V30 1217 C 125.444 -3.15153 -4.16504 0
M  V30 1218 H 127.138 -2.02048 -2.20946 0
M  V30 1219 H 124.684 -0.972835 -1.06169 0
M  V30 1220 H 126.637 -0.578649 -4.17408 0
M  V30 1221 H 125.361 0.258556 -3.25575 0
M  V30 1222 H 124.02 -1.87145 -3.15234 0
M  V30 1223 H 123.668 -0.250145 -5.02378 0
M  V30 1224 H 123.368 -1.92492 -5.55176 0
M  V30 1225 H 124.892 -1.10968 -6.00432 0
M  V30 1226 H 126.306 -3.06349 -4.84586 0
M  V30 1227 H 124.703 -3.82333 -4.62538 0
M  V30 1228 H 125.773 -3.61966 -3.22658 0
M  V30 1229 N 127.117 1.15442 -1.07289 0
M  V30 1230 C 128.365 1.85845 -0.794096 0
M  V30 1231 C 128.686 1.82692 0.681809 0
M  V30 1232 O 127.956 1.26741 1.49377 0
M  V30 1233 H 126.536 0.688089 -0.290763 0
M  V30 1234 H 129.198 1.39947 -1.3565 0
M  V30 1235 H 128.294 2.91001 -1.12804 0
M  V30 1236 N 128.595 0.856903 1.32268 0
M  V30 1237 C 129.844 0.457599 1.96441 0
M  V30 1238 C 130.157 -0.992426 1.68553 0
M  V30 1239 O 131.363 -1.49727 2.26482 0
M  V30 1240 C 129.819 0.767358 3.51624 0
M  V30 1241 C 129.427 2.23326 3.88367 0
M  V30 1242 C 131.171 0.435887 4.22256 0
M  V30 1243 C 129.078 2.48613 5.36606 0
M  V30 1244 H 128.008 0.167387 0.735185 0
M  V30 1245 H 130.659 1.048 1.5063 0
M  V30 1246 H 129.041 0.106367 3.95857 0
M  V30 1247 H 130.215 2.93623 3.55137 0
M  V30 1248 H 128.53 2.52948 3.30766 0
M  V30 1249 H 131.127 0.602202 5.31298 0
M  V30 1250 H 131.47 -0.622672 4.11617 0
M  V30 1251 H 132.003 1.05286 3.83614 0
M  V30 1252 H 128.742 3.53101 5.52268 0
M  V30 1253 H 128.262 1.82896 5.71235 0
M  V30 1254 H 129.941 2.32676 6.03714 0
M  V30 1255 N 130.073 -1.45103 0.615059 0
M  V30 1256 C 131.036 -2.29025 -0.0895485 0
M  V30 1257 C 132.036 -1.40174 -0.787906 0
M  V30 1258 O 133.226 -1.62217 -0.634933 0
M  V30 1259 C 130.358 -3.21376 -1.13711 0
M  V30 1260 H 131.551 -2.92807 0.648382 0
M  V30 1261 H 129.104 -1.51749 0.374444 0
M  V30 1262 H 129.839 -2.6241 -1.90556 0
M  V30 1263 H 129.624 -3.86834 -0.640475 0
M  V30 1264 H 131.114 -3.84459 -1.63036 0
M  V30 1265 N 131.551 -0.354651 -1.53558 0
M  V30 1266 C 132.962 0.126902 -1.86268 0
M  V30 1267 C 133.313 1.49075 -1.27558 0
M  V30 1268 O 132.438 2.08105 -0.5934 0
M  V30 1269 C 133.033 0.237046 -3.3797 0
M  V30 1270 C 131.592 0.662842 -3.70518 0
M  V30 1271 C 130.739 -0.196652 -2.76602 0
M  V30 1272 H 133.69 -0.573849 -1.47962 0
M  V30 1273 H 133.711 1.06259 -3.65362 0
M  V30 1274 H 133.223 -0.755725 -3.80671 0
M  V30 1275 H 131.324 1.66424 -3.33367 0
M  V30 1276 H 131.437 0.445034 -4.77029 0
M  V30 1277 H 129.801 0.332763 -2.52517 0
M  V30 1278 H 130.584 -1.18676 -3.22135 0
M  V30 1279 N 133.029 1.57378 -0.0835403 0
M  V30 1280 C 134.277 1.93547 0.581718 0
M  V30 1281 C 134.598 0.96524 1.69435 0
M  V30 1282 O 133.868 0.0153369 1.95894 0
M  V30 1283 H 132.448 0.714521 0.217874 0
M  V30 1284 H 135.11 1.94366 -0.144158 0
M  V30 1285 H 134.206 2.95665 0.999423 0
M  V30 1286 N 134.507 -0.190092 1.56449 0
M  V30 1287 C 135.784 -0.935886 1.71757 0
M  V30 1288 C 136.164 -2.01173 0.639726 0
M  V30 1289 O 135.512 -2.25827 -0.348502 0
M  V30 1290 C 135.722 -1.51775 3.1427 0
M  V30 1291 C 137.07 -1.99794 3.74656 0
M  V30 1292 O 138.094 -1.61607 3.1743 0
M  V30 1293 O 136.953 -2.70079 4.751 0
M  V30 1294 H 134.047 -0.439229 0.700719 0
M  V30 1295 H 136.593 -0.179395 1.68749 0
M  V30 1296 H 135.365 -0.742505 3.84191 0
M  V30 1297 H 134.988 -2.33894 3.21527 0
M  V30 1298 N 135.985 -1.50799 -0.457987 0
M  V30 1299 C 136.915 -1.73553 -1.5621 0
M  V30 1300 C 137.896 -0.584774 -1.59732 0
M  V30 1301 O 139.081 -0.825314 -1.7579 0
M  V30 1302 C 136.211 -1.84169 -2.94447 0
M  V30 1303 C 135.165 -2.99461 -3.0579 0
M  V30 1304 C 134.491 -2.95235 -4.45803 0
M  V30 1305 C 135.791 -4.39766 -2.81786 0
M  V30 1306 H 137.485 -2.66 -1.37421 0
M  V30 1307 H 135.031 -1.28002 -0.659662 0
M  V30 1308 H 136.984 -1.98672 -3.71628 0
M  V30 1309 H 135.708 -0.883545 -3.14422 0
M  V30 1310 H 134.367 -2.8463 -2.31044 0
M  V30 1311 H 134.015 -1.97239 -4.62715 0
M  V30 1312 H 133.715 -3.72642 -4.54326 0
M  V30 1313 H 135.239 -3.11803 -5.24987 0
M  V30 1314 H 136.653 -4.55054 -3.4871 0
M  V30 1315 H 135.05 -5.18722 -3.0174 0
M  V30 1316 H 136.12 -4.51229 -1.7754 0
M  V30 1317 N 137.463 0.71206 -1.40597 0
M  V30 1318 C 138.426 1.80785 -1.40888 0
M  V30 1319 C 139.426 1.57937 -0.302103 0
M  V30 1320 O 140.616 1.64913 -0.561182 0
M  V30 1321 C 137.748 3.18927 -1.20409 0
M  V30 1322 H 138.941 1.81924 -2.38419 0
M  V30 1323 H 136.494 0.91805 -1.26497 0
M  V30 1324 H 137.229 3.23436 -0.236522 0
M  V30 1325 H 137.014 3.36911 -2.00582 0
M  V30 1326 H 138.504 3.98949 -1.23408 0
M  V30 1327 N 138.941 1.26152 0.944643 0
M  V30 1328 C 139.904 1.07474 2.0244 0
M  V30 1329 C 140.904 0.0242064 1.60782 0
M  V30 1330 O 142.094 0.267302 1.72137 0
M  V30 1331 C 139.226 0.633956 3.34953 0
M  V30 1332 H 140.419 2.03336 2.20442 0
M  V30 1333 H 137.972 1.087 1.12312 0
M  V30 1334 H 138.707 -0.326811 3.22649 0
M  V30 1335 H 138.492 1.39247 3.66542 0
M  V30 1336 H 139.982 0.52501 4.14287 0
M  V30 1337 N 140.419 -1.14872 1.07899 0
M  V30 1338 C 141.644 -1.90202 0.826926 0
M  V30 1339 C 142.069 -1.77774 -0.614664 0
M  V30 1340 O 141.427 -1.11431 -1.43013 0
M  V30 1341 C 141.475 -3.38352 1.24702 0
M  V30 1342 O 140.579 -4.10497 0.39575 0
M  V30 1343 H 139.92 -0.591968 0.300782 0
M  V30 1344 H 142.45 -1.45437 1.43907 0
M  V30 1345 H 142.46 -3.89156 1.22563 0
M  V30 1346 H 141.135 -3.46715 2.29698 0
M  V30 1347 H 139.712 -3.69796 0.480117 0
M  V30 1348 N 141.898 -0.863906 -1.31812 0
M  V30 1349 C 143.126 -0.486111 -2.01108 0
M  V30 1350 C 143.541 0.919755 -1.64882 0
M  V30 1351 O 142.898 1.60162 -0.874893 0
M  V30 1352 C 142.949 -0.626435 -3.56031 0
M  V30 1353 O 142.67 -1.97693 -3.90959 0
M  V30 1354 C 144.171 -0.248857 -4.42601 0
M  V30 1355 H 141.391 -0.190052 -0.643523 0
M  V30 1356 H 143.935 -1.1634 -1.68182 0
M  V30 1357 H 142.09 0.00322717 -3.874 0
M  V30 1358 H 142.504 -1.98034 -4.85678 0
M  V30 1359 H 143.978 -0.398016 -5.50563 0
M  V30 1360 H 144.455 0.811489 -4.31638 0
M  V30 1361 H 145.061 -0.853971 -4.16638 0
M  V30 1362 N 143.376 1.44774 -0.622745 0
M  V30 1363 C 144.601 2.06999 -0.128968 0
M  V30 1364 C 145.026 1.4617 1.1839 0
M  V30 1365 O 144.384 0.560007 1.72434 0
M  V30 1366 C 144.432 3.60595 -0.0188351 0
M  V30 1367 O 143.536 3.99398 1.02739 0
M  V30 1368 H 142.877 0.659047 -0.0809544 0
M  V30 1369 H 145.407 1.85784 -0.85705 0
M  V30 1370 H 145.417 4.07627 0.174476 0
M  V30 1371 H 144.092 4.04252 -0.977384 0
M  V30 1372 H 142.669 3.64011 0.809326 0
M  V30 1373 N 144.854 0.36279 1.53368 0
M  V30 1374 C 146.265 -0.117022 1.86333 0
M  V30 1375 C 146.616 -1.48397 1.28347 0
M  V30 1376 O 145.741 -2.07787 0.604428 0
M  V30 1377 C 146.336 -0.21912 3.38091 0
M  V30 1378 C 144.895 -0.643184 3.70864 0
M  V30 1379 C 144.042 0.211318 2.76494 0
M  V30 1380 H 146.993 0.581687 1.47655 0
M  V30 1381 H 147.014 -1.04319 3.6592 0
M  V30 1382 H 146.526 0.775902 3.80265 0
M  V30 1383 H 144.627 -1.64654 3.34245 0
M  V30 1384 H 144.74 -0.41973 4.77258 0
M  V30 1385 H 143.104 -0.319367 2.5269 0
M  V30 1386 H 143.887 1.20383 3.21501 0
M  V30 1387 N 146.332 -1.57332 0.0918853 0
M  V30 1388 C 147.578 -1.94524 -0.573425 0
M  V30 1389 C 147.911 -0.973578 -1.68033 0
M  V30 1390 O 147.186 -0.00609226 -1.94499 0
M  V30 1391 C 147.469 -3.41858 -1.13161 0
M  V30 1392 C 147.322 -4.4979 -0.0299747 0
M  V30 1393 C 148.641 -3.90435 -2.03098 0
M  V30 1394 H 145.76 -0.70734 -0.206975 0
M  V30 1395 H 148.402 -1.89309 0.161942 0
M  V30 1396 H 146.552 -3.46433 -1.7583 0
M  V30 1397 H 148.224 -4.57327 0.604112 0
M  V30 1398 H 146.467 -4.291 0.636833 0
M  V30 1399 H 147.138 -5.50069 -0.461287 0
M  V30 1400 H 149.614 -3.87992 -1.50338 0
M  V30 1401 H 148.49 -4.94097 -2.39081 0
M  V30 1402 H 148.751 -3.29541 -2.94712 0
M  V30 1403 N 147.81 0.181792 -1.56548 0
M  V30 1404 C 148.758 1.24461 -1.965 0
M  V30 1405 C 149.752 1.464 -0.852261 0
M  V30 1406 O 150.958 1.47103 -1.03733 0
M  V30 1407 H 147.333 0.418138 -0.625031 0
M  V30 1408 H 149.304 0.880714 -2.85107 0
M  V30 1409 C 148.053 2.57891 -2.33212 0
M  V30 1410 H 147.376 2.41829 -3.18369 0
M  V30 1411 H 148.816 3.3097 -2.65019 0
M  V30 1412 C 147.275 3.15871 -1.17163 0
M  V30 1413 O 147.805 3.9913 -0.453708 0
M  V30 1414 N 146.011 2.74808 -0.944936 0
M  V30 1415 H 145.558 2.07205 -1.53049 0
M  V30 1416 H 145.516 3.13939 -0.170286 0
M  V30 1417 N 149.288 1.51039 0.449983 0
M  V30 1418 C 150.251 1.70863 1.5277 0
M  V30 1419 C 151.251 0.578846 1.5002 0
M  V30 1420 O 152.441 0.846213 1.52266 0
M  V30 1421 C 149.573 1.75341 2.9235 0
M  V30 1422 H 150.766 2.67034 1.36502 0
M  V30 1423 H 148.319 1.40838 0.677812 0
M  V30 1424 H 149.054 0.809383 3.14037 0
M  V30 1425 H 148.839 2.57436 2.95752 0
M  V30 1426 H 150.329 1.92559 3.70555 0
M  V30 1427 N 150.766 -0.704594 1.40972 0
M  V30 1428 C 151.698 -1.82974 1.38033 0
M  V30 1429 C 152.711 -1.60305 0.283931 0
M  V30 1430 O 153.9 -1.69975 0.545042 0
M  V30 1431 C 151 -3.19578 1.12795 0
M  V30 1432 C 150.173 -3.69352 2.34302 0
M  V30 1433 C 149.232 -4.84601 2.05058 0
M  V30 1434 O 148.258 -4.96682 2.7802 0
M  V30 1435 N 149.46 -5.71194 1.03528 0
M  V30 1436 H 152.225 -1.85991 2.35005 0
M  V30 1437 H 149.786 -0.886567 1.35468 0
M  V30 1438 H 151.778 -3.9429 0.911987 0
M  V30 1439 H 150.348 -3.11642 0.24452 0
M  V30 1440 H 149.568 -2.85649 2.71659 0
M  V30 1441 H 150.856 -3.99345 3.1528 0
M  V30 1442 H 150.254 -5.64054 0.431217 0
M  V30 1443 H 148.811 -6.45843 0.879205 0
M  V30 1444 N 152.244 -1.26651 -0.937939 0
M  V30 1445 C 153.176 -1.04283 -2.04102 0
M  V30 1446 C 154.189 -0.00221014 -1.628 0
M  V30 1447 O 155.378 -0.242645 -1.76843 0
M  V30 1448 C 152.478 -0.557846 -3.34277 0
M  V30 1449 C 151.651 -1.66843 -4.04329 0
M  V30 1450 C 150.71 -1.18095 -5.12777 0
M  V30 1451 O 149.736 -1.87865 -5.37304 0
M  V30 1452 N 150.938 -0.0311006 -5.80492 0
M  V30 1453 H 153.703 -1.9927 -2.23856 0
M  V30 1454 H 151.264 -1.1808 -1.10764 0
M  V30 1455 H 153.256 -0.215836 -4.04124 0
M  V30 1456 H 151.826 0.298523 -3.11171 0
M  V30 1457 H 151.046 -2.18123 -3.28353 0
M  V30 1458 H 152.334 -2.41408 -4.47883 0
M  V30 1459 H 151.732 0.551486 -5.63005 0
M  V30 1460 H 150.289 0.251809 -6.51313 0
M  V30 1461 N 153.722 1.14298 -1.08507 0
M  V30 1462 C 154.97 1.84993 -0.813763 0
M  V30 1463 C 155.291 1.83405 0.662393 0
M  V30 1464 O 154.561 1.28319 1.48024 0
M  V30 1465 H 153.141 0.684966 -0.298045 0
M  V30 1466 H 155.803 1.385 -1.37126 0
M  V30 1467 H 154.899 2.89788 -1.15884 0
M  V30 1468 N 155.201 0.870884 1.31352 0
M  V30 1469 C 156.45 0.478408 1.95944 0
M  V30 1470 C 156.763 -0.974493 1.69597 0
M  V30 1471 O 157.969 -1.47316 2.28058 0
M  V30 1472 C 156.425 0.804609 3.50791 0
M  V30 1473 C 156.033 2.27433 3.85977 0
M  V30 1474 C 157.777 0.480648 4.2177 0
M  V30 1475 C 155.684 2.5429 5.33939 0
M  V30 1476 H 154.614 0.175175 0.733369 0
M  V30 1477 H 157.265 1.06391 1.4951 0
M  V30 1478 H 155.647 0.148347 3.95722 0
M  V30 1479 H 156.821 2.97373 3.52002 0
M  V30 1480 H 155.136 2.56442 3.28065 0
M  V30 1481 H 157.733 0.658519 5.30629 0
M  V30 1482 H 158.076 -0.578979 4.12254 0
M  V30 1483 H 158.609 1.09349 3.82476 0
M  V30 1484 H 155.348 3.58939 5.48491 0
M  V30 1485 H 154.868 1.88945 5.69263 0
M  V30 1486 H 156.547 2.39066 6.01212 0
M  V30 1487 N 156.679 -1.44442 0.630414 0
M  V30 1488 C 157.642 -2.29107 -0.0652523 0
M  V30 1489 C 158.642 -1.41002 -0.772995 0
M  V30 1490 O 159.832 -1.62881 -0.617692 0
M  V30 1491 C 156.964 -3.22564 -1.10296 0
M  V30 1492 H 158.157 -2.92103 0.679401 0
M  V30 1493 H 155.71 -1.51343 0.390517 0
M  V30 1494 H 156.445 -2.64416 -1.87762 0
M  V30 1495 H 156.23 -3.87491 -0.59941 0
M  V30 1496 H 157.72 -3.86167 -1.5895 0
M  V30 1497 N 158.157 -0.370918 -1.53173 0
M  V30 1498 C 159.434 0.273754 -1.93675 0
M  V30 1499 C 159.814 1.65938 -1.3049 0
M  V30 1500 O 159.162 2.23698 -0.465999 0
M  V30 1501 C 159.372 0.318602 -3.47543 0
M  V30 1502 C 160.72 0.556392 -4.20939 0
M  V30 1503 O 161.744 0.399587 -3.53952 0
M  V30 1504 O 160.603 0.862133 -5.39657 0
M  V30 1505 H 157.697 0.165448 -0.810281 0
M  V30 1506 H 160.243 -0.42409 -1.64315 0
M  V30 1507 H 159.015 -0.652687 -3.85818 0
M  V30 1508 H 158.638 1.06212 -3.83151 0
M  V30 1509 N 159.635 1.57281 -0.100228 0
M  V30 1510 C 160.883 1.94153 0.561157 0
M  V30 1511 C 161.204 0.983157 1.68401 0
M  V30 1512 O 160.474 0.0361132 1.95867 0
M  V30 1513 H 159.054 0.716791 0.210283 0
M  V30 1514 H 161.716 1.94202 -0.164765 0
M  V30 1515 H 160.812 2.96709 0.968008 0
M  V30 1516 N 161.113 -0.173488 1.56642 0
M  V30 1517 C 162.061 -1.23417 1.97157 0
M  V30 1518 C 163.055 -1.45946 0.860013 0
M  V30 1519 O 164.261 -1.46551 1.04512 0
M  V30 1520 H 160.636 -0.414818 0.62724 0
M  V30 1521 H 162.607 -0.865582 2.8557 0
M  V30 1522 C 161.356 -2.5665 2.34576 0
M  V30 1523 H 160.679 -2.40137 3.19647 0
M  V30 1524 H 162.119 -3.2956 2.6677 0
M  V30 1525 C 160.578 -3.15245 1.18836 0
M  V30 1526 O 161.108 -3.98883 0.474869 0
M  V30 1527 N 159.314 -2.74303 0.959497 0
M  V30 1528 H 158.861 -2.0639 1.54146 0
M  V30 1529 H 158.819 -3.13844 0.186932 0
M  V30 1530 N 162.591 -1.51276 -0.441967 0
M  V30 1531 C 163.539 -1.72823 -1.55676 0
M  V30 1532 C 164.533 -0.59445 -1.58627 0
M  V30 1533 O 165.739 -0.775715 -1.62427 0
M  V30 1534 H 162.114 -0.545983 -0.517113 0
M  V30 1535 H 164.085 -2.6628 -1.34675 0
M  V30 1536 C 162.834 -1.86619 -2.93375 0
M  V30 1537 H 162.157 -2.73264 -2.91834 0
M  V30 1538 H 163.597 -2.05709 -3.70756 0
M  V30 1539 C 162.056 -0.624842 -3.31055 0
M  V30 1540 O 162.586 0.222636 -4.01083 0
M  V30 1541 N 160.792 -0.470288 -2.86769 0
M  V30 1542 H 160.339 -1.161 -2.29953 0
M  V30 1543 H 160.297 0.359051 -3.12343 0
M  V30 1544 N 164.069 0.697108 -1.41344 0
M  V30 1545 C 165.315 1.45796 -1.41828 0
M  V30 1546 C 165.67 1.92382 -0.0261743 0
M  V30 1547 O 164.963 1.66522 0.947688 0
M  V30 1548 C 165.157 2.68553 -2.35826 0
M  V30 1549 C 164.986 2.33975 -3.84039 0
M  V30 1550 C 163.756 2.24414 -4.52732 0
M  V30 1551 C 165.954 1.97048 -4.75054 0
M  V30 1552 N 163.936 1.82705 -5.86082 0
M  V30 1553 C 165.307 1.66086 -5.9734 0
M  V30 1554 C 167.362 1.83845 -4.62715 0
M  V30 1555 C 166.065 1.23246 -7.08663 0
M  V30 1556 C 168.091 1.4241 -5.73998 0
M  V30 1557 C 167.453 1.12357 -6.95381 0
M  V30 1558 H 163.552 0.530859 -0.574206 0
M  V30 1559 H 166.136 0.806674 -1.77203 0
M  V30 1560 H 164.307 3.31404 -2.02549 0
M  V30 1561 H 166.039 3.35015 -2.2704 0
M  V30 1562 H 162.794 2.4276 -4.0665 0
M  V30 1563 H 163.218 1.64337 -6.56751 0
M  V30 1564 H 167.86 2.05734 -3.69369 0
M  V30 1565 H 165.578 1.00102 -8.01876 0
M  V30 1566 H 169.164 1.32746 -5.66454 0
M  V30 1567 H 168.044 0.807795 -7.80028 0
M  V30 1568 N 165.547 1.27147 0.931209 0
M  V30 1569 C 166.51 1.09615 2.01289 0
M  V30 1570 C 167.51 0.0412581 1.60747 0
M  V30 1571 O 168.7 0.285545 1.71844 0
M  V30 1572 C 165.832 0.669447 3.34262 0
M  V30 1573 H 167.025 2.05662 2.18273 0
M  V30 1574 H 164.578 1.09885 1.11153 0
M  V30 1575 H 165.313 -0.292572 3.22978 0
M  V30 1576 H 165.098 1.43127 3.65044 0
M  V30 1577 H 166.588 0.568921 4.13706 0
M  V30 1578 N 167.025 -1.13721 1.09112 0
M  V30 1579 C 168.271 -1.85198 0.826414 0
M  V30 1580 C 168.604 -1.83129 -0.646319 0
M  V30 1581 O 167.879 -1.2671 -1.47563 0
M  V30 1582 C 168.162 -3.33507 1.35812 0
M  V30 1583 C 168.015 -3.44108 2.89672 0
M  V30 1584 C 169.334 -4.28838 0.989256 0
M  V30 1585 H 166.453 -0.67243 0.301675 0
M  V30 1586 H 169.095 -1.33499 1.35197 0
M  V30 1587 H 167.245 -3.77666 0.911082 0
M  V30 1588 H 168.917 -3.08684 3.428 0
M  V30 1589 H 167.16 -2.85087 3.26967 0
M  V30 1590 H 167.831 -4.48388 3.21951 0
M  V30 1591 H 170.307 -3.92734 1.37475 0
M  V30 1592 H 169.183 -5.31051 1.38838 0
M  V30 1593 H 169.444 -4.4198 -0.102924 0
M  V30 1594 N 168.503 -0.877838 -1.30888 0
M  V30 1595 C 169.751 -0.491723 -1.96027 0
M  V30 1596 C 170.072 0.960827 -1.69685 0
M  V30 1597 O 169.342 1.67462 -1.01654 0
M  V30 1598 H 167.922 -0.17885 -0.725273 0
M  V30 1599 H 170.584 -1.11935 -1.59551 0
M  V30 1600 H 169.68 -0.656016 -3.05128 0
M  V30 1601 N 169.982 1.44106 -0.638065 0
M  V30 1602 C 171.23 2.01579 -0.145043 0
M  V30 1603 C 171.551 1.50496 1.24 0
M  V30 1604 O 170.821 0.711374 1.82527 0
M  V30 1605 H 169.401 0.745282 -0.05063 0
M  V30 1606 H 172.063 1.76516 -0.826327 0
M  V30 1607 H 171.159 3.11877 -0.118039 0
M  V30 1608 N 171.46 0.379036 1.52974 0
M  V30 1609 C 172.69 -0.20649 2.05566 0
M  V30 1610 C 173.098 -1.41906 1.25137 0
M  V30 1611 O 172.441 -1.81421 0.288464 0
M  V30 1612 C 172.503 -0.651086 3.53555 0
M  V30 1613 C 172.167 0.446626 4.54812 0
M  V30 1614 C 173.164 1.30079 5.03364 0
M  V30 1615 C 170.849 0.610719 4.98573 0
M  V30 1616 C 172.843 2.30426 5.94292 0
M  V30 1617 C 170.53 1.61754 5.89304 0
M  V30 1618 C 171.528 2.46274 6.37054 0
M  V30 1619 O 171.216 3.45237 7.25994 0
M  V30 1620 H 170.948 -0.0372381 0.674974 0
M  V30 1621 H 173.502 0.539718 1.98182 0
M  V30 1622 H 171.732 -1.44911 3.58522 0
M  V30 1623 H 173.421 -1.16112 3.88938 0
M  V30 1624 H 174.187 1.18527 4.70294 0
M  V30 1625 H 170.066 -0.0374044 4.60985 0
M  V30 1626 H 173.61 2.96432 6.31485 0
M  V30 1627 H 169.507 1.73348 6.21788 0
M  V30 1628 H 170.275 3.41124 7.44027 0
M  V30 1629 N 172.938 -1.57226 0.108567 0
M  V30 1630 C 174.354 -1.5766 -0.248058 0
M  V30 1631 C 174.554 -1.12063 -1.67464 0
M  V30 1632 O 173.61 -0.803236 -2.39383 0
M  V30 1633 C 174.923 -3.0069 -0.0242287 0
M  V30 1634 C 176.471 -3.12868 -0.0909372 0
M  V30 1635 C 176.946 -4.57879 0.105067 0
M  V30 1636 N 178.437 -4.63172 0.0506846 0
M  V30 1637 C 179.172 -5.73126 0.177396 0
M  V30 1638 N 178.668 -6.91866 0.359696 0
M  V30 1639 N 180.461 -5.61977 0.117709 0
M  V30 1640 H 172.612 -1.85169 1.04049 0
M  V30 1641 H 174.875 -0.85529 0.40888 0
M  V30 1642 H 174.581 -3.38299 0.961604 0
M  V30 1643 H 174.455 -3.6945 -0.76068 0
M  V30 1644 H 176.842 -2.75124 -1.06729 0
M  V30 1645 H 176.923 -2.46672 0.677225 0
M  V30 1646 H 176.567 -4.96321 1.07834 0
M  V30 1647 H 176.497 -5.22153 -0.682954 0
M  V30 1648 H 178.988 -3.778 -0.0871266 0
M  V30 1649 H 179.301 -7.71503 0.447529 0
M  V30 1650 H 177.646 -6.93874 0.395536 0
M  V30 1651 H 180.837 -4.68094 -0.0236741 0
M  V30 1652 H 181.01 -6.47627 0.219905 0
M  V30 1653 N 174.416 0.165178 -1.56732 0
M  V30 1654 C 175.644 0.896218 -1.86482 0
M  V30 1655 C 176.059 1.75555 -0.694675 0
M  V30 1656 O 175.416 1.79379 0.33607 0
M  V30 1657 C 175.467 1.76792 -3.1532 0
M  V30 1658 O 175.188 0.943239 -4.27825 0
M  V30 1659 C 176.689 2.6081 -3.58459 0
M  V30 1660 H 173.909 0.260064 -0.618553 0
M  V30 1661 H 176.453 0.163428 -2.03846 0
M  V30 1662 H 174.608 2.45398 -2.99764 0
M  V30 1663 H 175.022 1.53998 -5.01383 0
M  V30 1664 H 176.496 3.17579 -4.51495 0
M  V30 1665 H 176.973 3.35977 -2.82872 0
M  V30 1666 H 177.579 1.97526 -3.76648 0
M  V30 1667 N 175.894 1.51508 0.433938 0
M  V30 1668 C 177.171 1.54888 1.19453 0
M  V30 1669 C 177.551 0.315154 2.08734 0
M  V30 1670 O 176.899 -0.699558 2.17528 0
M  V30 1671 C 177.109 2.86467 1.99342 0
M  V30 1672 C 178.457 3.38545 2.56267 0
M  V30 1673 O 179.481 2.88041 2.0955 0
M  V30 1674 O 178.34 4.26675 3.41483 0
M  V30 1675 H 175.434 0.622863 0.544032 0
M  V30 1676 H 177.98 1.63823 0.442732 0
M  V30 1677 H 176.752 3.67718 1.33788 0
M  V30 1678 H 176.375 2.8071 2.8158 0
M  V30 1679 N 177.372 -0.689602 1.41712 0
M  V30 1680 C 178.304 -1.815 1.39966 0
M  V30 1681 C 179.317 -1.59995 0.300917 0
M  V30 1682 O 180.506 -1.69387 0.563039 0
M  V30 1683 C 177.606 -3.18364 1.16179 0
M  V30 1684 C 176.779 -3.66847 2.38206 0
M  V30 1685 C 175.838 -4.82398 2.10186 0
M  V30 1686 O 174.864 -4.93706 2.83272 0
M  V30 1687 N 176.066 -5.70064 1.0958 0
M  V30 1688 H 178.831 -1.83488 2.36965 0
M  V30 1689 H 176.392 -0.872149 1.36401 0
M  V30 1690 H 178.384 -3.93301 0.953756 0
M  V30 1691 H 176.954 -3.11365 0.27756 0
M  V30 1692 H 176.174 -2.82751 2.74673 0
M  V30 1693 H 177.462 -3.95978 3.19498 0
M  V30 1694 H 176.86 -5.63565 0.491019 0
M  V30 1695 H 175.417 -6.44874 0.947656 0
M  V30 1696 N 178.85 -1.27639 -0.924453 0
M  V30 1697 C 180.099 -1.13549 -1.66702 0
M  V30 1698 C 180.412 0.317487 -1.93006 0
M  V30 1699 O 181.618 0.579333 -2.65247 0
M  V30 1700 C 180.074 -1.98426 -3.00259 0
M  V30 1701 C 179.682 -3.484 -2.81641 0
M  V30 1702 C 181.426 -1.92993 -3.78092 0
M  V30 1703 C 179.333 -4.25464 -4.10773 0
M  V30 1704 H 178.263 -0.421351 -0.625283 0
M  V30 1705 H 180.914 -1.52085 -1.02676 0
M  V30 1706 H 179.296 -1.52736 -3.6536 0
M  V30 1707 H 180.47 -4.01973 -2.25287 0
M  V30 1708 H 178.785 -3.55245 -2.17232 0
M  V30 1709 H 181.382 -2.47844 -4.7379 0
M  V30 1710 H 181.725 -0.904281 -4.0636 0
M  V30 1711 H 182.258 -2.36595 -3.19793 0
M  V30 1712 H 178.997 -5.28566 -3.87683 0
M  V30 1713 H 178.517 -3.76667 -4.66779 0
M  V30 1714 H 180.196 -4.34812 -4.79111 0
M  V30 1715 N 180.328 1.1314 -1.09713 0
M  V30 1716 C 181.558 1.88048 -0.855656 0
M  V30 1717 C 181.966 1.79537 0.596919 0
M  V30 1718 O 181.309 1.16196 1.42282 0
M  V30 1719 C 181.371 3.38314 -1.21589 0
M  V30 1720 C 181.035 3.70605 -2.67397 0
M  V30 1721 C 182.032 3.69596 -3.65643 0
M  V30 1722 C 179.717 4.0017 -3.03593 0
M  V30 1723 C 181.711 3.977 -4.9811 0
M  V30 1724 C 179.398 4.27935 -4.36251 0
M  V30 1725 C 180.396 4.26685 -5.33318 0
M  V30 1726 O 180.084 4.53767 -6.63589 0
M  V30 1727 H 179.816 0.60208 -0.307368 0
M  V30 1728 H 182.37 1.44128 -1.46343 0
M  V30 1729 H 180.6 3.82752 -0.551177 0
M  V30 1730 H 182.289 3.94552 -0.953083 0
M  V30 1731 H 183.055 3.46826 -3.39023 0
M  V30 1732 H 178.934 4.00289 -2.2867 0
M  V30 1733 H 182.478 3.9664 -5.73866 0
M  V30 1734 H 178.375 4.50178 -4.62613 0
M  V30 1735 H 179.143 4.71422 -6.69107 0
M  V30 1736 N 181.806 0.884767 1.30421 0
M  V30 1737 C 183.083 0.423185 1.90967 0
M  V30 1738 C 183.463 -1.09605 1.80416 0
M  V30 1739 O 182.811 -1.93126 1.22125 0
M  V30 1740 C 183.021 0.921056 3.36627 0
M  V30 1741 C 184.369 0.955903 4.137 0
M  V30 1742 O 185.393 0.867706 3.4547 0
M  V30 1743 O 184.252 1.08614 5.35598 0
M  V30 1744 H 181.346 0.129369 0.816819 0
M  V30 1745 H 183.892 0.973653 1.3899 0
M  V30 1746 H 182.664 1.96489 3.3839 0
M  V30 1747 H 182.287 0.349741 3.96059 0
M  V30 1748 N 183.284 -1.43765 0.645699 0
M  V30 1749 C 184.509 -2.06767 0.161883 0
M  V30 1750 C 184.934 -1.48034 -1.16049 0
M  V30 1751 O 184.292 -0.587369 -1.71522 0
M  V30 1752 C 184.34 -3.60519 0.0762003 0
M  V30 1753 O 183.444 -4.00982 -0.963721 0
M  V30 1754 H 182.785 -0.657675 0.091429 0
M  V30 1755 H 185.315 -1.84397 0.886499 0
M  V30 1756 H 185.325 -4.07853 -0.109604 0
M  V30 1757 H 184 -4.02646 1.04157 0
M  V30 1758 H 182.577 -3.65253 -0.751312 0
M  V30 1759 N 184.763 -0.387143 -1.52771 0
M  V30 1760 C 186.012 0.19697 -2.00736 0
M  V30 1761 C 186.325 1.48082 -1.27793 0
M  V30 1762 O 187.531 2.14485 -1.66458 0
M  V30 1763 C 185.987 0.401568 -3.57653 0
M  V30 1764 C 185.595 -0.868907 -4.39493 0
M  V30 1765 C 187.339 0.942164 -4.13912 0
M  V30 1766 C 185.246 -0.632705 -5.88006 0
M  V30 1767 H 184.176 0.0773827 -0.750019 0
M  V30 1768 H 186.827 -0.50921 -1.76293 0
M  V30 1769 H 185.209 1.16954 -3.78335 0
M  V30 1770 H 186.383 -1.64133 -4.30577 0
M  V30 1771 H 184.698 -1.33429 -3.94443 0
M  V30 1772 H 187.295 1.13455 -5.22525 0
M  V30 1773 H 187.638 1.9106 -3.69867 0
M  V30 1774 H 188.171 0.233814 -3.97112 0
M  V30 1775 H 184.91 -1.57208 -6.36369 0
M  V30 1776 H 184.43 0.100825 -5.99715 0
M  V30 1777 H 186.109 -0.26642 -6.46451 0
M  V30 1778 N 186.241 1.57166 -0.116904 0
M  V30 1779 C 187.469 1.99473 0.549383 0
M  V30 1780 C 187.884 0.996541 1.60357 0
M  V30 1781 O 187.241 -0.0108731 1.82497 0
M  V30 1782 C 187.292 3.41788 1.17741 0
M  V30 1783 O 187.013 4.37788 0.165362 0
M  V30 1784 C 188.514 3.99216 1.92722 0
M  V30 1785 H 185.734 0.655009 0.145616 0
M  V30 1786 H 188.278 2.03494 -0.202625 0
M  V30 1787 H 186.433 3.38713 1.88021 0
M  V30 1788 H 186.847 5.20806 0.621403 0
M  V30 1789 H 188.321 5.00882 2.31995 0
M  V30 1790 H 188.798 3.3824 2.80161 0
M  V30 1791 H 189.404 4.0583 1.27209 0
M  V30 1792 N 187.719 -0.156864 1.56817 0
M  V30 1793 C 188.682 -1.17781 1.96622 0
M  V30 1794 C 189.682 -1.36401 0.851555 0
M  V30 1795 O 190.872 -1.33561 1.11836 0
M  V30 1796 C 188.004 -2.54008 2.27361 0
M  V30 1797 H 189.197 -0.836564 2.87996 0
M  V30 1798 H 186.75 -0.39985 1.51099 0
M  V30 1799 H 187.485 -2.9312 1.38748 0
M  V30 1800 H 187.27 -2.41856 3.08623 0
M  V30 1801 H 188.76 -3.27558 2.59029 0
M  V30 1802 N 189.197 -1.51736 -0.425897 0
M  V30 1803 C 190.16 -1.73271 -1.50032 0
M  V30 1804 C 191.16 -0.602639 -1.4908 0
M  V30 1805 O 192.35 -0.87033 -1.509 0
M  V30 1806 C 189.482 -1.79969 -2.89523 0
M  V30 1807 H 190.675 -2.69172 -1.32237 0
M  V30 1808 H 188.228 -1.41899 -0.65532 0
M  V30 1809 H 188.963 -0.859241 -3.1271 0
M  V30 1810 H 188.748 -2.62109 -2.91619 0
M  V30 1811 H 190.238 -1.9843 -3.67444 0
M  V30 1812 N 190.675 0.682077 -1.42076 0
M  V30 1813 C 191.623 1.81707 -1.45208 0
M  V30 1814 C 192.617 1.66183 -0.328591 0
M  V30 1815 O 193.823 1.7288 -0.501264 0
M  V30 1816 H 190.198 0.599014 -0.454628 0
M  V30 1817 H 192.169 1.76183 -2.40836 0
M  V30 1818 C 190.918 3.19816 -1.36428 0
M  V30 1819 H 190.241 3.32385 -2.22171 0
M  V30 1820 H 191.681 3.99272 -1.42681 0
M  V30 1821 C 190.14 3.36809 -0.078191 0
M  V30 1822 O 190.67 3.92124 0.87188 0
M  V30 1823 N 188.876 2.906 0.00229266 0
M  V30 1824 H 188.423 2.45772 -0.771616 0
M  V30 1825 H 188.381 3.02347 0.862179 0
M  V30 1826 N 192.153 1.28127 0.917671 0
M  V30 1827 C 193.401 1.14825 1.66312 0
M  V30 1828 C 193.722 -0.304379 1.9261 0
M  V30 1829 O 192.992 -1.21149 1.53947 0
M  V30 1830 H 191.572 0.421953 0.616413 0
M  V30 1831 H 194.234 1.608 1.10134 0
M  V30 1832 H 193.33 1.68489 2.62712 0
M  V30 1833 N 193.631 -1.12557 1.10312 0
M  V30 1834 C 194.856 -1.88405 0.867085 0
M  V30 1835 C 195.281 -1.79038 -0.576817 0
M  V30 1836 O 194.639 -1.14439 -1.40618 0
M  V30 1837 C 194.687 -3.3563 1.31851 0
M  V30 1838 O 193.791 -4.09565 0.482734 0
M  V30 1839 H 193.132 -0.585455 0.313271 0
M  V30 1840 H 195.662 -1.42352 1.4696 0
M  V30 1841 H 195.672 -3.86469 1.3079 0
M  V30 1842 H 194.347 -3.41765 2.37001 0
M  V30 1843 H 192.924 -3.68695 0.558448 0
M  V30 1844 N 195.109 -0.891671 -1.2995 0
M  V30 1845 C 196.039 -0.379797 -2.30391 0
M  V30 1846 C 197.02 0.540919 -1.6127 0
M  V30 1847 O 198.205 0.453352 -1.88834 0
M  V30 1848 C 195.335 0.400654 -3.44981 0
M  V30 1849 C 194.289 -0.428905 -4.25846 0
M  V30 1850 C 193.615 0.478557 -5.32554 0
M  V30 1851 C 194.915 -1.67458 -4.94727 0
M  V30 1852 H 196.609 -1.21914 -2.73454 0
M  V30 1853 H 194.155 -0.587675 -1.31462 0
M  V30 1854 H 196.108 0.769434 -4.14316 0
M  V30 1855 H 194.832 1.27371 -3.0074 0
M  V30 1856 H 193.491 -0.779911 -3.58208 0
M  V30 1857 H 193.139 1.34951 -4.84559 0
M  V30 1858 H 192.839 -0.0727433 -5.87555 0
M  V30 1859 H 194.363 0.843705 -6.04743 0
M  V30 1860 H 195.777 -1.376 -5.56542 0
M  V30 1861 H 194.174 -2.16659 -5.59624 0
M  V30 1862 H 195.244 -2.41518 -4.20473 0
M  V30 1863 N 196.587 1.43421 -0.653314 0
M  V30 1864 C 197.836 2.01032 -0.164076 0
M  V30 1865 C 198.149 1.52147 1.22926 0
M  V30 1866 O 199.355 2.02031 1.81371 0
M  V30 1867 C 197.811 3.59082 -0.24252 0
M  V30 1868 C 197.419 4.1696 -1.63855 0
M  V30 1869 C 199.163 4.24079 0.18911 0
M  V30 1870 C 197.07 5.67304 -1.67092 0
M  V30 1871 H 196 0.751798 -0.0575769 0
M  V30 1872 H 198.651 1.6439 -0.815362 0
M  V30 1873 H 197.033 3.93125 0.476276 0
M  V30 1874 H 198.207 3.94416 -2.38271 0
M  V30 1875 H 196.522 3.64335 -2.01616 0
M  V30 1876 H 199.119 5.34381 0.184775 0
M  V30 1877 H 199.462 3.98005 1.22056 0
M  V30 1878 H 199.995 3.94918 -0.477938 0
M  V30 1879 H 196.734 5.98145 -2.68146 0
M  V30 1880 H 196.254 5.91904 -0.970014 0
M  V30 1881 H 197.933 6.31344 -1.4147 0
M  V30 1882 N 198.065 0.39524 1.52563 0
M  V30 1883 C 198.975 -0.444232 2.30356 0
M  V30 1884 C 199.991 -1.06615 1.37511 0
M  V30 1885 O 201.167 -1.07067 1.70583 0
M  V30 1886 C 198.232 -1.55315 3.09964 0
M  V30 1887 C 197.293 -0.955734 4.18526 0
M  V30 1888 C 196.526 -2.01181 4.9433 0
M  V30 1889 O 196.749 -3.22781 4.70285 0
M  V30 1890 O 195.683 -1.62579 5.79527 0
M  V30 1891 H 199.509 0.189667 3.03107 0
M  V30 1892 H 197.094 0.1588 1.48554 0
M  V30 1893 H 198.976 -2.19724 3.59582 0
M  V30 1894 H 197.651 -2.17191 2.4002 0
M  V30 1895 H 196.558 -0.274743 3.7309 0
M  V30 1896 H 197.891 -0.381109 4.90722 0
M  V30 1897 N 199.544 -1.57102 0.125237 0
M  V30 1898 C 200.96 -1.57915 -0.231322 0
M  V30 1899 C 201.16 -1.13833 -1.66266 0
M  V30 1900 O 200.216 -0.828581 -2.38518 0
M  V30 1901 C 201.529 -3.00699 0.00766489 0
M  V30 1902 C 203.077 -3.12947 -0.0577483 0
M  V30 1903 C 203.552 -4.57742 0.153626 0
M  V30 1904 N 205.043 -4.63092 0.0998073 0
M  V30 1905 C 205.778 -5.72905 0.238174 0
M  V30 1906 N 205.274 -6.91445 0.433057 0
M  V30 1907 N 207.067 -5.6182 0.177308 0
M  V30 1908 H 199.218 -1.84055 1.06007 0
M  V30 1909 H 201.481 -0.850905 0.417929 0
M  V30 1910 H 201.187 -3.3726 0.997431 0
M  V30 1911 H 201.061 -3.70236 -0.721452 0
M  V30 1912 H 203.448 -2.7624 -1.03804 0
M  V30 1913 H 203.529 -2.4594 0.70335 0
M  V30 1914 H 203.173 -4.95149 1.13092 0
M  V30 1915 H 203.103 -5.22848 -0.627534 0
M  V30 1916 H 205.594 -3.77871 -0.047051 0
M  V30 1917 H 205.907 -7.70985 0.529332 0
M  V30 1918 H 204.252 -6.93415 0.469109 0
M  V30 1919 H 207.443 -4.68093 0.0259748 0
M  V30 1920 H 207.616 -6.47357 0.288582 0
M  V30 1921 N 201.022 0.148545 -1.56898 0
M  V30 1922 C 202.299 0.890019 -1.74178 0
M  V30 1923 C 202.679 1.99407 -0.692839 0
M  V30 1924 O 202.027 2.26671 0.288505 0
M  V30 1925 C 202.237 1.43389 -3.18183 0
M  V30 1926 C 203.585 1.89791 -3.79822 0
M  V30 1927 O 204.609 1.53134 -3.21603 0
M  V30 1928 O 203.468 2.57387 -4.82093 0
M  V30 1929 H 200.562 0.420496 -0.712118 0
M  V30 1930 H 203.108 0.134591 -1.69165 0
M  V30 1931 H 201.88 0.640383 -3.86024 0
M  V30 1932 H 201.503 2.25287 -3.27615 0
M  V30 1933 N 202.5 1.5196 0.417844 0
M  V30 1934 C 203.448 1.75278 1.52907 0
M  V30 1935 C 204.442 0.619611 1.57662 0
M  V30 1936 O 205.648 0.801457 1.61173 0
M  V30 1937 H 202.023 0.554141 0.508362 0
M  V30 1938 H 203.994 2.68389 1.30422 0
M  V30 1939 C 202.743 1.91262 2.90369 0
M  V30 1940 H 202.066 2.77872 2.8745 0
M  V30 1941 H 203.506 2.11581 3.67436 0
M  V30 1942 C 201.965 0.677431 3.30019 0
M  V30 1943 O 202.495 -0.158799 4.01386 0
M  V30 1944 N 200.701 0.515851 2.85985 0
M  V30 1945 H 200.248 1.19744 2.28077 0
M  V30 1946 H 200.206 -0.309315 3.12875 0
M  V30 1947 N 203.978 -0.674533 1.42435 0
M  V30 1948 C 205.206 -1.46283 1.46317 0
M  V30 1949 C 205.621 -1.88653 0.0745836 0
M  V30 1950 O 204.978 -1.58151 -0.91074 0
M  V30 1951 C 205.029 -2.71178 2.3905 0
M  V30 1952 O 204.75 -2.30586 3.72507 0
M  V30 1953 C 206.251 -3.64738 2.51955 0
M  V30 1954 H 203.471 -0.450104 0.497642 0
M  V30 1955 H 206.015 -0.828792 1.86953 0
M  V30 1956 H 204.17 -3.3077 2.01667 0
M  V30 1957 H 204.584 -3.11241 4.22172 0
M  V30 1958 H 206.058 -4.49096 3.20962 0
M  V30 1959 H 206.535 -4.10656 1.55752 0
M  V30 1960 H 207.141 -3.11038 2.90061 0
M  V30 1961 N 205.456 -1.28612 -0.910864 0
M  V30 1962 C 206.386 -1.15326 -2.03032 0
M  V30 1963 C 207.367 -0.0502924 -1.70026 0
M  V30 1964 O 208.552 -0.227797 -1.92859 0
M  V30 1965 C 205.682 -0.817343 -3.37545 0
M  V30 1966 C 204.636 -1.8754 -3.84724 0
M  V30 1967 C 203.962 -1.39305 -5.16235 0
M  V30 1968 C 205.262 -3.28244 -4.06267 0
M  V30 1969 H 206.956 -2.08975 -2.14406 0
M  V30 1970 H 204.502 -1.00612 -1.03021 0
M  V30 1971 H 206.455 -0.711151 -4.15356 0
M  V30 1972 H 205.179 0.154846 -3.26233 0
M  V30 1973 H 203.838 -1.97079 -3.09121 0
M  V30 1974 H 203.486 -0.409846 -5.01328 0
M  V30 1975 H 203.186 -2.10057 -5.48771 0
M  V30 1976 H 204.71 -1.30014 -5.96598 0
M  V30 1977 H 206.124 -3.21611 -4.74594 0
M  V30 1978 H 204.521 -3.96855 -4.5014 0
M  V30 1979 H 205.591 -3.72048 -3.10979 0
M  V30 1980 N 206.934 1.1197 -1.10907 0
M  V30 1981 C 207.864 2.19928 -0.784473 0
M  V30 1982 C 208.845 1.6833 0.244726 0
M  V30 1983 O 210.03 1.93892 0.109418 0
M  V30 1984 C 207.16 3.46597 -0.220827 0
M  V30 1985 C 206.114 4.11376 -1.18127 0
M  V30 1986 C 205.44 5.32554 -0.478594 0
M  V30 1987 C 206.74 4.56945 -2.52979 0
M  V30 1988 H 208.434 2.47337 -1.68715 0
M  V30 1989 H 205.98 1.18879 -0.812642 0
M  V30 1990 H 207.933 4.21396 0.0184278 0
M  V30 1991 H 206.657 3.1863 0.717113 0
M  V30 1992 H 205.316 3.38564 -1.40606 0
M  V30 1993 H 204.964 5.00856 0.463976 0
M  V30 1994 H 204.664 5.76844 -1.11912 0
M  V30 1995 H 206.188 6.10096 -0.248 0
M  V30 1996 H 207.602 5.23093 -2.3462 0
M  V30 1997 H 205.999 5.1203 -3.12962 0
M  V30 1998 H 207.069 3.70676 -3.12614 0
M  V30 1999 N 208.412 0.89855 1.29475 0
M  V30 2000 C 209.828 0.594483 1.48115 0
M  V30 2001 C 210.028 -0.86431 1.82022 0
M  V30 2002 O 209.084 -1.64457 1.91599 0
M  V30 2003 C 210.397 1.51932 2.59494 0
M  V30 2004 C 211.945 1.5244 2.7337 0
M  V30 2005 C 212.42 2.43548 3.87877 0
M  V30 2006 N 213.911 2.41589 3.95208 0
M  V30 2007 C 214.646 3.08789 4.83153 0
M  V30 2008 N 214.142 3.85265 5.75798 0
M  V30 2009 N 215.935 2.97952 4.76635 0
M  V30 2010 H 208.086 1.84207 1.05742 0
M  V30 2011 H 210.349 0.789251 0.525154 0
M  V30 2012 H 210.055 2.55865 2.41301 0
M  V30 2013 H 209.929 1.23899 3.56271 0
M  V30 2014 H 212.316 0.492518 2.90961 0
M  V30 2015 H 212.397 1.8451 1.77172 0
M  V30 2016 H 212.041 3.46829 3.71041 0
M  V30 2017 H 211.971 2.08788 4.83441 0
M  V30 2018 H 214.462 1.86025 3.28943 0
M  V30 2019 H 214.775 4.33598 6.39697 0
M  V30 2020 H 213.12 3.89371 5.75687 0
M  V30 2021 H 216.311 2.37723 4.03244 0
M  V30 2022 H 216.484 3.50599 5.44962 0
M  V30 2023 N 209.89 -1.43072 0.660911 0
M  V30 2024 C 211.115 -2.06584 0.183805 0
M  V30 2025 C 211.54 -1.49257 -1.14472 0
M  V30 2026 O 210.898 -0.605528 -1.70889 0
M  V30 2027 C 210.946 -3.60418 0.114434 0
M  V30 2028 O 210.05 -4.01981 -0.921137 0
M  V30 2029 H 209.391 -0.656669 0.0983994 0
M  V30 2030 H 211.921 -1.83447 0.906006 0
M  V30 2031 H 211.931 -4.07946 -0.0663394 0
M  V30 2032 H 210.606 -4.01519 1.08422 0
M  V30 2033 H 209.183 -3.66029 -0.71253 0
M  V30 2034 N 211.368 -0.403325 -1.52352 0
M  V30 2035 C 212.784 -0.0539281 -1.59509 0
M  V30 2036 C 212.984 1.43307 -1.41652 0
M  V30 2037 O 212.04 2.19924 -1.24056 0
M  V30 2038 C 213.353 -0.543654 -2.95745 0
M  V30 2039 C 214.901 -0.501125 -3.08962 0
M  V30 2040 C 215.376 -0.967267 -4.47669 0
M  V30 2041 N 216.867 -0.923849 -4.53893 0
M  V30 2042 C 217.602 -1.25578 -5.5948 0
M  V30 2043 N 217.098 -1.65889 -6.72646 0
M  V30 2044 N 218.891 -1.17613 -5.49658 0
M  V30 2045 H 211.042 -1.37123 -1.62206 0
M  V30 2046 H 213.305 -0.56294 -0.76276 0
M  V30 2047 H 213.011 -1.58275 -3.14073 0
M  V30 2048 H 212.885 0.0498042 -3.77167 0
M  V30 2049 H 215.272 0.528909 -2.90321 0
M  V30 2050 H 215.353 -1.13056 -2.2946 0
M  V30 2051 H 214.997 -1.9956 -4.67053 0
M  V30 2052 H 214.927 -0.314698 -5.25659 0
M  V30 2053 H 217.418 -0.627403 -3.72655 0
M  V30 2054 H 217.731 -1.89543 -7.49195 0
M  V30 2055 H 216.076 -1.69787 -6.73942 0
M  V30 2056 H 219.267 -0.860115 -4.6013 0
M  V30 2057 H 219.44 -1.43812 -6.3184 0
M  V30 2058 N 212.846 1.57033 -0.133567 0
M  V30 2059 C 214.123 1.87256 0.56522 0
M  V30 2060 C 214.503 1.03726 1.83859 0
M  V30 2061 O 213.851 0.120247 2.28183 0
M  V30 2062 C 214.061 3.3865 0.843636 0
M  V30 2063 C 215.409 4.07574 1.19032 0
M  V30 2064 O 216.433 3.43752 0.933429 0
M  V30 2065 O 215.292 5.20259 1.67312 0
M  V30 2066 H 212.386 0.775678 0.286796 0
M  V30 2067 H 214.932 1.68855 -0.169168 0
M  V30 2068 H 213.704 3.91257 -0.0581149 0
M  V30 2069 H 213.327 3.62532 1.63268 0
M  V30 2070 N 214.325 -0.140222 1.56975 0
M  V30 2071 C 215.573 -0.850005 1.83356 0
M  V30 2072 C 215.894 -1.81399 0.71551 0
M  V30 2073 O 215.164 -1.94136 -0.262294 0
M  V30 2074 H 213.744 -0.316886 0.676456 0
M  V30 2075 H 216.406 -0.132608 1.94448 0
M  V30 2076 H 215.502 -1.40814 2.78528 0
M  V30 2077 N 215.803 -1.52179 -0.40978 0
M  V30 2078 C 217.033 -1.69807 -1.17682 0
M  V30 2079 C 217.441 -0.406908 -1.84773 0
M  V30 2080 O 216.784 0.626863 -1.72673 0
M  V30 2081 C 216.846 -2.77712 -2.2829 0
M  V30 2082 C 216.51 -4.19481 -1.81341 0
M  V30 2083 C 217.507 -5.03345 -1.30154 0
M  V30 2084 C 215.192 -4.65713 -1.88194 0
M  V30 2085 C 217.186 -6.31511 -0.864416 0
M  V30 2086 C 214.873 -5.93869 -1.44093 0
M  V30 2087 C 215.871 -6.76597 -0.933023 0
M  V30 2088 O 215.559 -8.02354 -0.49838 0
M  V30 2089 H 215.291 -0.572372 -0.359675 0
M  V30 2090 H 217.845 -1.99511 -0.488311 0
M  V30 2091 H 216.075 -2.43383 -3.00502 0
M  V30 2092 H 217.764 -2.83946 -2.90051 0
M  V30 2093 H 218.53 -4.68819 -1.24232 0
M  V30 2094 H 214.409 -4.01424 -2.26671 0
M  V30 2095 H 217.953 -6.96033 -0.467286 0
M  V30 2096 H 213.85 -6.27903 -1.49694 0
M  V30 2097 H 214.618 -8.16135 -0.621747 0
M  V30 2098 N 217.281 0.66697 -1.42791 0
M  V30 2099 C 218.211 1.79218 -1.49677 0
M  V30 2100 C 219.192 1.66405 -0.352623 0
M  V30 2101 O 220.377 1.85708 -0.567993 0
M  V30 2102 C 217.507 3.17565 -1.40605 0
M  V30 2103 C 216.461 3.45124 -2.53127 0
M  V30 2104 C 215.787 4.83127 -2.29112 0
M  V30 2105 C 217.087 3.41236 -3.95418 0
M  V30 2106 H 218.781 1.73713 -2.43853 0
M  V30 2107 H 216.327 0.83432 -1.17367 0
M  V30 2108 H 218.28 3.96022 -1.44029 0
M  V30 2109 H 217.004 3.23767 -0.429271 0
M  V30 2110 H 215.663 2.69031 -2.49034 0
M  V30 2111 H 215.311 4.85988 -1.29709 0
M  V30 2112 H 215.011 5.02528 -3.04531 0
M  V30 2113 H 216.535 5.63859 -2.34297 0
M  V30 2114 H 217.949 4.09651 -4.01073 0
M  V30 2115 H 216.346 3.72173 -4.70752 0
M  V30 2116 H 217.416 2.39665 -4.21532 0
M  V30 2117 N 218.759 1.29093 0.90403 0
M  V30 2118 C 220.005 1.16986 1.65656 0
M  V30 2119 C 220.338 -0.278925 1.92186 0
M  V30 2120 O 219.613 -1.2019 1.5292 0
M  V30 2121 C 219.896 1.97908 3.0084 0
M  V30 2122 C 219.749 3.50903 2.81403 0
M  V30 2123 C 221.068 1.80208 4.01513 0
M  V30 2124 H 218.187 0.426346 0.601164 0
M  V30 2125 H 220.829 1.58518 1.04747 0
M  V30 2126 H 218.979 1.62616 3.52829 0
M  V30 2127 H 220.651 3.96153 2.36348 0
M  V30 2128 H 218.894 3.76045 2.1627 0
M  V30 2129 H 219.565 4.02791 3.77443 0
M  V30 2130 H 222.041 2.11025 3.58619 0
M  V30 2131 H 220.917 2.39184 4.94047 0
M  V30 2132 H 221.178 0.756119 4.35586 0
M  V30 2133 N 220.237 -1.11381 1.11499 0
M  V30 2134 C 221.514 -1.7955 0.775965 0
M  V30 2135 C 221.894 -1.97859 -0.73588 0
M  V30 2136 O 221.242 -1.56376 -1.66609 0
M  V30 2137 C 221.452 -3.13196 1.53977 0
M  V30 2138 C 222.8 -3.88227 1.71944 0
M  V30 2139 O 223.824 -3.22887 1.50407 0
M  V30 2140 O 222.683 -5.05477 2.07738 0
M  V30 2141 H 219.777 -0.777728 0.28119 0
M  V30 2142 H 222.323 -1.18118 1.21845 0
M  V30 2143 H 221.095 -2.95229 2.56818 0
M  V30 2144 H 220.718 -3.82342 1.09088 0
M  V30 2145 N 221.715 -0.905404 -1.28997 0
M  V30 2146 C 223.131 -0.60233 -1.47798 0
M  V30 2147 C 223.331 0.854645 -1.82478 0
M  V30 2148 O 222.387 1.63439 -1.92468 0
M  V30 2149 C 223.7 -1.53306 -2.58685 0
M  V30 2150 C 225.248 -1.53887 -2.72558 0
M  V30 2151 C 225.723 -2.45602 -3.86579 0
M  V30 2152 N 227.214 -2.43681 -3.93921 0
M  V30 2153 C 227.949 -3.11347 -4.81509 0
M  V30 2154 N 227.445 -3.88313 -5.73746 0
M  V30 2155 N 229.238 -3.00476 -4.75048 0
M  V30 2156 H 221.389 -1.84765 -1.04764 0
M  V30 2157 H 223.652 -0.792025 -0.520961 0
M  V30 2158 H 223.358 -2.57141 -2.39941 0
M  V30 2159 H 223.232 -1.25787 -3.55609 0
M  V30 2160 H 225.619 -0.507941 -2.90696 0
M  V30 2161 H 225.7 -1.85447 -1.76191 0
M  V30 2162 H 225.344 -3.48792 -3.69197 0
M  V30 2163 H 225.274 -2.11349 -4.82327 0
M  V30 2164 H 227.765 -1.87767 -3.27951 0
M  V30 2165 H 228.078 -4.36985 -6.37389 0
M  V30 2166 H 226.423 -3.92419 -5.73614 0
M  V30 2167 H 229.614 -2.39858 -4.01977 0
M  V30 2168 H 229.787 -3.53485 -5.43095 0
M  V30 2169 N 223.193 1.4272 -0.668489 0
M  V30 2170 C 224.156 2.292 0.00448567 0
M  V30 2171 C 225.156 1.43001 0.735339 0
M  V30 2172 O 226.346 1.64461 0.57429 0
M  V30 2173 C 223.478 3.25375 1.01705 0
M  V30 2174 H 224.671 2.90199 -0.756608 0
M  V30 2175 H 222.224 1.50254 -0.430506 0
M  V30 2176 H 222.959 2.69301 1.80686 0
M  V30 2177 H 222.744 3.88944 0.496463 0
M  V30 2178 H 224.234 3.90245 1.48655 0
M  V30 2179 N 224.671 0.411399 1.52136 0
M  V30 2180 C 226.087 0.0623865 1.59478 0
M  V30 2181 C 226.287 -1.42554 1.4241 0
M  V30 2182 O 225.343 -2.19263 1.2522 0
M  V30 2183 C 226.656 0.559331 2.95452 0
M  V30 2184 C 228.204 0.517503 3.08692 0
M  V30 2185 C 228.679 0.990994 4.4715 0
M  V30 2186 N 230.17 0.947908 4.53397 0
M  V30 2187 C 230.905 1.28544 5.58806 0
M  V30 2188 N 230.401 1.69454 6.71757 0
M  V30 2189 N 232.194 1.20526 5.49026 0
M  V30 2190 H 224.345 1.37982 1.61477 0
M  V30 2191 H 226.608 0.566977 0.759764 0
M  V30 2192 H 226.314 1.59938 3.1323 0
M  V30 2193 H 226.188 -0.0298014 3.77188 0
M  V30 2194 H 228.575 -0.513505 2.90598 0
M  V30 2195 H 228.656 1.14272 2.28857 0
M  V30 2196 H 228.3 2.02034 4.65988 0
M  V30 2197 H 228.23 0.34257 5.25485 0
M  V30 2198 H 230.721 0.647157 3.72317 0
M  V30 2199 H 231.034 1.93513 7.48179 0
M  V30 2200 H 229.379 1.73359 6.73032 0
M  V30 2201 H 232.57 0.884505 4.59667 0
M  V30 2202 H 232.743 1.47161 6.31069 0
M  V30 2203 N 226.149 -1.5696 0.141893 0
M  V30 2204 C 227.081 -2.13619 -0.830627 0
M  V30 2205 C 228.094 -1.08439 -1.21428 0
M  V30 2206 O 229.283 -1.35734 -1.15925 0
M  V30 2207 C 226.383 -2.63978 -2.12529 0
M  V30 2208 C 225.556 -3.93504 -1.9098 0
M  V30 2209 C 224.615 -4.29225 -3.04388 0
M  V30 2210 O 223.641 -4.97641 -2.76302 0
M  V30 2211 N 224.843 -3.88393 -4.31429 0
M  V30 2212 H 227.608 -2.97691 -0.34641 0
M  V30 2213 H 225.169 -1.61846 -0.0418375 0
M  V30 2214 H 227.161 -2.84891 -2.87436 0
M  V30 2215 H 225.731 -1.84659 -2.52229 0
M  V30 2216 H 224.951 -3.81269 -1.00139 0
M  V30 2217 H 226.239 -4.78154 -1.73914 0
M  V30 2218 H 225.637 -3.33257 -4.57117 0
M  V30 2219 H 224.194 -4.14368 -5.03133 0
M  V30 2220 N 227.627 0.131896 -1.57047 0
M  V30 2221 C 228.875 0.840269 -1.83804 0
M  V30 2222 C 229.196 1.81017 -0.72512 0
M  V30 2223 O 228.466 1.94272 0.251995 0
M  V30 2224 H 227.046 0.313294 -0.678127 0
M  V30 2225 H 229.708 0.122294 -1.94516 0
M  V30 2226 H 228.804 1.39335 -2.79271 0
M  V30 2227 N 229.106 1.52395 0.401703 0
M  V30 2228 C 230.036 1.79231 1.49661 0
M  V30 2229 C 231.017 0.643654 1.57452 0
M  V30 2230 O 232.202 0.889989 1.72606 0
M  V30 2231 C 229.332 1.94971 2.87409 0
M  V30 2232 C 228.286 3.10604 2.94465 0
M  V30 2233 C 227.612 3.11577 4.34538 0
M  V30 2234 C 228.912 4.49921 2.6527 0
M  V30 2235 H 230.606 2.70917 1.27454 0
M  V30 2236 H 228.152 1.30362 0.6117 0
M  V30 2237 H 230.105 2.12328 3.63999 0
M  V30 2238 H 228.829 0.999632 3.10926 0
M  V30 2239 H 227.488 2.93009 2.20321 0
M  V30 2240 H 227.136 2.14277 4.55076 0
M  V30 2241 H 226.836 3.89247 4.40183 0
M  V30 2242 H 228.36 3.31073 5.13053 0
M  V30 2243 H 229.774 4.67683 3.31581 0
M  V30 2244 H 228.171 5.29564 2.82281 0
M  V30 2245 H 229.241 4.57507 1.60671 0
M  V30 2246 N 230.584 -0.659388 1.43143 0
M  V30 2247 C 231.832 -1.41654 1.44147 0
M  V30 2248 C 232.153 -1.94893 0.0645739 0
M  V30 2249 O 231.423 -1.74044 -0.899198 0
M  V30 2250 H 230.003 -0.525708 0.530697 0
M  V30 2251 H 232.665 -0.778097 1.78694 0
M  V30 2252 H 231.761 -2.26195 2.1504 0
M  V30 2253 N 232.062 -1.29571 -0.897171 0
M  V30 2254 C 233.025 -1.14913 -1.98312 0
M  V30 2255 C 234.025 -0.0838629 -1.60581 0
M  V30 2256 O 235.215 -0.331006 -1.71026 0
M  V30 2257 C 232.347 -0.757835 -3.3237 0
M  V30 2258 H 233.54 -2.11377 -2.12743 0
M  V30 2259 H 231.093 -1.12793 -1.08201 0
M  V30 2260 H 231.828 0.206837 -3.2364 0
M  V30 2261 H 231.613 -1.52755 -3.61121 0
M  V30 2262 H 233.103 -0.678408 -4.12053 0
M  V30 2263 N 233.54 1.10788 -1.12088 0
M  V30 2264 C 234.817 1.79136 -0.785476 0
M  V30 2265 C 235.197 1.98246 0.725377 0
M  V30 2266 O 234.545 1.57258 1.65778 0
M  V30 2267 C 234.755 3.12375 -1.55636 0
M  V30 2268 C 236.103 3.8731 -1.74001 0
M  V30 2269 O 237.127 3.22085 -1.52117 0
M  V30 2270 O 235.986 5.04369 -2.10415 0
M  V30 2271 H 233.08 0.776226 -0.285311 0
M  V30 2272 H 235.626 1.1747 -1.2247 0
M  V30 2273 H 234.398 2.93863 -2.5838 0
M  V30 2274 H 234.021 3.81758 -1.11114 0
M  V30 2275 N 235.018 0.912232 1.28515 0
M  V30 2276 C 236.429 0.591352 1.77087 0
M  V30 2277 C 236.78 -0.8933 1.74684 0
M  V30 2278 O 235.905 -1.69876 1.34056 0
M  V30 2279 C 236.5 1.06668 3.2157 0
M  V30 2280 C 235.059 0.79675 3.67871 0
M  V30 2281 C 234.206 1.23427 2.48316 0
M  V30 2282 H 237.157 1.09365 1.15 0
M  V30 2283 H 237.178 0.407455 3.78312 0
M  V30 2284 H 236.69 2.14726 3.23287 0
M  V30 2285 H 234.791 -0.270679 3.71616 0
M  V30 2286 H 234.904 1.40343 4.58084 0
M  V30 2287 H 233.268 0.653036 2.46186 0
M  V30 2288 H 234.051 2.32316 2.52753 0
M  V30 2289 N 236.496 -1.42363 0.676048 0
M  V30 2290 C 237.444 -2.32596 -0.0131507 0
M  V30 2291 C 238.438 -1.49891 -0.789238 0
M  V30 2292 O 239.644 -1.65955 -0.697061 0
M  V30 2293 H 236.019 -0.751647 -0.0230481 0
M  V30 2294 H 237.99 -2.88421 0.765243 0
M  V30 2295 C 236.739 -3.34479 -0.949702 0
M  V30 2296 H 236.062 -3.98158 -0.361938 0
M  V30 2297 H 237.502 -4.00199 -1.4006 0
M  V30 2298 C 235.961 -2.66838 -2.05667 0
M  V30 2299 O 236.491 -2.50124 -3.14326 0
M  V30 2300 N 234.697 -2.25843 -1.82875 0
M  V30 2301 H 234.244 -2.39637 -0.945085 0
M  V30 2302 H 234.202 -1.80918 -2.5713 0
M  V30 2303 N 237.974 -0.419461 -1.51915 0
M  V30 2304 C 238.937 0.389116 -2.25873 0
M  V30 2305 C 239.937 0.964924 -1.28631 0
M  V30 2306 O 241.127 0.842179 -1.52489 0
M  V30 2307 C 238.259 1.54874 -3.03689 0
M  V30 2308 H 239.452 -0.258799 -2.98781 0
M  V30 2309 H 237.005 -0.172209 -1.55348 0
M  V30 2310 H 237.74 2.23323 -2.35154 0
M  V30 2311 H 237.525 1.14223 -3.75094 0
M  V30 2312 H 239.015 2.12046 -3.59759 0
M  V30 2313 N 239.452 1.56882 -0.150215 0
M  V30 2314 C 240.382 2.19935 0.784284 0
M  V30 2315 C 241.363 1.14854 1.25469 0
M  V30 2316 O 242.548 1.43209 1.31168 0
M  V30 2317 C 239.678 2.82349 2.02229 0
M  V30 2318 C 238.632 3.93285 1.68853 0
M  V30 2319 C 237.958 4.42649 2.99944 0
M  V30 2320 C 239.258 5.13904 0.932714 0
M  V30 2321 H 240.952 2.9828 0.258781 0
M  V30 2322 H 238.498 1.43473 0.123029 0
M  V30 2323 H 240.451 3.25126 2.68088 0
M  V30 2324 H 239.175 2.0134 2.57157 0
M  V30 2325 H 237.834 3.5113 1.05371 0
M  V30 2326 H 237.482 3.58458 3.52869 0
M  V30 2327 H 237.182 5.17476 2.78374 0
M  V30 2328 H 238.706 4.88099 3.66868 0
M  V30 2329 H 240.12 5.53506 1.49345 0
M  V30 2330 H 238.517 5.94515 0.81684 0
M  V30 2331 H 239.587 4.84842 -0.0749568 0
M  V30 2332 N 240.93 -0.123565 1.57115 0
M  V30 2333 C 242.16 -0.845233 1.88519 0
M  V30 2334 C 242.568 -1.74168 0.739064 0
M  V30 2335 O 241.911 -1.81244 -0.299355 0
M  V30 2336 C 241.973 -1.73452 3.14888 0
M  V30 2337 C 241.637 -1.01285 4.45635 0
M  V30 2338 C 242.634 -0.355774 5.18681 0
M  V30 2339 C 240.319 -0.99538 4.92339 0
M  V30 2340 C 242.313 0.309114 6.3665 0
M  V30 2341 C 240 -0.32669 6.10226 0
M  V30 2342 C 240.998 0.324406 6.82229 0
M  V30 2343 O 240.686 0.982437 7.97874 0
M  V30 2344 H 240.418 -0.248534 0.628655 0
M  V30 2345 H 242.972 -0.113907 2.05084 0
M  V30 2346 H 241.202 -2.50737 2.94394 0
M  V30 2347 H 242.891 -2.33021 3.32349 0
M  V30 2348 H 243.657 -0.360918 4.83655 0
M  V30 2349 H 239.536 -1.49159 4.36202 0
M  V30 2350 H 243.08 0.8179 6.92789 0
M  V30 2351 H 238.977 -0.319294 6.4471 0
M  V30 2352 H 239.745 0.886454 8.13686 0
M  V30 2353 N 242.408 -1.52605 -0.393616 0
M  V30 2354 C 243.638 -1.71046 -1.15874 0
M  V30 2355 C 244.046 -0.426483 -1.84331 0
M  V30 2356 O 243.389 0.608513 -1.73329 0
M  V30 2357 C 243.451 -2.80118 -2.25332 0
M  V30 2358 C 243.115 -4.21381 -1.76881 0
M  V30 2359 C 244.112 -5.04697 -1.24808 0
M  V30 2360 C 241.797 -4.67683 -1.83244 0
M  V30 2361 C 243.791 -6.32393 -0.797387 0
M  V30 2362 C 241.478 -5.95364 -1.37787 0
M  V30 2363 C 242.476 -6.77549 -0.861208 0
M  V30 2364 O 242.164 -8.02837 -0.413252 0
M  V30 2365 H 241.896 -0.576155 -0.353583 0
M  V30 2366 H 244.45 -2.00018 -0.467123 0
M  V30 2367 H 242.68 -2.46557 -2.97904 0
M  V30 2368 H 244.369 -2.87006 -2.87023 0
M  V30 2369 H 245.135 -4.70111 -1.19252 0
M  V30 2370 H 241.014 -4.03805 -2.22401 0
M  V30 2371 H 244.558 -6.9649 -0.393437 0
M  V30 2372 H 240.455 -6.29455 -1.43026 0
M  V30 2373 H 241.223 -8.16749 -0.53515 0
M  V30 2374 N 243.887 0.651787 -1.4349 0
M  V30 2375 C 245.136 1.40754 -1.44469 0
M  V30 2376 C 245.449 1.95463 -0.0731845 0
M  V30 2377 O 246.655 2.71471 0.0395721 0
M  V30 2378 C 245.111 2.54735 -2.5424 0
M  V30 2379 C 244.719 2.06628 -3.97504 0
M  V30 2380 C 246.463 3.32092 -2.64414 0
M  V30 2381 C 244.37 3.17829 -4.98737 0
M  V30 2382 H 243.3 0.528862 -0.53742 0
M  V30 2383 H 245.951 0.703365 -1.69485 0
M  V30 2384 H 244.333 3.2763 -2.22428 0
M  V30 2385 H 245.507 1.40734 -4.38783 0
M  V30 2386 H 243.822 1.42146 -3.91387 0
M  V30 2387 H 246.419 4.14952 -3.37223 0
M  V30 2388 H 246.762 3.80217 -1.69532 0
M  V30 2389 H 247.295 2.66279 -2.95534 0
M  V30 2390 H 244.034 2.74671 -5.95177 0
M  V30 2391 H 243.554 3.82429 -4.62069 0
M  V30 2392 H 245.233 3.82937 -5.21505 0
M  V30 2393 N 245.365 1.30045 0.890287 0
M  V30 2394 C 246.593 1.21472 1.67487 0
M  V30 2395 C 247.008 -0.223241 1.87476 0
M  V30 2396 O 246.365 -1.14828 1.41847 0
M  V30 2397 C 246.416 1.93394 3.05419 0
M  V30 2398 O 246.137 3.31576 2.86337 0
M  V30 2399 C 247.638 1.91414 3.99844 0
M  V30 2400 H 244.858 0.420604 0.522813 0
M  V30 2401 H 247.402 1.7158 1.11268 0
M  V30 2402 H 245.557 1.47099 3.58386 0
M  V30 2403 H 245.971 3.67929 3.73802 0
M  V30 2404 H 247.445 2.46285 4.94012 0
M  V30 2405 H 247.922 0.891833 4.3005 0
M  V30 2406 H 248.528 2.37496 3.52811 0
M  V30 2407 N 246.843 -1.10192 1.12674 0
M  V30 2408 C 248.091 -1.81845 0.881861 0
M  V30 2409 C 248.412 -1.85737 -0.593867 0
M  V30 2410 O 247.682 -1.33724 -1.4316 0
M  V30 2411 H 246.262 -0.673432 0.323261 0
M  V30 2412 H 248.924 -1.33316 1.42172 0
M  V30 2413 H 248.02 -2.85288 1.2656 0
M  V30 2414 N 248.321 -0.919034 -1.28029 0
M  V30 2415 C 249.569 -0.553838 -1.94363 0
M  V30 2416 C 249.89 0.906357 -1.72656 0
M  V30 2417 O 249.16 1.64143 -1.0693 0
M  V30 2418 H 247.74 -0.201834 -0.719216 0
M  V30 2419 H 250.402 -1.16954 -1.55909 0
M  V30 2420 H 249.498 -0.752758 -3.02886 0
M  V30 2421 N 249.799 1.42003 -0.683588 0
M  V30 2422 C 251.047 2.01015 -0.209101 0
M  V30 2423 C 251.368 1.54365 1.19149 0
M  V30 2424 O 250.638 0.769083 1.80172 0
M  V30 2425 H 249.218 0.743294 -0.074315 0
M  V30 2426 H 251.88 1.73798 -0.882066 0
M  V30 2427 H 250.976 3.11343 -0.2172 0
M  V30 2428 N 251.277 0.427512 1.51691 0
M  V30 2429 C 252.225 -0.403359 2.29076 0
M  V30 2430 C 253.219 -1.02962 1.34518 0
M  V30 2431 O 254.425 -0.965715 1.51901 0
M  V30 2432 H 250.8 -0.148879 0.737115 0
M  V30 2433 H 252.771 0.270295 2.97173 0
M  V30 2434 C 251.52 -1.49763 3.13794 0
M  V30 2435 H 250.843 -1.02508 3.86435 0
M  V30 2436 H 252.283 -2.05244 3.71014 0
M  V30 2437 C 250.742 -2.47536 2.28533 0
M  V30 2438 O 251.272 -3.51848 1.93819 0
M  V30 2439 N 249.478 -2.18187 1.91945 0
M  V30 2440 H 249.025 -1.33389 2.20375 0
M  V30 2441 H 248.983 -2.83848 1.35195 0
M  V30 2442 N 252.755 -1.56801 0.158532 0
M  V30 2443 C 254.032 -1.88131 -0.535357 0
M  V30 2444 C 254.412 -1.06638 -1.82186 0
M  V30 2445 O 253.76 -0.156533 -2.27963 0
M  V30 2446 C 253.97 -3.39949 -0.789653 0
M  V30 2447 C 255.318 -4.09416 -1.12533 0
M  V30 2448 O 256.342 -3.45194 -0.878622 0
M  V30 2449 O 255.201 -5.22855 -1.59014 0
M  V30 2450 H 252.295 -0.780143 -0.27442 0
M  V30 2451 H 254.841 -1.68564 0.19601 0
M  V30 2452 H 253.613 -3.91115 0.120353 0
M  V30 2453 H 253.236 -3.65084 -1.57479 0
M  V30 2454 N 254.233 0.115231 -1.57178 0
M  V30 2455 C 255.48 0.822351 -1.8505 0
M  V30 2456 C 255.808 1.79701 -0.744168 0
M  V30 2457 O 255.063 1.93909 0.26414 0
M  V30 2458 C 255.362 1.60324 -3.19423 0
M  V30 2459 C 255.028 0.772536 -4.44233 0
M  V30 2460 C 253.69 0.543468 -4.78121 0
M  V30 2461 C 256.042 0.193746 -5.2084 0
M  V30 2462 C 253.37 -0.274583 -5.86057 0
M  V30 2463 C 255.722 -0.611517 -6.29637 0
M  V30 2464 C 254.386 -0.850867 -6.62055 0
M  V30 2465 H 253.656 0.30092 -0.677147 0
M  V30 2466 H 256.303 0.0845802 -1.91313 0
M  V30 2467 H 254.608 2.41203 -3.08753 0
M  V30 2468 H 256.305 2.1544 -3.38211 0
M  V30 2469 H 252.895 0.96117 -4.17683 0
M  V30 2470 H 257.079 0.357926 -4.95008 0
M  V30 2471 H 252.335 -0.469206 -6.09597 0
M  V30 2472 H 256.509 -1.06697 -6.88178 0
M  V30 2473 H 254.136 -1.48657 -7.45523 0
M  V30 2474 N 255.711 1.52812 0.385517 0
M  V30 2475 C 256.641 1.80808 1.47752 0
M  V30 2476 C 257.622 0.660318 1.5676 0
M  V30 2477 O 258.807 0.908246 1.71652 0
M  V30 2478 C 255.937 1.98008 2.85324 0
M  V30 2479 C 254.891 3.13709 2.91154 0
M  V30 2480 C 254.217 3.16169 4.31209 0
M  V30 2481 C 255.517 4.52709 2.60483 0
M  V30 2482 H 257.211 2.72253 1.24573 0
M  V30 2483 H 254.757 1.31003 0.597839 0
M  V30 2484 H 256.71 2.16176 3.61726 0
M  V30 2485 H 255.434 1.03255 3.09848 0
M  V30 2486 H 254.093 2.95329 2.17201 0
M  V30 2487 H 253.741 2.19092 4.52778 0
M  V30 2488 H 253.441 3.93894 4.36029 0
M  V30 2489 H 254.965 3.36496 5.09512 0
M  V30 2490 H 256.379 4.71173 3.26602 0
M  V30 2491 H 254.776 5.32528 2.76648 0
M  V30 2492 H 255.846 4.59186 1.55809 0
M  V30 2493 N 257.189 -0.644168 1.43834 0
M  V30 2494 C 258.121 -1.76955 1.45669 0
M  V30 2495 C 259.134 -1.58956 0.351666 0
M  V30 2496 O 260.323 -1.6751 0.616644 0
M  V30 2497 C 257.423 -3.14507 1.26248 0
M  V30 2498 C 256.596 -3.59083 2.49757 0
M  V30 2499 C 255.655 -4.75467 2.25427 0
M  V30 2500 O 254.681 -4.84444 2.98836 0
M  V30 2501 N 255.883 -5.66289 1.27661 0
M  V30 2502 H 258.648 -1.75856 2.42682 0
M  V30 2503 H 256.209 -0.828312 1.39106 0
M  V30 2504 H 258.201 -3.90067 1.0784 0
M  V30 2505 H 256.771 -3.10325 0.376478 0
M  V30 2506 H 255.991 -2.7387 2.8353 0
M  V30 2507 H 257.279 -3.85613 3.31934 0
M  V30 2508 H 256.677 -5.61718 0.670064 0
M  V30 2509 H 255.234 -6.41533 1.15234 0
M  V30 2510 N 258.668 -1.30515 -0.883378 0
M  V30 2511 C 259.916 -1.19194 -1.63209 0
M  V30 2512 C 260.237 0.253205 -1.93349 0
M  V30 2513 O 259.507 1.17025 -1.57105 0
M  V30 2514 H 258.087 -0.438148 -0.605009 0
M  V30 2515 H 260.749 -1.63663 -1.05832 0
M  V30 2516 H 259.845 -1.75396 -2.58153 0
M  V30 2517 N 260.146 1.09593 -1.13257 0
M  V30 2518 C 261.562 1.33775 -0.870423 0
M  V30 2519 C 261.762 1.95327 0.494926 0
M  V30 2520 O 260.818 2.19853 1.2418 0
M  V30 2521 C 262.131 2.25106 -1.99369 0
M  V30 2522 C 263.679 2.3862 -2.02558 0
M  V30 2523 C 264.154 3.33285 -3.14142 0
M  V30 2524 N 265.645 3.40857 -3.13641 0
M  V30 2525 C 266.38 4.14101 -3.96621 0
M  V30 2526 N 265.876 4.90157 -4.8961 0
M  V30 2527 N 267.669 4.09808 -3.84726 0
M  V30 2528 H 259.82 0.680136 -2.01216 0
M  V30 2529 H 262.083 0.362133 -0.876107 0
M  V30 2530 H 261.789 1.87103 -2.97801 0
M  V30 2531 H 261.663 3.25481 -1.90635 0
M  V30 2532 H 264.05 2.75887 -1.0474 0
M  V30 2533 H 264.131 1.38028 -2.15364 0
M  V30 2534 H 263.775 2.96741 -4.12198 0
M  V30 2535 H 263.705 4.33776 -2.98574 0
M  V30 2536 H 266.196 2.86624 -2.46282 0
M  V30 2537 H 266.509 5.4347 -5.49418 0
M  V30 2538 H 264.854 4.89251 -4.93617 0
M  V30 2539 H 268.045 3.4949 -3.11408 0
M  V30 2540 H 268.218 4.66629 -4.49623 0
M  V30 2541 N 261.624 0.925811 1.2754 0
M  V30 2542 C 262.873 0.561084 1.93739 0
M  V30 2543 C 263.186 -0.901685 1.73577 0
M  V30 2544 O 264.392 -1.37511 2.34101 0
M  V30 2545 C 262.848 0.952668 3.47062 0
M  V30 2546 C 262.456 2.43599 3.75983 0
M  V30 2547 C 264.2 0.659103 4.19352 0
M  V30 2548 C 262.107 2.76707 5.22673 0
M  V30 2549 H 261.037 0.206122 0.725279 0
M  V30 2550 H 263.688 1.12637 1.44863 0
M  V30 2551 H 262.07 0.316053 3.94737 0
M  V30 2552 H 263.244 3.12035 3.39073 0
M  V30 2553 H 261.559 2.70125 3.16893 0
M  V30 2554 H 264.156 0.882985 5.27359 0
M  V30 2555 H 264.499 -0.403607 4.14339 0
M  V30 2556 H 265.032 1.25473 3.77494 0
M  V30 2557 H 261.771 3.8188 5.32774 0
M  V30 2558 H 261.291 2.12919 5.60737 0
M  V30 2559 H 262.97 2.6435 5.90532 0
M  V30 2560 N 263.102 -1.41638 0.69111 0
M  V30 2561 C 264.032 -2.3347 0.037248 0
M  V30 2562 C 265.013 -1.51575 -0.771947 0
M  V30 2563 O 266.198 -1.80126 -0.72582 0
M  V30 2564 C 263.328 -3.35354 -0.903064 0
M  V30 2565 C 262.282 -4.27526 -0.201288 0
M  V30 2566 C 261.608 -5.19747 -1.25565 0
M  V30 2567 C 262.908 -5.13959 0.929689 0
M  V30 2568 H 264.602 -2.88397 0.804227 0
M  V30 2569 H 262.148 -1.38669 0.388189 0
M  V30 2570 H 264.101 -3.98519 -1.36969 0
M  V30 2571 H 262.825 -2.78767 -1.70166 0
M  V30 2572 H 261.484 -3.65779 0.245265 0
M  V30 2573 H 261.132 -4.59479 -2.04666 0
M  V30 2574 H 260.832 -5.8225 -0.791128 0
M  V30 2575 H 262.356 -5.85789 -1.72288 0
M  V30 2576 H 263.77 -5.70718 0.543546 0
M  V30 2577 H 262.167 -5.85379 1.32103 0
M  V30 2578 H 263.237 -4.51389 1.77133 0
M  V30 2579 N 264.58 -0.43555 -1.51462 0
M  V30 2580 C 265.528 0.391205 -2.29287 0
M  V30 2581 C 266.522 1.02247 -1.35062 0
M  V30 2582 O 267.728 0.957646 -1.52411 0
M  V30 2583 H 264.103 0.144968 -0.737895 0
M  V30 2584 H 266.074 -0.286051 -2.97026 0
M  V30 2585 C 264.823 1.48096 -3.14583 0
M  V30 2586 H 264.146 1.00457 -3.86973 0
M  V30 2587 H 265.586 2.03273 -3.72097 0
M  V30 2588 C 264.045 2.46321 -2.29843 0
M  V30 2589 O 264.575 3.50815 -1.95682 0
M  V30 2590 N 262.781 2.17166 -1.931 0
M  V30 2591 H 262.328 1.32218 -2.21079 0
M  V30 2592 H 262.286 2.83127 -1.36698 0
M  V30 2593 N 266.058 1.56714 -0.166846 0
M  V30 2594 C 267.335 1.88412 0.525373 0
M  V30 2595 C 267.715 1.07602 1.81618 0
M  V30 2596 O 267.063 0.168621 2.27877 0
M  V30 2597 C 267.273 3.40363 0.771613 0
M  V30 2598 C 268.621 4.10007 1.1036 0
M  V30 2599 O 269.645 3.45655 0.860304 0
M  V30 2600 O 268.504 5.2369 1.56239 0
M  V30 2601 H 265.598 0.781587 0.270278 0
M  V30 2602 H 268.144 1.68458 -0.204946 0
M  V30 2603 H 266.916 3.91046 -0.141093 0
M  V30 2604 H 266.539 3.65914 1.55541 0
M  V30 2605 N 267.536 -0.106894 1.57237 0
M  V30 2606 C 268.782 -0.81373 1.85759 0
M  V30 2607 C 269.115 -1.78952 0.754315 0
M  V30 2608 O 268.39 -1.93029 -0.23879 0
M  V30 2609 C 268.673 -1.55293 3.24894 0
M  V30 2610 C 268.526 -0.595929 4.45835 0
M  V30 2611 C 269.845 -2.5063 3.61763 0
M  V30 2612 H 266.964 -0.294369 0.67566 0
M  V30 2613 H 269.606 -0.0776472 1.89841 0
M  V30 2614 H 267.756 -2.1804 3.21544 0
M  V30 2615 H 269.428 0.0236262 4.61294 0
M  V30 2616 H 267.671 0.0916191 4.33703 0
M  V30 2617 H 268.342 -1.15004 5.39887 0
M  V30 2618 H 270.818 -1.97982 3.65981 0
M  V30 2619 H 269.694 -2.99376 4.60071 0
M  V30 2620 H 269.955 -3.3385 2.89821 0
M  V30 2621 N 269.014 -1.53014 -0.377408 0
M  V30 2622 C 269.946 -1.74884 -1.48149 0
M  V30 2623 C 270.959 -0.629433 -1.5014 0
M  V30 2624 O 272.148 -0.905416 -1.53833 0
M  V30 2625 C 269.248 -1.80299 -2.86959 0
M  V30 2626 C 268.421 -3.09776 -3.08801 0
M  V30 2627 C 267.48 -3.06586 -4.27658 0
M  V30 2628 O 266.506 -3.80419 -4.23403 0
M  V30 2629 N 267.708 -2.26578 -5.34455 0
M  V30 2630 H 270.473 -2.70147 -1.29771 0
M  V30 2631 H 268.034 -1.51646 -0.56703 0
M  V30 2632 H 270.026 -1.75657 -3.64591 0
M  V30 2633 H 268.596 -0.92372 -2.98641 0
M  V30 2634 H 267.816 -3.27815 -2.18931 0
M  V30 2635 H 269.104 -3.95366 -3.20255 0
M  V30 2636 H 268.502 -1.66081 -5.40771 0
M  V30 2637 H 267.059 -2.27766 -6.10709 0
M  V30 2638 N 270.492 0.636531 -1.44174 0
M  V30 2639 C 271.455 1.73063 -1.50273 0
M  V30 2640 C 272.455 1.56113 -0.385397 0
M  V30 2641 O 273.645 1.61707 -0.64781 0
M  V30 2642 C 270.777 3.12096 -1.37145 0
M  V30 2643 H 271.97 1.69031 -2.47727 0
M  V30 2644 H 269.523 0.849706 -1.31186 0
M  V30 2645 H 270.258 3.21728 -0.407636 0
M  V30 2646 H 270.043 3.25805 -2.18159 0
M  V30 2647 H 271.533 3.91846 -1.44382 0
M  V30 2648 N 271.97 1.30982 0.876444 0
M  V30 2649 C 272.902 1.13902 1.98894 0
M  V30 2650 C 273.915 0.0798815 1.62604 0
M  V30 2651 O 275.104 0.326743 1.75484 0
M  V30 2652 C 272.204 0.716699 3.31235 0
M  V30 2653 C 271.377 1.85945 3.95908 0
M  V30 2654 C 270.436 1.42426 5.06558 0
M  V30 2655 O 269.462 2.13287 5.27729 0
M  V30 2656 N 270.664 0.308025 5.79682 0
M  V30 2657 H 273.429 2.09724 2.14094 0
M  V30 2658 H 270.99 1.2323 1.05004 0
M  V30 2659 H 272.982 0.408403 4.02634 0
M  V30 2660 H 271.552 -0.149719 3.12241 0
M  V30 2661 H 270.772 2.33541 3.17573 0
M  V30 2662 H 272.06 2.62503 4.35855 0
M  V30 2663 H 271.458 -0.282241 5.64995 0
M  V30 2664 H 270.015 0.0592282 6.51773 0
M  V30 2665 N 273.449 -1.08991 1.13837 0
M  V30 2666 C 274.381 -2.15606 0.777612 0
M  V30 2667 C 275.394 -1.61533 -0.202739 0
M  V30 2668 O 276.583 -1.78491 0.0181055 0
M  V30 2669 C 273.683 -3.3864 0.132623 0
M  V30 2670 C 272.856 -4.22115 1.1462 0
M  V30 2671 C 271.915 -5.23564 0.526074 0
M  V30 2672 O 270.941 -5.56678 1.18735 0
M  V30 2673 N 272.143 -5.76266 -0.699866 0
M  V30 2674 H 274.908 -2.47159 1.69506 0
M  V30 2675 H 272.469 -1.24747 1.03198 0
M  V30 2676 H 274.461 -4.03626 -0.29459 0
M  V30 2677 H 273.031 -3.04938 -0.687849 0
M  V30 2678 H 272.251 -3.53199 1.75055 0
M  V30 2679 H 273.539 -4.74709 1.83109 0
M  V30 2680 H 272.937 -5.51585 -1.25581 0
M  V30 2681 H 271.494 -6.42963 -1.06968 0
M  V30 2682 N 274.927 -0.932562 -1.27047 0
M  V30 2683 C 275.89 -0.440064 -2.24936 0
M  V30 2684 C 276.89 0.444071 -1.54547 0
M  V30 2685 O 278.08 0.244465 -1.72476 0
M  V30 2686 C 275.212 0.36678 -3.38921 0
M  V30 2687 H 276.405 -1.305 -2.70018 0
M  V30 2688 H 273.958 -0.713707 -1.39054 0
M  V30 2689 H 274.693 1.25033 -2.99228 0
M  V30 2690 H 274.478 -0.267204 -3.91188 0
M  V30 2691 H 275.968 0.701567 -4.11665 0
M  V30 2692 N 276.405 1.4127 -0.698611 0
M  V30 2693 C 277.368 2.29158 -0.044132 0
M  V30 2694 C 278.368 1.44529 0.704841 0
M  V30 2695 O 279.558 1.65643 0.539276 0
M  V30 2696 C 276.69 3.27459 0.947809 0
M  V30 2697 H 277.883 2.88529 -0.817994 0
M  V30 2698 H 275.436 1.49307 -0.46228 0
M  V30 2699 H 276.171 2.73073 1.74933 0
M  V30 2700 H 275.956 3.8991 0.41385 0
M  V30 2701 H 277.446 3.93311 1.40344 0
M  V30 2702 N 277.883 0.443576 1.51229 0
M  V30 2703 C 279.131 -0.120557 2.0174 0
M  V30 2704 C 279.452 -1.42665 1.32935 0
M  V30 2705 O 278.722 -1.9028 0.465866 0
M  V30 2706 H 277.302 -0.0475426 0.745486 0
M  V30 2707 H 279.964 0.587711 1.85828 0
M  V30 2708 H 279.06 -0.291972 3.10731 0
M  V30 2709 N 279.361 -1.56624 0.175154 0
M  V30 2710 C 280.777 -1.58571 -0.180966 0
M  V30 2711 C 280.977 -1.19065 -1.6256 0
M  V30 2712 O 280.033 -0.904044 -2.35761 0
M  V30 2713 C 281.346 -3.00522 0.103326 0
M  V30 2714 C 282.894 -3.12972 0.0418426 0
M  V30 2715 C 283.369 -4.57022 0.299175 0
M  V30 2716 N 284.86 -4.62541 0.247086 0
M  V30 2717 C 285.595 -5.71857 0.420318 0
M  V30 2718 N 285.091 -6.89717 0.652816 0
M  V30 2719 N 286.884 -5.60972 0.355957 0
M  V30 2720 H 279.035 -1.80589 1.11809 0
M  V30 2721 H 281.298 -0.837178 0.444788 0
M  V30 2722 H 281.004 -3.33916 1.10422 0
M  V30 2723 H 280.878 -3.72344 -0.603299 0
M  V30 2724 H 283.265 -2.79403 -0.949636 0
M  V30 2725 H 283.346 -2.43578 0.781238 0
M  V30 2726 H 282.99 -4.913 1.28788 0
M  V30 2727 H 282.92 -5.24579 -0.460876 0
M  V30 2728 H 285.411 -3.77829 0.0731895 0
M  V30 2729 H 285.724 -7.68911 0.774347 0
M  V30 2730 H 284.069 -6.91572 0.689476 0
M  V30 2731 H 287.26 -4.67773 0.174882 0
M  V30 2732 H 287.433 -6.46111 0.494388 0
M  V30 2733 N 280.839 0.0985539 -1.57292 0
M  V30 2734 C 281.769 1.12064 -2.04851 0
M  V30 2735 C 282.75 1.41981 -0.936767 0
M  V30 2736 O 283.935 1.52071 -1.20781 0
M  V30 2737 C 281.065 2.44144 -2.47004 0
M  V30 2738 C 280.019 2.28643 -3.6181 0
M  V30 2739 C 279.345 3.65869 -3.89929 0
M  V30 2740 C 280.645 1.72986 -4.92822 0
M  V30 2741 H 282.339 0.724979 -2.9049 0
M  V30 2742 H 279.885 0.34729 -1.39749 0
M  V30 2743 H 281.838 3.15914 -2.78884 0
M  V30 2744 H 280.562 2.85639 -1.5836 0
M  V30 2745 H 279.221 1.59318 -3.30172 0
M  V30 2746 H 278.869 4.04885 -2.98458 0
M  V30 2747 H 278.569 3.56344 -4.67218 0
M  V30 2748 H 280.093 4.39112 -4.2428 0
M  V30 2749 H 281.507 2.34593 -5.23105 0
M  V30 2750 H 279.904 1.74229 -5.74251 0
M  V30 2751 H 280.974 0.689007 -4.7998 0
M  V30 2752 N 282.317 1.53212 0.369288 0
M  V30 2753 C 283.563 1.69466 1.11397 0
M  V30 2754 C 283.896 0.443257 1.89074 0
M  V30 2755 O 283.171 -0.559386 1.86282 0
M  V30 2756 C 283.454 2.9422 2.07621 0
M  V30 2757 C 283.307 4.29508 1.33577 0
M  V30 2758 C 284.626 3.14565 3.07794 0
M  V30 2759 H 281.745 0.616667 0.403597 0
M  V30 2760 H 284.387 1.85845 0.395179 0
M  V30 2761 H 282.537 2.80387 2.68916 0
M  V30 2762 H 284.209 4.55147 0.750955 0
M  V30 2763 H 282.452 4.29088 0.637618 0
M  V30 2764 H 283.123 5.12926 2.03989 0
M  V30 2765 H 285.599 3.2756 2.56601 0
M  V30 2766 H 284.475 4.03297 3.72348 0
M  V30 2767 H 284.736 2.29675 3.77759 0
M  V30 2768 N 283.795 -0.628877 1.44509 0
M  V30 2769 C 285.072 -1.38733 1.37886 0
M  V30 2770 C 285.452 -2.11065 0.0387008 0
M  V30 2771 O 284.8 -2.06476 -0.97878 0
M  V30 2772 C 285.01 -2.35188 2.57852 0
M  V30 2773 C 286.358 -2.9845 3.02014 0
M  V30 2774 O 287.382 -2.45513 2.58073 0
M  V30 2775 O 286.241 -3.94487 3.78209 0
M  V30 2776 H 283.335 -0.621015 0.54614 0
M  V30 2777 H 285.881 -0.653744 1.56602 0
M  V30 2778 H 284.653 -1.80855 3.46998 0
M  V30 2779 H 284.276 -3.1596 2.4136 0
M  V30 2780 N 285.273 -1.31445 -0.869486 0
M  V30 2781 C 286.498 -1.24256 -1.66058 0
M  V30 2782 C 286.923 0.188928 -1.87149 0
M  V30 2783 O 286.281 1.13522 -1.4136 0
M  V30 2784 C 286.329 -1.9924 -3.00559 0
M  V30 2785 O 285.433 -1.33007 -3.90362 0
M  V30 2786 H 284.774 -0.428973 -0.506831 0
M  V30 2787 H 287.304 -1.73521 -1.08404 0
M  V30 2788 H 287.314 -2.08854 -3.50491 0
M  V30 2789 H 285.989 -3.03342 -2.84528 0
M  V30 2790 H 284.566 -1.31848 -3.48813 0
M  V30 2791 N 286.751 1.08385 -1.14413 0
M  V30 2792 C 287.997 1.81044 -0.913834 0
M  V30 2793 C 288.33 1.86004 0.558209 0
M  V30 2794 O 287.605 1.33606 1.4135 0
M  V30 2795 C 287.888 3.26648 -1.51569 0
M  V30 2796 C 287.741 3.29895 -3.0576 0
M  V30 2797 C 289.06 4.23629 -1.19273 0
M  V30 2798 H 286.179 0.65727 -0.333414 0
M  V30 2799 H 288.821 1.26896 -1.41412 0
M  V30 2800 H 286.971 3.72889 -1.09023 0
M  V30 2801 H 288.643 2.91977 -3.57137 0
M  V30 2802 H 286.886 2.69163 -3.40197 0
M  V30 2803 H 287.557 4.32516 -3.42977 0
M  V30 2804 H 290.033 3.85727 -1.56057 0
M  V30 2805 H 288.909 5.23822 -1.64017 0
M  V30 2806 H 289.17 4.41968 -0.108068 0
M  V30 2807 N 288.23 0.939286 1.26551 0
M  V30 2808 C 289.162 0.404704 2.25599 0
M  V30 2809 C 290.175 -0.470983 1.55838 0
M  V30 2810 O 291.364 -0.281734 1.76263 0
M  V30 2811 C 288.464 -0.43764 3.36062 0
M  V30 2812 C 287.637 0.421449 4.35365 0
M  V30 2813 C 286.696 -0.36015 5.24966 0
M  V30 2814 O 285.722 0.236167 5.6871 0
M  V30 2815 N 286.924 -1.65715 5.56344 0
M  V30 2816 H 289.689 1.25618 2.72103 0
M  V30 2817 H 287.25 0.807963 1.40298 0
M  V30 2818 H 289.242 -0.967866 3.92956 0
M  V30 2819 H 287.812 -1.18991 2.89067 0
M  V30 2820 H 287.032 1.1329 3.7757 0
M  V30 2821 H 288.32 1.00835 4.98708 0
M  V30 2822 H 287.718 -2.16378 5.22682 0
M  V30 2823 H 286.275 -2.13366 6.15888 0
M  V30 2824 N 289.708 -1.40897 0.706093 0
M  V30 2825 C 290.671 -2.29131 0.0562841 0
M  V30 2826 C 291.671 -1.44901 -0.697166 0
M  V30 2827 O 292.861 -1.65926 -0.530484 0
M  V30 2828 C 289.993 -3.27957 -0.93043 0
M  V30 2829 H 291.186 -2.88091 0.833284 0
M  V30 2830 H 288.739 -1.4906 0.470192 0
M  V30 2831 H 289.474 -2.73997 -1.73482 0
M  V30 2832 H 289.259 -3.90124 -0.393166 0
M  V30 2833 H 290.749 -3.94049 -1.38256 0
M  V30 2834 N 291.186 -0.45159 -1.50991 0
M  V30 2835 C 292.116 0.342898 -2.30969 0
M  V30 2836 C 293.097 1.00815 -1.37005 0
M  V30 2837 O 294.282 1.00907 -1.65926 0
M  V30 2838 C 291.412 1.43637 -3.16205 0
M  V30 2839 C 290.366 0.893818 -4.18563 0
M  V30 2840 C 289.692 2.08411 -4.92411 0
M  V30 2841 C 290.992 -0.0815568 -5.22236 0
M  V30 2842 H 292.686 -0.324556 -2.97636 0
M  V30 2843 H 290.232 -0.157531 -1.43136 0
M  V30 2844 H 292.185 1.9995 -3.70942 0
M  V30 2845 H 290.909 2.13232 -2.47386 0
M  V30 2846 H 289.568 0.352798 -3.64898 0
M  V30 2847 H 289.216 2.76658 -4.20082 0
M  V30 2848 H 288.916 1.72741 -5.61636 0
M  V30 2849 H 290.44 2.65251 -5.49976 0
M  V30 2850 H 291.854 0.391742 -5.7196 0
M  V30 2851 H 290.251 -0.351551 -5.99069 0
M  V30 2852 H 291.321 -1.01374 -4.74185 0
M  V30 2853 N 292.664 1.56529 -0.183458 0
M  V30 2854 C 293.596 2.15747 0.773697 0
M  V30 2855 C 294.609 1.1162 1.1851 0
M  V30 2856 O 295.798 1.3876 1.12285 0
M  V30 2857 C 292.898 2.6952 2.05456 0
M  V30 2858 C 292.071 3.98429 1.8048 0
M  V30 2859 C 291.13 4.37145 2.92901 0
M  V30 2860 O 290.156 5.04791 2.6301 0
M  V30 2861 N 291.358 3.99695 4.2098 0
M  V30 2862 H 294.123 2.98505 0.26736 0
M  V30 2863 H 291.684 1.619 -0.0010878 0
M  V30 2864 H 293.676 2.92412 2.79781 0
M  V30 2865 H 292.246 1.91282 2.47245 0
M  V30 2866 H 291.466 3.8379 0.899947 0
M  V30 2867 H 292.754 4.82597 1.61175 0
M  V30 2868 H 292.152 3.4526 4.48121 0
M  V30 2869 H 290.709 4.27562 4.9197 0
M  V30 2870 N 294.142 -0.090211 1.57342 0
M  V30 2871 C 295.074 -1.13541 1.99101 0
M  V30 2872 C 296.087 -1.3604 0.894258 0
M  V30 2873 O 297.276 -1.34606 1.17233 0
M  V30 2874 C 294.376 -2.49001 2.29895 0
M  V30 2875 C 293.549 -2.46712 3.61182 0
M  V30 2876 C 292.608 -3.64136 3.79857 0
M  V30 2877 O 291.634 -3.46405 4.51655 0
M  V30 2878 N 292.836 -4.83802 3.20806 0
M  V30 2879 H 295.601 -0.779942 2.89373 0
M  V30 2880 H 293.162 -0.279125 1.59476 0
M  V30 2881 H 295.154 -3.26166 2.39578 0
M  V30 2882 H 293.724 -2.76619 1.45605 0
M  V30 2883 H 292.944 -1.55058 3.62423 0
M  V30 2884 H 294.232 -2.42265 4.4742 0
M  V30 2885 H 293.63 -5.01112 2.62494 0
M  V30 2886 H 292.187 -5.58543 3.35966 0
M  V30 2887 N 295.62 -1.53406 -0.361157 0
M  V30 2888 C 296.583 -1.79479 -1.42548 0
M  V30 2889 C 297.583 -0.665327 -1.4639 0
M  V30 2890 O 298.773 -0.933549 -1.47073 0
M  V30 2891 C 295.905 -1.92087 -2.8163 0
M  V30 2892 H 297.098 -2.74538 -1.20701 0
M  V30 2893 H 294.651 -1.4455 -0.594546 0
M  V30 2894 H 295.386 -0.991099 -3.08784 0
M  V30 2895 H 295.171 -2.74241 -2.80239 0
M  V30 2896 H 296.661 -2.13836 -3.58697 0
M  V30 2897 N 297.098 0.621204 -1.44841 0
M  V30 2898 C 298.346 1.37783 -1.47852 0
M  V30 2899 C 298.667 1.94653 -0.116224 0
M  V30 2900 O 297.937 1.76367 0.852737 0
M  V30 2901 H 296.517 0.511453 -0.544449 0
M  V30 2902 H 299.179 0.730446 -1.80694 0
M  V30 2903 H 298.275 2.20414 -2.20961 0
M  V30 2904 N 298.576 1.31904 0.862503 0
M  V30 2905 C 299.539 1.20131 1.95195 0
M  V30 2906 C 300.539 0.126409 1.60302 0
M  V30 2907 O 301.729 0.376234 1.70089 0
M  V30 2908 C 298.861 0.845691 3.30244 0
M  V30 2909 H 300.054 2.16943 2.07064 0
M  V30 2910 H 297.607 1.15622 1.05172 0
M  V30 2911 H 298.342 -0.120957 3.24074 0
M  V30 2912 H 298.127 1.62276 3.56944 0
M  V30 2913 H 299.617 0.787418 4.10109 0
M  V30 2914 N 300.054 -1.07777 1.14986 0
M  V30 2915 C 301.47 -1.32373 0.891596 0
M  V30 2916 C 301.67 -1.9609 -0.463788 0
M  V30 2917 O 300.726 -2.21801 -1.20667 0
M  V30 2918 C 302.039 -2.21905 2.02925 0
M  V30 2919 C 303.587 -2.35367 2.06329 0
M  V30 2920 C 304.062 -3.28245 3.19405 0
M  V30 2921 N 305.553 -3.35824 3.19024 0
M  V30 2922 C 306.288 -4.07739 4.03158 0
M  V30 2923 N 305.784 -4.82306 4.97346 0
M  V30 2924 N 307.577 -4.03635 3.91197 0
M  V30 2925 H 299.728 -0.648039 2.02273 0
M  V30 2926 H 301.991 -0.348149 0.881757 0
M  V30 2927 H 301.697 -1.82342 3.0074 0
M  V30 2928 H 301.571 -3.22407 1.95789 0
M  V30 2929 H 303.958 -2.74186 1.09116 0
M  V30 2930 H 304.039 -1.34585 2.17533 0
M  V30 2931 H 303.683 -2.90146 4.16867 0
M  V30 2932 H 303.613 -4.28971 3.05437 0
M  V30 2933 H 306.104 -2.8267 2.50811 0
M  V30 2934 H 306.417 -5.34661 5.57994 0
M  V30 2935 H 304.762 -4.81337 5.01338 0
M  V30 2936 H 307.953 -3.44491 3.16928 0
M  V30 2937 H 308.126 -4.59417 4.5699 0
M  V30 2938 N 301.532 -0.945985 -1.26051 0
M  V30 2939 C 302.762 -0.612136 -1.97323 0
M  V30 2940 C 303.17 0.818171 -1.70595 0
M  V30 2941 O 302.513 1.55777 -0.973613 0
M  V30 2942 C 302.575 -0.780347 -3.50929 0
M  V30 2943 C 302.239 -2.18619 -4.01317 0
M  V30 2944 C 303.236 -3.16209 -4.12683 0
M  V30 2945 C 300.921 -2.50805 -4.35203 0
M  V30 2946 C 302.915 -4.44085 -4.57238 0
M  V30 2947 C 300.602 -3.78912 -4.79446 0
M  V30 2948 C 301.6 -4.75365 -4.90425 0
M  V30 2949 O 301.288 -6.01191 -5.3369 0
M  V30 2950 H 301.02 -0.229134 -0.635982 0
M  V30 2951 H 303.574 -1.27036 -1.61404 0
M  V30 2952 H 301.804 -0.0649864 -3.86645 0
M  V30 2953 H 303.493 -0.448842 -4.03411 0
M  V30 2954 H 304.259 -2.92668 -3.86744 0
M  V30 2955 H 300.138 -1.76463 -4.2589 0
M  V30 2956 H 303.682 -5.19373 -4.65723 0
M  V30 2957 H 299.579 -4.02265 -5.0483 0
M  V30 2958 H 300.347 -6.04442 -5.51899 0
M  V30 2959 N 303.011 1.40521 -0.713556 0
M  V30 2960 C 304.26 2.00155 -0.249192 0
M  V30 2961 C 304.573 1.57224 1.16362 0
M  V30 2962 O 305.779 2.09542 1.72639 0
M  V30 2963 C 304.235 3.5773 -0.3946 0
M  V30 2964 C 303.843 4.09635 -1.81392 0
M  V30 2965 C 305.587 4.24499 0.00907364 0
M  V30 2966 C 303.494 5.59707 -1.91003 0
M  V30 2967 H 302.424 0.74868 -0.0894114 0
M  V30 2968 H 305.075 1.60784 -0.884352 0
M  V30 2969 H 303.457 3.94792 0.30911 0
M  V30 2970 H 304.631 3.83955 -2.54785 0
M  V30 2971 H 302.946 3.55456 -2.16888 0
M  V30 2972 H 305.543 5.34683 -0.0420404 0
M  V30 2973 H 305.886 4.02824 1.05065 0
M  V30 2974 H 306.419 3.92536 -0.645007 0
M  V30 2975 H 303.158 5.86234 -2.93275 0
M  V30 2976 H 302.678 5.87258 -1.22019 0
M  V30 2977 H 304.357 6.24776 -1.6812 0
M  V30 2978 N 304.489 0.459591 1.5075 0
M  V30 2979 C 305.735 -0.0994966 2.02556 0
M  V30 2980 C 306.068 -1.40399 1.3417 0
M  V30 2981 O 305.343 -1.88892 0.463683 0
M  V30 2982 C 305.626 -0.295242 3.58888 0
M  V30 2983 C 305.479 1.02947 4.37861 0
M  V30 2984 C 306.798 -1.05502 4.27267 0
M  V30 2985 H 303.917 -0.034686 0.736183 0
M  V30 2986 H 306.559 0.602938 1.8018 0
M  V30 2987 H 304.709 -0.893563 3.78084 0
M  V30 2988 H 306.381 1.66348 4.30263 0
M  V30 2989 H 304.624 1.62885 4.02058 0
M  V30 2990 H 305.295 0.846281 5.45474 0
M  V30 2991 H 307.771 -0.547993 4.12476 0
M  V30 2992 H 306.647 -1.16077 5.36486 0
M  V30 2993 H 306.908 -2.08875 3.89645 0
M  V30 2994 N 305.967 -1.56429 0.191757 0
M  V30 2995 C 307.213 -1.97777 -0.448554 0
M  V30 2996 C 307.546 -1.07847 -1.61501 0
M  V30 2997 O 306.821 -0.129774 -1.94067 0
M  V30 2998 C 307.104 -3.48362 -0.911906 0
M  V30 2999 C 306.957 -4.4907 0.256136 0
M  V30 3000 C 308.276 -4.02561 -1.77857 0
M  V30 3001 H 305.395 -0.719071 -0.161572 0
M  V30 3002 H 308.037 -1.87896 0.282007 0
M  V30 3003 H 306.187 -3.56914 -1.53442 0
M  V30 3004 H 307.859 -4.5256 0.893733 0
M  V30 3005 H 306.102 -4.24181 0.908436 0
M  V30 3006 H 306.773 -5.51889 -0.11053 0
M  V30 3007 H 309.249 -3.96767 -1.25359 0
M  V30 3008 H 308.125 -5.08301 -2.07174 0
M  V30 3009 H 308.386 -3.47616 -2.73158 0
M  V30 3010 N 307.445 0.0818655 -1.57387 0
M  V30 3011 C 308.691 0.778884 -1.87896 0
M  V30 3012 C 309.046 1.75692 -0.784229 0
M  V30 3013 O 308.339 1.90417 0.212567 0
M  V30 3014 C 308.533 1.53513 -3.22752 0
M  V30 3015 C 308.362 0.631838 -4.45239 0
M  V30 3016 C 307.132 0.272571 -5.04564 0
M  V30 3017 C 309.33 -0.0670191 -5.14256 0
M  V30 3018 N 307.312 -0.637498 -6.10581 0
M  V30 3019 C 308.683 -0.834653 -6.14356 0
M  V30 3020 C 310.738 -0.139551 -4.97704 0
M  V30 3021 C 309.441 -1.66806 -6.99691 0
M  V30 3022 C 311.467 -0.959903 -5.83558 0
M  V30 3023 C 310.829 -1.71561 -6.83188 0
M  V30 3024 H 306.928 0.260764 -0.737242 0
M  V30 3025 H 309.512 0.0408227 -1.94657 0
M  V30 3026 H 307.683 2.24398 -3.17018 0
M  V30 3027 H 309.415 2.18038 -3.40942 0
M  V30 3028 H 306.17 0.62319 -4.69482 0
M  V30 3029 H 306.594 -1.08548 -6.68241 0
M  V30 3030 H 311.236 0.430376 -4.20604 0
M  V30 3031 H 308.954 -2.249 -7.76174 0
M  V30 3032 H 312.54 -1.01887 -5.72809 0
M  V30 3033 H 311.42 -2.34017 -7.48469 0
M  V30 3034 N 308.923 1.53595 0.353017 0
M  V30 3035 C 309.853 1.83902 1.43883 0
M  V30 3036 C 310.834 0.693421 1.55324 0
M  V30 3037 O 312.019 0.944452 1.69687 0
M  V30 3038 C 309.149 2.04016 2.8106 0
M  V30 3039 C 308.103 3.19814 2.84434 0
M  V30 3040 C 307.429 3.25244 4.24406 0
M  V30 3041 C 308.729 4.58133 2.50822 0
M  V30 3042 H 310.423 2.74835 1.1877 0
M  V30 3043 H 307.969 1.32242 0.569917 0
M  V30 3044 H 309.922 2.238 3.57059 0
M  V30 3045 H 308.646 1.09804 3.07588 0
M  V30 3046 H 307.305 2.9987 2.10887 0
M  V30 3047 H 306.953 2.28646 4.48029 0
M  V30 3048 H 306.653 4.03054 4.27576 0
M  V30 3049 H 308.177 3.47228 5.0226 0
M  V30 3050 H 309.591 4.77995 3.16534 0
M  V30 3051 H 307.988 5.38276 2.6529 0
M  V30 3052 H 309.058 4.62387 1.46034 0
M  V30 3053 N 310.401 -0.613514 1.45168 0
M  V30 3054 C 311.331 -1.7354 1.56225 0
M  V30 3055 C 312.312 -1.64981 0.41414 0
M  V30 3056 O 313.497 -1.83472 0.636526 0
M  V30 3057 C 310.627 -3.12128 1.52295 0
M  V30 3058 C 309.581 -3.35491 2.65762 0
M  V30 3059 C 308.907 -4.74291 2.46885 0
M  V30 3060 C 310.207 -3.26325 4.0781 0
M  V30 3061 H 311.901 -1.64543 2.50132 0
M  V30 3062 H 309.447 -0.790185 1.20383 0
M  V30 3063 H 311.4 -3.90404 1.58628 0
M  V30 3064 H 310.124 -3.2195 0.549139 0
M  V30 3065 H 308.783 -2.59603 2.58847 0
M  V30 3066 H 308.431 -4.80839 1.47657 0
M  V30 3067 H 308.131 -4.9088 3.22972 0
M  V30 3068 H 309.655 -5.54775 2.55063 0
M  V30 3069 H 311.069 -3.94483 4.16 0
M  V30 3070 H 309.466 -3.54445 4.8424 0
M  V30 3071 H 310.536 -2.23855 4.30136 0
M  V30 3072 N 311.879 -1.3236 -0.855495 0
M  V30 3073 C 313.29 -1.2056 -1.42556 0
M  V30 3074 C 313.641 0.182209 -1.95352 0
M  V30 3075 O 312.766 1.08088 -1.87472 0
M  V30 3076 C 313.361 -2.1826 -2.59129 0
M  V30 3077 C 311.92 -2.10351 -3.12137 0
M  V30 3078 C 311.067 -2.06674 -1.84882 0
M  V30 3079 H 314.018 -1.442 -0.662727 0
M  V30 3080 H 314.039 -1.78064 -3.36264 0
M  V30 3081 H 313.551 -3.19257 -2.20673 0
M  V30 3082 H 311.652 -1.12599 -3.55179 0
M  V30 3083 H 311.765 -3.00135 -3.73438 0
M  V30 3084 H 310.129 -1.51901 -2.04446 0
M  V30 3085 H 310.912 -3.09451 -1.48643 0
M  V30 3086 N 313.357 1.07166 -1.15556 0
M  V30 3087 C 314.634 1.76546 -0.842069 0
M  V30 3088 C 315.014 2.00453 0.661939 0
M  V30 3089 O 314.362 1.62452 1.60691 0
M  V30 3090 C 314.572 3.07266 -1.65495 0
M  V30 3091 C 315.92 3.81578 -1.86234 0
M  V30 3092 O 316.944 3.17083 -1.62287 0
M  V30 3093 O 315.803 4.97419 -2.26355 0
M  V30 3094 H 312.897 0.766756 -0.309862 0
M  V30 3095 H 315.443 1.13514 -1.26145 0
M  V30 3096 H 314.215 2.85494 -2.67598 0
M  V30 3097 H 313.838 3.7803 -1.23203 0
M  V30 3098 N 314.835 0.952656 1.25548 0
M  V30 3099 C 315.765 0.489287 2.28316 0
M  V30 3100 C 316.746 -0.463359 1.63667 0
M  V30 3101 O 317.931 -0.36274 1.90782 0
M  V30 3102 C 315.061 -0.235603 3.465 0
M  V30 3103 C 314.015 0.631593 4.23314 0
M  V30 3104 C 313.341 -0.223923 5.34231 0
M  V30 3105 C 314.641 1.90871 4.86174 0
M  V30 3106 H 316.335 1.34822 2.67326 0
M  V30 3107 H 313.881 0.649728 1.28509 0
M  V30 3108 H 315.834 -0.570882 4.17515 0
M  V30 3109 H 314.558 -1.12877 3.06474 0
M  V30 3110 H 313.217 0.949929 3.54079 0
M  V30 3111 H 312.865 -1.11678 4.90446 0
M  V30 3112 H 312.565 0.35299 5.86539 0
M  V30 3113 H 314.089 -0.554214 6.0808 0
M  V30 3114 H 315.503 1.63997 5.49343 0
M  V30 3115 H 313.9 2.43112 5.4865 0
M  V30 3116 H 314.97 2.61304 4.08471 0
M  V30 3117 N 316.313 -1.40141 0.720998 0
M  V30 3118 C 317.561 -2.0039 0.262323 0
M  V30 3119 C 317.882 -1.57469 -1.15015 0
M  V30 3120 O 317.152 -0.816582 -1.78069 0
M  V30 3121 H 315.732 -0.741063 0.093996 0
M  V30 3122 H 318.394 -1.71398 0.927835 0
M  V30 3123 H 317.49 -3.10658 0.299671 0
M  V30 3124 N 317.792 -0.46758 -1.50504 0
M  V30 3125 C 318.722 0.318381 -2.31319 0
M  V30 3126 C 319.703 0.993564 -1.38066 0
M  V30 3127 O 320.888 0.991411 -1.66987 0
M  V30 3128 C 318.018 1.40275 -3.17711 0
M  V30 3129 C 316.972 0.849373 -4.19487 0
M  V30 3130 C 316.298 2.03177 -4.94594 0
M  V30 3131 C 317.598 -0.136942 -5.2212 0
M  V30 3132 H 319.292 -0.356106 -2.97275 0
M  V30 3133 H 316.838 -0.172703 -1.42961 0
M  V30 3134 H 318.791 1.96004 -3.73042 0
M  V30 3135 H 317.515 2.10596 -2.49634 0
M  V30 3136 H 316.174 0.314076 -3.65252 0
M  V30 3137 H 315.822 2.72187 -4.22993 0
M  V30 3138 H 315.522 1.66774 -5.63436 0
M  V30 3139 H 317.046 2.59403 -5.52759 0
M  V30 3140 H 318.46 0.331056 -5.72343 0
M  V30 3141 H 316.857 -0.41507 -5.98663 0
M  V30 3142 H 317.927 -1.06398 -4.73083 0
M  V30 3143 N 319.27 1.56325 -0.20005 0
M  V30 3144 C 320.498 2.02105 0.442874 0
M  V30 3145 C 320.913 1.08014 1.5485 0
M  V30 3146 O 320.27 0.0858797 1.82298 0
M  V30 3147 C 320.321 3.47549 0.994583 0
M  V30 3148 O 320.042 4.38049 -0.0669322 0
M  V30 3149 C 321.543 4.0887 1.7129 0
M  V30 3150 H 318.763 0.661807 0.110691 0
M  V30 3151 H 321.307 2.02134 -0.310207 0
M  V30 3152 H 319.462 3.48204 1.69803 0
M  V30 3153 H 319.876 5.23368 0.344462 0
M  V30 3154 H 321.35 5.12475 2.05118 0
M  V30 3155 H 321.827 3.52615 2.61838 0
M  V30 3156 H 322.433 4.12002 1.05518 0
M  V30 3157 N 320.748 -0.0735177 1.57428 0
M  V30 3158 C 322.159 -0.625551 1.75908 0
M  V30 3159 C 322.51 -1.78 0.825261 0
M  V30 3160 O 321.635 -2.16398 0.00893964 0
M  V30 3161 C 322.23 -1.14155 3.18989 0
M  V30 3162 C 320.789 -1.63946 3.38819 0
M  V30 3163 C 319.936 -0.558151 2.71625 0
M  V30 3164 H 322.887 0.152647 1.57964 0
M  V30 3165 H 322.908 -2.0104 3.23053 0
M  V30 3166 H 322.42 -0.301116 3.8693 0
M  V30 3167 H 320.521 -2.50321 2.7599 0
M  V30 3168 H 320.634 -1.71759 4.47253 0
M  V30 3169 H 318.998 -1.00278 2.34129 0
M  V30 3170 H 319.781 0.272071 3.4222 0
M  V30 3171 N 322.226 -1.5378 -0.344866 0
M  V30 3172 C 323.189 -1.80981 -1.40637 0
M  V30 3173 C 324.189 -0.680816 -1.45676 0
M  V30 3174 O 325.379 -0.949095 -1.46075 0
M  V30 3175 C 322.511 -1.95063 -2.79577 0
M  V30 3176 H 323.704 -2.75803 -1.17783 0
M  V30 3177 H 321.257 -1.45173 -0.579181 0
M  V30 3178 H 321.992 -1.02379 -3.07716 0
M  V30 3179 H 321.777 -2.77198 -2.77315 0
M  V30 3180 H 323.267 -2.17629 -3.56409 0
M  V30 3181 N 323.704 0.605807 -1.45491 0
M  V30 3182 C 324.932 1.39136 -1.5313 0
M  V30 3183 C 325.347 1.88082 -0.164507 0
M  V30 3184 O 324.704 1.62316 0.834247 0
M  V30 3185 C 324.755 2.59463 -2.51716 0
M  V30 3186 O 324.476 2.12551 -3.83084 0
M  V30 3187 C 325.977 3.52301 -2.6907 0
M  V30 3188 H 323.197 0.425849 -0.51855 0
M  V30 3189 H 325.741 0.73865 -1.90694 0
M  V30 3190 H 323.896 3.20772 -2.17219 0
M  V30 3191 H 324.31 2.90744 -4.36541 0
M  V30 3192 H 325.784 4.33271 -3.42024 0
M  V30 3193 H 326.261 4.02757 -1.75167 0
M  V30 3194 H 326.867 2.96845 -3.04571 0
M  V30 3195 N 325.182 1.32811 0.848464 0
M  V30 3196 C 326.429 1.23724 1.60308 0
M  V30 3197 C 326.757 -0.1994 1.93475 0
M  V30 3198 O 326.012 -1.15406 1.5805 0
M  V30 3199 C 326.311 2.04831 2.92881 0
M  V30 3200 C 325.977 3.54125 2.79117 0
M  V30 3201 C 324.639 3.94829 2.7507 0
M  V30 3202 C 326.991 4.49036 2.64606 0
M  V30 3203 C 324.319 5.28675 2.544 0
M  V30 3204 C 326.671 5.83033 2.4547 0
M  V30 3205 C 325.335 6.22931 2.39819 0
M  V30 3206 H 324.605 0.452737 0.586609 0
M  V30 3207 H 327.252 1.64301 0.983743 0
M  V30 3208 H 325.557 1.57001 3.58968 0
M  V30 3209 H 327.254 1.95164 3.50303 0
M  V30 3210 H 323.844 3.21801 2.83094 0
M  V30 3211 H 328.028 4.18505 2.66772 0
M  V30 3212 H 323.284 5.58637 2.48465 0
M  V30 3213 H 327.458 6.56186 2.33222 0
M  V30 3214 H 325.085 7.26584 2.23562 0
M  V30 3215 N 326.66 -1.06551 1.16123 0
M  V30 3216 C 327.908 -1.78947 0.939267 0
M  V30 3217 C 328.229 -1.87532 -0.534476 0
M  V30 3218 O 327.499 -1.38211 -1.38833 0
M  V30 3219 H 326.079 -0.662807 0.344523 0
M  V30 3220 H 328.741 -1.28725 1.46342 0
M  V30 3221 H 327.837 -2.81117 1.35572 0
M  V30 3222 N 328.138 -0.959301 -1.25041 0
M  V30 3223 C 329.386 -0.615393 -1.92503 0
M  V30 3224 C 329.707 0.850969 -1.75452 0
M  V30 3225 O 328.977 1.60658 -1.12098 0
M  V30 3226 H 327.557 -0.224613 -0.712431 0
M  V30 3227 H 330.219 -1.21855 -1.5211 0
M  V30 3228 H 329.315 -0.848738 -3.00338 0
M  V30 3229 N 329.616 1.39756 -0.72842 0
M  V30 3230 C 331.027 1.83498 -0.344289 0
M  V30 3231 C 331.378 1.60868 1.12321 0
M  V30 3232 O 330.503 1.09634 1.86573 0
M  V30 3233 C 331.098 3.33114 -0.618112 0
M  V30 3234 C 329.657 3.753 -0.287549 0
M  V30 3235 C 328.804 2.62831 -0.884048 0
M  V30 3236 H 331.755 1.28842 -0.926578 0
M  V30 3237 H 331.776 3.80334 0.112349 0
M  V30 3238 H 331.288 3.49553 -1.68625 0
M  V30 3239 H 329.389 3.64451 0.775012 0
M  V30 3240 H 329.502 4.72945 -0.765512 0
M  V30 3241 H 327.866 2.52792 -0.311149 0
M  V30 3242 H 328.649 2.82078 -1.95671 0
M  V30 3243 N 331.094 0.475555 1.50254 0
M  V30 3244 C 332.024 -0.30611 2.31485 0
M  V30 3245 C 333.005 -0.986228 1.38591 0
M  V30 3246 O 334.19 -0.982541 1.67511 0
M  V30 3247 C 331.32 -1.38588 3.1845 0
M  V30 3248 C 330.274 -0.827115 4.19932 0
M  V30 3249 C 329.6 -2.00551 4.95665 0
M  V30 3250 C 330.9 0.16463 5.2204 0
M  V30 3251 H 332.594 0.371866 2.97082 0
M  V30 3252 H 330.14 0.180282 1.42867 0
M  V30 3253 H 332.093 -1.94023 3.74076 0
M  V30 3254 H 330.817 -2.09269 2.50747 0
M  V30 3255 H 329.476 -0.294702 3.65414 0
M  V30 3256 H 329.124 -2.6994 4.2443 0
M  V30 3257 H 328.824 -1.63784 5.64313 0
M  V30 3258 H 330.348 -2.56468 5.54127 0
M  V30 3259 H 331.762 -0.300699 5.72511 0
M  V30 3260 H 330.159 0.446813 5.98434 0
M  V30 3261 H 331.229 1.08905 4.72512 0
M  V30 3262 N 332.573 -1.56217 0.208337 0
M  V30 3263 C 333.505 -2.1695 -0.739276 0
M  V30 3264 C 334.518 -1.13492 -1.1672 0
M  V30 3265 O 335.707 -1.40529 -1.10063 0
M  V30 3266 C 332.807 -2.72755 -2.01142 0
M  V30 3267 C 331.98 -4.0125 -1.74118 0
M  V30 3268 C 331.039 -4.41749 -2.85909 0
M  V30 3269 O 330.065 -5.08912 -2.54946 0
M  V30 3270 N 331.267 -4.06342 -4.14568 0
M  V30 3271 H 334.032 -2.98893 -0.219837 0
M  V30 3272 H 331.593 -1.61878 0.0268445 0
M  V30 3273 H 333.585 -2.96826 -2.75094 0
M  V30 3274 H 332.155 -1.95191 -2.4417 0
M  V30 3275 H 331.375 -3.85173 -0.838775 0
M  V30 3276 H 332.663 -4.851 -1.53477 0
M  V30 3277 H 332.061 -3.52345 -4.42571 0
M  V30 3278 H 330.618 -4.35335 -4.85105 0
M  V30 3279 N 334.051 0.0651679 -1.57465 0
M  V30 3280 C 335.462 0.616213 -1.76238 0
M  V30 3281 C 335.813 1.7756 -0.834689 0
M  V30 3282 O 334.938 2.1639 -0.0204156 0
M  V30 3283 C 335.533 1.12462 -3.1959 0
M  V30 3284 C 334.092 1.62147 -3.39684 0
M  V30 3285 C 333.239 0.543739 -2.71917 0
M  V30 3286 H 336.19 -0.161022 -1.57881 0
M  V30 3287 H 336.211 1.99324 -3.24114 0
M  V30 3288 H 335.723 0.280592 -3.87084 0
M  V30 3289 H 333.824 2.48854 -2.77313 0
M  V30 3290 H 333.937 1.69385 -4.48158 0
M  V30 3291 H 332.301 0.990352 -2.34657 0
M  V30 3292 H 333.084 -0.290216 -3.42071 0
M  V30 3293 N 335.529 1.53961 0.336706 0
M  V30 3294 C 336.776 1.71536 1.07618 0
M  V30 3295 C 337.104 0.482125 1.8843 0
M  V30 3296 O 336.359 -0.536142 1.88213 0
M  V30 3297 C 336.658 2.93493 2.03953 0
M  V30 3298 C 336.324 4.28811 1.39399 0
M  V30 3299 C 334.986 4.65602 1.21523 0
M  V30 3300 C 337.338 5.12844 0.929541 0
M  V30 3301 C 334.666 5.84037 0.558312 0
M  V30 3302 C 337.018 6.31951 0.286505 0
M  V30 3303 C 335.682 6.67432 0.0954869 0
M  V30 3304 H 334.952 0.627696 0.393801 0
M  V30 3305 H 337.599 1.88186 0.354715 0
M  V30 3306 H 335.904 2.71475 2.82504 0
M  V30 3307 H 337.601 3.04285 2.61174 0
M  V30 3308 H 334.191 3.99858 1.54311 0
M  V30 3309 H 338.375 4.84947 1.05548 0
M  V30 3310 H 333.631 6.10097 0.398995 0
M  V30 3311 H 337.805 6.96352 -0.0814376 0
M  V30 3312 H 335.432 7.59063 -0.415579 0
M  V30 3313 N 337.007 -0.598083 1.45811 0
M  V30 3314 C 337.97 -1.69018 1.54808 0
M  V30 3315 C 338.97 -1.55037 0.426652 0
M  V30 3316 O 340.16 -1.59932 0.690456 0
M  V30 3317 C 337.292 -3.0835 1.45371 0
M  V30 3318 H 338.485 -1.62403 2.52121 0
M  V30 3319 H 336.038 -0.814626 1.33392 0
M  V30 3320 H 336.773 -3.20534 0.492793 0
M  V30 3321 H 336.558 -3.19907 2.26721 0
M  V30 3322 H 338.048 -3.8788 1.54721 0
M  V30 3323 N 338.485 -1.33259 -0.841409 0
M  V30 3324 C 339.71 -1.2775 -1.63385 0
M  V30 3325 C 340.135 0.149188 -1.87507 0
M  V30 3326 O 339.493 1.10498 -1.43736 0
M  V30 3327 C 339.541 -2.05571 -2.96265 0
M  V30 3328 O 338.645 -1.41257 -3.87453 0
M  V30 3329 H 337.986 -0.439627 -0.497618 0
M  V30 3330 H 340.516 -1.75782 -1.04699 0
M  V30 3331 H 340.526 -2.16241 -3.45982 0
M  V30 3332 H 339.201 -3.09309 -2.7803 0
M  V30 3333 H 337.778 -1.39217 -3.45938 0
M  V30 3334 N 339.963 1.05934 -1.16686 0
M  V30 3335 C 340.895 2.13468 -0.834503 0
M  V30 3336 C 341.908 1.62013 0.15984 0
M  V30 3337 O 343.097 1.7838 -0.0654228 0
M  V30 3338 C 340.197 3.3817 -0.222361 0
M  V30 3339 C 339.37 4.18928 -1.25771 0
M  V30 3340 C 338.429 5.21985 -0.664703 0
M  V30 3341 O 337.455 5.53334 -1.33453 0
M  V30 3342 N 338.657 5.77919 0.546834 0
M  V30 3343 H 341.422 2.42578 -1.75999 0
M  V30 3344 H 338.983 1.21967 -1.06469 0
M  V30 3345 H 340.975 4.04266 0.187472 0
M  V30 3346 H 339.545 3.06655 0.606758 0
M  V30 3347 H 338.765 3.48433 -1.84358 0
M  V30 3348 H 340.053 4.69687 -1.95631 0
M  V30 3349 H 339.451 5.54721 1.10912 0
M  V30 3350 H 338.008 6.45573 0.898829 0
M  V30 3351 N 341.441 0.965919 1.2453 0
M  V30 3352 C 342.371 0.513476 2.27784 0
M  V30 3353 C 343.352 -0.445974 1.6415 0
M  V30 3354 O 344.537 -0.342485 1.91156 0
M  V30 3355 C 341.667 -0.198839 3.4673 0
M  V30 3356 C 340.621 0.676456 4.2262 0
M  V30 3357 C 339.947 -0.167248 5.34438 0
M  V30 3358 C 341.247 1.96017 4.84123 0
M  V30 3359 H 342.941 1.3765 2.65881 0
M  V30 3360 H 340.487 0.663321 1.27813 0
M  V30 3361 H 342.44 -0.526567 4.18097 0
M  V30 3362 H 341.164 -1.0962 3.07654 0
M  V30 3363 H 339.823 0.98743 3.53052 0
M  V30 3364 H 339.471 -1.0647 4.91603 0
M  V30 3365 H 339.171 0.415181 5.86131 0
M  V30 3366 H 340.695 -0.489688 6.08633 0
M  V30 3367 H 342.109 1.69814 5.47573 0
M  V30 3368 H 340.506 2.48918 5.4604 0
M  V30 3369 H 341.576 2.65622 4.05676 0
M  V30 3370 N 342.919 -1.39368 0.735821 0
M  V30 3371 C 344.144 -2.05319 0.293052 0
M  V30 3372 C 344.569 -1.55115 -1.064 0
M  V30 3373 O 343.927 -0.695261 -1.67439 0
M  V30 3374 C 343.975 -3.59305 0.305323 0
M  V30 3375 O 343.079 -4.06299 -0.706761 0
M  V30 3376 H 342.42 -0.650529 0.13307 0
M  V30 3377 H 344.95 -1.78386 1.00197 0
M  V30 3378 H 344.96 -4.07724 0.149997 0
M  V30 3379 H 343.635 -3.95207 1.29553 0
M  V30 3380 H 342.212 -3.69292 -0.517504 0
M  V30 3381 N 344.397 -0.483516 -1.5 0
M  V30 3382 C 345.645 0.067027 -2.01989 0
M  V30 3383 C 345.966 1.3909 -1.36671 0
M  V30 3384 O 345.236 1.88978 -0.516152 0
M  V30 3385 H 343.816 0.0277606 -0.746484 0
M  V30 3386 H 346.478 -0.636773 -1.84204 0
M  V30 3387 H 345.574 0.209484 -3.11396 0
M  V30 3388 N 345.875 1.56104 -0.216619 0
M  V30 3389 C 347.103 2.02563 0.421413 0
M  V30 3390 C 347.518 1.0965 1.53695 0
M  V30 3391 O 346.875 0.10521 1.82196 0
M  V30 3392 C 346.926 3.48584 0.957665 0
M  V30 3393 O 346.647 4.37953 -0.113389 0
M  V30 3394 C 348.148 4.10664 1.66943 0
M  V30 3395 H 345.368 0.662944 0.103665 0
M  V30 3396 H 347.912 2.01793 -0.331629 0
M  V30 3397 H 346.067 3.49985 1.661 0
M  V30 3398 H 346.481 5.23704 0.288932 0
M  V30 3399 H 347.955 5.14622 1.99671 0
M  V30 3400 H 348.432 3.55373 2.58083 0
M  V30 3401 H 349.038 4.13098 1.01142 0
M  V30 3402 N 347.353 -0.0568162 1.57498 0
M  V30 3403 C 348.6 -0.753104 1.87975 0
M  V30 3404 C 348.928 -1.76815 0.81035 0
M  V30 3405 O 348.183 -1.94756 -0.19199 0
M  V30 3406 C 348.482 -1.48359 3.25153 0
M  V30 3407 C 348.148 -0.60713 4.46794 0
M  V30 3408 C 346.81 -0.365642 4.79809 0
M  V30 3409 C 349.162 -0.000305978 5.212 0
M  V30 3410 C 346.49 0.491905 5.84634 0
M  V30 3411 C 348.842 0.844781 6.26934 0
M  V30 3412 C 347.506 1.096 6.58441 0
M  V30 3413 H 346.776 -0.27558 0.687849 0
M  V30 3414 H 349.423 -0.0135173 1.91495 0
M  V30 3415 H 347.728 -2.29577 3.17492 0
M  V30 3416 H 349.425 -2.02739 3.45974 0
M  V30 3417 H 346.015 -0.805487 4.20963 0
M  V30 3418 H 350.199 -0.173961 4.95995 0
M  V30 3419 H 345.455 0.695131 6.07436 0
M  V30 3420 H 349.629 1.32165 6.83744 0
M  V30 3421 H 347.256 1.76224 7.39492 0
M  V30 3422 N 348.832 -1.54138 -0.328536 0
M  V30 3423 C 349.78 -1.83894 -1.42428 0
M  V30 3424 C 350.774 -0.710478 -1.53781 0
M  V30 3425 O 351.98 -0.894062 -1.56226 0
M  V30 3426 H 348.355 -0.582837 -0.475189 0
M  V30 3427 H 350.326 -2.75537 -1.14552 0
M  V30 3428 C 349.075 -2.07866 -2.78724 0
M  V30 3429 H 348.398 -2.94158 -2.7076 0
M  V30 3430 H 349.838 -2.32644 -3.54476 0
M  V30 3431 C 348.297 -0.868689 -3.25508 0
M  V30 3432 O 348.827 -0.0754908 -4.01629 0
M  V30 3433 N 347.033 -0.681711 -2.82491 0
M  V30 3434 H 346.58 -1.32838 -2.20708 0
M  V30 3435 H 346.538 0.126374 -3.14146 0
M  V30 3436 N 350.31 0.590341 -1.46126 0
M  V30 3437 C 351.273 1.68194 -1.55703 0
M  V30 3438 C 352.273 1.54808 -0.434868 0
M  V30 3439 O 353.463 1.59564 -0.698928 0
M  V30 3440 C 350.595 3.07575 -1.47005 0
M  V30 3441 H 351.788 1.61064 -2.52979 0
M  V30 3442 H 349.341 0.807541 -1.33823 0
M  V30 3443 H 350.076 3.20268 -0.509785 0
M  V30 3444 H 349.861 3.187 -2.28414 0
M  V30 3445 H 351.351 3.87055 -1.56776 0
M  V30 3446 N 351.788 1.33704 0.83433 0
M  V30 3447 C 352.698 1.26382 1.97648 0
M  V30 3448 C 353.714 0.173548 1.73132 0
M  V30 3449 O 354.89 0.397962 1.97429 0
M  V30 3450 C 351.955 1.00769 3.31733 0
M  V30 3451 C 351.016 2.1884 3.69334 0
M  V30 3452 C 350.249 1.9444 4.9702 0
M  V30 3453 O 350.472 0.896961 5.63303 0
M  V30 3454 O 349.406 2.81093 5.32231 0
M  V30 3455 H 353.232 2.22444 2.06767 0
M  V30 3456 H 350.817 1.13795 0.968037 0
M  V30 3457 H 352.699 0.882186 4.12062 0
M  V30 3458 H 351.374 0.0773783 3.23608 0
M  V30 3459 H 350.281 2.36946 2.89495 0
M  V30 3460 H 351.614 3.10221 3.82131 0
M  V30 3461 N 353.266 -1.05314 1.17247 0
M  V30 3462 C 354.196 -2.1498 0.911362 0
M  V30 3463 C 355.177 -1.69471 -0.146169 0
M  V30 3464 O 356.362 -1.942 0.003812 0
M  V30 3465 C 353.492 -3.4472 0.422528 0
M  V30 3466 C 352.446 -4.03789 1.4191 0
M  V30 3467 C 351.772 -5.28858 0.788274 0
M  V30 3468 C 353.072 -4.41418 2.7919 0
M  V30 3469 H 354.766 -2.3708 1.82848 0
M  V30 3470 H 352.312 -1.13938 0.880569 0
M  V30 3471 H 354.265 -4.20787 0.227289 0
M  V30 3472 H 352.989 -3.22269 -0.530123 0
M  V30 3473 H 351.648 -3.2979 1.60106 0
M  V30 3474 H 351.296 -5.02709 -0.171173 0
M  V30 3475 H 350.996 -5.69338 1.45353 0
M  V30 3476 H 352.52 -6.07612 0.603282 0
M  V30 3477 H 353.934 -5.08524 2.64719 0
M  V30 3478 H 352.331 -4.92913 3.42282 0
M  V30 3479 H 353.401 -3.51819 3.33693 0
M  V30 3480 N 354.744 -0.972509 -1.24016 0
M  V30 3481 C 355.972 -0.654803 -1.96265 0
M  V30 3482 C 356.387 0.776708 -1.72083 0
M  V30 3483 O 355.744 1.52171 -1.00748 0
M  V30 3484 C 355.795 -0.92592 -3.49441 0
M  V30 3485 O 355.516 -2.30116 -3.72798 0
M  V30 3486 C 357.017 -0.623068 -4.38899 0
M  V30 3487 H 354.237 -0.243907 -0.6251 0
M  V30 3488 H 356.781 -1.30175 -1.57717 0
M  V30 3489 H 354.936 -0.325108 -3.86033 0
M  V30 3490 H 355.35 -2.38483 -4.67147 0
M  V30 3491 H 356.824 -0.863189 -5.45209 0
M  V30 3492 H 357.301 0.442754 -4.36963 0
M  V30 3493 H 357.907 -1.204 -4.07902 0
M  V30 3494 N 356.222 1.38976 -0.743202 0
M  V30 3495 C 357.185 2.28901 -0.117014 0
M  V30 3496 C 358.185 1.46698 0.658503 0
M  V30 3497 O 359.375 1.67274 0.486305 0
M  V30 3498 C 356.507 3.30309 0.84315 0
M  V30 3499 H 357.7 2.8578 -0.909373 0
M  V30 3500 H 355.253 1.47761 -0.509547 0
M  V30 3501 H 355.988 2.785 1.66157 0
M  V30 3502 H 355.773 3.91029 0.289594 0
M  V30 3503 H 357.263 3.97577 1.2776 0
M  V30 3504 N 357.7 0.491464 1.49741 0
M  V30 3505 C 358.632 -0.328609 2.26832 0
M  V30 3506 C 359.645 -0.939113 1.32983 0
M  V30 3507 O 360.834 -0.824067 1.58339 0
M  V30 3508 C 357.934 -1.47675 3.05033 0
M  V30 3509 C 357.107 -0.975305 4.26388 0
M  V30 3510 C 356.166 -1.99991 4.86714 0
M  V30 3511 O 355.192 -1.57229 5.47054 0
M  V30 3512 N 356.394 -3.32962 4.75517 0
M  V30 3513 H 359.159 0.332377 2.97851 0
M  V30 3514 H 356.72 0.323441 1.58636 0
M  V30 3515 H 358.712 -2.15954 3.42266 0
M  V30 3516 H 357.282 -2.04206 2.36683 0
M  V30 3517 H 356.502 -0.117723 3.94024 0
M  V30 3518 H 357.79 -0.618531 5.05026 0
M  V30 3519 H 357.188 -3.70399 4.27576 0
M  V30 3520 H 355.745 -3.96982 5.16961 0
M  V30 3521 N 359.178 -1.55987 0.224894 0
M  V30 3522 C 360.108 -2.23426 -0.678457 0
M  V30 3523 C 361.089 -1.20709 -1.19847 0
M  V30 3524 O 362.274 -1.49304 -1.24186 0
M  V30 3525 C 359.404 -2.91676 -1.88527 0
M  V30 3526 C 358.358 -4.00893 -1.49896 0
M  V30 3527 C 357.684 -4.56455 -2.78483 0
M  V30 3528 C 358.984 -5.17769 -0.686461 0
M  V30 3529 H 360.678 -2.99175 -0.116173 0
M  V30 3530 H 358.224 -1.43897 -0.054436 0
M  V30 3531 H 360.177 -3.37547 -2.5227 0
M  V30 3532 H 358.901 -2.1338 -2.47258 0
M  V30 3533 H 357.56 -3.55758 -0.884985 0
M  V30 3534 H 357.208 -3.74886 -3.35365 0
M  V30 3535 H 356.908 -5.30169 -2.53368 0
M  V30 3536 H 358.432 -5.05047 -3.43162 0
M  V30 3537 H 359.846 -5.60001 -1.22767 0
M  V30 3538 H 358.243 -5.97735 -0.532259 0
M  V30 3539 H 359.313 -4.83932 0.306196 0
M  V30 3540 N 360.656 0.0484629 -1.57525 0
M  V30 3541 C 361.881 0.759177 -1.93006 0
M  V30 3542 C 362.306 1.69125 -0.823317 0
M  V30 3543 O 361.664 1.79931 0.222364 0
M  V30 3544 C 361.712 1.50899 -3.27509 0
M  V30 3545 O 360.816 2.62112 -3.18388 0
M  V30 3546 H 360.157 0.205564 -0.631379 0
M  V30 3547 H 362.687 0.00972959 -2.04598 0
M  V30 3548 H 362.697 1.88317 -3.6194 0
M  V30 3549 H 361.372 0.825269 -4.0763 0
M  V30 3550 H 359.949 2.27379 -2.95556 0
M  V30 3551 N 362.134 1.5431 0.320358 0
M  V30 3552 C 363.066 1.80262 1.41556 0
M  V30 3553 C 364.079 0.684723 1.477 0
M  V30 3554 O 365.268 0.961886 1.50366 0
M  V30 3555 C 362.368 1.90825 2.8007 0
M  V30 3556 C 361.541 3.21023 2.97091 0
M  V30 3557 C 360.6 3.22247 4.15985 0
M  V30 3558 O 359.626 3.95871 4.08992 0
M  V30 3559 N 360.828 2.46258 5.25678 0
M  V30 3560 H 363.593 2.74778 1.19655 0
M  V30 3561 H 361.154 1.53646 0.510358 0
M  V30 3562 H 363.146 1.89067 3.57821 0
M  V30 3563 H 361.716 1.03392 2.95006 0
M  V30 3564 H 360.936 3.35715 2.06614 0
M  V30 3565 H 362.224 4.0698 3.05361 0
M  V30 3566 H 361.622 1.86037 5.34235 0
M  V30 3567 H 360.179 2.50275 6.01835 0
M  V30 3568 N 363.613 -0.582584 1.46437 0
M  V30 3569 C 364.576 -1.67366 1.56592 0
M  V30 3570 C 365.576 -1.54575 0.443072 0
M  V30 3571 O 366.766 -1.59191 0.707381 0
M  V30 3572 C 363.898 -3.06791 1.48634 0
M  V30 3573 H 365.091 -1.5972 2.5383 0
M  V30 3574 H 362.644 -0.800432 1.34249 0
M  V30 3575 H 363.379 -3.19993 0.526763 0
M  V30 3576 H 363.164 -3.17484 2.30101 0
M  V30 3577 H 364.654 -3.86218 1.58826 0
M  V30 3578 N 365.091 -1.34144 -0.827227 0
M  V30 3579 C 366.339 -1.26009 -1.58007 0
M  V30 3580 C 366.66 0.170971 -1.94249 0
M  V30 3581 O 365.93 1.10256 -1.61927 0
M  V30 3582 H 364.51 -0.463414 -0.585881 0
M  V30 3583 H 367.172 -1.68005 -0.987951 0
M  V30 3584 H 366.268 -1.86187 -2.50481 0
M  V30 3585 N 366.569 1.04691 -1.17803 0
M  V30 3586 C 367.532 2.10724 -0.901545 0
M  V30 3587 C 368.532 1.6042 0.110437 0
M  V30 3588 O 369.722 1.7377 -0.122303 0
M  V30 3589 C 366.854 3.39084 -0.351409 0
M  V30 3590 H 368.047 2.36686 -1.84174 0
M  V30 3591 H 365.6 1.21015 -0.98919 0
M  V30 3592 H 366.335 3.18782 0.59569 0
M  V30 3593 H 366.12 3.76909 -1.08083 0
M  V30 3594 H 367.61 4.17227 -0.176451 0
M  V30 3595 N 368.047 0.979072 1.23499 0
M  V30 3596 C 368.995 0.510604 2.26926 0
M  V30 3597 C 369.989 -0.431691 1.63807 0
M  V30 3598 O 371.195 -0.30573 1.77385 0
M  V30 3599 H 367.57 0.146688 0.737554 0
M  V30 3600 H 369.541 1.39466 2.63803 0
M  V30 3601 C 368.29 -0.172658 3.47271 0
M  V30 3602 H 367.613 0.543331 3.96091 0
M  V30 3603 H 369.053 -0.464101 4.21452 0
M  V30 3604 C 367.512 -1.40345 3.06276 0
M  V30 3605 O 368.042 -2.49978 3.14442 0
M  V30 3606 N 366.248 -1.27362 2.61203 0
M  V30 3607 H 365.795 -0.381584 2.54758 0
M  V30 3608 H 365.753 -2.09822 2.34141 0
M  V30 3609 N 369.525 -1.3858 0.750561 0
M  V30 3610 C 370.771 -2.00481 0.305825 0
M  V30 3611 C 371.104 -1.5944 -1.10872 0
M  V30 3612 O 370.379 -0.83052 -1.75877 0
M  V30 3613 C 370.662 -3.5758 0.425287 0
M  V30 3614 C 370.515 -4.08594 1.88072 0
M  V30 3615 C 371.834 -4.39719 -0.183122 0
M  V30 3616 H 368.953 -0.728348 0.112598 0
M  V30 3617 H 371.595 -1.64566 0.949638 0
M  V30 3618 H 369.745 -3.88306 -0.122828 0
M  V30 3619 H 371.417 -3.88523 2.48691 0
M  V30 3620 H 369.66 -3.61574 2.39681 0
M  V30 3621 H 370.331 -5.177 1.91548 0
M  V30 3622 H 372.807 -4.15128 0.284303 0
M  V30 3623 H 371.683 -5.48856 -0.0692757 0
M  V30 3624 H 371.944 -4.23434 -1.27106 0
M  V30 3625 N 371.003 -0.499398 -1.49478 0
M  V30 3626 C 372.252 0.0475259 -2.01644 0
M  V30 3627 C 372.565 1.38195 -1.38425 0
M  V30 3628 O 373.771 2.01547 -1.8191 0
M  V30 3629 C 372.227 0.135164 -3.59646 0
M  V30 3630 C 371.835 -1.19252 -4.31837 0
M  V30 3631 C 373.579 0.632538 -4.19761 0
M  V30 3632 C 371.486 -1.06713 -5.81693 0
M  V30 3633 H 370.416 0.0215349 -0.753692 0
M  V30 3634 H 373.067 -0.638577 -1.7203 0
M  V30 3635 H 371.449 0.885681 -3.85969 0
M  V30 3636 H 372.623 -1.9562 -4.17216 0
M  V30 3637 H 370.938 -1.62321 -3.83459 0
M  V30 3638 H 373.535 0.743833 -5.29501 0
M  V30 3639 H 373.878 1.63098 -3.83021 0
M  V30 3640 H 374.411 -0.0613987 -3.97753 0
M  V30 3641 H 371.15 -2.03979 -6.22955 0
M  V30 3642 H 370.67 -0.344307 -5.98811 0
M  V30 3643 H 372.349 -0.745208 -6.42694 0
M  V30 3644 N 372.481 1.55866 -0.233164 0
M  V30 3645 C 373.892 1.847 0.272554 0
M  V30 3646 C 374.243 1.15477 1.58617 0
M  V30 3647 O 373.368 0.42841 2.12117 0
M  V30 3648 C 373.963 3.35071 0.501299 0
M  V30 3649 C 372.522 3.6418 0.951304 0
M  V30 3650 C 371.669 2.77292 0.0208209 0
M  V30 3651 H 374.62 1.52005 -0.456074 0
M  V30 3652 H 374.641 3.55906 1.34577 0
M  V30 3653 H 374.153 3.85424 -0.454936 0
M  V30 3654 H 372.254 3.19293 1.92049 0
M  V30 3655 H 372.367 4.72071 0.817675 0
M  V30 3656 H 370.731 2.49131 0.529723 0
M  V30 3657 H 371.514 3.30448 -0.93054 0
M  V30 3658 N 373.959 -0.0401083 1.57549 0
M  V30 3659 C 374.889 -1.04384 2.08869 0
M  V30 3660 C 375.87 -1.38407 0.988817 0
M  V30 3661 O 377.055 -1.47483 1.26342 0
M  V30 3662 C 374.185 -2.34808 2.55895 0
M  V30 3663 C 373.139 -2.15057 3.70047 0
M  V30 3664 C 372.465 -3.51145 4.03239 0
M  V30 3665 C 373.765 -1.54576 4.98902 0
M  V30 3666 H 375.459 -0.616666 2.92981 0
M  V30 3667 H 373.005 -0.295184 1.40942 0
M  V30 3668 H 374.958 -3.05346 2.90417 0
M  V30 3669 H 373.682 -2.79565 1.68853 0
M  V30 3670 H 372.341 -1.46954 3.35857 0
M  V30 3671 H 371.989 -3.93529 3.13279 0
M  V30 3672 H 371.689 -3.38758 4.80122 0
M  V30 3673 H 373.213 -4.23062 4.40285 0
M  V30 3674 H 374.627 -2.15017 5.31451 0
M  V30 3675 H 373.024 -1.52796 5.80322 0
M  V30 3676 H 374.094 -0.51039 4.82206 0
M  V30 3677 N 375.437 -1.54477 -0.31217 0
M  V30 3678 C 376.385 -1.85395 -1.40469 0
M  V30 3679 C 377.379 -0.726749 -1.53019 0
M  V30 3680 O 378.585 -0.910582 -1.55269 0
M  V30 3681 H 374.96 -0.587845 -0.46898 0
M  V30 3682 H 376.931 -2.76736 -1.11623 0
M  V30 3683 C 375.68 -2.10811 -2.76503 0
M  V30 3684 H 375.003 -2.97014 -2.67625 0
M  V30 3685 H 376.443 -2.3639 -3.51988 0
M  V30 3686 C 374.902 -0.903165 -3.24568 0
M  V30 3687 O 375.432 -0.118085 -4.01526 0
M  V30 3688 N 373.638 -0.711634 -2.81752 0
M  V30 3689 H 373.185 -1.35171 -2.19286 0
M  V30 3690 H 373.143 0.0930473 -3.14262 0
M  V30 3691 N 376.915 0.57481 -1.46744 0
M  V30 3692 C 378.164 1.32898 -1.51727 0
M  V30 3693 C 378.477 1.948 -0.176692 0
M  V30 3694 O 379.683 2.71299 -0.104385 0
M  V30 3695 C 378.139 2.40901 -2.67385 0
M  V30 3696 C 377.747 1.85266 -4.07898 0
M  V30 3697 C 379.491 3.17609 -2.81646 0
M  V30 3698 C 377.398 2.90945 -5.14883 0
M  V30 3699 H 376.328 0.499631 -0.564699 0
M  V30 3700 H 378.979 0.612536 -1.72975 0
M  V30 3701 H 377.361 3.15379 -2.39483 0
M  V30 3702 H 378.535 1.17278 -4.45626 0
M  V30 3703 H 376.85 1.21199 -3.98371 0
M  V30 3704 H 379.447 3.96493 -3.58744 0
M  V30 3705 H 379.79 3.70696 -1.89448 0
M  V30 3706 H 380.323 2.50239 -3.09233 0
M  V30 3707 H 377.062 2.42736 -6.089 0
M  V30 3708 H 376.582 3.57398 -4.81691 0
M  V30 3709 H 378.261 3.54755 -5.41071 0
M  V30 3710 N 378.394 1.34581 0.820102 0
M  V30 3711 C 379.805 1.24298 1.39309 0
M  V30 3712 C 380.156 -0.130351 1.95767 0
M  V30 3713 O 379.281 -1.0308 1.90272 0
M  V30 3714 C 379.876 2.25054 2.53251 0
M  V30 3715 C 378.435 2.18552 3.0645 0
M  V30 3716 C 377.582 2.11503 1.79337 0
M  V30 3717 H 380.533 1.45906 0.624262 0
M  V30 3718 H 380.554 1.86917 3.31425 0
M  V30 3719 H 380.066 3.24996 2.1213 0
M  V30 3720 H 378.167 1.21976 3.52069 0
M  V30 3721 H 378.28 3.0993 3.65349 0
M  V30 3722 H 376.644 1.57268 2.00347 0
M  V30 3723 H 377.427 3.13284 1.40386 0
M  V30 3724 N 379.872 -1.04064 1.18357 0
M  V30 3725 C 380.802 -2.14001 0.934113 0
M  V30 3726 C 381.783 -1.69616 -0.128186 0
M  V30 3727 O 382.968 -1.94185 0.0244093 0
M  V30 3728 C 380.098 -3.44253 0.459066 0
M  V30 3729 C 379.052 -4.02261 1.46185 0
M  V30 3730 C 378.378 -5.27992 0.844322 0
M  V30 3731 C 379.678 -4.38432 2.83856 0
M  V30 3732 H 381.372 -2.35127 1.85352 0
M  V30 3733 H 378.918 -1.12998 0.892604 0
M  V30 3734 H 380.871 -4.20522 0.271907 0
M  V30 3735 H 379.595 -3.22813 -0.495912 0
M  V30 3736 H 378.254 -3.28074 1.63595 0
M  V30 3737 H 377.902 -5.02862 -0.117845 0
M  V30 3738 H 377.602 -5.67765 1.51384 0
M  V30 3739 H 379.126 -6.06938 0.667693 0
M  V30 3740 H 380.54 -5.05688 2.70098 0
M  V30 3741 H 378.937 -4.89254 3.47491 0
M  V30 3742 H 380.007 -3.4826 3.37406 0
M  V30 3743 N 381.35 -0.985608 -1.22978 0
M  V30 3744 C 382.28 -0.549649 -2.26939 0
M  V30 3745 C 383.261 0.419803 -1.64838 0
M  V30 3746 O 384.446 0.31203 -1.91677 0
M  V30 3747 C 381.576 0.143652 -3.47003 0
M  V30 3748 C 380.53 -0.743606 -4.21491 0
M  V30 3749 C 379.856 0.0822027 -5.34637 0
M  V30 3750 C 381.156 -2.03694 -4.80943 0
M  V30 3751 H 382.85 -1.41862 -2.63658 0
M  V30 3752 H 380.396 -0.683571 -1.26741 0
M  V30 3753 H 382.349 0.459985 -4.18882 0
M  V30 3754 H 381.073 1.04711 -3.09359 0
M  V30 3755 H 379.732 -1.04347 -3.51436 0
M  V30 3756 H 379.38 0.986359 -4.93234 0
M  V30 3757 H 379.08 -0.508377 -5.85397 0
M  V30 3758 H 380.604 0.392797 -6.09335 0
M  V30 3759 H 382.018 -1.78504 -5.44802 0
M  V30 3760 H 380.415 -2.57573 -5.42011 0
M  V30 3761 H 381.485 -2.72042 -4.01399 0
M  V30 3762 N 382.828 1.3818 -0.7579 0
M  V30 3763 C 383.758 2.33027 -0.148597 0
M  V30 3764 C 384.739 1.55085 0.69875 0
M  V30 3765 O 385.924 1.83384 0.639053 0
M  V30 3766 C 383.054 3.3928 0.742034 0
M  V30 3767 C 382.008 4.28 -0.00291946 0
M  V30 3768 C 381.334 5.25146 1.00625 0
M  V30 3769 C 382.634 5.08938 -1.17385 0
M  V30 3770 H 384.328 2.84231 -0.940909 0
M  V30 3771 H 381.874 1.36659 -0.453908 0
M  V30 3772 H 383.827 4.046 1.17799 0
M  V30 3773 H 382.551 2.86569 1.56671 0
M  V30 3774 H 381.21 3.64192 -0.419504 0
M  V30 3775 H 380.858 4.68721 1.8251 0
M  V30 3776 H 380.558 5.85361 0.512428 0
M  V30 3777 H 382.082 5.93342 1.44143 0
M  V30 3778 H 383.496 5.67474 -0.815224 0
M  V30 3779 H 381.893 5.7841 -1.59882 0
M  V30 3780 H 382.963 4.42424 -1.98468 0
M  V30 3781 N 384.306 0.507319 1.49211 0
M  V30 3782 C 385.253 -0.267728 2.29242 0
M  V30 3783 C 386.223 -0.954609 1.35928 0
M  V30 3784 O 387.408 -0.960046 1.64887 0
M  V30 3785 C 384.548 -1.32243 3.18756 0
M  V30 3786 C 383.661 -0.64669 4.27132 0
M  V30 3787 C 382.796 -1.68238 5.03855 0
M  V30 3788 C 381.835 -0.98885 6.0406 0
M  V30 3789 N 380.972 -1.96903 6.73924 0
M  V30 3790 H 385.812 0.420968 2.95012 0
M  V30 3791 H 383.349 0.219443 1.45454 0
M  V30 3792 H 385.307 -1.94599 3.69036 0
M  V30 3793 H 383.937 -1.97981 2.54958 0
M  V30 3794 H 382.989 0.0902926 3.80293 0
M  V30 3795 H 384.301 -0.101058 4.98698 0
M  V30 3796 H 383.455 -2.38081 5.58034 0
M  V30 3797 H 382.194 -2.26187 4.32077 0
M  V30 3798 H 381.199 -0.276222 5.49106 0
M  V30 3799 H 382.424 -0.415767 6.77826 0
M  V30 3800 H 380.37 -2.53803 6.04913 0
M  V30 3801 H 380.287 -1.47423 7.41487 0
M  V30 3802 H 381.555 -2.66015 7.32705 0
M  V30 3803 N 385.784 -1.5574 0.241426 0
M  V30 3804 C 386.694 -2.2479 -0.671305 0
M  V30 3805 C 387.71 -1.26217 -1.19772 0
M  V30 3806 O 388.886 -1.59079 -1.23514 0
M  V30 3807 C 385.951 -2.92966 -1.85396 0
M  V30 3808 C 385.012 -4.06935 -1.36756 0
M  V30 3809 C 384.245 -4.71851 -2.49384 0
M  V30 3810 O 384.468 -4.35823 -3.67987 0
M  V30 3811 O 383.402 -5.60467 -2.19454 0
M  V30 3812 H 387.228 -3.0349 -0.112966 0
M  V30 3813 H 384.813 -1.49397 0.0101513 0
M  V30 3814 H 386.695 -3.35927 -2.54423 0
M  V30 3815 H 385.37 -2.17211 -2.40002 0
M  V30 3816 H 384.277 -3.68503 -0.644726 0
M  V30 3817 H 385.61 -4.84492 -0.867647 0
M  V30 3818 N 387.262 0.0317525 -1.57568 0
M  V30 3819 C 388.51 0.721676 -1.88776 0
M  V30 3820 C 388.831 1.76039 -0.838772 0
M  V30 3821 O 388.101 1.95482 0.127935 0
M  V30 3822 H 386.681 0.269534 -0.696678 0
M  V30 3823 H 389.343 -0.00165879 -1.949 0
M  V30 3824 H 388.439 1.21293 -2.87566 0
M  V30 3825 N 388.74 1.54641 0.303973 0
M  V30 3826 C 389.673 1.80263 1.3993 0
M  V30 3827 C 390.651 0.653657 1.48883 0
M  V30 3828 O 391.835 0.893284 1.6599 0
M  V30 3829 C 388.962 1.9367 2.77866 0
M  V30 3830 C 388.008 3.16078 2.86351 0
M  V30 3831 S 388.841 4.74219 2.4875 0
M  V30 3832 C 389.997 4.90558 3.88721 0
M  V30 3833 H 390.23 2.72886 1.17986 0
M  V30 3834 H 387.763 1.46014 0.501918 0
M  V30 3835 H 389.721 2.0208 3.57315 0
M  V30 3836 H 388.382 1.01991 2.9708 0
M  V30 3837 H 387.575 3.22252 3.87517 0
M  V30 3838 H 387.177 3.06099 2.14893 0
M  V30 3839 H 389.469 4.74398 4.83687 0
M  V30 3840 H 390.412 5.92651 3.87518 0
M  V30 3841 H 390.82 4.18728 3.78585 0
M  V30 3842 N 390.218 -0.567019 1.47046 0
M  V30 3843 C 391.181 -1.65696 1.58359 0
M  V30 3844 C 392.181 -1.54097 0.459441 0
M  V30 3845 O 393.371 -1.58432 0.724225 0
M  V30 3846 C 390.503 -3.05197 1.51879 0
M  V30 3847 H 391.696 -1.57019 2.5551 0
M  V30 3848 H 389.249 -0.786148 1.3509 0
M  V30 3849 H 389.984 -3.19417 0.560673 0
M  V30 3850 H 389.769 -3.15025 2.33455 0
M  V30 3851 H 391.259 -3.84511 1.62913 0
M  V30 3852 N 391.696 -1.35014 -0.812953 0
M  V30 3853 C 392.644 -1.27435 -1.94585 0
M  V30 3854 C 393.638 -0.170494 -1.6854 0
M  V30 3855 O 394.844 -0.336085 -1.76835 0
M  V30 3856 H 391.219 -0.396144 -0.639198 0
M  V30 3857 H 393.19 -2.23158 -1.98098 0
M  V30 3858 C 391.939 -1.05677 -3.31252 0
M  V30 3859 H 391.262 -1.89853 -3.51846 0
M  V30 3860 H 392.702 -1.04413 -4.10943 0
M  V30 3861 C 391.161 0.239615 -3.36047 0
M  V30 3862 O 391.691 1.23759 -3.8216 0
M  V30 3863 N 389.897 0.276186 -2.89285 0
M  V30 3864 H 389.444 -0.53653 -2.51951 0
M  V30 3865 H 389.402 1.14332 -2.92875 0
M  V30 3866 N 393.175 1.03435 -1.18907 0
M  V30 3867 C 394.586 1.58195 -0.991523 0
M  V30 3868 C 394.937 1.90801 0.457081 0
M  V30 3869 O 394.062 1.70272 1.33553 0
M  V30 3870 C 394.657 2.87432 -1.79355 0
M  V30 3871 C 393.216 3.38785 -1.64017 0
M  V30 3872 C 392.363 2.12292 -1.78402 0
M  V30 3873 H 395.314 0.860299 -1.33359 0
M  V30 3874 H 395.335 3.58096 -1.28638 0
M  V30 3875 H 394.847 2.63669 -2.84781 0
M  V30 3876 H 392.948 3.67547 -0.611536 0
M  V30 3877 H 393.061 4.12186 -2.44212 0
M  V30 3878 H 391.425 2.23901 -1.2141 0
M  V30 3879 H 392.208 1.90977 -2.85277 0
M  V30 3880 N 394.653 0.992116 1.22453 0
M  V30 3881 C 395.616 0.546883 2.2258 0
M  V30 3882 C 396.616 -0.369829 1.56489 0
M  V30 3883 O 397.806 -0.161896 1.73446 0
M  V30 3884 C 394.938 -0.204659 3.40285 0
M  V30 3885 H 396.131 1.43234 2.63484 0
M  V30 3886 H 393.684 0.779239 1.3549 0
M  V30 3887 H 394.419 -1.10614 3.04853 0
M  V30 3888 H 394.204 0.45354 3.89468 0
M  V30 3889 H 395.694 -0.504358 4.14543 0
M  V30 3890 N 396.131 -1.37776 0.765217 0
M  V30 3891 C 397.356 -2.04651 0.336537 0
M  V30 3892 C 397.781 -1.57337 -1.03086 0
M  V30 3893 O 397.139 -0.730621 -1.65927 0
M  V30 3894 C 397.187 -3.58577 0.381468 0
M  V30 3895 O 396.291 -4.07706 -0.62042 0
M  V30 3896 H 395.632 -0.64756 0.146838 0
M  V30 3897 H 398.162 -1.76221 1.03959 0
M  V30 3898 H 398.172 -4.07314 0.236448 0
M  V30 3899 H 396.847 -3.9237 1.37907 0
M  V30 3900 H 395.424 -3.70306 -0.439056 0
M  V30 3901 N 397.609 -0.515225 -1.4894 0
M  V30 3902 C 398.856 0.024215 -2.02486 0
M  V30 3903 C 399.184 1.35671 -1.39368 0
M  V30 3904 O 398.439 1.88566 -0.523574 0
M  V30 3905 C 398.738 0.210595 -3.56779 0
M  V30 3906 C 398.404 -1.04569 -4.38607 0
M  V30 3907 C 397.066 -1.39002 -4.60686 0
M  V30 3908 C 399.418 -1.88008 -4.86109 0
M  V30 3909 C 396.746 -2.568 -5.27514 0
M  V30 3910 C 399.098 -3.04972 -5.54234 0
M  V30 3911 C 397.762 -3.39768 -5.74555 0
M  V30 3912 H 397.032 0.00886088 -0.740947 0
M  V30 3913 H 399.679 -0.678263 -1.79086 0
M  V30 3914 H 397.984 0.99572 -3.78936 0
M  V30 3915 H 399.681 0.642659 -3.95817 0
M  V30 3916 H 396.271 -0.767497 -4.21672 0
M  V30 3917 H 400.455 -1.62719 -4.68867 0
M  V30 3918 H 395.711 -2.8398 -5.41447 0
M  V30 3919 H 399.885 -3.69943 -5.90013 0
M  V30 3920 H 397.512 -4.31148 -6.26112 0
M  V30 3921 N 399.087 1.5561 -0.249682 0
M  V30 3922 C 400.335 1.98618 0.373548 0
M  V30 3923 C 400.656 1.13919 1.58264 0
M  V30 3924 O 399.926 0.222637 1.94631 0
M  V30 3925 H 398.506 0.733571 0.141006 0
M  V30 3926 H 401.168 1.91748 -0.349117 0
M  V30 3927 H 400.264 3.04584 0.680796 0
M  V30 3928 N 400.565 -0.0233959 1.57583 0
M  V30 3929 C 401.495 -1.02162 2.09965 0
M  V30 3930 C 402.476 -1.3735 1.00344 0
M  V30 3931 O 403.661 -1.46135 1.27899 0
M  V30 3932 C 400.791 -2.32081 2.58371 0
M  V30 3933 C 399.745 -2.1112 3.72307 0
M  V30 3934 C 399.071 -3.46848 4.06941 0
M  V30 3935 C 400.371 -1.49276 5.00514 0
M  V30 3936 H 402.065 -0.585557 2.93618 0
M  V30 3937 H 399.611 -0.280218 1.41247 0
M  V30 3938 H 401.564 -3.02249 2.93639 0
M  V30 3939 H 400.288 -2.77758 1.71808 0
M  V30 3940 H 398.947 -1.43384 3.37397 0
M  V30 3941 H 398.595 -3.90184 3.17436 0
M  V30 3942 H 398.295 -3.33646 4.83688 0
M  V30 3943 H 399.819 -4.18369 4.44747 0
M  V30 3944 H 401.233 -2.09368 5.33702 0
M  V30 3945 H 399.63 -1.46632 5.8191 0
M  V30 3946 H 400.7 -0.459217 4.82721 0
M  V30 3947 N 402.043 -1.548 -0.295768 0
M  V30 3948 C 403.006 -1.85363 -1.34808 0
M  V30 3949 C 404.006 -0.726817 -1.43436 0
M  V30 3950 O 405.196 -0.995088 -1.42981 0
M  V30 3951 C 402.328 -2.03859 -2.73229 0
M  V30 3952 H 403.521 -2.7941 -1.08949 0
M  V30 3953 H 401.074 -1.46942 -0.532702 0
M  V30 3954 H 401.809 -1.12117 -3.04303 0
M  V30 3955 H 401.594 -2.8588 -2.68356 0
M  V30 3956 H 403.084 -2.28857 -3.49305 0
M  V30 3957 N 403.521 0.559213 -1.47345 0
M  V30 3958 C 404.484 1.64854 -1.59235 0
M  V30 3959 C 405.484 1.53851 -0.467607 0
M  V30 3960 O 406.674 1.58045 -0.732617 0
M  V30 3961 C 403.806 3.04388 -1.53496 0
M  V30 3962 H 404.999 1.55662 -2.56339 0
M  V30 3963 H 402.552 0.778973 -1.35505 0
M  V30 3964 H 403.287 3.19115 -0.577604 0
M  V30 3965 H 403.072 3.13783 -2.35123 0
M  V30 3966 H 404.562 3.83642 -1.6495 0
M  V30 3967 N 404.999 1.35443 0.805782 0
M  V30 3968 C 406.276 1.19325 1.54987 0
M  V30 3969 C 406.656 -0.227294 2.09873 0
M  V30 3970 O 406.004 -1.2309 1.92512 0
M  V30 3971 C 406.214 2.26196 2.65775 0
M  V30 3972 C 407.562 2.62043 3.34094 0
M  V30 3973 O 408.586 2.25115 2.76046 0
M  V30 3974 O 407.445 3.25542 4.38958 0
M  V30 3975 H 404.539 0.463623 0.684823 0
M  V30 3976 H 407.085 1.47127 0.845674 0
M  V30 3977 H 405.857 3.21471 2.23096 0
M  V30 3978 H 405.48 1.99667 3.43829 0
M  V30 3979 N 406.477 -1.02803 1.19454 0
M  V30 3980 C 407.409 -2.11181 0.890807 0
M  V30 3981 C 408.422 -1.6238 -0.116829 0
M  V30 3982 O 409.611 -1.78144 0.112694 0
M  V30 3983 C 406.711 -3.37461 0.311942 0
M  V30 3984 C 405.884 -4.15446 1.36834 0
M  V30 3985 C 404.943 -5.20039 0.802864 0
M  V30 3986 O 403.969 -5.49602 1.48077 0
M  V30 3987 N 405.171 -5.79165 -0.393417 0
M  V30 3988 H 407.936 -2.37827 1.82369 0
M  V30 3989 H 405.497 -1.19101 1.09666 0
M  V30 3990 H 407.489 -4.0462 -0.0802225 0
M  V30 3991 H 406.059 -3.08156 -0.52524 0
M  V30 3992 H 405.279 -3.43423 1.93531 0
M  V30 3993 H 406.567 -4.64335 2.08015 0
M  V30 3994 H 405.965 -5.57466 -0.961658 0
M  V30 3995 H 404.522 -6.47729 -0.727351 0
M  V30 3996 N 407.956 -0.998596 -1.21925 0
M  V30 3997 C 408.904 -0.546641 -2.26085 0
M  V30 3998 C 409.898 0.405576 -1.64473 0
M  V30 3999 O 411.104 0.277471 -1.77849 0
M  V30 4000 H 407.479 -0.158403 -0.735127 0
M  V30 4001 H 409.45 -1.43645 -2.61551 0
M  V30 4002 C 408.199 0.117388 -3.47502 0
M  V30 4003 H 407.522 -0.606277 -3.95176 0
M  V30 4004 H 408.962 0.396993 -4.22137 0
M  V30 4005 C 407.421 1.35455 -3.0847 0
M  V30 4006 O 407.951 2.44944 -3.18379 0
M  V30 4007 N 406.157 1.23191 -2.63196 0
M  V30 4008 H 405.704 0.341006 -2.55333 0
M  V30 4009 H 405.662 2.06071 -2.37449 0
M  V30 4010 N 409.434 1.37368 -0.772513 0
M  V30 4011 C 410.364 2.32856 -0.173304 0
M  V30 4012 C 411.345 1.55818 0.682262 0
M  V30 4013 O 412.53 1.84052 0.619566 0
M  V30 4014 C 409.66 3.40048 0.706007 0
M  V30 4015 C 408.614 4.27973 -0.0483144 0
M  V30 4016 C 407.94 5.26184 0.950491 0
M  V30 4017 C 409.24 5.07665 -1.22776 0
M  V30 4018 H 410.934 2.83217 -0.971002 0
M  V30 4019 H 408.48 1.3617 -0.468377 0
M  V30 4020 H 410.433 4.05827 1.13501 0
M  V30 4021 H 409.157 2.88214 1.53623 0
M  V30 4022 H 407.816 3.63726 -0.458107 0
M  V30 4023 H 407.464 4.7063 1.77529 0
M  V30 4024 H 407.164 5.85872 0.450314 0
M  V30 4025 H 408.688 5.94838 1.37842 0
M  V30 4026 H 410.102 5.66578 -0.875366 0
M  V30 4027 H 408.499 5.76681 -1.66007 0
M  V30 4028 H 409.569 4.40294 -2.03149 0
M  V30 4029 N 410.912 0.523116 1.48665 0
M  V30 4030 C 412.161 -0.01544 2.01694 0
M  V30 4031 C 412.474 -1.35975 1.40606 0
M  V30 4032 O 413.68 -1.98627 1.85093 0
M  V30 4033 C 412.136 -0.0779303 3.59816 0
M  V30 4034 C 411.744 1.26107 4.29885 0
M  V30 4035 C 413.488 -0.565678 4.20714 0
M  V30 4036 C 411.395 1.15954 5.79921 0
M  V30 4037 H 410.325 -0.00954163 0.75394 0
M  V30 4038 H 412.976 0.665865 1.70993 0
M  V30 4039 H 411.358 -0.824165 3.87329 0
M  V30 4040 H 412.532 2.02233 4.14051 0
M  V30 4041 H 410.847 1.68401 3.80828 0
M  V30 4042 H 413.444 -0.6595 5.30617 0
M  V30 4043 H 413.787 -1.56984 3.85567 0
M  V30 4044 H 414.32 0.12467 3.97605 0
M  V30 4045 H 411.059 2.13864 6.19631 0
M  V30 4046 H 410.579 0.439529 5.98187 0
M  V30 4047 H 412.258 0.847361 6.41427 0
M  V30 4048 N 412.39 -1.55475 0.257931 0
M  V30 4049 C 413.638 -1.98813 -0.363009 0
M  V30 4050 C 413.959 -1.14757 -1.57657 0
M  V30 4051 O 413.229 -0.232956 -1.9451 0
M  V30 4052 H 411.809 -0.734308 -0.137113 0
M  V30 4053 H 414.471 -1.9156 0.359281 0
M  V30 4054 H 413.567 -3.04941 -0.664634 0
M  V30 4055 N 413.868 0.0150385 -1.57593 0
M  V30 4056 C 415.096 0.714395 -1.94175 0
M  V30 4057 C 415.511 1.68135 -0.858841 0
M  V30 4058 O 414.868 1.81766 0.163567 0
M  V30 4059 C 414.919 1.45933 -3.30735 0
M  V30 4060 O 414.64 0.531167 -4.34868 0
M  V30 4061 C 416.141 2.25456 -3.81686 0
M  V30 4062 H 413.361 0.199923 -0.640525 0
M  V30 4063 H 415.905 -0.0316096 -2.04476 0
M  V30 4064 H 414.06 2.15709 -3.21789 0
M  V30 4065 H 414.474 1.05509 -5.13778 0
M  V30 4066 H 415.948 2.731 -4.79709 0
M  V30 4067 H 416.425 3.07485 -3.13607 0
M  V30 4068 H 417.031 1.60727 -3.9376 0
M  V30 4069 N 415.346 1.54954 0.287554 0
M  V30 4070 C 416.586 1.76617 1.02887 0
M  V30 4071 C 416.95 0.547759 1.84021 0
M  V30 4072 O 418.151 0.642365 2.61012 0
M  V30 4073 C 416.422 3.02717 1.89993 0
M  V30 4074 S 417.981 3.45438 2.70588 0
M  V30 4075 H 414.799 0.6207 0.346775 0
M  V30 4076 H 417.401 1.93172 0.30082 0
M  V30 4077 H 416.105 3.89503 1.29287 0
M  V30 4078 H 415.636 2.88787 2.67144 0
M  V30 4079 H 417.651 3.03566 3.92508 0
M  V30 4080 N 416.824 -0.551391 1.4764 0
M  V30 4081 C 418.071 -1.3083 1.54563 0
M  V30 4082 C 418.399 -1.93359 0.210361 0
M  V30 4083 O 417.654 -1.78721 -0.797332 0
M  V30 4084 C 417.953 -2.43469 2.61644 0
M  V30 4085 C 417.619 -1.98732 4.04742 0
M  V30 4086 C 416.281 -1.86248 4.43695 0
M  V30 4087 C 418.633 -1.64659 4.94507 0
M  V30 4088 C 415.961 -1.37995 5.70241 0
M  V30 4089 C 418.313 -1.17875 6.21521 0
M  V30 4090 C 416.977 -1.03992 6.5935 0
M  V30 4091 H 416.247 -0.478741 0.565587 0
M  V30 4092 H 418.894 -0.617697 1.81264 0
M  V30 4093 H 417.199 -3.18109 2.28722 0
M  V30 4094 H 418.896 -3.01642 2.64222 0
M  V30 4095 H 415.486 -2.09393 3.73968 0
M  V30 4096 H 419.67 -1.73174 4.65107 0
M  V30 4097 H 414.926 -1.25915 5.98294 0
M  V30 4098 H 419.1 -0.905739 6.90485 0
M  V30 4099 H 416.727 -0.663794 7.57296 0
M  V30 4100 N 418.302 -1.35869 -0.798587 0
M  V30 4101 C 419.527 -1.32883 -1.59238 0
M  V30 4102 C 419.952 0.0894587 -1.87887 0
M  V30 4103 O 419.31 1.05869 -1.47178 0
M  V30 4104 C 419.358 -2.14892 -2.89575 0
M  V30 4105 O 418.462 -1.53512 -3.82763 0
M  V30 4106 H 417.803 -0.455236 -0.48338 0
M  V30 4107 H 420.333 -1.79024 -0.990539 0
M  V30 4108 H 420.343 -2.27139 -3.38928 0
M  V30 4109 H 419.018 -3.17998 -2.68049 0
M  V30 4110 H 417.595 -1.50153 -3.41334 0
M  V30 4111 N 419.78 1.02168 -1.19998 0
M  V30 4112 C 421.028 1.75338 -1.00504 0
M  V30 4113 C 421.349 1.89387 0.464506 0
M  V30 4114 O 420.619 1.43268 1.33608 0
M  V30 4115 H 419.199 0.649564 -0.368885 0
M  V30 4116 H 421.861 1.23205 -1.51018 0
M  V30 4117 H 420.957 2.75892 -1.45912 0
M  V30 4118 N 421.258 1.00505 1.21394 0
M  V30 4119 C 422.206 0.558623 2.25792 0
M  V30 4120 C 423.2 -0.396848 1.64686 0
M  V30 4121 O 424.406 -0.268035 1.77993 0
M  V30 4122 H 420.781 0.1623 0.734277 0
M  V30 4123 H 422.752 1.4503 2.60785 0
M  V30 4124 C 421.501 -0.0989574 3.47559 0
M  V30 4125 H 420.824 0.627225 3.94849 0
M  V30 4126 H 422.264 -0.3746 4.22342 0
M  V30 4127 C 420.723 -1.33817 3.09184 0
M  V30 4128 O 421.253 -2.43252 3.19674 0
M  V30 4129 N 419.459 -1.21793 2.63846 0
M  V30 4130 H 419.006 -0.32746 2.5551 0
M  V30 4131 H 418.964 -2.04809 2.38539 0
M  V30 4132 N 422.737 -1.36956 0.779787 0
M  V30 4133 C 423.985 -1.99097 0.347079 0
M  V30 4134 C 424.306 -1.62206 -1.08232 0
M  V30 4135 O 423.576 -0.891373 -1.74446 0
M  V30 4136 H 422.156 -0.736409 0.125342 0
M  V30 4137 H 424.818 -1.67308 0.999696 0
M  V30 4138 H 423.914 -3.09107 0.431162 0
M  V30 4139 N 424.215 -0.530993 -1.48385 0
M  V30 4140 C 425.455 0.000718982 -2.044 0
M  V30 4141 C 425.819 1.31485 -1.39913 0
M  V30 4142 O 427.02 1.93265 -1.86821 0
M  V30 4143 C 425.291 0.119177 -3.57201 0
M  V30 4144 S 426.85 0.600806 -4.34667 0
M  V30 4145 H 423.668 -0.0125473 -0.710889 0
M  V30 4146 H 426.27 -0.711783 -1.82082 0
M  V30 4147 H 424.974 -0.842061 -4.01668 0
M  V30 4148 H 424.505 0.856026 -3.83974 0
M  V30 4149 H 426.52 1.86514 -4.59812 0
M  V30 4150 N 425.693 1.55336 -0.266172 0
M  V30 4151 C 426.921 2.03801 0.356756 0
M  V30 4152 C 427.336 1.14485 1.50129 0
M  V30 4153 O 426.693 0.163121 1.8177 0
M  V30 4154 C 426.744 3.51455 0.846281 0
M  V30 4155 O 426.465 4.37371 -0.252663 0
M  V30 4156 C 427.966 4.15767 1.53794 0
M  V30 4157 H 425.186 0.665906 0.0825218 0
M  V30 4158 H 427.73 2.00636 -0.39566 0
M  V30 4159 H 425.885 3.55092 1.54881 0
M  V30 4160 H 426.299 5.24358 0.122173 0
M  V30 4161 H 427.773 5.20714 1.83198 0
M  V30 4162 H 428.25 3.63404 2.46646 0
M  V30 4163 H 428.856 4.16107 0.879488 0
M  V30 4164 N 427.171 -0.0066808 1.57599 0
M  V30 4165 C 428.104 -1.03397 2.03431 0
M  V30 4166 C 429.082 -1.33872 0.922877 0
M  V30 4167 O 430.266 -1.4615 1.19048 0
M  V30 4168 C 427.393 -2.36325 2.42628 0
M  V30 4169 C 426.439 -2.21557 3.64438 0
M  V30 4170 S 427.272 -1.54789 5.12641 0
M  V30 4171 C 428.428 -2.8916 5.55101 0
M  V30 4172 H 428.661 -0.643687 2.90248 0
M  V30 4173 H 426.194 -0.217349 1.52863 0
M  V30 4174 H 428.152 -3.12759 2.65879 0
M  V30 4175 H 426.813 -2.72495 1.56222 0
M  V30 4176 H 426.006 -3.1974 3.89592 0
M  V30 4177 H 425.608 -1.53267 3.41153 0
M  V30 4178 H 427.9 -3.8547 5.57153 0
M  V30 4179 H 428.843 -2.68713 6.55133 0
M  V30 4180 H 429.251 -2.92762 4.82649 0
M  V30 4181 N 428.649 -1.55105 -0.279332 0
M  V30 4182 C 429.597 -1.88333 -1.36505 0
M  V30 4183 C 430.591 -0.759043 -1.51443 0
M  V30 4184 O 431.797 -0.943312 -1.53302 0
M  V30 4185 H 428.172 -0.59766 -0.456406 0
M  V30 4186 H 430.143 -2.79041 -1.05728 0
M  V30 4187 C 428.892 -2.16628 -2.7197 0
M  V30 4188 H 428.215 -3.02624 -2.61264 0
M  V30 4189 H 429.655 -2.43803 -3.46895 0
M  V30 4190 C 428.114 -0.971807 -3.22579 0
M  V30 4191 O 428.644 -0.203228 -4.01186 0
M  V30 4192 N 426.85 -0.771238 -2.80179 0
M  V30 4193 H 426.397 -1.39792 -2.1637 0
M  V30 4194 H 426.355 0.0263667 -3.14389 0
M  V30 4195 N 430.127 0.543554 -1.4793 0
M  V30 4196 C 431.538 1.12561 -1.48953 0
M  V30 4197 C 431.889 1.94578 -0.251754 0
M  V30 4198 O 431.014 2.0665 0.642255 0
M  V30 4199 C 431.609 2.04801 -2.69892 0
M  V30 4200 C 430.168 2.58251 -2.73831 0
M  V30 4201 C 429.315 1.34918 -2.42265 0
M  V30 4202 H 432.266 0.32947 -1.55242 0
M  V30 4203 H 432.287 2.88886 -2.47639 0
M  V30 4204 H 431.799 1.4508 -3.59963 0
M  V30 4205 H 429.9 3.21732 -1.87934 0
M  V30 4206 H 430.013 2.98312 -3.74895 0
M  V30 4207 H 428.377 1.66046 -1.93134 0
M  V30 4208 H 429.16 0.769693 -3.3456 0
M  V30 4209 N 431.605 1.3629 0.791371 0
M  V30 4210 C 432.833 1.33562 1.58016 0
M  V30 4211 C 433.248 -0.0835616 1.88615 0
M  V30 4212 O 432.605 -1.0399 1.49974 0
M  V30 4213 C 432.656 2.15517 2.90232 0
M  V30 4214 O 432.377 3.51902 2.60953 0
M  V30 4215 C 433.878 2.20546 3.84544 0
M  V30 4216 H 431.098 0.458226 0.490173 0
M  V30 4217 H 433.642 1.79361 0.982345 0
M  V30 4218 H 431.797 1.73278 3.46487 0
M  V30 4219 H 432.211 3.94644 3.4548 0
M  V30 4220 H 433.685 2.82252 4.74382 0
M  V30 4221 H 434.162 1.20838 4.2225 0
M  V30 4222 H 434.768 2.63013 3.34222 0
M  V30 4223 N 433.083 -1.0153 1.20538 0
M  V30 4224 C 434.313 -1.78487 1.04048 0
M  V30 4225 C 434.721 -1.84631 -0.413292 0
M  V30 4226 O 434.064 -1.29919 -1.29872 0
M  V30 4227 C 434.126 -3.24367 1.55003 0
M  V30 4228 C 433.79 -3.41827 3.0332 0
M  V30 4229 C 434.787 -3.30941 4.00966 0
M  V30 4230 C 432.472 -3.67602 3.42307 0
M  V30 4231 C 434.466 -3.45577 5.35589 0
M  V30 4232 C 432.153 -3.81881 4.77085 0
M  V30 4233 C 433.151 -3.70874 5.73534 0
M  V30 4234 O 432.839 -3.84714 7.05868 0
M  V30 4235 H 432.571 -0.568108 0.366373 0
M  V30 4236 H 435.125 -1.28677 1.60098 0
M  V30 4237 H 433.355 -3.75266 0.933397 0
M  V30 4238 H 435.044 -3.82963 1.34514 0
M  V30 4239 H 435.81 -3.10964 3.72191 0
M  V30 4240 H 431.689 -3.75256 2.67776 0
M  V30 4241 H 435.233 -3.36902 6.10854 0
M  V30 4242 H 431.13 -4.01359 5.0555 0
M  V30 4243 H 431.898 -4.01724 7.13134 0
M  V30 4244 N 434.561 -1.01147 -1.20859 0
M  V30 4245 C 435.809 -0.696486 -1.89719 0
M  V30 4246 C 436.13 0.775788 -1.78904 0
M  V30 4247 O 435.4 1.55759 -1.18811 0
M  V30 4248 H 433.98 -0.254628 -0.702263 0
M  V30 4249 H 436.642 -1.28197 -1.46804 0
M  V30 4250 H 435.738 -0.975357 -2.96468 0
M  V30 4251 N 436.039 1.36541 -0.78704 0
M  V30 4252 C 437.288 1.98552 -0.35494 0
M  V30 4253 C 437.601 1.63171 1.07864 0
M  V30 4254 O 438.807 2.18399 1.61289 0
M  V30 4255 C 437.263 3.55136 -0.583671 0
M  V30 4256 C 436.871 3.99444 -2.02851 0
M  V30 4257 C 438.615 4.2395 -0.215957 0
M  V30 4258 C 436.522 5.48796 -2.20403 0
M  V30 4259 H 435.452 0.742888 -0.128972 0
M  V30 4260 H 438.103 1.5587 -0.968337 0
M  V30 4261 H 436.485 3.95875 0.0994046 0
M  V30 4262 H 437.659 3.6991 -2.74779 0
M  V30 4263 H 435.974 3.43459 -2.35425 0
M  V30 4264 H 438.571 5.33709 -0.325405 0
M  V30 4265 H 438.914 4.07827 0.835646 0
M  V30 4266 H 439.447 3.88565 -0.852175 0
M  V30 4267 H 436.186 5.69864 -3.23937 0
M  V30 4268 H 435.706 5.79964 -1.52977 0
M  V30 4269 H 437.385 6.14986 -2.01002 0
M  V30 4270 N 437.518 0.538854 1.48102 0
M  V30 4271 C 438.466 -0.232325 2.31437 0
M  V30 4272 C 439.46 -0.927004 1.41785 0
M  V30 4273 O 440.666 -0.850378 1.58646 0
M  V30 4274 H 437.041 -0.0937916 0.746128 0
M  V30 4275 H 439.012 0.489986 2.9435 0
M  V30 4276 C 437.761 -1.26074 3.24038 0
M  V30 4277 H 437.084 -0.735609 3.92974 0
M  V30 4278 H 438.524 -1.77157 3.85216 0
M  V30 4279 C 436.983 -2.29902 2.46265 0
M  V30 4280 O 437.513 -3.36502 2.19384 0
M  V30 4281 N 435.719 -2.03348 2.07601 0
M  V30 4282 H 435.266 -1.16675 2.29662 0
M  V30 4283 H 435.224 -2.73038 1.55877 0
M  V30 4284 N 438.996 -1.55193 0.274407 0
M  V30 4285 C 440.244 -1.99187 -0.341902 0
M  V30 4286 C 440.565 -1.16422 -1.56431 0
M  V30 4287 O 439.835 -0.253573 -1.94252 0
M  V30 4288 H 438.415 -0.735721 -0.129317 0
M  V30 4289 H 441.077 -1.91168 0.379578 0
M  V30 4290 H 440.173 -3.05629 -0.632253 0
M  V30 4291 N 440.474 -0.00167713 -1.576 0
M  V30 4292 C 441.699 0.69739 -1.95323 0
M  V30 4293 C 442.124 1.6642 -0.876706 0
M  V30 4294 O 441.482 1.80548 0.165007 0
M  V30 4295 C 441.53 1.40403 -3.32144 0
M  V30 4296 O 440.634 2.5185 -3.26566 0
M  V30 4297 H 439.975 0.185373 -0.637599 0
M  V30 4298 H 442.505 -0.0553665 -2.04525 0
M  V30 4299 H 442.515 1.76707 -3.67748 0
M  V30 4300 H 441.19 0.695167 -4.10049 0
M  V30 4301 H 439.767 2.17861 -3.0264 0
M  V30 4302 N 441.952 1.55251 0.271103 0
M  V30 4303 C 443.18 1.79974 1.02064 0
M  V30 4304 C 443.595 0.574003 1.79863 0
M  V30 4305 O 442.952 -0.456962 1.76686 0
M  V30 4306 C 443.003 3.02603 1.97772 0
M  V30 4307 O 442.724 4.20443 1.23124 0
M  V30 4308 C 444.225 3.39944 2.84522 0
M  V30 4309 H 441.445 0.599489 0.301419 0
M  V30 4310 H 443.989 2.02268 0.301313 0
M  V30 4311 H 442.144 2.8243 2.65165 0
M  V30 4312 H 442.558 4.89783 1.87651 0
M  V30 4313 H 444.032 4.28915 3.47471 0
M  V30 4314 H 444.509 2.59432 3.54389 0
M  V30 4315 H 445.115 3.62383 2.22618 0
M  V30 4316 N 443.43 -0.535701 1.48216 0
M  V30 4317 C 444.841 -1.11769 1.49548 0
M  V30 4318 C 445.192 -1.94442 0.26207 0
M  V30 4319 O 444.317 -2.06987 -0.631287 0
M  V30 4320 C 444.912 -2.03367 2.70975 0
M  V30 4321 C 443.471 -2.56795 2.75196 0
M  V30 4322 C 442.618 -1.33631 2.42977 0
M  V30 4323 H 445.569 -0.321232 1.55415 0
M  V30 4324 H 445.59 -2.87569 2.49167 0
M  V30 4325 H 445.102 -1.43169 3.60727 0
M  V30 4326 H 443.203 -3.20731 1.89638 0
M  V30 4327 H 443.316 -2.9632 3.76472 0
M  V30 4328 H 441.68 -1.6502 1.94012 0
M  V30 4329 H 442.463 -0.75194 3.34964 0
M  V30 4330 N 444.908 -1.36708 -0.784132 0
M  V30 4331 C 446.185 -1.21776 -1.53069 0
M  V30 4332 C 446.565 0.193876 -2.10208 0
M  V30 4333 O 445.913 1.20012 -1.94446 0
M  V30 4334 C 446.123 -2.30395 -2.62143 0
M  V30 4335 C 447.471 -2.67325 -3.29882 0
M  V30 4336 O 448.495 -2.29478 -2.7243 0
M  V30 4337 O 447.354 -3.32485 -4.33724 0
M  V30 4338 H 444.448 -0.474459 -0.677361 0
M  V30 4339 H 446.994 -1.48454 -0.82216 0
M  V30 4340 H 445.766 -3.2498 -2.17953 0
M  V30 4341 H 445.389 -2.05112 -3.40609 0
M  V30 4342 N 446.386 1.0089 -1.21074 0
M  V30 4343 C 447.797 1.56056 -1.02486 0
M  V30 4344 C 448.148 1.91728 0.416506 0
M  V30 4345 O 447.273 1.73066 1.29912 0
M  V30 4346 C 447.868 2.83563 -1.85411 0
M  V30 4347 C 446.427 3.3523 -1.71166 0
M  V30 4348 C 445.574 2.0846 -1.82865 0
M  V30 4349 H 448.525 0.831818 -1.35154 0
M  V30 4350 H 448.546 3.55286 -1.36205 0
M  V30 4351 H 448.058 2.57569 -2.9031 0
M  V30 4352 H 446.159 3.66167 -0.689361 0
M  V30 4353 H 446.272 4.06913 -2.52901 0
M  V30 4354 H 444.636 2.21275 -1.26132 0
M  V30 4355 H 445.419 1.84883 -2.89263 0
M  V30 4356 N 447.864 1.01787 1.20321 0
M  V30 4357 C 449.089 0.727009 1.9424 0
M  V30 4358 C 449.514 -0.706179 1.74341 0
M  V30 4359 O 448.872 -1.48609 1.03852 0
M  V30 4360 C 448.92 1.06958 3.44372 0
M  V30 4361 O 448.024 0.181983 4.11998 0
M  V30 4362 H 447.365 0.269626 0.606793 0
M  V30 4363 H 449.895 1.36158 1.52716 0
M  V30 4364 H 449.905 1.02182 3.94997 0
M  V30 4365 H 448.58 2.11378 3.58179 0
M  V30 4366 H 447.157 0.287378 3.71791 0
M  V30 4367 N 449.342 -1.36122 0.79427 0
M  V30 4368 C 450.289 -2.29982 0.194101 0
M  V30 4369 C 451.259 -1.52214 -0.664833 0
M  V30 4370 O 452.444 -1.80702 -0.612498 0
M  V30 4371 C 449.584 -3.38706 -0.661244 0
M  V30 4372 C 448.697 -4.31456 0.216766 0
M  V30 4373 C 447.832 -5.27265 -0.645411 0
M  V30 4374 C 446.871 -6.11653 0.233756 0
M  V30 4375 N 446.008 -6.99636 -0.587682 0
M  V30 4376 H 450.848 -2.80722 0.999965 0
M  V30 4377 H 448.385 -1.38172 0.504677 0
M  V30 4378 H 450.343 -4.00394 -1.17219 0
M  V30 4379 H 448.973 -2.89274 -1.43249 0
M  V30 4380 H 448.025 -3.7088 0.845724 0
M  V30 4381 H 449.337 -4.90724 0.893973 0
M  V30 4382 H 448.491 -5.94266 -1.22198 0
M  V30 4383 H 447.23 -4.68463 -1.35623 0
M  V30 4384 H 446.235 -5.4361 0.82269 0
M  V30 4385 H 447.46 -6.72531 0.942247 0
M  V30 4386 H 445.406 -6.43337 -1.2827 0
M  V30 4387 H 445.323 -7.55993 0.0317402 0
M  V30 4388 H 446.591 -7.71001 -1.14792 0
M  V30 4389 N 450.82 -0.546701 -1.47814 0
M  V30 4390 C 451.75 0.195317 -2.32682 0
M  V30 4391 C 452.731 0.918981 -1.43139 0
M  V30 4392 O 453.916 0.901501 -1.72008 0
M  V30 4393 C 451.046 1.23237 -3.247 0
M  V30 4394 C 450 0.625818 -4.234 0
M  V30 4395 C 449.326 1.76674 -5.04669 0
M  V30 4396 C 450.626 -0.413515 -5.2066 0
M  V30 4397 H 452.32 -0.513184 -2.94969 0
M  V30 4398 H 449.866 -0.248241 -1.41844 0
M  V30 4399 H 451.819 1.75955 -3.82907 0
M  V30 4400 H 450.543 1.97067 -2.60446 0
M  V30 4401 H 449.202 0.120023 -3.66403 0
M  V30 4402 H 448.85 2.49383 -4.36826 0
M  V30 4403 H 448.55 1.36673 -5.71484 0
M  V30 4404 H 450.074 2.29738 -5.65732 0
M  V30 4405 H 451.488 0.0272042 -5.73294 0
M  V30 4406 H 449.885 -0.731825 -5.95621 0
M  V30 4407 H 450.955 -1.31325 -4.66778 0
M  V30 4408 N 452.299 1.55045 -0.282633 0
M  V30 4409 C 453.229 2.2579 0.595066 0
M  V30 4410 C 454.21 1.25074 1.15284 0
M  V30 4411 O 455.395 1.5381 1.18559 0
M  V30 4412 C 452.525 2.98472 1.77572 0
M  V30 4413 C 451.479 4.0618 1.34914 0
M  V30 4414 C 450.805 4.66477 2.6135 0
M  V30 4415 C 452.105 5.1996 0.493821 0
M  V30 4416 H 453.799 2.994 0.00505653 0
M  V30 4417 H 451.345 1.44 0.000992001 0
M  V30 4418 H 453.298 3.46677 2.39568 0
M  V30 4419 H 452.022 2.2241 2.39168 0
M  V30 4420 H 450.681 3.58797 0.752338 0
M  V30 4421 H 450.329 3.87074 3.2122 0
M  V30 4422 H 450.029 5.39207 2.33516 0
M  V30 4423 H 451.553 5.17435 3.24181 0
M  V30 4424 H 452.967 5.64172 1.01898 0
M  V30 4425 H 451.364 5.99299 0.310047 0
M  V30 4426 H 452.434 4.82462 -0.485593 0
M  V30 4427 N 453.777 0.010035 1.57597 0
M  V30 4428 C 455.024 -0.6727 1.91 0
M  V30 4429 C 455.352 -1.73219 0.884614 0
M  V30 4430 O 454.607 -1.95395 -0.109215 0
M  V30 4431 C 454.906 -1.34434 3.31153 0
M  V30 4432 C 454.572 -0.417083 4.48967 0
M  V30 4433 C 453.234 -0.161809 4.80928 0
M  V30 4434 C 455.586 0.220753 5.20732 0
M  V30 4435 C 452.914 0.739426 5.82022 0
M  V30 4436 C 455.266 1.10993 6.22787 0
M  V30 4437 C 453.93 1.37428 6.532 0
M  V30 4438 H 453.2 -0.246158 0.698918 0
M  V30 4439 H 455.847 0.0677145 1.9138 0
M  V30 4440 H 454.152 -2.15905 3.26944 0
M  V30 4441 H 455.849 -1.87883 3.54261 0
M  V30 4442 H 452.439 -0.626217 4.24001 0
M  V30 4443 H 456.623 0.0365643 4.96287 0
M  V30 4444 H 451.879 0.952139 6.03941 0
M  V30 4445 H 456.053 1.61046 6.77523 0
M  V30 4446 H 453.68 2.0743 7.31353 0
M  V30 4447 N 455.255 -1.55392 -0.262866 0
M  V30 4448 C 456.203 -1.8977 -1.345 0
M  V30 4449 C 457.197 -0.775063 -1.50629 0
M  V30 4450 O 458.403 -0.959519 -1.52293 0
M  V30 4451 H 454.778 -0.602467 -0.450041 0
M  V30 4452 H 456.749 -2.80147 -1.02762 0
M  V30 4453 C 455.498 -2.19501 -2.69657 0
M  V30 4454 H 454.821 -3.05378 -2.5804 0
M  V30 4455 H 456.261 -2.47469 -3.44289 0
M  V30 4456 C 454.72 -1.00597 -3.21531 0
M  V30 4457 O 455.25 -0.245768 -4.00947 0
M  V30 4458 N 453.456 -0.800911 -2.79345 0
M  V30 4459 H 453.003 -1.42079 -2.14875 0
M  V30 4460 H 452.961 -0.00697996 -3.14399 0
M  V30 4461 N 456.733 0.527833 -1.48498 0
M  V30 4462 C 458.01 1.28905 -1.47115 0
M  V30 4463 C 458.39 2.10297 -0.184007 0
M  V30 4464 O 457.738 2.12728 0.834218 0
M  V30 4465 C 457.948 2.16866 -2.73441 0
M  V30 4466 C 459.296 2.76936 -3.21857 0
M  V30 4467 O 460.32 2.27152 -2.74373 0
M  V30 4468 O 459.179 3.67496 -4.04486 0
M  V30 4469 H 456.273 0.581918 -0.587623 0
M  V30 4470 H 458.819 0.544311 -1.60734 0
M  V30 4471 H 457.591 1.56521 -3.58632 0
M  V30 4472 H 457.214 2.98583 -2.62553 0
M  V30 4473 N 458.211 1.37122 0.776871 0
M  V30 4474 C 459.436 1.354 1.57104 0
M  V30 4475 C 459.861 -0.0595562 1.88006 0
M  V30 4476 O 459.219 -1.03514 1.48844 0
M  V30 4477 C 459.267 2.19472 2.8612 0
M  V30 4478 O 458.371 1.59582 3.80273 0
M  V30 4479 H 457.712 0.462869 0.476076 0
M  V30 4480 H 460.242 1.80577 0.961932 0
M  V30 4481 H 460.252 2.32502 3.35271 0
M  V30 4482 H 458.927 3.22222 2.62956 0
M  V30 4483 H 457.504 1.55564 3.38902 0
M  V30 4484 N 459.689 -1.00246 1.21608 0
M  V30 4485 C 460.935 -1.74319 1.03638 0
M  V30 4486 C 461.268 -1.89408 -0.428749 0
M  V30 4487 O 460.543 -1.43026 -1.3181 0
M  V30 4488 C 460.826 -3.15431 1.73711 0
M  V30 4489 C 460.679 -3.08049 3.27759 0
M  V30 4490 C 461.998 -4.14407 1.48173 0
M  V30 4491 H 459.117 -0.632741 0.377899 0
M  V30 4492 H 461.759 -1.16853 1.49818 0
M  V30 4493 H 459.909 -3.64493 1.34452 0
M  V30 4494 H 461.581 -2.66681 3.76403 0
M  V30 4495 H 459.824 -2.45088 3.57931 0
M  V30 4496 H 460.495 -4.07862 3.71958 0
M  V30 4497 H 462.971 -3.74061 1.82258 0
M  V30 4498 H 461.847 -5.11279 1.99713 0
M  V30 4499 H 462.108 -4.40174 0.412273 0
M  V30 4500 N 461.167 -1.02423 -1.1978 0
M  V30 4501 C 462.117 -0.571689 -2.20716 0
M  V30 4502 C 463.101 0.377077 -1.56419 0
M  V30 4503 O 464.293 0.198801 -1.7588 0
M  V30 4504 C 461.422 0.0808555 -3.43205 0
M  V30 4505 C 460.508 -0.890073 -4.14655 0
M  V30 4506 N 460.899 -2.05065 -4.62366 0
M  V30 4507 C 459.197 -0.71252 -4.40272 0
M  V30 4508 C 459.898 -2.66264 -5.17183 0
M  V30 4509 N 458.874 -1.94264 -5.07703 0
M  V30 4510 H 462.676 -1.45636 -2.55279 0
M  V30 4511 H 460.19 -0.890596 -1.35802 0
M  V30 4512 H 462.187 0.422654 -4.14752 0
M  V30 4513 H 460.847 0.961274 -3.10144 0
M  V30 4514 H 461.858 -2.43026 -4.57339 0
M  V30 4515 H 458.535 0.119199 -4.1733 0
M  V30 4516 H 459.925 -3.64526 -5.64421 0
M  V30 4517 N 462.645 1.35699 -0.801477 0
M  V30 4518 C 464.056 1.81415 -0.441073 0
M  V30 4519 C 464.407 1.66595 1.03636 0
M  V30 4520 O 463.532 1.19369 1.80499 0
M  V30 4521 C 464.127 3.29369 -0.793819 0
M  V30 4522 C 462.686 3.73248 -0.486083 0
M  V30 4523 C 461.833 2.57775 -1.02213 0
M  V30 4524 H 464.784 1.23749 -0.993572 0
M  V30 4525 H 464.805 3.80395 -0.0894158 0
M  V30 4526 H 464.317 3.40123 -1.86917 0
M  V30 4527 H 462.418 3.68046 0.580735 0
M  V30 4528 H 462.531 4.68222 -1.01513 0
M  V30 4529 H 460.895 2.50788 -0.444712 0
M  V30 4530 H 461.678 2.71309 -2.10348 0
M  V30 4531 N 464.123 0.554532 1.47522 0
M  V30 4532 C 465.351 0.034257 2.06872 0
M  V30 4533 C 465.766 -1.25826 1.40759 0
M  V30 4534 O 465.123 -1.75425 0.503217 0
M  V30 4535 C 465.174 -0.167827 3.6111 0
M  V30 4536 O 464.895 1.07351 4.24744 0
M  V30 4537 C 466.396 -0.72569 4.3732 0
M  V30 4538 H 463.616 0.0446275 0.669514 0
M  V30 4539 H 466.16 0.767181 1.89564 0
M  V30 4540 H 464.315 -0.850872 3.7794 0
M  V30 4541 H 464.729 0.869563 5.17242 0
M  V30 4542 H 466.203 -0.816394 5.45929 0
M  V30 4543 H 466.68 -1.73635 4.0342 0
M  V30 4544 H 467.286 -0.0784292 4.25228 0
M  V30 4545 N 465.601 -1.54893 0.290851 0
M  V30 4546 C 466.85 -1.99111 -0.322113 0
M  V30 4547 C 467.163 -1.18283 -1.55784 0
M  V30 4548 O 468.369 -1.5272 -2.24475 0
M  V30 4549 C 466.825 -3.54442 -0.624438 0
M  V30 4550 C 466.433 -4.44066 0.592373 0
M  V30 4551 C 468.177 -4.07211 -1.19916 0
M  V30 4552 C 466.084 -5.90812 0.263762 0
M  V30 4553 H 465.014 -0.743712 -0.124133 0
M  V30 4554 H 467.665 -1.79132 0.39797 0
M  V30 4555 H 466.047 -3.70281 -1.40384 0
M  V30 4556 H 467.221 -4.39999 1.36886 0
M  V30 4557 H 465.536 -4.02015 1.08502 0
M  V30 4558 H 468.133 -5.14407 -1.45909 0
M  V30 4559 H 468.476 -3.57196 -2.13815 0
M  V30 4560 H 469.009 -3.94873 -0.481687 0
M  V30 4561 H 465.748 -6.44955 1.17105 0
M  V30 4562 H 465.268 -5.97911 -0.475655 0
M  V30 4563 H 466.947 -6.46852 -0.138354 0
M  V30 4564 N 467.08 -0.0183926 -1.57589 0
M  V30 4565 C 468.308 0.673046 -1.95647 0
M  V30 4566 C 468.723 1.66275 -0.894312 0
M  V30 4567 O 468.08 1.82072 0.124975 0
M  V30 4568 C 468.131 1.38884 -3.33756 0
M  V30 4569 O 467.852 0.438806 -4.35897 0
M  V30 4570 C 469.353 2.1731 -3.86383 0
M  V30 4571 H 466.573 0.186292 -0.644621 0
M  V30 4572 H 469.117 -0.0749748 -2.04363 0
M  V30 4573 H 467.272 2.08835 -3.26293 0
M  V30 4574 H 467.686 0.945869 -5.15901 0
M  V30 4575 H 469.16 2.62863 -4.85394 0
M  V30 4576 H 469.637 3.00764 -3.20059 0
M  V30 4577 H 470.243 1.52339 -3.97081 0
M  V30 4578 N 468.558 1.5553 0.254621 0
M  V30 4579 C 469.806 1.7665 0.981793 0
M  V30 4580 C 470.127 0.580963 1.86145 0
M  V30 4581 O 469.397 -0.403537 1.91699 0
M  V30 4582 H 467.977 0.651475 0.365498 0
M  V30 4583 H 470.639 1.92958 0.274426 0
M  V30 4584 H 469.735 2.67486 1.60802 0
M  V30 4585 N 470.036 -0.519951 1.48776 0
M  V30 4586 C 470.968 -1.63973 1.60142 0
M  V30 4587 C 471.981 -1.55404 0.485117 0
M  V30 4588 O 473.17 -1.61682 0.756391 0
M  V30 4589 C 470.27 -3.02676 1.52449 0
M  V30 4590 C 469.443 -3.36624 2.79291 0
M  V30 4591 C 468.502 -4.54652 2.64912 0
M  V30 4592 O 467.528 -4.57374 3.38818 0
M  V30 4593 N 468.73 -5.53432 1.75195 0
M  V30 4594 H 471.495 -1.54656 2.56713 0
M  V30 4595 H 469.056 -0.707439 1.45626 0
M  V30 4596 H 471.048 -3.79525 1.4051 0
M  V30 4597 H 469.618 -3.06018 0.638125 0
M  V30 4598 H 468.838 -2.48855 3.0572 0
M  V30 4599 H 470.126 -3.56094 3.6342 0
M  V30 4600 H 469.524 -5.54018 1.14371 0
M  V30 4601 H 468.081 -6.29459 1.69189 0
M  V30 4602 N 471.514 -1.37532 -0.769588 0
M  V30 4603 C 472.93 -1.18379 -1.07045 0
M  V30 4604 C 473.13 -0.0214312 -2.01489 0
M  V30 4605 O 472.186 0.637809 -2.44312 0
M  V30 4606 C 473.499 -2.50338 -1.66588 0
M  V30 4607 C 475.047 -2.56879 -1.78835 0
M  V30 4608 C 475.522 -3.88974 -2.41792 0
M  V30 4609 N 477.013 -3.90428 -2.4924 0
M  V30 4610 C 477.748 -4.89388 -2.98809 0
M  V30 4611 N 477.244 -5.98745 -3.48535 0
M  V30 4612 N 479.037 -4.76791 -2.97703 0
M  V30 4613 H 471.188 -2.11921 -0.142541 0
M  V30 4614 H 473.451 -0.939608 -0.125863 0
M  V30 4615 H 473.157 -3.35767 -1.0466 0
M  V30 4616 H 473.031 -2.67583 -2.65856 0
M  V30 4617 H 475.418 -1.71856 -2.39895 0
M  V30 4618 H 475.499 -2.43516 -0.783166 0
M  V30 4619 H 475.143 -4.74412 -1.81371 0
M  V30 4620 H 475.073 -3.99641 -3.4292 0
M  V30 4621 H 477.564 -3.11433 -2.14052 0
M  V30 4622 H 477.877 -6.70205 -3.84767 0
M  V30 4623 H 476.222 -6.02387 -3.46634 0
M  V30 4624 H 479.413 -3.90478 -2.58157 0
M  V30 4625 H 479.586 -5.54069 -3.36024 0
M  V30 4626 N 472.992 0.995999 -1.22138 0
M  V30 4627 C 473.922 2.10387 -1.01289 0
M  V30 4628 C 474.903 1.69975 0.0651454 0
M  V30 4629 O 476.088 1.9396 -0.0964628 0
M  V30 4630 C 473.218 3.42312 -0.586517 0
M  V30 4631 C 472.172 3.96558 -1.61014 0
M  V30 4632 C 471.498 5.24494 -1.0397 0
M  V30 4633 C 472.798 4.27595 -2.99933 0
M  V30 4634 H 474.492 2.28086 -1.93951 0
M  V30 4635 H 472.038 1.09607 -0.933928 0
M  V30 4636 H 473.991 4.19223 -0.427793 0
M  V30 4637 H 472.715 3.24431 0.375761 0
M  V30 4638 H 471.374 3.21776 -1.75658 0
M  V30 4639 H 471.022 5.02953 -0.0688703 0
M  V30 4640 H 470.722 5.61755 -1.72352 0
M  V30 4641 H 472.246 6.04042 -0.892494 0
M  V30 4642 H 473.66 4.95315 -2.8868 0
M  V30 4643 H 472.057 4.76021 -3.6541 0
M  V30 4644 H 473.127 3.35498 -3.50099 0
M  V30 4645 N 474.47 1.03057 1.19235 0
M  V30 4646 C 475.719 0.72326 1.88287 0
M  V30 4647 C 476.032 -0.751333 1.80594 0
M  V30 4648 O 477.238 -1.17176 2.44912 0
M  V30 4649 C 475.694 1.24338 3.3774 0
M  V30 4650 C 475.302 2.74587 3.53986 0
M  V30 4651 C 477.046 1.01213 4.12257 0
M  V30 4652 C 474.953 3.20009 4.97341 0
M  V30 4653 H 473.883 0.266848 0.705201 0
M  V30 4654 H 476.534 1.24509 1.34795 0
M  V30 4655 H 474.916 0.649457 3.90638 0
M  V30 4656 H 476.09 3.39649 3.11408 0
M  V30 4657 H 474.405 2.9601 2.9286 0
M  V30 4658 H 477.002 1.32675 5.17978 0
M  V30 4659 H 477.345 -0.051001 4.16269 0
M  V30 4660 H 477.878 1.57014 3.65501 0
M  V30 4661 H 474.617 4.25659 4.98493 0
M  V30 4662 H 474.137 2.59676 5.40674 0
M  V30 4663 H 475.816 3.13447 5.66003 0
M  V30 4664 N 475.948 -1.35272 0.808662 0
M  V30 4665 C 476.911 -2.28082 0.226093 0
M  V30 4666 C 477.911 -1.49673 -0.587762 0
M  V30 4667 O 479.101 -1.69404 -0.405943 0
M  V30 4668 C 476.233 -3.33955 -0.684596 0
M  V30 4669 H 477.426 -2.81116 1.04469 0
M  V30 4670 H 474.979 -1.45162 0.579466 0
M  V30 4671 H 475.714 -2.86111 -1.5268 0
M  V30 4672 H 475.499 -3.91965 -0.102699 0
M  V30 4673 H 476.989 -4.03219 -1.08646 0
M  V30 4674 N 477.426 -0.562348 -1.47226 0
M  V30 4675 C 478.703 0.0256985 -1.95583 0
M  V30 4676 C 479.083 1.48032 -1.50498 0
M  V30 4677 O 478.431 2.15973 -0.746181 0
M  V30 4678 C 478.641 -0.125129 -3.48776 0
M  V30 4679 C 479.989 0.0175728 -4.24596 0
M  V30 4680 O 481.013 -0.0529341 -3.56161 0
M  V30 4681 O 479.872 0.170145 -5.46235 0
M  V30 4682 H 476.966 0.0612565 -0.824728 0
M  V30 4683 H 479.512 -0.629233 -1.57603 0
M  V30 4684 H 478.284 -1.13715 -3.74412 0
M  V30 4685 H 477.907 0.567178 -3.93534 0
M  V30 4686 N 478.904 1.54736 -0.299062 0
M  V30 4687 C 480.134 2.04215 0.312992 0
M  V30 4688 C 480.542 1.17596 1.48215 0
M  V30 4689 O 479.885 0.193835 1.82674 0
M  V30 4690 C 479.947 3.49696 0.833862 0
M  V30 4691 C 479.611 4.56518 -0.20977 0
M  V30 4692 C 480.608 5.09442 -1.03756 0
M  V30 4693 C 478.293 5.01073 -0.35091 0
M  V30 4694 C 480.287 6.05459 -1.99244 0
M  V30 4695 C 477.974 5.9691 -1.30924 0
M  V30 4696 C 478.972 6.48987 -2.1285 0
M  V30 4697 O 478.66 7.42947 -3.07059 0
M  V30 4698 H 478.392 0.672128 0.0722494 0
M  V30 4699 H 480.946 2.00718 -0.436043 0
M  V30 4700 H 479.176 3.5051 1.63339 0
M  V30 4701 H 480.865 3.82381 1.36159 0
M  V30 4702 H 481.631 4.75816 -0.939376 0
M  V30 4703 H 477.51 4.60168 0.276813 0
M  V30 4704 H 481.054 6.46031 -2.63229 0
M  V30 4705 H 476.951 6.29953 -1.40815 0
M  V30 4706 H 477.719 7.60743 -3.02015 0
M  V30 4707 N 480.382 0.0267497 1.57577 0
M  V30 4708 C 481.61 -0.662661 1.96001 0
M  V30 4709 C 482.025 -1.65799 0.903117 0
M  V30 4710 O 481.382 -1.82135 -0.115317 0
M  V30 4711 C 481.433 -1.37112 3.34488 0
M  V30 4712 O 481.154 -0.415683 4.36123 0
M  V30 4713 C 482.655 -2.15257 3.8753 0
M  V30 4714 H 479.875 -0.18287 0.6456 0
M  V30 4715 H 482.419 0.0858116 2.0432 0
M  V30 4716 H 480.574 -2.07101 3.27395 0
M  V30 4717 H 480.988 -0.918496 5.16395 0
M  V30 4718 H 482.462 -2.60285 4.86781 0
M  V30 4719 H 482.939 -2.99063 3.21649 0
M  V30 4720 H 483.545 -1.50231 3.97883 0
M  V30 4721 N 481.861 -1.55662 -0.24637 0
M  V30 4722 C 483.091 -1.81312 -0.990438 0
M  V30 4723 C 483.499 -0.600234 -1.79426 0
M  V30 4724 O 482.842 0.440537 -1.78339 0
M  V30 4725 C 482.904 -3.0032 -1.97607 0
M  V30 4726 C 482.568 -4.36322 -1.35912 0
M  V30 4727 C 483.565 -5.14295 -0.761348 0
M  V30 4728 C 481.25 -4.83019 -1.37833 0
M  V30 4729 C 483.244 -6.37114 -0.190998 0
M  V30 4730 C 480.931 -6.05786 -0.804128 0
M  V30 4731 C 481.929 -6.82672 -0.211489 0
M  V30 4732 O 481.617 -8.03121 0.353845 0
M  V30 4733 H 481.349 -0.607233 -0.297058 0
M  V30 4734 H 483.903 -2.0356 -0.274351 0
M  V30 4735 H 482.133 -2.73829 -2.73047 0
M  V30 4736 H 483.822 -3.13057 -2.58361 0
M  V30 4737 H 484.588 -4.79337 -0.739013 0
M  V30 4738 H 480.467 -4.23165 -1.829 0
M  V30 4739 H 484.011 -6.97069 0.272206 0
M  V30 4740 H 479.908 -6.40222 -0.823792 0
M  V30 4741 H 480.676 -8.18131 0.245761 0
M  V30 4742 N 483.339 0.512053 -1.4905 0
M  V30 4743 C 484.564 1.2959 -1.6193 0
M  V30 4744 C 484.989 1.85906 -0.286454 0
M  V30 4745 O 484.347 1.65312 0.744426 0
M  V30 4746 C 484.395 2.40987 -2.68249 0
M  V30 4747 O 483.499 3.44531 -2.26654 0
M  V30 4748 H 482.84 0.383053 -0.542371 0
M  V30 4749 H 485.37 0.614231 -1.95162 0
M  V30 4750 H 485.38 2.86913 -2.90078 0
M  V30 4751 H 484.055 1.99361 -3.65004 0
M  V30 4752 H 482.632 3.046 -2.15112 0
M  V30 4753 N 484.817 1.37938 0.762283 0
M  V30 4754 C 485.747 1.37176 1.88958 0
M  V30 4755 C 486.728 0.238945 1.68413 0
M  V30 4756 O 487.913 0.440726 1.89133 0
M  V30 4757 C 485.043 1.18742 3.2637 0
M  V30 4758 C 483.997 2.29136 3.61498 0
M  V30 4759 C 483.323 1.95816 4.97554 0
M  V30 4760 C 484.623 3.71363 3.6727 0
M  V30 4761 H 486.317 2.31509 1.89853 0
M  V30 4762 H 483.863 1.11438 0.912005 0
M  V30 4763 H 485.816 1.16837 4.04879 0
M  V30 4764 H 484.54 0.208683 3.25933 0
M  V30 4765 H 483.199 2.30213 2.85303 0
M  V30 4766 H 482.847 0.964475 4.93667 0
M  V30 4767 H 482.547 2.69745 5.22026 0
M  V30 4768 H 484.071 1.95513 5.78452 0
M  V30 4769 H 485.485 3.72364 4.35911 0
M  V30 4770 H 483.882 4.44425 4.03245 0
M  V30 4771 H 484.952 4.04305 2.67704 0
M  V30 4772 N 486.295 -0.989507 1.22664 0
M  V30 4773 C 487.225 -2.09847 1.02404 0
M  V30 4774 C 488.206 -1.70007 -0.0561303 0
M  V30 4775 O 489.391 -1.93906 0.106748 0
M  V30 4776 C 486.521 -3.41996 0.604663 0
M  V30 4777 C 485.475 -3.95699 1.63115 0
M  V30 4778 C 484.801 -5.23936 1.0675 0
M  V30 4779 C 486.101 -4.25999 3.02196 0
M  V30 4780 H 487.795 -2.27054 1.95158 0
M  V30 4781 H 485.341 -1.09111 0.939727 0
M  V30 4782 H 487.294 -4.1899 0.45002 0
M  V30 4783 H 486.018 -3.24626 -0.35855 0
M  V30 4784 H 484.677 -3.2084 1.77362 0
M  V30 4785 H 484.325 -5.02909 0.0955422 0
M  V30 4786 H 484.025 -5.60833 1.75328 0
M  V30 4787 H 485.549 -6.0356 0.924516 0
M  V30 4788 H 486.963 -4.93777 2.91303 0
M  V30 4789 H 485.36 -4.74076 3.67929 0
M  V30 4790 H 486.43 -3.33636 3.51873 0
M  V30 4791 N 487.773 -1.03688 -1.18687 0
M  V30 4792 C 488.998 -0.757819 -1.93059 0
M  V30 4793 C 489.423 0.678353 -1.75442 0
M  V30 4794 O 488.781 1.46938 -1.06203 0
M  V30 4795 C 488.829 -1.12423 -3.42627 0
M  V30 4796 O 487.933 -0.247505 -4.11657 0
M  V30 4797 H 487.274 -0.279245 -0.602427 0
M  V30 4798 H 489.804 -1.3857 -1.5053 0
M  V30 4799 H 489.814 -1.08454 -3.93322 0
M  V30 4800 H 488.489 -2.17049 -3.54771 0
M  V30 4801 H 487.066 -0.34649 -3.71287 0
M  V30 4802 N 489.251 1.34841 -0.815825 0
M  V30 4803 C 490.214 2.27959 -0.238185 0
M  V30 4804 C 491.214 1.49983 0.579816 0
M  V30 4805 O 492.404 1.69617 0.396953 0
M  V30 4806 C 489.536 3.34314 0.666876 0
M  V30 4807 H 490.729 2.80558 -1.05958 0
M  V30 4808 H 488.282 1.44852 -0.587156 0
M  V30 4809 H 489.017 2.86916 1.5116 0
M  V30 4810 H 488.802 3.92014 0.0819106 0
M  V30 4811 H 490.292 4.0379 1.06506 0
M  V30 4812 N 490.729 0.570148 1.46925 0
M  V30 4813 C 492.14 0.1402 1.86173 0
M  V30 4814 C 492.491 -1.29347 1.47526 0
M  V30 4815 O 491.616 -1.97508 0.884292 0
M  V30 4816 C 492.211 0.247661 3.37894 0
M  V30 4817 C 490.77 -0.127332 3.76185 0
M  V30 4818 C 489.917 0.589349 2.70965 0
M  V30 4819 H 492.868 0.779117 1.38259 0
M  V30 4820 H 492.889 -0.530341 3.76786 0
M  V30 4821 H 492.401 1.29121 3.65991 0
M  V30 4822 H 490.502 -1.17149 3.53704 0
M  V30 4823 H 490.615 0.240238 4.78497 0
M  V30 4824 H 488.979 0.0309824 2.54681 0
M  V30 4825 H 489.762 1.6343 3.01903 0
M  V30 4826 N 492.207 -1.54576 0.307264 0
M  V30 4827 C 493.453 -2.01272 -0.293453 0
M  V30 4828 C 493.808 -1.19178 -1.51044 0
M  V30 4829 O 493.101 -0.261704 -1.89804 0
M  V30 4830 C 493.295 -3.50572 -0.695253 0
M  V30 4831 C 493.124 -4.47118 0.481249 0
M  V30 4832 C 491.894 -4.958 0.97524 0
M  V30 4833 C 494.092 -4.96853 1.32823 0
M  V30 4834 N 492.074 -5.76212 2.11785 0
M  V30 4835 C 493.445 -5.75028 2.31824 0
M  V30 4836 C 495.5 -4.79026 1.35788 0
M  V30 4837 C 494.203 -6.37276 3.33574 0
M  V30 4838 C 496.229 -5.42097 2.364 0
M  V30 4839 C 495.591 -6.2011 3.34129 0
M  V30 4840 H 491.69 -0.778709 -0.0716705 0
M  V30 4841 H 494.274 -1.89695 0.438602 0
M  V30 4842 H 492.445 -3.62427 -1.39647 0
M  V30 4843 H 494.177 -3.84056 -1.27604 0
M  V30 4844 H 490.932 -4.70405 0.549184 0
M  V30 4845 H 491.356 -6.21101 2.69375 0
M  V30 4846 H 495.998 -4.18288 0.616021 0
M  V30 4847 H 493.716 -6.97144 4.08676 0
M  V30 4848 H 497.302 -5.30229 2.39475 0
M  V30 4849 H 496.182 -6.68049 4.10707 0
M  V30 4850 N 493.685 -0.035106 -1.57561 0
M  V30 4851 C 494.595 0.960295 -2.14046 0
M  V30 4852 C 495.611 1.3529 -1.0942 0
M  V30 4853 O 496.787 1.43309 -1.41508 0
M  V30 4854 C 493.852 2.22214 -2.66124 0
M  V30 4855 C 492.913 1.8894 -3.85487 0
M  V30 4856 C 492.146 3.09109 -4.35072 0
M  V30 4857 O 492.369 4.21963 -3.83802 0
M  V30 4858 O 491.303 2.91058 -5.26848 0
M  V30 4859 H 495.129 0.509983 -2.99387 0
M  V30 4860 H 492.714 0.185853 -1.48239 0
M  V30 4861 H 494.596 2.96279 -2.99661 0
M  V30 4862 H 493.271 2.66414 -1.83862 0
M  V30 4863 H 492.178 1.12241 -3.56865 0
M  V30 4864 H 493.511 1.49551 -4.6893 0
M  V30 4865 N 495.163 1.55791 0.238111 0
M  V30 4866 C 496.093 1.94068 1.29846 0
M  V30 4867 C 497.074 0.806726 1.49753 0
M  V30 4868 O 498.259 1.06772 1.62214 0
M  V30 4869 C 495.389 2.24302 2.65153 0
M  V30 4870 C 494.343 3.40032 2.59927 0
M  V30 4871 C 493.669 3.55829 3.99111 0
M  V30 4872 C 494.969 4.75476 2.16148 0
M  V30 4873 H 496.663 2.82887 0.980563 0
M  V30 4874 H 494.209 1.36105 0.470253 0
M  V30 4875 H 496.162 2.4967 3.39475 0
M  V30 4876 H 494.886 1.32318 2.98596 0
M  V30 4877 H 493.545 3.14687 1.88063 0
M  V30 4878 H 493.193 2.6125 4.29834 0
M  V30 4879 H 492.893 4.3366 3.96501 0
M  V30 4880 H 494.417 3.83528 4.7512 0
M  V30 4881 H 495.831 5.00158 2.80205 0
M  V30 4882 H 494.228 5.56472 2.24631 0
M  V30 4883 H 495.298 4.71946 1.11333 0
M  V30 4884 N 496.642 -0.504142 1.49319 0
M  V30 4885 C 497.87 -1.28256 1.62351 0
M  V30 4886 C 498.285 -1.86502 0.293682 0
M  V30 4887 O 497.642 -1.67678 -0.720449 0
M  V30 4888 C 497.693 -2.41507 2.68992 0
M  V30 4889 O 497.414 -1.85656 3.96817 0
M  V30 4890 C 498.915 -3.32929 2.927 0
M  V30 4891 H 496.135 -0.389115 0.546654 0
M  V30 4892 H 498.679 -0.605531 1.95329 0
M  V30 4893 H 496.834 -3.05046 2.38801 0
M  V30 4894 H 497.248 -2.59981 4.55533 0
M  V30 4895 H 498.722 -4.0868 3.71058 0
M  V30 4896 H 499.199 -3.89733 2.02496 0
M  V30 4897 H 499.805 -2.75158 3.24296 0
M  V30 4898 N 498.12 -1.38341 -0.754957 0
M  V30 4899 C 499.05 -1.38176 -1.88227 0
M  V30 4900 C 500.031 -0.247873 -1.68284 0
M  V30 4901 O 501.216 -0.45075 -1.88896 0
M  V30 4902 C 498.346 -1.20471 -3.25736 0
M  V30 4903 C 497.3 -2.3105 -3.60278 0
M  V30 4904 C 496.626 -1.98452 -4.96509 0
M  V30 4905 C 497.926 -3.73305 -3.65295 0
M  V30 4906 H 499.62 -2.32512 -1.88622 0
M  V30 4907 H 497.166 -1.1192 -0.906082 0
M  V30 4908 H 499.119 -1.18982 -4.04254 0
M  V30 4909 H 497.843 -0.225965 -3.25817 0
M  V30 4910 H 496.502 -2.31723 -2.84078 0
M  V30 4911 H 496.15 -0.990641 -4.93148 0
M  V30 4912 H 495.85 -2.7251 -5.20588 0
M  V30 4913 H 497.374 -1.98578 -5.77407 0
M  V30 4914 H 498.788 -3.7467 -4.3393 0
M  V30 4915 H 497.185 -4.46557 -4.00883 0
M  V30 4916 H 498.255 -4.05719 -2.65556 0
M  V30 4917 N 499.598 0.982988 -1.23187 0
M  V30 4918 C 500.528 2.09301 -1.03515 0
M  V30 4919 C 501.509 1.70035 0.0471136 0
M  V30 4920 O 502.694 1.93847 -0.117029 0
M  V30 4921 C 499.824 3.4167 -0.622791 0
M  V30 4922 C 498.778 3.94828 -1.65211 0
M  V30 4923 C 498.104 5.23362 -1.09527 0
M  V30 4924 C 499.404 4.2439 -3.04451 0
M  V30 4925 H 501.098 2.26016 -1.96359 0
M  V30 4926 H 498.644 1.08611 -0.945501 0
M  V30 4927 H 500.597 4.18746 -0.472233 0
M  V30 4928 H 499.321 3.24811 0.341329 0
M  V30 4929 H 497.98 3.19895 -1.79061 0
M  V30 4930 H 497.628 5.02852 -0.122211 0
M  V30 4931 H 497.328 5.59895 -1.783 0
M  V30 4932 H 498.852 6.03062 -0.956511 0
M  V30 4933 H 500.266 4.92225 -2.93917 0
M  V30 4934 H 498.663 4.72118 -3.70438 0
M  V30 4935 H 499.733 3.31765 -3.53638 0
M  V30 4936 N 501.076 1.04316 1.18135 0
M  V30 4937 C 502.487 0.775505 1.69832 0
M  V30 4938 C 502.838 -0.703348 1.8316 0
M  V30 4939 O 501.963 -1.54729 1.51287 0
M  V30 4940 C 502.558 1.40112 3.0847 0
M  V30 4941 C 501.117 1.18172 3.57368 0
M  V30 4942 C 500.264 1.49022 2.33854 0
M  V30 4943 H 503.215 1.20925 1.02775 0
M  V30 4944 H 503.236 0.805672 3.71873 0
M  V30 4945 H 502.748 2.47744 2.98738 0
M  V30 4946 H 500.849 0.124258 3.72393 0
M  V30 4947 H 500.962 1.8805 4.40652 0
M  V30 4948 H 499.326 0.909995 2.37889 0
M  V30 4949 H 500.109 2.57768 2.26738 0
M  V30 4950 N 502.554 -1.34406 0.822964 0
M  V30 4951 C 503.464 -2.33298 0.246838 0
M  V30 4952 C 504.48 -1.62625 -0.618797 0
M  V30 4953 O 505.656 -1.94391 -0.526685 0
M  V30 4954 C 502.721 -3.41785 -0.581731 0
M  V30 4955 C 501.782 -4.28206 0.306309 0
M  V30 4956 C 501.015 -5.31512 -0.48281 0
M  V30 4957 O 501.238 -5.43973 -1.71607 0
M  V30 4958 O 500.172 -6.01749 0.134884 0
M  V30 4959 H 503.998 -2.84401 1.06534 0
M  V30 4960 H 501.583 -1.37466 0.585108 0
M  V30 4961 H 503.465 -4.08028 -1.05313 0
M  V30 4962 H 502.14 -2.92925 -1.37756 0
M  V30 4963 H 501.047 -3.64885 0.825199 0
M  V30 4964 H 502.38 -4.80507 1.06649 0
M  V30 4965 N 504.032 -0.577932 -1.46621 0
M  V30 4966 C 504.965 0.206312 -2.27265 0
M  V30 4967 C 505.943 0.901306 -1.35334 0
M  V30 4968 O 507.127 0.916151 -1.64739 0
M  V30 4969 C 504.254 1.29563 -3.1294 0
M  V30 4970 C 503.3 0.706981 -4.206 0
M  V30 4971 S 504.133 -0.462459 -5.33499 0
M  V30 4972 C 505.289 0.628171 -6.2274 0
M  V30 4973 H 505.522 -0.477961 -2.93433 0
M  V30 4974 H 503.055 -0.364715 -1.50031 0
M  V30 4975 H 505.013 1.91935 -3.62865 0
M  V30 4976 H 503.674 1.95183 -2.46095 0
M  V30 4977 H 502.867 1.52565 -4.80354 0
M  V30 4978 H 502.469 0.159022 -3.73662 0
M  V30 4979 H 504.761 1.51506 -6.60342 0
M  V30 4980 H 505.704 0.0674961 -7.08068 0
M  V30 4981 H 506.112 0.930167 -5.56784 0
M  V30 4982 N 505.51 1.54411 -0.315457 0
M  V30 4983 C 506.473 2.22713 0.54142 0
M  V30 4984 C 507.473 1.2179 1.04995 0
M  V30 4985 O 508.663 1.46426 0.943667 0
M  V30 4986 C 505.795 2.92485 1.75116 0
M  V30 4987 H 506.988 2.99849 -0.0555508 0
M  V30 4988 H 504.541 1.56159 -0.0664453 0
M  V30 4989 H 505.276 2.19466 2.38758 0
M  V30 4990 H 505.061 3.66483 1.39401 0
M  V30 4991 H 506.551 3.44548 2.35959 0
M  V30 4992 N 506.988 0.0434614 1.5754 0
M  V30 4993 C 507.938 -0.943039 2.07583 0
M  V30 4994 C 508.922 -1.27662 0.979342 0
M  V30 4995 O 510.114 -1.26034 1.24276 0
M  V30 4996 C 507.243 -2.22056 2.61813 0
M  V30 4997 C 506.329 -1.91471 3.78417 0
M  V30 4998 N 506.72 -1.31214 4.88484 0
M  V30 4999 C 505.018 -2.21384 3.87176 0
M  V30 5000 C 505.719 -1.18084 5.69588 0
M  V30 5001 N 504.695 -1.68116 5.16951 0
M  V30 5002 H 508.497 -0.472354 2.90079 0
M  V30 5003 H 506.011 -0.161191 1.61598 0
M  V30 5004 H 508.008 -2.93618 2.95963 0
M  V30 5005 H 506.668 -2.69738 1.80752 0
M  V30 5006 H 507.679 -0.985318 5.08441 0
M  V30 5007 H 504.356 -2.7164 3.17046 0
M  V30 5008 H 505.746 -0.713684 6.68099 0
M  V30 5009 N 508.466 -1.55915 -0.229846 0
M  V30 5010 C 509.714 -1.7819 -0.953565 0
M  V30 5011 C 510.035 -0.610504 -1.85197 0
M  V30 5012 O 509.305 0.372988 -1.92316 0
M  V30 5013 H 507.885 -0.657208 -0.355087 0
M  V30 5014 H 510.547 -1.9337 -0.243693 0
M  V30 5015 H 509.643 -2.70011 -1.56527 0
M  V30 5016 N 509.944 0.496216 -1.49584 0
M  V30 5017 C 511.172 1.27394 -1.63029 0
M  V30 5018 C 511.587 1.86344 -0.303569 0
M  V30 5019 O 510.944 1.68057 0.711547 0
M  V30 5020 C 510.995 2.40077 -2.70269 0
M  V30 5021 O 510.716 1.83549 -3.97796 0
M  V30 5022 C 512.217 3.31372 -2.94462 0
M  V30 5023 H 509.437 0.386211 -0.54871 0
M  V30 5024 H 511.981 0.595163 -1.95648 0
M  V30 5025 H 510.136 3.03775 -2.40415 0
M  V30 5026 H 510.55 2.57561 -4.56905 0
M  V30 5027 H 512.024 4.06707 -3.73221 0
M  V30 5028 H 512.501 3.88654 -2.0456 0
M  V30 5029 H 513.107 2.73435 -3.25751 0
M  V30 5030 N 511.423 1.38739 0.74761 0
M  V30 5031 C 512.353 1.39173 1.87492 0
M  V30 5032 C 513.334 0.256794 1.6815 0
M  V30 5033 O 514.519 0.460762 1.88655 0
M  V30 5034 C 511.649 1.22197 3.25093 0
M  V30 5035 C 510.603 2.32957 3.59047 0
M  V30 5036 C 509.929 2.01082 4.95449 0
M  V30 5037 C 511.229 3.75237 3.6331 0
M  V30 5038 H 512.923 2.3351 1.87386 0
M  V30 5039 H 510.469 1.12399 0.900134 0
M  V30 5040 H 512.422 1.21124 4.03617 0
M  V30 5041 H 511.146 0.243241 3.25693 0
M  V30 5042 H 509.805 2.33226 2.82845 0
M  V30 5043 H 509.453 1.01678 4.92616 0
M  V30 5044 H 509.153 2.75267 5.19136 0
M  V30 5045 H 510.677 2.01638 5.76346 0
M  V30 5046 H 512.091 3.76966 4.31937 0
M  V30 5047 H 510.488 4.48677 3.98509 0
M  V30 5048 H 511.558 4.07122 2.634 0
M  V30 5049 N 512.901 -0.976442 1.23707 0
M  V30 5050 C 514.317 -1.24341 1.00058 0
M  V30 5051 C 514.517 -1.99315 -0.295932 0
M  V30 5052 O 513.573 -2.3123 -1.01435 0
M  V30 5053 C 514.886 -2.03909 2.21001 0
M  V30 5054 C 516.434 -2.17034 2.25534 0
M  V30 5055 C 516.909 -2.99994 3.46075 0
M  V30 5056 N 518.4 -3.07578 3.46338 0
M  V30 5057 C 519.135 -3.72104 4.36264 0
M  V30 5058 N 518.631 -4.3842 5.36432 0
M  V30 5059 N 520.424 -3.69029 4.23998 0
M  V30 5060 H 512.575 -0.47428 2.07037 0
M  V30 5061 H 514.838 -0.272167 0.908091 0
M  V30 5062 H 514.544 -1.56198 3.15111 0
M  V30 5063 H 514.418 -3.04654 2.22409 0
M  V30 5064 H 516.805 -2.63951 1.31961 0
M  V30 5065 H 516.886 -1.15664 2.28156 0
M  V30 5066 H 516.53 -2.53772 4.39957 0
M  V30 5067 H 516.46 -4.01541 3.40694 0
M  V30 5068 H 518.951 -2.60397 2.73865 0
M  V30 5069 H 519.264 -4.85447 6.013 0
M  V30 5070 H 517.609 -4.37116 5.40328 0
M  V30 5071 H 520.8 -3.16392 3.44984 0
M  V30 5072 H 520.973 -4.19034 4.94282 0
M  V30 5073 N 514.379 -1.04941 -1.1758 0
M  V30 5074 C 515.342 -0.652456 -2.19717 0
M  V30 5075 C 516.342 0.294745 -1.58076 0
M  V30 5076 O 517.532 0.0789579 -1.74021 0
M  V30 5077 C 514.664 0.0420712 -3.40874 0
M  V30 5078 H 515.857 -1.55642 -2.5635 0
M  V30 5079 H 513.41 -0.842995 -1.31618 0
M  V30 5080 H 514.145 0.95943 -3.09783 0
M  V30 5081 H 513.93 -0.638844 -3.86861 0
M  V30 5082 H 515.42 0.306 -4.16477 0
M  V30 5083 N 515.857 1.33968 -0.830081 0
M  V30 5084 C 517.087 2.01987 -0.434142 0
M  V30 5085 C 517.495 1.62639 0.96671 0
M  V30 5086 O 516.838 0.831151 1.63822 0
M  V30 5087 C 516.9 3.5648 -0.465018 0
M  V30 5088 C 516.564 4.19176 -1.82045 0
M  V30 5089 C 517.561 4.39181 -2.78237 0
M  V30 5090 C 515.246 4.55792 -2.11089 0
M  V30 5091 C 517.24 4.94937 -4.01642 0
M  V30 5092 C 514.927 5.11258 -3.34752 0
M  V30 5093 C 515.925 5.30775 -4.29845 0
M  V30 5094 O 515.613 5.85064 -5.51322 0
M  V30 5095 H 515.345 0.653847 -0.171639 0
M  V30 5096 H 517.899 1.72066 -1.12171 0
M  V30 5097 H 516.129 3.8569 0.279284 0
M  V30 5098 H 517.818 4.05804 -0.0881334 0
M  V30 5099 H 518.584 4.11249 -2.57097 0
M  V30 5100 H 514.463 4.39901 -1.3787 0
M  V30 5101 H 518.007 5.10086 -4.75876 0
M  V30 5102 H 513.904 5.38619 -3.55753 0
M  V30 5103 H 514.672 6.03489 -5.5294 0
M  V30 5104 N 517.335 0.585699 1.46312 0
M  V30 5105 C 518.267 -0.183687 2.28463 0
M  V30 5106 C 519.28 -0.85264 1.38686 0
M  V30 5107 O 520.469 -0.721701 1.6326 0
M  V30 5108 C 517.569 -1.27977 3.13808 0
M  V30 5109 C 516.742 -0.702164 4.31727 0
M  V30 5110 C 515.801 -1.68633 4.98447 0
M  V30 5111 O 514.827 -1.22121 5.55945 0
M  V30 5112 N 516.029 -3.02047 4.95729 0
M  V30 5113 H 518.794 0.521127 2.95134 0
M  V30 5114 H 516.355 0.423673 1.56258 0
M  V30 5115 H 518.347 -1.9375 3.55307 0
M  V30 5116 H 516.917 -1.8874 2.4919 0
M  V30 5117 H 516.137 0.1331 3.93975 0
M  V30 5118 H 517.425 -0.296101 5.07938 0
M  V30 5119 H 516.823 -3.42457 4.50266 0
M  V30 5120 H 515.38 -3.63301 5.41161 0
M  V30 5121 N 518.813 -1.54241 0.323641 0
M  V30 5122 C 520.09 -1.92741 -0.333181 0
M  V30 5123 C 520.47 -1.25326 -1.69872 0
M  V30 5124 O 519.818 -0.396991 -2.25025 0
M  V30 5125 C 520.028 -3.46399 -0.425322 0
M  V30 5126 C 521.376 -4.19029 -0.68557 0
M  V30 5127 O 522.4 -3.52555 -0.50824 0
M  V30 5128 O 521.259 -5.36751 -1.02767 0
M  V30 5129 H 518.353 -0.804811 -0.190286 0
M  V30 5130 H 520.899 -1.65542 0.373361 0
M  V30 5131 H 519.671 -3.87643 0.533737 0
M  V30 5132 H 519.294 -3.79704 -1.17944 0
M  V30 5133 N 520.291 -0.0518155 -1.57515 0
M  V30 5134 C 521.201 0.937539 -2.15052 0
M  V30 5135 C 522.217 1.34121 -1.10849 0
M  V30 5136 O 523.393 1.418 -1.4302 0
M  V30 5137 C 520.458 2.19379 -2.68466 0
M  V30 5138 C 519.519 1.84841 -3.87469 0
M  V30 5139 C 518.752 3.04477 -4.38326 0
M  V30 5140 O 518.975 4.17868 -3.88256 0
M  V30 5141 O 517.909 2.85453 -5.29906 0
M  V30 5142 H 521.735 0.478201 -2.99912 0
M  V30 5143 H 519.32 0.17012 -1.48428 0
M  V30 5144 H 521.202 2.93084 -3.02787 0
M  V30 5145 H 519.877 2.64449 -1.86677 0
M  V30 5146 H 518.784 1.08449 -3.58036 0
M  V30 5147 H 520.117 1.44569 -4.7049 0
M  V30 5148 N 521.769 1.56035 0.221574 0
M  V30 5149 C 522.699 1.95434 1.2778 0
M  V30 5150 C 523.68 0.822564 1.48889 0
M  V30 5151 O 524.865 1.08486 1.61072 0
M  V30 5152 C 521.995 2.27102 2.62759 0
M  V30 5153 C 520.949 3.4277 2.56306 0
M  V30 5154 C 520.275 3.60043 3.95314 0
M  V30 5155 C 521.575 4.77742 2.11093 0
M  V30 5156 H 523.269 2.83912 0.950504 0
M  V30 5157 H 520.815 1.36596 0.455791 0
M  V30 5158 H 522.768 2.53256 3.36807 0
M  V30 5159 H 521.492 1.35478 2.97176 0
M  V30 5160 H 520.151 3.16664 1.84715 0
M  V30 5161 H 519.799 2.65794 4.27039 0
M  V30 5162 H 519.499 4.37841 3.91879 0
M  V30 5163 H 521.023 3.88545 4.71025 0
M  V30 5164 H 522.437 5.03102 2.74885 0
M  V30 5165 H 520.834 5.58823 2.18716 0
M  V30 5166 H 521.904 4.731 1.06321 0
M  V30 5167 N 523.247 -0.488276 1.49845 0
M  V30 5168 C 524.663 -0.820566 1.3689 0
M  V30 5169 C 524.863 -1.97248 0.411752 0
M  V30 5170 O 523.919 -2.52042 -0.151931 0
M  V30 5171 C 525.232 -1.1488 2.77891 0
M  V30 5172 C 526.78 -1.25626 2.86683 0
M  V30 5173 C 527.255 -1.61772 4.28479 0
M  V30 5174 N 528.746 -1.68797 4.31349 0
M  V30 5175 C 529.481 -1.98235 5.38043 0
M  V30 5176 N 528.977 -2.2581 6.54967 0
M  V30 5177 N 530.77 -1.99593 5.2547 0
M  V30 5178 H 522.921 0.271123 2.10662 0
M  V30 5179 H 525.184 0.058735 0.946179 0
M  V30 5180 H 524.89 -0.375614 3.49688 0
M  V30 5181 H 524.764 -2.08919 3.14058 0
M  V30 5182 H 527.151 -2.02014 2.15114 0
M  V30 5183 H 527.232 -0.296072 2.54081 0
M  V30 5184 H 526.876 -0.859295 5.00578 0
M  V30 5185 H 526.806 -2.58912 4.58554 0
M  V30 5186 H 529.297 -1.49595 3.4703 0
M  V30 5187 H 529.61 -2.47497 7.32096 0
M  V30 5188 H 527.955 -2.23239 6.58171 0
M  V30 5189 H 531.146 -1.77535 4.33127 0
M  V30 5190 H 531.319 -2.222 6.08713 0
M  V30 5191 N 524.725 -1.39134 -0.740242 0
M  V30 5192 C 525.95 -1.39518 -1.53459 0
M  V30 5193 C 526.375 0.00968883 -1.88098 0
M  V30 5194 O 525.733 0.995312 -1.51536 0
M  V30 5195 C 525.781 -2.26981 -2.802 0
M  V30 5196 O 524.885 -1.69609 -3.75908 0
M  V30 5197 H 524.226 -0.475328 -0.463637 0
M  V30 5198 H 526.756 -1.83064 -0.913717 0
M  V30 5199 H 526.766 -2.41309 -3.28989 0
M  V30 5200 H 525.441 -3.29081 -2.5432 0
M  V30 5201 H 524.018 -1.64495 -3.34658 0
M  V30 5202 N 526.204 0.969867 -1.24223 0
M  V30 5203 C 527.136 2.0669 -0.99055 0
M  V30 5204 C 528.149 1.62753 0.0392222 0
M  V30 5205 O 529.338 1.77403 -0.197561 0
M  V30 5206 C 526.438 3.35589 -0.472594 0
M  V30 5207 C 525.611 4.08444 -1.56499 0
M  V30 5208 C 524.67 5.15616 -1.05007 0
M  V30 5209 O 523.696 5.41911 -1.7413 0
M  V30 5210 N 524.898 5.80383 0.116641 0
M  V30 5211 H 527.663 2.28855 -1.93508 0
M  V30 5212 H 525.224 1.13733 -1.15223 0
M  V30 5213 H 527.216 4.04542 -0.112919 0
M  V30 5214 H 525.786 3.10311 0.377617 0
M  V30 5215 H 525.006 3.33798 -2.09696 0
M  V30 5216 H 526.294 4.53882 -2.29932 0
M  V30 5217 H 525.692 5.6142 0.694589 0
M  V30 5218 H 524.249 6.50462 0.417483 0
M  V30 5219 N 527.682 1.05563 1.17022 0
M  V30 5220 C 528.928 0.778872 1.87897 0
M  V30 5221 C 529.283 -0.686839 1.79723 0
M  V30 5222 O 528.576 -1.49612 1.19694 0
M  V30 5223 C 528.77 1.19849 3.36706 0
M  V30 5224 C 528.599 2.70345 3.59366 0
M  V30 5225 C 527.369 3.37707 3.75875 0
M  V30 5226 C 529.567 3.68564 3.58699 0
M  V30 5227 N 527.549 4.7703 3.86414 0
M  V30 5228 C 528.92 4.93634 3.75134 0
M  V30 5229 C 530.975 3.6198 3.4187 0
M  V30 5230 C 529.678 6.12907 3.76481 0
M  V30 5231 C 531.704 4.80697 3.44507 0
M  V30 5232 C 531.066 6.04592 3.61453 0
M  V30 5233 H 527.165 0.337297 0.705517 0
M  V30 5234 H 529.749 1.34832 1.40458 0
M  V30 5235 H 527.92 0.656958 3.82804 0
M  V30 5236 H 529.652 0.871172 3.95212 0
M  V30 5237 H 526.407 2.88108 3.75887 0
M  V30 5238 H 526.831 5.49483 3.95471 0
M  V30 5239 H 531.473 2.67154 3.27702 0
M  V30 5240 H 529.191 7.08073 3.89432 0
M  V30 5241 H 532.777 4.77259 3.32738 0
M  V30 5242 H 531.657 6.94916 3.63403 0
M  V30 5243 N 529.16 -1.33526 0.837174 0
M  V30 5244 C 530.092 -2.28077 0.226579 0
M  V30 5245 C 531.105 -1.51666 -0.591717 0
M  V30 5246 O 532.294 -1.73511 -0.419064 0
M  V30 5247 C 529.394 -3.31597 -0.69978 0
M  V30 5248 C 528.567 -4.37329 0.0788067 0
M  V30 5249 C 527.626 -5.20526 -0.770637 0
M  V30 5250 O 526.652 -5.68811 -0.210453 0
M  V30 5251 N 527.854 -5.41639 -2.08825 0
M  V30 5252 H 530.619 -2.81115 1.03897 0
M  V30 5253 H 528.18 -1.46201 0.695476 0
M  V30 5254 H 530.172 -3.84158 -1.27298 0
M  V30 5255 H 528.742 -2.78848 -1.41288 0
M  V30 5256 H 527.962 -3.8529 0.833381 0
M  V30 5257 H 529.25 -5.05079 0.614238 0
M  V30 5258 H 528.648 -5.04108 -2.56693 0
M  V30 5259 H 527.205 -5.97263 -2.60998 0
M  V30 5260 N 530.638 -0.59345 -1.46 0
M  V30 5261 C 531.601 0.123538 -2.28867 0
M  V30 5262 C 532.601 0.808628 -1.38989 0
M  V30 5263 O 533.791 0.658945 -1.61256 0
M  V30 5264 C 530.923 1.1847 -3.19653 0
M  V30 5265 H 532.116 -0.604843 -2.93737 0
M  V30 5266 H 529.669 -0.351875 -1.52288 0
M  V30 5267 H 530.404 1.94431 -2.59552 0
M  V30 5268 H 530.189 0.69783 -3.8584 0
M  V30 5269 H 531.679 1.68726 -3.81997 0
M  V30 5270 N 532.116 1.54067 -0.331816 0
M  V30 5271 C 533.393 1.92915 0.322955 0
M  V30 5272 C 533.773 1.26225 1.69205 0
M  V30 5273 O 533.121 0.408919 2.24811 0
M  V30 5274 C 533.331 3.46619 0.406946 0
M  V30 5275 C 534.679 4.19386 0.663339 0
M  V30 5276 O 535.703 3.5282 0.489536 0
M  V30 5277 O 534.562 5.37288 0.999193 0
M  V30 5278 H 531.656 0.805808 0.186016 0
M  V30 5279 H 534.202 1.65342 -0.382135 0
M  V30 5280 H 532.974 3.87354 -0.554287 0
M  V30 5281 H 532.597 3.80324 1.15929 0
M  V30 5282 N 533.594 0.0601682 1.57485 0
M  V30 5283 C 534.84 -0.606552 1.94146 0
M  V30 5284 C 535.195 -1.67918 0.939225 0
M  V30 5285 O 534.488 -1.91558 -0.0402649 0
M  V30 5286 C 534.682 -1.23831 3.35262 0
M  V30 5287 C 534.511 -0.228408 4.4912 0
M  V30 5288 C 533.281 0.182813 5.04969 0
M  V30 5289 C 535.479 0.52975 5.11564 0
M  V30 5290 N 533.461 1.18464 6.02362 0
M  V30 5291 C 534.832 1.38439 6.04346 0
M  V30 5292 C 536.887 0.587084 4.94427 0
M  V30 5293 C 535.59 2.29125 6.81832 0
M  V30 5294 C 537.616 1.4814 5.72546 0
M  V30 5295 C 536.978 2.32375 6.64967 0
M  V30 5296 H 533.077 -0.193328 0.757726 0
M  V30 5297 H 535.661 0.1346 1.94234 0
M  V30 5298 H 533.832 -1.94944 3.35933 0
M  V30 5299 H 535.564 -1.86456 3.59188 0
M  V30 5300 H 532.319 -0.197968 4.73186 0
M  V30 5301 H 532.743 1.68271 6.55754 0
M  V30 5302 H 537.385 -0.049944 4.22771 0
M  V30 5303 H 535.103 2.93868 7.52773 0
M  V30 5304 H 538.689 1.53045 5.6131 0
M  V30 5305 H 537.569 3.00454 7.2436 0
M  V30 5306 N 535.072 -1.5615 -0.213296 0
M  V30 5307 C 535.982 -1.96265 -1.28519 0
M  V30 5308 C 536.998 -0.86765 -1.50824 0
M  V30 5309 O 538.174 -1.17191 -1.63793 0
M  V30 5310 C 535.239 -2.27836 -2.61327 0
M  V30 5311 C 534.3 -3.50949 -2.47252 0
M  V30 5312 C 533.533 -3.81004 -3.73727 0
M  V30 5313 O 533.756 -3.12612 -4.77106 0
M  V30 5314 O 532.69 -4.74477 -3.70344 0
M  V30 5315 H 536.516 -2.87631 -0.974795 0
M  V30 5316 H 534.101 -1.43467 -0.416832 0
M  V30 5317 H 535.983 -2.49299 -3.39747 0
M  V30 5318 H 534.658 -1.39643 -2.9203 0
M  V30 5319 H 533.565 -3.34754 -1.67004 0
M  V30 5320 H 534.898 -4.39551 -2.21486 0
M  V30 5321 N 536.55 0.480323 -1.50102 0
M  V30 5322 C 537.498 1.60024 -1.68805 0
M  V30 5323 C 538.492 1.60089 -0.553888 0
M  V30 5324 O 539.698 1.64349 -0.734127 0
M  V30 5325 H 536.073 0.530841 -0.532646 0
M  V30 5326 H 538.044 1.41408 -2.62767 0
M  V30 5327 C 536.793 2.98029 -1.79092 0
M  V30 5328 H 536.116 2.98694 -2.65748 0
M  V30 5329 H 537.556 3.75871 -1.96206 0
M  V30 5330 C 536.015 3.32538 -0.540388 0
M  V30 5331 O 536.545 4.00386 0.324637 0
M  V30 5332 N 534.751 2.87873 -0.397154 0
M  V30 5333 H 534.298 2.32834 -1.1021 0
M  V30 5334 H 534.256 3.11328 0.438425 0
M  V30 5335 N 538.028 1.39524 0.732853 0
M  V30 5336 C 539.274 1.38072 1.49358 0
M  V30 5337 C 539.629 -0.0227943 1.92386 0
M  V30 5338 O 538.922 -0.98976 1.64056 0
M  V30 5339 C 539.116 2.28916 2.74468 0
M  V30 5340 C 538.945 3.7796 2.43673 0
M  V30 5341 C 537.715 4.46874 2.35863 0
M  V30 5342 C 539.913 4.69886 2.09074 0
M  V30 5343 N 537.895 5.81242 1.97561 0
M  V30 5344 C 539.266 5.9292 1.81234 0
M  V30 5345 C 541.321 4.57887 1.95561 0
M  V30 5346 C 540.024 7.05297 1.41242 0
M  V30 5347 C 542.05 5.70187 1.56972 0
M  V30 5348 C 541.412 6.92297 1.30018 0
M  V30 5349 H 537.511 0.56051 0.5453 0
M  V30 5350 H 540.095 1.75093 0.85151 0
M  V30 5351 H 538.266 1.9405 3.36451 0
M  V30 5352 H 539.998 2.18441 3.40684 0
M  V30 5353 H 536.753 4.00341 2.5303 0
M  V30 5354 H 537.177 6.52356 1.80997 0
M  V30 5355 H 541.819 3.64014 2.15067 0
M  V30 5356 H 539.537 7.99069 1.20476 0
M  V30 5357 H 543.123 5.62892 1.47119 0
M  V30 5358 H 542.003 7.7772 1.00605 0
M  V30 5359 N 539.506 -0.963266 1.24736 0
M  V30 5360 C 540.438 -2.06162 1.0015 0
M  V30 5361 C 541.451 -1.62771 -0.0305905 0
M  V30 5362 O 542.64 -1.77296 0.206966 0
M  V30 5363 C 539.74 -3.35333 0.490385 0
M  V30 5364 C 538.913 -4.07609 1.58663 0
M  V30 5365 C 537.972 -5.15052 1.0774 0
M  V30 5366 O 536.998 -5.4098 1.77002 0
M  V30 5367 N 538.2 -5.80436 -0.0858605 0
M  V30 5368 H 540.965 -2.27825 1.94719 0
M  V30 5369 H 538.526 -1.13121 1.15825 0
M  V30 5370 H 540.518 -4.04477 0.134371 0
M  V30 5371 H 539.088 -3.10507 -0.361155 0
M  V30 5372 H 538.308 -3.32681 2.11463 0
M  V30 5373 H 539.596 -4.52656 2.32336 0
M  V30 5374 H 538.994 -5.6178 -0.664806 0
M  V30 5375 H 537.551 -6.50674 -0.382981 0
M  V30 5376 N 540.985 -1.06182 -1.16461 0
M  V30 5377 C 541.933 -0.665716 -2.2287 0
M  V30 5378 C 542.927 0.317822 -1.66392 0
M  V30 5379 O 544.133 0.182807 -1.79069 0
M  V30 5380 H 540.508 -0.197148 -0.725697 0
M  V30 5381 H 542.479 -1.57307 -2.53569 0
M  V30 5382 C 541.228 -0.0669803 -3.47635 0
M  V30 5383 H 540.551 -0.814899 -3.91407 0
M  V30 5384 H 541.991 0.172669 -4.23648 0
M  V30 5385 C 540.45 1.18913 -3.15216 0
M  V30 5386 O 540.98 2.27723 -3.30916 0
M  V30 5387 N 539.186 1.09066 -2.69357 0
M  V30 5388 H 538.733 0.20518 -2.56782 0
M  V30 5389 H 538.691 1.93195 -2.48039 0
M  V30 5390 N 542.463 1.3308 -0.844243 0
M  V30 5391 C 543.709 1.97898 -0.443206 0
M  V30 5392 C 544.042 1.66699 0.99625 0
M  V30 5393 O 543.317 0.949704 1.69738 0
M  V30 5394 C 543.6 3.53801 -0.670606 0
M  V30 5395 C 543.453 3.94667 -2.15772 0
M  V30 5396 C 544.772 4.39936 -0.120226 0
M  V30 5397 H 541.891 0.718861 -0.162504 0
M  V30 5398 H 544.533 1.57633 -1.06075 0
M  V30 5399 H 542.683 3.88229 -0.14496 0
M  V30 5400 H 544.355 3.70469 -2.74865 0
M  V30 5401 H 542.598 3.44203 -2.6402 0
M  V30 5402 H 543.269 5.03275 -2.26757 0
M  V30 5403 H 545.745 4.12183 -0.5696 0
M  V30 5404 H 544.621 5.4803 -0.308984 0
M  V30 5405 H 544.882 4.31184 0.976347 0
M  V30 5406 N 543.941 0.601185 1.45683 0
M  V30 5407 C 545.189 0.0936957 2.01883 0
M  V30 5408 C 545.51 -1.2779 1.47291 0
M  V30 5409 O 544.78 -1.84279 0.664691 0
M  V30 5410 H 543.36 0.0316466 0.746329 0
M  V30 5411 H 546.022 0.781137 1.78562 0
M  V30 5412 H 545.118 0.0386297 3.12076 0
M  V30 5413 N 545.419 -1.53889 0.339982 0
M  V30 5414 C 546.351 -2.22435 -0.55275 0
M  V30 5415 C 547.364 -1.22975 -1.06681 0
M  V30 5416 O 548.553 -1.49351 -0.977575 0
M  V30 5417 C 545.653 -2.8882 -1.77302 0
M  V30 5418 C 544.826 -4.14563 -1.39486 0
M  V30 5419 C 543.885 -4.64391 -2.47442 0
M  V30 5420 O 542.911 -5.28687 -2.10899 0
M  V30 5421 N 544.113 -4.40015 -3.78639 0
M  V30 5422 H 546.878 -2.9968 0.0342669 0
M  V30 5423 H 544.439 -1.61068 0.16394 0
M  V30 5424 H 546.431 -3.19072 -2.48948 0
M  V30 5425 H 545.001 -2.15182 -2.26749 0
M  V30 5426 H 544.221 -3.90896 -0.509321 0
M  V30 5427 H 545.509 -4.96362 -1.11813 0
M  V30 5428 H 544.907 -3.88586 -4.11118 0
M  V30 5429 H 543.464 -4.74881 -4.46465 0
M  V30 5430 N 546.897 -0.0685191 -1.57451 0
M  V30 5431 C 548.143 0.596247 -1.94465 0
M  V30 5432 C 548.498 1.67417 -0.948117 0
M  V30 5433 O 547.791 1.91576 0.0301056 0
M  V30 5434 C 547.985 1.22051 -3.35914 0
M  V30 5435 C 547.814 0.204586 -4.49234 0
M  V30 5436 C 546.584 -0.20959 -5.04865 0
M  V30 5437 C 548.782 -0.556872 -5.11276 0
M  V30 5438 N 546.764 -1.21656 -6.01725 0
M  V30 5439 C 548.135 -1.41642 -6.03604 0
M  V30 5440 C 550.19 -0.613297 -4.94108 0
M  V30 5441 C 548.893 -2.32737 -6.80607 0
M  V30 5442 C 550.919 -1.51174 -5.71752 0
M  V30 5443 C 550.281 -2.35898 -6.63726 0
M  V30 5444 H 546.38 0.189307 -0.75874 0
M  V30 5445 H 548.964 -0.144899 -1.9416 0
M  V30 5446 H 547.135 1.9316 -3.36963 0
M  V30 5447 H 548.867 1.84548 -3.60172 0
M  V30 5448 H 545.622 0.172871 -4.73284 0
M  V30 5449 H 546.046 -1.71746 -6.54853 0
M  V30 5450 H 550.688 0.0275228 -4.22791 0
M  V30 5451 H 548.406 -2.97856 -7.51204 0
M  V30 5452 H 551.992 -1.5602 -5.6049 0
M  V30 5453 H 550.872 -3.04291 -7.22756 0
M  V30 5454 N 548.375 1.56261 0.205012 0
M  V30 5455 C 549.791 1.49623 0.555433 0
M  V30 5456 C 549.991 0.766719 1.86343 0
M  V30 5457 O 549.047 0.313158 2.50551 0
M  V30 5458 C 550.36 2.94253 0.619347 0
M  V30 5459 C 551.908 3.04868 0.708855 0
M  V30 5460 C 552.383 4.50888 0.803969 0
M  V30 5461 N 553.874 4.54999 0.867758 0
M  V30 5462 C 554.609 5.65284 0.96135 0
M  V30 5463 N 554.105 6.85282 1.01786 0
M  V30 5464 N 555.898 5.53174 0.997771 0
M  V30 5465 H 548.049 2.0211 -0.653094 0
M  V30 5466 H 550.312 0.919333 -0.231366 0
M  V30 5467 H 550.018 3.50643 -0.272458 0
M  V30 5468 H 549.892 3.47063 1.47741 0
M  V30 5469 H 552.279 2.48532 1.5911 0
M  V30 5470 H 552.36 2.55199 -0.175205 0
M  V30 5471 H 552.004 5.07846 -0.0738798 0
M  V30 5472 H 551.934 4.98279 1.70369 0
M  V30 5473 H 554.425 3.68588 0.833735 0
M  V30 5474 H 554.738 7.65081 1.08951 0
M  V30 5475 H 553.083 6.8796 0.986706 0
M  V30 5476 H 556.274 4.5835 0.950392 0
M  V30 5477 H 556.447 6.39151 1.06725 0
M  V30 5478 N 549.853 -0.472356 1.50355 0
M  V30 5479 C 551.101 -1.22211 1.60962 0
M  V30 5480 C 551.422 -1.92497 0.311439 0
M  V30 5481 O 550.692 -1.8405 -0.671002 0
M  V30 5482 H 549.272 -0.454092 0.593135 0
M  V30 5483 H 551.934 -0.544977 1.87126 0
M  V30 5484 H 551.03 -1.9707 2.42012 0
M  V30 5485 N 551.331 -1.39911 -0.725443 0
M  V30 5486 C 552.578 -1.37654 -1.48518 0
M  V30 5487 C 552.906 0.0243982 -1.94485 0
M  V30 5488 O 552.161 1.00708 -1.67799 0
M  V30 5489 C 552.46 -2.30368 -2.7325 0
M  V30 5490 C 552.126 -3.77817 -2.461 0
M  V30 5491 C 550.788 -4.17991 -2.38405 0
M  V30 5492 C 553.14 -4.71036 -2.23103 0
M  V30 5493 C 550.468 -5.49433 -2.05768 0
M  V30 5494 C 552.82 -6.02766 -1.9198 0
M  V30 5495 C 551.484 -6.41993 -1.82761 0
M  V30 5496 H 550.754 -0.503713 -0.543465 0
M  V30 5497 H 553.401 -1.7249 -0.831822 0
M  V30 5498 H 551.706 -1.88683 -3.43375 0
M  V30 5499 H 553.403 -2.2591 -3.31309 0
M  V30 5500 H 549.993 -3.45982 -2.52972 0
M  V30 5501 H 554.177 -4.40823 -2.2801 0
M  V30 5502 H 549.433 -5.78738 -1.9716 0
M  V30 5503 H 553.607 -6.74519 -1.73197 0
M  V30 5504 H 551.234 -7.43761 -1.57237 0
M  V30 5505 N 552.809 0.956637 -1.25245 0
M  V30 5506 C 554.055 1.70352 -1.10036 0
M  V30 5507 C 554.388 1.90869 0.358156 0
M  V30 5508 O 553.663 1.47819 1.26411 0
M  V30 5509 C 553.946 3.08766 -1.85298 0
M  V30 5510 C 553.799 2.95672 -3.38966 0
M  V30 5511 C 555.118 4.08622 -1.63451 0
M  V30 5512 H 552.237 0.618279 -0.401123 0
M  V30 5513 H 554.879 1.11212 -1.54051 0
M  V30 5514 H 553.029 3.59252 -1.47887 0
M  V30 5515 H 554.701 2.52527 -3.86041 0
M  V30 5516 H 552.944 2.31634 -3.6678 0
M  V30 5517 H 553.615 3.93776 -3.86839 0
M  V30 5518 H 556.091 3.67038 -1.96015 0
M  V30 5519 H 554.967 5.03514 -2.18551 0
M  V30 5520 H 555.228 4.3834 -0.575357 0
M  V30 5521 N 554.287 1.06798 1.15896 0
M  V30 5522 C 555.535 0.786211 1.8618 0
M  V30 5523 C 555.856 -0.689547 1.82401 0
M  V30 5524 O 555.126 -1.49913 1.26107 0
M  V30 5525 H 553.706 0.287843 0.689315 0
M  V30 5526 H 556.368 1.35055 1.40521 0
M  V30 5527 H 555.464 1.1157 2.91477 0
M  V30 5528 N 555.766 -1.3263 0.851289 0
M  V30 5529 C 557.014 -1.96978 0.452128 0
M  V30 5530 C 557.335 -1.67715 -0.99482 0
M  V30 5531 O 556.605 -0.98259 -1.69476 0
M  V30 5532 H 555.185 -0.72873 0.164202 0
M  V30 5533 H 557.847 -1.61774 1.08698 0
M  V30 5534 H 556.943 -3.06387 0.594407 0
M  V30 5535 N 557.244 -0.608902 -1.45362 0
M  V30 5536 C 558.492 -0.104401 -2.0183 0
M  V30 5537 C 558.813 1.27007 -1.47967 0
M  V30 5538 O 558.083 1.83924 -0.674455 0
M  V30 5539 H 556.663 -0.0356042 -0.746151 0
M  V30 5540 H 559.325 -0.790596 -1.78145 0
M  V30 5541 H 558.421 -0.0551793 -3.12051 0
M  V30 5542 N 558.722 1.53707 -0.348139 0
M  V30 5543 C 559.97 2.00591 0.246478 0
M  V30 5544 C 560.291 1.23753 1.50699 0
M  V30 5545 O 559.561 0.345964 1.92821 0
M  V30 5546 H 558.141 0.741053 0.0940679 0
M  V30 5547 H 560.803 1.89139 -0.470354 0
M  V30 5548 H 559.899 3.08297 0.485714 0
M  V30 5549 N 560.2 0.0768682 1.57412 0
M  V30 5550 C 561.132 -0.918248 2.10002 0
M  V30 5551 C 562.145 -1.25808 1.03325 0
M  V30 5552 O 563.334 -1.21438 1.30824 0
M  V30 5553 C 560.434 -2.23263 2.54964 0
M  V30 5554 C 559.607 -2.07088 3.8527 0
M  V30 5555 C 558.666 -3.21876 4.16272 0
M  V30 5556 O 557.692 -2.96643 4.8579 0
M  V30 5557 N 558.894 -4.4712 3.70221 0
M  V30 5558 H 561.659 -0.469209 2.96004 0
M  V30 5559 H 559.22 -0.108725 1.61535 0
M  V30 5560 H 561.212 -2.9897 2.72762 0
M  V30 5561 H 559.782 -2.59649 1.74072 0
M  V30 5562 H 559.002 -1.15818 3.76802 0
M  V30 5563 H 560.29 -1.93537 4.70554 0
M  V30 5564 H 559.688 -4.70506 3.1407 0
M  V30 5565 H 558.245 -5.19837 3.93209 0
M  V30 5566 N 561.678 -1.56367 -0.196722 0
M  V30 5567 C 563.094 -1.49916 -0.54749 0
M  V30 5568 C 563.294 -0.77659 -1.85934 0
M  V30 5569 O 562.35 -0.32644 -2.50381 0
M  V30 5570 C 563.663 -2.94577 -0.603734 0
M  V30 5571 C 565.211 -3.05239 -0.692677 0
M  V30 5572 C 565.686 -4.51308 -0.780046 0
M  V30 5573 N 567.177 -4.55453 -0.843616 0
M  V30 5574 C 567.912 -5.65786 -0.931358 0
M  V30 5575 N 567.408 -6.85812 -0.981503 0
M  V30 5576 N 569.201 -5.53695 -0.968421 0
M  V30 5577 H 561.352 -2.01761 0.663803 0
M  V30 5578 H 563.615 -0.918094 0.236238 0
M  V30 5579 H 563.321 -3.50494 0.29105 0
M  V30 5580 H 563.195 -3.47841 -1.45898 0
M  V30 5581 H 565.582 -2.49372 -1.57789 0
M  V30 5582 H 565.663 -2.55103 0.188736 0
M  V30 5583 H 565.307 -5.078 0.100811 0
M  V30 5584 H 565.237 -4.99176 -1.67724 0
M  V30 5585 H 567.728 -3.69025 -0.814176 0
M  V30 5586 H 568.041 -7.65648 -1.04892 0
M  V30 5587 H 566.386 -6.88474 -0.950208 0
M  V30 5588 H 569.577 -4.58848 -0.926072 0
M  V30 5589 H 569.75 -6.39708 -1.03334 0
M  V30 5590 N 563.156 0.464375 -1.50603 0
M  V30 5591 C 564.086 1.56944 -1.72889 0
M  V30 5592 C 565.067 1.59979 -0.577997 0
M  V30 5593 O 566.252 1.76138 -0.817855 0
M  V30 5594 C 563.382 2.95225 -1.8292 0
M  V30 5595 C 562.336 3.07056 -2.98162 0
M  V30 5596 C 561.662 4.47051 -2.93343 0
M  V30 5597 C 562.962 2.83648 -4.38567 0
M  V30 5598 H 564.656 1.38547 -2.65415 0
M  V30 5599 H 562.202 0.665082 -1.27721 0
M  V30 5600 H 564.155 3.72467 -1.97095 0
M  V30 5601 H 562.879 3.14793 -0.870209 0
M  V30 5602 H 561.538 2.32248 -2.83648 0
M  V30 5603 H 561.186 4.63547 -1.95276 0
M  V30 5604 H 560.886 4.55902 -3.70712 0
M  V30 5605 H 562.41 5.26304 -3.09575 0
M  V30 5606 H 563.824 3.50636 -4.53572 0
M  V30 5607 H 562.221 3.03937 -5.17438 0
M  V30 5608 H 563.291 1.79451 -4.50472 0
M  V30 5609 N 564.634 1.40294 0.718013 0
M  V30 5610 C 565.911 1.2894 1.47084 0
M  V30 5611 C 566.291 -0.0933625 2.10893 0
M  V30 5612 O 565.639 -1.10598 1.99951 0
M  V30 5613 C 565.849 2.4264 2.50852 0
M  V30 5614 C 567.197 2.8276 3.16752 0
M  V30 5615 O 568.221 2.42215 2.61171 0
M  V30 5616 O 567.08 3.528 4.17366 0
M  V30 5617 H 564.174 0.506236 0.653952 0
M  V30 5618 H 566.72 1.52208 0.750394 0
M  V30 5619 H 565.492 3.35009 2.022 0
M  V30 5620 H 565.115 2.21129 3.30435 0
M  V30 5621 N 566.112 -0.949982 1.2575 0
M  V30 5622 C 567.359 -1.69515 1.10774 0
M  V30 5623 C 567.687 -1.91316 -0.350479 0
M  V30 5624 O 566.942 -1.48515 -1.27443 0
M  V30 5625 C 567.241 -3.08039 1.81237 0
M  V30 5626 C 566.907 -3.06023 3.31151 0
M  V30 5627 C 565.569 -3.0518 3.72047 0
M  V30 5628 C 567.921 -2.98998 4.26907 0
M  V30 5629 C 565.249 -2.95067 5.07102 0
M  V30 5630 C 567.601 -2.90426 5.61992 0
M  V30 5631 C 566.265 -2.87922 6.0221 0
M  V30 5632 H 565.535 -0.6203 0.405351 0
M  V30 5633 H 568.182 -1.10953 1.56082 0
M  V30 5634 H 566.487 -3.70172 1.28373 0
M  V30 5635 H 568.184 -3.64526 1.67098 0
M  V30 5636 H 564.774 -3.07453 2.98614 0
M  V30 5637 H 568.958 -2.98764 3.963 0
M  V30 5638 H 564.214 -2.915 5.37436 0
M  V30 5639 H 568.388 -2.83952 6.35881 0
M  V30 5640 H 566.015 -2.79841 7.06819 0
M  V30 5641 N 567.59 -1.07411 -1.15328 0
M  V30 5642 C 568.867 -0.710732 -1.82231 0
M  V30 5643 C 569.247 0.806732 -1.95077 0
M  V30 5644 O 568.595 1.72139 -1.50268 0
M  V30 5645 C 568.805 -1.42586 -3.18544 0
M  V30 5646 C 570.153 -1.57836 -3.94174 0
M  V30 5647 O 571.177 -1.38669 -3.281 0
M  V30 5648 O 570.036 -1.8938 -5.12638 0
M  V30 5649 H 567.13 -0.25297 -0.78736 0
M  V30 5650 H 569.676 -1.17508 -1.22434 0
M  V30 5651 H 568.448 -2.46008 -3.04296 0
M  V30 5652 H 568.071 -0.952332 -3.86026 0
M  V30 5653 N 569.068 1.32177 -0.85831 0
M  V30 5654 C 570.293 2.01847 -0.476718 0
M  V30 5655 C 570.718 1.64065 0.920021 0
M  V30 5656 O 570.076 0.843189 1.60499 0
M  V30 5657 C 570.124 3.55097 -0.627578 0
M  V30 5658 O 569.228 4.11012 0.338086 0
M  V30 5659 H 568.569 0.635907 -0.191099 0
M  V30 5660 H 571.099 1.68641 -1.15851 0
M  V30 5661 H 571.109 4.04718 -0.516476 0
M  V30 5662 H 569.784 3.81938 -1.64609 0
M  V30 5663 H 568.361 3.72451 0.182917 0
M  V30 5664 N 570.547 0.616602 1.45037 0
M  V30 5665 C 571.479 -0.135186 2.28801 0
M  V30 5666 C 572.492 -0.82303 1.40464 0
M  V30 5667 O 573.681 -0.686909 1.64754 0
M  V30 5668 C 570.781 -1.21292 3.16451 0
M  V30 5669 C 569.954 -0.61043 4.3312 0
M  V30 5670 C 569.013 -1.58022 5.01912 0
M  V30 5671 O 568.039 -1.10301 5.58411 0
M  V30 5672 N 569.241 -2.91464 5.02025 0
M  V30 5673 H 572.006 0.583612 2.93963 0
M  V30 5674 H 569.567 0.456723 1.55324 0
M  V30 5675 H 571.559 -1.86169 3.59337 0
M  V30 5676 H 570.129 -1.83412 2.53138 0
M  V30 5677 H 569.349 0.216638 3.93604 0
M  V30 5678 H 570.637 -0.188293 5.08451 0
M  V30 5679 H 570.035 -3.32829 4.57429 0
M  V30 5680 H 568.592 -3.51741 5.48745 0
M  V30 5681 N 572.025 -1.5352 0.356285 0
M  V30 5682 C 573.302 -1.93405 -0.292223 0
M  V30 5683 C 573.682 -1.28901 -1.67176 0
M  V30 5684 O 573.03 -0.444632 -2.24132 0
M  V30 5685 C 573.24 -3.47223 -0.35175 0
M  V30 5686 C 574.588 -4.20389 -0.596534 0
M  V30 5687 O 575.612 -3.53554 -0.433344 0
M  V30 5688 O 574.471 -5.3881 -0.913589 0
M  V30 5689 H 571.565 -0.808666 -0.173172 0
M  V30 5690 H 574.111 -1.64713 0.408391 0
M  V30 5691 H 572.883 -3.86423 0.615841 0
M  V30 5692 H 572.506 -3.8212 -1.09864 0
M  V30 5693 N 573.503 -0.0852151 -1.57369 0
M  V30 5694 C 574.728 0.592872 -1.98746 0
M  V30 5695 C 575.153 1.61538 -0.963689 0
M  V30 5696 O 574.511 1.81168 0.069071 0
M  V30 5697 C 574.559 1.22599 -3.39119 0
M  V30 5698 O 573.663 2.34185 -3.39457 0
M  V30 5699 H 573.004 0.151314 -0.646529 0
M  V30 5700 H 575.534 -0.163703 -2.03944 0
M  V30 5701 H 575.544 1.56965 -3.76598 0
M  V30 5702 H 574.219 0.476831 -4.13158 0
M  V30 5703 H 572.796 2.01512 -3.13763 0
M  V30 5704 N 574.981 1.5647 0.188427 0
M  V30 5705 C 575.944 1.9421 1.21718 0
M  V30 5706 C 576.944 0.823901 1.38089 0
M  V30 5707 O 578.134 1.09122 1.35787 0
M  V30 5708 C 575.266 2.22197 2.58537 0
M  V30 5709 H 576.459 2.86252 0.894418 0
M  V30 5710 H 574.012 1.50263 0.430211 0
M  V30 5711 H 574.747 1.32814 2.95856 0
M  V30 5712 H 574.532 3.03688 2.48025 0
M  V30 5713 H 576.022 2.52376 3.3271 0
M  V30 5714 N 576.459 -0.456382 1.50847 0
M  V30 5715 C 577.422 -1.53493 1.70213 0
M  V30 5716 C 578.422 -1.50264 0.572481 0
M  V30 5717 O 579.612 -1.52623 0.839751 0
M  V30 5718 C 576.744 -2.93091 1.741 0
M  V30 5719 H 577.937 -1.37633 2.66453 0
M  V30 5720 H 575.49 -0.683776 1.4055 0
M  V30 5721 H 576.225 -3.14378 0.796063 0
M  V30 5722 H 576.01 -2.9684 2.5618 0
M  V30 5723 H 577.5 -3.71368 1.90987 0
M  V30 5724 N 577.937 -1.40673 -0.710563 0
M  V30 5725 C 579.162 -1.42741 -1.50465 0
M  V30 5726 C 579.587 -0.0302116 -1.88076 0
M  V30 5727 O 578.945 0.962945 -1.53613 0
M  V30 5728 C 578.993 -2.32873 -2.75322 0
M  V30 5729 O 578.097 -1.77544 -3.72226 0
M  V30 5730 H 577.438 -0.485056 -0.45345 0
M  V30 5731 H 579.968 -1.84961 -0.874681 0
M  V30 5732 H 579.978 -2.48233 -3.23797 0
M  V30 5733 H 578.653 -3.34401 -2.47283 0
M  V30 5734 H 577.23 -1.71556 -3.31093 0
M  V30 5735 N 579.415 0.9433 -1.26252 0
M  V30 5736 C 580.663 1.68592 -1.11451 0
M  V30 5737 C 580.984 1.91957 0.343123 0
M  V30 5738 O 580.254 1.51475 1.24226 0
M  V30 5739 H 578.834 0.624789 -0.409448 0
M  V30 5740 H 581.496 1.13351 -1.58548 0
M  V30 5741 H 580.592 2.66054 -1.63162 0
M  V30 5742 N 580.893 1.08022 1.14757 0
M  V30 5743 C 582.17 0.720386 1.81851 0
M  V30 5744 C 582.55 -0.796375 1.95502 0
M  V30 5745 O 581.898 -1.71339 1.51179 0
M  V30 5746 C 582.108 1.44273 3.17783 0
M  V30 5747 C 583.456 1.59925 3.93331 0
M  V30 5748 O 584.48 1.40407 3.2736 0
M  V30 5749 O 583.339 1.92096 5.11626 0
M  V30 5750 H 580.433 0.257142 0.786007 0
M  V30 5751 H 582.979 1.18155 1.21809 0
M  V30 5752 H 581.751 2.47618 3.02987 0
M  V30 5753 H 581.374 0.97279 3.85516 0
M  V30 5754 N 582.371 -1.3172 0.865308 0
M  V30 5755 C 583.619 -1.96487 0.472995 0
M  V30 5756 C 583.94 -1.68761 -0.976975 0
M  V30 5757 O 583.21 -1.00051 -1.68424 0
M  V30 5758 H 581.79 -0.726947 0.171922 0
M  V30 5759 H 584.452 -1.60612 1.10407 0
M  V30 5760 H 583.548 -3.0574 0.62687 0
M  V30 5761 N 583.85 -0.624285 -1.44708 0
M  V30 5762 C 584.798 0.0969952 -2.32398 0
M  V30 5763 C 585.792 0.842762 -1.46949 0
M  V30 5764 O 586.998 0.756436 -1.63334 0
M  V30 5765 H 583.373 0.0501306 -0.750327 0
M  V30 5766 H 585.344 -0.660767 -2.90992 0
M  V30 5767 C 584.093 1.06967 -3.30837 0
M  V30 5768 H 583.416 0.505242 -3.96595 0
M  V30 5769 H 584.856 1.54397 -3.94889 0
M  V30 5770 C 583.315 2.15153 -2.5925 0
M  V30 5771 O 583.845 3.23139 -2.3863 0
M  V30 5772 N 582.051 1.90898 -2.19103 0
M  V30 5773 H 581.598 1.03086 -2.36074 0
M  V30 5774 H 581.556 2.63485 -1.71531 0
M  V30 5775 N 585.328 1.53329 -0.364422 0
M  V30 5776 C 586.576 2.00842 0.225189 0
M  V30 5777 C 586.897 1.25345 1.49378 0
M  V30 5778 O 586.167 0.366396 1.92443 0
M  V30 5779 H 584.747 0.742009 0.0862027 0
M  V30 5780 H 587.409 1.8863 -0.490389 0
M  V30 5781 H 586.505 3.08795 0.452987 0
M  V30 5782 N 586.806 0.0935595 1.57322 0
M  V30 5783 C 588.036 -0.578095 1.98347 0
M  V30 5784 C 588.444 -1.62357 0.971441 0
M  V30 5785 O 587.787 -1.83639 -0.0473959 0
M  V30 5786 C 587.849 -1.28525 3.3574 0
M  V30 5787 C 587.513 -0.390714 4.55327 0
M  V30 5788 C 588.51 0.360522 5.18648 0
M  V30 5789 C 586.195 -0.309221 5.01347 0
M  V30 5790 C 588.189 1.18125 6.26359 0
M  V30 5791 C 585.876 0.515157 6.08925 0
M  V30 5792 C 586.874 1.25904 6.71295 0
M  V30 5793 O 586.562 2.06978 7.76798 0
M  V30 5794 H 586.294 -0.159767 0.656849 0
M  V30 5795 H 588.848 0.169058 2.04703 0
M  V30 5796 H 587.078 -2.07894 3.26063 0
M  V30 5797 H 588.767 -1.85128 3.61223 0
M  V30 5798 H 589.533 0.307285 4.84026 0
M  V30 5799 H 585.412 -0.877881 4.52564 0
M  V30 5800 H 588.956 1.76236 6.74971 0
M  V30 5801 H 584.853 0.56988 6.42979 0
M  V30 5802 H 585.621 1.99644 7.93779 0
M  V30 5803 N 588.284 -1.56567 -0.180126 0
M  V30 5804 C 589.232 -1.96632 -1.24251 0
M  V30 5805 C 590.226 -0.853818 -1.46309 0
M  V30 5806 O 591.432 -1.0389 -1.46993 0
M  V30 5807 H 587.807 -0.625476 -0.417473 0
M  V30 5808 H 589.778 -2.85201 -0.877679 0
M  V30 5809 C 588.527 -2.33486 -2.57642 0
M  V30 5810 H 587.85 -3.18626 -2.4149 0
M  V30 5811 H 589.29 -2.65371 -3.30688 0
M  V30 5812 C 587.749 -1.17499 -3.15746 0
M  V30 5813 O 588.279 -0.457956 -3.99081 0
M  V30 5814 N 586.485 -0.94786 -2.74707 0
M  V30 5815 H 586.032 -1.53269 -2.07042 0
M  V30 5816 H 585.99 -0.173626 -3.1392 0
M  V30 5817 N 589.762 0.448376 -1.51087 0
M  V30 5818 C 590.692 1.55102 -1.74544 0
M  V30 5819 C 591.673 1.59357 -0.594932 0
M  V30 5820 O 592.858 1.75261 -0.836491 0
M  V30 5821 C 589.988 2.93268 -1.86041 0
M  V30 5822 C 588.942 3.03877 -3.01402 0
M  V30 5823 C 588.268 4.43914 -2.98068 0
M  V30 5824 C 589.568 2.7898 -4.41551 0
M  V30 5825 H 591.262 1.35724 -2.66869 0
M  V30 5826 H 588.808 0.651498 -1.28419 0
M  V30 5827 H 590.761 3.70356 -2.01034 0
M  V30 5828 H 589.485 3.13853 -0.903548 0
M  V30 5829 H 588.144 2.29227 -2.86096 0
M  V30 5830 H 587.792 4.6145 -2.00182 0
M  V30 5831 H 587.492 4.51944 -3.75527 0
M  V30 5832 H 589.016 5.22991 -3.1514 0
M  V30 5833 H 590.43 3.45805 -4.57265 0
M  V30 5834 H 588.827 2.98431 -5.20633 0
M  V30 5835 H 589.897 1.74663 -4.5235 0
M  V30 5836 N 591.24 1.41047 0.703093 0
M  V30 5837 C 592.468 1.4334 1.49202 0
M  V30 5838 C 592.883 0.0365596 1.88765 0
M  V30 5839 O 592.24 -0.942419 1.56284 0
M  V30 5840 C 592.291 2.33538 2.75939 0
M  V30 5841 O 592.012 3.67786 2.38045 0
M  V30 5842 C 593.513 2.44555 3.6974 0
M  V30 5843 H 590.733 0.488472 0.460039 0
M  V30 5844 H 593.277 1.85245 0.86629 0
M  V30 5845 H 591.432 1.94962 3.34766 0
M  V30 5846 H 591.846 4.15816 3.19683 0
M  V30 5847 H 593.32 3.11849 4.55471 0
M  V30 5848 H 593.797 1.47447 4.1371 0
M  V30 5849 H 594.403 2.83735 3.16819 0
M  V30 5850 N 592.718 -0.936591 1.26751 0
M  V30 5851 C 593.648 -2.05315 1.11212 0
M  V30 5852 C 594.629 -1.70092 0.0160262 0
M  V30 5853 O 595.814 -1.93279 0.188894 0
M  V30 5854 C 592.944 -3.39123 0.749171 0
M  V30 5855 C 591.898 -3.88425 1.79751 0
M  V30 5856 C 591.224 -5.18936 1.28876 0
M  V30 5857 C 592.524 -4.12798 3.19992 0
M  V30 5858 H 594.218 -2.18573 2.04613 0
M  V30 5859 H 591.764 -1.05027 0.985159 0
M  V30 5860 H 593.717 -4.16704 0.627323 0
M  V30 5861 H 592.441 -3.25855 -0.220543 0
M  V30 5862 H 591.1 -3.13028 1.90811 0
M  V30 5863 H 590.748 -5.02051 0.308757 0
M  V30 5864 H 590.448 -5.52892 1.98958 0
M  V30 5865 H 591.972 -5.99096 1.17967 0
M  V30 5866 H 593.386 -4.80977 3.11983 0
M  V30 5867 H 591.783 -4.58044 3.87705 0
M  V30 5868 H 592.853 -3.18412 3.65707 0
M  V30 5869 N 594.196 -1.08629 -1.14182 0
M  V30 5870 C 595.444 -0.815731 -1.84906 0
M  V30 5871 C 595.765 0.660441 -1.83475 0
M  V30 5872 O 595.035 1.47888 -1.28476 0
M  V30 5873 H 593.615 -0.298773 -0.684648 0
M  V30 5874 H 596.277 -1.37274 -1.38354 0
M  V30 5875 H 595.373 -1.16193 -2.89665 0
M  V30 5876 N 595.674 1.31259 -0.872281 0
M  V30 5877 C 596.922 1.96233 -0.483409 0
M  V30 5878 C 597.243 1.69276 0.968012 0
M  V30 5879 O 596.513 1.00943 1.67891 0
M  V30 5880 H 595.093 0.726025 -0.175774 0
M  V30 5881 H 597.755 1.60024 -1.11258 0
M  V30 5882 H 596.851 3.05403 -0.643075 0
M  V30 5883 N 597.152 0.631951 1.44375 0
M  V30 5884 C 598.377 0.142146 2.06912 0
M  V30 5885 C 598.802 -1.17456 1.4692 0
M  V30 5886 O 598.16 -1.72074 0.570975 0
M  V30 5887 C 598.208 0.0417952 3.60576 0
M  V30 5888 O 597.312 -1.00194 4.00044 0
M  V30 5889 H 596.653 0.0851491 0.658518 0
M  V30 5890 H 599.183 0.868863 1.85235 0
M  V30 5891 H 599.193 -0.148517 4.0773 0
M  V30 5892 H 597.868 1.0031 4.03622 0
M  V30 5893 H 596.445 -0.786131 3.64519 0
M  V30 5894 N 598.631 -1.53133 0.372548 0
M  V30 5895 C 599.861 -2.05476 -0.215202 0
M  V30 5896 C 600.269 -1.24534 -1.42436 0
M  V30 5897 O 599.612 -0.280771 -1.81542 0
M  V30 5898 C 599.674 -3.53276 -0.666068 0
M  V30 5899 C 599.338 -4.54998 0.427342 0
M  V30 5900 C 600.335 -5.03911 1.27944 0
M  V30 5901 C 598.02 -4.98828 0.589579 0
M  V30 5902 C 600.014 -5.95263 2.27905 0
M  V30 5903 C 597.701 -5.89984 1.59255 0
M  V30 5904 C 598.699 -6.38093 2.43571 0
M  V30 5905 O 598.387 -7.27451 3.42156 0
M  V30 5906 H 598.119 -0.67481 -0.040099 0
M  V30 5907 H 600.673 -1.98409 0.531312 0
M  V30 5908 H 598.903 -3.57904 -1.4643 0
M  V30 5909 H 600.592 -3.88442 -1.1776 0
M  V30 5910 H 601.358 -4.70792 1.16532 0
M  V30 5911 H 597.237 -4.60965 -0.0569456 0
M  V30 5912 H 600.781 -6.32736 2.93753 0
M  V30 5913 H 596.678 -6.22518 1.70711 0
M  V30 5914 H 597.446 -7.45467 3.37967 0
M  V30 5915 N 600.109 -0.101901 -1.5727 0
M  V30 5916 C 601.525 0.254739 -1.57554 0
M  V30 5917 C 601.725 1.67937 -1.11352 0
M  V30 5918 O 600.781 2.39722 -0.793081 0
M  V30 5919 C 602.094 0.036975 -3.00677 0
M  V30 5920 C 603.642 0.104199 -3.12827 0
M  V30 5921 C 604.117 -0.0856565 -4.5792 0
M  V30 5922 N 605.608 -0.0310498 -4.6319 0
M  V30 5923 C 606.343 -0.153099 -5.73196 0
M  V30 5924 N 605.839 -0.330364 -6.92012 0
M  V30 5925 N 607.632 -0.0938854 -5.62022 0
M  V30 5926 H 599.783 -1.03263 -1.85609 0
M  V30 5927 H 602.046 -0.405251 -0.857016 0
M  V30 5928 H 601.752 -0.947254 -3.38703 0
M  V30 5929 H 601.626 0.776335 -3.69124 0
M  V30 5930 H 604.013 1.07894 -2.74669 0
M  V30 5931 H 604.094 -0.666762 -2.46957 0
M  V30 5932 H 603.738 -1.05729 -4.96773 0
M  V30 5933 H 603.668 0.705082 -5.21858 0
M  V30 5934 H 606.159 0.103141 -3.77759 0
M  V30 5935 H 606.472 -0.41482 -7.71686 0
M  V30 5936 H 604.817 -0.366119 -6.94035 0
M  V30 5937 H 608.008 0.0435168 -4.6808 0
M  V30 5938 H 608.181 -0.19245 -6.47714 0
M  V30 5939 N 601.587 1.56661 0.17182 0
M  V30 5940 C 602.836 1.81158 0.886831 0
M  V30 5941 C 603.149 0.679072 1.83434 0
M  V30 5942 O 604.355 0.808964 2.59168 0
M  V30 5943 C 602.811 3.20999 1.6275 0
M  V30 5944 C 602.419 4.42117 0.723652 0
M  V30 5945 C 604.163 3.5479 2.33076 0
M  V30 5946 C 602.07 5.7298 1.46452 0
M  V30 5947 H 601 0.675543 0.334899 0
M  V30 5948 H 603.651 1.82967 0.139765 0
M  V30 5949 H 602.033 3.13506 2.4193 0
M  V30 5950 H 603.207 4.60789 -0.0311485 0
M  V30 5951 H 601.522 4.16197 0.130063 0
M  V30 5952 H 604.119 4.49806 2.89099 0
M  V30 5953 H 604.462 2.79646 3.08389 0
M  V30 5954 H 604.995 3.63834 1.6084 0
M  V30 5955 H 601.734 6.51152 0.753729 0
M  V30 5956 H 601.254 5.58285 2.19266 0
M  V30 5957 H 602.933 6.14916 2.01214 0
M  V30 5958 N 603.065 -0.440357 1.51323 0
M  V30 5959 C 604.342 -1.20109 1.5438 0
M  V30 5960 C 604.722 -2.08866 0.306303 0
M  V30 5961 O 604.07 -2.1723 -0.708773 0
M  V30 5962 C 604.28 -2.00555 2.8562 0
M  V30 5963 C 605.628 -2.577 3.37455 0
M  V30 5964 O 606.652 -2.10769 2.8715 0
M  V30 5965 O 605.511 -3.43289 4.25224 0
M  V30 5966 H 602.605 -0.546668 0.620551 0
M  V30 5967 H 605.151 -0.449672 1.63634 0
M  V30 5968 H 603.923 -1.35346 3.67147 0
M  V30 5969 H 603.546 -2.82768 2.79514 0
M  V30 5970 N 604.543 -1.41418 -0.695603 0
M  V30 5971 C 605.453 -1.45622 -1.83933 0
M  V30 5972 C 606.469 -0.346825 -1.70508 0
M  V30 5973 O 607.645 -0.59454 -1.92424 0
M  V30 5974 C 604.71 -1.33627 -3.19914 0
M  V30 5975 C 603.771 -2.54882 -3.45447 0
M  V30 5976 C 603.004 -2.43449 -4.7494 0
M  V30 5977 O 603.227 -1.45905 -5.51424 0
M  V30 5978 O 602.161 -3.33206 -5.01256 0
M  V30 5979 H 605.987 -2.42114 -1.83342 0
M  V30 5980 H 603.572 -1.22956 -0.848658 0
M  V30 5981 H 605.454 -1.29221 -4.01098 0
M  V30 5982 H 604.129 -0.402508 -3.21188 0
M  V30 5983 H 603.036 -2.64865 -2.64192 0
M  V30 5984 H 604.369 -3.47087 -3.48987 0
M  V30 5985 N 606.021 0.929856 -1.27246 0
M  V30 5986 C 606.984 2.01172 -1.09829 0
M  V30 5987 C 607.984 1.60743 -0.0429687 0
M  V30 5988 O 609.174 1.71813 -0.287373 0
M  V30 5989 C 606.306 3.34191 -0.673003 0
M  V30 5990 H 607.499 2.18054 -2.05895 0
M  V30 5991 H 605.052 1.11036 -1.10003 0
M  V30 5992 H 605.787 3.23009 0.289134 0
M  V30 5993 H 605.572 3.64892 -1.43515 0
M  V30 5994 H 607.062 4.13646 -0.573323 0
M  V30 5995 N 607.499 1.09233 1.13605 0
M  V30 5996 C 608.745 0.838255 1.85324 0
M  V30 5997 C 609.1 -0.629314 1.81817 0
M  V30 5998 O 608.393 -1.45729 1.24393 0
M  V30 5999 C 608.587 1.305 3.32723 0
M  V30 6000 C 608.416 2.81641 3.50583 0
M  V30 6001 C 607.186 3.49494 3.64941 0
M  V30 6002 C 609.384 3.79789 3.46792 0
M  V30 6003 N 607.366 4.89082 3.71042 0
M  V30 6004 C 608.737 5.05319 3.59239 0
M  V30 6005 C 610.792 3.72673 3.30181 0
M  V30 6006 C 609.495 6.24574 3.56791 0
M  V30 6007 C 611.521 4.91413 3.29039 0
M  V30 6008 C 610.883 6.15785 3.42035 0
M  V30 6009 H 606.982 0.359572 0.69443 0
M  V30 6010 H 609.566 1.39232 1.36098 0
M  V30 6011 H 607.737 0.778411 3.8052 0
M  V30 6012 H 609.469 0.996465 3.92241 0
M  V30 6013 H 606.224 2.9992 3.66531 0
M  V30 6014 H 606.648 5.61787 3.77789 0
M  V30 6015 H 611.29 2.77444 3.19037 0
M  V30 6016 H 609.008 7.20105 3.66708 0
M  V30 6017 H 612.594 4.87604 3.17386 0
M  V30 6018 H 611.474 7.06126 3.41111 0
M  V30 6019 N 608.977 -1.30795 0.87923 0
M  V30 6020 C 610.393 -1.48981 0.57243 0
M  V30 6021 C 610.593 -1.80719 -0.891236 0
M  V30 6022 O 609.649 -1.89136 -1.67283 0
M  V30 6023 C 610.962 -2.61721 1.48063 0
M  V30 6024 C 612.51 -2.75603 1.48365 0
M  V30 6025 C 612.985 -3.91449 2.37763 0
M  V30 6026 N 614.476 -3.98751 2.35695 0
M  V30 6027 C 615.211 -4.87684 3.01583 0
M  V30 6028 N 614.707 -5.81454 3.76674 0
M  V30 6029 N 616.5 -4.81005 2.90844 0
M  V30 6030 H 608.651 -1.08465 1.82617 0
M  V30 6031 H 610.914 -0.536813 0.781368 0
M  V30 6032 H 610.62 -2.45073 2.52254 0
M  V30 6033 H 610.494 -3.58071 1.18596 0
M  V30 6034 H 612.881 -2.9166 0.44927 0
M  V30 6035 H 612.962 -1.79891 1.81859 0
M  V30 6036 H 612.606 -3.76149 3.41283 0
M  V30 6037 H 612.536 -4.86487 2.01589 0
M  V30 6038 H 615.027 -3.31668 1.81121 0
M  V30 6039 H 615.34 -6.46063 4.24054 0
M  V30 6040 H 613.685 -5.81403 3.80782 0
M  V30 6041 H 616.876 -4.06728 2.31711 0
M  V30 6042 H 617.049 -5.50107 3.42471 0
M  V30 6043 N 610.455 -0.639598 -1.44038 0
M  V30 6044 C 611.418 0.0506628 -2.29144 0
M  V30 6045 C 612.418 0.764001 -1.41491 0
M  V30 6046 O 613.608 0.607309 -1.63271 0
M  V30 6047 C 610.74 1.0824 -3.2326 0
M  V30 6048 H 611.933 -0.697987 -2.91664 0
M  V30 6049 H 609.486 -0.400146 -1.51091 0
M  V30 6050 H 610.221 1.86075 -2.65606 0
M  V30 6051 H 610.006 0.574725 -3.87865 0
M  V30 6052 H 611.496 1.56487 -3.87171 0
M  V30 6053 N 611.933 1.52934 -0.380664 0
M  V30 6054 C 613.181 2.01069 0.203874 0
M  V30 6055 C 613.502 1.26922 1.4804 0
M  V30 6056 O 612.772 0.386787 1.92044 0
M  V30 6057 H 611.352 0.742882 0.0783279 0
M  V30 6058 H 614.014 1.88099 -0.510368 0
M  V30 6059 H 613.11 3.09258 0.42021 0
M  V30 6060 N 613.412 0.11024 1.57214 0
M  V30 6061 C 614.658 -0.550684 1.9518 0
M  V30 6062 C 614.991 -1.66885 0.993122 0
M  V30 6063 O 614.266 -1.94479 0.0287907 0
M  V30 6064 C 614.549 -1.09163 3.43155 0
M  V30 6065 C 614.402 0.0225198 4.49794 0
M  V30 6066 C 615.721 -1.98527 3.92778 0
M  V30 6067 H 612.84 -0.198706 0.709708 0
M  V30 6068 H 615.482 0.184024 1.89107 0
M  V30 6069 H 613.632 -1.71775 3.48462 0
M  V30 6070 H 615.304 0.657443 4.56591 0
M  V30 6071 H 613.547 0.686868 4.28328 0
M  V30 6072 H 614.218 -0.39706 5.5057 0
M  V30 6073 H 616.694 -1.458 3.8972 0
M  V30 6074 H 615.57 -2.33298 4.96853 0
M  V30 6075 H 615.831 -2.90846 3.32958 0
M  V30 6076 N 614.89 -1.56749 -0.16351 0
M  V30 6077 C 615.853 -1.96121 -1.18613 0
M  V30 6078 C 616.853 -0.845765 -1.36761 0
M  V30 6079 O 618.043 -1.11268 -1.34033 0
M  V30 6080 C 615.175 -2.26282 -2.54969 0
M  V30 6081 H 616.368 -2.87639 -0.848764 0
M  V30 6082 H 613.921 -1.50928 -0.406251 0
M  V30 6083 H 614.656 -1.37504 -2.93706 0
M  V30 6084 H 614.441 -3.07595 -2.43162 0
M  V30 6085 H 615.931 -2.57638 -3.28653 0
M  V30 6086 N 616.368 0.432326 -1.51554 0
M  V30 6087 C 617.331 1.50765 -1.72634 0
M  V30 6088 C 618.331 1.49334 -0.596314 0
M  V30 6089 O 619.521 1.51268 -0.863925 0
M  V30 6090 C 616.653 2.90284 -1.7874 0
M  V30 6091 H 617.846 1.33377 -2.68609 0
M  V30 6092 H 615.399 0.661329 -1.4162 0
M  V30 6093 H 616.134 3.13071 -0.845977 0
M  V30 6094 H 615.919 2.92727 -2.6087 0
M  V30 6095 H 617.409 3.68282 -1.96871 0
M  V30 6096 N 617.846 1.41785 0.688094 0
M  V30 6097 C 619.094 1.41264 1.4453 0
M  V30 6098 C 619.415 0.0252946 1.94984 0
M  V30 6099 O 618.685 -0.934081 1.72197 0
M  V30 6100 H 617.265 0.519998 0.536294 0
M  V30 6101 H 619.927 1.7709 0.813941 0
M  V30 6102 H 619.023 2.10439 2.30482 0
M  V30 6103 N 619.324 -0.923095 1.27737 0
M  V30 6104 C 620.571 -1.67127 1.14345 0
M  V30 6105 C 620.899 -1.92017 -0.30982 0
M  V30 6106 O 620.154 -1.51185 -1.24264 0
M  V30 6107 C 620.453 -3.04125 1.8773 0
M  V30 6108 C 620.119 -2.98929 3.37568 0
M  V30 6109 C 618.781 -2.9722 3.78436 0
M  V30 6110 C 621.133 -2.89875 4.33154 0
M  V30 6111 C 618.461 -2.84244 5.13247 0
M  V30 6112 C 620.813 -2.7844 5.68026 0
M  V30 6113 C 619.477 -2.75083 6.08182 0
M  V30 6114 H 618.747 -0.611562 0.418417 0
M  V30 6115 H 621.394 -1.07618 1.584 0
M  V30 6116 H 619.699 -3.67366 1.36196 0
M  V30 6117 H 621.396 -3.609 1.74792 0
M  V30 6118 H 617.986 -3.0105 3.05069 0
M  V30 6119 H 622.17 -2.9029 4.02548 0
M  V30 6120 H 617.426 -2.80034 5.43499 0
M  V30 6121 H 621.6 -2.70401 6.4176 0
M  V30 6122 H 619.227 -2.64786 7.12596 0
M  V30 6123 N 620.802 -1.09834 -1.13024 0
M  V30 6124 C 622.032 -0.857657 -1.87957 0
M  V30 6125 C 622.44 0.595008 -1.796 0
M  V30 6126 O 621.783 1.42158 -1.16347 0
M  V30 6127 C 621.845 -1.21949 -3.38185 0
M  V30 6128 C 621.509 -2.67791 -3.7032 0
M  V30 6129 C 622.506 -3.66036 -3.69207 0
M  V30 6130 C 620.191 -3.04019 -3.99847 0
M  V30 6131 C 622.185 -4.98533 -3.9717 0
M  V30 6132 C 619.872 -4.36706 -4.27471 0
M  V30 6133 C 620.87 -5.33772 -4.26118 0
M  V30 6134 O 620.558 -6.64072 -4.53061 0
M  V30 6135 H 620.29 -0.308009 -0.601753 0
M  V30 6136 H 622.844 -1.46496 -1.43973 0
M  V30 6137 H 621.074 -0.555249 -3.82693 0
M  V30 6138 H 622.763 -0.957281 -3.9445 0
M  V30 6139 H 623.529 -3.39392 -3.46465 0
M  V30 6140 H 619.408 -2.29096 -4.00045 0
M  V30 6141 H 622.952 -5.74288 -3.96029 0
M  V30 6142 H 618.849 -4.63091 -4.49685 0
M  V30 6143 H 619.617 -6.69608 -4.7071 0
M  V30 6144 N 622.28 1.30327 -0.886154 0
M  V30 6145 C 623.696 1.48676 -0.580323 0
M  V30 6146 C 623.896 1.81189 0.881639 0
M  V30 6147 O 622.952 1.90021 1.66278 0
M  V30 6148 C 624.265 2.60932 -1.49449 0
M  V30 6149 C 625.813 2.74812 -1.49824 0
M  V30 6150 C 626.288 3.90183 -2.39836 0
M  V30 6151 N 627.779 3.97495 -2.37806 0
M  V30 6152 C 628.514 4.86078 -3.04165 0
M  V30 6153 N 628.01 5.79448 -3.79753 0
M  V30 6154 N 629.803 4.79456 -2.93391 0
M  V30 6155 H 621.954 1.07495 -1.8319 0
M  V30 6156 H 624.217 0.532661 -0.784204 0
M  V30 6157 H 623.923 2.43731 -2.5355 0
M  V30 6158 H 623.797 3.57437 -1.20494 0
M  V30 6159 H 626.184 2.91418 -0.464731 0
M  V30 6160 H 626.265 1.78924 -1.82811 0
M  V30 6161 H 625.909 3.74334 -3.43273 0
M  V30 6162 H 625.839 4.85411 -2.04166 0
M  V30 6163 H 628.33 3.30703 -1.82877 0
M  V30 6164 H 628.643 6.43805 -4.27475 0
M  V30 6165 H 626.988 5.79376 -3.8386 0
M  V30 6166 H 630.179 4.05494 -2.33864 0
M  V30 6167 H 630.352 5.48283 -3.45383 0
M  V30 6168 N 623.758 0.647228 1.43697 0
M  V30 6169 C 624.69 -0.0866232 2.29036 0
M  V30 6170 C 625.703 -0.793051 1.42178 0
M  V30 6171 O 626.892 -0.651807 1.66174 0
M  V30 6172 C 623.992 -1.14552 3.18953 0
M  V30 6173 C 623.165 -0.518422 4.34317 0
M  V30 6174 C 622.224 -1.4734 5.05151 0
M  V30 6175 O 621.25 -0.984312 5.60625 0
M  V30 6176 N 622.452 -2.8075 5.08094 0
M  V30 6177 H 625.217 0.645834 2.92659 0
M  V30 6178 H 622.778 0.489567 1.54321 0
M  V30 6179 H 624.77 -1.78505 3.63205 0
M  V30 6180 H 623.34 -1.78001 2.56971 0
M  V30 6181 H 622.56 0.300079 3.93056 0
M  V30 6182 H 623.848 -0.080401 5.08736 0
M  V30 6183 H 623.246 -3.23052 4.64386 0
M  V30 6184 H 621.803 -3.40022 5.56083 0
M  V30 6185 N 625.236 -1.5273 0.388769 0
M  V30 6186 C 626.183 -2.26437 -0.446639 0
M  V30 6187 C 627.153 -1.28025 -1.05824 0
M  V30 6188 O 628.338 -1.56852 -1.08637 0
M  V30 6189 C 625.478 -3.07407 -1.56828 0
M  V30 6190 C 624.591 -4.20747 -0.979589 0
M  V30 6191 C 623.726 -4.89113 -2.07224 0
M  V30 6192 C 622.765 -5.94447 -1.45942 0
M  V30 6193 N 621.902 -6.56411 -2.49135 0
M  V30 6194 H 626.742 -2.97404 0.18837 0
M  V30 6195 H 624.279 -1.46727 0.104725 0
M  V30 6196 H 626.237 -3.52642 -2.22934 0
M  V30 6197 H 624.867 -2.3865 -2.17361 0
M  V30 6198 H 623.919 -3.7983 -0.208151 0
M  V30 6199 H 625.231 -4.9637 -0.491747 0
M  V30 6200 H 624.385 -5.3765 -2.81101 0
M  V30 6201 H 623.124 -4.13013 -2.59368 0
M  V30 6202 H 622.129 -5.4525 -0.705894 0
M  V30 6203 H 623.354 -6.7248 -0.945932 0
M  V30 6204 H 621.3 -5.83152 -3.00449 0
M  V30 6205 H 621.217 -7.27645 -2.05105 0
M  V30 6206 H 622.485 -7.09592 -3.22644 0
M  V30 6207 N 626.714 -0.118576 -1.57153 0
M  V30 6208 C 627.644 0.828436 -2.1831 0
M  V30 6209 C 628.625 1.27758 -1.12303 0
M  V30 6210 O 629.81 1.34026 -1.40537 0
M  V30 6211 C 626.94 2.07876 -2.78217 0
M  V30 6212 C 625.894 1.76742 -3.89803 0
M  V30 6213 C 625.22 3.08801 -4.36516 0
M  V30 6214 C 626.52 1.03606 -5.11921 0
M  V30 6215 H 628.214 0.318824 -2.97698 0
M  V30 6216 H 625.76 0.151911 -1.43196 0
M  V30 6217 H 627.713 2.74584 -3.19659 0
M  V30 6218 H 626.437 2.61161 -1.96118 0
M  V30 6219 H 625.096 1.12424 -3.48936 0
M  V30 6220 H 624.744 3.6002 -3.51276 0
M  V30 6221 H 624.444 2.88743 -5.11763 0
M  V30 6222 H 625.968 3.76627 -4.80608 0
M  V30 6223 H 627.382 1.60467 -5.50385 0
M  V30 6224 H 625.779 0.936454 -5.92748 0
M  V30 6225 H 626.849 0.0227421 -4.84895 0
M  V30 6226 N 628.193 1.56834 0.155195 0
M  V30 6227 C 629.103 2.009 1.21146 0
M  V30 6228 C 630.119 0.923029 1.475 0
M  V30 6229 O 631.295 1.23189 1.59331 0
M  V30 6230 C 628.36 2.37378 2.52691 0
M  V30 6231 C 627.421 3.59883 2.34057 0
M  V30 6232 C 626.654 3.94612 3.59329 0
M  V30 6233 O 626.877 3.30104 4.65175 0
M  V30 6234 O 625.811 4.87895 3.52479 0
M  V30 6235 H 629.637 2.9105 0.867371 0
M  V30 6236 H 627.222 1.44916 0.363298 0
M  V30 6237 H 629.104 2.61737 3.3026 0
M  V30 6238 H 627.779 1.50385 2.86646 0
M  V30 6239 H 626.686 3.40722 1.54465 0
M  V30 6240 H 628.019 4.47468 2.0502 0
M  V30 6241 N 629.671 -0.424282 1.51781 0
M  V30 6242 C 630.634 -1.49848 1.73431 0
M  V30 6243 C 631.634 -1.49016 0.604225 0
M  V30 6244 O 632.824 -1.50808 0.871935 0
M  V30 6245 C 629.956 -2.89332 1.80277 0
M  V30 6246 H 631.149 -1.3195 2.69312 0
M  V30 6247 H 628.702 -0.653809 1.41968 0
M  V30 6248 H 629.437 -3.12618 0.862568 0
M  V30 6249 H 629.222 -2.9134 2.62419 0
M  V30 6250 H 630.712 -3.67233 1.98821 0
M  V30 6251 N 631.149 -1.42148 -0.680565 0
M  V30 6252 C 632.397 -1.42029 -1.43779 0
M  V30 6253 C 632.718 -0.0356347 -1.94967 0
M  V30 6254 O 631.988 0.924936 -1.7269 0
M  V30 6255 H 630.568 -0.522835 -0.533529 0
M  V30 6256 H 633.23 -1.7752 -0.804538 0
M  V30 6257 H 632.326 -2.11658 -2.29363 0
M  V30 6258 N 632.627 0.916307 -1.28225 0
M  V30 6259 C 633.59 1.99996 -1.11957 0
M  V30 6260 C 634.59 1.60688 -0.0600152 0
M  V30 6261 O 635.78 1.71499 -0.30558 0
M  V30 6262 C 632.912 3.33458 -0.708411 0
M  V30 6263 H 634.105 2.15858 -2.08196 0
M  V30 6264 H 631.658 1.09863 -1.11175 0
M  V30 6265 H 632.393 3.23297 0.254859 0
M  V30 6266 H 632.178 3.63349 -1.47377 0
M  V30 6267 H 633.668 4.13014 -0.617164 0
M  V30 6268 N 634.105 1.10431 1.1244 0
M  V30 6269 C 635.052 0.753103 2.18167 0
M  V30 6270 C 636.022 -0.270549 1.63882 0
M  V30 6271 O 637.207 -0.149837 1.90211 0
M  V30 6272 C 634.347 0.191046 3.44571 0
M  V30 6273 C 633.46 1.26999 4.12911 0
M  V30 6274 C 632.595 0.669586 5.26963 0
M  V30 6275 C 631.634 1.72912 5.87169 0
M  V30 6276 N 630.771 1.14898 6.92635 0
M  V30 6277 H 635.611 1.65892 2.47556 0
M  V30 6278 H 633.148 0.828631 1.21541 0
M  V30 6279 H 635.106 -0.152712 4.1692 0
M  V30 6280 H 633.736 -0.677997 3.15599 0
M  V30 6281 H 632.788 1.73087 3.3874 0
M  V30 6282 H 634.1 2.07204 4.53727 0
M  V30 6283 H 633.254 0.275274 6.06075 0
M  V30 6284 H 631.993 -0.163895 4.87425 0
M  V30 6285 H 630.998 2.13286 5.06744 0
M  V30 6286 H 632.223 2.56544 6.28778 0
M  V30 6287 H 630.169 0.336956 6.55134 0
M  V30 6288 H 630.086 1.88786 7.32049 0
M  V30 6289 H 631.354 0.78121 7.75576 0
M  V30 6290 N 635.583 -1.29855 0.893053 0
M  V30 6291 C 636.86 -1.90694 0.435336 0
M  V30 6292 C 637.24 -1.8111 -1.08454 0
M  V30 6293 O 636.588 -1.23352 -1.92345 0
M  V30 6294 C 636.798 -3.36033 0.942472 0
M  V30 6295 C 638.146 -4.13083 0.982226 0
M  V30 6296 O 639.17 -3.4491 0.889686 0
M  V30 6297 O 638.029 -5.34896 1.12022 0
M  V30 6298 H 635.123 -0.815978 0.134567 0
M  V30 6299 H 637.669 -1.38367 0.982484 0
M  V30 6300 H 636.441 -3.37132 1.9864 0
M  V30 6301 H 636.064 -3.95828 0.374952 0
M  V30 6302 N 637.061 -0.65484 -1.43351 0
M  V30 6303 C 638.286 -0.175046 -2.0666 0
M  V30 6304 C 638.711 1.15104 -1.4877 0
M  V30 6305 O 638.069 1.71144 -0.598279 0
M  V30 6306 C 638.117 -0.0991544 -3.60464 0
M  V30 6307 O 637.221 0.938169 -4.01587 0
M  V30 6308 H 636.562 -0.0956148 -0.65708 0
M  V30 6309 H 639.092 -0.898222 -1.83829 0
M  V30 6310 H 639.102 0.083632 -4.07914 0
M  V30 6311 H 637.777 -1.06719 -4.01975 0
M  V30 6312 H 636.354 0.72804 -3.65724 0
M  V30 6313 N 638.539 1.52521 -0.396863 0
M  V30 6314 C 639.816 1.94112 0.240842 0
M  V30 6315 C 640.196 1.33288 1.637 0
M  V30 6316 O 639.544 0.503901 2.22875 0
M  V30 6317 C 639.754 3.48033 0.259567 0
M  V30 6318 C 641.102 4.21822 0.484866 0
M  V30 6319 O 642.126 3.54579 0.339453 0
M  V30 6320 O 640.985 5.41042 0.770412 0
M  V30 6321 H 638.079 0.812973 0.151671 0
M  V30 6322 H 640.625 1.63572 -0.451918 0
M  V30 6323 H 639.397 3.84655 -0.718078 0
M  V30 6324 H 639.02 3.84899 0.996937 0
M  V30 6325 N 640.017 0.126909 1.57088 0
M  V30 6326 C 641.247 -0.535892 1.99529 0
M  V30 6327 C 641.655 -1.60259 1.00566 0
M  V30 6328 O 640.998 -1.83698 -0.00843269 0
M  V30 6329 C 641.06 -1.21374 3.38391 0
M  V30 6330 C 640.724 -0.294044 4.56053 0
M  V30 6331 C 641.721 0.470454 5.17767 0
M  V30 6332 C 639.406 -0.202808 5.0189 0
M  V30 6333 C 641.4 1.31384 6.23712 0
M  V30 6334 C 639.087 0.644203 6.07695 0
M  V30 6335 C 640.085 1.40115 6.68473 0
M  V30 6336 O 639.773 2.23408 7.72233 0
M  V30 6337 H 639.505 -0.145799 0.66009 0
M  V30 6338 H 642.059 0.212441 2.04298 0
M  V30 6339 H 640.289 -2.00931 3.30399 0
M  V30 6340 H 641.978 -1.77424 3.65069 0
M  V30 6341 H 642.744 0.409884 4.83265 0
M  V30 6342 H 638.623 -0.781688 4.54324 0
M  V30 6343 H 642.167 1.90514 6.71081 0
M  V30 6344 H 638.064 0.706137 6.41626 0
M  V30 6345 H 638.832 2.16436 7.89365 0
M  V30 6346 N 641.495 -1.56914 -0.146875 0
M  V30 6347 C 642.911 -1.51582 -0.499518 0
M  V30 6348 C 643.111 -0.83535 -1.83369 0
M  V30 6349 O 642.167 -0.405932 -2.49216 0
M  V30 6350 C 643.48 -2.96349 -0.509711 0
M  V30 6351 C 645.028 -3.07288 -0.595217 0
M  V30 6352 C 645.503 -4.53562 -0.636071 0
M  V30 6353 N 646.994 -4.57906 -0.69829 0
M  V30 6354 C 647.729 -5.68462 -0.750886 0
M  V30 6355 N 647.225 -6.88588 -0.76282 0
M  V30 6356 N 649.018 -5.56496 -0.791777 0
M  V30 6357 H 641.169 -1.99547 0.727656 0
M  V30 6358 H 643.432 -0.910113 0.265327 0
M  V30 6359 H 643.138 -3.4939 0.402409 0
M  V30 6360 H 643.012 -3.52307 -1.34758 0
M  V30 6361 H 645.399 -2.54266 -1.49776 0
M  V30 6362 H 645.48 -2.54373 0.2698 0
M  V30 6363 H 645.124 -5.07222 0.262313 0
M  V30 6364 H 645.054 -5.04259 -1.51758 0
M  V30 6365 H 647.545 -3.71429 -0.696362 0
M  V30 6366 H 647.858 -7.68598 -0.804804 0
M  V30 6367 H 646.203 -6.91148 -0.730694 0
M  V30 6368 H 649.394 -4.61562 -0.779624 0
M  V30 6369 H 649.567 -6.42671 -0.829301 0
M  V30 6370 N 642.974 0.416227 -1.52004 0
M  V30 6371 C 643.907 1.52736 -1.6955 0
M  V30 6372 C 644.885 1.53264 -0.54305 0
M  V30 6373 O 646.069 1.72077 -0.769527 0
M  V30 6374 C 643.196 2.91283 -1.72835 0
M  V30 6375 C 642.242 3.08695 -2.94295 0
M  V30 6376 S 643.075 2.82758 -4.54762 0
M  V30 6377 C 644.231 4.23548 -4.60823 0
M  V30 6378 H 644.464 1.37623 -2.63528 0
M  V30 6379 H 641.997 0.607335 -1.41954 0
M  V30 6380 H 643.955 3.71134 -1.75413 0
M  V30 6381 H 642.616 3.03742 -0.799966 0
M  V30 6382 H 641.809 4.10042 -2.93056 0
M  V30 6383 H 641.411 2.36699 -2.89568 0
M  V30 6384 H 643.703 5.17078 -4.37763 0
M  V30 6385 H 644.646 4.29813 -5.62731 0
M  V30 6386 H 645.054 4.08188 -3.89927 0
M  V30 6387 N 644.452 1.42507 0.673017 0
M  V30 6388 C 645.4 1.46362 1.80779 0
M  V30 6389 C 646.394 0.339166 1.6597 0
M  V30 6390 O 647.6 0.512262 1.72557 0
M  V30 6391 H 643.975 0.458433 0.596107 0
M  V30 6392 H 645.946 2.41953 1.74646 0
M  V30 6393 C 644.695 1.38462 3.18941 0
M  V30 6394 H 644.018 2.24283 3.30964 0
M  V30 6395 H 645.458 1.45221 3.98355 0
M  V30 6396 C 643.917 0.0996354 3.36753 0
M  V30 6397 O 644.447 -0.846894 3.92671 0
M  V30 6398 N 642.653 0.016211 2.90595 0
M  V30 6399 H 642.2 0.78725 2.45276 0
M  V30 6400 H 642.158 -0.84291 3.0289 0
M  V30 6401 N 645.93 -0.909495 1.28709 0
M  V30 6402 C 647.155 -1.69801 1.1909 0
M  V30 6403 C 647.58 -1.86479 -0.246388 0
M  V30 6404 O 646.938 -1.37802 -1.17815 0
M  V30 6405 C 646.986 -3.06543 1.89904 0
M  V30 6406 O 646.09 -3.94268 1.2094 0
M  V30 6407 H 645.431 -0.519783 0.413185 0
M  V30 6408 H 647.961 -1.13689 1.70106 0
M  V30 6409 H 647.971 -3.56748 1.97977 0
M  V30 6410 H 646.646 -2.93722 2.94449 0
M  V30 6411 H 645.223 -3.52702 1.2106 0
M  V30 6412 N 647.408 -1.11026 -1.11852 0
M  V30 6413 C 648.638 -0.877544 -1.87037 0
M  V30 6414 C 649.046 0.575925 -1.80221 0
M  V30 6415 O 648.389 1.40916 -1.17849 0
M  V30 6416 C 648.451 -1.25529 -3.36872 0
M  V30 6417 C 648.115 -2.71704 -3.67459 0
M  V30 6418 C 649.112 -3.69931 -3.65304 0
M  V30 6419 C 646.797 -3.08243 -3.966 0
M  V30 6420 C 648.791 -5.02717 -3.9186 0
M  V30 6421 C 646.478 -4.41215 -4.22815 0
M  V30 6422 C 647.476 -5.38262 -4.20432 0
M  V30 6423 O 647.164 -6.68839 -4.45992 0
M  V30 6424 H 646.896 -0.314374 -0.598452 0
M  V30 6425 H 649.45 -1.48015 -1.42411 0
M  V30 6426 H 647.68 -0.595808 -3.82082 0
M  V30 6427 H 649.369 -0.999064 -3.93413 0
M  V30 6428 H 650.135 -3.43047 -3.42846 0
M  V30 6429 H 646.014 -2.33326 -3.97593 0
M  V30 6430 H 649.558 -5.78456 -3.89916 0
M  V30 6431 H 645.455 -4.67835 -4.44748 0
M  V30 6432 H 646.223 -6.74563 -4.63581 0
M  V30 6433 N 648.886 1.2938 -0.899927 0
M  V30 6434 C 649.819 2.25911 -0.322386 0
M  V30 6435 C 650.797 1.52447 0.565567 0
M  V30 6436 O 651.981 1.81404 0.512324 0
M  V30 6437 C 649.108 3.3436 0.540455 0
M  V30 6438 C 648.154 4.25579 -0.280211 0
M  V30 6439 S 648.987 5.08526 -1.67814 0
M  V30 6440 C 650.143 6.20476 -0.822224 0
M  V30 6441 H 650.376 2.7455 -1.1406 0
M  V30 6442 H 647.909 1.37606 -0.700285 0
M  V30 6443 H 649.867 3.97303 1.0325 0
M  V30 6444 H 648.528 2.84416 1.33291 0
M  V30 6445 H 647.721 5.02574 0.378915 0
M  V30 6446 H 647.323 3.67287 -0.705405 0
M  V30 6447 H 649.615 6.77485 -0.0457138 0
M  V30 6448 H 650.558 6.90606 -1.56426 0
M  V30 6449 H 650.966 5.63243 -0.37651 0
M  V30 6450 N 650.364 0.662433 1.43002 0
M  V30 6451 C 651.327 -0.0142016 2.29196 0
M  V30 6452 C 652.327 -0.741394 1.42688 0
M  V30 6453 O 653.517 -0.581257 1.64216 0
M  V30 6454 C 650.649 -1.03084 3.24941 0
M  V30 6455 H 651.842 0.7443 2.90517 0
M  V30 6456 H 649.395 0.424133 1.50435 0
M  V30 6457 H 650.13 -1.81826 2.68533 0
M  V30 6458 H 649.915 -0.512946 3.8873 0
M  V30 6459 H 651.405 -1.50308 3.89612 0
M  V30 6460 N 651.842 -1.52309 0.404946 0
M  V30 6461 C 653.067 -2.06666 -0.1743 0
M  V30 6462 C 653.492 -1.27341 -1.38441 0
M  V30 6463 O 652.85 -0.302539 -1.78758 0
M  V30 6464 C 652.898 -3.57014 -0.507262 0
M  V30 6465 O 652.002 -3.80144 -1.59889 0
M  V30 6466 H 651.343 -0.663807 -0.0160273 0
M  V30 6467 H 653.873 -1.96297 0.576937 0
M  V30 6468 H 653.883 -4.00724 -0.767098 0
M  V30 6469 H 652.558 -4.14184 0.377368 0
M  V30 6470 H 651.135 -3.48316 -1.33155 0
M  V30 6471 N 653.32 -0.135238 -1.57019 0
M  V30 6472 C 654.283 0.794707 -2.14981 0
M  V30 6473 C 655.283 1.18342 -1.08866 0
M  V30 6474 O 656.473 1.10627 -1.34563 0
M  V30 6475 C 653.605 2.07685 -2.70333 0
M  V30 6476 H 654.798 0.290696 -2.98488 0
M  V30 6477 H 652.351 0.114128 -1.55883 0
M  V30 6478 H 653.086 2.6248 -1.9046 0
M  V30 6479 H 652.871 1.80745 -3.47957 0
M  V30 6480 H 654.361 2.74127 -3.1503 0
M  V30 6481 N 654.798 1.5699 0.138552 0
M  V30 6482 C 656.045 1.83809 0.849732 0
M  V30 6483 C 656.373 0.717409 1.80786 0
M  V30 6484 O 655.628 -0.292897 1.93496 0
M  V30 6485 C 655.927 3.17007 1.65049 0
M  V30 6486 C 655.593 4.43037 0.838398 0
M  V30 6487 C 654.255 4.77262 0.614385 0
M  V30 6488 C 656.607 5.20495 0.271044 0
M  V30 6489 C 653.935 5.864 -0.187552 0
M  V30 6490 C 656.287 6.30476 -0.517979 0
M  V30 6491 C 654.951 6.63245 -0.75249 0
M  V30 6492 H 654.221 0.672605 0.310939 0
M  V30 6493 H 656.868 1.91166 0.112971 0
M  V30 6494 H 655.173 3.05138 2.4576 0
M  V30 6495 H 656.87 3.34975 2.20437 0
M  V30 6496 H 653.46 4.16211 1.02307 0
M  V30 6497 H 657.644 4.94422 0.431371 0
M  V30 6498 H 652.9 6.10226 -0.378659 0
M  V30 6499 H 657.074 6.89686 -0.964694 0
M  V30 6500 H 654.701 7.47648 -1.37573 0
M  V30 6501 N 656.276 -0.40816 1.52223 0
M  V30 6502 C 657.522 -1.15673 1.66576 0
M  V30 6503 C 657.855 -1.90141 0.394996 0
M  V30 6504 O 657.13 -1.84798 -0.606613 0
M  V30 6505 C 657.413 -2.15042 2.88841 0
M  V30 6506 C 657.266 -1.44465 4.25969 0
M  V30 6507 C 658.585 -3.15699 3.0663 0
M  V30 6508 H 655.704 -0.41916 0.606196 0
M  V30 6509 H 658.346 -0.442348 1.84779 0
M  V30 6510 H 656.496 -2.75964 2.73452 0
M  V30 6511 H 658.168 -0.866544 4.53088 0
M  V30 6512 H 656.411 -0.746612 4.27327 0
M  V30 6513 H 657.082 -2.16976 5.07568 0
M  V30 6514 H 659.558 -2.64854 3.20923 0
M  V30 6515 H 658.434 -3.82491 3.9369 0
M  V30 6516 H 658.695 -3.83481 2.19987 0
M  V30 6517 N 657.755 -1.42862 -0.66545 0
M  V30 6518 C 658.687 -1.43026 -1.79098 0
M  V30 6519 C 659.7 -0.32803 -1.59461 0
M  V30 6520 O 660.889 -0.591709 -1.68407 0
M  V30 6521 C 657.989 -1.21566 -3.16346 0
M  V30 6522 C 657.162 -2.44399 -3.62751 0
M  V30 6523 C 656.221 -2.18344 -4.78761 0
M  V30 6524 O 655.247 -2.91611 -4.88827 0
M  V30 6525 N 656.449 -1.1924 -5.68122 0
M  V30 6526 H 659.214 -2.40045 -1.79439 0
M  V30 6527 H 656.775 -1.37861 -0.848872 0
M  V30 6528 H 658.767 -1.02037 -3.91625 0
M  V30 6529 H 657.337 -0.330368 -3.10849 0
M  V30 6530 H 656.557 -2.79433 -2.78048 0
M  V30 6531 H 657.845 -3.26173 -3.90498 0
M  V30 6532 H 657.243 -0.586603 -5.6265 0
M  V30 6533 H 655.8 -1.05698 -6.43173 0
M  V30 6534 N 659.233 0.902656 -1.29189 0
M  V30 6535 C 660.463 1.68394 -1.19695 0
M  V30 6536 C 660.871 1.87602 0.245384 0
M  V30 6537 O 660.214 1.41084 1.17648 0
M  V30 6538 C 660.276 3.09094 -1.83578 0
M  V30 6539 C 659.94 3.1313 -3.32864 0
M  V30 6540 C 660.937 2.93497 -4.29134 0
M  V30 6541 C 658.622 3.3529 -3.74013 0
M  V30 6542 C 660.616 2.95953 -5.64527 0
M  V30 6543 C 658.303 3.37377 -5.09529 0
M  V30 6544 C 659.301 3.1773 -6.04596 0
M  V30 6545 O 658.989 3.196 -7.37639 0
M  V30 6546 H 658.721 0.532815 -0.416034 0
M  V30 6547 H 661.275 1.1374 -1.71033 0
M  V30 6548 H 659.505 3.65338 -1.26747 0
M  V30 6549 H 661.194 3.69297 -1.68447 0
M  V30 6550 H 661.96 2.76192 -3.98677 0
M  V30 6551 H 657.839 3.49623 -3.00474 0
M  V30 6552 H 661.383 2.80536 -6.38706 0
M  V30 6553 H 657.28 3.54213 -5.39633 0
M  V30 6554 H 658.048 3.35887 -7.46406 0
M  V30 6555 N 660.711 1.11618 1.11262 0
M  V30 6556 C 661.643 0.734015 2.17129 0
M  V30 6557 C 662.656 -0.235243 1.61091 0
M  V30 6558 O 663.845 -0.0178597 1.78491 0
M  V30 6559 C 660.945 0.0643682 3.38839 0
M  V30 6560 C 660.118 1.06092 4.24339 0
M  V30 6561 C 659.177 0.420482 5.24517 0
M  V30 6562 O 658.203 1.07495 5.58957 0
M  V30 6563 N 659.405 -0.815828 5.74739 0
M  V30 6564 H 662.17 1.64492 2.50524 0
M  V30 6565 H 659.731 1.00664 1.26801 0
M  V30 6566 H 661.723 -0.375851 4.02951 0
M  V30 6567 H 660.293 -0.749147 3.03491 0
M  V30 6568 H 659.513 1.67903 3.56654 0
M  V30 6569 H 660.801 1.73507 4.78302 0
M  V30 6570 H 660.199 -1.36668 5.48943 0
M  V30 6571 H 658.756 -1.199 6.40677 0
M  V30 6572 N 662.189 -1.289 0.906776 0
M  V30 6573 C 663.099 -2.31256 0.394707 0
M  V30 6574 C 664.115 -1.66231 -0.514121 0
M  V30 6575 O 665.291 -1.97347 -0.401994 0
M  V30 6576 C 662.356 -3.44792 -0.363191 0
M  V30 6577 C 661.417 -4.25391 0.578012 0
M  V30 6578 C 660.65 -5.33506 -0.143811 0
M  V30 6579 O 660.873 -5.53786 -1.36665 0
M  V30 6580 O 659.807 -5.99673 0.5173 0
M  V30 6581 H 663.633 -2.77051 1.24405 0
M  V30 6582 H 661.218 -1.33466 0.671346 0
M  V30 6583 H 663.1 -4.139 -0.791503 0
M  V30 6584 H 661.775 -3.01093 -1.18848 0
M  V30 6585 H 660.682 -3.58899 1.05558 0
M  V30 6586 H 662.015 -4.72752 1.36992 0
M  V30 6587 N 663.667 -0.670007 -1.42649 0
M  V30 6588 C 664.615 0.0230106 -2.32589 0
M  V30 6589 C 665.609 0.795585 -1.49555 0
M  V30 6590 O 666.815 0.70409 -1.65658 0
M  V30 6591 H 663.19 0.0262342 -0.751542 0
M  V30 6592 H 665.161 -0.753009 -2.88743 0
M  V30 6593 C 663.91 0.963872 -3.34073 0
M  V30 6594 H 663.233 0.378813 -3.98001 0
M  V30 6595 H 664.673 1.41755 -3.99602 0
M  V30 6596 C 663.132 2.06797 -2.65964 0
M  V30 6597 O 663.662 3.15383 -2.48789 0
M  V30 6598 N 661.868 1.83831 -2.25066 0
M  V30 6599 H 661.415 0.955235 -2.39234 0
M  V30 6600 H 661.373 2.57895 -1.79827 0
M  V30 6601 N 665.145 1.52092 -0.413018 0
M  V30 6602 C 666.561 1.59471 -0.0640836 0
M  V30 6603 C 666.761 1.42562 1.42402 0
M  V30 6604 O 665.817 1.25453 2.19129 0
M  V30 6605 C 667.13 2.95392 -0.562474 0
M  V30 6606 C 668.678 3.08637 -0.520788 0
M  V30 6607 C 669.153 4.47044 -0.995752 0
M  V30 6608 N 670.644 4.53296 -0.952732 0
M  V30 6609 C 671.379 5.58669 -1.29138 0
M  V30 6610 N 670.875 6.71576 -1.70168 0
M  V30 6611 N 672.668 5.48898 -1.2111 0
M  V30 6612 H 664.819 1.6133 -1.38153 0
M  V30 6613 H 667.082 0.75916 -0.567785 0
M  V30 6614 H 666.788 3.13059 -1.60271 0
M  V30 6615 H 666.662 3.77191 0.0257875 0
M  V30 6616 H 669.049 2.90652 0.510412 0
M  V30 6617 H 669.13 2.28735 -1.14515 0
M  V30 6618 H 668.774 4.65773 -2.0253 0
M  V30 6619 H 668.704 5.25448 -0.348162 0
M  V30 6620 H 671.195 3.72248 -0.651119 0
M  V30 6621 H 671.508 7.47973 -1.9431 0
M  V30 6622 H 669.853 6.72847 -1.74075 0
M  V30 6623 H 673.044 4.59573 -0.889396 0
M  V30 6624 H 673.217 6.30912 -1.47833 0
M  V30 6625 N 666.623 0.143563 1.56945 0
M  V30 6626 C 667.869 -0.502787 1.97088 0
M  V30 6627 C 668.224 -1.62703 1.02691 0
M  V30 6628 O 667.517 -1.91502 0.0613323 0
M  V30 6629 C 667.711 -1.05885 3.41355 0
M  V30 6630 C 667.54 0.00998209 4.49699 0
M  V30 6631 C 666.31 0.450229 5.0329 0
M  V30 6632 C 668.508 0.800174 5.08037 0
M  V30 6633 N 666.49 1.50227 5.95235 0
M  V30 6634 C 667.861 1.70279 5.96158 0
M  V30 6635 C 669.916 0.848344 4.9062 0
M  V30 6636 C 668.619 2.64945 6.68728 0
M  V30 6637 C 670.645 1.78281 5.63888 0
M  V30 6638 C 670.007 2.67296 6.51715 0
M  V30 6639 H 666.106 -0.152891 0.766908 0
M  V30 6640 H 668.69 0.23737 1.93248 0
M  V30 6641 H 666.861 -1.76863 3.45795 0
M  V30 6642 H 668.593 -1.67154 3.68567 0
M  V30 6643 H 665.348 0.0531355 4.7357 0
M  V30 6644 H 665.772 2.02795 6.45913 0
M  V30 6645 H 670.414 0.174228 4.22441 0
M  V30 6646 H 668.132 3.33358 7.36137 0
M  V30 6647 H 671.718 1.82584 5.52408 0
M  V30 6648 H 670.598 3.38428 7.07415 0
M  V30 6649 N 668.101 -1.57061 -0.130224 0
M  V30 6650 C 669.347 -1.85412 -0.836295 0
M  V30 6651 C 669.702 -0.729831 -1.7802 0
M  V30 6652 O 668.995 0.271021 -1.89673 0
M  V30 6653 C 669.189 -3.17878 -1.63365 0
M  V30 6654 C 669.018 -4.43086 -0.768453 0
M  V30 6655 C 667.788 -5.03488 -0.427598 0
M  V30 6656 C 669.986 -5.14219 -0.0911495 0
M  V30 6657 N 667.968 -6.12253 0.449439 0
M  V30 6658 C 669.339 -6.16632 0.645341 0
M  V30 6659 C 671.394 -4.97898 -0.0135625 0
M  V30 6660 C 670.097 -7.0449 1.45212 0
M  V30 6661 C 672.123 -5.86234 0.780001 0
M  V30 6662 C 671.485 -6.88141 1.50472 0
M  V30 6663 H 667.584 -0.728875 -0.283311 0
M  V30 6664 H 670.168 -1.9444 -0.100662 0
M  V30 6665 H 668.339 -3.09967 -2.3404 0
M  V30 6666 H 670.071 -3.34076 -2.28419 0
M  V30 6667 H 666.826 -4.67344 -0.767264 0
M  V30 6668 H 667.25 -6.71263 0.879476 0
M  V30 6669 H 671.892 -4.19082 -0.559511 0
M  V30 6670 H 669.61 -7.82722 2.00926 0
M  V30 6671 H 673.196 -5.75671 0.842246 0
M  V30 6672 H 672.076 -7.55311 2.1089 0
M  V30 6673 N 669.579 0.400081 -1.52437 0
M  V30 6674 C 670.542 1.4707 -1.75793 0
M  V30 6675 C 671.542 1.48036 -0.627856 0
M  V30 6676 O 672.732 1.49401 -0.895817 0
M  V30 6677 C 669.864 2.86427 -1.84858 0
M  V30 6678 H 671.057 1.27649 -2.71377 0
M  V30 6679 H 668.61 0.631141 -1.42991 0
M  V30 6680 H 669.345 3.11207 -0.912194 0
M  V30 6681 H 669.13 2.87128 -2.6702 0
M  V30 6682 H 670.62 3.64023 -2.04638 0
M  V30 6683 N 671.057 1.43213 0.657864 0
M  V30 6684 C 672.334 1.35063 1.41483 0
M  V30 6685 C 672.714 -0.0038314 2.111 0
M  V30 6686 O 672.062 -1.02018 2.04462 0
M  V30 6687 C 672.272 2.53061 2.40335 0
M  V30 6688 C 673.62 2.9594 3.04474 0
M  V30 6689 O 674.644 2.53074 2.50663 0
M  V30 6690 O 673.503 3.70184 4.02027 0
M  V30 6691 H 670.597 0.533517 0.631893 0
M  V30 6692 H 673.143 1.55253 0.685162 0
M  V30 6693 H 671.915 3.43283 1.87809 0
M  V30 6694 H 671.538 2.34945 3.20759 0
M  V30 6695 N 672.536 -0.895792 1.29666 0
M  V30 6696 C 673.499 -1.98189 1.15124 0
M  V30 6697 C 674.499 -1.60572 0.0855717 0
M  V30 6698 O 675.689 -1.70991 0.332826 0
M  V30 6699 C 672.821 -3.32289 0.761372 0
M  V30 6700 H 674.014 -2.12518 2.11603 0
M  V30 6701 H 671.567 -1.0808 1.12908 0
M  V30 6702 H 672.302 -3.23662 -0.203393 0
M  V30 6703 H 672.087 -3.60958 1.53139 0
M  V30 6704 H 673.577 -4.1198 0.682792 0
M  V30 6705 N 674.014 -1.12206 -1.10668 0
M  V30 6706 C 674.977 -0.790867 -2.15123 0
M  V30 6707 C 675.977 0.193618 -1.5963 0
M  V30 6708 O 677.167 -0.0318728 -1.74171 0
M  V30 6709 C 674.299 -0.174797 -3.40452 0
M  V30 6710 H 675.492 -1.7163 -2.45933 0
M  V30 6711 H 673.045 -0.924993 -1.2599 0
M  V30 6712 H 673.78 0.760478 -3.15257 0
M  V30 6713 H 673.565 -0.88358 -3.82015 0
M  V30 6714 H 675.055 0.0405162 -4.1758 0
M  V30 6715 N 675.492 1.28418 -0.913599 0
M  V30 6716 C 676.422 2.29713 -0.418847 0
M  V30 6717 C 677.403 1.62165 0.513469 0
M  V30 6718 O 678.588 1.89576 0.421235 0
M  V30 6719 C 675.718 3.45612 0.342042 0
M  V30 6720 C 674.672 4.25056 -0.501123 0
M  V30 6721 C 673.998 5.3329 0.388097 0
M  V30 6722 C 675.298 4.91814 -1.75831 0
M  V30 6723 H 676.992 2.71346 -1.26538 0
M  V30 6724 H 674.538 1.30446 -0.609903 0
M  V30 6725 H 676.491 4.15562 0.699 0
M  V30 6726 H 675.215 3.02858 1.22248 0
M  V30 6727 H 673.874 3.56833 -0.840598 0
M  V30 6728 H 673.522 4.8678 1.26707 0
M  V30 6729 H 673.222 5.87347 -0.172459 0
M  V30 6730 H 674.746 6.06088 0.74094 0
M  V30 6731 H 676.16 5.54126 -1.47026 0
M  V30 6732 H 674.557 5.55866 -2.26126 0
M  V30 6733 H 675.627 4.16313 -2.4862 0
M  V30 6734 N 676.97 0.677563 1.42291 0
M  V30 6735 C 678.198 0.209459 2.05837 0
M  V30 6736 C 678.613 -1.13444 1.50917 0
M  V30 6737 O 677.97 -1.70529 0.65008 0
M  V30 6738 C 678.021 0.138819 3.61233 0
M  V30 6739 O 677.742 1.42962 4.14118 0
M  V30 6740 C 679.243 -0.352449 4.41897 0
M  V30 6741 H 676.463 0.101209 0.663323 0
M  V30 6742 H 679.007 0.925077 1.8238 0
M  V30 6743 H 677.162 -0.527505 3.83792 0
M  V30 6744 H 677.576 1.3048 5.08011 0
M  V30 6745 H 679.05 -0.350778 5.50884 0
M  V30 6746 H 679.527 -1.3882 4.16684 0
M  V30 6747 H 680.133 0.282236 4.24362 0
M  V30 6748 N 678.448 -1.51871 0.421078 0
M  V30 6749 C 679.696 -2.01539 -0.150492 0
M  V30 6750 C 680.017 -1.30803 -1.44623 0
M  V30 6751 O 679.287 -0.437568 -1.90951 0
M  V30 6752 H 677.867 -0.744698 -0.0586041 0
M  V30 6753 H 680.529 -1.8668 0.560059 0
M  V30 6754 H 679.625 -3.10264 -0.338068 0
M  V30 6755 N 679.926 -0.151884 -1.56866 0
M  V30 6756 C 681.174 0.497021 -1.95893 0
M  V30 6757 C 681.495 1.65078 -1.03799 0
M  V30 6758 O 680.765 1.95642 -0.10049 0
M  V30 6759 H 679.345 0.186603 -0.723318 0
M  V30 6760 H 682.007 -0.228525 -1.93556 0
M  V30 6761 H 681.103 0.869933 -2.99731 0
M  V30 6762 N 681.404 1.57128 0.121893 0
M  V30 6763 C 682.634 1.88609 0.843227 0
M  V30 6764 C 683.042 0.740917 1.74089 0
M  V30 6765 O 682.385 -0.297426 1.81276 0
M  V30 6766 C 682.447 3.15073 1.73117 0
M  V30 6767 C 682.111 4.45742 1.0081 0
M  V30 6768 C 683.108 5.18719 0.350255 0
M  V30 6769 C 680.793 4.92444 0.99014 0
M  V30 6770 C 682.787 6.36617 -0.315889 0
M  V30 6771 C 680.474 6.10261 0.320196 0
M  V30 6772 C 681.472 6.82194 -0.331666 0
M  V30 6773 O 681.16 7.97769 -0.990927 0
M  V30 6774 H 680.892 0.628919 0.247865 0
M  V30 6775 H 683.446 2.05096 0.111725 0
M  V30 6776 H 681.676 2.9466 2.50424 0
M  V30 6777 H 683.365 3.32597 2.32667 0
M  V30 6778 H 684.131 4.83693 0.35577 0
M  V30 6779 H 680.01 4.36361 1.48695 0
M  V30 6780 H 683.554 6.92701 -0.825272 0
M  V30 6781 H 679.451 6.44743 0.312433 0
M  V30 6782 H 680.219 8.13591 -0.895113 0
M  V30 6783 N 682.882 -0.391992 1.52647 0
M  V30 6784 C 683.812 -1.48517 1.8018 0
M  V30 6785 C 684.793 -1.57039 0.653667 0
M  V30 6786 O 685.978 -1.72036 0.900962 0
M  V30 6787 C 683.108 -2.86161 1.96797 0
M  V30 6788 C 682.062 -2.92481 3.12472 0
M  V30 6789 C 681.388 -4.32546 3.14338 0
M  V30 6790 C 682.688 -2.624 4.51601 0
M  V30 6791 H 684.382 -1.25726 2.71723 0
M  V30 6792 H 681.928 -0.603387 1.30749 0
M  V30 6793 H 683.881 -3.62639 2.14641 0
M  V30 6794 H 682.605 -3.10283 1.01941 0
M  V30 6795 H 681.264 -2.18451 2.94406 0
M  V30 6796 H 680.912 -4.53703 2.1717 0
M  V30 6797 H 680.612 -4.37695 3.92042 0
M  V30 6798 H 682.136 -5.10934 3.34333 0
M  V30 6799 H 683.55 -3.28596 4.69785 0
M  V30 6800 H 681.947 -2.78903 5.3135 0
M  V30 6801 H 683.017 -1.57754 4.58521 0
M  V30 6802 N 684.36 -1.4356 -0.65026 0
M  V30 6803 C 685.637 -1.35811 -1.40765 0
M  V30 6804 C 686.017 -0.00736379 -2.11099 0
M  V30 6805 O 685.365 1.00932 -2.05 0
M  V30 6806 C 685.575 -2.54332 -2.3899 0
M  V30 6807 C 686.923 -2.97551 -3.02901 0
M  V30 6808 O 687.947 -2.544 -2.49317 0
M  V30 6809 O 686.806 -3.72311 -4.00059 0
M  V30 6810 H 683.9 -0.536861 -0.629054 0
M  V30 6811 H 686.446 -1.55615 -0.676919 0
M  V30 6812 H 685.218 -3.44274 -1.85986 0
M  V30 6813 H 684.841 -2.36643 -3.19509 0
M  V30 6814 N 685.838 0.888903 -1.30139 0
M  V30 6815 C 687.068 1.67115 -1.21474 0
M  V30 6816 C 687.476 1.87852 0.225472 0
M  V30 6817 O 686.819 1.42324 1.16145 0
M  V30 6818 C 686.881 3.0713 -1.86846 0
M  V30 6819 C 686.545 3.09582 -3.36167 0
M  V30 6820 C 687.542 2.88929 -4.32222 0
M  V30 6821 C 685.227 3.31304 -3.77549 0
M  V30 6822 C 687.221 2.89949 -5.67634 0
M  V30 6823 C 684.908 3.31954 -5.13079 0
M  V30 6824 C 685.906 3.113 -6.07932 0
M  V30 6825 O 685.594 3.11758 -7.40987 0
M  V30 6826 H 685.326 0.528372 -0.421662 0
M  V30 6827 H 687.88 1.11919 -1.7223 0
M  V30 6828 H 686.11 3.63973 -1.30615 0
M  V30 6829 H 687.799 3.6749 -1.72354 0
M  V30 6830 H 688.565 2.71948 -4.01584 0
M  V30 6831 H 684.444 3.46417 -3.04165 0
M  V30 6832 H 687.988 2.73746 -6.41645 0
M  V30 6833 H 683.885 3.48469 -5.43359 0
M  V30 6834 H 684.653 3.27951 -7.49927 0
M  V30 6835 N 687.317 1.12792 1.10072 0
M  V30 6836 C 688.594 0.796867 1.78632 0
M  V30 6837 C 688.974 -0.712739 1.98704 0
M  V30 6838 O 688.322 -1.64773 1.5831 0
M  V30 6839 C 688.532 1.57622 3.11378 0
M  V30 6840 C 689.88 1.76463 3.86194 0
M  V30 6841 O 690.904 1.54165 3.2111 0
M  V30 6842 O 689.763 2.13623 5.03018 0
M  V30 6843 H 686.857 0.290248 0.774394 0
M  V30 6844 H 689.403 1.23215 1.16688 0
M  V30 6845 H 688.175 2.60246 2.92212 0
M  V30 6846 H 687.798 1.13543 3.81043 0
M  V30 6847 N 688.795 -1.27931 0.920396 0
M  V30 6848 C 690.072 -1.89728 0.475687 0
M  V30 6849 C 690.452 -1.8337 -1.04588 0
M  V30 6850 O 689.8 -1.27404 -1.89685 0
M  V30 6851 C 690.01 -3.33959 1.01354 0
M  V30 6852 C 691.358 -4.10907 1.06963 0
M  V30 6853 O 692.382 -3.42945 0.962646 0
M  V30 6854 O 691.241 -5.32399 1.23343 0
M  V30 6855 H 688.335 -0.81294 0.151845 0
M  V30 6856 H 690.881 -1.36252 1.01161 0
M  V30 6857 H 689.653 -3.32843 2.05746 0
M  V30 6858 H 689.276 -3.94944 0.458829 0
M  V30 6859 N 690.273 -0.685099 -1.4193 0
M  V30 6860 C 691.203 -0.0273506 -2.33484 0
M  V30 6861 C 692.184 0.778366 -1.51246 0
M  V30 6862 O 693.369 0.733449 -1.79817 0
M  V30 6863 C 690.499 0.917272 -3.34968 0
M  V30 6864 C 689.453 0.21941 -4.27437 0
M  V30 6865 C 688.779 1.27768 -5.1921 0
M  V30 6866 C 690.079 -0.907894 -5.14349 0
M  V30 6867 H 691.773 -0.791994 -2.88735 0
M  V30 6868 H 689.319 -0.382308 -1.38832 0
M  V30 6869 H 691.272 1.38657 -3.97935 0
M  V30 6870 H 689.996 1.71346 -2.78043 0
M  V30 6871 H 688.655 -0.229757 -3.65879 0
M  V30 6872 H 688.303 2.06612 -4.58607 0
M  V30 6873 H 688.003 0.815803 -5.81909 0
M  V30 6874 H 689.527 1.7477 -5.85054 0
M  V30 6875 H 690.941 -0.519348 -5.70943 0
M  V30 6876 H 689.338 -1.2962 -5.85934 0
M  V30 6877 H 690.408 -1.75218 -4.52136 0
M  V30 6878 N 691.751 1.51645 -0.429126 0
M  V30 6879 C 692.698 2.27542 0.386446 0
M  V30 6880 C 693.668 1.30786 1.02393 0
M  V30 6881 O 694.853 1.59678 1.0444 0
M  V30 6882 C 691.993 3.11457 1.48623 0
M  V30 6883 C 691.106 4.23196 0.867691 0
M  V30 6884 C 690.241 4.94435 1.94183 0
M  V30 6885 C 689.28 5.98108 1.30129 0
M  V30 6886 N 688.417 6.62786 2.31644 0
M  V30 6887 H 693.257 2.968 -0.267155 0
M  V30 6888 H 690.794 1.46397 -0.143591 0
M  V30 6889 H 692.752 3.58429 2.13506 0
M  V30 6890 H 691.382 2.44329 2.10957 0
M  V30 6891 H 690.434 3.80248 0.107373 0
M  V30 6892 H 691.746 4.97499 0.35997 0
M  V30 6893 H 690.9 5.44914 2.66747 0
M  V30 6894 H 689.639 4.19744 2.48326 0
M  V30 6895 H 688.644 5.4693 0.561082 0
M  V30 6896 H 689.869 6.74751 0.767303 0
M  V30 6897 H 687.815 5.90913 2.84883 0
M  V30 6898 H 687.732 7.32828 1.85741 0
M  V30 6899 H 689 7.17897 3.03717 0
M  V30 6900 N 693.229 0.160201 1.56784 0
M  V30 6901 C 694.645 -0.196089 1.58391 0
M  V30 6902 C 694.845 -1.63689 1.17508 0
M  V30 6903 O 693.901 -2.36613 0.881506 0
M  V30 6904 C 695.214 0.0746449 3.00607 0
M  V30 6905 C 696.762 0.0119762 3.12998 0
M  V30 6906 C 697.237 0.255551 4.57286 0
M  V30 6907 N 698.728 0.202938 4.62755 0
M  V30 6908 C 699.463 0.365731 5.72232 0
M  V30 6909 N 698.959 0.586972 6.90309 0
M  V30 6910 N 700.752 0.302411 5.61286 0
M  V30 6911 H 692.903 1.1008 1.81648 0
M  V30 6912 H 695.166 0.436779 0.841384 0
M  V30 6913 H 694.872 1.07231 3.34954 0
M  V30 6914 H 694.746 -0.638802 3.71751 0
M  V30 6915 H 697.133 -0.976254 2.78484 0
M  V30 6916 H 697.214 0.75796 2.44313 0
M  V30 6917 H 696.858 1.24094 4.92507 0
M  V30 6918 H 696.788 -0.510912 5.24116 0
M  V30 6919 H 699.279 0.0371328 3.77882 0
M  V30 6920 H 699.592 0.700941 7.69615 0
M  V30 6921 H 697.937 0.623453 6.92198 0
M  V30 6922 H 701.128 0.130238 4.67919 0
M  V30 6923 H 701.301 0.432712 6.46554 0
M  V30 6924 N 694.707 -1.5719 -0.113559 0
M  V30 6925 C 695.654 -2.00736 -1.13901 0
M  V30 6926 C 696.624 -0.88044 -1.40846 0
M  V30 6927 O 697.809 -1.14507 -1.5262 0
M  V30 6928 C 694.949 -2.42132 -2.45899 0
M  V30 6929 C 694.062 -3.68264 -2.25844 0
M  V30 6930 C 693.197 -3.98617 -3.5111 0
M  V30 6931 C 692.236 -5.17915 -3.26236 0
M  V30 6932 N 691.373 -5.44111 -4.4372 0
M  V30 6933 H 696.213 -2.88128 -0.760677 0
M  V30 6934 H 693.75 -1.42523 -0.364099 0
M  V30 6935 H 695.708 -2.6417 -3.22908 0
M  V30 6936 H 694.338 -1.57775 -2.81615 0
M  V30 6937 H 693.39 -3.53809 -1.39726 0
M  V30 6938 H 694.702 -4.55425 -2.03444 0
M  V30 6939 H 693.856 -4.21333 -4.36536 0
M  V30 6940 H 692.595 -3.09942 -3.76546 0
M  V30 6941 H 691.6 -4.95038 -2.39202 0
M  V30 6942 H 692.825 -6.08172 -3.02165 0
M  V30 6943 H 690.771 -4.58394 -4.69266 0
M  V30 6944 H 690.688 -6.25606 -4.24444 0
M  V30 6945 H 691.956 -5.71351 -5.30263 0
M  V30 6946 N 696.185 0.383891 -1.52853 0
M  V30 6947 C 697.432 1.12842 -1.68146 0
M  V30 6948 C 697.76 1.89823 -0.423954 0
M  V30 6949 O 697.015 1.86475 0.593765 0
M  V30 6950 C 697.314 2.12881 -2.87082 0
M  V30 6951 C 696.98 1.52519 -4.24322 0
M  V30 6952 C 695.642 1.35783 -4.61645 0
M  V30 6953 C 697.994 1.0868 -5.09743 0
M  V30 6954 C 695.322 0.737643 -5.82044 0
M  V30 6955 C 697.674 0.480699 -6.30771 0
M  V30 6956 C 696.338 0.300681 -6.66822 0
M  V30 6957 H 695.608 0.412917 -0.615289 0
M  V30 6958 H 698.255 0.412416 -1.87006 0
M  V30 6959 H 696.56 2.90719 -2.62659 0
M  V30 6960 H 698.257 2.70408 -2.96109 0
M  V30 6961 H 694.847 1.66534 -3.94923 0
M  V30 6962 H 699.031 1.2041 -4.81472 0
M  V30 6963 H 694.287 0.586415 -6.08581 0
M  V30 6964 H 698.461 0.132733 -6.96273 0
M  V30 6965 H 696.088 -0.181966 -7.59982 0
M  V30 6966 N 697.663 1.43903 0.642637 0
M  V30 6967 C 698.626 1.49538 1.73698 0
M  V30 6968 C 699.626 0.378776 1.56275 0
M  V30 6969 O 700.816 0.64095 1.6198 0
M  V30 6970 C 697.948 1.35821 3.12675 0
M  V30 6971 H 699.141 2.47008 1.70079 0
M  V30 6972 H 696.694 1.30824 0.85526 0
M  V30 6973 H 697.429 0.393994 3.21898 0
M  V30 6974 H 697.214 2.16776 3.26727 0
M  V30 6975 H 698.704 1.4272 3.92455 0
M  V30 6976 N 699.141 -0.881989 1.30609 0
M  V30 6977 C 700.071 -2.00413 1.1982 0
M  V30 6978 C 701.052 -1.69871 0.0881538 0
M  V30 6979 O 702.237 -1.92304 0.2707 0
M  V30 6980 C 699.367 -3.35641 0.89233 0
M  V30 6981 C 698.321 -3.80451 1.96064 0
M  V30 6982 C 697.647 -5.13003 1.5077 0
M  V30 6983 C 698.947 -3.98855 3.37213 0
M  V30 6984 H 700.641 -2.09698 2.13699 0
M  V30 6985 H 698.187 -1.00754 1.02882 0
M  V30 6986 H 700.14 -4.13669 0.803497 0
M  V30 6987 H 698.864 -3.26497 -0.0821381 0
M  V30 6988 H 697.523 -3.04654 2.03916 0
M  V30 6989 H 697.171 -5.0029 0.521417 0
M  V30 6990 H 696.871 -5.43956 2.22229 0
M  V30 6991 H 698.395 -5.93554 1.43271 0
M  V30 6992 H 699.809 -4.67312 3.32103 0
M  V30 6993 H 698.206 -4.41188 4.06784 0
M  V30 6994 H 699.276 -3.02614 3.78883 0
M  V30 6995 N 700.619 -1.13374 -1.09472 0
M  V30 6996 C 701.867 -0.893422 -1.8128 0
M  V30 6997 C 702.188 0.582029 -1.86111 0
M  V30 6998 O 701.458 1.42305 -1.34633 0
M  V30 6999 H 700.038 -0.327543 -0.67136 0
M  V30 7000 H 702.7 -1.43018 -1.32408 0
M  V30 7001 H 701.796 -1.28374 -2.84476 0
M  V30 7002 N 702.098 1.27442 -0.927168 0
M  V30 7003 C 703.346 1.94007 -0.566203 0
M  V30 7004 C 703.667 1.7323 0.895345 0
M  V30 7005 O 702.937 1.07973 1.63459 0
M  V30 7006 H 701.517 0.717917 -0.206409 0
M  V30 7007 H 704.179 1.55161 -1.17945 0
M  V30 7008 H 703.275 3.02401 -0.772028 0
M  V30 7009 N 703.576 0.692616 1.41565 0
M  V30 7010 C 704.824 0.221896 2.00878 0
M  V30 7011 C 705.145 -1.18164 1.5512 0
M  V30 7012 O 704.415 -1.79679 0.78054 0
M  V30 7013 H 702.995 0.0790463 0.742806 0
M  V30 7014 H 705.657 0.893115 1.73232 0
M  V30 7015 H 704.753 0.23702 3.11199 0
M  V30 7016 N 705.054 -1.51416 0.437162 0
M  V30 7017 C 705.964 -2.31493 -0.380537 0
M  V30 7018 C 706.98 -1.40399 -1.02782 0
M  V30 7019 O 708.156 -1.73471 -1.02323 0
M  V30 7020 C 705.221 -3.1413 -1.46709 0
M  V30 7021 C 704.282 -4.21003 -0.839953 0
M  V30 7022 C 703.515 -4.9969 -1.87473 0
M  V30 7023 O 703.738 -4.79008 -3.09689 0
M  V30 7024 O 702.672 -5.8379 -1.46536 0
M  V30 7025 H 706.498 -3.02469 0.273183 0
M  V30 7026 H 704.083 -1.48059 0.199706 0
M  V30 7027 H 705.965 -3.65505 -2.09724 0
M  V30 7028 H 704.64 -2.45919 -2.10489 0
M  V30 7029 H 703.547 -3.73706 -0.171752 0
M  V30 7030 H 704.88 -4.91587 -0.245638 0
M  V30 7031 N 706.532 -0.168513 -1.56696 0
M  V30 7032 C 707.948 0.187686 -1.58493 0
M  V30 7033 C 708.148 1.63063 -1.18375 0
M  V30 7034 O 707.204 2.36142 -0.894042 0
M  V30 7035 C 708.517 -0.0905858 -3.00564 0
M  V30 7036 C 710.065 -0.028575 -3.12987 0
M  V30 7037 C 710.54 -0.279799 -4.57145 0
M  V30 7038 N 712.031 -0.227476 -4.62641 0
M  V30 7039 C 712.766 -0.396073 -5.7203 0
M  V30 7040 N 712.262 -0.623572 -6.89988 0
M  V30 7041 N 714.055 -0.332173 -5.61118 0
M  V30 7042 H 706.206 -1.11042 -1.81062 0
M  V30 7043 H 708.469 -0.441235 -0.839056 0
M  V30 7044 H 708.175 -1.09006 -3.34381 0
M  V30 7045 H 708.049 0.619078 -3.72085 0
M  V30 7046 H 710.436 0.961471 -2.78998 0
M  V30 7047 H 710.517 -0.770905 -2.43907 0
M  V30 7048 H 710.161 -1.26704 -4.91842 0
M  V30 7049 H 710.091 0.48311 -5.24379 0
M  V30 7050 H 712.582 -0.0571723 -3.77857 0
M  V30 7051 H 712.895 -0.741745 -7.69232 0
M  V30 7052 H 711.24 -0.660153 -6.91858 0
M  V30 7053 H 714.431 -0.155051 -4.67843 0
M  V30 7054 H 714.604 -0.466994 -6.46315 0
M  V30 7055 N 708.01 1.57248 0.105221 0
M  V30 7056 C 709.235 1.90143 0.828264 0
M  V30 7057 C 709.66 0.761811 1.71983 0
M  V30 7058 O 709.018 -0.287086 1.79013 0
M  V30 7059 C 709.066 3.21856 1.62608 0
M  V30 7060 O 708.17 3.08732 2.7342 0
M  V30 7061 H 707.511 0.623558 0.228192 0
M  V30 7062 H 710.041 2.0443 0.0834826 0
M  V30 7063 H 710.051 3.54916 2.01243 0
M  V30 7064 H 708.726 4.0439 0.971687 0
M  V30 7065 H 707.303 2.87167 2.37886 0
M  V30 7066 N 709.488 -0.375779 1.53054 0
M  V30 7067 C 710.398 -1.48381 1.81715 0
M  V30 7068 C 711.414 -1.59087 0.704795 0
M  V30 7069 O 712.59 -1.75174 0.993785 0
M  V30 7070 C 709.655 -2.83767 1.99192 0
M  V30 7071 C 708.716 -2.82673 3.23102 0
M  V30 7072 C 707.949 -4.11601 3.39736 0
M  V30 7073 O 708.172 -5.07243 2.60885 0
M  V30 7074 O 707.106 -4.18034 4.33049 0
M  V30 7075 H 710.932 -1.27089 2.7583 0
M  V30 7076 H 708.517 -0.564902 1.38308 0
M  V30 7077 H 710.399 -3.64004 2.12318 0
M  V30 7078 H 709.074 -3.05057 1.08267 0
M  V30 7079 H 707.981 -2.0117 3.15407 0
M  V30 7080 H 709.314 -2.66335 4.13916 0
M  V30 7081 N 710.966 -1.44241 -0.634997 0
M  V30 7082 C 711.913 -1.5081 -1.74714 0
M  V30 7083 C 712.883 -0.356147 -1.62237 0
M  V30 7084 O 714.068 -0.565848 -1.82216 0
M  V30 7085 C 711.208 -1.45458 -3.12947 0
M  V30 7086 C 710.321 -2.70998 -3.36428 0
M  V30 7087 C 709.456 -2.57507 -4.64611 0
M  V30 7088 C 708.495 -3.78229 -4.81258 0
M  V30 7089 N 707.632 -3.63438 -6.00714 0
M  V30 7090 H 712.472 -2.45832 -1.68436 0
M  V30 7091 H 710.009 -1.2201 -0.821706 0
M  V30 7092 H 711.967 -1.40347 -3.92885 0
M  V30 7093 H 710.597 -0.540058 -3.1825 0
M  V30 7094 H 709.649 -2.86312 -2.50458 0
M  V30 7095 H 710.961 -3.60619 -3.44609 0
M  V30 7096 H 710.115 -2.50207 -5.52703 0
M  V30 7097 H 708.854 -1.65441 -4.58782 0
M  V30 7098 H 707.859 -3.85918 -3.91596 0
M  V30 7099 H 709.084 -4.71327 -4.88904 0
M  V30 7100 H 707.03 -2.7412 -5.95982 0
M  V30 7101 H 706.947 -4.46672 -6.09934 0
M  V30 7102 H 708.215 -3.60022 -6.91378 0
M  V30 7103 N 712.444 0.87505 -1.31075 0
M  V30 7104 C 713.692 1.62447 -1.20231 0
M  V30 7105 C 714.013 1.93506 0.240888 0
M  V30 7106 O 713.283 1.57847 1.16022 0
M  V30 7107 H 711.863 0.602207 -0.441991 0
M  V30 7108 H 714.525 1.04788 -1.64334 0
M  V30 7109 H 713.621 2.57031 -1.77036 0
M  V30 7110 N 713.922 1.13953 1.08869 0
M  V30 7111 C 715.199 0.815768 1.77777 0
M  V30 7112 C 715.579 -0.691624 1.99449 0
M  V30 7113 O 714.927 -1.63085 1.60049 0
M  V30 7114 C 715.137 1.60916 3.09689 0
M  V30 7115 C 716.485 1.80549 3.84301 0
M  V30 7116 O 717.509 1.57562 3.19457 0
M  V30 7117 O 716.368 2.18946 5.00724 0
M  V30 7118 H 713.462 0.298445 0.771271 0
M  V30 7119 H 716.008 1.24446 1.15374 0
M  V30 7120 H 714.78 2.6333 2.89435 0
M  V30 7121 H 714.403 1.17578 3.79817 0
M  V30 7122 N 715.4 -1.26948 0.933913 0
M  V30 7123 C 716.628 -1.98186 0.59414 0
M  V30 7124 C 717.043 -1.69614 -0.829257 0
M  V30 7125 O 716.4 -0.960213 -1.55197 0
M  V30 7126 C 716.451 -3.52123 0.818026 0
M  V30 7127 O 716.172 -3.79698 2.18543 0
M  V30 7128 C 717.673 -4.40608 0.48781 0
M  V30 7129 H 714.893 -0.632305 0.224569 0
M  V30 7130 H 717.437 -1.61646 1.25263 0
M  V30 7131 H 715.592 -3.86851 0.206246 0
M  V30 7132 H 716.006 -4.7426 2.24005 0
M  V30 7133 H 717.48 -5.47606 0.695126 0
M  V30 7134 H 717.957 -4.35394 -0.576913 0
M  V30 7135 H 718.563 -4.11411 1.078 0
M  V30 7136 N 716.879 -0.700114 -1.41195 0
M  V30 7137 C 717.827 -0.0263301 -2.32585 0
M  V30 7138 C 718.821 0.763683 -1.51209 0
M  V30 7139 O 720.027 0.668793 -1.67114 0
M  V30 7140 H 716.402 0.0102869 -0.75193 0
M  V30 7141 H 718.373 -0.814087 -2.8708 0
M  V30 7142 C 717.122 0.892793 -3.36042 0
M  V30 7143 H 716.445 0.294306 -3.98715 0
M  V30 7144 H 717.885 1.33247 -4.02518 0
M  V30 7145 C 716.344 2.01109 -2.7029 0
M  V30 7146 O 716.874 3.10035 -2.55423 0
M  V30 7147 N 715.08 1.79015 -2.28915 0
M  V30 7148 H 714.627 0.904275 -2.41207 0
M  V30 7149 H 714.585 2.54022 -1.85257 0
M  V30 7150 N 718.357 1.51182 -0.445186 0
M  V30 7151 C 719.605 2.01753 0.11841 0
M  V30 7152 C 719.926 1.33087 1.42523 0
M  V30 7153 O 719.196 0.467891 1.9023 0
M  V30 7154 H 717.776 0.745536 0.0467492 0
M  V30 7155 H 720.438 1.85765 -0.589688 0
M  V30 7156 H 719.534 3.10762 0.288665 0
M  V30 7157 N 719.835 0.176821 1.56605 0
M  V30 7158 C 720.785 -0.763718 2.14829 0
M  V30 7159 C 721.769 -1.18903 1.08401 0
M  V30 7160 O 722.961 -1.15048 1.3451 0
M  V30 7161 C 720.09 -1.99069 2.7969 0
M  V30 7162 C 719.176 -1.58711 3.93283 0
M  V30 7163 N 719.567 -0.893423 4.97847 0
M  V30 7164 C 717.865 -1.87774 4.04545 0
M  V30 7165 C 718.566 -0.693866 5.77547 0
M  V30 7166 N 717.542 -1.23699 5.29339 0
M  V30 7167 H 721.344 -0.224811 2.93039 0
M  V30 7168 H 718.858 -0.0236563 1.62383 0
M  V30 7169 H 720.855 -2.67478 3.19783 0
M  V30 7170 H 719.515 -2.53449 2.02962 0
M  V30 7171 H 720.526 -0.550868 5.14962 0
M  V30 7172 H 717.203 -2.43793 3.38927 0
M  V30 7173 H 718.593 -0.144899 6.71744 0
M  V30 7174 N 721.313 -1.57302 -0.09688 0
M  V30 7175 C 722.243 -2.0497 -1.11846 0
M  V30 7176 C 723.224 -0.938278 -1.41882 0
M  V30 7177 O 724.409 -1.20943 -1.51942 0
M  V30 7178 C 721.539 -2.47264 -2.43881 0
M  V30 7179 C 720.493 -3.62053 -2.28257 0
M  V30 7180 C 719.819 -3.90318 -3.65453 0
M  V30 7181 C 721.119 -4.93005 -1.72461 0
M  V30 7182 H 722.813 -2.90567 -0.721888 0
M  V30 7183 H 720.359 -1.39786 -0.345803 0
M  V30 7184 H 722.312 -2.7922 -3.15617 0
M  V30 7185 H 721.036 -1.58664 -2.8547 0
M  V30 7186 H 719.695 -3.30341 -1.58967 0
M  V30 7187 H 719.343 -2.98889 -4.04567 0
M  V30 7188 H 719.043 -4.67597 -3.55846 0
M  V30 7189 H 720.567 -4.24747 -4.3866 0
M  V30 7190 H 721.981 -5.23354 -2.34036 0
M  V30 7191 H 720.378 -5.74436 -1.73618 0
M  V30 7192 H 721.448 -4.80053 -0.683898 0
M  V30 7193 N 722.791 0.367657 -1.53252 0
M  V30 7194 C 724.037 1.10864 -1.70531 0
M  V30 7195 C 724.392 1.87051 -0.4505 0
M  V30 7196 O 723.685 1.83342 0.556431 0
M  V30 7197 C 723.879 2.09825 -2.89324 0
M  V30 7198 C 723.708 1.43361 -4.26237 0
M  V30 7199 C 722.478 1.18861 -4.91121 0
M  V30 7200 C 724.676 0.872409 -5.06847 0
M  V30 7201 N 722.658 0.487258 -6.11963 0
M  V30 7202 C 724.029 0.300301 -6.19272 0
M  V30 7203 C 726.084 0.770895 -4.91896 0
M  V30 7204 C 724.787 -0.363419 -7.18381 0
M  V30 7205 C 726.813 0.12096 -5.91276 0
M  V30 7206 C 726.175 -0.440283 -7.03023 0
M  V30 7207 H 722.274 0.390902 -0.677288 0
M  V30 7208 H 724.858 0.395305 -1.90645 0
M  V30 7209 H 723.029 2.78473 -2.70753 0
M  V30 7210 H 724.761 2.76585 -2.95436 0
M  V30 7211 H 721.516 1.46934 -4.5023 0
M  V30 7212 H 721.94 0.152005 -6.76829 0
M  V30 7213 H 726.582 1.19058 -4.05691 0
M  V30 7214 H 724.3 -0.795057 -8.04179 0
M  V30 7215 H 727.886 0.0433702 -5.81784 0
M  V30 7216 H 726.766 -0.935244 -7.78603 0
M  V30 7217 N 724.269 1.44576 0.627338 0
M  V30 7218 C 725.232 1.51372 1.72102 0
M  V30 7219 C 726.232 0.395329 1.55865 0
M  V30 7220 O 727.422 0.658094 1.61291 0
M  V30 7221 C 724.554 1.39129 3.11217 0
M  V30 7222 H 725.747 2.48798 1.6745 0
M  V30 7223 H 723.3 1.31724 0.841336 0
M  V30 7224 H 724.035 0.428114 3.21462 0
M  V30 7225 H 723.82 2.20229 3.24409 0
M  V30 7226 H 725.31 1.46874 3.90919 0
M  V30 7227 N 725.747 -0.868086 1.31537 0
M  V30 7228 C 726.994 -1.62127 1.2133 0
M  V30 7229 C 727.322 -1.93158 -0.2281 0
M  V30 7230 O 726.577 -1.5632 -1.1774 0
M  V30 7231 C 726.876 -2.95889 2.0046 0
M  V30 7232 C 726.542 -2.84343 3.49943 0
M  V30 7233 C 725.204 -2.80901 3.90702 0
M  V30 7234 C 727.556 -2.71243 4.45058 0
M  V30 7235 C 724.884 -2.6222 5.24841 0
M  V30 7236 C 727.236 -2.54098 5.79325 0
M  V30 7237 C 725.9 -2.4904 6.19302 0
M  V30 7238 H 725.17 -0.593265 0.443979 0
M  V30 7239 H 727.817 -1.00803 1.62822 0
M  V30 7240 H 726.122 -3.61259 1.51655 0
M  V30 7241 H 727.819 -3.53161 1.89942 0
M  V30 7242 H 724.409 -2.8784 3.17563 0
M  V30 7243 H 728.593 -2.72956 4.14498 0
M  V30 7244 H 723.849 -2.56731 5.54887 0
M  V30 7245 H 728.023 -2.42938 6.52652 0
M  V30 7246 H 725.65 -2.34324 7.23185 0
M  V30 7247 N 727.225 -1.14528 -1.08264 0
M  V30 7248 C 728.45 -0.938381 -1.84957 0
M  V30 7249 C 728.875 0.508044 -1.81109 0
M  V30 7250 O 728.233 1.36146 -1.19724 0
M  V30 7251 C 728.281 -1.44568 -3.30352 0
M  V30 7252 O 727.385 -0.638745 -4.07423 0
M  V30 7253 H 726.726 -0.335394 -0.573068 0
M  V30 7254 H 729.256 -1.52287 -1.36637 0
M  V30 7255 H 729.266 -1.45449 -3.81194 0
M  V30 7256 H 727.941 -2.49876 -3.32468 0
M  V30 7257 H 726.518 -0.698801 -3.66294 0
M  V30 7258 N 728.703 1.26451 -0.940633 0
M  V30 7259 C 729.666 2.24651 -0.454378 0
M  V30 7260 C 730.666 1.54826 0.434222 0
M  V30 7261 O 731.856 1.72628 0.233477 0
M  V30 7262 C 728.988 3.39148 0.345192 0
M  V30 7263 H 730.181 2.69182 -1.32217 0
M  V30 7264 H 727.734 1.38596 -0.722547 0
M  V30 7265 H 728.469 3.00018 1.23125 0
M  V30 7266 H 728.254 3.9101 -0.292107 0
M  V30 7267 H 729.744 4.12103 0.675341 0
M  V30 7268 N 730.181 0.707592 1.40822 0
M  V30 7269 C 731.597 0.38034 1.55002 0
M  V30 7270 C 731.797 -1.11163 1.68062 0
M  V30 7271 O 730.853 -1.89761 1.66574 0
M  V30 7272 C 732.166 1.1394 2.78277 0
M  V30 7273 C 733.714 1.12492 2.92087 0
M  V30 7274 C 734.189 1.86597 4.18265 0
M  V30 7275 N 735.68 1.83626 4.25248 0
M  V30 7276 C 736.415 2.37794 5.21768 0
M  V30 7277 N 735.911 3.00485 6.24244 0
M  V30 7278 N 737.704 2.27982 5.13791 0
M  V30 7279 H 729.855 1.67511 1.3059 0
M  V30 7280 H 732.118 0.707579 0.630901 0
M  V30 7281 H 731.824 2.19398 2.74877 0
M  V30 7282 H 731.698 0.725793 3.70151 0
M  V30 7283 H 734.085 0.0785564 2.94995 0
M  V30 7284 H 734.166 1.57768 2.01353 0
M  V30 7285 H 733.81 2.91219 4.16118 0
M  V30 7286 H 733.74 1.38746 5.07993 0
M  V30 7287 H 736.231 1.3793 3.51829 0
M  V30 7288 H 736.544 3.39355 6.94304 0
M  V30 7289 H 734.889 3.04567 6.24711 0
M  V30 7290 H 738.08 1.78669 4.3266 0
M  V30 7291 H 738.253 2.70499 5.88841 0
M  V30 7292 N 731.66 -1.50943 0.453197 0
M  V30 7293 C 732.59 -2.31005 -0.34044 0
M  V30 7294 C 733.571 -1.37112 -1.00669 0
M  V30 7295 O 734.756 -1.66033 -1.0073 0
M  V30 7296 C 731.886 -3.16358 -1.433 0
M  V30 7297 C 730.84 -4.18658 -0.889363 0
M  V30 7298 C 730.166 -4.92633 -2.07887 0
M  V30 7299 C 731.466 -5.22227 0.0871142 0
M  V30 7300 H 733.16 -2.97601 0.327723 0
M  V30 7301 H 730.706 -1.43119 0.159054 0
M  V30 7302 H 732.659 -3.71155 -1.99555 0
M  V30 7303 H 731.383 -2.47613 -2.12968 0
M  V30 7304 H 730.042 -3.64936 -0.348915 0
M  V30 7305 H 729.69 -4.20376 -2.76211 0
M  V30 7306 H 729.39 -5.61819 -1.72143 0
M  V30 7307 H 730.914 -5.50258 -2.64666 0
M  V30 7308 H 732.328 -5.72001 -0.385656 0
M  V30 7309 H 730.725 -5.99032 0.357926 0
M  V30 7310 H 731.795 -4.74077 1.01879 0
M  V30 7311 N 733.138 -0.185124 -1.56509 0
M  V30 7312 C 734.386 0.455357 -1.96903 0
M  V30 7313 C 734.707 1.62839 -1.07277 0
M  V30 7314 O 733.977 1.95385 -0.141966 0
M  V30 7315 H 732.557 0.171218 -0.727113 0
M  V30 7316 H 735.219 -0.26953 -1.93027 0
M  V30 7317 H 734.315 0.80616 -3.01509 0
M  V30 7318 N 734.616 1.57351 0.0885366 0
M  V30 7319 C 735.846 1.90355 0.80303 0
M  V30 7320 C 736.254 0.777678 1.72478 0
M  V30 7321 O 735.597 -0.258908 1.81866 0
M  V30 7322 C 735.659 3.18674 1.66395 0
M  V30 7323 C 735.323 4.4778 0.913327 0
M  V30 7324 C 736.32 5.19345 0.240148 0
M  V30 7325 C 734.005 4.94434 0.885462 0
M  V30 7326 C 735.999 6.35803 -0.450854 0
M  V30 7327 C 733.686 6.10802 0.190679 0
M  V30 7328 C 734.684 6.81337 -0.476295 0
M  V30 7329 O 734.372 7.95488 -1.15992 0
M  V30 7330 H 734.104 0.634035 0.234469 0
M  V30 7331 H 736.658 2.05287 0.0681959 0
M  V30 7332 H 734.888 2.99906 2.44117 0
M  V30 7333 H 736.577 3.37458 2.2556 0
M  V30 7334 H 737.343 4.84339 0.253092 0
M  V30 7335 H 733.222 4.39417 1.39406 0
M  V30 7336 H 736.766 6.90795 -0.972019 0
M  V30 7337 H 732.663 6.45261 0.175603 0
M  V30 7338 H 733.431 8.11509 -1.06749 0
M  V30 7339 N 736.094 -0.359525 1.53444 0
M  V30 7340 C 737.371 -1.11756 1.6053 0
M  V30 7341 C 737.751 -2.06949 0.416587 0
M  V30 7342 O 737.099 -2.20681 -0.592628 0
M  V30 7343 C 737.309 -1.85133 2.95849 0
M  V30 7344 C 738.657 -2.3945 3.50641 0
M  V30 7345 O 739.681 -1.95251 2.97918 0
M  V30 7346 O 738.54 -3.20266 4.42823 0
M  V30 7347 H 735.634 -0.513005 0.648656 0
M  V30 7348 H 738.18 -0.362301 1.65787 0
M  V30 7349 H 736.952 -1.15694 3.73806 0
M  V30 7350 H 736.575 -2.67554 2.9411 0
M  V30 7351 N 737.572 -1.44907 -0.619662 0
M  V30 7352 C 738.821 -1.47569 -1.37501 0
M  V30 7353 C 739.134 -0.116707 -1.95252 0
M  V30 7354 O 740.34 -0.020909 -2.71492 0
M  V30 7355 C 738.796 -2.59851 -2.49009 0
M  V30 7356 C 738.404 -4.02008 -1.97722 0
M  V30 7357 C 740.148 -2.71746 -3.2612 0
M  V30 7358 C 738.055 -5.05693 -3.0664 0
M  V30 7359 H 736.985 -0.549068 -0.51676 0
M  V30 7360 H 739.636 -1.71009 -0.665437 0
M  V30 7361 H 738.018 -2.29671 -3.22594 0
M  V30 7362 H 739.192 -4.41809 -1.30925 0
M  V30 7363 H 737.507 -3.94456 -1.33392 0
M  V30 7364 H 740.104 -3.46382 -4.07337 0
M  V30 7365 H 740.447 -1.77959 -3.76346 0
M  V30 7366 H 740.98 -3.01392 -2.5963 0
M  V30 7367 H 737.719 -6.01148 -2.61345 0
M  V30 7368 H 737.239 -4.70473 -3.72042 0
M  V30 7369 H 738.918 -5.29906 -3.71226 0
M  V30 7370 N 739.05 0.861098 -1.31996 0
M  V30 7371 C 740.013 1.95068 -1.20338 0
M  V30 7372 C 741.013 1.60289 -0.128114 0
M  V30 7373 O 742.203 1.70048 -0.378044 0
M  V30 7374 C 739.335 3.30153 -0.849205 0
M  V30 7375 H 740.528 2.06833 -2.17164 0
M  V30 7376 H 738.081 1.05049 -1.15734 0
M  V30 7377 H 738.816 3.24087 0.117508 0
M  V30 7378 H 738.601 3.56771 -1.62655 0
M  V30 7379 H 740.091 4.10025 -0.791782 0
M  V30 7380 N 740.528 1.15101 1.07655 0
M  V30 7381 C 741.46 0.802722 2.14684 0
M  V30 7382 C 742.473 -0.183874 1.61758 0
M  V30 7383 O 743.662 0.0389349 1.78458 0
M  V30 7384 C 740.762 0.172135 3.38463 0
M  V30 7385 C 739.935 1.19538 4.20749 0
M  V30 7386 C 738.994 0.58714 5.22914 0
M  V30 7387 O 738.02 1.25224 5.55255 0
M  V30 7388 N 739.222 -0.632566 5.77043 0
M  V30 7389 H 741.987 1.72379 2.45164 0
M  V30 7390 H 739.548 1.04647 1.23534 0
M  V30 7391 H 741.54 -0.247465 4.03943 0
M  V30 7392 H 740.11 -0.652214 3.0572 0
M  V30 7393 H 739.33 1.79165 3.51132 0
M  V30 7394 H 740.618 1.88636 4.7254 0
M  V30 7395 H 740.016 -1.19135 5.53013 0
M  V30 7396 H 738.573 -0.994566 6.44167 0
M  V30 7397 N 742.006 -1.2595 0.947325 0
M  V30 7398 C 742.938 -2.25336 0.41906 0
M  V30 7399 C 743.951 -1.56135 -0.461051 0
M  V30 7400 O 745.14 -1.76438 -0.270505 0
M  V30 7401 C 742.24 -3.36334 -0.416233 0
M  V30 7402 C 741.413 -4.35088 0.449162 0
M  V30 7403 C 740.472 -5.25185 -0.326716 0
M  V30 7404 O 739.498 -5.68548 0.272374 0
M  V30 7405 N 740.7 -5.57388 -1.6217 0
M  V30 7406 H 743.465 -2.71298 1.27348 0
M  V30 7407 H 741.026 -1.39781 0.81688 0
M  V30 7408 H 743.018 -3.93564 -0.942826 0
M  V30 7409 H 741.588 -2.89819 -1.17148 0
M  V30 7410 H 740.808 -3.76841 1.15692 0
M  V30 7411 H 742.096 -4.98056 1.04008 0
M  V30 7412 H 741.494 -5.2405 -2.13046 0
M  V30 7413 H 740.051 -6.17234 -2.0944 0
M  V30 7414 N 743.484 -0.715051 -1.40445 0
M  V30 7415 C 744.447 -0.0708726 -2.2909 0
M  V30 7416 C 745.447 0.687926 -1.45342 0
M  V30 7417 O 746.637 0.519908 -1.66261 0
M  V30 7418 C 743.769 0.909528 -3.28543 0
M  V30 7419 H 744.962 -0.851611 -2.87555 0
M  V30 7420 H 742.515 -0.479674 -1.48758 0
M  V30 7421 H 743.25 1.71734 -2.75096 0
M  V30 7422 H 743.035 0.368318 -3.90366 0
M  V30 7423 H 744.525 1.35744 -3.94922 0
M  V30 7424 N 744.962 1.50701 -0.461195 0
M  V30 7425 C 746.239 1.94958 0.158296 0
M  V30 7426 C 746.619 1.40111 1.57899 0
M  V30 7427 O 745.967 0.597976 2.20537 0
M  V30 7428 C 746.177 3.48821 0.11172 0
M  V30 7429 C 747.525 4.23499 0.30552 0
M  V30 7430 O 748.549 3.557 0.188758 0
M  V30 7431 O 747.408 5.43823 0.540244 0
M  V30 7432 H 744.502 0.818674 0.117054 0
M  V30 7433 H 747.048 1.61508 -0.520888 0
M  V30 7434 H 745.82 3.81263 -0.880577 0
M  V30 7435 H 745.443 3.88781 0.832791 0
M  V30 7436 N 746.441 0.193421 1.56409 0
M  V30 7437 C 747.666 -0.454552 2.02358 0
M  V30 7438 C 748.091 -1.54516 1.07268 0
M  V30 7439 O 747.449 -1.81214 0.0558962 0
M  V30 7440 C 747.497 -0.989469 3.46759 0
M  V30 7441 O 746.601 -2.10244 3.54783 0
M  V30 7442 H 745.942 -0.106417 0.655417 0
M  V30 7443 H 748.472 0.303807 2.02332 0
M  V30 7444 H 748.482 -1.30649 3.86516 0
M  V30 7445 H 747.157 -0.191083 4.15461 0
M  V30 7446 H 745.734 -1.79419 3.26899 0
M  V30 7447 N 747.919 -1.57396 -0.0801906 0
M  V30 7448 C 749.33 -1.75642 -0.633002 0
M  V30 7449 C 749.681 -0.817708 -1.78348 0
M  V30 7450 O 748.806 0.000233743 -2.164 0
M  V30 7451 C 749.401 -3.18502 -1.15507 0
M  V30 7452 C 747.96 -3.38121 -1.65381 0
M  V30 7453 C 747.107 -2.71386 -0.569661 0
M  V30 7454 H 750.058 -1.58027 0.145949 0
M  V30 7455 H 750.079 -3.22198 -2.02408 0
M  V30 7456 H 749.591 -3.86799 -0.317515 0
M  V30 7457 H 747.692 -2.74926 -2.51488 0
M  V30 7458 H 747.805 -4.46521 -1.73654 0
M  V30 7459 H 746.169 -2.33702 -1.0127 0
M  V30 7460 H 746.952 -3.42332 0.257561 0
M  V30 7461 N 749.397 0.351382 -1.53633 0
M  V30 7462 C 750.643 1.09049 -1.71697 0
M  V30 7463 C 750.998 1.86563 -0.470314 0
M  V30 7464 O 750.291 1.83922 0.536954 0
M  V30 7465 C 750.485 2.06744 -2.91533 0
M  V30 7466 C 750.314 1.38832 -4.27733 0
M  V30 7467 C 749.084 1.13646 -4.92354 0
M  V30 7468 C 751.282 0.818602 -5.07743 0
M  V30 7469 N 749.264 0.422324 -6.12446 0
M  V30 7470 C 750.635 0.234602 -6.19556 0
M  V30 7471 C 752.69 0.718679 -4.92686 0
M  V30 7472 C 751.393 -0.439592 -7.17955 0
M  V30 7473 C 753.419 0.0582402 -5.91371 0
M  V30 7474 C 752.781 -0.514823 -7.02516 0
M  V30 7475 H 748.88 0.383697 -0.681396 0
M  V30 7476 H 751.464 0.375063 -1.91053 0
M  V30 7477 H 749.635 2.75586 -2.73691 0
M  V30 7478 H 751.367 2.73436 -2.98353 0
M  V30 7479 H 748.122 1.4215 -4.51764 0
M  V30 7480 H 748.546 0.0802092 -6.76952 0
M  V30 7481 H 753.188 1.14748 -4.06931 0
M  V30 7482 H 750.906 -0.880307 -8.03291 0
M  V30 7483 H 754.492 -0.0183382 -5.81797 0
M  V30 7484 H 753.372 -1.01777 -7.77567 0
M  V30 7485 N 750.875 1.45233 0.611969 0
M  V30 7486 C 751.825 1.49997 1.71711 0
M  V30 7487 C 752.809 0.363689 1.56736 0
M  V30 7488 O 754.001 0.610261 1.66147 0
M  V30 7489 C 751.13 1.46537 3.10454 0
M  V30 7490 C 750.216 2.65351 3.30831 0
M  V30 7491 N 750.607 3.90485 3.21489 0
M  V30 7492 C 748.905 2.60955 3.61688 0
M  V30 7493 C 749.606 4.69758 3.43078 0
M  V30 7494 N 748.582 4.01141 3.66861 0
M  V30 7495 H 752.384 2.44574 1.62975 0
M  V30 7496 H 749.898 1.40464 0.815082 0
M  V30 7497 H 751.895 1.48035 3.89732 0
M  V30 7498 H 750.555 0.530139 3.20343 0
M  V30 7499 H 751.566 4.22171 2.99987 0
M  V30 7500 H 748.243 1.76319 3.78441 0
M  V30 7501 H 749.633 5.7877 3.41285 0
M  V30 7502 N 752.353 -0.854086 1.3245 0
M  V30 7503 C 753.283 -1.97827 1.24044 0
M  V30 7504 C 754.264 -1.69646 0.124166 0
M  V30 7505 O 755.449 -1.91687 0.31143 0
M  V30 7506 C 752.579 -3.33673 0.963324 0
M  V30 7507 C 751.533 -3.76207 2.04089 0
M  V30 7508 C 750.859 -5.0969 1.61618 0
M  V30 7509 C 752.159 -3.91612 3.45597 0
M  V30 7510 H 753.853 -2.05118 2.18099 0
M  V30 7511 H 751.399 -0.985489 1.04996 0
M  V30 7512 H 753.352 -4.11871 0.891061 0
M  V30 7513 H 752.076 -3.26597 -0.0128649 0
M  V30 7514 H 750.735 -3.0026 2.10332 0
M  V30 7515 H 750.383 -4.99072 0.627418 0
M  V30 7516 H 750.083 -5.3912 2.33717 0
M  V30 7517 H 751.607 -5.90381 1.55829 0
M  V30 7518 H 753.021 -4.60163 3.4194 0
M  V30 7519 H 751.418 -4.3246 4.16051 0
M  V30 7520 H 752.488 -2.9451 3.85217 0
M  V30 7521 N 753.831 -1.1567 -1.07043 0
M  V30 7522 C 755.056 -0.957946 -1.83952 0
M  V30 7523 C 755.481 0.488807 -1.81638 0
M  V30 7524 O 754.839 1.34869 -1.21162 0
M  V30 7525 C 754.887 -1.48064 -3.288 0
M  V30 7526 O 753.991 -0.681921 -4.06723 0
M  V30 7527 H 753.332 -0.341453 -0.569479 0
M  V30 7528 H 755.862 -1.53728 -1.35015 0
M  V30 7529 H 755.872 -1.49484 -3.7963 0
M  V30 7530 H 754.547 -2.53388 -3.29799 0
M  V30 7531 H 753.124 -0.737612 -3.65532 0
M  V30 7532 N 755.309 1.25446 -0.953992 0
M  V30 7533 C 756.72 1.75047 -0.649255 0
M  V30 7534 C 757.071 1.77527 0.835385 0
M  V30 7535 O 756.196 1.39569 1.65377 0
M  V30 7536 C 756.791 3.17889 -1.17183 0
M  V30 7537 C 755.35 3.65052 -0.917267 0
M  V30 7538 C 754.497 2.44124 -1.31525 0
M  V30 7539 H 757.448 1.11342 -1.13087 0
M  V30 7540 H 757.469 3.76768 -0.531616 0
M  V30 7541 H 756.981 3.16052 -2.25239 0
M  V30 7542 H 755.082 3.72305 0.148354 0
M  V30 7543 H 755.195 4.53222 -1.55328 0
M  V30 7544 H 753.559 2.43906 -0.733624 0
M  V30 7545 H 754.342 2.44979 -2.405 0
M  V30 7546 N 756.787 0.722489 1.40064 0
M  V30 7547 C 758.034 0.264979 2.00759 0
M  V30 7548 C 758.362 -1.14395 1.57302 0
M  V30 7549 O 757.617 -1.79165 0.787298 0
M  V30 7550 C 757.916 0.300682 3.56133 0
M  V30 7551 C 757.582 1.66087 4.19197 0
M  V30 7552 C 756.244 2.03319 4.36136 0
M  V30 7553 C 758.596 2.55452 4.54306 0
M  V30 7554 C 755.924 3.29448 4.8547 0
M  V30 7555 C 758.276 3.8094 5.05042 0
M  V30 7556 C 756.94 4.1828 5.2019 0
M  V30 7557 H 756.21 0.0969625 0.734629 0
M  V30 7558 H 758.857 0.926877 1.67575 0
M  V30 7559 H 757.162 -0.44479 3.89267 0
M  V30 7560 H 758.859 -0.0712542 4.00937 0
M  V30 7561 H 755.449 1.36137 4.06405 0
M  V30 7562 H 759.633 2.27961 4.40849 0
M  V30 7563 H 754.889 3.58338 4.95382 0
M  V30 7564 H 759.063 4.50351 5.31184 0
M  V30 7565 H 756.69 5.16081 5.58179 0
M  V30 7566 N 758.265 -1.50454 0.469181 0
M  V30 7567 C 759.511 -2.02615 -0.0865971 0
M  V30 7568 C 759.844 -1.35062 -1.39542 0
M  V30 7569 O 759.119 -0.475701 -1.88593 0
M  V30 7570 C 759.402 -3.59068 -0.272385 0
M  V30 7571 C 759.255 -4.37196 1.05733 0
M  V30 7572 C 760.574 -4.2793 -1.0278 0
M  V30 7573 H 757.693 -0.736389 -0.0299977 0
M  V30 7574 H 760.335 -1.79792 0.614399 0
M  V30 7575 H 758.485 -3.78646 -0.869471 0
M  V30 7576 H 760.157 -4.29195 1.69084 0
M  V30 7577 H 758.4 -4.01013 1.65442 0
M  V30 7578 H 759.071 -5.44924 0.880997 0
M  V30 7579 H 761.547 -4.12816 -0.521718 0
M  V30 7580 H 760.423 -5.37214 -1.12659 0
M  V30 7581 H 760.684 -3.90968 -2.0639 0
M  V30 7582 N 759.743 -0.201713 -1.56304 0
M  V30 7583 C 760.968 0.443815 -2.02596 0
M  V30 7584 C 761.393 1.53945 -1.08086 0
M  V30 7585 O 760.751 1.81182 -0.0655056 0
M  V30 7586 C 760.799 0.971066 -3.47279 0
M  V30 7587 O 759.903 2.0836 -3.55893 0
M  V30 7588 H 759.244 0.10294 -0.655972 0
M  V30 7589 H 761.774 -0.314533 -2.02168 0
M  V30 7590 H 761.784 1.28598 -3.87204 0
M  V30 7591 H 760.459 0.169048 -4.15556 0
M  V30 7592 H 759.036 1.77683 -3.27846 0
M  V30 7593 N 761.222 1.57436 0.0718424 0
M  V30 7594 C 762.185 2.02703 1.06977 0
M  V30 7595 C 763.185 0.924062 1.31597 0
M  V30 7596 O 764.375 1.18894 1.27318 0
M  V30 7597 C 761.507 2.40763 2.41342 0
M  V30 7598 H 762.7 2.92098 0.679619 0
M  V30 7599 H 760.253 1.5304 0.317565 0
M  V30 7600 H 760.988 1.54394 2.8519 0
M  V30 7601 H 760.773 3.21249 2.24814 0
M  V30 7602 H 762.263 2.76361 3.13073 0
M  V30 7603 N 762.7 -0.34323 1.53817 0
M  V30 7604 C 763.977 -1.10047 1.61706 0
M  V30 7605 C 764.357 -2.06495 0.438514 0
M  V30 7606 O 763.705 -2.21297 -0.569188 0
M  V30 7607 C 763.915 -1.81985 2.97796 0
M  V30 7608 C 765.263 -2.35717 3.53161 0
M  V30 7609 O 766.287 -1.9208 2.99973 0
M  V30 7610 O 765.146 -3.15551 4.46195 0
M  V30 7611 H 762.24 -0.506096 0.654061 0
M  V30 7612 H 764.786 -0.344697 1.66162 0
M  V30 7613 H 763.558 -1.11722 3.75012 0
M  V30 7614 H 763.181 -2.64419 2.96931 0
M  V30 7615 N 764.178 -1.45556 -0.604258 0
M  V30 7616 C 765.408 -1.53056 -1.38771 0
M  V30 7617 C 765.816 -0.163092 -1.88496 0
M  V30 7618 O 765.159 0.846157 -1.63052 0
M  V30 7619 C 765.221 -2.45656 -2.62476 0
M  V30 7620 C 764.885 -3.92328 -2.34367 0
M  V30 7621 C 765.882 -4.82137 -1.94525 0
M  V30 7622 C 763.567 -4.37275 -2.47177 0
M  V30 7623 C 765.561 -6.14901 -1.67856 0
M  V30 7624 C 763.248 -5.70079 -2.20122 0
M  V30 7625 C 764.246 -6.58711 -1.80524 0
M  V30 7626 O 763.934 -7.89053 -1.53788 0
M  V30 7627 H 763.666 -0.520721 -0.431075 0
M  V30 7628 H 766.22 -1.91464 -0.743693 0
M  V30 7629 H 764.45 -2.02225 -3.29609 0
M  V30 7630 H 766.139 -2.43802 -3.24523 0
M  V30 7631 H 766.905 -4.48675 -1.84162 0
M  V30 7632 H 762.784 -3.68527 -2.76964 0
M  V30 7633 H 766.328 -6.8404 -1.36874 0
M  V30 7634 H 762.225 -6.03095 -2.30102 0
M  V30 7635 H 762.993 -8.01113 -1.67812 0
M  V30 7636 N 765.656 0.84705 -1.32902 0
M  V30 7637 C 766.619 1.9378 -1.224 0
M  V30 7638 C 767.619 1.60144 -0.145108 0
M  V30 7639 O 768.809 1.69638 -0.396058 0
M  V30 7640 C 765.941 3.29234 -0.884174 0
M  V30 7641 H 767.134 2.04518 -2.19345 0
M  V30 7642 H 764.687 1.03816 -1.16842 0
M  V30 7643 H 765.422 3.24193 0.0831277 0
M  V30 7644 H 765.207 3.55026 -1.6643 0
M  V30 7645 H 766.697 4.09162 -0.835226 0
M  V30 7646 N 767.134 1.16236 1.06428 0
M  V30 7647 C 768.55 0.906983 1.31324 0
M  V30 7648 C 768.75 -0.440872 1.96618 0
M  V30 7649 O 767.806 -1.1807 2.23194 0
M  V30 7650 C 769.119 2.05501 2.19522 0
M  V30 7651 C 770.667 2.09061 2.32943 0
M  V30 7652 C 771.142 3.23214 3.24495 0
M  V30 7653 N 772.633 3.22922 3.32078 0
M  V30 7654 C 773.368 4.07889 4.03006 0
M  V30 7655 N 772.864 5.02941 4.76469 0
M  V30 7656 N 774.657 3.95881 3.99043 0
M  V30 7657 H 766.808 2.03015 0.624388 0
M  V30 7658 H 769.071 0.88576 0.337835 0
M  V30 7659 H 768.777 3.02847 1.78819 0
M  V30 7660 H 768.651 1.99538 3.201 0
M  V30 7661 H 771.038 1.12308 2.72893 0
M  V30 7662 H 771.119 2.19089 1.32037 0
M  V30 7663 H 770.763 4.20225 2.85261 0
M  V30 7664 H 770.693 3.10423 4.25377 0
M  V30 7665 H 773.184 2.54093 2.79724 0
M  V30 7666 H 773.497 5.64196 5.28112 0
M  V30 7667 H 771.842 5.06922 4.75453 0
M  V30 7668 H 775.033 3.20927 3.40769 0
M  V30 7669 H 775.206 4.62321 4.54052 0
M  V30 7670 N 768.612 -1.24939 0.960631 0
M  V30 7671 C 769.858 -1.93104 0.61958 0
M  V30 7672 C 770.191 -1.74991 -0.84212 0
M  V30 7673 O 769.466 -1.09867 -1.60498 0
M  V30 7674 C 769.749 -3.46326 0.986422 0
M  V30 7675 C 769.602 -3.73638 2.50429 0
M  V30 7676 C 770.921 -4.37067 0.515827 0
M  V30 7677 H 768.04 -0.701311 0.226566 0
M  V30 7678 H 770.682 -1.47442 1.19836 0
M  V30 7679 H 768.832 -3.85348 0.493907 0
M  V30 7680 H 770.504 -3.44217 3.07103 0
M  V30 7681 H 768.747 -3.19035 2.93937 0
M  V30 7682 H 769.418 -4.80815 2.71147 0
M  V30 7683 H 771.894 -4.05381 0.938389 0
M  V30 7684 H 770.77 -5.43022 0.80114 0
M  V30 7685 H 771.031 -4.38224 -0.584171 0
M  V30 7686 N 770.09 -0.729906 -1.39679 0
M  V30 7687 C 771 -0.0880322 -2.34435 0
M  V30 7688 C 772.016 0.727674 -1.58053 0
M  V30 7689 O 773.192 0.657321 -1.90371 0
M  V30 7690 C 770.257 0.812211 -3.37052 0
M  V30 7691 C 769.318 -0.0151681 -4.29297 0
M  V30 7692 C 768.551 0.842202 -5.27013 0
M  V30 7693 O 768.774 2.08108 -5.31081 0
M  V30 7694 O 767.708 0.27357 -6.01278 0
M  V30 7695 H 771.534 -0.869989 -2.90972 0
M  V30 7696 H 769.119 -0.490522 -1.41118 0
M  V30 7697 H 771.001 1.32745 -3.99946 0
M  V30 7698 H 769.676 1.57307 -2.82907 0
M  V30 7699 H 768.583 -0.575811 -3.69642 0
M  V30 7700 H 769.916 -0.738129 -4.86634 0
M  V30 7701 N 771.568 1.50203 -0.477153 0
M  V30 7702 C 772.814 2.02658 0.0758507 0
M  V30 7703 C 773.147 1.358 1.38824 0
M  V30 7704 O 772.422 0.485696 1.88338 0
M  V30 7705 C 772.705 3.59208 0.253339 0
M  V30 7706 C 772.558 4.36629 -1.0805 0
M  V30 7707 C 773.877 4.28469 1.00509 0
M  V30 7708 H 770.996 0.736538 0.0260921 0
M  V30 7709 H 773.638 1.79464 -0.623925 0
M  V30 7710 H 771.788 3.79101 0.849378 0
M  V30 7711 H 773.46 4.28292 -1.71358 0
M  V30 7712 H 771.703 4.0013 -1.67566 0
M  V30 7713 H 772.374 5.44449 -0.909883 0
M  V30 7714 H 774.85 4.13087 0.499818 0
M  V30 7715 H 773.726 5.37804 1.09808 0
M  V30 7716 H 773.987 3.92057 2.04314 0
M  V30 7717 N 773.046 0.209999 1.56195 0
M  V30 7718 C 774.323 -0.473214 1.89789 0
M  V30 7719 C 774.703 -1.78581 1.1257 0
M  V30 7720 O 774.051 -2.27325 0.231398 0
M  V30 7721 C 774.261 -0.677458 3.42362 0
M  V30 7722 C 775.609 -0.990114 4.12895 0
M  V30 7723 O 776.633 -0.764655 3.47896 0
M  V30 7724 O 775.492 -1.41737 5.278 0
M  V30 7725 H 772.586 -0.248622 0.788743 0
M  V30 7726 H 775.132 0.251324 1.67829 0
M  V30 7727 H 773.904 0.248878 3.90508 0
M  V30 7728 H 773.527 -1.45391 3.70064 0
M  V30 7729 N 774.524 -1.57472 -0.0634922 0
M  V30 7730 C 775.772 -1.87283 -0.759563 0
M  V30 7731 C 776.093 -0.803135 -1.77693 0
M  V30 7732 O 775.363 0.167293 -1.95184 0
M  V30 7733 H 773.943 -0.691106 -0.283516 0
M  V30 7734 H 776.605 -1.94864 -0.0376091 0
M  V30 7735 H 775.701 -2.85064 -1.27062 0
M  V30 7736 N 776.003 0.335068 -1.53997 0
M  V30 7737 C 777.233 1.0926 -1.75345 0
M  V30 7738 C 777.641 1.82568 -0.496545 0
M  V30 7739 O 776.984 1.75525 0.541897 0
M  V30 7740 C 777.046 2.14473 -2.88516 0
M  V30 7741 C 776.71 1.60665 -4.27827 0
M  V30 7742 C 777.707 1.05448 -5.09094 0
M  V30 7743 C 775.392 1.65255 -4.74337 0
M  V30 7744 C 777.386 0.555372 -6.34976 0
M  V30 7745 C 775.073 1.14956 -6.0019 0
M  V30 7746 C 776.071 0.601907 -6.80343 0
M  V30 7747 O 775.759 0.106445 -8.0383 0
M  V30 7748 H 775.491 0.331329 -0.589234 0
M  V30 7749 H 778.045 0.39042 -2.01655 0
M  V30 7750 H 776.275 2.88274 -2.5775 0
M  V30 7751 H 777.964 2.75857 -2.97755 0
M  V30 7752 H 778.73 1.01218 -4.74321 0
M  V30 7753 H 774.609 2.06822 -4.12002 0
M  V30 7754 H 778.153 0.127245 -6.97484 0
M  V30 7755 H 774.05 1.18891 -6.34457 0
M  V30 7756 H 774.818 0.222944 -8.18196 0
M  V30 7757 N 777.481 1.45874 0.596531 0
M  V30 7758 C 778.706 1.54247 1.38646 0
M  V30 7759 C 779.131 0.179571 1.87241 0
M  V30 7760 O 778.489 -0.837831 1.6078 0
M  V30 7761 C 778.537 2.54015 2.55946 0
M  V30 7762 O 777.641 2.06561 3.5694 0
M  V30 7763 H 776.982 0.519555 0.413471 0
M  V30 7764 H 779.512 1.91327 0.724936 0
M  V30 7765 H 779.522 2.73179 3.03047 0
M  V30 7766 H 778.197 3.52994 2.19928 0
M  V30 7767 H 776.774 1.97324 3.16414 0
M  V30 7768 N 778.959 -0.83999 1.33349 0
M  V30 7769 C 779.869 -1.98182 1.25543 0
M  V30 7770 C 780.885 -1.73204 0.166208 0
M  V30 7771 O 782.061 -1.97596 0.389589 0
M  V30 7772 C 779.126 -3.32157 0.993614 0
M  V30 7773 C 778.187 -3.70258 2.17273 0
M  V30 7774 C 777.42 -4.9784 1.92331 0
M  V30 7775 O 777.643 -5.63679 0.873074 0
M  V30 7776 O 776.577 -5.33418 2.78835 0
M  V30 7777 H 780.403 -2.07708 2.21565 0
M  V30 7778 H 777.988 -0.972852 1.13384 0
M  V30 7779 H 779.87 -4.12433 0.864711 0
M  V30 7780 H 778.545 -3.23637 0.0636596 0
M  V30 7781 H 777.452 -2.90497 2.35716 0
M  V30 7782 H 778.785 -3.83442 3.08598 0
M  V30 7783 N 780.437 -1.16799 -1.0581 0
M  V30 7784 C 781.384 -0.87902 -2.13405 0
M  V30 7785 C 782.354 0.174541 -1.6518 0
M  V30 7786 O 783.539 0.0386843 -1.90761 0
M  V30 7787 C 780.679 -0.391616 -3.42871 0
M  V30 7788 C 779.792 -1.50857 -4.04804 0
M  V30 7789 C 778.927 -0.975682 -5.22163 0
M  V30 7790 C 777.966 -2.06851 -5.76089 0
M  V30 7791 N 777.103 -1.55085 -6.84758 0
M  V30 7792 H 781.943 -1.80043 -2.37463 0
M  V30 7793 H 779.48 -0.898083 -1.16503 0
M  V30 7794 H 781.438 -0.0906247 -4.17102 0
M  V30 7795 H 780.068 0.49284 -3.19016 0
M  V30 7796 H 779.12 -1.92542 -3.28073 0
M  V30 7797 H 780.432 -2.33305 -4.40874 0
M  V30 7798 H 779.586 -0.628165 -6.03439 0
M  V30 7799 H 778.325 -0.120566 -4.87551 0
M  V30 7800 H 777.33 -2.42467 -4.93447 0
M  V30 7801 H 778.555 -2.92768 -6.12751 0
M  V30 7802 H 776.501 -0.718345 -6.52055 0
M  V30 7803 H 776.418 -2.31145 -7.19797 0
M  V30 7804 H 777.686 -1.23206 -7.69702 0
M  V30 7805 N 781.915 1.24427 -0.967243 0
M  V30 7806 C 783.163 1.92107 -0.627638 0
M  V30 7807 C 783.484 1.75991 0.83978 0
M  V30 7808 O 782.754 1.13118 1.59941 0
M  V30 7809 H 781.334 0.710986 -0.229145 0
M  V30 7810 H 783.996 1.51331 -1.22821 0
M  V30 7811 H 783.092 2.99791 -0.867844 0
M  V30 7812 N 783.393 0.737304 1.3929 0
M  V30 7813 C 784.356 0.10731 2.28949 0
M  V30 7814 C 785.356 -0.664716 1.46418 0
M  V30 7815 O 786.546 -0.493392 1.67067 0
M  V30 7816 C 783.678 -0.857145 3.29948 0
M  V30 7817 H 784.871 0.89725 2.86163 0
M  V30 7818 H 782.424 0.503279 1.47976 0
M  V30 7819 H 783.159 -1.67336 2.77794 0
M  V30 7820 H 782.944 -0.306167 3.90903 0
M  V30 7821 H 784.434 -1.29444 3.97031 0
M  V30 7822 N 784.871 -1.49948 0.485112 0
M  V30 7823 C 786.096 -2.073 -0.0645059 0
M  V30 7824 C 786.521 -1.345 -1.31497 0
M  V30 7825 O 785.879 -0.39687 -1.76903 0
M  V30 7826 C 785.927 -3.59201 -0.317304 0
M  V30 7827 O 785.031 -3.88085 -1.39514 0
M  V30 7828 H 784.372 -0.663723 0.0191822 0
M  V30 7829 H 786.902 -1.92963 0.680179 0
M  V30 7830 H 786.912 -4.04227 -0.553604 0
M  V30 7831 H 785.587 -4.11602 0.596387 0
M  V30 7832 H 784.164 -3.54885 -1.14504 0
M  V30 7833 N 786.349 -0.21828 -1.56081 0
M  V30 7834 C 787.312 0.679633 -2.18892 0
M  V30 7835 C 788.312 1.12405 -1.14986 0
M  V30 7836 O 789.502 1.03339 -1.40238 0
M  V30 7837 C 786.634 1.93063 -2.80962 0
M  V30 7838 H 787.827 0.132066 -2.99609 0
M  V30 7839 H 785.38 0.0313374 -1.56269 0
M  V30 7840 H 786.115 2.52015 -2.04106 0
M  V30 7841 H 785.9 1.62046 -3.57048 0
M  V30 7842 H 787.39 2.57043 -3.29118 0
M  V30 7843 N 787.827 1.57504 0.0551401 0
M  V30 7844 C 789.055 1.92294 0.76358 0
M  V30 7845 C 789.47 0.815774 1.70266 0
M  V30 7846 O 788.827 -0.209772 1.8129 0
M  V30 7847 C 788.878 3.26914 1.54302 0
M  V30 7848 O 788.599 4.33375 0.641666 0
M  V30 7849 C 790.1 3.75825 2.35097 0
M  V30 7850 H 787.32 0.635229 0.216159 0
M  V30 7851 H 789.864 2.0449 0.0204385 0
M  V30 7852 H 788.019 3.16196 2.23828 0
M  V30 7853 H 788.433 5.10927 1.1855 0
M  V30 7854 H 789.907 4.72603 2.8522 0
M  V30 7855 H 790.384 3.0568 3.15367 0
M  V30 7856 H 790.99 3.89542 1.70696 0
M  V30 7857 N 789.305 -0.326896 1.54172 0
M  V30 7858 C 790.268 -1.38515 1.8261 0
M  V30 7859 C 791.268 -1.44872 0.697771 0
M  V30 7860 O 792.458 -1.44957 0.966078 0
M  V30 7861 C 789.59 -2.77281 1.98313 0
M  V30 7862 H 790.783 -1.14556 2.77159 0
M  V30 7863 H 788.336 -0.562199 1.45839 0
M  V30 7864 H 789.071 -3.065 1.05964 0
M  V30 7865 H 788.856 -2.74061 2.80416 0
M  V30 7866 H 790.346 -3.53845 2.21773 0
M  V30 7867 N 790.784 -1.46188 -0.588786 0
M  V30 7868 C 791.714 -1.59148 -1.70863 0
M  V30 7869 C 792.695 -0.442083 -1.64255 0
M  V30 7870 O 793.88 -0.667575 -1.82365 0
M  V30 7871 C 791.01 -1.5757 -3.09498 0
M  V30 7872 C 789.964 -2.71418 -3.30932 0
M  V30 7873 C 789.29 -2.549 -4.70032 0
M  V30 7874 C 790.59 -4.1329 -3.19356 0
M  V30 7875 H 792.284 -2.52889 -1.60274 0
M  V30 7876 H 789.83 -1.21707 -0.769638 0
M  V30 7877 H 791.783 -1.65231 -3.87655 0
M  V30 7878 H 790.507 -0.603705 -3.20972 0
M  V30 7879 H 789.166 -2.63216 -2.55172 0
M  V30 7880 H 788.814 -1.55797 -4.78264 0
M  V30 7881 H 788.514 -3.31257 -4.85327 0
M  V30 7882 H 790.038 -2.64443 -5.50366 0
M  V30 7883 H 791.452 -4.22636 -3.87365 0
M  V30 7884 H 789.849 -4.90187 -3.46175 0
M  V30 7885 H 790.919 -4.33874 -2.16522 0
M  V30 7886 N 792.262 0.832906 -1.33792 0
M  V30 7887 C 793.539 1.57359 -1.16178 0
M  V30 7888 C 793.919 2.09372 0.269532 0
M  V30 7889 O 793.267 1.89993 1.26944 0
M  V30 7890 C 793.477 2.70279 -2.20795 0
M  V30 7891 C 794.825 3.39305 -2.55259 0
M  V30 7892 O 795.849 2.80526 -2.19508 0
M  V30 7893 O 794.708 4.45428 -3.16632 0
M  V30 7894 H 791.802 0.694025 -0.449731 0
M  V30 7895 H 794.348 0.875144 -1.45394 0
M  V30 7896 H 793.12 2.29527 -3.16911 0
M  V30 7897 H 792.743 3.47782 -1.927 0
M  V30 7898 N 793.74 1.17359 1.05189 0
M  V30 7899 C 794.97 0.985099 1.81602 0
M  V30 7900 C 795.378 -0.469872 1.83273 0
M  V30 7901 O 794.721 -1.33806 1.25864 0
M  V30 7902 C 794.783 1.44956 3.2898 0
M  V30 7903 C 794.447 2.92666 3.50993 0
M  V30 7904 C 795.444 3.906 3.43115 0
M  V30 7905 C 793.129 3.30841 3.77954 0
M  V30 7906 C 795.123 5.24709 3.61883 0
M  V30 7907 C 792.81 4.65116 3.96371 0
M  V30 7908 C 793.808 5.61859 3.88335 0
M  V30 7909 O 793.496 6.93704 4.06238 0
M  V30 7910 H 793.228 0.348731 0.579105 0
M  V30 7911 H 795.782 1.56066 1.33539 0
M  V30 7912 H 794.012 0.817559 3.77959 0
M  V30 7913 H 795.701 1.22674 3.86919 0
M  V30 7914 H 796.467 3.62453 3.22262 0
M  V30 7915 H 792.346 2.5611 3.83313 0
M  V30 7916 H 795.89 6.00205 3.55527 0
M  V30 7917 H 791.787 4.92969 4.16715 0
M  V30 7918 H 792.555 7.00443 4.23463 0
M  V30 7919 N 795.218 -1.23913 0.973828 0
M  V30 7920 C 796.495 -1.87539 0.555729 0
M  V30 7921 C 796.875 -1.87641 -0.967162 0
M  V30 7922 O 796.223 -1.35335 -1.84111 0
M  V30 7923 C 796.433 -3.29359 1.15427 0
M  V30 7924 C 797.781 -4.06 1.24294 0
M  V30 7925 O 798.805 -3.38554 1.10723 0
M  V30 7926 O 797.664 -5.26689 1.45813 0
M  V30 7927 H 794.758 -0.805769 0.186188 0
M  V30 7928 H 797.304 -1.31838 1.06849 0
M  V30 7929 H 796.076 -3.23817 2.19678 0
M  V30 7930 H 795.699 -3.92642 0.625925 0
M  V30 7931 N 796.696 -0.74468 -1.38897 0
M  V30 7932 C 797.973 -0.222773 -1.94327 0
M  V30 7933 C 798.353 1.27731 -1.68071 0
M  V30 7934 O 797.701 2.04754 -1.01429 0
M  V30 7935 C 797.911 -0.566836 -3.44366 0
M  V30 7936 C 799.259 -0.521531 -4.21385 0
M  V30 7937 O 800.283 -0.504599 -3.52608 0
M  V30 7938 O 799.142 -0.524595 -5.43976 0
M  V30 7939 H 796.236 -0.0439259 -0.825833 0
M  V30 7940 H 798.782 -0.824197 -1.48341 0
M  V30 7941 H 797.554 -1.60321 -3.56949 0
M  V30 7942 H 797.177 0.0630577 -3.9755 0
M  V30 7943 N 798.174 1.49689 -0.493057 0
M  V30 7944 C 799.106 2.26867 0.326195 0
M  V30 7945 C 800.119 1.33083 0.937697 0
M  V30 7946 O 801.308 1.58427 0.822382 0
M  V30 7947 C 798.408 3.0519 1.4735 0
M  V30 7948 C 797.581 4.26491 0.970767 0
M  V30 7949 C 796.64 4.86926 1.99473 0
M  V30 7950 O 795.666 5.47221 1.56647 0
M  V30 7951 N 796.868 4.75871 3.32456 0
M  V30 7952 H 799.633 2.97816 -0.335547 0
M  V30 7953 H 797.194 1.58602 -0.325129 0
M  V30 7954 H 799.186 3.42496 2.15589 0
M  V30 7955 H 797.756 2.369 2.03954 0
M  V30 7956 H 796.976 3.94036 0.113529 0
M  V30 7957 H 798.264 5.05092 0.613156 0
M  V30 7958 H 797.662 4.2797 3.69944 0
M  V30 7959 H 796.219 5.17383 3.96431 0
M  V30 7960 N 799.652 0.226554 1.55963 0
M  V30 7961 C 800.599 -0.681504 2.20509 0
M  V30 7962 C 801.569 -1.1866 1.16229 0
M  V30 7963 O 802.754 -1.24478 1.44602 0
M  V30 7964 C 799.894 -1.88183 2.89277 0
M  V30 7965 C 799.007 -1.41517 4.08163 0
M  V30 7966 C 798.142 -2.57346 4.647 0
M  V30 7967 C 797.181 -2.07441 5.75877 0
M  V30 7968 N 796.318 -3.16561 6.26685 0
M  V30 7969 H 801.158 -0.124372 2.9774 0
M  V30 7970 H 798.695 -0.0496333 1.47016 0
M  V30 7971 H 800.653 -2.58666 3.27335 0
M  V30 7972 H 799.283 -2.41177 2.14555 0
M  V30 7973 H 798.335 -0.605099 3.75557 0
M  V30 7974 H 799.647 -1.00928 4.88482 0
M  V30 7975 H 798.801 -3.35903 5.05227 0
M  V30 7976 H 797.54 -3.01227 3.83554 0
M  V30 7977 H 796.545 -1.27347 5.34848 0
M  V30 7978 H 797.77 -1.64554 6.58862 0
M  V30 7979 H 795.716 -3.59914 5.48451 0
M  V30 7980 H 795.633 -2.80239 7.02141 0
M  V30 7981 H 796.901 -3.95238 6.71868 0
M  V30 7982 N 801.13 -1.57531 -0.0467866 0
M  V30 7983 C 802.546 -1.54451 -0.402107 0
M  V30 7984 C 802.746 -0.950275 -1.77685 0
M  V30 7985 O 801.802 -0.563602 -2.4613 0
M  V30 7986 C 803.115 -2.9899 -0.320212 0
M  V30 7987 C 804.663 -3.10452 -0.398588 0
M  V30 7988 C 805.138 -4.56689 -0.346335 0
M  V30 7989 N 806.629 -4.6142 -0.405666 0
M  V30 7990 C 807.364 -5.72087 -0.387845 0
M  V30 7991 N 806.86 -6.92045 -0.32336 0
M  V30 7992 N 808.653 -5.60404 -0.436263 0
M  V30 7993 H 800.804 -1.94515 0.853087 0
M  V30 7994 H 803.067 -0.891397 0.322669 0
M  V30 7995 H 802.773 -3.46124 0.623794 0
M  V30 7996 H 802.647 -3.60164 -1.1208 0
M  V30 7997 H 805.034 -2.63276 -1.33302 0
M  V30 7998 H 805.115 -2.52142 0.431026 0
M  V30 7999 H 804.759 -5.04527 0.584356 0
M  V30 8000 H 804.689 -5.12889 -1.19382 0
M  V30 8001 H 807.18 -3.75105 -0.458737 0
M  V30 8002 H 807.493 -7.7216 -0.314375 0
M  V30 8003 H 805.838 -6.94396 -0.28967 0
M  V30 8004 H 809.029 -4.65586 -0.48451 0
M  V30 8005 H 809.202 -6.46645 -0.418907 0
M  V30 8006 N 802.608 0.318715 -1.54344 0
M  V30 8007 C 803.833 1.07987 -1.77069 0
M  V30 8008 C 804.258 1.80766 -0.520117 0
M  V30 8009 O 803.616 1.73424 0.528566 0
M  V30 8010 C 803.664 2.04987 -2.96669 0
M  V30 8011 O 802.768 3.12974 -2.68554 0
M  V30 8012 H 802.109 0.311109 -0.586606 0
M  V30 8013 H 804.639 0.361533 -2.0138 0
M  V30 8014 H 804.649 2.47771 -3.2415 0
M  V30 8015 H 803.324 1.51417 -3.87357 0
M  V30 8016 H 801.901 2.74831 -2.52037 0
M  V30 8017 N 804.086 1.46499 0.581025 0
M  V30 8018 C 805.311 1.55708 1.37002 0
M  V30 8019 C 805.736 0.19942 1.8704 0
M  V30 8020 O 805.094 -0.820731 1.61659 0
M  V30 8021 C 805.142 2.56716 2.53238 0
M  V30 8022 O 804.246 2.10336 3.54729 0
M  V30 8023 H 803.587 0.523912 0.407937 0
M  V30 8024 H 806.117 1.92085 0.704602 0
M  V30 8025 H 806.127 2.76378 3.00132 0
M  V30 8026 H 804.802 3.55307 2.16171 0
M  V30 8027 H 803.379 2.00669 3.14303 0
M  V30 8028 N 805.565 -0.825799 1.34232 0
M  V30 8029 C 806.512 -1.93651 1.2557 0
M  V30 8030 C 807.482 -1.65578 0.131536 0
M  V30 8031 O 808.667 -1.88231 0.312027 0
M  V30 8032 C 805.807 -3.29862 1.01415 0
M  V30 8033 C 804.92 -3.70247 2.22579 0
M  V30 8034 C 804.055 -4.95392 1.91731 0
M  V30 8035 C 803.094 -5.28349 3.09053 0
M  V30 8036 N 802.231 -6.44671 2.78107 0
M  V30 8037 H 807.071 -2.00392 2.20561 0
M  V30 8038 H 804.608 -0.980441 1.09662 0
M  V30 8039 H 806.566 -4.08356 0.854485 0
M  V30 8040 H 805.196 -3.22642 0.100936 0
M  V30 8041 H 804.248 -2.87169 2.49476 0
M  V30 8042 H 805.56 -3.90575 3.10246 0
M  V30 8043 H 804.714 -5.81665 1.72484 0
M  V30 8044 H 803.453 -4.77059 1.0132 0
M  V30 8045 H 802.458 -4.40574 3.289 0
M  V30 8046 H 803.683 -5.48622 4.00239 0
M  V30 8047 H 801.629 -6.278 1.9027 0
M  V30 8048 H 801.546 -6.65158 3.59306 0
M  V30 8049 H 802.814 -7.34022 2.62358 0
M  V30 8050 N 807.043 -1.17915 -1.04565 0
M  V30 8051 C 808.459 -0.927761 -1.29864 0
M  V30 8052 C 808.659 0.409536 -1.97294 0
M  V30 8053 O 807.715 1.14505 -2.25044 0
M  V30 8054 C 809.028 -2.08967 -2.16225 0
M  V30 8055 C 810.576 -2.12741 -2.29587 0
M  V30 8056 C 811.051 -3.28335 -3.19312 0
M  V30 8057 N 812.542 -3.28164 -3.26898 0
M  V30 8058 C 813.277 -4.14249 -3.96466 0
M  V30 8059 N 812.773 -5.10457 -4.68407 0
M  V30 8060 N 814.566 -4.02179 -3.92694 0
M  V30 8061 H 806.717 -2.03983 -0.592011 0
M  V30 8062 H 808.98 -0.891023 -0.323701 0
M  V30 8063 H 808.686 -3.05654 -1.73979 0
M  V30 8064 H 808.56 -2.04606 -3.16885 0
M  V30 8065 H 810.947 -1.16636 -2.71072 0
M  V30 8066 H 811.028 -2.21162 -1.28535 0
M  V30 8067 H 810.672 -4.2471 -2.78539 0
M  V30 8068 H 810.602 -3.17151 -4.20384 0
M  V30 8069 H 813.093 -2.58511 -2.75646 0
M  V30 8070 H 813.406 -5.72526 -5.1907 0
M  V30 8071 H 811.751 -5.14422 -4.67328 0
M  V30 8072 H 814.942 -3.26308 -3.3562 0
M  V30 8073 H 815.115 -4.69486 -4.4664 0
M  V30 8074 N 808.521 1.23394 -0.980386 0
M  V30 8075 C 809.451 2.2717 -0.540024 0
M  V30 8076 C 810.432 1.64659 0.426787 0
M  V30 8077 O 811.617 1.91543 0.320153 0
M  V30 8078 C 808.747 3.46939 0.15836 0
M  V30 8079 C 807.701 4.21802 -0.725732 0
M  V30 8080 C 807.027 5.34597 0.104866 0
M  V30 8081 C 808.327 4.81802 -2.01654 0
M  V30 8082 H 810.021 2.64257 -1.40743 0
M  V30 8083 H 807.567 1.2703 -0.678193 0
M  V30 8084 H 809.52 4.18683 0.477737 0
M  V30 8085 H 808.244 3.08912 1.06022 0
M  V30 8086 H 806.903 3.51875 -1.02857 0
M  V30 8087 H 806.551 4.92812 1.00726 0
M  V30 8088 H 806.251 5.85607 -0.483557 0
M  V30 8089 H 807.775 6.09163 0.418624 0
M  V30 8090 H 809.189 5.45554 -1.76193 0
M  V30 8091 H 807.586 5.43098 -2.55273 0
M  V30 8092 H 808.656 4.02549 -2.70338 0
M  V30 8093 N 809.999 0.752036 1.385 0
M  V30 8094 C 811.247 0.306895 1.99756 0
M  V30 8095 C 811.568 -1.11478 1.59992 0
M  V30 8096 O 810.838 -1.76206 0.856045 0
M  V30 8097 H 809.418 0.11048 0.738785 0
M  V30 8098 H 812.08 0.965785 1.69289 0
M  V30 8099 H 811.176 0.368797 3.09913 0
M  V30 8100 N 811.477 -1.49425 0.500989 0
M  V30 8101 C 812.44 -2.27646 -0.266416 0
M  V30 8102 C 813.44 -1.3366 -0.893961 0
M  V30 8103 O 814.63 -1.5682 -0.758495 0
M  V30 8104 C 811.762 -3.11618 -1.38227 0
M  V30 8105 H 812.955 -2.96945 0.419973 0
M  V30 8106 H 810.508 -1.5419 0.255954 0
M  V30 8107 H 811.243 -2.46885 -2.10281 0
M  V30 8108 H 811.028 -3.80721 -0.937746 0
M  V30 8109 H 812.518 -3.70698 -1.92283 0
M  V30 8110 N 812.955 -0.234822 -1.55841 0
M  V30 8111 C 814.203 0.392483 -1.98252 0
M  V30 8112 C 814.524 1.59344 -1.12404 0
M  V30 8113 O 813.794 1.94834 -0.204055 0
M  V30 8114 H 812.374 0.147999 -0.732192 0
M  V30 8115 H 815.036 -0.330804 -1.92072 0
M  V30 8116 H 814.132 0.709829 -3.03921 0
M  V30 8117 N 814.433 1.57553 0.0384317 0
M  V30 8118 C 815.363 2.0898 1.04161 0
M  V30 8119 C 816.344 0.99029 1.38301 0
M  V30 8120 O 817.529 1.26499 1.47349 0
M  V30 8121 C 814.659 2.56145 2.34536 0
M  V30 8122 C 813.613 3.70275 2.14663 0
M  V30 8123 C 812.939 4.03612 3.50715 0
M  V30 8124 C 814.239 4.99067 1.54045 0
M  V30 8125 H 815.933 2.93046 0.613548 0
M  V30 8126 H 813.479 1.40973 0.293684 0
M  V30 8127 H 815.432 2.90741 3.05037 0
M  V30 8128 H 814.156 1.6915 2.79385 0
M  V30 8129 H 812.815 3.36013 1.46597 0
M  V30 8130 H 812.463 3.13698 3.93195 0
M  V30 8131 H 812.163 4.80482 3.38247 0
M  V30 8132 H 813.687 4.40735 4.22593 0
M  V30 8133 H 815.101 5.3168 2.14451 0
M  V30 8134 H 813.498 5.80484 1.52178 0
M  V30 8135 H 814.568 4.8226 0.505259 0
M  V30 8136 N 815.911 -0.310526 1.54511 0
M  V30 8137 C 816.843 -1.40405 1.8116 0
M  V30 8138 C 817.856 -1.47261 0.694114 0
M  V30 8139 O 819.045 -1.49751 0.971441 0
M  V30 8140 C 816.145 -2.78849 1.92604 0
M  V30 8141 C 815.318 -2.95041 3.22908 0
M  V30 8142 C 814.377 -4.13925 3.24889 0
M  V30 8143 O 813.403 -4.06463 3.98467 0
M  V30 8144 N 814.605 -5.24099 2.496 0
M  V30 8145 H 817.37 -1.17903 2.75534 0
M  V30 8146 H 814.931 -0.500564 1.53967 0
M  V30 8147 H 816.923 -3.5661 1.91342 0
M  V30 8148 H 815.493 -2.94342 1.05268 0
M  V30 8149 H 814.713 -2.04472 3.37023 0
M  V30 8150 H 816.001 -3.02763 4.08916 0
M  V30 8151 H 815.399 -5.33039 1.89435 0
M  V30 8152 H 813.956 -6.0023 2.54102 0
M  V30 8153 N 817.389 -1.46805 -0.573248 0
M  V30 8154 C 818.637 -1.52302 -1.32847 0
M  V30 8155 C 818.958 -0.180159 -1.94166 0
M  V30 8156 O 818.228 0.794291 -1.79075 0
M  V30 8157 H 816.808 -0.56097 -0.493276 0
M  V30 8158 H 819.47 -1.82998 -0.670642 0
M  V30 8159 H 818.566 -2.28089 -2.13031 0
M  V30 8160 N 818.867 0.818669 -1.34668 0
M  V30 8161 C 819.814 1.92983 -1.26595 0
M  V30 8162 C 820.784 1.65506 -0.140315 0
M  V30 8163 O 821.969 1.88063 -0.322005 0
M  V30 8164 C 819.109 3.2932 -1.03163 0
M  V30 8165 C 818.222 3.69061 -2.24539 0
M  V30 8166 C 817.357 4.94368 -1.94355 0
M  V30 8167 C 816.396 5.26702 -3.11851 0
M  V30 8168 N 815.533 6.43187 -2.81522 0
M  V30 8169 H 820.373 1.99219 -2.2162 0
M  V30 8170 H 817.91 0.974612 -1.1018 0
M  V30 8171 H 819.868 4.07897 -0.87613 0
M  V30 8172 H 818.498 3.22584 -0.118045 0
M  V30 8173 H 817.55 2.85842 -2.50995 0
M  V30 8174 H 818.862 3.88924 -3.12313 0
M  V30 8175 H 818.016 5.80742 -1.75566 0
M  V30 8176 H 816.755 4.76515 -1.03848 0
M  V30 8177 H 815.76 4.38823 -3.31231 0
M  V30 8178 H 816.985 5.46492 -4.03142 0
M  V30 8179 H 814.931 6.26783 -1.93596 0
M  V30 8180 H 814.848 6.63243 -3.62829 0
M  V30 8181 H 816.116 7.32621 -2.66247 0
M  V30 8182 N 820.346 1.18468 1.03938 0
M  V30 8183 C 821.576 1.0043 1.80547 0
M  V30 8184 C 821.984 -0.450407 1.83761 0
M  V30 8185 O 821.327 -1.32463 1.27276 0
M  V30 8186 C 821.389 1.48437 3.27424 0
M  V30 8187 C 821.053 2.96372 3.47869 0
M  V30 8188 C 822.05 3.94217 3.38953 0
M  V30 8189 C 819.735 3.34831 3.74424 0
M  V30 8190 C 821.729 5.28517 3.56298 0
M  V30 8191 C 819.416 4.69294 3.91416 0
M  V30 8192 C 820.414 5.65946 3.82354 0
M  V30 8193 O 820.102 6.97974 3.98858 0
M  V30 8194 H 819.834 0.354853 0.575374 0
M  V30 8195 H 822.388 1.57473 1.31876 0
M  V30 8196 H 820.618 0.857601 3.7707 0
M  V30 8197 H 822.307 1.2677 3.85596 0
M  V30 8198 H 823.073 3.6585 3.184 0
M  V30 8199 H 818.952 2.60161 3.80575 0
M  V30 8200 H 822.496 6.03943 3.49141 0
M  V30 8201 H 818.393 4.97361 4.11463 0
M  V30 8202 H 819.161 7.04895 4.1601 0
M  V30 8203 N 821.824 -1.22873 0.986916 0
M  V30 8204 C 822.787 -2.2281 0.537442 0
M  V30 8205 C 823.787 -1.56331 -0.37646 0
M  V30 8206 O 824.977 -1.73376 -0.169247 0
M  V30 8207 C 822.109 -3.40195 -0.219082 0
M  V30 8208 H 823.302 -2.64089 1.42116 0
M  V30 8209 H 820.855 -1.35819 0.773488 0
M  V30 8210 H 821.59 -3.04381 -1.11905 0
M  V30 8211 H 821.375 -3.89657 0.437026 0
M  V30 8212 H 822.865 -4.14326 -0.521926 0
M  V30 8213 N 823.302 -0.75937 -1.38099 0
M  V30 8214 C 824.549 -0.318113 -1.99986 0
M  V30 8215 C 824.877 1.10184 -1.6028 0
M  V30 8216 O 824.132 1.77015 -0.834524 0
M  V30 8217 C 824.431 -0.394999 -3.55211 0
M  V30 8218 C 824.097 -1.77143 -4.14646 0
M  V30 8219 C 822.759 -2.14811 -4.30592 0
M  V30 8220 C 825.111 -2.67407 -4.47373 0
M  V30 8221 C 822.439 -3.42203 -4.76565 0
M  V30 8222 C 824.791 -3.94196 -4.94765 0
M  V30 8223 C 823.455 -4.31925 -5.08918 0
M  V30 8224 H 822.725 -0.116406 -0.7318 0
M  V30 8225 H 825.372 -0.97098 -1.65058 0
M  V30 8226 H 823.677 0.341426 -3.9031 0
M  V30 8227 H 825.374 -0.0350722 -4.00985 0
M  V30 8228 H 821.964 -1.46864 -4.02652 0
M  V30 8229 H 826.148 -2.39569 -4.3465 0
M  V30 8230 H 821.404 -3.71346 -4.85708 0
M  V30 8231 H 825.578 -4.64276 -5.19057 0
M  V30 8232 H 823.205 -5.30699 -5.443 0
M  V30 8233 N 824.78 1.49157 -0.508906 0
M  V30 8234 C 826.028 2.02073 0.0327335 0
M  V30 8235 C 826.349 1.39012 1.3675 0
M  V30 8236 O 825.619 0.548153 1.88075 0
M  V30 8237 H 824.199 0.746848 0.0150864 0
M  V30 8238 H 826.861 1.83097 -0.667946 0
M  V30 8239 H 825.957 3.11707 0.1566 0
M  V30 8240 N 826.258 0.243083 1.55714 0
M  V30 8241 C 827.483 -0.389944 2.03701 0
M  V30 8242 C 827.908 -1.51025 1.12129 0
M  V30 8243 O 827.266 -1.80944 0.11352 0
M  V30 8244 C 827.314 -0.878649 3.49731 0
M  V30 8245 O 826.418 -1.98851 3.61292 0
M  V30 8246 H 825.759 -0.0855115 0.658471 0
M  V30 8247 H 828.289 0.368023 2.01263 0
M  V30 8248 H 828.299 -1.18287 3.90477 0
M  V30 8249 H 826.974 -0.0588107 4.15858 0
M  V30 8250 H 825.551 -1.68928 3.32442 0
M  V30 8251 N 827.736 -1.57571 -0.0300757 0
M  V30 8252 C 829.013 -1.80381 -0.756447 0
M  V30 8253 C 829.393 -0.840906 -1.93628 0
M  V30 8254 O 828.741 0.117143 -2.282 0
M  V30 8255 C 828.951 -3.2807 -1.19043 0
M  V30 8256 C 830.299 -3.93025 -1.60676 0
M  V30 8257 O 831.323 -3.32213 -1.28503 0
M  V30 8258 O 830.182 -5.00092 -2.20386 0
M  V30 8259 H 827.276 -0.741737 -0.365725 0
M  V30 8260 H 829.822 -1.69699 -0.00693177 0
M  V30 8261 H 828.594 -3.89748 -0.348128 0
M  V30 8262 H 828.217 -3.43637 -1.99999 0
M  V30 8263 N 829.214 0.302327 -1.54673 0
M  V30 8264 C 830.442 1.05669 -1.77881 0
M  V30 8265 C 830.857 1.80983 -0.537648 0
M  V30 8266 O 830.214 1.7573 0.492467 0
M  V30 8267 C 830.265 2.03828 -2.98557 0
M  V30 8268 O 829.986 1.3157 -4.17877 0
M  V30 8269 C 831.487 2.91314 -3.34143 0
M  V30 8270 H 828.707 0.313436 -0.593295 0
M  V30 8271 H 831.251 0.342003 -2.0162 0
M  V30 8272 H 829.406 2.70801 -2.7703 0
M  V30 8273 H 829.82 1.97481 -4.85903 0
M  V30 8274 H 831.294 3.56042 -4.21827 0
M  V30 8275 H 831.771 3.59544 -2.52239 0
M  V30 8276 H 832.377 2.29874 -3.57824 0
M  V30 8277 N 830.692 1.47107 0.565454 0
M  V30 8278 C 831.624 1.55024 1.6882 0
M  V30 8279 C 832.637 0.4371 1.56822 0
M  V30 8280 O 833.826 0.706315 1.63931 0
M  V30 8281 C 830.926 1.43069 3.0722 0
M  V30 8282 C 830.099 2.68807 3.45053 0
M  V30 8283 C 829.158 2.50806 4.62583 0
M  V30 8284 O 828.184 3.24593 4.67577 0
M  V30 8285 N 829.386 1.58093 5.58558 0
M  V30 8286 H 832.151 2.51836 1.62477 0
M  V30 8287 H 829.712 1.43382 0.751885 0
M  V30 8288 H 831.704 1.28773 3.83666 0
M  V30 8289 H 830.274 0.543721 3.07835 0
M  V30 8290 H 829.494 2.97923 2.58138 0
M  V30 8291 H 830.782 3.52298 3.67101 0
M  V30 8292 H 830.18 0.972807 5.57273 0
M  V30 8293 H 828.737 1.49753 6.34364 0
M  V30 8294 N 832.17 -0.811516 1.35101 0
M  V30 8295 C 833.1 -1.9378 1.30275 0
M  V30 8296 C 834.081 -1.69165 0.178075 0
M  V30 8297 O 835.266 -1.90599 0.372256 0
M  V30 8298 C 832.396 -3.30439 1.06899 0
M  V30 8299 C 831.35 -3.69523 2.15955 0
M  V30 8300 C 830.676 -5.0429 1.77751 0
M  V30 8301 C 831.976 -3.80419 3.57881 0
M  V30 8302 H 833.67 -1.98075 2.24514 0
M  V30 8303 H 831.216 -0.951586 1.08078 0
M  V30 8304 H 833.169 -4.08828 1.02164 0
M  V30 8305 H 831.893 -3.26473 0.0910462 0
M  V30 8306 H 830.552 -2.93416 2.19778 0
M  V30 8307 H 830.2 -4.96823 0.785876 0
M  V30 8308 H 829.9 -5.31411 2.5075 0
M  V30 8309 H 831.424 -5.85125 1.74533 0
M  V30 8310 H 832.838 -4.49051 3.56407 0
M  V30 8311 H 831.235 -4.19005 4.29598 0
M  V30 8312 H 832.305 -2.82105 3.94391 0
M  V30 8313 N 833.648 -1.19017 -1.03309 0
M  V30 8314 C 834.895 -0.990214 -1.76638 0
M  V30 8315 C 835.223 0.479435 -1.88498 0
M  V30 8316 O 834.478 1.37223 -1.39529 0
M  V30 8317 C 834.777 -1.59927 -3.19622 0
M  V30 8318 C 834.443 -3.09632 -3.27779 0
M  V30 8319 C 833.105 -3.50491 -3.29712 0
M  V30 8320 C 835.457 -4.05644 -3.27264 0
M  V30 8321 C 832.785 -4.85921 -3.28782 0
M  V30 8322 C 835.137 -5.41 -3.27875 0
M  V30 8323 C 833.801 -5.81295 -3.28104 0
M  V30 8324 H 833.071 -0.362345 -0.646364 0
M  V30 8325 H 835.718 -1.48197 -1.21284 0
M  V30 8326 H 834.023 -1.0297 -3.78027 0
M  V30 8327 H 835.72 -1.41989 -3.7502 0
M  V30 8328 H 832.31 -2.77073 -3.26999 0
M  V30 8329 H 836.494 -3.75124 -3.24955 0
M  V30 8330 H 831.75 -5.16427 -3.27281 0
M  V30 8331 H 835.924 -6.15157 -3.26428 0
M  V30 8332 H 833.551 -6.86211 -3.27138 0
M  V30 8333 N 835.127 1.22348 -0.993418 0
M  V30 8334 C 836.09 2.22522 -0.549251 0
M  V30 8335 C 837.09 1.56529 0.368164 0
M  V30 8336 O 838.28 1.73463 0.16005 0
M  V30 8337 C 835.412 3.40307 0.201037 0
M  V30 8338 H 836.605 2.63332 -1.43515 0
M  V30 8339 H 834.158 1.35407 -0.78068 0
M  V30 8340 H 834.893 3.0497 1.10289 0
M  V30 8341 H 834.678 3.8942 -0.457685 0
M  V30 8342 H 836.168 4.14597 0.499946 0
M  V30 8343 N 836.605 0.766683 1.37694 0
M  V30 8344 C 837.515 0.150158 2.34119 0
M  V30 8345 C 838.531 -0.685513 1.59927 0
M  V30 8346 O 839.707 -0.606616 1.92047 0
M  V30 8347 C 836.772 -0.722562 3.39087 0
M  V30 8348 C 835.833 0.128983 4.29106 0
M  V30 8349 C 835.066 -0.702178 5.29061 0
M  V30 8350 O 835.289 -1.93954 5.36412 0
M  V30 8351 O 834.223 -0.114056 6.01792 0
M  V30 8352 H 838.049 0.946829 2.88563 0
M  V30 8353 H 835.634 0.527765 1.39768 0
M  V30 8354 H 837.516 -1.22095 4.03325 0
M  V30 8355 H 836.191 -1.49751 2.86978 0
M  V30 8356 H 835.098 0.673612 3.67985 0
M  V30 8357 H 836.431 0.866892 4.84506 0
M  V30 8358 N 838.083 -1.48885 0.516809 0
M  V30 8359 C 839.313 -2.06592 -0.018375 0
M  V30 8360 C 839.721 -1.37543 -1.29917 0
M  V30 8361 O 839.064 -0.452527 -1.78039 0
M  V30 8362 C 839.126 -3.58016 -0.326315 0
M  V30 8363 C 838.79 -4.48853 0.859072 0
M  V30 8364 C 839.787 -4.89422 1.75391 0
M  V30 8365 C 837.472 -4.90937 1.06235 0
M  V30 8366 C 839.466 -5.70831 2.83604 0
M  V30 8367 C 837.153 -5.72119 2.14763 0
M  V30 8368 C 838.151 -6.11972 3.03281 0
M  V30 8369 O 837.839 -6.91527 4.09934 0
M  V30 8370 H 837.571 -0.675559 0.0244023 0
M  V30 8371 H 840.125 -1.92442 0.718005 0
M  V30 8372 H 838.355 -3.70231 -1.1165 0
M  V30 8373 H 840.044 -3.97898 -0.801999 0
M  V30 8374 H 840.81 -4.57542 1.60875 0
M  V30 8375 H 836.689 -4.59409 0.382677 0
M  V30 8376 H 840.233 -6.01857 3.52724 0
M  V30 8377 H 836.13 -6.03412 2.29268 0
M  V30 8378 H 836.898 -7.0986 4.07482 0
M  V30 8379 N 839.561 -0.251338 -1.55583 0
M  V30 8380 C 840.524 0.63305 -2.20284 0
M  V30 8381 C 841.524 1.09941 -1.17344 0
M  V30 8382 O 842.714 1.00341 -1.42399 0
M  V30 8383 C 839.846 1.8706 -2.84993 0
M  V30 8384 H 841.039 0.0684846 -2.99822 0
M  V30 8385 H 838.592 -0.00181653 -1.563 0
M  V30 8386 H 839.327 2.47629 -2.09405 0
M  V30 8387 H 839.112 1.54436 -3.60405 0
M  V30 8388 H 840.602 2.50004 -3.34496 0
M  V30 8389 N 841.039 1.57585 0.0217189 0
M  V30 8390 C 841.989 2.03506 1.02807 0
M  V30 8391 C 842.973 0.925716 1.31603 0
M  V30 8392 O 844.165 1.18958 1.31065 0
M  V30 8393 C 841.294 2.52407 2.32693 0
M  V30 8394 C 840.38 3.70176 2.06955 0
M  V30 8395 N 840.771 4.82641 1.513 0
M  V30 8396 C 839.069 3.77691 2.37204 0
M  V30 8397 C 839.77 5.64218 1.41536 0
M  V30 8398 N 838.746 5.09557 1.89348 0
M  V30 8399 H 842.548 2.87878 0.591899 0
M  V30 8400 H 840.062 1.60793 0.227875 0
M  V30 8401 H 842.059 2.83569 3.05605 0
M  V30 8402 H 840.719 1.69444 2.76982 0
M  V30 8403 H 841.73 5.03931 1.19472 0
M  V30 8404 H 838.407 3.05542 2.84517 0
M  V30 8405 H 839.797 6.64576 0.989333 0
M  V30 8406 N 842.517 -0.29412 1.54831 0
M  V30 8407 C 843.427 -1.3854 1.89325 0
M  V30 8408 C 844.443 -1.55127 0.788133 0
M  V30 8409 O 845.619 -1.6966 1.08524 0
M  V30 8410 C 842.684 -2.72809 2.13954 0
M  V30 8411 C 841.745 -2.65148 3.37631 0
M  V30 8412 C 840.978 -3.93014 3.61076 0
M  V30 8413 O 841.201 -4.927 2.87406 0
M  V30 8414 O 840.135 -3.94491 4.54599 0
M  V30 8415 H 843.961 -1.12289 2.82179 0
M  V30 8416 H 841.546 -0.490793 1.41108 0
M  V30 8417 H 843.428 -3.52238 2.31315 0
M  V30 8418 H 842.103 -2.9889 1.24285 0
M  V30 8419 H 841.01 -1.84168 3.25627 0
M  V30 8420 H 842.343 -2.4402 4.27452 0
M  V30 8421 N 843.995 -1.47404 -0.557645 0
M  V30 8422 C 845.411 -1.32913 -0.88353 0
M  V30 8423 C 845.611 -0.31929 -1.98954 0
M  V30 8424 O 844.667 0.26934 -2.51059 0
M  V30 8425 C 845.98 -2.72229 -1.27718 0
M  V30 8426 C 847.528 -2.8051 -1.38863 0
M  V30 8427 C 848.003 -4.20466 -1.81583 0
M  V30 8428 N 849.494 -4.23005 -1.88735 0
M  V30 8429 C 850.229 -5.2821 -2.23118 0
M  V30 8430 N 849.725 -6.4372 -2.56117 0
M  V30 8431 N 851.518 -5.15588 -2.23888 0
M  V30 8432 H 843.669 -2.11698 0.172557 0
M  V30 8433 H 845.932 -0.947889 0.0145334 0
M  V30 8434 H 845.638 -3.47556 -0.538329 0
M  V30 8435 H 845.512 -3.03971 -2.23342 0
M  V30 8436 H 847.899 -2.05457 -2.11829 0
M  V30 8437 H 847.98 -2.52423 -0.414274 0
M  V30 8438 H 847.624 -4.96025 -1.09187 0
M  V30 8439 H 847.554 -4.45977 -2.80021 0
M  V30 8440 H 850.045 -3.39674 -1.65621 0
M  V30 8441 H 850.358 -7.19754 -2.81378 0
M  V30 8442 H 848.703 -6.47041 -2.53698 0
M  V30 8443 H 851.894 -4.24374 -1.97546 0
M  V30 8444 H 852.067 -5.97685 -2.50353 0
M  V30 8445 N 845.473 0.80434 -1.35529 0
M  V30 8446 C 846.383 1.94784 -1.30753 0
M  V30 8447 C 847.399 1.72703 -0.212071 0
M  V30 8448 O 848.575 1.96494 -0.441841 0
M  V30 8449 C 845.64 3.29406 -1.08133 0
M  V30 8450 C 844.701 3.64367 -2.27013 0
M  V30 8451 C 843.934 4.92566 -2.05463 0
M  V30 8452 O 844.157 5.61166 -1.02222 0
M  V30 8453 O 843.091 5.25838 -2.92879 0
M  V30 8454 H 846.917 2.01761 -2.26994 0
M  V30 8455 H 844.502 0.942448 -1.15924 0
M  V30 8456 H 846.384 4.09995 -0.973756 0
M  V30 8457 H 845.059 3.23355 -0.149444 0
M  V30 8458 H 843.966 2.84146 -2.43335 0
M  V30 8459 H 845.299 3.75125 -3.18656 0
M  V30 8460 N 846.951 1.19563 1.02676 0
M  V30 8461 C 848.181 1.0234 1.79472 0
M  V30 8462 C 848.589 -0.430891 1.84228 0
M  V30 8463 O 847.932 -1.31106 1.28674 0
M  V30 8464 C 847.994 1.51901 3.25832 0
M  V30 8465 C 847.658 3.00045 3.44706 0
M  V30 8466 C 848.655 3.9779 3.34752 0
M  V30 8467 C 846.34 3.38784 3.70851 0
M  V30 8468 C 848.334 5.32267 3.50672 0
M  V30 8469 C 846.021 4.73419 3.86416 0
M  V30 8470 C 847.019 5.69969 3.7633 0
M  V30 8471 O 846.707 7.02165 3.91432 0
M  V30 8472 H 846.439 0.360936 0.571578 0
M  V30 8473 H 848.993 1.58863 1.30198 0
M  V30 8474 H 847.223 0.897546 3.7614 0
M  V30 8475 H 848.912 1.30853 3.84229 0
M  V30 8476 H 849.678 3.69207 3.14502 0
M  V30 8477 H 845.557 2.64183 3.77794 0
M  V30 8478 H 849.101 6.07612 3.42715 0
M  V30 8479 H 844.998 5.01697 4.06165 0
M  V30 8480 H 845.766 7.09268 4.08511 0
M  V30 8481 N 848.429 -1.21819 0.999893 0
M  V30 8482 C 849.339 -2.27691 0.565159 0
M  V30 8483 C 850.355 -1.69587 -0.389398 0
M  V30 8484 O 851.531 -1.99786 -0.254499 0
M  V30 8485 C 848.596 -3.46537 -0.106432 0
M  V30 8486 C 847.657 -4.19932 0.891964 0
M  V30 8487 C 846.89 -5.33103 0.252327 0
M  V30 8488 O 847.113 -5.62398 -0.952103 0
M  V30 8489 O 846.047 -5.94184 0.960698 0
M  V30 8490 H 849.873 -2.67059 1.44613 0
M  V30 8491 H 847.458 -1.28119 0.768499 0
M  V30 8492 H 849.34 -4.18631 -0.482301 0
M  V30 8493 H 848.015 -3.09079 -0.961865 0
M  V30 8494 H 846.922 -3.5008 1.3189 0
M  V30 8495 H 848.255 -4.61287 1.71682 0
M  V30 8496 N 849.908 -0.773975 -1.37286 0
M  V30 8497 C 851.185 -0.263942 -1.93811 0
M  V30 8498 C 851.565 1.24138 -1.70743 0
M  V30 8499 O 850.913 2.02557 -1.05749 0
M  V30 8500 C 851.123 -0.639753 -3.43086 0
M  V30 8501 C 852.471 -0.610796 -4.20184 0
M  V30 8502 O 853.495 -0.579278 -3.51458 0
M  V30 8503 O 852.354 -0.639862 -5.42741 0
M  V30 8504 H 849.448 -0.0614331 -0.824715 0
M  V30 8505 H 851.994 -0.855477 -1.46559 0
M  V30 8506 H 850.766 -1.67856 -3.53469 0
M  V30 8507 H 850.389 -0.0212827 -3.97594 0
M  V30 8508 N 851.386 1.48609 -0.524698 0
M  V30 8509 C 852.663 1.95454 0.075465 0
M  V30 8510 C 853.043 1.46682 1.51814 0
M  V30 8511 O 852.391 0.690975 2.17802 0
M  V30 8512 C 852.601 3.48981 -0.0363273 0
M  V30 8513 C 853.949 4.24414 0.125624 0
M  V30 8514 O 854.973 3.5618 0.0377239 0
M  V30 8515 O 853.832 5.45625 0.309104 0
M  V30 8516 H 850.926 0.822902 0.0822256 0
M  V30 8517 H 853.472 1.59153 -0.588921 0
M  V30 8518 H 852.244 3.77185 -1.04149 0
M  V30 8519 H 851.867 3.91963 0.667146 0
M  V30 8520 N 852.864 0.259585 1.55447 0
M  V30 8521 C 854.092 -0.365392 2.03648 0
M  V30 8522 C 854.507 -1.50613 1.13847 0
M  V30 8523 O 853.864 -1.81837 0.155414 0
M  V30 8524 C 853.915 -0.861172 3.51093 0
M  V30 8525 O 853.636 0.234121 4.37474 0
M  V30 8526 C 855.137 -1.55555 4.15111 0
M  V30 8527 H 852.357 -0.0853439 0.66555 0
M  V30 8528 H 854.901 0.387151 2.00802 0
M  V30 8529 H 853.056 -1.56385 3.54433 0
M  V30 8530 H 853.47 -0.1444 5.24301 0
M  V30 8531 H 854.944 -1.85403 5.19932 0
M  V30 8532 H 855.421 -2.48185 3.62355 0
M  V30 8533 H 856.027 -0.89712 4.15731 0
M  V30 8534 N 854.342 -1.57594 -0.0133615 0
M  V30 8535 C 855.274 -2.04402 -1.03695 0
M  V30 8536 C 856.287 -0.959546 -1.31516 0
M  V30 8537 O 857.476 -1.23659 -1.28727 0
M  V30 8538 C 854.576 -2.41766 -2.37491 0
M  V30 8539 C 853.749 -3.72785 -2.28802 0
M  V30 8540 C 852.808 -3.97165 -3.45176 0
M  V30 8541 O 851.834 -4.68013 -3.23963 0
M  V30 8542 N 853.036 -3.44021 -4.67579 0
M  V30 8543 H 855.801 -2.92833 -0.637874 0
M  V30 8544 H 853.362 -1.60647 -0.20101 0
M  V30 8545 H 855.354 -2.55201 -3.14093 0
M  V30 8546 H 853.924 -1.58924 -2.69188 0
M  V30 8547 H 853.144 -3.69555 -1.37197 0
M  V30 8548 H 854.432 -4.58704 -2.20154 0
M  V30 8549 H 853.83 -2.86623 -4.87713 0
M  V30 8550 H 852.387 -3.62808 -5.41492 0
M  V30 8551 N 855.82 0.285905 -1.54985 0
M  V30 8552 C 857.097 1.0397 -1.65679 0
M  V30 8553 C 857.477 2.04725 -0.514851 0
M  V30 8554 O 856.825 2.23257 0.486663 0
M  V30 8555 C 857.035 1.70807 -3.04345 0
M  V30 8556 C 858.383 2.22447 -3.61666 0
M  V30 8557 O 859.407 1.80815 -3.06895 0
M  V30 8558 O 858.266 2.98773 -4.57599 0
M  V30 8559 H 855.36 0.481473 -0.672394 0
M  V30 8560 H 857.906 0.282789 -1.67327 0
M  V30 8561 H 856.678 0.977271 -3.789 0
M  V30 8562 H 856.301 2.53217 -3.06541 0
M  V30 8563 N 857.298 1.47698 0.54982 0
M  V30 8564 C 858.228 1.63622 1.66583 0
M  V30 8565 C 859.209 0.485477 1.63025 0
M  V30 8566 O 860.394 0.715692 1.80531 0
M  V30 8567 C 857.524 1.65721 3.05211 0
M  V30 8568 C 856.478 2.80097 3.2362 0
M  V30 8569 C 855.804 2.67272 4.63109 0
M  V30 8570 C 857.104 4.21612 3.08286 0
M  V30 8571 H 858.798 2.57049 1.53512 0
M  V30 8572 H 856.344 1.23705 0.737099 0
M  V30 8573 H 858.297 1.75451 3.83138 0
M  V30 8574 H 857.021 0.688593 3.19258 0
M  V30 8575 H 855.68 2.69889 2.48104 0
M  V30 8576 H 855.328 1.68422 4.73965 0
M  V30 8577 H 855.028 3.44008 4.76374 0
M  V30 8578 H 856.552 2.78942 5.43161 0
M  V30 8579 H 857.966 4.32758 3.76024 0
M  V30 8580 H 856.363 4.99193 3.33057 0
M  V30 8581 H 857.433 4.39462 2.04942 0
M  V30 8582 N 858.776 -0.797141 1.35954 0
M  V30 8583 C 860.004 -1.5858 1.32891 0
M  V30 8584 C 860.419 -1.88578 -0.0915564 0
M  V30 8585 O 859.776 -1.49532 -1.04625 0
M  V30 8586 C 859.827 -2.91143 2.14284 0
M  V30 8587 O 859.548 -2.62442 3.50793 0
M  V30 8588 C 861.049 -3.85476 2.18914 0
M  V30 8589 H 858.269 -0.492111 0.456144 0
M  V30 8590 H 860.813 -0.98994 1.78943 0
M  V30 8591 H 858.968 -3.47219 1.71807 0
M  V30 8592 H 859.382 -3.4715 3.93175 0
M  V30 8593 H 860.856 -4.75574 2.80238 0
M  V30 8594 H 861.333 -4.22758 1.19047 0
M  V30 8595 H 861.939 -3.35334 2.61593 0
M  V30 8596 N 860.254 -1.20106 -1.0204 0
M  V30 8597 C 861.187 -0.889795 -2.10138 0
M  V30 8598 C 862.165 0.156595 -1.61844 0
M  V30 8599 O 863.349 0.0310192 -1.88474 0
M  V30 8600 C 860.476 -0.333227 -3.37057 0
M  V30 8601 C 859.522 -1.36001 -4.04235 0
M  V30 8602 S 860.355 -2.92366 -4.48645 0
M  V30 8603 C 861.511 -2.38274 -5.78771 0
M  V30 8604 H 861.744 -1.80523 -2.36217 0
M  V30 8605 H 859.277 -1.02912 -1.15102 0
M  V30 8606 H 861.235 -0.0186507 -4.10496 0
M  V30 8607 H 859.896 0.560652 -3.09056 0
M  V30 8608 H 859.089 -0.919874 -4.95534 0
M  V30 8609 H 858.691 -1.62186 -3.37004 0
M  V30 8610 H 860.983 -1.77799 -6.53754 0
M  V30 8611 H 861.926 -3.27955 -6.27576 0
M  V30 8612 H 862.334 -1.8054 -5.34851 0
M  V30 8613 N 861.732 1.21287 -1.00634 0
M  V30 8614 C 862.957 1.94925 -0.708441 0
M  V30 8615 C 863.382 1.73659 0.722783 0
M  V30 8616 O 862.74 1.02429 1.49593 0
M  V30 8617 C 862.788 3.45377 -1.03667 0
M  V30 8618 O 861.892 4.12153 -0.142661 0
M  V30 8619 H 861.233 0.609338 -0.263824 0
M  V30 8620 H 863.763 1.54008 -1.34695 0
M  V30 8621 H 863.773 3.95954 -0.984086 0
M  V30 8622 H 862.448 3.6018 -2.0795 0
M  V30 8623 H 861.025 3.72048 -0.251888 0
M  V30 8624 N 863.21 0.781244 1.36873 0
M  V30 8625 C 864.14 0.188128 2.32741 0
M  V30 8626 C 865.121 -0.672326 1.56249 0
M  V30 8627 O 866.306 -0.607835 1.84442 0
M  V30 8628 C 863.436 -0.684341 3.40491 0
M  V30 8629 C 862.39 0.0755641 4.27933 0
M  V30 8630 C 861.716 -0.916968 5.26779 0
M  V30 8631 C 863.016 1.26006 5.06873 0
M  V30 8632 H 864.71 0.989016 2.82593 0
M  V30 8633 H 862.256 0.477038 1.35869 0
M  V30 8634 H 864.209 -1.10915 4.06541 0
M  V30 8635 H 862.933 -1.51785 2.89187 0
M  V30 8636 H 861.592 0.481258 3.63427 0
M  V30 8637 H 861.24 -1.74528 4.71751 0
M  V30 8638 H 860.94 -0.413 5.86147 0
M  V30 8639 H 862.464 -1.34052 5.95703 0
M  V30 8640 H 863.878 0.911425 5.66009 0
M  V30 8641 H 862.275 1.69676 5.75613 0
M  V30 8642 H 863.345 2.05948 4.38991 0
M  V30 8643 N 864.689 -1.48329 0.532571 0
M  V30 8644 C 865.637 -2.31336 -0.242133 0
M  V30 8645 C 866.631 -1.41391 -0.933006 0
M  V30 8646 O 867.837 -1.58284 -0.857096 0
M  V30 8647 H 864.212 -0.745724 -0.0969536 0
M  V30 8648 H 866.183 -2.94555 0.477504 0
M  V30 8649 C 864.932 -3.23501 -1.27446 0
M  V30 8650 H 864.255 -3.92659 -0.752261 0
M  V30 8651 H 865.695 -3.84461 -1.78789 0
M  V30 8652 C 864.154 -2.45288 -2.30944 0
M  V30 8653 O 864.684 -2.17955 -3.37429 0
M  V30 8654 N 862.89 -2.06737 -2.04226 0
M  V30 8655 H 862.437 -2.29166 -1.17647 0
M  V30 8656 H 862.395 -1.54719 -2.73696 0
M  V30 8657 N 866.167 -0.267825 -1.55308 0
M  V30 8658 C 867.392 0.357487 -2.04296 0
M  V30 8659 C 867.817 1.49222 -1.14518 0
M  V30 8660 O 867.175 1.80741 -0.142292 0
M  V30 8661 C 867.223 0.822899 -3.51085 0
M  V30 8662 O 866.327 1.93078 -3.6441 0
M  V30 8663 H 865.668 0.075025 -0.659748 0
M  V30 8664 H 868.198 -0.399996 -2.00652 0
M  V30 8665 H 868.208 1.12059 -3.92309 0
M  V30 8666 H 866.883 -0.0073562 -4.15899 0
M  V30 8667 H 865.46 1.63618 -3.35087 0
M  V30 8668 N 867.645 1.57599 0.00500368 0
M  V30 8669 C 868.575 2.11143 0.99705 0
M  V30 8670 C 869.556 1.0194 1.3617 0
M  V30 8671 O 870.741 1.29596 1.44632 0
M  V30 8672 C 867.871 2.61062 2.2905 0
M  V30 8673 C 866.825 3.74745 2.0676 0
M  V30 8674 C 866.151 4.10961 3.42075 0
M  V30 8675 C 867.451 5.02222 1.43424 0
M  V30 8676 H 869.145 2.94281 0.551251 0
M  V30 8677 H 866.691 1.41565 0.263715 0
M  V30 8678 H 868.644 2.97146 2.98801 0
M  V30 8679 H 867.368 1.75038 2.75734 0
M  V30 8680 H 866.027 3.39047 1.39436 0
M  V30 8681 H 865.675 3.21968 3.86453 0
M  V30 8682 H 865.375 4.87549 3.27979 0
M  V30 8683 H 866.899 4.49599 4.1315 0
M  V30 8684 H 868.313 5.36109 2.03125 0
M  V30 8685 H 866.71 5.83581 1.39831 0
M  V30 8686 H 867.78 4.83224 0.40285 0
M  V30 8687 N 869.123 -0.277682 1.55134 0
M  V30 8688 C 870.534 -0.849063 1.66276 0
M  V30 8689 C 870.885 -1.87223 0.5867 0
M  V30 8690 O 870.01 -2.14676 -0.272635 0
M  V30 8691 C 870.605 -1.54681 3.01429 0
M  V30 8692 C 869.164 -2.06628 3.14614 0
M  V30 8693 C 868.311 -0.906748 2.62056 0
M  V30 8694 H 871.262 -0.0541357 1.58608 0
M  V30 8695 H 871.283 -2.41356 2.94156 0
M  V30 8696 H 870.795 -0.80189 3.79725 0
M  V30 8697 H 868.896 -2.84095 2.41082 0
M  V30 8698 H 869.009 -2.2848 4.2111 0
M  V30 8699 H 867.373 -1.29882 2.19095 0
M  V30 8700 H 868.156 -0.175414 3.42852 0
M  V30 8701 N 870.601 -1.47988 -0.541979 0
M  V30 8702 C 871.849 -1.55086 -1.29587 0
M  V30 8703 C 872.17 -0.221304 -1.9374 0
M  V30 8704 O 871.44 0.756128 -1.80719 0
M  V30 8705 H 870.02 -0.571307 -0.481266 0
M  V30 8706 H 872.682 -1.8438 -0.631675 0
M  V30 8707 H 871.778 -2.32556 -2.08144 0
M  V30 8708 N 872.079 0.78992 -1.36375 0
M  V30 8709 C 873.027 1.92394 -1.30719 0
M  V30 8710 C 874.021 1.68226 -0.199076 0
M  V30 8711 O 875.227 1.76239 -0.366051 0
M  V30 8712 H 871.602 0.632382 -0.406936 0
M  V30 8713 H 873.573 1.94282 -2.26488 0
M  V30 8714 C 872.322 3.2941 -1.11284 0
M  V30 8715 H 871.645 3.48573 -1.95798 0
M  V30 8716 H 873.085 4.09111 -1.11373 0
M  V30 8717 C 871.544 3.36405 0.182543 0
M  V30 8718 O 872.074 3.84206 1.17255 0
M  V30 8719 N 870.28 2.89712 0.227046 0
M  V30 8720 H 869.827 2.51004 -0.579217 0
M  V30 8721 H 869.785 2.94773 1.09344 0
M  V30 8722 N 873.557 1.20646 1.01402 0
M  V30 8723 C 874.973 0.961866 1.27359 0
M  V30 8724 C 875.173 -0.357083 1.98311 0
M  V30 8725 O 874.229 -1.08498 2.28001 0
M  V30 8726 C 875.542 2.14627 2.10609 0
M  V30 8727 C 877.09 2.18753 2.23866 0
M  V30 8728 C 877.565 3.36686 3.10494 0
M  V30 8729 N 879.056 3.36716 3.18083 0
M  V30 8730 C 879.791 4.24615 3.85343 0
M  V30 8731 N 879.287 5.22697 4.54708 0
M  V30 8732 N 881.08 4.12449 3.81893 0
M  V30 8733 H 873.231 2.05481 0.537721 0
M  V30 8734 H 875.494 0.899292 0.299963 0
M  V30 8735 H 875.2 3.10159 1.65814 0
M  V30 8736 H 875.074 2.12935 3.11349 0
M  V30 8737 H 877.461 1.23782 2.67885 0
M  V30 8738 H 877.542 2.24492 1.22626 0
M  V30 8739 H 877.186 4.31945 2.67181 0
M  V30 8740 H 877.116 3.28185 4.11828 0
M  V30 8741 H 879.607 2.65728 2.68695 0
M  V30 8742 H 879.92 5.86087 5.03708 0
M  V30 8743 H 878.265 5.26631 4.53525 0
M  V30 8744 H 881.456 3.35091 3.26851 0
M  V30 8745 H 881.629 4.81162 4.34035 0
M  V30 8746 N 875.035 -1.20752 1.01276 0
M  V30 8747 C 876.282 -1.90021 0.699887 0
M  V30 8748 C 876.61 -1.78604 -0.770113 0
M  V30 8749 O 875.865 -1.16195 -1.57471 0
M  V30 8750 C 876.164 -3.40808 1.07633 0
M  V30 8751 C 875.83 -3.72423 2.54189 0
M  V30 8752 C 874.492 -3.80762 2.94234 0
M  V30 8753 C 876.844 -3.87025 3.49086 0
M  V30 8754 C 874.172 -4.01158 4.28123 0
M  V30 8755 C 876.524 -4.0893 4.82658 0
M  V30 8756 C 875.188 -4.15498 5.22415 0
M  V30 8757 H 874.458 -0.695335 0.256107 0
M  V30 8758 H 877.105 -1.43096 1.27263 0
M  V30 8759 H 875.41 -3.89521 0.421944 0
M  V30 8760 H 877.107 -3.92693 0.811997 0
M  V30 8761 H 873.697 -3.66529 2.22158 0
M  V30 8762 H 877.881 -3.79942 3.19309 0
M  V30 8763 H 873.137 -4.04476 4.58486 0
M  V30 8764 H 877.311 -4.19172 5.56119 0
M  V30 8765 H 874.938 -4.31055 6.26176 0
M  V30 8766 N 876.513 -0.788492 -1.36457 0
M  V30 8767 C 877.741 -0.372365 -2.03522 0
M  V30 8768 C 878.156 1.01093 -1.59454 0
M  V30 8769 O 877.513 1.64824 -0.783535 0
M  V30 8770 C 877.564 -0.425435 -3.58988 0
M  V30 8771 O 877.285 -1.75418 -4.01448 0
M  V30 8772 C 878.786 0.000180167 -4.433 0
M  V30 8773 H 876.006 -0.1536 -0.653183 0
M  V30 8774 H 878.55 -1.06708 -1.74452 0
M  V30 8775 H 876.705 0.220856 -3.8677 0
M  V30 8776 H 877.119 -1.70437 -4.96036 0
M  V30 8777 H 878.593 -0.0880919 -5.5193 0
M  V30 8778 H 879.07 1.05269 -4.26398 0
M  V30 8779 H 879.676 -0.618563 -4.20778 0
M  V30 8780 N 877.991 1.48044 -0.54043 0
M  V30 8781 C 878.921 2.32597 0.205178 0
M  V30 8782 C 879.902 1.42748 0.925041 0
M  V30 8783 O 881.087 1.71624 0.908784 0
M  V30 8784 C 878.217 3.24175 1.24612 0
M  V30 8785 C 877.171 4.23131 0.64376 0
M  V30 8786 C 876.497 5.03915 1.78812 0
M  V30 8787 C 877.797 5.20831 -0.39144 0
M  V30 8788 H 879.491 2.95184 -0.500676 0
M  V30 8789 H 877.037 1.41948 -0.242225 0
M  V30 8790 H 878.99 3.82158 1.77576 0
M  V30 8791 H 877.714 2.59608 1.98169 0
M  V30 8792 H 876.373 3.66349 0.135554 0
M  V30 8793 H 876.021 4.35765 2.51232 0
M  V30 8794 H 875.721 5.709 1.39094 0
M  V30 8795 H 877.245 5.64753 2.32134 0
M  V30 8796 H 878.659 5.73277 0.0515064 0
M  V30 8797 H 877.056 5.95926 -0.706569 0
M  V30 8798 H 878.126 4.6733 -1.29345 0
M  V30 8799 N 879.47 0.276058 1.55163 0
M  V30 8800 C 880.38 -0.621066 2.2623 0
M  V30 8801 C 881.396 -1.16931 1.28853 0
M  V30 8802 O 882.572 -1.1994 1.61791 0
M  V30 8803 C 879.637 -1.78824 2.97023 0
M  V30 8804 C 878.698 -1.27657 4.09881 0
M  V30 8805 C 877.931 -2.38812 4.77289 0
M  V30 8806 O 878.154 -3.58188 4.43912 0
M  V30 8807 O 877.088 -2.06915 5.65217 0
M  V30 8808 H 880.914 -0.0453346 3.03666 0
M  V30 8809 H 878.499 0.0434275 1.49337 0
M  V30 8810 H 880.381 -2.46877 3.41511 0
M  V30 8811 H 879.056 -2.35104 2.22503 0
M  V30 8812 H 877.963 -0.56248 3.69847 0
M  V30 8813 H 879.296 -0.759509 4.86305 0
M  V30 8814 N 880.948 -1.576 0.00335426 0
M  V30 8815 C 882.196 -1.90336 -0.679446 0
M  V30 8816 C 882.517 -0.877777 -1.74127 0
M  V30 8817 O 881.787 0.0843585 -1.95718 0
M  V30 8818 H 880.367 -0.702509 -0.253948 0
M  V30 8819 H 883.029 -1.94848 0.0450731 0
M  V30 8820 H 882.125 -2.90197 -1.14857 0
M  V30 8821 N 882.426 0.269451 -1.5528 0
M  V30 8822 C 883.656 1.01724 -1.79821 0
M  V30 8823 C 884.064 1.80298 -0.573532 0
M  V30 8824 O 883.407 1.77666 0.466963 0
M  V30 8825 C 883.469 2.02043 -2.97353 0
M  V30 8826 C 883.133 1.42375 -4.34256 0
M  V30 8827 C 884.13 0.837611 -5.13108 0
M  V30 8828 C 881.815 1.44988 -4.8092 0
M  V30 8829 C 883.809 0.285557 -6.3676 0
M  V30 8830 C 881.496 0.893969 -6.04526 0
M  V30 8831 C 882.494 0.312809 -6.82283 0
M  V30 8832 O 882.182 -0.234582 -8.03558 0
M  V30 8833 H 881.914 0.30604 -0.602757 0
M  V30 8834 H 884.468 0.30454 -2.0313 0
M  V30 8835 H 882.698 2.77082 -2.69745 0
M  V30 8836 H 884.387 2.6298 -3.09187 0
M  V30 8837 H 885.153 0.81009 -4.78187 0
M  V30 8838 H 881.032 1.89162 -4.20403 0
M  V30 8839 H 884.576 -0.168696 -6.97396 0
M  V30 8840 H 880.473 0.918742 -6.38928 0
M  V30 8841 H 881.241 -0.124282 -8.18406 0
M  V30 8842 N 883.904 1.48273 0.534124 0
M  V30 8843 C 885.132 1.59734 1.31501 0
M  V30 8844 C 885.547 0.256047 1.87056 0
M  V30 8845 O 884.904 -0.754086 1.66192 0
M  V30 8846 C 884.955 2.64072 2.46877 0
M  V30 8847 O 884.676 3.92995 1.93613 0
M  V30 8848 C 886.177 2.85933 3.38758 0
M  V30 8849 H 883.397 0.538703 0.40005 0
M  V30 8850 H 885.941 1.9407 0.644762 0
M  V30 8851 H 884.096 2.32606 3.09795 0
M  V30 8852 H 884.51 4.50203 2.69106 0
M  V30 8853 H 885.984 3.62749 4.16073 0
M  V30 8854 H 886.461 1.94603 3.93734 0
M  V30 8855 H 887.067 3.18687 2.81636 0
M  V30 8856 N 885.382 -0.782676 1.36792 0
M  V30 8857 C 886.793 -1.35828 1.28092 0
M  V30 8858 C 887.144 -1.96052 -0.076315 0
M  V30 8859 O 886.269 -1.93042 -0.977935 0
M  V30 8860 C 886.864 -2.46949 2.31952 0
M  V30 8861 C 885.423 -3.00307 2.2692 0
M  V30 8862 C 884.57 -1.73436 2.16368 0
M  V30 8863 H 887.521 -0.583788 1.47572 0
M  V30 8864 H 887.542 -3.26144 1.95986 0
M  V30 8865 H 887.054 -2.03087 3.30722 0
M  V30 8866 H 885.155 -3.48571 1.31639 0
M  V30 8867 H 885.268 -3.56663 3.19887 0
M  V30 8868 H 883.632 -1.95934 1.62733 0
M  V30 8869 H 884.415 -1.31693 3.17036 0
M  V30 8870 N 886.86 -1.21182 -1.00761 0
M  V30 8871 C 887.792 -0.926523 -2.09638 0
M  V30 8872 C 888.805 0.0892511 -1.62555 0
M  V30 8873 O 889.994 -0.142915 -1.77927 0
M  V30 8874 C 887.094 -0.369175 -3.36883 0
M  V30 8875 C 886.267 -1.43866 -4.13063 0
M  V30 8876 C 885.326 -0.891015 -5.18601 0
M  V30 8877 O 884.352 -1.57384 -5.47009 0
M  V30 8878 N 885.554 0.295057 -5.7975 0
M  V30 8879 H 888.319 -1.8638 -2.34697 0
M  V30 8880 H 885.88 -1.11671 -1.17223 0
M  V30 8881 H 887.872 0.011534 -4.04698 0
M  V30 8882 H 886.442 0.472861 -3.09003 0
M  V30 8883 H 885.662 -1.99332 -3.40089 0
M  V30 8884 H 886.95 -2.15866 -4.60738 0
M  V30 8885 H 886.348 0.8669 -5.59018 0
M  V30 8886 H 884.905 0.617306 -6.4887 0
M  V30 8887 N 888.338 1.20213 -1.01915 0
M  V30 8888 C 889.615 1.85348 -0.62495 0
M  V30 8889 C 889.995 1.91101 0.896854 0
M  V30 8890 O 889.343 1.42075 1.78961 0
M  V30 8891 C 889.553 3.24849 -1.27571 0
M  V30 8892 C 890.901 4.01107 -1.39277 0
M  V30 8893 O 891.925 3.34211 -1.23212 0
M  V30 8894 O 890.784 5.20914 -1.6526 0
M  V30 8895 H 887.878 0.798303 -0.215965 0
M  V30 8896 H 890.424 1.27782 -1.11669 0
M  V30 8897 H 889.196 3.1544 -2.31545 0
M  V30 8898 H 888.819 3.90049 -0.77122 0
M  V30 8899 N 889.816 0.795718 1.36037 0
M  V30 8900 C 890.766 0.171437 2.27355 0
M  V30 8901 C 891.75 -0.648346 1.47259 0
M  V30 8902 O 892.942 -0.507386 1.69572 0
M  V30 8903 C 890.071 -0.687876 3.36338 0
M  V30 8904 C 889.157 0.141041 4.23865 0
M  V30 8905 N 889.548 1.19868 4.91391 0
M  V30 8906 C 887.846 -0.0791045 4.4593 0
M  V30 8907 C 888.547 1.70382 5.56188 0
M  V30 8908 N 887.523 1.01202 5.34097 0
M  V30 8909 H 891.325 0.980846 2.7705 0
M  V30 8910 H 888.839 0.635798 1.49437 0
M  V30 8911 H 890.836 -1.15107 4.00694 0
M  V30 8912 H 889.496 -1.49576 2.88196 0
M  V30 8913 H 890.507 1.58119 4.93172 0
M  V30 8914 H 887.184 -0.856993 4.0861 0
M  V30 8915 H 888.574 2.58715 6.20093 0
M  V30 8916 N 891.294 -1.47756 0.548274 0
M  V30 8917 C 892.224 -2.32702 -0.19284 0
M  V30 8918 C 893.205 -1.43237 -0.917457 0
M  V30 8919 O 894.39 -1.72103 -0.89967 0
M  V30 8920 C 891.52 -3.24831 -1.22891 0
M  V30 8921 C 890.474 -4.23466 -0.621312 0
M  V30 8922 C 889.8 -5.04856 -1.76137 0
M  V30 8923 C 891.1 -5.20616 0.419055 0
M  V30 8924 H 892.794 -2.94914 0.516323 0
M  V30 8925 H 890.34 -1.41818 0.24975 0
M  V30 8926 H 892.293 -3.83094 -1.75547 0
M  V30 8927 H 891.017 -2.60656 -1.9679 0
M  V30 8928 H 889.676 -3.66416 -0.116123 0
M  V30 8929 H 889.324 -4.37091 -2.48918 0
M  V30 8930 H 889.024 -5.71629 -1.36065 0
M  V30 8931 H 890.548 -5.65976 -2.29136 0
M  V30 8932 H 891.962 -5.73296 -0.0211034 0
M  V30 8933 H 890.359 -5.95543 0.738163 0
M  V30 8934 H 891.429 -4.66638 1.31822 0
M  V30 8935 N 892.772 -0.284283 -1.55015 0
M  V30 8936 C 893.72 0.615091 -2.2432 0
M  V30 8937 C 894.714 1.15051 -1.24337 0
M  V30 8938 O 895.92 1.10308 -1.4224 0
M  V30 8939 H 892.295 0.216927 -0.720033 0
M  V30 8940 H 894.266 0.00783216 -2.98399 0
M  V30 8941 C 893.015 1.78355 -2.98471 0
M  V30 8942 H 892.338 1.38076 -3.752 0
M  V30 8943 H 893.778 2.38927 -3.50271 0
M  V30 8944 C 892.237 2.67757 -2.04469 0
M  V30 8945 O 892.767 3.6838 -1.60185 0
M  V30 8946 N 890.973 2.35125 -1.70776 0
M  V30 8947 H 890.52 1.53346 -2.06985 0
M  V30 8948 H 890.478 2.95212 -1.08153 0
M  V30 8949 N 894.251 1.57596 -0.0117121 0
M  V30 8950 C 895.667 1.55837 0.344506 0
M  V30 8951 C 895.867 1.01557 1.74036 0
M  V30 8952 O 894.923 0.654563 2.43868 0
M  V30 8953 C 896.236 2.99973 0.209023 0
M  V30 8954 C 897.784 3.11717 0.283092 0
M  V30 8955 C 898.259 4.57659 0.176599 0
M  V30 8956 N 899.75 4.62608 0.234133 0
M  V30 8957 C 900.485 5.73132 0.175252 0
M  V30 8958 N 899.981 6.92768 0.0662888 0
M  V30 8959 N 901.774 5.61638 0.227972 0
M  V30 8960 H 893.925 1.91215 -0.924692 0
M  V30 8961 H 896.188 0.878807 -0.355531 0
M  V30 8962 H 895.894 3.4357 -0.751826 0
M  V30 8963 H 895.768 3.64075 0.98635 0
M  V30 8964 H 898.155 2.68043 1.23439 0
M  V30 8965 H 898.236 2.50369 -0.52431 0
M  V30 8966 H 897.88 5.02011 -0.771205 0
M  V30 8967 H 897.81 5.16967 1.00264 0
M  V30 8968 H 900.301 3.76549 0.319203 0
M  V30 8969 H 900.614 7.72795 0.0275765 0
M  V30 8970 H 898.959 6.94993 0.0317502 0
M  V30 8971 H 902.15 4.67063 0.311377 0
M  V30 8972 H 902.323 6.47754 0.178621 0
M  V30 8973 N 895.729 -0.261212 1.5542 0
M  V30 8974 C 896.975 -0.992699 1.76843 0
M  V30 8975 C 897.308 -1.8551 0.574428 0
M  V30 8976 O 896.583 -1.89739 -0.427713 0
M  V30 8977 C 896.866 -1.86532 3.08022 0
M  V30 8978 C 896.719 -1.03206 4.378 0
M  V30 8979 C 898.038 -2.85036 3.35324 0
M  V30 8980 H 895.157 -0.359473 0.643388 0
M  V30 8981 H 897.799 -0.264214 1.88154 0
M  V30 8982 H 895.949 -2.48644 2.9851 0
M  V30 8983 H 897.621 -0.430743 4.59285 0
M  V30 8984 H 895.864 -0.335911 4.32497 0
M  V30 8985 H 896.535 -1.6761 5.25938 0
M  V30 8986 H 899.011 -2.3306 3.44706 0
M  V30 8987 H 897.887 -3.43226 4.28354 0
M  V30 8988 H 898.148 -3.60768 2.55537 0
M  V30 8989 N 897.207 -1.48554 -0.526253 0
M  V30 8990 C 898.432 -1.60686 -1.31129 0
M  V30 8991 C 898.857 -0.268701 -1.86171 0
M  V30 8992 O 898.215 0.760167 -1.64594 0
M  V30 8993 C 898.263 -2.65938 -2.43536 0
M  V30 8994 O 897.367 -2.23356 -3.46678 0
M  V30 8995 H 896.708 -0.538691 -0.388211 0
M  V30 8996 H 899.238 -1.94567 -0.632826 0
M  V30 8997 H 899.248 -2.87327 -2.89668 0
M  V30 8998 H 897.923 -3.63085 -2.02835 0
M  V30 8999 H 896.5 -2.12196 -3.06639 0
M  V30 9000 N 898.685 0.775411 -1.37205 0
M  V30 9001 C 899.615 1.90258 -1.35367 0
M  V30 9002 C 900.596 1.68634 -0.222864 0
M  V30 9003 O 901.781 1.89545 -0.422659 0
M  V30 9004 C 898.911 3.27488 -1.15623 0
M  V30 9005 C 897.865 3.63668 -2.25676 0
M  V30 9006 C 897.191 4.994 -1.91059 0
M  V30 9007 C 898.491 3.70797 -3.67841 0
M  V30 9008 H 900.185 1.92053 -2.29687 0
M  V30 9009 H 897.731 0.922597 -1.10563 0
M  V30 9010 H 899.684 4.05976 -1.12968 0
M  V30 9011 H 898.408 3.26117 -0.177573 0
M  V30 9012 H 897.067 2.87486 -2.2748 0
M  V30 9013 H 896.715 4.94565 -0.917324 0
M  V30 9014 H 896.415 5.24576 -2.64751 0
M  V30 9015 H 897.939 5.80291 -1.89985 0
M  V30 9016 H 899.353 4.39444 -3.68187 0
M  V30 9017 H 897.75 4.07468 -4.40556 0
M  V30 9018 H 898.82 2.71549 -4.01732 0
M  V30 9019 N 900.163 1.21714 1.00117 0
M  V30 9020 C 901.411 1.03465 1.73607 0
M  V30 9021 C 901.732 -0.432295 1.90148 0
M  V30 9022 O 901.002 -1.31157 1.45515 0
M  V30 9023 H 899.582 0.379857 0.643209 0
M  V30 9024 H 902.244 1.53088 1.20624 0
M  V30 9025 H 901.34 1.50574 2.73375 0
M  V30 9026 N 901.641 -1.19671 1.02551 0
M  V30 9027 C 902.888 -1.89268 0.720002 0
M  V30 9028 C 903.216 -1.79411 -0.751127 0
M  V30 9029 O 902.471 -1.17859 -1.5623 0
M  V30 9030 C 902.77 -3.39647 1.11241 0
M  V30 9031 C 902.436 -3.69706 2.58125 0
M  V30 9032 C 901.098 -3.7762 2.98256 0
M  V30 9033 C 903.45 -3.83301 3.53171 0
M  V30 9034 C 900.778 -3.96594 4.32354 0
M  V30 9035 C 903.13 -4.03788 4.86968 0
M  V30 9036 C 901.794 -4.09934 5.26793 0
M  V30 9037 H 901.064 -0.692579 0.263467 0
M  V30 9038 H 903.711 -1.41738 1.28774 0
M  V30 9039 H 902.016 -3.89052 0.463234 0
M  V30 9040 H 903.713 -3.91809 0.853602 0
M  V30 9041 H 900.303 -3.64152 2.26033 0
M  V30 9042 H 904.487 -3.76534 3.2332 0
M  V30 9043 H 899.743 -3.9959 4.6275 0
M  V30 9044 H 903.917 -4.1325 5.60533 0
M  V30 9045 H 901.544 -4.24389 6.30712 0
M  V30 9046 N 903.119 -0.802921 -1.35613 0
M  V30 9047 C 904.344 -0.392846 -2.03645 0
M  V30 9048 C 904.769 0.987075 -1.6012 0
M  V30 9049 O 904.127 1.63849 -0.776101 0
M  V30 9050 C 904.175 -0.480208 -3.57388 0
M  V30 9051 O 903.279 0.507751 -4.09262 0
M  V30 9052 H 902.62 -0.16464 -0.643265 0
M  V30 9053 H 905.15 -1.08779 -1.73287 0
M  V30 9054 H 905.16 -0.348683 -4.06507 0
M  V30 9055 H 903.835 -1.48675 -3.88418 0
M  V30 9056 H 902.412 0.336769 -3.71376 0
M  V30 9057 N 904.597 1.47463 -0.556102 0
M  V30 9058 C 905.529 2.28046 0.22968 0
M  V30 9059 C 906.542 1.3694 0.880409 0
M  V30 9060 O 907.731 1.61773 0.754447 0
M  V30 9061 C 904.831 3.11165 1.34273 0
M  V30 9062 C 904.004 4.30225 0.789004 0
M  V30 9063 C 903.063 4.94948 1.78641 0
M  V30 9064 O 902.089 5.53372 1.33297 0
M  V30 9065 N 903.291 4.89543 3.11974 0
M  V30 9066 H 906.056 2.96125 -0.461558 0
M  V30 9067 H 903.617 1.5708 -0.392105 0
M  V30 9068 H 905.609 3.51331 2.00869 0
M  V30 9069 H 904.179 2.45337 1.93722 0
M  V30 9070 H 903.399 3.94163 -0.0536971 0
M  V30 9071 H 904.687 5.07238 0.398378 0
M  V30 9072 H 904.085 4.43275 3.51459 0
M  V30 9073 H 902.642 5.33732 3.74131 0
M  V30 9074 N 906.075 0.2925 1.54862 0
M  V30 9075 C 907.022 -0.587365 2.23201 0
M  V30 9076 C 907.992 -1.13623 1.21157 0
M  V30 9077 O 909.177 -1.18233 1.49752 0
M  V30 9078 C 906.317 -1.75745 2.96998 0
M  V30 9079 C 905.43 -1.24078 4.13798 0
M  V30 9080 C 904.565 -2.37405 4.75197 0
M  V30 9081 C 903.604 -1.82829 5.84157 0
M  V30 9082 N 902.741 -2.89696 6.39547 0
M  V30 9083 H 907.581 0.00202207 2.98 0
M  V30 9084 H 905.118 0.012766 1.47094 0
M  V30 9085 H 907.076 -2.44549 3.38011 0
M  V30 9086 H 905.706 -2.3186 2.24591 0
M  V30 9087 H 904.758 -0.445268 3.77785 0
M  V30 9088 H 906.07 -0.801186 4.92324 0
M  V30 9089 H 905.224 -3.14172 5.19019 0
M  V30 9090 H 903.963 -2.84688 3.95985 0
M  V30 9091 H 902.968 -1.04548 5.39768 0
M  V30 9092 H 904.193 -1.36461 6.65248 0
M  V30 9093 H 902.139 -3.36328 5.63222 0
M  V30 9094 H 902.056 -2.50206 7.13395 0
M  V30 9095 H 903.324 -3.66386 6.88027 0
M  V30 9096 N 907.553 -1.57587 0.0200696 0
M  V30 9097 C 908.483 -2.12702 -0.963333 0
M  V30 9098 C 909.464 -1.04094 -1.34531 0
M  V30 9099 O 910.649 -1.31881 -1.42552 0
M  V30 9100 C 907.779 -2.64673 -2.24868 0
M  V30 9101 C 906.733 -3.77987 -2.00772 0
M  V30 9102 C 906.059 -4.16351 -3.35494 0
M  V30 9103 C 907.359 -5.0444 -1.35416 0
M  V30 9104 H 909.053 -2.95121 -0.504363 0
M  V30 9105 H 906.599 -1.41966 -0.24116 0
M  V30 9106 H 908.552 -3.01862 -2.94036 0
M  V30 9107 H 907.276 -1.79403 -2.72914 0
M  V30 9108 H 905.935 -3.41223 -1.34025 0
M  V30 9109 H 905.583 -3.28075 -3.81282 0
M  V30 9110 H 905.283 -4.92705 -3.20181 0
M  V30 9111 H 906.807 -4.56115 -4.05945 0
M  V30 9112 H 908.221 -5.39273 -1.94571 0
M  V30 9113 H 906.618 -5.85732 -1.30529 0
M  V30 9114 H 907.688 -4.83803 -0.325923 0
M  V30 9115 N 909.032 0.252966 -1.55557 0
M  V30 9116 C 909.995 1.29645 -1.8901 0
M  V30 9117 C 910.995 1.41378 -0.766096 0
M  V30 9118 O 912.185 1.40183 -1.03414 0
M  V30 9119 C 909.317 2.67504 -2.11316 0
M  V30 9120 H 910.51 1.01202 -2.82309 0
M  V30 9121 H 908.063 0.491977 -1.48355 0
M  V30 9122 H 908.798 3.01095 -1.20466 0
M  V30 9123 H 908.583 2.6037 -2.93172 0
M  V30 9124 H 910.073 3.42861 -2.38403 0
M  V30 9125 N 910.51 1.48831 0.518367 0
M  V30 9126 C 911.921 1.50842 1.10016 0
M  V30 9127 C 912.272 0.284744 1.94123 0
M  V30 9128 O 911.397 -0.607088 2.0771 0
M  V30 9129 C 911.992 2.73329 2.00191 0
M  V30 9130 C 910.551 2.78175 2.53566 0
M  V30 9131 C 909.698 2.4452 1.30786 0
M  V30 9132 H 912.649 1.55779 0.303073 0
M  V30 9133 H 912.67 2.52506 2.84642 0
M  V30 9134 H 912.182 3.62374 1.3895 0
M  V30 9135 H 910.283 1.93368 3.18496 0
M  V30 9136 H 910.396 3.79905 2.91906 0
M  V30 9137 H 908.76 1.95924 1.62744 0
M  V30 9138 H 909.543 3.35819 0.712797 0
M  V30 9139 N 911.988 -0.768124 1.37614 0
M  V30 9140 C 912.898 -1.91249 1.35871 0
M  V30 9141 C 913.914 -1.7208 0.257786 0
M  V30 9142 O 915.09 -1.95253 0.493782 0
M  V30 9143 C 912.155 -3.26423 1.16829 0
M  V30 9144 C 911.216 -3.5822 2.36594 0
M  V30 9145 C 910.449 -4.86945 2.1845 0
M  V30 9146 O 910.672 -5.58258 1.17064 0
M  V30 9147 O 909.606 -5.17888 3.06718 0
M  V30 9148 H 913.432 -1.95671 2.32264 0
M  V30 9149 H 911.017 -0.911382 1.18382 0
M  V30 9150 H 912.899 -4.07269 1.08212 0
M  V30 9151 H 911.574 -3.22845 0.235123 0
M  V30 9152 H 910.481 -2.77594 2.50783 0
M  V30 9153 H 911.814 -3.66545 3.2849 0
M  V30 9154 N 913.466 -1.22244 -0.994698 0
M  V30 9155 C 914.396 -1.01513 -2.10279 0
M  V30 9156 C 915.377 0.0633365 -1.69982 0
M  V30 9157 O 916.562 -0.0985268 -1.9395 0
M  V30 9158 C 913.692 -0.59016 -3.42249 0
M  V30 9159 C 912.646 -1.61436 -3.96387 0
M  V30 9160 C 911.972 -1.04528 -5.24383 0
M  V30 9161 C 913.272 -3.00388 -4.27276 0
M  V30 9162 H 914.966 -1.94194 -2.2788 0
M  V30 9163 H 912.512 -0.935094 -1.09508 0
M  V30 9164 H 914.465 -0.432254 -4.19177 0
M  V30 9165 H 913.189 0.372308 -3.24471 0
M  V30 9166 H 911.848 -1.76001 -3.21589 0
M  V30 9167 H 911.496 -0.0742225 -5.02945 0
M  V30 9168 H 911.196 -1.72949 -5.61571 0
M  V30 9169 H 912.72 -0.898922 -6.03947 0
M  V30 9170 H 914.134 -2.89207 -4.95007 0
M  V30 9171 H 912.531 -3.65916 -4.75631 0
M  V30 9172 H 913.601 -3.50456 -3.35125 0
M  V30 9173 N 914.944 1.19125 -1.03184 0
M  V30 9174 C 916.169 1.93379 -0.749628 0
M  V30 9175 C 916.594 1.75153 0.685785 0
M  V30 9176 O 915.952 1.05579 1.47386 0
M  V30 9177 C 916 3.43101 -1.1097 0
M  V30 9178 O 915.104 4.11758 -0.230053 0
M  V30 9179 H 914.445 0.603605 -0.276689 0
M  V30 9180 H 916.975 1.51116 -1.37931 0
M  V30 9181 H 916.985 3.93778 -1.06785 0
M  V30 9182 H 915.66 3.55688 -2.15544 0
M  V30 9183 H 914.237 3.7143 -0.330748 0
M  V30 9184 N 916.422 0.810101 1.35185 0
M  V30 9185 C 917.352 0.237453 2.32289 0
M  V30 9186 C 918.333 -0.639032 1.5764 0
M  V30 9187 O 919.518 -0.568575 1.8569 0
M  V30 9188 C 916.648 -0.611964 3.41866 0
M  V30 9189 C 915.602 0.166318 4.27677 0
M  V30 9190 C 914.928 -0.805024 5.28605 0
M  V30 9191 C 916.228 1.36729 5.04086 0
M  V30 9192 H 917.922 1.04874 2.80432 0
M  V30 9193 H 915.468 0.505751 1.34826 0
M  V30 9194 H 917.421 -1.02267 4.08802 0
M  V30 9195 H 916.145 -1.45617 2.92341 0
M  V30 9196 H 914.804 0.558238 3.62325 0
M  V30 9197 H 914.452 -1.64483 4.75347 0
M  V30 9198 H 914.152 -0.288577 5.86891 0
M  V30 9199 H 915.676 -1.21386 5.98413 0
M  V30 9200 H 917.09 1.03128 5.63948 0
M  V30 9201 H 915.487 1.81848 5.71884 0
M  V30 9202 H 916.557 2.15214 4.34524 0
M  V30 9203 N 917.9 -1.47166 0.563914 0
M  V30 9204 C 919.316 -1.58018 0.224173 0
M  V30 9205 C 919.516 -1.56163 -1.27339 0
M  V30 9206 O 918.572 -1.4686 -2.05398 0
M  V30 9207 C 919.885 -2.88236 0.856762 0
M  V30 9208 C 921.433 -3.01833 0.82861 0
M  V30 9209 C 921.908 -4.34761 1.44039 0
M  V30 9210 N 923.399 -4.41413 1.40388 0
M  V30 9211 C 924.134 -5.42845 1.84681 0
M  V30 9212 N 923.63 -6.51052 2.3686 0
M  V30 9213 N 925.423 -5.33931 1.75711 0
M  V30 9214 H 917.574 -1.46615 1.53681 0
M  V30 9215 H 919.837 -0.698195 0.64127 0
M  V30 9216 H 919.543 -2.95349 1.90949 0
M  V30 9217 H 919.417 -3.75537 0.353766 0
M  V30 9218 H 921.804 -2.94312 -0.215451 0
M  V30 9219 H 921.885 -2.16056 1.36943 0
M  V30 9220 H 921.529 -4.43037 2.48355 0
M  V30 9221 H 921.459 -5.1928 0.874953 0
M  V30 9222 H 923.95 -3.63811 1.02227 0
M  V30 9223 H 924.263 -7.24633 2.68564 0
M  V30 9224 H 922.608 -6.51924 2.40875 0
M  V30 9225 H 925.799 -4.48295 1.34718 0
M  V30 9226 H 925.972 -6.12841 2.10547 0
M  V30 9227 N 919.378 -0.300708 -1.54705 0
M  V30 9228 C 920.626 0.308044 -1.99739 0
M  V30 9229 C 920.947 1.54433 -1.19061 0
M  V30 9230 O 920.217 1.93794 -0.286507 0
M  V30 9231 H 918.797 0.116811 -0.73781 0
M  V30 9232 H 921.459 -0.41197 -1.90496 0
M  V30 9233 H 920.555 0.580287 -3.06658 0
M  V30 9234 N 920.856 1.57574 -0.0284266 0
M  V30 9235 C 922.104 1.91393 0.649079 0
M  V30 9236 C 922.425 0.905368 1.72708 0
M  V30 9237 O 921.695 -0.0532107 1.95828 0
M  V30 9238 H 920.275 0.70646 0.24274 0
M  V30 9239 H 922.937 1.94752 -0.076066 0
M  V30 9240 H 922.033 2.91988 1.10226 0
M  V30 9241 N 922.334 -0.244713 1.55689 0
M  V30 9242 C 923.564 -0.988508 1.81417 0
M  V30 9243 C 923.972 -1.79362 0.602143 0
M  V30 9244 O 923.315 -1.78386 -0.438639 0
M  V30 9245 C 923.377 -1.97287 3.0053 0
M  V30 9246 C 923.041 -1.35448 4.36466 0
M  V30 9247 C 924.038 -0.755874 5.14376 0
M  V30 9248 C 921.723 -1.37319 4.83165 0
M  V30 9249 C 923.717 -0.184218 6.37134 0
M  V30 9250 C 921.404 -0.797681 6.05871 0
M  V30 9251 C 922.402 -0.204224 6.82695 0
M  V30 9252 O 922.09 0.362392 8.03083 0
M  V30 9253 H 921.822 -0.296412 0.607549 0
M  V30 9254 H 924.376 -0.272185 2.03589 0
M  V30 9255 H 922.606 -2.72756 2.74119 0
M  V30 9256 H 924.295 -2.58028 3.13331 0
M  V30 9257 H 925.061 -0.733912 4.79415 0
M  V30 9258 H 920.94 -1.8245 4.23359 0
M  V30 9259 H 924.484 0.279624 6.97039 0
M  V30 9260 H 920.381 -0.816978 6.40309 0
M  V30 9261 H 921.149 0.254467 8.18104 0
M  V30 9262 N 923.813 -1.49104 -0.510467 0
M  V30 9263 C 924.761 -1.65547 -1.63392 0
M  V30 9264 C 925.755 -0.521522 -1.61172 0
M  V30 9265 O 926.961 -0.700865 -1.65795 0
M  V30 9266 H 923.336 -0.521843 -0.541464 0
M  V30 9267 H 925.307 -2.59864 -1.46673 0
M  V30 9268 C 924.056 -1.73051 -3.01577 0
M  V30 9269 H 923.379 -2.59676 -3.03987 0
M  V30 9270 H 924.819 -1.88594 -3.79748 0
M  V30 9271 C 923.278 -0.47328 -3.33559 0
M  V30 9272 O 923.808 0.405239 -3.99651 0
M  V30 9273 N 922.014 -0.339074 -2.88615 0
M  V30 9274 H 921.561 -1.05497 -2.35007 0
M  V30 9275 H 921.519 0.501061 -3.10382 0
M  V30 9276 N 925.291 0.760815 -1.38019 0
M  V30 9277 C 926.537 1.52109 -1.35034 0
M  V30 9278 C 926.892 1.92302 0.0615509 0
M  V30 9279 O 926.185 1.62028 1.02261 0
M  V30 9280 C 926.379 2.79024 -2.23339 0
M  V30 9281 C 926.208 2.51238 -3.72974 0
M  V30 9282 C 924.978 2.44818 -4.42032 0
M  V30 9283 C 927.176 2.18499 -4.65578 0
M  V30 9284 N 925.158 2.09232 -5.77144 0
M  V30 9285 C 926.529 1.93143 -5.89148 0
M  V30 9286 C 928.584 2.04747 -4.53854 0
M  V30 9287 C 927.287 1.55423 -7.02308 0
M  V30 9288 C 929.313 1.68428 -5.66909 0
M  V30 9289 C 928.675 1.43939 -6.89537 0
M  V30 9290 H 924.774 0.556482 -0.54941 0
M  V30 9291 H 927.358 0.886614 -1.73341 0
M  V30 9292 H 925.529 3.40292 -1.87232 0
M  V30 9293 H 927.261 3.45016 -2.11533 0
M  V30 9294 H 924.016 2.61045 -3.95161 0
M  V30 9295 H 924.44 1.94104 -6.48577 0
M  V30 9296 H 929.082 2.22358 -3.59607 0
M  V30 9297 H 926.8 1.36551 -7.96479 0
M  V30 9298 H 930.386 1.5843 -5.59814 0
M  V30 9299 H 929.266 1.16253 -7.75535 0
M  V30 9300 N 926.769 1.22769 0.988202 0
M  V30 9301 C 928.185 0.988665 1.2529 0
M  V30 9302 C 928.385 -0.314938 1.99024 0
M  V30 9303 O 927.441 -1.03637 2.30251 0
M  V30 9304 C 928.754 2.19046 2.06009 0
M  V30 9305 C 930.302 2.23452 2.19176 0
M  V30 9306 C 930.777 3.43196 3.03283 0
M  V30 9307 N 932.268 3.43387 3.10869 0
M  V30 9308 C 933.003 4.32693 3.7625 0
M  V30 9309 N 932.499 5.32224 4.43519 0
M  V30 9310 N 934.292 4.20457 3.73058 0
M  V30 9311 H 926.443 2.06575 0.494014 0
M  V30 9312 H 928.706 0.905452 0.28082 0
M  V30 9313 H 928.412 3.13607 1.59197 0
M  V30 9314 H 928.286 2.19492 3.06763 0
M  V30 9315 H 930.673 1.29436 2.65199 0
M  V30 9316 H 930.754 2.27042 1.17836 0
M  V30 9317 H 930.398 4.37515 2.57959 0
M  V30 9318 H 930.328 3.36847 4.04774 0
M  V30 9319 H 932.819 2.71368 2.62998 0
M  V30 9320 H 933.132 5.9664 4.91163 0
M  V30 9321 H 931.477 5.36133 4.42252 0
M  V30 9322 H 934.668 3.41949 3.19669 0
M  V30 9323 H 934.841 4.90261 4.23731 0
M  V30 9324 N 928.247 -1.18576 1.03814 0
M  V30 9325 C 929.194 -2.2212 0.626988 0
M  V30 9326 C 930.164 -1.62064 -0.363912 0
M  V30 9327 O 931.349 -1.89041 -0.258469 0
M  V30 9328 C 928.489 -3.45099 -0.00650133 0
M  V30 9329 C 927.602 -4.19503 1.03156 0
M  V30 9330 C 926.737 -5.29932 0.366852 0
M  V30 9331 C 925.776 -5.96104 1.39018 0
M  V30 9332 N 924.913 -6.98076 0.750625 0
M  V30 9333 H 929.753 -2.56646 1.51449 0
M  V30 9334 H 927.29 -1.26084 0.757702 0
M  V30 9335 H 929.248 -4.15363 -0.391108 0
M  V30 9336 H 927.878 -3.11201 -0.857536 0
M  V30 9337 H 926.93 -3.48092 1.53414 0
M  V30 9338 H 928.242 -4.64843 1.80893 0
M  V30 9339 H 927.396 -6.06657 -0.0720979 0
M  V30 9340 H 926.135 -4.85687 -0.442631 0
M  V30 9341 H 925.14 -5.18122 1.8393 0
M  V30 9342 H 926.365 -6.42432 2.20132 0
M  V30 9343 H 924.311 -6.55989 -0.0385981 0
M  V30 9344 H 924.228 -7.41655 1.46574 0
M  V30 9345 H 925.496 -7.78776 0.335986 0
M  V30 9346 N 929.725 -0.817259 -1.34754 0
M  V30 9347 C 930.973 -0.401852 -1.98065 0
M  V30 9348 C 931.294 1.03718 -1.65129 0
M  V30 9349 O 930.564 1.71921 -0.939141 0
M  V30 9350 H 929.144 -0.145603 -0.732672 0
M  V30 9351 H 931.806 -1.04545 -1.64488 0
M  V30 9352 H 930.902 -0.516241 -3.07801 0
M  V30 9353 N 931.203 1.46865 -0.571711 0
M  V30 9354 C 932.113 2.33979 0.170571 0
M  V30 9355 C 933.129 1.49083 0.897239 0
M  V30 9356 O 934.305 1.81979 0.862888 0
M  V30 9357 C 931.37 3.26063 1.17831 0
M  V30 9358 C 930.431 4.26855 0.457499 0
M  V30 9359 C 929.664 5.14539 1.41722 0
M  V30 9360 O 929.887 5.04945 2.65305 0
M  V30 9361 O 928.821 5.94612 0.9338 0
M  V30 9362 H 932.647 2.98781 -0.544396 0
M  V30 9363 H 930.232 1.4566 -0.332198 0
M  V30 9364 H 932.114 3.82903 1.75965 0
M  V30 9365 H 930.789 2.63871 1.87493 0
M  V30 9366 H 929.696 3.73734 -0.165406 0
M  V30 9367 H 931.029 4.91802 -0.197953 0
M  V30 9368 N 932.681 0.308908 1.54543 0
M  V30 9369 C 933.958 -0.351558 1.92415 0
M  V30 9370 C 934.338 -1.71061 1.23699 0
M  V30 9371 O 933.686 -2.25394 0.3755 0
M  V30 9372 C 933.896 -0.458357 3.45977 0
M  V30 9373 C 935.244 -0.725524 4.18355 0
M  V30 9374 O 936.268 -0.541859 3.52054 0
M  V30 9375 O 935.127 -1.07884 5.35745 0
M  V30 9376 H 932.221 -0.197957 0.802958 0
M  V30 9377 H 934.767 0.357548 1.65891 0
M  V30 9378 H 933.539 0.496723 3.88134 0
M  V30 9379 H 933.162 -1.21562 3.78561 0
M  V30 9380 N 934.159 -1.57557 0.0367827 0
M  V30 9381 C 935.436 -1.83427 -0.679261 0
M  V30 9382 C 935.816 -0.922274 -1.89888 0
M  V30 9383 O 935.164 0.02025 -2.28491 0
M  V30 9384 C 935.374 -3.32823 -1.05022 0
M  V30 9385 C 936.722 -3.99486 -1.43861 0
M  V30 9386 O 937.746 -3.37364 -1.14297 0
M  V30 9387 O 936.605 -5.0899 -1.98977 0
M  V30 9388 H 933.699 -0.756581 -0.333936 0
M  V30 9389 H 936.245 -1.69575 0.0650494 0
M  V30 9390 H 935.017 -3.90874 -0.182509 0
M  V30 9391 H 934.64 -3.5181 -1.85244 0
M  V30 9392 N 935.637 0.236453 -1.55816 0
M  V30 9393 C 936.865 0.980295 -1.82203 0
M  V30 9394 C 937.28 1.7854 -0.613926 0
M  V30 9395 O 936.637 1.77661 0.417491 0
M  V30 9396 C 936.688 1.90982 -3.06933 0
M  V30 9397 O 936.409 1.13728 -4.23081 0
M  V30 9398 C 937.91 2.76879 -3.46198 0
M  V30 9399 H 935.13 0.28799 -0.606055 0
M  V30 9400 H 937.674 0.256182 -2.02889 0
M  V30 9401 H 935.829 2.58808 -2.88266 0
M  V30 9402 H 936.243 1.76694 -4.93842 0
M  V30 9403 H 937.717 3.37831 -4.36548 0
M  V30 9404 H 938.194 3.48522 -2.67262 0
M  V30 9405 H 938.8 2.1449 -3.67252 0
M  V30 9406 N 937.115 1.49373 0.502552 0
M  V30 9407 C 938.047 1.62045 1.62093 0
M  V30 9408 C 939.06 0.503221 1.54827 0
M  V30 9409 O 940.249 0.775208 1.60788 0
M  V30 9410 C 937.349 1.55971 3.00876 0
M  V30 9411 C 936.522 2.832 3.33341 0
M  V30 9412 C 935.581 2.702 4.51529 0
M  V30 9413 O 934.607 3.44132 4.53389 0
M  V30 9414 N 935.809 1.81642 5.5135 0
M  V30 9415 H 938.574 2.58501 1.51649 0
M  V30 9416 H 936.135 1.46442 0.690396 0
M  V30 9417 H 938.127 1.4493 3.77859 0
M  V30 9418 H 936.697 0.673795 3.05252 0
M  V30 9419 H 935.917 3.08604 2.4527 0
M  V30 9420 H 937.205 3.67551 3.51829 0
M  V30 9421 H 936.603 1.20829 5.52645 0
M  V30 9422 H 935.16 1.76524 6.27441 0
M  V30 9423 N 938.594 -0.753485 1.38421 0
M  V30 9424 C 939.526 -1.87692 1.31547 0
M  V30 9425 C 940.539 -1.612 0.227671 0
M  V30 9426 O 941.728 -1.71778 0.485238 0
M  V30 9427 C 938.828 -3.23329 1.01545 0
M  V30 9428 C 938.001 -3.77324 2.21236 0
M  V30 9429 C 937.06 -4.91478 1.87977 0
M  V30 9430 O 936.086 -5.06106 2.60472 0
M  V30 9431 N 937.288 -5.74466 0.834796 0
M  V30 9432 H 940.053 -1.94099 2.28354 0
M  V30 9433 H 937.614 -0.933421 1.32283 0
M  V30 9434 H 939.606 -3.9724 0.773477 0
M  V30 9435 H 938.176 -3.12307 0.135334 0
M  V30 9436 H 937.396 -2.94978 2.61498 0
M  V30 9437 H 938.684 -4.10131 3.01115 0
M  V30 9438 H 938.082 -5.65217 0.233606 0
M  V30 9439 H 936.639 -6.48524 0.652703 0
M  V30 9440 N 940.072 -1.23292 -0.981677 0
M  V30 9441 C 941.297 -1.09176 -1.76339 0
M  V30 9442 C 941.722 0.352726 -1.84763 0
M  V30 9443 O 941.08 1.25509 -1.30832 0
M  V30 9444 C 941.128 -1.72046 -3.16911 0
M  V30 9445 O 940.232 -0.98174 -4.00544 0
M  V30 9446 H 939.573 -0.382755 -0.542581 0
M  V30 9447 H 942.103 -1.63319 -1.23239 0
M  V30 9448 H 942.113 -1.77232 -3.67495 0
M  V30 9449 H 940.788 -2.77154 -3.10095 0
M  V30 9450 H 939.365 -1.00672 -3.59054 0
M  V30 9451 N 941.55 1.18024 -1.04442 0
M  V30 9452 C 942.796 1.88377 -0.751133 0
M  V30 9453 C 943.129 1.80377 0.719571 0
M  V30 9454 O 942.404 1.20662 1.52548 0
M  V30 9455 C 942.687 3.38708 -1.22265 0
M  V30 9456 C 942.54 3.55499 -2.75574 0
M  V30 9457 C 943.859 4.32475 -0.815688 0
M  V30 9458 H 940.978 0.684037 -0.27434 0
M  V30 9459 H 943.62 1.38837 -1.29709 0
M  V30 9460 H 941.77 3.8103 -0.758192 0
M  V30 9461 H 943.442 3.22244 -3.30086 0
M  V30 9462 H 941.685 2.98028 -3.15217 0
M  V30 9463 H 942.356 4.60994 -3.03625 0
M  V30 9464 H 944.832 3.97953 -1.21542 0
M  V30 9465 H 943.708 5.36213 -1.17331 0
M  V30 9466 H 943.969 4.41207 0.280901 0
M  V30 9467 N 943.028 0.824394 1.34319 0
M  V30 9468 C 944.253 0.425194 2.02995 0
M  V30 9469 C 944.678 -0.961476 1.6167 0
M  V30 9470 O 944.036 -1.62593 0.80207 0
M  V30 9471 C 944.084 0.537004 3.56579 0
M  V30 9472 O 943.188 -0.442576 4.10018 0
M  V30 9473 H 942.529 0.174853 0.640564 0
M  V30 9474 H 945.059 1.11522 1.71534 0
M  V30 9475 H 945.069 0.413311 4.05901 0
M  V30 9476 H 943.744 1.54836 3.86004 0
M  V30 9477 H 942.321 -0.277644 3.71865 0
M  V30 9478 N 944.506 -1.46559 0.579492 0
M  V30 9479 C 945.436 -2.33059 -0.143437 0
M  V30 9480 C 946.417 -1.4515 -0.886868 0
M  V30 9481 O 947.602 -1.73973 -0.862961 0
M  V30 9482 C 944.732 -3.27364 -1.15973 0
M  V30 9483 C 943.686 -4.24689 -0.531348 0
M  V30 9484 C 943.012 -5.08479 -1.65388 0
M  V30 9485 C 944.312 -5.1961 0.529391 0
M  V30 9486 H 946.006 -2.93753 0.578762 0
M  V30 9487 H 943.552 -1.41256 0.279775 0
M  V30 9488 H 945.505 -3.86732 -1.67382 0
M  V30 9489 H 944.229 -2.64771 -1.91217 0
M  V30 9490 H 942.888 -3.6658 -0.0383749 0
M  V30 9491 H 942.536 -4.42273 -2.3959 0
M  V30 9492 H 942.236 -5.74387 -1.23909 0
M  V30 9493 H 943.76 -5.70709 -2.17079 0
M  V30 9494 H 945.174 -5.73212 0.100506 0
M  V30 9495 H 943.571 -5.93843 0.86432 0
M  V30 9496 H 944.641 -4.63737 1.4169 0
M  V30 9497 N 945.984 -0.3171 -1.54377 0
M  V30 9498 C 946.947 0.53905 -2.22771 0
M  V30 9499 C 947.947 1.04865 -1.21901 0
M  V30 9500 O 949.137 0.942108 -1.46526 0
M  V30 9501 C 946.269 1.74804 -2.92671 0
M  V30 9502 H 947.462 -0.0587417 -2.99842 0
M  V30 9503 H 945.015 -0.068107 -1.56152 0
M  V30 9504 H 945.75 2.38524 -2.1972 0
M  V30 9505 H 945.535 1.39011 -3.66631 0
M  V30 9506 H 947.025 2.35592 -3.44799 0
M  V30 9507 N 947.462 1.57535 -0.0451378 0
M  V30 9508 C 948.392 2.14208 0.929372 0
M  V30 9509 C 949.373 1.06221 1.32858 0
M  V30 9510 O 950.558 1.34132 1.40436 0
M  V30 9511 C 947.688 2.68217 2.20629 0
M  V30 9512 C 946.642 3.81134 1.94734 0
M  V30 9513 C 945.968 4.21636 3.28828 0
M  V30 9514 C 947.268 5.06531 1.27374 0
M  V30 9515 H 948.962 2.95886 0.457348 0
M  V30 9516 H 946.508 1.42332 0.218544 0
M  V30 9517 H 948.461 3.06502 2.89196 0
M  V30 9518 H 947.185 1.83722 2.70026 0
M  V30 9519 H 945.844 3.43312 1.28579 0
M  V30 9520 H 945.492 3.34099 3.76014 0
M  V30 9521 H 945.192 4.97736 3.12302 0
M  V30 9522 H 946.716 4.62516 3.98637 0
M  V30 9523 H 948.13 5.423 1.85967 0
M  V30 9524 H 946.527 5.87735 1.21194 0
M  V30 9525 H 947.597 4.84261 0.248913 0
M  V30 9526 N 948.94 -0.228186 1.55939 0
M  V30 9527 C 950.165 -0.974795 1.83064 0
M  V30 9528 C 950.59 -1.77426 0.624624 0
M  V30 9529 O 949.948 -1.76211 -0.426556 0
M  V30 9530 C 949.996 -1.87342 3.08116 0
M  V30 9531 O 949.1 -2.96784 2.86344 0
M  V30 9532 H 948.441 -0.276379 0.603747 0
M  V30 9533 H 950.971 -0.243507 2.03146 0
M  V30 9534 H 950.981 -2.28451 3.38045 0
M  V30 9535 H 949.656 -1.28575 3.95526 0
M  V30 9536 H 948.233 -2.59669 2.67631 0
M  V30 9537 N 950.418 -1.49637 -0.494624 0
M  V30 9538 C 951.348 -1.69692 -1.60396 0
M  V30 9539 C 952.329 -0.545648 -1.61111 0
M  V30 9540 O 953.514 -0.782202 -1.77751 0
M  V30 9541 C 950.644 -1.76934 -2.9885 0
M  V30 9542 C 949.598 -2.91915 -3.13001 0
M  V30 9543 C 948.924 -2.84276 -4.5287 0
M  V30 9544 C 950.224 -4.32764 -2.92426 0
M  V30 9545 H 951.918 -2.6257 -1.43866 0
M  V30 9546 H 949.464 -1.26355 -0.690679 0
M  V30 9547 H 951.417 -1.8955 -3.76362 0
M  V30 9548 H 950.141 -0.806609 -3.16483 0
M  V30 9549 H 948.8 -2.78911 -2.37916 0
M  V30 9550 H 948.448 -1.85897 -4.67388 0
M  V30 9551 H 948.148 -3.61452 -4.63278 0
M  V30 9552 H 949.672 -2.98909 -5.32434 0
M  V30 9553 H 951.086 -4.46415 -3.59703 0
M  V30 9554 H 949.483 -5.1121 -3.143 0
M  V30 9555 H 950.553 -4.46765 -1.88491 0
M  V30 9556 N 951.896 0.746133 -1.38819 0
M  V30 9557 C 953.173 1.49652 -1.25951 0
M  V30 9558 C 953.553 2.10663 0.135833 0
M  V30 9559 O 952.901 1.97682 1.14604 0
M  V30 9560 C 953.111 2.5569 -2.37537 0
M  V30 9561 C 954.459 3.22385 -2.76321 0
M  V30 9562 O 955.483 2.65998 -2.36904 0
M  V30 9563 O 954.342 4.2439 -3.44319 0
M  V30 9564 H 951.436 0.664019 -0.492958 0
M  V30 9565 H 953.982 0.780908 -1.50665 0
M  V30 9566 H 952.754 2.08908 -3.30867 0
M  V30 9567 H 952.377 3.34823 -2.14427 0
M  V30 9568 N 953.375 1.23811 0.975125 0
M  V30 9569 C 954.622 1.07336 1.71712 0
M  V30 9570 C 954.95 -0.388954 1.90571 0
M  V30 9571 O 954.205 -1.30409 1.45918 0
M  V30 9572 C 954.504 1.74994 3.11628 0
M  V30 9573 C 954.17 3.24918 3.12632 0
M  V30 9574 C 952.832 3.65822 3.12614 0
M  V30 9575 C 955.184 4.20797 3.07538 0
M  V30 9576 C 952.512 5.01054 3.05224 0
M  V30 9577 C 954.864 5.56027 3.0169 0
M  V30 9578 C 953.528 5.96287 2.99996 0
M  V30 9579 H 952.798 0.392771 0.62834 0
M  V30 9580 H 955.445 1.53815 1.14075 0
M  V30 9581 H 953.75 1.20889 3.72684 0
M  V30 9582 H 955.447 1.5972 3.67819 0
M  V30 9583 H 952.037 2.92359 3.13407 0
M  V30 9584 H 956.221 3.902 3.06688 0
M  V30 9585 H 951.477 5.31454 3.02268 0
M  V30 9586 H 955.651 6.3003 2.96706 0
M  V30 9587 H 953.278 7.01037 2.94025 0
M  V30 9588 O 954.892 -1.10713 1.17579 0
M  V30 9589 H 955.583 -1.70774 0.914101 0
M  V30 END ATOM
M  V30 BEGIN BOND
M  V30 END BOND
M  V30 END CTAB
M  END
$$$$
