drugbank_target|O33833 Beta-fructosidase (DB04272)
 OpenBabel12092120293D

  0  0  0     0  0            999 V3000
M  V30 BEGIN CTAB
M  V30 COUNTS 6931 7022 0 0 0
M  V30 BEGIN ATOM
M  V30 1 H -0.908 1.98254 -0.117106 0
M  V30 2 N 0 1.576 0 0
M  V30 3 C 0.933 2.03868 1.02534 0
M  V30 4 C 1.911 0.928543 1.3348 0
M  V30 5 O 3.095 1.19667 1.45644 0
M  V30 6 C 0.222 2.43627 2.35294 0
M  V30 7 C -0.732 3.65373 2.2001 0
M  V30 8 S 0.101 5.13292 1.52614 0
M  V30 9 C 1.257 5.56322 2.86805 0
M  V30 10 H 1.49 2.90518 0.631377 0
M  V30 11 H -0.977 1.52953 0.210867 0
M  V30 12 H 0.981 2.67203 3.11629 0
M  V30 13 H -0.358 1.57376 2.7183 0
M  V30 14 H -1.165 3.90944 3.18086 0
M  V30 15 H -1.563 3.418 1.51819 0
M  V30 16 H 0.729 5.58782 3.83104 0
M  V30 17 H 1.672 6.56266 2.65933 0
M  V30 18 H 2.08 4.83886 2.90714 0
M  V30 19 N 1.4781 -0.272755 1.55222 0
M  V30 20 C 2.7251 -1.00433 1.7584 0
M  V30 21 C 3.0531 -1.86275 0.559629 0
M  V30 22 O 2.3081 -1.90269 -0.457857 0
M  V30 23 C 2.6071 -1.91642 3.01675 0
M  V30 24 C 2.2731 -1.21548 4.34208 0
M  V30 25 C 0.9351 -1.02166 4.70229 0
M  V30 26 C 3.2871 -0.716684 5.16249 0
M  V30 27 C 0.6151 -0.316334 5.85847 0
M  V30 28 C 2.9671 -0.0249476 6.32595 0
M  V30 29 C 1.6311 0.180579 6.67256 0
M  V30 30 H 0.9011 -0.367509 0.643443 0
M  V30 31 H 3.5481 -0.276596 1.89492 0
M  V30 32 H 1.8531 -2.71037 2.82924 0
M  V30 33 H 3.5501 -2.48369 3.14824 0
M  V30 34 H 0.1401 -1.37645 4.05896 0
M  V30 35 H 4.3241 -0.854047 4.88896 0
M  V30 36 H -0.4199 -0.146378 6.11225 0
M  V30 37 H 3.7541 0.369311 6.9542 0
M  V30 38 H 1.3811 0.729098 7.56696 0
M  V30 39 N 2.9562 -1.48159 -0.537278 0
M  V30 40 C 3.9032 -1.62138 -1.64256 0
M  V30 41 C 4.8732 -0.463668 -1.59497 0
M  V30 42 O 6.0582 -0.686241 -1.78032 0
M  V30 43 C 3.1982 -1.66028 -3.02537 0
M  V30 44 C 2.3112 -2.92855 -3.17585 0
M  V30 45 C 1.4462 -2.87952 -4.46382 0
M  V30 46 C 0.4852 -4.09516 -4.54932 0
M  V30 47 N -0.3778 -4.02733 -5.75109 0
M  V30 48 H 4.4622 -2.56529 -1.51647 0
M  V30 49 H 1.9992 -1.27224 -0.738414 0
M  V30 50 H 3.9572 -1.66265 -3.82638 0
M  V30 51 H 2.5872 -0.751331 -3.13934 0
M  V30 52 H 1.6392 -3.02395 -2.30784 0
M  V30 53 H 2.9512 -3.82822 -3.19764 0
M  V30 54 H 2.1052 -2.8655 -5.34765 0
M  V30 55 H 0.8442 -1.95702 -4.46712 0
M  V30 56 H -0.1508 -4.11201 -3.64957 0
M  V30 57 H 1.0742 -5.02917 -4.56346 0
M  V30 58 H -0.9798 -3.13299 -5.76351 0
M  V30 59 H -1.0628 -4.86397 -5.78752 0
M  V30 60 H 0.2052 -4.05379 -6.65799 0
M  V30 61 N 4.4343 0.785586 -1.36625 0
M  V30 62 C 5.8453 1.36101 -1.27803 0
M  V30 63 C 6.1963 1.96035 0.0804875 0
M  V30 64 O 5.3213 1.92834 0.982042 0
M  V30 65 C 5.9163 2.47442 -2.31426 0
M  V30 66 C 4.4753 3.00789 -2.26281 0
M  V30 67 C 3.6223 1.73896 -2.15999 0
M  V30 68 H 6.5733 0.586928 -1.47448 0
M  V30 69 H 6.5943 3.2656 -1.95291 0
M  V30 70 H 6.1063 2.03791 -3.30289 0
M  V30 71 H 4.2073 3.48851 -1.30896 0
M  V30 72 H 4.3203 3.57343 -3.19128 0
M  V30 73 H 2.6843 1.9628 -1.62316 0
M  V30 74 H 3.4673 1.32368 -3.16755 0
M  V30 75 N 5.9124 1.20967 1.01018 0
M  V30 76 C 6.8604 0.961223 2.1181 0
M  V30 77 C 7.8544 -0.0897034 1.69162 0
M  V30 78 O 9.0604 0.0612271 1.79896 0
M  V30 79 H 5.4354 0.29355 0.692338 0
M  V30 80 H 7.4064 1.90178 2.29946 0
M  V30 81 C 6.1554 0.536854 3.4353 0
M  V30 82 H 5.4784 1.33713 3.76777 0
M  V30 83 H 6.9184 0.402286 4.22087 0
M  V30 84 C 5.3774 -0.751574 3.2841 0
M  V30 85 O 5.9074 -1.80841 3.58691 0
M  V30 86 N 4.1134 -0.716079 2.81639 0
M  V30 87 H 3.6604 0.144236 2.57196 0
M  V30 88 H 3.6184 -1.57847 2.71904 0
M  V30 89 N 7.3905 -1.2043 1.01659 0
M  V30 90 C 8.6205 -1.93496 0.724081 0
M  V30 91 C 9.0285 -1.74998 -0.71918 0
M  V30 92 O 8.3715 -1.06118 -1.49949 0
M  V30 93 C 8.4335 -3.45886 0.97994 0
M  V30 94 C 8.0975 -3.88145 2.41232 0
M  V30 95 C 9.0945 -3.93907 3.39313 0
M  V30 96 C 6.7795 -4.20134 2.75305 0
M  V30 97 C 8.7735 -4.31069 4.6953 0
M  V30 98 C 6.4605 -4.56971 4.05735 0
M  V30 99 C 7.4585 -4.62411 5.02658 0
M  V30 100 O 7.1465 -4.98403 6.30754 0
M  V30 101 H 6.8785 -0.621824 0.265162 0
M  V30 102 H 9.4325 -1.53867 1.36066 0
M  V30 103 H 7.6625 -3.85639 0.286198 0
M  V30 104 H 9.3515 -4.0018 0.679021 0
M  V30 105 H 10.1175 -3.69357 3.14325 0
M  V30 106 H 5.9965 -4.1509 2.00551 0
M  V30 107 H 9.5405 -4.3523 5.45179 0
M  V30 108 H 5.4375 -4.80977 4.30502 0
M  V30 109 H 6.2055 -5.16395 6.35042 0
M  V30 110 N 8.8686 -0.792821 -1.36206 0
M  V30 111 C 9.8186 -0.166598 -2.27391 0
M  V30 112 C 10.8026 0.651479 -1.47121 0
M  V30 113 O 11.9946 0.510994 -1.69463 0
M  V30 114 C 9.1236 0.695033 -3.36191 0
M  V30 115 C 8.2096 -0.132019 -4.23894 0
M  V30 116 N 8.6006 -1.18822 -4.91645 0
M  V30 117 C 6.8986 0.0885952 -4.45912 0
M  V30 118 C 7.5996 -1.69198 -5.56549 0
M  V30 119 N 6.5756 -1.00065 -5.34311 0
M  V30 120 H 10.3776 -0.974947 -2.77258 0
M  V30 121 H 7.8916 -0.632616 -1.49572 0
M  V30 122 H 9.8886 1.1596 -4.00448 0
M  V30 123 H 8.5486 1.50189 -2.87877 0
M  V30 124 H 9.5596 -1.57069 -4.93507 0
M  V30 125 H 6.2366 0.865688 -4.08426 0
M  V30 126 H 7.6266 -2.57395 -6.20643 0
M  V30 127 N 10.3467 1.47872 -0.545128 0
M  V30 128 C 11.5937 2.02493 -0.0165858 0
M  V30 129 C 11.9217 1.42073 1.32836 0
M  V30 130 O 11.1767 0.561459 1.87473 0
M  V30 131 C 11.4757 3.57131 0.13867 0
M  V30 132 C 11.1417 4.36411 -1.13384 0
M  V30 133 C 9.8037 4.57792 -1.48256 0
M  V30 134 C 12.1557 4.82223 -1.97764 0
M  V30 135 C 9.4837 5.22233 -2.67376 0
M  V30 136 C 11.8357 5.47977 -3.16076 0
M  V30 137 C 10.4997 5.67593 -3.51275 0
M  V30 138 H 9.7697 0.740975 -0.00606918 0
M  V30 139 H 12.4167 1.77683 -0.714207 0
M  V30 140 H 10.7217 3.80865 0.919172 0
M  V30 141 H 12.4187 3.97031 0.562782 0
M  V30 142 H 9.0087 4.2004 -0.852297 0
M  V30 143 H 13.1927 4.65493 -1.72132 0
M  V30 144 H 8.4487 5.35616 -2.94831 0
M  V30 145 H 12.6227 5.8244 -3.81755 0
M  V30 146 H 10.2497 6.17298 -4.43675 0
M  V30 147 N 11.8248 0.280983 1.55075 0
M  V30 148 C 13.0718 -0.334115 1.99725 0
M  V30 149 C 13.3998 -1.5542 1.1694 0
M  V30 150 O 12.6548 -1.94361 0.228531 0
M  V30 151 C 12.9538 -0.754656 3.49342 0
M  V30 152 C 12.6198 0.361445 4.49449 0
M  V30 153 C 11.2818 0.667893 4.76542 0
M  V30 154 C 13.6338 1.11322 5.09173 0
M  V30 155 C 10.9618 1.7296 5.60626 0
M  V30 156 C 13.3138 2.1647 5.9441 0
M  V30 157 C 11.9778 2.47742 6.19822 0
M  V30 158 H 11.2478 -0.122261 0.730844 0
M  V30 159 H 13.8948 0.395917 1.87363 0
M  V30 160 H 12.1998 -1.56446 3.5921 0
M  V30 161 H 13.8968 -1.24142 3.813 0
M  V30 162 H 10.4868 0.112481 4.28452 0
M  V30 163 H 14.6708 0.88973 4.8826 0
M  V30 164 H 9.9268 1.97684 5.78559 0
M  V30 165 H 14.1008 2.75193 6.3972 0
M  V30 166 H 11.7278 3.30145 6.84769 0
M  V30 167 N 13.3029 -1.57598 0.00835791 0
M  V30 168 C 14.7139 -1.7892 -0.53333 0
M  V30 169 C 15.0649 -0.916609 -1.73473 0
M  V30 170 O 14.1899 -0.121336 -2.1606 0
M  V30 171 C 14.7849 -3.24488 -0.974313 0
M  V30 172 C 13.3439 -3.46878 -1.46125 0
M  V30 173 C 12.4909 -2.74157 -0.416302 0
M  V30 174 H 15.4419 -1.56958 0.234495 0
M  V30 175 H 15.4629 -3.3306 -1.83988 0
M  V30 176 H 14.9749 -3.87972 -0.099718 0
M  V30 177 H 13.0759 -2.8862 -2.35646 0
M  V30 178 H 13.1889 -4.55572 -1.48295 0
M  V30 179 H 11.5529 -2.39022 -0.87981 0
M  V30 180 H 12.3359 -3.40345 0.44947 0
M  V30 181 N 14.781 0.264519 -1.55364 0
M  V30 182 C 16.03 0.992812 -1.75574 0
M  V30 183 C 16.343 1.87142 -0.568979 0
M  V30 184 O 17.549 2.63513 -0.653682 0
M  V30 185 C 16.005 1.81519 -3.10771 0
M  V30 186 C 15.613 0.984839 -4.37041 0
M  V30 187 C 17.357 2.53727 -3.40327 0
M  V30 188 C 15.264 1.80209 -5.63275 0
M  V30 189 H 14.194 0.374412 -0.65447 0
M  V30 190 H 16.845 0.248138 -1.81815 0
M  V30 191 H 15.227 2.60115 -2.98591 0
M  V30 192 H 16.401 0.242455 -4.60162 0
M  V30 193 H 14.716 0.37691 -4.14691 0
M  V30 194 H 17.313 3.15292 -4.3185 0
M  V30 195 H 17.656 3.24447 -2.60845 0
M  V30 196 H 18.189 1.82156 -3.53644 0
M  V30 197 H 14.928 1.13896 -6.45529 0
M  V30 198 H 14.448 2.52022 -5.44284 0
M  V30 199 H 16.127 2.37364 -6.01887 0
M  V30 200 N 16.2591 1.48442 0.529413 0
M  V30 201 C 17.4871 1.60151 1.30994 0
M  V30 202 C 17.9021 0.261985 1.86973 0
M  V30 203 O 17.2591 -0.748805 1.66431 0
M  V30 204 C 17.3101 2.64854 2.46038 0
M  V30 205 O 17.0311 3.93608 1.92365 0
M  V30 206 C 18.5321 2.87007 3.37849 0
M  V30 207 H 15.7521 0.539971 0.398338 0
M  V30 208 H 18.2961 1.94273 0.638597 0
M  V30 209 H 16.4511 2.33589 3.09055 0
M  V30 210 H 16.8651 4.51055 2.67675 0
M  V30 211 H 18.3391 3.64068 4.14919 0
M  V30 212 H 18.8161 1.95852 3.93114 0
M  V30 213 H 19.4221 3.19579 2.80623 0
M  V30 214 N 17.7372 -0.778329 1.37039 0
M  V30 215 C 18.9852 -1.53361 1.31623 0
M  V30 216 C 19.3062 -1.94739 -0.100831 0
M  V30 217 O 18.5762 -1.65797 -1.04347 0
M  V30 218 H 17.1562 -0.568794 0.484234 0
M  V30 219 H 19.8182 -0.926742 1.71457 0
M  V30 220 H 18.9142 -2.43606 1.95096 0
M  V30 221 N 19.2153 -1.21501 -1.00376 0
M  V30 222 C 20.4613 -1.04457 -1.74529 0
M  V30 223 C 20.8163 0.417386 -1.87818 0
M  V30 224 O 20.1093 1.30556 -1.40234 0
M  V30 225 C 20.3033 -1.67673 -3.15627 0
M  V30 226 C 20.1323 -3.19865 -3.16096 0
M  V30 227 C 18.9023 -3.88915 -3.22604 0
M  V30 228 C 21.1003 -4.16936 -3.01112 0
M  V30 229 N 19.0823 -5.28284 -3.12712 0
M  V30 230 C 20.4533 -5.43066 -2.99131 0
M  V30 231 C 22.5083 -4.07968 -2.85423 0
M  V30 232 C 21.2113 -6.6126 -2.83068 0
M  V30 233 C 23.2373 -5.258 -2.70718 0
M  V30 234 C 22.5993 -6.50842 -2.69414 0
M  V30 235 H 18.6983 -0.436584 -0.648782 0
M  V30 236 H 21.2823 -1.53875 -1.19293 0
M  V30 237 H 19.4533 -1.20822 -3.6913 0
M  V30 238 H 21.1853 -1.43824 -3.78281 0
M  V30 239 H 17.9403 -3.39847 -3.2985 0
M  V30 240 H 18.3643 -6.01284 -3.11105 0
M  V30 241 H 23.0063 -3.1209 -2.85236 0
M  V30 242 H 20.7243 -7.57298 -2.82002 0
M  V30 243 H 24.3103 -5.20683 -2.59577 0
M  V30 244 H 23.1903 -7.40485 -2.5817 0
M  V30 245 N 20.6934 1.19889 -1.02296 0
M  V30 246 C 21.6264 2.21639 -0.543282 0
M  V30 247 C 22.6044 1.57275 0.412698 0
M  V30 248 O 23.7884 1.85568 0.331198 0
M  V30 249 C 20.9154 3.38057 0.208571 0
M  V30 250 C 19.9614 4.20751 -0.697933 0
M  V30 251 S 20.7944 4.89529 -2.17075 0
M  V30 252 C 21.9504 6.09363 -1.42923 0
M  V30 253 H 22.1834 2.61984 -1.40541 0
M  V30 254 H 19.7164 1.30041 -0.832387 0
M  V30 255 H 21.6744 4.05539 0.63624 0
M  V30 256 H 20.3354 2.96159 1.04635 0
M  V30 257 H 19.5284 5.03862 -0.117831 0
M  V30 258 H 19.1304 3.58556 -1.06366 0
M  V30 259 H 21.4224 6.73742 -0.712637 0
M  V30 260 H 22.3654 6.71845 -2.23673 0
M  V30 261 H 22.7734 5.56798 -0.929327 0
M  V30 262 N 22.1715 0.800033 1.35784 0
M  V30 263 C 23.1195 0.193851 2.31791 0
M  V30 264 C 24.1135 -0.652744 1.56319 0
M  V30 265 O 25.3195 -0.546641 1.71499 0
M  V30 266 H 21.6945 0.04392 0.750716 0
M  V30 267 H 23.6655 1.01883 2.80468 0
M  V30 268 C 22.4145 -0.648338 3.41602 0
M  V30 269 H 21.7375 -0.00624665 3.998 0
M  V30 270 H 23.1775 -1.03898 4.11073 0
M  V30 271 C 21.6365 -1.8111 2.84079 0
M  V30 272 O 22.1665 -2.90825 2.77099 0
M  V30 273 N 20.3725 -1.62056 2.41218 0
M  V30 274 H 19.9195 -0.728123 2.47095 0
M  V30 275 H 19.8775 -2.40013 2.03079 0
M  V30 276 N 23.6496 -1.47581 0.552962 0
M  V30 277 C 24.9266 -1.95563 -0.0381515 0
M  V30 278 C 25.3066 -1.49552 -1.48988 0
M  V30 279 O 24.6546 -0.732414 -2.16444 0
M  V30 280 C 24.8646 -3.48848 0.102919 0
M  V30 281 C 26.2126 -4.24577 -0.0446082 0
M  V30 282 O 27.2366 -3.56187 0.0302548 0
M  V30 283 O 26.0956 -5.46116 -0.204923 0
M  V30 284 H 23.1896 -0.824321 -0.0665067 0
M  V30 285 H 25.7356 -1.58001 0.619186 0
M  V30 286 H 24.5076 -3.75129 1.11328 0
M  V30 287 H 24.1306 -3.93165 -0.592224 0
M  V30 288 N 25.1277 -0.289203 -1.54924 0
M  V30 289 C 26.5387 0.205791 -1.85562 0
M  V30 290 C 26.8897 1.54351 -1.2112 0
M  V30 291 O 26.0147 2.10435 -0.504601 0
M  V30 292 C 26.6097 0.380177 -3.3666 0
M  V30 293 C 25.1687 0.819395 -3.67373 0
M  V30 294 C 24.3157 -0.079159 -2.77187 0
M  V30 295 H 27.2667 -0.510577 -1.50262 0
M  V30 296 H 27.2877 1.21659 -3.60526 0
M  V30 297 H 26.7997 -0.593589 -3.83534 0
M  V30 298 H 24.9007 1.80413 -3.26009 0
M  V30 299 H 25.0137 0.646957 -4.74712 0
M  V30 300 H 23.3777 0.439565 -2.50878 0
M  V30 301 H 24.1607 -1.04906 -3.26878 0
M  V30 302 N 26.6058 1.57591 -0.0167156 0
M  V30 303 C 27.5538 2.10604 0.987353 0
M  V30 304 C 28.5478 1.02977 1.34507 0
M  V30 305 O 29.7538 1.21425 1.32875 0
M  V30 306 H 26.1288 0.672695 0.336134 0
M  V30 307 H 28.0998 2.93925 0.514817 0
M  V30 308 C 26.8488 2.6382 2.26483 0
M  V30 309 H 26.1718 3.46278 1.99829 0
M  V30 310 H 27.6118 3.04573 2.94977 0
M  V30 311 C 26.0708 1.55992 2.9861 0
M  V30 312 O 26.6008 0.952521 3.90243 0
M  V30 313 N 24.8068 1.28335 2.60727 0
M  V30 314 H 24.3538 1.77914 1.86291 0
M  V30 315 H 24.3118 0.564115 3.09298 0
M  V30 316 N 28.0839 -0.256276 1.55502 0
M  V30 317 C 29.3319 -0.983672 1.76545 0
M  V30 318 C 29.6529 -1.86206 0.578982 0
M  V30 319 O 28.9229 -1.91656 -0.405577 0
M  V30 320 H 27.5029 -0.366191 0.651086 0
M  V30 321 H 30.1649 -0.276479 1.92929 0
M  V30 322 H 29.2609 -1.61087 2.67315 0
M  V30 323 N 29.562 -1.4872 -0.521534 0
M  V30 324 C 30.492 -1.66771 -1.63431 0
M  V30 325 C 31.473 -0.516499 -1.62069 0
M  V30 326 O 32.658 -0.750013 -1.79132 0
M  V30 327 C 29.788 -1.71515 -3.01993 0
M  V30 328 C 28.742 -2.86222 -3.18216 0
M  V30 329 C 28.068 -2.76061 -4.57924 0
M  V30 330 C 29.368 -4.27419 -3.00184 0
M  V30 331 H 31.062 -2.59932 -1.48579 0
M  V30 332 H 28.608 -1.25089 -0.713358 0
M  V30 333 H 30.561 -1.82731 -3.7972 0
M  V30 334 H 29.285 -0.749393 -3.17886 0
M  V30 335 H 27.944 -2.74575 -2.42908 0
M  V30 336 H 27.592 -1.77437 -4.70665 0
M  V30 337 H 27.292 -3.53037 -4.69722 0
M  V30 338 H 28.816 -2.89256 -5.37739 0
M  V30 339 H 30.23 -4.39855 -3.67697 0
M  V30 340 H 28.627 -5.05458 -3.2347 0
M  V30 341 H 29.697 -4.43293 -1.96518 0
M  V30 342 N 31.0401 0.771051 -1.3745 0
M  V30 343 C 32.2891 1.52491 -1.3202 0
M  V30 344 C 32.6021 1.9538 0.0927347 0
M  V30 345 O 33.8081 2.70159 0.269503 0
M  V30 346 C 32.2641 2.75366 -2.31736 0
M  V30 347 C 31.8721 2.39573 -3.78562 0
M  V30 348 C 33.6161 3.53307 -2.35318 0
M  V30 349 C 31.5231 3.58954 -4.70007 0
M  V30 350 H 30.4531 0.572506 -0.490666 0
M  V30 351 H 33.1041 0.844474 -1.62914 0
M  V30 352 H 31.4861 3.45303 -1.93861 0
M  V30 353 H 32.6601 1.77415 -4.25277 0
M  V30 354 H 30.9751 1.74805 -3.77932 0
M  V30 355 H 33.5721 4.42039 -3.00842 0
M  V30 356 H 33.9151 3.93217 -1.36698 0
M  V30 357 H 34.4481 2.90367 -2.71904 0
M  V30 358 H 31.1871 3.24125 -5.69757 0
M  V30 359 H 30.7071 4.20214 -4.27996 0
M  V30 360 H 32.3861 4.25758 -4.87175 0
M  V30 361 N 32.5182 1.22032 0.997298 0
M  V30 362 C 33.7652 1.04222 1.73621 0
M  V30 363 C 34.0932 -0.423264 1.89839 0
M  V30 364 O 33.3482 -1.3302 1.43542 0
M  V30 365 C 33.6472 1.69345 3.14733 0
M  V30 366 C 33.3132 3.19226 3.18442 0
M  V30 367 C 31.9752 3.60124 3.19161 0
M  V30 368 C 34.3272 4.15181 3.15078 0
M  V30 369 C 31.6552 4.95467 3.14212 0
M  V30 370 C 34.0072 5.50495 3.1167 0
M  V30 371 C 32.6712 5.90779 3.10703 0
M  V30 372 H 31.9412 0.381374 0.635323 0
M  V30 373 H 34.5882 1.51732 1.16831 0
M  V30 374 H 32.8932 1.14147 3.74803 0
M  V30 375 H 34.5902 1.53059 3.7064 0
M  V30 376 H 31.1802 2.86659 3.18629 0
M  V30 377 H 35.3642 3.84605 3.13676 0
M  V30 378 H 30.6202 5.25916 3.11805 0
M  V30 379 H 34.7942 6.24576 3.08022 0
M  V30 380 H 32.4212 6.9562 3.06622 0
M  V30 381 N 33.9963 -1.19345 1.0293 0
M  V30 382 C 35.2423 -1.89585 0.736824 0
M  V30 383 C 35.5973 -1.78148 -0.726703 0
M  V30 384 O 34.8903 -1.16332 -1.52242 0
M  V30 385 C 35.0843 -3.39292 1.12319 0
M  V30 386 C 34.9133 -3.65298 2.62273 0
M  V30 387 C 33.6833 -3.83304 3.29251 0
M  V30 388 C 35.8813 -3.6682 3.60482 0
M  V30 389 N 33.8633 -3.96944 4.68304 0
M  V30 390 C 35.2343 -3.86037 4.85155 0
M  V30 391 C 37.2893 -3.49848 3.54275 0
M  V30 392 C 35.9923 -3.9004 6.04369 0
M  V30 393 C 38.0183 -3.55129 4.72903 0
M  V30 394 C 37.3803 -3.74831 5.9639 0
M  V30 395 H 33.4793 -0.712856 0.321497 0
M  V30 396 H 36.0633 -1.43427 1.31669 0
M  V30 397 H 34.2343 -3.84172 0.571524 0
M  V30 398 H 35.9663 -3.97055 0.78292 0
M  V30 399 H 32.7213 -3.82211 2.79663 0
M  V30 400 H 33.1453 -4.07613 5.40538 0
M  V30 401 H 37.7873 -3.33572 2.59788 0
M  V30 402 H 35.5053 -4.05108 6.99223 0
M  V30 403 H 39.0913 -3.43287 4.69729 0
M  V30 404 H 37.9713 -3.78792 6.86649 0
M  V30 405 N 35.4744 -0.807222 -1.35358 0
M  V30 406 C 36.4214 -0.216037 -2.29787 0
M  V30 407 C 37.3914 0.650278 -1.52842 0
M  V30 408 O 38.5764 0.595227 -1.81278 0
M  V30 409 C 35.7164 0.628893 -3.39321 0
M  V30 410 C 34.8294 -0.257927 -4.31229 0
M  V30 411 C 33.9644 0.595069 -5.27856 0
M  V30 412 C 33.0034 -0.292111 -6.11403 0
M  V30 413 N 32.1404 0.520895 -7.00165 0
M  V30 414 H 36.9804 -1.02671 -2.79755 0
M  V30 415 H 34.5174 -0.517839 -1.37684 0
M  V30 416 H 36.4754 1.13393 -4.01494 0
M  V30 417 H 35.1054 1.40482 -2.90628 0
M  V30 418 H 34.1574 -0.881076 -3.70056 0
M  V30 419 H 35.4694 -0.940759 -4.89848 0
M  V30 420 H 34.6234 1.16522 -5.95405 0
M  V30 421 H 33.3624 1.31146 -4.69736 0
M  V30 422 H 32.3674 -0.874525 -5.428 0
M  V30 423 H 33.5924 -1.00638 -6.71602 0
M  V30 424 H 31.5384 1.22125 -6.44532 0
M  V30 425 H 31.4554 -0.103877 -7.55929 0
M  V30 426 H 32.7234 1.0743 -7.72062 0
M  V30 427 N 36.9525 1.47285 -0.560781 0
M  V30 428 C 38.2005 2.02064 -0.0379868 0
M  V30 429 C 38.5215 1.43711 1.31803 0
M  V30 430 O 37.7915 0.61362 1.86042 0
M  V30 431 H 36.3715 0.746918 -0.0110531 0
M  V30 432 H 39.0335 1.80648 -0.731598 0
M  V30 433 H 38.1295 3.12064 0.0474463 0
M  V30 434 N 38.4306 0.297415 1.54768 0
M  V30 435 C 39.3776 -0.580276 2.23386 0
M  V30 436 C 40.3476 -1.13238 1.21517 0
M  V30 437 O 41.5326 -1.17757 1.50126 0
M  V30 438 C 38.6726 -1.74801 2.97555 0
M  V30 439 C 37.7856 -1.22764 4.1419 0
M  V30 440 C 36.9206 -2.35895 4.75949 0
M  V30 441 C 35.9596 -1.80974 5.84735 0
M  V30 442 N 35.0966 -2.87664 6.40464 0
M  V30 443 H 39.9366 0.0114833 2.97998 0
M  V30 444 H 37.4736 0.0174361 1.4709 0
M  V30 445 H 39.4316 -2.43475 3.38786 0
M  V30 446 H 38.0616 -2.31145 2.25326 0
M  V30 447 H 37.1136 -0.433271 3.77924 0
M  V30 448 H 38.4256 -0.785551 4.92575 0
M  V30 449 H 37.5796 -3.12523 5.20014 0
M  V30 450 H 36.3186 -2.83429 3.96887 0
M  V30 451 H 35.3236 -1.02834 5.40097 0
M  V30 452 H 36.5486 -1.34348 6.65678 0
M  V30 453 H 34.4946 -3.34538 5.64287 0
M  V30 454 H 34.4116 -2.4794 7.14186 0
M  V30 455 H 35.6796 -3.642 6.89187 0
M  V30 456 N 39.9087 -1.5758 0.0250728 0
M  V30 457 C 41.1387 -1.95646 -0.663783 0
M  V30 458 C 41.5467 -0.899935 -1.66427 0
M  V30 459 O 40.8897 0.127191 -1.83259 0
M  V30 460 C 40.9517 -3.29835 -1.43 0
M  V30 461 C 40.6157 -4.53197 -0.588305 0
M  V30 462 C 41.6127 -5.19726 0.13469 0
M  V30 463 C 39.2977 -4.99529 -0.526897 0
M  V30 464 C 41.2917 -6.30902 0.90781 0
M  V30 465 C 38.9787 -6.10589 0.24993 0
M  V30 466 C 39.9767 -6.76134 0.965994 0
M  V30 467 O 39.6647 -7.85062 1.7301 0
M  V30 468 H 39.3967 -0.649282 -0.188174 0
M  V30 469 H 41.9507 -2.05245 0.0799006 0
M  V30 470 H 40.1807 -3.16716 -2.21873 0
M  V30 471 H 41.8697 -3.52833 -2.00658 0
M  V30 472 H 42.6357 -4.84904 0.0965562 0
M  V30 473 H 38.5147 -4.48319 -1.07381 0
M  V30 474 H 42.0587 -6.81995 1.46724 0
M  V30 475 H 37.9557 -6.44849 0.289795 0
M  V30 476 H 38.7237 -8.01708 1.64944 0
M  V30 477 N 41.3868 0.248026 -1.55636 0
M  V30 478 C 42.3368 1.30994 -1.86614 0
M  V30 479 C 43.3208 1.43543 -0.726918 0
M  V30 480 O 44.5128 1.46804 -0.988818 0
M  V30 481 C 41.6418 2.6656 -2.16335 0
M  V30 482 C 40.7278 2.58019 -3.36581 0
M  V30 483 N 41.1188 2.1911 -4.55878 0
M  V30 484 C 39.4168 2.89035 -3.39669 0
M  V30 485 C 40.1178 2.21174 -5.38012 0
M  V30 486 N 39.0938 2.60632 -4.77045 0
M  V30 487 H 42.8958 0.999583 -2.76379 0
M  V30 488 H 40.4098 0.456652 -1.55848 0
M  V30 489 H 42.4068 3.43194 -2.36692 0
M  V30 490 H 41.0668 2.98463 -1.27867 0
M  V30 491 H 42.0778 1.90672 -4.81523 0
M  V30 492 H 38.7548 3.25485 -2.61469 0
M  V30 493 H 40.1448 1.9344 -6.43452 0
M  V30 494 N 42.8649 1.48995 0.513639 0
M  V30 495 C 43.7979 1.59319 1.63379 0
M  V30 496 C 44.7759 0.442816 1.56454 0
M  V30 497 O 45.9599 0.656655 1.76693 0
M  V30 498 C 43.0869 1.5364 3.01848 0
M  V30 499 C 42.1329 2.7372 3.27078 0
M  V30 500 S 42.9659 4.35528 3.1157 0
M  V30 501 C 44.1219 4.32473 4.52458 0
M  V30 502 H 44.3549 2.54079 1.54374 0
M  V30 503 H 41.8879 1.3773 0.697849 0
M  V30 504 H 43.8459 1.51049 3.81699 0
M  V30 505 H 42.5069 0.601898 3.08279 0
M  V30 506 H 41.6999 2.6593 4.28132 0
M  V30 507 H 41.3019 2.73657 2.54927 0
M  V30 508 H 43.5939 4.03414 5.44301 0
M  V30 509 H 44.5369 5.33762 4.65299 0
M  V30 510 H 44.9449 3.62718 4.32546 0
M  V30 511 N 44.343 -0.763751 1.37857 0
M  V30 512 C 45.59 -1.52257 1.33506 0
M  V30 513 C 45.918 -1.94343 -0.078022 0
M  V30 514 O 45.173 -1.64958 -1.05297 0
M  V30 515 C 45.472 -2.79499 2.22745 0
M  V30 516 C 45.138 -2.56426 3.70886 0
M  V30 517 C 43.8 -2.49842 4.11257 0
M  V30 518 C 46.152 -2.36008 4.64704 0
M  V30 519 C 43.48 -2.20841 5.43549 0
M  V30 520 C 45.832 -2.0853 5.97242 0
M  V30 521 C 44.496 -2.00396 6.36709 0
M  V30 522 H 43.766 -0.557149 0.488534 0
M  V30 523 H 46.413 -0.879073 1.70131 0
M  V30 524 H 44.718 -3.48447 1.79142 0
M  V30 525 H 46.415 -3.37413 2.16688 0
M  V30 526 H 43.005 -2.62416 3.38874 0
M  V30 527 H 47.189 -2.40079 4.34368 0
M  V30 528 H 42.445 -2.13045 5.73081 0
M  V30 529 H 46.619 -1.91732 6.69486 0
M  V30 530 H 44.246 -1.77688 7.39142 0
M  V30 531 N 45.8211 -1.22559 -0.990812 0
M  V30 532 C 47.0511 -1.07623 -1.76355 0
M  V30 533 C 47.4591 0.37601 -1.85426 0
M  V30 534 O 46.8021 1.27228 -1.32509 0
M  V30 535 C 46.8641 -1.61507 -3.21179 0
M  V30 536 C 46.5281 -3.10146 -3.35646 0
M  V30 537 C 47.5251 -4.07553 -3.22796 0
M  V30 538 C 45.2101 -3.49644 -3.60631 0
M  V30 539 C 47.2041 -5.42442 -3.34716 0
M  V30 540 C 44.8911 -4.84682 -3.72192 0
M  V30 541 C 45.8891 -5.8089 -3.59243 0
M  V30 542 O 45.5771 -7.13476 -3.70415 0
M  V30 543 H 45.3091 -0.377745 -0.560611 0
M  V30 544 H 47.8631 -1.62658 -1.25425 0
M  V30 545 H 46.0931 -1.00881 -3.73309 0
M  V30 546 H 47.7821 -1.42202 -3.80175 0
M  V30 547 H 48.5481 -3.78381 -3.03403 0
M  V30 548 H 44.4271 -2.75282 -3.69785 0
M  V30 549 H 47.9711 -6.17518 -3.24526 0
M  V30 550 H 43.8681 -5.13534 -3.91092 0
M  V30 551 H 44.6361 -7.21083 -3.87275 0
M  V30 552 N 47.2992 1.18797 -1.03562 0
M  V30 553 C 48.2312 2.21731 -0.580337 0
M  V30 554 C 49.2442 1.59051 0.347349 0
M  V30 555 O 50.4332 1.77929 0.142669 0
M  V30 556 C 47.5332 3.38459 0.172805 0
M  V30 557 C 46.7062 4.3072 -0.761496 0
M  V30 558 C 45.7652 5.26174 -0.0525547 0
M  V30 559 O 44.7912 5.65108 -0.681333 0
M  V30 560 N 45.9932 5.67624 1.21586 0
M  V30 561 H 48.7582 2.61417 -1.46565 0
M  V30 562 H 46.3192 1.33531 -0.915476 0
M  V30 563 H 48.3112 3.99335 0.656793 0
M  V30 564 H 46.8812 2.97507 0.959602 0
M  V30 565 H 46.1012 3.67525 -1.42544 0
M  V30 566 H 47.3892 4.89267 -1.39626 0
M  V30 567 H 46.7872 5.38038 1.74732 0
M  V30 568 H 45.3442 6.30721 1.64421 0
M  V30 569 N 48.7773 0.814389 1.34928 0
M  V30 570 C 50.0073 0.41054 2.0248 0
M  V30 571 C 50.4153 -0.985625 1.61499 0
M  V30 572 O 49.7583 -1.64781 0.811976 0
M  V30 573 C 49.8203 0.423384 3.56998 0
M  V30 574 C 49.4843 1.77141 4.21272 0
M  V30 575 C 50.4813 2.73093 4.42398 0
M  V30 576 C 48.1663 2.05755 4.58225 0
M  V30 577 C 50.1603 3.95838 4.9959 0
M  V30 578 C 47.8473 3.28762 5.1513 0
M  V30 579 C 48.8453 4.23621 5.35755 0
M  V30 580 O 48.5333 5.44456 5.91458 0
M  V30 581 H 48.2653 0.163997 0.655806 0
M  V30 582 H 50.8193 1.10155 1.73364 0
M  V30 583 H 49.0493 -0.324276 3.85338 0
M  V30 584 H 50.7383 0.0407683 4.0588 0
M  V30 585 H 51.5043 2.5228 4.14222 0
M  V30 586 H 47.3833 1.32727 4.4148 0
M  V30 587 H 50.9273 4.69891 5.15605 0
M  V30 588 H 46.8243 3.49443 5.42734 0
M  V30 589 H 47.5923 5.4586 6.09901 0
M  V30 590 N 50.2554 -1.46986 0.568584 0
M  V30 591 C 51.2034 -2.31858 -0.185649 0
M  V30 592 C 52.1974 -1.43624 -0.898249 0
M  V30 593 O 53.4034 -1.60327 -0.818242 0
M  V30 594 H 49.7784 -0.747866 -0.0787399 0
M  V30 595 H 51.7494 -2.93303 0.549191 0
M  V30 596 C 50.4984 -3.26513 -1.19519 0
M  V30 597 H 49.8214 -3.94377 -0.656285 0
M  V30 598 H 51.2614 -3.88707 -1.6936 0
M  V30 599 C 49.7204 -2.50847 -2.24894 0
M  V30 600 O 50.2504 -2.26119 -3.32014 0
M  V30 601 N 48.4564 -2.11656 -1.99124 0
M  V30 602 H 48.0034 -2.31966 -1.12024 0
M  V30 603 H 47.9614 -1.61347 -2.69842 0
M  V30 604 N 51.7335 -0.305618 -1.54608 0
M  V30 605 C 53.1445 0.186098 -1.8577 0
M  V30 606 C 53.4955 1.53058 -1.22751 0
M  V30 607 O 52.6205 2.09888 -0.526893 0
M  V30 608 C 53.2155 0.344449 -3.37044 0
M  V30 609 C 51.7745 0.780384 -3.68221 0
M  V30 610 C 50.9215 -0.108554 -2.77087 0
M  V30 611 H 53.8725 -0.526485 -1.49712 0
M  V30 612 H 53.8935 1.17828 -3.61796 0
M  V30 613 H 53.4055 -0.634235 -3.82883 0
M  V30 614 H 51.5065 1.76945 -3.27904 0
M  V30 615 H 51.6195 0.596572 -4.75371 0
M  V30 616 H 49.9835 0.412931 -2.5133 0
M  V30 617 H 50.7665 -1.08368 -3.25747 0
M  V30 618 N 53.2116 1.57565 -0.0334293 0
M  V30 619 C 54.6276 1.56297 0.322997 0
M  V30 620 C 54.8276 1.03945 1.7262 0
M  V30 621 O 53.8836 0.688109 2.42943 0
M  V30 622 C 55.1966 3.00232 0.167664 0
M  V30 623 C 56.7446 3.12078 0.240107 0
M  V30 624 C 57.2196 4.57859 0.113513 0
M  V30 625 N 58.7106 4.62887 0.170359 0
M  V30 626 C 59.4456 5.73319 0.0962517 0
M  V30 627 N 58.9416 6.92794 -0.0291881 0
M  V30 628 N 60.7346 5.61898 0.150551 0
M  V30 629 H 52.8856 1.89923 -0.950956 0
M  V30 630 H 55.1486 0.873824 -0.367608 0
M  V30 631 H 54.8546 3.42501 -0.799102 0
M  V30 632 H 54.7286 3.654 0.936083 0
M  V30 633 H 57.1156 2.69718 1.19733 0
M  V30 634 H 57.1966 2.49623 -0.558763 0
M  V30 635 H 56.8406 5.009 -0.840314 0
M  V30 636 H 56.7706 5.18299 0.931302 0
M  V30 637 H 59.2616 3.76954 0.26728 0
M  V30 638 H 59.5746 7.7276 -0.0789252 0
M  V30 639 H 57.9196 6.94971 -0.0640299 0
M  V30 640 H 61.1106 4.67448 0.246981 0
M  V30 641 H 61.2836 6.47938 0.0893365 0
M  V30 642 N 54.6897 -0.239769 1.55765 0
M  V30 643 C 55.6367 -1.29696 1.90913 0
M  V30 644 C 56.6067 -1.47478 0.764164 0
M  V30 645 O 57.7917 -1.61345 1.01845 0
M  V30 646 C 54.9317 -2.64598 2.21544 0
M  V30 647 C 54.0447 -2.54765 3.48882 0
M  V30 648 C 53.1797 -3.82069 3.69049 0
M  V30 649 C 52.2187 -3.66883 4.89963 0
M  V30 650 N 51.3557 -4.86094 5.06614 0
M  V30 651 H 56.1957 -0.990224 2.81067 0
M  V30 652 H 53.7327 -0.477684 1.39128 0
M  V30 653 H 55.6907 -3.43132 2.3731 0
M  V30 654 H 54.3207 -2.93405 1.34585 0
M  V30 655 H 53.3727 -1.67763 3.41409 0
M  V30 656 H 54.6847 -2.39457 4.37563 0
M  V30 657 H 53.8387 -4.69046 3.84812 0
M  V30 658 H 52.5777 -4.00282 2.78614 0
M  V30 659 H 51.5827 -2.78289 4.74168 0
M  V30 660 H 52.8077 -3.50157 5.81865 0
M  V30 661 H 50.7537 -5.04655 4.19117 0
M  V30 662 H 50.6707 -4.73443 5.89396 0
M  V30 663 H 51.9387 -5.74549 5.26795 0
M  V30 664 N 56.1678 -1.49265 -0.50573 0
M  V30 665 C 57.5788 -1.51769 -1.08734 0
M  V30 666 C 57.9298 -0.301192 -1.93874 0
M  V30 667 O 57.0548 0.589456 -2.08217 0
M  V30 668 C 57.6498 -2.75017 -1.97867 0
M  V30 669 C 56.2088 -2.80314 -2.51199 0
M  V30 670 C 55.3558 -2.4562 -1.28709 0
M  V30 671 H 58.3068 -1.56031 -0.289855 0
M  V30 672 H 58.3278 -2.5491 -2.82491 0
M  V30 673 H 57.8398 -3.63539 -1.35873 0
M  V30 674 H 55.9408 -1.96061 -3.16845 0
M  V30 675 H 56.0538 -3.82366 -2.88675 0
M  V30 676 H 54.4178 -1.97297 -1.61078 0
M  V30 677 H 55.2008 -3.36411 -0.6843 0
M  V30 678 N 57.6459 0.756429 -1.3826 0
M  V30 679 C 58.5559 1.9009 -1.37488 0
M  V30 680 C 59.5719 1.71855 -0.272366 0
M  V30 681 O 60.7479 1.94827 -0.510318 0
M  V30 682 C 57.8129 3.25421 -1.19592 0
M  V30 683 C 56.8739 3.56202 -2.39622 0
M  V30 684 C 56.1069 4.85075 -2.2257 0
M  V30 685 O 56.3299 5.57246 -1.21793 0
M  V30 686 O 55.2639 5.15269 -3.11098 0
M  V30 687 H 59.0899 1.93695 -2.33914 0
M  V30 688 H 56.6749 0.901313 -1.1915 0
M  V30 689 H 58.5569 4.06337 -1.11661 0
M  V30 690 H 57.2319 3.22634 -0.262486 0
M  V30 691 H 56.1389 2.75458 -2.53128 0
M  V30 692 H 57.4719 3.63747 -3.31586 0
M  V30 693 N 59.124 1.23083 0.984299 0
M  V30 694 C 60.37 1.07221 1.72845 0
M  V30 695 C 60.725 -0.387453 1.88458 0
M  V30 696 O 60.018 -1.28309 1.42293 0
M  V30 697 C 60.212 1.72673 3.1292 0
M  V30 698 C 60.041 3.24853 3.10967 0
M  V30 699 C 58.811 3.93998 3.16376 0
M  V30 700 C 61.009 4.21674 2.94441 0
M  V30 701 N 58.991 5.33192 3.04268 0
M  V30 702 C 60.362 5.47756 2.90453 0
M  V30 703 C 62.417 4.12457 2.78897 0
M  V30 704 C 61.12 6.6568 2.72512 0
M  V30 705 C 63.146 5.3004 2.62319 0
M  V30 706 C 62.508 6.55046 2.59026 0
M  V30 707 H 58.607 0.44685 0.641755 0
M  V30 708 H 61.191 1.55753 1.16829 0
M  V30 709 H 59.362 1.26679 3.67161 0
M  V30 710 H 61.094 1.49824 3.75945 0
M  V30 711 H 57.849 3.45052 3.24401 0
M  V30 712 H 58.273 6.06157 3.015 0
M  V30 713 H 62.915 3.16588 2.80235 0
M  V30 714 H 60.633 7.61689 2.69919 0
M  V30 715 H 64.219 5.24747 2.5126 0
M  V30 716 H 63.099 7.44498 2.46357 0
M  V30 717 N 60.6021 -1.18246 1.0419 0
M  V30 718 C 61.8501 -1.87886 0.744543 0
M  V30 719 C 62.1711 -1.8082 -0.730006 0
M  V30 720 O 61.4411 -1.22736 -1.52685 0
M  V30 721 H 60.0211 -0.695556 0.272417 0
M  V30 722 H 62.6831 -1.43494 1.31892 0
M  V30 723 H 61.7791 -2.9389 1.05049 0
M  V30 724 N 62.0802 -0.821533 -1.34494 0
M  V30 725 C 63.0282 -0.230702 -2.31453 0
M  V30 726 C 64.0222 0.627793 -1.57338 0
M  V30 727 O 65.2282 0.519288 -1.72347 0
M  V30 728 H 61.6032 -0.0558577 -0.749923 0
M  V30 729 H 63.5742 -1.06332 -2.78812 0
M  V30 730 C 62.3232 0.59391 -3.4259 0
M  V30 731 H 61.6462 -0.0573588 -3.99759 0
M  V30 732 H 63.0862 0.973446 -4.12674 0
M  V30 733 C 61.5452 1.76568 -2.86924 0
M  V30 734 O 62.0752 2.8638 -2.81691 0
M  V30 735 N 60.2812 1.58198 -2.43766 0
M  V30 736 H 59.8282 0.68872 -2.48222 0
M  V30 737 H 59.7862 2.36752 -2.06871 0
M  V30 738 N 63.5583 1.46682 -0.576371 0
M  V30 739 C 64.8073 2.01619 -0.0572825 0
M  V30 740 C 65.1203 1.45417 1.30818 0
M  V30 741 O 66.3263 1.92133 1.91825 0
M  V30 742 C 64.7823 3.59863 -0.0518371 0
M  V30 743 C 64.3903 4.25059 -1.41523 0
M  V30 744 C 66.1343 4.2248 0.413639 0
M  V30 745 C 64.0413 5.75364 -1.36785 0
M  V30 746 H 62.9713 0.753794 -0.0176448 0
M  V30 747 H 65.6223 1.68481 -0.727076 0
M  V30 748 H 64.0043 3.90048 0.683994 0
M  V30 749 H 65.1783 4.06491 -2.17029 0
M  V30 750 H 63.4933 3.7451 -1.8202 0
M  V30 751 H 66.0903 5.3265 0.467779 0
M  V30 752 H 66.4333 3.90976 1.42982 0
M  V30 753 H 66.9663 3.96897 -0.267929 0
M  V30 754 H 63.7053 6.11518 -2.36063 0
M  V30 755 H 63.2253 5.96214 -0.654895 0
M  V30 756 H 64.9043 6.37955 -1.07805 0
M  V30 757 N 65.0364 0.313813 1.54444 0
M  V30 758 C 66.2764 -0.292389 2.02298 0
M  V30 759 C 66.6404 -1.50105 1.19719 0
M  V30 760 O 67.8414 -2.17947 1.5733 0
M  V30 761 C 66.1124 -0.627682 3.51845 0
M  V30 762 S 67.6714 -1.21493 4.21646 0
M  V30 763 H 64.4894 -0.0890247 0.705405 0
M  V30 764 H 67.0914 0.444668 1.90376 0
M  V30 765 H 65.7954 0.260265 4.09574 0
M  V30 766 H 65.3264 -1.39519 3.67829 0
M  V30 767 H 67.3414 -2.5022 4.28491 0
M  V30 768 N 66.5145 -1.57545 0.0417849 0
M  V30 769 C 67.7605 -1.93424 -0.629168 0
M  V30 770 C 68.1155 -0.919564 -1.69002 0
M  V30 771 O 67.4085 0.0626178 -1.91498 0
M  V30 772 C 67.6025 -3.33794 -1.27735 0
M  V30 773 C 67.4315 -4.48822 -0.280806 0
M  V30 774 C 66.2015 -5.05148 0.123869 0
M  V30 775 C 68.3995 -5.12148 0.470012 0
M  V30 776 N 66.3815 -6.03703 1.11426 0
M  V30 777 C 67.7525 -6.05921 1.31377 0
M  V30 778 C 69.8075 -4.95078 0.529343 0
M  V30 779 C 68.5105 -6.84459 2.21152 0
M  V30 780 C 70.5365 -5.74235 1.41448 0
M  V30 781 C 69.8985 -6.67634 2.24598 0
M  V30 782 H 65.9975 -0.755418 -0.202158 0
M  V30 783 H 68.5815 -1.94378 0.111923 0
M  V30 784 H 66.7525 -3.33635 -1.98852 0
M  V30 785 H 68.4845 -3.56988 -1.90635 0
M  V30 786 H 65.2395 -4.72923 -0.253178 0
M  V30 787 H 65.6635 -6.57674 1.60607 0
M  V30 788 H 70.3055 -4.22683 -0.0992798 0
M  V30 789 H 68.0235 -7.56151 2.85063 0
M  V30 790 H 71.6095 -5.63057 1.46484 0
M  V30 791 H 70.4895 -7.27817 2.9198 0
M  V30 792 N 67.9926 0.231505 -1.5589 0
M  V30 793 C 69.2406 0.955461 -1.78088 0
M  V30 794 C 69.5616 1.85262 -0.608533 0
M  V30 795 O 68.8316 1.92277 0.375035 0
M  V30 796 H 67.4116 0.355787 -0.656829 0
M  V30 797 H 70.0736 0.245751 -1.93344 0
M  V30 798 H 69.1696 1.56814 -2.69844 0
M  V30 799 N 69.4707 1.49531 0.497807 0
M  V30 800 C 70.4207 1.62829 1.59596 0
M  V30 801 C 71.4047 0.483824 1.53453 0
M  V30 802 O 72.5967 0.736937 1.60929 0
M  V30 803 C 69.7257 1.7011 2.98191 0
M  V30 804 C 68.8117 2.90144 3.09317 0
M  V30 805 N 69.2027 4.1418 2.90324 0
M  V30 806 C 67.5007 2.88148 3.40422 0
M  V30 807 C 68.2017 4.94886 3.05717 0
M  V30 808 N 67.1777 4.28314 3.34736 0
M  V30 809 H 70.9797 2.56446 1.4357 0
M  V30 810 H 68.4937 1.46347 0.704001 0
M  V30 811 H 70.4907 1.77735 3.77115 0
M  V30 812 H 69.1507 0.776315 3.15283 0
M  V30 813 H 70.1617 4.44109 2.66436 0
M  V30 814 H 66.8387 2.05061 3.63671 0
M  V30 815 H 68.2287 6.03432 2.95499 0
M  V30 816 N 70.9488 -0.749086 1.3866 0
M  V30 817 C 71.9118 -1.84457 1.36045 0
M  V30 818 C 72.9118 -1.58682 0.260122 0
M  V30 819 O 74.1018 -1.66343 0.517261 0
M  V30 820 C 71.2338 -3.22008 1.11911 0
M  V30 821 H 72.4268 -1.88182 2.33512 0
M  V30 822 H 69.9798 -0.951266 1.24019 0
M  V30 823 H 70.7148 -3.2395 0.150686 0
M  V30 824 H 70.4998 -3.42111 1.91579 0
M  V30 825 H 71.9898 -4.0208 1.12788 0
M  V30 826 N 72.4269 -1.23603 -0.977757 0
M  V30 827 C 73.6729 -1.07129 -1.72195 0
M  V30 828 C 74.0059 0.390501 -1.90233 0
M  V30 829 O 73.2809 1.28902 -1.45653 0
M  V30 830 C 73.5639 -1.80031 -3.11867 0
M  V30 831 C 73.4169 -3.33899 -3.01383 0
M  V30 832 C 74.7359 -1.56492 -4.11337 0
M  V30 833 H 71.8549 -0.390571 -0.624999 0
M  V30 834 H 74.4969 -1.52142 -1.13811 0
M  V30 835 H 72.6469 -1.41768 -3.6171 0
M  V30 836 H 74.3189 -3.81699 -2.59043 0
M  V30 837 H 72.5619 -3.62796 -2.37827 0
M  V30 838 H 73.2329 -3.801 -4.00285 0
M  V30 839 H 75.7089 -1.89757 -3.70313 0
M  V30 840 H 74.5849 -2.09973 -5.07151 0
M  V30 841 H 74.8459 -0.500874 -4.39254 0
M  V30 842 N 73.905 1.17692 -1.04816 0
M  V30 843 C 75.13 1.92327 -0.776207 0
M  V30 844 C 75.555 1.76082 0.661581 0
M  V30 845 O 74.913 1.076 1.45917 0
M  V30 846 C 74.961 3.41539 -1.15687 0
M  V30 847 O 74.065 4.11402 -0.286775 0
M  V30 848 H 73.406 0.599735 -0.284981 0
M  V30 849 H 75.936 1.49201 -1.4 0
M  V30 850 H 75.946 3.92269 -1.12202 0
M  V30 851 H 74.621 3.52684 -2.20425 0
M  V30 852 H 73.198 3.70939 -0.381903 0
M  V30 853 N 75.3831 0.828654 1.34056 0
M  V30 854 C 76.6601 0.341809 1.9259 0
M  V30 855 C 77.0401 -1.17158 1.75605 0
M  V30 856 O 76.3881 -1.98132 1.13824 0
M  V30 857 C 76.5981 0.777453 3.4023 0
M  V30 858 C 77.9461 0.779579 4.17382 0
M  V30 859 O 78.9701 0.7204 3.48839 0
M  V30 860 O 77.8291 0.857996 5.39723 0
M  V30 861 H 74.9231 0.0946085 0.821571 0
M  V30 862 H 77.4691 0.913827 1.42994 0
M  V30 863 H 76.2411 1.8196 3.46419 0
M  V30 864 H 75.8641 0.181444 3.97186 0
M  V30 865 N 76.8612 -1.46375 0.584142 0
M  V30 866 C 78.1382 -1.956 0.0033388 0
M  V30 867 C 78.5182 -1.52679 -1.45782 0
M  V30 868 O 77.8662 -0.77816 -2.14842 0
M  V30 869 C 78.0762 -3.48551 0.176891 0
M  V30 870 C 79.4242 -4.24576 0.0454609 0
M  V30 871 O 80.4482 -3.56043 0.105801 0
M  V30 872 O 79.3072 -5.46427 -0.0890376 0
M  V30 873 H 76.4012 -0.825547 -0.0490066 0
M  V30 874 H 78.9472 -1.56652 0.65256 0
M  V30 875 H 77.7192 -3.72683 1.1926 0
M  V30 876 H 77.3422 -3.94332 -0.508695 0
M  V30 877 N 78.3393 -0.321999 -1.54275 0
M  V30 878 C 79.2693 0.537411 -2.27231 0
M  V30 879 C 80.2503 1.12064 -1.27968 0
M  V30 880 O 81.4353 1.14606 -1.56777 0
M  V30 881 C 78.5653 1.69919 -3.02894 0
M  V30 882 C 77.5193 1.24534 -4.09482 0
M  V30 883 C 76.8453 2.49394 -4.72977 0
M  V30 884 C 78.1453 0.361335 -5.21049 0
M  V30 885 H 79.8393 -0.0711406 -2.99315 0
M  V30 886 H 77.3853 -0.0356555 -1.43956 0
M  V30 887 H 79.3383 2.30668 -3.52662 0
M  V30 888 H 78.0623 2.33431 -2.28424 0
M  V30 889 H 76.7213 0.660782 -3.60596 0
M  V30 890 H 76.3693 3.11265 -3.95124 0
M  V30 891 H 76.0693 2.19718 -5.44975 0
M  V30 892 H 77.5933 3.10908 -5.25517 0
M  V30 893 H 79.0073 0.875072 -5.66582 0
M  V30 894 H 77.4043 0.157428 -5.99893 0
M  V30 895 H 78.4743 -0.60822 -4.8107 0
M  V30 896 N 79.8174 1.5752 -0.0501392 0
M  V30 897 C 81.0634 1.92936 0.624798 0
M  V30 898 C 81.3964 0.928685 1.70555 0
M  V30 899 O 80.6714 -0.0454779 1.94447 0
M  V30 900 C 80.9544 3.38737 1.22185 0
M  V30 901 C 80.8074 4.49552 0.149218 0
M  V30 902 C 82.1264 3.84913 2.13378 0
M  V30 903 H 79.2454 0.701604 0.225657 0
M  V30 904 H 81.8874 1.89671 -0.111693 0
M  V30 905 H 80.0374 3.4165 1.84953 0
M  V30 906 H 81.7094 4.58768 -0.482648 0
M  V30 907 H 79.9524 4.30638 -0.522841 0
M  V30 908 H 80.6234 5.48653 0.606966 0
M  V30 909 H 83.0994 3.8387 1.60572 0
M  V30 910 H 81.9754 4.87584 2.52097 0
M  V30 911 H 82.2364 3.21611 3.03346 0
M  V30 912 N 81.2955 -0.223234 1.56011 0
M  V30 913 C 82.2455 -1.28008 1.88674 0
M  V30 914 C 83.2295 -1.42369 0.749663 0
M  V30 915 O 84.4215 -1.45212 1.01205 0
M  V30 916 C 81.5505 -2.63084 2.20548 0
M  V30 917 C 80.6365 -2.52632 3.40643 0
M  V30 918 N 81.0275 -2.11829 4.59306 0
M  V30 919 C 79.3255 -2.83594 3.44224 0
M  V30 920 C 80.0265 -2.12587 5.41463 0
M  V30 921 N 79.0025 -2.5301 4.81131 0
M  V30 922 H 82.8045 -0.955487 2.77935 0
M  V30 923 H 80.3185 -0.431801 1.56554 0
M  V30 924 H 82.3155 -3.39385 2.42122 0
M  V30 925 H 80.9755 -2.96391 1.32599 0
M  V30 926 H 81.9865 -1.82988 4.84496 0
M  V30 927 H 78.6635 -3.21284 2.66614 0
M  V30 928 H 80.0535 -1.83179 6.46448 0
M  V30 929 N 82.7736 -1.49793 -0.48987 0
M  V30 930 C 84.0196 -1.61049 -1.24236 0
M  V30 931 C 84.3746 -0.298412 -1.90072 0
M  V30 932 O 83.6676 0.702262 -1.78266 0
M  V30 933 C 83.8616 -2.71488 -2.32441 0
M  V30 934 C 83.6906 -4.13308 -1.77218 0
M  V30 935 C 82.4606 -4.79955 -1.58023 0
M  V30 936 C 84.6586 -4.98176 -1.27772 0
M  V30 937 N 82.6406 -6.06052 -0.978465 0
M  V30 938 C 84.0116 -6.14843 -0.798 0
M  V30 939 C 86.0666 -4.84091 -1.16449 0
M  V30 940 C 84.7696 -7.18975 -0.216245 0
M  V30 941 C 86.7956 -5.88382 -0.596698 0
M  V30 942 C 86.1576 -7.04285 -0.127262 0
M  V30 943 H 82.2566 -0.643611 -0.444172 0
M  V30 944 H 84.8406 -1.86842 -0.54754 0
M  V30 945 H 83.0116 -2.47449 -2.99372 0
M  V30 946 H 84.7436 -2.72205 -2.99477 0
M  V30 947 H 81.4986 -4.36936 -1.82712 0
M  V30 948 H 81.9226 -6.73407 -0.696534 0
M  V30 949 H 86.5646 -3.94786 -1.5134 0
M  V30 950 H 84.2826 -8.0797 0.144903 0
M  V30 951 H 87.8686 -5.79545 -0.511716 0
M  V30 952 H 86.7486 -7.83606 0.30523 0
M  V30 953 N 84.2517 0.741722 -1.39055 0
M  V30 954 C 85.6677 1.04638 -1.20512 0
M  V30 955 C 85.8677 2.01405 -0.0620218 0
M  V30 956 O 84.9237 2.45547 0.588457 0
M  V30 957 C 86.2367 1.6151 -2.53643 0
M  V30 958 C 87.7847 1.73623 -2.6043 0
M  V30 959 C 88.2597 2.33906 -3.93767 0
M  V30 960 N 89.7507 2.41323 -3.9537 0
M  V30 961 C 90.4857 2.88888 -4.95309 0
M  V30 962 N 89.9817 3.36401 -6.05645 0
M  V30 963 N 91.7747 2.88037 -4.82692 0
M  V30 964 H 83.9257 0.0998155 -2.12165 0
M  V30 965 H 86.1887 0.106907 -0.941953 0
M  V30 966 H 85.8947 0.978739 -3.37807 0
M  V30 967 H 85.7687 2.60411 -2.72885 0
M  V30 968 H 88.1557 2.36384 -1.76655 0
M  V30 969 H 88.2367 0.733945 -2.45045 0
M  V30 970 H 87.8807 1.71776 -4.7797 0
M  V30 971 H 87.8107 3.34799 -4.06469 0
M  V30 972 H 90.3017 2.07734 -3.15682 0
M  V30 973 H 90.6147 3.71186 -6.77821 0
M  V30 974 H 88.9597 3.34427 -6.09248 0
M  V30 975 H 92.1507 2.50237 -3.95599 0
M  V30 976 H 92.3237 3.24792 -5.60726 0
M  V30 977 N 85.7298 1.2412 0.971189 0
M  V30 978 C 86.6798 0.997551 2.05019 0
M  V30 979 C 87.6638 -0.0597747 1.60789 0
M  V30 980 O 88.8558 0.153516 1.76333 0
M  V30 981 C 85.9848 0.600557 3.38006 0
M  V30 982 C 85.0708 1.69377 3.88809 0
M  V30 983 N 85.4618 2.92586 4.12586 0
M  V30 984 C 83.7598 1.57048 4.17435 0
M  V30 985 C 84.4608 3.63431 4.54195 0
M  V30 986 N 83.4368 2.90979 4.59165 0
M  V30 987 H 87.2388 1.93316 2.21374 0
M  V30 988 H 84.7528 1.14194 1.1547 0
M  V30 989 H 86.7498 0.40725 4.14906 0
M  V30 990 H 85.4098 -0.327903 3.2304 0
M  V30 991 H 86.4208 3.288 4.00139 0
M  V30 992 H 83.0978 0.709798 4.11422 0
M  V30 993 H 84.4878 4.69102 4.81033 0
M  V30 994 N 87.2079 -1.17134 1.05439 0
M  V30 995 C 88.1379 -2.2342 0.678649 0
M  V30 996 C 89.1189 -1.66971 -0.32476 0
M  V30 997 O 90.3039 -1.93149 -0.201802 0
M  V30 998 C 87.4339 -3.47256 0.0552099 0
M  V30 999 C 86.3879 -4.16543 0.98365 0
M  V30 1000 C 85.7139 -5.34231 0.223961 0
M  V30 1001 C 87.0139 -4.68495 2.3089 0
M  V30 1002 H 88.7079 -2.55105 1.56722 0
M  V30 1003 H 86.2539 -1.2262 0.754998 0
M  V30 1004 H 88.2069 -4.20828 -0.21946 0
M  V30 1005 H 86.9309 -3.14846 -0.868319 0
M  V30 1006 H 85.5899 -3.44887 1.24293 0
M  V30 1007 H 85.2379 -4.98071 -0.702412 0
M  V30 1008 H 84.9379 -5.81527 0.842627 0
M  V30 1009 H 86.4619 -6.10585 -0.0433671 0
M  V30 1010 H 87.8759 -5.33691 2.09396 0
M  V30 1011 H 86.2729 -5.26379 2.88176 0
M  V30 1012 H 87.3429 -3.85169 2.94572 0
M  V30 1013 N 88.686 -0.835752 -1.33615 0
M  V30 1014 C 90.097 -0.487099 -1.80234 0
M  V30 1015 C 90.448 0.993627 -1.69179 0
M  V30 1016 O 89.573 1.77403 -1.23924 0
M  V30 1017 C 90.168 -0.877385 -3.27242 0
M  V30 1018 C 88.727 -0.580915 -3.7189 0
M  V30 1019 C 87.874 -1.0874 -2.5509 0
M  V30 1020 H 90.825 -1.02474 -1.2118 0
M  V30 1021 H 90.846 -0.186195 -3.80044 0
M  V30 1022 H 90.358 -1.95512 -3.35256 0
M  V30 1023 H 88.459 0.486881 -3.69405 0
M  V30 1024 H 88.572 -1.13396 -4.65487 0
M  V30 1025 H 86.936 -0.508392 -2.49575 0
M  V30 1026 H 87.719 -2.17184 -2.65868 0
M  V30 1027 N 90.1641 1.46063 -0.591896 0
M  V30 1028 C 91.4101 2.02638 -0.0811191 0
M  V30 1029 C 91.7431 1.4613 1.27905 0
M  V30 1030 O 91.0181 0.629908 1.84017 0
M  V30 1031 C 91.3011 3.60091 -0.0252436 0
M  V30 1032 C 91.1541 4.26965 -1.41496 0
M  V30 1033 C 92.4731 4.3496 0.670685 0
M  V30 1034 H 89.5921 0.73635 -0.0309524 0
M  V30 1035 H 92.2341 1.741 -0.760859 0
M  V30 1036 H 90.3841 3.84535 0.553624 0
M  V30 1037 H 92.0561 4.13756 -2.0397 0
M  V30 1038 H 90.2991 3.85971 -1.98011 0
M  V30 1039 H 90.9701 5.35781 -1.32825 0
M  V30 1040 H 93.4461 4.15716 0.178825 0
M  V30 1041 H 92.3221 5.44686 0.678837 0
M  V30 1042 H 92.5831 4.06685 1.73379 0
M  V30 1043 N 91.6422 0.330177 1.54103 0
M  V30 1044 C 92.6052 -0.520144 2.2322 0
M  V30 1045 C 93.6052 -1.03828 1.22786 0
M  V30 1046 O 94.7952 -0.929652 1.4732 0
M  V30 1047 C 91.9272 -1.72317 2.94142 0
M  V30 1048 H 93.1202 0.0841605 2.99782 0
M  V30 1049 H 90.6732 0.0813433 1.56088 0
M  V30 1050 H 91.4082 -2.36653 2.21734 0
M  V30 1051 H 91.1932 -1.35898 3.67796 0
M  V30 1052 H 92.6832 -2.3266 3.46784 0
M  V30 1053 N 93.1203 -1.57491 0.0584922 0
M  V30 1054 C 94.0503 -2.14988 -0.911178 0
M  V30 1055 C 95.0313 -1.07343 -1.31952 0
M  V30 1056 O 96.2163 -1.35318 -1.39294 0
M  V30 1057 C 93.3463 -2.70078 -2.18347 0
M  V30 1058 C 92.3003 -3.82771 -1.91495 0
M  V30 1059 C 91.6263 -4.24408 -3.25241 0
M  V30 1060 C 92.9263 -5.07592 -1.23075 0
M  V30 1061 H 94.6203 -2.96263 -0.432246 0
M  V30 1062 H 92.1663 -1.42512 -0.206469 0
M  V30 1063 H 94.1193 -3.08943 -2.86587 0
M  V30 1064 H 92.8433 -1.86005 -2.68458 0
M  V30 1065 H 91.5023 -3.44389 -1.25664 0
M  V30 1066 H 91.1503 -3.37275 -3.73168 0
M  V30 1067 H 90.8503 -5.00366 -3.08071 0
M  V30 1068 H 92.3743 -4.65879 -3.94701 0
M  V30 1069 H 93.7883 -5.43857 -1.81362 0
M  V30 1070 H 92.1853 -5.88741 -1.16207 0
M  V30 1071 H 93.2553 -4.84454 -0.207847 0
M  V30 1072 N 94.5984 0.214957 -1.56127 0
M  V30 1073 C 95.8284 0.953707 -1.8327 0
M  V30 1074 C 96.2364 1.78181 -0.636262 0
M  V30 1075 O 95.5794 1.79191 0.404516 0
M  V30 1076 C 95.6414 1.91516 -3.0424 0
M  V30 1077 C 95.3054 1.27094 -4.38972 0
M  V30 1078 C 96.3024 0.657575 -5.15725 0
M  V30 1079 C 93.9874 1.28073 -4.85698 0
M  V30 1080 C 95.9814 0.0625968 -6.37369 0
M  V30 1081 C 93.6684 0.681914 -6.07283 0
M  V30 1082 C 94.6664 0.0739046 -6.8296 0
M  V30 1083 O 94.3544 -0.515582 -8.02245 0
M  V30 1084 H 94.0864 0.284764 -0.613095 0
M  V30 1085 H 96.6404 0.233283 -2.04071 0
M  V30 1086 H 94.8704 2.67475 -2.79274 0
M  V30 1087 H 96.5594 2.52001 -3.18198 0
M  V30 1088 H 97.3254 0.642288 -4.80728 0
M  V30 1089 H 93.2044 1.74337 -4.26764 0
M  V30 1090 H 96.7484 -0.412593 -6.96379 0
M  V30 1091 H 92.6454 0.694636 -6.41752 0
M  V30 1092 H 93.4134 -0.410544 -8.1747 0
M  V30 1093 N 96.0765 1.50051 0.48192 0
M  V30 1094 C 97.4875 1.5348 1.06305 0
M  V30 1095 C 97.8385 0.331997 1.93371 0
M  V30 1096 O 96.9635 -0.556256 2.09129 0
M  V30 1097 C 97.5585 2.7813 1.93466 0
M  V30 1098 C 96.1175 2.84275 2.46707 0
M  V30 1099 C 95.2645 2.47637 1.24785 0
M  V30 1100 H 98.2155 1.56472 0.264995 0
M  V30 1101 H 98.2365 2.59372 2.78399 0
M  V30 1102 H 97.7485 3.65654 1.30072 0
M  V30 1103 H 95.8495 2.01077 3.13686 0
M  V30 1104 H 95.9625 3.8691 2.82555 0
M  V30 1105 H 94.3265 1.99835 1.57918 0
M  V30 1106 H 95.1095 3.37457 0.630694 0
M  V30 1107 N 97.5546 -0.734337 1.39446 0
M  V30 1108 C 98.8316 -1.48579 1.27215 0
M  V30 1109 C 99.2116 -2.1077 -0.117968 0
M  V30 1110 O 98.5596 -1.98646 -1.12924 0
M  V30 1111 C 98.7696 -2.53667 2.39696 0
M  V30 1112 C 100.118 -3.20031 2.79044 0
M  V30 1113 O 101.142 -2.6398 2.39151 0
M  V30 1114 O 100.001 -4.21455 3.47905 0
M  V30 1115 H 97.0946 -0.659816 0.49857 0
M  V30 1116 H 99.6406 -0.768106 1.51322 0
M  V30 1117 H 98.4126 -2.06096 3.32626 0
M  V30 1118 H 98.0356 -3.32994 2.17258 0
M  V30 1119 N 99.0327 -1.24633 -0.964593 0
M  V30 1120 C 100.31 -0.995809 -1.68354 0
M  V30 1121 C 100.69 0.480964 -2.05548 0
M  V30 1122 O 100.038 1.45599 -1.76105 0
M  V30 1123 C 100.248 -1.92177 -2.91323 0
M  V30 1124 C 101.596 -2.19446 -3.63495 0
M  V30 1125 O 102.62 -1.89855 -3.01386 0
M  V30 1126 O 101.479 -2.69714 -4.75307 0
M  V30 1127 H 98.5727 -0.376854 -0.736146 0
M  V30 1128 H 101.119 -1.35745 -1.0184 0
M  V30 1129 H 99.8907 -2.91938 -2.60553 0
M  V30 1130 H 99.5137 -1.56349 -3.65569 0
M  V30 1131 N 100.511 1.16574 -1.06058 0
M  V30 1132 C 101.421 2.2452 -0.680282 0
M  V30 1133 C 102.437 1.71348 0.302604 0
M  V30 1134 O 103.613 2.00822 0.152513 0
M  V30 1135 C 100.678 3.46629 -0.0700315 0
M  V30 1136 C 99.7388 4.14849 -1.10448 0
M  V30 1137 C 98.9718 5.31129 -0.523256 0
M  V30 1138 O 99.1948 5.66514 0.664709 0
M  V30 1139 O 98.1288 5.88526 -1.26179 0
M  V30 1140 H 101.955 2.59355 -1.58015 0
M  V30 1141 H 99.5398 1.24043 -0.832694 0
M  V30 1142 H 101.422 4.20543 0.268667 0
M  V30 1143 H 100.097 3.13573 0.803353 0
M  V30 1144 H 99.0038 3.42916 -1.49532 0
M  V30 1145 H 100.337 4.51954 -1.94931 0
M  V30 1146 N 101.989 0.842826 1.3317 0
M  V30 1147 C 103.217 0.454055 2.01856 0
M  V30 1148 C 103.632 -0.94587 1.63397 0
M  V30 1149 O 102.989 -1.61534 0.849302 0
M  V30 1150 C 103.04 0.569715 3.56982 0
M  V30 1151 O 102.761 1.91448 3.94055 0
M  V30 1152 C 104.262 0.178412 4.42941 0
M  V30 1153 H 101.482 0.17979 0.646465 0
M  V30 1154 H 104.026 1.1365 1.70012 0
M  V30 1155 H 102.181 -0.0648587 3.87346 0
M  V30 1156 H 102.595 1.90282 4.88767 0
M  V30 1157 H 104.069 0.310376 5.51127 0
M  V30 1158 H 104.546 -0.880056 4.30293 0
M  V30 1159 H 105.152 0.787579 4.17944 0
M  V30 1160 N 103.467 -1.45747 0.599634 0
M  V30 1161 C 104.417 -2.27538 -0.145107 0
M  V30 1162 C 105.401 -1.3686 -0.846055 0
M  V30 1163 O 106.593 -1.6091 -0.737357 0
M  V30 1164 C 103.722 -3.23569 -1.14708 0
M  V30 1165 C 102.808 -4.21734 -0.447383 0
M  V30 1166 N 103.199 -5.03257 0.506535 0
M  V30 1167 C 101.497 -4.40536 -0.695966 0
M  V30 1168 C 102.198 -5.74426 0.917068 0
M  V30 1169 N 101.174 -5.42966 0.26253 0
M  V30 1170 H 104.976 -2.87965 0.587672 0
M  V30 1171 H 102.49 -1.56803 0.422697 0
M  V30 1172 H 104.487 -3.8089 -1.69495 0
M  V30 1173 H 103.147 -2.64702 -1.8805 0
M  V30 1174 H 104.158 -5.10319 0.882899 0
M  V30 1175 H 100.835 -3.92802 -1.41467 0
M  V30 1176 H 102.225 -6.4995 1.70338 0
M  V30 1177 N 104.945 -0.338344 -1.53925 0
M  V30 1178 C 106.193 0.259245 -2.0043 0
M  V30 1179 C 106.514 1.51484 -1.22791 0
M  V30 1180 O 105.784 1.93037 -0.33368 0
M  V30 1181 H 104.364 0.0987845 -0.740439 0
M  V30 1182 H 107.026 -0.458302 -1.89435 0
M  V30 1183 H 106.122 0.505334 -3.07982 0
M  V30 1184 N 106.423 1.57458 -0.0668435 0
M  V30 1185 C 107.669 1.93587 0.6043 0
M  V30 1186 C 108.002 0.946722 1.69561 0
M  V30 1187 O 107.277 -0.0248516 1.94484 0
M  V30 1188 C 107.56 3.40014 1.18585 0
M  V30 1189 C 107.413 4.49685 0.101529 0
M  V30 1190 C 108.732 3.87154 2.09284 0
M  V30 1191 H 105.851 0.703958 0.218202 0
M  V30 1192 H 108.493 1.89542 -0.131804 0
M  V30 1193 H 106.643 3.43592 1.81319 0
M  V30 1194 H 108.315 4.5823 -0.531279 0
M  V30 1195 H 106.558 4.30059 -0.568487 0
M  V30 1196 H 107.229 5.49266 0.54874 0
M  V30 1197 H 109.705 3.85551 1.56491 0
M  V30 1198 H 108.581 4.90231 2.46911 0
M  V30 1199 H 108.842 3.2481 2.99918 0
M  V30 1200 N 107.901 -0.206675 1.56239 0
M  V30 1201 C 109.148 -0.928842 1.79941 0
M  V30 1202 C 109.476 -1.83734 0.638131 0
M  V30 1203 O 108.731 -1.92039 -0.376746 0
M  V30 1204 C 109.03 -1.78675 3.09532 0
M  V30 1205 C 108.696 -1.03022 4.38973 0
M  V30 1206 C 107.358 -0.821302 4.74139 0
M  V30 1207 C 109.71 -0.497081 5.18824 0
M  V30 1208 C 107.038 -0.0675719 5.86661 0
M  V30 1209 C 109.39 0.24338 6.32132 0
M  V30 1210 C 108.054 0.463422 6.65889 0
M  V30 1211 H 107.324 -0.339887 0.658451 0
M  V30 1212 H 109.971 -0.195977 1.90495 0
M  V30 1213 H 108.276 -2.58794 2.94165 0
M  V30 1214 H 109.973 -2.34792 3.25075 0
M  V30 1215 H 106.563 -1.20306 4.11369 0
M  V30 1216 H 110.747 -0.645921 4.92079 0
M  V30 1217 H 106.003 0.112995 6.11296 0
M  V30 1218 H 110.177 0.66393 6.93228 0
M  V30 1219 H 107.804 1.04938 7.52922 0
M  V30 1220 N 109.379 -1.50304 -0.473955 0
M  V30 1221 C 110.604 -1.65175 -1.25427 0
M  V30 1222 C 111.029 -0.333673 -1.85117 0
M  V30 1223 O 110.387 0.702114 -1.67153 0
M  V30 1224 C 110.435 -2.74295 -2.34082 0
M  V30 1225 O 109.539 -2.35349 -3.38651 0
M  V30 1226 H 108.88 -0.551944 -0.369126 0
M  V30 1227 H 111.41 -1.96662 -0.564364 0
M  V30 1228 H 111.42 -2.97285 -2.79438 0
M  V30 1229 H 110.095 -3.69959 -1.90008 0
M  V30 1230 H 108.672 -2.22794 -2.99027 0
M  V30 1231 N 110.857 0.726932 -1.39834 0
M  V30 1232 C 112.105 1.4837 -1.37225 0
M  V30 1233 C 112.426 1.94979 0.0284857 0
M  V30 1234 O 111.696 1.69555 0.981213 0
M  V30 1235 H 110.276 0.55043 -0.505011 0
M  V30 1236 H 112.938 0.862468 -1.74778 0
M  V30 1237 H 112.034 2.36198 -2.04003 0
M  V30 1238 N 112.336 1.25143 0.95797 0
M  V30 1239 C 113.561 1.12521 1.74223 0
M  V30 1240 C 113.986 -0.317402 1.85403 0
M  V30 1241 O 113.344 -1.2299 1.33204 0
M  V30 1242 C 113.392 1.78062 3.1357 0
M  V30 1243 O 112.496 1.058 3.98598 0
M  V30 1244 H 111.837 0.39304 0.535178 0
M  V30 1245 H 114.367 1.65641 1.201 0
M  V30 1246 H 114.377 1.84213 3.64046 0
M  V30 1247 H 113.052 2.83021 3.04749 0
M  V30 1248 H 111.629 1.07506 3.57067 0
M  V30 1249 N 113.814 -1.1601 1.06675 0
M  V30 1250 C 114.777 -2.18724 0.685001 0
M  V30 1251 C 115.777 -1.58496 -0.271246 0
M  V30 1252 O 116.967 -1.74119 -0.0531156 0
M  V30 1253 C 114.099 -3.40899 0.00853648 0
M  V30 1254 H 115.292 -2.54011 1.59431 0
M  V30 1255 H 112.845 -1.30352 0.862441 0
M  V30 1256 H 113.58 -3.11173 -0.913337 0
M  V30 1257 H 113.365 -3.8587 0.696204 0
M  V30 1258 H 114.855 -4.16886 -0.24414 0
M  V30 1259 N 115.292 -0.849877 -1.32721 0
M  V30 1260 C 116.538 -0.451591 -1.97708 0
M  V30 1261 C 116.871 0.989175 -1.6712 0
M  V30 1262 O 116.146 1.69334 -0.956891 0
M  V30 1263 C 116.429 -0.685598 -3.53513 0
M  V30 1264 C 116.282 -2.17444 -3.93749 0
M  V30 1265 C 117.601 -0.138874 -4.39881 0
M  V30 1266 H 114.72 -0.16555 -0.718166 0
M  V30 1267 H 117.362 -1.06742 -1.57182 0
M  V30 1268 H 115.512 -0.161416 -3.88165 0
M  V30 1269 H 117.184 -2.76433 -3.693 0
M  V30 1270 H 115.427 -2.65476 -3.43081 0
M  V30 1271 H 116.098 -2.28888 -5.02309 0
M  V30 1272 H 118.574 -0.587068 -4.11938 0
M  V30 1273 H 117.45 -0.332213 -5.47894 0
M  V30 1274 H 117.711 0.95806 -4.31594 0
M  V30 1275 N 116.77 1.45427 -0.607355 0
M  V30 1276 C 117.68 2.34325 0.113463 0
M  V30 1277 C 118.696 1.51226 0.860617 0
M  V30 1278 O 119.872 1.84029 0.818255 0
M  V30 1279 C 116.937 3.28839 1.09844 0
M  V30 1280 C 115.998 4.27844 0.353271 0
M  V30 1281 C 115.231 5.17842 1.29133 0
M  V30 1282 O 115.454 5.11264 2.52913 0
M  V30 1283 O 114.388 5.96713 0.788523 0
M  V30 1284 H 118.214 2.97364 -0.617094 0
M  V30 1285 H 115.799 1.44807 -0.367619 0
M  V30 1286 H 117.681 3.8708 1.66575 0
M  V30 1287 H 116.356 2.68365 1.81003 0
M  V30 1288 H 115.263 3.7322 -0.256494 0
M  V30 1289 H 116.596 4.91173 -0.317822 0
M  V30 1290 N 118.248 0.346503 1.53744 0
M  V30 1291 C 119.195 -0.508914 2.25119 0
M  V30 1292 C 120.165 -1.09315 1.25058 0
M  V30 1293 O 121.35 -1.12921 1.53797 0
M  V30 1294 C 118.49 -1.65246 3.02965 0
M  V30 1295 C 117.603 -1.09525 4.17886 0
M  V30 1296 C 116.738 -2.20634 4.83212 0
M  V30 1297 C 115.777 -1.62279 5.90196 0
M  V30 1298 N 114.914 -2.67143 6.49291 0
M  V30 1299 H 119.754 0.106283 2.9781 0
M  V30 1300 H 117.291 0.0642227 1.4696 0
M  V30 1301 H 119.249 -2.32574 3.4636 0
M  V30 1302 H 117.879 -2.2386 2.32565 0
M  V30 1303 H 116.931 -0.312818 3.79112 0
M  V30 1304 H 118.243 -0.628444 4.94825 0
M  V30 1305 H 117.397 -2.95821 5.29693 0
M  V30 1306 H 116.136 -2.70659 4.05703 0
M  V30 1307 H 115.141 -0.855989 5.43096 0
M  V30 1308 H 116.366 -1.13102 6.69615 0
M  V30 1309 H 114.312 -3.16417 5.74645 0
M  V30 1310 H 114.229 -2.25093 7.21713 0
M  V30 1311 H 115.497 -3.4209 7.00425 0
M  V30 1312 N 119.726 -1.57421 0.075193 0
M  V30 1313 C 121.003 -1.85029 -0.634329 0
M  V30 1314 C 121.383 -0.968305 -1.87582 0
M  V30 1315 O 120.731 -0.0354749 -2.28472 0
M  V30 1316 C 120.941 -3.35286 -0.968742 0
M  V30 1317 C 122.289 -4.02875 -1.34077 0
M  V30 1318 O 123.313 -3.40051 -1.06037 0
M  V30 1319 O 122.172 -5.13691 -1.86506 0
M  V30 1320 H 119.266 -0.7645 -0.315387 0
M  V30 1321 H 121.812 -1.69366 0.106382 0
M  V30 1322 H 120.584 -3.91203 -0.0871376 0
M  V30 1323 H 120.207 -3.56223 -1.7661 0
M  V30 1324 N 121.204 0.198386 -1.56346 0
M  V30 1325 C 122.452 0.91747 -1.80075 0
M  V30 1326 C 122.773 1.83929 -0.647692 0
M  V30 1327 O 122.043 1.93029 0.334166 0
M  V30 1328 H 120.623 0.341774 -0.664228 0
M  V30 1329 H 123.285 0.204684 -1.93822 0
M  V30 1330 H 122.381 1.51055 -2.7311 0
M  V30 1331 N 122.682 1.50554 0.465978 0
M  V30 1332 C 123.629 1.6979 1.56333 0
M  V30 1333 C 124.599 0.539239 1.57103 0
M  V30 1334 O 125.784 0.770401 1.74555 0
M  V30 1335 C 122.924 1.80273 2.94271 0
M  V30 1336 C 122.037 3.07674 3.0325 0
M  V30 1337 C 121.172 3.08922 4.32135 0
M  V30 1338 C 120.211 4.30755 4.34875 0
M  V30 1339 N 119.348 4.29714 5.55239 0
M  V30 1340 H 124.188 2.63472 1.39235 0
M  V30 1341 H 121.725 1.30602 0.676873 0
M  V30 1342 H 123.683 1.84332 3.74269 0
M  V30 1343 H 122.313 0.900258 3.09992 0
M  V30 1344 H 121.365 3.13062 2.16094 0
M  V30 1345 H 122.677 3.97642 3.01135 0
M  V30 1346 H 121.831 3.11738 5.20485 0
M  V30 1347 H 120.57 2.16792 4.36866 0
M  V30 1348 H 119.575 4.28146 3.44922 0
M  V30 1349 H 120.8 5.24117 4.31831 0
M  V30 1350 H 118.746 3.4044 5.60746 0
M  V30 1351 H 118.663 5.13456 5.54886 0
M  V30 1352 H 119.931 4.36683 6.457 0
M  V30 1353 N 124.16 -0.719506 1.40217 0
M  V30 1354 C 125.093 -1.84298 1.34571 0
M  V30 1355 C 126.071 -1.61149 0.216741 0
M  V30 1356 O 127.255 -1.84212 0.399756 0
M  V30 1357 C 124.382 -3.20568 1.09335 0
M  V30 1358 C 123.428 -3.62551 2.24631 0
M  V30 1359 S 124.261 -3.7012 3.87004 0
M  V30 1360 C 125.417 -5.09154 3.64024 0
M  V30 1361 H 125.65 -1.88807 2.2965 0
M  V30 1362 H 123.183 -0.885901 1.26456 0
M  V30 1363 H 125.141 -3.99246 0.954602 0
M  V30 1364 H 123.802 -3.13696 0.159164 0
M  V30 1365 H 122.995 -4.61483 2.02606 0
M  V30 1366 H 122.597 -2.91119 2.34789 0
M  V30 1367 H 124.889 -5.95955 3.22248 0
M  V30 1368 H 125.832 -5.36213 4.62473 0
M  V30 1369 H 126.24 -4.79562 2.97793 0
M  V30 1370 N 125.638 -1.25649 -0.95132 0
M  V30 1371 C 126.885 -1.10594 -1.69633 0
M  V30 1372 C 127.213 0.352515 -1.91279 0
M  V30 1373 O 126.468 1.27601 -1.4838 0
M  V30 1374 C 126.767 -1.80909 -3.08231 0
M  V30 1375 C 126.433 -3.30825 -3.06375 0
M  V30 1376 C 125.095 -3.71722 -3.05576 0
M  V30 1377 C 127.447 -4.26589 -2.99452 0
M  V30 1378 C 124.775 -5.06788 -2.95606 0
M  V30 1379 C 127.127 -5.61683 -2.91024 0
M  V30 1380 C 125.791 -6.01904 -2.88562 0
M  V30 1381 H 125.061 -0.404691 -0.620731 0
M  V30 1382 H 127.708 -1.55964 -1.11119 0
M  V30 1383 H 126.013 -1.27979 -3.70309 0
M  V30 1384 H 127.71 -1.6671 -3.64704 0
M  V30 1385 H 124.3 -2.98287 -3.07771 0
M  V30 1386 H 128.484 -3.95982 -2.99185 0
M  V30 1387 H 123.74 -5.37126 -2.92071 0
M  V30 1388 H 127.914 -6.35578 -2.84629 0
M  V30 1389 H 125.541 -7.06521 -2.80593 0
M  V30 1390 N 127.117 1.15442 -1.07289 0
M  V30 1391 C 128.047 2.22312 -0.714107 0
M  V30 1392 C 129.028 1.67467 0.298155 0
M  V30 1393 O 130.213 1.93445 0.171048 0
M  V30 1394 C 127.343 3.47124 -0.110448 0
M  V30 1395 C 126.297 4.14926 -1.04979 0
M  V30 1396 C 125.623 5.33807 -0.308924 0
M  V30 1397 C 126.923 4.64762 -2.38314 0
M  V30 1398 H 128.617 2.5258 -1.6076 0
M  V30 1399 H 126.163 1.21404 -0.77441 0
M  V30 1400 H 128.116 4.21124 0.152482 0
M  V30 1401 H 126.84 3.16187 0.81812 0
M  V30 1402 H 125.499 3.42866 -1.29764 0
M  V30 1403 H 125.147 4.99126 0.623084 0
M  V30 1404 H 124.847 5.80113 -0.935036 0
M  V30 1405 H 126.371 6.10576 -0.0537771 0
M  V30 1406 H 127.785 5.30292 -2.1786 0
M  V30 1407 H 126.182 5.21728 -2.96514 0
M  V30 1408 H 127.252 3.80434 -3.00663 0
M  V30 1409 N 128.595 0.856903 1.32268 0
M  V30 1410 C 129.841 0.462069 1.97466 0
M  V30 1411 C 130.174 -0.980298 1.67642 0
M  V30 1412 O 129.449 -1.68824 0.965858 0
M  V30 1413 C 129.732 0.704336 3.53145 0
M  V30 1414 C 129.585 2.19529 3.9259 0
M  V30 1415 C 130.904 0.1622 4.39801 0
M  V30 1416 H 128.023 0.169357 0.717278 0
M  V30 1417 H 130.665 1.07574 1.56614 0
M  V30 1418 H 128.815 0.181999 3.88073 0
M  V30 1419 H 130.487 2.78387 3.67829 0
M  V30 1420 H 128.73 2.67292 3.41668 0
M  V30 1421 H 129.401 2.31549 5.01088 0
M  V30 1422 H 131.877 0.608905 4.11621 0
M  V30 1423 H 130.753 0.361265 5.4771 0
M  V30 1424 H 131.014 -0.935158 4.32096 0
M  V30 1425 N 130.073 -1.45103 0.615059 0
M  V30 1426 C 131.303 -2.06254 0.119596 0
M  V30 1427 C 131.711 -1.4591 -1.20445 0
M  V30 1428 O 131.054 -0.570384 -1.7462 0
M  V30 1429 C 131.116 -3.59396 -0.0865591 0
M  V30 1430 C 130.78 -4.42116 1.15683 0
M  V30 1431 C 131.777 -4.7662 2.07676 0
M  V30 1432 C 129.462 -4.82749 1.38775 0
M  V30 1433 C 131.456 -5.50622 3.21082 0
M  V30 1434 C 129.143 -5.56504 2.52481 0
M  V30 1435 C 130.141 -5.90358 3.43463 0
M  V30 1436 O 129.829 -6.62615 4.55189 0
M  V30 1437 H 129.561 -0.672423 0.0694512 0
M  V30 1438 H 132.115 -1.87219 0.844885 0
M  V30 1439 H 130.345 -3.76859 -0.866823 0
M  V30 1440 H 132.034 -4.02365 -0.534555 0
M  V30 1441 H 132.8 -4.4578 1.91063 0
M  V30 1442 H 128.679 -4.55829 0.688545 0
M  V30 1443 H 132.223 -5.76965 3.92119 0
M  V30 1444 H 128.12 -5.86759 2.69043 0
M  V30 1445 H 128.888 -6.81071 4.53966 0
M  V30 1446 N 131.551 -0.354651 -1.53558 0
M  V30 1447 C 132.779 0.239515 -2.05509 0
M  V30 1448 C 133.194 1.4333 -1.2289 0
M  V30 1449 O 132.551 1.80538 -0.266899 0
M  V30 1450 C 132.602 0.643719 -3.55723 0
M  V30 1451 O 132.323 -0.502602 -4.35207 0
M  V30 1452 C 133.824 1.29743 -4.23889 0
M  V30 1453 H 131.044 0.0442697 -0.669538 0
M  V30 1454 H 133.588 -0.509856 -1.98042 0
M  V30 1455 H 131.743 1.34302 -3.63376 0
M  V30 1456 H 132.157 -0.178172 -5.24197 0
M  V30 1457 H 133.631 1.53091 -5.30346 0
M  V30 1458 H 134.108 2.25441 -3.76926 0
M  V30 1459 H 134.714 0.639865 -4.20459 0
M  V30 1460 N 133.029 1.57378 -0.0835403 0
M  V30 1461 C 134.259 1.97975 0.590713 0
M  V30 1462 C 134.667 0.961083 1.62972 0
M  V30 1463 O 134.01 -0.0590879 1.83605 0
M  V30 1464 C 134.072 3.34915 1.3066 0
M  V30 1465 C 133.736 4.55069 0.419698 0
M  V30 1466 C 134.733 5.18868 -0.32749 0
M  V30 1467 C 132.418 5.0114 0.341137 0
M  V30 1468 C 134.412 6.27098 -1.14134 0
M  V30 1469 C 132.099 6.0924 -0.476374 0
M  V30 1470 C 133.097 6.72083 -1.21627 0
M  V30 1471 O 132.785 7.781 -2.02028 0
M  V30 1472 H 132.517 0.655818 0.163947 0
M  V30 1473 H 135.071 2.04807 -0.156021 0
M  V30 1474 H 133.301 3.24733 2.09966 0
M  V30 1475 H 134.99 3.60037 1.87424 0
M  V30 1476 H 135.756 4.84211 -0.276459 0
M  V30 1477 H 131.635 4.51996 0.90668 0
M  V30 1478 H 135.179 6.7608 -1.71935 0
M  V30 1479 H 131.076 6.43329 -0.528927 0
M  V30 1480 H 131.844 7.95034 -1.94586 0
M  V30 1481 N 134.507 -0.190092 1.56449 0
M  V30 1482 C 135.737 -0.92443 1.84764 0
M  V30 1483 C 136.145 -1.77146 0.664529 0
M  V30 1484 O 135.488 -1.79812 -0.375957 0
M  V30 1485 C 135.55 -1.86651 3.07248 0
M  V30 1486 C 135.214 -1.20094 4.40938 0
M  V30 1487 C 136.211 -0.575445 5.16706 0
M  V30 1488 C 133.896 -1.2033 4.87674 0
M  V30 1489 C 135.89 0.0388111 6.37388 0
M  V30 1490 C 133.577 -0.585214 6.08291 0
M  V30 1491 C 134.575 0.0347578 6.82991 0
M  V30 1492 O 134.263 0.643147 8.01323 0
M  V30 1493 H 133.995 -0.274974 0.617548 0
M  V30 1494 H 136.549 -0.200788 2.04416 0
M  V30 1495 H 134.779 -2.62998 2.83494 0
M  V30 1496 H 136.468 -2.46907 3.22167 0
M  V30 1497 H 137.234 -0.565728 4.81689 0
M  V30 1498 H 133.113 -1.67526 4.29484 0
M  V30 1499 H 136.657 0.523329 6.95634 0
M  V30 1500 H 132.554 -0.592451 6.42775 0
M  V30 1501 H 133.322 0.540545 8.16713 0
M  V30 1502 N 135.985 -1.50799 -0.457987 0
M  V30 1503 C 137.401 -1.38515 -0.792819 0
M  V30 1504 C 137.601 -0.451409 -1.96379 0
M  V30 1505 O 136.657 0.10112 -2.52297 0
M  V30 1506 C 137.97 -2.80149 -1.09258 0
M  V30 1507 C 139.518 -2.89156 -1.19825 0
M  V30 1508 C 139.993 -4.31651 -1.53106 0
M  V30 1509 N 141.484 -4.34662 -1.60072 0
M  V30 1510 C 142.219 -5.41928 -1.87354 0
M  V30 1511 N 141.715 -6.59384 -2.12568 0
M  V30 1512 N 143.508 -5.29385 -1.88965 0
M  V30 1513 H 135.659 -2.10073 0.313511 0
M  V30 1514 H 137.922 -0.944803 0.0777862 0
M  V30 1515 H 137.628 -3.50374 -0.305084 0
M  V30 1516 H 137.502 -3.18204 -2.02549 0
M  V30 1517 H 139.889 -2.19141 -1.97639 0
M  V30 1518 H 139.97 -2.54626 -0.244821 0
M  V30 1519 H 139.614 -5.02208 -0.758266 0
M  V30 1520 H 139.544 -4.63678 -2.49621 0
M  V30 1521 H 142.035 -3.49973 -1.42573 0
M  V30 1522 H 142.348 -7.36934 -2.32696 0
M  V30 1523 H 140.693 -6.62535 -2.09933 0
M  V30 1524 H 143.884 -4.36616 -1.68772 0
M  V30 1525 H 144.057 -6.13066 -2.09891 0
M  V30 1526 N 137.463 0.71206 -1.40597 0
M  V30 1527 C 138.74 1.46536 -1.29563 0
M  V30 1528 C 139.12 2.10931 0.0844217 0
M  V30 1529 O 138.468 2.00418 1.0975 0
M  V30 1530 C 138.678 2.49821 -2.43701 0
M  V30 1531 C 140.026 3.15551 -2.841 0
M  V30 1532 O 141.05 2.60142 -2.4332 0
M  V30 1533 O 139.909 4.15867 -3.54566 0
M  V30 1534 H 137.003 0.651801 -0.509004 0
M  V30 1535 H 139.549 0.743935 -1.52524 0
M  V30 1536 H 138.321 2.00778 -3.35863 0
M  V30 1537 H 137.944 3.29495 -2.22528 0
M  V30 1538 N 138.941 1.26152 0.944643 0
M  V30 1539 C 140.352 1.10454 1.50522 0
M  V30 1540 C 140.703 -0.31635 1.93633 0
M  V30 1541 O 139.828 -1.20746 1.79581 0
M  V30 1542 C 140.423 1.99891 2.73549 0
M  V30 1543 C 138.982 1.88348 3.25886 0
M  V30 1544 C 138.129 1.93447 1.9868 0
M  V30 1545 H 141.08 1.39292 0.760489 0
M  V30 1546 H 141.101 1.54477 3.47732 0
M  V30 1547 H 140.613 3.03297 2.42141 0
M  V30 1548 H 138.714 0.878636 3.62092 0
M  V30 1549 H 138.827 2.73696 3.93227 0
M  V30 1550 H 137.191 1.37456 2.14425 0
M  V30 1551 H 137.974 2.98476 1.69607 0
M  V30 1552 N 140.419 -1.14872 1.07899 0
M  V30 1553 C 141.647 -1.89661 0.82683 0
M  V30 1554 C 142.062 -1.78312 -0.620519 0
M  V30 1555 O 141.419 -1.13888 -1.42604 0
M  V30 1556 C 141.47 -3.39817 1.23316 0
M  V30 1557 O 141.191 -3.50845 2.62372 0
M  V30 1558 C 142.692 -4.31615 1.0111 0
M  V30 1559 H 139.912 -0.60092 0.298557 0
M  V30 1560 H 142.456 -1.4551 1.43691 0
M  V30 1561 H 140.611 -3.8161 0.667286 0
M  V30 1562 H 141.025 -4.44076 2.79101 0
M  V30 1563 H 142.499 -5.35367 1.34486 0
M  V30 1564 H 142.976 -4.39169 -0.0522168 0
M  V30 1565 H 143.582 -3.95572 1.56215 0
M  V30 1566 N 141.898 -0.863906 -1.31812 0
M  V30 1567 C 142.848 -0.286898 -2.26188 0
M  V30 1568 C 143.832 0.572577 -1.50367 0
M  V30 1569 O 145.024 0.420447 -1.71934 0
M  V30 1570 C 142.153 0.515849 -3.39402 0
M  V30 1571 C 141.239 -0.356531 -4.22599 0
M  V30 1572 N 141.63 -1.44716 -4.84656 0
M  V30 1573 C 139.928 -0.147898 -4.45755 0
M  V30 1574 C 140.629 -1.98462 -5.46798 0
M  V30 1575 N 139.605 -1.28247 -5.28255 0
M  V30 1576 H 143.407 -1.12055 -2.717 0
M  V30 1577 H 140.921 -0.711012 -1.46008 0
M  V30 1578 H 142.918 0.945701 -4.06032 0
M  V30 1579 H 141.578 1.34718 -2.95434 0
M  V30 1580 H 142.589 -1.83008 -4.84488 0
M  V30 1581 H 139.266 0.647973 -4.12441 0
M  V30 1582 H 140.656 -2.89932 -6.06126 0
M  V30 1583 N 143.376 1.44774 -0.622745 0
M  V30 1584 C 144.324 2.32387 0.0994683 0
M  V30 1585 C 145.318 1.46859 0.844326 0
M  V30 1586 O 146.524 1.63254 0.758174 0
M  V30 1587 H 142.899 0.750273 0.0509291 0
M  V30 1588 H 144.87 2.91062 -0.65767 0
M  V30 1589 C 143.619 3.30723 1.07319 0
M  V30 1590 H 142.942 3.96541 0.509462 0
M  V30 1591 H 144.382 3.94725 1.54817 0
M  V30 1592 C 142.841 2.59021 2.15429 0
M  V30 1593 O 143.371 2.38286 3.23393 0
M  V30 1594 N 141.577 2.189 1.91131 0
M  V30 1595 H 141.124 2.35964 1.03337 0
M  V30 1596 H 141.082 1.71251 2.63668 0
M  V30 1597 N 144.854 0.36279 1.53368 0
M  V30 1598 C 145.801 -0.485008 2.25646 0
M  V30 1599 C 146.771 -1.07982 1.2621 0
M  V30 1600 O 147.956 -1.11284 1.54986 0
M  V30 1601 C 145.096 -1.62023 3.04701 0
M  V30 1602 C 144.209 -1.05086 4.19024 0
M  V30 1603 C 143.344 -2.15496 4.85525 0
M  V30 1604 C 142.383 -1.5601 5.91884 0
M  V30 1605 N 141.52 -2.60241 6.52088 0
M  V30 1606 H 146.36 0.137864 2.97681 0
M  V30 1607 H 143.897 0.0798061 1.46883 0
M  V30 1608 H 145.855 -2.28887 3.48807 0
M  V30 1609 H 144.485 -2.2138 2.34927 0
M  V30 1610 H 143.537 -0.27259 3.79422 0
M  V30 1611 H 144.849 -0.575926 4.95464 0
M  V30 1612 H 144.003 -2.90186 5.32801 0
M  V30 1613 H 142.742 -2.66341 4.08551 0
M  V30 1614 H 141.747 -0.798338 5.43973 0
M  V30 1615 H 142.972 -1.05994 6.70777 0
M  V30 1616 H 140.918 -3.10304 5.77968 0
M  V30 1617 H 140.835 -2.17426 7.24059 0
M  V30 1618 H 142.103 -3.34641 7.04014 0
M  V30 1619 N 146.332 -1.57332 0.0918853 0
M  V30 1620 C 147.58 -1.93853 -0.571446 0
M  V30 1621 C 147.901 -0.974212 -1.6892 0
M  V30 1622 O 147.171 -0.0257254 -1.95883 0
M  V30 1623 H 145.751 -0.715666 -0.214082 0
M  V30 1624 H 148.413 -1.94287 0.154464 0
M  V30 1625 H 147.509 -2.96191 -0.983729 0
M  V30 1626 N 147.81 0.181792 -1.56548 0
M  V30 1627 C 148.72 1.24538 -1.98815 0
M  V30 1628 C 149.736 1.49045 -0.897861 0
M  V30 1629 O 150.912 1.61399 -1.20467 0
M  V30 1630 C 147.977 2.56683 -2.33055 0
M  V30 1631 C 147.038 2.40131 -3.55859 0
M  V30 1632 C 146.271 3.65975 -3.88456 0
M  V30 1633 O 146.494 4.70711 -3.22161 0
M  V30 1634 O 145.428 3.6071 -4.81842 0
M  V30 1635 H 149.254 0.916647 -2.89536 0
M  V30 1636 H 146.839 0.387842 -1.44278 0
M  V30 1637 H 148.721 3.34655 -2.56094 0
M  V30 1638 H 147.396 2.89157 -1.45498 0
M  V30 1639 H 146.303 1.60226 -3.38051 0
M  V30 1640 H 147.636 2.12585 -4.43924 0
M  V30 1641 N 149.288 1.51039 0.449983 0
M  V30 1642 C 150.235 1.71439 1.54523 0
M  V30 1643 C 151.205 0.555871 1.56522 0
M  V30 1644 O 152.39 0.788871 1.73728 0
M  V30 1645 C 149.53 1.83384 2.92343 0
M  V30 1646 C 148.643 3.10873 2.9997 0
M  V30 1647 C 147.778 3.13488 4.28834 0
M  V30 1648 C 146.817 4.35343 4.30282 0
M  V30 1649 N 145.954 4.35579 5.5065 0
M  V30 1650 H 150.794 2.64934 1.36433 0
M  V30 1651 H 148.331 1.31312 0.662982 0
M  V30 1652 H 150.289 1.88291 3.72293 0
M  V30 1653 H 148.919 0.933086 3.0902 0
M  V30 1654 H 147.971 3.15336 2.12761 0
M  V30 1655 H 149.283 4.00814 2.96901 0
M  V30 1656 H 148.437 3.17241 5.17149 0
M  V30 1657 H 147.176 2.21414 4.34543 0
M  V30 1658 H 146.181 4.3178 3.40362 0
M  V30 1659 H 147.406 5.28668 4.26248 0
M  V30 1660 H 145.352 3.46369 5.57104 0
M  V30 1661 H 145.269 5.19313 5.49409 0
M  V30 1662 H 146.537 4.43507 6.41032 0
M  V30 1663 N 150.766 -0.704594 1.40972 0
M  V30 1664 C 151.676 -1.84856 1.44448 0
M  V30 1665 C 152.692 -1.70726 0.335961 0
M  V30 1666 O 153.868 -1.92799 0.582276 0
M  V30 1667 C 150.933 -3.20758 1.31587 0
M  V30 1668 C 149.994 -3.47063 2.52677 0
M  V30 1669 C 149.227 -4.76481 2.4042 0
M  V30 1670 O 149.45 -5.52341 1.42391 0
M  V30 1671 O 148.384 -5.03367 3.30007 0
M  V30 1672 H 152.21 -1.8488 2.40942 0
M  V30 1673 H 149.795 -0.85647 1.22413 0
M  V30 1674 H 151.677 -4.01913 1.26665 0
M  V30 1675 H 150.352 -3.21438 0.382049 0
M  V30 1676 H 149.259 -2.65873 2.63177 0
M  V30 1677 H 150.592 -3.5119 3.44858 0
M  V30 1678 N 152.244 -1.26651 -0.937939 0
M  V30 1679 C 153.472 -1.15173 -1.7188 0
M  V30 1680 C 153.887 0.292668 -1.86518 0
M  V30 1681 O 153.244 1.20014 -1.37488 0
M  V30 1682 C 153.295 -1.81925 -3.12387 0
M  V30 1683 O 153.016 -3.2072 -2.98446 0
M  V30 1684 C 154.517 -1.76442 -4.06673 0
M  V30 1685 H 151.737 -0.400911 -0.538063 0
M  V30 1686 H 154.281 -1.67332 -1.1756 0
M  V30 1687 H 152.436 -1.33696 -3.63599 0
M  V30 1688 H 152.85 -3.53802 -3.872 0
M  V30 1689 H 154.324 -2.27781 -5.02812 0
M  V30 1690 H 154.801 -0.731608 -4.33064 0
M  V30 1691 H 155.407 -2.24238 -3.61382 0
M  V30 1692 N 153.722 1.14298 -1.08507 0
M  V30 1693 C 154.654 2.1907 -0.673859 0
M  V30 1694 C 155.667 1.60381 0.279577 0
M  V30 1695 O 156.856 1.78374 0.0670754 0
M  V30 1696 C 153.956 3.38888 0.0290979 0
M  V30 1697 C 153.129 4.27103 -0.943494 0
M  V30 1698 C 152.188 5.25477 -0.275676 0
M  V30 1699 O 151.214 5.61709 -0.920401 0
M  V30 1700 N 152.416 5.7227 0.974013 0
M  V30 1701 H 155.181 2.54965 -1.57521 0
M  V30 1702 H 152.742 1.29528 -0.971287 0
M  V30 1703 H 154.734 4.01761 0.48683 0
M  V30 1704 H 153.304 3.01309 0.832555 0
M  V30 1705 H 152.524 3.61149 -1.58004 0
M  V30 1706 H 153.812 4.82905 -1.60251 0
M  V30 1707 H 153.21 5.44965 1.51755 0
M  V30 1708 H 151.767 6.37127 1.37522 0
M  V30 1709 N 155.201 0.870884 1.31352 0
M  V30 1710 C 156.441 0.488783 1.9847 0
M  V30 1711 C 156.805 -0.941536 1.67329 0
M  V30 1712 O 158.006 -1.42903 2.27667 0
M  V30 1713 C 156.277 0.739688 3.49662 0
M  V30 1714 S 157.836 0.457582 4.36408 0
M  V30 1715 H 154.654 0.18242 0.6872 0
M  V30 1716 H 157.256 1.12711 1.59739 0
M  V30 1717 H 155.96 1.77944 3.69816 0
M  V30 1718 H 155.491 0.0883905 3.93301 0
M  V30 1719 H 157.506 -0.709752 4.91098 0
M  V30 1720 N 156.679 -1.44442 0.630414 0
M  V30 1721 C 157.925 -2.02351 0.134816 0
M  V30 1722 C 158.258 -1.4947 -1.23986 0
M  V30 1723 O 157.533 -0.678475 -1.82283 0
M  V30 1724 C 157.816 -3.59898 0.120707 0
M  V30 1725 C 157.669 -4.23063 1.52767 0
M  V30 1726 C 158.988 -4.36585 -0.555127 0
M  V30 1727 H 156.107 -0.73527 0.0504646 0
M  V30 1728 H 158.749 -1.72022 0.806751 0
M  V30 1729 H 156.899 -3.85868 -0.451477 0
M  V30 1730 H 158.571 -4.08202 2.14869 0
M  V30 1731 H 156.814 -3.80586 2.08175 0
M  V30 1732 H 157.485 -5.32071 1.46984 0
M  V30 1733 H 159.961 -4.16044 -0.0685429 0
M  V30 1734 H 158.837 -5.46294 -0.534185 0
M  V30 1735 H 159.098 -4.11138 -1.62535 0
M  V30 1736 N 158.157 -0.370918 -1.53173 0
M  V30 1737 C 159.12 0.460778 -2.24521 0
M  V30 1738 C 160.12 1.00536 -1.25496 0
M  V30 1739 O 161.31 0.890266 -1.49733 0
M  V30 1740 C 158.442 1.64457 -2.98608 0
M  V30 1741 H 159.635 -0.163613 -2.99453 0
M  V30 1742 H 157.188 -0.122699 -1.55818 0
M  V30 1743 H 157.923 2.30691 -2.2793 0
M  V30 1744 H 157.708 1.26099 -3.7127 0
M  V30 1745 H 159.198 2.23384 -3.5283 0
M  V30 1746 N 159.635 1.57281 -0.100228 0
M  V30 1747 C 160.568 2.09976 0.893612 0
M  V30 1748 C 161.546 1.01155 1.27304 0
M  V30 1749 O 162.73 1.28687 1.37739 0
M  V30 1750 C 159.857 2.58098 2.19324 0
M  V30 1751 C 158.903 3.78626 1.96328 0
M  V30 1752 S 159.736 5.21959 1.19662 0
M  V30 1753 C 160.892 5.73435 2.50844 0
M  V30 1754 H 161.125 2.93946 0.44534 0
M  V30 1755 H 158.658 1.53985 0.113167 0
M  V30 1756 H 160.616 2.8648 2.94005 0
M  V30 1757 H 159.277 1.74344 2.61272 0
M  V30 1758 H 158.47 4.10382 2.92579 0
M  V30 1759 H 158.072 3.50763 1.29775 0
M  V30 1760 H 160.364 5.82015 3.46792 0
M  V30 1761 H 161.307 6.7185 2.23659 0
M  V30 1762 H 161.715 5.01395 2.59352 0
M  V30 1763 N 161.113 -0.173488 1.56642 0
M  V30 1764 C 162.338 -0.910149 1.86363 0
M  V30 1765 C 162.763 -1.75132 0.686318 0
M  V30 1766 O 162.121 -1.77595 -0.364643 0
M  V30 1767 C 162.169 -1.76447 3.14482 0
M  V30 1768 O 161.273 -2.86584 2.96553 0
M  V30 1769 H 160.614 -0.255086 0.613047 0
M  V30 1770 H 163.144 -0.172283 2.03873 0
M  V30 1771 H 163.154 -2.16483 3.45831 0
M  V30 1772 H 161.829 -1.14658 3.99783 0
M  V30 1773 H 160.406 -2.50146 2.76553 0
M  V30 1774 N 162.591 -1.51276 -0.441967 0
M  V30 1775 C 163.501 -1.75092 -1.56141 0
M  V30 1776 C 164.517 -0.634963 -1.62001 0
M  V30 1777 O 165.693 -0.916686 -1.79329 0
M  V30 1778 C 162.758 -1.86666 -2.92158 0
M  V30 1779 C 161.819 -3.10506 -2.96453 0
M  V30 1780 C 161.052 -3.21519 -4.25982 0
M  V30 1781 O 161.275 -2.38586 -5.18105 0
M  V30 1782 O 160.209 -4.14465 -4.36466 0
M  V30 1783 H 164.035 -2.70044 -1.38961 0
M  V30 1784 H 161.62 -1.35722 -0.624499 0
M  V30 1785 H 163.502 -1.96292 -3.72891 0
M  V30 1786 H 162.177 -0.949014 -3.09476 0
M  V30 1787 H 161.084 -3.06363 -2.14692 0
M  V30 1788 H 162.417 -4.01945 -2.84079 0
M  V30 1789 N 164.069 0.697108 -1.41344 0
M  V30 1790 C 165.017 1.83237 -1.43272 0
M  V30 1791 C 166.011 1.66522 -0.310947 0
M  V30 1792 O 167.217 1.73402 -0.482899 0
M  V30 1793 H 163.592 0.603802 -0.448249 0
M  V30 1794 H 165.563 1.78727 -2.38954 0
M  V30 1795 C 164.312 3.21245 -1.33029 0
M  V30 1796 H 163.635 3.34723 -2.18633 0
M  V30 1797 H 165.075 4.00763 -1.38439 0
M  V30 1798 C 163.534 3.36873 -0.0424635 0
M  V30 1799 O 164.064 3.91177 0.913421 0
M  V30 1800 N 162.27 2.90581 0.0331145 0
M  V30 1801 H 161.817 2.46577 -0.745506 0
M  V30 1802 H 161.775 3.01416 0.894199 0
M  V30 1803 N 165.547 1.27147 0.931209 0
M  V30 1804 C 166.795 1.13055 1.6752 0
M  V30 1805 C 167.116 -0.324791 1.92276 0
M  V30 1806 O 166.386 -1.22775 1.52654 0
M  V30 1807 H 164.966 0.415391 0.620854 0
M  V30 1808 H 167.628 1.59623 1.11833 0
M  V30 1809 H 166.724 1.65694 2.64485 0
M  V30 1810 N 167.025 -1.13721 1.09112 0
M  V30 1811 C 167.955 -2.21148 0.749385 0
M  V30 1812 C 168.936 -1.6792 -0.271475 0
M  V30 1813 O 170.121 -1.93693 -0.140251 0
M  V30 1814 C 167.251 -3.46905 0.165659 0
M  V30 1815 C 166.205 -4.13203 1.11567 0
M  V30 1816 C 165.531 -5.33248 0.393809 0
M  V30 1817 C 166.831 -4.60912 2.45678 0
M  V30 1818 H 168.525 -2.4999 1.64758 0
M  V30 1819 H 166.071 -1.20156 0.793626 0
M  V30 1820 H 168.024 -4.21313 -0.085466 0
M  V30 1821 H 166.748 -3.17449 -0.767714 0
M  V30 1822 H 165.407 -3.40758 1.35202 0
M  V30 1823 H 165.055 -5.00054 -0.543599 0
M  V30 1824 H 164.755 -5.78552 1.02721 0
M  V30 1825 H 166.279 -6.10413 0.150908 0
M  V30 1826 H 167.693 -5.26759 2.26269 0
M  V30 1827 H 166.09 -5.16944 3.04776 0
M  V30 1828 H 167.16 -3.75603 3.06677 0
M  V30 1829 N 168.503 -0.877838 -1.30888 0
M  V30 1830 C 169.78 -0.413052 -1.91189 0
M  V30 1831 C 170.16 1.1056 -1.79832 0
M  V30 1832 O 169.508 1.93771 -1.21099 0
M  V30 1833 C 169.718 -0.903191 -3.3711 0
M  V30 1834 C 171.066 -0.93395 -4.14201 0
M  V30 1835 O 172.09 -0.849373 -3.45925 0
M  V30 1836 O 170.949 -1.05772 -5.36167 0
M  V30 1837 H 168.043 -0.125035 -0.817493 0
M  V30 1838 H 170.589 -0.966269 -1.39504 0
M  V30 1839 H 169.361 -1.94692 -3.39427 0
M  V30 1840 H 168.984 -0.328732 -3.96239 0
M  V30 1841 N 169.982 1.44106 -0.638065 0
M  V30 1842 C 171.229 2.01978 -0.14533 0
M  V30 1843 C 171.557 1.50234 1.23532 0
M  V30 1844 O 170.812 0.679548 1.83523 0
M  V30 1845 C 171.111 3.5729 -0.0887327 0
M  V30 1846 C 170.777 4.28317 -1.40909 0
M  V30 1847 C 169.439 4.47437 -1.77069 0
M  V30 1848 C 171.791 4.6867 -2.28031 0
M  V30 1849 C 169.119 5.04171 -3.00047 0
M  V30 1850 C 171.471 5.26766 -3.50286 0
M  V30 1851 C 170.135 5.44104 -3.86661 0
M  V30 1852 H 169.405 0.739089 -0.0531801 0
M  V30 1853 H 172.052 1.72781 -0.825761 0
M  V30 1854 H 170.357 3.8594 0.675095 0
M  V30 1855 H 172.054 3.99807 0.309145 0
M  V30 1856 H 168.644 4.1377 -1.1177 0
M  V30 1857 H 172.828 4.53604 -2.01388 0
M  V30 1858 H 168.084 5.15782 -3.28298 0
M  V30 1859 H 172.258 5.56983 -4.18023 0
M  V30 1860 H 169.885 5.87832 -4.82034 0
M  V30 1861 N 171.46 0.379036 1.52974 0
M  V30 1862 C 172.706 -0.206727 2.01744 0
M  V30 1863 C 173.039 -1.47314 1.26539 0
M  V30 1864 O 172.314 -1.91084 0.362903 0
M  V30 1865 C 172.597 -0.485066 3.56818 0
M  V30 1866 C 172.45 0.795919 4.42702 0
M  V30 1867 C 173.769 -1.28003 4.21074 0
M  V30 1868 H 170.888 -0.0736607 0.73331 0
M  V30 1869 H 173.53 0.506581 1.83122 0
M  V30 1870 H 171.68 -1.09272 3.72816 0
M  V30 1871 H 173.352 1.43307 4.38476 0
M  V30 1872 H 171.595 1.41344 4.10127 0
M  V30 1873 H 172.266 0.555947 5.49193 0
M  V30 1874 H 174.742 -0.765867 4.08991 0
M  V30 1875 H 173.618 -1.44352 5.29579 0
M  V30 1876 H 173.879 -2.29236 3.78026 0
M  V30 1877 N 172.938 -1.57226 0.108567 0
M  V30 1878 C 173.885 -2.14756 -0.845481 0
M  V30 1879 C 174.855 -1.06971 -1.27068 0
M  V30 1880 O 176.04 -1.34827 -1.35005 0
M  V30 1881 C 173.18 -2.74298 -2.09415 0
M  V30 1882 C 172.293 -3.96358 -1.71826 0
M  V30 1883 C 171.428 -4.44021 -2.9158 0
M  V30 1884 C 170.467 -5.58637 -2.50181 0
M  V30 1885 N 169.604 -6.01091 -3.62814 0
M  V30 1886 H 174.444 -2.95961 -0.348035 0
M  V30 1887 H 171.981 -1.46226 -0.160106 0
M  V30 1888 H 173.939 -3.06945 -2.82561 0
M  V30 1889 H 172.569 -1.95801 -2.56636 0
M  V30 1890 H 171.621 -3.69939 -0.885947 0
M  V30 1891 H 172.933 -4.79504 -1.37394 0
M  V30 1892 H 172.087 -4.78522 -3.72963 0
M  V30 1893 H 170.826 -3.59803 -3.29231 0
M  V30 1894 H 169.831 -5.23751 -1.67228 0
M  V30 1895 H 171.056 -6.44613 -2.13659 0
M  V30 1896 H 169.002 -5.19817 -4.00158 0
M  V30 1897 H 168.919 -6.79066 -3.32273 0
M  V30 1898 H 170.187 -6.40227 -4.44668 0
M  V30 1899 N 174.416 0.165178 -1.56732 0
M  V30 1900 C 175.646 0.894919 -1.86212 0
M  V30 1901 C 176.054 1.76066 -0.692627 0
M  V30 1902 O 175.397 1.80387 0.347303 0
M  V30 1903 C 175.459 1.8174 -3.10179 0
M  V30 1904 C 175.123 1.13064 -4.42793 0
M  V30 1905 C 176.12 0.493169 -5.17556 0
M  V30 1906 C 173.805 1.12556 -4.89527 0
M  V30 1907 C 175.799 -0.140209 -6.37246 0
M  V30 1908 C 173.486 0.488366 -6.09145 0
M  V30 1909 C 174.484 -0.143411 -6.82849 0
M  V30 1910 O 174.172 -0.77055 -8.00199 0
M  V30 1911 H 173.904 0.265114 -0.621844 0
M  V30 1912 H 176.458 0.168242 -2.0471 0
M  V30 1913 H 174.688 2.58455 -2.87642 0
M  V30 1914 H 176.377 2.4175 -3.26055 0
M  V30 1915 H 177.143 0.489023 -4.82528 0
M  V30 1916 H 173.022 1.60672 -4.32094 0
M  V30 1917 H 176.566 -0.633932 -6.94714 0
M  V30 1918 H 172.463 0.490116 -6.43637 0
M  V30 1919 H 173.231 -0.670408 -8.1575 0
M  V30 1920 N 175.894 1.51508 0.433938 0
M  V30 1921 C 177.171 1.54888 1.19453 0
M  V30 1922 C 177.551 0.315154 2.08734 0
M  V30 1923 O 176.899 -0.699558 2.17528 0
M  V30 1924 C 177.109 2.86467 1.99342 0
M  V30 1925 C 178.457 3.38545 2.56267 0
M  V30 1926 O 179.481 2.88041 2.0955 0
M  V30 1927 O 178.34 4.26675 3.41483 0
M  V30 1928 H 175.434 0.622863 0.544032 0
M  V30 1929 H 177.98 1.63823 0.442732 0
M  V30 1930 H 176.752 3.67718 1.33788 0
M  V30 1931 H 176.375 2.8071 2.8158 0
M  V30 1932 N 177.372 -0.689602 1.41712 0
M  V30 1933 C 178.62 -1.4468 1.4111 0
M  V30 1934 C 178.941 -1.94986 0.0232196 0
M  V30 1935 O 178.211 -1.72097 -0.935913 0
M  V30 1936 H 176.791 -0.536847 0.519427 0
M  V30 1937 H 179.453 -0.815825 1.77004 0
M  V30 1938 H 178.549 -2.30706 2.10193 0
M  V30 1939 N 178.85 -1.27639 -0.924453 0
M  V30 1940 C 179.798 -1.10485 -2.04685 0
M  V30 1941 C 180.792 -0.0270421 -1.69378 0
M  V30 1942 O 181.998 -0.185008 -1.79047 0
M  V30 1943 H 178.373 -0.340546 -0.670472 0
M  V30 1944 H 180.344 -2.05566 -2.16298 0
M  V30 1945 C 179.093 -0.772229 -3.39016 0
M  V30 1946 H 178.416 -1.59351 -3.66671 0
M  V30 1947 H 179.856 -0.692097 -4.18313 0
M  V30 1948 C 178.315 0.523554 -3.32807 0
M  V30 1949 O 178.845 1.55702 -3.70297 0
M  V30 1950 N 177.051 0.520363 -2.85903 0
M  V30 1951 H 176.598 -0.32107 -2.55591 0
M  V30 1952 H 176.556 1.38742 -2.82131 0
M  V30 1953 N 180.328 1.1314 -1.09713 0
M  V30 1954 C 181.739 1.66029 -0.853885 0
M  V30 1955 C 182.09 1.86241 0.617142 0
M  V30 1956 O 181.215 1.5834 1.47503 0
M  V30 1957 C 181.81 3.01599 -1.5435 0
M  V30 1958 C 180.369 3.51467 -1.34714 0
M  V30 1959 C 179.516 2.26648 -1.59769 0
M  V30 1960 H 182.467 0.970226 -1.25588 0
M  V30 1961 H 182.488 3.67709 -0.978267 0
M  V30 1962 H 182 2.86856 -2.6141 0
M  V30 1963 H 180.101 3.71408 -0.297838 0
M  V30 1964 H 180.214 4.314 -2.08401 0
M  V30 1965 H 178.578 2.33385 -1.01998 0
M  V30 1966 H 179.361 2.14467 -2.68065 0
M  V30 1967 N 181.806 0.884767 1.30421 0
M  V30 1968 C 183.052 0.503851 1.96441 0
M  V30 1969 C 183.385 -0.944518 1.69684 0
M  V30 1970 O 182.66 -1.66737 1.00145 0
M  V30 1971 C 182.943 0.779085 3.51571 0
M  V30 1972 C 182.796 2.27807 3.87846 0
M  V30 1973 C 184.115 0.255452 4.39358 0
M  V30 1974 H 181.234 0.184533 0.713524 0
M  V30 1975 H 183.876 1.10872 1.54297 0
M  V30 1976 H 182.026 0.264274 3.876 0
M  V30 1977 H 183.698 2.86127 3.61841 0
M  V30 1978 H 181.941 2.74479 3.35922 0
M  V30 1979 H 182.612 2.42125 4.96064 0
M  V30 1980 H 185.088 0.696079 4.10236 0
M  V30 1981 H 183.964 0.477361 5.4682 0
M  V30 1982 H 184.225 -0.843293 4.33983 0
M  V30 1983 N 183.284 -1.43765 0.645699 0
M  V30 1984 C 184.533 -2.01116 0.153412 0
M  V30 1985 C 184.846 -1.51493 -1.23731 0
M  V30 1986 O 186.052 -2.01067 -1.8244 0
M  V30 1987 C 184.508 -3.59206 0.223473 0
M  V30 1988 C 184.116 -4.17823 1.61642 0
M  V30 1989 C 185.86 -4.23972 -0.211597 0
M  V30 1990 C 183.767 -5.68183 1.64081 0
M  V30 1991 H 182.697 -0.752093 0.0535891 0
M  V30 1992 H 185.348 -1.6482 0.806633 0
M  V30 1993 H 183.73 -3.92867 -0.497118 0
M  V30 1994 H 184.904 -3.95674 2.36176 0
M  V30 1995 H 183.219 -3.65399 1.99681 0
M  V30 1996 H 185.816 -5.34275 -0.213112 0
M  V30 1997 H 186.159 -3.97352 -1.24165 0
M  V30 1998 H 186.692 -3.95166 0.456988 0
M  V30 1999 H 183.431 -5.99559 2.64971 0
M  V30 2000 H 182.951 -5.9241 0.938611 0
M  V30 2001 H 184.63 -6.32085 1.3812 0
M  V30 2002 N 184.763 -0.387143 -1.52771 0
M  V30 2003 C 185.988 0.198407 -2.06449 0
M  V30 2004 C 186.413 1.39918 -1.25716 0
M  V30 2005 O 185.771 1.79099 -0.281657 0
M  V30 2006 C 185.819 0.548893 -3.56398 0
M  V30 2007 O 184.923 1.64315 -3.78252 0
M  V30 2008 H 184.264 0.0237731 -0.663574 0
M  V30 2009 H 186.794 -0.553989 -1.96957 0
M  V30 2010 H 186.804 0.813812 -3.99801 0
M  V30 2011 H 185.479 -0.329005 -4.14597 0
M  V30 2012 H 184.056 1.37211 -3.46738 0
M  V30 2013 N 186.241 1.57166 -0.116904 0
M  V30 2014 C 187.188 2.15202 0.83408 0
M  V30 2015 C 188.158 1.07644 1.26499 0
M  V30 2016 O 189.343 1.35541 1.34288 0
M  V30 2017 C 186.483 2.75405 2.07957 0
M  V30 2018 C 185.596 3.97264 1.69721 0
M  V30 2019 C 184.731 4.45561 2.89221 0
M  V30 2020 C 183.77 5.59956 2.47215 0
M  V30 2021 N 182.907 6.03006 3.59622 0
M  V30 2022 H 187.747 2.96141 0.332335 0
M  V30 2023 H 185.284 1.46309 0.152349 0
M  V30 2024 H 187.242 3.08439 2.80929 0
M  V30 2025 H 185.872 1.97159 2.55594 0
M  V30 2026 H 184.924 3.70404 0.866316 0
M  V30 2027 H 186.236 4.80226 1.34849 0
M  V30 2028 H 185.39 4.80493 3.7042 0
M  V30 2029 H 184.129 3.61544 3.27318 0
M  V30 2030 H 183.134 5.2463 1.64448 0
M  V30 2031 H 184.359 6.45738 2.10238 0
M  V30 2032 H 182.305 5.21931 3.97396 0
M  V30 2033 H 182.222 6.80819 3.28667 0
M  V30 2034 H 183.49 6.42576 4.41267 0
M  V30 2035 N 187.719 -0.156864 1.56817 0
M  V30 2036 C 189.13 -0.717916 1.72345 0
M  V30 2037 C 189.481 -1.82124 0.729747 0
M  V30 2038 O 188.606 -2.16141 -0.105781 0
M  V30 2039 C 189.201 -1.30904 3.12489 0
M  V30 2040 C 187.76 -1.81676 3.29653 0
M  V30 2041 C 186.907 -0.701349 2.68284 0
M  V30 2042 H 189.858 0.0686989 1.58551 0
M  V30 2043 H 189.879 -2.17882 3.11942 0
M  V30 2044 H 189.391 -0.505796 3.8479 0
M  V30 2045 H 187.492 -2.64598 2.62333 0
M  V30 2046 H 187.605 -1.95226 4.3752 0
M  V30 2047 H 185.969 -1.12548 2.28484 0
M  V30 2048 H 186.752 0.0902846 3.43181 0
M  V30 2049 N 189.197 -1.51736 -0.425897 0
M  V30 2050 C 190.608 -1.5732 -1.00536 0
M  V30 2051 C 190.959 -0.403537 -1.92005 0
M  V30 2052 O 190.084 0.478256 -2.11049 0
M  V30 2053 C 190.679 -2.85119 -1.8301 0
M  V30 2054 C 189.238 -2.93236 -2.35987 0
M  V30 2055 C 188.385 -2.52098 -1.15508 0
M  V30 2056 H 191.336 -1.57348 -0.206739 0
M  V30 2057 H 191.357 -2.69526 -2.68581 0
M  V30 2058 H 190.869 -3.7023 -1.16411 0
M  V30 2059 H 188.97 -2.12581 -3.06007 0
M  V30 2060 H 189.083 -3.9713 -2.68001 0
M  V30 2061 H 187.447 -2.05558 -1.50393 0
M  V30 2062 H 188.23 -3.39565 -0.505014 0
M  V30 2063 N 190.675 0.682077 -1.42076 0
M  V30 2064 C 191.585 1.82535 -1.47371 0
M  V30 2065 C 192.601 1.7017 -0.363079 0
M  V30 2066 O 193.777 1.91848 -0.612875 0
M  V30 2067 C 190.842 3.18624 -1.36674 0
M  V30 2068 C 189.903 3.42999 -2.58167 0
M  V30 2069 C 189.136 4.72595 -2.4797 0
M  V30 2070 O 189.359 5.50006 -1.5116 0
M  V30 2071 O 188.293 4.98054 -3.37974 0
M  V30 2072 H 192.119 1.81023 -2.43853 0
M  V30 2073 H 189.704 0.836887 -1.2376 0
M  V30 2074 H 191.586 3.99847 -1.33043 0
M  V30 2075 H 190.261 3.20789 -0.433138 0
M  V30 2076 H 189.168 2.61653 -2.67373 0
M  V30 2077 H 190.501 3.45659 -3.50401 0
M  V30 2078 N 192.153 1.28127 0.917671 0
M  V30 2079 C 193.063 1.13556 2.05286 0
M  V30 2080 C 194.079 0.0630914 1.73886 0
M  V30 2081 O 195.255 0.271598 1.9956 0
M  V30 2082 C 192.32 0.794676 3.3747 0
M  V30 2083 C 191.381 1.94909 3.82504 0
M  V30 2084 C 190.614 1.62437 5.0838 0
M  V30 2085 O 190.837 0.536905 5.67867 0
M  V30 2086 O 189.771 2.46677 5.4903 0
M  V30 2087 H 193.597 2.08844 2.20495 0
M  V30 2088 H 191.182 1.07409 1.03845 0
M  V30 2089 H 193.064 0.618344 4.16839 0
M  V30 2090 H 191.739 -0.128581 3.23445 0
M  V30 2091 H 190.646 2.18055 3.03978 0
M  V30 2092 H 191.979 2.85291 4.01086 0
M  V30 2093 N 193.631 -1.12557 1.10312 0
M  V30 2094 C 194.879 -1.83675 0.843091 0
M  V30 2095 C 195.2 -1.84435 -0.633131 0
M  V30 2096 O 194.47 -1.30657 -1.45964 0
M  V30 2097 H 193.05 -0.680138 0.308904 0
M  V30 2098 H 195.712 -1.36301 1.39313 0
M  V30 2099 H 194.808 -2.87908 1.2048 0
M  V30 2100 N 195.109 -0.891671 -1.2995 0
M  V30 2101 C 196.337 -0.52866 -2.00032 0
M  V30 2102 C 196.752 0.884574 -1.66795 0
M  V30 2103 O 196.109 1.5827 -0.908669 0
M  V30 2104 C 196.16 -0.701814 -3.54622 0
M  V30 2105 O 195.881 -2.05942 -3.86678 0
M  V30 2106 C 197.382 -0.342683 -4.41973 0
M  V30 2107 H 194.602 -0.203659 -0.639347 0
M  V30 2108 H 197.146 -1.19881 -1.65677 0
M  V30 2109 H 195.301 -0.0789468 -3.8732 0
M  V30 2110 H 195.715 -2.08291 -4.81368 0
M  V30 2111 H 197.189 -0.514709 -5.49595 0
M  V30 2112 H 197.666 0.71975 -4.33262 0
M  V30 2113 H 198.272 -0.942154 -4.14733 0
M  V30 2114 N 196.587 1.43421 -0.653314 0
M  V30 2115 C 197.537 2.2792 0.060558 0
M  V30 2116 C 198.521 1.39906 0.794677 0
M  V30 2117 O 199.713 1.63536 0.677128 0
M  V30 2118 C 196.842 3.27603 1.0262 0
M  V30 2119 C 195.928 4.23104 0.290551 0
M  V30 2120 N 196.319 5.01031 -0.692967 0
M  V30 2121 C 194.617 4.42816 0.531984 0
M  V30 2122 C 195.318 5.70626 -1.12963 0
M  V30 2123 N 194.294 5.41617 -0.463867 0
M  V30 2124 H 198.096 2.85585 -0.694143 0
M  V30 2125 H 195.61 1.55126 -0.480602 0
M  V30 2126 H 197.607 3.86918 1.55242 0
M  V30 2127 H 196.267 2.71499 1.78096 0
M  V30 2128 H 197.278 5.0669 -1.07169 0
M  V30 2129 H 193.955 3.97782 1.26791 0
M  V30 2130 H 195.345 6.4318 -1.94343 0
M  V30 2131 N 198.065 0.39524 1.52563 0
M  V30 2132 C 199.028 -0.425001 2.25225 0
M  V30 2133 C 200.028 -0.985266 1.27079 0
M  V30 2134 O 201.218 -0.866332 1.5113 0
M  V30 2135 C 198.35 -1.59686 3.01186 0
M  V30 2136 H 199.543 0.211233 2.99155 0
M  V30 2137 H 197.096 0.147472 1.55603 0
M  V30 2138 H 197.831 -2.27035 2.31572 0
M  V30 2139 H 197.616 -1.20176 3.73229 0
M  V30 2140 H 199.106 -2.17743 3.5634 0
M  V30 2141 N 199.544 -1.57102 0.125237 0
M  V30 2142 C 200.791 -1.95407 -0.531248 0
M  V30 2143 C 201.119 -1.0089 -1.66287 0
M  V30 2144 O 200.374 -0.0339431 -1.95671 0
M  V30 2145 C 200.673 -3.40096 -1.09862 0
M  V30 2146 C 200.339 -4.50815 -0.0876989 0
M  V30 2147 C 199.001 -4.80824 0.19026 0
M  V30 2148 C 201.353 -5.17724 0.600902 0
M  V30 2149 C 198.681 -5.75058 1.163 0
M  V30 2150 C 201.033 -6.13005 1.56231 0
M  V30 2151 C 199.697 -6.41403 1.8482 0
M  V30 2152 H 198.967 -0.715046 -0.194397 0
M  V30 2153 H 201.614 -1.90373 0.207463 0
M  V30 2154 H 199.919 -3.41855 -1.91422 0
M  V30 2155 H 201.616 -3.6705 -1.61478 0
M  V30 2156 H 198.206 -4.27444 -0.314528 0
M  V30 2157 H 202.39 -4.94691 0.399333 0
M  V30 2158 H 197.646 -5.95362 1.39117 0
M  V30 2159 H 201.82 -6.63934 2.10153 0
M  V30 2160 H 199.447 -7.14229 2.60349 0
M  V30 2161 N 201.022 0.148545 -1.56898 0
M  V30 2162 C 202.438 0.501131 -1.51528 0
M  V30 2163 C 202.638 1.83458 -0.833399 0
M  V30 2164 O 201.694 2.49259 -0.40328 0
M  V30 2165 C 203.007 0.512864 -2.96294 0
M  V30 2166 C 204.555 0.598487 -3.07225 0
M  V30 2167 C 205.03 0.640897 -4.53494 0
M  V30 2168 N 206.521 0.703163 -4.57832 0
M  V30 2169 C 207.256 0.756935 -5.68382 0
M  V30 2170 N 206.752 0.770147 -6.88506 0
M  V30 2171 N 208.545 0.797698 -5.56411 0
M  V30 2172 H 200.696 -0.725532 -1.99624 0
M  V30 2173 H 202.959 -0.264358 -0.910395 0
M  V30 2174 H 202.665 -0.398691 -3.49433 0
M  V30 2175 H 202.539 1.35133 -3.52163 0
M  V30 2176 H 204.926 1.50046 -2.54106 0
M  V30 2177 H 205.007 -0.267093 -2.54402 0
M  V30 2178 H 204.651 -0.256915 -5.0725 0
M  V30 2179 H 204.581 1.52295 -5.04097 0
M  V30 2180 H 207.072 0.700314 -3.71354 0
M  V30 2181 H 207.385 0.812983 -7.68512 0
M  V30 2182 H 205.73 0.738049 -6.9107 0
M  V30 2183 H 208.921 0.784535 -4.61479 0
M  V30 2184 H 209.094 0.83614 -6.42583 0
M  V30 2185 N 202.5 1.5196 0.417844 0
M  V30 2186 C 203.777 1.56146 1.17803 0
M  V30 2187 C 204.157 0.337275 2.08388 0
M  V30 2188 O 203.505 -0.676447 2.18258 0
M  V30 2189 C 203.715 2.88566 1.96293 0
M  V30 2190 C 205.063 3.41244 2.52662 0
M  V30 2191 O 206.087 2.90247 2.06483 0
M  V30 2192 O 204.946 4.30273 3.36938 0
M  V30 2193 H 202.04 0.628598 0.537395 0
M  V30 2194 H 204.586 1.64283 0.425331 0
M  V30 2195 H 203.358 3.69116 1.2988 0
M  V30 2196 H 202.981 2.83681 2.78587 0
M  V30 2197 N 203.978 -0.674533 1.42435 0
M  V30 2198 C 205.389 -1.25514 1.38214 0
M  V30 2199 C 205.74 -1.96055 0.0755464 0
M  V30 2200 O 204.865 -2.00028 -0.8257 0
M  V30 2201 C 205.46 -2.28269 2.50357 0
M  V30 2202 C 204.019 -2.81856 2.49467 0
M  V30 2203 C 203.166 -1.56182 2.29134 0
M  V30 2204 H 206.117 -0.467902 1.51646 0
M  V30 2205 H 206.138 -3.10009 2.20624 0
M  V30 2206 H 205.65 -1.769 3.45439 0
M  V30 2207 H 203.751 -3.37346 1.58204 0
M  V30 2208 H 203.864 -3.30854 3.46515 0
M  V30 2209 H 202.228 -1.82761 1.774 0
M  V30 2210 H 203.011 -1.06778 3.26272 0
M  V30 2211 N 205.456 -1.28612 -0.910864 0
M  V30 2212 C 206.403 -1.12786 -2.01365 0
M  V30 2213 C 207.373 -0.024201 -1.66082 0
M  V30 2214 O 208.558 -0.189667 -1.89855 0
M  V30 2215 C 205.698 -0.798743 -3.35729 0
M  V30 2216 C 204.811 -1.98173 -3.83864 0
M  V30 2217 C 203.946 -1.59298 -5.06752 0
M  V30 2218 C 202.985 -2.74245 -5.47226 0
M  V30 2219 N 202.122 -2.35842 -6.61304 0
M  V30 2220 H 206.962 -2.07142 -2.14234 0
M  V30 2221 H 204.499 -1.03093 -1.0493 0
M  V30 2222 H 206.457 -0.588662 -4.13026 0
M  V30 2223 H 205.087 0.10789 -3.2262 0
M  V30 2224 H 204.139 -2.30386 -3.02699 0
M  V30 2225 H 205.451 -2.84343 -4.09818 0
M  V30 2226 H 204.605 -1.34513 -5.916 0
M  V30 2227 H 203.344 -0.702618 -4.82612 0
M  V30 2228 H 202.349 -2.99725 -4.60918 0
M  V30 2229 H 203.574 -3.63928 -5.73353 0
M  V30 2230 H 201.52 -1.49279 -6.38789 0
M  V30 2231 H 201.437 -3.15546 -6.86998 0
M  V30 2232 H 202.705 -2.14348 -7.4945 0
M  V30 2233 N 206.934 1.1197 -1.10907 0
M  V30 2234 C 208.18 1.8386 -0.855773 0
M  V30 2235 C 208.513 1.84134 0.617103 0
M  V30 2236 O 207.788 1.29041 1.45529 0
M  V30 2237 C 208.071 3.31305 -1.411 0
M  V30 2238 C 207.924 3.39456 -2.9511 0
M  V30 2239 C 209.243 4.2721 -1.05736 0
M  V30 2240 H 206.362 0.667545 -0.312334 0
M  V30 2241 H 209.004 1.31331 -1.37303 0
M  V30 2242 H 207.154 3.76169 -0.97105 0
M  V30 2243 H 208.826 3.03191 -3.47668 0
M  V30 2244 H 207.069 2.79849 -3.31462 0
M  V30 2245 H 207.74 4.43209 -3.29044 0
M  V30 2246 H 210.216 3.90497 -1.43706 0
M  V30 2247 H 209.092 5.28775 -1.47269 0
M  V30 2248 H 209.353 4.42088 0.0325958 0
M  V30 2249 N 208.412 0.89855 1.29475 0
M  V30 2250 C 209.36 0.365253 2.29714 0
M  V30 2251 C 210.354 -0.534993 1.6073 0
M  V30 2252 O 211.56 -0.417921 1.75081 0
M  V30 2253 H 207.935 0.0994853 0.74539 0
M  V30 2254 H 209.906 1.22406 2.72138 0
M  V30 2255 C 208.655 -0.393159 3.4547 0
M  V30 2256 H 207.978 0.290332 3.98744 0
M  V30 2257 H 209.418 -0.731189 4.17648 0
M  V30 2258 C 207.877 -1.59539 2.9673 0
M  V30 2259 O 208.407 -2.69469 2.97908 0
M  V30 2260 N 206.613 -1.43716 2.52575 0
M  V30 2261 H 206.16 -0.542828 2.51816 0
M  V30 2262 H 206.118 -2.24288 2.20323 0
M  V30 2263 N 209.89 -1.43072 0.660911 0
M  V30 2264 C 211.306 -1.56169 0.329173 0
M  V30 2265 C 211.506 -1.64317 -1.16629 0
M  V30 2266 O 210.562 -1.60245 -1.95135 0
M  V30 2267 C 211.875 -2.81873 1.04729 0
M  V30 2268 C 213.423 -2.95627 1.02828 0
M  V30 2269 C 213.898 -4.24174 1.72744 0
M  V30 2270 N 215.389 -4.31055 1.69545 0
M  V30 2271 C 216.124 -5.29304 2.20511 0
M  V30 2272 N 215.62 -6.33786 2.79799 0
M  V30 2273 N 217.413 -5.21008 2.10966 0
M  V30 2274 H 209.564 -1.36027 1.63127 0
M  V30 2275 H 211.827 -0.653823 0.686454 0
M  V30 2276 H 211.533 -2.81942 2.10242 0
M  V30 2277 H 211.407 -3.72338 0.603702 0
M  V30 2278 H 213.794 -2.95094 -0.0184742 0
M  V30 2279 H 213.875 -2.06431 1.51063 0
M  V30 2280 H 213.519 -4.25467 2.7738 0
M  V30 2281 H 213.449 -5.1228 1.2197 0
M  V30 2282 H 215.94 -3.56174 1.26288 0
M  V30 2283 H 216.253 -7.05086 3.16344 0
M  V30 2284 H 214.598 -6.34387 2.83863 0
M  V30 2285 H 217.789 -4.38301 1.64347 0
M  V30 2286 H 217.962 -5.97416 2.50993 0
M  V30 2287 N 211.368 -0.403325 -1.52352 0
M  V30 2288 C 212.593 0.176499 -2.06648 0
M  V30 2289 C 213.018 1.38577 -1.27193 0
M  V30 2290 O 212.376 1.7879 -0.300637 0
M  V30 2291 C 212.424 0.511061 -3.5696 0
M  V30 2292 O 211.528 1.60294 -3.79973 0
M  V30 2293 H 210.869 0.0167337 -0.663789 0
M  V30 2294 H 213.399 -0.574848 -1.96359 0
M  V30 2295 H 213.409 0.771362 -4.00642 0
M  V30 2296 H 212.084 -0.37296 -4.14224 0
M  V30 2297 H 210.661 1.33526 -3.48174 0
M  V30 2298 N 212.846 1.57033 -0.133567 0
M  V30 2299 C 213.794 2.17348 0.828412 0
M  V30 2300 C 214.788 1.12671 1.26498 0
M  V30 2301 O 215.994 1.30947 1.23502 0
M  V30 2302 H 212.369 0.695775 0.285309 0
M  V30 2303 H 214.34 2.96935 0.295372 0
M  V30 2304 C 213.089 2.79893 2.06289 0
M  V30 2305 H 212.412 3.60147 1.73592 0
M  V30 2306 H 213.852 3.25615 2.71572 0
M  V30 2307 C 212.311 1.77713 2.86216 0
M  V30 2308 O 212.841 1.23937 3.82103 0
M  V30 2309 N 211.047 1.47321 2.50489 0
M  V30 2310 H 210.594 1.91243 1.7258 0
M  V30 2311 H 210.552 0.79199 3.04261 0
M  V30 2312 N 214.325 -0.140222 1.56975 0
M  V30 2313 C 215.573 -0.850005 1.83356 0
M  V30 2314 C 215.894 -1.81399 0.71551 0
M  V30 2315 O 215.164 -1.94136 -0.262294 0
M  V30 2316 H 213.744 -0.316886 0.676456 0
M  V30 2317 H 216.406 -0.132608 1.94448 0
M  V30 2318 H 215.502 -1.40814 2.78528 0
M  V30 2319 N 215.803 -1.52179 -0.40978 0
M  V30 2320 C 216.713 -1.78364 -1.52392 0
M  V30 2321 C 217.729 -0.669183 -1.60617 0
M  V30 2322 O 218.905 -0.954518 -1.77344 0
M  V30 2323 C 215.97 -1.92822 -2.88133 0
M  V30 2324 C 215.031 -3.16725 -2.898 0
M  V30 2325 C 214.264 -3.30483 -4.19067 0
M  V30 2326 O 214.487 -2.49522 -5.12928 0
M  V30 2327 O 213.421 -4.2363 -4.27576 0
M  V30 2328 H 217.247 -2.72931 -1.33201 0
M  V30 2329 H 214.832 -1.37016 -0.59557 0
M  V30 2330 H 216.714 -2.04157 -3.68643 0
M  V30 2331 H 215.389 -1.01444 -3.07393 0
M  V30 2332 H 214.296 -3.10848 -2.08146 0
M  V30 2333 H 215.629 -4.07881 -2.75489 0
M  V30 2334 N 217.281 0.66697 -1.42791 0
M  V30 2335 C 218.527 1.42754 -1.44889 0
M  V30 2336 C 218.882 1.92283 -0.0669755 0
M  V30 2337 O 218.175 1.68494 0.912154 0
M  V30 2338 C 218.369 2.6349 -2.4147 0
M  V30 2339 C 218.198 2.25776 -3.88915 0
M  V30 2340 C 216.968 2.1476 -4.57391 0
M  V30 2341 C 219.166 1.86927 -4.79127 0
M  V30 2342 N 217.148 1.70232 -5.89826 0
M  V30 2343 C 218.519 1.53378 -6.00729 0
M  V30 2344 C 220.574 1.73989 -4.66511 0
M  V30 2345 C 219.277 1.08187 -7.11117 0
M  V30 2346 C 221.303 1.30203 -5.76889 0
M  V30 2347 C 220.665 0.975818 -6.97608 0
M  V30 2348 H 216.764 0.518559 -0.585338 0
M  V30 2349 H 219.348 0.768906 -1.78874 0
M  V30 2350 H 217.519 3.27033 -2.09533 0
M  V30 2351 H 219.251 3.30123 -2.34096 0
M  V30 2352 H 216.006 2.3408 -4.11708 0
M  V30 2353 H 216.43 1.50369 -6.6009 0
M  V30 2354 H 221.072 1.97853 -3.7365 0
M  V30 2355 H 218.79 0.830701 -8.03819 0
M  V30 2356 H 222.376 1.20701 -5.69142 0
M  V30 2357 H 221.256 0.642157 -7.81566 0
M  V30 2358 N 218.759 1.29093 0.90403 0
M  V30 2359 C 220.175 1.07011 1.1841 0
M  V30 2360 C 220.375 -0.181358 2.00682 0
M  V30 2361 O 219.431 -0.880331 2.36657 0
M  V30 2362 C 220.744 2.32311 1.90924 0
M  V30 2363 C 222.292 2.37587 2.03768 0
M  V30 2364 C 222.767 3.62679 2.79693 0
M  V30 2365 N 224.258 3.63376 2.87249 0
M  V30 2366 C 224.993 4.56848 3.46522 0
M  V30 2367 N 224.489 5.60648 4.06996 0
M  V30 2368 N 226.282 4.44426 3.44154 0
M  V30 2369 H 218.433 2.09412 0.354993 0
M  V30 2370 H 220.696 0.922181 0.219742 0
M  V30 2371 H 220.402 3.23536 1.37905 0
M  V30 2372 H 220.276 2.39483 2.91424 0
M  V30 2373 H 222.663 1.46853 2.55965 0
M  V30 2374 H 222.744 2.34403 1.02415 0
M  V30 2375 H 222.388 4.53762 2.28173 0
M  V30 2376 H 222.318 3.63119 3.81381 0
M  V30 2377 H 224.809 2.88321 2.44293 0
M  V30 2378 H 225.122 6.28101 4.50232 0
M  V30 2379 H 223.467 5.64463 4.05471 0
M  V30 2380 H 226.658 3.62529 2.96126 0
M  V30 2381 H 226.831 5.17457 3.90054 0
M  V30 2382 N 220.237 -1.11381 1.11499 0
M  V30 2383 C 221.17 -2.16621 0.71769 0
M  V30 2384 C 222.148 -1.60058 -0.286413 0
M  V30 2385 O 223.332 -1.87613 -0.182689 0
M  V30 2386 C 220.459 -3.38646 0.0607265 0
M  V30 2387 C 219.505 -4.13874 1.03008 0
M  V30 2388 S 220.338 -4.70731 2.55289 0
M  V30 2389 C 221.494 -5.96079 1.90895 0
M  V30 2390 H 221.727 -2.49987 1.60915 0
M  V30 2391 H 219.26 -1.23015 0.933092 0
M  V30 2392 H 221.218 -4.09313 -0.311965 0
M  V30 2393 H 219.879 -3.03537 -0.807702 0
M  V30 2394 H 219.072 -5.01333 0.517853 0
M  V30 2395 H 218.674 -3.4897 1.34522 0
M  V30 2396 H 220.966 -6.65948 1.24577 0
M  V30 2397 H 221.909 -6.51946 2.76354 0
M  V30 2398 H 222.317 -5.47652 1.36885 0
M  V30 2399 N 221.715 -0.905404 -1.28997 0
M  V30 2400 C 222.961 -0.535039 -1.95615 0
M  V30 2401 C 223.294 0.917404 -1.71165 0
M  V30 2402 O 222.569 1.65123 -1.02785 0
M  V30 2403 C 222.852 -0.834918 -3.50287 0
M  V30 2404 C 222.705 -2.33948 -3.84172 0
M  V30 2405 C 224.024 -0.325318 -4.38896 0
M  V30 2406 H 221.143 -0.195861 -0.710498 0
M  V30 2407 H 223.785 -1.13313 -1.52513 0
M  V30 2408 H 221.935 -0.325904 -3.87131 0
M  V30 2409 H 223.607 -2.91847 -3.57243 0
M  V30 2410 H 221.85 -2.79789 -3.31513 0
M  V30 2411 H 222.521 -2.49987 -4.92149 0
M  V30 2412 H 224.997 -0.761256 -4.09077 0
M  V30 2413 H 223.873 -0.564295 -5.45992 0
M  V30 2414 H 224.134 0.774144 -4.35269 0
M  V30 2415 N 223.193 1.4272 -0.668489 0
M  V30 2416 C 224.123 2.335 -0.000100175 0
M  V30 2417 C 225.104 1.50328 0.795964 0
M  V30 2418 O 226.289 1.78949 0.754385 0
M  V30 2419 C 223.419 3.33874 0.956302 0
M  V30 2420 C 222.373 4.27152 0.269278 0
M  V30 2421 C 221.699 5.17684 1.33818 0
M  V30 2422 C 222.999 5.15373 -0.847805 0
M  V30 2423 H 224.693 2.89639 -0.758244 0
M  V30 2424 H 222.239 1.39269 -0.366079 0
M  V30 2425 H 224.192 3.9629 1.43292 0
M  V30 2426 H 222.916 2.76025 1.74579 0
M  V30 2427 H 221.575 3.66123 -0.187042 0
M  V30 2428 H 221.223 4.56165 2.1195 0
M  V30 2429 H 220.923 5.80918 0.883659 0
M  V30 2430 H 222.447 5.82974 1.81586 0
M  V30 2431 H 223.861 5.7151 -0.452681 0
M  V30 2432 H 222.258 5.87407 -1.22773 0
M  V30 2433 H 223.328 4.5415 -1.69929 0
M  V30 2434 N 224.671 0.411399 1.52136 0
M  V30 2435 C 225.919 -0.163322 2.01439 0
M  V30 2436 C 226.24 -1.45453 1.29879 0
M  V30 2437 O 225.51 -1.91225 0.4254 0
M  V30 2438 H 224.09 -0.0633447 0.744309 0
M  V30 2439 H 226.752 0.548161 1.87033 0
M  V30 2440 H 225.848 -0.357817 3.10042 0
M  V30 2441 N 226.149 -1.5696 0.141893 0
M  V30 2442 C 227.374 -2.00754 -0.520838 0
M  V30 2443 C 227.799 -1.0213 -1.57959 0
M  V30 2444 O 227.157 0.00371324 -1.813 0
M  V30 2445 C 227.205 -3.43318 -1.10294 0
M  V30 2446 O 226.309 -3.47679 -2.21795 0
M  V30 2447 H 225.65 -0.651564 -0.127908 0
M  V30 2448 H 228.18 -2.03221 0.23712 0
M  V30 2449 H 228.19 -3.82012 -1.43287 0
M  V30 2450 H 226.865 -4.14608 -0.327574 0
M  V30 2451 H 225.442 -3.20824 -1.9007 0
M  V30 2452 N 227.627 0.131896 -1.57047 0
M  V30 2453 C 228.875 0.840269 -1.83804 0
M  V30 2454 C 229.196 1.81017 -0.72512 0
M  V30 2455 O 228.466 1.94272 0.251995 0
M  V30 2456 H 227.046 0.313294 -0.678127 0
M  V30 2457 H 229.708 0.122294 -1.94516 0
M  V30 2458 H 228.804 1.39335 -2.79271 0
M  V30 2459 N 229.106 1.52395 0.401703 0
M  V30 2460 C 230.053 1.76268 1.48991 0
M  V30 2461 C 231.023 0.605386 1.54675 0
M  V30 2462 O 232.208 0.843742 1.7113 0
M  V30 2463 C 229.348 1.92592 2.86361 0
M  V30 2464 C 228.461 3.20259 2.89928 0
M  V30 2465 C 227.596 3.26972 4.18644 0
M  V30 2466 C 226.635 4.48812 4.16214 0
M  V30 2467 N 225.772 4.52877 5.36514 0
M  V30 2468 H 230.612 2.6914 1.27935 0
M  V30 2469 H 228.149 1.33355 0.620871 0
M  V30 2470 H 230.107 2.0004 3.66115 0
M  V30 2471 H 228.737 1.03093 3.05895 0
M  V30 2472 H 227.789 3.21945 2.02621 0
M  V30 2473 H 229.101 4.10056 2.83999 0
M  V30 2474 H 228.255 3.33533 5.06794 0
M  V30 2475 H 226.994 2.35126 4.27278 0
M  V30 2476 H 225.999 4.4239 3.26453 0
M  V30 2477 H 227.224 5.41961 4.09213 0
M  V30 2478 H 225.17 3.63917 5.45802 0
M  V30 2479 H 225.087 5.36529 5.32609 0
M  V30 2480 H 226.355 4.63676 6.26597 0
M  V30 2481 N 230.584 -0.659388 1.43143 0
M  V30 2482 C 231.861 -1.41627 1.34912 0
M  V30 2483 C 232.241 -2.11099 -0.00607785 0
M  V30 2484 O 231.589 -2.04353 -1.02236 0
M  V30 2485 C 231.799 -2.40604 2.52805 0
M  V30 2486 C 233.147 -3.04789 2.95616 0
M  V30 2487 O 234.171 -2.50932 2.52807 0
M  V30 2488 O 233.03 -4.02421 3.69756 0
M  V30 2489 H 230.124 -0.63246 0.532844 0
M  V30 2490 H 232.67 -0.686814 1.5518 0
M  V30 2491 H 231.442 -1.88174 3.43083 0
M  V30 2492 H 231.065 -3.21009 2.34604 0
M  V30 2493 N 232.062 -1.29571 -0.897171 0
M  V30 2494 C 232.972 -1.16808 -2.03453 0
M  V30 2495 C 233.988 -0.0907471 -1.73763 0
M  V30 2496 O 235.164 -0.303312 -1.99103 0
M  V30 2497 C 232.229 -0.848264 -3.36163 0
M  V30 2498 C 231.29 -2.0097 -3.79354 0
M  V30 2499 C 230.523 -1.70505 -5.05731 0
M  V30 2500 O 230.746 -0.62718 -5.66941 0
M  V30 2501 O 229.68 -2.5538 -5.45036 0
M  V30 2502 H 233.506 -2.12325 -2.17144 0
M  V30 2503 H 231.091 -1.09047 -1.02123 0
M  V30 2504 H 232.973 -0.684581 -4.15802 0
M  V30 2505 H 231.648 0.0771071 -3.23608 0
M  V30 2506 H 230.555 -2.22863 -3.00471 0
M  V30 2507 H 231.888 -2.91636 -3.96496 0
M  V30 2508 N 233.54 1.10788 -1.12088 0
M  V30 2509 C 234.487 2.17025 -0.785407 0
M  V30 2510 C 235.457 1.64265 0.246191 0
M  V30 2511 O 236.642 1.90412 0.121584 0
M  V30 2512 C 233.782 3.44249 -0.242177 0
M  V30 2513 C 232.895 4.1098 -1.33115 0
M  V30 2514 C 232.03 5.25911 -0.747741 0
M  V30 2515 C 231.069 5.84538 -1.81609 0
M  V30 2516 N 230.206 6.90853 -1.25167 0
M  V30 2517 H 235.046 2.45066 -1.69548 0
M  V30 2518 H 232.583 1.20297 -0.846582 0
M  V30 2519 H 234.541 4.17101 0.0908026 0
M  V30 2520 H 233.171 3.16571 0.631072 0
M  V30 2521 H 232.223 3.36133 -1.78097 0
M  V30 2522 H 233.535 4.50601 -2.13917 0
M  V30 2523 H 232.689 6.056 -0.365216 0
M  V30 2524 H 231.428 4.87614 0.0915188 0
M  V30 2525 H 230.433 5.03522 -2.20785 0
M  V30 2526 H 231.658 6.249 -2.6585 0
M  V30 2527 H 229.604 6.54562 -0.434174 0
M  V30 2528 H 229.521 7.29166 -1.99633 0
M  V30 2529 H 230.789 7.7433 -0.896259 0
M  V30 2530 N 235.018 0.912232 1.28515 0
M  V30 2531 C 236.267 0.540504 1.94323 0
M  V30 2532 C 236.58 -0.920044 1.72611 0
M  V30 2533 O 237.786 -1.39986 2.32629 0
M  V30 2534 C 236.242 0.915803 3.48053 0
M  V30 2535 C 235.85 2.39598 3.78546 0
M  V30 2536 C 237.594 0.614588 4.20027 0
M  V30 2537 C 235.501 2.71148 5.25578 0
M  V30 2538 H 234.431 0.198418 0.727424 0
M  V30 2539 H 237.082 1.11094 1.46049 0
M  V30 2540 H 235.464 0.274168 3.9505 0
M  V30 2541 H 236.638 3.08422 3.42364 0
M  V30 2542 H 234.953 2.66749 3.1974 0
M  V30 2543 H 237.55 0.827002 5.28266 0
M  V30 2544 H 237.893 -0.447531 4.13887 0
M  V30 2545 H 238.426 1.21462 3.78803 0
M  V30 2546 H 235.165 3.76207 5.36794 0
M  V30 2547 H 234.685 2.0696 5.62963 0
M  V30 2548 H 236.364 2.58072 5.93302 0
M  V30 2549 N 236.496 -1.42363 0.676048 0
M  V30 2550 C 237.744 -2.01123 0.198437 0
M  V30 2551 C 238.065 -1.53731 -1.19966 0
M  V30 2552 O 237.335 -0.759518 -1.80577 0
M  V30 2553 H 235.915 -0.743678 0.0703721 0
M  V30 2554 H 238.577 -1.74263 0.872837 0
M  V30 2555 H 237.673 -3.11454 0.200686 0
M  V30 2556 N 237.974 -0.419461 -1.51915 0
M  V30 2557 C 239.39 -0.0708431 -1.59443 0
M  V30 2558 C 239.59 1.41796 -1.43164 0
M  V30 2559 O 238.646 2.18596 -1.26381 0
M  V30 2560 C 239.959 -0.574991 -2.95151 0
M  V30 2561 C 241.507 -0.533867 -3.08413 0
M  V30 2562 C 241.982 -1.01469 -4.46618 0
M  V30 2563 N 243.473 -0.971939 -4.52888 0
M  V30 2564 C 244.208 -1.31505 -5.58116 0
M  V30 2565 N 243.704 -1.73014 -6.70849 0
M  V30 2566 N 245.497 -1.23436 -5.48379 0
M  V30 2567 H 237.648 -1.38836 -1.60743 0
M  V30 2568 H 239.911 -0.570998 -0.756747 0
M  V30 2569 H 239.617 -1.61597 -3.12377 0
M  V30 2570 H 239.491 0.00979777 -3.77199 0
M  V30 2571 H 241.878 0.498086 -2.90866 0
M  V30 2572 H 241.959 -1.15484 -2.28248 0
M  V30 2573 H 241.603 -2.04502 -4.6491 0
M  V30 2574 H 241.533 -0.370433 -5.25295 0
M  V30 2575 H 244.024 -0.666893 -3.71969 0
M  V30 2576 H 244.337 -1.97479 -7.47143 0
M  V30 2577 H 242.682 -1.76926 -6.72103 0
M  V30 2578 H 245.873 -0.908869 -4.59192 0
M  V30 2579 H 246.046 -1.50506 -6.30279 0
M  V30 2580 N 239.452 1.56882 -0.150215 0
M  V30 2581 C 240.698 1.96518 0.500834 0
M  V30 2582 C 241.031 1.03527 1.64304 0
M  V30 2583 O 240.306 0.0782751 1.94342 0
M  V30 2584 C 240.589 3.45822 1.00395 0
M  V30 2585 C 240.442 4.49591 -0.136983 0
M  V30 2586 C 241.761 3.97704 1.88467 0
M  V30 2587 H 238.88 0.714535 0.18058 0
M  V30 2588 H 241.522 1.88577 -0.232091 0
M  V30 2589 H 239.672 3.5272 1.62851 0
M  V30 2590 H 241.344 4.5477 -0.77343 0
M  V30 2591 H 239.587 4.26441 -0.795652 0
M  V30 2592 H 240.258 5.51402 0.256815 0
M  V30 2593 H 242.734 3.93304 1.35834 0
M  V30 2594 H 241.61 5.0263 2.20578 0
M  V30 2595 H 241.871 3.40252 2.82279 0
M  V30 2596 N 240.93 -0.123565 1.57115 0
M  V30 2597 C 241.86 -1.15309 2.03042 0
M  V30 2598 C 242.841 -1.43454 0.914061 0
M  V30 2599 O 244.026 -1.53973 1.18347 0
M  V30 2600 C 241.156 -2.48043 2.43089 0
M  V30 2601 C 240.11 -2.3437 3.58127 0
M  V30 2602 C 239.436 -3.72026 3.84059 0
M  V30 2603 C 240.736 -1.80804 4.90007 0
M  V30 2604 H 242.43 -0.771102 2.893 0
M  V30 2605 H 239.976 -0.369479 1.39179 0
M  V30 2606 H 241.929 -3.20311 2.73823 0
M  V30 2607 H 240.653 -2.88122 1.53796 0
M  V30 2608 H 239.312 -1.64551 3.27595 0
M  V30 2609 H 238.96 -4.09582 2.91979 0
M  V30 2610 H 238.66 -3.63732 4.6149 0
M  V30 2611 H 240.184 -4.45806 4.1724 0
M  V30 2612 H 241.598 -2.42886 5.19307 0
M  V30 2613 H 239.995 -1.83343 5.71407 0
M  V30 2614 H 241.065 -0.76528 4.78823 0
M  V30 2615 N 242.408 -1.52605 -0.393616 0
M  V30 2616 C 243.338 -1.80022 -1.48709 0
M  V30 2617 C 244.319 -0.651995 -1.57108 0
M  V30 2618 O 245.504 -0.89913 -1.72132 0
M  V30 2619 C 242.634 -1.96492 -2.86371 0
M  V30 2620 C 241.588 -3.12161 -2.92813 0
M  V30 2621 C 240.914 -3.13877 -4.3288 0
M  V30 2622 C 242.214 -4.51322 -2.6288 0
M  V30 2623 H 243.908 -2.71589 -1.26015 0
M  V30 2624 H 241.454 -1.30684 -0.604778 0
M  V30 2625 H 243.407 -2.14255 -3.62867 0
M  V30 2626 H 242.131 -1.01611 -3.10391 0
M  V30 2627 H 240.79 -2.94173 -2.18764 0
M  V30 2628 H 240.438 -2.16687 -4.53933 0
M  V30 2629 H 240.138 -3.91576 -4.38112 0
M  V30 2630 H 241.662 -3.33789 -5.1129 0
M  V30 2631 H 243.076 -4.69435 -3.29096 0
M  V30 2632 H 241.473 -5.31053 -2.79468 0
M  V30 2633 H 242.543 -4.58353 -1.58242 0
M  V30 2634 N 243.887 0.651787 -1.4349 0
M  V30 2635 C 245.117 1.43728 -1.48411 0
M  V30 2636 C 245.525 1.8893 -0.10103 0
M  V30 2637 O 244.868 1.60182 0.899307 0
M  V30 2638 C 244.93 2.70411 -2.36893 0
M  V30 2639 C 244.594 2.4714 -3.8441 0
M  V30 2640 C 245.591 2.10271 -4.75481 0
M  V30 2641 C 243.276 2.6142 -4.28912 0
M  V30 2642 C 245.27 1.87982 -6.0905 0
M  V30 2643 C 242.957 2.38746 -5.62533 0
M  V30 2644 C 243.955 2.02083 -6.5242 0
M  V30 2645 O 243.643 1.79647 -7.8357 0
M  V30 2646 H 243.375 0.447962 -0.506267 0
M  V30 2647 H 245.929 0.80624 -1.88915 0
M  V30 2648 H 244.159 3.36079 -1.91278 0
M  V30 2649 H 245.848 3.32364 -2.33 0
M  V30 2650 H 246.614 1.98814 -4.42378 0
M  V30 2651 H 242.493 2.88931 -3.59222 0
M  V30 2652 H 246.037 1.5929 -6.7917 0
M  V30 2653 H 241.934 2.49806 -5.95203 0
M  V30 2654 H 242.702 1.9406 -7.95162 0
M  V30 2655 N 245.365 1.30045 0.890287 0
M  V30 2656 C 246.593 1.21472 1.67487 0
M  V30 2657 C 247.008 -0.223241 1.87476 0
M  V30 2658 O 246.365 -1.14828 1.41847 0
M  V30 2659 C 246.416 1.93394 3.05419 0
M  V30 2660 O 246.137 3.31576 2.86337 0
M  V30 2661 C 247.638 1.91414 3.99844 0
M  V30 2662 H 244.858 0.420604 0.522813 0
M  V30 2663 H 247.402 1.7158 1.11268 0
M  V30 2664 H 245.557 1.47099 3.58386 0
M  V30 2665 H 245.971 3.67929 3.73802 0
M  V30 2666 H 247.445 2.46285 4.94012 0
M  V30 2667 H 247.922 0.891833 4.3005 0
M  V30 2668 H 248.528 2.37496 3.52811 0
M  V30 2669 N 246.843 -1.10192 1.12674 0
M  V30 2670 C 248.068 -1.86523 0.906853 0
M  V30 2671 C 248.493 -1.80221 -0.538711 0
M  V30 2672 O 247.851 -1.17396 -1.38158 0
M  V30 2673 C 247.899 -3.32758 1.3894 0
M  V30 2674 O 247.003 -4.08449 0.5695 0
M  V30 2675 H 246.344 -0.578678 0.325619 0
M  V30 2676 H 248.874 -1.39203 1.49946 0
M  V30 2677 H 248.884 -3.83608 1.38958 0
M  V30 2678 H 247.559 -3.36661 2.44197 0
M  V30 2679 H 246.136 -3.67427 0.636528 0
M  V30 2680 N 248.321 -0.919034 -1.28029 0
M  V30 2681 C 249.598 -0.473668 -1.89778 0
M  V30 2682 C 249.978 1.04783 -1.83259 0
M  V30 2683 O 249.326 1.8982 -1.27202 0
M  V30 2684 C 249.536 -1.00998 -3.34066 0
M  V30 2685 C 250.884 -1.06525 -4.1102 0
M  V30 2686 O 251.908 -0.958996 -3.43048 0
M  V30 2687 O 250.767 -1.22776 -5.3253 0
M  V30 2688 H 247.861 -0.15098 -0.813101 0
M  V30 2689 H 250.407 -1.01016 -1.36359 0
M  V30 2690 H 249.179 -2.05392 -3.33061 0
M  V30 2691 H 248.802 -0.454626 -3.94992 0
M  V30 2692 N 249.799 1.42003 -0.683588 0
M  V30 2693 C 251.076 1.95112 -0.138075 0
M  V30 2694 C 251.456 1.62359 1.34918 0
M  V30 2695 O 250.804 0.924311 2.08971 0
M  V30 2696 C 251.014 3.46505 -0.416581 0
M  V30 2697 C 252.362 4.23254 -0.337834 0
M  V30 2698 O 253.386 3.54468 -0.35082 0
M  V30 2699 O 252.245 5.45743 -0.287596 0
M  V30 2700 H 249.339 0.826961 -0.00797996 0
M  V30 2701 H 251.885 1.51784 -0.758924 0
M  V30 2702 H 250.657 3.63582 -1.4465 0
M  V30 2703 H 250.28 3.969 0.235839 0
M  V30 2704 N 251.277 0.427512 1.51691 0
M  V30 2705 C 252.207 -0.3796 2.30394 0
M  V30 2706 C 253.188 -1.02982 1.35384 0
M  V30 2707 O 254.373 -1.03534 1.643 0
M  V30 2708 C 251.503 -1.48649 3.1388 0
M  V30 2709 C 250.457 -0.960294 4.17088 0
M  V30 2710 C 249.783 -2.16219 4.89033 0
M  V30 2711 C 251.083 -0.00153679 5.223 0
M  V30 2712 H 252.777 0.277164 2.98114 0
M  V30 2713 H 250.323 0.134739 1.43368 0
M  V30 2714 H 252.276 -2.05826 3.67714 0
M  V30 2715 H 251 -2.1714 2.43962 0
M  V30 2716 H 249.659 -0.410806 3.64291 0
M  V30 2717 H 249.307 -2.83307 4.15628 0
M  V30 2718 H 249.007 -1.81654 5.58816 0
M  V30 2719 H 250.531 -2.73968 5.45687 0
M  V30 2720 H 251.945 -0.482687 5.71264 0
M  V30 2721 H 250.342 0.256199 5.99553 0
M  V30 2722 H 251.412 0.938174 4.75738 0
M  V30 2723 N 252.755 -1.56801 0.158532 0
M  V30 2724 C 254.002 -1.9649 -0.489679 0
M  V30 2725 C 254.33 -1.04394 -1.6411 0
M  V30 2726 O 253.585 -0.0754401 -1.95555 0
M  V30 2727 C 253.884 -3.4235 -1.02623 0
M  V30 2728 C 253.55 -4.50899 0.00794526 0
M  V30 2729 C 252.212 -4.80312 0.292207 0
M  V30 2730 C 254.564 -5.16333 0.710584 0
M  V30 2731 C 251.892 -5.72461 1.28472 0
M  V30 2732 C 254.244 -6.09553 1.69199 0
M  V30 2733 C 252.908 -6.37339 1.98383 0
M  V30 2734 H 252.178 -0.719009 -0.179186 0
M  V30 2735 H 254.825 -1.8989 0.247798 0
M  V30 2736 H 253.13 -3.45838 -1.84128 0
M  V30 2737 H 254.827 -3.70393 -1.53656 0
M  V30 2738 H 251.417 -4.28015 -0.22379 0
M  V30 2739 H 255.601 -4.93732 0.504174 0
M  V30 2740 H 250.857 -5.92278 1.51714 0
M  V30 2741 H 255.031 -6.59327 2.24189 0
M  V30 2742 H 252.658 -7.08546 2.7544 0
M  V30 2743 N 254.233 0.115231 -1.57178 0
M  V30 2744 C 255.183 1.14707 -1.97044 0
M  V30 2745 C 256.167 1.36866 -0.845957 0
M  V30 2746 O 257.359 1.37895 -1.10968 0
M  V30 2747 C 254.488 2.47266 -2.38148 0
M  V30 2748 C 253.574 2.28566 -3.57237 0
M  V30 2749 N 253.965 1.79685 -4.72807 0
M  V30 2750 C 252.263 2.59208 -3.62943 0
M  V30 2751 C 252.964 1.74781 -5.54821 0
M  V30 2752 N 251.94 2.19264 -4.97417 0
M  V30 2753 H 255.742 0.761754 -2.83857 0
M  V30 2754 H 253.256 0.322928 -1.59157 0
M  V30 2755 H 255.253 3.219 -2.64927 0
M  V30 2756 H 253.913 2.86552 -1.52702 0
M  V30 2757 H 254.924 1.49177 -4.9595 0
M  V30 2758 H 251.601 3.02154 -2.88113 0
M  V30 2759 H 252.991 1.38212 -6.57531 0
M  V30 2760 N 255.711 1.52812 0.385517 0
M  V30 2761 C 256.957 1.69225 1.12847 0
M  V30 2762 C 257.312 0.42864 1.87564 0
M  V30 2763 O 256.605 -0.57779 1.8268 0
M  V30 2764 C 256.799 2.86856 2.13187 0
M  V30 2765 C 256.628 4.24535 1.48325 0
M  V30 2766 C 255.398 4.89701 1.24585 0
M  V30 2767 C 257.596 5.05794 0.931501 0
M  V30 2768 N 255.578 6.11353 0.558644 0
M  V30 2769 C 256.949 6.1888 0.372552 0
M  V30 2770 C 259.004 4.90963 0.828248 0
M  V30 2771 C 257.707 7.18757 -0.279556 0
M  V30 2772 C 259.733 5.91095 0.189956 0
M  V30 2773 C 259.095 7.03489 -0.358207 0
M  V30 2774 H 255.194 0.67268 0.39878 0
M  V30 2775 H 257.778 1.9017 0.417528 0
M  V30 2776 H 255.949 2.67484 2.81614 0
M  V30 2777 H 257.681 2.92188 2.80014 0
M  V30 2778 H 254.436 4.48485 1.52178 0
M  V30 2779 H 254.86 6.76606 0.230983 0
M  V30 2780 H 259.502 4.04274 1.23784 0
M  V30 2781 H 257.22 8.05052 -0.701152 0
M  V30 2782 H 260.806 5.81694 0.111264 0
M  V30 2783 H 259.686 7.79642 -0.844314 0
M  V30 2784 N 257.189 -0.644168 1.43834 0
M  V30 2785 C 258.136 -1.75671 1.49694 0
M  V30 2786 C 259.106 -1.6246 0.345809 0
M  V30 2787 O 260.291 -1.82573 0.554234 0
M  V30 2788 C 257.431 -3.13867 1.43463 0
M  V30 2789 C 256.544 -3.38147 2.6885 0
M  V30 2790 C 255.679 -4.66241 2.54544 0
M  V30 2791 C 254.718 -4.83657 3.75157 0
M  V30 2792 N 253.855 -6.03016 3.59605 0
M  V30 2793 H 258.695 -1.69998 2.44754 0
M  V30 2794 H 256.232 -0.829458 1.21484 0
M  V30 2795 H 258.19 -3.9377 1.37843 0
M  V30 2796 H 256.82 -3.18588 0.519783 0
M  V30 2797 H 255.872 -2.52276 2.84712 0
M  V30 2798 H 257.184 -3.46899 3.58417 0
M  V30 2799 H 256.338 -5.54285 2.46683 0
M  V30 2800 H 255.077 -4.59826 1.62516 0
M  V30 2801 H 254.082 -3.94046 3.83416 0
M  V30 2802 H 255.307 -4.91896 4.68204 0
M  V30 2803 H 253.253 -5.97715 2.7032 0
M  V30 2804 H 253.17 -6.12766 4.42779 0
M  V30 2805 H 254.438 -6.93657 3.55613 0
M  V30 2806 N 258.668 -1.30515 -0.883378 0
M  V30 2807 C 259.898 -1.22182 -1.66599 0
M  V30 2808 C 260.306 0.217507 -1.87946 0
M  V30 2809 O 259.649 1.1554 -1.42815 0
M  V30 2810 C 259.711 -1.88146 -3.06335 0
M  V30 2811 C 259.375 -3.37476 -3.08154 0
M  V30 2812 C 260.372 -4.33443 -2.87094 0
M  V30 2813 C 258.057 -3.7895 -3.29701 0
M  V30 2814 C 260.051 -5.68858 -2.8754 0
M  V30 2815 C 257.738 -5.14482 -3.29776 0
M  V30 2816 C 258.736 -6.09246 -3.0872 0
M  V30 2817 O 258.424 -7.42302 -3.08615 0
M  V30 2818 H 258.156 -0.423898 -0.52658 0
M  V30 2819 H 260.71 -1.72703 -1.11188 0
M  V30 2820 H 258.94 -1.32157 -3.63416 0
M  V30 2821 H 260.629 -1.7391 -3.66756 0
M  V30 2822 H 261.395 -4.02733 -2.70243 0
M  V30 2823 H 257.274 -3.05631 -3.45124 0
M  V30 2824 H 260.818 -6.428 -2.71024 0
M  V30 2825 H 256.715 -5.44832 -3.46163 0
M  V30 2826 H 257.483 -7.5131 -3.24769 0
M  V30 2827 N 260.146 1.09593 -1.13257 0
M  V30 2828 C 261.056 2.19739 -0.821691 0
M  V30 2829 C 262.072 1.72926 0.19302 0
M  V30 2830 O 263.248 2.01385 0.0244895 0
M  V30 2831 C 260.313 3.45482 -0.290333 0
M  V30 2832 C 259.374 4.06985 -1.36607 0
M  V30 2833 C 258.607 5.26726 -0.859975 0
M  V30 2834 O 258.83 5.69594 0.303082 0
M  V30 2835 O 257.764 5.7931 -1.63351 0
M  V30 2836 H 261.59 2.48781 -1.74189 0
M  V30 2837 H 259.175 1.18496 -0.909894 0
M  V30 2838 H 261.057 4.214 0.000674022 0
M  V30 2839 H 259.732 3.18047 0.602306 0
M  V30 2840 H 258.639 3.32712 -1.71037 0
M  V30 2841 H 259.972 4.38643 -2.23279 0
M  V30 2842 N 261.624 0.925811 1.2754 0
M  V30 2843 C 262.872 0.564138 1.94067 0
M  V30 2844 C 263.193 -0.897188 1.73134 0
M  V30 2845 O 262.463 -1.63573 1.07799 0
M  V30 2846 H 261.043 0.205645 0.718136 0
M  V30 2847 H 263.705 1.1778 1.55287 0
M  V30 2848 H 262.801 0.76881 3.02483 0
M  V30 2849 N 263.102 -1.41638 0.69111 0
M  V30 2850 C 264.348 -2.01598 0.220519 0
M  V30 2851 C 264.681 -1.54594 -1.17535 0
M  V30 2852 O 263.956 -0.755177 -1.79241 0
M  V30 2853 C 264.239 -3.59062 0.273243 0
M  V30 2854 C 264.092 -4.16203 1.70573 0
M  V30 2855 C 265.411 -4.38546 -0.369457 0
M  V30 2856 H 262.53 -0.732468 0.0816045 0
M  V30 2857 H 265.172 -1.68445 0.878986 0
M  V30 2858 H 263.322 -3.87435 -0.287411 0
M  V30 2859 H 264.994 -3.98722 2.31989 0
M  V30 2860 H 263.237 -3.71414 2.2413 0
M  V30 2861 H 263.908 -5.25358 1.69419 0
M  V30 2862 H 266.384 -4.1596 0.107977 0
M  V30 2863 H 265.26 -5.48069 -0.302002 0
M  V30 2864 H 265.521 -4.17662 -1.44951 0
M  V30 2865 N 264.58 -0.43555 -1.51462 0
M  V30 2866 C 265.829 0.133007 -2.01261 0
M  V30 2867 C 266.142 1.43942 -1.32439 0
M  V30 2868 O 267.348 2.09081 -1.73198 0
M  V30 2869 C 265.804 0.287581 -3.58749 0
M  V30 2870 C 265.412 -1.00829 -4.36506 0
M  V30 2871 C 267.156 0.810004 -4.167 0
M  V30 2872 C 265.063 -0.819454 -5.85695 0
M  V30 2873 H 263.993 0.0534822 -0.752101 0
M  V30 2874 H 266.644 -0.565038 -1.74584 0
M  V30 2875 H 265.026 1.04859 -3.81865 0
M  V30 2876 H 266.2 -1.77749 -4.25138 0
M  V30 2877 H 264.515 -1.45911 -3.89999 0
M  V30 2878 H 267.112 0.967743 -5.2587 0
M  V30 2879 H 267.455 1.79196 -3.75758 0
M  V30 2880 H 267.988 0.107357 -3.97655 0
M  V30 2881 H 264.727 -1.77374 -6.31046 0
M  V30 2882 H 264.247 -0.0900208 -5.99732 0
M  V30 2883 H 265.926 -0.471949 -6.45276 0
M  V30 2884 N 266.058 1.56714 -0.166846 0
M  V30 2885 C 267.305 1.96747 0.479252 0
M  V30 2886 C 267.633 1.05263 1.63554 0
M  V30 2887 O 266.888 0.0858098 1.95512 0
M  V30 2888 C 267.187 3.42889 1.00806 0
M  V30 2889 C 266.853 4.50889 -0.0318574 0
M  V30 2890 C 265.515 4.8015 -0.317675 0
M  V30 2891 C 267.867 5.15949 -0.737956 0
M  V30 2892 C 265.195 5.71772 -1.31506 0
M  V30 2893 C 267.547 6.08647 -1.72429 0
M  V30 2894 C 266.211 6.36277 -2.0176 0
M  V30 2895 H 265.481 0.719949 0.175371 0
M  V30 2896 H 268.128 1.89756 -0.257864 0
M  V30 2897 H 266.433 3.4681 1.82291 0
M  V30 2898 H 268.13 3.71203 1.51689 0
M  V30 2899 H 264.72 4.28128 0.201088 0
M  V30 2900 H 268.904 4.93458 -0.530351 0
M  V30 2901 H 264.16 5.91465 -1.54853 0
M  V30 2902 H 268.334 6.58129 -2.27682 0
M  V30 2903 H 265.961 7.07075 -2.79194 0
M  V30 2904 N 267.536 -0.106894 1.57237 0
M  V30 2905 C 268.446 -1.14911 2.0453 0
M  V30 2906 C 269.462 -1.44592 0.96795 0
M  V30 2907 O 270.638 -1.55468 1.2803 0
M  V30 2908 C 267.703 -2.45272 2.45036 0
M  V30 2909 C 266.764 -2.22879 3.66911 0
M  V30 2910 C 265.997 -3.47024 4.05475 0
M  V30 2911 O 266.22 -4.54804 3.44252 0
M  V30 2912 O 265.154 -3.3731 4.98504 0
M  V30 2913 H 268.98 -0.777461 2.9358 0
M  V30 2914 H 266.565 -0.318563 1.45964 0
M  V30 2915 H 268.447 -3.22055 2.71769 0
M  V30 2916 H 267.122 -2.81886 1.59129 0
M  V30 2917 H 266.029 -1.43915 3.45311 0
M  V30 2918 H 267.362 -1.91163 4.53561 0
M  V30 2919 N 269.014 -1.53014 -0.377408 0
M  V30 2920 C 270.291 -1.59215 -1.13622 0
M  V30 2921 C 270.671 -0.392407 -2.07421 0
M  V30 2922 O 270.019 0.618342 -2.19975 0
M  V30 2923 C 270.229 -2.93669 -1.88573 0
M  V30 2924 C 271.577 -3.47822 -2.43526 0
M  V30 2925 O 272.601 -2.9562 -1.98715 0
M  V30 2926 O 271.46 -4.39055 -3.25412 0
M  V30 2927 H 268.554 -0.642625 -0.52054 0
M  V30 2928 H 271.1 -1.65353 -0.381625 0
M  V30 2929 H 269.872 -3.7243 -1.20048 0
M  V30 2930 H 269.495 -2.90968 -2.70968 0
M  V30 2931 N 270.492 0.636531 -1.44174 0
M  V30 2932 C 271.402 1.77754 -1.53103 0
M  V30 2933 C 272.418 1.68928 -0.417034 0
M  V30 2934 O 273.594 1.89801 -0.6736 0
M  V30 2935 C 270.659 3.14115 -1.46741 0
M  V30 2936 C 269.72 3.34612 -2.68948 0
M  V30 2937 C 268.953 4.64467 -2.6288 0
M  V30 2938 O 269.176 5.44919 -1.68581 0
M  V30 2939 O 268.11 4.87049 -3.53648 0
M  V30 2940 H 271.936 1.73174 -2.49489 0
M  V30 2941 H 269.521 0.79709 -1.2636 0
M  V30 2942 H 271.403 3.95412 -1.45696 0
M  V30 2943 H 270.078 3.19249 -0.534975 0
M  V30 2944 H 268.985 2.53014 -2.75562 0
M  V30 2945 H 270.318 3.34336 -3.61221 0
M  V30 2946 N 271.97 1.30982 0.876444 0
M  V30 2947 C 273.198 1.23242 1.6619 0
M  V30 2948 C 273.613 -0.203345 1.87702 0
M  V30 2949 O 272.97 -1.13317 1.43057 0
M  V30 2950 C 273.021 1.96623 3.03351 0
M  V30 2951 O 272.742 3.34594 2.82804 0
M  V30 2952 C 274.243 1.95644 3.97792 0
M  V30 2953 H 271.463 0.426126 0.518322 0
M  V30 2954 H 274.007 1.7275 1.09442 0
M  V30 2955 H 272.162 1.50892 3.56806 0
M  V30 2956 H 272.576 3.71873 3.69879 0
M  V30 2957 H 274.05 2.51511 4.91372 0
M  V30 2958 H 274.527 0.937395 4.2908 0
M  V30 2959 H 275.133 2.41225 3.50272 0
M  V30 2960 N 273.449 -1.08991 1.13837 0
M  V30 2961 C 274.677 -1.85011 0.926202 0
M  V30 2962 C 275.092 -1.8135 -0.525127 0
M  V30 2963 O 274.449 -1.21287 -1.36366 0
M  V30 2964 C 274.5 -3.32802 1.41155 0
M  V30 2965 O 274.221 -3.36444 2.80601 0
M  V30 2966 C 275.722 -4.25649 1.23847 0
M  V30 2967 H 272.942 -0.584249 0.32999 0
M  V30 2968 H 275.486 -1.37688 1.51202 0
M  V30 2969 H 273.641 -3.77536 0.868631 0
M  V30 2970 H 274.055 -4.28657 3.02248 0
M  V30 2971 H 275.529 -5.27485 1.62675 0
M  V30 2972 H 276.006 -4.38828 0.18065 0
M  V30 2973 H 276.612 -3.86735 1.76964 0
M  V30 2974 N 274.927 -0.932562 -1.27047 0
M  V30 2975 C 275.874 -0.434072 -2.26681 0
M  V30 2976 C 276.844 0.501639 -1.58344 0
M  V30 2977 O 278.029 0.419734 -1.86126 0
M  V30 2978 C 275.169 0.30261 -3.43771 0
M  V30 2979 C 274.282 -0.667774 -4.26808 0
M  V30 2980 C 273.417 0.0892393 -5.31125 0
M  V30 2981 C 272.456 -0.873532 -6.05835 0
M  V30 2982 N 271.593 -0.148832 -7.01942 0
M  V30 2983 H 276.433 -1.28868 -2.68695 0
M  V30 2984 H 273.97 -0.646713 -1.32121 0
M  V30 2985 H 275.928 0.746092 -4.10474 0
M  V30 2986 H 274.558 1.12142 -3.02695 0
M  V30 2987 H 273.61 -1.22978 -3.59973 0
M  V30 2988 H 274.922 -1.40337 -4.78651 0
M  V30 2989 H 274.076 0.592409 -6.03801 0
M  V30 2990 H 272.815 0.85777 -4.80097 0
M  V30 2991 H 271.82 -1.38791 -5.31994 0
M  V30 2992 H 273.045 -1.64193 -6.58952 0
M  V30 2993 H 270.991 0.601365 -6.53238 0
M  V30 2994 H 270.908 -0.82391 -7.51497 0
M  V30 2995 H 272.176 0.333527 -7.78786 0
M  V30 2996 N 276.405 1.4127 -0.698611 0
M  V30 2997 C 277.315 2.34573 -0.0357891 0
M  V30 2998 C 278.331 1.56393 0.762701 0
M  V30 2999 O 279.507 1.8886 0.699564 0
M  V30 3000 C 276.572 3.35159 0.887089 0
M  V30 3001 C 275.633 4.29225 0.0804634 0
M  V30 3002 C 274.866 5.25006 0.959387 0
M  V30 3003 O 275.089 5.26314 2.19886 0
M  V30 3004 O 274.023 6.00519 0.407439 0
M  V30 3005 H 277.849 2.92838 -0.804957 0
M  V30 3006 H 275.434 1.42175 -0.458966 0
M  V30 3007 H 277.316 3.9689 1.41621 0
M  V30 3008 H 275.991 2.79333 1.6357 0
M  V30 3009 H 274.898 3.70833 -0.493328 0
M  V30 3010 H 276.231 4.88157 -0.629547 0
M  V30 3011 N 277.883 0.443576 1.51229 0
M  V30 3012 C 279.132 -0.122332 2.01329 0
M  V30 3013 C 279.445 -1.43237 1.33201 0
M  V30 3014 O 280.651 -2.0816 1.74304 0
M  V30 3015 C 279.107 -0.268551 3.58897 0
M  V30 3016 C 278.715 1.03142 4.35965 0
M  V30 3017 C 280.459 -0.787894 4.17124 0
M  V30 3018 C 278.366 0.850504 5.85252 0
M  V30 3019 H 277.296 -0.0494929 0.752374 0
M  V30 3020 H 279.947 0.574289 1.74282 0
M  V30 3021 H 278.329 -1.02832 3.82415 0
M  V30 3022 H 279.503 1.80001 4.24189 0
M  V30 3023 H 277.818 1.47977 3.89219 0
M  V30 3024 H 280.415 -0.939841 5.26375 0
M  V30 3025 H 280.758 -1.77201 3.76703 0
M  V30 3026 H 281.291 -0.0862669 3.97706 0
M  V30 3027 H 278.03 1.80718 6.30096 0
M  V30 3028 H 277.55 0.121825 5.99676 0
M  V30 3029 H 279.229 0.506163 6.45017 0
M  V30 3030 N 279.361 -1.56624 0.175154 0
M  V30 3031 C 280.271 -2.21741 -0.766042 0
M  V30 3032 C 281.287 -1.21023 -1.25018 0
M  V30 3033 O 282.463 -1.53697 -1.3015 0
M  V30 3034 C 279.528 -2.84839 -1.97655 0
M  V30 3035 C 278.589 -4.00769 -1.53892 0
M  V30 3036 C 277.822 -4.60849 -2.69173 0
M  V30 3037 O 278.045 -4.19823 -3.86141 0
M  V30 3038 O 276.979 -5.50655 -2.43028 0
M  V30 3039 H 280.805 -3.02738 -0.241585 0
M  V30 3040 H 278.39 -1.49305 -0.053222 0
M  V30 3041 H 280.272 -3.24834 -2.68442 0
M  V30 3042 H 278.947 -2.06836 -2.48999 0
M  V30 3043 H 277.854 -3.65436 -0.80044 0
M  V30 3044 H 279.187 -4.80376 -1.07236 0
M  V30 3045 N 280.839 0.0985539 -1.57292 0
M  V30 3046 C 282.079 0.808332 -1.87737 0
M  V30 3047 C 282.443 1.7607 -0.76572 0
M  V30 3048 O 283.644 2.51358 -0.952499 0
M  V30 3049 C 281.915 1.52093 -3.23423 0
M  V30 3050 S 283.474 2.26947 -3.75554 0
M  V30 3051 H 280.292 0.269377 -0.657995 0
M  V30 3052 H 282.894 0.0656269 -1.9539 0
M  V30 3053 H 281.598 0.81363 -4.02254 0
M  V30 3054 H 281.129 2.30361 -3.189 0
M  V30 3055 H 283.144 3.53027 -3.48692 0
M  V30 3056 N 282.317 1.53212 0.369288 0
M  V30 3057 C 283.728 1.60943 0.946276 0
M  V30 3058 C 284.079 0.47452 1.90375 0
M  V30 3059 O 283.204 -0.399597 2.12679 0
M  V30 3060 C 283.799 2.91715 1.72302 0
M  V30 3061 C 282.358 3.01792 2.24941 0
M  V30 3062 C 281.505 2.56211 1.06072 0
M  V30 3063 H 284.456 1.58007 0.148198 0
M  V30 3064 H 284.477 2.79309 2.58393 0
M  V30 3065 H 283.989 3.74295 1.0259 0
M  V30 3066 H 282.09 2.23791 2.97906 0
M  V30 3067 H 282.203 4.06803 2.53077 0
M  V30 3068 H 280.567 2.10998 1.4266 0
M  V30 3069 H 281.35 3.41206 0.378639 0
M  V30 3070 N 283.795 -0.628877 1.44509 0
M  V30 3071 C 285.072 -1.38733 1.37886 0
M  V30 3072 C 285.452 -2.11065 0.0387008 0
M  V30 3073 O 284.8 -2.06476 -0.97878 0
M  V30 3074 C 285.01 -2.35188 2.57852 0
M  V30 3075 C 286.358 -2.9845 3.02014 0
M  V30 3076 O 287.382 -2.45513 2.58073 0
M  V30 3077 O 286.241 -3.94487 3.78209 0
M  V30 3078 H 283.335 -0.621015 0.54614 0
M  V30 3079 H 285.881 -0.653744 1.56602 0
M  V30 3080 H 284.653 -1.80855 3.46998 0
M  V30 3081 H 284.276 -3.1596 2.4136 0
M  V30 3082 N 285.273 -1.31445 -0.869486 0
M  V30 3083 C 286.203 -1.21727 -1.99261 0
M  V30 3084 C 287.184 -0.104359 -1.6978 0
M  V30 3085 O 288.369 -0.289038 -1.92037 0
M  V30 3086 C 285.499 -0.924317 -3.34774 0
M  V30 3087 C 284.453 -1.99685 -3.78563 0
M  V30 3088 C 283.779 -1.55658 -5.11541 0
M  V30 3089 C 285.079 -3.41003 -3.95619 0
M  V30 3090 H 286.773 -2.1569 -2.07649 0
M  V30 3091 H 284.319 -1.03839 -0.997675 0
M  V30 3092 H 286.272 -0.842934 -4.12883 0
M  V30 3093 H 284.996 0.0509793 -3.2656 0
M  V30 3094 H 283.655 -2.06813 -3.02694 0
M  V30 3095 H 283.303 -0.569132 -4.9977 0
M  V30 3096 H 283.003 -2.27409 -5.41811 0
M  V30 3097 H 284.527 -1.48928 -5.92159 0
M  V30 3098 H 285.941 -3.36547 -4.64122 0
M  V30 3099 H 284.338 -4.10975 -4.37286 0
M  V30 3100 H 285.408 -3.81754 -2.98985 0
M  V30 3101 N 286.751 1.08385 -1.14413 0
M  V30 3102 C 287.997 1.81044 -0.913834 0
M  V30 3103 C 288.33 1.86004 0.558209 0
M  V30 3104 O 287.605 1.33606 1.4135 0
M  V30 3105 C 287.888 3.26648 -1.51569 0
M  V30 3106 C 287.741 3.29895 -3.0576 0
M  V30 3107 C 289.06 4.23629 -1.19273 0
M  V30 3108 H 286.179 0.65727 -0.333414 0
M  V30 3109 H 288.821 1.26896 -1.41412 0
M  V30 3110 H 286.971 3.72889 -1.09023 0
M  V30 3111 H 288.643 2.91977 -3.57137 0
M  V30 3112 H 286.886 2.69163 -3.40197 0
M  V30 3113 H 287.557 4.32516 -3.42977 0
M  V30 3114 H 290.033 3.85727 -1.56057 0
M  V30 3115 H 288.909 5.23822 -1.64017 0
M  V30 3116 H 289.17 4.41968 -0.108068 0
M  V30 3117 N 288.23 0.939286 1.26551 0
M  V30 3118 C 289.646 0.641304 1.46149 0
M  V30 3119 C 289.846 -0.805964 1.84679 0
M  V30 3120 O 288.902 -1.58278 1.96734 0
M  V30 3121 C 290.215 1.6011 2.54529 0
M  V30 3122 C 291.763 1.6106 2.68382 0
M  V30 3123 C 292.238 2.55765 3.79932 0
M  V30 3124 N 293.729 2.5404 3.87322 0
M  V30 3125 C 294.464 3.24004 4.73085 0
M  V30 3126 N 293.96 4.03388 5.63249 0
M  V30 3127 N 295.753 3.12965 4.66914 0
M  V30 3128 H 287.904 1.87478 0.998285 0
M  V30 3129 H 290.167 0.805559 0.499779 0
M  V30 3130 H 289.873 2.63412 2.33039 0
M  V30 3131 H 289.747 1.35171 3.52149 0
M  V30 3132 H 292.134 0.584835 2.89247 0
M  V30 3133 H 292.215 1.90053 1.71212 0
M  V30 3134 H 291.859 3.58458 3.5982 0
M  V30 3135 H 291.789 2.24063 4.76554 0
M  V30 3136 H 294.28 1.96396 3.22858 0
M  V30 3137 H 294.593 4.5373 6.25579 0
M  V30 3138 H 292.938 4.07489 5.63008 0
M  V30 3139 H 296.129 2.50432 3.95476 0
M  V30 3140 H 296.302 3.67759 5.33533 0
M  V30 3141 N 289.708 -1.40897 0.706093 0
M  V30 3142 C 290.957 -2.00284 0.238574 0
M  V30 3143 C 291.27 -1.56604 -1.17194 0
M  V30 3144 O 292.476 -2.08624 -1.73748 0
M  V30 3145 C 290.932 -3.57934 0.375623 0
M  V30 3146 C 290.54 -4.10591 1.79217 0
M  V30 3147 C 292.284 -4.24488 -0.0315857 0
M  V30 3148 C 290.191 -5.60712 1.88032 0
M  V30 3149 H 289.121 -0.749144 0.0854398 0
M  V30 3150 H 291.772 -1.61251 0.875813 0
M  V30 3151 H 290.154 -3.94622 -0.330042 0
M  V30 3152 H 291.328 -3.85301 2.52745 0
M  V30 3153 H 289.643 -3.56601 2.15 0
M  V30 3154 H 292.24 -5.34698 0.0136842 0
M  V30 3155 H 292.583 -4.02261 -1.072 0
M  V30 3156 H 293.116 -3.92873 0.624181 0
M  V30 3157 H 289.855 -5.87781 2.90161 0
M  V30 3158 H 289.375 -5.87896 1.18903 0
M  V30 3159 H 291.054 -6.25658 1.64805 0
M  V30 3160 N 291.186 -0.45159 -1.50991 0
M  V30 3161 C 292.434 0.109857 -2.01801 0
M  V30 3162 C 292.755 1.41958 -1.3369 0
M  V30 3163 O 292.025 1.9003 -0.475951 0
M  V30 3164 H 290.605 0.0435884 -0.745727 0
M  V30 3165 H 293.267 -0.597557 -1.85514 0
M  V30 3166 H 292.363 0.275489 -3.10882 0
M  V30 3167 N 292.664 1.56529 -0.183458 0
M  V30 3168 C 293.574 2.22144 0.754272 0
M  V30 3169 C 294.59 1.21684 1.24374 0
M  V30 3170 O 295.766 1.54385 1.29333 0
M  V30 3171 C 292.831 2.85884 1.96141 0
M  V30 3172 C 291.892 4.01579 1.51765 0
M  V30 3173 C 291.125 4.6227 2.66725 0
M  V30 3174 O 291.348 4.21865 3.83909 0
M  V30 3175 O 290.282 5.51936 2.40104 0
M  V30 3176 H 294.108 3.02861 0.225527 0
M  V30 3177 H 291.693 1.49331 0.0453032 0
M  V30 3178 H 293.575 3.26253 2.66715 0
M  V30 3179 H 292.25 2.08154 2.47899 0
M  V30 3180 H 291.157 3.65856 0.781049 0
M  V30 3181 H 292.49 4.80938 1.04686 0
M  V30 3182 N 294.142 -0.090211 1.57342 0
M  V30 3183 C 295.089 -1.10909 2.02405 0
M  V30 3184 C 296.059 -1.39523 0.901252 0
M  V30 3185 O 297.244 -1.50903 1.1676 0
M  V30 3186 C 294.384 -2.42277 2.45755 0
M  V30 3187 C 293.497 -2.20352 3.71576 0
M  V30 3188 C 292.632 -3.45154 4.03785 0
M  V30 3189 C 291.671 -3.18512 5.22701 0
M  V30 3190 N 290.808 -4.35593 5.50639 0
M  V30 3191 H 295.648 -0.71782 2.89225 0
M  V30 3192 H 293.185 -0.342901 1.43048 0
M  V30 3193 H 295.143 -3.18951 2.68935 0
M  V30 3194 H 293.773 -2.79242 1.61938 0
M  V30 3195 H 292.825 -1.34458 3.55844 0
M  V30 3196 H 294.137 -1.96661 4.58395 0
M  V30 3197 H 293.291 -4.30233 4.27767 0
M  V30 3198 H 292.03 -3.71904 3.15498 0
M  V30 3199 H 291.035 -2.31827 4.98534 0
M  V30 3200 H 292.26 -2.93103 6.12591 0
M  V30 3201 H 290.206 -4.6241 4.6531 0
M  V30 3202 H 290.123 -4.1511 6.31838 0
M  V30 3203 H 291.391 -5.21723 5.7916 0
M  V30 3204 N 295.62 -1.53406 -0.361157 0
M  V30 3205 C 296.897 -1.60411 -1.11927 0
M  V30 3206 C 297.277 -0.414385 -2.06993 0
M  V30 3207 O 296.625 0.594976 -2.20618 0
M  V30 3208 C 296.835 -2.95652 -1.85448 0
M  V30 3209 C 298.183 -3.50386 -2.39823 0
M  V30 3210 O 299.207 -2.97711 -1.95568 0
M  V30 3211 O 298.066 -4.42482 -3.20737 0
M  V30 3212 H 295.16 -0.64811 -0.513695 0
M  V30 3213 H 297.706 -1.65749 -0.364065 0
M  V30 3214 H 296.478 -3.73682 -1.16091 0
M  V30 3215 H 296.101 -2.93825 -2.67866 0
M  V30 3216 N 297.098 0.621204 -1.44841 0
M  V30 3217 C 298.347 1.37658 -1.47422 0
M  V30 3218 C 298.66 1.95264 -0.114629 0
M  V30 3219 O 299.866 2.71494 -0.0180199 0
M  V30 3220 C 298.322 2.49285 -2.59586 0
M  V30 3221 C 297.93 1.98149 -4.01797 0
M  V30 3222 C 299.674 3.26409 -2.71399 0
M  V30 3223 C 297.581 3.07178 -5.05367 0
M  V30 3224 H 296.511 0.517344 -0.548517 0
M  V30 3225 H 299.162 0.667257 -1.70938 0
M  V30 3226 H 297.544 3.22839 -2.29328 0
M  V30 3227 H 298.718 1.31395 -4.41669 0
M  V30 3228 H 297.033 1.33812 -3.94314 0
M  V30 3229 H 299.63 4.07706 -3.45948 0
M  V30 3230 H 299.973 3.76535 -1.77559 0
M  V30 3231 H 300.506 2.5995 -3.01116 0
M  V30 3232 H 297.245 2.61985 -6.00869 0
M  V30 3233 H 296.765 3.72542 -4.70077 0
M  V30 3234 H 298.444 3.71789 -5.29511 0
M  V30 3235 N 298.576 1.31904 0.862503 0
M  V30 3236 C 299.506 1.22782 1.98612 0
M  V30 3237 C 300.487 0.113362 1.69722 0
M  V30 3238 O 301.672 0.299218 1.91881 0
M  V30 3239 C 298.802 0.942058 3.34279 0
M  V30 3240 C 297.756 2.0169 3.77499 0
M  V30 3241 C 297.082 1.58369 5.10709 0
M  V30 3242 C 298.382 3.43096 3.93805 0
M  V30 3243 H 300.076 2.16788 2.06502 0
M  V30 3244 H 297.622 1.04366 0.992154 0
M  V30 3245 H 299.575 0.864818 4.1243 0
M  V30 3246 H 298.299 -0.0336603 3.26583 0
M  V30 3247 H 296.958 2.08416 3.01593 0
M  V30 3248 H 296.606 0.595628 4.99461 0
M  V30 3249 H 296.306 2.30279 5.40597 0
M  V30 3250 H 297.83 1.52067 5.91361 0
M  V30 3251 H 299.244 3.39003 4.62331 0
M  V30 3252 H 297.641 4.13288 4.35101 0
M  V30 3253 H 298.711 3.83334 2.96957 0
M  V30 3254 N 300.054 -1.07777 1.14986 0
M  V30 3255 C 301.303 -1.79669 0.916617 0
M  V30 3256 C 301.616 -1.87474 -0.557917 0
M  V30 3257 O 302.822 -2.55845 -0.908617 0
M  V30 3258 C 301.278 -3.22848 1.59051 0
M  V30 3259 C 300.886 -3.23257 3.10176 0
M  V30 3260 C 302.63 -3.99379 1.43864 0
M  V30 3261 C 300.537 -4.61063 3.70372 0
M  V30 3262 H 299.467 -0.673349 0.33929 0
M  V30 3263 H 302.118 -1.21003 1.37951 0
M  V30 3264 H 300.5 -3.8168 1.0553 0
M  V30 3265 H 301.674 -2.74095 3.70417 0
M  V30 3266 H 299.989 -2.60222 3.25074 0
M  V30 3267 H 302.586 -5.0122 1.86232 0
M  V30 3268 H 302.929 -4.14511 0.385564 0
M  V30 3269 H 303.462 -3.47032 1.94457 0
M  V30 3270 H 300.201 -4.51135 4.7556 0
M  V30 3271 H 299.721 -5.1048 3.14913 0
M  V30 3272 H 301.4 -5.30034 3.71043 0
M  V30 3273 N 301.532 -0.945985 -1.26051 0
M  V30 3274 C 302.762 -0.612136 -1.97323 0
M  V30 3275 C 303.17 0.818171 -1.70595 0
M  V30 3276 O 302.513 1.55777 -0.973613 0
M  V30 3277 C 302.575 -0.780347 -3.50929 0
M  V30 3278 C 302.239 -2.18619 -4.01317 0
M  V30 3279 C 303.236 -3.16209 -4.12683 0
M  V30 3280 C 300.921 -2.50805 -4.35203 0
M  V30 3281 C 302.915 -4.44085 -4.57238 0
M  V30 3282 C 300.602 -3.78912 -4.79446 0
M  V30 3283 C 301.6 -4.75365 -4.90425 0
M  V30 3284 O 301.288 -6.01191 -5.3369 0
M  V30 3285 H 301.02 -0.229134 -0.635982 0
M  V30 3286 H 303.574 -1.27036 -1.61404 0
M  V30 3287 H 301.804 -0.0649864 -3.86645 0
M  V30 3288 H 303.493 -0.448842 -4.03411 0
M  V30 3289 H 304.259 -2.92668 -3.86744 0
M  V30 3290 H 300.138 -1.76463 -4.2589 0
M  V30 3291 H 303.682 -5.19373 -4.65723 0
M  V30 3292 H 299.579 -4.02265 -5.0483 0
M  V30 3293 H 300.347 -6.04442 -5.51899 0
M  V30 3294 N 303.011 1.40521 -0.713556 0
M  V30 3295 C 304.236 2.05759 -0.26035 0
M  V30 3296 C 304.661 1.53403 1.08854 0
M  V30 3297 O 304.019 0.668535 1.68524 0
M  V30 3298 C 304.067 3.59745 -0.248122 0
M  V30 3299 O 303.171 4.05123 0.77131 0
M  V30 3300 H 302.512 0.652564 -0.122703 0
M  V30 3301 H 305.042 1.79958 -0.973467 0
M  V30 3302 H 305.052 4.07911 -0.0851129 0
M  V30 3303 H 303.727 3.97218 -1.2325 0
M  V30 3304 H 302.304 3.68422 0.57619 0
M  V30 3305 N 304.489 0.459591 1.5075 0
M  V30 3306 C 305.738 -0.100971 2.01447 0
M  V30 3307 C 306.051 -1.41816 1.34713 0
M  V30 3308 O 307.257 -2.06299 1.76502 0
M  V30 3309 C 305.713 -0.23047 3.59161 0
M  V30 3310 C 305.321 1.0776 4.34847 0
M  V30 3311 C 307.065 -0.743608 4.17936 0
M  V30 3312 C 304.972 0.91253 5.84317 0
M  V30 3313 H 303.902 -0.0415102 0.752856 0
M  V30 3314 H 306.553 0.592742 1.73663 0
M  V30 3315 H 304.935 -0.987703 3.83485 0
M  V30 3316 H 306.109 1.8449 4.22256 0
M  V30 3317 H 304.424 1.52097 3.87628 0
M  V30 3318 H 307.021 -0.883959 5.27343 0
M  V30 3319 H 307.364 -1.73196 3.78562 0
M  V30 3320 H 307.897 -0.04408 3.97776 0
M  V30 3321 H 304.636 1.87391 6.28144 0
M  V30 3322 H 304.156 0.185422 5.99513 0
M  V30 3323 H 305.835 0.574547 6.44444 0
M  V30 3324 N 305.967 -1.56429 0.191757 0
M  V30 3325 C 307.195 -2.01867 -0.453586 0
M  V30 3326 C 307.61 -1.07191 -1.5542 0
M  V30 3327 O 306.967 -0.0762108 -1.82341 0
M  V30 3328 C 307.018 -3.47017 -1.013 0
M  V30 3329 O 306.739 -4.38078 0.0437005 0
M  V30 3330 C 308.24 -4.07956 -1.73456 0
M  V30 3331 H 305.46 -0.661211 -0.114199 0
M  V30 3332 H 308.004 -2.02295 0.299483 0
M  V30 3333 H 306.159 -3.47298 -1.71647 0
M  V30 3334 H 306.573 -5.23178 -0.372212 0
M  V30 3335 H 308.047 -5.1138 -2.07833 0
M  V30 3336 H 308.524 -3.51222 -2.63704 0
M  V30 3337 H 309.13 -4.11437 -1.07702 0
M  V30 3338 N 307.445 0.0818655 -1.57387 0
M  V30 3339 C 308.67 0.799946 -1.91352 0
M  V30 3340 C 309.095 1.70833 -0.787258 0
M  V30 3341 O 308.453 1.79419 0.26048 0
M  V30 3342 C 308.501 1.57812 -3.24234 0
M  V30 3343 O 307.605 2.68806 -3.12757 0
M  V30 3344 H 306.946 0.21891 -0.626877 0
M  V30 3345 H 309.476 0.0531256 -2.04531 0
M  V30 3346 H 309.486 1.95952 -3.57864 0
M  V30 3347 H 308.161 0.911548 -4.05788 0
M  V30 3348 H 306.738 2.33597 -2.90666 0
M  V30 3349 N 308.923 1.53595 0.353017 0
M  V30 3350 C 310.151 1.74311 1.1146 0
M  V30 3351 C 310.566 0.477854 1.82653 0
M  V30 3352 O 309.923 -0.549977 1.74016 0
M  V30 3353 C 309.974 2.91694 2.13534 0
M  V30 3354 O 309.695 4.13325 1.45238 0
M  V30 3355 C 311.196 3.24384 3.02142 0
M  V30 3356 H 308.416 0.582669 0.332773 0
M  V30 3357 H 310.96 2.00386 0.408107 0
M  V30 3358 H 309.115 2.67977 2.79763 0
M  V30 3359 H 309.529 4.79148 2.13349 0
M  V30 3360 H 311.003 4.09893 3.69718 0
M  V30 3361 H 311.48 2.40282 3.67643 0
M  V30 3362 H 312.086 3.50073 2.41514 0
M  V30 3363 N 310.401 -0.613514 1.45168 0
M  V30 3364 C 311.349 -1.74572 1.53712 0
M  V30 3365 C 312.343 -1.64426 0.407505 0
M  V30 3366 O 313.549 -1.70291 0.583176 0
M  V30 3367 H 309.924 -0.576641 0.48269 0
M  V30 3368 H 311.895 -1.64492 2.48968 0
M  V30 3369 C 310.644 -3.12943 1.51532 0
M  V30 3370 H 309.967 -3.21407 2.37776 0
M  V30 3371 H 311.407 -3.9201 1.61569 0
M  V30 3372 C 309.866 -3.36053 0.238798 0
M  V30 3373 O 310.396 -3.95837 -0.6838 0
M  V30 3374 N 308.602 -2.9028 0.136359 0
M  V30 3375 H 308.149 -2.41811 0.887999 0
M  V30 3376 H 308.107 -3.06116 -0.716944 0
M  V30 3377 N 311.879 -1.3236 -0.855495 0
M  V30 3378 C 313.104 -1.2601 -1.64731 0
M  V30 3379 C 313.529 0.169068 -1.87339 0
M  V30 3380 O 312.887 1.12016 -1.42556 0
M  V30 3381 C 312.935 -2.02417 -2.98429 0
M  V30 3382 O 312.039 -1.3714 -3.8893 0
M  V30 3383 H 311.38 -0.434325 -0.502253 0
M  V30 3384 H 313.91 -1.74661 -1.06558 0
M  V30 3385 H 313.92 -2.12559 -3.48257 0
M  V30 3386 H 312.595 -3.06343 -2.81295 0
M  V30 3387 H 311.172 -1.3554 -3.47395 0
M  V30 3388 N 313.357 1.07166 -1.15556 0
M  V30 3389 C 314.603 1.80065 -0.932984 0
M  V30 3390 C 314.936 1.86586 0.53845 0
M  V30 3391 O 314.211 1.35098 1.39924 0
M  V30 3392 C 314.494 3.25022 -1.55025 0
M  V30 3393 C 314.347 3.26634 -3.09242 0
M  V30 3394 C 315.666 4.22341 -1.2376 0
M  V30 3395 H 312.785 0.653697 -0.340366 0
M  V30 3396 H 315.427 1.25389 -1.4275 0
M  V30 3397 H 313.577 3.71712 -1.12972 0
M  V30 3398 H 315.249 2.88173 -3.60214 0
M  V30 3399 H 313.492 2.65539 -3.43033 0
M  V30 3400 H 314.163 4.28854 -3.47546 0
M  V30 3401 H 316.639 3.8405 -1.60139 0
M  V30 3402 H 315.515 5.22053 -1.69564 0
M  V30 3403 H 315.776 4.41828 -0.154938 0
M  V30 3404 N 314.835 0.952656 1.25548 0
M  V30 3405 C 315.765 0.489287 2.28316 0
M  V30 3406 C 316.746 -0.463359 1.63667 0
M  V30 3407 O 317.931 -0.36274 1.90782 0
M  V30 3408 C 315.061 -0.235603 3.465 0
M  V30 3409 C 314.015 0.631593 4.23314 0
M  V30 3410 C 313.341 -0.223923 5.34231 0
M  V30 3411 C 314.641 1.90871 4.86174 0
M  V30 3412 H 316.335 1.34822 2.67326 0
M  V30 3413 H 313.881 0.649728 1.28509 0
M  V30 3414 H 315.834 -0.570882 4.17515 0
M  V30 3415 H 314.558 -1.12877 3.06474 0
M  V30 3416 H 313.217 0.949929 3.54079 0
M  V30 3417 H 312.865 -1.11678 4.90446 0
M  V30 3418 H 312.565 0.35299 5.86539 0
M  V30 3419 H 314.089 -0.554214 6.0808 0
M  V30 3420 H 315.503 1.63997 5.49343 0
M  V30 3421 H 313.9 2.43112 5.4865 0
M  V30 3422 H 314.97 2.61304 4.08471 0
M  V30 3423 N 316.313 -1.40141 0.720998 0
M  V30 3424 C 317.56 -2.00787 0.262842 0
M  V30 3425 C 317.888 -1.5718 -1.14563 0
M  V30 3426 O 317.143 -0.785391 -1.79249 0
M  V30 3427 C 317.442 -3.56165 0.296892 0
M  V30 3428 C 317.108 -4.19373 1.65641 0
M  V30 3429 C 315.77 -4.36352 2.02855 0
M  V30 3430 C 318.122 -4.54578 2.54968 0
M  V30 3431 C 315.45 -4.8582 3.28931 0
M  V30 3432 C 317.802 -5.05447 3.80402 0
M  V30 3433 C 316.466 -5.20635 4.17726 0
M  V30 3434 H 315.736 -0.734731 0.0961807 0
M  V30 3435 H 318.383 -1.67673 0.925093 0
M  V30 3436 H 316.688 -3.8922 -0.448932 0
M  V30 3437 H 318.385 -4.00929 -0.0755208 0
M  V30 3438 H 314.975 -4.06549 1.35704 0
M  V30 3439 H 319.159 -4.41091 2.27491 0
M  V30 3440 H 314.415 -4.95764 3.57811 0
M  V30 3441 H 318.589 -5.31663 4.49786 0
M  V30 3442 H 316.216 -5.58728 5.15487 0
M  V30 3443 N 317.792 -0.46758 -1.50504 0
M  V30 3444 C 319.017 0.0886943 -2.0721 0
M  V30 3445 C 319.442 1.33057 -1.32956 0
M  V30 3446 O 318.8 1.77354 -0.376197 0
M  V30 3447 C 318.848 0.359202 -3.58806 0
M  V30 3448 O 317.952 1.44034 -3.8643 0
M  V30 3449 H 317.293 -0.0114349 -0.663902 0
M  V30 3450 H 319.823 -0.657613 -1.93744 0
M  V30 3451 H 319.833 0.600742 -4.03553 0
M  V30 3452 H 318.508 -0.548311 -4.1227 0
M  V30 3453 H 317.085 1.18638 -3.53524 0
M  V30 3454 N 319.27 1.56325 -0.20005 0
M  V30 3455 C 320.203 2.15234 0.758267 0
M  V30 3456 C 321.181 1.09046 1.20614 0
M  V30 3457 O 322.365 1.37186 1.29276 0
M  V30 3458 C 319.492 2.71524 2.02466 0
M  V30 3459 C 318.538 3.90345 1.71852 0
M  V30 3460 S 319.371 5.28513 0.862249 0
M  V30 3461 C 320.527 5.88227 2.13868 0
M  V30 3462 H 320.76 2.96183 0.2575 0
M  V30 3463 H 318.293 1.54393 0.0150099 0
M  V30 3464 H 320.251 3.04598 2.75191 0
M  V30 3465 H 318.912 1.90607 2.49655 0
M  V30 3466 H 318.105 4.28158 2.65888 0
M  V30 3467 H 317.707 3.58306 1.07205 0
M  V30 3468 H 319.999 6.02891 3.09076 0
M  V30 3469 H 320.942 6.84714 1.80479 0
M  V30 3470 H 321.35 5.16874 2.2694 0
M  V30 3471 N 320.748 -0.0735177 1.57428 0
M  V30 3472 C 321.996 -0.771472 1.86796 0
M  V30 3473 C 322.317 -1.78201 0.791804 0
M  V30 3474 O 321.587 -1.95074 -0.179718 0
M  V30 3475 H 320.167 -0.28791 0.689287 0
M  V30 3476 H 322.829 -0.0500161 1.94836 0
M  V30 3477 H 321.925 -1.28874 2.8425 0
M  V30 3478 N 322.226 -1.5378 -0.344866 0
M  V30 3479 C 323.136 -1.84667 -1.4469 0
M  V30 3480 C 324.152 -0.736704 -1.57635 0
M  V30 3481 O 325.328 -1.02888 -1.73136 0
M  V30 3482 C 322.393 -2.04869 -2.79696 0
M  V30 3483 C 321.454 -3.28731 -2.76106 0
M  V30 3484 C 320.687 -3.4796 -4.04673 0
M  V30 3485 O 320.91 -2.71052 -5.01883 0
M  V30 3486 O 319.844 -4.41383 -4.09224 0
M  V30 3487 H 323.67 -2.78334 -1.21506 0
M  V30 3488 H 321.255 -1.39418 -0.536921 0
M  V30 3489 H 323.137 -2.19609 -3.59652 0
M  V30 3490 H 321.812 -1.14391 -3.02814 0
M  V30 3491 H 320.719 -3.19396 -1.94774 0
M  V30 3492 H 322.052 -4.19198 -2.57941 0
M  V30 3493 N 323.704 0.605807 -1.45491 0
M  V30 3494 C 324.634 1.72709 -1.57143 0
M  V30 3495 C 325.615 1.6476 -0.422884 0
M  V30 3496 O 326.8 1.83132 -0.646247 0
M  V30 3497 C 323.93 3.11316 -1.53948 0
M  V30 3498 C 322.884 3.34077 -2.67537 0
M  V30 3499 C 322.21 4.72975 -2.49397 0
M  V30 3500 C 323.51 3.24158 -4.09535 0
M  V30 3501 H 325.204 1.63214 -2.51001 0
M  V30 3502 H 322.75 0.78379 -1.208 0
M  V30 3503 H 324.703 3.89557 -1.60696 0
M  V30 3504 H 323.427 3.21655 -0.566205 0
M  V30 3505 H 322.086 2.58227 -2.6022 0
M  V30 3506 H 321.734 4.8005 -1.50205 0
M  V30 3507 H 321.434 4.8916 -3.25571 0
M  V30 3508 H 322.958 5.53414 -2.58002 0
M  V30 3509 H 324.372 3.92271 -4.18086 0
M  V30 3510 H 322.769 3.51872 -4.86113 0
M  V30 3511 H 323.839 2.2157 -4.31317 0
M  V30 3512 N 325.182 1.32811 0.848464 0
M  V30 3513 C 326.129 1.22265 1.95755 0
M  V30 3514 C 327.099 0.103413 1.65778 0
M  V30 3515 O 328.284 0.280033 1.88734 0
M  V30 3516 C 325.424 0.958014 3.31536 0
M  V30 3517 C 324.537 2.16262 3.73971 0
M  V30 3518 C 323.672 1.83295 4.98575 0
M  V30 3519 C 322.711 3.00041 5.33518 0
M  V30 3520 N 321.848 2.67125 6.49299 0
M  V30 3521 H 326.688 2.17128 2.04107 0
M  V30 3522 H 324.225 1.07982 0.998913 0
M  V30 3523 H 326.183 0.785052 4.09747 0
M  V30 3524 H 324.813 0.046159 3.22767 0
M  V30 3525 H 323.865 2.44565 2.91362 0
M  V30 3526 H 325.177 3.03572 3.95785 0
M  V30 3527 H 324.331 1.62586 5.84509 0
M  V30 3528 H 323.07 0.932078 4.7871 0
M  V30 3529 H 322.075 3.21374 4.46093 0
M  V30 3530 H 323.3 3.90869 5.55336 0
M  V30 3531 H 321.246 1.79586 6.3094 0
M  V30 3532 H 321.163 3.47965 6.71161 0
M  V30 3533 H 322.431 2.49861 7.3837 0
M  V30 3534 N 326.66 -1.06551 1.16123 0
M  V30 3535 C 327.57 -2.17484 0.879662 0
M  V30 3536 C 328.586 -1.73377 -0.147104 0
M  V30 3537 O 329.762 -2.01379 0.0289128 0
M  V30 3538 C 326.827 -3.44591 0.381829 0
M  V30 3539 C 325.888 -4.0322 1.4735 0
M  V30 3540 C 325.121 -5.24261 0.999324 0
M  V30 3541 O 325.344 -5.70198 -0.151957 0
M  V30 3542 O 324.278 -5.74775 1.78653 0
M  V30 3543 H 328.104 -2.44075 1.80724 0
M  V30 3544 H 325.689 -1.16042 0.940992 0
M  V30 3545 H 327.571 -4.21254 0.111053 0
M  V30 3546 H 326.246 -3.19532 -0.51777 0
M  V30 3547 H 325.153 -3.2806 1.79798 0
M  V30 3548 H 326.486 -4.32568 2.34831 0
M  V30 3549 N 328.138 -0.959301 -1.25041 0
M  V30 3550 C 329.386 -0.615393 -1.92503 0
M  V30 3551 C 329.707 0.850969 -1.75452 0
M  V30 3552 O 328.977 1.60658 -1.12098 0
M  V30 3553 H 327.557 -0.224613 -0.712431 0
M  V30 3554 H 330.219 -1.21855 -1.5211 0
M  V30 3555 H 329.315 -0.848738 -3.00338 0
M  V30 3556 N 329.616 1.39756 -0.72842 0
M  V30 3557 C 330.563 2.30647 -0.0841519 0
M  V30 3558 C 331.533 1.48869 0.7367 0
M  V30 3559 O 332.718 1.77574 0.698015 0
M  V30 3560 C 329.858 3.35165 0.822091 0
M  V30 3561 C 328.971 4.31999 -0.0106663 0
M  V30 3562 C 328.106 5.23585 0.896241 0
M  V30 3563 C 327.145 6.12072 0.0583381 0
M  V30 3564 N 326.282 6.96035 0.920818 0
M  V30 3565 H 331.122 2.85173 -0.864891 0
M  V30 3566 H 328.659 1.40422 -0.438179 0
M  V30 3567 H 330.617 3.94345 1.36189 0
M  V30 3568 H 329.247 2.8211 1.56888 0
M  V30 3569 H 328.299 3.74492 -0.66781 0
M  V30 3570 H 329.611 4.9443 -0.658825 0
M  V30 3571 H 328.765 5.87759 1.50412 0
M  V30 3572 H 327.504 4.61459 1.57819 0
M  V30 3573 H 326.509 5.46916 -0.562389 0
M  V30 3574 H 327.734 6.76261 -0.6203 0
M  V30 3575 H 325.68 6.36485 1.58818 0
M  V30 3576 H 325.597 7.55284 0.32899 0
M  V30 3577 H 326.865 7.64646 1.51447 0
M  V30 3578 N 331.094 0.475555 1.50254 0
M  V30 3579 C 332.024 -0.30611 2.31485 0
M  V30 3580 C 333.005 -0.986228 1.38591 0
M  V30 3581 O 334.19 -0.982541 1.67511 0
M  V30 3582 C 331.32 -1.38588 3.1845 0
M  V30 3583 C 330.274 -0.827115 4.19932 0
M  V30 3584 C 329.6 -2.00551 4.95665 0
M  V30 3585 C 330.9 0.16463 5.2204 0
M  V30 3586 H 332.594 0.371866 2.97082 0
M  V30 3587 H 330.14 0.180282 1.42867 0
M  V30 3588 H 332.093 -1.94023 3.74076 0
M  V30 3589 H 330.817 -2.09269 2.50747 0
M  V30 3590 H 329.476 -0.294702 3.65414 0
M  V30 3591 H 329.124 -2.6994 4.2443 0
M  V30 3592 H 328.824 -1.63784 5.64313 0
M  V30 3593 H 330.348 -2.56468 5.54127 0
M  V30 3594 H 331.762 -0.300699 5.72511 0
M  V30 3595 H 330.159 0.446813 5.98434 0
M  V30 3596 H 331.229 1.08905 4.72512 0
M  V30 3597 N 332.573 -1.56217 0.208337 0
M  V30 3598 C 333.521 -2.21053 -0.723769 0
M  V30 3599 C 334.515 -1.18578 -1.20978 0
M  V30 3600 O 335.721 -1.36691 -1.17114 0
M  V30 3601 H 332.096 -0.708595 -0.251788 0
M  V30 3602 H 334.067 -2.98006 -0.153365 0
M  V30 3603 C 332.816 -2.89417 -1.927 0
M  V30 3604 H 332.139 -3.68019 -1.56212 0
M  V30 3605 H 333.579 -3.38201 -2.55727 0
M  V30 3606 C 332.038 -1.91166 -2.77411 0
M  V30 3607 O 332.568 -1.42026 -3.75754 0
M  V30 3608 N 330.774 -1.59105 -2.43175 0
M  V30 3609 H 330.321 -1.99259 -1.63259 0
M  V30 3610 H 330.279 -0.936255 -3.00136 0
M  V30 3611 N 334.051 0.0651679 -1.57465 0
M  V30 3612 C 335.297 0.764193 -1.87851 0
M  V30 3613 C 335.63 1.76889 -0.801495 0
M  V30 3614 O 334.905 1.93594 0.187528 0
M  V30 3615 C 335.188 1.46625 -3.28897 0
M  V30 3616 C 335.041 0.477515 -4.47258 0
M  V30 3617 C 336.36 2.4095 -3.68281 0
M  V30 3618 H 333.479 0.276351 -0.683227 0
M  V30 3619 H 336.121 0.0272868 -1.8998 0
M  V30 3620 H 334.271 2.09438 -3.27212 0
M  V30 3621 H 335.943 -0.145922 -4.61069 0
M  V30 3622 H 334.186 -0.206576 -4.33308 0
M  V30 3623 H 334.857 1.0065 -5.42746 0
M  V30 3624 H 337.333 1.88209 -3.71102 0
M  V30 3625 H 336.209 2.87072 -4.67847 0
M  V30 3626 H 336.47 3.26049 -2.98571 0
M  V30 3627 N 335.529 1.53961 0.336706 0
M  V30 3628 C 336.439 1.85432 1.43708 0
M  V30 3629 C 337.455 0.745053 1.57242 0
M  V30 3630 O 338.631 1.03804 1.72588 0
M  V30 3631 C 335.696 2.06349 2.78605 0
M  V30 3632 C 334.757 3.30191 2.74358 0
M  V30 3633 C 333.99 3.50101 4.02822 0
M  V30 3634 O 334.213 2.7371 5.00439 0
M  V30 3635 O 333.147 4.43547 4.06878 0
M  V30 3636 H 336.973 2.78975 1.20028 0
M  V30 3637 H 334.558 1.39701 0.52952 0
M  V30 3638 H 336.44 2.21513 3.58483 0
M  V30 3639 H 335.115 1.15995 3.02203 0
M  V30 3640 H 334.022 3.20425 1.93078 0
M  V30 3641 H 335.355 4.2056 2.55715 0
M  V30 3642 N 337.007 -0.598083 1.45811 0
M  V30 3643 C 337.954 -1.7082 1.55207 0
M  V30 3644 C 338.924 -1.61278 0.39732 0
M  V30 3645 O 340.109 -1.80717 0.612038 0
M  V30 3646 C 337.249 -3.09144 1.53376 0
M  V30 3647 C 336.362 -3.29423 2.79472 0
M  V30 3648 C 335.497 -4.57907 2.69248 0
M  V30 3649 C 334.536 -4.71476 3.90354 0
M  V30 3650 N 333.673 -5.9127 3.78608 0
M  V30 3651 H 338.513 -1.62125 2.50039 0
M  V30 3652 H 336.05 -0.790389 1.24062 0
M  V30 3653 H 338.008 -3.89186 1.50301 0
M  V30 3654 H 336.638 -3.16773 0.620876 0
M  V30 3655 H 335.69 -2.43091 2.92594 0
M  V30 3656 H 337.002 -3.3532 3.69272 0
M  V30 3657 H 336.156 -5.46157 2.64192 0
M  V30 3658 H 334.895 -4.54423 1.77063 0
M  V30 3659 H 333.9 -3.81648 3.95759 0
M  V30 3660 H 335.125 -4.76751 4.83617 0
M  V30 3661 H 333.071 -5.88813 2.89199 0
M  V30 3662 H 332.988 -5.98369 4.6205 0
M  V30 3663 H 334.256 -6.81992 3.77501 0
M  V30 3664 N 338.485 -1.33259 -0.841409 0
M  V30 3665 C 339.901 -1.12538 -1.13169 0
M  V30 3666 C 340.101 0.0854037 -2.01319 0
M  V30 3667 O 339.157 0.766417 -2.40587 0
M  V30 3668 C 340.47 -2.41156 -1.79623 0
M  V30 3669 C 342.018 -2.47038 -1.922 0
M  V30 3670 C 342.493 -3.7561 -2.6207 0
M  V30 3671 N 343.984 -3.76667 -2.69585 0
M  V30 3672 C 344.719 -4.72861 -3.2433 0
M  V30 3673 N 344.215 -5.79428 -3.79783 0
M  V30 3674 N 346.008 -4.6034 -3.22558 0
M  V30 3675 H 338.159 -2.10868 -0.254676 0
M  V30 3676 H 340.422 -0.931615 -0.175493 0
M  V30 3677 H 340.128 -3.29747 -1.22311 0
M  V30 3678 H 340.002 -2.53114 -2.79666 0
M  V30 3679 H 342.389 -1.58898 -2.48667 0
M  V30 3680 H 342.47 -2.39022 -0.911148 0
M  V30 3681 H 342.114 -4.64131 -2.06263 0
M  V30 3682 H 342.044 -3.80902 -3.63622 0
M  V30 3683 H 344.535 -2.99648 -2.30259 0
M  V30 3684 H 344.848 -6.48867 -4.19752 0
M  V30 3685 H 343.193 -5.83166 -3.78078 0
M  V30 3686 H 346.384 -3.76244 -2.78492 0
M  V30 3687 H 346.557 -5.35478 -3.64921 0
M  V30 3688 N 339.963 1.05934 -1.16686 0
M  V30 3689 C 341.211 1.78447 -0.948744 0
M  V30 3690 C 341.532 1.87813 0.524523 0
M  V30 3691 O 340.802 1.38945 1.38098 0
M  V30 3692 H 339.382 0.660971 -0.348033 0
M  V30 3693 H 342.044 1.27947 -1.47022 0
M  V30 3694 H 341.14 2.80394 -1.37061 0
M  V30 3695 N 341.441 0.965919 1.2453 0
M  V30 3696 C 342.371 0.513476 2.27784 0
M  V30 3697 C 343.352 -0.445974 1.6415 0
M  V30 3698 O 344.537 -0.342485 1.91156 0
M  V30 3699 C 341.667 -0.198839 3.4673 0
M  V30 3700 C 340.621 0.676456 4.2262 0
M  V30 3701 C 339.947 -0.167248 5.34438 0
M  V30 3702 C 341.247 1.96017 4.84123 0
M  V30 3703 H 342.941 1.3765 2.65881 0
M  V30 3704 H 340.487 0.663321 1.27813 0
M  V30 3705 H 342.44 -0.526567 4.18097 0
M  V30 3706 H 341.164 -1.0962 3.07654 0
M  V30 3707 H 339.823 0.98743 3.53052 0
M  V30 3708 H 339.471 -1.0647 4.91603 0
M  V30 3709 H 339.171 0.415181 5.86131 0
M  V30 3710 H 340.695 -0.489688 6.08633 0
M  V30 3711 H 342.109 1.69814 5.47573 0
M  V30 3712 H 340.506 2.48918 5.4604 0
M  V30 3713 H 341.576 2.65622 4.05676 0
M  V30 3714 N 342.919 -1.39368 0.735821 0
M  V30 3715 C 343.849 -2.33234 0.111506 0
M  V30 3716 C 344.83 -1.53954 -0.723334 0
M  V30 3717 O 346.015 -1.82344 -0.668147 0
M  V30 3718 C 343.145 -3.38057 -0.795917 0
M  V30 3719 C 342.099 -4.2795 -0.065172 0
M  V30 3720 C 341.425 -5.23479 -1.08967 0
M  V30 3721 C 342.725 -5.10741 1.09273 0
M  V30 3722 H 344.419 -2.85692 0.895571 0
M  V30 3723 H 341.965 -1.37364 0.432109 0
M  V30 3724 H 343.918 -4.02675 -1.24221 0
M  V30 3725 H 342.642 -2.8404 -1.61211 0
M  V30 3726 H 341.301 -3.64813 0.361511 0
M  V30 3727 H 340.949 -4.65758 -1.89944 0
M  V30 3728 H 340.649 -5.84472 -0.605489 0
M  V30 3729 H 342.173 -5.90974 -1.53565 0
M  V30 3730 H 343.587 -5.68699 0.724841 0
M  V30 3731 H 341.984 -5.8088 1.50659 0
M  V30 3732 H 343.054 -4.45525 1.91404 0
M  V30 3733 N 344.397 -0.483516 -1.5 0
M  V30 3734 C 345.674 0.129337 -1.95172 0
M  V30 3735 C 346.054 1.55802 -1.4244 0
M  V30 3736 O 345.402 2.19625 -0.630649 0
M  V30 3737 C 345.612 0.0599251 -3.48949 0
M  V30 3738 C 346.96 0.242617 -4.23906 0
M  V30 3739 O 347.984 0.135933 -3.55941 0
M  V30 3740 O 346.843 0.459454 -5.44565 0
M  V30 3741 H 343.937 0.104887 -0.820322 0
M  V30 3742 H 346.483 -0.544807 -1.60717 0
M  V30 3743 H 345.255 -0.937079 -3.79914 0
M  V30 3744 H 344.878 0.774984 -3.89974 0
M  V30 3745 N 345.875 1.56104 -0.216619 0
M  V30 3746 C 346.825 2.16703 0.708798 0
M  V30 3747 C 347.809 1.11392 1.16106 0
M  V30 3748 O 349.001 1.37395 1.11587 0
M  V30 3749 C 346.13 2.84666 1.91886 0
M  V30 3750 C 345.216 3.97195 1.48651 0
M  V30 3751 N 345.607 4.99959 0.766434 0
M  V30 3752 C 343.905 4.09193 1.77418 0
M  V30 3753 C 344.606 5.79126 0.546659 0
M  V30 3754 N 343.582 5.32315 1.10188 0
M  V30 3755 H 347.384 2.93516 0.150162 0
M  V30 3756 H 344.898 1.6239 -0.0176768 0
M  V30 3757 H 346.895 3.26486 2.59253 0
M  V30 3758 H 345.555 2.09347 2.48202 0
M  V30 3759 H 346.566 5.16197 0.419634 0
M  V30 3760 H 343.243 3.45021 2.35088 0
M  V30 3761 H 344.633 6.71895 -0.026103 0
M  V30 3762 N 347.353 -0.0568162 1.57498 0
M  V30 3763 C 348.601 -0.751617 1.87604 0
M  V30 3764 C 348.922 -1.77351 0.81066 0
M  V30 3765 O 348.192 -1.95254 -0.159018 0
M  V30 3766 H 346.772 -0.280583 0.692302 0
M  V30 3767 H 349.434 -0.0293483 1.94878 0
M  V30 3768 H 348.53 -1.25852 2.856 0
M  V30 3769 N 348.832 -1.54138 -0.328536 0
M  V30 3770 C 350.06 -1.76062 -1.08673 0
M  V30 3771 C 350.475 -0.506852 -1.81869 0
M  V30 3772 O 349.832 0.522223 -1.74869 0
M  V30 3773 C 349.883 -2.95054 -2.08866 0
M  V30 3774 O 349.604 -4.15583 -1.38644 0
M  V30 3775 C 351.105 -3.2915 -2.96943 0
M  V30 3776 H 348.325 -0.587889 -0.323461 0
M  V30 3777 H 350.869 -2.0101 -0.376175 0
M  V30 3778 H 349.024 -2.72394 -2.75464 0
M  V30 3779 H 349.438 -4.82481 -2.05699 0
M  V30 3780 H 350.912 -4.15723 -3.63151 0
M  V30 3781 H 351.389 -2.461 -3.63774 0
M  V30 3782 H 351.995 -3.53871 -2.35914 0
M  V30 3783 N 350.31 0.590341 -1.46126 0
M  V30 3784 C 351.587 1.35029 -1.41515 0
M  V30 3785 C 351.967 2.10888 -0.0946472 0
M  V30 3786 O 351.315 2.08998 0.923693 0
M  V30 3787 C 351.525 2.28269 -2.63997 0
M  V30 3788 C 352.873 2.90338 -3.09821 0
M  V30 3789 O 353.897 2.38585 -2.64492 0
M  V30 3790 O 352.756 3.84321 -3.88535 0
M  V30 3791 H 349.85 0.606317 -0.562413 0
M  V30 3792 H 352.396 0.611994 -1.58281 0
M  V30 3793 H 351.168 1.71591 -3.51671 0
M  V30 3794 H 350.791 3.0945 -2.49652 0
M  V30 3795 N 351.788 1.33704 0.83433 0
M  V30 3796 C 353.035 1.25417 1.58987 0
M  V30 3797 C 353.363 -0.178869 1.93676 0
M  V30 3798 O 352.618 -1.13723 1.59265 0
M  V30 3799 C 352.917 2.07926 2.90692 0
M  V30 3800 C 352.583 3.57066 2.75345 0
M  V30 3801 C 351.245 3.97724 2.70867 0
M  V30 3802 C 353.597 4.51817 2.59828 0
M  V30 3803 C 350.925 5.31344 2.48778 0
M  V30 3804 C 353.277 5.85604 2.39272 0
M  V30 3805 C 351.941 6.25439 2.33199 0
M  V30 3806 H 351.211 0.458934 0.581774 0
M  V30 3807 H 353.858 1.65335 0.966261 0
M  V30 3808 H 352.163 1.608 3.57282 0
M  V30 3809 H 353.86 1.98868 3.48213 0
M  V30 3810 H 350.45 3.24785 2.79665 0
M  V30 3811 H 354.634 4.21311 2.62319 0
M  V30 3812 H 349.89 5.61241 2.42526 0
M  V30 3813 H 354.064 6.58623 2.2625 0
M  V30 3814 H 351.691 7.28914 2.15843 0
M  V30 3815 N 353.266 -1.05314 1.17247 0
M  V30 3816 C 354.496 -1.81707 0.983166 0
M  V30 3817 C 354.904 -1.83222 -0.471822 0
M  V30 3818 O 354.247 -1.25721 -1.3394 0
M  V30 3819 C 354.309 -3.29134 1.44606 0
M  V30 3820 C 353.973 -3.51304 2.92292 0
M  V30 3821 C 354.97 -3.4353 3.90235 0
M  V30 3822 C 352.655 -3.78306 3.30439 0
M  V30 3823 C 354.649 -3.62442 5.24323 0
M  V30 3824 C 352.336 -3.96866 4.64694 0
M  V30 3825 C 353.334 -3.88933 5.61445 0
M  V30 3826 O 353.022 -4.06976 6.93272 0
M  V30 3827 H 352.754 -0.579476 0.348114 0
M  V30 3828 H 355.308 -1.33705 1.55924 0
M  V30 3829 H 353.538 -3.78046 0.813537 0
M  V30 3830 H 355.227 -3.87049 1.22262 0
M  V30 3831 H 355.993 -3.22648 3.62109 0
M  V30 3832 H 351.872 -3.83585 2.55702 0
M  V30 3833 H 355.416 -3.56165 5.99827 0
M  V30 3834 H 351.313 -4.1724 4.92525 0
M  V30 3835 H 352.081 -4.24209 6.99992 0
M  V30 3836 N 354.744 -0.972509 -1.24016 0
M  V30 3837 C 355.707 -0.511403 -2.23422 0
M  V30 3838 C 356.707 0.394679 -1.55881 0
M  V30 3839 O 357.897 0.189469 -1.73167 0
M  V30 3840 C 355.029 0.258769 -3.39916 0
M  V30 3841 H 356.222 -1.39024 -2.6573 0
M  V30 3842 H 353.775 -0.757585 -1.36713 0
M  V30 3843 H 354.51 1.1545 -3.03054 0
M  V30 3844 H 354.295 -0.391522 -3.9014 0
M  V30 3845 H 355.785 0.570244 -4.13688 0
M  V30 3846 N 356.222 1.38976 -0.743202 0
M  V30 3847 C 357.185 2.28901 -0.117014 0
M  V30 3848 C 358.185 1.46698 0.658503 0
M  V30 3849 O 359.375 1.67274 0.486305 0
M  V30 3850 C 356.507 3.30309 0.84315 0
M  V30 3851 H 357.7 2.8578 -0.909373 0
M  V30 3852 H 355.253 1.47761 -0.509547 0
M  V30 3853 H 355.988 2.785 1.66157 0
M  V30 3854 H 355.773 3.91029 0.289594 0
M  V30 3855 H 357.263 3.97577 1.2776 0
M  V30 3856 N 357.7 0.491464 1.49741 0
M  V30 3857 C 358.632 -0.328609 2.26832 0
M  V30 3858 C 359.645 -0.939113 1.32983 0
M  V30 3859 O 360.834 -0.824067 1.58339 0
M  V30 3860 C 357.934 -1.47675 3.05033 0
M  V30 3861 C 357.107 -0.975305 4.26388 0
M  V30 3862 C 356.166 -1.99991 4.86714 0
M  V30 3863 O 355.192 -1.57229 5.47054 0
M  V30 3864 N 356.394 -3.32962 4.75517 0
M  V30 3865 H 359.159 0.332377 2.97851 0
M  V30 3866 H 356.72 0.323441 1.58636 0
M  V30 3867 H 358.712 -2.15954 3.42266 0
M  V30 3868 H 357.282 -2.04206 2.36683 0
M  V30 3869 H 356.502 -0.117723 3.94024 0
M  V30 3870 H 357.79 -0.618531 5.05026 0
M  V30 3871 H 357.188 -3.70399 4.27576 0
M  V30 3872 H 355.745 -3.96982 5.16961 0
M  V30 3873 N 359.178 -1.55987 0.224894 0
M  V30 3874 C 360.406 -2.02784 -0.410665 0
M  V30 3875 C 360.821 -1.10464 -1.53112 0
M  V30 3876 O 360.178 -0.114871 -1.82138 0
M  V30 3877 C 360.229 -3.49087 -0.939165 0
M  V30 3878 O 359.95 -4.37887 0.136614 0
M  V30 3879 C 361.451 -4.11543 -1.64763 0
M  V30 3880 H 358.671 -0.663484 -0.100148 0
M  V30 3881 H 361.215 -2.01614 0.342326 0
M  V30 3882 H 359.37 -3.50861 -1.64242 0
M  V30 3883 H 359.784 -5.23849 -0.261155 0
M  V30 3884 H 361.258 -5.15673 -1.96939 0
M  V30 3885 H 361.735 -3.56736 -2.56195 0
M  V30 3886 H 362.341 -4.13629 -0.989503 0
M  V30 3887 N 360.656 0.0484629 -1.57525 0
M  V30 3888 C 361.903 0.743125 -1.88372 0
M  V30 3889 C 362.231 1.76383 -0.819715 0
M  V30 3890 O 361.486 1.94855 0.181659 0
M  V30 3891 C 361.785 1.46632 -3.25935 0
M  V30 3892 C 361.451 0.583427 -4.4711 0
M  V30 3893 C 360.113 0.340191 -4.79996 0
M  V30 3894 C 362.465 -0.0273345 -5.21193 0
M  V30 3895 C 359.793 -0.522903 -5.84365 0
M  V30 3896 C 362.145 -0.878017 -6.26477 0
M  V30 3897 C 360.809 -1.1309 -6.5785 0
M  V30 3898 H 360.079 0.271929 -0.689301 0
M  V30 3899 H 362.726 0.00336166 -1.915 0
M  V30 3900 H 361.031 2.2789 -3.18706 0
M  V30 3901 H 362.728 2.00902 -3.47044 0
M  V30 3902 H 359.318 0.783151 -4.21384 0
M  V30 3903 H 363.502 0.147654 -4.9608 0
M  V30 3904 H 358.758 -0.727335 -6.07058 0
M  V30 3905 H 362.932 -1.35789 -6.83033 0
M  V30 3906 H 360.559 -1.80144 -7.38547 0
M  V30 3907 N 362.134 1.5431 0.320358 0
M  V30 3908 C 363.381 1.72668 1.05792 0
M  V30 3909 C 363.709 0.502084 1.87908 0
M  V30 3910 O 362.964 -0.516149 1.88771 0
M  V30 3911 C 363.263 2.95639 2.00828 0
M  V30 3912 C 362.929 4.30265 1.34843 0
M  V30 3913 C 361.591 4.66865 1.16578 0
M  V30 3914 C 363.943 5.13801 0.875095 0
M  V30 3915 C 361.271 5.84597 0.496336 0
M  V30 3916 C 363.623 6.32219 0.219463 0
M  V30 3917 C 362.287 6.67495 0.0246915 0
M  V30 3918 H 361.557 0.631837 0.387121 0
M  V30 3919 H 364.204 1.88552 0.334735 0
M  V30 3920 H 362.509 2.74456 2.79609 0
M  V30 3921 H 364.206 3.07038 2.57932 0
M  V30 3922 H 360.796 4.01472 1.50061 0
M  V30 3923 H 364.98 4.86039 1.00398 0
M  V30 3924 H 360.236 6.10486 0.334264 0
M  V30 3925 H 364.41 6.96227 -0.155291 0
M  V30 3926 H 362.037 7.5858 -0.496065 0
M  V30 3927 N 363.613 -0.582584 1.46437 0
M  V30 3928 C 364.861 -1.33814 1.51453 0
M  V30 3929 C 365.182 -1.94277 0.167792 0
M  V30 3930 O 364.452 -1.78566 -0.805677 0
M  V30 3931 H 363.032 -0.496838 0.557818 0
M  V30 3932 H 365.694 -0.682281 1.82568 0
M  V30 3933 H 364.79 -2.14479 2.26728 0
M  V30 3934 N 365.091 -1.34144 -0.827227 0
M  V30 3935 C 366.319 -1.29325 -1.61501 0
M  V30 3936 C 366.734 0.13354 -1.88327 0
M  V30 3937 O 366.091 1.0793 -1.47164 0
M  V30 3938 C 366.142 -2.07746 -2.95844 0
M  V30 3939 O 365.863 -3.4486 -2.70191 0
M  V30 3940 C 367.364 -2.10273 -3.90256 0
M  V30 3941 H 364.584 -0.445069 -0.50215 0
M  V30 3942 H 367.128 -1.76693 -1.02955 0
M  V30 3943 H 365.283 -1.6403 -3.5096 0
M  V30 3944 H 365.697 -3.85345 -3.55822 0
M  V30 3945 H 367.171 -2.69575 -4.81698 0
M  V30 3946 H 367.648 -1.096 -4.25305 0
M  V30 3947 H 368.254 -2.54059 -3.41078 0
M  V30 3948 N 366.569 1.04691 -1.17803 0
M  V30 3949 C 367.846 1.7472 -0.879328 0
M  V30 3950 C 368.226 2.01812 0.619271 0
M  V30 3951 O 367.574 1.65824 1.57209 0
M  V30 3952 C 367.784 3.03686 -1.71976 0
M  V30 3953 C 369.132 3.77542 -1.94286 0
M  V30 3954 O 370.156 3.13569 -1.68976 0
M  V30 3955 O 369.015 4.92506 -2.36855 0
M  V30 3956 H 366.109 0.760011 -0.326056 0
M  V30 3957 H 368.655 1.10813 -1.28525 0
M  V30 3958 H 367.427 2.79754 -2.73594 0
M  V30 3959 H 367.05 3.75332 -1.31194 0
M  V30 3960 N 368.047 0.979072 1.23499 0
M  V30 3961 C 369.463 0.687475 1.44034 0
M  V30 3962 C 369.663 -0.746801 1.8715 0
M  V30 3963 O 368.719 -1.51939 2.0167 0
M  V30 3964 C 370.032 1.68127 2.49307 0
M  V30 3965 C 371.58 1.69516 2.63122 0
M  V30 3966 C 372.055 2.67723 3.71603 0
M  V30 3967 N 373.546 2.66233 3.79044 0
M  V30 3968 C 374.281 3.38891 4.62537 0
M  V30 3969 N 373.777 4.21103 5.50131 0
M  V30 3970 N 375.57 3.27661 4.56721 0
M  V30 3971 H 367.721 1.90559 0.938135 0
M  V30 3972 H 369.984 0.821051 0.473897 0
M  V30 3973 H 369.69 2.70693 2.2454 0
M  V30 3974 H 369.564 1.46306 3.4767 0
M  V30 3975 H 371.951 0.676561 2.8724 0
M  V30 3976 H 372.032 1.95404 1.65079 0
M  V30 3977 H 371.676 3.69724 3.48233 0
M  V30 3978 H 371.606 2.39111 4.69184 0
M  V30 3979 H 374.097 2.06568 3.16446 0
M  V30 3980 H 374.41 4.73403 6.10827 0
M  V30 3981 H 372.755 4.25195 5.49759 0
M  V30 3982 H 375.946 2.62887 3.87309 0
M  V30 3983 H 376.119 3.84547 5.21562 0
M  V30 3984 N 369.525 -1.3858 0.750561 0
M  V30 3985 C 370.771 -2.00481 0.305825 0
M  V30 3986 C 371.104 -1.5944 -1.10872 0
M  V30 3987 O 370.379 -0.83052 -1.75877 0
M  V30 3988 C 370.662 -3.5758 0.425287 0
M  V30 3989 C 370.515 -4.08594 1.88072 0
M  V30 3990 C 371.834 -4.39719 -0.183122 0
M  V30 3991 H 368.953 -0.728348 0.112598 0
M  V30 3992 H 371.595 -1.64566 0.949638 0
M  V30 3993 H 369.745 -3.88306 -0.122828 0
M  V30 3994 H 371.417 -3.88523 2.48691 0
M  V30 3995 H 369.66 -3.61574 2.39681 0
M  V30 3996 H 370.331 -5.177 1.91548 0
M  V30 3997 H 372.807 -4.15128 0.284303 0
M  V30 3998 H 371.683 -5.48856 -0.0692757 0
M  V30 3999 H 371.944 -4.23434 -1.27106 0
M  V30 4000 N 371.003 -0.499398 -1.49478 0
M  V30 4001 C 372.249 0.0457576 -2.02748 0
M  V30 4002 C 372.582 1.36793 -1.37846 0
M  V30 4003 O 371.857 1.87596 -0.513601 0
M  V30 4004 C 372.14 0.199986 -3.59544 0
M  V30 4005 C 371.993 -1.1452 -4.34977 0
M  V30 4006 C 373.312 0.94137 -4.29914 0
M  V30 4007 H 370.431 0.0151552 -0.736844 0
M  V30 4008 H 373.073 -0.650498 -1.78518 0
M  V30 4009 H 371.223 0.793007 -3.8032 0
M  V30 4010 H 372.895 -1.77697 -4.25701 0
M  V30 4011 H 371.138 -1.73488 -3.97598 0
M  V30 4012 H 371.809 -0.990607 -5.43039 0
M  V30 4013 H 374.285 0.43844 -4.13784 0
M  V30 4014 H 373.161 1.01812 -5.39375 0
M  V30 4015 H 373.422 1.98471 -3.95046 0
M  V30 4016 N 372.481 1.55866 -0.233164 0
M  V30 4017 C 373.727 1.98897 0.395959 0
M  V30 4018 C 374.06 1.12091 1.58585 0
M  V30 4019 O 373.335 0.181182 1.93654 0
M  V30 4020 C 373.618 3.50658 0.819224 0
M  V30 4021 C 373.471 4.48233 -0.375109 0
M  V30 4022 C 374.79 4.07135 1.67121 0
M  V30 4023 H 371.909 0.723102 0.142451 0
M  V30 4024 H 374.551 1.87082 -0.331725 0
M  V30 4025 H 372.701 3.60857 1.43925 0
M  V30 4026 H 374.373 4.50031 -1.01341 0
M  V30 4027 H 372.616 4.21624 -1.02058 0
M  V30 4028 H 373.287 5.51988 -0.0358328 0
M  V30 4029 H 375.763 3.99952 1.14795 0
M  V30 4030 H 374.639 5.13615 1.93625 0
M  V30 4031 H 374.9 3.54736 2.63846 0
M  V30 4032 N 373.959 -0.0401083 1.57549 0
M  V30 4033 C 375.208 -0.732108 1.87944 0
M  V30 4034 C 375.521 -1.77107 0.830206 0
M  V30 4035 O 376.727 -2.51488 1.02302 0
M  V30 4036 C 375.183 -1.35315 3.33494 0
M  V30 4037 C 374.791 -0.351105 4.46622 0
M  V30 4038 C 376.535 -2.02566 3.73051 0
M  V30 4039 C 374.442 -0.979859 5.83226 0
M  V30 4040 H 373.372 -0.277188 0.701201 0
M  V30 4041 H 376.023 0.0138501 1.83495 0
M  V30 4042 H 374.405 -2.14844 3.32653 0
M  V30 4043 H 375.579 0.416674 4.58912 0
M  V30 4044 H 373.894 0.218708 4.15825 0
M  V30 4045 H 376.491 -2.50441 4.72423 0
M  V30 4046 H 376.834 -2.83904 3.04474 0
M  V30 4047 H 377.367 -1.29827 3.76018 0
M  V30 4048 H 374.106 -0.206135 6.55176 0
M  V30 4049 H 373.626 -1.71774 5.74677 0
M  V30 4050 H 375.305 -1.49046 6.29599 0
M  V30 4051 N 375.437 -1.54477 -0.31217 0
M  V30 4052 C 376.685 -1.72884 -1.04668 0
M  V30 4053 C 377.006 -0.511477 -1.88173 0
M  V30 4054 O 376.276 0.474407 -1.90069 0
M  V30 4055 H 374.856 -0.637461 -0.389425 0
M  V30 4056 H 377.518 -1.91807 -0.345852 0
M  V30 4057 H 376.614 -2.61334 -1.70619 0
M  V30 4058 N 376.915 0.57481 -1.46744 0
M  V30 4059 C 378.161 1.33251 -1.53674 0
M  V30 4060 C 378.516 1.91468 -0.189125 0
M  V30 4061 O 377.809 1.73954 0.803151 0
M  V30 4062 C 378.003 2.476 -2.57738 0
M  V30 4063 C 377.832 2.00586 -4.02487 0
M  V30 4064 C 376.602 1.85237 -4.70123 0
M  V30 4065 C 378.8 1.56078 -4.90045 0
M  V30 4066 N 376.782 1.32377 -5.99458 0
M  V30 4067 C 378.153 1.14863 -6.09267 0
M  V30 4068 C 380.208 1.43968 -4.76632 0
M  V30 4069 C 378.911 0.627435 -7.16558 0
M  V30 4070 C 380.937 0.932512 -5.84002 0
M  V30 4071 C 380.299 0.53019 -7.02402 0
M  V30 4072 H 376.398 0.480284 -0.617131 0
M  V30 4073 H 378.982 0.653592 -1.83402 0
M  V30 4074 H 377.153 3.13045 -2.29907 0
M  V30 4075 H 378.885 3.14567 -2.54616 0
M  V30 4076 H 375.64 2.07423 -4.25761 0
M  V30 4077 H 376.064 1.08085 -6.68316 0
M  V30 4078 H 380.706 1.73689 -3.85476 0
M  V30 4079 H 378.424 0.317821 -8.07475 0
M  V30 4080 H 382.01 0.842611 -5.75666 0
M  V30 4081 H 380.89 0.14381 -7.84068 0
M  V30 4082 N 378.394 1.34581 0.820102 0
M  V30 4083 C 379.324 1.29038 1.94606 0
M  V30 4084 C 380.305 0.1673 1.69275 0
M  V30 4085 O 381.49 0.360112 1.90832 0
M  V30 4086 C 378.62 1.04793 3.31113 0
M  V30 4087 C 377.574 2.13597 3.70891 0
M  V30 4088 C 376.9 1.74537 5.05412 0
M  V30 4089 C 378.2 3.55451 3.8269 0
M  V30 4090 H 379.894 2.23248 1.99501 0
M  V30 4091 H 377.44 1.0747 0.958449 0
M  V30 4092 H 379.393 0.995592 4.0947 0
M  V30 4093 H 378.117 0.0702565 3.26524 0
M  V30 4094 H 376.776 2.17905 2.9481 0
M  V30 4095 H 376.424 0.754226 4.97313 0
M  V30 4096 H 376.124 2.47361 5.32997 0
M  V30 4097 H 377.648 1.70803 5.86224 0
M  V30 4098 H 379.062 3.5354 4.51312 0
M  V30 4099 H 377.459 4.26922 4.21732 0
M  V30 4100 H 378.529 3.92587 2.84611 0
M  V30 4101 N 379.872 -1.04064 1.18357 0
M  V30 4102 C 380.804 -2.12114 0.868358 0
M  V30 4103 C 381.817 -1.62247 -0.134045 0
M  V30 4104 O 383.006 -1.78253 0.0937933 0
M  V30 4105 C 380.106 -3.37773 0.276132 0
M  V30 4106 C 379.279 -4.16874 1.3242 0
M  V30 4107 C 378.338 -5.20861 0.747662 0
M  V30 4108 O 377.364 -5.51141 1.42239 0
M  V30 4109 N 378.566 -5.78715 -0.454823 0
M  V30 4110 H 381.331 -2.39748 1.79836 0
M  V30 4111 H 378.892 -1.20258 1.08396 0
M  V30 4112 H 380.884 -4.04513 -0.123133 0
M  V30 4113 H 379.454 -3.07581 -0.557895 0
M  V30 4114 H 378.674 -3.45456 1.89878 0
M  V30 4115 H 379.962 -4.66516 2.03078 0
M  V30 4116 H 379.36 -5.56415 -1.02073 0
M  V30 4117 H 377.917 -6.46921 -0.79601 0
M  V30 4118 N 381.35 -0.985608 -1.22978 0
M  V30 4119 C 382.575 -0.675254 -1.961 0
M  V30 4120 C 383 0.752154 -1.72407 0
M  V30 4121 O 382.358 1.5131 -0.998751 0
M  V30 4122 C 382.406 -0.977899 -3.47087 0
M  V30 4123 O 381.51 -0.072685 -4.12336 0
M  V30 4124 H 380.851 -0.253443 -0.613728 0
M  V30 4125 H 383.381 -1.32061 -1.56272 0
M  V30 4126 H 383.391 -0.916739 -3.97567 0
M  V30 4127 H 382.066 -2.01807 -3.63657 0
M  V30 4128 H 380.643 -0.188703 -3.72422 0
M  V30 4129 N 382.828 1.3818 -0.7579 0
M  V30 4130 C 384.074 2.0078 -0.325423 0
M  V30 4131 C 384.429 1.59085 1.08211 0
M  V30 4132 O 383.722 0.820394 1.73148 0
M  V30 4133 C 383.916 3.55252 -0.391218 0
M  V30 4134 C 383.745 4.11947 -1.8036 0
M  V30 4135 C 382.515 4.43519 -2.42113 0
M  V30 4136 C 384.713 4.33908 -2.76095 0
M  V30 4137 N 382.695 4.85847 -3.75267 0
M  V30 4138 C 384.066 4.78692 -3.94023 0
M  V30 4139 C 386.121 4.16015 -2.73561 0
M  V30 4140 C 384.824 5.07459 -5.09782 0
M  V30 4141 C 386.85 4.45909 -3.88483 0
M  V30 4142 C 386.212 4.90921 -5.0515 0
M  V30 4143 H 382.311 0.764215 -0.165831 0
M  V30 4144 H 384.895 1.67724 -0.988776 0
M  V30 4145 H 383.066 3.87646 0.241886 0
M  V30 4146 H 384.798 4.04653 0.061989 0
M  V30 4147 H 381.553 4.32113 -1.93842 0
M  V30 4148 H 381.977 5.11339 -4.4369 0
M  V30 4149 H 386.619 3.80399 -1.84544 0
M  V30 4150 H 384.337 5.4197 -5.99412 0
M  V30 4151 H 387.923 4.33666 -3.87847 0
M  V30 4152 H 386.803 5.1361 -5.92599 0
M  V30 4153 N 384.306 0.507319 1.49211 0
M  V30 4154 C 385.236 -0.256939 2.32082 0
M  V30 4155 C 386.217 -0.956609 1.40652 0
M  V30 4156 O 387.402 -0.946788 1.69557 0
M  V30 4157 C 384.532 -1.31802 3.21318 0
M  V30 4158 C 383.486 -0.737855 4.21592 0
M  V30 4159 C 382.812 -1.89992 4.99807 0
M  V30 4160 C 384.112 0.275325 5.21574 0
M  V30 4161 H 385.806 0.434798 2.96226 0
M  V30 4162 H 383.352 0.210546 1.42452 0
M  V30 4163 H 385.305 -1.86045 3.78107 0
M  V30 4164 H 384.029 -2.03903 2.5513 0
M  V30 4165 H 382.688 -0.217126 3.65956 0
M  V30 4166 H 382.336 -2.60877 4.30061 0
M  V30 4167 H 382.036 -1.51777 5.6766 0
M  V30 4168 H 383.56 -2.44657 5.59442 0
M  V30 4169 H 384.974 -0.179193 5.7302 0
M  V30 4170 H 383.371 0.573649 5.97352 0
M  V30 4171 H 384.441 1.18903 4.70096 0
M  V30 4172 N 385.784 -1.5574 0.241426 0
M  V30 4173 C 387.2 -1.59196 -0.113548 0
M  V30 4174 C 387.4 -1.25852 -1.57364 0
M  V30 4175 O 386.456 -1.00322 -2.31715 0
M  V30 4176 C 387.769 -2.99814 0.230695 0
M  V30 4177 C 389.317 -3.12513 0.174547 0
M  V30 4178 C 389.792 -4.55342 0.492744 0
M  V30 4179 N 391.283 -4.61076 0.443043 0
M  V30 4180 C 392.018 -5.6956 0.662484 0
M  V30 4181 N 391.514 -6.86328 0.944761 0
M  V30 4182 N 393.307 -5.58957 0.593564 0
M  V30 4183 H 385.458 -1.75685 1.19368 0
M  V30 4184 H 387.721 -0.81756 0.479896 0
M  V30 4185 H 387.427 -3.28932 1.24485 0
M  V30 4186 H 387.301 -3.74568 -0.444833 0
M  V30 4187 H 389.688 -2.83179 -0.830277 0
M  V30 4188 H 389.769 -2.40045 0.883845 0
M  V30 4189 H 389.413 -4.85396 1.4951 0
M  V30 4190 H 389.343 -5.26062 -0.23797 0
M  V30 4191 H 391.834 -3.77179 0.233374 0
M  V30 4192 H 392.147 -7.64935 1.09977 0
M  V30 4193 H 390.492 -6.88025 0.982175 0
M  V30 4194 H 393.683 -4.66611 0.373123 0
M  V30 4195 H 393.856 -6.43433 0.767981 0
M  V30 4196 N 387.262 0.0317525 -1.57568 0
M  V30 4197 C 388.49 0.734949 -1.93407 0
M  V30 4198 C 388.905 1.69036 -0.84096 0
M  V30 4199 O 388.262 1.81582 0.182836 0
M  V30 4200 C 388.313 1.49432 -3.29169 0
M  V30 4201 O 388.034 0.577261 -4.3428 0
M  V30 4202 C 389.535 2.29492 -3.79273 0
M  V30 4203 H 386.755 0.206706 -0.638368 0
M  V30 4204 H 389.299 -0.00992046 -2.04498 0
M  V30 4205 H 387.454 2.1911 -3.19483 0
M  V30 4206 H 387.868 1.10952 -5.1263 0
M  V30 4207 H 389.342 2.78172 -4.76785 0
M  V30 4208 H 389.819 3.10794 -3.10328 0
M  V30 4209 H 390.425 1.64894 -3.92033 0
M  V30 4210 N 388.74 1.54641 0.303973 0
M  V30 4211 C 389.988 1.73437 1.0375 0
M  V30 4212 C 390.309 0.521449 1.87899 0
M  V30 4213 O 389.579 -0.46432 1.90318 0
M  V30 4214 H 388.159 0.639518 0.386039 0
M  V30 4215 H 390.821 1.91988 0.335675 0
M  V30 4216 H 389.917 2.62235 1.69231 0
M  V30 4217 N 390.218 -0.567019 1.47046 0
M  V30 4218 C 391.148 -1.68482 1.61667 0
M  V30 4219 C 392.129 -1.6358 0.466418 0
M  V30 4220 O 393.314 -1.81354 0.694574 0
M  V30 4221 C 390.444 -3.07124 1.62148 0
M  V30 4222 C 389.398 -3.26867 2.76301 0
M  V30 4223 C 388.724 -4.66196 2.61849 0
M  V30 4224 C 390.024 -3.13186 4.17986 0
M  V30 4225 H 391.718 -1.56502 2.5524 0
M  V30 4226 H 389.264 -0.751486 1.22836 0
M  V30 4227 H 391.217 -3.8516 1.70968 0
M  V30 4228 H 389.941 -3.2004 0.651287 0
M  V30 4229 H 388.6 -2.51237 2.66975 0
M  V30 4230 H 388.248 -4.75898 1.62879 0
M  V30 4231 H 387.948 -4.80356 3.38425 0
M  V30 4232 H 389.472 -5.46379 2.72584 0
M  V30 4233 H 390.886 -3.81049 4.2834 0
M  V30 4234 H 389.283 -3.3886 4.95272 0
M  V30 4235 H 390.353 -2.10057 4.3704 0
M  V30 4236 N 391.696 -1.35014 -0.812953 0
M  V30 4237 C 392.926 -1.30841 -1.59888 0
M  V30 4238 C 393.334 0.117576 -1.88834 0
M  V30 4239 O 392.677 1.07807 -1.48739 0
M  V30 4240 C 392.739 -2.0412 -2.95931 0
M  V30 4241 C 392.403 -3.53336 -2.89832 0
M  V30 4242 C 393.4 -4.48052 -2.63714 0
M  V30 4243 C 391.085 -3.95894 -3.0915 0
M  V30 4244 C 393.079 -5.833 -2.56982 0
M  V30 4245 C 390.766 -5.31239 -3.0204 0
M  V30 4246 C 391.764 -6.24754 -2.75991 0
M  V30 4247 O 391.452 -7.57617 -2.68833 0
M  V30 4248 H 391.184 -0.451215 -0.50337 0
M  V30 4249 H 393.738 -1.78354 -1.01877 0
M  V30 4250 H 391.968 -1.51235 -3.559 0
M  V30 4251 H 393.657 -1.93107 -3.57022 0
M  V30 4252 H 394.423 -4.16492 -2.48515 0
M  V30 4253 H 390.302 -3.23495 -3.28438 0
M  V30 4254 H 393.846 -6.56263 -2.36569 0
M  V30 4255 H 389.743 -5.62415 -3.16796 0
M  V30 4256 H 390.511 -7.67469 -2.84487 0
M  V30 4257 N 393.175 1.03435 -1.18907 0
M  V30 4258 C 394.586 1.58195 -0.991523 0
M  V30 4259 C 394.937 1.90801 0.457081 0
M  V30 4260 O 394.062 1.70272 1.33553 0
M  V30 4261 C 394.657 2.87432 -1.79355 0
M  V30 4262 C 393.216 3.38785 -1.64017 0
M  V30 4263 C 392.363 2.12292 -1.78402 0
M  V30 4264 H 395.314 0.860299 -1.33359 0
M  V30 4265 H 395.335 3.58096 -1.28638 0
M  V30 4266 H 394.847 2.63669 -2.84781 0
M  V30 4267 H 392.948 3.67547 -0.611536 0
M  V30 4268 H 393.061 4.12186 -2.44212 0
M  V30 4269 H 391.425 2.23901 -1.2141 0
M  V30 4270 H 392.208 1.90977 -2.85277 0
M  V30 4271 N 394.653 0.992116 1.22453 0
M  V30 4272 C 395.881 0.685944 1.95198 0
M  V30 4273 C 396.296 -0.749233 1.73297 0
M  V30 4274 O 395.653 -1.50549 1.03156 0
M  V30 4275 C 395.704 0.981395 3.47924 0
M  V30 4276 O 395.425 2.36018 3.6909 0
M  V30 4277 C 396.926 0.692815 4.37853 0
M  V30 4278 H 394.146 0.253821 0.621141 0
M  V30 4279 H 396.69 1.32668 1.55626 0
M  V30 4280 H 394.845 0.386481 3.85467 0
M  V30 4281 H 395.259 2.45884 4.63294 0
M  V30 4282 H 396.733 0.949818 5.43767 0
M  V30 4283 H 397.21 -0.373181 4.37612 0
M  V30 4284 H 397.816 1.26874 4.05935 0
M  V30 4285 N 396.131 -1.37776 0.765217 0
M  V30 4286 C 397.078 -2.30342 0.145274 0
M  V30 4287 C 398.048 -1.5077 -0.696971 0
M  V30 4288 O 399.233 -1.79362 -0.650689 0
M  V30 4289 C 396.373 -3.37227 -0.732939 0
M  V30 4290 C 395.486 -4.31819 0.125199 0
M  V30 4291 C 394.621 -5.25777 -0.757107 0
M  V30 4292 C 393.66 -6.12012 0.103963 0
M  V30 4293 N 392.797 -6.98232 -0.735953 0
M  V30 4294 H 397.637 -2.8278 0.940195 0
M  V30 4295 H 395.174 -1.39211 0.475255 0
M  V30 4296 H 397.132 -3.97818 -1.25686 0
M  V30 4297 H 395.762 -2.86171 -1.49353 0
M  V30 4298 H 394.814 -3.7259 0.766865 0
M  V30 4299 H 396.126 -4.92509 0.789683 0
M  V30 4300 H 395.28 -5.91541 -1.34776 0
M  V30 4301 H 394.019 -4.65481 -1.45529 0
M  V30 4302 H 393.024 -5.45233 0.707197 0
M  V30 4303 H 394.249 -6.74379 0.799381 0
M  V30 4304 H 392.195 -6.40472 -1.41887 0
M  V30 4305 H 392.112 -7.55891 -0.128624 0
M  V30 4306 H 393.38 -7.68393 -1.31121 0
M  V30 4307 N 397.609 -0.515225 -1.4894 0
M  V30 4308 C 399.025 -0.172099 -1.58669 0
M  V30 4309 C 399.225 1.32405 -1.51892 0
M  V30 4310 O 398.281 2.10116 -1.40027 0
M  V30 4311 C 399.594 -0.761533 -2.90897 0
M  V30 4312 C 401.142 -0.728926 -3.04394 0
M  V30 4313 C 401.617 -1.29667 -4.39261 0
M  V30 4314 N 403.108 -1.25799 -4.4579 0
M  V30 4315 C 403.843 -1.66733 -5.48623 0
M  V30 4316 N 403.339 -2.15327 -6.58488 0
M  V30 4317 N 405.132 -1.58061 -5.39419 0
M  V30 4318 H 397.283 -1.48778 -1.51588 0
M  V30 4319 H 399.546 -0.617968 -0.718901 0
M  V30 4320 H 399.252 -1.81136 -3.01468 0
M  V30 4321 H 399.126 -0.230106 -3.76497 0
M  V30 4322 H 401.513 0.312098 -2.93445 0
M  V30 4323 H 401.594 -1.29766 -2.20442 0
M  V30 4324 H 401.238 -2.33655 -4.50963 0
M  V30 4325 H 401.168 -0.703752 -5.21876 0
M  V30 4326 H 403.659 -0.902102 -3.66975 0
M  V30 4327 H 403.972 -2.44594 -7.33071 0
M  V30 4328 H 402.317 -2.19311 -6.59491 0
M  V30 4329 H 405.508 -1.19906 -4.52482 0
M  V30 4330 H 405.681 -1.90284 -6.19432 0
M  V30 4331 N 399.087 1.5561 -0.249682 0
M  V30 4332 C 399.997 2.25143 0.659375 0
M  V30 4333 C 401.013 1.2685 1.19101 0
M  V30 4334 O 402.189 1.59732 1.22669 0
M  V30 4335 C 399.254 2.93945 1.8384 0
M  V30 4336 C 398.315 4.07655 1.34596 0
M  V30 4337 C 397.548 4.73167 2.46878 0
M  V30 4338 O 397.771 4.37768 3.65671 0
M  V30 4339 O 396.705 5.61623 2.16478 0
M  V30 4340 H 400.531 3.03545 0.0968698 0
M  V30 4341 H 398.116 1.49389 -0.018074 0
M  V30 4342 H 399.998 3.37271 2.52638 0
M  V30 4343 H 398.673 2.18481 2.38847 0
M  V30 4344 H 397.58 3.68839 0.625174 0
M  V30 4345 H 398.913 4.84946 0.841941 0
M  V30 4346 N 400.565 -0.0233959 1.57583 0
M  V30 4347 C 401.813 -0.711654 1.89156 0
M  V30 4348 C 402.134 -1.75591 0.848096 0
M  V30 4349 O 401.404 -1.95547 -0.117566 0
M  V30 4350 H 399.984 -0.265835 0.698098 0
M  V30 4351 H 402.646 0.0119948 1.94896 0
M  V30 4352 H 401.742 -1.19766 2.88206 0
M  V30 4353 N 402.043 -1.548 -0.295768 0
M  V30 4354 C 403.289 -1.75517 -1.02789 0
M  V30 4355 C 403.644 -0.537266 -1.84746 0
M  V30 4356 O 402.937 0.470299 -1.85738 0
M  V30 4357 C 403.131 -2.98797 -1.961 0
M  V30 4358 C 402.96 -4.3246 -1.23321 0
M  V30 4359 C 401.73 -4.96131 -0.95822 0
M  V30 4360 C 403.928 -5.10365 -0.635024 0
M  V30 4361 N 401.91 -6.1357 -0.201257 0
M  V30 4362 C 403.281 -6.19999 -0.0110937 0
M  V30 4363 C 405.336 -4.94957 -0.540594 0
M  V30 4364 C 404.039 -7.15904 0.698136 0
M  V30 4365 C 406.065 -5.91197 0.154992 0
M  V30 4366 C 405.427 -7.00203 0.767752 0
M  V30 4367 H 401.526 -0.694786 -0.358882 0
M  V30 4368 H 404.11 -1.92281 -0.305943 0
M  V30 4369 H 402.281 -2.83448 -2.6554 0
M  V30 4370 H 404.013 -3.08017 -2.62502 0
M  V30 4371 H 400.768 -4.56595 -1.25771 0
M  V30 4372 H 401.192 -6.76802 0.16389 0
M  V30 4373 H 405.834 -4.10803 -1.00003 0
M  V30 4374 H 403.552 -7.99595 1.16933 0
M  V30 4375 H 407.138 -5.81353 0.228069 0
M  V30 4376 H 406.018 -7.73393 1.29743 0
M  V30 4377 N 403.521 0.559213 -1.47345 0
M  V30 4378 C 404.469 1.68747 -1.60085 0
M  V30 4379 C 405.463 1.628 -0.46825 0
M  V30 4380 O 406.669 1.68009 -0.645977 0
M  V30 4381 H 403.044 0.558329 -0.503759 0
M  V30 4382 H 405.015 1.55138 -2.54902 0
M  V30 4383 C 403.764 3.07103 -1.63042 0
M  V30 4384 H 403.087 3.12361 -2.49541 0
M  V30 4385 H 404.527 3.85743 -1.76006 0
M  V30 4386 C 402.986 3.34935 -0.363357 0
M  V30 4387 O 403.516 3.98102 0.536416 0
M  V30 4388 N 401.722 2.89574 -0.244 0
M  V30 4389 H 401.269 2.38348 -0.977133 0
M  V30 4390 H 401.227 3.08566 0.602836 0
M  V30 4391 N 404.999 1.35443 0.805782 0
M  V30 4392 C 406.247 1.28507 1.55982 0
M  V30 4393 C 406.568 -0.140046 1.94496 0
M  V30 4394 O 405.838 -1.07666 1.63661 0
M  V30 4395 H 404.418 0.472676 0.578434 0
M  V30 4396 H 407.08 1.69555 0.961098 0
M  V30 4397 H 406.176 1.90148 2.47488 0
M  V30 4398 N 406.477 -1.02803 1.19454 0
M  V30 4399 C 407.723 -1.76478 0.999171 0
M  V30 4400 C 408.056 -1.88456 -0.468828 0
M  V30 4401 O 407.331 -1.40198 -1.34814 0
M  V30 4402 C 407.614 -3.19044 1.66981 0
M  V30 4403 C 407.467 -3.14932 3.21151 0
M  V30 4404 C 408.786 -4.17456 1.39349 0
M  V30 4405 H 405.905 -0.640614 0.364393 0
M  V30 4406 H 408.547 -1.20005 1.47305 0
M  V30 4407 H 406.697 -3.67263 1.2669 0
M  V30 4408 H 408.369 -2.74605 3.70661 0
M  V30 4409 H 406.612 -2.52625 3.52652 0
M  V30 4410 H 407.283 -4.1566 3.63223 0
M  V30 4411 H 409.759 -3.77842 1.74283 0
M  V30 4412 H 408.635 -5.154 1.88823 0
M  V30 4413 H 408.896 -4.40949 0.318813 0
M  V30 4414 N 407.956 -0.998596 -1.21925 0
M  V30 4415 C 408.889 -0.498517 -2.22688 0
M  V30 4416 C 409.867 0.444301 -1.56412 0
M  V30 4417 O 411.051 0.368518 -1.84863 0
M  V30 4418 C 408.178 0.276639 -3.37568 0
M  V30 4419 C 407.224 -0.61302 -4.22071 0
M  V30 4420 S 408.057 -2.07168 -4.93803 0
M  V30 4421 C 409.213 -1.30617 -6.12119 0
M  V30 4422 H 409.446 -1.35234 -2.64762 0
M  V30 4423 H 406.979 -0.806018 -1.31692 0
M  V30 4424 H 408.937 0.717817 -4.04175 0
M  V30 4425 H 407.598 1.10581 -2.93991 0
M  V30 4426 H 406.791 -0.0162909 -5.03997 0
M  V30 4427 H 406.393 -0.991202 -3.60626 0
M  V30 4428 H 408.685 -0.57675 -6.75041 0
M  V30 4429 H 409.628 -2.10091 -6.76215 0
M  V30 4430 H 410.036 -0.816957 -5.58557 0
M  V30 4431 N 409.434 1.37368 -0.772513 0
M  V30 4432 C 410.659 2.0447 -0.347386 0
M  V30 4433 C 411.084 1.57882 1.0225 0
M  V30 4434 O 410.442 0.73941 1.65537 0
M  V30 4435 C 410.49 3.58369 -0.400479 0
M  V30 4436 O 409.594 4.0803 0.598789 0
M  V30 4437 H 408.935 0.646773 -0.15027 0
M  V30 4438 H 411.465 1.75667 -1.04892 0
M  V30 4439 H 411.475 4.07183 -0.258045 0
M  V30 4440 H 410.15 3.91633 -1.39986 0
M  V30 4441 H 408.727 3.70534 0.419411 0
M  V30 4442 N 410.912 0.523116 1.48665 0
M  V30 4443 C 411.842 -0.23231 2.32342 0
M  V30 4444 C 412.823 -0.941637 1.41659 0
M  V30 4445 O 414.008 -0.928751 1.70552 0
M  V30 4446 C 411.138 -1.28387 3.22698 0
M  V30 4447 C 410.092 -0.693098 4.22351 0
M  V30 4448 C 409.418 -1.8468 5.01794 0
M  V30 4449 C 410.718 0.33063 5.21252 0
M  V30 4450 H 412.412 0.466192 2.95748 0
M  V30 4451 H 409.958 0.225643 1.42221 0
M  V30 4452 H 411.911 -1.82024 3.80059 0
M  V30 4453 H 410.635 -2.01186 2.57278 0
M  V30 4454 H 409.294 -0.178299 3.66166 0
M  V30 4455 H 408.942 -2.56301 4.32804 0
M  V30 4456 H 408.642 -1.45747 5.69238 0
M  V30 4457 H 410.166 -2.38709 5.62006 0
M  V30 4458 H 411.58 -0.118407 5.73178 0
M  V30 4459 H 409.977 0.636974 5.9671 0
M  V30 4460 H 411.047 1.23883 4.68808 0
M  V30 4461 N 412.39 -1.55475 0.257931 0
M  V30 4462 C 413.801 -1.8511 -0.243135 0
M  V30 4463 C 414.152 -1.17986 -1.5676 0
M  V30 4464 O 413.277 -0.462102 -2.11409 0
M  V30 4465 C 413.872 -3.35826 -0.447929 0
M  V30 4466 C 412.431 -3.65647 -0.893245 0
M  V30 4467 C 411.578 -2.7729 0.0232965 0
M  V30 4468 H 414.529 -1.51261 0.480199 0
M  V30 4469 H 414.55 -3.58002 -1.28898 0
M  V30 4470 H 414.062 -3.84652 0.516196 0
M  V30 4471 H 412.163 -3.22308 -1.86945 0
M  V30 4472 H 412.276 -4.73312 -0.742469 0
M  V30 4473 H 410.64 -2.49942 -0.490021 0
M  V30 4474 H 411.423 -3.28926 0.982994 0
M  V30 4475 N 413.868 0.0150385 -1.57593 0
M  V30 4476 C 415.284 0.370907 -1.5523 0
M  V30 4477 C 415.484 1.75735 -0.985882 0
M  V30 4478 O 414.54 2.44944 -0.613077 0
M  V30 4479 C 415.853 0.259908 -2.99575 0
M  V30 4480 C 417.401 0.335959 -3.11192 0
M  V30 4481 C 417.876 0.254253 -4.57294 0
M  V30 4482 N 419.367 0.312618 -4.62144 0
M  V30 4483 C 420.102 0.272505 -5.72752 0
M  V30 4484 N 419.598 0.183864 -6.92556 0
M  V30 4485 N 421.391 0.323267 -5.6117 0
M  V30 4486 H 413.542 -0.892104 -1.92757 0
M  V30 4487 H 415.805 -0.340563 -0.884715 0
M  V30 4488 H 415.511 -0.693403 -3.44797 0
M  V30 4489 H 415.385 1.048 -3.62349 0
M  V30 4490 H 417.772 1.27971 -2.65909 0
M  V30 4491 H 417.853 -0.481739 -2.51223 0
M  V30 4492 H 417.497 -0.685887 -5.03247 0
M  V30 4493 H 417.427 1.09024 -5.15191 0
M  V30 4494 H 419.918 0.38307 -3.75953 0
M  V30 4495 H 420.231 0.15874 -7.72637 0
M  V30 4496 H 418.576 0.149708 -6.94839 0
M  V30 4497 H 421.767 0.390607 -4.66467 0
M  V30 4498 H 421.94 0.288539 -6.47357 0
M  V30 4499 N 415.346 1.54954 0.287554 0
M  V30 4500 C 416.256 1.8991 1.37736 0
M  V30 4501 C 417.272 0.794701 1.54792 0
M  V30 4502 O 418.448 1.09243 1.69198 0
M  V30 4503 C 415.513 2.15108 2.71899 0
M  V30 4504 C 414.574 3.38752 2.63715 0
M  V30 4505 C 413.807 3.62739 3.91479 0
M  V30 4506 O 414.03 2.89492 4.91478 0
M  V30 4507 O 412.964 4.56267 3.92561 0
M  V30 4508 H 416.79 2.82652 1.11092 0
M  V30 4509 H 414.375 1.41315 0.484807 0
M  V30 4510 H 416.257 2.32806 3.51254 0
M  V30 4511 H 414.932 1.25551 2.9836 0
M  V30 4512 H 413.839 3.26405 1.82786 0
M  V30 4513 H 415.172 4.28483 2.42205 0
M  V30 4514 N 416.824 -0.551391 1.4764 0
M  V30 4515 C 417.754 -1.66757 1.63445 0
M  V30 4516 C 418.735 -1.63077 0.483742 0
M  V30 4517 O 419.92 -1.80607 0.71377 0
M  V30 4518 C 417.05 -3.05387 1.65396 0
M  V30 4519 C 416.004 -3.23918 2.79752 0
M  V30 4520 C 415.33 -4.63393 2.66779 0
M  V30 4521 C 416.63 -3.08735 4.21284 0
M  V30 4522 H 418.324 -1.53786 2.56886 0
M  V30 4523 H 415.87 -0.738415 1.23626 0
M  V30 4524 H 417.823 -3.83325 1.75043 0
M  V30 4525 H 416.547 -3.19332 0.685195 0
M  V30 4526 H 415.206 -2.48391 2.69625 0
M  V30 4527 H 414.854 -4.74144 1.67918 0
M  V30 4528 H 414.554 -4.7674 3.43501 0
M  V30 4529 H 416.078 -5.43458 2.78364 0
M  V30 4530 H 417.492 -3.76484 4.32357 0
M  V30 4531 H 415.889 -3.33588 4.98838 0
M  V30 4532 H 416.959 -2.0541 4.39243 0
M  V30 4533 N 418.302 -1.35869 -0.798587 0
M  V30 4534 C 419.532 -1.32529 -1.58491 0
M  V30 4535 C 419.94 0.0975405 -1.88948 0
M  V30 4536 O 419.283 1.06224 -1.49874 0
M  V30 4537 C 419.345 -2.07247 -2.9375 0
M  V30 4538 C 419.009 -3.56391 -2.86068 0
M  V30 4539 C 420.006 -4.50824 -2.58947 0
M  V30 4540 C 417.691 -3.9915 -3.04933 0
M  V30 4541 C 419.685 -5.85993 -2.5078 0
M  V30 4542 C 417.372 -5.34413 -2.96389 0
M  V30 4543 C 418.37 -6.27646 -2.69349 0
M  V30 4544 O 418.058 -7.60426 -2.60782 0
M  V30 4545 H 417.79 -0.456529 -0.498556 0
M  V30 4546 H 420.344 -1.79425 -0.999799 0
M  V30 4547 H 418.574 -1.55001 -3.54276 0
M  V30 4548 H 420.263 -1.96883 -3.54954 0
M  V30 4549 H 421.029 -4.19104 -2.44084 0
M  V30 4550 H 416.908 -3.26961 -3.24989 0
M  V30 4551 H 420.452 -6.58735 -2.29595 0
M  V30 4552 H 416.349 -5.65743 -3.10813 0
M  V30 4553 H 417.117 -7.70444 -2.76331 0
M  V30 4554 N 419.78 1.02168 -1.19998 0
M  V30 4555 C 421.026 1.75945 -1.00852 0
M  V30 4556 C 421.359 1.88702 0.458828 0
M  V30 4557 O 420.634 1.40911 1.34069 0
M  V30 4558 C 420.917 3.18154 -1.68671 0
M  V30 4559 C 420.77 3.13224 -3.22817 0
M  V30 4560 C 422.089 4.16711 -1.41561 0
M  V30 4561 H 419.208 0.638673 -0.367785 0
M  V30 4562 H 421.85 1.19222 -1.4794 0
M  V30 4563 H 420 3.66586 -1.28636 0
M  V30 4564 H 421.672 2.72635 -3.72112 0
M  V30 4565 H 419.915 2.50751 -3.53986 0
M  V30 4566 H 420.586 4.13728 -3.65422 0
M  V30 4567 H 423.062 3.76913 -1.76284 0
M  V30 4568 H 421.938 5.14391 -1.91553 0
M  V30 4569 H 422.199 4.40774 -0.342193 0
M  V30 4570 N 421.258 1.00505 1.21394 0
M  V30 4571 C 422.168 0.574806 2.27449 0
M  V30 4572 C 423.184 -0.382206 1.6975 0
M  V30 4573 O 424.36 -0.246027 1.99892 0
M  V30 4574 C 421.425 -0.0917414 3.46579 0
M  V30 4575 C 420.486 0.909758 4.1955 0
M  V30 4576 C 419.719 0.274924 5.32991 0
M  V30 4577 O 419.942 -0.928254 5.62796 0
M  V30 4578 O 418.876 0.985877 5.93771 0
M  V30 4579 H 422.702 1.45744 2.66444 0
M  V30 4580 H 420.287 0.773923 1.27792 0
M  V30 4581 H 422.169 -0.464551 4.18832 0
M  V30 4582 H 420.844 -0.948755 3.09484 0
M  V30 4583 H 419.751 1.33372 3.49518 0
M  V30 4584 H 421.084 1.73636 4.60555 0
M  V30 4585 N 422.737 -1.36956 0.779787 0
M  V30 4586 C 423.685 -2.32053 0.15942 0
M  V30 4587 C 424.679 -1.55333 -0.675878 0
M  V30 4588 O 425.885 -1.70668 -0.57204 0
M  V30 4589 H 422.26 -0.751286 0.0327707 0
M  V30 4590 H 424.231 -2.8195 0.977078 0
M  V30 4591 C 422.98 -3.40602 -0.698977 0
M  V30 4592 H 422.303 -3.99746 -0.0655966 0
M  V30 4593 H 423.743 -4.09486 -1.09989 0
M  V30 4594 C 422.202 -2.81359 -1.85307 0
M  V30 4595 O 422.732 -2.72751 -2.94906 0
M  V30 4596 N 420.938 -2.38786 -1.65619 0
M  V30 4597 H 420.485 -2.45987 -0.764725 0
M  V30 4598 H 420.443 -1.99493 -2.43002 0
M  V30 4599 N 424.215 -0.530993 -1.48385 0
M  V30 4600 C 425.163 0.244595 -2.3131 0
M  V30 4601 C 426.157 0.93451 -1.41291 0
M  V30 4602 O 427.363 0.85878 -1.58193 0
M  V30 4603 H 423.738 0.0977472 -0.74562 0
M  V30 4604 H 425.709 -0.474369 -2.94605 0
M  V30 4605 C 424.458 1.2779 -3.23365 0
M  V30 4606 H 423.781 0.756439 -3.92579 0
M  V30 4607 H 425.221 1.79198 -3.84271 0
M  V30 4608 C 423.68 2.31205 -2.45042 0
M  V30 4609 O 424.21 3.37661 -2.17596 0
M  V30 4610 N 422.416 2.04446 -2.0652 0
M  V30 4611 H 421.963 1.17891 -2.2904 0
M  V30 4612 H 421.921 2.73861 -1.54427 0
M  V30 4613 N 425.693 1.55336 -0.266172 0
M  V30 4614 C 426.603 2.2583 0.635458 0
M  V30 4615 C 427.619 1.28106 1.17749 0
M  V30 4616 O 428.795 1.61024 1.20968 0
M  V30 4617 C 425.86 2.95879 1.80712 0
M  V30 4618 C 424.921 4.09059 1.30265 0
M  V30 4619 C 424.154 4.75759 2.41846 0
M  V30 4620 O 424.377 4.41622 3.61007 0
M  V30 4621 O 423.311 5.63888 2.1051 0
M  V30 4622 H 427.137 3.03631 0.0646693 0
M  V30 4623 H 424.722 1.49361 -0.0339177 0
M  V30 4624 H 426.604 3.39932 2.49047 0
M  V30 4625 H 425.279 2.21002 2.36516 0
M  V30 4626 H 424.186 3.69482 0.586019 0
M  V30 4627 H 425.519 4.85811 0.790458 0
M  V30 4628 N 427.171 -0.0066808 1.57599 0
M  V30 4629 C 428.101 -0.999296 2.11036 0
M  V30 4630 C 429.082 -1.36278 1.01795 0
M  V30 4631 O 430.267 -1.4477 1.29442 0
M  V30 4632 C 427.397 -2.29328 2.60818 0
M  V30 4633 C 426.351 -2.07159 3.74525 0
M  V30 4634 C 425.677 -3.42512 4.10596 0
M  V30 4635 C 426.977 -1.43959 5.02069 0
M  V30 4636 H 428.671 -0.554382 2.94223 0
M  V30 4637 H 426.217 -0.265221 1.41536 0
M  V30 4638 H 428.17 -2.99117 2.96828 0
M  V30 4639 H 426.894 -2.7592 1.74745 0
M  V30 4640 H 425.553 -1.39797 3.38899 0
M  V30 4641 H 425.201 -3.86795 3.21556 0
M  V30 4642 H 424.901 -3.28498 4.87199 0
M  V30 4643 H 426.425 -4.13628 4.4916 0
M  V30 4644 H 427.839 -2.03696 5.35893 0
M  V30 4645 H 426.236 -1.40452 5.83432 0
M  V30 4646 H 427.306 -0.407992 4.83181 0
M  V30 4647 N 428.649 -1.55105 -0.279332 0
M  V30 4648 C 429.596 -1.8755 -1.34513 0
M  V30 4649 C 430.566 -0.726384 -1.49375 0
M  V30 4650 O 431.751 -0.977063 -1.63884 0
M  V30 4651 C 428.891 -2.14738 -2.70151 0
M  V30 4652 C 428.004 -3.42285 -2.63562 0
M  V30 4653 C 427.139 -3.59206 -3.91337 0
M  V30 4654 C 426.178 -4.80467 -3.79233 0
M  V30 4655 N 425.315 -4.94079 -4.98829 0
M  V30 4656 H 430.155 -2.78456 -1.06143 0
M  V30 4657 H 427.692 -1.37867 -0.512936 0
M  V30 4658 H 429.65 -2.28501 -3.49061 0
M  V30 4659 H 428.28 -1.27075 -2.96735 0
M  V30 4660 H 427.332 -3.37029 -1.76397 0
M  V30 4661 H 428.644 -4.31328 -2.50515 0
M  V30 4662 H 427.798 -3.72751 -4.78687 0
M  V30 4663 H 426.537 -2.68337 -4.07243 0
M  V30 4664 H 425.542 -4.66932 -2.90266 0
M  V30 4665 H 426.767 -5.72765 -3.64852 0
M  V30 4666 H 424.713 -4.06139 -5.15158 0
M  V30 4667 H 424.63 -5.77156 -4.8829 0
M  V30 4668 H 425.898 -5.12003 -5.8777 0
M  V30 4669 N 430.127 0.543554 -1.4793 0
M  V30 4670 C 431.373 1.30201 -1.55485 0
M  V30 4671 C 431.706 1.92925 -0.222201 0
M  V30 4672 O 430.981 1.78586 0.77053 0
M  V30 4673 C 431.264 2.40174 -2.68307 0
M  V30 4674 C 431.117 1.8223 -4.11233 0
M  V30 4675 C 432.436 3.42024 -2.76961 0
M  V30 4676 H 429.555 0.472036 -0.565996 0
M  V30 4677 H 432.197 0.606914 -1.80046 0
M  V30 4678 H 430.347 2.99463 -2.47495 0
M  V30 4679 H 432.019 1.27096 -4.43446 0
M  V30 4680 H 430.262 1.12832 -4.18869 0
M  V30 4681 H 430.933 2.61793 -4.85972 0
M  V30 4682 H 433.409 2.92672 -2.95774 0
M  V30 4683 H 432.285 4.16383 -3.57654 0
M  V30 4684 H 432.546 4.0173 -1.84568 0
M  V30 4685 N 431.605 1.3629 0.791371 0
M  V30 4686 C 432.552 1.30458 1.90393 0
M  V30 4687 C 433.522 0.173632 1.6519 0
M  V30 4688 O 434.707 0.35983 1.87376 0
M  V30 4689 C 431.847 1.09777 3.27174 0
M  V30 4690 C 430.96 2.31929 3.64462 0
M  V30 4691 C 430.095 2.04276 4.90352 0
M  V30 4692 C 429.134 3.224 5.20312 0
M  V30 4693 N 428.271 2.94424 6.37385 0
M  V30 4694 H 433.111 2.25589 1.94714 0
M  V30 4695 H 430.648 1.12122 0.952216 0
M  V30 4696 H 432.606 0.958133 4.06049 0
M  V30 4697 H 431.236 0.183014 3.22281 0
M  V30 4698 H 430.288 2.56703 2.80727 0
M  V30 4699 H 431.6 3.20085 3.82553 0
M  V30 4700 H 430.754 1.87231 5.77087 0
M  V30 4701 H 429.493 1.13428 4.74326 0
M  V30 4702 H 428.498 3.40005 4.32061 0
M  V30 4703 H 429.723 4.14071 5.38258 0
M  V30 4704 H 427.669 2.06185 6.22755 0
M  V30 4705 H 427.586 3.76118 6.55798 0
M  V30 4706 H 428.854 2.80953 7.27108 0
M  V30 4707 N 433.083 -1.0153 1.20538 0
M  V30 4708 C 434.494 -1.56598 1.01657 0
M  V30 4709 C 434.845 -1.91505 -0.426668 0
M  V30 4710 O 433.97 -1.72375 -1.30827 0
M  V30 4711 C 434.565 -2.84542 1.83905 0
M  V30 4712 C 433.124 -3.36133 1.69386 0
M  V30 4713 C 432.271 -2.09427 1.81757 0
M  V30 4714 H 435.222 -0.838974 1.34711 0
M  V30 4715 H 435.243 -3.56004 1.34319 0
M  V30 4716 H 434.755 -2.59105 2.8894 0
M  V30 4717 H 432.856 -3.66528 0.669933 0
M  V30 4718 H 432.969 -4.08248 2.50739 0
M  V30 4719 H 431.333 -2.21941 1.24957 0
M  V30 4720 H 432.116 -1.86414 2.88279 0
M  V30 4721 N 434.561 -1.01147 -1.20859 0
M  V30 4722 C 435.807 -0.698899 -1.90377 0
M  V30 4723 C 436.14 0.76904 -1.78324 0
M  V30 4724 O 435.415 1.55817 -1.16409 0
M  V30 4725 C 435.698 -1.12878 -3.41951 0
M  V30 4726 C 435.551 -2.65665 -3.62963 0
M  V30 4727 C 436.87 -0.696114 -4.3456 0
M  V30 4728 H 433.989 -0.255372 -0.691342 0
M  V30 4729 H 436.631 -1.25831 -1.42361 0
M  V30 4730 H 434.781 -0.652827 -3.82976 0
M  V30 4731 H 436.453 -3.21074 -3.31224 0
M  V30 4732 H 434.696 -3.06878 -3.06608 0
M  V30 4733 H 435.367 -2.90797 -4.69192 0
M  V30 4734 H 437.843 -1.10521 -4.01154 0
M  V30 4735 H 436.719 -1.025 -5.39245 0
M  V30 4736 H 436.98 0.402465 -4.40264 0
M  V30 4737 N 436.039 1.36541 -0.78704 0
M  V30 4738 C 437.316 1.9355 -0.282424 0
M  V30 4739 C 437.696 1.71919 1.22503 0
M  V30 4740 O 437.044 1.07677 2.01539 0
M  V30 4741 C 437.254 3.4246 -0.672462 0
M  V30 4742 C 438.602 4.19582 -0.650863 0
M  V30 4743 O 439.626 3.50889 -0.612789 0
M  V30 4744 O 438.485 5.42106 -0.691623 0
M  V30 4745 H 435.579 0.824091 -0.0693 0
M  V30 4746 H 438.125 1.45736 -0.869423 0
M  V30 4747 H 436.897 3.51851 -1.71221 0
M  V30 4748 H 436.52 3.97556 -0.0592211 0
M  V30 4749 N 437.518 0.538854 1.48102 0
M  V30 4750 C 438.428 -0.222648 2.33541 0
M  V30 4751 C 439.444 -0.930225 1.47047 0
M  V30 4752 O 440.62 -0.903211 1.80011 0
M  V30 4753 C 437.685 -1.25064 3.23357 0
M  V30 4754 C 436.746 -0.552469 4.2573 0
M  V30 4755 C 435.979 -1.53149 5.11254 0
M  V30 4756 O 436.202 -2.76487 4.9891 0
M  V30 4757 O 435.136 -1.06602 5.92385 0
M  V30 4758 H 438.962 0.477707 2.99919 0
M  V30 4759 H 436.547 0.299669 1.46364 0
M  V30 4760 H 438.429 -1.8445 3.78888 0
M  V30 4761 H 437.104 -1.93325 2.59629 0
M  V30 4762 H 436.011 0.082114 3.7401 0
M  V30 4763 H 437.344 0.0883526 4.92121 0
M  V30 4764 N 438.996 -1.55193 0.274407 0
M  V30 4765 C 439.926 -2.25471 -0.607032 0
M  V30 4766 C 440.907 -1.24461 -1.15946 0
M  V30 4767 O 442.092 -1.53179 -1.19373 0
M  V30 4768 C 439.222 -2.97526 -1.79153 0
M  V30 4769 C 438.176 -4.05459 -1.37067 0
M  V30 4770 C 437.502 -4.65084 -2.6382 0
M  V30 4771 C 438.802 -5.19691 -0.521389 0
M  V30 4772 H 440.496 -2.99393 -0.0209343 0
M  V30 4773 H 438.042 -1.43997 -0.00862866 0
M  V30 4774 H 439.995 -3.45402 -2.41404 0
M  V30 4775 H 438.719 -2.21138 -2.40344 0
M  V30 4776 H 437.378 -3.58393 -0.771355 0
M  V30 4777 H 437.026 -3.85365 -3.23268 0
M  V30 4778 H 436.726 -5.37961 -2.36372 0
M  V30 4779 H 438.25 -5.15708 -3.26921 0
M  V30 4780 H 439.664 -5.63623 -1.04889 0
M  V30 4781 H 438.061 -5.99126 -0.341825 0
M  V30 4782 H 439.131 -4.82713 0.46 0
M  V30 4783 N 440.474 -0.00167713 -1.576 0
M  V30 4784 C 441.404 0.988091 -2.11563 0
M  V30 4785 C 442.385 1.35736 -1.02517 0
M  V30 4786 O 443.57 1.44082 -1.30208 0
M  V30 4787 C 440.7 2.27941 -2.62031 0
M  V30 4788 C 439.654 2.0517 -3.75619 0
M  V30 4789 C 438.98 3.4033 -4.12407 0
M  V30 4790 C 440.28 1.41294 -5.02825 0
M  V30 4791 H 441.974 0.538771 -2.94513 0
M  V30 4792 H 439.52 0.257712 -1.41675 0
M  V30 4793 H 441.473 2.97539 -2.9841 0
M  V30 4794 H 440.197 2.74989 -1.76205 0
M  V30 4795 H 438.856 1.37998 -3.39635 0
M  V30 4796 H 438.504 3.85085 -3.23603 0
M  V30 4797 H 438.204 3.25909 -4.88935 0
M  V30 4798 H 439.728 4.1124 -4.51347 0
M  V30 4799 H 441.142 2.00851 -5.36965 0
M  V30 4800 H 439.539 1.37356 -5.84169 0
M  V30 4801 H 440.609 0.382362 -4.8339 0
M  V30 4802 N 441.952 1.55251 0.271103 0
M  V30 4803 C 442.915 1.87484 1.31842 0
M  V30 4804 C 443.915 0.749545 1.42262 0
M  V30 4805 O 445.105 1.01771 1.4138 0
M  V30 4806 C 442.237 2.0818 2.69951 0
M  V30 4807 H 443.43 2.81108 1.0449 0
M  V30 4808 H 440.983 1.47771 0.509258 0
M  V30 4809 H 441.718 1.16944 3.02481 0
M  V30 4810 H 441.503 2.90114 2.63774 0
M  V30 4811 H 442.993 2.34385 3.4562 0
M  V30 4812 N 443.43 -0.535701 1.48216 0
M  V30 4813 C 444.36 -1.65014 1.65204 0
M  V30 4814 C 445.341 -1.62554 0.501011 0
M  V30 4815 O 446.526 -1.7984 0.732886 0
M  V30 4816 C 443.656 -3.03616 1.68626 0
M  V30 4817 C 442.61 -3.20932 2.83172 0
M  V30 4818 C 441.936 -4.60537 2.71679 0
M  V30 4819 C 443.236 -3.04249 4.24535 0
M  V30 4820 H 444.93 -1.51053 2.58502 0
M  V30 4821 H 442.476 -0.725262 1.24402 0
M  V30 4822 H 444.429 -3.81446 1.79099 0
M  V30 4823 H 443.153 -3.18587 0.719026 0
M  V30 4824 H 441.812 -2.45517 2.72244 0
M  V30 4825 H 441.46 -4.72336 1.72937 0
M  V30 4826 H 441.16 -4.73069 3.48538 0
M  V30 4827 H 442.684 -5.40475 2.84112 0
M  V30 4828 H 444.098 -3.71877 4.36326 0
M  V30 4829 H 442.495 -3.28278 5.02348 0
M  V30 4830 H 443.565 -2.00739 4.41397 0
M  V30 4831 N 444.908 -1.36708 -0.784132 0
M  V30 4832 C 446.324 -1.17237 -1.08294 0
M  V30 4833 C 446.524 -5.93947e-05 -2.015 0
M  V30 4834 O 445.58 0.663686 -2.43622 0
M  V30 4835 C 446.893 -2.48557 -1.69233 0
M  V30 4836 C 448.441 -2.54968 -1.8155 0
M  V30 4837 C 448.916 -3.86388 -2.45904 0
M  V30 4838 N 450.407 -3.87762 -2.53367 0
M  V30 4839 C 451.142 -4.86191 -3.03983 0
M  V30 4840 N 450.638 -5.95015 -3.54866 0
M  V30 4841 N 452.431 -4.73606 -3.02743 0
M  V30 4842 H 444.582 -2.11758 -0.16501 0
M  V30 4843 H 446.845 -0.93822 -0.135822 0
M  V30 4844 H 446.551 -3.34638 -1.08215 0
M  V30 4845 H 446.425 -2.64748 -2.68679 0
M  V30 4846 H 448.812 -1.69302 -2.41704 0
M  V30 4847 H 448.893 -2.42672 -0.80895 0
M  V30 4848 H 448.537 -4.72462 -1.86392 0
M  V30 4849 H 448.467 -3.95982 -3.4714 0
M  V30 4850 H 450.958 -3.09145 -2.17343 0
M  V30 4851 H 451.271 -6.66086 -3.91854 0
M  V30 4852 H 449.616 -5.98676 -3.53003 0
M  V30 4853 H 452.807 -3.87717 -2.62284 0
M  V30 4854 H 452.98 -5.50473 -3.41881 0
M  V30 4855 N 446.386 1.0089 -1.21074 0
M  V30 4856 C 447.333 2.09588 -0.966512 0
M  V30 4857 C 448.303 1.65761 0.106089 0
M  V30 4858 O 449.488 1.90758 -0.0402287 0
M  V30 4859 C 446.628 3.40958 -0.533058 0
M  V30 4860 C 445.741 3.9822 -1.67467 0
M  V30 4861 C 444.876 5.17682 -1.19076 0
M  V30 4862 C 443.915 5.67043 -2.30496 0
M  V30 4863 N 443.052 6.77759 -1.83267 0
M  V30 4864 H 447.892 2.29815 -1.89708 0
M  V30 4865 H 445.429 1.12689 -0.945489 0
M  V30 4866 H 447.387 4.1637 -0.263019 0
M  V30 4867 H 446.017 3.20781 0.360505 0
M  V30 4868 H 445.069 3.1983 -2.05944 0
M  V30 4869 H 446.381 4.3085 -2.51336 0
M  V30 4870 H 445.535 6.00326 -0.877151 0
M  V30 4871 H 444.274 4.86635 -0.322066 0
M  V30 4872 H 443.279 4.82999 -2.62664 0
M  V30 4873 H 444.504 6.00121 -3.17855 0
M  V30 4874 H 442.45 6.48527 -0.987356 0
M  V30 4875 H 442.367 7.09624 -2.60711 0
M  V30 4876 H 443.635 7.63949 -1.54928 0
M  V30 4877 N 447.864 1.01787 1.20321 0
M  V30 4878 C 449.28 0.732951 1.41774 0
M  V30 4879 C 449.48 -0.686883 1.89431 0
M  V30 4880 O 448.536 -1.45446 2.06402 0
M  V30 4881 C 449.849 1.75973 2.43832 0
M  V30 4882 C 451.397 1.77802 2.57596 0
M  V30 4883 C 451.872 2.7941 3.62897 0
M  V30 4884 N 453.363 2.78157 3.70382 0
M  V30 4885 C 454.098 3.53434 4.51521 0
M  V30 4886 N 453.594 4.38392 5.36455 0
M  V30 4887 N 455.387 3.42026 4.46066 0
M  V30 4888 H 447.538 1.93447 0.877035 0
M  V30 4889 H 449.801 0.835712 0.447536 0
M  V30 4890 H 449.507 2.77699 2.15815 0
M  V30 4891 H 449.381 1.57292 3.4284 0
M  V30 4892 H 451.768 0.767602 2.84942 0
M  V30 4893 H 451.849 2.00557 1.58779 0
M  V30 4894 H 451.493 3.80616 3.36295 0
M  V30 4895 H 451.423 2.53916 4.61339 0
M  V30 4896 H 453.914 2.16531 3.09714 0
M  V30 4897 H 454.227 4.92596 5.95457 0
M  V30 4898 H 452.572 4.4247 5.35953 0
M  V30 4899 H 455.763 2.75075 3.78749 0
M  V30 4900 H 455.936 4.00946 5.09064 0
M  V30 4901 N 449.342 -1.36122 0.79427 0
M  V30 4902 C 450.289 -2.29982 0.194101 0
M  V30 4903 C 451.259 -1.52214 -0.664833 0
M  V30 4904 O 452.444 -1.80702 -0.612498 0
M  V30 4905 C 449.584 -3.38706 -0.661244 0
M  V30 4906 C 448.697 -4.31456 0.216766 0
M  V30 4907 C 447.832 -5.27265 -0.645411 0
M  V30 4908 C 446.871 -6.11653 0.233756 0
M  V30 4909 N 446.008 -6.99636 -0.587682 0
M  V30 4910 H 450.848 -2.80722 0.999965 0
M  V30 4911 H 448.385 -1.38172 0.504677 0
M  V30 4912 H 450.343 -4.00394 -1.17219 0
M  V30 4913 H 448.973 -2.89274 -1.43249 0
M  V30 4914 H 448.025 -3.7088 0.845724 0
M  V30 4915 H 449.337 -4.90724 0.893973 0
M  V30 4916 H 448.491 -5.94266 -1.22198 0
M  V30 4917 H 447.23 -4.68463 -1.35623 0
M  V30 4918 H 446.235 -5.4361 0.82269 0
M  V30 4919 H 447.46 -6.72531 0.942247 0
M  V30 4920 H 445.406 -6.43337 -1.2827 0
M  V30 4921 H 445.323 -7.55993 0.0317402 0
M  V30 4922 H 446.591 -7.71001 -1.14792 0
M  V30 4923 N 450.82 -0.546701 -1.47814 0
M  V30 4924 C 452.066 -0.0187684 -2.02791 0
M  V30 4925 C 452.399 1.32338 -1.42128 0
M  V30 4926 O 451.674 1.85867 -0.573023 0
M  V30 4927 C 451.957 0.0854985 -3.59998 0
M  V30 4928 C 451.81 -1.283 -4.31114 0
M  V30 4929 C 453.129 0.80412 -4.32691 0
M  V30 4930 H 450.248 -0.0082946 -0.736953 0
M  V30 4931 H 452.89 -0.706962 -1.76358 0
M  V30 4932 H 451.04 0.671609 -3.82651 0
M  V30 4933 H 452.712 -1.91151 -4.19832 0
M  V30 4934 H 450.955 -1.86049 -3.91878 0
M  V30 4935 H 451.626 -1.16287 -5.39612 0
M  V30 4936 H 454.102 0.306576 -4.14969 0
M  V30 4937 H 452.978 0.846011 -5.42341 0
M  V30 4938 H 453.239 1.85802 -4.01161 0
M  V30 4939 N 452.299 1.55045 -0.282633 0
M  V30 4940 C 453.546 1.9976 0.33199 0
M  V30 4941 C 453.874 1.17105 1.55295 0
M  V30 4942 O 453.129 0.230599 1.94337 0
M  V30 4943 C 453.428 3.49422 0.750938 0
M  V30 4944 C 453.094 4.4941 -0.366228 0
M  V30 4945 C 451.756 4.76471 -0.672964 0
M  V30 4946 C 454.108 5.09054 -1.11864 0
M  V30 4947 C 451.436 5.60442 -1.73556 0
M  V30 4948 C 453.788 5.9418 -2.17102 0
M  V30 4949 C 452.452 6.19558 -2.48402 0
M  V30 4950 H 451.722 0.730974 0.121484 0
M  V30 4951 H 454.369 1.8732 -0.39791 0
M  V30 4952 H 452.674 3.59377 1.56063 0
M  V30 4953 H 454.371 3.81432 1.23736 0
M  V30 4954 H 450.961 4.2844 -0.117041 0
M  V30 4955 H 455.145 4.88165 -0.894925 0
M  V30 4956 H 450.401 5.78349 -1.983 0
M  V30 4957 H 454.575 6.39427 -2.75873 0
M  V30 4958 H 452.202 6.84417 -3.30874 0
M  V30 4959 N 453.777 0.010035 1.57597 0
M  V30 4960 C 454.687 -0.994226 2.12491 0
M  V30 4961 C 455.703 -1.37013 1.07254 0
M  V30 4962 O 456.879 -1.45542 1.3921 0
M  V30 4963 C 453.944 -2.2642 2.62555 0
M  V30 4964 C 453.005 -1.95049 3.82432 0
M  V30 4965 C 452.238 -3.15991 4.30099 0
M  V30 4966 O 452.461 -4.28015 3.7704 0
M  V30 4967 O 451.395 -2.99403 5.22151 0
M  V30 4968 H 455.221 -0.557549 2.98538 0
M  V30 4969 H 452.806 -0.209413 1.47925 0
M  V30 4970 H 454.688 -3.01009 2.9491 0
M  V30 4971 H 453.363 -2.69306 1.796 0
M  V30 4972 H 452.27 -1.17904 3.55034 0
M  V30 4973 H 453.603 -1.56992 4.66491 0
M  V30 4974 N 455.255 -1.55392 -0.262866 0
M  V30 4975 C 456.483 -1.80513 -1.01108 0
M  V30 4976 C 456.898 -0.583533 -1.79556 0
M  V30 4977 O 456.255 0.447585 -1.76926 0
M  V30 4978 C 456.306 -3.03648 -1.96164 0
M  V30 4979 O 456.027 -4.2109 -1.20893 0
M  V30 4980 C 457.528 -3.41448 -2.82715 0
M  V30 4981 H 454.748 -0.601079 -0.298236 0
M  V30 4982 H 457.292 -2.02425 -0.290582 0
M  V30 4983 H 455.447 -2.83832 -2.63663 0
M  V30 4984 H 455.861 -4.90771 -1.85051 0
M  V30 4985 H 457.335 -4.30751 -3.45192 0
M  V30 4986 H 457.812 -2.61308 -3.53008 0
M  V30 4987 H 458.418 -3.63559 -2.20693 0
M  V30 4988 N 456.733 0.527833 -1.48498 0
M  V30 4989 C 457.696 1.61439 -1.62696 0
M  V30 4990 C 458.696 1.52824 -0.500136 0
M  V30 4991 O 459.886 1.56456 -0.765976 0
M  V30 4992 C 457.018 3.01063 -1.59918 0
M  V30 4993 H 458.211 1.50189 -2.59583 0
M  V30 4994 H 455.764 0.750055 -1.37127 0
M  V30 4995 H 456.499 3.17818 -0.645163 0
M  V30 4996 H 456.284 3.08725 -2.41726 0
M  V30 4997 H 457.774 3.80057 -1.73051 0
M  V30 4998 N 458.211 1.37122 0.776871 0
M  V30 4999 C 459.158 1.3247 1.88998 0
M  V30 5000 C 460.128 0.191143 1.64997 0
M  V30 5001 O 461.313 0.379683 1.86984 0
M  V30 5002 C 458.453 1.13241 3.25992 0
M  V30 5003 C 457.566 2.35782 3.61982 0
M  V30 5004 C 456.701 2.09465 4.88158 0
M  V30 5005 C 455.74 3.279 5.16864 0
M  V30 5006 N 454.877 3.01167 6.34226 0
M  V30 5007 H 459.717 2.27642 1.9231 0
M  V30 5008 H 457.254 1.13125 0.94027 0
M  V30 5009 H 459.212 1.00115 4.0501 0
M  V30 5010 H 457.842 0.217186 3.22069 0
M  V30 5011 H 456.894 2.59666 2.77989 0
M  V30 5012 H 458.206 3.24125 3.79137 0
M  V30 5013 H 457.36 1.93341 5.75069 0
M  V30 5014 H 456.099 1.18452 4.73097 0
M  V30 5015 H 455.104 3.44569 4.2843 0
M  V30 5016 H 456.329 4.19757 5.33836 0
M  V30 5017 H 454.275 2.12779 6.20533 0
M  V30 5018 H 454.192 3.83052 6.51772 0
M  V30 5019 H 455.46 2.88649 7.24087 0
M  V30 5020 N 459.689 -1.00246 1.21608 0
M  V30 5021 C 460.914 -1.78167 1.06167 0
M  V30 5022 C 461.339 -1.84138 -0.384035 0
M  V30 5023 O 460.697 -1.28683 -1.27712 0
M  V30 5024 C 460.745 -3.19786 1.66642 0
M  V30 5025 O 459.849 -4.02153 0.913613 0
M  V30 5026 H 459.19 -0.549 0.37349 0
M  V30 5027 H 461.72 -1.25994 1.61204 0
M  V30 5028 H 461.73 -3.70451 1.70969 0
M  V30 5029 H 460.405 -3.14754 2.7185 0
M  V30 5030 H 458.982 -3.60711 0.945635 0
M  V30 5031 N 461.167 -1.02423 -1.1978 0
M  V30 5032 C 462.415 -0.716569 -1.8897 0
M  V30 5033 C 462.736 0.756769 -1.79716 0
M  V30 5034 O 462.006 1.5449 -1.20456 0
M  V30 5035 H 460.586 -0.262062 -0.699523 0
M  V30 5036 H 463.248 -1.29747 -1.45436 0
M  V30 5037 H 462.344 -1.00675 -2.95417 0
M  V30 5038 N 462.645 1.35699 -0.801477 0
M  V30 5039 C 463.873 2.03157 -0.391768 0
M  V30 5040 C 464.288 1.60412 0.995668 0
M  V30 5041 O 463.645 0.799228 1.64069 0
M  V30 5042 C 463.696 3.58566 -0.459671 0
M  V30 5043 O 463.417 3.99756 -1.7924 0
M  V30 5044 C 464.918 4.4328 -0.0421205 0
M  V30 5045 H 462.138 0.651688 -0.159825 0
M  V30 5046 H 464.682 1.73426 -1.08368 0
M  V30 5047 H 462.837 3.86963 0.183939 0
M  V30 5048 H 463.251 4.94387 -1.75162 0
M  V30 5049 H 464.725 5.51821 -0.140754 0
M  V30 5050 H 465.202 4.27383 1.01196 0
M  V30 5051 H 465.808 4.20168 -0.658687 0
M  V30 5052 N 464.123 0.554532 1.47522 0
M  V30 5053 C 465.37 0.029479 2.02479 0
M  V30 5054 C 465.698 -1.31929 1.42916 0
M  V30 5055 O 464.953 -1.87112 0.573385 0
M  V30 5056 C 465.252 -0.115927 3.57212 0
M  V30 5057 C 464.918 1.16161 4.3568 0
M  V30 5058 C 463.58 1.51168 4.56839 0
M  V30 5059 C 465.932 2.0083 4.80954 0
M  V30 5060 C 463.26 2.70696 5.2052 0
M  V30 5061 C 465.612 3.19559 5.45953 0
M  V30 5062 C 464.276 3.54882 5.65345 0
M  V30 5063 H 463.546 0.0107871 0.740921 0
M  V30 5064 H 466.193 0.725506 1.77225 0
M  V30 5065 H 464.498 -0.894902 3.81443 0
M  V30 5066 H 466.195 -0.53749 3.97381 0
M  V30 5067 H 462.785 0.879026 4.19489 0
M  V30 5068 H 466.969 1.75093 4.64388 0
M  V30 5069 H 462.225 2.98236 5.33728 0
M  V30 5070 H 466.399 3.85456 5.79997 0
M  V30 5071 H 464.026 4.47596 6.1446 0
M  V30 5072 N 465.601 -1.54893 0.290851 0
M  V30 5073 C 466.531 -2.26103 -0.583084 0
M  V30 5074 C 467.512 -1.25684 -1.14619 0
M  V30 5075 O 468.697 -1.54436 -1.17741 0
M  V30 5076 C 465.827 -2.99409 -1.75987 0
M  V30 5077 C 464.781 -4.0689 -1.32758 0
M  V30 5078 C 464.107 -4.67856 -2.58872 0
M  V30 5079 C 465.407 -5.20215 -0.46624 0
M  V30 5080 H 467.101 -2.99398 0.0108214 0
M  V30 5081 H 464.647 -1.43998 0.00664468 0
M  V30 5082 H 466.6 -3.47943 -2.37727 0
M  V30 5083 H 465.324 -2.23675 -2.37985 0
M  V30 5084 H 463.983 -3.59191 -0.733299 0
M  V30 5085 H 463.631 -3.88772 -3.19163 0
M  V30 5086 H 463.331 -5.40438 -2.30653 0
M  V30 5087 H 464.855 -5.19147 -3.21433 0
M  V30 5088 H 466.269 -5.64704 -0.989047 0
M  V30 5089 H 464.666 -5.99455 -0.27826 0
M  V30 5090 H 465.736 -4.82198 0.511173 0
M  V30 5091 N 467.08 -0.0183926 -1.57589 0
M  V30 5092 C 468.01 0.965596 -2.12599 0
M  V30 5093 C 468.991 1.34641 -1.0395 0
M  V30 5094 O 470.176 1.42693 -1.31729 0
M  V30 5095 C 467.306 2.25149 -2.64434 0
M  V30 5096 C 466.26 2.01175 -3.77773 0
M  V30 5097 C 465.586 3.35937 -4.15994 0
M  V30 5098 C 466.886 1.35953 -5.04296 0
M  V30 5099 H 468.58 0.507504 -2.95067 0
M  V30 5100 H 466.126 0.242671 -1.41941 0
M  V30 5101 H 468.079 2.94357 -3.01549 0
M  V30 5102 H 466.803 2.73105 -1.79112 0
M  V30 5103 H 465.462 1.34388 -3.4108 0
M  V30 5104 H 465.11 3.81631 -3.27669 0
M  V30 5105 H 464.81 3.20705 -4.92364 0
M  V30 5106 H 466.334 4.0643 -4.55683 0
M  V30 5107 H 467.748 1.95144 -5.39065 0
M  V30 5108 H 466.145 1.31152 -5.85593 0
M  V30 5109 H 467.215 0.331071 -4.83768 0
M  V30 5110 N 468.558 1.5553 0.254621 0
M  V30 5111 C 469.835 1.6774 1.00611 0
M  V30 5112 C 470.215 0.555993 2.03647 0
M  V30 5113 O 469.563 -0.441583 2.24193 0
M  V30 5114 C 469.773 3.07725 1.6464 0
M  V30 5115 C 471.121 3.66074 2.15116 0
M  V30 5116 O 472.145 3.10476 1.74595 0
M  V30 5117 O 471.004 4.63526 2.89493 0
M  V30 5118 H 468.098 0.681958 0.467828 0
M  V30 5119 H 470.644 1.67863 0.24902 0
M  V30 5120 H 469.416 3.80792 0.900734 0
M  V30 5121 H 469.039 3.1158 2.46989 0
M  V30 5122 N 470.036 -0.519951 1.48776 0
M  V30 5123 C 471.282 -1.27711 1.57536 0
M  V30 5124 C 471.615 -1.92547 0.252866 0
M  V30 5125 O 470.89 -1.7979 -0.742021 0
M  V30 5126 C 471.173 -2.35875 2.72094 0
M  V30 5127 C 471.026 -1.75664 4.1408 0
M  V30 5128 C 472.345 -3.37575 2.82367 0
M  V30 5129 H 469.464 -0.462971 0.573434 0
M  V30 5130 H 472.106 -0.578194 1.80989 0
M  V30 5131 H 470.256 -2.95488 2.52228 0
M  V30 5132 H 471.928 -1.20025 4.45412 0
M  V30 5133 H 470.171 -1.06154 4.20611 0
M  V30 5134 H 470.842 -2.54029 4.90075 0
M  V30 5135 H 473.318 -2.87929 3.00393 0
M  V30 5136 H 472.194 -4.1064 3.64233 0
M  V30 5137 H 472.455 -3.98743 1.90936 0
M  V30 5138 N 471.514 -1.37532 -0.769588 0
M  V30 5139 C 472.461 -1.3347 -1.88293 0
M  V30 5140 C 473.431 -0.199891 -1.64893 0
M  V30 5141 O 474.616 -0.389594 -1.8678 0
M  V30 5142 C 471.756 -1.14968 -3.25387 0
M  V30 5143 C 470.869 -2.37698 -3.60727 0
M  V30 5144 C 470.004 -2.12051 -4.8704 0
M  V30 5145 C 469.043 -3.30636 -5.15117 0
M  V30 5146 N 468.18 -3.04527 -6.3262 0
M  V30 5147 H 473.02 -2.28658 -1.911 0
M  V30 5148 H 470.557 -1.13622 -0.934257 0
M  V30 5149 H 472.515 -1.02261 -4.04473 0
M  V30 5150 H 471.145 -0.234263 -3.21949 0
M  V30 5151 H 470.197 -2.61137 -2.76608 0
M  V30 5152 H 471.509 -3.26131 -3.77413 0
M  V30 5153 H 470.663 -1.96388 -5.74035 0
M  V30 5154 H 469.402 -1.20959 -4.72462 0
M  V30 5155 H 468.407 -3.46836 -4.26597 0
M  V30 5156 H 469.632 -4.22582 -5.31603 0
M  V30 5157 H 467.578 -2.16067 -6.19396 0
M  V30 5158 H 467.495 -3.86503 -6.49732 0
M  V30 5159 H 468.763 -2.92485 -7.22546 0
M  V30 5160 N 472.992 0.995999 -1.22138 0
M  V30 5161 C 473.902 2.11985 -1.00496 0
M  V30 5162 C 474.918 1.7394 0.0457701 0
M  V30 5163 O 476.094 2.00868 -0.146273 0
M  V30 5164 C 473.159 3.41779 -0.582086 0
M  V30 5165 C 472.22 3.93943 -1.70608 0
M  V30 5166 C 471.453 5.17542 -1.30328 0
M  V30 5167 O 471.676 5.70114 -0.180743 0
M  V30 5168 O 470.61 5.63382 -2.11861 0
M  V30 5169 H 474.436 2.33123 -1.94647 0
M  V30 5170 H 472.021 1.10358 -1.00705 0
M  V30 5171 H 473.903 4.1989 -0.356467 0
M  V30 5172 H 472.578 3.22007 0.330592 0
M  V30 5173 H 471.485 3.17019 -1.98619 0
M  V30 5174 H 472.818 4.18141 -2.59651 0
M  V30 5175 N 474.47 1.03057 1.19235 0
M  V30 5176 C 475.418 0.606391 2.24557 0
M  V30 5177 C 476.412 -0.361826 1.65491 0
M  V30 5178 O 477.618 -0.23022 1.78522 0
M  V30 5179 H 473.993 0.177838 0.730669 0
M  V30 5180 H 475.964 1.50529 2.5765 0
M  V30 5181 C 474.713 -0.0252127 3.47691 0
M  V30 5182 H 474.036 0.710838 3.9343 0
M  V30 5183 H 475.476 -0.284931 4.23042 0
M  V30 5184 C 473.935 -1.27229 3.11953 0
M  V30 5185 O 474.465 -2.36416 3.24762 0
M  V30 5186 N 472.671 -1.16169 2.6637 0
M  V30 5187 H 472.218 -0.273189 2.56147 0
M  V30 5188 H 472.176 -1.99703 2.42829 0
M  V30 5189 N 475.948 -1.35272 0.808662 0
M  V30 5190 C 477.173 -2.03477 0.401475 0
M  V30 5191 C 477.598 -1.60537 -0.980279 0
M  V30 5192 O 476.956 -0.78304 -1.63518 0
M  V30 5193 C 477.004 -3.57181 0.495354 0
M  V30 5194 O 476.108 -4.09474 -0.490397 0
M  V30 5195 H 475.449 -0.642561 0.167366 0
M  V30 5196 H 477.979 -1.72824 1.09512 0
M  V30 5197 H 477.989 -4.06356 0.365912 0
M  V30 5198 H 476.664 -3.87784 1.5032 0
M  V30 5199 H 475.241 -3.71516 -0.321023 0
M  V30 5200 N 477.426 -0.562348 -1.47226 0
M  V30 5201 C 478.656 -0.0451619 -2.06551 0
M  V30 5202 C 479.064 1.25626 -1.41473 0
M  V30 5203 O 478.407 1.76563 -0.507061 0
M  V30 5204 C 478.469 0.216068 -3.5885 0
M  V30 5205 C 478.133 -0.996691 -4.45999 0
M  V30 5206 C 479.13 -1.90358 -4.83797 0
M  V30 5207 C 476.815 -1.21281 -4.87438 0
M  V30 5208 C 478.809 -3.01023 -5.6184 0
M  V30 5209 C 476.496 -2.32255 -5.65244 0
M  V30 5210 C 477.494 -3.21956 -6.02356 0
M  V30 5211 O 477.182 -4.31005 -6.78594 0
M  V30 5212 H 476.914 -0.0451646 -0.67449 0
M  V30 5213 H 479.468 -0.776842 -1.90143 0
M  V30 5214 H 477.698 1.00212 -3.7349 0
M  V30 5215 H 479.387 0.679264 -4.00176 0
M  V30 5216 H 480.153 -1.74868 -4.52378 0
M  V30 5217 H 476.032 -0.523767 -4.58015 0
M  V30 5218 H 479.576 -3.71064 -5.90726 0
M  V30 5219 H 475.473 -2.47715 -5.96077 0
M  V30 5220 H 476.241 -4.29118 -6.96994 0
M  V30 5221 N 478.904 1.54736 -0.299062 0
M  V30 5222 C 479.814 2.27127 0.587413 0
M  V30 5223 C 480.83 1.30575 1.15005 0
M  V30 5224 O 482.006 1.63554 1.17525 0
M  V30 5225 C 479.071 2.99645 1.74395 0
M  V30 5226 C 478.132 4.11731 1.21559 0
M  V30 5227 C 477.365 4.80781 2.317 0
M  V30 5228 O 477.588 4.4918 3.51558 0
M  V30 5229 O 476.522 5.68226 1.98501 0
M  V30 5230 H 480.348 3.037 0.000250109 0
M  V30 5231 H 477.933 1.49256 -0.0655919 0
M  V30 5232 H 479.815 3.45138 2.4178 0
M  V30 5233 H 478.49 2.25969 2.31775 0
M  V30 5234 H 477.397 3.70641 0.507514 0
M  V30 5235 H 478.73 4.87379 0.687233 0
M  V30 5236 N 480.382 0.0267497 1.57577 0
M  V30 5237 C 481.631 -0.651736 1.9088 0
M  V30 5238 C 481.944 -1.73427 0.904576 0
M  V30 5239 O 483.15 -2.46923 1.12877 0
M  V30 5240 C 481.606 -1.21048 3.38933 0
M  V30 5241 C 481.214 -0.161362 4.47709 0
M  V30 5242 C 482.958 -1.86562 3.81307 0
M  V30 5243 C 480.865 -0.731611 5.86857 0
M  V30 5244 H 479.795 -0.247198 0.712326 0
M  V30 5245 H 482.446 0.0916641 1.83271 0
M  V30 5246 H 480.828 -2.00542 3.41466 0
M  V30 5247 H 482.002 0.61094 4.56732 0
M  V30 5248 H 480.317 0.394877 4.14523 0
M  V30 5249 H 482.914 -2.30178 4.8262 0
M  V30 5250 H 483.257 -2.70735 3.16241 0
M  V30 5251 H 483.79 -1.13762 3.81186 0
M  V30 5252 H 480.529 0.0719329 6.55461 0
M  V30 5253 H 480.049 -1.47245 5.81445 0
M  V30 5254 H 481.728 -1.22208 6.35354 0
M  V30 5255 N 481.861 -1.55662 -0.24637 0
M  V30 5256 C 483.107 -1.77782 -0.975779 0
M  V30 5257 C 483.44 -0.592103 -1.84953 0
M  V30 5258 O 482.715 0.409588 -1.90138 0
M  V30 5259 C 482.998 -3.09788 -1.83584 0
M  V30 5260 C 482.851 -4.38764 -0.990241 0
M  V30 5261 C 484.17 -3.38029 -2.81823 0
M  V30 5262 H 481.289 -0.646789 -0.353317 0
M  V30 5263 H 483.931 -1.88398 -0.246248 0
M  V30 5264 H 482.081 -3.00869 -2.45784 0
M  V30 5265 H 483.753 -4.59675 -0.386897 0
M  V30 5266 H 481.996 -4.32798 -0.294626 0
M  V30 5267 H 482.667 -5.27514 -1.62584 0
M  V30 5268 H 485.143 -3.46915 -2.2976 0
M  V30 5269 H 484.019 -4.3161 -3.39122 0
M  V30 5270 H 484.28 -2.58968 -3.58313 0
M  V30 5271 N 483.339 0.512053 -1.4905 0
M  V30 5272 C 484.579 1.27715 -1.59588 0
M  V30 5273 C 484.943 1.90071 -0.271502 0
M  V30 5274 O 486.144 2.67616 -0.251987 0
M  V30 5275 C 484.415 2.32399 -2.71524 0
M  V30 5276 S 485.974 3.18396 -3.01943 0
M  V30 5277 H 482.792 0.43419 -0.563027 0
M  V30 5278 H 485.394 0.581315 -1.86657 0
M  V30 5279 H 484.098 1.85101 -3.66287 0
M  V30 5280 H 483.629 3.06667 -2.46412 0
M  V30 5281 H 485.644 4.32842 -2.42616 0
M  V30 5282 N 484.817 1.37938 0.762283 0
M  V30 5283 C 485.727 1.36681 1.90671 0
M  V30 5284 C 486.743 0.265078 1.71969 0
M  V30 5285 O 487.919 0.502055 1.95042 0
M  V30 5286 C 484.984 1.18211 3.25925 0
M  V30 5287 C 484.045 2.3811 3.57214 0
M  V30 5288 C 483.278 2.20512 4.86014 0
M  V30 5289 O 483.501 1.19429 5.57757 0
M  V30 5290 O 482.435 3.08911 5.16583 0
M  V30 5291 H 486.261 2.33091 1.94685 0
M  V30 5292 H 483.846 1.18767 0.906356 0
M  V30 5293 H 485.728 1.09937 4.06807 0
M  V30 5294 H 484.403 0.248807 3.22742 0
M  V30 5295 H 483.31 2.51958 2.76529 0
M  V30 5296 H 484.643 3.30041 3.65149 0
M  V30 5297 N 486.295 -0.989507 1.22664 0
M  V30 5298 C 487.542 -1.72953 1.05325 0
M  V30 5299 C 487.87 -1.90104 -0.411168 0
M  V30 5300 O 487.125 -1.44386 -1.32103 0
M  V30 5301 C 487.424 -3.13649 1.71345 0
M  V30 5302 C 487.09 -3.16403 3.21248 0
M  V30 5303 C 485.752 -3.16862 3.62149 0
M  V30 5304 C 488.104 -3.12428 4.17179 0
M  V30 5305 C 485.432 -3.11051 4.97458 0
M  V30 5306 C 487.784 -3.08159 5.52468 0
M  V30 5307 C 486.448 -3.06935 5.92746 0
M  V30 5308 H 485.718 -0.632881 0.385412 0
M  V30 5309 H 488.365 -1.15863 1.52473 0
M  V30 5310 H 486.67 -3.74069 1.16532 0
M  V30 5311 H 488.367 -3.69658 1.55416 0
M  V30 5312 H 484.957 -3.16798 2.88682 0
M  V30 5313 H 489.141 -3.11221 3.86595 0
M  V30 5314 H 484.397 -3.0845 5.27891 0
M  V30 5315 H 488.571 -3.04039 6.26525 0
M  V30 5316 H 486.198 -3.02186 6.97558 0
M  V30 5317 N 487.773 -1.03688 -1.18687 0
M  V30 5318 C 488.998 -0.757819 -1.93059 0
M  V30 5319 C 489.423 0.678353 -1.75442 0
M  V30 5320 O 488.781 1.46938 -1.06203 0
M  V30 5321 C 488.829 -1.12423 -3.42627 0
M  V30 5322 O 487.933 -0.247505 -4.11657 0
M  V30 5323 H 487.274 -0.279245 -0.602427 0
M  V30 5324 H 489.804 -1.3857 -1.5053 0
M  V30 5325 H 489.814 -1.08454 -3.93322 0
M  V30 5326 H 488.489 -2.17049 -3.54771 0
M  V30 5327 H 487.066 -0.34649 -3.71287 0
M  V30 5328 N 489.251 1.34841 -0.815825 0
M  V30 5329 C 490.499 1.98107 -0.399744 0
M  V30 5330 C 490.82 1.65019 1.03894 0
M  V30 5331 O 490.09 0.937311 1.72021 0
M  V30 5332 H 488.67 0.732827 -0.144823 0
M  V30 5333 H 491.332 1.64599 -1.0437 0
M  V30 5334 H 490.428 3.07856 -0.512965 0
M  V30 5335 N 490.729 0.570148 1.46925 0
M  V30 5336 C 491.639 -0.173061 2.33961 0
M  V30 5337 C 492.655 -0.898825 1.48987 0
M  V30 5338 O 493.831 -0.864825 1.81887 0
M  V30 5339 C 490.896 -1.18177 3.25937 0
M  V30 5340 C 489.957 -0.462041 4.26806 0
M  V30 5341 C 489.19 -1.4227 5.14388 0
M  V30 5342 O 489.413 -2.65842 5.04662 0
M  V30 5343 O 488.347 -0.940127 5.94513 0
M  V30 5344 H 492.173 0.541216 2.98839 0
M  V30 5345 H 489.758 0.330647 1.45695 0
M  V30 5346 H 491.64 -1.76372 3.82715 0
M  V30 5347 H 490.315 -1.87774 2.63671 0
M  V30 5348 H 489.222 0.161429 3.73752 0
M  V30 5349 H 490.555 0.192719 4.91823 0
M  V30 5350 N 492.207 -1.54576 0.307264 0
M  V30 5351 C 493.456 -1.99442 -0.300976 0
M  V30 5352 C 493.769 -1.19928 -1.5452 0
M  V30 5353 O 494.975 -1.55092 -2.22842 0
M  V30 5354 C 493.431 -3.55084 -0.586809 0
M  V30 5355 C 493.039 -4.43413 0.639438 0
M  V30 5356 C 494.783 -4.0846 -1.1559 0
M  V30 5357 C 492.69 -5.90499 0.326411 0
M  V30 5358 H 491.62 -0.744986 -0.116238 0
M  V30 5359 H 494.271 -1.787 0.416947 0
M  V30 5360 H 492.653 -3.71749 -1.36449 0
M  V30 5361 H 493.827 -4.38522 1.41545 0
M  V30 5362 H 492.142 -4.00842 1.1276 0
M  V30 5363 H 494.739 -5.15926 -1.40445 0
M  V30 5364 H 495.082 -3.59443 -2.10015 0
M  V30 5365 H 495.615 -3.95362 -0.439778 0
M  V30 5366 H 492.354 -6.43676 1.23939 0
M  V30 5367 H 491.874 -5.98382 -0.412212 0
M  V30 5368 H 493.553 -6.46962 -0.0697393 0
M  V30 5369 N 493.685 -0.035106 -1.57561 0
M  V30 5370 C 494.595 0.960295 -2.14046 0
M  V30 5371 C 495.611 1.3529 -1.0942 0
M  V30 5372 O 496.787 1.43309 -1.41508 0
M  V30 5373 C 493.852 2.22214 -2.66124 0
M  V30 5374 C 492.913 1.8894 -3.85487 0
M  V30 5375 C 492.146 3.09109 -4.35072 0
M  V30 5376 O 492.369 4.21963 -3.83802 0
M  V30 5377 O 491.303 2.91058 -5.26848 0
M  V30 5378 H 495.129 0.509983 -2.99387 0
M  V30 5379 H 492.714 0.185853 -1.48239 0
M  V30 5380 H 494.596 2.96279 -2.99661 0
M  V30 5381 H 493.271 2.66414 -1.83862 0
M  V30 5382 H 492.178 1.12241 -3.56865 0
M  V30 5383 H 493.511 1.49551 -4.6893 0
M  V30 5384 N 495.163 1.55791 0.238111 0
M  V30 5385 C 496.093 1.94068 1.29846 0
M  V30 5386 C 497.074 0.806726 1.49753 0
M  V30 5387 O 498.259 1.06772 1.62214 0
M  V30 5388 C 495.389 2.24302 2.65153 0
M  V30 5389 C 494.343 3.40032 2.59927 0
M  V30 5390 C 493.669 3.55829 3.99111 0
M  V30 5391 C 494.969 4.75476 2.16148 0
M  V30 5392 H 496.663 2.82887 0.980563 0
M  V30 5393 H 494.209 1.36105 0.470253 0
M  V30 5394 H 496.162 2.4967 3.39475 0
M  V30 5395 H 494.886 1.32318 2.98596 0
M  V30 5396 H 493.545 3.14687 1.88063 0
M  V30 5397 H 493.193 2.6125 4.29834 0
M  V30 5398 H 492.893 4.3366 3.96501 0
M  V30 5399 H 494.417 3.83528 4.7512 0
M  V30 5400 H 495.831 5.00158 2.80205 0
M  V30 5401 H 494.228 5.56472 2.24631 0
M  V30 5402 H 495.298 4.71946 1.11333 0
M  V30 5403 N 496.642 -0.504142 1.49319 0
M  V30 5404 C 498.058 -0.835039 1.36012 0
M  V30 5405 C 498.258 -1.97674 0.390808 0
M  V30 5406 O 497.314 -2.51867 -0.178655 0
M  V30 5407 C 498.627 -1.17821 2.76656 0
M  V30 5408 C 500.175 -1.2866 2.85334 0
M  V30 5409 C 500.65 -1.66307 4.26739 0
M  V30 5410 N 502.141 -1.73362 4.29534 0
M  V30 5411 C 502.876 -2.0393 5.35911 0
M  V30 5412 N 502.372 -2.32744 6.52535 0
M  V30 5413 N 504.165 -2.05155 5.23324 0
M  V30 5414 H 496.316 0.248764 2.10938 0
M  V30 5415 H 498.579 0.0486962 0.946748 0
M  V30 5416 H 498.285 -0.412682 3.4927 0
M  V30 5417 H 498.159 -2.12239 3.11825 0
M  V30 5418 H 500.546 -2.04285 2.1296 0
M  V30 5419 H 500.627 -0.323004 2.53752 0
M  V30 5420 H 500.271 -0.91234 4.99639 0
M  V30 5421 H 500.201 -2.63761 4.55782 0
M  V30 5422 H 502.692 -1.53268 3.45424 0
M  V30 5423 H 503.005 -2.55248 7.2943 0
M  V30 5424 H 501.35 -2.30207 6.55767 0
M  V30 5425 H 504.541 -1.82119 4.3122 0
M  V30 5426 H 504.714 -2.28644 6.06322 0
M  V30 5427 N 498.12 -1.38341 -0.754957 0
M  V30 5428 C 499.053 -1.29837 -1.87663 0
M  V30 5429 C 500.031 -0.175659 -1.61648 0
M  V30 5430 O 501.215 -0.352745 -1.8517 0
M  V30 5431 C 498.342 -1.01141 -3.23246 0
M  V30 5432 C 497.388 -2.15331 -3.6815 0
M  V30 5433 S 498.221 -3.77459 -3.79849 0
M  V30 5434 C 499.377 -3.50948 -5.18253 0
M  V30 5435 H 499.61 -2.24771 -1.9459 0
M  V30 5436 H 497.143 -1.24161 -0.917796 0
M  V30 5437 H 499.101 -0.852687 -4.01546 0
M  V30 5438 H 497.762 -0.0792784 -3.14 0
M  V30 5439 H 496.955 -1.90795 -4.6649 0
M  V30 5440 H 496.557 -2.27304 -2.97 0
M  V30 5441 H 498.849 -3.06977 -6.03963 0
M  V30 5442 H 499.792 -4.48677 -5.47809 0
M  V30 5443 H 500.2 -2.85492 -4.86985 0
M  V30 5444 N 499.598 0.982988 -1.23187 0
M  V30 5445 C 500.846 1.72052 -1.06031 0
M  V30 5446 C 501.167 1.90769 0.404019 0
M  V30 5447 O 500.437 1.47446 1.28982 0
M  V30 5448 H 499.017 0.637499 -0.389363 0
M  V30 5449 H 501.679 1.18338 -1.54862 0
M  V30 5450 H 500.775 2.7111 -1.54615 0
M  V30 5451 N 501.076 1.04316 1.18135 0
M  V30 5452 C 502.024 0.630175 2.23901 0
M  V30 5453 C 503.018 -0.344254 1.65865 0
M  V30 5454 O 504.224 -0.211273 1.78756 0
M  V30 5455 H 500.599 0.185578 0.728742 0
M  V30 5456 H 502.57 1.53253 2.56039 0
M  V30 5457 C 501.319 0.011666 3.47698 0
M  V30 5458 H 500.642 0.752526 3.92654 0
M  V30 5459 H 502.082 -0.240046 4.2332 0
M  V30 5460 C 500.541 -1.23913 3.13285 0
M  V30 5461 O 501.071 -2.32959 3.27251 0
M  V30 5462 N 499.277 -1.13338 2.67587 0
M  V30 5463 H 498.824 -0.246006 2.56423 0
M  V30 5464 H 498.782 -1.97116 2.44934 0
M  V30 5465 N 502.554 -1.34406 0.822964 0
M  V30 5466 C 503.464 -2.33298 0.246838 0
M  V30 5467 C 504.48 -1.62625 -0.618797 0
M  V30 5468 O 505.656 -1.94391 -0.526685 0
M  V30 5469 C 502.721 -3.41785 -0.581731 0
M  V30 5470 C 501.782 -4.28206 0.306309 0
M  V30 5471 C 501.015 -5.31512 -0.48281 0
M  V30 5472 O 501.238 -5.43973 -1.71607 0
M  V30 5473 O 500.172 -6.01749 0.134884 0
M  V30 5474 H 503.998 -2.84401 1.06534 0
M  V30 5475 H 501.583 -1.37466 0.585108 0
M  V30 5476 H 503.465 -4.08028 -1.05313 0
M  V30 5477 H 502.14 -2.92925 -1.37756 0
M  V30 5478 H 501.047 -3.64885 0.825199 0
M  V30 5479 H 502.38 -4.80507 1.06649 0
M  V30 5480 N 504.032 -0.577932 -1.46621 0
M  V30 5481 C 505.257 -0.0652536 -2.07297 0
M  V30 5482 C 505.682 1.22828 -1.4246 0
M  V30 5483 O 505.04 1.74075 -0.506718 0
M  V30 5484 C 505.088 0.0920589 -3.60482 0
M  V30 5485 O 504.192 1.14972 -3.96049 0
M  V30 5486 H 503.533 -0.06065 -0.661224 0
M  V30 5487 H 506.063 -0.799515 -1.88332 0
M  V30 5488 H 506.073 0.299741 -4.06897 0
M  V30 5489 H 504.748 -0.852612 -4.07067 0
M  V30 5490 H 503.325 0.920879 -3.61351 0
M  V30 5491 N 505.51 1.54411 -0.315457 0
M  V30 5492 C 506.42 2.27737 0.56329 0
M  V30 5493 C 507.436 1.31787 1.13614 0
M  V30 5494 O 508.612 1.64791 1.15784 0
M  V30 5495 C 505.677 3.01478 1.71207 0
M  V30 5496 C 504.738 4.12997 1.17185 0
M  V30 5497 C 503.971 4.83212 2.26588 0
M  V30 5498 O 504.194 4.52884 3.46775 0
M  V30 5499 O 503.128 5.70299 1.92463 0
M  V30 5500 H 506.954 3.03683 -0.0319614 0
M  V30 5501 H 504.539 1.49178 -0.0814188 0
M  V30 5502 H 506.421 3.47683 2.38106 0
M  V30 5503 H 505.096 2.28414 2.29366 0
M  V30 5504 H 504.003 3.71159 0.468174 0
M  V30 5505 H 505.336 4.8808 0.635501 0
M  V30 5506 N 506.988 0.0434614 1.5754 0
M  V30 5507 C 507.898 -0.94893 2.14552 0
M  V30 5508 C 508.914 -1.34707 1.10136 0
M  V30 5509 O 510.09 -1.42557 1.42266 0
M  V30 5510 C 507.155 -2.208 2.67298 0
M  V30 5511 C 506.216 -1.86893 3.86484 0
M  V30 5512 C 505.449 -3.06797 4.36705 0
M  V30 5513 O 505.672 -4.19921 3.86034 0
M  V30 5514 O 504.606 -2.8826 5.28384 0
M  V30 5515 H 508.432 -0.494099 2.99654 0
M  V30 5516 H 506.017 -0.177989 1.48336 0
M  V30 5517 H 507.899 -2.94686 3.01228 0
M  V30 5518 H 506.574 -2.65436 1.85272 0
M  V30 5519 H 505.481 -1.10347 3.57455 0
M  V30 5520 H 506.814 -1.47062 4.69716 0
M  V30 5521 N 508.466 -1.55915 -0.229846 0
M  V30 5522 C 509.712 -1.78807 -0.956868 0
M  V30 5523 C 510.045 -0.611687 -1.84315 0
M  V30 5524 O 509.32 0.389398 -1.90562 0
M  V30 5525 C 509.603 -3.11718 -1.80288 0
M  V30 5526 C 509.456 -4.3979 -0.943649 0
M  V30 5527 C 510.775 -3.40999 -2.78222 0
M  V30 5528 H 507.894 -0.6505 -0.346437 0
M  V30 5529 H 510.536 -1.88648 -0.226252 0
M  V30 5530 H 508.686 -3.03459 -2.42579 0
M  V30 5531 H 510.358 -4.60059 -0.338121 0
M  V30 5532 H 508.601 -4.33086 -0.248705 0
M  V30 5533 H 509.272 -5.29208 -1.5698 0
M  V30 5534 H 511.748 -3.49332 -2.26067 0
M  V30 5535 H 510.624 -4.35183 -3.34526 0
M  V30 5536 H 510.885 -2.62754 -3.55546 0
M  V30 5537 N 509.944 0.496216 -1.49584 0
M  V30 5538 C 511.19 1.25189 -1.59548 0
M  V30 5539 C 511.523 1.9212 -0.283466 0
M  V30 5540 O 510.798 1.80947 0.713324 0
M  V30 5541 C 511.081 2.31516 -2.75812 0
M  V30 5542 C 510.934 1.69054 -4.16822 0
M  V30 5543 C 512.253 3.3304 -2.87702 0
M  V30 5544 H 509.372 0.45379 -0.580727 0
M  V30 5545 H 512.014 0.549327 -1.81886 0
M  V30 5546 H 510.164 2.91438 -2.56897 0
M  V30 5547 H 511.836 1.12923 -4.47265 0
M  V30 5548 H 510.079 0.994485 -4.22247 0
M  V30 5549 H 510.75 2.462 -4.94054 0
M  V30 5550 H 513.226 2.83114 -3.04936 0
M  V30 5551 H 512.102 4.04794 -3.7072 0
M  V30 5552 H 512.363 3.95655 -1.97255 0
M  V30 5553 N 511.423 1.38739 0.74761 0
M  V30 5554 C 512.672 1.3459 1.50228 0
M  V30 5555 C 512.985 -0.0595592 1.95509 0
M  V30 5556 O 514.191 -0.22361 2.70578 0
M  V30 5557 C 512.647 2.36377 2.71393 0
M  V30 5558 C 512.255 3.82573 2.33113 0
M  V30 5559 C 513.999 2.41281 3.49262 0
M  V30 5560 C 511.906 4.76032 3.50924 0
M  V30 5561 H 510.836 0.500312 0.564096 0
M  V30 5562 H 513.487 1.64324 0.8167 0
M  V30 5563 H 511.869 1.99694 3.41962 0
M  V30 5564 H 513.043 4.28227 1.70171 0
M  V30 5565 H 511.358 3.80844 1.68365 0
M  V30 5566 H 513.955 3.08301 4.36869 0
M  V30 5567 H 514.298 1.43353 3.9084 0
M  V30 5568 H 514.831 2.76793 2.85711 0
M  V30 5569 H 511.57 5.75177 3.14408 0
M  V30 5570 H 511.09 4.35066 4.12889 0
M  V30 5571 H 512.769 4.94331 4.17427 0
M  V30 5572 N 512.901 -0.976442 1.23707 0
M  V30 5573 C 514.129 -1.75341 1.09833 0
M  V30 5574 C 514.544 -1.8553 -0.349885 0
M  V30 5575 O 513.901 -1.33732 -1.24185 0
M  V30 5576 C 513.952 -3.17833 1.72233 0
M  V30 5577 O 513.673 -3.08167 3.11391 0
M  V30 5578 C 515.174 -4.11906 1.63853 0
M  V30 5579 H 512.394 -0.550137 0.384175 0
M  V30 5580 H 514.938 -1.2265 1.63638 0
M  V30 5581 H 513.093 -3.67538 1.22452 0
M  V30 5582 H 513.507 -3.97897 3.41729 0
M  V30 5583 H 514.981 -5.09579 2.12211 0
M  V30 5584 H 515.458 -4.35109 0.598092 0
M  V30 5585 H 516.064 -3.68107 2.13019 0
M  V30 5586 N 514.379 -1.04941 -1.1758 0
M  V30 5587 C 515.326 -0.648155 -2.21512 0
M  V30 5588 C 516.296 0.348431 -1.62404 0
M  V30 5589 O 517.481 0.240419 -1.89279 0
M  V30 5590 C 514.621 -0.0264291 -3.4509 0
M  V30 5591 C 513.734 -1.07154 -4.185 0
M  V30 5592 C 512.869 -0.417403 -5.29558 0
M  V30 5593 C 511.908 -1.447 -5.94751 0
M  V30 5594 N 511.045 -0.817203 -6.97328 0
M  V30 5595 H 515.885 -1.53891 -2.55189 0
M  V30 5596 H 513.422 -0.769699 -1.25356 0
M  V30 5597 H 515.38 0.351456 -4.15717 0
M  V30 5598 H 514.01 0.827802 -3.12005 0
M  V30 5599 H 513.062 -1.56728 -3.46613 0
M  V30 5600 H 514.374 -1.8532 -4.63096 0
M  V30 5601 H 513.528 0.0142061 -6.06698 0
M  V30 5602 H 512.267 0.396265 -4.86087 0
M  V30 5603 H 511.272 -1.88865 -5.16343 0
M  V30 5604 H 512.497 -2.26252 -6.40302 0
M  V30 5605 H 510.443 -0.0239995 -6.55996 0
M  V30 5606 H 510.36 -1.53644 -7.40223 0
M  V30 5607 H 511.628 -0.410283 -7.7842 0
M  V30 5608 N 515.857 1.33968 -0.830081 0
M  V30 5609 C 517.082 2.02813 -0.433796 0
M  V30 5610 C 517.507 1.62076 0.954614 0
M  V30 5611 O 516.865 0.808955 1.62252 0
M  V30 5612 C 516.913 3.56348 -0.552115 0
M  V30 5613 O 516.017 4.10202 0.425191 0
M  V30 5614 H 515.358 0.639817 -0.177567 0
M  V30 5615 H 517.888 1.7106 -1.12248 0
M  V30 5616 H 517.898 4.05722 -0.430513 0
M  V30 5617 H 516.573 3.85344 -1.56471 0
M  V30 5618 H 515.15 3.71979 0.261878 0
M  V30 5619 N 517.335 0.585699 1.46312 0
M  V30 5620 C 518.751 0.247607 1.57668 0
M  V30 5621 C 518.951 -1.25007 1.58037 0
M  V30 5622 O 518.007 -2.03196 1.49893 0
M  V30 5623 C 519.32 0.899456 2.86933 0
M  V30 5624 C 520.868 0.873326 3.00569 0
M  V30 5625 C 521.343 1.50477 4.32574 0
M  V30 5626 N 522.834 1.46925 4.3928 0
M  V30 5627 C 523.569 1.92719 5.40044 0
M  V30 5628 N 523.065 2.46499 6.47464 0
M  V30 5629 N 524.858 1.83617 5.31264 0
M  V30 5630 H 517.009 1.55841 1.44317 0
M  V30 5631 H 519.272 0.651564 0.688599 0
M  V30 5632 H 518.978 1.95313 2.92482 0
M  V30 5633 H 518.852 0.409476 3.74971 0
M  V30 5634 H 521.239 -0.171736 2.946 0
M  V30 5635 H 521.32 1.40136 2.13999 0
M  V30 5636 H 520.964 2.54905 4.39302 0
M  V30 5637 H 520.894 0.951944 5.17924 0
M  V30 5638 H 523.385 1.07616 3.62253 0
M  V30 5639 H 523.698 2.79291 7.20567 0
M  V30 5640 H 522.043 2.50526 6.48276 0
M  V30 5641 H 525.234 1.41358 4.46246 0
M  V30 5642 H 525.407 2.19622 6.09648 0
M  V30 5643 N 518.813 -1.54241 0.323641 0
M  V30 5644 C 520.09 -1.92741 -0.333181 0
M  V30 5645 C 520.47 -1.25326 -1.69872 0
M  V30 5646 O 519.818 -0.396991 -2.25025 0
M  V30 5647 C 520.028 -3.46399 -0.425322 0
M  V30 5648 C 521.376 -4.19029 -0.68557 0
M  V30 5649 O 522.4 -3.52555 -0.50824 0
M  V30 5650 O 521.259 -5.36751 -1.02767 0
M  V30 5651 H 518.353 -0.804811 -0.190286 0
M  V30 5652 H 520.899 -1.65542 0.373361 0
M  V30 5653 H 519.671 -3.87643 0.533737 0
M  V30 5654 H 519.294 -3.79704 -1.17944 0
M  V30 5655 N 520.291 -0.0518155 -1.57515 0
M  V30 5656 C 521.201 0.937539 -2.15052 0
M  V30 5657 C 522.217 1.34121 -1.10849 0
M  V30 5658 O 523.393 1.418 -1.4302 0
M  V30 5659 C 520.458 2.19379 -2.68466 0
M  V30 5660 C 519.519 1.84841 -3.87469 0
M  V30 5661 C 518.752 3.04477 -4.38326 0
M  V30 5662 O 518.975 4.17868 -3.88256 0
M  V30 5663 O 517.909 2.85453 -5.29906 0
M  V30 5664 H 521.735 0.478201 -2.99912 0
M  V30 5665 H 519.32 0.17012 -1.48428 0
M  V30 5666 H 521.202 2.93084 -3.02787 0
M  V30 5667 H 519.877 2.64449 -1.86677 0
M  V30 5668 H 518.784 1.08449 -3.58036 0
M  V30 5669 H 520.117 1.44569 -4.7049 0
M  V30 5670 N 521.769 1.56035 0.221574 0
M  V30 5671 C 522.699 1.95434 1.2778 0
M  V30 5672 C 523.68 0.822564 1.48889 0
M  V30 5673 O 524.865 1.08486 1.61072 0
M  V30 5674 C 521.995 2.27102 2.62759 0
M  V30 5675 C 520.949 3.4277 2.56306 0
M  V30 5676 C 520.275 3.60043 3.95314 0
M  V30 5677 C 521.575 4.77742 2.11093 0
M  V30 5678 H 523.269 2.83912 0.950504 0
M  V30 5679 H 520.815 1.36596 0.455791 0
M  V30 5680 H 522.768 2.53256 3.36807 0
M  V30 5681 H 521.492 1.35478 2.97176 0
M  V30 5682 H 520.151 3.16664 1.84715 0
M  V30 5683 H 519.799 2.65794 4.27039 0
M  V30 5684 H 519.499 4.37841 3.91879 0
M  V30 5685 H 521.023 3.88545 4.71025 0
M  V30 5686 H 522.437 5.03102 2.74885 0
M  V30 5687 H 520.834 5.58823 2.18716 0
M  V30 5688 H 521.904 4.731 1.06321 0
M  V30 5689 N 523.247 -0.488276 1.49845 0
M  V30 5690 C 524.496 -1.23826 1.59217 0
M  V30 5691 C 524.809 -1.93439 0.289966 0
M  V30 5692 O 526.015 -2.70229 0.262382 0
M  V30 5693 C 524.471 -2.24902 2.80976 0
M  V30 5694 C 524.079 -1.6117 4.18005 0
M  V30 5695 C 525.823 -3.00648 2.99685 0
M  V30 5696 C 523.73 -2.60431 5.3097 0
M  V30 5697 H 522.66 -0.465858 0.592868 0
M  V30 5698 H 525.311 -0.510645 1.76252 0
M  V30 5699 H 523.693 -3.0088 2.57463 0
M  V30 5700 H 524.867 -0.910968 4.51706 0
M  V30 5701 H 523.182 -0.97767 4.0476 0
M  V30 5702 H 525.779 -3.74903 3.81251 0
M  V30 5703 H 526.122 -3.5902 2.10738 0
M  V30 5704 H 526.655 -2.31784 3.23297 0
M  V30 5705 H 523.394 -2.06823 6.22017 0
M  V30 5706 H 522.914 -3.28707 5.01709 0
M  V30 5707 H 524.593 -3.22606 5.60834 0
M  V30 5708 N 524.725 -1.39134 -0.740242 0
M  V30 5709 C 525.971 -1.36273 -1.50192 0
M  V30 5710 C 526.304 0.0430136 -1.94152 0
M  V30 5711 O 525.579 1.00691 -1.66408 0
M  V30 5712 C 525.862 -2.33041 -2.74525 0
M  V30 5713 C 525.715 -3.82535 -2.36617 0
M  V30 5714 C 527.034 -2.27723 -3.76604 0
M  V30 5715 H 524.153 -0.496323 -0.544823 0
M  V30 5716 H 526.795 -1.70085 -0.846815 0
M  V30 5717 H 524.945 -2.04337 -3.30422 0
M  V30 5718 H 526.617 -4.21967 -1.86391 0
M  V30 5719 H 524.86 -3.99565 -1.68909 0
M  V30 5720 H 525.531 -4.45723 -3.2563 0
M  V30 5721 H 528.007 -2.53091 -3.30279 0
M  V30 5722 H 526.883 -2.97519 -4.61274 0
M  V30 5723 H 527.144 -1.28049 -4.2315 0
M  V30 5724 N 526.204 0.969867 -1.24223 0
M  V30 5725 C 527.481 1.68774 -0.988664 0
M  V30 5726 C 527.861 2.05342 0.489673 0
M  V30 5727 O 527.209 1.75486 1.46345 0
M  V30 5728 C 527.419 2.92135 -1.90941 0
M  V30 5729 C 528.767 3.64422 -2.17903 0
M  V30 5730 O 529.791 3.02188 -1.88576 0
M  V30 5731 O 528.65 4.76446 -2.67697 0
M  V30 5732 H 525.744 0.737736 -0.37373 0
M  V30 5733 H 528.29 1.02415 -1.35312 0
M  V30 5734 H 527.062 2.61788 -2.90831 0
M  V30 5735 H 526.685 3.66228 -1.54798 0
M  V30 5736 N 527.682 1.05563 1.17022 0
M  V30 5737 C 528.91 0.78845 1.91288 0
M  V30 5738 C 529.325 -0.656318 1.77025 0
M  V30 5739 O 528.682 -1.44869 1.10992 0
M  V30 5740 C 528.733 1.16444 3.42232 0
M  V30 5741 O 528.454 2.5525 3.5606 0
M  V30 5742 C 529.955 0.923937 4.33565 0
M  V30 5743 H 527.175 0.286389 0.606813 0
M  V30 5744 H 529.719 1.4073 1.48375 0
M  V30 5745 H 527.874 0.590266 3.82877 0
M  V30 5746 H 528.288 2.70097 4.49609 0
M  V30 5747 H 529.762 1.23672 5.37968 0
M  V30 5748 H 530.239 -0.140688 4.38975 0
M  V30 5749 H 530.845 1.48214 3.98639 0
M  V30 5750 N 529.16 -1.33526 0.837174 0
M  V30 5751 C 530.388 -2.02047 0.445494 0
M  V30 5752 C 530.803 -1.62995 -0.952788 0
M  V30 5753 O 530.16 -0.842447 -1.61892 0
M  V30 5754 C 530.211 -3.57221 0.554577 0
M  V30 5755 O 529.932 -3.94863 1.89776 0
M  V30 5756 C 531.433 -4.43012 0.159634 0
M  V30 5757 H 528.653 -0.647221 0.177048 0
M  V30 5758 H 531.197 -1.70492 1.12928 0
M  V30 5759 H 529.352 -3.87315 -0.0812781 0
M  V30 5760 H 529.766 -4.89569 1.88208 0
M  V30 5761 H 531.24 -5.51253 0.28701 0
M  V30 5762 H 531.717 -4.29916 -0.898289 0
M  V30 5763 H 532.323 -4.18274 0.769855 0
M  V30 5764 N 530.638 -0.59345 -1.46 0
M  V30 5765 C 532.054 -0.255965 -1.57534 0
M  V30 5766 C 532.254 1.24167 -1.58697 0
M  V30 5767 O 531.31 2.02398 -1.50968 0
M  V30 5768 C 532.623 -0.91466 -2.86451 0
M  V30 5769 C 534.171 -0.889253 -3.00102 0
M  V30 5770 C 534.646 -1.52769 -4.3177 0
M  V30 5771 N 536.137 -1.49253 -4.38495 0
M  V30 5772 C 536.872 -1.9558 -5.39014 0
M  V30 5773 N 536.368 -2.49929 -6.46148 0
M  V30 5774 N 538.161 -1.86432 -5.30282 0
M  V30 5775 H 530.312 -1.56604 -1.43489 0
M  V30 5776 H 532.575 -0.655207 -0.685133 0
M  V30 5777 H 532.281 -1.96861 -2.91442 0
M  V30 5778 H 532.155 -0.429356 -3.74748 0
M  V30 5779 H 534.542 0.156111 -2.94687 0
M  V30 5780 H 534.623 -1.41268 -2.13253 0
M  V30 5781 H 534.267 -2.57231 -4.37944 0
M  V30 5782 H 534.197 -0.979398 -5.17412 0
M  V30 5783 H 536.688 -1.09536 -3.61677 0
M  V30 5784 H 537.001 -2.83109 -7.19075 0
M  V30 5785 H 535.346 -2.53961 -6.46938 0
M  V30 5786 H 538.537 -1.43722 -4.4549 0
M  V30 5787 H 538.71 -2.22852 -6.08474 0
M  V30 5788 N 532.116 1.54067 -0.331816 0
M  V30 5789 C 533.341 2.05599 0.272705 0
M  V30 5790 C 533.766 1.2059 1.44359 0
M  V30 5791 O 533.124 0.216907 1.79998 0
M  V30 5792 C 533.172 3.54188 0.677021 0
M  V30 5793 O 532.276 3.72082 1.77844 0
M  V30 5794 H 531.617 0.662286 0.0476801 0
M  V30 5795 H 534.147 1.98826 -0.482624 0
M  V30 5796 H 534.157 3.96608 0.957415 0
M  V30 5797 H 532.832 4.15513 -0.179325 0
M  V30 5798 H 531.409 3.41566 1.49622 0
M  V30 5799 N 533.594 0.0601682 1.57485 0
M  V30 5800 C 534.842 -0.610386 1.92662 0
M  V30 5801 C 535.163 -1.70849 0.939981 0
M  V30 5802 O 534.433 -1.95895 -0.0137455 0
M  V30 5803 H 533.013 -0.228457 0.711208 0
M  V30 5804 H 535.675 0.115288 1.94559 0
M  V30 5805 H 534.771 -1.0432 2.94149 0
M  V30 5806 N 535.072 -1.5615 -0.213296 0
M  V30 5807 C 536.318 -1.79812 -0.937849 0
M  V30 5808 C 536.651 -0.631201 -1.83656 0
M  V30 5809 O 535.926 0.369165 -1.90964 0
M  V30 5810 C 536.209 -3.13613 -1.76972 0
M  V30 5811 C 536.062 -4.40766 -0.89695 0
M  V30 5812 C 537.381 -3.43931 -2.7459 0
M  V30 5813 H 534.5 -0.654138 -0.339518 0
M  V30 5814 H 537.142 -1.88877 -0.20623 0
M  V30 5815 H 535.292 -3.06015 -2.39347 0
M  V30 5816 H 536.964 -4.60392 -0.289306 0
M  V30 5817 H 535.207 -4.33326 -0.202756 0
M  V30 5818 H 535.878 -5.30843 -1.51358 0
M  V30 5819 H 538.354 -3.5171 -2.22349 0
M  V30 5820 H 537.23 -4.38706 -3.29891 0
M  V30 5821 H 537.491 -2.6651 -3.52739 0
M  V30 5822 N 536.55 0.480323 -1.50102 0
M  V30 5823 C 537.775 1.26126 -1.64642 0
M  V30 5824 C 538.2 1.85257 -0.325823 0
M  V30 5825 O 537.558 1.66854 0.709194 0
M  V30 5826 C 537.606 2.35243 -2.73301 0
M  V30 5827 O 536.71 3.39646 -2.33911 0
M  V30 5828 H 536.051 0.371463 -0.550374 0
M  V30 5829 H 538.581 0.572696 -1.96421 0
M  V30 5830 H 538.591 2.80695 -2.96098 0
M  V30 5831 H 537.266 1.91574 -3.6915 0
M  V30 5832 H 535.843 2.99969 -2.21525 0
M  V30 5833 N 538.028 1.39524 0.732853 0
M  V30 5834 C 539.276 1.36594 1.48951 0
M  V30 5835 C 539.597 -0.0367507 1.94965 0
M  V30 5836 O 538.867 -0.988391 1.69138 0
M  V30 5837 H 537.447 0.502673 0.552566 0
M  V30 5838 H 540.109 1.74411 0.869869 0
M  V30 5839 H 539.205 2.03 2.3706 0
M  V30 5840 N 539.506 -0.963266 1.24736 0
M  V30 5841 C 540.754 -1.70343 1.08755 0
M  V30 5842 C 541.075 -1.91387 -0.373619 0
M  V30 5843 O 540.345 -1.4948 -1.2662 0
M  V30 5844 H 538.925 -0.631224 0.399456 0
M  V30 5845 H 541.587 -1.15859 1.56725 0
M  V30 5846 H 540.683 -2.68616 1.58909 0
M  V30 5847 N 540.985 -1.06182 -1.16461 0
M  V30 5848 C 541.895 -0.682671 -2.24448 0
M  V30 5849 C 542.911 0.30078 -1.71381 0
M  V30 5850 O 544.087 0.150376 -2.00838 0
M  V30 5851 C 541.152 -0.0737202 -3.46622 0
M  V30 5852 C 540.213 -1.10889 -4.14731 0
M  V30 5853 C 539.446 -0.528908 -5.31073 0
M  V30 5854 O 539.669 0.65868 -5.66584 0
M  V30 5855 O 538.603 -1.26805 -5.88391 0
M  V30 5856 H 542.429 -1.58291 -2.59187 0
M  V30 5857 H 540.014 -0.834013 -1.23954 0
M  V30 5858 H 541.896 0.264192 -4.20571 0
M  V30 5859 H 540.571 0.800015 -3.13658 0
M  V30 5860 H 539.478 -1.49896 -3.42756 0
M  V30 5861 H 540.811 -1.95412 -4.51747 0
M  V30 5862 N 542.463 1.3308 -0.844243 0
M  V30 5863 C 543.709 1.97898 -0.443206 0
M  V30 5864 C 544.042 1.66699 0.99625 0
M  V30 5865 O 543.317 0.949704 1.69738 0
M  V30 5866 C 543.6 3.53801 -0.670606 0
M  V30 5867 C 543.453 3.94667 -2.15772 0
M  V30 5868 C 544.772 4.39936 -0.120226 0
M  V30 5869 H 541.891 0.718861 -0.162504 0
M  V30 5870 H 544.533 1.57633 -1.06075 0
M  V30 5871 H 542.683 3.88229 -0.14496 0
M  V30 5872 H 544.355 3.70469 -2.74865 0
M  V30 5873 H 542.598 3.44203 -2.6402 0
M  V30 5874 H 543.269 5.03275 -2.26757 0
M  V30 5875 H 545.745 4.12183 -0.5696 0
M  V30 5876 H 544.621 5.4803 -0.308984 0
M  V30 5877 H 544.882 4.31184 0.976347 0
M  V30 5878 N 543.941 0.601185 1.45683 0
M  V30 5879 C 545.357 0.264315 1.57396 0
M  V30 5880 C 545.557 -1.23324 1.59353 0
M  V30 5881 O 544.613 -2.01594 1.52039 0
M  V30 5882 C 545.926 0.929839 2.85962 0
M  V30 5883 C 547.474 0.905156 2.99626 0
M  V30 5884 C 547.949 1.55057 4.30954 0
M  V30 5885 N 549.44 1.51576 4.37697 0
M  V30 5886 C 550.175 1.98436 5.37969 0
M  V30 5887 N 549.671 2.53352 6.44813 0
M  V30 5888 N 551.464 1.89242 5.29286 0
M  V30 5889 H 543.615 1.57363 1.42656 0
M  V30 5890 H 545.878 0.658831 0.681649 0
M  V30 5891 H 545.584 1.98404 2.90394 0
M  V30 5892 H 545.458 0.449224 3.74515 0
M  V30 5893 H 547.845 -0.14048 2.94765 0
M  V30 5894 H 547.926 1.42397 2.12501 0
M  V30 5895 H 547.57 2.5955 4.36573 0
M  V30 5896 H 547.5 1.00682 5.16886 0
M  V30 5897 H 549.991 1.11452 3.61091 0
M  V30 5898 H 550.304 2.86918 7.17564 0
M  V30 5899 H 548.649 2.57388 6.45582 0
M  V30 5900 H 551.84 1.46083 4.44722 0
M  V30 5901 H 552.013 2.26075 6.07284 0
M  V30 5902 N 545.419 -1.53889 0.339982 0
M  V30 5903 C 546.366 -2.24902 -0.518452 0
M  V30 5904 C 547.336 -1.24593 -1.09844 0
M  V30 5905 O 548.521 -1.53317 -1.13572 0
M  V30 5906 C 545.661 -3.02262 -1.66529 0
M  V30 5907 C 544.774 -4.17418 -1.11295 0
M  V30 5908 C 543.909 -4.82273 -2.2268 0
M  V30 5909 C 542.948 -5.89503 -1.6478 0
M  V30 5910 N 542.085 -6.48153 -2.69893 0
M  V30 5911 H 546.925 -2.97853 0.0936579 0
M  V30 5912 H 544.462 -1.46986 0.0579924 0
M  V30 5913 H 546.42 -3.45371 -2.3404 0
M  V30 5914 H 545.05 -2.31614 -2.24844 0
M  V30 5915 H 544.102 -3.78976 -0.328886 0
M  V30 5916 H 545.414 -4.94554 -0.649414 0
M  V30 5917 H 544.568 -5.28435 -2.98063 0
M  V30 5918 H 543.307 -4.04552 -2.72376 0
M  V30 5919 H 542.312 -5.42728 -0.879004 0
M  V30 5920 H 543.537 -6.6913 -1.1594 0
M  V30 5921 H 541.483 -5.73298 -3.1885 0
M  V30 5922 H 541.4 -7.20752 -2.28151 0
M  V30 5923 H 542.668 -6.98968 -3.45056 0
M  V30 5924 N 546.897 -0.0685191 -1.57451 0
M  V30 5925 C 548.122 0.613919 -1.98106 0
M  V30 5926 C 548.547 1.62551 -0.946501 0
M  V30 5927 O 547.905 1.81085 0.0882824 0
M  V30 5928 C 547.953 1.26189 -3.378 0
M  V30 5929 O 547.057 2.37773 -3.36954 0
M  V30 5930 H 546.398 0.158163 -0.644888 0
M  V30 5931 H 548.928 -0.142063 -2.04106 0
M  V30 5932 H 548.938 1.60951 -3.74912 0
M  V30 5933 H 547.613 0.520625 -4.12629 0
M  V30 5934 H 546.19 2.04829 -3.11608 0
M  V30 5935 N 548.375 1.56261 0.205012 0
M  V30 5936 C 549.603 1.84141 0.943386 0
M  V30 5937 C 550.018 0.649772 1.77266 0
M  V30 5938 O 549.375 -0.381612 1.78466 0
M  V30 5939 C 549.426 3.10719 1.84759 0
M  V30 5940 O 549.147 4.25286 1.05181 0
M  V30 5941 C 550.648 3.51706 2.69848 0
M  V30 5942 H 547.868 0.611734 0.275721 0
M  V30 5943 H 550.412 2.03364 0.215253 0
M  V30 5944 H 548.567 2.93422 2.52947 0
M  V30 5945 H 548.981 4.97301 1.66709 0
M  V30 5946 H 550.455 4.43266 3.28967 0
M  V30 5947 H 550.932 2.7423 3.43067 0
M  V30 5948 H 551.538 3.71499 2.07047 0
M  V30 5949 N 549.853 -0.472356 1.50355 0
M  V30 5950 C 551.099 -1.22634 1.6152 0
M  V30 5951 C 551.432 -1.91645 0.313995 0
M  V30 5952 O 550.707 -1.82059 -0.684446 0
M  V30 5953 C 550.99 -2.27099 2.7946 0
M  V30 5954 C 550.843 -1.62402 4.19459 0
M  V30 5955 C 552.162 -3.28421 2.92964 0
M  V30 5956 H 549.281 -0.444494 0.587873 0
M  V30 5957 H 551.923 -0.520321 1.82737 0
M  V30 5958 H 550.073 -2.87314 2.61501 0
M  V30 5959 H 551.745 -1.05793 4.49005 0
M  V30 5960 H 549.988 -0.927184 4.23776 0
M  V30 5961 H 550.659 -2.38309 4.97909 0
M  V30 5962 H 553.135 -2.78227 3.09401 0
M  V30 5963 H 552.011 -3.98845 3.77113 0
M  V30 5964 H 552.272 -3.92467 2.03525 0
M  V30 5965 N 551.331 -1.39911 -0.725443 0
M  V30 5966 C 552.241 -1.41688 -1.8698 0
M  V30 5967 C 553.257 -0.310579 -1.71206 0
M  V30 5968 O 554.433 -0.55359 -1.93642 0
M  V30 5969 C 551.498 -1.26811 -3.22676 0
M  V30 5970 C 550.559 -2.47497 -3.50776 0
M  V30 5971 C 549.792 -2.3332 -4.79997 0
M  V30 5972 O 550.015 -1.34175 -5.54394 0
M  V30 5973 O 548.949 -3.22498 -5.08211 0
M  V30 5974 H 552.775 -2.38171 -1.88436 0
M  V30 5975 H 550.36 -1.21128 -0.874548 0
M  V30 5976 H 552.242 -1.20684 -4.03749 0
M  V30 5977 H 550.917 -0.334289 -3.21969 0
M  V30 5978 H 549.824 -2.59201 -2.69751 0
M  V30 5979 H 551.157 -3.39606 -3.5627 0
M  V30 5980 N 552.809 0.956637 -1.25245 0
M  V30 5981 C 554.086 1.67716 -1.00651 0
M  V30 5982 C 554.466 2.0585 0.467866 0
M  V30 5983 O 553.814 1.77029 1.44475 0
M  V30 5984 C 554.024 2.90093 -1.94028 0
M  V30 5985 C 555.372 3.6209 -2.21756 0
M  V30 5986 O 556.396 3.00171 -1.9177 0
M  V30 5987 O 555.255 4.7358 -2.72735 0
M  V30 5988 H 552.349 0.733731 -0.381533 0
M  V30 5989 H 554.895 1.00974 -1.3639 0
M  V30 5990 H 553.667 2.58689 -2.93591 0
M  V30 5991 H 553.29 3.64566 -1.58674 0
M  V30 5992 N 554.287 1.06798 1.15896 0
M  V30 5993 C 555.197 0.694564 2.24083 0
M  V30 5994 C 556.213 -0.291687 1.71538 0
M  V30 5995 O 557.389 -0.139723 2.00915 0
M  V30 5996 C 554.454 0.0921014 3.46578 0
M  V30 5997 C 553.515 1.13087 4.14137 0
M  V30 5998 C 552.748 0.557064 5.30785 0
M  V30 5999 O 552.971 -0.628623 5.66925 0
M  V30 6000 O 551.905 1.29924 5.8771 0
M  V30 6001 H 555.731 1.59663 2.58344 0
M  V30 6002 H 553.316 0.840575 1.2351 0
M  V30 6003 H 555.198 -0.241884 4.20705 0
M  V30 6004 H 553.873 -0.78337 3.14078 0
M  V30 6005 H 552.78 1.51712 3.41957 0
M  V30 6006 H 554.113 1.97805 4.50704 0
M  V30 6007 N 555.766 -1.3263 0.851289 0
M  V30 6008 C 556.729 -2.27247 0.298541 0
M  V30 6009 C 557.729 -1.51467 -0.539847 0
M  V30 6010 O 558.919 -1.7061 -0.351843 0
M  V30 6011 C 556.051 -3.35964 -0.578004 0
M  V30 6012 H 557.244 -2.7765 1.13359 0
M  V30 6013 H 554.797 -1.43245 0.625354 0
M  V30 6014 H 555.532 -2.90823 -1.435 0
M  V30 6015 H 555.317 -3.92094 0.0220539 0
M  V30 6016 H 556.807 -4.06472 -0.957626 0
M  V30 6017 N 557.244 -0.608902 -1.45362 0
M  V30 6018 C 558.472 -0.111013 -2.06602 0
M  V30 6019 C 558.887 1.20516 -1.45332 0
M  V30 6020 O 558.244 1.73437 -0.567978 0
M  V30 6021 C 558.295 0.033688 -3.61484 0
M  V30 6022 O 558.016 -1.23041 -4.20467 0
M  V30 6023 C 559.517 0.562882 -4.39712 0
M  V30 6024 H 556.737 -0.0694453 -0.667397 0
M  V30 6025 H 559.281 -0.837008 -1.86586 0
M  V30 6026 H 557.436 0.710016 -3.80838 0
M  V30 6027 H 557.85 -1.06094 -5.13658 0
M  V30 6028 H 559.324 0.613213 -5.48583 0
M  V30 6029 H 559.801 1.58543 -4.09586 0
M  V30 6030 H 560.407 -0.0794454 -4.25226 0
M  V30 6031 N 558.722 1.53707 -0.348139 0
M  V30 6032 C 559.67 2.26671 0.521808 0
M  V30 6033 C 560.664 1.28988 1.09811 0
M  V30 6034 O 561.87 1.4668 1.04332 0
M  V30 6035 H 558.245 0.728387 0.186968 0
M  V30 6036 H 560.216 2.98176 -0.115563 0
M  V30 6037 C 558.965 3.05591 1.6586 0
M  V30 6038 H 558.288 3.80589 1.22443 0
M  V30 6039 H 559.728 3.59851 2.24239 0
M  V30 6040 C 558.187 2.15366 2.59073 0
M  V30 6041 O 558.717 1.7528 3.61441 0
M  V30 6042 N 556.923 1.80352 2.27863 0
M  V30 6043 H 556.47 2.13149 1.44656 0
M  V30 6044 H 556.428 1.20268 2.90488 0
M  V30 6045 N 560.2 0.0768682 1.57412 0
M  V30 6046 C 561.616 -0.279772 1.57129 0
M  V30 6047 C 561.816 -1.69688 1.08666 0
M  V30 6048 O 560.872 -2.40953 0.754843 0
M  V30 6049 C 562.185 -0.0848055 3.0058 0
M  V30 6050 C 563.733 -0.153954 3.12621 0
M  V30 6051 C 564.208 0.0127946 4.57998 0
M  V30 6052 N 565.699 -0.0426435 4.6318 0
M  V30 6053 C 566.434 0.0618892 5.73367 0
M  V30 6054 N 565.93 0.220229 6.9245 0
M  V30 6055 N 567.723 0.00446072 5.621 0
M  V30 6056 H 559.874 1.00297 1.87228 0
M  V30 6057 H 562.137 0.391565 0.863354 0
M  V30 6058 H 561.843 0.89325 3.40168 0
M  V30 6059 H 561.717 -0.834961 3.67843 0
M  V30 6060 H 564.104 -1.1225 2.72917 0
M  V30 6061 H 564.185 0.627389 2.47987 0
M  V30 6062 H 563.829 0.978128 4.98392 0
M  V30 6063 H 563.759 -0.788016 5.20671 0
M  V30 6064 H 566.25 -0.163226 3.77547 0
M  V30 6065 H 566.563 0.291999 7.72248 0
M  V30 6066 H 564.908 0.255658 6.9453 0
M  V30 6067 H 568.099 -0.117979 4.67951 0
M  V30 6068 H 568.272 0.0893796 6.47938 0
M  V30 6069 N 561.678 -1.56367 -0.196722 0
M  V30 6070 C 562.927 -1.79724 -0.915539 0
M  V30 6071 C 563.24 -0.649804 -1.84491 0
M  V30 6072 O 564.446 -0.767631 -2.60422 0
M  V30 6073 C 562.902 -3.18369 -1.67836 0
M  V30 6074 C 562.51 -4.4091 -0.793897 0
M  V30 6075 C 564.254 -3.51037 -2.38691 0
M  V30 6076 C 562.161 -5.70577 -1.55549 0
M  V30 6077 H 561.091 -0.67013 -0.345604 0
M  V30 6078 H 563.742 -1.82721 -0.168856 0
M  V30 6079 H 562.124 -3.09617 -2.46887 0
M  V30 6080 H 563.298 -4.60781 -0.042163 0
M  V30 6081 H 561.613 -4.15937 -0.19626 0
M  V30 6082 H 564.21 -4.4515 -2.96219 0
M  V30 6083 H 564.553 -2.74704 -3.12799 0
M  V30 6084 H 565.086 -3.61229 -1.66608 0
M  V30 6085 H 561.825 -6.49871 -0.857226 0
M  V30 6086 H 561.345 -5.54726 -2.2812 0
M  V30 6087 H 563.024 -6.11637 -2.10971 0
M  V30 6088 N 563.156 0.464375 -1.50603 0
M  V30 6089 C 564.572 0.798684 -1.38178 0
M  V30 6090 C 564.772 1.96568 -0.44308 0
M  V30 6091 O 563.828 2.52252 0.111814 0
M  V30 6092 C 565.141 1.10444 -2.79683 0
M  V30 6093 C 566.689 1.2105 -2.88645 0
M  V30 6094 C 567.164 1.54934 -4.30998 0
M  V30 6095 N 568.655 1.61913 -4.3398 0
M  V30 6096 C 569.39 1.8965 -5.41129 0
M  V30 6097 N 568.886 2.15361 -6.58477 0
M  V30 6098 N 570.679 1.91207 -5.28579 0
M  V30 6099 H 562.83 -0.304603 -2.10204 0
M  V30 6100 H 565.093 -0.0737804 -0.945125 0
M  V30 6101 H 564.799 0.319934 -3.50242 0
M  V30 6102 H 564.673 2.03896 -3.17342 0
M  V30 6103 H 567.06 1.98567 -2.18301 0
M  V30 6104 H 567.141 0.255613 -2.5452 0
M  V30 6105 H 566.785 0.779549 -5.01882 0
M  V30 6106 H 566.715 2.51584 -4.62615 0
M  V30 6107 H 569.206 1.44055 -3.49366 0
M  V30 6108 H 569.519 2.35818 -7.35941 0
M  V30 6109 H 567.864 2.1274 -6.6164 0
M  V30 6110 H 571.055 1.70622 -4.35897 0
M  V30 6111 H 571.228 2.12488 -6.12171 0
M  V30 6112 N 564.634 1.40294 0.718013 0
M  V30 6113 C 565.597 1.4012 1.81381 0
M  V30 6114 C 566.597 0.295405 1.58063 0
M  V30 6115 O 567.787 0.554187 1.6515 0
M  V30 6116 C 564.919 1.19056 3.19435 0
M  V30 6117 H 566.112 2.37645 1.82933 0
M  V30 6118 H 563.665 1.26107 0.923405 0
M  V30 6119 H 564.4 0.222809 3.23534 0
M  V30 6120 H 564.185 1.99152 3.37758 0
M  V30 6121 H 565.675 1.21716 3.99468 0
M  V30 6122 N 566.112 -0.949982 1.2575 0
M  V30 6123 C 567.359 -1.69515 1.10774 0
M  V30 6124 C 567.687 -1.91316 -0.350479 0
M  V30 6125 O 566.942 -1.48515 -1.27443 0
M  V30 6126 C 567.241 -3.08039 1.81237 0
M  V30 6127 C 566.907 -3.06023 3.31151 0
M  V30 6128 C 565.569 -3.0518 3.72047 0
M  V30 6129 C 567.921 -2.98998 4.26907 0
M  V30 6130 C 565.249 -2.95067 5.07102 0
M  V30 6131 C 567.601 -2.90426 5.61992 0
M  V30 6132 C 566.265 -2.87922 6.0221 0
M  V30 6133 H 565.535 -0.6203 0.405351 0
M  V30 6134 H 568.182 -1.10953 1.56082 0
M  V30 6135 H 566.487 -3.70172 1.28373 0
M  V30 6136 H 568.184 -3.64526 1.67098 0
M  V30 6137 H 564.774 -3.07453 2.98614 0
M  V30 6138 H 568.958 -2.98764 3.963 0
M  V30 6139 H 564.214 -2.915 5.37436 0
M  V30 6140 H 568.388 -2.83952 6.35881 0
M  V30 6141 H 566.015 -2.79841 7.06819 0
M  V30 6142 N 567.59 -1.07411 -1.15328 0
M  V30 6143 C 568.52 -0.716472 -2.22236 0
M  V30 6144 C 569.501 0.296373 -1.67498 0
M  V30 6145 O 570.686 0.168989 -1.93463 0
M  V30 6146 C 567.816 -0.114142 -3.47112 0
M  V30 6147 C 566.77 -1.05421 -4.14814 0
M  V30 6148 C 566.096 -0.314604 -5.33774 0
M  V30 6149 C 567.396 -2.38808 -4.64508 0
M  V30 6150 H 569.09 -1.61029 -2.52408 0
M  V30 6151 H 566.636 -0.775702 -1.21321 0
M  V30 6152 H 568.589 0.148001 -4.2114 0
M  V30 6153 H 567.313 0.814755 -3.16274 0
M  V30 6154 H 565.972 -1.30128 -3.42728 0
M  V30 6155 H 565.62 0.617772 -4.99192 0
M  V30 6156 H 565.32 -0.941209 -5.80013 0
M  V30 6157 H 566.844 -0.0602747 -6.1057 0
M  V30 6158 H 568.258 -2.18424 -5.3006 0
M  V30 6159 H 566.655 -2.97069 -5.21412 0
M  V30 6160 H 567.725 -3.01067 -3.80114 0
M  V30 6161 N 569.068 1.32177 -0.85831 0
M  V30 6162 C 570.345 1.91781 -0.384624 0
M  V30 6163 C 570.725 1.78171 1.13217 0
M  V30 6164 O 570.073 1.18209 1.95548 0
M  V30 6165 C 570.283 3.38414 -0.853047 0
M  V30 6166 C 571.631 4.15542 -0.872359 0
M  V30 6167 O 572.655 3.47148 -0.797926 0
M  V30 6168 O 571.514 5.37678 -0.978009 0
M  V30 6169 H 568.608 0.819259 -0.112886 0
M  V30 6170 H 571.154 1.40923 -0.945453 0
M  V30 6171 H 569.926 3.4228 -1.89632 0
M  V30 6172 H 569.549 3.96683 -0.269874 0
M  V30 6173 N 570.547 0.616602 1.45037 0
M  V30 6174 C 571.772 0.120192 2.07051 0
M  V30 6175 C 572.197 -1.19008 1.45666 0
M  V30 6176 O 571.555 -1.7267 0.552692 0
M  V30 6177 C 571.603 0.00354901 3.606 0
M  V30 6178 O 570.707 -1.04431 3.98958 0
M  V30 6179 H 570.048 0.0781599 0.659384 0
M  V30 6180 H 572.578 0.849167 1.86146 0
M  V30 6181 H 572.588 -0.191754 4.07549 0
M  V30 6182 H 571.263 0.960239 4.04663 0
M  V30 6183 H 569.84 -0.824749 3.63665 0
M  V30 6184 N 572.025 -1.5352 0.356285 0
M  V30 6185 C 573.265 -2.03027 -0.23649 0
M  V30 6186 C 573.629 -1.23813 -1.46746 0
M  V30 6187 O 574.83 -1.63281 -2.13525 0
M  V30 6188 C 573.101 -3.53442 -0.530415 0
M  V30 6189 S 574.66 -4.24836 -1.09819 0
M  V30 6190 H 571.478 -0.707591 -0.0695378 0
M  V30 6191 H 574.08 -1.89077 0.496999 0
M  V30 6192 H 572.784 -4.087 0.373114 0
M  V30 6193 H 572.315 -3.71536 -1.29323 0
M  V30 6194 H 574.33 -4.35228 -2.38309 0
M  V30 6195 N 573.503 -0.0852151 -1.57369 0
M  V30 6196 C 574.728 0.592872 -1.98746 0
M  V30 6197 C 575.153 1.61538 -0.963689 0
M  V30 6198 O 574.511 1.81168 0.069071 0
M  V30 6199 C 574.559 1.22599 -3.39119 0
M  V30 6200 O 573.663 2.34185 -3.39457 0
M  V30 6201 H 573.004 0.151314 -0.646529 0
M  V30 6202 H 575.534 -0.163703 -2.03944 0
M  V30 6203 H 575.544 1.56965 -3.76598 0
M  V30 6204 H 574.219 0.476831 -4.13158 0
M  V30 6205 H 572.796 2.01512 -3.13763 0
M  V30 6206 N 574.981 1.5647 0.188427 0
M  V30 6207 C 576.227 1.81281 0.909124 0
M  V30 6208 C 576.56 0.66034 1.82628 0
M  V30 6209 O 575.835 -0.338737 1.91528 0
M  V30 6210 C 576.118 3.16388 1.7196 0
M  V30 6211 C 575.971 4.42137 0.826714 0
M  V30 6212 C 577.29 3.48256 2.69083 0
M  V30 6213 H 574.409 0.659457 0.329068 0
M  V30 6214 H 577.051 1.89182 0.176156 0
M  V30 6215 H 575.201 3.09784 2.34448 0
M  V30 6216 H 576.873 4.60794 0.216025 0
M  V30 6217 H 575.116 4.33594 0.133792 0
M  V30 6218 H 575.787 5.33184 1.42893 0
M  V30 6219 H 578.263 3.55203 2.16726 0
M  V30 6220 H 577.139 4.43899 3.2287 0
M  V30 6221 H 577.4 2.72088 3.48455 0
M  V30 6222 N 576.459 -0.456382 1.50847 0
M  V30 6223 C 577.369 -1.57805 1.73594 0
M  V30 6224 C 578.385 -1.62599 0.619476 0
M  V30 6225 O 579.561 -1.80195 0.899532 0
M  V30 6226 C 576.626 -2.93926 1.8387 0
M  V30 6227 C 575.687 -2.99402 3.07663 0
M  V30 6228 C 574.92 -4.29031 3.1744 0
M  V30 6229 O 575.143 -5.20358 2.33631 0
M  V30 6230 O 574.077 -4.40401 4.10281 0
M  V30 6231 H 577.903 -1.41531 2.68705 0
M  V30 6232 H 575.488 -0.637422 1.3512 0
M  V30 6233 H 577.37 -3.74747 1.92725 0
M  V30 6234 H 576.045 -3.10368 0.91944 0
M  V30 6235 H 574.952 -2.17606 3.043 0
M  V30 6236 H 576.285 -2.87901 3.99216 0
M  V30 6237 N 577.937 -1.40673 -0.710563 0
M  V30 6238 C 579.184 -1.39222 -1.47049 0
M  V30 6239 C 579.512 0.0037691 -1.945 0
M  V30 6240 O 578.767 0.989224 -1.68857 0
M  V30 6241 C 579.066 -2.33253 -2.70791 0
M  V30 6242 C 578.732 -3.80406 -2.42079 0
M  V30 6243 C 577.394 -4.20496 -2.33959 0
M  V30 6244 C 579.746 -4.73375 -2.18094 0
M  V30 6245 C 577.074 -5.51584 -1.99929 0
M  V30 6246 C 579.426 -6.04768 -1.85576 0
M  V30 6247 C 578.09 -6.43895 -1.75941 0
M  V30 6248 H 577.36 -0.509449 -0.538092 0
M  V30 6249 H 580.007 -1.73363 -0.81348 0
M  V30 6250 H 578.312 -1.92314 -3.41354 0
M  V30 6251 H 580.009 -2.29412 -3.28894 0
M  V30 6252 H 576.599 -3.48645 -2.49288 0
M  V30 6253 H 580.783 -4.43217 -2.23321 0
M  V30 6254 H 576.039 -5.80797 -1.91011 0
M  V30 6255 H 580.213 -6.76318 -1.66033 0
M  V30 6256 H 577.84 -7.45387 -1.4934 0
M  V30 6257 N 579.415 0.9433 -1.26252 0
M  V30 6258 C 580.662 1.68925 -1.11672 0
M  V30 6259 C 580.99 1.91499 0.340329 0
M  V30 6260 O 580.245 1.49189 1.26653 0
M  V30 6261 C 580.544 3.07073 -1.82868 0
M  V30 6262 C 580.21 3.04262 -3.32769 0
M  V30 6263 C 578.872 3.03203 -3.7366 0
M  V30 6264 C 581.224 2.96729 -4.28487 0
M  V30 6265 C 578.552 2.92373 -5.0866 0
M  V30 6266 C 580.904 2.87442 -5.63525 0
M  V30 6267 C 579.568 2.84724 -6.03729 0
M  V30 6268 H 578.838 0.618141 -0.408635 0
M  V30 6269 H 581.485 1.10124 -1.56668 0
M  V30 6270 H 579.79 3.69486 -1.30335 0
M  V30 6271 H 581.487 3.63635 -1.69029 0
M  V30 6272 H 578.077 3.05865 -3.00241 0
M  V30 6273 H 582.261 2.96658 -3.97879 0
M  V30 6274 H 577.517 2.88645 -5.38975 0
M  V30 6275 H 581.691 2.80576 -6.37377 0
M  V30 6276 H 579.318 2.76089 -7.08293 0
M  V30 6277 N 580.893 1.08022 1.14757 0
M  V30 6278 C 582.14 0.807509 1.85703 0
M  V30 6279 C 582.468 -0.666617 1.8272 0
M  V30 6280 O 581.723 -1.50562 1.25018 0
M  V30 6281 C 582.022 1.26964 3.34088 0
M  V30 6282 C 581.688 2.7509 3.57262 0
M  V30 6283 C 580.35 3.15547 3.63296 0
M  V30 6284 C 582.702 3.70667 3.66409 0
M  V30 6285 C 580.03 4.50384 3.75994 0
M  V30 6286 C 582.382 5.05274 3.80632 0
M  V30 6287 C 581.046 5.45342 3.84913 0
M  V30 6288 H 580.316 0.295488 0.679535 0
M  V30 6289 H 582.963 1.35245 1.35577 0
M  V30 6290 H 581.268 0.644216 3.86467 0
M  V30 6291 H 582.965 1.03544 3.87401 0
M  V30 6292 H 579.555 2.42775 3.53212 0
M  V30 6293 H 583.739 3.40533 3.61041 0
M  V30 6294 H 578.995 4.80886 3.77569 0
M  V30 6295 H 583.169 5.79201 3.86652 0
M  V30 6296 H 580.796 6.49823 3.94505 0
M  V30 6297 N 582.371 -1.3172 0.865308 0
M  V30 6298 C 583.319 -2.30569 0.306674 0
M  V30 6299 C 584.313 -1.59317 -0.575724 0
M  V30 6300 O 585.519 -1.73961 -0.462343 0
M  V30 6301 H 581.894 -0.747681 0.0804834 0
M  V30 6302 H 583.865 -2.75165 1.15441 0
M  V30 6303 C 582.614 -3.44358 -0.480952 0
M  V30 6304 H 581.937 -3.99354 0.18876 0
M  V30 6305 H 583.377 -4.15652 -0.837241 0
M  V30 6306 C 581.836 -2.92574 -1.67039 0
M  V30 6307 O 582.366 -2.90954 -2.76964 0
M  V30 6308 N 580.572 -2.48835 -1.50097 0
M  V30 6309 H 580.119 -2.50353 -0.606738 0
M  V30 6310 H 580.077 -2.14543 -2.29823 0
M  V30 6311 N 583.85 -0.624285 -1.44708 0
M  V30 6312 C 585.127 -0.0572781 -1.95516 0
M  V30 6313 C 585.507 1.41516 -1.56641 0
M  V30 6314 O 584.855 2.12614 -0.837111 0
M  V30 6315 C 585.065 -0.272944 -3.47931 0
M  V30 6316 C 586.413 -0.162529 -4.24289 0
M  V30 6317 O 587.437 -0.203946 -3.55616 0
M  V30 6318 O 586.296 -0.0616847 -5.46465 0
M  V30 6319 H 583.389 0.0262219 -0.826584 0
M  V30 6320 H 585.936 -0.695512 -1.54793 0
M  V30 6321 H 584.707 -1.29492 -3.69253 0
M  V30 6322 H 584.331 0.399756 -3.95585 0
M  V30 6323 N 585.328 1.53329 -0.364422 0
M  V30 6324 C 586.553 2.06132 0.229033 0
M  V30 6325 C 586.978 1.23625 1.41769 0
M  V30 6326 O 586.336 0.255038 1.79497 0
M  V30 6327 C 586.384 3.55544 0.60174 0
M  V30 6328 O 585.488 3.75771 1.69912 0
M  V30 6329 H 584.829 0.663148 0.0336213 0
M  V30 6330 H 587.359 1.97758 -0.524689 0
M  V30 6331 H 587.369 3.98549 0.873073 0
M  V30 6332 H 586.044 4.15039 -0.267421 0
M  V30 6333 H 584.621 3.44663 1.42343 0
M  V30 6334 N 586.806 0.0935595 1.57322 0
M  V30 6335 C 588.055 -0.570191 1.93473 0
M  V30 6336 C 588.368 -1.69434 0.977318 0
M  V30 6337 O 589.574 -2.41914 1.23248 0
M  V30 6338 C 588.03 -1.06564 3.43762 0
M  V30 6339 C 587.638 0.0286723 4.47991 0
M  V30 6340 C 589.382 -1.70221 3.88877 0
M  V30 6341 C 587.289 -0.482046 5.89432 0
M  V30 6342 H 586.219 -0.216764 0.72217 0
M  V30 6343 H 588.87 0.169313 1.82717 0
M  V30 6344 H 587.252 -1.85878 3.49664 0
M  V30 6345 H 588.426 0.804106 4.5373 0
M  V30 6346 H 586.741 0.570336 4.12476 0
M  V30 6347 H 589.338 -2.09502 4.91948 0
M  V30 6348 H 589.681 -2.57078 3.27439 0
M  V30 6349 H 590.214 -0.974919 3.85668 0
M  V30 6350 H 586.953 0.349871 6.54566 0
M  V30 6351 H 586.473 -1.22452 5.87167 0
M  V30 6352 H 588.152 -0.951508 6.39965 0
M  V30 6353 N 588.284 -1.56567 -0.180126 0
M  V30 6354 C 589.247 -1.94852 -1.20686 0
M  V30 6355 C 590.247 -0.831212 -1.3765 0
M  V30 6356 O 591.437 -1.09841 -1.35206 0
M  V30 6357 C 588.569 -2.23565 -2.57355 0
M  V30 6358 H 589.762 -2.86722 -0.879225 0
M  V30 6359 H 587.315 -1.50489 -0.422237 0
M  V30 6360 H 588.05 -1.34381 -2.95148 0
M  V30 6361 H 587.835 -3.04999 -2.46411 0
M  V30 6362 H 589.325 -2.54137 -3.31367 0
M  V30 6363 N 589.762 0.448376 -1.51087 0
M  V30 6364 C 591.009 1.19872 -1.63209 0
M  V30 6365 C 591.337 1.91451 -0.343062 0
M  V30 6366 O 590.592 1.83789 0.672321 0
M  V30 6367 C 590.891 2.24866 -2.77795 0
M  V30 6368 C 590.557 1.70378 -4.17471 0
M  V30 6369 C 589.219 1.55241 -4.55471 0
M  V30 6370 C 591.571 1.30203 -5.04675 0
M  V30 6371 C 588.899 0.983844 -5.78392 0
M  V30 6372 C 591.251 0.747798 -6.28165 0
M  V30 6373 C 589.915 0.583233 -6.64947 0
M  V30 6374 H 589.185 0.438642 -0.597222 0
M  V30 6375 H 591.832 0.49136 -1.85089 0
M  V30 6376 H 590.137 3.01598 -2.50092 0
M  V30 6377 H 591.834 2.82723 -2.84374 0
M  V30 6378 H 588.424 1.83134 -3.87505 0
M  V30 6379 H 592.608 1.40723 -4.75932 0
M  V30 6380 H 587.864 0.844007 -6.05546 0
M  V30 6381 H 592.038 0.427927 -6.95084 0
M  V30 6382 H 589.665 0.140532 -7.6007 0
M  V30 6383 N 591.24 1.41047 0.703093 0
M  V30 6384 C 592.465 1.43537 1.49706 0
M  V30 6385 C 592.89 0.0401853 1.88057 0
M  V30 6386 O 592.248 -0.954785 1.54122 0
M  V30 6387 C 592.296 2.3433 2.74084 0
M  V30 6388 O 591.4 1.79515 3.71279 0
M  V30 6389 H 590.741 0.487454 0.450871 0
M  V30 6390 H 593.271 1.85422 0.86486 0
M  V30 6391 H 593.281 2.49947 3.22476 0
M  V30 6392 H 591.956 3.35708 2.45506 0
M  V30 6393 H 590.533 1.7331 3.30179 0
M  V30 6394 N 592.718 -0.936591 1.26751 0
M  V30 6395 C 593.965 -1.68331 1.12566 0
M  V30 6396 C 594.293 -1.91677 -0.330168 0
M  V30 6397 O 593.548 -1.49859 -1.2586 0
M  V30 6398 C 593.847 -3.06099 1.84494 0
M  V30 6399 C 593.513 -3.02493 3.34378 0
M  V30 6400 C 592.175 -3.01217 3.75262 0
M  V30 6401 C 594.527 -2.94453 4.30055 0
M  V30 6402 C 591.855 -2.89672 5.10203 0
M  V30 6403 C 594.207 -2.84449 5.65041 0
M  V30 6404 C 592.871 -2.81518 6.0523 0
M  V30 6405 H 592.141 -0.615965 0.411907 0
M  V30 6406 H 594.788 -1.09292 1.5725 0
M  V30 6407 H 593.093 -3.6879 1.32292 0
M  V30 6408 H 594.79 -3.62733 1.70955 0
M  V30 6409 H 591.38 -3.04269 3.01858 0
M  V30 6410 H 595.564 -2.94544 3.99447 0
M  V30 6411 H 590.82 -2.85783 5.40498 0
M  V30 6412 H 594.994 -2.77192 6.38856 0
M  V30 6413 H 592.621 -2.72329 7.09747 0
M  V30 6414 N 594.196 -1.08629 -1.14182 0
M  V30 6415 C 595.612 -0.814363 -1.3726 0
M  V30 6416 C 595.812 0.575271 -1.93114 0
M  V30 6417 O 594.868 1.33165 -2.1453 0
M  V30 6418 C 596.181 -1.8989 -2.33157 0
M  V30 6419 C 597.729 -1.92518 -2.46791 0
M  V30 6420 C 598.204 -3.00092 -3.45989 0
M  V30 6421 N 599.695 -2.99279 -3.53534 0
M  V30 6422 C 600.43 -3.79158 -4.30147 0
M  V30 6423 N 599.926 -4.68923 -5.09983 0
M  V30 6424 N 601.719 -3.67451 -4.25366 0
M  V30 6425 H 593.87 -1.98232 -0.762758 0
M  V30 6426 H 596.133 -0.860383 -0.398051 0
M  V30 6427 H 595.839 -2.89809 -1.99257 0
M  V30 6428 H 595.713 -1.77013 -3.33086 0
M  V30 6429 H 598.1 -0.932425 -2.79982 0
M  V30 6430 H 598.181 -2.09473 -1.46816 0
M  V30 6431 H 597.825 -3.99575 -3.13532 0
M  V30 6432 H 597.755 -2.80382 -4.45751 0
M  V30 6433 H 600.246 -2.3422 -2.96563 0
M  V30 6434 H 600.559 -5.26475 -5.65724 0
M  V30 6435 H 598.904 -4.72964 -5.09244 0
M  V30 6436 H 602.095 -2.9669 -3.62067 0
M  V30 6437 H 602.268 -4.29944 -4.84822 0
M  V30 6438 N 595.674 1.31259 -0.872281 0
M  V30 6439 C 596.923 1.95893 -0.480493 0
M  V30 6440 C 597.236 1.697 0.972688 0
M  V30 6441 O 598.442 2.28214 1.47073 0
M  V30 6442 C 596.898 3.50705 -0.808342 0
M  V30 6443 C 596.506 3.85735 -2.27844 0
M  V30 6444 C 598.25 4.21719 -0.485136 0
M  V30 6445 C 596.157 5.33668 -2.54858 0
M  V30 6446 H 595.087 0.733182 -0.175955 0
M  V30 6447 H 597.738 1.49396 -1.0655 0
M  V30 6448 H 596.12 3.95706 -0.152558 0
M  V30 6449 H 597.294 3.51686 -2.97748 0
M  V30 6450 H 595.609 3.27792 -2.56791 0
M  V30 6451 H 598.206 5.30559 -0.664166 0
M  V30 6452 H 598.549 4.12316 0.574592 0
M  V30 6453 H 599.082 3.82359 -1.09756 0
M  V30 6454 H 595.821 5.48109 -3.59523 0
M  V30 6455 H 595.341 5.69061 -1.8955 0
M  V30 6456 H 597.02 6.00958 -2.39706 0
M  V30 6457 N 597.152 0.631951 1.44375 0
M  V30 6458 C 598.102 -0.0943862 2.27805 0
M  V30 6459 C 599.086 -0.815359 1.38711 0
M  V30 6460 O 600.278 -0.701331 1.62513 0
M  V30 6461 C 597.407 -1.07472 3.26044 0
M  V30 6462 C 596.493 -0.353329 4.22626 0
M  V30 6463 N 596.884 0.618512 5.02004 0
M  V30 6464 C 595.182 -0.597662 4.41977 0
M  V30 6465 C 595.883 1.0448 5.7224 0
M  V30 6466 N 594.859 0.383413 5.42246 0
M  V30 6467 H 598.661 0.651672 2.86584 0
M  V30 6468 H 596.175 0.45752 1.55822 0
M  V30 6469 H 598.172 -1.60969 3.84571 0
M  V30 6470 H 596.832 -1.82107 2.68825 0
M  V30 6471 H 597.843 0.996356 5.08226 0
M  V30 6472 H 594.52 -1.32682 3.95856 0
M  V30 6473 H 595.91 1.84773 6.45994 0
M  V30 6474 N 598.631 -1.53133 0.372548 0
M  V30 6475 C 600.042 -1.86404 -0.105155 0
M  V30 6476 C 600.393 -1.29289 -1.47576 0
M  V30 6477 O 599.518 -0.617646 -2.07398 0
M  V30 6478 C 600.113 -3.38223 -0.197588 0
M  V30 6479 C 598.672 -3.71266 -0.619556 0
M  V30 6480 C 597.819 -2.76353 0.228919 0
M  V30 6481 H 600.77 -1.47282 0.591077 0
M  V30 6482 H 600.791 -3.66577 -1.01987 0
M  V30 6483 H 600.303 -3.79763 0.800099 0
M  V30 6484 H 598.404 -3.35287 -1.62522 0
M  V30 6485 H 598.517 -4.77515 -0.389332 0
M  V30 6486 H 596.881 -2.52888 -0.303271 0
M  V30 6487 H 597.664 -3.20728 1.22428 0
M  V30 6488 N 600.109 -0.101901 -1.5727 0
M  V30 6489 C 601.019 0.868647 -2.17926 0
M  V30 6490 C 602.035 1.30527 -1.1506 0
M  V30 6491 O 603.211 1.37178 -1.47459 0
M  V30 6492 C 600.276 2.10727 -2.75309 0
M  V30 6493 C 599.337 1.7242 -3.93154 0
M  V30 6494 C 598.57 2.90377 -4.47791 0
M  V30 6495 O 598.793 4.05305 -4.01353 0
M  V30 6496 O 597.727 2.6845 -5.38719 0
M  V30 6497 H 601.553 0.382544 -3.01281 0
M  V30 6498 H 599.138 0.122812 -1.48894 0
M  V30 6499 H 601.02 2.83303 -3.11958 0
M  V30 6500 H 599.695 2.58376 -1.94996 0
M  V30 6501 H 598.602 0.970039 -3.61305 0
M  V30 6502 H 599.935 1.29528 -4.74851 0
M  V30 6503 N 601.587 1.56661 0.17182 0
M  V30 6504 C 602.535 1.97289 1.23207 0
M  V30 6505 C 603.529 0.861566 1.45854 0
M  V30 6506 O 604.735 1.04668 1.4644 0
M  V30 6507 H 601.11 0.627681 0.41415 0
M  V30 6508 H 603.081 2.85662 0.862542 0
M  V30 6509 C 601.83 2.34849 2.564 0
M  V30 6510 H 601.153 3.19903 2.39797 0
M  V30 6511 H 602.593 2.67121 3.29276 0
M  V30 6512 C 601.052 1.19172 3.15119 0
M  V30 6513 O 601.582 0.479113 3.98833 0
M  V30 6514 N 599.788 0.962415 2.74201 0
M  V30 6515 H 599.335 1.54365 2.06226 0
M  V30 6516 H 599.293 0.190272 3.13824 0
M  V30 6517 N 603.065 -0.440357 1.51323 0
M  V30 6518 C 604.311 -1.19181 1.64085 0
M  V30 6519 C 604.644 -1.90936 0.354575 0
M  V30 6520 O 603.919 -1.8347 -0.645675 0
M  V30 6521 C 604.202 -2.2112 2.84215 0
M  V30 6522 C 604.055 -1.53468 4.22809 0
M  V30 6523 C 605.374 -3.22133 2.99864 0
M  V30 6524 H 602.493 -0.431924 0.597169 0
M  V30 6525 H 605.135 -0.481443 1.83799 0
M  V30 6526 H 603.285 -2.81703 2.67537 0
M  V30 6527 H 604.957 -0.962455 4.51148 0
M  V30 6528 H 603.2 -0.837086 4.25647 0
M  V30 6529 H 603.871 -2.27694 5.02852 0
M  V30 6530 H 606.347 -2.71601 3.15233 0
M  V30 6531 H 605.223 -3.90756 3.85488 0
M  V30 6532 H 605.484 -3.88061 2.11804 0
M  V30 6533 N 604.543 -1.41418 -0.695603 0
M  V30 6534 C 605.773 -1.43921 -1.48224 0
M  V30 6535 C 606.181 -0.0428855 -1.89151 0
M  V30 6536 O 605.524 0.948138 -1.5734 0
M  V30 6537 C 605.586 -2.28466 -2.77567 0
M  V30 6538 C 605.25 -3.76629 -2.58844 0
M  V30 6539 C 606.247 -4.6879 -2.24793 0
M  V30 6540 C 603.932 -4.2067 -2.74485 0
M  V30 6541 C 605.926 -6.02981 -2.06622 0
M  V30 6542 C 603.613 -5.54926 -2.55931 0
M  V30 6543 C 604.611 -6.45897 -2.2205 0
M  V30 6544 O 604.299 -7.77675 -2.03657 0
M  V30 6545 H 604.031 -0.492252 -0.463318 0
M  V30 6546 H 606.585 -1.86347 -0.863952 0
M  V30 6547 H 604.815 -1.80853 -3.41802 0
M  V30 6548 H 606.504 -2.2267 -3.39371 0
M  V30 6549 H 607.27 -4.36055 -2.12323 0
M  V30 6550 H 603.149 -3.50167 -2.9984 0
M  V30 6551 H 606.693 -6.73951 -1.80099 0
M  V30 6552 H 602.59 -5.8724 -2.67991 0
M  V30 6553 H 603.358 -7.88819 -2.1842 0
M  V30 6554 N 606.021 0.929856 -1.27246 0
M  V30 6555 C 606.969 2.05151 -1.09616 0
M  V30 6556 C 607.963 1.69388 -0.0198617 0
M  V30 6557 O 609.169 1.79124 -0.177417 0
M  V30 6558 H 605.544 0.671909 -0.337701 0
M  V30 6559 H 607.515 2.17168 -2.04648 0
M  V30 6560 C 606.264 3.3934 -0.757851 0
M  V30 6561 H 605.587 3.67343 -1.57795 0
M  V30 6562 H 607.027 4.18603 -0.674358 0
M  V30 6563 C 605.486 3.32582 0.537658 0
M  V30 6564 O 606.016 3.69633 1.57271 0
M  V30 6565 N 604.222 2.8568 0.532478 0
M  V30 6566 H 603.769 2.55725 -0.310233 0
M  V30 6567 H 603.727 2.81541 1.39936 0
M  V30 6568 N 607.499 1.09233 1.13605 0
M  V30 6569 C 608.748 0.82205 1.84188 0
M  V30 6570 C 609.061 -0.654548 1.84323 0
M  V30 6571 O 610.267 -1.04029 2.50779 0
M  V30 6572 C 608.723 1.42066 3.30674 0
M  V30 6573 C 608.331 2.92965 3.38933 0
M  V30 6574 C 610.075 1.22924 4.06313 0
M  V30 6575 C 607.982 3.45922 4.79679 0
M  V30 6576 H 606.912 0.303854 0.690064 0
M  V30 6577 H 609.563 1.31479 1.28006 0
M  V30 6578 H 607.945 0.855613 3.86646 0
M  V30 6579 H 609.119 3.55679 2.92966 0
M  V30 6580 H 607.434 3.11118 2.76757 0
M  V30 6581 H 610.031 1.59945 5.10217 0
M  V30 6582 H 610.374 0.169726 4.15954 0
M  V30 6583 H 610.907 1.76168 3.56665 0
M  V30 6584 H 607.646 4.51484 4.75229 0
M  V30 6585 H 607.166 2.87971 5.26149 0
M  V30 6586 H 608.845 3.43009 5.48592 0
M  V30 6587 N 608.977 -1.30795 0.87923 0
M  V30 6588 C 609.907 -2.30742 0.357796 0
M  V30 6589 C 610.888 -1.60747 -0.556283 0
M  V30 6590 O 612.073 -1.88393 -0.47135 0
M  V30 6591 C 609.203 -3.44583 -0.433555 0
M  V30 6592 C 608.157 -4.26235 0.388251 0
M  V30 6593 C 607.483 -5.32073 -0.529352 0
M  V30 6594 C 608.783 -4.96303 1.62729 0
M  V30 6595 H 610.477 -2.74605 1.19299 0
M  V30 6596 H 608.023 -1.32017 0.575104 0
M  V30 6597 H 609.976 -4.13563 -0.808934 0
M  V30 6598 H 608.7 -2.99511 -1.30234 0
M  V30 6599 H 607.359 -3.58936 0.745695 0
M  V30 6600 H 607.007 -4.83249 -1.39569 0
M  V30 6601 H 606.707 -5.87598 0.0166741 0
M  V30 6602 H 608.231 -6.0391 -0.901373 0
M  V30 6603 H 609.645 -5.5783 1.32283 0
M  V30 6604 H 608.042 -5.61666 2.11309 0
M  V30 6605 H 609.112 -4.22758 2.37494 0
M  V30 6606 N 610.455 -0.639598 -1.44038 0
M  V30 6607 C 611.68 -0.153117 -2.06834 0
M  V30 6608 C 612.105 1.16676 -1.47541 0
M  V30 6609 O 611.463 1.71769 -0.580093 0
M  V30 6610 C 611.511 -0.0609169 -3.60549 0
M  V30 6611 O 610.615 0.98071 -4.00569 0
M  V30 6612 H 609.956 -0.0886402 -0.658057 0
M  V30 6613 H 612.486 -0.878674 -1.84771 0
M  V30 6614 H 612.496 0.126892 -4.07803 0
M  V30 6615 H 611.171 -1.0245 -4.03084 0
M  V30 6616 H 609.748 0.766789 -3.64931 0
M  V30 6617 N 611.933 1.52934 -0.380664 0
M  V30 6618 C 613.179 2.01765 0.20458 0
M  V30 6619 C 613.512 1.26696 1.47179 0
M  V30 6620 O 612.787 0.364936 1.91046 0
M  V30 6621 C 613.07 3.56869 0.481269 0
M  V30 6622 C 612.923 4.42617 -0.800629 0
M  V30 6623 C 614.242 4.2121 1.27554 0
M  V30 6624 H 611.361 0.733388 0.0728803 0
M  V30 6625 H 614.003 1.83068 -0.50853 0
M  V30 6626 H 612.153 3.72932 1.08875 0
M  V30 6627 H 613.825 4.38323 -1.43773 0
M  V30 6628 H 612.068 4.09977 -1.4178 0
M  V30 6629 H 612.739 5.49134 -0.561791 0
M  V30 6630 H 615.215 4.09072 0.761514 0
M  V30 6631 H 614.091 5.29732 1.43788 0
M  V30 6632 H 614.352 3.78269 2.28833 0
M  V30 6633 N 613.412 0.11024 1.57214 0
M  V30 6634 C 614.359 -0.843195 2.14846 0
M  V30 6635 C 615.329 -1.26954 1.07107 0
M  V30 6636 O 616.514 -1.34861 1.34971 0
M  V30 6637 C 613.654 -2.09123 2.74521 0
M  V30 6638 C 612.767 -1.71404 3.96541 0
M  V30 6639 C 611.902 -2.91107 4.44331 0
M  V30 6640 C 610.941 -2.49586 5.58903 0
M  V30 6641 N 610.078 -3.62175 6.01477 0
M  V30 6642 H 614.918 -0.344886 2.95998 0
M  V30 6643 H 612.455 -0.15855 1.46243 0
M  V30 6644 H 614.413 -2.82234 3.07246 0
M  V30 6645 H 613.043 -2.56427 1.96074 0
M  V30 6646 H 612.095 -0.88201 3.70033 0
M  V30 6647 H 613.407 -1.36884 4.7965 0
M  V30 6648 H 612.561 -3.72454 4.78919 0
M  V30 6649 H 611.3 -3.28848 3.60153 0
M  V30 6650 H 610.305 -1.6667 5.23929 0
M  V30 6651 H 611.53 -2.12973 6.4484 0
M  V30 6652 H 609.476 -3.99605 5.20242 0
M  V30 6653 H 609.393 -3.3155 6.79419 0
M  V30 6654 H 610.661 -4.43987 6.407 0
M  V30 6655 N 614.89 -1.56749 -0.16351 0
M  V30 6656 C 616.115 -1.86938 -0.898264 0
M  V30 6657 C 616.54 -0.697456 -1.74692 0
M  V30 6658 O 615.898 0.353327 -1.77824 0
M  V30 6659 C 615.946 -3.15599 -1.74441 0
M  V30 6660 O 615.05 -2.98371 -2.8469 0
M  V30 6661 H 614.391 -0.614659 -0.251178 0
M  V30 6662 H 616.921 -2.03979 -0.159298 0
M  V30 6663 H 616.931 -3.47202 -2.14277 0
M  V30 6664 H 615.606 -4.00505 -1.1211 0
M  V30 6665 H 614.183 -2.7814 -2.4838 0
M  V30 6666 N 616.368 0.432326 -1.51554 0
M  V30 6667 C 617.316 1.54572 -1.73811 0
M  V30 6668 C 618.31 1.58246 -0.604539 0
M  V30 6669 O 619.516 1.6193 -0.786041 0
M  V30 6670 H 615.891 0.513626 -0.549265 0
M  V30 6671 H 617.862 1.32977 -2.67132 0
M  V30 6672 C 616.611 2.92181 -1.88483 0
M  V30 6673 H 615.934 2.90088 -2.75116 0
M  V30 6674 H 617.374 3.69439 -2.08065 0
M  V30 6675 C 615.833 3.3065 -0.645909 0
M  V30 6676 O 616.363 4.01216 0.197093 0
M  V30 6677 N 614.569 2.86464 -0.488538 0
M  V30 6678 H 614.116 2.29209 -1.17562 0
M  V30 6679 H 614.074 3.12565 0.339156 0
M  V30 6680 N 617.846 1.41785 0.688094 0
M  V30 6681 C 618.778 1.40159 1.81351 0
M  V30 6682 C 619.791 0.30262 1.59963 0
M  V30 6683 O 620.98 0.564841 1.69327 0
M  V30 6684 C 618.08 1.16517 3.1824 0
M  V30 6685 C 617.253 2.38597 3.66593 0
M  V30 6686 C 616.312 2.10699 4.82174 0
M  V30 6687 O 615.338 2.83798 4.93404 0
M  V30 6688 N 616.54 1.10187 5.69947 0
M  V30 6689 H 619.305 2.3716 1.83236 0
M  V30 6690 H 616.866 1.36494 0.870697 0
M  V30 6691 H 618.858 0.957941 3.93199 0
M  V30 6692 H 617.428 0.280873 3.11336 0
M  V30 6693 H 616.648 2.74974 2.82459 0
M  V30 6694 H 617.936 3.19919 3.95638 0
M  V30 6695 H 617.334 0.497016 5.63512 0
M  V30 6696 H 615.891 0.954518 6.44773 0
M  V30 6697 N 619.324 -0.923095 1.27737 0
M  V30 6698 C 620.57 -1.67375 1.14514 0
M  V30 6699 C 620.903 -1.91751 -0.307424 0
M  V30 6700 O 620.178 -1.51119 -1.22447 0
M  V30 6701 C 620.461 -3.03745 1.9342 0
M  V30 6702 C 620.314 -2.86581 3.46686 0
M  V30 6703 C 621.633 -4.04144 1.74228 0
M  V30 6704 H 618.752 -0.607427 0.417374 0
M  V30 6705 H 621.394 -1.07089 1.56946 0
M  V30 6706 H 619.544 -3.55204 1.5736 0
M  V30 6707 H 621.216 -2.42203 3.92601 0
M  V30 6708 H 619.459 -2.21829 3.72793 0
M  V30 6709 H 620.13 -3.83381 3.97143 0
M  V30 6710 H 622.606 -3.61712 2.05678 0
M  V30 6711 H 621.482 -4.97543 2.31824 0
M  V30 6712 H 621.743 -4.36661 0.691373 0
M  V30 6713 N 620.802 -1.09834 -1.13024 0
M  V30 6714 C 621.749 -0.741522 -2.18564 0
M  V30 6715 C 622.719 0.279236 -1.63736 0
M  V30 6716 O 623.904 0.159923 -1.90129 0
M  V30 6717 C 621.044 -0.17277 -3.44667 0
M  V30 6718 C 620.157 -1.24808 -4.13578 0
M  V30 6719 C 619.292 -0.641631 -5.27311 0
M  V30 6720 C 618.331 -1.69795 -5.88078 0
M  V30 6721 N 617.468 -1.11223 -6.93234 0
M  V30 6722 H 622.308 -1.64576 -2.48432 0
M  V30 6723 H 619.845 -0.822174 -1.21978 0
M  V30 6724 H 621.803 0.17482 -4.16834 0
M  V30 6725 H 620.433 0.694725 -3.15235 0
M  V30 6726 H 619.485 -1.71288 -3.39653 0
M  V30 6727 H 620.797 -2.04795 -4.54819 0
M  V30 6728 H 619.951 -0.243128 -6.06213 0
M  V30 6729 H 618.69 0.189742 -4.87331 0
M  V30 6730 H 617.695 -2.10595 -5.07868 0
M  V30 6731 H 618.92 -2.53206 -6.3013 0
M  V30 6732 H 616.866 -0.302208 -6.55304 0
M  V30 6733 H 616.783 -1.84901 -7.3304 0
M  V30 6734 H 618.051 -0.740068 -7.75979 0
M  V30 6735 N 622.28 1.30327 -0.886154 0
M  V30 6736 C 623.21 2.30549 -0.370028 0
M  V30 6737 C 624.191 1.61039 0.547751 0
M  V30 6738 O 625.376 1.8864 0.461353 0
M  V30 6739 C 622.506 3.44808 0.415275 0
M  V30 6740 C 621.46 4.26024 -0.41085 0
M  V30 6741 C 620.786 5.32347 0.501128 0
M  V30 6742 C 622.086 4.95433 -1.65359 0
M  V30 6743 H 623.78 2.73969 -1.20754 0
M  V30 6744 H 621.326 1.3171 -0.582097 0
M  V30 6745 H 623.279 4.13986 0.78699 0
M  V30 6746 H 622.003 3.00197 1.28644 0
M  V30 6747 H 620.662 3.58535 -0.764719 0
M  V30 6748 H 620.31 4.83982 1.37004 0
M  V30 6749 H 620.01 5.87581 -0.0478356 0
M  V30 6750 H 621.534 6.0438 0.869333 0
M  V30 6751 H 622.948 5.5712 -1.35239 0
M  V30 6752 H 621.345 5.60537 -2.14284 0
M  V30 6753 H 622.415 4.21493 -2.39733 0
M  V30 6754 N 623.758 0.647228 1.43697 0
M  V30 6755 C 624.668 -0.0487997 2.34549 0
M  V30 6756 C 625.684 -0.818586 1.53542 0
M  V30 6757 O 626.86 -0.767195 1.86215 0
M  V30 6758 C 623.925 -1.00734 3.31743 0
M  V30 6759 C 622.986 -0.23515 4.28655 0
M  V30 6760 C 622.219 -1.14803 5.21206 0
M  V30 6761 O 622.442 -2.38717 5.18045 0
M  V30 6762 O 621.376 -0.623667 5.9866 0
M  V30 6763 H 625.202 0.698863 2.9555 0
M  V30 6764 H 622.787 0.407412 1.43738 0
M  V30 6765 H 624.669 -1.55837 3.91526 0
M  V30 6766 H 623.344 -1.73534 2.73254 0
M  V30 6767 H 622.251 0.359319 3.7237 0
M  V30 6768 H 623.584 0.453152 4.9011 0
M  V30 6769 N 625.236 -1.5273 0.388769 0
M  V30 6770 C 626.482 -2.01871 -0.193877 0
M  V30 6771 C 626.815 -1.27475 -1.46505 0
M  V30 6772 O 626.09 -0.375063 -1.90849 0
M  V30 6773 C 626.373 -3.5712 -0.462336 0
M  V30 6774 C 626.226 -4.42186 0.824091 0
M  V30 6775 C 627.545 -4.21881 -1.25319 0
M  V30 6776 H 624.664 -0.733764 -0.0689899 0
M  V30 6777 H 627.306 -1.82796 0.518231 0
M  V30 6778 H 625.456 -3.73504 -1.06896 0
M  V30 6779 H 627.128 -4.37554 1.46096 0
M  V30 6780 H 625.371 -4.09219 1.43952 0
M  V30 6781 H 626.042 -5.48828 0.590905 0
M  V30 6782 H 628.518 -4.0947 -0.73981 0
M  V30 6783 H 627.394 -5.30487 -1.40977 0
M  V30 6784 H 627.655 -3.79478 -2.26824 0
M  V30 6785 N 626.714 -0.118576 -1.57153 0
M  V30 6786 C 627.961 0.539526 -1.9518 0
M  V30 6787 C 628.289 1.66714 -1.00184 0
M  V30 6788 O 627.544 1.95683 -0.0256482 0
M  V30 6789 C 627.843 1.11303 -3.39627 0
M  V30 6790 C 627.509 0.106809 -4.50773 0
M  V30 6791 C 626.171 -0.169876 -4.809 0
M  V30 6792 C 628.523 -0.57895 -5.17975 0
M  V30 6793 C 625.851 -1.13861 -5.75545 0
M  V30 6794 C 628.203 -1.53631 -6.13661 0
M  V30 6795 C 626.867 -1.82099 -6.42181 0
M  V30 6796 H 626.137 0.197427 -0.714215 0
M  V30 6797 H 628.784 -0.199391 -1.90459 0
M  V30 6798 H 627.089 1.92869 -3.4104 0
M  V30 6799 H 628.786 1.63032 -3.66363 0
M  V30 6800 H 625.376 0.332645 -4.27307 0
M  V30 6801 H 629.56 -0.378359 -4.94856 0
M  V30 6802 H 624.816 -1.36592 -5.95947 0
M  V30 6803 H 628.99 -2.07337 -6.64819 0
M  V30 6804 H 626.617 -2.57319 -7.15326 0
M  V30 6805 N 628.193 1.56834 0.155195 0
M  V30 6806 C 629.103 2.009 1.21146 0
M  V30 6807 C 630.119 0.923029 1.475 0
M  V30 6808 O 631.295 1.23189 1.59331 0
M  V30 6809 C 628.36 2.37378 2.52691 0
M  V30 6810 C 627.421 3.59883 2.34057 0
M  V30 6811 C 626.654 3.94612 3.59329 0
M  V30 6812 O 626.877 3.30104 4.65175 0
M  V30 6813 O 625.811 4.87895 3.52479 0
M  V30 6814 H 629.637 2.9105 0.867371 0
M  V30 6815 H 627.222 1.44916 0.363298 0
M  V30 6816 H 629.104 2.61737 3.3026 0
M  V30 6817 H 627.779 1.50385 2.86646 0
M  V30 6818 H 626.686 3.40722 1.54465 0
M  V30 6819 H 628.019 4.47468 2.0502 0
M  V30 6820 N 629.671 -0.424282 1.51781 0
M  V30 6821 C 630.601 -1.52305 1.7699 0
M  V30 6822 C 631.582 -1.5839 0.620209 0
M  V30 6823 O 632.767 -1.73908 0.864268 0
M  V30 6824 C 629.897 -2.90271 1.90683 0
M  V30 6825 C 628.851 -2.99043 3.06198 0
M  V30 6826 C 628.177 -4.39116 3.05092 0
M  V30 6827 C 629.477 -2.7192 4.45934 0
M  V30 6828 H 631.171 -1.31461 2.68995 0
M  V30 6829 H 628.717 -0.630985 1.29439 0
M  V30 6830 H 630.67 -3.6711 2.06901 0
M  V30 6831 H 629.394 -3.12376 0.953365 0
M  V30 6832 H 628.053 -2.24646 2.89706 0
M  V30 6833 H 627.701 -4.58207 2.07498 0
M  V30 6834 H 627.401 -4.45912 3.82669 0
M  V30 6835 H 628.925 -5.17911 3.2342 0
M  V30 6836 H 630.339 -3.38487 4.62709 0
M  V30 6837 H 628.736 -2.90111 5.25315 0
M  V30 6838 H 629.806 -1.67445 4.55072 0
M  V30 6839 N 631.149 -1.42148 -0.680565 0
M  V30 6840 C 632.059 -1.47565 -1.82378 0
M  V30 6841 C 633.075 -0.36489 -1.70131 0
M  V30 6842 O 634.251 -0.614916 -1.91783 0
M  V30 6843 C 631.316 -1.37013 -3.18478 0
M  V30 6844 C 630.377 -2.58532 -3.42724 0
M  V30 6845 C 629.61 -2.48473 -4.72331 0
M  V30 6846 O 629.833 -1.51745 -5.49845 0
M  V30 6847 O 628.767 -3.38503 -4.97694 0
M  V30 6848 H 632.593 -2.44045 -1.80764 0
M  V30 6849 H 630.178 -1.23849 -0.835569 0
M  V30 6850 H 632.06 -1.33468 -3.99705 0
M  V30 6851 H 630.735 -0.436552 -3.20743 0
M  V30 6852 H 629.642 -2.67652 -2.61368 0
M  V30 6853 H 630.975 -3.50769 -3.45286 0
M  V30 6854 N 632.627 0.916307 -1.28225 0
M  V30 6855 C 633.575 2.03977 -1.11786 0
M  V30 6856 C 634.569 1.69358 -0.0378265 0
M  V30 6857 O 635.775 1.78925 -0.196405 0
M  V30 6858 H 632.15 0.66829 -0.344809 0
M  V30 6859 H 634.121 2.14985 -2.06939 0
M  V30 6860 C 632.87 3.38518 -0.7938 0
M  V30 6861 H 632.193 3.65649 -1.61682 0
M  V30 6862 H 633.633 4.17864 -0.718719 0
M  V30 6863 C 632.092 3.33134 0.502353 0
M  V30 6864 O 632.622 3.71281 1.53341 0
M  V30 6865 N 630.828 2.86229 0.502147 0
M  V30 6866 H 630.375 2.55382 -0.337338 0
M  V30 6867 H 630.333 2.83009 1.36942 0
M  V30 6868 N 634.105 1.10431 1.1244 0
M  V30 6869 C 635.354 0.841539 1.83306 0
M  V30 6870 C 635.667 -0.634961 1.85007 0
M  V30 6871 O 636.873 -1.01363 2.51869 0
M  V30 6872 C 635.329 1.45565 3.29149 0
M  V30 6873 C 634.937 2.96544 3.35806 0
M  V30 6874 C 636.681 1.27227 4.04986 0
M  V30 6875 C 634.588 3.5099 4.75983 0
M  V30 6876 H 633.518 0.311156 0.686803 0
M  V30 6877 H 636.169 1.32829 1.26604 0
M  V30 6878 H 634.551 0.896574 3.85717 0
M  V30 6879 H 635.725 3.58766 2.89177 0
M  V30 6880 H 634.04 3.14036 2.73442 0
M  V30 6881 H 636.637 1.65348 5.08492 0
M  V30 6882 H 636.98 0.213834 4.1575 0
M  V30 6883 H 637.513 1.79941 3.54776 0
M  V30 6884 H 634.252 4.56499 4.70413 0
M  V30 6885 H 633.772 2.93535 5.23065 0
M  V30 6886 H 635.451 3.48808 5.44924 0
M  V30 6887 N 635.583 -1.29855 0.893053 0
M  V30 6888 C 636.829 -1.96488 0.52574 0
M  V30 6889 C 637.184 -1.69164 -0.916594 0
M  V30 6890 O 636.477 -0.990405 -1.64017 0
M  V30 6891 C 636.671 -3.49515 0.746588 0
M  V30 6892 C 636.5 -3.91715 2.20884 0
M  V30 6893 C 635.27 -4.16915 2.85499 0
M  V30 6894 C 637.468 -4.03934 3.18342 0
M  V30 6895 N 635.45 -4.45634 4.22236 0
M  V30 6896 C 636.821 -4.36629 4.40176 0
M  V30 6897 C 638.876 -3.86387 3.14021 0
M  V30 6898 C 637.579 -4.53605 5.58243 0
M  V30 6899 C 639.605 -4.04569 4.31367 0
M  V30 6900 C 638.967 -4.37617 5.5197 0
M  V30 6901 H 635.066 -0.743657 0.241863 0
M  V30 6902 H 637.65 -1.56927 1.15248 0
M  V30 6903 H 635.821 -3.88113 0.149281 0
M  V30 6904 H 637.553 -4.03224 0.345372 0
M  V30 6905 H 634.308 -4.10423 2.36326 0
M  V30 6906 H 634.732 -4.64114 4.92876 0
M  V30 6907 H 639.374 -3.59906 2.21873 0
M  V30 6908 H 637.092 -4.78925 6.50889 0
M  V30 6909 H 640.678 -3.92452 4.29503 0
M  V30 6910 H 639.558 -4.51395 6.41258 0
M  V30 6911 N 637.061 -0.65484 -1.43351 0
M  V30 6912 C 637.991 0.0221809 -2.33489 0
M  V30 6913 C 638.972 0.810272 -1.49561 0
M  V30 6914 O 640.157 0.771426 -1.78221 0
M  V30 6915 C 637.287 0.988117 -3.32947 0
M  V30 6916 C 636.241 0.310026 -4.26876 0
M  V30 6917 C 635.567 1.38752 -5.16384 0
M  V30 6918 C 636.867 -0.798589 -5.16159 0
M  V30 6919 H 638.561 -0.730571 -2.9035 0
M  V30 6920 H 636.107 -0.352773 -1.39612 0
M  V30 6921 H 638.06 1.47067 -3.94904 0
M  V30 6922 H 636.784 1.77205 -2.74346 0
M  V30 6923 H 635.443 -0.152097 -3.66284 0
M  V30 6924 H 635.091 2.16293 -4.54121 0
M  V30 6925 H 634.791 0.939051 -5.80048 0
M  V30 6926 H 636.315 1.87141 -5.81215 0
M  V30 6927 H 637.729 -0.398126 -5.71916 0
M  V30 6928 H 636.126 -1.17163 -5.88552 0
M  V30 6929 H 637.196 -1.65588 -4.55751 0
M  V30 6930 O 638.578 1.52239 -0.539034 0
M  V30 6931 H 639.269 1.93674 -0.0315656 0
M  V30 END ATOM
M  V30 BEGIN BOND
M  V30 END BOND
M  V30 END CTAB
M  END
$$$$
