drugbank_target|O34002 2-methylcitrate synthase (DB01992; DB04272)
 OpenBabel12092120243D

  0  0  0     0  0            999 V3000
M  V30 BEGIN CTAB
M  V30 COUNTS 5820 5882 0 0 0
M  V30 BEGIN ATOM
M  V30 1 H -0.908 1.98254 -0.117106 0
M  V30 2 N 0 1.576 0 0
M  V30 3 C 0.933 2.03868 1.02534 0
M  V30 4 C 1.911 0.928543 1.3348 0
M  V30 5 O 3.095 1.19667 1.45644 0
M  V30 6 C 0.222 2.43627 2.35294 0
M  V30 7 C -0.732 3.65373 2.2001 0
M  V30 8 S 0.101 5.13292 1.52614 0
M  V30 9 C 1.257 5.56322 2.86805 0
M  V30 10 H 1.49 2.90518 0.631377 0
M  V30 11 H -0.977 1.52953 0.210867 0
M  V30 12 H 0.981 2.67203 3.11629 0
M  V30 13 H -0.358 1.57376 2.7183 0
M  V30 14 H -1.165 3.90944 3.18086 0
M  V30 15 H -1.563 3.418 1.51819 0
M  V30 16 H 0.729 5.58782 3.83104 0
M  V30 17 H 1.672 6.56266 2.65933 0
M  V30 18 H 2.08 4.83886 2.90714 0
M  V30 19 N 1.4781 -0.272755 1.55222 0
M  V30 20 C 2.7061 -1.02255 1.79865 0
M  V30 21 C 3.1211 -1.79924 0.572088 0
M  V30 22 O 2.4781 -1.76638 -0.458842 0
M  V30 23 C 2.5291 -1.98094 3.02392 0
M  V30 24 O 2.2501 -1.23572 4.20311 0
M  V30 25 C 3.7511 -2.84884 3.39641 0
M  V30 26 H 0.9711 -0.302057 0.599168 0
M  V30 27 H 3.5151 -0.303465 2.02236 0
M  V30 28 H 1.6701 -2.65465 2.82147 0
M  V30 29 H 2.0841 -1.88172 4.89583 0
M  V30 30 H 3.5581 -3.47927 4.28545 0
M  V30 31 H 4.0351 -3.54665 2.59055 0
M  V30 32 H 4.6411 -2.23003 3.62146 0
M  V30 33 N 2.9562 -1.48159 -0.537278 0
M  V30 34 C 3.8662 -1.64807 -1.6696 0
M  V30 35 C 4.8822 -0.530651 -1.65711 0
M  V30 36 O 6.0582 -0.800784 -1.84796 0
M  V30 37 C 3.1232 -1.67708 -3.03438 0
M  V30 38 C 2.1842 -2.91025 -3.156 0
M  V30 39 C 1.4172 -2.93778 -4.45567 0
M  V30 40 O 1.6402 -2.05153 -5.3223 0
M  V30 41 O 0.5742 -3.85868 -4.61941 0
M  V30 42 H 4.4002 -2.6066 -1.55853 0
M  V30 43 H 1.9852 -1.31475 -0.709549 0
M  V30 44 H 3.8672 -1.7218 -3.84619 0
M  V30 45 H 2.5422 -0.750278 -3.14885 0
M  V30 46 H 1.4492 -2.92089 -2.33741 0
M  V30 47 H 2.7822 -3.83065 -3.09066 0
M  V30 48 N 4.4343 0.785586 -1.36625 0
M  V30 49 C 5.8453 1.36101 -1.27803 0
M  V30 50 C 6.1963 1.96035 0.0804875 0
M  V30 51 O 5.3213 1.92834 0.982042 0
M  V30 52 C 5.9163 2.47442 -2.31426 0
M  V30 53 C 4.4753 3.00789 -2.26281 0
M  V30 54 C 3.6223 1.73896 -2.15999 0
M  V30 55 H 6.5733 0.586928 -1.47448 0
M  V30 56 H 6.5943 3.2656 -1.95291 0
M  V30 57 H 6.1063 2.03791 -3.30289 0
M  V30 58 H 4.2073 3.48851 -1.30896 0
M  V30 59 H 4.3203 3.57343 -3.19128 0
M  V30 60 H 2.6843 1.9628 -1.62316 0
M  V30 61 H 3.4673 1.32368 -3.16755 0
M  V30 62 N 5.9124 1.20967 1.01018 0
M  V30 63 C 7.1404 1.04956 1.78303 0
M  V30 64 C 7.5554 -0.400915 1.84494 0
M  V30 65 O 6.9124 -1.27826 1.30257 0
M  V30 66 C 6.9634 1.63403 3.22462 0
M  V30 67 O 6.6844 3.02775 3.16637 0
M  V30 68 C 8.1854 1.52432 4.16268 0
M  V30 69 H 5.4054 0.368858 0.560522 0
M  V30 70 H 7.9494 1.60193 1.27116 0
M  V30 71 H 6.1044 1.1227 3.70775 0
M  V30 72 H 6.5184 3.30626 4.07169 0
M  V30 73 H 7.9924 1.98078 5.15237 0
M  V30 74 H 8.4694 0.477875 4.36592 0
M  V30 75 H 9.0754 2.02787 3.73841 0
M  V30 76 N 7.3905 -1.2043 1.01659 0
M  V30 77 C 8.6395 -1.89118 0.701237 0
M  V30 78 C 8.9525 -1.79705 -0.772358 0
M  V30 79 O 10.1585 -2.43528 -1.20026 0
M  V30 80 C 8.6145 -3.39168 1.20388 0
M  V30 81 C 8.2225 -3.57166 2.70438 0
M  V30 82 C 9.9665 -4.1341 0.963953 0
M  V30 83 C 7.8735 -5.01042 3.14183 0
M  V30 84 H 6.8035 -0.708267 0.2586 0
M  V30 85 H 9.4545 -1.36239 1.22927 0
M  V30 86 H 7.8365 -3.91369 0.603824 0
M  V30 87 H 9.0105 -3.15351 3.35992 0
M  V30 88 H 7.3255 -2.96294 2.92572 0
M  V30 89 H 9.9225 -5.19491 1.26621 0
M  V30 90 H 10.2655 -4.16181 -0.099578 0
M  V30 91 H 10.7985 -3.67309 1.52738 0
M  V30 92 H 7.5375 -5.03426 4.19812 0
M  V30 93 H 7.0575 -5.43668 2.53348 0
M  V30 94 H 8.7365 -5.69623 3.0682 0
M  V30 95 N 8.8686 -0.792821 -1.36206 0
M  V30 96 C 9.8186 -0.166598 -2.27391 0
M  V30 97 C 10.8026 0.651479 -1.47121 0
M  V30 98 O 11.9946 0.510994 -1.69463 0
M  V30 99 C 9.1236 0.695033 -3.36191 0
M  V30 100 C 8.2096 -0.132019 -4.23894 0
M  V30 101 N 8.6006 -1.18822 -4.91645 0
M  V30 102 C 6.8986 0.0885952 -4.45912 0
M  V30 103 C 7.5996 -1.69198 -5.56549 0
M  V30 104 N 6.5756 -1.00065 -5.34311 0
M  V30 105 H 10.3776 -0.974947 -2.77258 0
M  V30 106 H 7.8916 -0.632616 -1.49572 0
M  V30 107 H 9.8886 1.1596 -4.00448 0
M  V30 108 H 8.5486 1.50189 -2.87877 0
M  V30 109 H 9.5596 -1.57069 -4.93507 0
M  V30 110 H 6.2366 0.865688 -4.08426 0
M  V30 111 H 7.6266 -2.57395 -6.20643 0
M  V30 112 N 10.3467 1.47872 -0.545128 0
M  V30 113 C 11.2937 2.29849 0.2093 0
M  V30 114 C 12.2637 1.38313 0.919707 0
M  V30 115 O 13.4487 1.67277 0.917772 0
M  V30 116 C 10.5887 3.22019 1.24088 0
M  V30 117 C 9.7017 4.2864 0.537778 0
M  V30 118 C 8.8367 5.07973 1.5536 0
M  V30 119 C 7.8757 6.06381 0.8348 0
M  V30 120 N 7.0127 6.78717 1.79688 0
M  V30 121 H 11.8527 2.93845 -0.49591 0
M  V30 122 H 9.3897 1.44848 -0.256389 0
M  V30 123 H 11.3477 3.73868 1.85144 0
M  V30 124 H 9.9777 2.59914 1.91428 0
M  V30 125 H 9.0297 3.7994 -0.187046 0
M  V30 126 H 10.3417 4.98793 -0.0258907 0
M  V30 127 H 9.4957 5.63912 2.23803 0
M  V30 128 H 8.2347 4.37693 2.15118 0
M  V30 129 H 7.2397 5.49631 0.136388 0
M  V30 130 H 8.4647 6.78665 0.24313 0
M  V30 131 H 6.4107 6.11177 2.38326 0
M  V30 132 H 6.3277 7.44998 1.28505 0
M  V30 133 H 7.5957 7.39237 2.47282 0
M  V30 134 N 11.8248 0.280983 1.55075 0
M  V30 135 C 13.0728 -0.333455 1.9933 0
M  V30 136 C 13.3938 -1.55937 1.17085 0
M  V30 137 O 12.6638 -1.94143 0.261805 0
M  V30 138 H 11.2438 -0.126197 0.736263 0
M  V30 139 H 13.9058 0.387678 1.91005 0
M  V30 140 H 13.0018 -0.619292 3.05894 0
M  V30 141 N 13.3029 -1.57598 0.00835791 0
M  V30 142 C 14.2329 -2.1198 -0.979113 0
M  V30 143 C 15.2139 -1.03091 -1.35301 0
M  V30 144 O 16.3989 -1.30818 -1.43528 0
M  V30 145 C 13.5289 -2.62995 -2.26828 0
M  V30 146 C 12.4829 -3.76485 -2.03576 0
M  V30 147 C 11.8089 -4.13846 -3.38579 0
M  V30 148 C 13.1089 -5.0342 -1.39161 0
M  V30 149 H 14.8029 -2.94738 -0.526281 0
M  V30 150 H 12.3489 -1.41783 -0.251704 0
M  V30 151 H 14.3019 -2.99669 -2.96271 0
M  V30 152 H 13.0259 -1.7737 -2.7424 0
M  V30 153 H 11.6849 -3.40217 -1.36557 0
M  V30 154 H 11.3329 -3.25232 -3.83709 0
M  V30 155 H 11.0329 -4.90312 -3.23834 0
M  V30 156 H 12.5569 -4.53086 -4.09323 0
M  V30 157 H 13.9709 -5.37812 -1.98573 0
M  V30 158 H 12.3679 -5.84746 -1.34878 0
M  V30 159 H 13.4379 -4.83548 -0.361868 0
M  V30 160 N 14.781 0.264519 -1.55364 0
M  V30 161 C 15.744 1.31046 -1.88042 0
M  V30 162 C 16.744 1.41943 -0.755569 0
M  V30 163 O 17.934 1.40947 -1.02369 0
M  V30 164 C 15.066 2.69067 -2.09323 0
M  V30 165 H 16.259 1.03297 -2.81549 0
M  V30 166 H 13.812 0.502989 -1.47986 0
M  V30 167 H 14.547 3.01982 -1.18226 0
M  V30 168 H 14.332 2.62542 -2.91229 0
M  V30 169 H 15.822 3.44623 -2.35848 0
M  V30 170 N 16.2591 1.48442 0.529413 0
M  V30 171 C 17.5071 1.56179 1.28267 0
M  V30 172 C 17.8281 0.237721 1.93546 0
M  V30 173 O 17.0981 -0.740779 1.81354 0
M  V30 174 H 15.6781 0.575367 0.476405 0
M  V30 175 H 18.3401 1.84909 0.61602 0
M  V30 176 H 17.4361 2.34312 2.06165 0
M  V30 177 N 17.7372 -0.778329 1.37039 0
M  V30 178 C 18.9832 -1.53892 1.32079 0
M  V30 179 C 19.3162 -1.9396 -0.0965386 0
M  V30 180 O 18.5912 -1.63568 -1.05242 0
M  V30 181 C 18.8742 -2.80847 2.25382 0
M  V30 182 C 18.7272 -2.47076 3.75864 0
M  V30 183 C 20.0462 -3.82741 2.1725 0
M  V30 184 H 17.1652 -0.558303 0.48111 0
M  V30 185 H 19.8072 -0.893397 1.67685 0
M  V30 186 H 17.9572 -3.35931 1.95148 0
M  V30 187 H 19.6292 -1.97957 4.16666 0
M  V30 188 H 17.8722 -1.79863 3.94755 0
M  V30 189 H 18.5432 -3.37798 4.36574 0
M  V30 190 H 21.0192 -3.37133 2.43887 0
M  V30 191 H 19.8952 -4.69303 2.84686 0
M  V30 192 H 20.1562 -4.2652 1.16331 0
M  V30 193 N 19.2153 -1.21501 -1.00376 0
M  V30 194 C 20.4433 -1.059 -1.77744 0
M  V30 195 C 20.8583 0.391125 -1.84704 0
M  V30 196 O 20.2153 1.27133 -1.30933 0
M  V30 197 C 20.2663 -1.65111 -3.21591 0
M  V30 198 O 19.9873 -3.0445 -3.15027 0
M  V30 199 C 21.4883 -1.54637 -4.15454 0
M  V30 200 H 18.7083 -0.371825 -0.558558 0
M  V30 201 H 21.2523 -1.60865 -1.26264 0
M  V30 202 H 19.4073 -1.14235 -3.70175 0
M  V30 203 H 19.8213 -3.3278 -4.0541 0
M  V30 204 H 21.2953 -2.00808 -5.14179 0
M  V30 205 H 21.7723 -0.501022 -4.36333 0
M  V30 206 H 22.3783 -2.04767 -3.72761 0
M  V30 207 N 20.6934 1.19889 -1.02296 0
M  V30 208 C 21.6564 2.21116 -0.603351 0
M  V30 209 C 22.6564 1.5738 0.329884 0
M  V30 210 O 23.8464 1.73802 0.117702 0
M  V30 211 C 20.9784 3.40696 0.117992 0
M  V30 212 H 22.1714 2.59754 -1.49893 0
M  V30 213 H 19.7244 1.33463 -0.813468 0
M  V30 214 H 20.4594 3.07569 1.0282 0
M  V30 215 H 20.2444 3.88188 -0.552511 0
M  V30 216 H 21.7344 4.15692 0.398696 0
M  V30 217 N 22.1715 0.800033 1.35784 0
M  V30 218 C 23.4485 0.30088 1.93272 0
M  V30 219 C 23.8285 -1.20857 1.73081 0
M  V30 220 O 23.1765 -2.00502 1.09596 0
M  V30 221 C 23.3865 0.70511 3.41803 0
M  V30 222 C 24.7345 0.690871 4.18942 0
M  V30 223 O 25.7585 0.646244 3.50289 0
M  V30 224 O 24.6175 0.74332 5.41421 0
M  V30 225 H 21.7115 0.0771605 0.823393 0
M  V30 226 H 24.2575 0.88329 1.449 0
M  V30 227 H 23.0295 1.74571 3.50201 0
M  V30 228 H 22.6525 0.0971541 3.97481 0
M  V30 229 N 23.6496 -1.47581 0.552962 0
M  V30 230 C 24.8956 -2.02782 0.0273648 0
M  V30 231 C 25.2286 -1.42687 -1.31734 0
M  V30 232 O 24.5036 -0.580897 -1.85623 0
M  V30 233 C 24.7866 -3.60031 -0.0702371 0
M  V30 234 C 24.6396 -4.30566 1.30126 0
M  V30 235 C 25.9586 -4.33028 -0.785771 0
M  V30 236 H 23.0776 -0.736912 0.0114185 0
M  V30 237 H 25.7196 -1.76056 0.714432 0
M  V30 238 H 23.8696 -3.82932 -0.655382 0
M  V30 239 H 25.5416 -4.19018 1.92929 0
M  V30 240 H 23.7846 -3.91086 1.87709 0
M  V30 241 H 24.4556 -5.39114 1.18573 0
M  V30 242 H 26.9316 -4.15095 -0.288982 0
M  V30 243 H 25.8076 -5.42695 -0.823013 0
M  V30 244 H 26.0686 -4.01945 -1.841 0
M  V30 245 N 25.1277 -0.289203 -1.54924 0
M  V30 246 C 26.3557 0.326463 -2.04308 0
M  V30 247 C 26.7707 1.48413 -1.16701 0
M  V30 248 O 26.1277 1.81507 -0.190087 0
M  V30 249 C 26.1787 0.794014 -3.52672 0
M  V30 250 O 25.8997 -0.317564 -4.36948 0
M  V30 251 C 27.4007 1.47605 -4.18004 0
M  V30 252 H 24.6207 0.0726272 -0.667058 0
M  V30 253 H 27.1647 -0.425401 -2.00026 0
M  V30 254 H 25.3197 1.49593 -3.57352 0
M  V30 255 H 25.7337 0.0443186 -5.24481 0
M  V30 256 H 27.2077 1.75447 -5.23376 0
M  V30 257 H 27.6847 2.41224 -3.67025 0
M  V30 258 H 28.2907 0.81762 -4.17367 0
M  V30 259 N 26.6058 1.57591 -0.0167156 0
M  V30 260 C 27.5688 2.08393 0.954204 0
M  V30 261 C 28.5688 0.996531 1.26198 0
M  V30 262 O 29.7588 1.25858 1.20438 0
M  V30 263 C 26.8908 2.5394 2.27436 0
M  V30 264 H 28.0838 2.95455 0.514451 0
M  V30 265 H 25.6368 1.54582 0.231089 0
M  V30 266 H 26.3718 1.70171 2.76066 0
M  V30 267 H 26.1568 3.33371 2.06412 0
M  V30 268 H 27.6468 2.93512 2.97053 0
M  V30 269 N 28.0839 -0.256276 1.55502 0
M  V30 270 C 29.3329 -0.983486 1.76098 0
M  V30 271 C 29.6459 -1.86837 0.578896 0
M  V30 272 O 30.8519 -2.63163 0.667648 0
M  V30 273 C 29.3079 -1.79868 3.1173 0
M  V30 274 C 28.9159 -0.961648 4.37557 0
M  V30 275 C 30.6599 -2.51919 3.41668 0
M  V30 276 C 28.5669 -1.77219 5.64223 0
M  V30 277 H 27.4969 -0.370936 0.656447 0
M  V30 278 H 30.1479 -0.238492 1.81944 0
M  V30 279 H 28.5299 -2.58527 2.99966 0
M  V30 280 H 29.7039 -0.218048 4.60284 0
M  V30 281 H 28.0189 -0.354913 4.14885 0
M  V30 282 H 30.6159 -3.12998 4.33516 0
M  V30 283 H 30.9589 -3.23059 2.62562 0
M  V30 284 H 31.4919 -1.80278 3.54605 0
M  V30 285 H 28.2309 -1.10471 6.46124 0
M  V30 286 H 27.7509 -2.49132 5.45613 0
M  V30 287 H 29.4299 -2.34169 6.03137 0
M  V30 288 N 29.562 -1.4872 -0.521534 0
M  V30 289 C 30.787 -1.61101 -1.30618 0
M  V30 290 C 31.212 -0.274611 -1.86085 0
M  V30 291 O 30.57 0.754937 -1.64834 0
M  V30 292 C 30.618 -2.66709 -2.4269 0
M  V30 293 O 29.722 -2.24456 -3.45967 0
M  V30 294 H 29.063 -0.539921 -0.386499 0
M  V30 295 H 31.593 -1.94767 -0.626645 0
M  V30 296 H 31.603 -2.88245 -2.88754 0
M  V30 297 H 30.278 -3.63727 -2.01682 0
M  V30 298 H 28.855 -2.13168 -3.05964 0
M  V30 299 N 31.0401 0.771051 -1.3745 0
M  V30 300 C 31.9871 1.88435 -1.3327 0
M  V30 301 C 32.9571 1.64914 -0.198136 0
M  V30 302 O 34.1421 1.86821 -0.387606 0
M  V30 303 C 31.2821 3.25509 -1.14622 0
M  V30 304 C 30.3951 3.60979 -2.37314 0
M  V30 305 C 29.5301 4.87265 -2.11533 0
M  V30 306 C 28.5691 5.15469 -3.30088 0
M  V30 307 N 27.7061 6.32944 -3.03853 0
M  V30 308 H 32.5461 1.91344 -2.28455 0
M  V30 309 H 30.0831 0.935466 -1.13523 0
M  V30 310 H 32.0411 4.04582 -1.01831 0
M  V30 311 H 30.6711 3.21974 -0.230837 0
M  V30 312 H 29.7231 2.76885 -2.60842 0
M  V30 313 H 31.0351 3.77759 -3.25729 0
M  V30 314 H 30.1891 5.74244 -1.95777 0
M  V30 315 H 28.9281 4.7259 -1.20457 0
M  V30 316 H 27.9331 4.26966 -3.46382 0
M  V30 317 H 29.1581 5.32052 -4.22016 0
M  V30 318 H 27.1041 6.19625 -2.15407 0
M  V30 319 H 27.0211 6.50143 -3.85812 0
M  V30 320 H 28.2891 7.22857 -2.91716 0
M  V30 321 N 32.5182 1.22032 0.997298 0
M  V30 322 C 33.7642 1.04376 1.73878 0
M  V30 323 C 34.0972 -0.420716 1.89588 0
M  V30 324 O 33.3722 -1.31202 1.43583 0
M  V30 325 C 33.6552 1.75047 3.14691 0
M  V30 326 C 33.5082 3.29062 3.06656 0
M  V30 327 C 34.8272 1.49928 4.13775 0
M  V30 328 H 31.9462 0.380578 0.631133 0
M  V30 329 H 34.5882 1.50312 1.16217 0
M  V30 330 H 32.7382 1.35996 3.63919 0
M  V30 331 H 34.4102 3.7753 2.65083 0
M  V30 332 H 32.6532 3.58967 2.43568 0
M  V30 333 H 33.3242 3.73683 4.06282 0
M  V30 334 H 35.8002 1.83842 3.73285 0
M  V30 335 H 34.6762 2.01878 5.10428 0
M  V30 336 H 34.9372 0.430929 4.39995 0
M  V30 337 N 33.9963 -1.19345 1.0293 0
M  V30 338 C 34.9443 -2.24621 0.604001 0
M  V30 339 C 35.9383 -1.65452 -0.363587 0
M  V30 340 O 37.1443 -1.78497 -0.23212 0
M  V30 341 H 33.5193 -0.730858 0.177061 0
M  V30 342 H 35.4903 -2.5781 1.50255 0
M  V30 343 C 34.2393 -3.47688 -0.0289127 0
M  V30 344 H 33.5623 -3.93505 0.706651 0
M  V30 345 H 35.0023 -4.23011 -0.289432 0
M  V30 346 C 33.4613 -3.11817 -1.2756 0
M  V30 347 O 33.9913 -3.2451 -2.36762 0
M  V30 348 N 32.1973 -2.66246 -1.16453 0
M  V30 349 H 31.7443 -2.56118 -0.275914 0
M  V30 350 H 31.7023 -2.42617 -1.99961 0
M  V30 351 N 35.4744 -0.807222 -1.35358 0
M  V30 352 C 36.6994 -0.399309 -2.0352 0
M  V30 353 C 37.1244 0.981986 -1.60433 0
M  V30 354 O 36.4824 1.63601 -0.781299 0
M  V30 355 C 36.5304 -0.491552 -3.57234 0
M  V30 356 O 35.6344 0.494754 -4.09421 0
M  V30 357 H 34.9754 -0.166682 -0.642739 0
M  V30 358 H 37.5054 -1.09328 -1.72941 0
M  V30 359 H 37.5154 -0.361588 -4.06395 0
M  V30 360 H 36.1904 -1.49907 -3.87944 0
M  V30 361 H 34.7674 0.324977 -3.71481 0
M  V30 362 N 36.9525 1.47285 -0.560781 0
M  V30 363 C 38.2295 1.9558 0.0277798 0
M  V30 364 C 38.6095 1.5034 1.48192 0
M  V30 365 O 37.9575 0.743882 2.16052 0
M  V30 366 C 38.1675 3.48789 -0.121418 0
M  V30 367 C 39.5155 4.24594 0.0220912 0
M  V30 368 O 40.5395 3.56166 -0.0491439 0
M  V30 369 O 39.3985 5.46217 0.175958 0
M  V30 370 H 36.4925 0.824663 0.0621342 0
M  V30 371 H 39.0385 1.5767 -0.627556 0
M  V30 372 H 37.8105 3.74533 -1.13316 0
M  V30 373 H 37.4335 3.93473 0.571366 0
M  V30 374 N 38.4306 0.297415 1.54768 0
M  V30 375 C 39.6586 -0.315623 2.04478 0
M  V30 376 C 40.0736 -1.47792 1.17486 0
M  V30 377 O 39.4306 -1.81404 0.19971 0
M  V30 378 C 39.4816 -0.7753 3.53088 0
M  V30 379 O 39.2026 0.340732 4.36773 0
M  V30 380 C 40.7036 -1.45386 4.18781 0
M  V30 381 H 37.9236 -0.0690887 0.667434 0
M  V30 382 H 40.4676 0.436003 1.99798 0
M  V30 383 H 38.6226 -1.47696 3.58141 0
M  V30 384 H 39.0366 -0.0165035 5.24497 0
M  V30 385 H 40.5106 -1.72669 5.24299 0
M  V30 386 H 40.9876 -2.39275 3.68299 0
M  V30 387 H 41.5936 -0.795475 4.17795 0
M  V30 388 N 39.9087 -1.5758 0.0250728 0
M  V30 389 C 40.8567 -2.11125 -0.97617 0
M  V30 390 C 41.8507 -1.03689 -1.33959 0
M  V30 391 O 43.0567 -1.22128 -1.3223 0
M  V30 392 H 39.4317 -0.674468 -0.332561 0
M  V30 393 H 41.4027 -2.94194 -0.499223 0
M  V30 394 C 40.1517 -2.65017 -2.2508 0
M  V30 395 H 39.4747 -3.47333 -1.9799 0
M  V30 396 H 40.9147 -3.06133 -2.93357 0
M  V30 397 C 39.3737 -1.57574 -2.97779 0
M  V30 398 O 39.9037 -0.973203 -3.89733 0
M  V30 399 N 38.1097 -1.29716 -2.60043 0
M  V30 400 H 37.6567 -1.789 -1.85345 0
M  V30 401 H 37.6147 -0.58051 -3.08994 0
M  V30 402 N 41.3868 0.248026 -1.55636 0
M  V30 403 C 42.6118 0.998028 -1.81808 0
M  V30 404 C 43.0368 1.78207 -0.601979 0
M  V30 405 O 42.3948 1.75653 0.448961 0
M  V30 406 C 42.4428 1.9125 -3.05705 0
M  V30 407 O 41.5468 3.00406 -2.82542 0
M  V30 408 H 40.8878 0.284045 -0.600179 0
M  V30 409 H 43.4178 0.269357 -2.02819 0
M  V30 410 H 43.4278 2.32737 -3.35108 0
M  V30 411 H 42.1028 1.33602 -3.93857 0
M  V30 412 H 40.6798 2.63056 -2.64303 0
M  V30 413 N 42.8649 1.48995 0.513639 0
M  V30 414 C 43.7949 1.67636 1.62544 0
M  V30 415 C 44.7759 0.525087 1.61793 0
M  V30 416 O 45.9609 0.759502 1.78732 0
M  V30 417 C 43.0909 1.73114 3.01079 0
M  V30 418 C 42.0449 2.87905 3.16693 0
M  V30 419 C 41.3709 2.78486 4.56453 0
M  V30 420 C 42.6709 4.29005 2.97913 0
M  V30 421 H 44.3649 2.60716 1.47198 0
M  V30 422 H 41.9109 1.25465 0.706714 0
M  V30 423 H 43.8639 1.84742 3.78746 0
M  V30 424 H 42.5879 0.766241 3.17484 0
M  V30 425 H 41.2469 2.75859 2.41448 0
M  V30 426 H 40.8949 1.7993 4.69717 0
M  V30 427 H 40.5949 3.55523 4.67843 0
M  V30 428 H 42.1189 2.92104 5.36197 0
M  V30 429 H 43.5329 4.41798 3.65359 0
M  V30 430 H 41.9299 5.07166 3.20785 0
M  V30 431 H 42.9999 4.44329 1.94165 0
M  V30 432 N 44.343 -0.763751 1.37857 0
M  V30 433 C 45.273 -1.89103 1.36975 0
M  V30 434 C 46.254 -1.68439 0.237152 0
M  V30 435 O 47.439 -1.8918 0.438713 0
M  V30 436 C 44.569 -3.26496 1.18395 0
M  V30 437 C 43.523 -3.61741 2.28751 0
M  V30 438 C 42.849 -4.97762 1.95286 0
M  V30 439 C 44.149 -3.67665 3.70972 0
M  V30 440 H 45.843 -1.90099 2.31307 0
M  V30 441 H 43.389 -0.91319 1.11341 0
M  V30 442 H 45.342 -4.05003 1.16406 0
M  V30 443 H 44.066 -3.25955 0.205215 0
M  V30 444 H 42.725 -2.85547 2.29909 0
M  V30 445 H 42.373 -4.93769 0.959221 0
M  V30 446 H 42.073 -5.22313 2.69189 0
M  V30 447 H 43.597 -5.7866 1.94898 0
M  V30 448 H 45.011 -4.36307 3.719 0
M  V30 449 H 43.408 -4.03718 4.43995 0
M  V30 450 H 44.478 -2.68134 4.0402 0
M  V30 451 N 45.8211 -1.22559 -0.990812 0
M  V30 452 C 47.0511 -1.07623 -1.76355 0
M  V30 453 C 47.4591 0.37601 -1.85426 0
M  V30 454 O 46.8021 1.27228 -1.32509 0
M  V30 455 C 46.8641 -1.61507 -3.21179 0
M  V30 456 C 46.5281 -3.10146 -3.35646 0
M  V30 457 C 47.5251 -4.07553 -3.22796 0
M  V30 458 C 45.2101 -3.49644 -3.60631 0
M  V30 459 C 47.2041 -5.42442 -3.34716 0
M  V30 460 C 44.8911 -4.84682 -3.72192 0
M  V30 461 C 45.8891 -5.8089 -3.59243 0
M  V30 462 O 45.5771 -7.13476 -3.70415 0
M  V30 463 H 45.3091 -0.377745 -0.560611 0
M  V30 464 H 47.8631 -1.62658 -1.25425 0
M  V30 465 H 46.0931 -1.00881 -3.73309 0
M  V30 466 H 47.7821 -1.42202 -3.80175 0
M  V30 467 H 48.5481 -3.78381 -3.03403 0
M  V30 468 H 44.4271 -2.75282 -3.69785 0
M  V30 469 H 47.9711 -6.17518 -3.24526 0
M  V30 470 H 43.8681 -5.13534 -3.91092 0
M  V30 471 H 44.6361 -7.21083 -3.87275 0
M  V30 472 N 47.2992 1.18797 -1.03562 0
M  V30 473 C 48.7152 1.40671 -0.753917 0
M  V30 474 C 48.9152 1.9043 0.658686 0
M  V30 475 O 47.9712 2.08538 1.42366 0
M  V30 476 C 49.2842 2.41192 -1.79574 0
M  V30 477 C 50.8322 2.54928 -1.81606 0
M  V30 478 C 51.3072 3.58709 -2.84766 0
M  V30 479 N 52.7982 3.66212 -2.83625 0
M  V30 480 C 53.5332 4.46225 -3.60098 0
M  V30 481 N 53.0292 5.29888 -4.46308 0
M  V30 482 N 54.8222 4.40939 -3.4861 0
M  V30 483 H 46.9732 0.848221 -1.94728 0
M  V30 484 H 49.2362 0.435081 -0.842264 0
M  V30 485 H 48.9422 2.11669 -2.80872 0
M  V30 486 H 48.8162 3.40467 -1.62365 0
M  V30 487 H 51.2032 2.83771 -0.809817 0
M  V30 488 H 51.2842 1.55784 -2.02891 0
M  V30 489 H 50.9282 3.30607 -3.85566 0
M  V30 490 H 50.8582 4.57519 -2.60737 0
M  V30 491 H 53.3492 3.06466 -2.21105 0
M  V30 492 H 53.6622 5.88078 -5.01382 0
M  V30 493 H 52.0072 5.29326 -4.50377 0
M  V30 494 H 55.1982 3.74624 -2.80668 0
M  V30 495 H 55.3712 5.03056 -4.08459 0
M  V30 496 N 48.7773 0.814389 1.34928 0
M  V30 497 C 50.0253 0.397636 1.9815 0
M  V30 498 C 50.3463 -1.04069 1.64908 0
M  V30 499 O 49.6163 -1.72121 0.93548 0
M  V30 500 H 48.1963 0.144043 0.732981 0
M  V30 501 H 50.8583 1.04195 1.6471 0
M  V30 502 H 49.9543 0.509688 3.0791 0
M  V30 503 N 50.2554 -1.46986 0.568584 0
M  V30 504 C 51.4854 -2.0653 0.0539173 0
M  V30 505 C 51.8934 -1.42004 -1.25026 0
M  V30 506 O 51.2364 -0.514541 -1.76347 0
M  V30 507 C 51.2984 -3.58938 -0.200854 0
M  V30 508 C 50.9624 -4.45572 1.01559 0
M  V30 509 C 51.9594 -4.82986 1.92407 0
M  V30 510 C 49.6444 -4.8692 1.23346 0
M  V30 511 C 51.6384 -5.60559 3.03402 0
M  V30 512 C 49.3254 -5.64255 2.34649 0
M  V30 513 C 50.3234 -6.00986 3.24507 0
M  V30 514 O 50.0114 -6.76761 4.33878 0
M  V30 515 H 49.7434 -0.674292 0.0480234 0
M  V30 516 H 52.2974 -1.89812 0.784896 0
M  V30 517 H 50.5274 -3.73911 -0.986279 0
M  V30 518 H 52.2164 -4.0046 -0.662294 0
M  V30 519 H 52.9824 -4.51633 1.76785 0
M  V30 520 H 48.8614 -4.57789 0.543178 0
M  V30 521 H 52.4054 -5.89147 3.73565 0
M  V30 522 H 48.3024 -5.95021 2.5024 0
M  V30 523 H 49.0704 -6.95168 4.32068 0
M  V30 524 N 51.7335 -0.305618 -1.54608 0
M  V30 525 C 53.1445 0.186098 -1.8577 0
M  V30 526 C 53.4955 1.53058 -1.22751 0
M  V30 527 O 52.6205 2.09888 -0.526893 0
M  V30 528 C 53.2155 0.344449 -3.37044 0
M  V30 529 C 51.7745 0.780384 -3.68221 0
M  V30 530 C 50.9215 -0.108554 -2.77087 0
M  V30 531 H 53.8725 -0.526485 -1.49712 0
M  V30 532 H 53.8935 1.17828 -3.61796 0
M  V30 533 H 53.4055 -0.634235 -3.82883 0
M  V30 534 H 51.5065 1.76945 -3.27904 0
M  V30 535 H 51.6195 0.596572 -4.75371 0
M  V30 536 H 49.9835 0.412931 -2.5133 0
M  V30 537 H 50.7665 -1.08368 -3.25747 0
M  V30 538 N 53.2116 1.57565 -0.0334293 0
M  V30 539 C 54.4576 1.92262 0.645226 0
M  V30 540 C 54.7906 0.910543 1.71531 0
M  V30 541 O 54.0656 -0.066099 1.94388 0
M  V30 542 C 54.3486 3.37422 1.2577 0
M  V30 543 C 54.2016 4.49369 0.196891 0
M  V30 544 C 55.5206 3.82628 2.17449 0
M  V30 545 H 52.6396 0.699171 0.233085 0
M  V30 546 H 55.2816 1.89779 -0.0915694 0
M  V30 547 H 53.4316 3.39669 1.88566 0
M  V30 548 H 55.1036 4.59254 -0.433962 0
M  V30 549 H 53.3466 4.31168 -0.477137 0
M  V30 550 H 54.0176 5.47978 0.665124 0
M  V30 551 H 56.4936 3.82145 1.64634 0
M  V30 552 H 55.3696 4.84883 2.57254 0
M  V30 553 H 55.6306 3.18376 3.0674 0
M  V30 554 N 54.6897 -0.239769 1.55765 0
M  V30 555 C 55.6217 -1.32001 1.87372 0
M  V30 556 C 56.6347 -1.43944 0.760522 0
M  V30 557 O 57.8237 -1.45167 1.0387 0
M  V30 558 C 54.9237 -2.69779 2.05115 0
M  V30 559 C 54.0967 -2.80014 3.36022 0
M  V30 560 C 53.1557 -3.98684 3.4342 0
M  V30 561 O 52.1817 -3.87877 4.16582 0
M  V30 562 N 53.3837 -5.12176 2.73232 0
M  V30 563 H 56.1487 -1.0522 2.80622 0
M  V30 564 H 53.7097 -0.429857 1.56089 0
M  V30 565 H 55.7017 -3.47517 2.07399 0
M  V30 566 H 54.2717 -2.89237 1.18577 0
M  V30 567 H 53.4917 -1.88896 3.45994 0
M  V30 568 H 54.7797 -2.83808 4.22292 0
M  V30 569 H 54.1777 -5.2385 2.13536 0
M  V30 570 H 52.7347 -5.88022 2.81199 0
M  V30 571 N 56.1678 -1.49265 -0.50573 0
M  V30 572 C 57.0778 -1.68312 -1.63427 0
M  V30 573 C 58.0938 -0.565682 -1.64548 0
M  V30 574 O 59.2698 -0.839801 -1.83055 0
M  V30 575 C 56.3348 -1.74107 -2.99813 0
M  V30 576 C 55.3958 -2.97653 -3.09356 0
M  V30 577 C 54.6288 -3.03163 -4.39236 0
M  V30 578 O 54.8518 -2.16396 -5.27758 0
M  V30 579 O 53.7858 -3.9558 -4.53652 0
M  V30 580 H 57.6118 -2.63907 -1.50289 0
M  V30 581 H 55.1968 -1.32951 -0.681502 0
M  V30 582 H 57.0788 -1.803 -3.80881 0
M  V30 583 H 55.7538 -0.816901 -3.13223 0
M  V30 584 H 54.6608 -2.96981 -2.27493 0
M  V30 585 H 55.9938 -3.89535 -3.00871 0
M  V30 586 N 57.6459 0.756429 -1.3826 0
M  V30 587 C 58.5759 1.88374 -1.37976 0
M  V30 588 C 59.5569 1.68311 -0.246082 0
M  V30 589 O 60.7419 1.88944 -0.44874 0
M  V30 590 C 57.8719 3.25864 -1.20125 0
M  V30 591 C 56.8259 3.60523 -2.30666 0
M  V30 592 C 56.1519 4.9672 -1.97923 0
M  V30 593 C 57.4519 3.65692 -3.72916 0
M  V30 594 H 59.1459 1.88869 -2.32312 0
M  V30 595 H 56.6919 0.907272 -1.11824 0
M  V30 596 H 58.6449 4.0438 -1.18552 0
M  V30 597 H 57.3689 3.25841 -0.222498 0
M  V30 598 H 56.0279 2.84324 -2.3142 0
M  V30 599 H 55.6759 4.93253 -0.985393 0
M  V30 600 H 55.3759 5.20878 -2.71955 0
M  V30 601 H 56.8999 5.77618 -1.97964 0
M  V30 602 H 58.3139 4.34328 -3.74208 0
M  V30 603 H 56.7109 4.01358 -4.4613 0
M  V30 604 H 57.7809 2.65987 -4.05436 0
M  V30 605 N 59.124 1.23083 0.984299 0
M  V30 606 C 60.087 1.00979 2.05757 0
M  V30 607 C 61.087 -0.0269573 1.60777 0
M  V30 608 O 62.277 0.212403 1.729 0
M  V30 609 C 59.409 0.527072 3.36801 0
M  V30 610 H 60.602 1.9622 2.26799 0
M  V30 611 H 58.155 1.05072 1.15714 0
M  V30 612 H 58.89 -0.429294 3.21446 0
M  V30 613 H 58.675 1.27515 3.70786 0
M  V30 614 H 60.165 0.392942 4.15747 0
M  V30 615 N 60.6021 -1.18246 1.0419 0
M  V30 616 C 61.5651 -2.20128 0.638452 0
M  V30 617 C 62.5651 -1.57885 -0.304805 0
M  V30 618 O 63.7551 -1.73967 -0.0900369 0
M  V30 619 C 60.8871 -3.4084 -0.0637751 0
M  V30 620 H 62.0801 -2.57336 1.54007 0
M  V30 621 H 59.6331 -1.32152 0.834598 0
M  V30 622 H 60.3681 -3.09166 -0.979136 0
M  V30 623 H 60.1531 -3.8726 0.614198 0
M  V30 624 H 61.6431 -4.16274 -0.332512 0
M  V30 625 N 62.0802 -0.821533 -1.34494 0
M  V30 626 C 63.0272 -0.240397 -2.29545 0
M  V30 627 C 63.9972 0.634031 -1.53523 0
M  V30 628 O 65.1822 0.575966 -1.81899 0
M  V30 629 C 62.3222 0.592869 -3.39969 0
M  V30 630 C 61.4352 -0.30365 -4.30932 0
M  V30 631 C 60.5702 0.539049 -5.28458 0
M  V30 632 C 59.6092 -0.356942 -6.11058 0
M  V30 633 N 58.7462 0.446603 -7.00678 0
M  V30 634 H 63.5862 -1.05632 -2.7865 0
M  V30 635 H 61.1232 -0.532413 -1.37127 0
M  V30 636 H 63.0812 1.09129 -4.02675 0
M  V30 637 H 61.7112 1.37392 -2.92102 0
M  V30 638 H 60.7632 -0.920276 -3.691 0
M  V30 639 H 62.0752 -0.992661 -4.88823 0
M  V30 640 H 61.2292 1.102 -5.96608 0
M  V30 641 H 59.9682 1.26157 -4.71101 0
M  V30 642 H 58.9732 -0.932047 -5.41842 0
M  V30 643 H 60.1982 -1.07755 -6.70497 0
M  V30 644 H 58.1442 1.15282 -6.45791 0
M  V30 645 H 58.0612 -0.184048 -7.55776 0
M  V30 646 H 59.3292 0.992352 -7.73158 0
M  V30 647 N 63.5583 1.46682 -0.576371 0
M  V30 648 C 64.7983 2.04306 -0.0621356 0
M  V30 649 C 65.1623 1.4389 1.2712 0
M  V30 650 O 66.3633 1.92675 1.87429 0
M  V30 651 C 64.6343 3.57399 0.00927922 0
M  V30 652 S 66.1933 4.36309 0.466859 0
M  V30 653 H 63.0113 0.710167 -0.0344016 0
M  V30 654 H 65.6133 1.79807 -0.767437 0
M  V30 655 H 64.3173 3.98889 -0.965178 0
M  V30 656 H 63.8483 3.86424 0.737547 0
M  V30 657 H 65.8633 4.6533 1.72287 0
M  V30 658 N 65.0364 0.313813 1.54444 0
M  V30 659 C 66.2614 -0.296681 2.05267 0
M  V30 660 C 66.6864 -1.45757 1.18897 0
M  V30 661 O 66.0444 -1.80239 0.195886 0
M  V30 662 C 66.0924 -0.71831 3.53373 0
M  V30 663 O 65.1964 -1.82175 3.69981 0
M  V30 664 H 64.5374 -0.0554061 0.661684 0
M  V30 665 H 67.0674 0.459387 1.99376 0
M  V30 666 H 67.0774 -1.00364 3.95463 0
M  V30 667 H 65.7524 0.130821 4.15694 0
M  V30 668 H 64.3294 -1.53598 3.39797 0
M  V30 669 N 66.5145 -1.57545 0.0417849 0
M  V30 670 C 67.7615 -1.92317 -0.634082 0
M  V30 671 C 68.0895 -0.919334 -1.71402 0
M  V30 672 O 67.3445 0.0698253 -1.95575 0
M  V30 673 C 67.6435 -3.33794 -1.27735 0
M  V30 674 C 67.3095 -4.49716 -0.326543 0
M  V30 675 C 65.9715 -4.81156 -0.0648814 0
M  V30 676 C 68.3235 -5.20182 0.325623 0
M  V30 677 C 65.6515 -5.80414 0.856539 0
M  V30 678 C 68.0035 -6.20424 1.23518 0
M  V30 679 C 66.6675 -6.50298 1.5056 0
M  V30 680 H 65.9375 -0.703736 -0.232027 0
M  V30 681 H 68.5845 -1.91205 0.106259 0
M  V30 682 H 66.8895 -3.31228 -2.09274 0
M  V30 683 H 68.5865 -3.57975 -1.80707 0
M  V30 684 H 65.1765 -4.25176 -0.540665 0
M  V30 685 H 69.3605 -4.96112 0.136546 0
M  V30 686 H 64.6165 -6.019 1.07363 0
M  V30 687 H 68.7905 -6.74141 1.74664 0
M  V30 688 H 66.4175 -7.27025 2.22123 0
M  V30 689 N 67.9926 0.231505 -1.5589 0
M  V30 690 C 68.9026 1.308 -1.94752 0
M  V30 691 C 69.9186 1.51826 -0.849989 0
M  V30 692 O 71.0946 1.6515 -1.15271 0
M  V30 693 C 68.1596 2.63968 -2.24771 0
M  V30 694 C 67.2206 2.51331 -3.48039 0
M  V30 695 C 66.4536 3.78148 -3.76616 0
M  V30 696 O 66.6766 4.80722 -3.07022 0
M  V30 697 O 65.6106 3.75857 -4.70123 0
M  V30 698 H 69.4366 1.0083 -2.86474 0
M  V30 699 H 67.0216 0.433547 -1.42971 0
M  V30 700 H 68.9036 3.42633 -2.45318 0
M  V30 701 H 67.5786 2.9364 -1.36225 0
M  V30 702 H 66.4856 1.709 -3.32782 0
M  V30 703 H 67.8186 2.26601 -4.36936 0
M  V30 704 N 69.4707 1.49531 0.497807 0
M  V30 705 C 70.4027 1.62559 1.61578 0
M  V30 706 C 71.4157 0.508134 1.54667 0
M  V30 707 O 72.6047 0.780309 1.60541 0
M  V30 708 C 69.7047 1.56925 3.00379 0
M  V30 709 C 68.8777 2.84257 3.3244 0
M  V30 710 C 67.9367 2.71632 4.50669 0
M  V30 711 O 66.9627 3.4557 4.52294 0
M  V30 712 N 68.1647 1.83391 5.5077 0
M  V30 713 H 70.9297 2.58981 1.50828 0
M  V30 714 H 68.4907 1.4666 0.685743 0
M  V30 715 H 70.4827 1.46129 3.77397 0
M  V30 716 H 69.0527 0.683483 3.05037 0
M  V30 717 H 68.2727 3.09381 2.44289 0
M  V30 718 H 69.5607 3.68666 3.5066 0
M  V30 719 H 68.9587 1.22583 5.52259 0
M  V30 720 H 67.5157 1.78515 6.26878 0
M  V30 721 N 70.9488 -0.749086 1.3866 0
M  V30 722 C 72.1948 -1.51056 1.35314 0
M  V30 723 C 72.5278 -1.94121 -0.0553751 0
M  V30 724 O 71.8028 -1.65763 -1.01749 0
M  V30 725 C 72.0858 -2.76003 2.31288 0
M  V30 726 C 71.9388 -2.39047 3.8102 0
M  V30 727 C 73.2578 -3.78046 2.2532 0
M  V30 728 H 70.3768 -0.547972 0.492844 0
M  V30 729 H 73.0188 -0.857628 1.69543 0
M  V30 730 H 71.1688 -3.31716 2.02229 0
M  V30 731 H 72.8408 -1.89074 4.20771 0
M  V30 732 H 71.0838 -1.71449 3.98482 0
M  V30 733 H 71.7548 -3.28462 4.4364 0
M  V30 734 H 74.2308 -3.31884 2.50983 0
M  V30 735 H 73.1068 -4.63159 2.94576 0
M  V30 736 H 73.3678 -4.23957 1.25352 0
M  V30 737 N 72.4269 -1.23603 -0.977757 0
M  V30 738 C 73.3899 -1.02069 -2.05218 0
M  V30 739 C 74.3899 0.0184305 -1.60789 0
M  V30 740 O 75.5799 -0.221569 -1.72785 0
M  V30 741 C 72.7119 -0.544926 -3.36517 0
M  V30 742 H 73.9049 -1.9742 -2.25755 0
M  V30 743 H 71.4579 -1.05684 -1.15155 0
M  V30 744 H 72.1929 0.412241 -3.21669 0
M  V30 745 H 71.9779 -1.2948 -3.70105 0
M  V30 746 H 73.4679 -0.414985 -4.15533 0
M  V30 747 N 73.905 1.17692 -1.04816 0
M  V30 748 C 75.135 1.91508 -0.775128 0
M  V30 749 C 75.543 1.76844 0.67253 0
M  V30 750 O 74.886 1.10057 1.47082 0
M  V30 751 C 74.948 3.43167 -1.0713 0
M  V30 752 C 74.612 3.81612 -2.51438 0
M  V30 753 C 75.609 3.84772 -3.49638 0
M  V30 754 C 73.294 4.12687 -2.86348 0
M  V30 755 C 75.288 4.18469 -4.80794 0
M  V30 756 C 72.975 4.46053 -4.17708 0
M  V30 757 C 73.973 4.48921 -5.14741 0
M  V30 758 O 73.661 4.81504 -6.43746 0
M  V30 759 H 73.393 0.614575 -0.281555 0
M  V30 760 H 75.947 1.50206 -1.40098 0
M  V30 761 H 74.177 3.84745 -0.388342 0
M  V30 762 H 75.866 3.98239 -0.784883 0
M  V30 763 H 76.632 3.60893 -3.24008 0
M  V30 764 H 72.511 4.09627 -2.11486 0
M  V30 765 H 76.055 4.20623 -5.56527 0
M  V30 766 H 71.952 4.69393 -4.43103 0
M  V30 767 H 72.72 4.99377 -6.4851 0
M  V30 768 N 75.3831 0.828654 1.34056 0
M  V30 769 C 76.3131 0.269443 2.3194 0
M  V30 770 C 77.2941 -0.617247 1.58506 0
M  V30 771 O 78.4791 -0.542931 1.86456 0
M  V30 772 C 75.6091 -0.564793 3.42677 0
M  V30 773 C 74.5631 0.225241 4.27407 0
M  V30 774 C 73.8891 -0.7321 5.29664 0
M  V30 775 C 75.1891 1.43663 5.02154 0
M  V30 776 H 76.8831 1.08728 2.7896 0
M  V30 777 H 74.4291 0.524283 1.34117 0
M  V30 778 H 76.3821 -0.966233 4.10173 0
M  V30 779 H 75.1061 -1.41574 2.9432 0
M  V30 780 H 73.7651 0.608117 3.61521 0
M  V30 781 H 73.4131 -1.57916 4.77568 0
M  V30 782 H 73.1131 -0.20767 5.87233 0
M  V30 783 H 74.6371 -1.13128 6.00029 0
M  V30 784 H 76.0511 1.1089 5.62473 0
M  V30 785 H 74.4481 1.89711 5.69324 0
M  V30 786 H 75.5181 2.21181 4.31517 0
M  V30 787 N 76.8612 -1.46375 0.584142 0
M  V30 788 C 77.7912 -2.33103 -0.136037 0
M  V30 789 C 78.7722 -1.45431 -0.882255 0
M  V30 790 O 79.9572 -1.74246 -0.857434 0
M  V30 791 C 77.0872 -3.27731 -1.14933 0
M  V30 792 C 76.0412 -4.24855 -0.517862 0
M  V30 793 C 75.3672 -5.09001 -1.63773 0
M  V30 794 C 76.6672 -5.19439 0.545886 0
M  V30 795 H 78.3612 -2.93568 0.588086 0
M  V30 796 H 75.9072 -1.41166 0.284259 0
M  V30 797 H 77.8602 -3.87261 -1.66153 0
M  V30 798 H 76.5842 -2.65377 -1.90375 0
M  V30 799 H 75.2432 -3.6659 -0.0267361 0
M  V30 800 H 74.8912 -4.43031 -2.38185 0
M  V30 801 H 74.5912 -5.74777 -1.22085 0
M  V30 802 H 76.1152 -5.71396 -2.15266 0
M  V30 803 H 77.5292 -5.73177 0.118704 0
M  V30 804 H 75.9262 -5.93566 0.88317 0
M  V30 805 H 76.9962 -4.63285 1.43162 0
M  V30 806 N 78.3393 -0.321999 -1.54275 0
M  V30 807 C 79.5853 0.274234 -2.01543 0
M  V30 808 C 79.9403 1.499 -1.20614 0
M  V30 809 O 79.2333 1.89546 -0.279804 0
M  V30 810 C 79.4273 0.661769 -3.5122 0
M  V30 811 C 79.2563 -0.523892 -4.46638 0
M  V30 812 C 78.0263 -1.02251 -4.94846 0
M  V30 813 C 80.2243 -1.37558 -4.95563 0
M  V30 814 N 78.2063 -2.17274 -5.74165 0
M  V30 815 C 79.5773 -2.37301 -5.7279 0
M  V30 816 C 81.6323 -1.40353 -4.77709 0
M  V30 817 C 80.3353 -3.3964 -6.34064 0
M  V30 818 C 82.3613 -2.41562 -5.39817 0
M  V30 819 C 81.7233 -3.40031 -6.16894 0
M  V30 820 H 77.8223 0.0642367 -0.779357 0
M  V30 821 H 80.4063 -0.456683 -1.89268 0
M  V30 822 H 78.5773 1.36182 -3.63743 0
M  V30 823 H 80.3093 1.23934 -3.85256 0
M  V30 824 H 77.0643 -0.594046 -4.6986 0
M  V30 825 H 77.4883 -2.75289 -6.18502 0
M  V30 826 H 82.1303 -0.655907 -4.17681 0
M  V30 827 H 79.8483 -4.15309 -6.93213 0
M  V30 828 H 83.4343 -2.44524 -5.2792 0
M  V30 829 H 82.3143 -4.17063 -6.64099 0
M  V30 830 N 79.8174 1.5752 -0.0501392 0
M  V30 831 C 80.7654 2.12651 0.942459 0
M  V30 832 C 81.7594 1.05807 1.32292 0
M  V30 833 O 82.9654 1.24217 1.3027 0
M  V30 834 H 79.3404 0.679673 0.321789 0
M  V30 835 H 81.3114 2.94951 0.452356 0
M  V30 836 C 80.0604 2.68565 2.20836 0
M  V30 837 H 79.3834 3.50439 1.92439 0
M  V30 838 H 80.8234 3.10761 2.8845 0
M  V30 839 C 79.2824 1.62291 2.95234 0
M  V30 840 O 79.8124 1.03508 3.88135 0
M  V30 841 N 78.0184 1.33836 2.57946 0
M  V30 842 H 77.5654 1.81826 1.82475 0
M  V30 843 H 77.5234 0.629595 3.08032 0
M  V30 844 N 81.2955 -0.223234 1.56011 0
M  V30 845 C 82.5205 -0.968978 1.83373 0
M  V30 846 C 82.9455 -1.77227 0.630254 0
M  V30 847 O 82.3035 -1.76345 -0.420959 0
M  V30 848 C 82.3515 -1.86363 3.08709 0
M  V30 849 O 81.4555 -2.95873 2.87285 0
M  V30 850 H 80.7965 -0.274461 0.604622 0
M  V30 851 H 83.3265 -0.237056 2.03222 0
M  V30 852 H 83.3365 -2.27376 3.38768 0
M  V30 853 H 82.0115 -1.27319 3.95933 0
M  V30 854 H 80.5885 -2.58818 2.68454 0
M  V30 855 N 82.7736 -1.49793 -0.48987 0
M  V30 856 C 83.6836 -1.70036 -1.61632 0
M  V30 857 C 84.6996 -0.583102 -1.63939 0
M  V30 858 O 85.8756 -0.859169 -1.82154 0
M  V30 859 C 82.9406 -1.77277 -2.97949 0
M  V30 860 C 82.0016 -3.00918 -3.06181 0
M  V30 861 C 81.2346 -3.07804 -4.35996 0
M  V30 862 O 81.4576 -2.21982 -5.25433 0
M  V30 863 O 80.3916 -4.00369 -4.49431 0
M  V30 864 H 84.2176 -2.65486 -1.47482 0
M  V30 865 H 81.8026 -1.33666 -0.667362 0
M  V30 866 H 83.6846 -1.84329 -3.78947 0
M  V30 867 H 82.3596 -0.850076 -3.12339 0
M  V30 868 H 81.2666 -2.99377 -2.2433 0
M  V30 869 H 82.5996 -3.92704 -2.96723 0
M  V30 870 N 84.2517 0.741722 -1.39055 0
M  V30 871 C 85.1817 1.869 -1.39966 0
M  V30 872 C 86.1627 1.6804 -0.26392 0
M  V30 873 O 87.3477 1.88458 -0.468755 0
M  V30 874 C 84.4777 3.24572 -1.23574 0
M  V30 875 C 83.4317 3.58056 -2.34477 0
M  V30 876 C 82.7577 4.94593 -2.0318 0
M  V30 877 C 84.0577 3.61716 -3.76774 0
M  V30 878 H 85.7517 1.86395 -2.34302 0
M  V30 879 H 83.2977 0.895361 -1.1278 0
M  V30 880 H 85.2507 4.031 -1.22834 0
M  V30 881 H 83.9747 3.25587 -0.257045 0
M  V30 882 H 82.6337 2.81854 -2.34423 0
M  V30 883 H 82.2817 4.92181 -1.03765 0
M  V30 884 H 81.9817 5.17964 -2.77465 0
M  V30 885 H 83.5057 5.75486 -2.04079 0
M  V30 886 H 84.9197 4.30335 -3.78794 0
M  V30 887 H 83.3167 3.96603 -4.50362 0
M  V30 888 H 84.3867 2.61672 -4.08235 0
M  V30 889 N 85.7298 1.2412 0.971189 0
M  V30 890 C 87.1408 1.07236 1.52831 0
M  V30 891 C 87.4918 -0.357352 1.92918 0
M  V30 892 O 86.6168 -1.24528 1.76979 0
M  V30 893 C 87.2118 1.94043 2.77728 0
M  V30 894 C 85.7708 1.81394 3.29808 0
M  V30 895 C 84.9178 1.89189 2.02738 0
M  V30 896 H 87.8688 1.37648 0.789864 0
M  V30 897 H 87.8898 1.47066 3.5093 0
M  V30 898 H 87.4018 2.98093 2.4852 0
M  V30 899 H 85.5028 0.801634 3.63874 0
M  V30 900 H 85.6158 2.65294 3.98944 0
M  V30 901 H 83.9798 1.32877 2.17292 0
M  V30 902 H 84.7628 2.94812 1.759 0
M  V30 903 N 87.2079 -1.17134 1.05439 0
M  V30 904 C 88.1559 -2.23289 0.651511 0
M  V30 905 C 89.1499 -1.66186 -0.328411 0
M  V30 906 O 90.3559 -1.78949 -0.194206 0
M  V30 907 H 86.7309 -0.726938 0.192523 0
M  V30 908 H 88.7019 -2.54565 1.55689 0
M  V30 909 C 87.4509 -3.47671 0.0448436 0
M  V30 910 H 86.7739 -3.91918 0.78996 0
M  V30 911 H 88.2139 -4.2353 -0.19964 0
M  V30 912 C 86.6729 -3.14453 -1.20918 0
M  V30 913 O 87.2029 -3.29459 -2.29825 0
M  V30 914 N 85.4089 -2.68657 -1.10779 0
M  V30 915 H 84.9559 -2.56646 -0.221526 0
M  V30 916 H 84.9139 -2.46804 -1.9477 0
M  V30 917 N 88.686 -0.835752 -1.33615 0
M  V30 918 C 89.963 -0.352017 -1.92406 0
M  V30 919 C 90.343 1.16225 -1.76224 0
M  V30 920 O 89.691 1.97526 -1.14873 0
M  V30 921 C 89.901 -0.795485 -3.39813 0
M  V30 922 C 91.249 -0.801703 -4.16963 0
M  V30 923 O 92.273 -0.738889 -3.48452 0
M  V30 924 O 91.132 -0.886607 -5.3926 0
M  V30 925 H 88.226 -0.0989641 -0.821057 0
M  V30 926 H 90.772 -0.921397 -1.42507 0
M  V30 927 H 89.544 -1.83795 -3.45449 0
M  V30 928 H 89.167 -0.202505 -3.97084 0
M  V30 929 N 90.1641 1.46063 -0.591896 0
M  V30 930 C 91.3891 2.07226 -0.0850314 0
M  V30 931 C 91.8141 1.43625 1.21463 0
M  V30 932 O 91.1721 0.523305 1.73583 0
M  V30 933 C 91.2201 3.60554 0.0576567 0
M  V30 934 O 90.3241 3.97128 1.11188 0
M  V30 935 H 89.6651 0.660615 -0.0669568 0
M  V30 936 H 92.1951 1.8756 -0.81745 0
M  V30 937 H 92.2051 4.07165 0.2609 0
M  V30 938 H 90.8801 4.06235 -0.891416 0
M  V30 939 H 89.4571 3.62213 0.886356 0
M  V30 940 N 91.6422 0.330177 1.54103 0
M  V30 941 C 92.5522 -0.541534 2.28264 0
M  V30 942 C 93.5682 -1.12351 1.32866 0
M  V30 943 O 94.7442 -1.14206 1.65888 0
M  V30 944 C 91.8092 -1.68322 3.03098 0
M  V30 945 C 90.8702 -1.13238 4.14096 0
M  V30 946 C 90.1032 -2.21966 4.85352 0
M  V30 947 O 90.3262 -3.42437 4.56172 0
M  V30 948 O 89.2602 -1.87013 5.7211 0
M  V30 949 H 93.0862 0.060938 3.03639 0
M  V30 950 H 90.6712 0.09565 1.49093 0
M  V30 951 H 92.5532 -2.34777 3.49939 0
M  V30 952 H 91.2282 -2.27176 2.30593 0
M  V30 953 H 90.1352 -0.432736 3.71589 0
M  V30 954 H 91.4682 -0.588898 4.88664 0
M  V30 955 N 93.1203 -1.57491 0.0584922 0
M  V30 956 C 94.0503 -2.14988 -0.911178 0
M  V30 957 C 95.0313 -1.07343 -1.31952 0
M  V30 958 O 96.2163 -1.35318 -1.39294 0
M  V30 959 C 93.3463 -2.70078 -2.18347 0
M  V30 960 C 92.3003 -3.82771 -1.91495 0
M  V30 961 C 91.6263 -4.24408 -3.25241 0
M  V30 962 C 92.9263 -5.07592 -1.23075 0
M  V30 963 H 94.6203 -2.96263 -0.432246 0
M  V30 964 H 92.1663 -1.42512 -0.206469 0
M  V30 965 H 94.1193 -3.08943 -2.86587 0
M  V30 966 H 92.8433 -1.86005 -2.68458 0
M  V30 967 H 91.5023 -3.44389 -1.25664 0
M  V30 968 H 91.1503 -3.37275 -3.73168 0
M  V30 969 H 90.8503 -5.00366 -3.08071 0
M  V30 970 H 92.3743 -4.65879 -3.94701 0
M  V30 971 H 93.7883 -5.43857 -1.81362 0
M  V30 972 H 92.1853 -5.88741 -1.16207 0
M  V30 973 H 93.2553 -4.84454 -0.207847 0
M  V30 974 N 94.5984 0.214957 -1.56127 0
M  V30 975 C 95.5454 1.26642 -1.92952 0
M  V30 976 C 96.5154 1.46244 -0.78753 0
M  V30 977 O 97.7004 1.59704 -1.04399 0
M  V30 978 C 94.8404 2.6104 -2.25726 0
M  V30 979 C 93.9534 2.49183 -3.52891 0
M  V30 980 C 93.0884 3.76149 -3.7508 0
M  V30 981 C 92.1274 3.59041 -4.95738 0
M  V30 982 N 91.2644 4.77972 -5.14283 0
M  V30 983 H 96.1044 0.945384 -2.82607 0
M  V30 984 H 93.6414 0.455489 -1.3987 0
M  V30 985 H 95.5994 3.39313 -2.42739 0
M  V30 986 H 94.2294 2.91227 -1.39236 0
M  V30 987 H 93.2814 1.6231 -3.44034 0
M  V30 988 H 94.5934 2.32466 -4.41318 0
M  V30 989 H 93.7474 4.62865 -3.92226 0
M  V30 990 H 92.4864 3.95799 -2.84947 0
M  V30 991 H 91.4914 2.7071 -4.78535 0
M  V30 992 H 92.7164 3.40856 -5.87362 0
M  V30 993 H 90.6624 4.97923 -4.27093 0
M  V30 994 H 90.5794 4.64006 -5.96853 0
M  V30 995 H 91.8474 5.66096 -5.35869 0
M  V30 996 N 96.0765 1.50051 0.48192 0
M  V30 997 C 97.0395 1.67584 1.5636 0
M  V30 998 C 98.0395 0.546894 1.51214 0
M  V30 999 O 99.2295 0.813725 1.54026 0
M  V30 1000 C 96.3615 1.691 2.96003 0
M  V30 1001 H 97.5545 2.64078 1.42136 0
M  V30 1002 H 95.1075 1.39369 0.707533 0
M  V30 1003 H 95.8425 0.742589 3.15684 0
M  V30 1004 H 95.6275 2.51105 3.01146 0
M  V30 1005 H 97.1175 1.84656 3.74556 0
M  V30 1006 N 97.5546 -0.734337 1.39446 0
M  V30 1007 C 98.8016 -1.49391 1.36706 0
M  V30 1008 C 99.1296 -1.94465 -0.0367813 0
M  V30 1009 O 98.3846 -1.67154 -1.01774 0
M  V30 1010 C 98.6836 -2.74711 2.28623 0
M  V30 1011 C 98.3496 -2.48501 3.76242 0
M  V30 1012 C 97.0116 -2.41062 4.16464 0
M  V30 1013 C 99.3636 -2.26098 4.69606 0
M  V30 1014 C 96.6916 -2.09262 5.48112 0
M  V30 1015 C 99.0436 -1.95814 6.01531 0
M  V30 1016 C 97.7076 -1.86845 6.40816 0
M  V30 1017 H 96.9776 -0.546661 0.500243 0
M  V30 1018 H 99.6246 -0.842788 1.71957 0
M  V30 1019 H 97.9296 -3.44569 1.86492 0
M  V30 1020 H 99.6266 -3.32741 2.23796 0
M  V30 1021 H 96.2166 -2.55169 3.44364 0
M  V30 1022 H 100.401 -2.30812 4.39363 0
M  V30 1023 H 95.6566 -2.00841 5.77471 0
M  V30 1024 H 99.8306 -1.77488 6.73403 0
M  V30 1025 H 97.4576 -1.6197 7.42745 0
M  V30 1026 N 99.0327 -1.24633 -0.964593 0
M  V30 1027 C 100.279 -1.08949 -1.71049 0
M  V30 1028 C 100.612 0.370302 -1.90637 0
M  V30 1029 O 99.8867 1.27349 -1.47011 0
M  V30 1030 C 100.17 -1.83329 -3.0994 0
M  V30 1031 C 100.023 -3.37077 -2.97824 0
M  V30 1032 C 101.342 -1.60846 -4.09654 0
M  V30 1033 H 98.4607 -0.397178 -0.620821 0
M  V30 1034 H 101.103 -1.5334 -1.12191 0
M  V30 1035 H 99.2527 -1.45597 -3.60186 0
M  V30 1036 H 100.925 -3.84425 -2.5498 0
M  V30 1037 H 99.1677 -3.65298 -2.33965 0
M  V30 1038 H 99.8387 -3.84324 -3.96231 0
M  V30 1039 H 102.315 -1.93674 -3.68279 0
M  V30 1040 H 101.191 -2.1534 -5.04896 0
M  V30 1041 H 101.452 -0.547434 -4.38698 0
M  V30 1042 N 100.511 1.16574 -1.06058 0
M  V30 1043 C 101.459 2.22941 -0.663343 0
M  V30 1044 C 102.453 1.66358 0.319593 0
M  V30 1045 O 103.659 1.7905 0.184713 0
M  V30 1046 H 100.034 0.725907 -0.196376 0
M  V30 1047 H 102.005 2.53736 -1.57037 0
M  V30 1048 C 100.754 3.47642 -0.0632808 0
M  V30 1049 H 100.077 3.91493 -0.810733 0
M  V30 1050 H 101.517 4.2363 0.177177 0
M  V30 1051 C 99.9758 3.1509 1.19248 0
M  V30 1052 O 100.506 3.30673 2.28075 0
M  V30 1053 N 98.7118 2.6924 1.09353 0
M  V30 1054 H 98.2588 2.5676 0.207912 0
M  V30 1055 H 98.2168 2.47833 1.93458 0
M  V30 1056 N 101.989 0.842826 1.3317 0
M  V30 1057 C 103.236 0.440447 1.97652 0
M  V30 1058 C 103.564 -1.00123 1.6675 0
M  V30 1059 O 102.819 -1.7155 0.941761 0
M  V30 1060 C 103.118 0.612607 3.52111 0
M  V30 1061 C 102.784 2.02297 4.02972 0
M  V30 1062 C 101.446 2.40874 4.16573 0
M  V30 1063 C 103.798 2.94402 4.30089 0
M  V30 1064 C 101.126 3.70852 4.54627 0
M  V30 1065 C 103.478 4.23865 4.69597 0
M  V30 1066 C 102.142 4.62392 4.81404 0
M  V30 1067 H 101.412 0.161171 0.72326 0
M  V30 1068 H 104.059 1.07061 1.58777 0
M  V30 1069 H 102.364 -0.100849 3.9167 0
M  V30 1070 H 104.061 0.2815 4.00011 0
M  V30 1071 H 100.651 1.71338 3.92863 0
M  V30 1072 H 104.835 2.65835 4.19101 0
M  V30 1073 H 100.091 4.00501 4.61962 0
M  V30 1074 H 104.265 4.95306 4.89536 0
M  V30 1075 H 101.892 5.63154 5.10648 0
M  V30 1076 N 103.467 -1.45747 0.599634 0
M  V30 1077 C 104.377 -2.34262 -0.125888 0
M  V30 1078 C 105.393 -1.50768 -0.868625 0
M  V30 1079 O 106.569 -1.83592 -0.828003 0
M  V30 1080 C 103.634 -3.28252 -1.11587 0
M  V30 1081 C 102.695 -4.27651 -0.375956 0
M  V30 1082 C 101.928 -5.1715 -1.31877 0
M  V30 1083 O 102.151 -5.09916 -2.55621 0
M  V30 1084 O 101.085 -5.96286 -0.820157 0
M  V30 1085 H 104.911 -2.97688 0.601315 0
M  V30 1086 H 102.496 -1.44999 0.359934 0
M  V30 1087 H 104.378 -3.86191 -1.68626 0
M  V30 1088 H 103.053 -2.67401 -1.82424 0
M  V30 1089 H 101.96 -3.7335 0.236698 0
M  V30 1090 H 103.293 -4.91334 0.29177 0
M  V30 1091 N 104.945 -0.338344 -1.53925 0
M  V30 1092 C 106.361 0.0137736 -1.59594 0
M  V30 1093 C 106.561 1.49186 -1.35447 0
M  V30 1094 O 105.617 2.24987 -1.14616 0
M  V30 1095 C 106.93 -0.41773 -2.97784 0
M  V30 1096 C 108.478 -0.369633 -3.1081 0
M  V30 1097 C 108.953 -0.776524 -4.51369 0
M  V30 1098 N 110.444 -0.730506 -4.57403 0
M  V30 1099 C 111.179 -1.01736 -5.64303 0
M  V30 1100 N 110.675 -1.3721 -6.79077 0
M  V30 1101 N 112.468 -0.941942 -5.54151 0
M  V30 1102 H 104.619 -1.3012 -1.67876 0
M  V30 1103 H 106.882 -0.530082 -0.78595 0
M  V30 1104 H 106.588 -1.44811 -3.20504 0
M  V30 1105 H 106.462 0.209729 -3.76616 0
M  V30 1106 H 108.849 0.651568 -2.87817 0
M  V30 1107 H 108.93 -1.03223 -2.34049 0
M  V30 1108 H 108.574 -1.79571 -4.75096 0
M  V30 1109 H 108.504 -0.0914649 -5.26521 0
M  V30 1110 H 110.995 -0.468783 -3.74981 0
M  V30 1111 H 111.308 -1.57597 -7.5656 0
M  V30 1112 H 109.653 -1.4105 -6.80536 0
M  V30 1113 H 112.844 -0.664184 -4.63364 0
M  V30 1114 H 113.017 -1.16884 -6.37371 0
M  V30 1115 N 106.423 1.57458 -0.0668435 0
M  V30 1116 C 107.648 1.9804 0.616027 0
M  V30 1117 C 108.073 0.944771 1.62652 0
M  V30 1118 O 107.431 -0.0902094 1.81075 0
M  V30 1119 C 107.479 3.37665 1.26549 0
M  V30 1120 O 106.583 3.36701 2.38131 0
M  V30 1121 H 105.924 0.644719 0.158849 0
M  V30 1122 H 108.454 2.04121 -0.139891 0
M  V30 1123 H 108.464 3.7474 1.6135 0
M  V30 1124 H 107.139 4.12573 0.525016 0
M  V30 1125 H 105.716 3.1139 2.0516 0
M  V30 1126 N 107.901 -0.206675 1.56239 0
M  V30 1127 C 108.851 -1.26 1.90021 0
M  V30 1128 C 109.835 -1.41566 0.764721 0
M  V30 1129 O 111.027 -1.44131 1.02739 0
M  V30 1130 C 108.156 -2.6073 2.23326 0
M  V30 1131 C 107.242 -2.49005 3.43304 0
M  V30 1132 N 107.633 -2.06946 4.61527 0
M  V30 1133 C 105.931 -2.79927 3.47213 0
M  V30 1134 C 106.632 -2.06832 5.43687 0
M  V30 1135 N 105.608 -2.47892 4.83788 0
M  V30 1136 H 109.41 -0.925955 2.78932 0
M  V30 1137 H 106.924 -0.415172 1.57003 0
M  V30 1138 H 108.921 -3.36798 2.45708 0
M  V30 1139 H 107.581 -2.94968 1.35735 0
M  V30 1140 H 108.592 -1.77839 4.86409 0
M  V30 1141 H 105.269 -3.18438 2.70006 0
M  V30 1142 H 106.659 -1.76312 6.48354 0
M  V30 1143 N 109.379 -1.50304 -0.473955 0
M  V30 1144 C 110.795 -1.37667 -0.807466 0
M  V30 1145 C 110.995 -0.430555 -1.96846 0
M  V30 1146 O 110.051 0.127874 -2.52176 0
M  V30 1147 C 111.364 -2.78974 -1.12223 0
M  V30 1148 C 112.912 -2.87868 -1.22885 0
M  V30 1149 C 113.387 -4.30003 -1.57676 0
M  V30 1150 N 114.878 -4.3294 -1.64673 0
M  V30 1151 C 115.613 -5.3991 -1.93091 0
M  V30 1152 N 115.109 -6.57092 -2.1955 0
M  V30 1153 N 116.902 -5.27351 -1.94569 0
M  V30 1154 H 109.053 -2.10394 0.291212 0
M  V30 1155 H 111.316 -0.945575 0.0677609 0
M  V30 1156 H 111.022 -3.50031 -0.342229 0
M  V30 1157 H 110.896 -3.16038 -2.05913 0
M  V30 1158 H 113.283 -2.17032 -1.99953 0
M  V30 1159 H 113.364 -2.54352 -0.271814 0
M  V30 1160 H 113.008 -5.01375 -0.81149 0
M  V30 1161 H 112.938 -4.61004 -2.54525 0
M  V30 1162 H 115.429 -3.48441 -1.46277 0
M  V30 1163 H 115.742 -7.34425 -2.405 0
M  V30 1164 H 114.087 -6.60272 -2.16948 0
M  V30 1165 H 117.278 -4.34801 -1.73394 0
M  V30 1166 H 117.451 -6.10805 -2.16381 0
M  V30 1167 N 110.857 0.726932 -1.39834 0
M  V30 1168 C 111.804 1.841 -1.39197 0
M  V30 1169 C 112.774 1.642 -0.250502 0
M  V30 1170 O 113.959 1.85494 -0.446846 0
M  V30 1171 C 111.099 3.21697 -1.24919 0
M  V30 1172 C 110.212 3.53247 -2.48678 0
M  V30 1173 C 109.347 4.80289 -2.26928 0
M  V30 1174 C 108.386 5.04707 -3.4632 0
M  V30 1175 N 107.523 6.22956 -3.23836 0
M  V30 1176 H 112.363 1.83979 -2.34427 0
M  V30 1177 H 109.9 0.898876 -1.16442 0
M  V30 1178 H 111.858 4.01137 -1.1465 0
M  V30 1179 H 110.488 3.21076 -0.333153 0
M  V30 1180 H 109.54 2.68447 -2.69519 0
M  V30 1181 H 110.852 3.67205 -3.37582 0
M  V30 1182 H 110.006 5.67725 -2.13947 0
M  V30 1183 H 108.745 4.68519 -1.35431 0
M  V30 1184 H 107.75 4.1573 -3.5979 0
M  V30 1185 H 108.975 5.18357 -4.38729 0
M  V30 1186 H 106.921 6.12459 -2.35011 0
M  V30 1187 H 106.838 6.37539 -4.063 0
M  V30 1188 H 108.106 7.1321 -3.14566 0
M  V30 1189 N 112.336 1.25143 0.95797 0
M  V30 1190 C 113.266 1.07711 2.07173 0
M  V30 1191 C 114.247 -0.0128462 1.70095 0
M  V30 1192 O 115.432 0.156061 1.93572 0
M  V30 1193 C 112.562 0.691503 3.40346 0
M  V30 1194 C 111.516 1.73132 3.9142 0
M  V30 1195 C 110.842 1.20049 5.21049 0
M  V30 1196 C 112.142 3.1294 4.1817 0
M  V30 1197 H 113.836 2.00873 2.22014 0
M  V30 1198 H 111.382 0.967191 1.06684 0
M  V30 1199 H 113.335 0.556505 4.17709 0
M  V30 1200 H 112.059 -0.275819 3.25433 0
M  V30 1201 H 110.718 1.8547 3.16222 0
M  V30 1202 H 110.366 0.223499 5.02503 0
M  V30 1203 H 110.066 1.89545 5.56189 0
M  V30 1204 H 111.59 1.07782 6.01012 0
M  V30 1205 H 113.004 3.03775 4.86203 0
M  V30 1206 H 111.401 3.79875 4.64559 0
M  V30 1207 H 112.471 3.6025 3.24573 0
M  V30 1208 N 113.814 -1.1601 1.06675 0
M  V30 1209 C 115.091 -1.82679 0.699114 0
M  V30 1210 C 115.471 -1.94559 -0.819137 0
M  V30 1211 O 114.819 -1.49169 -1.73092 0
M  V30 1212 C 115.029 -3.19445 1.40555 0
M  V30 1213 C 116.377 -3.95171 1.55323 0
M  V30 1214 O 117.401 -3.28976 1.36577 0
M  V30 1215 O 116.26 -5.13833 1.86112 0
M  V30 1216 H 113.354 -0.788954 0.247951 0
M  V30 1217 H 115.9 -1.23179 1.16726 0
M  V30 1218 H 114.672 -3.05856 2.44065 0
M  V30 1219 H 114.295 -3.86625 0.927733 0
M  V30 1220 N 115.292 -0.849877 -1.32721 0
M  V30 1221 C 116.202 -0.293791 -2.32753 0
M  V30 1222 C 117.218 0.585906 -1.63839 0
M  V30 1223 O 118.394 0.487413 -1.95413 0
M  V30 1224 C 115.459 0.512752 -3.42887 0
M  V30 1225 C 114.52 -0.39252 -4.27502 0
M  V30 1226 C 113.753 0.375625 -5.32377 0
M  V30 1227 O 113.976 1.60613 -5.4732 0
M  V30 1228 O 112.91 -0.256094 -6.01355 0
M  V30 1229 H 116.736 -1.12242 -2.82197 0
M  V30 1230 H 114.321 -0.612685 -1.36259 0
M  V30 1231 H 116.203 0.970704 -4.10067 0
M  V30 1232 H 114.878 1.31826 -2.95641 0
M  V30 1233 H 113.785 -0.898547 -3.63149 0
M  V30 1234 H 115.118 -1.16309 -4.7826 0
M  V30 1235 N 116.77 1.45427 -0.607355 0
M  V30 1236 C 117.718 2.32269 0.12411 0
M  V30 1237 C 118.712 1.45955 0.859854 0
M  V30 1238 O 119.918 1.6244 0.775447 0
M  V30 1239 H 116.293 0.749691 0.0588839 0
M  V30 1240 H 118.264 2.91743 -0.626762 0
M  V30 1241 C 117.013 3.29567 1.1082 0
M  V30 1242 H 116.336 3.95978 0.551492 0
M  V30 1243 H 117.776 3.93061 1.58995 0
M  V30 1244 C 116.235 2.56722 2.18164 0
M  V30 1245 O 116.765 2.34842 3.25902 0
M  V30 1246 N 114.971 2.16861 1.93442 0
M  V30 1247 H 114.518 2.34855 1.05834 0
M  V30 1248 H 114.476 1.68444 2.65469 0
M  V30 1249 N 118.248 0.346503 1.53744 0
M  V30 1250 C 119.494 -0.249473 2.0126 0
M  V30 1251 C 119.827 -1.49965 1.23386 0
M  V30 1252 O 119.102 -1.91811 0.32229 0
M  V30 1253 C 119.385 -0.560643 3.55709 0
M  V30 1254 C 119.238 0.701836 4.44291 0
M  V30 1255 C 120.557 -1.36905 4.18264 0
M  V30 1256 H 117.676 -0.0891987 0.731582 0
M  V30 1257 H 120.318 0.467624 1.84156 0
M  V30 1258 H 118.468 -1.17156 3.70414 0
M  V30 1259 H 120.14 1.33974 4.41417 0
M  V30 1260 H 118.383 1.32612 4.13033 0
M  V30 1261 H 119.054 0.43933 5.50249 0
M  V30 1262 H 121.53 -0.852448 4.07275 0
M  V30 1263 H 120.406 -1.55553 5.26398 0
M  V30 1264 H 120.667 -2.37203 3.73078 0
M  V30 1265 N 119.726 -1.57421 0.075193 0
M  V30 1266 C 120.673 -2.12915 -0.890843 0
M  V30 1267 C 121.643 -1.04252 -1.29309 0
M  V30 1268 O 122.828 -1.31933 -1.37834 0
M  V30 1269 C 119.968 -2.69795 -2.15186 0
M  V30 1270 C 119.081 -3.92624 -1.80194 0
M  V30 1271 C 118.216 -4.37736 -3.00933 0
M  V30 1272 C 117.255 -5.53205 -2.61974 0
M  V30 1273 N 116.392 -5.9326 -3.75483 0
M  V30 1274 H 121.232 -2.95156 -0.410735 0
M  V30 1275 H 118.769 -1.45854 -0.191086 0
M  V30 1276 H 120.727 -3.00883 -2.89008 0
M  V30 1277 H 119.357 -1.90313 -2.60731 0
M  V30 1278 H 118.409 -3.67977 -0.964218 0
M  V30 1279 H 119.721 -4.76482 -1.47534 0
M  V30 1280 H 118.875 -4.70503 -3.8303 0
M  V30 1281 H 117.614 -3.52739 -3.36789 0
M  V30 1282 H 116.619 -5.20086 -1.783 0
M  V30 1283 H 117.844 -6.39936 -2.27284 0
M  V30 1284 H 115.79 -5.11212 -4.11094 0
M  V30 1285 H 115.707 -6.71865 -3.46602 0
M  V30 1286 H 116.975 -6.30651 -4.58148 0
M  V30 1287 N 121.204 0.198386 -1.56346 0
M  V30 1288 C 122.452 0.91747 -1.80075 0
M  V30 1289 C 122.773 1.83929 -0.647692 0
M  V30 1290 O 122.043 1.93029 0.334166 0
M  V30 1291 H 120.623 0.341774 -0.664228 0
M  V30 1292 H 123.285 0.204684 -1.93822 0
M  V30 1293 H 122.381 1.51055 -2.7311 0
M  V30 1294 N 122.682 1.50554 0.465978 0
M  V30 1295 C 123.645 1.69233 1.54574 0
M  V30 1296 C 124.645 0.562901 1.50626 0
M  V30 1297 O 125.835 0.830016 1.53155 0
M  V30 1298 C 122.967 1.7223 2.94193 0
M  V30 1299 H 124.16 2.65571 1.39327 0
M  V30 1300 H 121.713 1.40111 0.692711 0
M  V30 1301 H 122.448 0.77603 3.14878 0
M  V30 1302 H 122.233 2.54285 2.98466 0
M  V30 1303 H 123.723 1.88618 3.72576 0
M  V30 1304 N 124.16 -0.719506 1.40217 0
M  V30 1305 C 125.409 -1.47486 1.37589 0
M  V30 1306 C 125.722 -1.9559 -0.0201568 0
M  V30 1307 O 126.928 -2.70973 -0.169049 0
M  V30 1308 C 125.384 -2.66575 2.41796 0
M  V30 1309 C 124.992 -2.25358 3.87192 0
M  V30 1310 C 126.736 -3.4433 2.48269 0
M  V30 1311 C 124.643 -3.41262 4.83005 0
M  V30 1312 H 123.573 -0.553901 0.511576 0
M  V30 1313 H 126.224 -0.783427 1.65936 0
M  V30 1314 H 124.606 -3.3787 2.06543 0
M  V30 1315 H 125.78 -1.61509 4.31569 0
M  V30 1316 H 124.095 -1.60657 3.84159 0
M  V30 1317 H 126.692 -4.30569 3.17041 0
M  V30 1318 H 127.035 -3.87872 1.51198 0
M  V30 1319 H 127.568 -2.80076 2.82493 0
M  V30 1320 H 124.307 -3.02755 5.81394 0
M  V30 1321 H 123.827 -4.0404 4.43297 0
M  V30 1322 H 125.506 -4.07383 5.02641 0
M  V30 1323 N 125.638 -1.25649 -0.95132 0
M  V30 1324 C 126.915 -1.01361 -1.67288 0
M  V30 1325 C 127.295 0.459135 -2.06046 0
M  V30 1326 O 126.643 1.43723 -1.7764 0
M  V30 1327 C 126.853 -1.95256 -2.89268 0
M  V30 1328 C 128.201 -2.23289 -3.61147 0
M  V30 1329 O 129.225 -1.93041 -2.99355 0
M  V30 1330 O 128.084 -2.74741 -4.72419 0
M  V30 1331 H 125.178 -0.38464 -0.732107 0
M  V30 1332 H 127.724 -1.36817 -1.00395 0
M  V30 1333 H 126.496 -2.94685 -2.57442 0
M  V30 1334 H 126.119 -1.60218 -3.6389 0
M  V30 1335 N 127.117 1.15442 -1.07289 0
M  V30 1336 C 128.047 2.22312 -0.714107 0
M  V30 1337 C 129.028 1.67467 0.298155 0
M  V30 1338 O 130.213 1.93445 0.171048 0
M  V30 1339 C 127.343 3.47124 -0.110448 0
M  V30 1340 C 126.297 4.14926 -1.04979 0
M  V30 1341 C 125.623 5.33807 -0.308924 0
M  V30 1342 C 126.923 4.64762 -2.38314 0
M  V30 1343 H 128.617 2.5258 -1.6076 0
M  V30 1344 H 126.163 1.21404 -0.77441 0
M  V30 1345 H 128.116 4.21124 0.152482 0
M  V30 1346 H 126.84 3.16187 0.81812 0
M  V30 1347 H 125.499 3.42866 -1.29764 0
M  V30 1348 H 125.147 4.99126 0.623084 0
M  V30 1349 H 124.847 5.80113 -0.935036 0
M  V30 1350 H 126.371 6.10576 -0.0537771 0
M  V30 1351 H 127.785 5.30292 -2.1786 0
M  V30 1352 H 126.182 5.21728 -2.96514 0
M  V30 1353 H 127.252 3.80434 -3.00663 0
M  V30 1354 N 128.595 0.856903 1.32268 0
M  V30 1355 C 129.525 0.31858 2.31316 0
M  V30 1356 C 130.506 -0.583487 1.59779 0
M  V30 1357 O 131.691 -0.503259 1.87566 0
M  V30 1358 C 128.821 -0.491979 3.43798 0
M  V30 1359 C 127.775 0.315849 4.26833 0
M  V30 1360 C 127.101 -0.619586 5.31098 0
M  V30 1361 C 128.401 1.54282 4.98993 0
M  V30 1362 H 130.095 1.14621 2.76591 0
M  V30 1363 H 127.641 0.552613 1.32974 0
M  V30 1364 H 129.594 -0.879012 4.1213 0
M  V30 1365 H 128.318 -1.35299 2.97257 0
M  V30 1366 H 126.977 0.684664 3.6015 0
M  V30 1367 H 126.625 -1.47751 4.8081 0
M  V30 1368 H 126.325 -0.0830621 5.87541 0
M  V30 1369 H 127.849 -1.00375 6.02293 0
M  V30 1370 H 129.263 1.22796 5.59995 0
M  V30 1371 H 127.66 2.01745 5.65172 0
M  V30 1372 H 128.73 2.30285 4.26728 0
M  V30 1373 N 130.073 -1.45103 0.615059 0
M  V30 1374 C 131.298 -2.07064 0.117988 0
M  V30 1375 C 131.723 -1.4554 -1.19163 0
M  V30 1376 O 131.081 -0.550855 -1.72729 0
M  V30 1377 C 131.129 -3.606 -0.000288387 0
M  V30 1378 O 130.233 -3.98847 -1.04856 0
M  V30 1379 H 129.574 -0.659467 0.0774581 0
M  V30 1380 H 132.104 -1.86236 0.847186 0
M  V30 1381 H 132.114 -4.07529 -0.196091 0
M  V30 1382 H 130.789 -4.04765 0.955932 0
M  V30 1383 H 129.366 -3.63577 -0.828619 0
M  V30 1384 N 131.551 -0.354651 -1.53558 0
M  V30 1385 C 132.779 0.239515 -2.05509 0
M  V30 1386 C 133.194 1.4333 -1.2289 0
M  V30 1387 O 132.551 1.80538 -0.266899 0
M  V30 1388 C 132.602 0.643719 -3.55723 0
M  V30 1389 O 132.323 -0.502602 -4.35207 0
M  V30 1390 C 133.824 1.29743 -4.23889 0
M  V30 1391 H 131.044 0.0442697 -0.669538 0
M  V30 1392 H 133.588 -0.509856 -1.98042 0
M  V30 1393 H 131.743 1.34302 -3.63376 0
M  V30 1394 H 132.157 -0.178172 -5.24197 0
M  V30 1395 H 133.631 1.53091 -5.30346 0
M  V30 1396 H 134.108 2.25441 -3.76926 0
M  V30 1397 H 134.714 0.639865 -4.20459 0
M  V30 1398 N 133.029 1.57378 -0.0835403 0
M  V30 1399 C 133.992 2.12252 0.864959 0
M  V30 1400 C 134.992 1.04916 1.21858 0
M  V30 1401 O 136.182 1.30853 1.14991 0
M  V30 1402 C 133.314 2.63358 2.16461 0
M  V30 1403 H 134.507 2.97371 0.388676 0
M  V30 1404 H 132.06 1.55423 0.165317 0
M  V30 1405 H 132.795 1.81727 2.686 0
M  V30 1406 H 132.58 3.41826 1.92087 0
M  V30 1407 H 134.07 3.05847 2.84337 0
M  V30 1408 N 134.507 -0.190092 1.56449 0
M  V30 1409 C 135.747 -0.916414 1.82705 0
M  V30 1410 C 136.111 -1.80235 0.661763 0
M  V30 1411 O 137.312 -2.56484 0.80433 0
M  V30 1412 C 135.583 -1.70691 3.14005 0
M  V30 1413 S 137.142 -2.48457 3.61683 0
M  V30 1414 H 133.96 -0.307281 0.64117 0
M  V30 1415 H 136.562 -0.179433 1.94675 0
M  V30 1416 H 135.266 -1.04677 3.96826 0
M  V30 1417 H 134.797 -2.48562 3.04927 0
M  V30 1418 H 136.812 -3.72756 3.27517 0
M  V30 1419 N 135.985 -1.50799 -0.457987 0
M  V30 1420 C 136.935 -1.67003 -1.55222 0
M  V30 1421 C 137.919 -0.52434 -1.52117 0
M  V30 1422 O 139.111 -0.779345 -1.58919 0
M  V30 1423 C 136.24 -1.77956 -2.93576 0
M  V30 1424 C 135.326 -2.98243 -3.01516 0
M  V30 1425 N 135.717 -4.21732 -2.79241 0
M  V30 1426 C 134.015 -2.97072 -3.32662 0
M  V30 1427 C 134.716 -5.02817 -2.92489 0
M  V30 1428 N 133.692 -4.37038 -3.23262 0
M  V30 1429 H 137.494 -2.60163 -1.36721 0
M  V30 1430 H 135.008 -1.48163 -0.664952 0
M  V30 1431 H 137.005 -1.87671 -3.72271 0
M  V30 1432 H 135.665 -0.859634 -3.13114 0
M  V30 1433 H 136.676 -4.51016 -2.54567 0
M  V30 1434 H 133.353 -2.14631 -3.58106 0
M  V30 1435 H 134.743 -6.11054 -2.79396 0
M  V30 1436 N 137.463 0.71206 -1.40597 0
M  V30 1437 C 138.874 1.29135 -1.34837 0
M  V30 1438 C 139.225 1.96186 -0.0235395 0
M  V30 1439 O 138.35 1.97768 0.878444 0
M  V30 1440 C 138.945 2.34827 -2.44217 0
M  V30 1441 C 137.504 2.88371 -2.41907 0
M  V30 1442 C 136.651 1.62202 -2.24913 0
M  V30 1443 H 139.602 0.507944 -1.50352 0
M  V30 1444 H 139.623 3.15749 -2.12327 0
M  V30 1445 H 139.135 1.85996 -3.40627 0
M  V30 1446 H 137.236 3.41422 -1.49204 0
M  V30 1447 H 137.349 3.39925 -3.37621 0
M  V30 1448 H 135.713 1.874 -1.72492 0
M  V30 1449 H 136.496 1.15391 -3.23326 0
M  V30 1450 N 138.941 1.26152 0.944643 0
M  V30 1451 C 139.874 1.01729 2.04271 0
M  V30 1452 C 140.852 -0.0568101 1.62501 0
M  V30 1453 O 142.036 0.0848987 1.88309 0
M  V30 1454 C 139.163 0.539792 3.34371 0
M  V30 1455 C 138.209 1.60593 3.9511 0
M  V30 1456 S 139.042 3.19392 4.29825 0
M  V30 1457 C 140.198 2.73402 5.63029 0
M  V30 1458 H 140.431 1.94703 2.24673 0
M  V30 1459 H 137.964 1.09793 1.08558 0
M  V30 1460 H 139.922 0.270956 4.09605 0
M  V30 1461 H 138.583 -0.369609 3.11918 0
M  V30 1462 H 137.776 1.22275 4.88943 0
M  V30 1463 H 137.378 1.82596 3.26397 0
M  V30 1464 H 139.67 2.1765 6.41588 0
M  V30 1465 H 140.613 3.65913 6.06229 0
M  V30 1466 H 141.021 2.13077 5.22741 0
M  V30 1467 N 140.419 -1.14872 1.07899 0
M  V30 1468 C 141.696 -1.81928 0.71845 0
M  V30 1469 C 142.076 -1.95417 -0.798455 0
M  V30 1470 O 141.424 -1.50997 -1.715 0
M  V30 1471 C 141.634 -3.17937 1.43935 0
M  V30 1472 C 142.982 -3.93501 1.59506 0
M  V30 1473 O 144.006 -3.27509 1.40058 0
M  V30 1474 O 142.865 -5.1183 1.91551 0
M  V30 1475 H 139.959 -0.78628 0.256305 0
M  V30 1476 H 142.505 -1.21934 1.18026 0
M  V30 1477 H 141.277 -3.0325 2.47295 0
M  V30 1478 H 140.9 -3.85619 0.968687 0
M  V30 1479 N 141.898 -0.863906 -1.31812 0
M  V30 1480 C 143.144 -0.472535 -1.97218 0
M  V30 1481 C 143.477 0.971394 -1.68159 0
M  V30 1482 O 142.752 1.68309 -0.974798 0
M  V30 1483 C 143.035 -0.723054 -3.52766 0
M  V30 1484 C 142.888 -2.21608 -3.91421 0
M  V30 1485 C 144.207 -0.185522 -4.39709 0
M  V30 1486 H 141.326 -0.173158 -0.71637 0
M  V30 1487 H 143.968 -1.08403 -1.56041 0
M  V30 1488 H 142.118 -0.202577 -3.87971 0
M  V30 1489 H 143.79 -2.80334 -3.66347 0
M  V30 1490 H 142.033 -2.691 -3.40246 0
M  V30 1491 H 142.704 -2.34203 -4.99853 0
M  V30 1492 H 145.18 -0.630726 -4.11292 0
M  V30 1493 H 144.056 -0.390306 -5.47511 0
M  V30 1494 H 144.317 0.912229 -4.32586 0
M  V30 1495 N 143.376 1.44774 -0.622745 0
M  V30 1496 C 144.339 2.29069 0.0774015 0
M  V30 1497 C 145.339 1.4059 0.780461 0
M  V30 1498 O 146.529 1.62551 0.626322 0
M  V30 1499 C 143.661 3.21974 1.12006 0
M  V30 1500 H 144.854 2.92459 -0.663901 0
M  V30 1501 H 142.407 1.51548 -0.382486 0
M  V30 1502 H 143.142 2.63417 1.89162 0
M  V30 1503 H 142.927 3.87168 0.619951 0
M  V30 1504 H 144.417 3.85318 1.60995 0
M  V30 1505 N 144.854 0.36279 1.53368 0
M  V30 1506 C 146.27 0.0116182 1.59596 0
M  V30 1507 C 146.47 -1.47012 1.37803 0
M  V30 1508 O 145.526 -2.23136 1.18181 0
M  V30 1509 C 146.839 0.465052 2.97082 0
M  V30 1510 C 148.387 0.419033 3.10182 0
M  V30 1511 C 148.862 0.848235 4.50077 0
M  V30 1512 N 150.353 0.803183 4.56183 0
M  V30 1513 C 151.088 1.107 5.62613 0
M  V30 1514 N 150.584 1.47996 6.76808 0
M  V30 1515 N 152.377 1.02998 5.52583 0
M  V30 1516 H 144.528 1.32775 1.65785 0
M  V30 1517 H 146.791 0.542518 0.777417 0
M  V30 1518 H 146.497 1.49892 3.18159 0
M  V30 1519 H 146.371 -0.149786 3.76902 0
M  V30 1520 H 148.758 -0.605696 2.88817 0
M  V30 1521 H 148.839 1.06933 2.32377 0
M  V30 1522 H 148.483 1.87107 4.7218 0
M  V30 1523 H 148.413 0.175218 5.26308 0
M  V30 1524 H 150.904 0.52838 3.74188 0
M  V30 1525 H 151.217 1.69613 7.53957 0
M  V30 1526 H 149.562 1.51859 6.78206 0
M  V30 1527 H 152.753 0.737817 4.62249 0
M  V30 1528 H 152.926 1.2701 6.35431 0
M  V30 1529 N 146.332 -1.57332 0.0918853 0
M  V30 1530 C 147.56 -1.98574 -0.581048 0
M  V30 1531 C 147.975 -0.970903 -1.61923 0
M  V30 1532 O 147.332 0.0399054 -1.82456 0
M  V30 1533 C 147.383 -3.39872 -1.23164 0
M  V30 1534 O 147.104 -4.37469 -0.234989 0
M  V30 1535 C 148.605 -3.96099 -1.99049 0
M  V30 1536 H 145.825 -0.65261 -0.156018 0
M  V30 1537 H 148.369 -2.0379 0.170225 0
M  V30 1538 H 146.524 -3.35679 -1.93386 0
M  V30 1539 H 146.938 -5.19751 -0.70418 0
M  V30 1540 H 148.412 -4.97127 -2.39934 0
M  V30 1541 H 148.889 -3.3374 -2.85507 0
M  V30 1542 H 149.495 -4.03755 -1.3365 0
M  V30 1543 N 147.81 0.181792 -1.56548 0
M  V30 1544 C 148.773 1.20894 -1.94724 0
M  V30 1545 C 149.773 1.37738 -0.829747 0
M  V30 1546 O 150.963 1.35323 -1.09697 0
M  V30 1547 C 148.095 2.57593 -2.23291 0
M  V30 1548 H 149.288 0.882275 -2.86629 0
M  V30 1549 H 146.841 0.423838 -1.50444 0
M  V30 1550 H 147.576 2.95291 -1.34067 0
M  V30 1551 H 147.361 2.46735 -3.04736 0
M  V30 1552 H 148.851 3.31637 -2.53785 0
M  V30 1553 N 149.288 1.51039 0.449983 0
M  V30 1554 C 150.534 1.63322 1.20223 0
M  V30 1555 C 150.867 0.34241 1.91158 0
M  V30 1556 O 150.142 -0.657344 1.83055 0
M  V30 1557 C 150.425 2.82801 2.22925 0
M  V30 1558 C 150.278 4.21823 1.56157 0
M  V30 1559 C 151.597 2.97807 3.24035 0
M  V30 1560 H 148.716 0.594407 0.435718 0
M  V30 1561 H 151.358 1.83489 0.493136 0
M  V30 1562 H 149.508 2.65738 2.834 0
M  V30 1563 H 151.18 4.50526 0.991162 0
M  V30 1564 H 149.423 4.25105 0.864172 0
M  V30 1565 H 150.094 5.01391 2.30891 0
M  V30 1566 H 152.57 3.13497 2.73603 0
M  V30 1567 H 151.446 3.82992 3.93202 0
M  V30 1568 H 151.707 2.09328 3.89402 0
M  V30 1569 N 150.766 -0.704594 1.40972 0
M  V30 1570 C 151.991 -1.49858 1.43378 0
M  V30 1571 C 152.416 -1.88061 0.038184 0
M  V30 1572 O 151.774 -1.5402 -0.956425 0
M  V30 1573 C 151.822 -2.74333 2.34038 0
M  V30 1574 O 150.926 -3.7147 1.7912 0
M  V30 1575 H 150.267 -0.45139 0.486974 0
M  V30 1576 H 152.797 -0.866832 1.8533 0
M  V30 1577 H 152.807 -3.22741 2.49604 0
M  V30 1578 H 151.482 -2.45863 3.35446 0
M  V30 1579 H 150.059 -3.30363 1.72958 0
M  V30 1580 N 152.244 -1.26651 -0.937939 0
M  V30 1581 C 153.49 -1.12553 -1.687 0
M  V30 1582 C 153.823 0.329782 -1.91379 0
M  V30 1583 O 153.098 1.24202 -1.4968 0
M  V30 1584 C 153.381 -1.89862 -3.05981 0
M  V30 1585 C 153.234 -3.43318 -2.90607 0
M  V30 1586 C 154.553 -1.69499 -4.0615 0
M  V30 1587 H 151.672 -0.410257 -0.612257 0
M  V30 1588 H 154.314 -1.55685 -1.08913 0
M  V30 1589 H 152.464 -1.53204 -3.57017 0
M  V30 1590 H 154.136 -3.89747 -2.46769 0
M  V30 1591 H 152.379 -3.70179 -2.26164 0
M  V30 1592 H 153.05 -3.92642 -3.8799 0
M  V30 1593 H 155.526 -2.01442 -3.64088 0
M  V30 1594 H 154.402 -2.26002 -5.00214 0
M  V30 1595 H 154.663 -0.640365 -4.37438 0
M  V30 1596 N 153.722 1.14298 -1.08507 0
M  V30 1597 C 154.652 2.21542 -0.737646 0
M  V30 1598 C 155.633 1.67773 0.280377 0
M  V30 1599 O 156.818 1.93616 0.150521 0
M  V30 1600 C 153.948 3.46988 -0.147259 0
M  V30 1601 C 152.902 4.13789 -1.09374 0
M  V30 1602 C 152.228 5.33449 -0.365524 0
M  V30 1603 C 153.528 4.62208 -2.4323 0
M  V30 1604 H 155.222 2.5086 -1.6343 0
M  V30 1605 H 152.768 1.20576 -0.787243 0
M  V30 1606 H 154.721 4.21262 0.107808 0
M  V30 1607 H 153.445 3.17037 0.784538 0
M  V30 1608 H 152.104 3.4147 -1.33393 0
M  V30 1609 H 151.752 4.99759 0.57011 0
M  V30 1610 H 151.452 5.79088 -0.996512 0
M  V30 1611 H 152.976 6.10485 -0.118534 0
M  V30 1612 H 154.39 5.27952 -2.23472 0
M  V30 1613 H 152.787 5.18553 -3.02031 0
M  V30 1614 H 153.857 3.77224 -3.04681 0
M  V30 1615 N 155.201 0.870884 1.31352 0
M  V30 1616 C 156.449 0.48132 1.96285 0
M  V30 1617 C 156.77 -0.969813 1.69173 0
M  V30 1618 O 156.04 -1.67998 1.00764 0
M  V30 1619 H 154.62 0.175002 0.726212 0
M  V30 1620 H 157.282 1.11087 1.60143 0
M  V30 1621 H 156.378 0.639825 3.05471 0
M  V30 1622 N 156.679 -1.44442 0.630414 0
M  V30 1623 C 157.642 -2.29107 -0.0652523 0
M  V30 1624 C 158.642 -1.41002 -0.772995 0
M  V30 1625 O 159.832 -1.62881 -0.617692 0
M  V30 1626 C 156.964 -3.22564 -1.10296 0
M  V30 1627 H 158.157 -2.92103 0.679401 0
M  V30 1628 H 155.71 -1.51343 0.390517 0
M  V30 1629 H 156.445 -2.64416 -1.87762 0
M  V30 1630 H 156.23 -3.87491 -0.59941 0
M  V30 1631 H 157.72 -3.86167 -1.5895 0
M  V30 1632 N 158.157 -0.370918 -1.53173 0
M  V30 1633 C 159.105 0.488101 -2.27421 0
M  V30 1634 C 160.099 1.07884 -1.30604 0
M  V30 1635 O 161.305 1.02143 -1.48212 0
M  V30 1636 H 157.68 0.176134 -0.731082 0
M  V30 1637 H 159.651 -0.159815 -2.97972 0
M  V30 1638 C 158.4 1.61306 -3.08019 0
M  V30 1639 H 157.723 1.1678 -3.82364 0
M  V30 1640 H 159.163 2.18872 -3.63141 0
M  V30 1641 C 157.622 2.55848 -2.19188 0
M  V30 1642 O 158.152 3.58799 -1.80626 0
M  V30 1643 N 156.358 2.2516 -1.83715 0
M  V30 1644 H 155.905 1.41476 -2.15273 0
M  V30 1645 H 155.863 2.8867 -1.24567 0
M  V30 1646 N 159.635 1.57281 -0.100228 0
M  V30 1647 C 160.585 2.10848 0.86759 0
M  V30 1648 C 161.569 1.02473 1.24049 0
M  V30 1649 O 162.761 1.28739 1.21471 0
M  V30 1650 C 159.89 2.69648 2.12474 0
M  V30 1651 C 158.976 3.85074 1.77704 0
M  V30 1652 N 159.367 4.92897 1.13518 0
M  V30 1653 C 157.665 3.94905 2.07282 0
M  V30 1654 C 158.366 5.73475 0.974735 0
M  V30 1655 N 157.342 5.22675 1.4937 0
M  V30 1656 H 161.144 2.91594 0.367471 0
M  V30 1657 H 158.658 1.62074 0.102829 0
M  V30 1658 H 160.655 3.06356 2.82757 0
M  V30 1659 H 159.315 1.90359 2.63047 0
M  V30 1660 H 160.326 5.11662 0.801381 0
M  V30 1661 H 157.003 3.26633 2.60033 0
M  V30 1662 H 158.393 6.70238 0.472364 0
M  V30 1663 N 161.113 -0.173488 1.56642 0
M  V30 1664 C 162.076 -1.19859 1.95362 0
M  V30 1665 C 163.076 -1.37296 0.83704 0
M  V30 1666 O 164.266 -1.34739 1.10413 0
M  V30 1667 C 161.398 -2.56405 2.24654 0
M  V30 1668 H 162.591 -0.867062 2.87092 0
M  V30 1669 H 160.144 -0.415853 1.50666 0
M  V30 1670 H 160.879 -2.94576 1.35631 0
M  V30 1671 H 160.664 -2.45115 3.06041 0
M  V30 1672 H 162.154 -3.30287 2.5554 0
M  V30 1673 N 162.591 -1.51276 -0.441967 0
M  V30 1674 C 164.007 -1.39349 -0.778083 0
M  V30 1675 C 164.207 -0.472212 -1.95889 0
M  V30 1676 O 163.263 0.0743551 -2.5239 0
M  V30 1677 C 164.576 -2.81292 -1.0628 0
M  V30 1678 C 166.124 -2.9041 -1.16751 0
M  V30 1679 C 166.599 -4.33251 -1.48519 0
M  V30 1680 N 168.09 -4.36336 -1.55453 0
M  V30 1681 C 168.825 -5.43885 -1.81596 0
M  V30 1682 N 168.321 -6.61601 -2.05562 0
M  V30 1683 N 170.114 -5.3136 -1.8334 0
M  V30 1684 H 162.265 -2.09729 0.335774 0
M  V30 1685 H 164.528 -0.943925 0.0878028 0
M  V30 1686 H 164.234 -3.50678 -0.267905 0
M  V30 1687 H 164.108 -3.20334 -1.99163 0
M  V30 1688 H 166.495 -2.21225 -1.95304 0
M  V30 1689 H 166.576 -2.54871 -0.217801 0
M  V30 1690 H 166.22 -5.02984 -0.704958 0
M  V30 1691 H 166.15 -4.66299 -2.44689 0
M  V30 1692 H 168.641 -3.51466 -1.38853 0
M  V30 1693 H 168.954 -7.39361 -2.24867 0
M  V30 1694 H 167.299 -6.64725 -2.02894 0
M  V30 1695 H 170.49 -4.38382 -1.64132 0
M  V30 1696 H 170.663 -6.15258 -2.03377 0
M  V30 1697 N 164.069 0.697108 -1.41344 0
M  V30 1698 C 165.032 1.79281 -1.42797 0
M  V30 1699 C 166.032 1.57607 -0.318837 0
M  V30 1700 O 167.222 1.64309 -0.578642 0
M  V30 1701 C 164.354 3.17632 -1.23785 0
M  V30 1702 H 165.547 1.79385 -2.40335 0
M  V30 1703 H 163.1 0.904582 -1.27464 0
M  V30 1704 H 163.835 3.23167 -0.270814 0
M  V30 1705 H 163.62 3.34765 -2.04144 0
M  V30 1706 H 165.11 3.97617 -1.27633 0
M  V30 1707 N 165.547 1.27147 0.931209 0
M  V30 1708 C 166.479 1.05364 2.03546 0
M  V30 1709 C 167.492 0.0108438 1.62796 0
M  V30 1710 O 168.681 0.25202 1.76712 0
M  V30 1711 C 165.781 0.575566 3.33977 0
M  V30 1712 C 164.954 1.68985 4.03439 0
M  V30 1713 C 164.013 1.20813 5.12143 0
M  V30 1714 O 163.039 1.90712 5.363 0
M  V30 1715 N 164.241 0.0618851 5.80467 0
M  V30 1716 H 167.006 2.00454 2.22796 0
M  V30 1717 H 164.567 1.18666 1.10136 0
M  V30 1718 H 166.559 0.237264 4.04004 0
M  V30 1719 H 165.129 -0.282016 3.11325 0
M  V30 1720 H 164.349 2.19861 3.27192 0
M  V30 1721 H 165.637 2.4378 4.46597 0
M  V30 1722 H 165.035 -0.521621 5.6329 0
M  V30 1723 H 163.592 -0.217264 6.51438 0
M  V30 1724 N 167.025 -1.13721 1.09112 0
M  V30 1725 C 168.302 -1.81155 0.737706 0
M  V30 1726 C 168.682 -1.96253 -0.777683 0
M  V30 1727 O 168.03 -1.52807 -1.69889 0
M  V30 1728 C 168.24 -3.16392 1.47299 0
M  V30 1729 C 169.588 -3.91787 1.63671 0
M  V30 1730 O 170.612 -3.26005 1.43524 0
M  V30 1731 O 169.471 -5.0977 1.96969 0
M  V30 1732 H 166.565 -0.783518 0.26463 0
M  V30 1733 H 169.111 -1.20676 1.19312 0
M  V30 1734 H 167.883 -3.0061 2.50498 0
M  V30 1735 H 167.506 -3.8457 1.00953 0
M  V30 1736 N 168.503 -0.877838 -1.30888 0
M  V30 1737 C 169.728 -0.506629 -2.01117 0
M  V30 1738 C 170.153 0.895564 -1.65412 0
M  V30 1739 O 169.511 1.5923 -0.866922 0
M  V30 1740 C 169.559 -0.680223 -3.54126 0
M  V30 1741 O 168.663 0.277033 -4.11468 0
M  V30 1742 H 168.004 -0.200518 -0.633 0
M  V30 1743 H 170.534 -1.18342 -1.66902 0
M  V30 1744 H 170.544 -0.5765 -4.03907 0
M  V30 1745 H 169.219 -1.70261 -3.79452 0
M  V30 1746 H 167.796 0.127606 -3.72682 0
M  V30 1747 N 169.982 1.44106 -0.638065 0
M  V30 1748 C 171.207 2.0685 -0.150916 0
M  V30 1749 C 171.632 1.47417 1.16833 0
M  V30 1750 O 170.99 0.578264 1.71831 0
M  V30 1751 C 171.038 3.60555 -0.05708 0
M  V30 1752 O 170.142 4.00465 0.984972 0
M  V30 1753 H 169.483 0.658151 -0.0879399 0
M  V30 1754 H 172.013 1.84865 -0.876707 0
M  V30 1755 H 172.023 4.07789 0.131232 0
M  V30 1756 H 170.698 4.03193 -1.02021 0
M  V30 1757 H 169.275 3.64849 0.770672 0
M  V30 1758 N 171.46 0.379036 1.52974 0
M  V30 1759 C 172.871 -0.0972525 1.86447 0
M  V30 1760 C 173.222 -1.47027 1.29914 0
M  V30 1761 O 172.347 -2.07135 0.626433 0
M  V30 1762 C 172.942 -0.183248 3.38304 0
M  V30 1763 C 171.501 -0.603812 3.71525 0
M  V30 1764 C 170.648 0.240632 2.76254 0
M  V30 1765 H 173.599 0.597316 1.4703 0
M  V30 1766 H 173.62 -1.00432 3.67006 0
M  V30 1767 H 173.132 0.816191 3.79421 0
M  V30 1768 H 171.233 -1.61099 3.35973 0
M  V30 1769 H 171.346 -0.369086 4.77676 0
M  V30 1770 H 169.71 -0.292548 2.53014 0
M  V30 1771 H 170.493 1.23786 3.20206 0
M  V30 1772 N 172.938 -1.57226 0.108567 0
M  V30 1773 C 173.848 -2.18292 -0.859401 0
M  V30 1774 C 174.864 -1.15612 -1.30038 0
M  V30 1775 O 176.04 -1.48039 -1.36552 0
M  V30 1776 C 173.105 -2.762 -2.09558 0
M  V30 1777 C 172.166 -3.93881 -1.70752 0
M  V30 1778 C 171.399 -4.49018 -2.88477 0
M  V30 1779 O 171.622 -4.03068 -4.036 0
M  V30 1780 O 170.556 -5.39852 -2.66164 0
M  V30 1781 H 174.382 -3.01441 -0.369769 0
M  V30 1782 H 171.967 -1.48945 -0.1165 0
M  V30 1783 H 173.849 -3.13156 -2.81978 0
M  V30 1784 H 172.524 -1.96089 -2.57548 0
M  V30 1785 H 171.431 -3.61713 -0.954714 0
M  V30 1786 H 172.764 -4.75396 -1.27513 0
M  V30 1787 N 174.416 0.165178 -1.56732 0
M  V30 1788 C 175.379 1.18822 -1.95995 0
M  V30 1789 C 176.379 1.3685 -0.84431 0
M  V30 1790 O 177.569 1.34152 -1.11126 0
M  V30 1791 C 174.701 2.5521 -2.26011 0
M  V30 1792 H 175.894 0.851825 -2.87548 0
M  V30 1793 H 173.447 0.407857 -1.50885 0
M  V30 1794 H 174.182 2.93852 -1.37191 0
M  V30 1795 H 173.967 2.43489 -3.07336 0
M  V30 1796 H 175.457 3.28927 -2.57288 0
M  V30 1797 N 175.894 1.51508 0.433938 0
M  V30 1798 C 176.842 1.73646 1.54757 0
M  V30 1799 C 177.836 0.602854 1.5831 0
M  V30 1800 O 179.042 0.784318 1.62014 0
M  V30 1801 H 175.417 0.548718 0.51421 0
M  V30 1802 H 177.388 2.66991 1.33261 0
M  V30 1803 C 176.137 1.88172 2.92381 0
M  V30 1804 H 175.46 2.74808 2.90381 0
M  V30 1805 H 176.9 2.07672 3.6966 0
M  V30 1806 C 175.359 0.64239 3.30719 0
M  V30 1807 O 175.889 -0.201362 4.01195 0
M  V30 1808 N 174.095 0.485489 2.86516 0
M  V30 1809 H 173.642 1.17318 2.29334 0
M  V30 1810 H 173.6 -0.342482 3.12529 0
M  V30 1811 N 177.372 -0.689602 1.41712 0
M  V30 1812 C 178.302 -1.81577 1.46806 0
M  V30 1813 C 179.283 -1.66945 0.326105 0
M  V30 1814 O 180.468 -1.86588 0.538377 0
M  V30 1815 C 177.598 -3.19762 1.35535 0
M  V30 1816 C 176.552 -3.49107 2.47605 0
M  V30 1817 C 175.878 -4.86711 2.21397 0
M  V30 1818 C 177.178 -3.47483 3.89939 0
M  V30 1819 H 178.872 -1.7757 2.41058 0
M  V30 1820 H 176.418 -0.852887 1.16025 0
M  V30 1821 H 178.371 -3.98263 1.3771 0
M  V30 1822 H 177.095 -3.24409 0.377708 0
M  V30 1823 H 175.754 -2.72959 2.44722 0
M  V30 1824 H 175.402 -4.8799 1.21961 0
M  V30 1825 H 175.102 -5.0731 2.96497 0
M  V30 1826 H 176.626 -5.67515 2.25297 0
M  V30 1827 H 178.04 -4.1598 3.94505 0
M  V30 1828 H 176.437 -3.79615 4.64771 0
M  V30 1829 H 177.507 -2.46341 4.17665 0
M  V30 1830 N 178.85 -1.27639 -0.924453 0
M  V30 1831 C 179.76 -1.12466 -2.05885 0
M  V30 1832 C 180.776 -0.053869 -1.73917 0
M  V30 1833 O 181.952 -0.261012 -1.99702 0
M  V30 1834 C 179.017 -0.776768 -3.37886 0
M  V30 1835 C 178.078 -1.92878 -3.83532 0
M  V30 1836 C 177.311 -1.59739 -5.09234 0
M  V30 1837 O 177.534 -0.506782 -5.68144 0
M  V30 1838 O 176.468 -2.43761 -5.50331 0
M  V30 1839 H 180.294 -2.07671 -2.21599 0
M  V30 1840 H 177.879 -1.06857 -1.04413 0
M  V30 1841 H 179.761 -0.596229 -4.17161 0
M  V30 1842 H 178.436 0.145732 -3.23372 0
M  V30 1843 H 177.343 -2.1644 -3.0513 0
M  V30 1844 H 178.676 -2.8316 -4.02593 0
M  V30 1845 N 180.328 1.1314 -1.09713 0
M  V30 1846 C 181.275 2.18642 -0.739196 0
M  V30 1847 C 182.245 1.63706 0.280978 0
M  V30 1848 O 183.43 1.90111 0.161946 0
M  V30 1849 C 180.57 3.44685 -0.169102 0
M  V30 1850 C 179.683 4.13711 -1.24367 0
M  V30 1851 C 178.818 5.27379 -0.636019 0
M  V30 1852 C 177.857 5.88259 -1.69169 0
M  V30 1853 N 176.994 6.93352 -1.10485 0
M  V30 1854 H 181.834 2.48607 -1.64312 0
M  V30 1855 H 179.371 1.22066 -0.820875 0
M  V30 1856 H 181.329 4.16815 0.179256 0
M  V30 1857 H 179.959 3.15161 0.698079 0
M  V30 1858 H 179.011 3.39835 -1.70927 0
M  V30 1859 H 180.323 4.55037 -2.04311 0
M  V30 1860 H 179.477 6.06238 -0.236677 0
M  V30 1861 H 178.216 4.8731 0.194928 0
M  V30 1862 H 177.221 5.08092 -2.10055 0
M  V30 1863 H 178.446 6.30399 -2.52536 0
M  V30 1864 H 176.392 6.55335 -0.295234 0
M  V30 1865 H 176.309 7.33236 -1.84121 0
M  V30 1866 H 177.577 7.76057 -0.73181 0
M  V30 1867 N 181.806 0.884767 1.30421 0
M  V30 1868 C 182.769 0.356277 2.26414 0
M  V30 1869 C 183.769 -0.501124 1.52792 0
M  V30 1870 O 184.959 -0.30831 1.7145 0
M  V30 1871 C 182.091 -0.492316 3.37326 0
M  V30 1872 H 183.284 1.20389 2.74675 0
M  V30 1873 H 180.837 0.661607 1.41607 0
M  V30 1874 H 181.572 -1.36052 2.94381 0
M  V30 1875 H 181.357 0.121832 3.91911 0
M  V30 1876 H 182.847 -0.853871 4.08777 0
M  V30 1877 N 183.284 -1.43765 0.645699 0
M  V30 1878 C 184.217 -2.2798 -0.100072 0
M  V30 1879 C 185.195 -1.39391 -0.837194 0
M  V30 1880 O 186.379 -1.68833 -0.838306 0
M  V30 1881 C 183.506 -3.18643 -1.14823 0
M  V30 1882 C 182.552 -4.2344 -0.510009 0
M  V30 1883 S 183.385 -5.30761 0.710824 0
M  V30 1884 C 184.541 -6.24992 -0.33699 0
M  V30 1885 H 184.774 -2.90884 0.614322 0
M  V30 1886 H 182.307 -1.48166 0.434304 0
M  V30 1887 H 184.265 -3.71424 -1.74799 0
M  V30 1888 H 182.926 -2.54932 -1.8349 0
M  V30 1889 H 182.119 -4.86948 -1.29991 0
M  V30 1890 H 181.721 -3.73997 0.0154577 0
M  V30 1891 H 184.013 -6.66691 -1.20537 0
M  V30 1892 H 184.956 -7.07612 0.262879 0
M  V30 1893 H 185.364 -5.60517 -0.669425 0
M  V30 1894 N 184.763 -0.387143 -1.52771 0
M  V30 1895 C 185.988 0.198407 -2.06449 0
M  V30 1896 C 186.413 1.39918 -1.25716 0
M  V30 1897 O 185.771 1.79099 -0.281657 0
M  V30 1898 C 185.819 0.548893 -3.56398 0
M  V30 1899 O 184.923 1.64315 -3.78252 0
M  V30 1900 H 184.264 0.0237731 -0.663574 0
M  V30 1901 H 186.794 -0.553989 -1.96957 0
M  V30 1902 H 186.804 0.813812 -3.99801 0
M  V30 1903 H 185.479 -0.329005 -4.14597 0
M  V30 1904 H 184.056 1.37211 -3.46738 0
M  V30 1905 N 186.241 1.57166 -0.116904 0
M  V30 1906 C 187.171 2.18222 0.830759 0
M  V30 1907 C 188.152 1.12167 1.27877 0
M  V30 1908 O 189.337 1.40394 1.34176 0
M  V30 1909 C 186.467 2.77996 2.08172 0
M  V30 1910 C 185.421 3.89614 1.77157 0
M  V30 1911 C 184.747 4.36187 3.09265 0
M  V30 1912 C 186.047 5.1181 1.04151 0
M  V30 1913 H 187.741 2.97664 0.321992 0
M  V30 1914 H 185.287 1.4318 0.153434 0
M  V30 1915 H 187.24 3.19366 2.74924 0
M  V30 1916 H 185.964 1.9584 2.6137 0
M  V30 1917 H 184.623 3.48816 1.12796 0
M  V30 1918 H 184.271 3.50893 3.60393 0
M  V30 1919 H 183.971 5.11455 2.89288 0
M  V30 1920 H 185.495 4.80207 3.77139 0
M  V30 1921 H 186.909 5.50214 1.61052 0
M  V30 1922 H 185.306 5.92648 0.942762 0
M  V30 1923 H 186.376 4.84892 0.0279022 0
M  V30 1924 N 187.719 -0.156864 1.56817 0
M  V30 1925 C 188.649 -1.19589 2.00551 0
M  V30 1926 C 189.63 -1.4536 0.883426 0
M  V30 1927 O 190.815 -1.56449 1.15054 0
M  V30 1928 C 187.945 -2.53143 2.37773 0
M  V30 1929 C 186.899 -2.41913 3.53075 0
M  V30 1930 C 186.225 -3.80088 3.76081 0
M  V30 1931 C 187.525 -1.91157 4.86062 0
M  V30 1932 H 189.219 -0.832293 2.87599 0
M  V30 1933 H 186.765 -0.398918 1.38364 0
M  V30 1934 H 188.718 -3.26047 2.66967 0
M  V30 1935 H 187.442 -2.91319 1.4765 0
M  V30 1936 H 186.101 -1.71462 3.24031 0
M  V30 1937 H 185.749 -4.15683 2.83225 0
M  V30 1938 H 185.449 -3.73439 4.53671 0
M  V30 1939 H 186.973 -4.54556 4.0769 0
M  V30 1940 H 188.387 -2.53846 5.14038 0
M  V30 1941 H 186.784 -1.95422 5.67389 0
M  V30 1942 H 187.854 -0.866673 4.77092 0
M  V30 1943 N 189.197 -1.51736 -0.425897 0
M  V30 1944 C 190.16 -1.73271 -1.50032 0
M  V30 1945 C 191.16 -0.602639 -1.4908 0
M  V30 1946 O 192.35 -0.87033 -1.509 0
M  V30 1947 C 189.482 -1.79969 -2.89523 0
M  V30 1948 H 190.675 -2.69172 -1.32237 0
M  V30 1949 H 188.228 -1.41899 -0.65532 0
M  V30 1950 H 188.963 -0.859241 -3.1271 0
M  V30 1951 H 188.748 -2.62109 -2.91619 0
M  V30 1952 H 190.238 -1.9843 -3.67444 0
M  V30 1953 N 190.675 0.682077 -1.42076 0
M  V30 1954 C 191.903 1.47057 -1.4554 0
M  V30 1955 C 192.318 1.8869 -0.0645779 0
M  V30 1956 O 191.675 1.57666 0.919115 0
M  V30 1957 C 191.726 2.72442 -2.37609 0
M  V30 1958 O 191.447 2.32559 -3.71279 0
M  V30 1959 C 192.948 3.66069 -2.50017 0
M  V30 1960 H 190.168 0.452737 -0.495248 0
M  V30 1961 H 192.712 0.838695 -1.8651 0
M  V30 1962 H 190.867 3.31835 -1.9991 0
M  V30 1963 H 191.281 3.13475 -4.20516 0
M  V30 1964 H 192.755 4.50792 -3.18576 0
M  V30 1965 H 193.232 4.11476 -1.53572 0
M  V30 1966 H 193.838 3.12572 -2.88407 0
M  V30 1967 N 192.153 1.28127 0.917671 0
M  V30 1968 C 193.4 1.15052 1.66641 0
M  V30 1969 C 193.728 -0.301677 1.92146 0
M  V30 1970 O 192.983 -1.23622 1.51711 0
M  V30 1971 C 193.282 1.89018 3.03327 0
M  V30 1972 C 192.948 3.38832 2.97496 0
M  V30 1973 C 191.61 3.79693 2.95613 0
M  V30 1974 C 193.962 4.34378 2.88036 0
M  V30 1975 C 191.29 5.14447 2.82066 0
M  V30 1976 C 193.642 5.69201 2.7603 0
M  V30 1977 C 192.306 6.09343 2.72502 0
M  V30 1978 H 191.576 0.421006 0.609783 0
M  V30 1979 H 194.223 1.58855 1.06945 0
M  V30 1980 H 192.528 1.37752 3.66785 0
M  V30 1981 H 194.225 1.76321 3.60156 0
M  V30 1982 H 190.815 3.06342 2.99754 0
M  V30 1983 H 194.999 4.03775 2.88581 0
M  V30 1984 H 190.255 5.44681 2.77728 0
M  V30 1985 H 194.429 6.42901 2.67678 0
M  V30 1986 H 192.056 7.13712 2.61762 0
M  V30 1987 N 193.631 -1.12557 1.10312 0
M  V30 1988 C 195.042 -1.65574 0.862678 0
M  V30 1989 C 195.393 -1.86566 -0.607256 0
M  V30 1990 O 194.518 -1.59121 -1.46662 0
M  V30 1991 C 195.113 -3.00776 1.55947 0
M  V30 1992 C 193.672 -3.50748 1.36576 0
M  V30 1993 C 192.819 -2.25797 1.60968 0
M  V30 1994 H 195.77 -0.963552 1.26101 0
M  V30 1995 H 195.791 -3.67185 0.997753 0
M  V30 1996 H 195.303 -2.85465 2.62928 0
M  V30 1997 H 193.404 -3.71245 0.317531 0
M  V30 1998 H 193.517 -4.30289 2.10686 0
M  V30 1999 H 191.881 -2.32841 1.03234 0
M  V30 2000 H 192.664 -2.13043 2.69198 0
M  V30 2001 N 195.109 -0.891671 -1.2995 0
M  V30 2002 C 196.334 -0.527932 -2.00568 0
M  V30 2003 C 196.759 0.877969 -1.66353 0
M  V30 2004 O 196.117 1.58301 -0.883762 0
M  V30 2005 C 196.165 -0.717745 -3.53385 0
M  V30 2006 O 195.269 0.233376 -4.11739 0
M  V30 2007 H 194.61 -0.20722 -0.630837 0
M  V30 2008 H 197.14 -1.20105 -1.65638 0
M  V30 2009 H 197.15 -0.619307 -4.03272 0
M  V30 2010 H 195.825 -1.74276 -3.77625 0
M  V30 2011 H 194.402 0.0880706 -3.72796 0
M  V30 2012 N 196.587 1.43421 -0.653314 0
M  V30 2013 C 197.833 2.02111 -0.166992 0
M  V30 2014 C 198.166 1.51423 1.21592 0
M  V30 2015 O 197.441 0.707389 1.8118 0
M  V30 2016 C 197.724 3.5966 -0.177948 0
M  V30 2017 C 197.577 4.20579 -1.59478 0
M  V30 2018 C 198.896 4.37413 0.4856 0
M  V30 2019 H 196.015 0.734374 -0.0621557 0
M  V30 2020 H 198.657 1.70717 -0.834016 0
M  V30 2021 H 196.807 3.86537 0.390032 0
M  V30 2022 H 198.479 4.04732 -2.21336 0
M  V30 2023 H 196.722 3.77226 -2.14204 0
M  V30 2024 H 197.393 5.29665 -1.5543 0
M  V30 2025 H 199.869 4.161 0.00234528 0
M  V30 2026 H 198.745 5.47075 0.447207 0
M  V30 2027 H 199.006 4.13672 1.55974 0
M  V30 2028 N 198.065 0.39524 1.52563 0
M  V30 2029 C 199.311 -0.185318 2.01952 0
M  V30 2030 C 199.644 -1.45964 1.28095 0
M  V30 2031 O 198.919 -1.90689 0.38315 0
M  V30 2032 C 199.202 -0.447193 3.57312 0
M  V30 2033 C 199.055 0.842828 4.41833 0
M  V30 2034 C 200.374 -1.23529 4.22408 0
M  V30 2035 H 197.493 -0.0658788 0.73405 0
M  V30 2036 H 200.135 0.525975 1.82575 0
M  V30 2037 H 198.285 -1.05312 3.73954 0
M  V30 2038 H 199.957 1.4795 4.36931 0
M  V30 2039 H 198.2 1.45686 4.08605 0
M  V30 2040 H 198.871 0.614165 5.48573 0
M  V30 2041 H 201.347 -0.722445 4.0978 0
M  V30 2042 H 200.223 -1.38727 5.3108 0
M  V30 2043 H 200.484 -2.25213 3.80436 0
M  V30 2044 N 199.544 -1.57102 0.125237 0
M  V30 2045 C 200.507 -2.14471 -0.80838 0
M  V30 2046 C 201.507 -1.0811 -1.19033 0
M  V30 2047 O 202.697 -1.33856 -1.11482 0
M  V30 2048 C 199.829 -2.69005 -2.09402 0
M  V30 2049 H 201.022 -2.98297 -0.309696 0
M  V30 2050 H 198.575 -1.55807 -0.124051 0
M  V30 2051 H 199.31 -1.88785 -2.63687 0
M  V30 2052 H 199.095 -3.46799 -1.82957 0
M  V30 2053 H 200.585 -3.13278 -2.76128 0
M  V30 2054 N 201.022 0.148545 -1.56898 0
M  V30 2055 C 202.252 0.875118 -1.8715 0
M  V30 2056 C 202.66 1.75322 -0.711262 0
M  V30 2057 O 202.003 1.80745 0.328151 0
M  V30 2058 C 202.065 1.7844 -3.12089 0
M  V30 2059 C 201.729 1.08361 -4.43967 0
M  V30 2060 C 202.726 0.438247 -5.1805 0
M  V30 2061 C 200.411 1.07358 -4.90693 0
M  V30 2062 C 202.405 -0.20779 -6.37061 0
M  V30 2063 C 200.092 0.42373 -6.09629 0
M  V30 2064 C 201.09 -0.215829 -6.82659 0
M  V30 2065 O 200.778 -0.855378 -7.99336 0
M  V30 2066 H 200.51 0.258504 -0.624621 0
M  V30 2067 H 203.064 0.14652 -2.04877 0
M  V30 2068 H 201.294 2.55389 -2.90367 0
M  V30 2069 H 202.983 2.38279 -3.286 0
M  V30 2070 H 203.749 0.437817 -4.8302 0
M  V30 2071 H 199.628 1.5608 -4.33774 0
M  V30 2072 H 203.172 -0.70758 -6.94002 0
M  V30 2073 H 199.069 0.421822 -6.4412 0
M  V30 2074 H 199.837 -0.756892 -8.14993 0
M  V30 2075 N 202.5 1.5196 0.417844 0
M  V30 2076 C 203.777 1.56146 1.17803 0
M  V30 2077 C 204.157 0.337275 2.08388 0
M  V30 2078 O 203.505 -0.676447 2.18258 0
M  V30 2079 C 203.715 2.88566 1.96293 0
M  V30 2080 C 205.063 3.41244 2.52662 0
M  V30 2081 O 206.087 2.90247 2.06483 0
M  V30 2082 O 204.946 4.30273 3.36938 0
M  V30 2083 H 202.04 0.628598 0.537395 0
M  V30 2084 H 204.586 1.64283 0.425331 0
M  V30 2085 H 203.358 3.69116 1.2988 0
M  V30 2086 H 202.981 2.83681 2.78587 0
M  V30 2087 N 203.978 -0.674533 1.42435 0
M  V30 2088 C 204.91 -1.80005 1.41883 0
M  V30 2089 C 205.923 -1.59667 0.31787 0
M  V30 2090 O 207.112 -1.68781 0.580973 0
M  V30 2091 C 204.212 -3.17114 1.19549 0
M  V30 2092 C 203.385 -3.64299 2.42084 0
M  V30 2093 C 202.444 -4.80142 2.15291 0
M  V30 2094 O 201.47 -4.90673 2.88493 0
M  V30 2095 N 202.672 -5.68869 1.1562 0
M  V30 2096 H 205.437 -1.80964 2.38898 0
M  V30 2097 H 202.998 -0.857633 1.37318 0
M  V30 2098 H 204.99 -3.92267 0.995417 0
M  V30 2099 H 203.56 -3.11053 0.310569 0
M  V30 2100 H 202.78 -2.79822 2.77657 0
M  V30 2101 H 204.068 -3.92567 3.23679 0
M  V30 2102 H 203.466 -5.63012 0.550765 0
M  V30 2103 H 202.023 -6.43833 1.016 0
M  V30 2104 N 205.456 -1.28612 -0.910864 0
M  V30 2105 C 206.872 -1.06381 -1.18976 0
M  V30 2106 C 207.072 0.191998 -2.00583 0
M  V30 2107 O 206.128 0.892869 -2.36187 0
M  V30 2108 C 207.441 -2.31295 -1.92154 0
M  V30 2109 C 208.989 -2.36503 -2.05025 0
M  V30 2110 C 209.464 -3.61191 -2.81612 0
M  V30 2111 N 210.955 -3.61847 -2.89172 0
M  V30 2112 C 211.69 -4.55004 -3.4894 0
M  V30 2113 N 211.186 -5.58482 -4.09963 0
M  V30 2114 N 212.979 -4.42594 -3.46506 0
M  V30 2115 H 205.13 -2.09221 -0.366094 0
M  V30 2116 H 207.393 -0.921003 -0.224629 0
M  V30 2117 H 207.099 -3.228 -1.39618 0
M  V30 2118 H 206.973 -2.37934 -2.9269 0
M  V30 2119 H 209.36 -1.45494 -2.5674 0
M  V30 2120 H 209.441 -2.33857 -1.03657 0
M  V30 2121 H 209.085 -4.52545 -2.30576 0
M  V30 2122 H 209.015 -3.61092 -3.83302 0
M  V30 2123 H 211.506 -2.87022 -2.45819 0
M  V30 2124 H 211.819 -6.25704 -4.53557 0
M  V30 2125 H 210.164 -5.62305 -4.08459 0
M  V30 2126 H 213.355 -3.60953 -2.98045 0
M  V30 2127 H 213.528 -5.15381 -3.92793 0
M  V30 2128 N 206.934 1.1197 -1.10907 0
M  V30 2129 C 208.35 1.35591 -0.841852 0
M  V30 2130 C 208.55 1.94233 0.536246 0
M  V30 2131 O 207.606 2.1717 1.28816 0
M  V30 2132 C 208.919 2.29284 -1.94549 0
M  V30 2133 C 210.467 2.42862 -1.97451 0
M  V30 2134 C 210.942 3.39873 -3.07002 0
M  V30 2135 N 212.433 3.47433 -3.06341 0
M  V30 2136 C 213.168 4.22421 -3.87748 0
M  V30 2137 N 212.664 5.00432 -4.79103 0
M  V30 2138 N 214.457 4.17876 -3.75946 0
M  V30 2139 H 206.608 0.722664 -1.99728 0
M  V30 2140 H 208.871 0.380635 -0.868229 0
M  V30 2141 H 208.577 1.93378 -2.93765 0
M  V30 2142 H 208.451 3.29452 -1.83688 0
M  V30 2143 H 210.838 2.78046 -0.988645 0
M  V30 2144 H 210.919 1.42566 -2.12388 0
M  V30 2145 H 210.563 3.05417 -4.05811 0
M  V30 2146 H 210.493 4.40011 -2.89306 0
M  V30 2147 H 212.984 2.91784 -2.40147 0
M  V30 2148 H 213.297 5.55002 -5.37766 0
M  V30 2149 H 211.642 4.99612 -4.83128 0
M  V30 2150 H 214.833 3.56016 -3.03924 0
M  V30 2151 H 215.006 4.76061 -4.39624 0
M  V30 2152 N 208.412 0.89855 1.29475 0
M  V30 2153 C 209.828 0.594483 1.48115 0
M  V30 2154 C 210.028 -0.86431 1.82022 0
M  V30 2155 O 209.084 -1.64457 1.91599 0
M  V30 2156 C 210.397 1.51932 2.59494 0
M  V30 2157 C 211.945 1.5244 2.7337 0
M  V30 2158 C 212.42 2.43548 3.87877 0
M  V30 2159 N 213.911 2.41589 3.95208 0
M  V30 2160 C 214.646 3.08789 4.83153 0
M  V30 2161 N 214.142 3.85265 5.75798 0
M  V30 2162 N 215.935 2.97952 4.76635 0
M  V30 2163 H 208.086 1.84207 1.05742 0
M  V30 2164 H 210.349 0.789251 0.525154 0
M  V30 2165 H 210.055 2.55865 2.41301 0
M  V30 2166 H 209.929 1.23899 3.56271 0
M  V30 2167 H 212.316 0.492518 2.90961 0
M  V30 2168 H 212.397 1.8451 1.77172 0
M  V30 2169 H 212.041 3.46829 3.71041 0
M  V30 2170 H 211.971 2.08788 4.83441 0
M  V30 2171 H 214.462 1.86025 3.28943 0
M  V30 2172 H 214.775 4.33598 6.39697 0
M  V30 2173 H 213.12 3.89371 5.75687 0
M  V30 2174 H 216.311 2.37723 4.03244 0
M  V30 2175 H 216.484 3.50599 5.44962 0
M  V30 2176 N 209.89 -1.43072 0.660911 0
M  V30 2177 C 211.306 -1.56169 0.329173 0
M  V30 2178 C 211.506 -1.64317 -1.16629 0
M  V30 2179 O 210.562 -1.60245 -1.95135 0
M  V30 2180 C 211.875 -2.81873 1.04729 0
M  V30 2181 C 213.423 -2.95627 1.02828 0
M  V30 2182 C 213.898 -4.24174 1.72744 0
M  V30 2183 N 215.389 -4.31055 1.69545 0
M  V30 2184 C 216.124 -5.29304 2.20511 0
M  V30 2185 N 215.62 -6.33786 2.79799 0
M  V30 2186 N 217.413 -5.21008 2.10966 0
M  V30 2187 H 209.564 -1.36027 1.63127 0
M  V30 2188 H 211.827 -0.653823 0.686454 0
M  V30 2189 H 211.533 -2.81942 2.10242 0
M  V30 2190 H 211.407 -3.72338 0.603702 0
M  V30 2191 H 213.794 -2.95094 -0.0184742 0
M  V30 2192 H 213.875 -2.06431 1.51063 0
M  V30 2193 H 213.519 -4.25467 2.7738 0
M  V30 2194 H 213.449 -5.1228 1.2197 0
M  V30 2195 H 215.94 -3.56174 1.26288 0
M  V30 2196 H 216.253 -7.05086 3.16344 0
M  V30 2197 H 214.598 -6.34387 2.83863 0
M  V30 2198 H 217.789 -4.38301 1.64347 0
M  V30 2199 H 217.962 -5.97416 2.50993 0
M  V30 2200 N 211.368 -0.403325 -1.52352 0
M  V30 2201 C 212.616 0.174003 -2.0135 0
M  V30 2202 C 212.937 1.46139 -1.29106 0
M  V30 2203 O 212.207 1.91448 -0.415253 0
M  V30 2204 H 210.787 0.0672911 -0.743963 0
M  V30 2205 H 213.449 -0.538235 -1.87321 0
M  V30 2206 H 212.545 0.374254 -3.09848 0
M  V30 2207 N 212.846 1.57033 -0.133567 0
M  V30 2208 C 213.756 2.19632 0.824564 0
M  V30 2209 C 214.772 1.17666 1.28182 0
M  V30 2210 O 215.948 1.50193 1.3418 0
M  V30 2211 C 213.013 2.79499 2.05137 0
M  V30 2212 C 212.074 3.96548 1.64464 0
M  V30 2213 C 211.307 4.5355 2.81297 0
M  V30 2214 O 211.53 4.09438 3.97136 0
M  V30 2215 O 210.464 5.44018 2.57542 0
M  V30 2216 H 214.29 3.01991 0.321766 0
M  V30 2217 H 211.875 1.49112 0.0927889 0
M  V30 2218 H 213.757 3.17602 2.7696 0
M  V30 2219 H 212.432 2.00162 2.54395 0
M  V30 2220 H 211.339 3.63186 0.897048 0
M  V30 2221 H 212.672 4.77364 1.19934 0
M  V30 2222 N 214.325 -0.140222 1.56975 0
M  V30 2223 C 215.235 -1.19223 2.02047 0
M  V30 2224 C 216.251 -1.46612 0.937062 0
M  V30 2225 O 217.427 -1.58148 1.24704 0
M  V30 2226 C 214.492 -2.50414 2.39778 0
M  V30 2227 C 213.553 -2.30612 3.621 0
M  V30 2228 C 212.786 -3.55547 3.98023 0
M  V30 2229 O 213.009 -4.62004 3.34528 0
M  V30 2230 O 211.943 -3.47808 4.91237 0
M  V30 2231 H 215.769 -0.839559 2.91865 0
M  V30 2232 H 213.354 -0.349453 1.45256 0
M  V30 2233 H 215.236 -3.27747 2.64877 0
M  V30 2234 H 213.911 -2.85198 1.53114 0
M  V30 2235 H 212.818 -1.51207 3.4218 0
M  V30 2236 H 214.151 -2.00741 4.49404 0
M  V30 2237 N 215.803 -1.52179 -0.40978 0
M  V30 2238 C 216.733 -1.78435 -1.5061 0
M  V30 2239 C 217.714 -0.635295 -1.57791 0
M  V30 2240 O 218.899 -0.880823 -1.73076 0
M  V30 2241 C 216.029 -1.93444 -2.88439 0
M  V30 2242 C 214.983 -3.09038 -2.96108 0
M  V30 2243 C 214.309 -3.09268 -4.36185 0
M  V30 2244 C 215.609 -4.48508 -2.67652 0
M  V30 2245 H 217.303 -2.70237 -1.28889 0
M  V30 2246 H 214.849 -1.30036 -0.618605 0
M  V30 2247 H 216.802 -2.10394 -3.65119 0
M  V30 2248 H 215.526 -0.983129 -3.11452 0
M  V30 2249 H 214.185 -2.91837 -2.21872 0
M  V30 2250 H 213.833 -2.11861 -4.56206 0
M  V30 2251 H 213.533 -3.86907 -4.42241 0
M  V30 2252 H 215.057 -3.28348 -5.14801 0
M  V30 2253 H 216.471 -4.65918 -3.34056 0
M  V30 2254 H 214.868 -5.28059 -2.85085 0
M  V30 2255 H 215.938 -4.56649 -1.63095 0
M  V30 2256 N 217.281 0.66697 -1.42791 0
M  V30 2257 C 218.53 1.42278 -1.42968 0
M  V30 2258 C 218.843 1.9553 -0.0524489 0
M  V30 2259 O 220.049 2.71414 0.068363 0
M  V30 2260 C 218.505 2.57418 -2.51524 0
M  V30 2261 C 218.113 2.10832 -3.9529 0
M  V30 2262 C 219.857 3.34878 -2.60877 0
M  V30 2263 C 217.764 3.23101 -4.95338 0
M  V30 2264 H 216.694 0.534533 -0.531781 0
M  V30 2265 H 219.345 0.721302 -1.68729 0
M  V30 2266 H 217.727 3.29971 -2.18941 0
M  V30 2267 H 218.901 1.4538 -4.37266 0
M  V30 2268 H 217.216 1.46289 -3.89857 0
M  V30 2269 H 219.813 4.18505 -3.32802 0
M  V30 2270 H 220.156 3.81993 -1.6549 0
M  V30 2271 H 220.689 2.69398 -2.92693 0
M  V30 2272 H 217.428 2.80969 -5.9223 0
M  V30 2273 H 216.948 3.87309 -4.57987 0
M  V30 2274 H 218.627 3.88447 -5.17415 0
M  V30 2275 N 218.759 1.29093 0.90403 0
M  V30 2276 C 219.669 1.15727 2.0407 0
M  V30 2277 C 220.685 0.0815308 1.73809 0
M  V30 2278 O 221.861 0.292749 1.99261 0
M  V30 2279 C 218.926 0.830424 3.36608 0
M  V30 2280 C 217.987 1.98955 3.80415 0
M  V30 2281 C 217.22 1.6782 5.06628 0
M  V30 2282 O 217.443 0.597105 5.67266 0
M  V30 2283 O 216.377 2.52486 5.46383 0
M  V30 2284 H 220.203 2.11171 2.18267 0
M  V30 2285 H 217.788 1.08504 1.027 0
M  V30 2286 H 219.67 0.662521 4.16159 0
M  V30 2287 H 218.345 -0.0942678 3.23563 0
M  V30 2288 H 217.252 2.21267 3.01648 0
M  V30 2289 H 218.585 2.89529 3.98037 0
M  V30 2290 N 220.237 -1.11381 1.11499 0
M  V30 2291 C 221.648 -1.6465 0.880191 0
M  V30 2292 C 221.999 -1.87199 -0.587434 0
M  V30 2293 O 221.124 -1.60667 -1.44966 0
M  V30 2294 C 221.719 -2.99105 1.59128 0
M  V30 2295 C 220.278 -3.49279 1.40289 0
M  V30 2296 C 219.425 -2.24077 1.63354 0
M  V30 2297 H 222.376 -0.950123 1.27116 0
M  V30 2298 H 222.397 -3.66107 1.03664 0
M  V30 2299 H 221.909 -2.82661 2.65941 0
M  V30 2300 H 220.01 -3.70887 0.356888 0
M  V30 2301 H 220.123 -4.2803 2.15238 0
M  V30 2302 H 218.487 -2.31733 1.05698 0
M  V30 2303 H 219.27 -2.10175 2.71443 0
M  V30 2304 N 221.715 -0.905404 -1.28997 0
M  V30 2305 C 223.131 -0.60233 -1.47798 0
M  V30 2306 C 223.331 0.854645 -1.82478 0
M  V30 2307 O 222.387 1.63439 -1.92468 0
M  V30 2308 C 223.7 -1.53306 -2.58685 0
M  V30 2309 C 225.248 -1.53887 -2.72558 0
M  V30 2310 C 225.723 -2.45602 -3.86579 0
M  V30 2311 N 227.214 -2.43681 -3.93921 0
M  V30 2312 C 227.949 -3.11347 -4.81509 0
M  V30 2313 N 227.445 -3.88313 -5.73746 0
M  V30 2314 N 229.238 -3.00476 -4.75048 0
M  V30 2315 H 221.389 -1.84765 -1.04764 0
M  V30 2316 H 223.652 -0.792025 -0.520961 0
M  V30 2317 H 223.358 -2.57141 -2.39941 0
M  V30 2318 H 223.232 -1.25787 -3.55609 0
M  V30 2319 H 225.619 -0.507941 -2.90696 0
M  V30 2320 H 225.7 -1.85447 -1.76191 0
M  V30 2321 H 225.344 -3.48792 -3.69197 0
M  V30 2322 H 225.274 -2.11349 -4.82327 0
M  V30 2323 H 227.765 -1.87767 -3.27951 0
M  V30 2324 H 228.078 -4.36985 -6.37389 0
M  V30 2325 H 226.423 -3.92419 -5.73614 0
M  V30 2326 H 229.614 -2.39858 -4.01977 0
M  V30 2327 H 229.787 -3.53485 -5.43095 0
M  V30 2328 N 223.193 1.4272 -0.668489 0
M  V30 2329 C 224.103 2.34596 0.0139753 0
M  V30 2330 C 225.119 1.5474 0.795703 0
M  V30 2331 O 226.295 1.87334 0.739466 0
M  V30 2332 C 223.36 3.33202 0.957982 0
M  V30 2333 C 222.421 4.28957 0.17149 0
M  V30 2334 C 221.654 5.22853 1.07053 0
M  V30 2335 O 221.877 5.21531 2.31001 0
M  V30 2336 O 220.811 5.9952 0.534727 0
M  V30 2337 H 224.637 2.9448 -0.742661 0
M  V30 2338 H 222.222 1.43117 -0.428705 0
M  V30 2339 H 224.104 3.93796 1.50008 0
M  V30 2340 H 222.779 2.758 1.69458 0
M  V30 2341 H 221.686 3.71796 -0.414558 0
M  V30 2342 H 223.019 4.89383 -0.52586 0
M  V30 2343 N 224.671 0.411399 1.52136 0
M  V30 2344 C 225.948 -0.222308 1.94333 0
M  V30 2345 C 226.328 -1.6242 1.34844 0
M  V30 2346 O 225.676 -2.22384 0.525145 0
M  V30 2347 C 225.886 -0.226345 3.48265 0
M  V30 2348 C 227.234 -0.444592 4.22266 0
M  V30 2349 O 228.258 -0.305602 3.54887 0
M  V30 2350 O 227.117 -0.718749 5.41753 0
M  V30 2351 H 224.211 -0.143907 0.814383 0
M  V30 2352 H 226.757 0.467506 1.63133 0
M  V30 2353 H 225.529 0.75475 3.83952 0
M  V30 2354 H 225.152 -0.960163 3.85832 0
M  V30 2355 N 226.149 -1.5696 0.141893 0
M  V30 2356 C 227.079 -2.19516 -0.795936 0
M  V30 2357 C 228.06 -1.14187 -1.26077 0
M  V30 2358 O 229.245 -1.42511 -1.31925 0
M  V30 2359 C 226.375 -2.81272 -2.03723 0
M  V30 2360 C 225.329 -3.92384 -1.70936 0
M  V30 2361 C 224.655 -4.41052 -3.02287 0
M  V30 2362 C 225.955 -5.13403 -0.959954 0
M  V30 2363 H 227.649 -2.98138 -0.274596 0
M  V30 2364 H 225.195 -1.43406 -0.130636 0
M  V30 2365 H 227.148 -3.237 -2.69808 0
M  V30 2366 H 225.872 -1.99973 -2.58221 0
M  V30 2367 H 224.531 -3.50566 -1.07232 0
M  V30 2368 H 224.179 -3.56582 -3.54765 0
M  V30 2369 H 223.879 -5.15993 -2.81114 0
M  V30 2370 H 225.403 -4.86146 -3.69451 0
M  V30 2371 H 226.817 -5.52706 -1.52279 0
M  V30 2372 H 225.214 -5.94073 -0.848357 0
M  V30 2373 H 226.284 -4.84875 0.0492434 0
M  V30 2374 N 227.627 0.131896 -1.57047 0
M  V30 2375 C 228.904 0.871495 -1.75112 0
M  V30 2376 C 229.284 1.9866 -0.713949 0
M  V30 2377 O 228.632 2.26965 0.264447 0
M  V30 2378 C 228.842 1.40007 -3.19686 0
M  V30 2379 C 230.19 1.85752 -3.81813 0
M  V30 2380 O 231.214 1.49715 -3.23209 0
M  V30 2381 O 230.073 2.5226 -4.84796 0
M  V30 2382 H 227.167 0.412919 -0.716538 0
M  V30 2383 H 229.713 0.116641 -1.69299 0
M  V30 2384 H 228.485 0.599404 -3.86682 0
M  V30 2385 H 228.108 2.218 -3.29986 0
M  V30 2386 N 229.106 1.52395 0.401703 0
M  V30 2387 C 230.336 1.70429 1.1678 0
M  V30 2388 C 230.744 0.416702 1.84554 0
M  V30 2389 O 230.087 -0.617697 1.73003 0
M  V30 2390 C 230.149 2.78919 2.26814 0
M  V30 2391 C 229.813 4.20437 1.79113 0
M  V30 2392 C 230.81 5.04028 1.27482 0
M  V30 2393 C 228.495 4.66704 1.85722 0
M  V30 2394 C 230.489 6.31961 0.830913 0
M  V30 2395 C 228.176 5.94625 1.40942 0
M  V30 2396 C 229.174 6.77082 0.897128 0
M  V30 2397 O 228.862 8.02607 0.455822 0
M  V30 2398 H 228.594 0.574272 0.356634 0
M  V30 2399 H 231.148 1.99767 0.477724 0
M  V30 2400 H 229.378 2.44973 2.99207 0
M  V30 2401 H 231.067 2.8548 2.88541 0
M  V30 2402 H 231.833 4.69471 1.21744 0
M  V30 2403 H 227.712 4.0262 2.24539 0
M  V30 2404 H 231.256 6.96271 0.430368 0
M  V30 2405 H 227.153 6.28688 1.46362 0
M  V30 2406 H 227.921 8.16453 0.578457 0
M  V30 2407 N 230.584 -0.659388 1.43143 0
M  V30 2408 C 231.809 -1.45221 1.48073 0
M  V30 2409 C 232.234 -1.87845 0.097995 0
M  V30 2410 O 231.592 -1.56985 -0.90694 0
M  V30 2411 C 231.64 -2.66748 2.42647 0
M  V30 2412 O 230.744 -3.65583 1.90848 0
M  V30 2413 H 230.085 -0.435669 0.501088 0
M  V30 2414 H 232.615 -0.807432 1.87994 0
M  V30 2415 H 232.625 -3.14637 2.59745 0
M  V30 2416 H 231.3 -2.35067 3.43098 0
M  V30 2417 H 229.877 -3.24693 1.83381 0
M  V30 2418 N 232.062 -1.29571 -0.897171 0
M  V30 2419 C 233.025 -1.14913 -1.98312 0
M  V30 2420 C 234.025 -0.0838629 -1.60581 0
M  V30 2421 O 235.215 -0.331006 -1.71026 0
M  V30 2422 C 232.347 -0.757835 -3.3237 0
M  V30 2423 H 233.54 -2.11377 -2.12743 0
M  V30 2424 H 231.093 -1.12793 -1.08201 0
M  V30 2425 H 231.828 0.206837 -3.2364 0
M  V30 2426 H 231.613 -1.52755 -3.61121 0
M  V30 2427 H 233.103 -0.678408 -4.12053 0
M  V30 2428 N 233.54 1.10788 -1.12088 0
M  V30 2429 C 234.488 2.19111 -0.780587 0
M  V30 2430 C 235.482 1.67818 0.230961 0
M  V30 2431 O 236.688 1.79777 0.0895427 0
M  V30 2432 H 233.063 0.714477 -0.234578 0
M  V30 2433 H 235.034 2.45055 -1.70266 0
M  V30 2434 C 233.783 3.46818 -0.24747 0
M  V30 2435 H 233.106 3.86646 -1.01712 0
M  V30 2436 H 234.546 4.23973 -0.0476291 0
M  V30 2437 C 233.005 3.20968 1.02378 0
M  V30 2438 O 233.535 3.42298 2.10226 0
M  V30 2439 N 231.741 2.74658 0.949271 0
M  V30 2440 H 231.288 2.57501 0.0715173 0
M  V30 2441 H 231.246 2.57739 1.80049 0
M  V30 2442 N 235.018 0.912232 1.28515 0
M  V30 2443 C 236.265 0.544599 1.95039 0
M  V30 2444 C 236.593 -0.911435 1.71823 0
M  V30 2445 O 235.848 -1.66317 1.03137 0
M  V30 2446 C 236.147 0.798392 3.48368 0
M  V30 2447 C 235.813 2.23374 3.91682 0
M  V30 2448 C 234.475 2.62617 4.03219 0
M  V30 2449 C 236.827 3.16786 4.13879 0
M  V30 2450 C 234.155 3.94429 4.3433 0
M  V30 2451 C 236.507 4.48161 4.46469 0
M  V30 2452 C 235.171 4.8726 4.56217 0
M  V30 2453 H 234.441 0.199283 0.7137 0
M  V30 2454 H 237.088 1.15327 1.52879 0
M  V30 2455 H 235.393 0.106908 3.91654 0
M  V30 2456 H 237.09 0.493141 3.97956 0
M  V30 2457 H 233.68 1.91922 3.83228 0
M  V30 2458 H 237.864 2.87677 4.0442 0
M  V30 2459 H 233.12 4.24426 4.40082 0
M  V30 2460 H 237.294 5.20559 4.62592 0
M  V30 2461 H 234.921 5.89431 4.80078 0
M  V30 2462 N 236.496 -1.42363 0.676048 0
M  V30 2463 C 237.426 -2.33497 0.0124832 0
M  V30 2464 C 238.407 -1.50748 -0.787981 0
M  V30 2465 O 239.592 -1.79346 -0.744884 0
M  V30 2466 C 236.722 -3.34377 -0.938582 0
M  V30 2467 C 235.676 -4.27289 -0.246622 0
M  V30 2468 C 235.002 -5.18386 -1.31071 0
M  V30 2469 C 236.302 -5.14916 0.875125 0
M  V30 2470 H 237.996 -2.89233 0.773593 0
M  V30 2471 H 235.542 -1.39073 0.37346 0
M  V30 2472 H 237.495 -3.97044 -1.41188 0
M  V30 2473 H 236.219 -2.76947 -1.73113 0
M  V30 2474 H 234.878 -3.66018 0.206456 0
M  V30 2475 H 234.526 -4.57282 -2.09528 0
M  V30 2476 H 234.226 -5.81378 -0.852839 0
M  V30 2477 H 235.75 -5.83929 -1.78492 0
M  V30 2478 H 237.164 -5.71262 0.482983 0
M  V30 2479 H 235.561 -5.86747 1.25887 0
M  V30 2480 H 236.631 -4.53242 1.72335 0
M  V30 2481 N 237.974 -0.419461 -1.51915 0
M  V30 2482 C 239.22 0.145505 -2.02879 0
M  V30 2483 C 239.575 1.41926 -1.29903 0
M  V30 2484 O 238.868 1.87383 -0.399782 0
M  V30 2485 C 239.062 0.437067 -3.54717 0
M  V30 2486 C 238.891 -0.806877 -4.42402 0
M  V30 2487 C 237.661 -1.33514 -4.87342 0
M  V30 2488 C 239.859 -1.68796 -4.85811 0
M  V30 2489 N 237.841 -2.53349 -5.59185 0
M  V30 2490 C 239.212 -2.73247 -5.56539 0
M  V30 2491 C 241.267 -1.70449 -4.67816 0
M  V30 2492 C 239.97 -3.79276 -6.11181 0
M  V30 2493 C 241.996 -2.75403 -5.23361 0
M  V30 2494 C 241.358 -3.78575 -5.9402 0
M  V30 2495 H 237.457 0.0145424 -0.781865 0
M  V30 2496 H 240.041 -0.576126 -1.85981 0
M  V30 2497 H 238.212 1.12774 -3.71667 0
M  V30 2498 H 239.944 0.99182 -3.92358 0
M  V30 2499 H 236.699 -0.891657 -4.65131 0
M  V30 2500 H 237.123 -3.14066 -5.99743 0
M  V30 2501 H 241.765 -0.920209 -4.12664 0
M  V30 2502 H 239.483 -4.58554 -6.65397 0
M  V30 2503 H 243.069 -2.77603 -5.113 0
M  V30 2504 H 241.949 -4.58453 -6.36231 0
M  V30 2505 N 239.452 1.56882 -0.150215 0
M  V30 2506 C 240.385 2.12712 0.826358 0
M  V30 2507 C 241.363 1.05154 1.24022 0
M  V30 2508 O 242.547 1.33004 1.33575 0
M  V30 2509 C 239.674 2.64945 2.11002 0
M  V30 2510 C 238.72 3.8468 1.84183 0
M  V30 2511 S 239.553 5.25502 1.02995 0
M  V30 2512 C 240.709 5.81125 2.32474 0
M  V30 2513 H 240.942 2.95214 0.351598 0
M  V30 2514 H 238.475 1.54267 0.0641211 0
M  V30 2515 H 240.433 2.95689 2.84742 0
M  V30 2516 H 239.094 1.82568 2.55593 0
M  V30 2517 H 238.287 4.19482 2.79375 0
M  V30 2518 H 237.889 3.54714 1.1855 0
M  V30 2519 H 240.181 5.92753 3.281 0
M  V30 2520 H 241.124 6.78625 2.02171 0
M  V30 2521 H 241.532 5.09392 2.43269 0
M  V30 2522 N 240.93 -0.123565 1.57115 0
M  V30 2523 C 242.158 -0.846461 1.88793 0
M  V30 2524 C 242.573 -1.73652 0.740976 0
M  V30 2525 O 241.93 -1.80207 -0.288393 0
M  V30 2526 C 241.981 -1.6837 3.19897 0
M  V30 2527 O 241.702 -0.829477 4.30176 0
M  V30 2528 C 243.203 -2.51214 3.65248 0
M  V30 2529 H 240.423 -0.243573 0.625231 0
M  V30 2530 H 242.967 -0.109324 2.04208 0
M  V30 2531 H 241.122 -2.37364 3.06165 0
M  V30 2532 H 241.536 -1.40651 5.0529 0
M  V30 2533 H 243.01 -3.05497 4.59756 0
M  V30 2534 H 243.487 -3.28359 2.9168 0
M  V30 2535 H 244.093 -1.8747 3.81752 0
M  V30 2536 N 242.408 -1.52605 -0.393616 0
M  V30 2537 C 243.655 -1.67424 -1.1391 0
M  V30 2538 C 243.983 -0.411859 -1.90089 0
M  V30 2539 O 243.238 0.605626 -1.86093 0
M  V30 2540 C 243.537 -2.85721 -2.14705 0
M  V30 2541 C 243.203 -4.23342 -1.55218 0
M  V30 2542 C 241.865 -4.60771 -1.3872 0
M  V30 2543 C 244.217 -5.09041 -1.11924 0
M  V30 2544 C 241.545 -5.81563 -0.774689 0
M  V30 2545 C 243.897 -6.30452 -0.520853 0
M  V30 2546 C 242.561 -6.66617 -0.343134 0
M  V30 2547 H 241.831 -0.612648 -0.416826 0
M  V30 2548 H 244.478 -1.8674 -0.424315 0
M  V30 2549 H 242.783 -2.60803 -2.92385 0
M  V30 2550 H 244.48 -2.94382 -2.72288 0
M  V30 2551 H 241.07 -3.93855 -1.69045 0
M  V30 2552 H 245.254 -4.80695 -1.23473 0
M  V30 2553 H 240.51 -6.08196 -0.625154 0
M  V30 2554 H 244.684 -6.96175 -0.177065 0
M  V30 2555 H 242.311 -7.60083 0.133571 0
M  V30 2556 N 243.887 0.651787 -1.4349 0
M  V30 2557 C 245.135 1.40888 -1.44897 0
M  V30 2558 C 245.456 1.94856 -0.0749086 0
M  V30 2559 O 244.726 1.74518 0.889956 0
M  V30 2560 H 243.306 0.522887 -0.533478 0
M  V30 2561 H 245.968 0.768609 -1.79104 0
M  V30 2562 H 245.064 2.25052 -2.16236 0
M  V30 2563 N 245.365 1.30045 0.890287 0
M  V30 2564 C 246.275 1.17885 2.02831 0
M  V30 2565 C 247.291 0.0999609 1.73713 0
M  V30 2566 O 248.467 0.313867 1.98939 0
M  V30 2567 C 245.532 0.866079 3.35708 0
M  V30 2568 C 244.593 2.02979 3.78283 0
M  V30 2569 C 243.826 1.73184 5.0482 0
M  V30 2570 O 244.049 0.657237 5.66601 0
M  V30 2571 O 242.983 2.58267 5.43674 0
M  V30 2572 H 246.809 2.13474 2.16015 0
M  V30 2573 H 244.394 1.09587 1.01543 0
M  V30 2574 H 246.276 0.706623 4.15433 0
M  V30 2575 H 244.951 -0.0599443 3.23644 0
M  V30 2576 H 243.858 2.24454 2.99285 0
M  V30 2577 H 245.191 2.93734 3.94944 0
M  V30 2578 N 246.843 -1.10192 1.12674 0
M  V30 2579 C 247.753 -2.20172 0.810026 0
M  V30 2580 C 248.769 -1.72821 -0.202188 0
M  V30 2581 O 249.945 -2.01369 -0.0351691 0
M  V30 2582 C 247.01 -3.45631 0.272007 0
M  V30 2583 C 246.071 -4.07704 1.34447 0
M  V30 2584 C 245.304 -5.27175 0.832029 0
M  V30 2585 O 245.527 -5.69425 -0.333284 0
M  V30 2586 O 244.461 -5.80168 1.60277 0
M  V30 2587 H 248.287 -2.49701 1.72867 0
M  V30 2588 H 245.872 -1.18977 0.903597 0
M  V30 2589 H 247.754 -4.21394 -0.0230219 0
M  V30 2590 H 246.429 -3.17723 -0.619164 0
M  V30 2591 H 245.336 -3.33614 1.6927 0
M  V30 2592 H 246.669 -4.3982 2.2095 0
M  V30 2593 N 248.321 -0.919034 -1.28029 0
M  V30 2594 C 249.284 -0.416182 -2.2539 0
M  V30 2595 C 250.284 0.460438 -1.54067 0
M  V30 2596 O 251.474 0.262744 -1.72207 0
M  V30 2597 C 248.606 0.402707 -3.38513 0
M  V30 2598 H 249.799 -1.27629 -2.71387 0
M  V30 2599 H 247.352 -0.698919 -1.39803 0
M  V30 2600 H 248.087 1.282 -2.97885 0
M  V30 2601 H 247.872 -0.225698 -3.9145 0
M  V30 2602 H 249.362 0.745191 -4.10897 0
M  V30 2603 N 249.799 1.42003 -0.683588 0
M  V30 2604 C 250.762 2.29191 -0.0198243 0
M  V30 2605 C 251.762 1.43773 0.72013 0
M  V30 2606 O 252.952 1.65061 0.556815 0
M  V30 2607 C 250.084 3.26435 0.982487 0
M  V30 2608 H 251.277 2.8938 -0.787345 0
M  V30 2609 H 248.83 1.49789 -0.446418 0
M  V30 2610 H 249.565 2.71203 1.77819 0
M  V30 2611 H 249.35 3.89449 0.455182 0
M  V30 2612 H 250.84 3.918 1.44508 0
M  V30 2613 N 251.277 0.427512 1.51691 0
M  V30 2614 C 252.688 -0.0378867 1.86662 0
M  V30 2615 C 253.039 -1.42819 1.34525 0
M  V30 2616 O 252.164 -2.05037 0.692014 0
M  V30 2617 C 252.759 -0.0755266 3.38716 0
M  V30 2618 C 251.318 -0.485309 3.73258 0
M  V30 2619 C 250.465 0.328399 2.75349 0
M  V30 2620 H 253.416 0.64379 1.45055 0
M  V30 2621 H 253.437 -0.887056 3.70016 0
M  V30 2622 H 252.949 0.936487 3.76632 0
M  V30 2623 H 251.05 -1.50329 3.40928 0
M  V30 2624 H 251.163 -0.21693 4.78609 0
M  V30 2625 H 249.527 -0.211905 2.53817 0
M  V30 2626 H 250.31 1.3391 3.16106 0
M  V30 2627 N 252.755 -1.56801 0.158532 0
M  V30 2628 C 253.665 -2.20916 -0.789518 0
M  V30 2629 C 254.681 -1.1969 -1.26294 0
M  V30 2630 O 255.857 -1.52308 -1.31773 0
M  V30 2631 C 252.922 -2.82727 -2.00665 0
M  V30 2632 C 251.983 -3.99114 -1.58134 0
M  V30 2633 C 251.216 -4.57968 -2.74045 0
M  V30 2634 O 251.439 -4.15704 -3.90572 0
M  V30 2635 O 250.373 -5.48047 -2.48855 0
M  V30 2636 H 254.199 -3.02464 -0.273681 0
M  V30 2637 H 251.784 -1.4924 -0.0690548 0
M  V30 2638 H 253.666 -3.21968 -2.71872 0
M  V30 2639 H 252.341 -2.04184 -2.51179 0
M  V30 2640 H 251.248 -3.64567 -0.839155 0
M  V30 2641 H 252.581 -4.79212 -1.12325 0
M  V30 2642 N 254.233 0.115231 -1.57178 0
M  V30 2643 C 255.479 0.82357 -1.85325 0
M  V30 2644 C 255.812 1.79349 -0.744814 0
M  V30 2645 O 255.087 1.92899 0.249024 0
M  V30 2646 C 255.37 1.57014 -3.24066 0
M  V30 2647 C 255.223 0.619565 -4.45513 0
M  V30 2648 C 256.542 2.52545 -3.60429 0
M  V30 2649 H 253.661 0.297948 -0.674089 0
M  V30 2650 H 256.303 0.0877138 -1.89797 0
M  V30 2651 H 254.453 2.19742 -3.20383 0
M  V30 2652 H 256.125 0.000837639 -4.613 0
M  V30 2653 H 254.368 -0.0686174 -4.33746 0
M  V30 2654 H 255.039 1.17866 -5.3927 0
M  V30 2655 H 257.515 1.9992 -3.64926 0
M  V30 2656 H 256.391 3.01811 -4.58477 0
M  V30 2657 H 256.652 3.35383 -2.88047 0
M  V30 2658 N 255.711 1.52812 0.385517 0
M  V30 2659 C 256.957 1.68275 1.13188 0
M  V30 2660 C 257.29 0.423179 1.89533 0
M  V30 2661 O 256.565 -0.579113 1.85679 0
M  V30 2662 C 256.848 2.92001 2.1073 0
M  V30 2663 C 256.701 4.28067 1.38125 0
M  V30 2664 C 258.02 3.11283 3.11113 0
M  V30 2665 H 255.139 0.612352 0.410115 0
M  V30 2666 H 257.781 1.85415 0.414869 0
M  V30 2667 H 255.931 2.77519 2.71874 0
M  V30 2668 H 257.603 4.54324 0.799187 0
M  V30 2669 H 255.846 4.28388 0.683092 0
M  V30 2670 H 256.517 5.10733 2.09417 0
M  V30 2671 H 258.993 3.2482 2.6006 0
M  V30 2672 H 257.869 3.99325 3.76605 0
M  V30 2673 H 258.13 2.25656 3.80173 0
M  V30 2674 N 257.189 -0.644168 1.43834 0
M  V30 2675 C 258.099 -1.78563 1.52159 0
M  V30 2676 C 259.115 -1.69147 0.408069 0
M  V30 2677 O 260.291 -1.90156 0.663524 0
M  V30 2678 C 257.356 -3.14888 1.45073 0
M  V30 2679 C 256.417 -3.36034 2.6717 0
M  V30 2680 C 255.65 -4.65855 2.60413 0
M  V30 2681 O 255.873 -5.45805 1.65689 0
M  V30 2682 O 254.807 -4.88918 3.5106 0
M  V30 2683 H 258.633 -1.74494 2.48567 0
M  V30 2684 H 256.218 -0.80378 1.25935 0
M  V30 2685 H 258.1 -3.96179 1.43597 0
M  V30 2686 H 256.775 -3.19528 0.518037 0
M  V30 2687 H 255.682 -2.54472 2.74217 0
M  V30 2688 H 257.015 -3.36247 3.59442 0
M  V30 2689 N 258.668 -1.30515 -0.883378 0
M  V30 2690 C 259.631 -1.1701 -1.97082 0
M  V30 2691 C 260.631 -0.10089 -1.60483 0
M  V30 2692 O 261.821 -0.349127 -1.70666 0
M  V30 2693 C 258.953 -0.793045 -3.31547 0
M  V30 2694 H 260.146 -2.13622 -2.10489 0
M  V30 2695 H 257.699 -1.13935 -1.06998 0
M  V30 2696 H 258.434 0.172499 -3.23841 0
M  V30 2697 H 258.219 -1.56576 -3.5948 0
M  V30 2698 H 259.709 -0.722073 -4.1131 0
M  V30 2699 N 260.146 1.09593 -1.13257 0
M  V30 2700 C 261.393 1.81734 -0.893257 0
M  V30 2701 C 261.721 1.8563 0.580656 0
M  V30 2702 O 260.976 1.31906 1.44566 0
M  V30 2703 C 261.275 3.27802 -1.42411 0
M  V30 2704 C 260.941 3.44041 -2.91456 0
M  V30 2705 C 259.603 3.48181 -3.3215 0
M  V30 2706 C 261.955 3.48719 -3.87356 0
M  V30 2707 C 259.283 3.54575 -4.67433 0
M  V30 2708 C 261.635 3.56648 -5.2248 0
M  V30 2709 C 260.299 3.59055 -5.62704 0
M  V30 2710 H 259.569 0.665011 -0.326866 0
M  V30 2711 H 262.216 1.2912 -1.41422 0
M  V30 2712 H 260.521 3.83042 -0.823795 0
M  V30 2713 H 262.218 3.82149 -1.21503 0
M  V30 2714 H 258.808 3.41502 -2.58987 0
M  V30 2715 H 262.992 3.44763 -3.57004 0
M  V30 2716 H 258.248 3.54725 -4.97976 0
M  V30 2717 H 262.422 3.59212 -5.96607 0
M  V30 2718 H 260.049 3.63763 -6.67518 0
M  V30 2719 N 261.624 0.925811 1.2754 0
M  V30 2720 C 262.572 0.413897 2.28888 0
M  V30 2721 C 263.566 -0.500779 1.61829 0
M  V30 2722 O 264.772 -0.38069 1.75928 0
M  V30 2723 H 261.147 0.115274 0.743112 0
M  V30 2724 H 263.118 1.28151 2.69481 0
M  V30 2725 C 261.867 -0.319792 3.46226 0
M  V30 2726 H 261.19 0.374846 3.98039 0
M  V30 2727 H 262.63 -0.642435 4.19105 0
M  V30 2728 C 261.089 -1.53209 3.00048 0
M  V30 2729 O 261.619 -2.6309 3.03557 0
M  V30 2730 N 259.825 -1.38326 2.55566 0
M  V30 2731 H 259.372 -0.489292 2.5291 0
M  V30 2732 H 259.33 -2.19564 2.25031 0
M  V30 2733 N 263.102 -1.41638 0.69111 0
M  V30 2734 C 264.348 -2.01598 0.220519 0
M  V30 2735 C 264.681 -1.54594 -1.17535 0
M  V30 2736 O 263.956 -0.755177 -1.79241 0
M  V30 2737 C 264.239 -3.59062 0.273243 0
M  V30 2738 C 264.092 -4.16203 1.70573 0
M  V30 2739 C 265.411 -4.38546 -0.369457 0
M  V30 2740 H 262.53 -0.732468 0.0816045 0
M  V30 2741 H 265.172 -1.68445 0.878986 0
M  V30 2742 H 263.322 -3.87435 -0.287411 0
M  V30 2743 H 264.994 -3.98722 2.31989 0
M  V30 2744 H 263.237 -3.71414 2.2413 0
M  V30 2745 H 263.908 -5.25358 1.69419 0
M  V30 2746 H 266.384 -4.1596 0.107977 0
M  V30 2747 H 265.26 -5.48069 -0.302002 0
M  V30 2748 H 265.521 -4.17662 -1.44951 0
M  V30 2749 N 264.58 -0.43555 -1.51462 0
M  V30 2750 C 265.805 0.132627 -2.06976 0
M  V30 2751 C 266.23 1.35848 -1.30104 0
M  V30 2752 O 265.588 1.78112 -0.338493 0
M  V30 2753 C 265.636 0.43523 -3.57964 0
M  V30 2754 O 264.74 1.52198 -3.83288 0
M  V30 2755 H 264.081 0.00265 -0.663995 0
M  V30 2756 H 266.611 -0.616369 -1.95095 0
M  V30 2757 H 266.621 0.686206 -4.02188 0
M  V30 2758 H 265.296 -0.460739 -4.1334 0
M  V30 2759 H 263.873 1.2611 -3.50928 0
M  V30 2760 N 266.058 1.56714 -0.166846 0
M  V30 2761 C 266.991 2.13577 0.80375 0
M  V30 2762 C 267.969 1.06464 1.22899 0
M  V30 2763 O 269.153 1.34413 1.32157 0
M  V30 2764 C 266.28 2.67168 2.0818 0
M  V30 2765 C 265.326 3.86612 1.80093 0
M  V30 2766 S 266.159 5.26565 0.97416 0
M  V30 2767 C 267.315 5.83558 2.26297 0
M  V30 2768 H 267.548 2.9557 0.320267 0
M  V30 2769 H 265.081 1.54326 0.0477555 0
M  V30 2770 H 267.039 2.98692 2.8159 0
M  V30 2771 H 265.7 1.85269 2.53642 0
M  V30 2772 H 264.893 4.22422 2.7491 0
M  V30 2773 H 264.495 3.55951 1.14781 0
M  V30 2774 H 266.787 5.962 3.21795 0
M  V30 2775 H 267.73 6.80731 1.94962 0
M  V30 2776 H 268.138 5.11944 2.37853 0
M  V30 2777 N 267.536 -0.106894 1.57237 0
M  V30 2778 C 268.785 -0.811163 1.8467 0
M  V30 2779 C 269.098 -1.80469 0.754342 0
M  V30 2780 O 270.304 -2.55601 0.915439 0
M  V30 2781 C 268.76 -1.49337 3.27454 0
M  V30 2782 C 268.368 -0.540217 4.44731 0
M  V30 2783 C 270.112 -2.18206 3.64124 0
M  V30 2784 C 268.019 -1.22634 5.78545 0
M  V30 2785 H 266.949 -0.306679 0.688813 0
M  V30 2786 H 269.6 -0.0639887 1.83388 0
M  V30 2787 H 267.982 -2.2876 3.23241 0
M  V30 2788 H 269.156 0.221659 4.60267 0
M  V30 2789 H 267.471 0.042146 4.16379 0
M  V30 2790 H 270.068 -2.70253 4.61376 0
M  V30 2791 H 270.411 -2.96562 2.92158 0
M  V30 2792 H 270.944 -1.45658 3.70174 0
M  V30 2793 H 267.683 -0.483832 6.53712 0
M  V30 2794 H 267.203 -1.95993 5.66874 0
M  V30 2795 H 268.882 -1.75615 6.2271 0
M  V30 2796 N 269.014 -1.53014 -0.377408 0
M  V30 2797 C 269.944 -1.81589 -1.46791 0
M  V30 2798 C 270.925 -0.668622 -1.56408 0
M  V30 2799 O 272.11 -0.917337 -1.71168 0
M  V30 2800 C 269.24 -1.99519 -2.8427 0
M  V30 2801 C 268.194 -3.15249 -2.89486 0
M  V30 2802 C 267.52 -3.18451 -4.29527 0
M  V30 2803 C 268.82 -4.54084 -2.58079 0
M  V30 2804 H 270.514 -2.7291 -1.23127 0
M  V30 2805 H 268.06 -1.31319 -0.590883 0
M  V30 2806 H 270.013 -2.18092 -3.60575 0
M  V30 2807 H 268.737 -1.04897 -3.09296 0
M  V30 2808 H 267.396 -2.96477 -2.15631 0
M  V30 2809 H 267.044 -2.2149 -4.5161 0
M  V30 2810 H 266.744 -3.962 -4.33934 0
M  V30 2811 H 268.268 -3.39193 -5.07721 0
M  V30 2812 H 269.682 -4.72899 -3.24098 0
M  V30 2813 H 268.079 -5.33987 -2.7382 0
M  V30 2814 H 269.149 -4.60006 -1.53372 0
M  V30 2815 N 270.492 0.636531 -1.44174 0
M  V30 2816 C 271.722 1.42146 -1.49927 0
M  V30 2817 C 272.13 1.88812 -0.121063 0
M  V30 2818 O 271.473 1.61126 0.882267 0
M  V30 2819 C 271.535 2.67883 -2.39748 0
M  V30 2820 C 271.199 2.43048 -3.8701 0
M  V30 2821 C 272.196 2.05216 -4.77684 0
M  V30 2822 C 269.881 2.56856 -4.3166 0
M  V30 2823 C 271.875 1.81512 -6.11009 0
M  V30 2824 C 269.562 2.32766 -5.65034 0
M  V30 2825 C 270.56 1.95152 -6.54526 0
M  V30 2826 O 270.248 1.71326 -7.85431 0
M  V30 2827 H 269.98 0.442567 -0.51099 0
M  V30 2828 H 272.534 0.786158 -1.8976 0
M  V30 2829 H 270.764 3.34032 -1.94832 0
M  V30 2830 H 272.453 3.29874 -2.36513 0
M  V30 2831 H 273.219 1.94111 -4.44462 0
M  V30 2832 H 269.098 2.85104 -3.62266 0
M  V30 2833 H 272.642 1.52077 -6.80822 0
M  V30 2834 H 268.539 2.43479 -5.97819 0
M  V30 2835 H 269.307 1.85616 -7.97176 0
M  V30 2836 N 271.97 1.30982 0.876444 0
M  V30 2837 C 272.933 1.18054 1.96459 0
M  V30 2838 C 273.933 0.109399 1.60427 0
M  V30 2839 O 275.123 0.358173 1.70478 0
M  V30 2840 C 272.255 0.810616 3.31122 0
M  V30 2841 H 273.448 2.14735 2.09354 0
M  V30 2842 H 271.001 1.145 1.06392 0
M  V30 2843 H 271.736 -0.155322 3.23928 0
M  V30 2844 H 271.521 1.58481 3.58645 0
M  V30 2845 H 273.011 0.743876 4.10921 0
M  V30 2846 N 273.449 -1.08991 1.13837 0
M  V30 2847 C 274.359 -2.19301 0.833333 0
M  V30 2848 C 275.375 -1.73026 -0.183847 0
M  V30 2849 O 276.551 -2.01395 -0.0138092 0
M  V30 2850 C 273.616 -3.45323 0.308651 0
M  V30 2851 C 272.677 -4.06255 1.38764 0
M  V30 2852 C 271.91 -5.26262 0.887896 0
M  V30 2853 O 272.133 -5.69747 -0.27287 0
M  V30 2854 O 271.067 -5.78435 1.66421 0
M  V30 2855 H 274.893 -2.47854 1.75506 0
M  V30 2856 H 272.478 -1.18012 0.916166 0
M  V30 2857 H 274.36 -4.21394 0.0216739 0
M  V30 2858 H 273.035 -3.18362 -0.585431 0
M  V30 2859 H 271.942 -3.318 1.72799 0
M  V30 2860 H 273.275 -4.37452 2.25602 0
M  V30 2861 N 274.927 -0.932562 -1.27047 0
M  V30 2862 C 275.877 -0.406392 -2.24349 0
M  V30 2863 C 276.861 0.492066 -1.53191 0
M  V30 2864 O 278.053 0.328717 -1.73921 0
M  V30 2865 C 275.182 0.335214 -3.41659 0
M  V30 2866 C 274.268 -0.58004 -4.20115 0
M  V30 2867 N 274.659 -1.70203 -4.76303 0
M  V30 2868 C 272.957 -0.383974 -4.44344 0
M  V30 2869 C 273.658 -2.27167 -5.35509 0
M  V30 2870 N 272.634 -1.56068 -5.20715 0
M  V30 2871 H 276.436 -1.26299 -2.65378 0
M  V30 2872 H 273.95 -0.787408 -1.42034 0
M  V30 2873 H 275.947 0.729142 -4.10474 0
M  V30 2874 H 274.607 1.18868 -3.0216 0
M  V30 2875 H 275.618 -2.08433 -4.74106 0
M  V30 2876 H 272.295 0.428436 -4.15296 0
M  V30 2877 H 273.685 -3.21654 -5.89905 0
M  V30 2878 N 276.405 1.4127 -0.698611 0
M  V30 2879 C 277.63 2.06024 -0.238512 0
M  V30 2880 C 278.055 1.5224 1.10475 0
M  V30 2881 O 277.413 0.650623 1.69223 0
M  V30 2882 C 277.461 3.59988 -0.209952 0
M  V30 2883 O 276.565 4.04282 0.814235 0
M  V30 2884 H 275.906 0.653829 -0.115775 0
M  V30 2885 H 278.436 1.8098 -0.954326 0
M  V30 2886 H 278.446 4.07979 -0.0418436 0
M  V30 2887 H 277.121 3.98503 -1.1903 0
M  V30 2888 H 275.698 3.6779 0.615234 0
M  V30 2889 N 277.883 0.443576 1.51229 0
M  V30 2890 C 279.13 -0.120796 2.02139 0
M  V30 2891 C 279.458 -1.42166 1.32736 0
M  V30 2892 O 278.713 -1.90849 0.43301 0
M  V30 2893 C 279.012 -0.380579 3.55368 0
M  V30 2894 C 278.678 0.83523 4.43097 0
M  V30 2895 C 277.34 1.16864 4.66794 0
M  V30 2896 C 279.692 1.64601 4.94526 0
M  V30 2897 C 277.02 2.31339 5.39165 0
M  V30 2898 C 279.372 2.78181 5.68153 0
M  V30 2899 C 278.036 3.11969 5.90112 0
M  V30 2900 H 277.306 -0.0442023 0.73968 0
M  V30 2901 H 279.953 0.592046 1.82118 0
M  V30 2902 H 278.258 -1.17538 3.73754 0
M  V30 2903 H 279.955 -0.830777 3.923 0
M  V30 2904 H 276.545 0.565437 4.24854 0
M  V30 2905 H 280.729 1.40163 4.76097 0
M  V30 2906 H 275.985 2.57823 5.5438 0
M  V30 2907 H 280.159 3.41371 6.06992 0
M  V30 2908 H 277.786 4.00784 6.45969 0
M  V30 2909 N 279.361 -1.56624 0.175154 0
M  V30 2910 C 280.309 -2.19468 -0.770495 0
M  V30 2911 C 281.303 -1.15985 -1.23466 0
M  V30 2912 O 282.509 -1.34176 -1.19987 0
M  V30 2913 H 278.884 -0.703095 -0.266761 0
M  V30 2914 H 280.855 -2.97613 -0.216542 0
M  V30 2915 C 279.604 -2.85264 -1.98796 0
M  V30 2916 H 278.927 -3.64623 -1.63983 0
M  V30 2917 H 280.367 -3.327 -2.62843 0
M  V30 2918 C 278.826 -1.85239 -2.81404 0
M  V30 2919 O 279.356 -1.34024 -3.78682 0
M  V30 2920 N 277.562 -1.53911 -2.46495 0
M  V30 2921 H 277.109 -1.95751 -1.67449 0
M  V30 2922 H 277.067 -0.872382 -3.02054 0
M  V30 2923 N 280.839 0.0985539 -1.57292 0
M  V30 2924 C 281.802 1.10402 -2.00858 0
M  V30 2925 C 282.802 1.33146 -0.901593 0
M  V30 2926 O 283.992 1.29318 -1.16716 0
M  V30 2927 C 281.124 2.45394 -2.36632 0
M  V30 2928 H 282.317 0.729099 -2.90902 0
M  V30 2929 H 279.87 0.343495 -1.52479 0
M  V30 2930 H 280.605 2.87769 -1.49531 0
M  V30 2931 H 280.39 2.30235 -3.17387 0
M  V30 2932 H 281.88 3.17718 -2.71007 0
M  V30 2933 N 282.317 1.53212 0.369288 0
M  V30 2934 C 283.542 1.73423 1.1375 0
M  V30 2935 C 283.967 0.460404 1.82378 0
M  V30 2936 O 283.325 -0.585298 1.71592 0
M  V30 2937 C 283.373 2.89769 2.1463 0
M  V30 2938 O 282.477 2.58119 3.21634 0
M  V30 2939 H 281.818 0.576061 0.330227 0
M  V30 2940 H 284.348 2.00083 0.427547 0
M  V30 2941 H 284.358 3.15829 2.58294 0
M  V30 2942 H 283.033 3.8217 1.64071 0
M  V30 2943 H 281.61 2.42864 2.82969 0
M  V30 2944 N 283.795 -0.628877 1.44509 0
M  V30 2945 C 285.023 -1.41554 1.50897 0
M  V30 2946 C 285.438 -1.8832 0.134564 0
M  V30 2947 O 284.795 -1.60969 -0.859965 0
M  V30 2948 C 284.846 -2.63435 2.47556 0
M  V30 2949 O 284.567 -2.18619 3.79654 0
M  V30 2950 C 286.068 -3.56537 2.63431 0
M  V30 2951 H 283.288 -0.434044 0.511709 0
M  V30 2952 H 285.832 -0.768895 1.89495 0
M  V30 2953 H 283.987 -3.24187 2.12089 0
M  V30 2954 H 284.401 -2.97652 4.31861 0
M  V30 2955 H 285.875 -4.38657 3.35088 0
M  V30 2956 H 286.352 -4.05493 1.68738 0
M  V30 2957 H 286.958 -3.01653 2.9981 0
M  V30 2958 N 285.273 -1.31445 -0.869486 0
M  V30 2959 C 286.52 -1.21158 -1.62256 0
M  V30 2960 C 286.848 0.230155 -1.93133 0
M  V30 2961 O 286.103 1.17906 -1.56194 0
M  V30 2962 C 286.402 -2.00145 -2.96102 0
M  V30 2963 C 286.068 -3.4964 -2.84715 0
M  V30 2964 C 284.73 -3.90403 -2.81317 0
M  V30 2965 C 287.082 -4.44769 -2.71716 0
M  V30 2966 C 284.41 -5.24561 -2.62778 0
M  V30 2967 C 286.762 -5.79054 -2.54714 0
M  V30 2968 C 285.426 -6.19037 -2.49699 0
M  V30 2969 H 284.696 -0.443348 -0.593737 0
M  V30 2970 H 287.343 -1.62715 -1.00976 0
M  V30 2971 H 285.648 -1.5127 -3.6142 0
M  V30 2972 H 287.345 -1.89566 -3.53363 0
M  V30 2973 H 283.935 -3.17256 -2.88178 0
M  V30 2974 H 288.119 -4.14208 -2.73397 0
M  V30 2975 H 283.375 -5.54613 -2.57321 0
M  V30 2976 H 287.549 -6.52393 -2.43632 0
M  V30 2977 H 285.176 -7.22935 -2.35093 0
M  V30 2978 N 286.751 1.08385 -1.14413 0
M  V30 2979 C 287.979 1.84517 -0.936001 0
M  V30 2980 C 288.394 1.81626 0.515503 0
M  V30 2981 O 287.751 1.22008 1.35721 0
M  V30 2982 C 287.802 3.32049 -1.42918 0
M  V30 2983 O 287.523 3.34951 -2.82381 0
M  V30 2984 C 289.024 4.24986 -1.26103 0
M  V30 2985 H 286.244 0.582491 -0.333084 0
M  V30 2986 H 288.788 1.36885 -1.5193 0
M  V30 2987 H 286.943 3.7707 -0.888641 0
M  V30 2988 H 287.357 4.27048 -3.04517 0
M  V30 2989 H 288.831 5.26615 -1.6547 0
M  V30 2990 H 289.308 4.38726 -0.20392 0
M  V30 2991 H 289.914 3.85791 -1.79012 0
M  V30 2992 N 288.23 0.939286 1.26551 0
M  V30 2993 C 289.193 0.451987 2.24699 0
M  V30 2994 C 290.193 -0.435869 1.5478 0
M  V30 2995 O 291.383 -0.235314 1.72603 0
M  V30 2996 C 288.515 -0.348801 3.39111 0
M  V30 2997 H 289.708 1.3193 2.69322 0
M  V30 2998 H 287.261 0.721072 1.38673 0
M  V30 2999 H 287.996 -1.23444 2.99887 0
M  V30 3000 H 287.781 0.287945 3.91041 0
M  V30 3001 H 289.271 -0.679726 4.12031 0
M  V30 3002 N 289.708 -1.40897 0.706093 0
M  V30 3003 C 291.124 -1.55042 0.37869 0
M  V30 3004 C 291.324 -1.67944 -1.11342 0
M  V30 3005 O 290.38 -1.66372 -1.89938 0
M  V30 3006 C 291.693 -2.78398 1.13643 0
M  V30 3007 C 293.241 -2.92206 1.12181 0
M  V30 3008 C 293.716 -4.18463 1.86152 0
M  V30 3009 N 295.207 -4.25443 1.83173 0
M  V30 3010 C 295.942 -5.2202 2.37239 0
M  V30 3011 N 295.438 -6.24563 2.99821 0
M  V30 3012 N 297.231 -5.14033 2.27435 0
M  V30 3013 H 289.382 -1.30769 1.67372 0
M  V30 3014 H 291.645 -0.631653 0.706907 0
M  V30 3015 H 291.351 -2.7511 2.19106 0
M  V30 3016 H 291.225 -3.70228 0.721853 0
M  V30 3017 H 293.612 -2.95004 0.0754171 0
M  V30 3018 H 293.693 -2.01521 1.57554 0
M  V30 3019 H 293.337 -4.16427 2.90776 0
M  V30 3020 H 293.267 -5.08141 1.38206 0
M  V30 3021 H 295.758 -3.51976 1.37556 0
M  V30 3022 H 296.071 -6.94665 3.38616 0
M  V30 3023 H 294.416 -6.25035 3.03902 0
M  V30 3024 H 297.607 -4.3285 1.78208 0
M  V30 3025 H 297.78 -5.89129 2.69873 0
M  V30 3026 N 291.186 -0.45159 -1.50991 0
M  V30 3027 C 292.432 0.110237 -2.025 0
M  V30 3028 C 292.765 1.41109 -1.33424 0
M  V30 3029 O 292.04 1.89135 -0.453659 0
M  V30 3030 C 292.323 0.314271 -3.58726 0
M  V30 3031 C 292.176 -1.00623 -4.38401 0
M  V30 3032 C 293.495 1.07767 -4.26702 0
M  V30 3033 H 290.614 0.0385897 -0.735989 0
M  V30 3034 H 293.256 -0.593374 -1.80497 0
M  V30 3035 H 291.406 0.913601 -3.77605 0
M  V30 3036 H 293.078 -1.64064 -4.31139 0
M  V30 3037 H 291.321 -1.6075 -4.02917 0
M  V30 3038 H 291.992 -0.817341 -5.45915 0
M  V30 3039 H 294.468 0.56986 -4.12179 0
M  V30 3040 H 293.344 1.18921 -5.35863 0
M  V30 3041 H 293.605 2.10939 -3.88532 0
M  V30 3042 N 292.664 1.56529 -0.183458 0
M  V30 3043 C 293.913 1.96419 0.458511 0
M  V30 3044 C 294.226 1.0727 1.63562 0
M  V30 3045 O 295.432 1.36893 2.34462 0
M  V30 3046 C 293.888 3.49298 0.867122 0
M  V30 3047 C 293.496 4.47092 -0.285057 0
M  V30 3048 C 295.24 3.97983 1.47683 0
M  V30 3049 C 293.147 5.91225 0.143862 0
M  V30 3050 H 292.077 0.733394 0.175071 0
M  V30 3051 H 294.728 1.81448 -0.273624 0
M  V30 3052 H 293.11 3.59731 1.65559 0
M  V30 3053 H 294.284 4.48383 -1.0625 0
M  V30 3054 H 292.599 4.08535 -0.805503 0
M  V30 3055 H 295.196 5.03134 1.80999 0
M  V30 3056 H 295.539 3.41618 2.37914 0
M  V30 3057 H 296.072 3.90617 0.752562 0
M  V30 3058 H 292.811 6.5149 -0.723974 0
M  V30 3059 H 292.331 5.93214 0.886413 0
M  V30 3060 H 294.01 6.44362 0.583628 0
M  V30 3061 N 294.142 -0.090211 1.57342 0
M  V30 3062 C 295.37 -0.806224 1.90546 0
M  V30 3063 C 295.785 -1.72041 0.777644 0
M  V30 3064 O 295.142 -1.80778 -0.250103 0
M  V30 3065 C 295.193 -1.61546 3.23396 0
M  V30 3066 O 294.914 -0.738043 4.31839 0
M  V30 3067 C 296.415 -2.4341 3.70495 0
M  V30 3068 H 293.635 -0.230256 0.630257 0
M  V30 3069 H 296.179 -0.0659843 2.04394 0
M  V30 3070 H 294.334 -2.30816 3.11131 0
M  V30 3071 H 294.748 -1.29901 5.08159 0
M  V30 3072 H 296.222 -2.95676 4.66133 0
M  V30 3073 H 296.699 -3.22098 2.98579 0
M  V30 3074 H 297.305 -1.79331 3.85643 0
M  V30 3075 N 295.62 -1.53406 -0.361157 0
M  V30 3076 C 296.845 -1.74024 -1.12829 0
M  V30 3077 C 297.27 -0.470069 -1.82132 0
M  V30 3078 O 296.628 0.57619 -1.719 0
M  V30 3079 C 296.676 -2.90903 -2.13091 0
M  V30 3080 O 295.78 -2.59821 -3.20261 0
M  V30 3081 H 295.121 -0.577804 -0.327168 0
M  V30 3082 H 297.651 -2.00307 -0.41693 0
M  V30 3083 H 297.661 -3.17194 -2.56616 0
M  V30 3084 H 296.336 -3.83034 -1.62042 0
M  V30 3085 H 294.913 -2.44362 -2.81677 0
M  V30 3086 N 297.098 0.621204 -1.44841 0
M  V30 3087 C 298.326 1.40752 -1.51646 0
M  V30 3088 C 298.741 1.88246 -0.144549 0
M  V30 3089 O 298.098 1.61422 0.851416 0
M  V30 3090 C 298.149 2.62119 -2.4895 0
M  V30 3091 O 297.87 2.16602 -3.80808 0
M  V30 3092 C 299.371 3.55135 -2.65319 0
M  V30 3093 H 296.591 0.431325 -0.514004 0
M  V30 3094 H 299.135 0.758835 -1.899 0
M  V30 3095 H 297.29 3.23058 -2.13805 0
M  V30 3096 H 297.704 2.95358 -4.33433 0
M  V30 3097 H 299.178 4.36874 -3.37409 0
M  V30 3098 H 299.655 4.04592 -1.70886 0
M  V30 3099 H 300.261 3.00058 -3.01405 0
M  V30 3100 N 298.576 1.31904 0.862503 0
M  V30 3101 C 299.506 1.22782 1.98612 0
M  V30 3102 C 300.487 0.113362 1.69722 0
M  V30 3103 O 301.672 0.299218 1.91881 0
M  V30 3104 C 298.802 0.942058 3.34279 0
M  V30 3105 C 297.756 2.0169 3.77499 0
M  V30 3106 C 297.082 1.58369 5.10709 0
M  V30 3107 C 298.382 3.43096 3.93805 0
M  V30 3108 H 300.076 2.16788 2.06502 0
M  V30 3109 H 297.622 1.04366 0.992154 0
M  V30 3110 H 299.575 0.864818 4.1243 0
M  V30 3111 H 298.299 -0.0336603 3.26583 0
M  V30 3112 H 296.958 2.08416 3.01593 0
M  V30 3113 H 296.606 0.595628 4.99461 0
M  V30 3114 H 296.306 2.30279 5.40597 0
M  V30 3115 H 297.83 1.52067 5.91361 0
M  V30 3116 H 299.244 3.39003 4.62331 0
M  V30 3117 H 297.641 4.13288 4.35101 0
M  V30 3118 H 298.711 3.83334 2.96957 0
M  V30 3119 N 300.054 -1.07777 1.14986 0
M  V30 3120 C 301.017 -2.13041 0.845358 0
M  V30 3121 C 302.017 -1.60071 -0.152931 0
M  V30 3122 O 303.207 -1.74033 0.0761879 0
M  V30 3123 C 300.339 -3.39896 0.261383 0
M  V30 3124 H 301.532 -2.41485 1.77834 0
M  V30 3125 H 299.085 -1.23595 0.956757 0
M  V30 3126 H 299.82 -3.17091 -0.68 0
M  V30 3127 H 299.605 -3.79642 0.980514 0
M  V30 3128 H 301.095 -4.17548 0.0657687 0
M  V30 3129 N 301.532 -0.945985 -1.26051 0
M  V30 3130 C 302.809 -0.513816 -1.88731 0
M  V30 3131 C 303.189 1.00872 -1.8544 0
M  V30 3132 O 302.537 1.8708 -1.312 0
M  V30 3133 C 302.747 -1.08062 -3.31849 0
M  V30 3134 C 304.095 -1.1522 -4.08668 0
M  V30 3135 O 305.119 -1.03155 -3.40936 0
M  V30 3136 O 303.978 -1.34044 -5.29806 0
M  V30 3137 H 301.072 -0.168193 -0.809716 0
M  V30 3138 H 303.618 -1.03886 -1.34186 0
M  V30 3139 H 302.39 -2.1241 -3.2863 0
M  V30 3140 H 302.013 -0.538307 -3.93939 0
M  V30 3141 N 303.011 1.40521 -0.713556 0
M  V30 3142 C 303.941 2.33381 -0.0743864 0
M  V30 3143 C 304.922 1.52784 0.747735 0
M  V30 3144 O 306.107 1.81258 0.697071 0
M  V30 3145 C 303.237 3.36748 0.849598 0
M  V30 3146 C 302.191 4.27793 0.133247 0
M  V30 3147 C 301.517 5.21679 1.17281 0
M  V30 3148 C 302.817 5.12415 -1.01134 0
M  V30 3149 H 304.511 2.87081 -0.850007 0
M  V30 3150 H 302.057 1.38034 -0.410201 0
M  V30 3151 H 304.01 4.00648 1.30612 0
M  V30 3152 H 302.734 2.81439 1.65709 0
M  V30 3153 H 301.393 3.65342 -0.303426 0
M  V30 3154 H 301.041 4.62677 1.9733 0
M  V30 3155 H 300.741 5.83435 0.698397 0
M  V30 3156 H 302.265 5.88456 1.62947 0
M  V30 3157 H 303.679 5.69781 -0.634274 0
M  V30 3158 H 302.076 5.83203 -1.41399 0
M  V30 3159 H 303.146 4.48514 -1.84292 0
M  V30 3160 N 304.489 0.459591 1.5075 0
M  V30 3161 C 305.439 -0.358926 2.25157 0
M  V30 3162 C 306.423 -0.971285 1.28276 0
M  V30 3163 O 307.615 -0.885739 1.53244 0
M  V30 3164 C 304.744 -1.44695 3.11317 0
M  V30 3165 C 303.83 -0.842894 4.15639 0
M  V30 3166 N 304.221 0.0299373 5.05791 0
M  V30 3167 C 302.519 -1.10809 4.32015 0
M  V30 3168 C 303.22 0.371563 5.80512 0
M  V30 3169 N 302.196 -0.250409 5.43023 0
M  V30 3170 H 305.998 0.313636 2.92222 0
M  V30 3171 H 303.512 0.273021 1.60089 0
M  V30 3172 H 305.509 -2.04641 3.63218 0
M  V30 3173 H 304.169 -2.12162 2.45799 0
M  V30 3174 H 305.18 0.39797 5.16369 0
M  V30 3175 H 301.857 -1.7786 3.77719 0
M  V30 3176 H 303.247 1.08319 6.63111 0
M  V30 3177 N 305.967 -1.56429 0.191757 0
M  V30 3178 C 307.192 -2.02309 -0.456706 0
M  V30 3179 C 307.617 -1.07103 -1.5463 0
M  V30 3180 O 306.975 -0.0539677 -1.8122 0
M  V30 3181 C 307.023 -3.46654 -0.993159 0
M  V30 3182 O 306.127 -3.54559 -2.10622 0
M  V30 3183 H 305.468 -0.655303 -0.107114 0
M  V30 3184 H 307.998 -2.02364 0.301653 0
M  V30 3185 H 308.008 -3.86377 -1.31061 0
M  V30 3186 H 306.683 -4.1544 -0.195504 0
M  V30 3187 H 305.26 -3.26708 -1.79767 0
M  V30 3188 N 307.445 0.0818655 -1.57387 0
M  V30 3189 C 308.408 1.08265 -2.02018 0
M  V30 3190 C 309.408 1.32183 -0.915664 0
M  V30 3191 O 310.598 1.28073 -1.18081 0
M  V30 3192 C 307.73 2.42871 -2.39221 0
M  V30 3193 H 308.923 0.698204 -2.91659 0
M  V30 3194 H 306.476 0.327303 -1.52835 0
M  V30 3195 H 307.211 2.86167 -1.52575 0
M  V30 3196 H 306.996 2.26855 -3.19811 0
M  V30 3197 H 308.486 3.14826 -2.74362 0
M  V30 3198 N 308.923 1.53595 0.353017 0
M  V30 3199 C 310.169 1.70638 1.09593 0
M  V30 3200 C 310.502 0.463286 1.88593 0
M  V30 3201 O 309.777 -0.539597 1.86865 0
M  V30 3202 C 310.06 2.96406 2.04489 0
M  V30 3203 C 309.913 4.30901 1.29014 0
M  V30 3204 C 311.232 3.17812 3.0444 0
M  V30 3205 H 308.351 0.620913 0.397034 0
M  V30 3206 H 310.993 1.86254 0.375446 0
M  V30 3207 H 309.143 2.83223 2.65927 0
M  V30 3208 H 310.815 4.55917 0.702638 0
M  V30 3209 H 309.058 4.29741 0.592071 0
M  V30 3210 H 309.729 5.1506 1.98537 0
M  V30 3211 H 312.205 3.30263 2.53112 0
M  V30 3212 H 311.081 4.07223 3.6805 0
M  V30 3213 H 311.342 2.33669 3.75301 0
M  V30 3214 N 310.401 -0.613514 1.45168 0
M  V30 3215 C 311.629 -1.39946 1.5239 0
M  V30 3216 C 312.044 -1.88167 0.154531 0
M  V30 3217 O 311.401 -1.61872 -0.842843 0
M  V30 3218 C 311.452 -2.60795 2.50337 0
M  V30 3219 O 311.173 -2.1458 3.81952 0
M  V30 3220 C 312.674 -3.53723 2.67198 0
M  V30 3221 H 309.894 -0.428593 0.516284 0
M  V30 3222 H 312.438 -0.748753 1.903 0
M  V30 3223 H 310.593 -3.21919 2.15515 0
M  V30 3224 H 311.007 -2.93055 4.34993 0
M  V30 3225 H 312.481 -4.35079 3.39721 0
M  V30 3226 H 312.958 -4.0368 1.73029 0
M  V30 3227 H 313.564 -2.98456 3.02992 0
M  V30 3228 N 311.879 -1.3236 -0.855495 0
M  V30 3229 C 313.127 -1.22629 -1.60644 0
M  V30 3230 C 313.448 0.212136 -1.93843 0
M  V30 3231 O 312.718 1.13666 -1.59552 0
M  V30 3232 H 311.298 -0.450882 -0.595579 0
M  V30 3233 H 313.96 -1.65871 -1.02337 0
M  V30 3234 H 313.056 -1.80832 -2.54374 0
M  V30 3235 N 313.357 1.07166 -1.15556 0
M  V30 3236 C 314.32 2.12589 -0.856644 0
M  V30 3237 C 315.32 1.6015 0.14444 0
M  V30 3238 O 316.51 1.7399 -0.0854163 0
M  V30 3239 C 313.642 3.39753 -0.279405 0
M  V30 3240 H 314.835 2.40539 -1.79112 0
M  V30 3241 H 312.388 1.23086 -0.963298 0
M  V30 3242 H 313.123 3.17447 0.663174 0
M  V30 3243 H 312.908 3.79117 -1.00063 0
M  V30 3244 H 314.398 4.17507 -0.0879113 0
M  V30 3245 N 314.835 0.952656 1.25548 0
M  V30 3246 C 316.084 0.602053 1.92505 0
M  V30 3247 C 316.397 -0.864663 1.75451 0
M  V30 3248 O 317.603 -1.32514 2.36965 0
M  V30 3249 C 316.059 1.02607 3.44963 0
M  V30 3250 C 315.667 2.51519 3.70732 0
M  V30 3251 C 317.411 0.747905 4.1786 0
M  V30 3252 C 315.318 2.87732 5.16686 0
M  V30 3253 H 314.248 0.22146 0.720744 0
M  V30 3254 H 316.899 1.15684 1.42441 0
M  V30 3255 H 315.281 0.399712 3.93978 0
M  V30 3256 H 316.455 3.19157 3.32378 0
M  V30 3257 H 314.77 2.76786 3.11092 0
M  V30 3258 H 317.367 0.994647 5.25367 0
M  V30 3259 H 317.71 -0.315629 4.15102 0
M  V30 3260 H 318.243 1.33452 3.74747 0
M  V30 3261 H 314.982 3.93095 5.24554 0
M  V30 3262 H 314.502 2.24765 5.56094 0
M  V30 3263 H 316.181 2.76817 5.84792 0
M  V30 3264 N 316.313 -1.40141 0.720998 0
M  V30 3265 C 317.561 -2.0039 0.262323 0
M  V30 3266 C 317.882 -1.57469 -1.15015 0
M  V30 3267 O 317.152 -0.816582 -1.78069 0
M  V30 3268 H 315.732 -0.741063 0.093996 0
M  V30 3269 H 318.394 -1.71398 0.927835 0
M  V30 3270 H 317.49 -3.10658 0.299671 0
M  V30 3271 N 317.792 -0.46758 -1.50504 0
M  V30 3272 C 318.755 0.317059 -2.26996 0
M  V30 3273 C 319.755 0.923513 -1.31635 0
M  V30 3274 O 320.945 0.793239 -1.55091 0
M  V30 3275 C 318.077 1.45134 -3.08462 0
M  V30 3276 H 319.27 -0.353723 -2.97807 0
M  V30 3277 H 316.823 -0.221545 -1.54722 0
M  V30 3278 H 317.558 2.15728 -2.4214 0
M  V30 3279 H 317.343 1.02232 -3.78538 0
M  V30 3280 H 318.833 2.00493 -3.66323 0
M  V30 3281 N 319.27 1.56325 -0.20005 0
M  V30 3282 C 320.2 2.22318 0.713916 0
M  V30 3283 C 321.181 1.18788 1.21752 0
M  V30 3284 O 322.366 1.47309 1.26545 0
M  V30 3285 C 319.496 2.88639 1.93144 0
M  V30 3286 C 318.45 3.98457 1.56255 0
M  V30 3287 C 317.776 4.51967 2.85709 0
M  V30 3288 C 319.076 5.16612 0.768747 0
M  V30 3289 H 320.77 2.98952 0.163755 0
M  V30 3290 H 318.316 1.43792 0.0773219 0
M  V30 3291 H 320.269 3.33491 2.57608 0
M  V30 3292 H 318.993 2.09419 2.50621 0
M  V30 3293 H 317.652 3.54305 0.941471 0
M  V30 3294 H 317.3 3.69503 3.41287 0
M  V30 3295 H 317 5.26071 2.6177 0
M  V30 3296 H 318.524 4.99523 3.51154 0
M  V30 3297 H 319.938 5.57977 1.3166 0
M  V30 3298 H 318.335 5.96812 0.627286 0
M  V30 3299 H 319.405 4.84358 -0.229168 0
M  V30 3300 N 320.748 -0.0735177 1.57428 0
M  V30 3301 C 321.695 -1.08756 2.0357 0
M  V30 3302 C 322.665 -1.38559 0.916 0
M  V30 3303 O 323.85 -1.49656 1.18354 0
M  V30 3304 C 320.99 -2.39657 2.48311 0
M  V30 3305 C 320.103 -2.16399 3.73892 0
M  V30 3306 C 319.238 -3.40852 4.07423 0
M  V30 3307 C 318.277 -3.1295 5.2605 0
M  V30 3308 N 317.414 -4.29729 5.55228 0
M  V30 3309 H 322.254 -0.687104 2.8997 0
M  V30 3310 H 319.791 -0.327709 1.43403 0
M  V30 3311 H 321.749 -3.16081 2.72303 0
M  V30 3312 H 320.379 -2.77508 1.64891 0
M  V30 3313 H 319.431 -1.30676 3.57251 0
M  V30 3314 H 320.743 -1.91788 4.60455 0
M  V30 3315 H 319.897 -4.25671 4.32306 0
M  V30 3316 H 318.636 -3.68537 3.19425 0
M  V30 3317 H 317.641 -2.26526 5.00965 0
M  V30 3318 H 318.866 -2.86589 6.15665 0
M  V30 3319 H 316.812 -4.57448 4.70188 0
M  V30 3320 H 316.729 -4.08385 6.36206 0
M  V30 3321 H 317.997 -5.1555 5.84661 0
M  V30 3322 N 322.226 -1.5378 -0.344866 0
M  V30 3323 C 323.474 -1.70625 -1.08311 0
M  V30 3324 C 323.795 -0.471447 -1.89215 0
M  V30 3325 O 323.065 0.514616 -1.8902 0
M  V30 3326 H 321.645 -0.629058 -0.402859 0
M  V30 3327 H 324.307 -1.9103 -0.386459 0
M  V30 3328 H 323.403 -2.57656 -1.76124 0
M  V30 3329 N 323.704 0.605807 -1.45491 0
M  V30 3330 C 325.115 1.18777 -1.44045 0
M  V30 3331 C 325.466 1.95471 -0.169001 0
M  V30 3332 O 324.591 2.0374 0.729324 0
M  V30 3333 C 325.186 2.16064 -2.60963 0
M  V30 3334 C 323.745 2.69633 -2.62631 0
M  V30 3335 C 322.892 1.45072 -2.36325 0
M  V30 3336 H 325.843 0.395017 -1.53705 0
M  V30 3337 H 325.864 2.9913 -2.35163 0
M  V30 3338 H 325.376 1.60217 -3.53486 0
M  V30 3339 H 323.477 3.29414 -1.74119 0
M  V30 3340 H 323.59 3.13944 -3.61906 0
M  V30 3341 H 321.954 1.74089 -1.85917 0
M  V30 3342 H 322.737 0.910899 -3.30995 0
M  V30 3343 N 325.182 1.32811 0.848464 0
M  V30 3344 C 326.112 1.24882 1.97299 0
M  V30 3345 C 327.093 0.131357 1.69592 0
M  V30 3346 O 328.278 0.319553 1.91553 0
M  V30 3347 C 325.408 0.97746 3.33261 0
M  V30 3348 C 324.362 2.05682 3.75338 0
M  V30 3349 C 323.688 1.63777 5.09 0
M  V30 3350 C 324.988 3.47254 3.90144 0
M  V30 3351 H 326.682 2.18966 2.04191 0
M  V30 3352 H 324.228 1.05413 0.981029 0
M  V30 3353 H 326.181 0.908513 4.1149 0
M  V30 3354 H 324.905 0.000980011 3.266 0
M  V30 3355 H 323.564 2.11603 2.99366 0
M  V30 3356 H 323.212 0.648569 4.98801 0
M  V30 3357 H 322.912 2.36 5.38124 0
M  V30 3358 H 324.436 1.5833 5.89715 0
M  V30 3359 H 325.85 3.43888 4.58709 0
M  V30 3360 H 324.247 4.1788 4.30693 0
M  V30 3361 H 325.317 3.86462 2.92874 0
M  V30 3362 N 326.66 -1.06551 1.16123 0
M  V30 3363 C 327.61 -2.12209 0.833736 0
M  V30 3364 C 328.594 -1.59825 -0.185656 0
M  V30 3365 O 329.786 -1.76994 0.0147906 0
M  V30 3366 C 326.915 -3.41674 0.333697 0
M  V30 3367 C 326.001 -4.00892 1.38372 0
M  V30 3368 N 326.392 -4.34256 2.59337 0
M  V30 3369 C 324.69 -4.28463 1.23836 0
M  V30 3370 C 325.391 -4.81291 3.26701 0
M  V30 3371 N 324.367 -4.80565 2.54083 0
M  V30 3372 H 328.169 -2.35849 1.75364 0
M  V30 3373 H 325.683 -1.24068 1.04789 0
M  V30 3374 H 327.68 -4.16822 0.0806918 0
M  V30 3375 H 326.34 -3.19475 -0.58017 0
M  V30 3376 H 327.351 -4.24687 2.96415 0
M  V30 3377 H 324.028 -4.15721 0.38504 0
M  V30 3378 H 325.418 -5.16332 4.29943 0
M  V30 3379 N 328.138 -0.959301 -1.25041 0
M  V30 3380 C 329.386 -0.615393 -1.92503 0
M  V30 3381 C 329.707 0.850969 -1.75452 0
M  V30 3382 O 328.977 1.60658 -1.12098 0
M  V30 3383 H 327.557 -0.224613 -0.712431 0
M  V30 3384 H 330.219 -1.21855 -1.5211 0
M  V30 3385 H 329.315 -0.848738 -3.00338 0
M  V30 3386 N 329.616 1.39756 -0.72842 0
M  V30 3387 C 330.864 2.00248 -0.272946 0
M  V30 3388 C 331.185 1.58077 1.14178 0
M  V30 3389 O 330.455 0.826014 1.77634 0
M  V30 3390 H 329.035 0.740554 -0.0979247 0
M  V30 3391 H 331.697 1.70903 -0.936912 0
M  V30 3392 H 330.793 3.10495 -0.316142 0
M  V30 3393 N 331.094 0.475555 1.50254 0
M  V30 3394 C 332.057 -0.305016 2.27161 0
M  V30 3395 C 333.057 -0.916519 1.32123 0
M  V30 3396 O 334.247 -0.785003 1.5551 0
M  V30 3397 C 331.379 -1.43496 3.09227 0
M  V30 3398 H 332.572 0.369511 2.97615 0
M  V30 3399 H 330.125 0.229747 1.54602 0
M  V30 3400 H 330.86 -2.14441 2.43281 0
M  V30 3401 H 330.645 -1.00223 3.79075 0
M  V30 3402 H 332.135 -1.98548 3.67381 0
M  V30 3403 N 332.573 -1.56217 0.208337 0
M  V30 3404 C 333.521 -2.21053 -0.723769 0
M  V30 3405 C 334.515 -1.18578 -1.20978 0
M  V30 3406 O 335.721 -1.36691 -1.17114 0
M  V30 3407 H 332.096 -0.708595 -0.251788 0
M  V30 3408 H 334.067 -2.98006 -0.153365 0
M  V30 3409 C 332.816 -2.89417 -1.927 0
M  V30 3410 H 332.139 -3.68019 -1.56212 0
M  V30 3411 H 333.579 -3.38201 -2.55727 0
M  V30 3412 C 332.038 -1.91166 -2.77411 0
M  V30 3413 O 332.568 -1.42026 -3.75754 0
M  V30 3414 N 330.774 -1.59105 -2.43175 0
M  V30 3415 H 330.321 -1.99259 -1.63259 0
M  V30 3416 H 330.279 -0.936255 -3.00136 0
M  V30 3417 N 334.051 0.0651679 -1.57465 0
M  V30 3418 C 334.961 1.09448 -2.07505 0
M  V30 3419 C 335.977 1.41974 -1.00595 0
M  V30 3420 O 337.153 1.52018 -1.32107 0
M  V30 3421 C 334.218 2.38689 -2.51453 0
M  V30 3422 C 333.279 2.13073 -3.72691 0
M  V30 3423 C 332.512 3.36152 -4.14533 0
M  V30 3424 O 332.735 4.45517 -3.56189 0
M  V30 3425 O 331.669 3.23974 -5.07272 0
M  V30 3426 H 335.495 0.69935 -2.95538 0
M  V30 3427 H 333.08 0.279752 -1.46757 0
M  V30 3428 H 334.962 3.14736 -2.80212 0
M  V30 3429 H 333.637 2.77568 -1.66546 0
M  V30 3430 H 332.544 1.34709 -3.49005 0
M  V30 3431 H 333.877 1.79071 -4.5847 0
M  V30 3432 N 335.529 1.53961 0.336706 0
M  V30 3433 C 336.492 1.81724 1.39675 0
M  V30 3434 C 337.492 0.688532 1.45313 0
M  V30 3435 O 338.682 0.956829 1.45569 0
M  V30 3436 C 335.814 1.96543 2.78538 0
M  V30 3437 H 337.007 2.76424 1.16318 0
M  V30 3438 H 334.56 1.45478 0.571474 0
M  V30 3439 H 335.295 1.0401 3.07168 0
M  V30 3440 H 335.08 2.78665 2.75841 0
M  V30 3441 H 336.57 2.19516 3.5525 0
M  V30 3442 N 337.007 -0.598083 1.45811 0
M  V30 3443 C 338.253 -1.35882 1.50545 0
M  V30 3444 C 338.586 -1.93616 0.150445 0
M  V30 3445 O 337.861 -1.75604 -0.83628 0
M  V30 3446 C 338.144 -2.49966 2.59208 0
M  V30 3447 C 337.997 -1.97367 4.04186 0
M  V30 3448 C 339.316 -3.52068 2.64076 0
M  V30 3449 H 336.435 -0.492717 0.548087 0
M  V30 3450 H 339.077 -0.673319 1.77669 0
M  V30 3451 H 337.227 -3.08443 2.3621 0
M  V30 3452 H 338.899 -1.43466 4.38423 0
M  V30 3453 H 337.142 -1.283 4.14393 0
M  V30 3454 H 337.813 -2.79649 4.75921 0
M  V30 3455 H 340.289 -3.03448 2.84708 0
M  V30 3456 H 339.165 -4.2937 3.41954 0
M  V30 3457 H 339.426 -4.08304 1.69531 0
M  V30 3458 N 338.485 -1.33259 -0.841409 0
M  V30 3459 C 339.418 -1.1764 -1.95541 0
M  V30 3460 C 340.396 -0.072501 -1.62438 0
M  V30 3461 O 341.58 -0.23427 -1.87039 0
M  V30 3462 C 338.707 -0.803794 -3.29024 0
M  V30 3463 C 337.753 -1.91482 -3.81099 0
M  V30 3464 S 338.586 -3.52538 -4.03085 0
M  V30 3465 C 339.742 -3.17279 -5.39523 0
M  V30 3466 H 339.975 -2.11941 -2.08491 0
M  V30 3467 H 337.508 -1.18072 -0.9949 0
M  V30 3468 H 339.466 -0.595592 -4.06156 0
M  V30 3469 H 338.127 0.120574 -3.13868 0
M  V30 3470 H 337.32 -1.60742 -4.7768 0
M  V30 3471 H 336.922 -2.07956 -3.10854 0
M  V30 3472 H 339.214 -2.67946 -6.22263 0
M  V30 3473 H 340.157 -4.1293 -5.75234 0
M  V30 3474 H 340.565 -2.53943 -5.04156 0
M  V30 3475 N 339.963 1.05934 -1.16686 0
M  V30 3476 C 340.913 2.11764 -0.844978 0
M  V30 3477 C 341.897 1.59922 0.177178 0
M  V30 3478 O 343.089 1.76983 -0.0241768 0
M  V30 3479 C 340.218 3.41493 -0.351812 0
M  V30 3480 C 339.304 4.00152 -1.40496 0
M  V30 3481 N 339.695 4.32874 -2.61636 0
M  V30 3482 C 337.993 4.278 -1.26106 0
M  V30 3483 C 338.694 4.79552 -3.29249 0
M  V30 3484 N 337.67 4.79211 -2.56628 0
M  V30 3485 H 341.472 2.34916 -1.76612 0
M  V30 3486 H 338.986 1.23511 -1.05446 0
M  V30 3487 H 340.983 4.16773 -0.102796 0
M  V30 3488 H 339.643 3.19778 0.56322 0
M  V30 3489 H 340.654 4.23109 -2.98663 0
M  V30 3490 H 337.331 4.15511 -0.407081 0
M  V30 3491 H 338.721 5.14045 -4.32675 0
M  V30 3492 N 341.441 0.965919 1.2453 0
M  V30 3493 C 342.669 0.644385 1.96609 0
M  V30 3494 C 343.084 -0.785823 1.71669 0
M  V30 3495 O 342.441 -1.52703 0.999399 0
M  V30 3496 C 342.492 0.907375 3.49927 0
M  V30 3497 O 342.213 2.28136 3.74013 0
M  V30 3498 C 343.714 0.599784 4.39224 0
M  V30 3499 H 340.934 0.240588 0.626385 0
M  V30 3500 H 343.478 1.29337 1.58405 0
M  V30 3501 H 341.633 0.304631 3.862 0
M  V30 3502 H 342.047 2.36002 4.68405 0
M  V30 3503 H 343.521 0.834263 5.45659 0
M  V30 3504 H 343.998 -0.465921 4.36722 0
M  V30 3505 H 344.604 1.18235 4.08535 0
M  V30 3506 N 342.919 -1.39368 0.735821 0
M  V30 3507 C 344.166 -2.00497 0.284123 0
M  V30 3508 C 344.494 -1.58387 -1.12889 0
M  V30 3509 O 343.749 -0.804359 -1.78406 0
M  V30 3510 C 344.048 -3.5583 0.334651 0
M  V30 3511 C 343.714 -4.17593 1.7008 0
M  V30 3512 C 342.376 -4.34176 2.07472 0
M  V30 3513 C 344.728 -4.51848 2.59775 0
M  V30 3514 C 342.056 -4.82304 3.34065 0
M  V30 3515 C 344.408 -5.01384 3.85741 0
M  V30 3516 C 343.072 -5.16175 4.23225 0
M  V30 3517 H 342.342 -0.73367 0.103968 0
M  V30 3518 H 344.989 -1.66683 0.942825 0
M  V30 3519 H 343.294 -3.89674 -0.407625 0
M  V30 3520 H 344.991 -4.00986 -0.0329927 0
M  V30 3521 H 341.581 -4.05087 1.40008 0
M  V30 3522 H 345.765 -4.38653 2.32157 0
M  V30 3523 H 341.021 -4.91941 3.63049 0
M  V30 3524 H 345.195 -5.26863 4.55399 0
M  V30 3525 H 342.822 -5.5323 5.21384 0
M  V30 3526 N 344.397 -0.483516 -1.5 0
M  V30 3527 C 345.307 0.309172 -2.32554 0
M  V30 3528 C 346.323 0.984159 -1.43493 0
M  V30 3529 O 347.499 0.969399 -1.76535 0
M  V30 3530 C 344.564 1.36979 -3.18493 0
M  V30 3531 C 343.625 0.710095 -4.23387 0
M  V30 3532 C 342.858 1.72018 -5.05218 0
M  V30 3533 O 343.081 2.94813 -4.88305 0
M  V30 3534 O 342.015 1.28515 -5.8802 0
M  V30 3535 H 345.841 -0.366064 -3.01486 0
M  V30 3536 H 343.426 -0.24514 -1.47375 0
M  V30 3537 H 345.308 1.98385 -3.71781 0
M  V30 3538 H 343.983 2.02828 -2.52275 0
M  V30 3539 H 342.89 0.0567539 -3.74057 0
M  V30 3540 H 344.223 0.0943557 -4.9211 0
M  V30 3541 N 345.875 1.56104 -0.216619 0
M  V30 3542 C 346.785 2.23694 0.706982 0
M  V30 3543 C 347.801 1.24295 1.21765 0
M  V30 3544 O 348.977 1.57094 1.2603 0
M  V30 3545 C 346.042 2.8998 1.90033 0
M  V30 3546 C 345.103 4.04708 1.43213 0
M  V30 3547 C 344.336 4.67824 2.56859 0
M  V30 3548 O 344.559 4.29913 3.74874 0
M  V30 3549 O 343.493 5.56905 2.28343 0
M  V30 3550 H 347.319 3.03272 0.161235 0
M  V30 3551 H 344.904 1.49394 0.0136177 0
M  V30 3552 H 346.786 3.31837 2.59735 0
M  V30 3553 H 345.461 2.13365 2.43428 0
M  V30 3554 H 344.368 3.6743 0.70327 0
M  V30 3555 H 345.701 4.83051 0.944615 0
M  V30 3556 N 347.353 -0.0568162 1.57498 0
M  V30 3557 C 348.602 -0.752001 1.87157 0
M  V30 3558 C 348.915 -1.77978 0.811375 0
M  V30 3559 O 350.121 -2.52559 0.996293 0
M  V30 3560 C 348.577 -1.38844 3.3204 0
M  V30 3561 C 348.185 -0.398456 4.46225 0
M  V30 3562 C 349.929 -2.06512 3.70882 0
M  V30 3563 C 347.836 -1.04166 5.82154 0
M  V30 3564 H 346.766 -0.28461 0.698222 0
M  V30 3565 H 349.417 -0.00561272 1.83499 0
M  V30 3566 H 347.799 -2.1836 3.30356 0
M  V30 3567 H 348.973 0.367977 4.59328 0
M  V30 3568 H 347.288 0.174592 4.16034 0
M  V30 3569 H 349.885 -2.55437 4.6974 0
M  V30 3570 H 350.228 -2.87117 3.01445 0
M  V30 3571 H 350.761 -1.33808 3.7462 0
M  V30 3572 H 347.5 -0.275614 6.5492 0
M  V30 3573 H 347.02 -1.7786 5.72823 0
M  V30 3574 H 348.699 -1.55715 6.27982 0
M  V30 3575 N 348.832 -1.54138 -0.328536 0
M  V30 3576 C 350.08 -1.71765 -1.06496 0
M  V30 3577 C 350.401 -0.49149 -1.88704 0
M  V30 3578 O 349.671 0.494539 -1.89555 0
M  V30 3579 H 348.251 -0.633295 -0.396164 0
M  V30 3580 H 350.913 -1.91429 -0.366176 0
M  V30 3581 H 350.009 -2.5951 -1.73381 0
M  V30 3582 N 350.31 0.590341 -1.46126 0
M  V30 3583 C 351.559 1.34499 -1.50309 0
M  V30 3584 C 351.872 1.94977 -0.156021 0
M  V30 3585 O 353.078 2.71395 -0.0756037 0
M  V30 3586 C 351.534 2.43723 -2.64815 0
M  V30 3587 C 351.142 1.89582 -4.0591 0
M  V30 3588 C 352.886 3.20579 -2.78262 0
M  V30 3589 C 350.793 2.9639 -5.11769 0
M  V30 3590 H 349.723 0.505593 -0.559368 0
M  V30 3591 H 352.374 0.630848 -1.72315 0
M  V30 3592 H 350.756 3.17902 -2.36124 0
M  V30 3593 H 351.93 1.21997 -4.44357 0
M  V30 3594 H 350.245 1.25418 -3.97063 0
M  V30 3595 H 352.842 4.00276 -3.54519 0
M  V30 3596 H 353.185 3.72684 -1.85505 0
M  V30 3597 H 353.718 2.53505 -3.06562 0
M  V30 3598 H 350.457 2.49181 -6.06291 0
M  V30 3599 H 349.977 3.62487 -4.77873 0
M  V30 3600 H 351.656 3.60474 -5.37278 0
M  V30 3601 N 351.788 1.33704 0.83433 0
M  V30 3602 C 353.204 1.13137 1.12571 0
M  V30 3603 C 353.404 -0.0747261 2.01361 0
M  V30 3604 O 352.46 -0.753647 2.4099 0
M  V30 3605 C 353.773 2.42105 1.78342 0
M  V30 3606 C 355.321 2.48054 1.90888 0
M  V30 3607 C 355.796 3.76995 2.60075 0
M  V30 3608 N 357.287 3.78092 2.67584 0
M  V30 3609 C 358.022 4.74574 3.21818 0
M  V30 3610 N 357.518 5.81434 3.76705 0
M  V30 3611 N 359.311 4.62044 3.20112 0
M  V30 3612 H 351.462 2.11 0.243489 0
M  V30 3613 H 353.725 0.932532 0.17055 0
M  V30 3614 H 353.431 3.30391 1.20561 0
M  V30 3615 H 353.305 2.54594 2.7832 0
M  V30 3616 H 355.692 1.60215 2.47821 0
M  V30 3617 H 355.773 2.39502 0.898459 0
M  V30 3618 H 355.417 4.65219 2.03799 0
M  V30 3619 H 355.347 3.82825 3.61597 0
M  V30 3620 H 357.838 3.00865 2.28667 0
M  V30 3621 H 358.151 6.51084 4.16305 0
M  V30 3622 H 356.496 5.85163 3.7498 0
M  V30 3623 H 359.687 3.77716 2.76493 0
M  V30 3624 H 359.86 5.37406 3.62076 0
M  V30 3625 N 353.266 -1.05314 1.17247 0
M  V30 3626 C 354.213 -2.13031 0.888058 0
M  V30 3627 C 355.183 -1.65253 -0.167537 0
M  V30 3628 O 356.368 -1.90775 -0.0305974 0
M  V30 3629 C 353.508 -3.42702 0.406147 0
M  V30 3630 C 352.621 -4.04161 1.52572 0
M  V30 3631 C 351.756 -5.21744 0.997808 0
M  V30 3632 C 350.795 -5.75207 2.09291 0
M  V30 3633 N 349.932 -6.84094 1.57986 0
M  V30 3634 H 354.772 -2.36698 1.81048 0
M  V30 3635 H 352.309 -1.16121 0.903013 0
M  V30 3636 H 354.267 -4.17059 0.108305 0
M  V30 3637 H 352.897 -3.19222 -0.479313 0
M  V30 3638 H 351.949 -3.27253 1.93931 0
M  V30 3639 H 353.261 -4.39881 2.35172 0
M  V30 3640 H 352.415 -6.03168 0.653739 0
M  V30 3641 H 351.154 -4.87495 0.141232 0
M  V30 3642 H 350.159 -4.92414 2.44557 0
M  V30 3643 H 351.384 -6.11505 2.95362 0
M  V30 3644 H 349.33 -6.51745 0.74598 0
M  V30 3645 H 349.247 -7.18811 2.34195 0
M  V30 3646 H 350.515 -7.69172 1.26468 0
M  V30 3647 N 354.744 -0.972509 -1.24016 0
M  V30 3648 C 356.021 -0.553733 -1.87598 0
M  V30 3649 C 356.401 0.969158 -1.87538 0
M  V30 3650 O 355.749 1.84255 -1.35139 0
M  V30 3651 C 355.959 -1.15076 -3.29482 0
M  V30 3652 C 357.307 -1.23862 -4.06132 0
M  V30 3653 O 358.331 -1.10363 -3.38672 0
M  V30 3654 O 357.19 -1.45252 -5.26844 0
M  V30 3655 H 354.284 -0.185331 -0.805966 0
M  V30 3656 H 356.83 -1.06709 -1.31952 0
M  V30 3657 H 355.602 -2.19333 -3.2405 0
M  V30 3658 H 355.225 -0.621746 -3.92709 0
M  V30 3659 N 356.222 1.38976 -0.743202 0
M  V30 3660 C 357.132 2.3434 -0.110399 0
M  V30 3661 C 358.148 1.58741 0.712559 0
M  V30 3662 O 359.324 1.9099 0.639125 0
M  V30 3663 C 356.389 3.37812 0.780012 0
M  V30 3664 C 355.45 4.29263 -0.0561319 0
M  V30 3665 C 354.683 5.27793 0.791875 0
M  V30 3666 O 354.906 5.33043 2.03031 0
M  V30 3667 O 353.84 6.01512 0.216183 0
M  V30 3668 H 357.666 2.90129 -0.897714 0
M  V30 3669 H 355.251 1.40643 -0.503966 0
M  V30 3670 H 357.133 4.01194 1.28923 0
M  V30 3671 H 355.808 2.84395 1.546 0
M  V30 3672 H 354.715 3.69076 -0.611056 0
M  V30 3673 H 356.048 4.85907 -0.784531 0
M  V30 3674 N 357.7 0.491464 1.49741 0
M  V30 3675 C 358.925 -0.0557177 2.07325 0
M  V30 3676 C 359.35 -1.30925 1.35056 0
M  V30 3677 O 358.708 -1.76733 0.404365 0
M  V30 3678 C 358.756 -0.302074 3.59333 0
M  V30 3679 O 357.86 -1.37868 3.88672 0
M  V30 3680 H 357.201 0.0219956 0.663636 0
M  V30 3681 H 359.731 0.688352 1.92673 0
M  V30 3682 H 359.741 -0.536464 4.04458 0
M  V30 3683 H 358.416 0.61383 4.11345 0
M  V30 3684 H 356.993 -1.12999 3.55367 0
M  V30 3685 N 359.178 -1.55987 0.224894 0
M  V30 3686 C 360.108 -2.23426 -0.678457 0
M  V30 3687 C 361.089 -1.20709 -1.19847 0
M  V30 3688 O 362.274 -1.49304 -1.24186 0
M  V30 3689 C 359.404 -2.91676 -1.88527 0
M  V30 3690 C 358.358 -4.00893 -1.49896 0
M  V30 3691 C 357.684 -4.56455 -2.78483 0
M  V30 3692 C 358.984 -5.17769 -0.686461 0
M  V30 3693 H 360.678 -2.99175 -0.116173 0
M  V30 3694 H 358.224 -1.43897 -0.054436 0
M  V30 3695 H 360.177 -3.37547 -2.5227 0
M  V30 3696 H 358.901 -2.1338 -2.47258 0
M  V30 3697 H 357.56 -3.55758 -0.884985 0
M  V30 3698 H 357.208 -3.74886 -3.35365 0
M  V30 3699 H 356.908 -5.30169 -2.53368 0
M  V30 3700 H 358.432 -5.05047 -3.43162 0
M  V30 3701 H 359.846 -5.60001 -1.22767 0
M  V30 3702 H 358.243 -5.97735 -0.532259 0
M  V30 3703 H 359.313 -4.83932 0.306196 0
M  V30 3704 N 360.656 0.0484629 -1.57525 0
M  V30 3705 C 361.933 0.777447 -1.79486 0
M  V30 3706 C 362.313 1.94597 -0.818251 0
M  V30 3707 O 361.661 2.28047 0.143767 0
M  V30 3708 C 361.871 1.22864 -3.26658 0
M  V30 3709 C 363.219 1.65251 -3.91123 0
M  V30 3710 O 364.243 1.32372 -3.3069 0
M  V30 3711 O 363.102 2.26207 -4.97486 0
M  V30 3712 H 360.196 0.374357 -0.737419 0
M  V30 3713 H 362.742 0.0267359 -1.69679 0
M  V30 3714 H 361.514 0.393589 -3.89316 0
M  V30 3715 H 361.137 2.03996 -3.41279 0
M  V30 3716 N 362.134 1.5431 0.320358 0
M  V30 3717 C 363.044 1.86946 1.41734 0
M  V30 3718 C 364.06 0.761689 1.56443 0
M  V30 3719 O 365.236 1.05629 1.71477 0
M  V30 3720 C 362.301 2.09293 2.76401 0
M  V30 3721 C 361.362 3.33082 2.70841 0
M  V30 3722 C 360.595 3.54353 3.99086 0
M  V30 3723 O 360.818 2.79002 4.97508 0
M  V30 3724 O 359.752 4.47838 4.0215 0
M  V30 3725 H 363.578 2.80232 1.17062 0
M  V30 3726 H 361.163 1.40255 0.514673 0
M  V30 3727 H 363.045 2.25303 3.56113 0
M  V30 3728 H 361.72 1.19194 3.00956 0
M  V30 3729 H 360.627 3.22454 1.89668 0
M  V30 3730 H 361.96 4.23249 2.5124 0
M  V30 3731 N 363.613 -0.582584 1.46437 0
M  V30 3732 C 364.576 -1.67366 1.56592 0
M  V30 3733 C 365.576 -1.54575 0.443072 0
M  V30 3734 O 366.766 -1.59191 0.707381 0
M  V30 3735 C 363.898 -3.06791 1.48634 0
M  V30 3736 H 365.091 -1.5972 2.5383 0
M  V30 3737 H 362.644 -0.800432 1.34249 0
M  V30 3738 H 363.379 -3.19993 0.526763 0
M  V30 3739 H 363.164 -3.17484 2.30101 0
M  V30 3740 H 364.654 -3.86218 1.58826 0
M  V30 3741 N 365.091 -1.34144 -0.827227 0
M  V30 3742 C 366.054 -1.25264 -1.91942 0
M  V30 3743 C 367.054 -0.168866 -1.59911 0
M  V30 3744 O 368.244 -0.421198 -1.69031 0
M  V30 3745 C 365.376 -0.932952 -3.27885 0
M  V30 3746 H 366.569 -2.22357 -2.0124 0
M  V30 3747 H 364.122 -1.1837 -1.0207 0
M  V30 3748 H 364.857 0.0349917 -3.24281 0
M  V30 3749 H 364.642 -1.71682 -3.52516 0
M  V30 3750 H 366.132 -0.895874 -4.07877 0
M  V30 3751 N 366.569 1.04691 -1.17803 0
M  V30 3752 C 367.797 1.81446 -0.99423 0
M  V30 3753 C 368.212 1.83174 0.457459 0
M  V30 3754 O 367.569 1.26265 1.31771 0
M  V30 3755 C 367.62 3.27334 -1.5341 0
M  V30 3756 O 367.341 3.25798 -2.92895 0
M  V30 3757 C 368.842 4.20759 -1.39559 0
M  V30 3758 H 366.062 0.571599 -0.351447 0
M  V30 3759 H 368.606 1.31982 -1.56208 0
M  V30 3760 H 366.761 3.74052 -1.00815 0
M  V30 3761 H 367.175 4.17144 -3.17949 0
M  V30 3762 H 368.649 5.21084 -1.82141 0
M  V30 3763 H 369.126 4.37856 -0.343394 0
M  V30 3764 H 369.732 3.79901 -1.91195 0
M  V30 3765 N 368.047 0.979072 1.23499 0
M  V30 3766 C 369.463 0.687475 1.44034 0
M  V30 3767 C 369.663 -0.746801 1.8715 0
M  V30 3768 O 368.719 -1.51939 2.0167 0
M  V30 3769 C 370.032 1.68127 2.49307 0
M  V30 3770 C 371.58 1.69516 2.63122 0
M  V30 3771 C 372.055 2.67723 3.71603 0
M  V30 3772 N 373.546 2.66233 3.79044 0
M  V30 3773 C 374.281 3.38891 4.62537 0
M  V30 3774 N 373.777 4.21103 5.50131 0
M  V30 3775 N 375.57 3.27661 4.56721 0
M  V30 3776 H 367.721 1.90559 0.938135 0
M  V30 3777 H 369.984 0.821051 0.473897 0
M  V30 3778 H 369.69 2.70693 2.2454 0
M  V30 3779 H 369.564 1.46306 3.4767 0
M  V30 3780 H 371.951 0.676561 2.8724 0
M  V30 3781 H 372.032 1.95404 1.65079 0
M  V30 3782 H 371.676 3.69724 3.48233 0
M  V30 3783 H 371.606 2.39111 4.69184 0
M  V30 3784 H 374.097 2.06568 3.16446 0
M  V30 3785 H 374.41 4.73403 6.10827 0
M  V30 3786 H 372.755 4.25195 5.49759 0
M  V30 3787 H 375.946 2.62887 3.87309 0
M  V30 3788 H 376.119 3.84547 5.21562 0
M  V30 3789 N 369.525 -1.3858 0.750561 0
M  V30 3790 C 370.75 -2.04997 0.314812 0
M  V30 3791 C 371.175 -1.56235 -1.04749 0
M  V30 3792 O 370.533 -0.712981 -1.66692 0
M  V30 3793 C 370.581 -3.58961 0.343415 0
M  V30 3794 O 369.685 -4.07025 -0.663628 0
M  V30 3795 H 369.026 -0.649081 0.139962 0
M  V30 3796 H 371.556 -1.77313 1.02084 0
M  V30 3797 H 371.566 -4.07542 0.193233 0
M  V30 3798 H 370.241 -3.93811 1.33738 0
M  V30 3799 H 368.818 -3.6982 -0.478307 0
M  V30 3800 N 371.003 -0.499398 -1.49478 0
M  V30 3801 C 371.95 0.279881 -2.29097 0
M  V30 3802 C 372.92 0.961805 -1.3542 0
M  V30 3803 O 374.105 0.968777 -1.64376 0
M  V30 3804 C 371.245 1.33932 -3.18051 0
M  V30 3805 C 370.358 0.669333 -4.26783 0
M  V30 3806 C 369.493 1.70907 -5.02955 0
M  V30 3807 C 368.532 1.02087 -6.03527 0
M  V30 3808 N 367.669 2.00474 -6.7287 0
M  V30 3809 H 372.509 -0.405317 -2.95231 0
M  V30 3810 H 370.046 -0.211726 -1.45568 0
M  V30 3811 H 372.004 1.96553 -3.67998 0
M  V30 3812 H 370.634 1.9933 -2.53904 0
M  V30 3813 H 369.686 -0.0701234 -3.80335 0
M  V30 3814 H 370.998 0.127503 -4.98637 0
M  V30 3815 H 370.152 2.41037 -5.56764 0
M  V30 3816 H 368.891 2.28476 -4.30871 0
M  V30 3817 H 367.896 0.305338 -5.48951 0
M  V30 3818 H 369.121 0.451708 -6.77596 0
M  V30 3819 H 367.067 2.57007 -6.03559 0
M  V30 3820 H 366.984 1.51353 -7.40694 0
M  V30 3821 H 368.252 2.69897 -7.31284 0
M  V30 3822 N 372.481 1.55866 -0.233164 0
M  V30 3823 C 373.444 2.1953 0.658715 0
M  V30 3824 C 374.444 1.16053 1.11303 0
M  V30 3825 O 375.634 1.41218 1.01996 0
M  V30 3826 C 372.766 2.82791 1.90373 0
M  V30 3827 H 373.959 2.99721 0.10347 0
M  V30 3828 H 371.512 1.56291 0.0164245 0
M  V30 3829 H 372.247 2.06501 2.50056 0
M  V30 3830 H 372.032 3.58578 1.58632 0
M  V30 3831 H 373.522 3.31556 2.53891 0
M  V30 3832 N 373.959 -0.0401083 1.57549 0
M  V30 3833 C 375.205 -0.728793 1.89895 0
M  V30 3834 C 375.56 -1.73551 0.830535 0
M  V30 3835 O 374.853 -1.90914 -0.162007 0
M  V30 3836 C 375.047 -1.44902 3.26708 0
M  V30 3837 C 374.876 -0.513568 4.46758 0
M  V30 3838 C 373.646 -0.138698 5.0511 0
M  V30 3839 C 375.844 0.203341 5.13898 0
M  V30 3840 N 373.826 0.799159 6.08676 0
M  V30 3841 C 375.197 0.997246 6.11927 0
M  V30 3842 C 377.252 0.271459 4.97159 0
M  V30 3843 C 375.955 1.85299 6.95023 0
M  V30 3844 C 377.981 1.11429 5.80808 0
M  V30 3845 C 377.343 1.89615 6.78399 0
M  V30 3846 H 373.442 -0.241125 0.743897 0
M  V30 3847 H 376.026 0.0108016 1.94697 0
M  V30 3848 H 374.197 -2.15914 3.22856 0
M  V30 3849 H 375.929 -2.08921 3.46603 0
M  V30 3850 H 372.684 -0.498496 4.70969 0
M  V30 3851 H 373.108 1.26227 6.65128 0
M  V30 3852 H 377.75 -0.318709 4.21597 0
M  V30 3853 H 375.468 2.454 7.69938 0
M  V30 3854 H 379.054 1.17038 5.69906 0
M  V30 3855 H 377.934 2.53779 7.42001 0
M  V30 3856 N 375.437 -1.54477 -0.31217 0
M  V30 3857 C 376.37 -1.79519 -1.40884 0
M  V30 3858 C 377.348 -0.645753 -1.49227 0
M  V30 3859 O 378.532 -0.884468 -1.66461 0
M  V30 3860 C 375.659 -1.92194 -2.78889 0
M  V30 3861 C 374.705 -3.14555 -2.88023 0
M  V30 3862 S 375.538 -4.72893 -2.51262 0
M  V30 3863 C 376.694 -4.8849 -3.91317 0
M  V30 3864 H 376.927 -2.72256 -1.19432 0
M  V30 3865 H 374.46 -1.45746 -0.509654 0
M  V30 3866 H 376.418 -2.00182 -3.58382 0
M  V30 3867 H 375.079 -1.00414 -2.97617 0
M  V30 3868 H 374.272 -3.20193 -3.89221 0
M  V30 3869 H 373.874 -3.04955 -2.16514 0
M  V30 3870 H 376.166 -4.71826 -4.86196 0
M  V30 3871 H 377.109 -5.90588 -3.90656 0
M  V30 3872 H 377.517 -4.16715 -3.80801 0
M  V30 3873 N 376.915 0.57481 -1.46744 0
M  V30 3874 C 378.161 1.3347 -1.52688 0
M  V30 3875 C 378.494 1.93353 -0.181229 0
M  V30 3876 O 377.769 1.76912 0.808237 0
M  V30 3877 C 378.052 2.45811 -2.63152 0
M  V30 3878 C 377.905 1.90912 -4.07275 0
M  V30 3879 C 379.224 3.47822 -2.69644 0
M  V30 3880 H 376.343 0.483935 -0.555856 0
M  V30 3881 H 378.985 0.644968 -1.78718 0
M  V30 3882 H 377.135 3.04646 -2.41088 0
M  V30 3883 H 378.807 1.36473 -4.4065 0
M  V30 3884 H 377.05 1.21691 -4.16382 0
M  V30 3885 H 377.721 2.72042 -4.80309 0
M  V30 3886 H 380.197 2.9888 -2.895 0
M  V30 3887 H 379.073 4.23876 -3.48742 0
M  V30 3888 H 379.334 4.05555 -1.76005 0
M  V30 3889 N 378.394 1.34581 0.820102 0
M  V30 3890 C 379.671 1.17675 1.56244 0
M  V30 3891 C 380.051 -0.249541 2.0962 0
M  V30 3892 O 379.399 -1.25125 1.91196 0
M  V30 3893 C 379.609 2.23364 2.6816 0
M  V30 3894 C 380.957 2.58485 3.36854 0
M  V30 3895 O 381.981 2.22175 2.78418 0
M  V30 3896 O 380.84 3.20868 4.42386 0
M  V30 3897 H 377.934 0.456333 0.689702 0
M  V30 3898 H 380.48 1.46222 0.861231 0
M  V30 3899 H 379.252 3.19087 2.26493 0
M  V30 3900 H 378.875 1.96009 3.45928 0
M  V30 3901 N 379.872 -1.04064 1.18357 0
M  V30 3902 C 380.835 -2.10243 0.912707 0
M  V30 3903 C 381.835 -1.60477 -0.101928 0
M  V30 3904 O 383.025 -1.73703 0.131517 0
M  V30 3905 C 380.157 -3.38893 0.369387 0
M  V30 3906 H 381.35 -2.35706 1.85426 0
M  V30 3907 H 378.903 -1.20489 0.995594 0
M  V30 3908 H 379.638 -3.19094 -0.578776 0
M  V30 3909 H 379.423 -3.76331 1.1008 0
M  V30 3910 H 380.913 -4.17128 0.198575 0
M  V30 3911 N 381.35 -0.985608 -1.22978 0
M  V30 3912 C 382.28 -0.549649 -2.26939 0
M  V30 3913 C 383.261 0.419803 -1.64838 0
M  V30 3914 O 384.446 0.31203 -1.91677 0
M  V30 3915 C 381.576 0.143652 -3.47003 0
M  V30 3916 C 380.53 -0.743606 -4.21491 0
M  V30 3917 C 379.856 0.0822027 -5.34637 0
M  V30 3918 C 381.156 -2.03694 -4.80943 0
M  V30 3919 H 382.85 -1.41862 -2.63658 0
M  V30 3920 H 380.396 -0.683571 -1.26741 0
M  V30 3921 H 382.349 0.459985 -4.18882 0
M  V30 3922 H 381.073 1.04711 -3.09359 0
M  V30 3923 H 379.732 -1.04347 -3.51436 0
M  V30 3924 H 379.38 0.986359 -4.93234 0
M  V30 3925 H 379.08 -0.508377 -5.85397 0
M  V30 3926 H 380.604 0.392797 -6.09335 0
M  V30 3927 H 382.018 -1.78504 -5.44802 0
M  V30 3928 H 380.415 -2.57573 -5.42011 0
M  V30 3929 H 381.485 -2.72042 -4.01399 0
M  V30 3930 N 382.828 1.3818 -0.7579 0
M  V30 3931 C 383.791 2.28764 -0.141286 0
M  V30 3932 C 384.791 1.47388 0.642907 0
M  V30 3933 O 385.981 1.67781 0.468536 0
M  V30 3934 C 383.113 3.31184 0.808069 0
M  V30 3935 H 384.306 2.848 -0.939633 0
M  V30 3936 H 381.859 1.47212 -0.525191 0
M  V30 3937 H 382.594 2.80247 1.63193 0
M  V30 3938 H 382.379 3.91314 0.248104 0
M  V30 3939 H 383.869 3.98909 1.23536 0
M  V30 3940 N 384.306 0.507319 1.49211 0
M  V30 3941 C 385.238 -0.304532 2.27168 0
M  V30 3942 C 386.251 -0.924956 1.33972 0
M  V30 3943 O 387.44 -0.807227 1.59205 0
M  V30 3944 C 384.54 -1.44431 3.06583 0
M  V30 3945 C 383.713 -0.930026 4.27398 0
M  V30 3946 C 382.772 -1.94817 4.88807 0
M  V30 3947 O 381.798 -1.51418 5.4869 0
M  V30 3948 N 383 -3.279 4.79022 0
M  V30 3949 H 385.765 0.36395 2.97482 0
M  V30 3950 H 383.326 0.340249 1.58284 0
M  V30 3951 H 385.318 -2.12311 3.44537 0
M  V30 3952 H 383.888 -2.01684 2.38835 0
M  V30 3953 H 383.108 -0.0759244 3.94127 0
M  V30 3954 H 384.396 -0.564932 5.05654 0
M  V30 3955 H 383.794 -3.65843 4.3148 0
M  V30 3956 H 382.351 -3.91476 5.21142 0
M  V30 3957 N 385.784 -1.5574 0.241426 0
M  V30 3958 C 386.731 -2.21149 -0.660432 0
M  V30 3959 C 387.701 -1.17356 -1.17545 0
M  V30 3960 O 388.886 -1.45784 -1.23093 0
M  V30 3961 C 386.026 -2.91059 -1.85414 0
M  V30 3962 C 385.139 -4.09495 -1.37616 0
M  V30 3963 C 384.274 -4.67135 -2.529 0
M  V30 3964 C 383.313 -5.77831 -2.01936 0
M  V30 3965 N 382.45 -6.29677 -3.10566 0
M  V30 3966 H 387.29 -2.97845 -0.095955 0
M  V30 3967 H 384.827 -1.47057 -0.0356024 0
M  V30 3968 H 386.785 -3.29788 -2.5553 0
M  V30 3969 H 385.415 -2.16846 -2.39118 0
M  V30 3970 H 384.467 -3.76117 -0.569235 0
M  V30 3971 H 385.779 -4.89423 -0.962618 0
M  V30 3972 H 384.933 -5.08409 -3.31067 0
M  V30 3973 H 383.672 -3.86411 -2.97553 0
M  V30 3974 H 382.677 -5.36039 -1.22238 0
M  V30 3975 H 383.902 -6.60402 -1.58259 0
M  V30 3976 H 381.848 -5.5186 -3.54664 0
M  V30 3977 H 381.765 -7.04783 -2.73526 0
M  V30 3978 H 383.033 -6.75609 -3.88809 0
M  V30 3979 N 387.262 0.0317525 -1.57568 0
M  V30 3980 C 388.209 1.0332 -2.06382 0
M  V30 3981 C 389.179 1.36082 -0.952414 0
M  V30 3982 O 390.364 1.46466 -1.2228 0
M  V30 3983 C 387.504 2.32989 -2.54578 0
M  V30 3984 C 386.617 2.0641 -3.79498 0
M  V30 3985 C 385.752 3.2993 -4.16317 0
M  V30 3986 C 384.791 2.98893 -5.34162 0
M  V30 3987 N 383.928 4.14857 -5.66426 0
M  V30 3988 H 388.768 0.609982 -2.9169 0
M  V30 3989 H 386.305 0.289573 -1.44222 0
M  V30 3990 H 388.263 3.0875 -2.80587 0
M  V30 3991 H 386.893 2.73039 -1.7219 0
M  V30 3992 H 385.945 1.21158 -3.6059 0
M  V30 3993 H 387.257 1.79513 -4.65378 0
M  V30 3994 H 386.411 4.1406 -4.4344 0
M  V30 3995 H 385.15 3.59938 -3.29083 0
M  V30 3996 H 384.155 2.13164 -5.06795 0
M  V30 3997 H 385.38 2.70165 -6.23047 0
M  V30 3998 H 383.326 4.44821 -4.82151 0
M  V30 3999 H 383.243 3.91374 -6.4681 0
M  V30 4000 H 384.511 4.99868 -5.98124 0
M  V30 4001 N 388.74 1.54641 0.303973 0
M  V30 4002 C 389.687 1.85386 1.37479 0
M  V30 4003 C 390.657 0.702528 1.50512 0
M  V30 4004 O 391.842 0.950867 1.65418 0
M  V30 4005 C 388.982 2.10413 2.73533 0
M  V30 4006 C 388.095 3.38049 2.68974 0
M  V30 4007 C 387.23 3.52934 3.97002 0
M  V30 4008 C 386.269 4.74373 3.86829 0
M  V30 4009 N 385.406 4.8608 5.06627 0
M  V30 4010 H 390.246 2.76732 1.1056 0
M  V30 4011 H 387.783 1.37034 0.534805 0
M  V30 4012 H 389.741 2.22919 3.52652 0
M  V30 4013 H 388.371 1.22338 2.98719 0
M  V30 4014 H 387.423 3.3418 1.81736 0
M  V30 4015 H 388.735 4.27288 2.57346 0
M  V30 4016 H 387.889 3.65088 4.84557 0
M  V30 4017 H 386.628 2.61824 4.1146 0
M  V30 4018 H 385.633 4.62255 2.97658 0
M  V30 4019 H 386.858 5.66888 3.73918 0
M  V30 4020 H 384.804 3.97891 5.21554 0
M  V30 4021 H 384.721 5.69315 4.9741 0
M  V30 4022 H 385.989 5.02587 5.95841 0
M  V30 4023 N 390.218 -0.567019 1.47046 0
M  V30 4024 C 391.464 -1.32658 1.53394 0
M  V30 4025 C 391.797 -1.93254 0.19148 0
M  V30 4026 O 391.072 -1.77338 -0.798844 0
M  V30 4027 C 391.355 -2.44412 2.64452 0
M  V30 4028 C 391.208 -1.88749 4.08282 0
M  V30 4029 C 392.527 -3.46387 2.71485 0
M  V30 4030 H 389.646 -0.48098 0.558415 0
M  V30 4031 H 392.288 -0.635481 1.79058 0
M  V30 4032 H 390.438 -3.03363 2.427 0
M  V30 4033 H 392.11 -1.34134 4.41368 0
M  V30 4034 H 390.353 -1.19481 4.17021 0
M  V30 4035 H 391.024 -2.69491 4.81745 0
M  V30 4036 H 393.5 -2.9734 2.91081 0
M  V30 4037 H 392.376 -4.2202 3.50985 0
M  V30 4038 H 392.637 -4.04616 1.78153 0
M  V30 4039 N 391.696 -1.35014 -0.812953 0
M  V30 4040 C 392.629 -1.21761 -1.93001 0
M  V30 4041 C 393.607 -0.10694 -1.62248 0
M  V30 4042 O 394.791 -0.273891 -1.865 0
M  V30 4043 C 391.918 -0.873404 -3.27245 0
M  V30 4044 C 390.964 -1.99523 -3.76952 0
M  V30 4045 S 391.797 -3.61009 -3.95516 0
M  V30 4046 C 392.953 -3.28651 -5.32672 0
M  V30 4047 H 393.186 -2.16315 -2.03948 0
M  V30 4048 H 390.719 -1.20156 -0.969631 0
M  V30 4049 H 392.677 -0.68161 -4.04802 0
M  V30 4050 H 391.338 0.053971 -3.14054 0
M  V30 4051 H 390.531 -1.70838 -4.74163 0
M  V30 4052 H 390.133 -2.14503 -3.06373 0
M  V30 4053 H 392.425 -2.81085 -6.1644 0
M  V30 4054 H 393.368 -4.25039 -5.66346 0
M  V30 4055 H 393.776 -2.6458 -4.98656 0
M  V30 4056 N 393.175 1.03435 -1.18907 0
M  V30 4057 C 394.423 1.76394 -0.986382 0
M  V30 4058 C 394.744 1.88883 0.484567 0
M  V30 4059 O 394.014 1.41843 1.3512 0
M  V30 4060 H 392.594 0.65344 -0.361975 0
M  V30 4061 H 395.256 1.248 -1.49703 0
M  V30 4062 H 394.352 2.77424 -1.42978 0
M  V30 4063 N 394.653 0.992116 1.22453 0
M  V30 4064 C 395.9 0.667534 1.91181 0
M  V30 4065 C 396.228 -0.800317 1.77271 0
M  V30 4066 O 395.483 -1.59421 1.13505 0
M  V30 4067 C 395.782 1.01832 3.42586 0
M  V30 4068 C 395.448 2.47831 3.76684 0
M  V30 4069 C 394.11 2.87729 3.85701 0
M  V30 4070 C 396.462 3.42466 3.92895 0
M  V30 4071 C 393.79 4.21252 4.08367 0
M  V30 4072 C 396.142 4.75648 4.17064 0
M  V30 4073 C 394.806 5.15288 4.24305 0
M  V30 4074 H 394.076 0.244268 0.699581 0
M  V30 4075 H 396.723 1.24816 1.45235 0
M  V30 4076 H 395.028 0.355769 3.90181 0
M  V30 4077 H 396.725 0.745228 3.94014 0
M  V30 4078 H 393.315 2.15905 3.70247 0
M  V30 4079 H 397.499 3.12814 3.85307 0
M  V30 4080 H 392.755 4.51554 4.122 0
M  V30 4081 H 396.929 5.48924 4.2855 0
M  V30 4082 H 394.556 6.18769 4.41621 0
M  V30 4083 N 396.131 -1.37776 0.765217 0
M  V30 4084 C 397.379 -1.99454 0.325943 0
M  V30 4085 C 397.7 -1.61049 -1.09947 0
M  V30 4086 O 396.97 -0.872821 -1.75381 0
M  V30 4087 H 395.55 -0.737697 0.117525 0
M  V30 4088 H 398.212 -1.68359 0.981895 0
M  V30 4089 H 397.308 -3.09547 0.398353 0
M  V30 4090 N 397.609 -0.515225 -1.4894 0
M  V30 4091 C 398.559 0.275113 -2.26334 0
M  V30 4092 C 399.543 0.923007 -1.31793 0
M  V30 4093 O 400.735 0.828254 -1.56426 0
M  V30 4094 C 397.864 1.33041 -3.16473 0
M  V30 4095 C 396.95 0.688051 -4.18481 0
M  V30 4096 N 397.341 -0.217638 -5.05332 0
M  V30 4097 C 395.639 0.94699 -4.3583 0
M  V30 4098 C 396.34 -0.58676 -5.78733 0
M  V30 4099 N 395.316 0.0486966 -5.43578 0
M  V30 4100 H 399.118 -0.421876 -2.90856 0
M  V30 4101 H 396.632 -0.332249 -1.58965 0
M  V30 4102 H 398.629 1.9102 -3.70563 0
M  V30 4103 H 397.289 2.02894 -2.53504 0
M  V30 4104 H 398.3 -0.589343 -5.14536 0
M  V30 4105 H 394.977 1.63719 -3.8406 0
M  V30 4106 H 396.367 -1.32855 -6.58634 0
M  V30 4107 N 399.087 1.5561 -0.249682 0
M  V30 4108 C 400.503 1.59254 0.105103 0
M  V30 4109 C 400.703 1.26685 1.56694 0
M  V30 4110 O 399.759 1.0155 2.31179 0
M  V30 4111 C 401.072 2.99687 -0.246592 0
M  V30 4112 C 402.62 3.12416 -0.191118 0
M  V30 4113 C 403.095 4.55074 -0.516885 0
M  V30 4114 N 404.586 4.60835 -0.467489 0
M  V30 4115 C 405.321 5.69201 -0.69268 0
M  V30 4116 N 404.817 6.85817 -0.981146 0
M  V30 4117 N 406.61 5.58635 -0.623198 0
M  V30 4118 H 398.761 1.75049 -1.20298 0
M  V30 4119 H 401.024 0.815003 -0.484225 0
M  V30 4120 H 400.73 3.28267 -1.26228 0
M  V30 4121 H 400.604 3.74798 0.424962 0
M  V30 4122 H 402.991 2.83615 0.815247 0
M  V30 4123 H 403.072 2.39573 -0.896563 0
M  V30 4124 H 402.716 4.84596 -1.52082 0
M  V30 4125 H 402.646 5.26181 0.210068 0
M  V30 4126 H 405.137 3.7705 -0.253373 0
M  V30 4127 H 405.45 7.64341 -1.14032 0
M  V30 4128 H 403.795 6.87494 -1.01865 0
M  V30 4129 H 406.986 4.66406 -0.397863 0
M  V30 4130 H 407.159 6.43017 -0.802093 0
M  V30 4131 N 400.565 -0.0233959 1.57583 0
M  V30 4132 C 401.811 -0.714119 1.89811 0
M  V30 4133 C 402.144 -1.74702 0.848113 0
M  V30 4134 O 401.419 -1.94023 -0.136135 0
M  V30 4135 C 401.702 -1.37853 3.32669 0
M  V30 4136 C 401.555 -0.358764 4.48367 0
M  V30 4137 C 402.874 -2.31101 3.7454 0
M  V30 4138 H 399.993 -0.25814 0.690314 0
M  V30 4139 H 402.635 0.0230927 1.89986 0
M  V30 4140 H 400.785 -2.00689 3.3265 0
M  V30 4141 H 402.457 0.268115 4.6052 0
M  V30 4142 H 400.7 0.321387 4.32608 0
M  V30 4143 H 401.371 -0.862242 5.45224 0
M  V30 4144 H 403.847 -1.78304 3.75961 0
M  V30 4145 H 402.723 -2.74567 4.75294 0
M  V30 4146 H 402.984 -3.18018 3.0711 0
M  V30 4147 N 402.043 -1.548 -0.295768 0
M  V30 4148 C 403.273 -1.78069 -1.04762 0
M  V30 4149 C 403.681 -0.542847 -1.81245 0
M  V30 4150 O 403.024 0.497051 -1.76848 0
M  V30 4151 C 403.086 -2.93881 -2.07061 0
M  V30 4152 C 402.75 -4.31777 -1.49725 0
M  V30 4153 C 403.747 -5.11613 -0.924581 0
M  V30 4154 C 401.432 -4.78389 -1.5313 0
M  V30 4155 C 403.426 -6.36184 -0.393594 0
M  V30 4156 C 401.113 -6.02921 -0.996447 0
M  V30 4157 C 402.111 -6.81654 -0.428569 0
M  V30 4158 O 401.799 -8.0384 0.0981593 0
M  V30 4159 H 401.531 -0.597475 -0.316226 0
M  V30 4160 H 404.085 -2.02584 -0.338973 0
M  V30 4161 H 402.315 -2.65003 -2.81621 0
M  V30 4162 H 404.004 -3.04679 -2.6819 0
M  V30 4163 H 404.77 -4.76743 -0.891136 0
M  V30 4164 H 400.649 -4.17132 -1.9627 0
M  V30 4165 H 404.193 -6.97582 0.0503014 0
M  V30 4166 H 400.09 -6.37277 -1.02706 0
M  V30 4167 H 400.858 -8.18499 -0.0146455 0
M  V30 4168 N 403.521 0.559213 -1.47345 0
M  V30 4169 C 404.468 1.66645 -1.59682 0
M  V30 4170 C 405.438 1.60168 -0.43994 0
M  V30 4171 O 406.623 1.79031 -0.659736 0
M  V30 4172 C 403.763 3.04969 -1.61518 0
M  V30 4173 C 402.876 3.21897 -2.88108 0
M  V30 4174 C 402.011 4.50608 -2.81294 0
M  V30 4175 C 401.05 4.60961 -4.02717 0
M  V30 4176 N 400.187 5.81024 -3.94151 0
M  V30 4177 H 405.027 1.55439 -2.54249 0
M  V30 4178 H 402.564 0.757219 -1.26113 0
M  V30 4179 H 404.522 3.85064 -1.60566 0
M  V30 4180 H 403.152 3.15015 -0.704645 0
M  V30 4181 H 402.204 2.35248 -2.98936 0
M  V30 4182 H 403.516 3.25412 -3.78032 0
M  V30 4183 H 402.67 5.3896 -2.7858 0
M  V30 4184 H 401.409 4.49568 -1.89049 0
M  V30 4185 H 400.414 3.71021 -4.05738 0
M  V30 4186 H 401.639 4.63761 -4.96087 0
M  V30 4187 H 399.585 5.80938 -3.04708 0
M  V30 4188 H 399.502 5.85909 -4.77752 0
M  V30 4189 H 400.77 6.71744 -3.9545 0
M  V30 4190 N 404.999 1.35443 0.805782 0
M  V30 4191 C 405.947 1.28465 1.93906 0
M  V30 4192 C 406.941 0.17943 1.68447 0
M  V30 4193 O 408.147 0.345459 1.76654 0
M  V30 4194 H 404.522 0.399528 0.637088 0
M  V30 4195 H 406.493 2.24206 1.96912 0
M  V30 4196 C 405.242 1.07432 3.30687 0
M  V30 4197 H 404.565 1.91716 3.50835 0
M  V30 4198 H 406.005 1.06591 4.10383 0
M  V30 4199 C 404.464 -0.22179 3.36169 0
M  V30 4200 O 404.994 -1.21731 3.82811 0
M  V30 4201 N 403.2 -0.260841 2.89427 0
M  V30 4202 H 402.747 0.549884 2.51663 0
M  V30 4203 H 402.705 -1.12777 2.93477 0
M  V30 4204 N 406.477 -1.02803 1.19454 0
M  V30 4205 C 407.725 -1.75869 0.995722 0
M  V30 4206 C 408.046 -1.89138 -0.474543 0
M  V30 4207 O 407.316 -1.42558 -1.34366 0
M  V30 4208 H 405.896 -0.651511 0.365435 0
M  V30 4209 H 408.558 -1.24004 1.50363 0
M  V30 4210 H 407.654 -2.76661 1.44447 0
M  V30 4211 N 407.956 -0.998596 -1.21925 0
M  V30 4212 C 409.233 -0.593401 -1.86382 0
M  V30 4213 C 409.613 0.92916 -1.89552 0
M  V30 4214 O 408.961 1.81347 -1.39017 0
M  V30 4215 C 409.171 -1.22039 -3.26967 0
M  V30 4216 C 410.519 -1.32449 -4.03413 0
M  V30 4217 O 411.543 -1.17522 -3.36254 0
M  V30 4218 O 410.402 -1.56395 -5.23644 0
M  V30 4219 H 407.496 -0.202385 -0.801854 0
M  V30 4220 H 410.042 -1.09484 -1.29659 0
M  V30 4221 H 408.814 -2.26158 -3.19325 0
M  V30 4222 H 408.437 -0.704906 -3.91301 0
M  V30 4223 N 409.434 1.37368 -0.772513 0
M  V30 4224 C 410.659 2.0447 -0.347386 0
M  V30 4225 C 411.084 1.57882 1.0225 0
M  V30 4226 O 410.442 0.73941 1.65537 0
M  V30 4227 C 410.49 3.58369 -0.400479 0
M  V30 4228 O 409.594 4.0803 0.598789 0
M  V30 4229 H 408.935 0.646773 -0.15027 0
M  V30 4230 H 411.465 1.75667 -1.04892 0
M  V30 4231 H 411.475 4.07183 -0.258045 0
M  V30 4232 H 410.15 3.91633 -1.39986 0
M  V30 4233 H 408.727 3.70534 0.419411 0
M  V30 4234 N 410.912 0.523116 1.48665 0
M  V30 4235 C 412.328 0.180511 1.58576 0
M  V30 4236 C 412.528 -1.31597 1.52592 0
M  V30 4237 O 411.584 -2.0937 1.4114 0
M  V30 4238 C 412.897 0.776949 2.90489 0
M  V30 4239 C 414.445 0.745058 3.04003 0
M  V30 4240 C 414.92 1.31995 4.38567 0
M  V30 4241 N 416.411 1.28162 4.45117 0
M  V30 4242 C 417.146 1.6964 5.47731 0
M  V30 4243 N 416.642 2.18816 6.57337 0
M  V30 4244 N 418.435 1.6092 5.38573 0
M  V30 4245 H 410.586 1.4958 1.50797 0
M  V30 4246 H 412.849 0.621772 0.715614 0
M  V30 4247 H 412.555 1.82732 3.00503 0
M  V30 4248 H 412.429 0.25007 3.7637 0
M  V30 4249 H 414.816 -0.296532 2.93606 0
M  V30 4250 H 414.897 1.30933 2.1975 0
M  V30 4251 H 414.541 2.36043 4.49718 0
M  V30 4252 H 414.471 0.731418 5.21496 0
M  V30 4253 H 416.962 0.92155 3.66491 0
M  V30 4254 H 417.275 2.48478 7.31764 0
M  V30 4255 H 415.62 2.22805 6.58318 0
M  V30 4256 H 418.811 1.22304 4.5184 0
M  V30 4257 H 418.984 1.93567 6.18414 0
M  V30 4258 N 412.39 -1.55475 0.257931 0
M  V30 4259 C 413.636 -1.99502 -0.364266 0
M  V30 4260 C 413.969 -1.146 -1.56782 0
M  V30 4261 O 413.244 -0.211968 -1.93342 0
M  V30 4262 C 413.527 -3.51917 -0.763333 0
M  V30 4263 C 413.38 -4.4758 0.446371 0
M  V30 4264 C 414.699 -4.09742 -1.60623 0
M  V30 4265 H 411.818 -0.725277 -0.130929 0
M  V30 4266 H 414.46 -1.8653 0.361446 0
M  V30 4267 H 412.61 -3.63101 -1.38166 0
M  V30 4268 H 414.282 -4.48362 1.08487 0
M  V30 4269 H 412.525 -4.19947 1.08753 0
M  V30 4270 H 413.196 -5.51862 0.123645 0
M  V30 4271 H 415.672 -4.01727 -1.08418 0
M  V30 4272 H 414.548 -5.16631 -1.85429 0
M  V30 4273 H 414.809 -3.58889 -2.58169 0
M  V30 4274 N 413.868 0.0150385 -1.57593 0
M  V30 4275 C 415.279 0.559832 -1.78109 0
M  V30 4276 C 415.63 1.74814 -0.890756 0
M  V30 4277 O 414.755 2.16216 -0.0892482 0
M  V30 4278 C 415.35 1.02238 -3.23006 0
M  V30 4279 C 413.909 1.51258 -3.44671 0
M  V30 4280 C 413.056 0.456955 -2.73509 0
M  V30 4281 H 416.007 -0.211169 -1.57289 0
M  V30 4282 H 416.028 1.88912 -3.30292 0
M  V30 4283 H 415.54 0.157302 -3.87781 0
M  V30 4284 H 413.641 2.39905 -2.8509 0
M  V30 4285 H 413.754 1.55042 -4.5332 0
M  V30 4286 H 412.118 0.915196 -2.37689 0
M  V30 4287 H 412.901 -0.398896 -3.40975 0
M  V30 4288 N 415.346 1.54954 0.287554 0
M  V30 4289 C 416.574 1.78881 1.03967 0
M  V30 4290 C 416.989 0.554894 1.80462 0
M  V30 4291 O 416.346 -0.475676 1.76192 0
M  V30 4292 C 416.397 3.00488 2.0097 0
M  V30 4293 O 416.118 4.19113 1.27577 0
M  V30 4294 C 417.619 3.36907 2.88112 0
M  V30 4295 H 414.839 0.596259 0.307761 0
M  V30 4296 H 417.383 2.01937 0.322749 0
M  V30 4297 H 415.538 2.79601 2.68145 0
M  V30 4298 H 415.952 4.87765 1.92835 0
M  V30 4299 H 417.426 4.25205 3.52001 0
M  V30 4300 H 417.903 2.55659 3.57121 0
M  V30 4301 H 418.509 3.60001 2.26449 0
M  V30 4302 N 416.824 -0.551391 1.4764 0
M  V30 4303 C 417.757 -1.6738 1.5511 0
M  V30 4304 C 418.735 -1.5753 0.402856 0
M  V30 4305 O 419.919 -1.78307 0.611475 0
M  V30 4306 C 417.046 -3.05661 1.45908 0
M  V30 4307 C 416.092 -3.33938 2.65307 0
M  V30 4308 S 416.925 -3.22553 4.27457 0
M  V30 4309 C 418.081 -4.63317 4.20818 0
M  V30 4310 H 418.314 -1.6079 2.50068 0
M  V30 4311 H 415.847 -0.732674 1.35909 0
M  V30 4312 H 417.805 -3.8542 1.41286 0
M  V30 4313 H 416.466 -3.09711 0.523248 0
M  V30 4314 H 415.659 -4.34761 2.54948 0
M  V30 4315 H 415.261 -2.61809 2.67081 0
M  V30 4316 H 417.553 -5.54391 3.89431 0
M  V30 4317 H 418.496 -4.78732 5.21748 0
M  V30 4318 H 418.904 -4.41636 3.51593 0
M  V30 4319 N 418.302 -1.35869 -0.798587 0
M  V30 4320 C 419.249 -1.29446 -1.91082 0
M  V30 4321 C 420.219 -0.16487 -1.6528 0
M  V30 4322 O 421.404 -0.349888 -1.87564 0
M  V30 4323 C 418.544 -1.0804 -3.27752 0
M  V30 4324 C 417.657 -2.29993 -3.65687 0
M  V30 4325 C 416.792 -2.01673 -4.91428 0
M  V30 4326 C 415.831 -3.19636 -5.22015 0
M  V30 4327 N 414.968 -2.91039 -6.38937 0
M  V30 4328 H 419.808 -2.24553 -1.95907 0
M  V30 4329 H 417.345 -1.11615 -0.958148 0
M  V30 4330 H 419.303 -0.936586 -4.06551 0
M  V30 4331 H 417.933 -0.16592 -3.22373 0
M  V30 4332 H 416.985 -2.55211 -2.82085 0
M  V30 4333 H 418.297 -3.18052 -3.84245 0
M  V30 4334 H 417.451 -1.84168 -5.78072 0
M  V30 4335 H 416.19 -1.10911 -4.74921 0
M  V30 4336 H 415.195 -3.37709 -4.33858 0
M  V30 4337 H 416.42 -4.11211 -5.40447 0
M  V30 4338 H 414.366 -2.0288 -6.2384 0
M  V30 4339 H 414.283 -3.72635 -6.57784 0
M  V30 4340 H 415.551 -2.77093 -7.28587 0
M  V30 4341 N 419.78 1.02168 -1.19998 0
M  V30 4342 C 421.005 1.79833 -1.03319 0
M  V30 4343 C 421.43 1.83504 0.413281 0
M  V30 4344 O 420.788 1.26635 1.29743 0
M  V30 4345 C 420.836 3.22396 -1.61533 0
M  V30 4346 O 419.94 4.03555 -0.849519 0
M  V30 4347 H 419.281 0.554872 -0.364709 0
M  V30 4348 H 421.811 1.28542 -1.59179 0
M  V30 4349 H 421.821 3.73124 -1.65054 0
M  V30 4350 H 420.496 3.19039 -2.66809 0
M  V30 4351 H 419.073 3.62169 -0.888129 0
M  V30 4352 N 421.258 1.00505 1.21394 0
M  V30 4353 C 422.221 0.570459 2.21987 0
M  V30 4354 C 423.221 -0.353211 1.56873 0
M  V30 4355 O 424.411 -0.14349 1.73608 0
M  V30 4356 C 421.543 -0.168555 3.40483 0
M  V30 4357 H 422.736 1.46021 2.6195 0
M  V30 4358 H 420.289 0.793565 1.34656 0
M  V30 4359 H 421.024 -1.07374 3.06009 0
M  V30 4360 H 420.809 0.494823 3.88965 0
M  V30 4361 H 422.299 -0.460362 4.15055 0
M  V30 4362 N 422.737 -1.36956 0.779787 0
M  V30 4363 C 423.667 -2.32761 0.185651 0
M  V30 4364 C 424.648 -1.56177 -0.673989 0
M  V30 4365 O 425.833 -1.84378 -0.609797 0
M  V30 4366 C 422.963 -3.40418 -0.687964 0
M  V30 4367 C 421.917 -4.27941 0.0710102 0
M  V30 4368 C 421.243 -5.26681 -0.922573 0
M  V30 4369 C 422.543 -5.07006 1.25467 0
M  V30 4370 H 424.237 -2.82698 0.986008 0
M  V30 4371 H 421.783 -1.3592 0.475592 0
M  V30 4372 H 423.736 -4.06423 -1.11348 0
M  V30 4373 H 422.46 -2.89025 -1.52093 0
M  V30 4374 H 421.119 -3.63478 0.47739 0
M  V30 4375 H 420.767 -4.71565 -1.7503 0
M  V30 4376 H 420.467 -5.86103 -0.419237 0
M  V30 4377 H 421.991 -5.9556 -1.34686 0
M  V30 4378 H 423.405 -5.66105 0.905401 0
M  V30 4379 H 421.802 -5.75793 1.69063 0
M  V30 4380 H 422.872 -4.3921 2.05481 0
M  V30 4381 N 424.215 -0.530993 -1.48385 0
M  V30 4382 C 425.492 0.0671788 -1.95485 0
M  V30 4383 C 425.872 1.51191 -1.47324 0
M  V30 4384 O 425.22 2.17507 -0.700202 0
M  V30 4385 C 425.43 -0.0511206 -3.48963 0
M  V30 4386 C 426.778 0.107632 -4.24464 0
M  V30 4387 O 427.802 0.0226248 -3.56193 0
M  V30 4388 O 426.661 0.285972 -5.45751 0
M  V30 4389 H 423.755 0.0787365 -0.823243 0
M  V30 4390 H 426.301 -0.595662 -1.58902 0
M  V30 4391 H 425.073 -1.05747 -3.7674 0
M  V30 4392 H 424.696 0.650525 -3.92242 0
M  V30 4393 N 425.693 1.55336 -0.266172 0
M  V30 4394 C 426.656 2.20878 0.612001 0
M  V30 4395 C 427.656 1.18388 1.08816 0
M  V30 4396 O 428.846 1.4335 0.989774 0
M  V30 4397 C 425.978 2.86765 1.84332 0
M  V30 4398 H 427.171 2.99873 0.0398718 0
M  V30 4399 H 424.724 1.56291 -0.0167309 0
M  V30 4400 H 425.459 2.11759 2.45619 0
M  V30 4401 H 425.244 3.61862 1.5099 0
M  V30 4402 H 426.734 3.36867 2.46801 0
M  V30 4403 N 427.171 -0.0066808 1.57599 0
M  V30 4404 C 428.104 -1.03397 2.03431 0
M  V30 4405 C 429.082 -1.33872 0.922877 0
M  V30 4406 O 430.266 -1.4615 1.19048 0
M  V30 4407 C 427.393 -2.36325 2.42628 0
M  V30 4408 C 426.439 -2.21557 3.64438 0
M  V30 4409 S 427.272 -1.54789 5.12641 0
M  V30 4410 C 428.428 -2.8916 5.55101 0
M  V30 4411 H 428.661 -0.643687 2.90248 0
M  V30 4412 H 426.194 -0.217349 1.52863 0
M  V30 4413 H 428.152 -3.12759 2.65879 0
M  V30 4414 H 426.813 -2.72495 1.56222 0
M  V30 4415 H 426.006 -3.1974 3.89592 0
M  V30 4416 H 425.608 -1.53267 3.41153 0
M  V30 4417 H 427.9 -3.8547 5.57153 0
M  V30 4418 H 428.843 -2.68713 6.55133 0
M  V30 4419 H 429.251 -2.92762 4.82649 0
M  V30 4420 N 428.649 -1.55105 -0.279332 0
M  V30 4421 C 429.898 -1.74618 -1.00952 0
M  V30 4422 C 430.211 -0.551096 -1.87676 0
M  V30 4423 O 431.417 -0.628507 -2.64125 0
M  V30 4424 C 429.873 -3.09025 -1.84476 0
M  V30 4425 C 429.481 -4.36081 -1.0265 0
M  V30 4426 C 431.225 -3.37891 -2.56963 0
M  V30 4427 C 429.132 -5.6153 -1.85576 0
M  V30 4428 H 428.062 -0.650868 -0.38064 0
M  V30 4429 H 430.713 -1.81569 -0.265475 0
M  V30 4430 H 429.095 -2.96095 -2.62952 0
M  V30 4431 H 430.269 -4.59909 -0.286354 0
M  V30 4432 H 428.584 -4.14312 -0.416464 0
M  V30 4433 H 431.181 -4.28822 -3.19399 0
M  V30 4434 H 431.524 -2.57737 -3.26921 0
M  V30 4435 H 432.057 -3.5189 -1.85522 0
M  V30 4436 H 428.796 -6.44413 -1.2005 0
M  V30 4437 H 428.316 -5.41854 -2.57204 0
M  V30 4438 H 429.995 -5.99594 -2.43096 0
M  V30 4439 N 430.127 0.543554 -1.4793 0
M  V30 4440 C 431.074 1.64942 -1.6144 0
M  V30 4441 C 432.044 1.59692 -0.456903 0
M  V30 4442 O 433.229 1.78321 -0.678688 0
M  V30 4443 C 430.369 3.03238 -1.64744 0
M  V30 4444 C 429.482 3.18823 -2.91506 0
M  V30 4445 C 428.617 4.47599 -2.86057 0
M  V30 4446 C 427.656 4.56664 -4.07584 0
M  V30 4447 N 426.793 5.76811 -4.00292 0
M  V30 4448 H 431.633 1.52733 -2.55884 0
M  V30 4449 H 429.17 0.7438 -1.2691 0
M  V30 4450 H 431.128 3.83339 -1.64641 0
M  V30 4451 H 429.758 3.1425 -0.738017 0
M  V30 4452 H 428.81 2.32064 -3.01414 0
M  V30 4453 H 430.122 3.21384 -3.81463 0
M  V30 4454 H 429.276 5.35975 -2.84281 0
M  V30 4455 H 428.015 4.47538 -1.93807 0
M  V30 4456 H 427.02 3.66697 -4.09651 0
M  V30 4457 H 428.245 4.58474 -5.00978 0
M  V30 4458 H 426.191 5.77673 -3.10853 0
M  V30 4459 H 426.108 5.80808 -4.8394 0
M  V30 4460 H 427.376 6.67512 -4.02553 0
M  V30 4461 N 431.605 1.3629 0.791371 0
M  V30 4462 C 432.555 1.26988 1.89362 0
M  V30 4463 C 433.539 0.161795 1.60084 0
M  V30 4464 O 434.731 0.394426 1.72549 0
M  V30 4465 C 431.86 1.05944 3.26544 0
M  V30 4466 C 430.946 2.21211 3.61838 0
M  V30 4467 N 431.337 3.46518 3.68455 0
M  V30 4468 C 429.635 2.12933 3.91887 0
M  V30 4469 C 430.336 4.2241 3.99931 0
M  V30 4470 N 429.312 3.51329 4.14812 0
M  V30 4471 H 433.114 2.21908 1.92702 0
M  V30 4472 H 430.628 1.28982 0.986787 0
M  V30 4473 H 432.625 0.973666 4.05371 0
M  V30 4474 H 431.285 0.119223 3.24481 0
M  V30 4475 H 432.296 3.80677 3.51148 0
M  V30 4476 H 428.973 1.26855 3.97761 0
M  V30 4477 H 430.363 5.30767 4.1199 0
M  V30 4478 N 433.083 -1.0153 1.20538 0
M  V30 4479 C 434.313 -1.78487 1.04048 0
M  V30 4480 C 434.721 -1.84631 -0.413292 0
M  V30 4481 O 434.064 -1.29919 -1.29872 0
M  V30 4482 C 434.126 -3.24367 1.55003 0
M  V30 4483 C 433.79 -3.41827 3.0332 0
M  V30 4484 C 434.787 -3.30941 4.00966 0
M  V30 4485 C 432.472 -3.67602 3.42307 0
M  V30 4486 C 434.466 -3.45577 5.35589 0
M  V30 4487 C 432.153 -3.81881 4.77085 0
M  V30 4488 C 433.151 -3.70874 5.73534 0
M  V30 4489 O 432.839 -3.84714 7.05868 0
M  V30 4490 H 432.571 -0.568108 0.366373 0
M  V30 4491 H 435.125 -1.28677 1.60098 0
M  V30 4492 H 433.355 -3.75266 0.933397 0
M  V30 4493 H 435.044 -3.82963 1.34514 0
M  V30 4494 H 435.81 -3.10964 3.72191 0
M  V30 4495 H 431.689 -3.75256 2.67776 0
M  V30 4496 H 435.233 -3.36902 6.10854 0
M  V30 4497 H 431.13 -4.01359 5.0555 0
M  V30 4498 H 431.898 -4.01724 7.13134 0
M  V30 4499 N 434.561 -1.01147 -1.20859 0
M  V30 4500 C 435.838 -0.613136 -1.85742 0
M  V30 4501 C 436.218 0.909004 -1.90526 0
M  V30 4502 O 435.566 1.79862 -1.40932 0
M  V30 4503 C 435.776 -1.255 -3.25654 0
M  V30 4504 C 437.124 -1.3672 -4.01986 0
M  V30 4505 O 438.148 -1.21082 -3.34989 0
M  V30 4506 O 437.007 -1.6194 -5.21956 0
M  V30 4507 H 434.101 -0.210878 -0.799662 0
M  V30 4508 H 436.647 -1.10853 -1.2849 0
M  V30 4509 H 435.419 -2.29532 -3.16908 0
M  V30 4510 H 435.042 -0.746369 -3.90532 0
M  V30 4511 N 436.039 1.36541 -0.78704 0
M  V30 4512 C 437.455 1.52571 -0.46844 0
M  V30 4513 C 437.655 1.7415 1.01361 0
M  V30 4514 O 436.711 1.77163 1.79915 0
M  V30 4515 C 438.024 2.71299 -1.29682 0
M  V30 4516 C 439.572 2.85169 -1.29027 0
M  V30 4517 C 440.047 4.06898 -2.10233 0
M  V30 4518 N 441.538 4.1404 -2.07666 0
M  V30 4519 C 442.273 5.07301 -2.67271 0
M  V30 4520 N 441.769 6.06021 -3.35724 0
M  V30 4521 N 443.562 4.99898 -2.57018 0
M  V30 4522 H 435.713 1.20788 -1.74711 0
M  V30 4523 H 437.976 0.589364 -0.742532 0
M  V30 4524 H 437.682 2.61868 -2.34773 0
M  V30 4525 H 437.556 3.6539 -0.936479 0
M  V30 4526 H 439.943 2.94062 -0.247284 0
M  V30 4527 H 440.024 1.91992 -1.69035 0
M  V30 4528 H 439.668 3.98766 -3.1456 0
M  V30 4529 H 439.598 4.99218 -1.67597 0
M  V30 4530 H 442.089 3.43357 -1.57843 0
M  V30 4531 H 442.402 6.73741 -3.78541 0
M  V30 4532 H 440.747 6.06253 -3.39826 0
M  V30 4533 H 443.938 4.21724 -2.03142 0
M  V30 4534 H 444.111 5.72392 -3.03761 0
M  V30 4535 N 437.518 0.538854 1.48102 0
M  V30 4536 C 438.929 0.100679 1.86428 0
M  V30 4537 C 439.28 -1.32447 1.44749 0
M  V30 4538 O 438.405 -1.99339 0.842199 0
M  V30 4539 C 439 0.175933 3.38343 0
M  V30 4540 C 437.559 -0.207098 3.7583 0
M  V30 4541 C 436.706 0.531741 2.72154 0
M  V30 4542 H 439.657 0.749614 1.3988 0
M  V30 4543 H 439.678 -0.610144 3.75576 0
M  V30 4544 H 439.19 1.21328 3.68648 0
M  V30 4545 H 437.291 -1.24626 3.5114 0
M  V30 4546 H 437.404 0.138687 4.78899 0
M  V30 4547 H 435.768 -0.0230462 2.5469 0
M  V30 4548 H 436.551 1.56989 3.05302 0
M  V30 4549 N 438.996 -1.55193 0.274407 0
M  V30 4550 C 439.906 -2.26164 -0.623473 0
M  V30 4551 C 440.922 -1.28729 -1.17068 0
M  V30 4552 O 442.098 -1.61663 -1.20112 0
M  V30 4553 C 439.163 -2.96833 -1.7914 0
M  V30 4554 C 438.224 -4.09745 -1.28093 0
M  V30 4555 C 437.457 -4.77034 -2.3932 0
M  V30 4556 O 437.68 -4.4353 -3.5866 0
M  V30 4557 O 436.614 -5.64996 -2.07516 0
M  V30 4558 H 440.44 -3.03661 -0.0485661 0
M  V30 4559 H 438.025 -1.49341 0.0418382 0
M  V30 4560 H 439.907 -3.41248 -2.4724 0
M  V30 4561 H 438.582 -2.22253 -2.35341 0
M  V30 4562 H 437.489 -3.69787 -0.566416 0
M  V30 4563 H 438.822 -4.86224 -0.764683 0
M  V30 4564 N 440.474 -0.00167713 -1.576 0
M  V30 4565 C 441.407 1.02317 -2.03977 0
M  V30 4566 C 442.385 1.33381 -0.929963 0
M  V30 4567 O 443.569 1.45517 -1.19822 0
M  V30 4568 C 440.696 2.35035 -2.43878 0
M  V30 4569 C 439.742 2.19621 -3.65607 0
M  V30 4570 S 440.575 1.52068 -5.13455 0
M  V30 4571 C 441.731 2.86212 -5.56627 0
M  V30 4572 H 441.964 0.628285 -2.90585 0
M  V30 4573 H 439.497 0.209239 -1.52976 0
M  V30 4574 H 441.455 3.11345 -2.67534 0
M  V30 4575 H 440.116 2.71663 -1.57665 0
M  V30 4576 H 439.309 3.1767 -3.91282 0
M  V30 4577 H 438.911 1.51455 -3.41961 0
M  V30 4578 H 441.203 3.82509 -5.59189 0
M  V30 4579 H 442.146 2.65235 -6.56549 0
M  V30 4580 H 442.554 2.90199 -4.84195 0
M  V30 4581 N 441.952 1.55251 0.271103 0
M  V30 4582 C 442.882 1.9127 1.33933 0
M  V30 4583 C 443.863 0.77478 1.5143 0
M  V30 4584 O 445.048 1.03307 1.64442 0
M  V30 4585 C 442.178 2.18627 2.69851 0
M  V30 4586 C 441.132 3.34442 2.67081 0
M  V30 4587 C 440.458 3.47284 4.06569 0
M  V30 4588 C 441.758 4.70784 2.26185 0
M  V30 4589 H 443.452 2.80744 1.04035 0
M  V30 4590 H 440.998 1.35077 0.499017 0
M  V30 4591 H 442.951 2.42413 3.44694 0
M  V30 4592 H 441.675 1.25955 3.01335 0
M  V30 4593 H 440.334 3.10627 1.94695 0
M  V30 4594 H 439.982 2.52074 4.35279 0
M  V30 4595 H 439.682 4.25152 4.0561 0
M  V30 4596 H 441.206 3.73363 4.83148 0
M  V30 4597 H 442.62 4.94102 2.90751 0
M  V30 4598 H 441.017 5.51582 2.36384 0
M  V30 4599 H 442.087 4.69478 1.21319 0
M  V30 4600 N 443.43 -0.535701 1.48216 0
M  V30 4601 C 444.678 -1.28928 1.55634 0
M  V30 4602 C 444.999 -1.93645 0.229514 0
M  V30 4603 O 444.269 -1.81038 -0.74846 0
M  V30 4604 H 442.849 -0.47884 0.573342 0
M  V30 4605 H 445.511 -0.623853 1.84646 0
M  V30 4606 H 444.607 -2.07157 2.33436 0
M  V30 4607 N 444.908 -1.36708 -0.784132 0
M  V30 4608 C 445.838 -1.34153 -1.91116 0
M  V30 4609 C 446.819 -0.212121 -1.68772 0
M  V30 4610 O 448.004 -0.410581 -1.8981 0
M  V30 4611 C 445.134 -1.13535 -3.28218 0
M  V30 4612 C 444.088 -2.23356 -3.65097 0
M  V30 4613 C 443.414 -1.87875 -5.00607 0
M  V30 4614 C 444.714 -3.65473 -3.73131 0
M  V30 4615 H 446.408 -2.28459 -1.93512 0
M  V30 4616 H 443.954 -1.09973 -0.929618 0
M  V30 4617 H 445.907 -1.10381 -4.06687 0
M  V30 4618 H 444.631 -0.156804 -3.26223 0
M  V30 4619 H 443.29 -2.25645 -2.88929 0
M  V30 4620 H 442.938 -0.885814 -4.95139 0
M  V30 4621 H 442.638 -2.61406 -5.26252 0
M  V30 4622 H 444.162 -1.86286 -5.81489 0
M  V30 4623 H 445.576 -3.65382 -4.41779 0
M  V30 4624 H 443.973 -4.37953 -4.10265 0
M  V30 4625 H 445.043 -3.99995 -2.74102 0
M  V30 4626 N 446.386 1.0089 -1.21074 0
M  V30 4627 C 447.616 1.77933 -1.04993 0
M  V30 4628 C 448.024 1.84847 0.403495 0
M  V30 4629 O 447.367 1.30606 1.29181 0
M  V30 4630 C 447.429 3.23541 -1.56722 0
M  V30 4631 C 447.093 3.40214 -3.05129 0
M  V30 4632 C 448.09 3.2881 -4.02716 0
M  V30 4633 C 445.775 3.65781 -3.44252 0
M  V30 4634 C 447.769 3.42732 -5.37414 0
M  V30 4635 C 445.456 3.79346 -4.79103 0
M  V30 4636 C 446.454 3.67827 -5.75493 0
M  V30 4637 O 446.142 3.80965 -7.07899 0
M  V30 4638 H 445.874 0.566157 -0.369381 0
M  V30 4639 H 448.428 1.27826 -1.60779 0
M  V30 4640 H 446.658 3.74766 -0.953285 0
M  V30 4641 H 448.347 3.82245 -1.36543 0
M  V30 4642 H 449.113 3.08986 -3.73835 0
M  V30 4643 H 444.992 3.73831 -2.69762 0
M  V30 4644 H 448.536 3.33658 -6.12632 0
M  V30 4645 H 444.433 3.98672 -5.07672 0
M  V30 4646 H 445.201 3.97937 -7.15254 0
M  V30 4647 N 447.864 1.01787 1.20321 0
M  V30 4648 C 448.812 0.58254 2.25187 0
M  V30 4649 C 449.806 -0.379359 1.65098 0
M  V30 4650 O 451.012 -0.249142 1.78267 0
M  V30 4651 H 447.387 0.170078 0.732514 0
M  V30 4652 H 449.358 1.47788 2.59232 0
M  V30 4653 C 448.107 -0.0620885 3.47645 0
M  V30 4654 H 447.43 0.669069 3.94162 0
M  V30 4655 H 448.87 -0.329784 4.22716 0
M  V30 4656 C 447.329 -1.3053 3.10586 0
M  V30 4657 O 447.859 -2.39848 3.22236 0
M  V30 4658 N 446.065 -1.18988 2.65123 0
M  V30 4659 H 445.612 -0.300341 2.55843 0
M  V30 4660 H 445.57 -2.02267 2.40698 0
M  V30 4661 N 449.342 -1.36122 0.79427 0
M  V30 4662 C 450.59 -1.98718 0.368177 0
M  V30 4663 C 450.911 -1.63345 -1.06506 0
M  V30 4664 O 450.181 -0.909825 -1.73491 0
M  V30 4665 H 448.761 -0.735038 0.133146 0
M  V30 4666 H 451.423 -1.66239 1.01739 0
M  V30 4667 H 450.519 -3.08633 0.463923 0
M  V30 4668 N 450.82 -0.546701 -1.47814 0
M  V30 4669 C 451.75 0.195317 -2.32682 0
M  V30 4670 C 452.731 0.918981 -1.43139 0
M  V30 4671 O 453.916 0.901501 -1.72008 0
M  V30 4672 C 451.046 1.23237 -3.247 0
M  V30 4673 C 450 0.625818 -4.234 0
M  V30 4674 C 449.326 1.76674 -5.04669 0
M  V30 4675 C 450.626 -0.413515 -5.2066 0
M  V30 4676 H 452.32 -0.513184 -2.94969 0
M  V30 4677 H 449.866 -0.248241 -1.41844 0
M  V30 4678 H 451.819 1.75955 -3.82907 0
M  V30 4679 H 450.543 1.97067 -2.60446 0
M  V30 4680 H 449.202 0.120023 -3.66403 0
M  V30 4681 H 448.85 2.49383 -4.36826 0
M  V30 4682 H 448.55 1.36673 -5.71484 0
M  V30 4683 H 450.074 2.29738 -5.65732 0
M  V30 4684 H 451.488 0.0272042 -5.73294 0
M  V30 4685 H 449.885 -0.731825 -5.95621 0
M  V30 4686 H 450.955 -1.31325 -4.66778 0
M  V30 4687 N 452.299 1.55045 -0.282633 0
M  V30 4688 C 453.209 2.26491 0.61147 0
M  V30 4689 C 454.225 1.29348 1.16384 0
M  V30 4690 O 455.401 1.62298 1.19253 0
M  V30 4691 C 452.466 2.97779 1.77563 0
M  V30 4692 C 451.527 4.10418 1.25919 0
M  V30 4693 C 450.76 4.78297 2.36786 0
M  V30 4694 O 450.983 4.45426 3.56303 0
M  V30 4695 O 449.917 5.66089 2.04517 0
M  V30 4696 H 453.743 3.03683 0.0324615 0
M  V30 4697 H 451.328 1.49317 -0.0497576 0
M  V30 4698 H 453.21 3.42554 2.45427 0
M  V30 4699 H 451.885 2.23498 2.34159 0
M  V30 4700 H 450.792 3.70082 0.546797 0
M  V30 4701 H 452.125 4.86622 0.738887 0
M  V30 4702 N 453.777 0.010035 1.57597 0
M  V30 4703 C 454.74 -0.963029 2.07986 0
M  V30 4704 C 455.74 -1.26619 0.991173 0
M  V30 4705 O 456.93 -1.2097 1.25347 0
M  V30 4706 C 454.062 -2.2851 2.52974 0
M  V30 4707 H 455.255 -0.526971 2.95234 0
M  V30 4708 H 452.808 -0.237639 1.54483 0
M  V30 4709 H 453.543 -2.76784 1.69 0
M  V30 4710 H 453.328 -2.07824 3.32493 0
M  V30 4711 H 454.818 -2.98294 2.9225 0
M  V30 4712 N 455.255 -1.55392 -0.262866 0
M  V30 4713 C 456.218 -1.88181 -1.30846 0
M  V30 4714 C 457.218 -0.757079 -1.41862 0
M  V30 4715 O 458.408 -1.02519 -1.40838 0
M  V30 4716 C 455.54 -2.09609 -2.68844 0
M  V30 4717 H 456.733 -2.81659 -1.02997 0
M  V30 4718 H 454.286 -1.48039 -0.501414 0
M  V30 4719 H 455.021 -1.18547 -3.01856 0
M  V30 4720 H 454.806 -2.91508 -2.62231 0
M  V30 4721 H 456.296 -2.36215 -3.44372 0
M  V30 4722 N 456.733 0.527833 -1.48498 0
M  V30 4723 C 457.666 1.64892 -1.57753 0
M  V30 4724 C 458.644 1.5687 -0.427867 0
M  V30 4725 O 459.828 1.77311 -0.639764 0
M  V30 4726 C 456.955 3.03301 -1.50752 0
M  V30 4727 C 456.001 3.29675 -2.70586 0
M  V30 4728 S 456.834 3.15712 -4.32535 0
M  V30 4729 C 457.99 4.56564 -4.28136 0
M  V30 4730 H 458.223 1.56792 -2.52594 0
M  V30 4731 H 455.756 0.710959 -1.37057 0
M  V30 4732 H 457.714 3.83123 -1.474 0
M  V30 4733 H 456.375 3.08839 -0.572454 0
M  V30 4734 H 455.568 4.3065 -2.61833 0
M  V30 4735 H 455.17 2.57526 -2.71212 0
M  V30 4736 H 457.462 5.48126 -3.98201 0
M  V30 4737 H 458.405 4.70371 -5.29298 0
M  V30 4738 H 458.813 4.35987 -3.58574 0
M  V30 4739 N 458.211 1.37122 0.776871 0
M  V30 4740 C 459.121 1.34651 1.9211 0
M  V30 4741 C 460.137 0.246824 1.7224 0
M  V30 4742 O 461.313 0.48134 1.95563 0
M  V30 4743 C 458.378 1.14748 3.2716 0
M  V30 4744 C 457.439 2.34308 3.5972 0
M  V30 4745 C 456.672 2.15345 4.88326 0
M  V30 4746 O 456.895 1.13507 5.58992 0
M  V30 4747 O 455.829 3.03414 5.1983 0
M  V30 4748 H 459.655 2.31013 1.97146 0
M  V30 4749 H 457.24 1.17799 0.918901 0
M  V30 4750 H 459.122 1.05616 4.0795 0
M  V30 4751 H 457.797 0.214562 3.22988 0
M  V30 4752 H 456.704 2.49011 2.79185 0
M  V30 4753 H 458.037 3.26149 3.68629 0
M  V30 4754 N 459.689 -1.00246 1.21608 0
M  V30 4755 C 460.599 -2.12515 0.993709 0
M  V30 4756 C 461.615 -1.73913 -0.0549939 0
M  V30 4757 O 462.791 -2.00943 0.135619 0
M  V30 4758 C 459.856 -3.42083 0.563953 0
M  V30 4759 C 458.917 -3.94843 1.68516 0
M  V30 4760 C 458.15 -5.18226 1.27582 0
M  V30 4761 O 458.373 -5.70201 0.150506 0
M  V30 4762 O 457.307 -5.64497 2.0887 0
M  V30 4763 H 461.133 -2.34152 1.93407 0
M  V30 4764 H 458.718 -1.10891 1.00118 0
M  V30 4765 H 460.6 -4.20073 0.334194 0
M  V30 4766 H 459.275 -3.21828 -0.347665 0
M  V30 4767 H 458.182 -3.18068 1.96935 0
M  V30 4768 H 459.515 -4.19512 2.5743 0
M  V30 4769 N 461.167 -1.02423 -1.1978 0
M  V30 4770 C 462.13 -0.605703 -2.21052 0
M  V30 4771 C 463.13 0.328209 -1.57415 0
M  V30 4772 O 464.32 0.115853 -1.73814 0
M  V30 4773 C 461.452 0.114366 -3.40708 0
M  V30 4774 H 462.645 -1.5017 -2.59594 0
M  V30 4775 H 460.198 -0.814888 -1.33376 0
M  V30 4776 H 460.933 1.02492 -3.07678 0
M  V30 4777 H 460.718 -0.556641 -3.88129 0
M  V30 4778 H 462.208 0.394272 -4.15735 0
M  V30 4779 N 462.645 1.35699 -0.801477 0
M  V30 4780 C 463.592 2.29876 -0.206294 0
M  V30 4781 C 464.562 1.52565 0.656752 0
M  V30 4782 O 465.747 1.81024 0.602906 0
M  V30 4783 C 462.887 3.39052 0.643272 0
M  V30 4784 C 462 4.31335 -0.239644 0
M  V30 4785 C 461.135 5.27599 0.61744 0
M  V30 4786 C 460.174 6.11521 -0.26619 0
M  V30 4787 N 459.311 6.99938 0.550571 0
M  V30 4788 H 464.151 2.80187 -1.01484 0
M  V30 4789 H 461.688 1.37902 -0.511997 0
M  V30 4790 H 463.646 4.0101 1.15094 0
M  V30 4791 H 462.276 2.9003 1.41713 0
M  V30 4792 H 461.328 3.70426 -0.865381 0
M  V30 4793 H 462.64 4.90243 -0.919985 0
M  V30 4794 H 461.794 5.94906 1.19045 0
M  V30 4795 H 460.533 4.69176 1.33137 0
M  V30 4796 H 459.538 5.43166 -0.851507 0
M  V30 4797 H 460.763 6.72022 -0.9779 0
M  V30 4798 H 458.709 6.44008 1.24856 0
M  V30 4799 H 458.626 7.55966 -0.071832 0
M  V30 4800 H 459.894 7.71599 1.10702 0
M  V30 4801 N 464.123 0.554532 1.47522 0
M  V30 4802 C 465.055 -0.232106 2.28022 0
M  V30 4803 C 466.068 -0.881865 1.36847 0
M  V30 4804 O 467.257 -0.756168 1.61692 0
M  V30 4805 C 464.357 -1.34604 3.11022 0
M  V30 4806 C 463.53 -0.793582 4.30141 0
M  V30 4807 C 462.589 -1.79168 4.94758 0
M  V30 4808 O 461.615 -1.33886 5.5323 0
M  V30 4809 N 462.817 -3.12495 4.89211 0
M  V30 4810 H 465.582 0.458407 2.96173 0
M  V30 4811 H 463.143 0.390433 1.57122 0
M  V30 4812 H 465.135 -2.01243 3.51118 0
M  V30 4813 H 463.705 -1.93983 2.45131 0
M  V30 4814 H 462.925 0.0495025 3.94169 0
M  V30 4815 H 464.213 -0.403776 5.07195 0
M  V30 4816 H 463.611 -3.51931 4.42901 0
M  V30 4817 H 462.168 -3.74698 5.33333 0
M  V30 4818 N 465.601 -1.54893 0.290851 0
M  V30 4819 C 466.85 -1.99111 -0.322113 0
M  V30 4820 C 467.163 -1.18283 -1.55784 0
M  V30 4821 O 468.369 -1.5272 -2.24475 0
M  V30 4822 C 466.825 -3.54442 -0.624438 0
M  V30 4823 C 466.433 -4.44066 0.592373 0
M  V30 4824 C 468.177 -4.07211 -1.19916 0
M  V30 4825 C 466.084 -5.90812 0.263762 0
M  V30 4826 H 465.014 -0.743712 -0.124133 0
M  V30 4827 H 467.665 -1.79132 0.39797 0
M  V30 4828 H 466.047 -3.70281 -1.40384 0
M  V30 4829 H 467.221 -4.39999 1.36886 0
M  V30 4830 H 465.536 -4.02015 1.08502 0
M  V30 4831 H 468.133 -5.14407 -1.45909 0
M  V30 4832 H 468.476 -3.57196 -2.13815 0
M  V30 4833 H 469.009 -3.94873 -0.481687 0
M  V30 4834 H 465.748 -6.44955 1.17105 0
M  V30 4835 H 465.268 -5.97911 -0.475655 0
M  V30 4836 H 466.947 -6.46852 -0.138354 0
M  V30 4837 N 467.08 -0.0183926 -1.57589 0
M  V30 4838 C 468.027 0.967022 -2.09565 0
M  V30 4839 C 468.997 1.32983 -0.995225 0
M  V30 4840 O 470.182 1.42501 -1.26878 0
M  V30 4841 C 467.322 2.24772 -2.61861 0
M  V30 4842 C 466.435 1.94232 -3.85873 0
M  V30 4843 C 465.57 3.16518 -4.26603 0
M  V30 4844 C 464.609 2.81748 -5.43401 0
M  V30 4845 N 463.746 3.96626 -5.79338 0
M  V30 4846 H 468.586 0.516874 -2.93483 0
M  V30 4847 H 466.123 0.243544 -1.4507 0
M  V30 4848 H 468.081 2.99667 -2.90268 0
M  V30 4849 H 466.711 2.67423 -1.8079 0
M  V30 4850 H 465.763 1.09625 -3.64262 0
M  V30 4851 H 467.075 1.64616 -4.70853 0
M  V30 4852 H 466.229 3.99743 -4.56389 0
M  V30 4853 H 464.968 3.49286 -3.40368 0
M  V30 4854 H 463.973 1.96933 -5.1332 0
M  V30 4855 H 465.198 2.50207 -6.31327 0
M  V30 4856 H 463.144 4.29257 -4.96059 0
M  V30 4857 H 463.061 3.70598 -6.58933 0
M  V30 4858 H 464.329 4.80586 -6.13724 0
M  V30 4859 N 468.558 1.5553 0.254621 0
M  V30 4860 C 469.969 1.67518 0.824286 0
M  V30 4861 C 470.32 0.614429 1.86331 0
M  V30 4862 O 469.445 -0.240736 2.15057 0
M  V30 4863 C 470.04 3.03692 1.50189 0
M  V30 4864 C 468.599 3.17646 2.01935 0
M  V30 4865 C 467.746 2.63373 0.867746 0
M  V30 4866 H 470.697 1.58671 0.0305843 0
M  V30 4867 H 470.718 2.97706 2.36962 0
M  V30 4868 H 470.23 3.80874 0.745431 0
M  V30 4869 H 468.331 2.45273 2.80485 0
M  V30 4870 H 468.444 4.24455 2.22204 0
M  V30 4871 H 466.808 2.20999 1.26616 0
M  V30 4872 H 467.591 3.43074 0.124498 0
M  V30 4873 N 470.036 -0.519951 1.48776 0
M  V30 4874 C 470.984 -1.64443 1.64503 0
M  V30 4875 C 471.978 -1.61501 0.511248 0
M  V30 4876 O 473.184 -1.66238 0.690294 0
M  V30 4877 H 469.559 -0.544776 0.518385 0
M  V30 4878 H 471.53 -1.48325 2.58925 0
M  V30 4879 C 470.279 -3.02673 1.71127 0
M  V30 4880 H 469.602 -3.05635 2.57735 0
M  V30 4881 H 471.042 -3.80941 1.86172 0
M  V30 4882 C 469.501 -3.33854 0.452032 0
M  V30 4883 O 470.031 -3.99385 -0.430678 0
M  V30 4884 N 468.237 -2.88825 0.32069 0
M  V30 4885 H 467.784 -2.35674 1.03998 0
M  V30 4886 H 467.742 -3.10056 -0.520814 0
M  V30 4887 N 471.514 -1.37532 -0.769588 0
M  V30 4888 C 472.444 -1.36172 -1.89682 0
M  V30 4889 C 473.425 -0.23001 -1.68538 0
M  V30 4890 O 474.61 -0.43069 -1.89364 0
M  V30 4891 C 471.74 -1.1701 -3.26995 0
M  V30 4892 C 470.694 -2.27216 -3.62708 0
M  V30 4893 C 470.02 -1.93174 -4.98586 0
M  V30 4894 C 471.32 -3.6941 -3.69234 0
M  V30 4895 H 473.014 -2.30499 -1.91078 0
M  V30 4896 H 470.56 -1.10953 -0.917902 0
M  V30 4897 H 472.513 -1.14688 -4.05493 0
M  V30 4898 H 471.237 -0.191395 -3.26039 0
M  V30 4899 H 469.896 -2.28697 -2.86519 0
M  V30 4900 H 469.544 -0.938281 -4.94171 0
M  V30 4901 H 469.244 -2.66973 -5.23449 0
M  V30 4902 H 470.768 -1.92443 -5.79481 0
M  V30 4903 H 472.182 -3.70047 -4.37879 0
M  V30 4904 H 470.579 -4.4228 -4.05597 0
M  V30 4905 H 471.649 -4.0288 -2.69844 0
M  V30 4906 N 472.992 0.995999 -1.22138 0
M  V30 4907 C 474.269 1.70834 -0.952642 0
M  V30 4908 C 474.649 2.04257 0.533119 0
M  V30 4909 O 473.997 1.72343 1.50034 0
M  V30 4910 C 474.207 2.96119 -1.84701 0
M  V30 4911 C 475.555 3.68962 -2.10124 0
M  V30 4912 O 476.579 3.0612 -1.82124 0
M  V30 4913 O 475.438 4.82017 -2.57531 0
M  V30 4914 H 472.532 0.745498 -0.357997 0
M  V30 4915 H 475.078 1.05262 -1.33109 0
M  V30 4916 H 473.85 2.67898 -2.85213 0
M  V30 4917 H 473.473 3.6943 -1.46995 0
M  V30 4918 N 474.47 1.03057 1.19235 0
M  V30 4919 C 475.7 0.746613 1.92638 0
M  V30 4920 C 476.108 -0.698708 1.75826 0
M  V30 4921 O 475.451 -1.487 1.07861 0
M  V30 4922 C 475.513 1.02024 3.44719 0
M  V30 4923 C 475.177 2.45745 3.85303 0
M  V30 4924 C 476.174 3.43887 3.8992 0
M  V30 4925 C 473.859 2.8019 4.16892 0
M  V30 4926 C 475.853 4.74529 4.2556 0
M  V30 4927 C 473.54 4.1104 4.52205 0
M  V30 4928 C 474.538 5.0802 4.56513 0
M  V30 4929 O 474.226 6.36527 4.91008 0
M  V30 4930 H 473.958 0.272401 0.618687 0
M  V30 4931 H 476.512 1.37853 1.52269 0
M  V30 4932 H 474.742 0.331184 3.85279 0
M  V30 4933 H 476.431 0.725677 3.9936 0
M  V30 4934 H 477.197 3.18614 3.65664 0
M  V30 4935 H 473.076 2.05382 4.12722 0
M  V30 4936 H 476.62 5.50222 4.28838 0
M  V30 4937 H 472.517 4.36086 4.7592 0
M  V30 4938 H 473.285 6.41025 5.08949 0
M  V30 4939 N 475.948 -1.35272 0.808662 0
M  V30 4940 C 477.359 -1.81179 0.450688 0
M  V30 4941 C 477.71 -1.67143 -1.02751 0
M  V30 4942 O 476.835 -1.20325 -1.79864 0
M  V30 4943 C 477.43 -3.28943 0.811275 0
M  V30 4944 C 475.989 -3.72985 0.505871 0
M  V30 4945 C 475.136 -2.57229 1.03578 0
M  V30 4946 H 478.087 -1.2322 1.00012 0
M  V30 4947 H 478.108 -3.80342 0.109588 0
M  V30 4948 H 477.62 -3.39127 1.88718 0
M  V30 4949 H 475.721 -3.68349 -0.561209 0
M  V30 4950 H 475.834 -4.67677 1.03995 0
M  V30 4951 H 474.198 -2.50548 0.458005 0
M  V30 4952 H 474.981 -2.7019 2.11784 0
M  V30 4953 N 477.426 -0.562348 -1.47226 0
M  V30 4954 C 478.389 0.172056 -2.28553 0
M  V30 4955 C 479.389 0.837928 -1.37242 0
M  V30 4956 O 480.579 0.693001 -1.59822 0
M  V30 4957 C 477.711 1.25223 -3.17068 0
M  V30 4958 H 478.904 -0.542401 -2.94954 0
M  V30 4959 H 476.457 -0.319493 -1.53 0
M  V30 4960 H 477.192 1.99892 -2.55369 0
M  V30 4961 H 476.977 0.779515 -3.84273 0
M  V30 4962 H 478.467 1.76791 -3.78332 0
M  V30 4963 N 478.904 1.54736 -0.299062 0
M  V30 4964 C 480.152 1.99706 0.31017 0
M  V30 4965 C 480.473 1.18896 1.54559 0
M  V30 4966 O 479.743 0.284445 1.93824 0
M  V30 4967 H 478.323 0.737686 0.117596 0
M  V30 4968 H 480.985 1.9054 -0.409943 0
M  V30 4969 H 480.081 3.06596 0.58355 0
M  V30 4970 N 480.382 0.0267497 1.57577 0
M  V30 4971 C 481.793 -0.512413 1.79531 0
M  V30 4972 C 482.144 -1.72391 0.936791 0
M  V30 4973 O 481.269 -2.15903 0.146543 0
M  V30 4974 C 481.864 -0.936378 3.25603 0
M  V30 4975 C 480.423 -1.42067 3.4856 0
M  V30 4976 C 479.57 -0.384278 2.74624 0
M  V30 4977 H 482.521 0.252797 1.56674 0
M  V30 4978 H 482.542 -1.80088 3.35184 0
M  V30 4979 H 482.054 -0.0544332 3.88062 0
M  V30 4980 H 480.155 -2.32262 2.9135 0
M  V30 4981 H 480.268 -1.42968 4.57271 0
M  V30 4982 H 478.632 -0.851855 2.40032 0
M  V30 4983 H 479.415 0.489159 3.39797 0
M  V30 4984 N 481.861 -1.55662 -0.24637 0
M  V30 4985 C 483.089 -1.81575 -0.991876 0
M  V30 4986 C 483.504 -0.602545 -1.78927 0
M  V30 4987 O 482.861 0.428795 -1.77391 0
M  V30 4988 C 482.912 -3.05711 -1.92933 0
M  V30 4989 O 482.633 -4.22348 -1.1642 0
M  V30 4990 C 484.134 -3.44428 -2.79078 0
M  V30 4991 H 481.354 -0.604209 -0.291844 0
M  V30 4992 H 483.898 -2.02722 -0.269095 0
M  V30 4993 H 482.053 -2.86612 -2.60638 0
M  V30 4994 H 482.467 -4.92706 -1.79835 0
M  V30 4995 H 483.941 -4.34388 -3.40603 0
M  V30 4996 H 484.418 -2.65037 -3.50217 0
M  V30 4997 H 485.024 -3.65879 -2.16824 0
M  V30 4998 N 483.339 0.512053 -1.4905 0
M  V30 4999 C 484.569 1.28928 -1.61434 0
M  V30 5000 C 484.977 1.87107 -0.280647 0
M  V30 5001 O 484.32 1.68024 0.742537 0
M  V30 5002 C 484.382 2.466 -2.61588 0
M  V30 5003 C 484.046 2.09375 -4.06216 0
M  V30 5004 C 485.043 1.63994 -4.93358 0
M  V30 5005 C 482.728 2.19348 -4.51876 0
M  V30 5006 C 484.722 1.29076 -6.24194 0
M  V30 5007 C 482.409 1.84041 -5.82728 0
M  V30 5008 C 483.407 1.38978 -6.68711 0
M  V30 5009 O 483.095 1.04144 -7.97126 0
M  V30 5010 H 482.827 0.397668 -0.546659 0
M  V30 5011 H 485.381 0.622507 -1.9574 0
M  V30 5012 H 483.611 3.16318 -2.22441 0
M  V30 5013 H 485.3 3.08642 -2.63619 0
M  V30 5014 H 486.066 1.55744 -4.59313 0
M  V30 5015 H 481.945 2.53376 -3.85125 0
M  V30 5016 H 485.489 0.938303 -6.91261 0
M  V30 5017 H 481.386 1.91938 -6.16304 0
M  V30 5018 H 482.154 1.17387 -8.10039 0
M  V30 5019 N 484.817 1.37938 0.762283 0
M  V30 5020 C 485.765 1.34569 1.89721 0
M  V30 5021 C 486.759 0.232929 1.67791 0
M  V30 5022 O 487.965 0.401485 1.75465 0
M  V30 5023 H 484.34 0.419594 0.624055 0
M  V30 5024 H 486.311 2.30357 1.8968 0
M  V30 5025 C 485.06 1.17898 3.27101 0
M  V30 5026 H 484.383 2.02781 3.44558 0
M  V30 5027 H 485.823 1.19593 4.06784 0
M  V30 5028 C 484.282 -0.114728 3.36705 0
M  V30 5029 O 484.812 -1.0949 3.8649 0
M  V30 5030 N 483.018 -0.16863 2.9011 0
M  V30 5031 H 482.565 0.62967 2.49786 0
M  V30 5032 H 482.523 -1.03383 2.96916 0
M  V30 5033 N 486.295 -0.989507 1.22664 0
M  V30 5034 C 487.225 -2.09847 1.02404 0
M  V30 5035 C 488.206 -1.70007 -0.0561303 0
M  V30 5036 O 489.391 -1.93906 0.106748 0
M  V30 5037 C 486.521 -3.41996 0.604663 0
M  V30 5038 C 485.475 -3.95699 1.63115 0
M  V30 5039 C 484.801 -5.23936 1.0675 0
M  V30 5040 C 486.101 -4.25999 3.02196 0
M  V30 5041 H 487.795 -2.27054 1.95158 0
M  V30 5042 H 485.341 -1.09111 0.939727 0
M  V30 5043 H 487.294 -4.1899 0.45002 0
M  V30 5044 H 486.018 -3.24626 -0.35855 0
M  V30 5045 H 484.677 -3.2084 1.77362 0
M  V30 5046 H 484.325 -5.02909 0.0955422 0
M  V30 5047 H 484.025 -5.60833 1.75328 0
M  V30 5048 H 485.549 -6.0356 0.924516 0
M  V30 5049 H 486.963 -4.93777 2.91303 0
M  V30 5050 H 485.36 -4.74076 3.67929 0
M  V30 5051 H 486.43 -3.33636 3.51873 0
M  V30 5052 N 487.773 -1.03688 -1.18687 0
M  V30 5053 C 488.706 -0.569112 -2.2099 0
M  V30 5054 C 489.684 0.394315 -1.57746 0
M  V30 5055 O 490.868 0.309519 -1.85941 0
M  V30 5056 C 487.995 0.169104 -3.38278 0
M  V30 5057 C 487.041 -0.746989 -4.19908 0
M  V30 5058 S 487.874 -2.22773 -4.86963 0
M  V30 5059 C 489.03 -1.50025 -6.07654 0
M  V30 5060 H 489.263 -1.43589 -2.60326 0
M  V30 5061 H 486.796 -0.847507 -1.29061 0
M  V30 5062 H 488.754 0.588868 -4.06254 0
M  V30 5063 H 487.415 1.01172 -2.9736 0
M  V30 5064 H 486.608 -0.176626 -5.0369 0
M  V30 5065 H 486.21 -1.10543 -3.5729 0
M  V30 5066 H 488.502 -0.791217 -6.72864 0
M  V30 5067 H 489.445 -2.31498 -6.69189 0
M  V30 5068 H 489.853 -0.994245 -5.55675 0
M  V30 5069 N 489.251 1.34841 -0.815825 0
M  V30 5070 C 490.499 1.98107 -0.399744 0
M  V30 5071 C 490.82 1.65019 1.03894 0
M  V30 5072 O 490.09 0.937311 1.72021 0
M  V30 5073 H 488.67 0.732827 -0.144823 0
M  V30 5074 H 491.332 1.64599 -1.0437 0
M  V30 5075 H 490.428 3.07856 -0.512965 0
M  V30 5076 N 490.729 0.570148 1.46925 0
M  V30 5077 C 491.976 0.0509529 2.02436 0
M  V30 5078 C 492.304 -1.30405 1.44308 0
M  V30 5079 O 491.559 -1.86493 0.593198 0
M  V30 5080 C 491.858 -0.0780336 3.57315 0
M  V30 5081 C 491.524 1.20775 4.34424 0
M  V30 5082 C 490.186 1.56004 4.5521 0
M  V30 5083 C 492.538 2.0592 4.78797 0
M  V30 5084 C 489.866 2.76201 5.17619 0
M  V30 5085 C 492.218 3.25332 5.42533 0
M  V30 5086 C 490.882 3.60859 5.61549 0
M  V30 5087 H 490.152 0.018645 0.740765 0
M  V30 5088 H 492.799 0.744262 1.76445 0
M  V30 5089 H 491.104 -0.854394 3.82371 0
M  V30 5090 H 492.801 -0.495312 3.97929 0
M  V30 5091 H 489.391 0.923469 4.18533 0
M  V30 5092 H 493.575 1.80008 4.62505 0
M  V30 5093 H 488.831 3.0388 5.30535 0
M  V30 5094 H 493.005 3.91586 5.75876 0
M  V30 5095 H 490.632 4.54088 6.09678 0
M  V30 5096 N 492.207 -1.54576 0.307264 0
M  V30 5097 C 493.484 -1.92377 -0.353605 0
M  V30 5098 C 493.864 -1.23517 -1.71192 0
M  V30 5099 O 493.212 -0.373101 -2.25433 0
M  V30 5100 C 493.422 -3.45928 -0.462039 0
M  V30 5101 C 494.77 -4.18278 -0.729975 0
M  V30 5102 O 495.794 -3.51997 -0.545605 0
M  V30 5103 O 494.653 -5.3563 -1.08454 0
M  V30 5104 H 491.747 -0.802747 -0.198812 0
M  V30 5105 H 494.293 -1.65929 0.355783 0
M  V30 5106 H 493.065 -3.88187 0.492592 0
M  V30 5107 H 492.688 -3.78431 -1.21965 0
M  V30 5108 N 493.685 -0.035106 -1.57561 0
M  V30 5109 C 494.913 0.652258 -1.9635 0
M  V30 5110 C 495.328 1.65317 -0.911897 0
M  V30 5111 O 494.685 1.82194 0.105657 0
M  V30 5112 C 494.736 1.35337 -3.35211 0
M  V30 5113 O 494.457 0.392548 -4.36338 0
M  V30 5114 C 495.958 2.13199 -3.88666 0
M  V30 5115 H 493.178 0.179444 -0.646561 0
M  V30 5116 H 495.722 -0.0966459 -2.04271 0
M  V30 5117 H 493.877 2.05362 -3.28489 0
M  V30 5118 H 494.291 0.891097 -5.16875 0
M  V30 5119 H 495.765 2.577 -4.88154 0
M  V30 5120 H 496.242 2.97353 -3.23231 0
M  V30 5121 H 496.848 1.48118 -3.98674 0
M  V30 5122 N 495.163 1.55791 0.238111 0
M  V30 5123 C 496.073 1.94196 1.31625 0
M  V30 5124 C 497.089 0.843545 1.52185 0
M  V30 5125 O 498.265 1.1457 1.65637 0
M  V30 5126 C 495.33 2.2365 2.64918 0
M  V30 5127 C 494.391 3.46971 2.52804 0
M  V30 5128 C 493.624 3.7501 3.79741 0
M  V30 5129 O 493.847 3.04982 4.82019 0
M  V30 5130 O 492.781 4.68525 3.77846 0
M  V30 5131 H 496.607 2.86044 1.02043 0
M  V30 5132 H 494.192 1.42786 0.439603 0
M  V30 5133 H 496.074 2.43863 3.4367 0
M  V30 5134 H 494.749 1.34979 2.94215 0
M  V30 5135 H 493.656 3.32055 1.72309 0
M  V30 5136 H 494.989 4.35971 2.28451 0
M  V30 5137 N 496.642 -0.504142 1.49319 0
M  V30 5138 C 497.575 -1.62361 1.60356 0
M  V30 5139 C 498.553 -1.56169 0.45277 0
M  V30 5140 O 499.737 -1.76271 0.667892 0
M  V30 5141 C 496.864 -3.00864 1.55559 0
M  V30 5142 C 495.91 -3.25328 2.75797 0
M  V30 5143 S 496.743 -3.08791 4.37503 0
M  V30 5144 C 497.899 -4.49695 4.35345 0
M  V30 5145 H 498.132 -1.52753 2.55056 0
M  V30 5146 H 495.665 -0.689065 1.38171 0
M  V30 5147 H 497.623 -3.8073 1.53477 0
M  V30 5148 H 496.284 -3.0789 0.621515 0
M  V30 5149 H 495.477 -4.2643 2.68651 0
M  V30 5150 H 495.079 -2.53179 2.75275 0
M  V30 5151 H 497.371 -5.41721 4.06871 0
M  V30 5152 H 498.314 -4.61891 5.36714 0
M  V30 5153 H 498.722 -4.30227 3.65465 0
M  V30 5154 N 498.12 -1.38341 -0.754957 0
M  V30 5155 C 499.367 -1.34473 -1.51404 0
M  V30 5156 C 499.695 0.0656458 -1.94389 0
M  V30 5157 O 498.95 1.04244 -1.65625 0
M  V30 5158 C 499.249 -2.2452 -2.78075 0
M  V30 5159 C 498.915 -3.72512 -2.54059 0
M  V30 5160 C 497.577 -4.1284 -2.47218 0
M  V30 5161 C 499.929 -4.66197 -2.33044 0
M  V30 5162 C 497.257 -5.44945 -2.17376 0
M  V30 5163 C 499.609 -5.98558 -2.04723 0
M  V30 5164 C 498.273 -6.37972 -1.96337 0
M  V30 5165 H 497.543 -0.492072 -0.554027 0
M  V30 5166 H 500.19 -1.70687 -0.868223 0
M  V30 5167 H 498.495 -1.81357 -3.473 0
M  V30 5168 H 500.192 -2.18832 -3.36026 0
M  V30 5169 H 496.782 -3.40538 -2.60253 0
M  V30 5170 H 500.966 -4.35888 -2.37309 0
M  V30 5171 H 496.222 -5.74426 -2.09391 0
M  V30 5172 H 500.396 -6.70693 -1.87465 0
M  V30 5173 H 498.023 -7.40258 -1.72978 0
M  V30 5174 N 499.598 0.982988 -1.23187 0
M  V30 5175 C 500.826 1.75921 -1.08901 0
M  V30 5176 C 501.241 1.85341 0.359719 0
M  V30 5177 O 500.598 1.33072 1.24892 0
M  V30 5178 C 500.649 3.18742 -1.70545 0
M  V30 5179 O 500.37 3.09814 -3.09753 0
M  V30 5180 C 501.871 4.1277 -1.61667 0
M  V30 5181 H 499.091 0.552166 -0.381252 0
M  V30 5182 H 501.635 1.23516 -1.62985 0
M  V30 5183 H 499.79 3.68182 -1.20501 0
M  V30 5184 H 500.204 3.99703 -3.39614 0
M  V30 5185 H 501.678 5.10697 -2.09506 0
M  V30 5186 H 502.155 4.3542 -0.575009 0
M  V30 5187 H 502.761 3.69232 -2.11064 0
M  V30 5188 N 501.076 1.04316 1.18135 0
M  V30 5189 C 502.487 0.775505 1.69832 0
M  V30 5190 C 502.838 -0.703348 1.8316 0
M  V30 5191 O 501.963 -1.54729 1.51287 0
M  V30 5192 C 502.558 1.40112 3.0847 0
M  V30 5193 C 501.117 1.18172 3.57368 0
M  V30 5194 C 500.264 1.49022 2.33854 0
M  V30 5195 H 503.215 1.20925 1.02775 0
M  V30 5196 H 503.236 0.805672 3.71873 0
M  V30 5197 H 502.748 2.47744 2.98738 0
M  V30 5198 H 500.849 0.124258 3.72393 0
M  V30 5199 H 500.962 1.8805 4.40652 0
M  V30 5200 H 499.326 0.909995 2.37889 0
M  V30 5201 H 500.109 2.57768 2.26738 0
M  V30 5202 N 502.554 -1.34406 0.822964 0
M  V30 5203 C 503.484 -2.32052 0.259608 0
M  V30 5204 C 504.465 -1.58243 -0.623961 0
M  V30 5205 O 505.65 -1.86224 -0.55083 0
M  V30 5206 C 502.78 -3.42434 -0.579314 0
M  V30 5207 C 501.734 -4.27499 0.20712 0
M  V30 5208 C 501.06 -5.29349 -0.754547 0
M  V30 5209 C 502.36 -5.02758 1.41533 0
M  V30 5210 H 504.054 -2.79418 1.07545 0
M  V30 5211 H 501.6 -1.34338 0.518593 0
M  V30 5212 H 503.553 -4.0976 -0.983612 0
M  V30 5213 H 502.277 -2.93717 -1.4282 0
M  V30 5214 H 500.936 -3.61776 0.592787 0
M  V30 5215 H 500.584 -4.76895 -1.59939 0
M  V30 5216 H 500.284 -5.8714 -0.232561 0
M  V30 5217 H 501.808 -5.99544 -1.1567 0
M  V30 5218 H 503.222 -5.62938 1.08504 0
M  V30 5219 H 501.619 -5.70123 1.87296 0
M  V30 5220 H 502.689 -4.32451 2.1935 0
M  V30 5221 N 504.032 -0.577932 -1.46621 0
M  V30 5222 C 505.279 -0.0616879 -2.02406 0
M  V30 5223 C 505.607 1.29638 -1.44997 0
M  V30 5224 O 504.862 1.86176 -0.60308 0
M  V30 5225 C 505.161 0.0590832 -3.57351 0
M  V30 5226 C 504.827 -1.23077 -4.33777 0
M  V30 5227 C 503.489 -1.58416 -4.54376 0
M  V30 5228 C 505.841 -2.08457 -4.77698 0
M  V30 5229 C 503.169 -2.78943 -5.16147 0
M  V30 5230 C 505.521 -3.28204 -5.408 0
M  V30 5231 C 504.185 -3.63832 -5.59627 0
M  V30 5232 H 503.455 -0.0225732 -0.740656 0
M  V30 5233 H 506.102 -0.753609 -1.76048 0
M  V30 5234 H 504.407 0.834104 -3.82818 0
M  V30 5235 H 506.104 0.474202 -3.98186 0
M  V30 5236 H 502.694 -0.945652 -4.18038 0
M  V30 5237 H 506.878 -1.82459 -4.61544 0
M  V30 5238 H 502.134 -3.06689 -5.28916 0
M  V30 5239 H 506.308 -3.94634 -5.73792 0
M  V30 5240 H 503.935 -4.57315 -6.07262 0
M  V30 5241 N 505.51 1.54411 -0.315457 0
M  V30 5242 C 506.759 1.99599 0.290395 0
M  V30 5243 C 507.072 1.20746 1.53882 0
M  V30 5244 O 508.278 1.56272 2.22017 0
M  V30 5245 C 506.734 3.5539 0.56797 0
M  V30 5246 C 506.342 4.43068 -0.662945 0
M  V30 5247 C 508.086 4.09067 1.13422 0
M  V30 5248 C 505.993 5.90317 -0.357722 0
M  V30 5249 H 504.923 0.745592 0.112286 0
M  V30 5250 H 507.574 1.78477 -0.426418 0
M  V30 5251 H 505.956 3.72468 1.34476 0
M  V30 5252 H 507.13 4.37765 -1.43869 0
M  V30 5253 H 505.445 4.00238 -1.14884 0
M  V30 5254 H 508.042 5.16663 1.37707 0
M  V30 5255 H 508.385 3.60552 2.08106 0
M  V30 5256 H 508.918 3.95589 0.418805 0
M  V30 5257 H 505.657 6.4301 -1.27351 0
M  V30 5258 H 505.177 5.98592 0.380472 0
M  V30 5259 H 506.856 6.4699 0.0354284 0
M  V30 5260 N 506.988 0.0434614 1.5754 0
M  V30 5261 C 507.951 -0.918696 2.09982 0
M  V30 5262 C 508.951 -1.24488 1.01781 0
M  V30 5263 O 510.141 -1.18284 1.27885 0
M  V30 5264 C 507.273 -2.23093 2.57764 0
M  V30 5265 H 508.466 -0.464229 2.96285 0
M  V30 5266 H 506.019 -0.204818 1.54952 0
M  V30 5267 H 506.754 -2.73137 1.74832 0
M  V30 5268 H 506.539 -2.00724 3.36827 0
M  V30 5269 H 508.029 -2.92028 2.98512 0
M  V30 5270 N 508.466 -1.55915 -0.229846 0
M  V30 5271 C 509.429 -1.90914 -1.26824 0
M  V30 5272 C 510.429 -0.786999 -1.40225 0
M  V30 5273 O 511.619 -1.05484 -1.38632 0
M  V30 5274 C 508.751 -2.15264 -2.64337 0
M  V30 5275 H 509.944 -2.8378 -0.969998 0
M  V30 5276 H 507.497 -1.49069 -0.4699 0
M  V30 5277 H 508.232 -1.24923 -2.99274 0
M  V30 5278 H 508.017 -2.97005 -2.55989 0
M  V30 5279 H 509.507 -2.43467 -3.39284 0
M  V30 5280 N 509.944 0.496216 -1.49584 0
M  V30 5281 C 511.36 0.827814 -1.36453 0
M  V30 5282 C 511.56 1.97464 -0.401285 0
M  V30 5283 O 510.616 2.51958 0.165296 0
M  V30 5284 C 511.929 1.16352 -2.77277 0
M  V30 5285 C 513.477 1.27145 -2.86013 0
M  V30 5286 C 513.952 1.64042 -4.27615 0
M  V30 5287 N 515.443 1.71082 -4.30448 0
M  V30 5288 C 516.178 2.01085 -5.36984 0
M  V30 5289 N 515.674 2.2928 -6.5376 0
M  V30 5290 N 517.467 2.02376 -5.24405 0
M  V30 5291 H 509.618 -0.259947 -2.10803 0
M  V30 5292 H 511.881 -0.0537163 -0.946477 0
M  V30 5293 H 511.587 0.394153 -3.49484 0
M  V30 5294 H 511.461 2.10582 -3.12946 0
M  V30 5295 H 513.848 2.03152 -2.1404 0
M  V30 5296 H 513.929 0.309542 -2.5392 0
M  V30 5297 H 513.573 0.88583 -5.00115 0
M  V30 5298 H 513.503 2.6134 -4.57175 0
M  V30 5299 H 515.994 1.51434 -3.46232 0
M  V30 5300 H 516.307 2.51376 -7.30774 0
M  V30 5301 H 514.652 2.26726 -6.56978 0
M  V30 5302 H 517.843 1.79829 -4.32179 0
M  V30 5303 H 518.016 2.25425 -6.07526 0
M  V30 5304 N 511.423 1.38739 0.74761 0
M  V30 5305 C 512.672 1.3459 1.50228 0
M  V30 5306 C 512.985 -0.0595592 1.95509 0
M  V30 5307 O 514.191 -0.22361 2.70578 0
M  V30 5308 C 512.647 2.36377 2.71393 0
M  V30 5309 C 512.255 3.82573 2.33113 0
M  V30 5310 C 513.999 2.41281 3.49262 0
M  V30 5311 C 511.906 4.76032 3.50924 0
M  V30 5312 H 510.836 0.500312 0.564096 0
M  V30 5313 H 513.487 1.64324 0.8167 0
M  V30 5314 H 511.869 1.99694 3.41962 0
M  V30 5315 H 513.043 4.28227 1.70171 0
M  V30 5316 H 511.358 3.80844 1.68365 0
M  V30 5317 H 513.955 3.08301 4.36869 0
M  V30 5318 H 514.298 1.43353 3.9084 0
M  V30 5319 H 514.831 2.76793 2.85711 0
M  V30 5320 H 511.57 5.75177 3.14408 0
M  V30 5321 H 511.09 4.35066 4.12889 0
M  V30 5322 H 512.769 4.94331 4.17427 0
M  V30 5323 N 512.901 -0.976442 1.23707 0
M  V30 5324 C 514.129 -1.75341 1.09833 0
M  V30 5325 C 514.544 -1.8553 -0.349885 0
M  V30 5326 O 513.901 -1.33732 -1.24185 0
M  V30 5327 C 513.952 -3.17833 1.72233 0
M  V30 5328 O 513.673 -3.08167 3.11391 0
M  V30 5329 C 515.174 -4.11906 1.63853 0
M  V30 5330 H 512.394 -0.550137 0.384175 0
M  V30 5331 H 514.938 -1.2265 1.63638 0
M  V30 5332 H 513.093 -3.67538 1.22452 0
M  V30 5333 H 513.507 -3.97897 3.41729 0
M  V30 5334 H 514.981 -5.09579 2.12211 0
M  V30 5335 H 515.458 -4.35109 0.598092 0
M  V30 5336 H 516.064 -3.68107 2.13019 0
M  V30 5337 N 514.379 -1.04941 -1.1758 0
M  V30 5338 C 515.627 -0.756492 -1.87408 0
M  V30 5339 C 515.948 0.718478 -1.81281 0
M  V30 5340 O 515.218 1.519 -1.23706 0
M  V30 5341 H 513.798 -0.276841 -0.693807 0
M  V30 5342 H 516.46 -1.32803 -1.42652 0
M  V30 5343 H 515.556 -1.06918 -2.93215 0
M  V30 5344 N 515.857 1.33968 -0.830081 0
M  V30 5345 C 517.103 1.98773 -0.431394 0
M  V30 5346 C 517.458 1.64598 0.99626 0
M  V30 5347 O 516.751 0.911022 1.68555 0
M  V30 5348 C 516.945 3.52679 -0.57898 0
M  V30 5349 C 516.774 4.01807 -2.01943 0
M  V30 5350 C 515.544 4.30062 -2.65282 0
M  V30 5351 C 517.742 4.18663 -2.98707 0
M  V30 5352 N 515.724 4.65272 -4.00493 0
M  V30 5353 C 517.095 4.57133 -4.18843 0
M  V30 5354 C 519.15 4.00929 -2.95229 0
M  V30 5355 C 517.853 4.79723 -5.35965 0
M  V30 5356 C 519.879 4.2469 -4.11573 0
M  V30 5357 C 519.241 4.63454 -5.30462 0
M  V30 5358 H 515.34 0.75435 -0.206107 0
M  V30 5359 H 517.924 1.62247 -1.07629 0
M  V30 5360 H 516.095 3.88383 0.0360632 0
M  V30 5361 H 517.827 4.04412 -0.152596 0
M  V30 5362 H 514.582 4.21231 -2.16475 0
M  V30 5363 H 515.006 4.87101 -4.70172 0
M  V30 5364 H 519.648 3.70082 -2.04448 0
M  V30 5365 H 517.366 5.09434 -6.27297 0
M  V30 5366 H 520.952 4.12497 -4.10289 0
M  V30 5367 H 519.832 4.81476 -6.18992 0
M  V30 5368 N 517.335 0.585699 1.46312 0
M  V30 5369 C 518.563 0.0781299 2.06752 0
M  V30 5370 C 518.978 -1.22812 1.43396 0
M  V30 5371 O 518.335 -1.74318 0.540314 0
M  V30 5372 C 518.386 -0.0911927 3.61385 0
M  V30 5373 O 518.107 1.16336 4.22371 0
M  V30 5374 C 519.608 -0.632765 4.38761 0
M  V30 5375 H 516.828 0.0588188 0.668417 0
M  V30 5376 H 519.372 0.807218 1.87894 0
M  V30 5377 H 517.527 -0.770514 3.7966 0
M  V30 5378 H 517.941 0.979082 5.15281 0
M  V30 5379 H 519.415 -0.70041 5.47538 0
M  V30 5380 H 519.892 -1.65039 4.07012 0
M  V30 5381 H 520.498 0.0117856 4.25298 0
M  V30 5382 N 518.813 -1.54241 0.323641 0
M  V30 5383 C 519.776 -2.22997 -0.529602 0
M  V30 5384 C 520.776 -1.22345 -1.04347 0
M  V30 5385 O 521.966 -1.46924 -0.935889 0
M  V30 5386 C 519.098 -2.93409 -1.73562 0
M  V30 5387 H 520.291 -2.99815 0.0714518 0
M  V30 5388 H 517.844 -1.56121 0.0747258 0
M  V30 5389 H 518.579 -2.20729 -2.37591 0
M  V30 5390 H 518.364 -3.67217 -1.37456 0
M  V30 5391 H 519.854 -3.45794 -2.34128 0
M  V30 5392 N 520.291 -0.0518155 -1.57515 0
M  V30 5393 C 521.241 0.932017 -2.0808 0
M  V30 5394 C 522.225 1.27141 -0.986098 0
M  V30 5395 O 523.417 1.25373 -1.24943 0
M  V30 5396 C 520.546 2.20665 -2.62986 0
M  V30 5397 C 519.632 1.89462 -3.79427 0
M  V30 5398 N 520.023 1.28621 -4.89173 0
M  V30 5399 C 518.321 2.19327 -3.88345 0
M  V30 5400 C 519.022 1.15062 -5.70207 0
M  V30 5401 N 517.998 1.65372 -5.17835 0
M  V30 5402 H 521.8 0.456964 -2.90326 0
M  V30 5403 H 519.314 0.152619 -1.61681 0
M  V30 5404 H 521.311 2.92044 -2.97516 0
M  V30 5405 H 519.971 2.68776 -1.8218 0
M  V30 5406 H 520.982 0.958341 -5.08956 0
M  V30 5407 H 517.659 2.69955 -3.18482 0
M  V30 5408 H 519.049 0.678243 -6.68468 0
M  V30 5409 N 521.769 1.56035 0.221574 0
M  V30 5410 C 523.018 1.78245 0.944016 0
M  V30 5411 C 523.331 0.620371 1.85501 0
M  V30 5412 O 524.537 0.726103 2.6161 0
M  V30 5413 C 522.993 3.15659 1.7288 0
M  V30 5414 C 522.601 4.39591 0.863942 0
M  V30 5415 C 524.345 3.47195 2.44246 0
M  V30 5416 C 522.252 5.6803 1.64607 0
M  V30 5417 H 521.182 0.664547 0.356222 0
M  V30 5418 H 523.833 1.8243 0.197904 0
M  V30 5419 H 522.215 3.0565 2.51781 0
M  V30 5420 H 523.389 4.60655 0.115464 0
M  V30 5421 H 521.704 4.15572 0.262407 0
M  V30 5422 H 524.301 4.40381 3.03263 0
M  V30 5423 H 524.644 2.69693 3.1713 0
M  V30 5424 H 525.177 3.58533 1.72334 0
M  V30 5425 H 521.916 6.48425 0.960507 0
M  V30 5426 H 521.436 5.51027 2.36917 0
M  V30 5427 H 523.115 6.08203 2.20675 0
M  V30 5428 N 523.247 -0.488276 1.49845 0
M  V30 5429 C 524.18 -1.60651 1.62069 0
M  V30 5430 C 525.158 -1.5568 0.469308 0
M  V30 5431 O 526.342 -1.75553 0.686551 0
M  V30 5432 C 523.469 -2.99197 1.58741 0
M  V30 5433 C 522.515 -3.22385 2.79232 0
M  V30 5434 S 523.348 -3.04133 4.40753 0
M  V30 5435 C 524.504 -4.45052 4.4009 0
M  V30 5436 H 524.737 -1.50039 2.56662 0
M  V30 5437 H 522.27 -0.674371 1.38894 0
M  V30 5438 H 524.228 -3.79081 1.57506 0
M  V30 5439 H 522.889 -3.07213 0.654136 0
M  V30 5440 H 522.082 -4.23557 2.73159 0
M  V30 5441 H 521.684 -2.50245 2.77945 0
M  V30 5442 H 523.976 -5.37375 4.12594 0
M  V30 5443 H 524.919 -4.56172 5.41583 0
M  V30 5444 H 525.327 -4.26327 3.70008 0
M  V30 5445 N 524.725 -1.39134 -0.740242 0
M  V30 5446 C 525.635 -1.39697 -1.88473 0
M  V30 5447 C 526.651 -0.292403 -1.71526 0
M  V30 5448 O 527.827 -0.533021 -1.94219 0
M  V30 5449 C 524.892 -1.23382 -3.24003 0
M  V30 5450 C 523.953 -2.43763 -3.53381 0
M  V30 5451 C 523.186 -2.28216 -4.82445 0
M  V30 5452 O 523.409 -1.28288 -5.55786 0
M  V30 5453 O 522.343 -3.1709 -5.11603 0
M  V30 5454 H 526.169 -2.36159 -1.90952 0
M  V30 5455 H 523.754 -1.20194 -0.887346 0
M  V30 5456 H 525.636 -1.16395 -4.05006 0
M  V30 5457 H 524.311 -0.300121 -3.22306 0
M  V30 5458 H 523.218 -2.56325 -2.72485 0
M  V30 5459 H 524.551 -3.35808 -3.59852 0
M  V30 5460 N 526.204 0.969867 -1.24223 0
M  V30 5461 C 527.136 2.0669 -0.99055 0
M  V30 5462 C 528.149 1.62753 0.0392222 0
M  V30 5463 O 529.338 1.77403 -0.197561 0
M  V30 5464 C 526.438 3.35589 -0.472594 0
M  V30 5465 C 525.611 4.08444 -1.56499 0
M  V30 5466 C 524.67 5.15616 -1.05007 0
M  V30 5467 O 523.696 5.41911 -1.7413 0
M  V30 5468 N 524.898 5.80383 0.116641 0
M  V30 5469 H 527.663 2.28855 -1.93508 0
M  V30 5470 H 525.224 1.13733 -1.15223 0
M  V30 5471 H 527.216 4.04542 -0.112919 0
M  V30 5472 H 525.786 3.10311 0.377617 0
M  V30 5473 H 525.006 3.33798 -2.09696 0
M  V30 5474 H 526.294 4.53882 -2.29932 0
M  V30 5475 H 525.692 5.6142 0.694589 0
M  V30 5476 H 524.249 6.50462 0.417483 0
M  V30 5477 N 527.682 1.05563 1.17022 0
M  V30 5478 C 528.928 0.769074 1.87652 0
M  V30 5479 C 529.261 -0.702326 1.81055 0
M  V30 5480 O 528.536 -1.5139 1.22112 0
M  V30 5481 C 528.819 1.25492 3.37526 0
M  V30 5482 C 528.672 2.78953 3.52853 0
M  V30 5483 C 529.991 0.856919 4.31677 0
M  V30 5484 H 527.11 0.280854 0.681388 0
M  V30 5485 H 529.752 1.31027 1.37593 0
M  V30 5486 H 527.902 0.794516 3.80289 0
M  V30 5487 H 529.574 3.33146 3.19079 0
M  V30 5488 H 527.817 3.18046 2.95007 0
M  V30 5489 H 528.488 3.08011 4.58076 0
M  V30 5490 H 530.964 1.25334 3.96775 0
M  V30 5491 H 529.84 1.22443 5.35069 0
M  V30 5492 H 530.101 -0.238787 4.41455 0
M  V30 5493 N 529.16 -1.33526 0.837174 0
M  V30 5494 C 530.123 -2.27551 0.274421 0
M  V30 5495 C 531.123 -1.50886 -0.555881 0
M  V30 5496 O 532.313 -1.70227 -0.369918 0
M  V30 5497 C 529.445 -3.35332 -0.613605 0
M  V30 5498 H 530.638 -2.78837 1.10408 0
M  V30 5499 H 528.191 -1.439 0.610126 0
M  V30 5500 H 528.926 -2.89285 -1.46577 0
M  V30 5501 H 528.711 -3.92095 -0.0195341 0
M  V30 5502 H 530.201 -4.05433 -1.00068 0
M  V30 5503 N 530.638 -0.59345 -1.46 0
M  V30 5504 C 531.915 -0.0157933 -1.95594 0
M  V30 5505 C 532.295 1.44807 -1.53604 0
M  V30 5506 O 531.643 2.14342 -0.791824 0
M  V30 5507 C 531.853 -0.199081 -3.48432 0
M  V30 5508 C 533.201 -0.0724943 -4.24538 0
M  V30 5509 O 534.225 -0.128469 -3.55968 0
M  V30 5510 O 533.084 0.0542426 -5.46473 0
M  V30 5511 H 530.178 0.043749 -0.825842 0
M  V30 5512 H 532.724 -0.662522 -1.56233 0
M  V30 5513 H 531.496 -1.21631 -3.71916 0
M  V30 5514 H 531.119 0.483576 -3.94648 0
M  V30 5515 N 532.116 1.54067 -0.331816 0
M  V30 5516 C 533.064 2.26105 0.54582 0
M  V30 5517 C 534.058 1.27816 1.11173 0
M  V30 5518 O 535.264 1.45565 1.05882 0
M  V30 5519 H 531.639 0.726363 0.194683 0
M  V30 5520 H 533.61 2.98282 -0.083931 0
M  V30 5521 C 532.359 3.03814 1.69092 0
M  V30 5522 H 531.682 3.79269 1.26473 0
M  V30 5523 H 533.122 3.57453 2.28043 0
M  V30 5524 C 531.581 2.12606 2.61343 0
M  V30 5525 O 532.111 1.71437 3.6328 0
M  V30 5526 N 530.317 1.77925 2.29763 0
M  V30 5527 H 529.864 2.11602 1.46909 0
M  V30 5528 H 529.822 1.1718 2.91747 0
M  V30 5529 N 533.594 0.0601682 1.57485 0
M  V30 5530 C 534.557 -0.896373 2.10945 0
M  V30 5531 C 535.557 -1.23402 1.03095 0
M  V30 5532 O 536.747 -1.16921 1.29132 0
M  V30 5533 C 533.879 -2.20346 2.60116 0
M  V30 5534 H 535.072 -0.432778 2.96761 0
M  V30 5535 H 532.625 -0.188372 1.55161 0
M  V30 5536 H 533.36 -2.71268 1.7772 0
M  V30 5537 H 533.145 -1.9714 3.38937 0
M  V30 5538 H 534.635 -2.88846 3.01592 0
M  V30 5539 N 535.072 -1.5615 -0.213296 0
M  V30 5540 C 536.002 -1.96109 -1.26742 0
M  V30 5541 C 536.983 -0.830448 -1.48451 0
M  V30 5542 O 538.168 -1.09339 -1.60495 0
M  V30 5543 C 535.298 -2.28492 -2.61551 0
M  V30 5544 C 534.252 -3.44124 -2.54485 0
M  V30 5545 C 533.578 -3.62134 -3.93399 0
M  V30 5546 C 534.878 -4.78855 -2.08556 0
M  V30 5547 H 536.572 -2.84412 -0.935434 0
M  V30 5548 H 534.118 -1.36836 -0.44854 0
M  V30 5549 H 536.071 -2.55039 -3.3546 0
M  V30 5550 H 534.795 -1.37052 -2.96453 0
M  V30 5551 H 533.454 -3.17639 -1.83033 0
M  V30 5552 H 533.102 -2.68055 -4.25623 0
M  V30 5553 H 532.802 -4.39913 -3.89551 0
M  V30 5554 H 534.326 -3.91038 -4.68958 0
M  V30 5555 H 535.74 -5.04552 -2.72213 0
M  V30 5556 H 534.137 -5.59975 -2.1575 0
M  V30 5557 H 535.207 -4.73657 -1.03811 0
M  V30 5558 N 536.55 0.480323 -1.50102 0
M  V30 5559 C 537.799 1.22979 -1.59872 0
M  V30 5560 C 538.112 1.93282 -0.30022 0
M  V30 5561 O 539.318 2.70086 -0.276709 0
M  V30 5562 C 537.774 2.23408 -2.82164 0
M  V30 5563 C 537.382 1.5895 -4.18854 0
M  V30 5564 C 539.126 2.99055 -3.01275 0
M  V30 5565 C 537.033 2.57611 -5.32344 0
M  V30 5566 H 535.963 0.462707 -0.59533 0
M  V30 5567 H 538.614 0.501291 -1.7652 0
M  V30 5568 H 536.996 2.99511 -2.59055 0
M  V30 5569 H 538.17 0.887 -4.52182 0
M  V30 5570 H 536.485 0.956191 -4.05273 0
M  V30 5571 H 539.082 3.72876 -3.83233 0
M  V30 5572 H 539.425 3.57897 -2.12639 0
M  V30 5573 H 539.958 2.30066 -3.24522 0
M  V30 5574 H 536.697 2.03521 -6.23105 0
M  V30 5575 H 536.217 3.26041 -5.03445 0
M  V30 5576 H 537.896 3.19627 -5.62537 0
M  V30 5577 N 538.028 1.39524 0.732853 0
M  V30 5578 C 539.444 1.21176 1.03868 0
M  V30 5579 C 539.644 0.0748448 2.01361 0
M  V30 5580 O 538.7 -0.57281 2.45917 0
M  V30 5581 C 540.013 2.54667 1.59892 0
M  V30 5582 C 541.561 2.6153 1.71962 0
M  V30 5583 C 542.036 3.95248 2.31394 0
M  V30 5584 N 543.527 3.96899 2.38801 0
M  V30 5585 C 544.262 4.97138 2.85729 0
M  V30 5586 N 543.758 6.07775 3.32537 0
M  V30 5587 N 545.551 4.84516 2.84957 0
M  V30 5588 H 537.702 2.12225 0.086304 0
M  V30 5589 H 539.965 0.942614 0.100907 0
M  V30 5590 H 539.671 3.38423 0.95721 0
M  V30 5591 H 539.545 2.74538 2.58668 0
M  V30 5592 H 541.932 1.78156 2.35254 0
M  V30 5593 H 542.013 2.45507 0.718327 0
M  V30 5594 H 541.657 4.79054 1.68729 0
M  V30 5595 H 541.587 4.08593 3.32204 0
M  V30 5596 H 544.078 3.16998 2.05719 0
M  V30 5597 H 544.391 6.8017 3.66862 0
M  V30 5598 H 542.736 6.11366 3.30541 0
M  V30 5599 H 545.927 3.97185 2.47713 0
M  V30 5600 H 546.1 5.62783 3.21215 0
M  V30 5601 N 539.506 -0.963266 1.24736 0
M  V30 5602 C 540.917 -1.52145 1.08207 0
M  V30 5603 C 541.268 -1.93142 -0.345061 0
M  V30 5604 O 540.393 -1.77769 -1.23399 0
M  V30 5605 C 540.988 -2.76486 1.95808 0
M  V30 5606 C 539.547 -3.28646 1.8349 0
M  V30 5607 C 538.694 -2.01529 1.90476 0
M  V30 5608 H 541.645 -0.781083 1.38148 0
M  V30 5609 H 541.666 -3.49986 1.49297 0
M  V30 5610 H 541.178 -2.46617 2.99669 0
M  V30 5611 H 539.279 -3.63357 0.824787 0
M  V30 5612 H 539.392 -3.97246 2.67829 0
M  V30 5613 H 537.756 -2.16442 1.34258 0
M  V30 5614 H 538.539 -1.7402 2.95926 0
M  V30 5615 N 540.985 -1.06182 -1.16461 0
M  V30 5616 C 541.915 -0.692861 -2.22984 0
M  V30 5617 C 542.896 0.314122 -1.67174 0
M  V30 5618 O 544.081 0.189499 -1.93273 0
M  V30 5619 C 541.211 -0.07732 -3.47214 0
M  V30 5620 C 540.165 -1.01015 -4.15909 0
M  V30 5621 C 539.491 -0.257973 -5.34077 0
M  V30 5622 C 540.791 -2.33868 -4.67015 0
M  V30 5623 H 542.485 -1.58343 -2.54102 0
M  V30 5624 H 540.031 -0.76279 -1.22137 0
M  V30 5625 H 541.984 0.19266 -4.20959 0
M  V30 5626 H 540.708 0.848254 -3.15392 0
M  V30 5627 H 539.367 -1.26486 -3.44088 0
M  V30 5628 H 539.015 0.670684 -4.98509 0
M  V30 5629 H 538.715 -0.879638 -5.80979 0
M  V30 5630 H 540.239 0.00448788 -6.106 0
M  V30 5631 H 541.653 -2.1279 -5.32347 0
M  V30 5632 H 540.05 -2.91522 -5.24533 0
M  V30 5633 H 541.12 -2.97019 -3.83286 0
M  V30 5634 N 542.463 1.3308 -0.844243 0
M  V30 5635 C 543.688 2.02341 -0.455282 0
M  V30 5636 C 544.113 1.6308 0.93737 0
M  V30 5637 O 543.471 0.826118 1.61385 0
M  V30 5638 C 543.519 3.55743 -0.58988 0
M  V30 5639 O 542.623 4.1063 0.38166 0
M  V30 5640 H 541.964 0.637898 -0.184343 0
M  V30 5641 H 544.494 1.6986 -1.14056 0
M  V30 5642 H 544.504 4.05243 -0.473522 0
M  V30 5643 H 543.179 3.83662 -1.60549 0
M  V30 5644 H 541.756 3.72236 0.22241 0
M  V30 5645 N 543.941 0.601185 1.45683 0
M  V30 5646 C 544.851 -0.123395 2.34275 0
M  V30 5647 C 545.867 -0.86702 1.5086 0
M  V30 5648 O 547.043 -0.826049 1.8368 0
M  V30 5649 C 544.108 -1.11237 3.2837 0
M  V30 5650 C 543.169 -0.371405 4.2769 0
M  V30 5651 C 542.402 -1.31327 5.1729 0
M  V30 5652 O 542.625 -2.55078 5.10188 0
M  V30 5653 O 541.559 -0.813811 5.96373 0
M  V30 5654 H 545.385 0.604483 2.97623 0
M  V30 5655 H 542.97 0.361477 1.44961 0
M  V30 5656 H 544.852 -1.68214 3.8637 0
M  V30 5657 H 543.527 -1.82139 2.67595 0
M  V30 5658 H 542.434 0.24067 3.73325 0
M  V30 5659 H 543.767 0.296998 4.91303 0
M  V30 5660 N 545.419 -1.53889 0.339982 0
M  V30 5661 C 546.649 -2.04973 -0.258738 0
M  V30 5662 C 547.057 -1.21485 -1.45045 0
M  V30 5663 O 546.4 -0.2422 -1.82096 0
M  V30 5664 C 546.462 -3.51783 -0.740853 0
M  V30 5665 C 546.126 -4.55802 0.330734 0
M  V30 5666 C 547.123 -5.06512 1.17226 0
M  V30 5667 C 544.808 -4.99966 0.483637 0
M  V30 5668 C 546.802 -5.99963 2.15227 0
M  V30 5669 C 544.489 -5.93229 1.46704 0
M  V30 5670 C 545.487 -6.43115 2.29981 0
M  V30 5671 O 545.175 -7.34545 3.26649 0
M  V30 5672 H 544.907 -0.673807 -0.0544037 0
M  V30 5673 H 547.461 -1.99492 0.489107 0
M  V30 5674 H 545.691 -3.54717 -1.53988 0
M  V30 5675 H 547.38 -3.85857 -1.25973 0
M  V30 5676 H 548.146 -4.73158 1.0652 0
M  V30 5677 H 544.025 -4.6074 -0.15471 0
M  V30 5678 H 547.569 -6.38825 2.80265 0
M  V30 5679 H 543.466 -6.25998 1.57468 0
M  V30 5680 H 544.234 -7.52468 3.22078 0
M  V30 5681 N 546.897 -0.0685191 -1.57451 0
M  V30 5682 C 547.845 0.917577 -2.13736 0
M  V30 5683 C 548.839 1.31049 -1.07344 0
M  V30 5684 O 550.045 1.28811 -1.25728 0
M  V30 5685 H 546.42 0.313835 -0.683382 0
M  V30 5686 H 548.391 0.417903 -2.95459 0
M  V30 5687 C 547.14 2.17686 -2.71123 0
M  V30 5688 H 546.463 1.88336 -3.52661 0
M  V30 5689 H 547.903 2.84803 -3.14107 0
M  V30 5690 C 546.362 2.9332 -1.65726 0
M  V30 5691 O 546.892 3.86901 -1.08031 0
M  V30 5692 N 545.098 2.56367 -1.36837 0
M  V30 5693 H 544.645 1.80341 -1.83943 0
M  V30 5694 H 544.603 3.07276 -0.665501 0
M  V30 5695 N 548.375 1.56261 0.205012 0
M  V30 5696 C 549.623 1.79684 0.925096 0
M  V30 5697 C 549.944 0.63989 1.84202 0
M  V30 5698 O 549.214 -0.342345 1.92885 0
M  V30 5699 H 547.794 0.662774 0.344587 0
M  V30 5700 H 550.456 1.93734 0.212899 0
M  V30 5701 H 549.552 2.72467 1.52211 0
M  V30 5702 N 549.853 -0.472356 1.50355 0
M  V30 5703 C 551.264 -1.05326 1.54154 0
M  V30 5704 C 551.615 -1.93155 0.344303 0
M  V30 5705 O 550.74 -2.09479 -0.542928 0
M  V30 5706 C 551.335 -1.91691 2.79356 0
M  V30 5707 C 549.894 -2.44892 2.8584 0
M  V30 5708 C 549.041 -1.23205 2.48426 0
M  V30 5709 H 551.992 -0.255027 1.56637 0
M  V30 5710 H 552.013 -2.76742 2.6114 0
M  V30 5711 H 551.525 -1.27741 3.66475 0
M  V30 5712 H 549.626 -3.12399 2.0307 0
M  V30 5713 H 549.739 -2.80086 3.88701 0
M  V30 5714 H 548.103 -1.56643 2.00836 0
M  V30 5715 H 548.886 -0.609194 3.37852 0
M  V30 5716 N 551.331 -1.39911 -0.725443 0
M  V30 5717 C 552.241 -1.41688 -1.8698 0
M  V30 5718 C 553.257 -0.310579 -1.71206 0
M  V30 5719 O 554.433 -0.55359 -1.93642 0
M  V30 5720 C 551.498 -1.26811 -3.22676 0
M  V30 5721 C 550.559 -2.47497 -3.50776 0
M  V30 5722 C 549.792 -2.3332 -4.79997 0
M  V30 5723 O 550.015 -1.34175 -5.54394 0
M  V30 5724 O 548.949 -3.22498 -5.08211 0
M  V30 5725 H 552.775 -2.38171 -1.88436 0
M  V30 5726 H 550.36 -1.21128 -0.874548 0
M  V30 5727 H 552.242 -1.20684 -4.03749 0
M  V30 5728 H 550.917 -0.334289 -3.21969 0
M  V30 5729 H 549.824 -2.59201 -2.69751 0
M  V30 5730 H 551.157 -3.39606 -3.5627 0
M  V30 5731 N 552.809 0.956637 -1.25245 0
M  V30 5732 C 553.741 2.05628 -1.01242 0
M  V30 5733 C 554.754 1.62785 0.0219579 0
M  V30 5734 O 555.943 1.77184 -0.216365 0
M  V30 5735 C 553.043 3.35069 -0.508161 0
M  V30 5736 C 552.216 4.06761 -1.60823 0
M  V30 5737 C 551.275 5.14473 -1.1047 0
M  V30 5738 O 550.301 5.40033 -1.79868 0
M  V30 5739 N 551.503 5.80474 0.0550773 0
M  V30 5740 H 554.268 2.2679 -1.95925 0
M  V30 5741 H 551.829 1.12505 -1.16423 0
M  V30 5742 H 553.821 4.044 -0.155819 0
M  V30 5743 H 552.391 3.10694 0.344683 0
M  V30 5744 H 551.611 3.31555 -2.13224 0
M  V30 5745 H 552.899 4.51418 -2.34733 0
M  V30 5746 H 552.297 5.62125 0.635004 0
M  V30 5747 H 550.854 6.50868 0.348469 0
M  V30 5748 N 554.287 1.06798 1.15896 0
M  V30 5749 C 555.703 0.792423 1.38538 0
M  V30 5750 C 555.903 -0.60592 1.92174 0
M  V30 5751 O 554.959 -1.36561 2.12385 0
M  V30 5752 C 556.272 1.86157 2.36149 0
M  V30 5753 C 557.82 1.88567 2.49823 0
M  V30 5754 C 558.295 2.9455 3.5072 0
M  V30 5755 N 559.786 2.93616 3.58251 0
M  V30 5756 C 560.521 3.72267 4.36125 0
M  V30 5757 N 560.017 4.60751 5.17379 0
M  V30 5758 N 561.81 3.60637 4.31158 0
M  V30 5759 H 553.961 1.96993 0.794198 0
M  V30 5760 H 556.224 0.853942 0.411688 0
M  V30 5761 H 555.93 2.86603 2.03843 0
M  V30 5762 H 555.804 1.71692 3.3586 0
M  V30 5763 H 558.191 0.887765 2.8143 0
M  V30 5764 H 558.272 2.0711 1.5013 0
M  V30 5765 H 557.916 3.94537 3.19849 0
M  V30 5766 H 557.846 2.73255 4.50155 0
M  V30 5767 H 560.337 2.29472 3.00252 0
M  V30 5768 H 560.65 5.17408 5.74028 0
M  V30 5769 H 558.995 4.64803 5.16704 0
M  V30 5770 H 562.186 2.90892 3.66742 0
M  V30 5771 H 562.359 4.22176 4.91601 0
M  V30 5772 N 555.766 -1.3263 0.851289 0
M  V30 5773 C 556.698 -2.27824 0.250757 0
M  V30 5774 C 557.711 -1.52285 -0.575598 0
M  V30 5775 O 558.9 -1.73946 -0.400638 0
M  V30 5776 C 556 -3.3232 -0.664571 0
M  V30 5777 C 555.173 -4.37221 0.125187 0
M  V30 5778 C 554.232 -5.21314 -0.715385 0
M  V30 5779 O 553.258 -5.69002 -0.150111 0
M  V30 5780 N 554.46 -5.43823 -2.03069 0
M  V30 5781 H 557.225 -2.79997 1.06873 0
M  V30 5782 H 554.786 -1.45455 0.710943 0
M  V30 5783 H 556.778 -3.85486 -1.23216 0
M  V30 5784 H 555.348 -2.80331 -1.38323 0
M  V30 5785 H 554.568 -3.84384 0.874199 0
M  V30 5786 H 555.856 -5.04399 0.667774 0
M  V30 5787 H 555.254 -5.06803 -2.51332 0
M  V30 5788 H 553.811 -5.99998 -2.54648 0
M  V30 5789 N 557.244 -0.608902 -1.45362 0
M  V30 5790 C 558.49 -0.104762 -2.02529 0
M  V30 5791 C 558.823 1.26191 -1.47613 0
M  V30 5792 O 558.098 1.8327 -0.65134 0
M  V30 5793 C 558.381 -0.0672661 -3.60037 0
M  V30 5794 C 558.234 -1.4647 -4.25284 0
M  V30 5795 C 559.553 0.619877 -4.35713 0
M  V30 5796 H 556.672 -0.0395438 -0.735938 0
M  V30 5797 H 559.314 -0.781126 -1.73201 0
M  V30 5798 H 557.464 0.50871 -3.85155 0
M  V30 5799 H 559.136 -2.08785 -4.11347 0
M  V30 5800 H 557.379 -2.02502 -3.83634 0
M  V30 5801 H 558.05 -1.39069 -5.34195 0
M  V30 5802 H 560.526 0.130297 -4.15896 0
M  V30 5803 H 559.402 0.615224 -5.45441 0
M  V30 5804 H 559.663 1.68621 -4.0868 0
M  V30 5805 N 558.722 1.53707 -0.348139 0
M  V30 5806 C 560.133 1.86213 0.134797 0
M  V30 5807 C 560.484 1.26925 1.49614 0
M  V30 5808 O 559.609 0.584573 2.08355 0
M  V30 5809 C 560.204 3.37866 0.251371 0
M  V30 5810 C 558.763 3.70233 0.678543 0
M  V30 5811 C 557.91 2.76683 -0.184925 0
M  V30 5812 H 560.861 1.48204 -0.567571 0
M  V30 5813 H 560.882 3.64908 1.07806 0
M  V30 5814 H 560.394 3.80988 -0.739581 0
M  V30 5815 H 558.495 3.32659 1.67835 0
M  V30 5816 H 558.608 4.76836 0.465251 0
M  V30 5817 H 556.972 2.52374 0.343465 0
M  V30 5818 H 557.755 3.22635 -1.1731 0
M  V30 5819 O 560.239 0.216617 1.60041 0
M  V30 5820 H 560.93 -0.364805 1.90234 0
M  V30 END ATOM
M  V30 BEGIN BOND
M  V30 END BOND
M  V30 END CTAB
M  END
$$$$
