drugbank_target|O34450 N-acetylglucosamine-6-phosphate deacetylase (DB02657)
 OpenBabel12092119583D

  0  0  0     0  0            999 V3000
M  V30 BEGIN CTAB
M  V30 COUNTS 5984 6036 0 0 0
M  V30 BEGIN ATOM
M  V30 1 H -0.908 1.98254 -0.117106 0
M  V30 2 N 0 1.576 0 0
M  V30 3 C 0.933 2.03868 1.02534 0
M  V30 4 C 1.911 0.928543 1.3348 0
M  V30 5 O 3.095 1.19667 1.45644 0
M  V30 6 C 0.222 2.43627 2.35294 0
M  V30 7 C -0.732 3.65373 2.2001 0
M  V30 8 S 0.101 5.13292 1.52614 0
M  V30 9 C 1.257 5.56322 2.86805 0
M  V30 10 H 1.49 2.90518 0.631377 0
M  V30 11 H -0.977 1.52953 0.210867 0
M  V30 12 H 0.981 2.67203 3.11629 0
M  V30 13 H -0.358 1.57376 2.7183 0
M  V30 14 H -1.165 3.90944 3.18086 0
M  V30 15 H -1.563 3.418 1.51819 0
M  V30 16 H 0.729 5.58782 3.83104 0
M  V30 17 H 1.672 6.56266 2.65933 0
M  V30 18 H 2.08 4.83886 2.90714 0
M  V30 19 N 1.4781 -0.272755 1.55222 0
M  V30 20 C 2.4411 -1.32041 1.87344 0
M  V30 21 C 3.4411 -1.42342 0.74803 0
M  V30 22 O 4.6311 -1.41488 1.0162 0
M  V30 23 C 1.7631 -2.70173 2.07893 0
M  V30 24 H 2.9561 -1.04789 2.80997 0
M  V30 25 H 0.5091 -0.51083 1.47717 0
M  V30 26 H 1.2441 -3.02605 1.16622 0
M  V30 27 H 1.0291 -2.64082 2.89833 0
M  V30 28 H 2.5191 -3.45869 2.34017 0
M  V30 29 N 2.9562 -1.48159 -0.537278 0
M  V30 30 C 3.8662 -1.64807 -1.6696 0
M  V30 31 C 4.8822 -0.530651 -1.65711 0
M  V30 32 O 6.0582 -0.800784 -1.84796 0
M  V30 33 C 3.1232 -1.67708 -3.03438 0
M  V30 34 C 2.1842 -2.91025 -3.156 0
M  V30 35 C 1.4172 -2.93778 -4.45567 0
M  V30 36 O 1.6402 -2.05153 -5.3223 0
M  V30 37 O 0.5742 -3.85868 -4.61941 0
M  V30 38 H 4.4002 -2.6066 -1.55853 0
M  V30 39 H 1.9852 -1.31475 -0.709549 0
M  V30 40 H 3.8672 -1.7218 -3.84619 0
M  V30 41 H 2.5422 -0.750278 -3.14885 0
M  V30 42 H 1.4492 -2.92089 -2.33741 0
M  V30 43 H 2.7822 -3.83065 -3.09066 0
M  V30 44 N 4.4343 0.785586 -1.36625 0
M  V30 45 C 5.6593 1.57963 -1.34397 0
M  V30 46 C 6.0843 1.87964 0.071526 0
M  V30 47 O 5.4423 1.48182 1.0446 0
M  V30 48 C 5.4903 2.87511 -2.17646 0
M  V30 49 O 4.5943 3.81281 -1.57158 0
M  V30 50 H 3.9353 0.479014 -0.459828 0
M  V30 51 H 6.4653 0.973411 -1.79961 0
M  V30 52 H 6.4753 3.36745 -2.30362 0
M  V30 53 H 5.1503 2.65002 -3.20541 0
M  V30 54 H 3.7273 3.39885 -1.53403 0
M  V30 55 N 5.9124 1.20967 1.01018 0
M  V30 56 C 6.8424 0.988272 2.11555 0
M  V30 57 C 7.8234 -0.0849778 1.69888 0
M  V30 58 O 9.0084 0.0738202 1.9406 0
M  V30 59 C 6.1384 0.546528 3.42973 0
M  V30 60 C 5.0924 1.56375 3.9841 0
M  V30 61 C 4.4184 0.97842 5.25672 0
M  V30 62 C 5.7184 2.94922 4.31066 0
M  V30 63 H 7.4124 1.91276 2.30334 0
M  V30 64 H 4.9584 0.921073 1.1069 0
M  V30 65 H 6.9114 0.378839 4.19694 0
M  V30 66 H 5.6354 -0.413598 3.23971 0
M  V30 67 H 4.2944 1.71891 3.23804 0
M  V30 68 H 3.9424 0.0101688 5.02999 0
M  V30 69 H 3.6424 1.65784 5.63728 0
M  V30 70 H 5.1664 0.821939 6.05043 0
M  V30 71 H 6.5804 2.8288 4.9865 0
M  V30 72 H 4.9774 3.5983 4.80253 0
M  V30 73 H 6.0474 3.4616 3.39561 0
M  V30 74 N 7.3905 -1.2043 1.01659 0
M  V30 75 C 8.3205 -2.25466 0.607226 0
M  V30 76 C 9.3015 -1.65853 -0.377716 0
M  V30 77 O 10.4865 -1.92409 -0.263149 0
M  V30 78 C 7.6165 -3.47256 -0.0552949 0
M  V30 79 C 6.5705 -4.19462 0.850632 0
M  V30 80 C 5.8965 -5.34673 0.0538859 0
M  V30 81 C 7.1965 -4.75603 2.15868 0
M  V30 82 H 8.8905 -2.59962 1.48526 0
M  V30 83 H 6.4365 -1.2496 0.715605 0
M  V30 84 H 8.3895 -4.19917 -0.353233 0
M  V30 85 H 7.1135 -3.11924 -0.968045 0
M  V30 86 H 5.7725 -3.48667 1.13257 0
M  V30 87 H 5.4205 -4.95585 -0.860514 0
M  V30 88 H 5.1205 -5.83913 0.657192 0
M  V30 89 H 6.6445 -6.10138 -0.237598 0
M  V30 90 H 8.0585 -5.40083 1.92311 0
M  V30 91 H 6.4555 -5.3528 2.71284 0
M  V30 92 H 7.5255 -3.94346 2.82169 0
M  V30 93 N 8.8686 -0.792821 -1.36206 0
M  V30 94 C 10.1176 -0.363353 -1.984 0
M  V30 95 C 10.4306 1.07172 -1.63626 0
M  V30 96 O 11.6366 1.60362 -2.19081 0
M  V30 97 C 10.0926 -0.59872 -3.54885 0
M  V30 98 C 9.7006 -2.04543 -3.9858 0
M  V30 99 C 11.4446 -0.233926 -4.23855 0
M  V30 100 C 9.3516 -2.22727 -5.47856 0
M  V30 101 H 8.2816 -0.13212 -0.742334 0
M  V30 102 H 10.9326 -0.974935 -1.55458 0
M  V30 103 H 9.3146 0.0826222 -3.95914 0
M  V30 104 H 10.4886 -2.76345 -3.68741 0
M  V30 105 H 8.8036 -2.36879 -3.42458 0
M  V30 106 H 11.4006 -0.348027 -5.33566 0
M  V30 107 H 11.7436 0.818351 -4.08177 0
M  V30 108 H 12.2766 -0.868639 -3.882 0
M  V30 109 H 9.0156 -3.2635 -5.68486 0
M  V30 110 H 8.5356 -1.55434 -5.7931 0
M  V30 111 H 10.2146 -2.03607 -6.14128 0
M  V30 112 N 10.3467 1.47872 -0.545128 0
M  V30 113 C 11.2937 2.29849 0.2093 0
M  V30 114 C 12.2637 1.38313 0.919707 0
M  V30 115 O 13.4487 1.67277 0.917772 0
M  V30 116 C 10.5887 3.22019 1.24088 0
M  V30 117 C 9.7017 4.2864 0.537778 0
M  V30 118 C 8.8367 5.07973 1.5536 0
M  V30 119 C 7.8757 6.06381 0.8348 0
M  V30 120 N 7.0127 6.78717 1.79688 0
M  V30 121 H 11.8527 2.93845 -0.49591 0
M  V30 122 H 9.3897 1.44848 -0.256389 0
M  V30 123 H 11.3477 3.73868 1.85144 0
M  V30 124 H 9.9777 2.59914 1.91428 0
M  V30 125 H 9.0297 3.7994 -0.187046 0
M  V30 126 H 10.3417 4.98793 -0.0258907 0
M  V30 127 H 9.4957 5.63912 2.23803 0
M  V30 128 H 8.2347 4.37693 2.15118 0
M  V30 129 H 7.2397 5.49631 0.136388 0
M  V30 130 H 8.4647 6.78665 0.24313 0
M  V30 131 H 6.4107 6.11177 2.38326 0
M  V30 132 H 6.3277 7.44998 1.28505 0
M  V30 133 H 7.5957 7.39237 2.47282 0
M  V30 134 N 11.8248 0.280983 1.55075 0
M  V30 135 C 13.1018 -0.386207 1.91749 0
M  V30 136 C 13.4818 -1.73264 1.20594 0
M  V30 137 O 12.8298 -2.26034 0.334784 0
M  V30 138 C 13.0398 -0.520687 3.45094 0
M  V30 139 C 14.3878 -0.800865 4.16979 0
M  V30 140 O 15.4118 -0.605271 3.5102 0
M  V30 141 O 14.2708 -1.1753 5.33712 0
M  V30 142 H 11.3648 -0.212408 0.799257 0
M  V30 143 H 13.9108 0.327568 1.66509 0
M  V30 144 H 12.6828 0.426633 3.88967 0
M  V30 145 H 12.3058 -1.2837 3.76307 0
M  V30 146 N 13.3029 -1.57598 0.00835791 0
M  V30 147 C 14.5519 -1.90107 -0.673968 0
M  V30 148 C 14.8649 -0.884275 -1.7447 0
M  V30 149 O 16.0709 -1.09987 -2.48224 0
M  V30 150 C 14.5269 -3.37497 -1.24995 0
M  V30 151 C 14.1349 -4.47491 -0.2136 0
M  V30 152 C 15.8789 -3.79104 -1.90999 0
M  V30 153 C 13.7859 -5.85963 -0.80005 0
M  V30 154 H 12.7159 -0.709393 -0.255495 0
M  V30 155 H 15.3669 -1.83365 0.0702693 0
M  V30 156 H 13.7489 -3.39102 -2.04513 0
M  V30 157 H 14.9229 -4.57414 0.557596 0
M  V30 158 H 13.2379 -4.14956 0.346474 0
M  V30 159 H 15.8349 -4.79901 -2.35795 0
M  V30 160 H 16.1779 -3.1306 -2.74407 0
M  V30 161 H 16.7109 -3.79833 -1.18203 0
M  V30 162 H 13.4499 -6.555 -0.00456708 0
M  V30 163 H 12.9699 -5.79687 -1.54021 0
M  V30 164 H 14.6489 -6.33884 -1.29615 0
M  V30 165 N 14.781 0.264519 -1.55364 0
M  V30 166 C 15.744 1.31046 -1.88042 0
M  V30 167 C 16.744 1.41943 -0.755569 0
M  V30 168 O 17.934 1.40947 -1.02369 0
M  V30 169 C 15.066 2.69067 -2.09323 0
M  V30 170 H 16.259 1.03297 -2.81549 0
M  V30 171 H 13.812 0.502989 -1.47986 0
M  V30 172 H 14.547 3.01982 -1.18226 0
M  V30 173 H 14.332 2.62542 -2.91229 0
M  V30 174 H 15.822 3.44623 -2.35848 0
M  V30 175 N 16.2591 1.48442 0.529413 0
M  V30 176 C 17.5081 1.55742 1.28169 0
M  V30 177 C 17.8211 0.236511 1.94165 0
M  V30 178 O 19.0271 0.187761 2.7085 0
M  V30 179 C 17.4831 2.74667 2.32564 0
M  V30 180 C 17.0911 4.13402 1.72636 0
M  V30 181 C 18.8351 2.9128 3.08798 0
M  V30 182 C 16.7421 5.23587 2.74975 0
M  V30 183 H 15.6721 0.579796 0.48203 0
M  V30 184 H 18.3231 1.74776 0.559056 0
M  V30 185 H 16.7051 2.49067 3.07866 0
M  V30 186 H 17.8791 4.49022 1.03519 0
M  V30 187 H 16.1941 4.0191 1.08892 0
M  V30 188 H 18.7911 3.70767 3.85274 0
M  V30 189 H 19.1341 2.00757 3.64695 0
M  V30 190 H 19.6671 3.16782 2.40611 0
M  V30 191 H 16.4061 6.16076 2.23897 0
M  V30 192 H 15.9261 4.92454 3.42417 0
M  V30 193 H 17.6051 5.51724 3.37949 0
M  V30 194 N 17.7372 -0.778329 1.37039 0
M  V30 195 C 18.9832 -1.53892 1.32079 0
M  V30 196 C 19.3162 -1.9396 -0.0965386 0
M  V30 197 O 18.5912 -1.63568 -1.05242 0
M  V30 198 C 18.8742 -2.80847 2.25382 0
M  V30 199 C 18.7272 -2.47076 3.75864 0
M  V30 200 C 20.0462 -3.82741 2.1725 0
M  V30 201 H 17.1652 -0.558303 0.48111 0
M  V30 202 H 19.8072 -0.893397 1.67685 0
M  V30 203 H 17.9572 -3.35931 1.95148 0
M  V30 204 H 19.6292 -1.97957 4.16666 0
M  V30 205 H 17.8722 -1.79863 3.94755 0
M  V30 206 H 18.5432 -3.37798 4.36574 0
M  V30 207 H 21.0192 -3.37133 2.43887 0
M  V30 208 H 19.8952 -4.69303 2.84686 0
M  V30 209 H 20.1562 -4.2652 1.16331 0
M  V30 210 N 19.2153 -1.21501 -1.00376 0
M  V30 211 C 20.4433 -1.059 -1.77744 0
M  V30 212 C 20.8583 0.391125 -1.84704 0
M  V30 213 O 20.2153 1.27133 -1.30933 0
M  V30 214 C 20.2663 -1.65111 -3.21591 0
M  V30 215 O 19.9873 -3.0445 -3.15027 0
M  V30 216 C 21.4883 -1.54637 -4.15454 0
M  V30 217 H 18.7083 -0.371825 -0.558558 0
M  V30 218 H 21.2523 -1.60865 -1.26264 0
M  V30 219 H 19.4073 -1.14235 -3.70175 0
M  V30 220 H 19.8213 -3.3278 -4.0541 0
M  V30 221 H 21.2953 -2.00808 -5.14179 0
M  V30 222 H 21.7723 -0.501022 -4.36333 0
M  V30 223 H 22.3783 -2.04767 -3.72761 0
M  V30 224 N 20.6934 1.19889 -1.02296 0
M  V30 225 C 21.6034 2.26571 -0.608508 0
M  V30 226 C 22.6194 1.70299 0.356964 0
M  V30 227 O 23.7954 2.00235 0.216326 0
M  V30 228 C 20.8604 3.46677 0.0402814 0
M  V30 229 C 19.9214 4.18153 -0.97194 0
M  V30 230 C 19.1544 5.32525 -0.354016 0
M  V30 231 O 19.3774 5.64112 0.844604 0
M  V30 232 O 18.3114 5.92242 -1.07391 0
M  V30 233 H 22.1374 2.64251 -1.49684 0
M  V30 234 H 19.7224 1.26629 -0.792809 0
M  V30 235 H 21.6044 4.19475 0.402324 0
M  V30 236 H 20.2794 3.10858 0.902707 0
M  V30 237 H 19.1864 3.47499 -1.38546 0
M  V30 238 H 20.5194 4.57927 -1.80454 0
M  V30 239 N 22.1715 0.800033 1.35784 0
M  V30 240 C 23.1195 0.193851 2.31791 0
M  V30 241 C 24.1135 -0.652744 1.56319 0
M  V30 242 O 25.3195 -0.546641 1.71499 0
M  V30 243 H 21.6945 0.04392 0.750716 0
M  V30 244 H 23.6655 1.01883 2.80468 0
M  V30 245 C 22.4145 -0.648338 3.41602 0
M  V30 246 H 21.7375 -0.00624665 3.998 0
M  V30 247 H 23.1775 -1.03898 4.11073 0
M  V30 248 C 21.6365 -1.8111 2.84079 0
M  V30 249 O 22.1665 -2.90825 2.77099 0
M  V30 250 N 20.3725 -1.62056 2.41218 0
M  V30 251 H 19.9195 -0.728123 2.47095 0
M  V30 252 H 19.8775 -2.40013 2.03079 0
M  V30 253 N 23.6496 -1.47581 0.552962 0
M  V30 254 C 24.5596 -2.33743 -0.200353 0
M  V30 255 C 25.5756 -1.47928 -0.916151 0
M  V30 256 O 26.7516 -1.80865 -0.885993 0
M  V30 257 C 23.8166 -3.24536 -1.21973 0
M  V30 258 C 22.8776 -4.26238 -0.511819 0
M  V30 259 C 22.1106 -5.12693 -1.48263 0
M  V30 260 O 22.3336 -5.01525 -2.71714 0
M  V30 261 O 21.2676 -5.93375 -1.00945 0
M  V30 262 H 25.0936 -2.9945 0.506304 0
M  V30 263 H 22.6786 -1.46071 0.313622 0
M  V30 264 H 24.5606 -3.80631 -1.80827 0
M  V30 265 H 23.2356 -2.61462 -1.90839 0
M  V30 266 H 22.1426 -3.73914 0.117799 0
M  V30 267 H 23.4756 -4.92014 0.135308 0
M  V30 268 N 25.1277 -0.289203 -1.54924 0
M  V30 269 C 26.3737 0.323998 -2.00195 0
M  V30 270 C 26.7067 1.54441 -1.17735 0
M  V30 271 O 25.9817 1.92875 -0.250878 0
M  V30 272 C 26.2647 0.692276 -3.53383 0
M  V30 273 C 26.1177 -0.536457 -4.46589 0
M  V30 274 C 27.4367 1.52335 -4.12895 0
M  V30 275 H 24.5557 0.116289 -0.727768 0
M  V30 276 H 27.1977 -0.398954 -1.85764 0
M  V30 277 H 25.3477 1.30822 -3.65811 0
M  V30 278 H 27.0197 -1.17499 -4.46085 0
M  V30 279 H 25.2627 -1.17192 -4.1767 0
M  V30 280 H 25.9337 -0.234806 -5.515 0
M  V30 281 H 28.4097 1.00302 -4.0383 0
M  V30 282 H 27.2857 1.74982 -5.20262 0
M  V30 283 H 27.5467 2.50886 -3.64018 0
M  V30 284 N 26.6058 1.57591 -0.0167156 0
M  V30 285 C 27.8548 1.90461 0.663877 0
M  V30 286 C 28.1678 0.893515 1.73999 0
M  V30 287 O 29.3738 1.11302 2.47637 0
M  V30 288 C 27.8298 3.38155 1.23204 0
M  V30 289 C 27.4378 4.47597 0.189866 0
M  V30 290 C 29.1818 3.80111 1.88986 0
M  V30 291 C 27.0888 5.86379 0.768964 0
M  V30 292 H 26.0188 0.710738 0.251729 0
M  V30 293 H 28.6698 1.83326 -0.0799926 0
M  V30 294 H 27.0518 3.40182 2.02712 0
M  V30 295 H 28.2258 4.57112 -0.581846 0
M  V30 296 H 26.5408 4.14766 -0.368475 0
M  V30 297 H 29.1378 4.81145 2.33247 0
M  V30 298 H 29.4808 3.14511 2.72743 0
M  V30 299 H 30.0138 3.80454 1.16187 0
M  V30 300 H 26.7528 6.55493 -0.0301957 0
M  V30 301 H 26.2728 5.80496 1.50945 0
M  V30 302 H 27.9518 6.34563 1.26251 0
M  V30 303 N 28.0839 -0.256276 1.55502 0
M  V30 304 C 29.0309 -1.31714 1.89526 0
M  V30 305 C 30.0009 -1.4828 0.748479 0
M  V30 306 O 31.1859 -1.62416 1.00128 0
M  V30 307 C 28.3259 -2.66933 2.18725 0
M  V30 308 C 27.4389 -2.58452 3.4616 0
M  V30 309 C 26.5739 -3.85961 3.64976 0
M  V30 310 C 25.6129 -3.72059 4.86044 0
M  V30 311 N 24.7499 -4.9144 5.01429 0
M  V30 312 H 29.5899 -1.01998 2.80001 0
M  V30 313 H 27.1269 -0.492413 1.38613 0
M  V30 314 H 29.0849 -3.4563 2.33657 0
M  V30 315 H 27.7149 -2.94816 1.31466 0
M  V30 316 H 26.7669 -1.71374 3.3961 0
M  V30 317 H 28.0789 -2.44085 4.34999 0
M  V30 318 H 27.2329 -4.73101 3.79816 0
M  V30 319 H 25.9719 -4.03215 2.74353 0
M  V30 320 H 24.9769 -2.83302 4.7119 0
M  V30 321 H 26.2019 -3.56309 5.78118 0
M  V30 322 H 24.1479 -5.09072 4.13741 0
M  V30 323 H 24.0649 -4.79668 5.84341 0
M  V30 324 H 25.3329 -5.80104 5.20672 0
M  V30 325 N 29.562 -1.4872 -0.521534 0
M  V30 326 C 30.51 -1.64328 -1.64618 0
M  V30 327 C 31.504 -0.50953 -1.61555 0
M  V30 328 O 32.71 -0.688525 -1.66311 0
M  V30 329 H 29.085 -0.517805 -0.545328 0
M  V30 330 H 31.056 -2.58767 -1.48601 0
M  V30 331 C 29.805 -1.70805 -3.02855 0
M  V30 332 H 29.128 -2.5741 -3.05909 0
M  V30 333 H 30.568 -1.85766 -3.81139 0
M  V30 334 C 29.027 -0.448479 -3.33902 0
M  V30 335 O 29.557 0.434928 -3.99339 0
M  V30 336 N 27.763 -0.317616 -2.88859 0
M  V30 337 H 27.31 -1.03748 -2.35784 0
M  V30 338 H 27.268 0.524113 -3.10001 0
M  V30 339 N 31.0401 0.771051 -1.3745 0
M  V30 340 C 32.2881 1.52661 -1.32435 0
M  V30 341 C 32.6091 1.9479 0.0905024 0
M  V30 342 O 31.8791 1.66348 1.03466 0
M  V30 343 H 30.4591 0.566218 -0.487244 0
M  V30 344 H 33.1211 0.917636 -1.71946 0
M  V30 345 H 32.2171 2.42568 -1.96385 0
M  V30 346 N 32.5182 1.22032 0.997298 0
M  V30 347 C 33.7482 1.06686 1.76923 0
M  V30 348 C 34.1562 -0.385838 1.85224 0
M  V30 349 O 33.4992 -1.27929 1.31833 0
M  V30 350 C 33.5612 1.59802 3.22031 0
M  V30 351 C 33.2252 3.08362 3.37286 0
M  V30 352 C 34.2222 4.05835 3.24952 0
M  V30 353 C 31.9072 3.47727 3.6248 0
M  V30 354 C 33.9012 5.4066 3.37588 0
M  V30 355 C 31.5882 4.82701 3.74757 0
M  V30 356 C 32.5862 5.78977 3.62319 0
M  V30 357 O 32.2742 7.11502 3.74193 0
M  V30 358 H 32.0062 0.374767 0.562606 0
M  V30 359 H 34.5602 1.61991 1.26286 0
M  V30 360 H 32.7902 0.989003 3.73839 0
M  V30 361 H 34.4792 1.40184 3.80924 0
M  V30 362 H 35.2452 3.76766 3.05405 0
M  V30 363 H 31.1242 2.73317 3.7124 0
M  V30 364 H 34.6682 6.15788 3.27796 0
M  V30 365 H 30.5652 5.11453 3.9381 0
M  V30 366 H 31.3332 7.19019 3.91093 0
M  V30 367 N 33.9963 -1.19345 1.0293 0
M  V30 368 C 35.2423 -1.89318 0.727083 0
M  V30 369 C 35.5753 -1.79446 -0.742483 0
M  V30 370 O 34.8503 -1.1871 -1.54072 0
M  V30 371 C 35.1333 -3.40238 1.17942 0
M  V30 372 C 34.9863 -3.58979 2.71024 0
M  V30 373 C 36.3053 -4.33479 0.760548 0
M  V30 374 H 33.4243 -0.687475 0.265606 0
M  V30 375 H 36.0663 -1.40477 1.2793 0
M  V30 376 H 34.2163 -3.81964 0.709608 0
M  V30 377 H 35.8883 -3.26421 3.25955 0
M  V30 378 H 34.1313 -3.02018 3.11396 0
M  V30 379 H 34.8023 -4.64823 2.9773 0
M  V30 380 H 37.2783 -3.99469 1.16464 0
M  V30 381 H 36.1543 -5.37664 1.10493 0
M  V30 382 H 36.4153 -4.40813 -0.337063 0
M  V30 383 N 35.4744 -0.807222 -1.35358 0
M  V30 384 C 36.7224 -0.387122 -1.98358 0
M  V30 385 C 37.0434 1.04942 -1.64354 0
M  V30 386 O 36.3134 1.72615 -0.926339 0
M  V30 387 H 34.8934 -0.140154 -0.733734 0
M  V30 388 H 37.5554 -1.0332 -1.6526 0
M  V30 389 H 36.6514 -0.493352 -3.08176 0
M  V30 390 N 36.9525 1.47285 -0.560781 0
M  V30 391 C 38.2015 2.01668 -0.035895 0
M  V30 392 C 38.5145 1.44021 1.32353 0
M  V30 393 O 39.7205 1.90088 1.93853 0
M  V30 394 C 38.1765 3.59897 -0.0136659 0
M  V30 395 C 37.7845 4.26536 -1.37006 0
M  V30 396 C 39.5285 4.22017 0.458425 0
M  V30 397 C 37.4355 5.76782 -1.30675 0
M  V30 398 H 36.3655 0.753938 -0.00964879 0
M  V30 399 H 39.0165 1.69243 -0.709166 0
M  V30 400 H 37.3985 3.89301 0.725325 0
M  V30 401 H 38.5725 4.0877 -2.12705 0
M  V30 402 H 36.8875 3.76419 -1.78038 0
M  V30 403 H 39.4845 5.32124 0.524247 0
M  V30 404 H 39.8275 3.89437 1.4712 0
M  V30 405 H 40.3605 3.97159 -0.225818 0
M  V30 406 H 37.0995 6.13988 -2.29564 0
M  V30 407 H 36.6195 5.96875 -0.591622 0
M  V30 408 H 38.2985 6.39063 -1.01033 0
M  V30 409 N 38.4306 0.297415 1.54768 0
M  V30 410 C 39.3786 -0.596051 2.24833 0
M  V30 411 C 40.3726 -1.13992 1.25308 0
M  V30 412 O 41.5786 -1.09098 1.4317 0
M  V30 413 H 37.9536 -0.210814 0.721846 0
M  V30 414 H 39.9246 0.0174667 2.98395 0
M  V30 415 C 38.6736 -1.75818 2.99972 0
M  V30 416 H 37.9966 -1.3489 3.76357 0
M  V30 417 H 39.4366 -2.35949 3.52284 0
M  V30 418 C 37.8956 -2.66014 2.06732 0
M  V30 419 O 38.4256 -3.67009 1.63302 0
M  V30 420 N 36.6316 -2.33669 1.72763 0
M  V30 421 H 36.1786 -1.51586 2.08277 0
M  V30 422 H 36.1366 -2.94285 1.10652 0
M  V30 423 N 39.9087 -1.5758 0.0250728 0
M  V30 424 C 41.1857 -1.82917 -0.692873 0
M  V30 425 C 41.5657 -0.908137 -1.90568 0
M  V30 426 O 40.9137 0.0372298 -2.2847 0
M  V30 427 C 41.1237 -3.32034 -1.07492 0
M  V30 428 C 42.4717 -3.98406 -1.46826 0
M  V30 429 O 43.4957 -3.36505 -1.16801 0
M  V30 430 O 42.3547 -5.07497 -2.02754 0
M  V30 431 H 39.4487 -0.754079 -0.33955 0
M  V30 432 H 41.9947 -1.69619 0.0524456 0
M  V30 433 H 40.7667 -3.90728 -0.211552 0
M  V30 434 H 40.3897 -3.50424 -1.87854 0
M  V30 435 N 41.3868 0.248026 -1.55636 0
M  V30 436 C 42.6348 0.974295 -1.77065 0
M  V30 437 C 42.9558 1.85897 -0.588849 0
M  V30 438 O 42.2258 1.91868 0.395407 0
M  V30 439 H 40.8058 0.362733 -0.653019 0
M  V30 440 H 43.4678 0.266244 -1.93073 0
M  V30 441 H 42.5638 1.59667 -2.68166 0
M  V30 442 N 42.8649 1.48995 0.513639 0
M  V30 443 C 43.8119 1.6473 1.61656 0
M  V30 444 C 44.7819 0.488984 1.58739 0
M  V30 445 O 45.9669 0.714478 1.76918 0
M  V30 446 C 43.1069 1.7082 2.99858 0
M  V30 447 C 42.2199 2.9787 3.12885 0
M  V30 448 C 41.3549 2.95017 4.41744 0
M  V30 449 C 40.3939 4.16702 4.48359 0
M  V30 450 N 39.5309 4.11832 5.68629 0
M  V30 451 H 44.3709 2.58909 1.47547 0
M  V30 452 H 41.9079 1.28382 0.71808 0
M  V30 453 H 43.8659 1.72331 3.79944 0
M  V30 454 H 42.4959 0.801181 3.12699 0
M  V30 455 H 41.5479 3.06029 2.25944 0
M  V30 456 H 42.8599 3.8786 3.13633 0
M  V30 457 H 42.0139 2.95021 5.30139 0
M  V30 458 H 40.7529 2.02784 4.43542 0
M  V30 459 H 39.7579 4.16955 3.58369 0
M  V30 460 H 40.9829 5.10113 4.48287 0
M  V30 461 H 38.9289 3.22428 5.71293 0
M  V30 462 H 38.8459 4.95543 5.7094 0
M  V30 463 H 40.1139 4.1592 6.59266 0
M  V30 464 N 44.343 -0.763751 1.37857 0
M  V30 465 C 45.592 -1.51789 1.32827 0
M  V30 466 C 45.905 -1.95426 -0.0823719 0
M  V30 467 O 47.111 -2.70298 -0.255172 0
M  V30 468 C 45.567 -2.74133 2.33193 0
M  V30 469 C 45.175 -2.37562 3.79827 0
M  V30 470 C 46.919 -3.52054 2.37188 0
M  V30 471 C 44.826 -3.56456 4.71904 0
M  V30 472 H 43.756 -0.569896 0.493695 0
M  V30 473 H 46.407 -0.835822 1.63359 0
M  V30 474 H 44.789 -3.4427 1.9569 0
M  V30 475 H 45.963 -1.75157 4.26212 0
M  V30 476 H 44.278 -1.72798 3.78853 0
M  V30 477 H 46.875 -4.40437 3.03182 0
M  V30 478 H 47.218 -3.92486 1.38782 0
M  V30 479 H 47.751 -2.88921 2.7344 0
M  V30 480 H 44.49 -3.21099 5.71468 0
M  V30 481 H 44.01 -4.17938 4.30218 0
M  V30 482 H 45.689 -4.23168 4.89426 0
M  V30 483 N 45.8211 -1.22559 -0.990812 0
M  V30 484 C 47.0461 -1.07862 -1.77145 0
M  V30 485 C 47.4711 0.366447 -1.84496 0
M  V30 486 O 46.8291 1.26478 -1.29896 0
M  V30 487 C 46.8771 -1.69686 -3.18181 0
M  V30 488 O 45.9811 -0.951946 -4.01263 0
M  V30 489 H 45.3221 -0.378712 -0.545411 0
M  V30 490 H 47.8521 -1.62399 -1.2445 0
M  V30 491 H 47.8621 -1.74496 -3.68802 0
M  V30 492 H 46.5371 -2.74841 -3.12146 0
M  V30 493 H 45.1141 -0.980011 -3.59792 0
M  V30 494 N 47.2992 1.18797 -1.03562 0
M  V30 495 C 48.5272 1.92599 -0.755869 0
M  V30 496 C 48.9422 1.75886 0.686271 0
M  V30 497 O 48.2992 1.08517 1.46732 0
M  V30 498 C 48.3502 3.44159 -1.10619 0
M  V30 499 O 48.0712 3.60341 -2.4917 0
M  V30 500 C 49.5722 4.3507 -0.850214 0
M  V30 501 H 46.7922 0.611587 -0.276048 0
M  V30 502 H 49.3362 1.50742 -1.38192 0
M  V30 503 H 47.4912 3.83823 -0.525194 0
M  V30 504 H 47.9052 4.54128 -2.62427 0
M  V30 505 H 49.3792 5.39989 -1.14523 0
M  V30 506 H 49.8562 4.38673 0.215176 0
M  V30 507 H 50.4622 4.01097 -1.41426 0
M  V30 508 N 48.7773 0.814389 1.34928 0
M  V30 509 C 50.0233 0.399013 1.98836 0
M  V30 510 C 50.3563 -1.03314 1.64438 0
M  V30 511 O 49.6313 -1.71811 0.911659 0
M  V30 512 C 49.9143 0.591629 3.55207 0
M  V30 513 C 49.7673 2.06928 3.99376 0
M  V30 514 C 51.0863 0.022199 4.40094 0
M  V30 515 H 48.2053 0.146451 0.722303 0
M  V30 516 H 50.8473 1.02537 1.59957 0
M  V30 517 H 48.9973 0.0584441 3.88456 0
M  V30 518 H 50.6693 2.66544 3.76499 0
M  V30 519 H 48.9123 2.56287 3.49999 0
M  V30 520 H 49.5833 2.1549 5.08201 0
M  V30 521 H 52.0593 0.477643 4.13349 0
M  V30 522 H 50.9353 0.186832 5.48582 0
M  V30 523 H 51.1963 -1.07215 4.28902 0
M  V30 524 N 50.2554 -1.46986 0.568584 0
M  V30 525 C 51.4804 -2.07335 0.0520528 0
M  V30 526 C 51.9054 -1.41675 -1.23733 0
M  V30 527 O 51.2634 -0.495623 -1.74394 0
M  V30 528 C 51.3114 -3.60417 -0.11501 0
M  V30 529 O 50.4154 -3.95309 -1.17492 0
M  V30 530 H 49.7564 -0.661597 0.0564385 0
M  V30 531 H 52.2864 -1.88837 0.787507 0
M  V30 532 H 52.2964 -4.06698 -0.325644 0
M  V30 533 H 50.9714 -4.07601 0.826675 0
M  V30 534 H 49.5484 -3.60757 -0.943869 0
M  V30 535 N 51.7335 -0.305618 -1.54608 0
M  V30 536 C 52.9615 0.304775 -2.04643 0
M  V30 537 C 53.3765 1.47167 -1.18268 0
M  V30 538 O 52.7335 1.81296 -0.209328 0
M  V30 539 C 52.7845 0.756564 -3.53495 0
M  V30 540 O 52.5055 -0.36389 -4.36586 0
M  V30 541 C 54.0065 1.43163 -4.19546 0
M  V30 542 H 51.2265 0.0655481 -0.667791 0
M  V30 543 H 53.7705 -0.446592 -1.99564 0
M  V30 544 H 51.9255 1.45794 -3.58919 0
M  V30 545 H 52.3395 -0.0113121 -5.24499 0
M  V30 546 H 53.8135 1.69886 -5.25207 0
M  V30 547 H 54.2905 2.37318 -3.69563 0
M  V30 548 H 54.8965 0.773307 -4.18211 0
M  V30 549 N 53.2116 1.57565 -0.0334293 0
M  V30 550 C 54.1216 2.13943 0.962572 0
M  V30 551 C 55.1376 1.09276 1.35406 0
M  V30 552 O 56.3136 1.41355 1.4346 0
M  V30 553 C 53.3786 2.65887 2.22497 0
M  V30 554 C 52.4396 3.85286 1.8935 0
M  V30 555 C 51.6726 4.34743 3.09571 0
M  V30 556 O 51.8956 3.83352 4.22371 0
M  V30 557 O 50.8296 5.26538 2.91618 0
M  V30 558 H 54.6556 2.99333 0.513169 0
M  V30 559 H 52.2406 1.4822 0.18743 0
M  V30 560 H 54.1226 2.99346 2.96598 0
M  V30 561 H 52.7976 1.83578 2.6661 0
M  V30 562 H 51.7046 3.56746 1.1262 0
M  V30 563 H 53.0376 4.68771 1.5005 0
M  V30 564 N 54.6897 -0.239769 1.55765 0
M  V30 565 C 56.1057 -0.588624 1.48349 0
M  V30 566 C 56.3057 -1.88005 0.72502 0
M  V30 567 O 55.3617 -2.51186 0.257269 0
M  V30 568 C 56.6747 -0.68474 2.928 0
M  V30 569 C 58.2227 -0.77659 3.03213 0
M  V30 570 C 58.6977 -0.904207 4.48986 0
M  V30 571 N 60.1887 -0.968896 4.52953 0
M  V30 572 C 60.9237 -1.08703 5.63002 0
M  V30 573 N 60.4197 -1.17026 6.82845 0
M  V30 574 N 62.2127 -1.12074 5.50814 0
M  V30 575 H 54.3637 0.607911 2.03515 0
M  V30 576 H 56.6267 0.21083 0.924259 0
M  V30 577 H 56.3327 0.194284 3.51163 0
M  V30 578 H 56.2067 -1.55435 3.43686 0
M  V30 579 H 58.5937 -1.64606 2.44926 0
M  V30 580 H 58.6747 0.118315 2.55526 0
M  V30 581 H 58.3187 -0.0392633 5.07885 0
M  V30 582 H 58.2487 -1.81426 4.9436 0
M  V30 583 H 60.7397 -0.915633 3.6664 0
M  V30 584 H 61.0527 -1.25966 7.62465 0
M  V30 585 H 59.3977 -1.13971 6.85591 0
M  V30 586 H 62.5887 -1.05226 4.5612 0
M  V30 587 H 62.7617 -1.20936 6.36615 0
M  V30 588 N 56.1678 -1.49265 -0.50573 0
M  V30 589 C 57.5788 -1.51769 -1.08734 0
M  V30 590 C 57.9298 -0.301192 -1.93874 0
M  V30 591 O 57.0548 0.589456 -2.08217 0
M  V30 592 C 57.6498 -2.75017 -1.97867 0
M  V30 593 C 56.2088 -2.80314 -2.51199 0
M  V30 594 C 55.3558 -2.4562 -1.28709 0
M  V30 595 H 58.3068 -1.56031 -0.289855 0
M  V30 596 H 58.3278 -2.5491 -2.82491 0
M  V30 597 H 57.8398 -3.63539 -1.35873 0
M  V30 598 H 55.9408 -1.96061 -3.16845 0
M  V30 599 H 56.0538 -3.82366 -2.88675 0
M  V30 600 H 54.4178 -1.97297 -1.61078 0
M  V30 601 H 55.2008 -3.36411 -0.6843 0
M  V30 602 N 57.6459 0.756429 -1.3826 0
M  V30 603 C 58.5929 1.87011 -1.35261 0
M  V30 604 C 59.5629 1.64695 -0.215616 0
M  V30 605 O 60.7479 1.864 -0.407399 0
M  V30 606 C 57.8879 3.24275 -1.18068 0
M  V30 607 C 57.0009 3.58442 -2.41129 0
M  V30 608 C 56.1359 4.84994 -2.16689 0
M  V30 609 C 55.1749 5.11939 -3.35537 0
M  V30 610 N 54.3119 6.29685 -3.10549 0
M  V30 611 H 59.1519 1.8891 -2.30472 0
M  V30 612 H 56.6889 0.923373 -1.14509 0
M  V30 613 H 58.6469 4.03479 -1.06116 0
M  V30 614 H 57.2769 3.21711 -0.264973 0
M  V30 615 H 56.3289 2.74103 -2.63764 0
M  V30 616 H 57.6409 3.74283 -3.29717 0
M  V30 617 H 56.7949 5.72135 -2.01857 0
M  V30 618 H 55.5339 4.71286 -1.25462 0
M  V30 619 H 54.5389 4.23268 -3.50891 0
M  V30 620 H 55.7639 5.27546 -4.27635 0
M  V30 621 H 53.7099 6.17306 -2.21967 0
M  V30 622 H 53.6269 6.46014 -3.92686 0
M  V30 623 H 54.8949 7.19722 -2.99367 0
M  V30 624 N 59.124 1.23083 0.984299 0
M  V30 625 C 60.034 1.02515 2.11016 0
M  V30 626 C 61.05 -0.0291702 1.73976 0
M  V30 627 O 62.226 0.165434 2.00719 0
M  V30 628 C 59.291 0.614673 3.41208 0
M  V30 629 C 58.352 1.74359 3.92297 0
M  V30 630 C 57.585 1.35261 5.16275 0
M  V30 631 O 57.808 0.235136 5.69915 0
M  V30 632 O 56.742 2.17227 5.61334 0
M  V30 633 H 60.568 1.96862 2.31255 0
M  V30 634 H 58.153 1.01753 1.09392 0
M  V30 635 H 60.035 0.396518 4.1953 0
M  V30 636 H 58.71 -0.299851 3.22308 0
M  V30 637 H 57.617 2.01635 3.1511 0
M  V30 638 H 58.95 2.63629 4.15645 0
M  V30 639 N 60.6021 -1.18246 1.0419 0
M  V30 640 C 62.0131 -1.69914 0.773698 0
M  V30 641 C 62.3641 -1.83085 -0.705297 0
M  V30 642 O 61.4891 -1.51123 -1.5489 0
M  V30 643 C 62.0841 -3.08619 1.39784 0
M  V30 644 C 60.6431 -3.57494 1.17792 0
M  V30 645 C 59.7901 -2.34013 1.48773 0
M  V30 646 H 62.7411 -1.02904 1.20816 0
M  V30 647 H 62.7621 -3.71958 0.801714 0
M  V30 648 H 62.2741 -2.99001 2.47426 0
M  V30 649 H 60.3751 -3.72406 0.120295 0
M  V30 650 H 60.4881 -4.40852 1.87581 0
M  V30 651 H 58.8521 -2.37986 0.907463 0
M  V30 652 H 59.6351 -2.27013 2.57527 0
M  V30 653 N 62.0802 -0.821533 -1.34494 0
M  V30 654 C 63.3102 -0.421272 -2.02259 0
M  V30 655 C 63.7182 0.977047 -1.6202 0
M  V30 656 O 63.0612 1.64348 -0.820703 0
M  V30 657 C 63.1232 -0.44231 -3.56769 0
M  V30 658 C 62.7872 -1.79372 -4.20327 0
M  V30 659 C 63.7842 -2.75435 -4.40944 0
M  V30 660 C 61.4692 -2.08182 -4.57127 0
M  V30 661 C 63.4632 -3.98482 -4.97484 0
M  V30 662 C 61.1502 -3.31489 -5.13379 0
M  V30 663 C 62.1482 -4.26457 -5.33501 0
M  V30 664 O 61.8362 -5.47585 -5.88562 0
M  V30 665 H 61.5682 -0.167473 -0.654927 0
M  V30 666 H 64.1222 -1.11073 -1.72777 0
M  V30 667 H 62.3522 0.303836 -3.85505 0
M  V30 668 H 64.0412 -0.0622925 -4.05852 0
M  V30 669 H 64.8072 -2.54473 -4.12878 0
M  V30 670 H 60.6862 -1.35066 -4.4077 0
M  V30 671 H 64.2302 -4.72618 -5.13106 0
M  V30 672 H 60.1272 -3.52316 -5.40873 0
M  V30 673 H 60.8952 -5.49086 -6.06998 0
M  V30 674 N 63.5583 1.46682 -0.576371 0
M  V30 675 C 64.7833 2.07304 -0.0630475 0
M  V30 676 C 65.2083 1.42329 1.2298 0
M  V30 677 O 64.5663 0.504865 1.74129 0
M  V30 678 C 64.6143 3.60472 0.095895 0
M  V30 679 O 63.7183 3.95927 1.15394 0
M  V30 680 H 63.0593 0.661288 -0.0599463 0
M  V30 681 H 65.5893 1.88417 -0.797511 0
M  V30 682 H 65.5993 4.06865 0.304071 0
M  V30 683 H 64.2743 4.07157 -0.84828 0
M  V30 684 H 62.8513 3.61252 0.924724 0
M  V30 685 N 65.0364 0.313813 1.54444 0
M  V30 686 C 65.9834 -0.55655 2.23989 0
M  V30 687 C 66.9534 -1.11943 1.22711 0
M  V30 688 O 68.1384 -1.16158 1.51367 0
M  V30 689 C 65.2784 -1.71635 2.99392 0
M  V30 690 C 64.3914 -1.18364 4.15468 0
M  V30 691 C 63.5264 -2.30834 4.78424 0
M  V30 692 C 62.5654 -1.74762 5.86622 0
M  V30 693 N 61.7024 -2.80855 6.43479 0
M  V30 694 H 66.5424 0.0430893 2.97969 0
M  V30 695 H 64.0794 0.0330359 1.47063 0
M  V30 696 H 66.0374 -2.39868 3.41349 0
M  V30 697 H 64.6674 -2.28742 2.27765 0
M  V30 698 H 63.7194 -0.393163 3.78363 0
M  V30 699 H 65.0314 -0.733262 4.93381 0
M  V30 700 H 64.1854 -3.0699 5.23299 0
M  V30 701 H 62.9244 -2.79204 3.99871 0
M  V30 702 H 61.9294 -0.970995 5.41158 0
M  V30 703 H 63.1544 -1.2728 6.67066 0
M  V30 704 H 61.1004 -3.28535 5.67804 0
M  V30 705 H 61.0174 -2.40351 7.16776 0
M  V30 706 H 62.2854 -3.5687 6.93011 0
M  V30 707 N 66.5145 -1.57545 0.0417849 0
M  V30 708 C 67.4245 -2.14451 -0.951213 0
M  V30 709 C 68.4405 -1.09992 -1.34825 0
M  V30 710 O 69.6165 -1.42114 -1.42708 0
M  V30 711 C 66.6815 -2.67063 -2.21084 0
M  V30 712 C 65.7425 -3.86284 -1.87304 0
M  V30 713 C 64.9755 -4.36378 -3.07261 0
M  V30 714 O 65.1985 -3.85587 -4.20332 0
M  V30 715 O 64.1325 -5.28077 -2.88822 0
M  V30 716 H 67.9585 -2.99601 -0.497287 0
M  V30 717 H 65.5435 -1.48317 -0.179567 0
M  V30 718 H 67.4255 -3.00914 -2.95006 0
M  V30 719 H 66.1005 -1.84989 -2.65633 0
M  V30 720 H 65.0075 -3.57338 -1.10727 0
M  V30 721 H 66.3405 -4.6956 -1.47562 0
M  V30 722 N 67.9926 0.231505 -1.5589 0
M  V30 723 C 69.2416 0.955346 -1.7764 0
M  V30 724 C 69.5546 1.85893 -0.608546 0
M  V30 725 O 70.7606 2.62067 -0.70943 0
M  V30 726 C 69.2166 1.74886 -3.14552 0
M  V30 727 C 68.8246 0.891915 -4.39032 0
M  V30 728 C 70.5686 2.46452 -3.45633 0
M  V30 729 C 68.4756 1.68221 -5.66971 0
M  V30 730 H 67.4056 0.360446 -0.662265 0
M  V30 731 H 70.0566 0.209516 -1.823 0
M  V30 732 H 68.4386 2.53723 -3.04041 0
M  V30 733 H 69.6126 0.144793 -4.60572 0
M  V30 734 H 67.9276 0.288863 -4.15397 0
M  V30 735 H 70.5246 3.06061 -4.38441 0
M  V30 736 H 70.8676 3.18841 -2.67668 0
M  V30 737 H 71.4006 1.74613 -3.57428 0
M  V30 738 H 68.1396 1.00178 -6.478 0
M  V30 739 H 67.6596 2.4042 -5.49507 0
M  V30 740 H 69.3386 2.24544 -6.06786 0
M  V30 741 N 69.4707 1.49531 0.497807 0
M  V30 742 C 70.4027 1.62559 1.61578 0
M  V30 743 C 71.4157 0.508134 1.54667 0
M  V30 744 O 72.6047 0.780309 1.60541 0
M  V30 745 C 69.7047 1.56925 3.00379 0
M  V30 746 C 68.8777 2.84257 3.3244 0
M  V30 747 C 67.9367 2.71632 4.50669 0
M  V30 748 O 66.9627 3.4557 4.52294 0
M  V30 749 N 68.1647 1.83391 5.5077 0
M  V30 750 H 70.9297 2.58981 1.50828 0
M  V30 751 H 68.4907 1.4666 0.685743 0
M  V30 752 H 70.4827 1.46129 3.77397 0
M  V30 753 H 69.0527 0.683483 3.05037 0
M  V30 754 H 68.2727 3.09381 2.44289 0
M  V30 755 H 69.5607 3.68666 3.5066 0
M  V30 756 H 68.9587 1.22583 5.52259 0
M  V30 757 H 67.5157 1.78515 6.26878 0
M  V30 758 N 70.9488 -0.749086 1.3866 0
M  V30 759 C 71.9118 -1.84457 1.36045 0
M  V30 760 C 72.9118 -1.58682 0.260122 0
M  V30 761 O 74.1018 -1.66343 0.517261 0
M  V30 762 C 71.2338 -3.22008 1.11911 0
M  V30 763 H 72.4268 -1.88182 2.33512 0
M  V30 764 H 69.9798 -0.951266 1.24019 0
M  V30 765 H 70.7148 -3.2395 0.150686 0
M  V30 766 H 70.4998 -3.42111 1.91579 0
M  V30 767 H 71.9898 -4.0208 1.12788 0
M  V30 768 N 72.4269 -1.23603 -0.977757 0
M  V30 769 C 73.8379 -1.06424 -1.53398 0
M  V30 770 C 74.1889 0.367578 -1.92726 0
M  V30 771 O 73.3139 1.25465 -1.76316 0
M  V30 772 C 73.9089 -1.92568 -2.78753 0
M  V30 773 C 72.4679 -1.79642 -3.30765 0
M  V30 774 C 71.6149 -1.88111 -2.03739 0
M  V30 775 H 74.5659 -1.37227 -0.797152 0
M  V30 776 H 74.5869 -1.45203 -3.51705 0
M  V30 777 H 74.0989 -2.96771 -2.50098 0
M  V30 778 H 72.1999 -0.782325 -3.64294 0
M  V30 779 H 72.3129 -2.63174 -4.00345 0
M  V30 780 H 70.6769 -1.31723 -2.17994 0
M  V30 781 H 71.4599 -2.93875 -1.77461 0
M  V30 782 N 73.905 1.17692 -1.04816 0
M  V30 783 C 74.868 2.19787 -0.650117 0
M  V30 784 C 75.868 1.58044 0.296427 0
M  V30 785 O 77.058 1.74012 0.0808097 0
M  V30 786 C 74.19 3.40869 0.0456987 0
M  V30 787 H 75.383 2.56516 -1.5537 0
M  V30 788 H 72.936 1.31708 -0.841594 0
M  V30 789 H 73.671 3.09681 0.962726 0
M  V30 790 H 73.456 3.86928 -0.634727 0
M  V30 791 H 74.946 4.16445 0.310432 0
M  V30 792 N 75.3831 0.828654 1.34056 0
M  V30 793 C 76.6601 0.341809 1.9259 0
M  V30 794 C 77.0401 -1.17158 1.75605 0
M  V30 795 O 76.3881 -1.98132 1.13824 0
M  V30 796 C 76.5981 0.777453 3.4023 0
M  V30 797 C 77.9461 0.779579 4.17382 0
M  V30 798 O 78.9701 0.7204 3.48839 0
M  V30 799 O 77.8291 0.857996 5.39723 0
M  V30 800 H 74.9231 0.0946085 0.821571 0
M  V30 801 H 77.4691 0.913827 1.42994 0
M  V30 802 H 76.2411 1.8196 3.46419 0
M  V30 803 H 75.8641 0.181444 3.97186 0
M  V30 804 N 76.8612 -1.46375 0.584142 0
M  V30 805 C 78.0862 -2.07268 0.0740405 0
M  V30 806 C 78.5112 -1.42979 -1.22223 0
M  V30 807 O 77.8692 -0.514092 -1.73859 0
M  V30 808 C 77.9172 -3.60518 -0.0767769 0
M  V30 809 O 77.0212 -3.96533 -1.13292 0
M  V30 810 H 76.3622 -0.660961 0.0634524 0
M  V30 811 H 78.8922 -1.87991 0.807492 0
M  V30 812 H 78.9022 -4.07021 -0.282489 0
M  V30 813 H 77.5772 -4.06702 0.86986 0
M  V30 814 H 76.1542 -3.61738 -0.905553 0
M  V30 815 N 78.3393 -0.321999 -1.54275 0
M  V30 816 C 79.5853 0.281461 -2.00837 0
M  V30 817 C 79.9183 1.51909 -1.20985 0
M  V30 818 O 79.1933 1.923 -0.291733 0
M  V30 819 C 79.4763 0.617162 -3.54772 0
M  V30 820 C 79.3293 -0.631064 -4.45351 0
M  V30 821 C 80.6483 1.43542 -4.16033 0
M  V30 822 H 77.7673 0.100826 -0.730071 0
M  V30 823 H 80.4093 -0.438268 -1.84876 0
M  V30 824 H 78.5593 1.23034 -3.68504 0
M  V30 825 H 80.2313 -1.26934 -4.43492 0
M  V30 826 H 78.4743 -1.26025 -4.15091 0
M  V30 827 H 79.1453 -0.351735 -5.50878 0
M  V30 828 H 81.6213 0.917134 -4.05867 0
M  V30 829 H 80.4973 1.63907 -5.23856 0
M  V30 830 H 80.7583 2.43108 -3.69257 0
M  V30 831 N 79.8174 1.5752 -0.0501392 0
M  V30 832 C 80.7474 2.14502 0.922566 0
M  V30 833 C 81.7284 1.06642 1.3252 0
M  V30 834 O 82.9134 1.34577 1.4001 0
M  V30 835 C 80.0434 2.68916 2.19776 0
M  V30 836 C 78.9974 3.8175 1.93523 0
M  V30 837 C 78.3234 4.22677 3.27487 0
M  V30 838 C 79.6234 5.06932 1.25765 0
M  V30 839 H 81.3174 2.9603 0.447952 0
M  V30 840 H 78.8634 1.42401 0.214024 0
M  V30 841 H 80.8164 3.07419 2.88222 0
M  V30 842 H 79.5404 1.84578 2.69441 0
M  V30 843 H 78.1994 3.43718 1.27489 0
M  V30 844 H 77.8474 3.35291 3.74952 0
M  V30 845 H 77.5474 4.98725 3.1072 0
M  V30 846 H 79.0714 4.63779 3.97166 0
M  V30 847 H 80.4854 5.42888 1.84244 0
M  V30 848 H 78.8824 5.88116 1.19328 0
M  V30 849 H 79.9524 4.84337 0.233536 0
M  V30 850 N 81.2955 -0.223234 1.56011 0
M  V30 851 C 82.2255 -1.27988 1.95298 0
M  V30 852 C 83.2065 -1.48976 0.820979 0
M  V30 853 O 84.3915 -1.61188 1.08315 0
M  V30 854 C 81.5215 -2.63 2.26822 0
M  V30 855 C 80.4755 -2.56671 3.42497 0
M  V30 856 C 79.8015 -3.95697 3.59622 0
M  V30 857 C 81.1015 -2.11601 4.77517 0
M  V30 858 H 82.7955 -0.953525 2.8381 0
M  V30 859 H 80.3415 -0.457244 1.36548 0
M  V30 860 H 82.2945 -3.37077 2.52898 0
M  V30 861 H 81.0185 -2.9732 1.35161 0
M  V30 862 H 79.6775 -1.85051 3.16467 0
M  V30 863 H 79.3255 -4.27322 2.6534 0
M  V30 864 H 79.0255 -3.92345 4.37424 0
M  V30 865 H 80.5495 -4.71438 3.88044 0
M  V30 866 H 81.9635 -2.7542 5.02809 0
M  V30 867 H 80.3605 -2.19311 5.5859 0
M  V30 868 H 81.4305 -1.06824 4.72987 0
M  V30 869 N 82.7736 -1.49793 -0.48987 0
M  V30 870 C 84.1846 -1.52914 -1.07118 0
M  V30 871 C 84.5356 -0.321738 -1.93544 0
M  V30 872 O 83.6606 0.567338 -2.08831 0
M  V30 873 C 84.2556 -2.771 -1.94938 0
M  V30 874 C 82.8146 -2.82963 -2.48212 0
M  V30 875 C 81.9616 -2.46972 -1.26096 0
M  V30 876 H 84.9126 -1.56329 -0.273289 0
M  V30 877 H 84.9336 -2.57892 -2.79771 0
M  V30 878 H 84.4456 -3.64959 -1.32009 0
M  V30 879 H 82.5466 -1.99411 -3.14748 0
M  V30 880 H 82.6596 -3.85406 -2.84603 0
M  V30 881 H 81.0236 -1.98994 -1.58976 0
M  V30 882 H 81.8066 -3.37118 -0.648581 0
M  V30 883 N 84.2517 0.741722 -1.39055 0
M  V30 884 C 85.4997 1.49818 -1.35643 0
M  V30 885 C 85.8207 1.94938 0.0491642 0
M  V30 886 O 85.0907 1.68505 0.999141 0
M  V30 887 H 83.6707 0.555755 -0.499144 0
M  V30 888 H 86.3327 0.880957 -1.73854 0
M  V30 889 H 85.4287 2.38348 -2.01486 0
M  V30 890 N 85.7298 1.2412 0.971189 0
M  V30 891 C 86.6628 0.97373 2.06382 0
M  V30 892 C 87.6408 -0.0912662 1.62344 0
M  V30 893 O 88.8248 0.0449365 1.88446 0
M  V30 894 C 85.9518 0.468746 3.35441 0
M  V30 895 C 84.9978 1.52176 3.98428 0
M  V30 896 S 85.8308 3.10203 4.36503 0
M  V30 897 C 86.9868 2.61398 5.68702 0
M  V30 898 H 87.2198 1.89893 2.28753 0
M  V30 899 H 84.7528 1.07466 1.10862 0
M  V30 900 H 86.7108 0.184012 4.10087 0
M  V30 901 H 85.3718 -0.435688 3.11064 0
M  V30 902 H 84.5648 1.11876 4.91426 0
M  V30 903 H 84.1668 1.75632 3.30196 0
M  V30 904 H 86.4588 2.03992 6.4606 0
M  V30 905 H 87.4018 3.52972 6.13854 0
M  V30 906 H 87.8098 2.01941 5.27143 0
M  V30 907 N 87.2079 -1.17134 1.05439 0
M  V30 908 C 88.4569 -1.86791 0.761049 0
M  V30 909 C 88.7699 -1.82072 -0.714795 0
M  V30 910 O 89.9759 -2.47223 -1.12218 0
M  V30 911 C 88.4319 -3.35166 1.31117 0
M  V30 912 C 88.0399 -3.48381 2.81664 0
M  V30 913 C 89.7839 -4.10134 1.09499 0
M  V30 914 C 87.6909 -4.90793 3.29964 0
M  V30 915 H 86.6209 -0.699681 0.281002 0
M  V30 916 H 89.2719 -1.3226 1.27199 0
M  V30 917 H 87.6539 -3.8925 0.72803 0
M  V30 918 H 88.8279 -3.04502 3.45855 0
M  V30 919 H 87.1429 -2.86836 3.01851 0
M  V30 920 H 89.7399 -5.152 1.43084 0
M  V30 921 H 90.0829 -4.16287 0.0328772 0
M  V30 922 H 90.6159 -3.62264 1.64346 0
M  V30 923 H 87.3549 -4.89816 4.35616 0
M  V30 924 H 86.8749 -5.35333 2.70516 0
M  V30 925 H 88.5539 -5.59573 3.24787 0
M  V30 926 N 88.686 -0.835752 -1.33615 0
M  V30 927 C 89.963 -0.352017 -1.92406 0
M  V30 928 C 90.343 1.16225 -1.76224 0
M  V30 929 O 89.691 1.97526 -1.14873 0
M  V30 930 C 89.901 -0.795485 -3.39813 0
M  V30 931 C 91.249 -0.801703 -4.16963 0
M  V30 932 O 92.273 -0.738889 -3.48452 0
M  V30 933 O 91.132 -0.886607 -5.3926 0
M  V30 934 H 88.226 -0.0989641 -0.821057 0
M  V30 935 H 90.772 -0.921397 -1.42507 0
M  V30 936 H 89.544 -1.83795 -3.45449 0
M  V30 937 H 89.167 -0.202505 -3.97084 0
M  V30 938 N 90.1641 1.46063 -0.591896 0
M  V30 939 C 91.4131 2.01547 -0.0786637 0
M  V30 940 C 91.7261 1.46796 1.29268 0
M  V30 941 O 92.9321 1.94157 1.89777 0
M  V30 942 C 91.3881 3.59787 -0.0900024 0
M  V30 943 C 90.9961 4.23534 -1.46023 0
M  V30 944 C 92.7401 4.22895 0.368806 0
M  V30 945 C 90.6471 5.73881 -1.4288 0
M  V30 946 H 89.5771 0.753564 -0.0256388 0
M  V30 947 H 92.2281 1.677 -0.744905 0
M  V30 948 H 90.6101 3.90752 0.642586 0
M  V30 949 H 91.7841 4.04167 -2.21328 0
M  V30 950 H 90.0991 3.72558 -1.85982 0
M  V30 951 H 92.6961 5.33116 0.411258 0
M  V30 952 H 93.0391 3.9247 1.38827 0
M  V30 953 H 93.5721 3.9659 -0.31001 0
M  V30 954 H 90.3111 6.0898 -2.42536 0
M  V30 955 H 89.8311 5.95486 -0.718095 0
M  V30 956 H 91.5101 6.36776 -1.14565 0
M  V30 957 N 91.6422 0.330177 1.54103 0
M  V30 958 C 92.5922 -0.548456 2.21305 0
M  V30 959 C 93.5762 -1.07651 1.19583 0
M  V30 960 O 94.7682 -1.01243 1.45186 0
M  V30 961 C 91.8972 -1.70559 2.97934 0
M  V30 962 C 90.9832 -1.19212 4.07 0
M  V30 963 N 91.3742 -0.398831 5.04225 0
M  V30 964 C 89.6722 -1.47024 4.2107 0
M  V30 965 C 90.3732 -0.121761 5.81573 0
M  V30 966 N 89.3492 -0.709722 5.38947 0
M  V30 967 H 93.1512 0.0648483 2.93828 0
M  V30 968 H 90.6652 0.136363 1.61826 0
M  V30 969 H 92.6622 -2.34688 3.44568 0
M  V30 970 H 91.3222 -2.32231 2.26934 0
M  V30 971 H 92.3332 -0.0410869 5.17884 0
M  V30 972 H 89.0102 -2.09232 3.61287 0
M  V30 973 H 90.4002 0.517298 6.69906 0
M  V30 974 N 93.1203 -1.57491 0.0584922 0
M  V30 975 C 94.3693 -1.92155 -0.613146 0
M  V30 976 C 94.6823 -0.939334 -1.71569 0
M  V30 977 O 95.8883 -1.17829 -2.44599 0
M  V30 978 C 94.3443 -3.41303 -1.14195 0
M  V30 979 C 93.9523 -4.47944 -0.0711265 0
M  V30 980 C 95.6963 -3.84988 -1.78841 0
M  V30 981 C 93.6033 -5.88212 -0.613225 0
M  V30 982 H 92.5333 -0.717162 -0.232796 0
M  V30 983 H 95.1843 -1.83049 0.12857 0
M  V30 984 H 93.5663 -3.45437 -1.93621 0
M  V30 985 H 94.7403 -4.55408 0.702836 0
M  V30 986 H 93.0553 -4.13644 0.478313 0
M  V30 987 H 95.6523 -4.87159 -2.20408 0
M  V30 988 H 95.9953 -3.21632 -2.64308 0
M  V30 989 H 96.5283 -3.83401 -1.06059 0
M  V30 990 H 93.2673 -6.55183 0.203978 0
M  V30 991 H 92.7873 -5.84294 -1.35501 0
M  V30 992 H 94.4663 -6.37687 -1.09383 0
M  V30 993 N 94.5984 0.214957 -1.56127 0
M  V30 994 C 95.5484 1.27006 -1.8935 0
M  V30 995 C 96.5324 1.41969 -0.757202 0
M  V30 996 O 97.7244 1.44673 -1.01973 0
M  V30 997 C 94.8534 2.61911 -2.2194 0
M  V30 998 C 93.9394 2.50822 -3.41978 0
M  V30 999 N 94.3304 2.09391 -4.60423 0
M  V30 1000 C 92.6284 2.81765 -3.45723 0
M  V30 1001 C 93.3294 2.09712 -5.42582 0
M  V30 1002 N 92.3054 2.50454 -4.82466 0
M  V30 1003 H 96.1074 0.940734 -2.78437 0
M  V30 1004 H 93.6214 0.423492 -1.56781 0
M  V30 1005 H 95.6184 3.38096 -2.43919 0
M  V30 1006 H 94.2784 2.95684 -1.34169 0
M  V30 1007 H 95.2894 1.80416 -4.85459 0
M  V30 1008 H 91.9664 3.19865 -2.68314 0
M  V30 1009 H 93.3564 1.79748 -6.4741 0
M  V30 1010 N 96.0765 1.50051 0.48192 0
M  V30 1011 C 97.3245 1.60181 1.23234 0
M  V30 1012 C 97.6455 0.299176 1.92691 0
M  V30 1013 O 96.9155 -0.682708 1.83619 0
M  V30 1014 H 95.4955 0.590232 0.457859 0
M  V30 1015 H 98.1575 1.86775 0.556881 0
M  V30 1016 H 97.2535 2.40753 1.98607 0
M  V30 1017 N 97.5546 -0.734337 1.39446 0
M  V30 1018 C 98.8026 -1.49096 1.36436 0
M  V30 1019 C 99.1236 -1.94961 -0.0388255 0
M  V30 1020 O 98.3936 -1.69033 -0.990191 0
M  V30 1021 H 96.9736 -0.5531 0.502085 0
M  V30 1022 H 99.6356 -0.871725 1.74319 0
M  V30 1023 H 98.7316 -2.37276 2.02747 0
M  V30 1024 N 99.0327 -1.24633 -0.964593 0
M  V30 1025 C 100.263 -1.11339 -1.74032 0
M  V30 1026 C 100.671 0.336593 -1.86182 0
M  V30 1027 O 100.014 1.24389 -1.35178 0
M  V30 1028 C 100.076 -1.68284 -3.1768 0
M  V30 1029 C 99.7397 -3.17196 -3.28992 0
M  V30 1030 C 100.737 -4.14308 -3.14078 0
M  V30 1031 C 98.4217 -3.57215 -3.53133 0
M  V30 1032 C 100.416 -5.4942 -3.23135 0
M  V30 1033 C 98.1027 -4.92468 -3.61827 0
M  V30 1034 C 99.1007 -5.8838 -3.46841 0
M  V30 1035 O 98.7887 -7.21173 -3.55197 0
M  V30 1036 H 98.5207 -0.389551 -0.552472 0
M  V30 1037 H 101.075 -1.65282 -1.21946 0
M  V30 1038 H 99.3047 -1.08777 -3.71085 0
M  V30 1039 H 100.994 -1.50234 -3.77074 0
M  V30 1040 H 101.76 -3.84731 -2.95308 0
M  V30 1041 H 97.6387 -2.83063 -3.63863 0
M  V30 1042 H 101.183 -6.24263 -3.11355 0
M  V30 1043 H 97.0797 -5.21714 -3.80111 0
M  V30 1044 H 97.8477 -7.29135 -3.71892 0
M  V30 1045 N 100.511 1.16574 -1.06058 0
M  V30 1046 C 101.759 1.86677 -0.77434 0
M  V30 1047 C 102.08 1.81959 0.701147 0
M  V30 1048 O 101.35 1.2515 1.50713 0
M  V30 1049 H 99.9298 0.691134 -0.283449 0
M  V30 1050 H 102.592 1.41378 -1.34158 0
M  V30 1051 H 101.688 2.92181 -1.09711 0
M  V30 1052 N 101.989 0.842826 1.3317 0
M  V30 1053 C 102.952 0.284065 2.27433 0
M  V30 1054 C 103.952 -0.54948 1.5112 0
M  V30 1055 O 105.142 -0.362699 1.70382 0
M  V30 1056 C 102.274 -0.599384 3.35589 0
M  V30 1057 H 103.467 1.11589 2.78366 0
M  V30 1058 H 101.02 0.616221 1.4364 0
M  V30 1059 H 101.755 -1.45349 2.89904 0
M  V30 1060 H 101.54 -0.00291266 3.921 0
M  V30 1061 H 103.03 -0.983488 4.05854 0
M  V30 1062 N 103.467 -1.45747 0.599634 0
M  V30 1063 C 104.744 -1.95585 0.0240846 0
M  V30 1064 C 105.124 -1.54217 -1.44154 0
M  V30 1065 O 104.472 -0.800903 -2.14004 0
M  V30 1066 C 104.682 -3.48344 0.21385 0
M  V30 1067 C 106.03 -4.24504 0.0904902 0
M  V30 1068 O 107.054 -3.55911 0.143558 0
M  V30 1069 O 105.913 -5.46491 -0.0310766 0
M  V30 1070 H 103.007 -0.82602 -0.0402478 0
M  V30 1071 H 105.553 -1.55951 0.669139 0
M  V30 1072 H 104.325 -3.71397 1.23206 0
M  V30 1073 H 103.948 -3.9485 -0.466842 0
M  V30 1074 N 104.945 -0.338344 -1.53925 0
M  V30 1075 C 106.173 0.261298 -2.05243 0
M  V30 1076 C 106.588 1.44625 -1.21363 0
M  V30 1077 O 105.945 1.80811 -0.247736 0
M  V30 1078 C 105.996 0.681412 -3.5502 0
M  V30 1079 O 105.717 -0.456414 -4.35716 0
M  V30 1080 C 107.218 1.34232 -4.22489 0
M  V30 1081 H 104.438 0.0513685 -0.669031 0
M  V30 1082 H 106.982 -0.488822 -1.98572 0
M  V30 1083 H 105.137 1.38148 -3.61931 0
M  V30 1084 H 105.551 -0.122564 -5.24357 0
M  V30 1085 H 107.025 1.58708 -5.28693 0
M  V30 1086 H 107.502 2.29426 -3.74514 0
M  V30 1087 H 108.108 0.684424 -4.19757 0
M  V30 1088 N 106.423 1.57458 -0.0668435 0
M  V30 1089 C 107.356 2.08033 0.93795 0
M  V30 1090 C 108.334 0.984321 1.29421 0
M  V30 1091 O 109.518 1.25736 1.40437 0
M  V30 1092 C 106.645 2.53388 2.24749 0
M  V30 1093 C 105.691 3.74376 2.04315 0
M  V30 1094 S 106.524 5.19303 1.30706 0
M  V30 1095 C 107.68 5.67986 2.62951 0
M  V30 1096 H 107.913 2.92935 0.50759 0
M  V30 1097 H 105.446 1.5371 0.145804 0
M  V30 1098 H 107.404 2.8018 3.00016 0
M  V30 1099 H 106.065 1.68763 2.64911 0
M  V30 1100 H 105.258 4.04083 3.01218 0
M  V30 1101 H 104.86 3.47931 1.37186 0
M  V30 1102 H 107.152 5.74528 3.5906 0
M  V30 1103 H 108.095 6.66955 2.3786 0
M  V30 1104 H 108.503 4.95781 2.69929 0
M  V30 1105 N 107.901 -0.206675 1.56239 0
M  V30 1106 C 109.178 -0.954051 1.70755 0
M  V30 1107 C 109.558 -2.01841 0.618353 0
M  V30 1108 O 108.906 -2.25444 -0.372434 0
M  V30 1109 C 109.116 -1.551 3.12642 0
M  V30 1110 C 110.464 -2.03757 3.72516 0
M  V30 1111 O 111.488 -1.64965 3.15698 0
M  V30 1112 O 110.347 -2.75103 4.72208 0
M  V30 1113 H 107.441 -0.446636 0.696021 0
M  V30 1114 H 109.987 -0.197283 1.68549 0
M  V30 1115 H 108.759 -0.783212 3.83382 0
M  V30 1116 H 108.382 -2.37291 3.19028 0
M  V30 1117 N 109.379 -1.50304 -0.473955 0
M  V30 1118 C 110.342 -1.6841 -1.55469 0
M  V30 1119 C 111.342 -0.554905 -1.50922 0
M  V30 1120 O 112.532 -0.821882 -1.53593 0
M  V30 1121 C 109.664 -1.70667 -2.95102 0
M  V30 1122 H 110.857 -2.64828 -1.40733 0
M  V30 1123 H 108.41 -1.39742 -0.700132 0
M  V30 1124 H 109.145 -0.75932 -3.15285 0
M  V30 1125 H 108.93 -2.52698 -2.9981 0
M  V30 1126 H 110.42 -1.8664 -3.73571 0
M  V30 1127 N 110.857 0.726932 -1.39834 0
M  V30 1128 C 112.082 1.52121 -1.40976 0
M  V30 1129 C 112.507 1.88098 -0.00826029 0
M  V30 1130 O 111.865 1.52479 0.980807 0
M  V30 1131 C 111.913 2.78021 -2.29644 0
M  V30 1132 O 111.017 3.74272 -1.73188 0
M  V30 1133 H 110.358 0.45908 -0.479731 0
M  V30 1134 H 112.888 0.896207 -1.83927 0
M  V30 1135 H 112.898 3.26671 -2.44438 0
M  V30 1136 H 111.573 2.51169 -3.31492 0
M  V30 1137 H 110.15 3.33073 -1.6768 0
M  V30 1138 N 112.336 1.25143 0.95797 0
M  V30 1139 C 113.583 1.09692 1.70217 0
M  V30 1140 C 113.911 -0.362654 1.91089 0
M  V30 1141 O 113.166 -1.28386 1.47701 0
M  V30 1142 C 113.465 1.79272 3.09187 0
M  V30 1143 C 113.131 3.29196 3.08125 0
M  V30 1144 C 111.793 3.70096 3.07543 0
M  V30 1145 C 114.145 4.24995 3.0171 0
M  V30 1146 C 111.473 5.05213 2.9829 0
M  V30 1147 C 113.825 5.60132 2.93999 0
M  V30 1148 C 112.489 6.00365 2.9175 0
M  V30 1149 H 111.759 0.401393 0.622868 0
M  V30 1150 H 114.406 1.55372 1.11945 0
M  V30 1151 H 112.711 1.26014 3.70982 0
M  V30 1152 H 114.408 1.64773 3.65583 0
M  V30 1153 H 110.998 2.96651 3.09348 0
M  V30 1154 H 115.182 3.9439 3.01281 0
M  V30 1155 H 110.438 5.35569 2.94916 0
M  V30 1156 H 114.612 6.3406 2.87996 0
M  V30 1157 H 112.239 7.05023 2.84336 0
M  V30 1158 N 113.814 -1.1601 1.06675 0
M  V30 1159 C 115.039 -1.91068 0.806706 0
M  V30 1160 C 115.464 -1.77112 -0.633485 0
M  V30 1161 O 114.822 -1.09908 -1.44187 0
M  V30 1162 C 114.87 -3.39655 1.21106 0
M  V30 1163 O 113.974 -4.10893 0.352189 0
M  V30 1164 H 113.315 -0.595125 0.294486 0
M  V30 1165 H 115.845 -1.46955 1.42356 0
M  V30 1166 H 115.855 -3.90434 1.18428 0
M  V30 1167 H 114.53 -3.49132 2.26008 0
M  V30 1168 H 113.107 -3.70285 0.440868 0
M  V30 1169 N 115.292 -0.849877 -1.32721 0
M  V30 1170 C 116.52 -0.464754 -2.01613 0
M  V30 1171 C 116.935 0.937191 -1.63897 0
M  V30 1172 O 116.292 1.61081 -0.857856 0
M  V30 1173 C 116.343 -0.588638 -3.56675 0
M  V30 1174 O 116.064 -1.93535 -3.93034 0
M  V30 1175 C 117.565 -0.2019 -4.4284 0
M  V30 1176 H 114.785 -0.183215 -0.645502 0
M  V30 1177 H 117.329 -1.1455 -1.69407 0
M  V30 1178 H 115.484 0.0443159 -3.87375 0
M  V30 1179 H 115.898 -1.92871 -4.87751 0
M  V30 1180 H 117.372 -0.339599 -5.50954 0
M  V30 1181 H 117.849 0.857224 -4.30753 0
M  V30 1182 H 118.455 -0.809733 -4.17521 0
M  V30 1183 N 116.77 1.45427 -0.607355 0
M  V30 1184 C 117.7 2.3329 0.0989352 0
M  V30 1185 C 118.681 1.46816 0.859007 0
M  V30 1186 O 119.866 1.75588 0.829604 0
M  V30 1187 C 116.996 3.29518 1.09705 0
M  V30 1188 C 115.95 4.25626 0.450206 0
M  V30 1189 C 115.276 5.11542 1.55655 0
M  V30 1190 C 116.576 5.18505 -0.628455 0
M  V30 1191 H 118.27 2.92595 -0.634716 0
M  V30 1192 H 115.816 1.40696 -0.306681 0
M  V30 1193 H 117.769 3.89855 1.59971 0
M  V30 1194 H 116.493 2.68372 1.86129 0
M  V30 1195 H 115.152 3.66586 -0.0315886 0
M  V30 1196 H 114.8 4.46765 2.31107 0
M  V30 1197 H 114.5 5.76647 1.12925 0
M  V30 1198 H 116.024 5.74748 2.06148 0
M  V30 1199 H 117.438 5.72916 -0.209877 0
M  V30 1200 H 115.835 5.92085 -0.977489 0
M  V30 1201 H 116.905 4.60948 -1.50514 0
M  V30 1202 N 118.248 0.346503 1.53744 0
M  V30 1203 C 119.525 -0.304532 1.93215 0
M  V30 1204 C 119.905 -1.67993 1.27834 0
M  V30 1205 O 119.253 -2.24411 0.430352 0
M  V30 1206 C 119.463 -0.373852 3.46992 0
M  V30 1207 C 120.811 -0.62329 4.2 0
M  V30 1208 O 121.835 -0.455847 3.53271 0
M  V30 1209 O 120.694 -0.947879 5.38217 0
M  V30 1210 H 117.788 -0.178318 0.807547 0
M  V30 1211 H 120.334 0.397895 1.64969 0
M  V30 1212 H 119.106 0.591224 3.86808 0
M  V30 1213 H 118.729 -1.12294 3.81413 0
M  V30 1214 N 119.726 -1.57421 0.075193 0
M  V30 1215 C 120.975 -1.92794 -0.592731 0
M  V30 1216 C 121.288 -0.957478 -1.70563 0
M  V30 1217 O 122.494 -1.20417 -2.43335 0
M  V30 1218 C 120.95 -3.42495 -1.10569 0
M  V30 1219 C 120.558 -4.47994 -0.0236121 0
M  V30 1220 C 122.302 -3.86864 -1.74748 0
M  V30 1221 C 120.209 -5.88829 -0.550803 0
M  V30 1222 H 119.139 -0.719591 -0.225177 0
M  V30 1223 H 121.79 -1.82902 0.147978 0
M  V30 1224 H 120.172 -3.47471 -1.89947 0
M  V30 1225 H 121.346 -4.54637 0.751099 0
M  V30 1226 H 119.661 -4.13113 0.522159 0
M  V30 1227 H 122.258 -4.8947 -2.15229 0
M  V30 1228 H 122.601 -3.24417 -2.60882 0
M  V30 1229 H 123.134 -3.84504 -1.01986 0
M  V30 1230 H 119.873 -6.54929 0.273457 0
M  V30 1231 H 119.393 -5.85698 -1.29296 0
M  V30 1232 H 121.072 -6.38811 -1.02613 0
M  V30 1233 N 121.204 0.198386 -1.56346 0
M  V30 1234 C 122.137 1.27381 -1.89339 0
M  V30 1235 C 123.115 1.44106 -0.753134 0
M  V30 1236 O 124.299 1.59549 -1.00381 0
M  V30 1237 C 121.426 2.6409 -2.12071 0
M  V30 1238 C 120.472 2.64253 -3.34772 0
M  V30 1239 S 121.305 2.16013 -4.89999 0
M  V30 1240 C 122.461 3.54553 -5.15794 0
M  V30 1241 H 122.694 0.992058 -2.8026 0
M  V30 1242 H 120.227 0.401726 -1.49082 0
M  V30 1243 H 122.185 3.42786 -2.2585 0
M  V30 1244 H 120.846 2.89478 -1.21906 0
M  V30 1245 H 120.039 3.64768 -3.47794 0
M  V30 1246 H 119.641 1.93637 -3.1997 0
M  V30 1247 H 121.933 4.50396 -5.06112 0
M  V30 1248 H 122.876 3.46428 -6.1757 0
M  V30 1249 H 123.284 3.49313 -4.43442 0
M  V30 1250 N 122.682 1.50554 0.465978 0
M  V30 1251 C 123.907 1.65838 1.24549 0
M  V30 1252 C 124.332 0.343486 1.84937 0
M  V30 1253 O 123.69 -0.69324 1.67523 0
M  V30 1254 C 123.738 2.75533 2.32624 0
M  V30 1255 O 122.842 2.37142 3.37398 0
M  V30 1256 H 122.183 0.553893 0.366194 0
M  V30 1257 H 124.713 1.96959 0.553927 0
M  V30 1258 H 124.723 2.98763 2.77857 0
M  V30 1259 H 123.398 3.70962 1.88043 0
M  V30 1260 H 121.975 2.24377 2.97841 0
M  V30 1261 N 124.16 -0.719506 1.40217 0
M  V30 1262 C 125.385 -1.51371 1.4178 0
M  V30 1263 C 125.81 -1.88091 0.0182355 0
M  V30 1264 O 125.168 -1.52997 -0.972707 0
M  V30 1265 C 125.216 -2.768 2.31115 0
M  V30 1266 O 124.32 -3.73349 1.7517 0
M  V30 1267 H 123.661 -0.456529 0.482159 0
M  V30 1268 H 126.191 -0.88644 1.844 0
M  V30 1269 H 126.201 -3.25371 2.46167 0
M  V30 1270 H 124.876 -2.49407 3.3282 0
M  V30 1271 H 123.453 -3.32179 1.69444 0
M  V30 1272 N 125.638 -1.25649 -0.95132 0
M  V30 1273 C 127.054 -1.02542 -1.223 0
M  V30 1274 C 127.254 0.255715 -1.99871 0
M  V30 1275 O 126.31 0.967558 -2.33226 0
M  V30 1276 C 127.623 -2.25065 -1.99415 0
M  V30 1277 C 129.171 -2.29861 -2.12446 0
M  V30 1278 C 129.646 -3.52048 -2.92961 0
M  V30 1279 N 131.137 -3.52465 -3.00538 0
M  V30 1280 C 131.872 -4.43672 -3.63239 0
M  V30 1281 N 131.368 -5.45157 -4.27523 0
M  V30 1282 N 133.161 -4.31346 -3.60412 0
M  V30 1283 H 125.312 -2.07951 -0.432471 0
M  V30 1284 H 127.575 -0.91339 -0.253816 0
M  V30 1285 H 127.281 -3.18194 -1.49817 0
M  V30 1286 H 127.155 -2.28502 -3.00111 0
M  V30 1287 H 129.542 -1.37252 -2.61239 0
M  V30 1288 H 129.623 -2.3044 -1.11044 0
M  V30 1289 H 129.267 -4.44981 -2.44856 0
M  V30 1290 H 129.197 -3.48715 -3.94596 0
M  V30 1291 H 131.688 -2.79056 -2.54826 0
M  V30 1292 H 132.001 -6.10958 -4.73234 0
M  V30 1293 H 130.346 -5.49025 -4.26141 0
M  V30 1294 H 133.537 -3.51288 -3.09377 0
M  V30 1295 H 133.71 -5.02624 -4.0899 0
M  V30 1296 N 127.117 1.15442 -1.07289 0
M  V30 1297 C 128.047 2.22312 -0.714107 0
M  V30 1298 C 129.028 1.67467 0.298155 0
M  V30 1299 O 130.213 1.93445 0.171048 0
M  V30 1300 C 127.343 3.47124 -0.110448 0
M  V30 1301 C 126.297 4.14926 -1.04979 0
M  V30 1302 C 125.623 5.33807 -0.308924 0
M  V30 1303 C 126.923 4.64762 -2.38314 0
M  V30 1304 H 128.617 2.5258 -1.6076 0
M  V30 1305 H 126.163 1.21404 -0.77441 0
M  V30 1306 H 128.116 4.21124 0.152482 0
M  V30 1307 H 126.84 3.16187 0.81812 0
M  V30 1308 H 125.499 3.42866 -1.29764 0
M  V30 1309 H 125.147 4.99126 0.623084 0
M  V30 1310 H 124.847 5.80113 -0.935036 0
M  V30 1311 H 126.371 6.10576 -0.0537771 0
M  V30 1312 H 127.785 5.30292 -2.1786 0
M  V30 1313 H 126.182 5.21728 -2.96514 0
M  V30 1314 H 127.252 3.80434 -3.00663 0
M  V30 1315 N 128.595 0.856903 1.32268 0
M  V30 1316 C 130.006 0.515711 1.79436 0
M  V30 1317 C 130.357 -0.966586 1.70738 0
M  V30 1318 O 129.482 -1.75409 1.26731 0
M  V30 1319 C 130.077 0.929335 3.25805 0
M  V30 1320 C 128.636 0.640006 3.70919 0
M  V30 1321 C 127.783 1.12784 2.53328 0
M  V30 1322 H 130.734 1.04389 1.19535 0
M  V30 1323 H 130.755 0.246633 3.797 0
M  V30 1324 H 130.267 2.00821 3.32103 0
M  V30 1325 H 128.368 -0.428051 3.70133 0
M  V30 1326 H 128.481 1.20788 4.63624 0
M  V30 1327 H 126.845 0.548033 2.48734 0
M  V30 1328 H 127.628 2.21387 2.62379 0
M  V30 1329 N 130.073 -1.45103 0.615059 0
M  V30 1330 C 130.983 -2.34382 -0.101034 0
M  V30 1331 C 131.999 -1.51681 -0.852585 0
M  V30 1332 O 133.175 -1.8446 -0.808484 0
M  V30 1333 C 130.24 -3.29417 -1.08099 0
M  V30 1334 C 129.301 -4.28025 -0.330577 0
M  V30 1335 C 128.534 -5.1852 -1.26385 0
M  V30 1336 O 128.757 -5.12598 -2.50198 0
M  V30 1337 O 127.691 -5.97122 -0.756866 0
M  V30 1338 H 131.517 -2.97033 0.632855 0
M  V30 1339 H 129.102 -1.4461 0.375293 0
M  V30 1340 H 130.984 -3.87958 -1.6452 0
M  V30 1341 H 129.659 -2.69321 -1.79577 0
M  V30 1342 H 128.566 -3.73078 0.276283 0
M  V30 1343 H 129.899 -4.90997 0.343866 0
M  V30 1344 N 131.551 -0.354651 -1.53558 0
M  V30 1345 C 132.461 0.50515 -2.29097 0
M  V30 1346 C 133.477 1.10223 -1.34636 0
M  V30 1347 O 134.653 1.11553 -1.67684 0
M  V30 1348 C 131.718 1.63479 -3.05738 0
M  V30 1349 C 130.779 1.06636 -4.15845 0
M  V30 1350 C 130.012 2.14217 -4.88822 0
M  V30 1351 O 130.235 3.35137 -4.61562 0
M  V30 1352 O 129.169 1.77887 -5.75013 0
M  V30 1353 H 132.995 -0.109237 -3.03503 0
M  V30 1354 H 130.58 -0.119357 -1.48922 0
M  V30 1355 H 132.462 2.2918 -3.5363 0
M  V30 1356 H 131.137 2.23478 -2.34178 0
M  V30 1357 H 130.044 0.373565 -3.7223 0
M  V30 1358 H 131.377 0.511081 -4.89539 0
M  V30 1359 N 133.029 1.57378 -0.0835403 0
M  V30 1360 C 134.277 1.93547 0.581718 0
M  V30 1361 C 134.598 0.96524 1.69435 0
M  V30 1362 O 133.868 0.0153369 1.95894 0
M  V30 1363 H 132.448 0.714521 0.217874 0
M  V30 1364 H 135.11 1.94366 -0.144158 0
M  V30 1365 H 134.206 2.95665 0.999423 0
M  V30 1366 N 134.507 -0.190092 1.56449 0
M  V30 1367 C 135.735 -0.925772 1.85033 0
M  V30 1368 C 136.15 -1.76638 0.666658 0
M  V30 1369 O 135.507 -1.78822 -0.364565 0
M  V30 1370 C 135.558 -1.81786 3.12468 0
M  V30 1371 O 135.279 -1.01118 4.26271 0
M  V30 1372 C 136.78 -2.6648 3.54265 0
M  V30 1373 H 134 -0.269872 0.614337 0
M  V30 1374 H 136.544 -0.195837 2.0356 0
M  V30 1375 H 134.699 -2.50136 2.95822 0
M  V30 1376 H 135.113 -1.61956 4.98869 0
M  V30 1377 H 136.587 -3.24722 4.46385 0
M  V30 1378 H 137.064 -3.40434 2.77491 0
M  V30 1379 H 137.67 -2.03493 3.73458 0
M  V30 1380 N 135.985 -1.50799 -0.457987 0
M  V30 1381 C 137.213 -1.66218 -1.23203 0
M  V30 1382 C 137.628 -0.350894 -1.85511 0
M  V30 1383 O 136.985 0.668546 -1.69814 0
M  V30 1384 C 137.036 -2.76291 -2.33121 0
M  V30 1385 O 136.757 -4.02338 -1.73366 0
M  V30 1386 C 138.258 -3.028 -3.2377 0
M  V30 1387 H 135.478 -0.558361 -0.372121 0
M  V30 1388 H 138.022 -1.97099 -0.545179 0
M  V30 1389 H 136.177 -2.48068 -2.97558 0
M  V30 1390 H 136.591 -4.63312 -2.4585 0
M  V30 1391 H 138.065 -3.8345 -3.97077 0
M  V30 1392 H 138.542 -2.14385 -3.83322 0
M  V30 1393 H 139.148 -3.32604 -2.65056 0
M  V30 1394 N 137.463 0.71206 -1.40597 0
M  V30 1395 C 138.688 1.50617 -1.42581 0
M  V30 1396 C 139.113 1.88079 -0.0282102 0
M  V30 1397 O 138.471 1.53511 0.964579 0
M  V30 1398 C 138.519 2.7557 -2.3258 0
M  V30 1399 O 137.623 3.72414 -1.77148 0
M  V30 1400 H 136.964 0.453966 -0.484573 0
M  V30 1401 H 139.494 0.876649 -1.84868 0
M  V30 1402 H 139.504 3.2406 -2.47889 0
M  V30 1403 H 138.179 2.47639 -3.34138 0
M  V30 1404 H 136.756 3.31276 -1.71204 0
M  V30 1405 N 138.941 1.26152 0.944643 0
M  V30 1406 C 140.188 1.11492 1.69044 0
M  V30 1407 C 140.516 -0.342366 1.91463 0
M  V30 1408 O 139.771 -1.26812 1.49054 0
M  V30 1409 C 140.07 1.82541 3.07268 0
M  V30 1410 C 139.736 3.32445 3.04616 0
M  V30 1411 C 138.398 3.73337 3.036 0
M  V30 1412 C 140.75 4.28171 2.97185 0
M  V30 1413 C 138.078 5.08348 2.92915 0
M  V30 1414 C 140.43 5.63218 2.88041 0
M  V30 1415 C 139.094 6.03426 2.85366 0
M  V30 1416 H 138.364 0.407977 0.618576 0
M  V30 1417 H 141.011 1.56551 1.10291 0
M  V30 1418 H 139.316 1.29941 3.69625 0
M  V30 1419 H 141.013 1.68642 3.63815 0
M  V30 1420 H 137.603 2.99915 3.06185 0
M  V30 1421 H 141.787 3.97563 2.97081 0
M  V30 1422 H 137.043 5.38667 2.89219 0
M  V30 1423 H 141.217 6.37078 2.81254 0
M  V30 1424 H 138.844 7.07999 2.76842 0
M  V30 1425 N 140.419 -1.14872 1.07899 0
M  V30 1426 C 141.349 -2.2193 0.725887 0
M  V30 1427 C 142.33 -1.67622 -0.28927 0
M  V30 1428 O 143.515 -1.93533 -0.160787 0
M  V30 1429 C 140.645 -3.47061 0.128856 0
M  V30 1430 C 139.599 -4.14363 1.07178 0
M  V30 1431 C 138.925 -5.33636 0.337229 0
M  V30 1432 C 140.225 -4.63492 2.40775 0
M  V30 1433 H 141.919 -2.51724 1.62097 0
M  V30 1434 H 139.465 -1.20991 0.780838 0
M  V30 1435 H 141.418 -4.21199 -0.130147 0
M  V30 1436 H 140.142 -3.16617 -0.80134 0
M  V30 1437 H 138.801 -3.42173 1.3158 0
M  V30 1438 H 138.449 -4.99449 -0.596606 0
M  V30 1439 H 138.149 -5.79609 0.965788 0
M  V30 1440 H 139.673 -6.10539 0.0861567 0
M  V30 1441 H 141.087 -5.2913 2.20669 0
M  V30 1442 H 139.484 -5.20148 2.99276 0
M  V30 1443 H 140.554 -3.78834 3.02676 0
M  V30 1444 N 141.898 -0.863906 -1.31812 0
M  V30 1445 C 142.861 -0.320212 -2.26952 0
M  V30 1446 C 143.861 0.525369 -1.51975 0
M  V30 1447 O 145.051 0.335547 -1.70938 0
M  V30 1448 C 142.183 0.545919 -3.365 0
M  V30 1449 H 143.376 -1.16004 -2.76556 0
M  V30 1450 H 140.929 -0.638995 -1.42641 0
M  V30 1451 H 141.664 1.40718 -2.92179 0
M  V30 1452 H 141.449 -0.0594674 -3.92055 0
M  V30 1453 H 142.939 0.918796 -4.07367 0
M  V30 1454 N 143.376 1.44774 -0.622745 0
M  V30 1455 C 144.604 2.06487 -0.130722 0
M  V30 1456 C 145.019 1.46476 1.19123 0
M  V30 1457 O 144.376 0.584502 1.72887 0
M  V30 1458 C 144.427 3.615 -0.000807207 0
M  V30 1459 O 144.148 4.19274 -1.27048 0
M  V30 1460 C 145.649 4.40229 0.520898 0
M  V30 1461 H 142.869 0.666704 -0.0758106 0
M  V30 1462 H 145.413 1.85779 -0.854774 0
M  V30 1463 H 143.568 3.81498 0.673643 0
M  V30 1464 H 143.982 5.12622 -1.1099 0
M  V30 1465 H 145.456 5.49144 0.560838 0
M  V30 1466 H 145.933 4.1108 1.54627 0
M  V30 1467 H 146.539 4.25131 -0.120018 0
M  V30 1468 N 144.854 0.36279 1.53368 0
M  V30 1469 C 146.082 -0.228613 2.05633 0
M  V30 1470 C 146.497 -1.42676 1.23649 0
M  V30 1471 O 145.854 -1.80394 0.27647 0
M  V30 1472 C 145.905 -0.624845 3.56059 0
M  V30 1473 O 145.626 0.525675 4.34935 0
M  V30 1474 C 147.127 -1.27493 4.24571 0
M  V30 1475 H 144.347 -0.0407183 0.669763 0
M  V30 1476 H 146.891 0.520352 1.97769 0
M  V30 1477 H 145.046 -1.32373 3.64083 0
M  V30 1478 H 145.46 0.205969 5.24095 0
M  V30 1479 H 146.934 -1.50277 5.31151 0
M  V30 1480 H 147.411 -2.23439 3.78116 0
M  V30 1481 H 148.017 -0.617558 4.20792 0
M  V30 1482 N 146.332 -1.57332 0.0918853 0
M  V30 1483 C 147.581 -1.93412 -0.572249 0
M  V30 1484 C 147.894 -0.975515 -1.69538 0
M  V30 1485 O 149.1 -1.22991 -2.42045 0
M  V30 1486 C 147.556 -3.43648 -1.0693 0
M  V30 1487 C 147.164 -4.47994 0.0239049 0
M  V30 1488 C 148.908 -3.88695 -1.70635 0
M  V30 1489 C 146.815 -5.89381 -0.488319 0
M  V30 1490 H 145.745 -0.721939 -0.217532 0
M  V30 1491 H 148.396 -1.82735 0.167369 0
M  V30 1492 H 146.778 -3.49466 -1.8625 0
M  V30 1493 H 147.952 -4.53815 0.799277 0
M  V30 1494 H 146.267 -4.12536 0.565946 0
M  V30 1495 H 148.864 -4.91725 -2.10025 0
M  V30 1496 H 149.207 -3.27166 -2.57426 0
M  V30 1497 H 149.74 -3.85564 -0.979023 0
M  V30 1498 H 146.479 -6.54602 0.342906 0
M  V30 1499 H 145.999 -5.87037 -1.23077 0
M  V30 1500 H 147.678 -6.39863 -0.958317 0
M  V30 1501 N 147.81 0.181792 -1.56548 0
M  V30 1502 C 149.038 0.915947 -1.85521 0
M  V30 1503 C 149.453 1.76282 -0.676016 0
M  V30 1504 O 148.81 1.79012 0.355077 0
M  V30 1505 C 148.861 1.80126 -3.13427 0
M  V30 1506 O 148.582 0.988562 -4.26801 0
M  V30 1507 C 150.083 2.64597 -3.55673 0
M  V30 1508 H 147.303 0.26661 -0.61576 0
M  V30 1509 H 149.847 0.185039 -2.03661 0
M  V30 1510 H 148.002 2.48563 -2.97145 0
M  V30 1511 H 148.416 1.59308 -4.99721 0
M  V30 1512 H 149.89 3.2235 -4.48101 0
M  V30 1513 H 150.367 3.38958 -2.79292 0
M  V30 1514 H 150.973 2.0151 -3.74532 0
M  V30 1515 N 149.288 1.51039 0.449983 0
M  V30 1516 C 150.22 1.67617 1.56324 0
M  V30 1517 C 151.233 0.557083 1.52972 0
M  V30 1518 O 152.422 0.830989 1.57977 0
M  V30 1519 C 149.522 1.66402 2.95235 0
M  V30 1520 C 148.695 2.9469 3.23229 0
M  V30 1521 C 147.754 2.85832 4.41799 0
M  V30 1522 O 146.78 3.59785 4.41071 0
M  V30 1523 N 147.982 2.00821 5.44657 0
M  V30 1524 H 150.747 2.63648 1.42512 0
M  V30 1525 H 148.308 1.48767 0.638737 0
M  V30 1526 H 150.3 1.58062 3.72557 0
M  V30 1527 H 148.87 0.780182 3.02708 0
M  V30 1528 H 148.09 3.16996 2.34323 0
M  V30 1529 H 149.378 3.79636 3.38754 0
M  V30 1530 H 148.776 1.40091 5.48079 0
M  V30 1531 H 147.333 1.98368 6.20881 0
M  V30 1532 N 150.766 -0.704594 1.40972 0
M  V30 1533 C 151.676 -1.84856 1.44448 0
M  V30 1534 C 152.692 -1.70726 0.335961 0
M  V30 1535 O 153.868 -1.92799 0.582276 0
M  V30 1536 C 150.933 -3.20758 1.31587 0
M  V30 1537 C 149.994 -3.47063 2.52677 0
M  V30 1538 C 149.227 -4.76481 2.4042 0
M  V30 1539 O 149.45 -5.52341 1.42391 0
M  V30 1540 O 148.384 -5.03367 3.30007 0
M  V30 1541 H 152.21 -1.8488 2.40942 0
M  V30 1542 H 149.795 -0.85647 1.22413 0
M  V30 1543 H 151.677 -4.01913 1.26665 0
M  V30 1544 H 150.352 -3.21438 0.382049 0
M  V30 1545 H 149.259 -2.65873 2.63177 0
M  V30 1546 H 150.592 -3.5119 3.44858 0
M  V30 1547 N 152.244 -1.26651 -0.937939 0
M  V30 1548 C 153.194 -1.05156 -2.02302 0
M  V30 1549 C 154.178 0.0171233 -1.60891 0
M  V30 1550 O 155.37 -0.200213 -1.75864 0
M  V30 1551 C 152.499 -0.689962 -3.36295 0
M  V30 1552 C 151.585 -1.79626 -3.84181 0
M  V30 1553 N 151.976 -3.03422 -4.04684 0
M  V30 1554 C 150.274 -1.6806 -4.13124 0
M  V30 1555 C 150.975 -3.75345 -4.444 0
M  V30 1556 N 149.951 -3.03051 -4.51288 0
M  V30 1557 H 153.753 -1.99117 -2.1617 0
M  V30 1558 H 151.267 -1.17216 -1.12402 0
M  V30 1559 H 153.264 -0.517112 -4.13681 0
M  V30 1560 H 151.924 0.242139 -3.23796 0
M  V30 1561 H 152.935 -3.39293 -3.91281 0
M  V30 1562 H 149.612 -0.818629 -4.09396 0
M  V30 1563 H 151.002 -4.81691 -4.68427 0
M  V30 1564 N 153.722 1.14298 -1.08507 0
M  V30 1565 C 154.97 1.84993 -0.813763 0
M  V30 1566 C 155.291 1.83405 0.662393 0
M  V30 1567 O 154.561 1.28319 1.48024 0
M  V30 1568 H 153.141 0.684966 -0.298045 0
M  V30 1569 H 155.803 1.385 -1.37126 0
M  V30 1570 H 154.899 2.89788 -1.15884 0
M  V30 1571 N 155.201 0.870884 1.31352 0
M  V30 1572 C 156.149 0.316445 2.30437 0
M  V30 1573 C 157.143 -0.568965 1.59559 0
M  V30 1574 O 158.349 -0.454964 1.74155 0
M  V30 1575 H 154.724 0.0836521 0.747333 0
M  V30 1576 H 156.695 1.16606 2.74673 0
M  V30 1577 C 155.444 -0.46635 3.44558 0
M  V30 1578 H 154.767 0.205687 3.99271 0
M  V30 1579 H 156.207 -0.819614 4.16003 0
M  V30 1580 C 154.666 -1.65797 2.9328 0
M  V30 1581 O 155.196 -2.75728 2.92125 0
M  V30 1582 N 153.402 -1.49041 2.4947 0
M  V30 1583 H 152.949 -0.59612 2.50608 0
M  V30 1584 H 152.907 -2.28911 2.15516 0
M  V30 1585 N 156.679 -1.44442 0.630414 0
M  V30 1586 C 157.928 -2.01267 0.132073 0
M  V30 1587 C 158.241 -1.50172 -1.25331 0
M  V30 1588 O 159.447 -1.9912 -1.84562 0
M  V30 1589 C 157.903 -3.59422 0.185362 0
M  V30 1590 C 157.511 -4.19514 1.57201 0
M  V30 1591 C 159.255 -4.23724 -0.256553 0
M  V30 1592 C 157.162 -5.69891 1.58045 0
M  V30 1593 H 156.092 -0.752619 0.0456092 0
M  V30 1594 H 158.743 -1.65666 0.789106 0
M  V30 1595 H 157.125 -3.92318 -0.538759 0
M  V30 1596 H 158.299 -3.98156 2.31966 0
M  V30 1597 H 156.614 -3.67496 1.95795 0
M  V30 1598 H 159.211 -5.34019 -0.269767 0
M  V30 1599 H 159.554 -3.96013 -1.28372 0
M  V30 1600 H 160.087 -3.95629 0.41505 0
M  V30 1601 H 156.826 -6.02336 2.58597 0
M  V30 1602 H 156.346 -5.93373 0.875725 0
M  V30 1603 H 158.025 -6.33515 1.31408 0
M  V30 1604 N 158.157 -0.370918 -1.53173 0
M  V30 1605 C 159.382 0.220293 -2.06227 0
M  V30 1606 C 159.807 1.41243 -1.24225 0
M  V30 1607 O 159.165 1.79387 -0.262645 0
M  V30 1608 C 159.213 0.586663 -3.55796 0
M  V30 1609 O 158.317 1.68317 -3.76488 0
M  V30 1610 H 157.658 0.0308099 -0.663285 0
M  V30 1611 H 160.188 -0.533068 -1.97534 0
M  V30 1612 H 160.198 0.85617 -3.98916 0
M  V30 1613 H 158.873 -0.285013 -4.14922 0
M  V30 1614 H 157.45 1.40881 -3.45264 0
M  V30 1615 N 159.635 1.57281 -0.100228 0
M  V30 1616 C 160.567 2.11342 0.886972 0
M  V30 1617 C 161.58 1.05182 1.24261 0
M  V30 1618 O 162.769 1.32613 1.19483 0
M  V30 1619 C 159.869 2.5825 2.19454 0
M  V30 1620 C 159.042 3.88302 2.01346 0
M  V30 1621 C 158.101 4.21004 3.15661 0
M  V30 1622 O 157.127 4.9014 2.89398 0
M  V30 1623 N 158.329 3.76818 4.41575 0
M  V30 1624 H 161.094 2.96668 0.425216 0
M  V30 1625 H 158.655 1.61678 0.0847334 0
M  V30 1626 H 160.647 2.7717 2.94888 0
M  V30 1627 H 159.217 1.77907 2.57037 0
M  V30 1628 H 158.437 3.7848 1.10212 0
M  V30 1629 H 159.725 4.73375 1.8653 0
M  V30 1630 H 159.123 3.2102 4.65792 0
M  V30 1631 H 157.68 4.00882 5.13942 0
M  V30 1632 N 161.113 -0.173488 1.56642 0
M  V30 1633 C 162.076 -1.19859 1.95362 0
M  V30 1634 C 163.076 -1.37296 0.83704 0
M  V30 1635 O 164.266 -1.34739 1.10413 0
M  V30 1636 C 161.398 -2.56405 2.24654 0
M  V30 1637 H 162.591 -0.867062 2.87092 0
M  V30 1638 H 160.144 -0.415853 1.50666 0
M  V30 1639 H 160.879 -2.94576 1.35631 0
M  V30 1640 H 160.664 -2.45115 3.06041 0
M  V30 1641 H 162.154 -3.30287 2.5554 0
M  V30 1642 N 162.591 -1.51276 -0.441967 0
M  V30 1643 C 163.521 -1.752 -1.54361 0
M  V30 1644 C 164.502 -0.601682 -1.59103 0
M  V30 1645 O 165.687 -0.843913 -1.74905 0
M  V30 1646 C 162.817 -1.87282 -2.92477 0
M  V30 1647 C 161.771 -3.02687 -3.02596 0
M  V30 1648 C 161.097 -2.99947 -4.42647 0
M  V30 1649 C 162.397 -4.4273 -2.77106 0
M  V30 1650 H 164.091 -2.67442 -1.34592 0
M  V30 1651 H 161.637 -1.28694 -0.646048 0
M  V30 1652 H 163.59 -2.02602 -3.695 0
M  V30 1653 H 162.314 -0.916844 -3.13467 0
M  V30 1654 H 160.973 -2.87065 -2.28012 0
M  V30 1655 H 160.621 -2.02136 -4.60597 0
M  V30 1656 H 160.321 -3.77439 -4.50348 0
M  V30 1657 H 161.845 -3.17354 -5.2165 0
M  V30 1658 H 163.259 -4.58727 -3.43864 0
M  V30 1659 H 161.656 -5.21893 -2.96222 0
M  V30 1660 H 162.726 -4.53087 -1.72744 0
M  V30 1661 N 164.069 0.697108 -1.41344 0
M  V30 1662 C 165.315 1.4593 -1.40827 0
M  V30 1663 C 165.648 1.94193 -0.0167098 0
M  V30 1664 O 164.923 1.69425 0.955263 0
M  V30 1665 C 165.206 2.67229 -2.41373 0
M  V30 1666 C 165.059 2.24741 -3.8963 0
M  V30 1667 C 166.378 3.69423 -2.39196 0
M  V30 1668 H 163.497 0.529303 -0.512842 0
M  V30 1669 H 166.139 0.794112 -1.72609 0
M  V30 1670 H 164.289 3.23982 -2.14401 0
M  V30 1671 H 165.961 1.73327 -4.27499 0
M  V30 1672 H 164.204 1.56542 -4.0457 0
M  V30 1673 H 164.875 3.1177 -4.55525 0
M  V30 1674 H 167.351 3.2234 -2.63128 0
M  V30 1675 H 166.227 4.51907 -3.11563 0
M  V30 1676 H 166.488 4.19012 -1.41001 0
M  V30 1677 N 165.547 1.27147 0.931209 0
M  V30 1678 C 166.495 1.09398 2.05268 0
M  V30 1679 C 167.489 0.0180591 1.6939 0
M  V30 1680 O 168.695 0.17551 1.79142 0
M  V30 1681 H 165.07 0.336986 0.672268 0
M  V30 1682 H 167.041 2.04416 2.17386 0
M  V30 1683 C 165.79 0.75424 3.39421 0
M  V30 1684 H 165.113 1.57404 3.67511 0
M  V30 1685 H 166.553 0.669903 4.18674 0
M  V30 1686 C 165.012 -0.541197 3.32525 0
M  V30 1687 O 165.542 -1.57664 3.69466 0
M  V30 1688 N 163.748 -0.535517 2.85623 0
M  V30 1689 H 163.295 0.307511 2.55758 0
M  V30 1690 H 163.253 -1.40236 2.81392 0
M  V30 1691 N 167.025 -1.13721 1.09112 0
M  V30 1692 C 167.988 -2.17222 0.731241 0
M  V30 1693 C 168.988 -1.59035 -0.237566 0
M  V30 1694 O 170.178 -1.74192 -0.0161704 0
M  V30 1695 C 167.31 -3.40804 0.0808443 0
M  V30 1696 H 168.503 -2.50573 1.64783 0
M  V30 1697 H 166.056 -1.28493 0.889897 0
M  V30 1698 H 166.791 -3.1304 -0.847127 0
M  V30 1699 H 166.576 -3.84306 0.777896 0
M  V30 1700 H 168.066 -4.1731 -0.155657 0
M  V30 1701 N 168.503 -0.877838 -1.30888 0
M  V30 1702 C 169.919 -0.570844 -1.49042 0
M  V30 1703 C 170.119 0.893159 -1.80624 0
M  V30 1704 O 169.175 1.67485 -1.88958 0
M  V30 1705 C 170.488 -1.47784 -2.61878 0
M  V30 1706 C 172.036 -1.48071 -2.75761 0
M  V30 1707 C 172.511 -2.37347 -3.91702 0
M  V30 1708 N 174.002 -2.35271 -3.99001 0
M  V30 1709 C 174.737 -3.01063 -4.88004 0
M  V30 1710 N 174.233 -3.76055 -5.81854 0
M  V30 1711 N 176.026 -2.90332 -4.81315 0
M  V30 1712 H 168.177 -1.82502 -1.0866 0
M  V30 1713 H 170.44 -0.780797 -0.537644 0
M  V30 1714 H 170.146 -2.51993 -2.45341 0
M  V30 1715 H 170.02 -1.18215 -3.58197 0
M  V30 1716 H 172.407 -0.446166 -2.91708 0
M  V30 1717 H 172.488 -1.81668 -1.80085 0
M  V30 1718 H 172.132 -3.40883 -3.76512 0
M  V30 1719 H 172.062 -2.01071 -4.86701 0
M  V30 1720 H 174.553 -1.80768 -3.3186 0
M  V30 1721 H 174.866 -4.23366 -6.46514 0
M  V30 1722 H 173.211 -3.80163 -5.81808 0
M  V30 1723 H 176.402 -2.31278 -4.06974 0
M  V30 1724 H 176.575 -3.41885 -5.50471 0
M  V30 1725 N 169.982 1.44106 -0.638065 0
M  V30 1726 C 170.892 2.34513 0.0637334 0
M  V30 1727 C 171.908 1.53018 0.828346 0
M  V30 1728 O 173.084 1.85723 0.779036 0
M  V30 1729 C 170.149 3.31095 1.02844 0
M  V30 1730 C 169.21 4.28497 0.26244 0
M  V30 1731 C 168.443 5.20465 1.1812 0
M  V30 1732 O 168.666 5.16514 2.42011 0
M  V30 1733 O 167.6 5.98251 0.661774 0
M  V30 1734 H 171.426 2.95989 -0.68003 0
M  V30 1735 H 169.011 1.43994 -0.398252 0
M  V30 1736 H 170.893 3.90526 1.58327 0
M  V30 1737 H 169.568 2.72144 1.7527 0
M  V30 1738 H 168.475 3.72592 -0.335602 0
M  V30 1739 H 169.808 4.90388 -0.421936 0
M  V30 1740 N 171.46 0.379036 1.52974 0
M  V30 1741 C 172.706 -0.199244 2.02422 0
M  V30 1742 C 173.061 -1.4532 1.26095 0
M  V30 1743 O 172.354 -1.88377 0.34996 0
M  V30 1744 C 172.548 -0.53096 3.53434 0
M  V30 1745 C 172.377 0.689298 4.44386 0
M  V30 1746 C 171.147 1.20546 4.9071 0
M  V30 1747 C 173.345 1.55856 4.90116 0
M  V30 1748 N 171.327 2.38434 5.65705 0
M  V30 1749 C 172.698 2.58396 5.63588 0
M  V30 1750 C 174.753 1.57986 4.7217 0
M  V30 1751 C 173.456 3.62939 6.21022 0
M  V30 1752 C 175.482 2.6143 5.30479 0
M  V30 1753 C 174.844 3.62693 6.03849 0
M  V30 1754 H 170.943 -0.0352671 0.781204 0
M  V30 1755 H 173.527 0.526614 1.87443 0
M  V30 1756 H 171.698 -1.22588 3.68547 0
M  V30 1757 H 173.43 -1.0955 3.89591 0
M  V30 1758 H 170.185 0.768022 4.67331 0
M  V30 1759 H 170.609 2.98055 6.07859 0
M  V30 1760 H 175.251 0.810475 4.14959 0
M  V30 1761 H 172.969 4.40751 6.77321 0
M  V30 1762 H 176.555 2.63949 5.18481 0
M  V30 1763 H 175.435 4.41424 6.48163 0
M  V30 1764 N 172.938 -1.57226 0.108567 0
M  V30 1765 C 173.885 -2.14756 -0.845481 0
M  V30 1766 C 174.855 -1.06971 -1.27068 0
M  V30 1767 O 176.04 -1.34827 -1.35005 0
M  V30 1768 C 173.18 -2.74298 -2.09415 0
M  V30 1769 C 172.293 -3.96358 -1.71826 0
M  V30 1770 C 171.428 -4.44021 -2.9158 0
M  V30 1771 C 170.467 -5.58637 -2.50181 0
M  V30 1772 N 169.604 -6.01091 -3.62814 0
M  V30 1773 H 174.444 -2.95961 -0.348035 0
M  V30 1774 H 171.981 -1.46226 -0.160106 0
M  V30 1775 H 173.939 -3.06945 -2.82561 0
M  V30 1776 H 172.569 -1.95801 -2.56636 0
M  V30 1777 H 171.621 -3.69939 -0.885947 0
M  V30 1778 H 172.933 -4.79504 -1.37394 0
M  V30 1779 H 172.087 -4.78522 -3.72963 0
M  V30 1780 H 170.826 -3.59803 -3.29231 0
M  V30 1781 H 169.831 -5.23751 -1.67228 0
M  V30 1782 H 171.056 -6.44613 -2.13659 0
M  V30 1783 H 169.002 -5.19817 -4.00158 0
M  V30 1784 H 168.919 -6.79066 -3.32273 0
M  V30 1785 H 170.187 -6.40227 -4.44668 0
M  V30 1786 N 174.416 0.165178 -1.56732 0
M  V30 1787 C 175.379 1.18822 -1.95995 0
M  V30 1788 C 176.379 1.3685 -0.84431 0
M  V30 1789 O 177.569 1.34152 -1.11126 0
M  V30 1790 C 174.701 2.5521 -2.26011 0
M  V30 1791 H 175.894 0.851825 -2.87548 0
M  V30 1792 H 173.447 0.407857 -1.50885 0
M  V30 1793 H 174.182 2.93852 -1.37191 0
M  V30 1794 H 173.967 2.43489 -3.07336 0
M  V30 1795 H 175.457 3.28927 -2.57288 0
M  V30 1796 N 175.894 1.51508 0.433938 0
M  V30 1797 C 176.857 1.72473 1.50949 0
M  V30 1798 C 177.857 0.594725 1.49398 0
M  V30 1799 O 179.047 0.862315 1.5136 0
M  V30 1800 C 176.179 1.78431 2.90474 0
M  V30 1801 H 177.372 2.68467 1.33662 0
M  V30 1802 H 174.925 1.41549 0.662836 0
M  V30 1803 H 175.66 0.842645 3.13161 0
M  V30 1804 H 175.445 2.60558 2.93005 0
M  V30 1805 H 176.935 1.96479 3.68491 0
M  V30 1806 N 177.372 -0.689602 1.41712 0
M  V30 1807 C 178.282 -1.83314 1.46401 0
M  V30 1808 C 179.298 -1.7036 0.35405 0
M  V30 1809 O 180.474 -1.92171 0.602692 0
M  V30 1810 C 177.539 -3.19344 1.34982 0
M  V30 1811 C 176.6 -3.44363 2.56344 0
M  V30 1812 C 175.833 -4.73904 2.45461 0
M  V30 1813 O 176.056 -5.508 1.48241 0
M  V30 1814 O 174.99 -4.99839 3.35328 0
M  V30 1815 H 178.816 -1.82314 2.42889 0
M  V30 1816 H 176.401 -0.843438 1.23315 0
M  V30 1817 H 178.283 -4.00547 1.3092 0
M  V30 1818 H 176.958 -3.21014 0.41612 0
M  V30 1819 H 175.865 -2.63067 2.65982 0
M  V30 1820 H 177.198 -3.47512 3.48563 0
M  V30 1821 N 178.85 -1.27639 -0.924453 0
M  V30 1822 C 179.76 -1.12466 -2.05885 0
M  V30 1823 C 180.776 -0.053869 -1.73917 0
M  V30 1824 O 181.952 -0.261012 -1.99702 0
M  V30 1825 C 179.017 -0.776768 -3.37886 0
M  V30 1826 C 178.078 -1.92878 -3.83532 0
M  V30 1827 C 177.311 -1.59739 -5.09234 0
M  V30 1828 O 177.534 -0.506782 -5.68144 0
M  V30 1829 O 176.468 -2.43761 -5.50331 0
M  V30 1830 H 180.294 -2.07671 -2.21599 0
M  V30 1831 H 177.879 -1.06857 -1.04413 0
M  V30 1832 H 179.761 -0.596229 -4.17161 0
M  V30 1833 H 178.436 0.145732 -3.23372 0
M  V30 1834 H 177.343 -2.1644 -3.0513 0
M  V30 1835 H 178.676 -2.8316 -4.02593 0
M  V30 1836 N 180.328 1.1314 -1.09713 0
M  V30 1837 C 181.553 1.88862 -0.857081 0
M  V30 1838 C 181.978 1.78729 0.586304 0
M  V30 1839 O 181.336 1.13692 1.41222 0
M  V30 1840 C 181.384 3.36325 -1.30069 0
M  V30 1841 O 180.488 4.09815 -0.461007 0
M  V30 1842 H 179.829 0.587108 -0.310162 0
M  V30 1843 H 182.359 1.43129 -1.46203 0
M  V30 1844 H 182.369 3.87157 -1.28738 0
M  V30 1845 H 181.044 3.43017 -2.35185 0
M  V30 1846 H 179.621 3.68986 -0.538888 0
M  V30 1847 N 181.806 0.884767 1.30421 0
M  V30 1848 C 183.031 0.517288 2.00845 0
M  V30 1849 C 183.456 -0.886779 1.65885 0
M  V30 1850 O 182.814 -1.58768 0.875354 0
M  V30 1851 C 182.862 0.698994 3.5376 0
M  V30 1852 O 181.966 -0.255208 4.1161 0
M  V30 1853 H 181.307 0.203872 0.631927 0
M  V30 1854 H 183.837 1.19225 1.66272 0
M  V30 1855 H 183.847 0.597912 4.03595 0
M  V30 1856 H 182.522 1.72271 3.78544 0
M  V30 1857 H 181.099 -0.10784 3.72744 0
M  V30 1858 N 183.284 -1.43765 0.645699 0
M  V30 1859 C 184.214 -2.33471 -0.0370477 0
M  V30 1860 C 185.195 -1.49042 -0.819779 0
M  V30 1861 O 186.38 -1.77726 -0.782758 0
M  V30 1862 C 183.51 -3.32311 -1.0093 0
M  V30 1863 C 182.464 -4.2667 -0.337201 0
M  V30 1864 C 181.79 -5.1549 -1.42037 0
M  V30 1865 C 183.09 -5.16657 0.765706 0
M  V30 1866 H 184.784 -2.90809 0.712069 0
M  V30 1867 H 182.33 -1.39834 0.343876 0
M  V30 1868 H 184.283 -3.9396 -1.49578 0
M  V30 1869 H 183.007 -2.73213 -1.78948 0
M  V30 1870 H 181.666 -3.66374 0.128771 0
M  V30 1871 H 181.314 -4.52735 -2.1918 0
M  V30 1872 H 181.014 -5.79438 -0.975966 0
M  V30 1873 H 182.538 -5.80012 -1.90838 0
M  V30 1874 H 183.952 -5.72158 0.361702 0
M  V30 1875 H 182.349 -5.89286 1.13413 0
M  V30 1876 H 183.419 -4.56796 1.62683 0
M  V30 1877 N 184.763 -0.387143 -1.52771 0
M  V30 1878 C 185.693 0.440551 -2.29306 0
M  V30 1879 C 186.674 1.06535 -1.32606 0
M  V30 1880 O 187.859 1.07853 -1.61497 0
M  V30 1881 C 184.989 1.56919 -3.09829 0
M  V30 1882 C 183.943 1.07054 -4.14395 0
M  V30 1883 C 183.269 2.29109 -4.83129 0
M  V30 1884 C 184.569 0.140015 -5.22112 0
M  V30 1885 H 186.263 -0.198026 -2.98744 0
M  V30 1886 H 183.809 -0.09668 -1.43675 0
M  V30 1887 H 185.762 2.15503 -3.62128 0
M  V30 1888 H 184.486 2.23532 -2.3812 0
M  V30 1889 H 183.145 0.507247 -3.63074 0
M  V30 1890 H 182.793 2.94227 -4.0797 0
M  V30 1891 H 182.493 1.96406 -5.53804 0
M  V30 1892 H 184.017 2.88339 -5.38231 0
M  V30 1893 H 185.431 0.633978 -5.69784 0
M  V30 1894 H 183.828 -0.0971485 -6.00021 0
M  V30 1895 H 184.898 -0.811711 -4.78058 0
M  V30 1896 N 186.241 1.57166 -0.116904 0
M  V30 1897 C 187.489 1.94737 0.540533 0
M  V30 1898 C 187.81 1.00096 1.67349 0
M  V30 1899 O 187.08 0.0568854 1.95817 0
M  V30 1900 H 185.66 0.718981 0.202669 0
M  V30 1901 H 188.322 1.94017 -0.185353 0
M  V30 1902 H 187.418 2.97719 0.936483 0
M  V30 1903 N 187.719 -0.156864 1.56817 0
M  V30 1904 C 188.682 -1.17781 1.96622 0
M  V30 1905 C 189.682 -1.36401 0.851555 0
M  V30 1906 O 190.872 -1.33561 1.11836 0
M  V30 1907 C 188.004 -2.54008 2.27361 0
M  V30 1908 H 189.197 -0.836564 2.87996 0
M  V30 1909 H 186.75 -0.39985 1.51099 0
M  V30 1910 H 187.485 -2.9312 1.38748 0
M  V30 1911 H 187.27 -2.41856 3.08623 0
M  V30 1912 H 188.76 -3.27558 2.59029 0
M  V30 1913 N 189.197 -1.51736 -0.425897 0
M  V30 1914 C 190.107 -1.76738 -1.54275 0
M  V30 1915 C 191.123 -0.65211 -1.61318 0
M  V30 1916 O 192.299 -0.935654 -1.78346 0
M  V30 1917 C 189.364 -1.89755 -2.90162 0
M  V30 1918 C 188.425 -3.13633 -2.93143 0
M  V30 1919 C 187.658 -3.2602 -4.22548 0
M  V30 1920 O 187.881 -2.44067 -5.15546 0
M  V30 1921 O 186.815 -4.19071 -4.32046 0
M  V30 1922 H 190.641 -2.71502 -1.36089 0
M  V30 1923 H 188.226 -1.36376 -0.610069 0
M  V30 1924 H 190.108 -2.00236 -3.70788 0
M  V30 1925 H 188.783 -0.981785 -3.08452 0
M  V30 1926 H 187.69 -3.08622 -2.11431 0
M  V30 1927 H 189.023 -4.04936 -2.798 0
M  V30 1928 N 190.675 0.682077 -1.42076 0
M  V30 1929 C 191.605 1.80796 -1.47767 0
M  V30 1930 C 192.586 1.6677 -0.334954 0
M  V30 1931 O 193.771 1.863 -0.548264 0
M  V30 1932 C 190.901 3.19038 -1.37229 0
M  V30 1933 C 189.855 3.47789 -2.49453 0
M  V30 1934 C 189.181 4.8553 -2.23975 0
M  V30 1935 C 190.481 3.45411 -3.91776 0
M  V30 1936 H 192.175 1.7629 -2.41997 0
M  V30 1937 H 189.721 0.846721 -1.16476 0
M  V30 1938 H 191.674 3.97528 -1.39821 0
M  V30 1939 H 190.398 3.24204 -0.394907 0
M  V30 1940 H 189.057 2.71657 -2.46166 0
M  V30 1941 H 188.705 4.87337 -1.24547 0
M  V30 1942 H 188.405 5.0573 -2.99184 0
M  V30 1943 H 189.929 5.66312 -2.28304 0
M  V30 1944 H 191.343 4.13882 -3.96705 0
M  V30 1945 H 189.74 3.77145 -4.66778 0
M  V30 1946 H 190.81 2.44122 -4.18966 0
M  V30 1947 N 192.153 1.28127 0.917671 0
M  V30 1948 C 193.083 1.14248 2.03641 0
M  V30 1949 C 194.064 0.0412748 1.7005 0
M  V30 1950 O 195.249 0.217566 1.92977 0
M  V30 1951 C 192.379 0.799431 3.37974 0
M  V30 1952 C 191.333 1.85497 3.85713 0
M  V30 1953 C 190.659 1.36565 5.16966 0
M  V30 1954 C 191.959 3.26085 4.08002 0
M  V30 1955 H 193.653 2.07835 2.15511 0
M  V30 1956 H 191.199 1.00064 1.03553 0
M  V30 1957 H 193.152 0.689114 4.15727 0
M  V30 1958 H 191.876 -0.172145 3.26146 0
M  V30 1959 H 190.535 1.95437 3.10161 0
M  V30 1960 H 190.183 0.383253 5.01538 0
M  V30 1961 H 189.883 2.07143 5.49878 0
M  V30 1962 H 191.407 1.26848 5.97279 0
M  V30 1963 H 192.821 3.19089 4.76293 0
M  V30 1964 H 191.218 3.94462 4.52238 0
M  V30 1965 H 192.288 3.70394 3.12948 0
M  V30 1966 N 193.631 -1.12557 1.10312 0
M  V30 1967 C 194.879 -1.83675 0.843091 0
M  V30 1968 C 195.2 -1.84435 -0.633131 0
M  V30 1969 O 194.47 -1.30657 -1.45964 0
M  V30 1970 H 193.05 -0.680138 0.308904 0
M  V30 1971 H 195.712 -1.36301 1.39313 0
M  V30 1972 H 194.808 -2.87908 1.2048 0
M  V30 1973 N 195.109 -0.891671 -1.2995 0
M  V30 1974 C 196.358 -0.509521 -1.95158 0
M  V30 1975 C 196.671 0.947388 -1.71125 0
M  V30 1976 O 197.877 1.43669 -2.30372 0
M  V30 1977 C 196.333 -0.860315 -3.49466 0
M  V30 1978 C 195.941 -2.33545 -3.8231 0
M  V30 1979 C 197.685 -0.547687 -4.20952 0
M  V30 1980 C 195.592 -2.62752 -5.29826 0
M  V30 1981 H 194.522 -0.18682 -0.730489 0
M  V30 1982 H 197.173 -1.08756 -1.47798 0
M  V30 1983 H 195.555 -0.211285 -3.95436 0
M  V30 1984 H 196.729 -3.02936 -3.47227 0
M  V30 1985 H 195.044 -2.61629 -3.23944 0
M  V30 1986 H 197.641 -0.742854 -5.29515 0
M  V30 1987 H 197.984 0.51332 -4.13123 0
M  V30 1988 H 198.517 -1.1542 -3.80688 0
M  V30 1989 H 195.256 -3.6762 -5.42712 0
M  V30 1990 H 194.776 -1.97977 -5.66185 0
M  V30 1991 H 196.455 -2.48601 -5.97333 0
M  V30 1992 N 196.587 1.43421 -0.653314 0
M  V30 1993 C 197.537 2.2792 0.060558 0
M  V30 1994 C 198.521 1.39906 0.794677 0
M  V30 1995 O 199.713 1.63536 0.677128 0
M  V30 1996 C 196.842 3.27603 1.0262 0
M  V30 1997 C 195.928 4.23104 0.290551 0
M  V30 1998 N 196.319 5.01031 -0.692967 0
M  V30 1999 C 194.617 4.42816 0.531984 0
M  V30 2000 C 195.318 5.70626 -1.12963 0
M  V30 2001 N 194.294 5.41617 -0.463867 0
M  V30 2002 H 198.096 2.85585 -0.694143 0
M  V30 2003 H 195.61 1.55126 -0.480602 0
M  V30 2004 H 197.607 3.86918 1.55242 0
M  V30 2005 H 196.267 2.71499 1.78096 0
M  V30 2006 H 197.278 5.0669 -1.07169 0
M  V30 2007 H 193.955 3.97782 1.26791 0
M  V30 2008 H 195.345 6.4318 -1.94343 0
M  V30 2009 N 198.065 0.39524 1.52563 0
M  V30 2010 C 198.995 -0.428384 2.29537 0
M  V30 2011 C 199.976 -1.05831 1.33169 0
M  V30 2012 O 201.161 -1.06995 1.62067 0
M  V30 2013 C 198.291 -1.55274 3.10656 0
M  V30 2014 C 197.245 -1.04855 4.14957 0
M  V30 2015 C 196.571 -2.26543 4.84337 0
M  V30 2016 C 197.871 -0.112324 5.22179 0
M  V30 2017 H 199.565 0.213867 2.98635 0
M  V30 2018 H 197.111 0.104298 1.43622 0
M  V30 2019 H 199.064 -2.1358 3.63265 0
M  V30 2020 H 197.788 -2.22266 2.39302 0
M  V30 2021 H 196.447 -0.487985 3.63338 0
M  V30 2022 H 196.095 -2.92059 4.09525 0
M  V30 2023 H 195.795 -1.93466 5.54837 0
M  V30 2024 H 197.319 -2.85481 5.39753 0
M  V30 2025 H 198.733 -0.603752 5.70112 0
M  V30 2026 H 197.13 0.128968 5.99961 0
M  V30 2027 H 198.2 0.837052 4.77621 0
M  V30 2028 N 199.544 -1.57102 0.125237 0
M  V30 2029 C 200.454 -2.19191 -0.8362 0
M  V30 2030 C 201.47 -1.16985 -1.28805 0
M  V30 2031 O 202.646 -1.49479 -1.34974 0
M  V30 2032 C 199.711 -2.78407 -2.06617 0
M  V30 2033 C 198.772 -3.9567 -1.66565 0
M  V30 2034 C 198.005 -4.52052 -2.83698 0
M  V30 2035 O 198.228 -4.07326 -3.99302 0
M  V30 2036 O 197.162 -5.42645 -2.60423 0
M  V30 2037 H 200.988 -3.01816 -0.337776 0
M  V30 2038 H 198.573 -1.4906 -0.100695 0
M  V30 2039 H 200.455 -3.16129 -2.7864 0
M  V30 2040 H 199.13 -1.9881 -2.55453 0
M  V30 2041 H 198.037 -3.62705 -0.916296 0
M  V30 2042 H 199.37 -4.76722 -1.22464 0
M  V30 2043 N 201.022 0.148545 -1.56898 0
M  V30 2044 C 202.27 0.859717 -1.82902 0
M  V30 2045 C 202.591 1.81775 -0.70588 0
M  V30 2046 O 201.861 1.93994 0.272586 0
M  V30 2047 H 200.441 0.320469 -0.674766 0
M  V30 2048 H 203.103 0.142918 -1.94375 0
M  V30 2049 H 202.199 1.4229 -2.77777 0
M  V30 2050 N 202.5 1.5196 0.417844 0
M  V30 2051 C 203.911 1.57851 0.997 0
M  V30 2052 C 204.262 0.413714 1.91789 0
M  V30 2053 O 203.387 -0.467057 2.113 0
M  V30 2054 C 203.982 2.86085 1.81496 0
M  V30 2055 C 202.541 2.94483 2.34428 0
M  V30 2056 C 201.688 2.52707 1.14169 0
M  V30 2057 H 204.639 1.57455 0.198392 0
M  V30 2058 H 204.66 2.70947 2.67148 0
M  V30 2059 H 204.172 3.70842 1.14446 0
M  V30 2060 H 202.273 2.142 3.04875 0
M  V30 2061 H 202.386 3.98546 2.65891 0
M  V30 2062 H 200.75 2.06353 1.49301 0
M  V30 2063 H 201.533 3.39828 0.486999 0
M  V30 2064 N 203.978 -0.674533 1.42435 0
M  V30 2065 C 205.225 -1.43459 1.42919 0
M  V30 2066 C 205.553 -1.94446 0.0457312 0
M  V30 2067 O 204.808 -1.7132 -0.94593 0
M  V30 2068 C 205.107 -2.64767 2.40069 0
M  V30 2069 C 204.773 -2.3232 3.86443 0
M  V30 2070 C 203.435 -2.23182 4.26314 0
M  V30 2071 C 205.787 -2.05977 4.78773 0
M  V30 2072 C 203.115 -1.85827 5.56494 0
M  V30 2073 C 205.467 -1.70125 6.09295 0
M  V30 2074 C 204.131 -1.59498 6.48164 0
M  V30 2075 H 203.401 -0.524952 0.522978 0
M  V30 2076 H 206.048 -0.769097 1.75377 0
M  V30 2077 H 204.353 -3.36349 2.00939 0
M  V30 2078 H 206.05 -3.22949 2.37707 0
M  V30 2079 H 202.64 -2.40334 3.54877 0
M  V30 2080 H 206.824 -2.11969 4.48757 0
M  V30 2081 H 202.08 -1.76168 5.8547 0
M  V30 2082 H 206.254 -1.48767 6.80324 0
M  V30 2083 H 203.881 -1.30322 7.48946 0
M  V30 2084 N 205.456 -1.28612 -0.910864 0
M  V30 2085 C 206.702 -1.16106 -1.66274 0
M  V30 2086 C 207.035 0.289113 -1.92036 0
M  V30 2087 O 206.31 1.21 -1.52281 0
M  V30 2088 C 206.593 -1.96309 -3.01885 0
M  V30 2089 C 206.446 -3.49405 -2.8326 0
M  V30 2090 C 207.765 -1.78076 -4.02463 0
M  V30 2091 H 204.884 -0.423152 -0.603417 0
M  V30 2092 H 207.526 -1.57961 -1.05586 0
M  V30 2093 H 205.676 -1.60742 -3.53687 0
M  V30 2094 H 207.348 -3.94894 -2.38446 0
M  V30 2095 H 205.591 -3.74893 -2.18261 0
M  V30 2096 H 206.262 -4.00784 -3.79574 0
M  V30 2097 H 208.738 -2.0912 -3.59733 0
M  V30 2098 H 207.614 -2.36561 -4.95308 0
M  V30 2099 H 207.875 -0.733008 -4.35981 0
M  V30 2100 N 206.934 1.1197 -1.10907 0
M  V30 2101 C 208.159 1.87942 -0.877064 0
M  V30 2102 C 208.584 1.79341 0.567314 0
M  V30 2103 O 207.942 1.15184 1.40009 0
M  V30 2104 C 207.99 3.34926 -1.33629 0
M  V30 2105 O 207.094 4.09303 -0.504447 0
M  V30 2106 H 206.435 0.583785 -0.316371 0
M  V30 2107 H 208.965 1.4157 -1.47712 0
M  V30 2108 H 208.975 3.8577 -1.32837 0
M  V30 2109 H 207.65 3.40504 -2.3881 0
M  V30 2110 H 206.227 3.68393 -0.577993 0
M  V30 2111 N 208.412 0.89855 1.29475 0
M  V30 2112 C 209.823 0.572537 1.77705 0
M  V30 2113 C 210.174 -0.911778 1.73727 0
M  V30 2114 O 209.299 -1.71288 1.32247 0
M  V30 2115 C 209.894 1.03252 3.22683 0
M  V30 2116 C 208.453 0.757687 3.68695 0
M  V30 2117 C 207.6 1.20787 2.49612 0
M  V30 2118 H 210.551 1.08139 1.16153 0
M  V30 2119 H 210.572 0.367307 3.78723 0
M  V30 2120 H 210.084 2.11285 3.25546 0
M  V30 2121 H 208.185 -0.310079 3.71308 0
M  V30 2122 H 208.298 1.35476 4.59547 0
M  V30 2123 H 206.662 0.626888 2.46865 0
M  V30 2124 H 207.445 2.29622 2.55203 0
M  V30 2125 N 209.89 -1.43072 0.660911 0
M  V30 2126 C 210.837 -2.30785 -0.0259884 0
M  V30 2127 C 211.807 -1.45184 -0.806888 0
M  V30 2128 O 212.992 -1.74041 -0.781943 0
M  V30 2129 C 210.132 -3.30861 -0.981067 0
M  V30 2130 C 209.245 -4.31558 -0.195458 0
M  V30 2131 C 208.38 -5.18712 -1.14503 0
M  V30 2132 C 207.419 -6.11097 -0.350299 0
M  V30 2133 N 206.556 -6.90849 -1.25186 0
M  V30 2134 H 211.396 -2.88975 0.727846 0
M  V30 2135 H 208.933 -1.42353 0.370682 0
M  V30 2136 H 210.891 -3.87399 -1.54849 0
M  V30 2137 H 209.521 -2.74304 -1.70169 0
M  V30 2138 H 208.573 -3.77252 0.488374 0
M  V30 2139 H 209.885 -4.9701 0.422176 0
M  V30 2140 H 209.039 -5.79914 -1.78284 0
M  V30 2141 H 207.778 -4.53404 -1.79656 0
M  V30 2142 H 206.783 -5.48976 0.300808 0
M  V30 2143 H 208.008 -6.7845 0.296941 0
M  V30 2144 H 205.954 -6.28182 -1.89005 0
M  V30 2145 H 205.871 -7.52854 -0.688971 0
M  V30 2146 H 207.139 -7.5655 -1.87757 0
M  V30 2147 N 211.368 -0.403325 -1.52352 0
M  V30 2148 C 212.784 -0.0539281 -1.59509 0
M  V30 2149 C 212.984 1.43307 -1.41652 0
M  V30 2150 O 212.04 2.19924 -1.24056 0
M  V30 2151 C 213.353 -0.543654 -2.95745 0
M  V30 2152 C 214.901 -0.501125 -3.08962 0
M  V30 2153 C 215.376 -0.967267 -4.47669 0
M  V30 2154 N 216.867 -0.923849 -4.53893 0
M  V30 2155 C 217.602 -1.25578 -5.5948 0
M  V30 2156 N 217.098 -1.65889 -6.72646 0
M  V30 2157 N 218.891 -1.17613 -5.49658 0
M  V30 2158 H 211.042 -1.37123 -1.62206 0
M  V30 2159 H 213.305 -0.56294 -0.76276 0
M  V30 2160 H 213.011 -1.58275 -3.14073 0
M  V30 2161 H 212.885 0.0498042 -3.77167 0
M  V30 2162 H 215.272 0.528909 -2.90321 0
M  V30 2163 H 215.353 -1.13056 -2.2946 0
M  V30 2164 H 214.997 -1.9956 -4.67053 0
M  V30 2165 H 214.927 -0.314698 -5.25659 0
M  V30 2166 H 217.418 -0.627403 -3.72655 0
M  V30 2167 H 217.731 -1.89543 -7.49195 0
M  V30 2168 H 216.076 -1.69787 -6.73942 0
M  V30 2169 H 219.267 -0.860115 -4.6013 0
M  V30 2170 H 219.44 -1.43812 -6.3184 0
M  V30 2171 N 212.846 1.57033 -0.133567 0
M  V30 2172 C 213.809 2.14897 0.796995 0
M  V30 2173 C 214.809 1.0874 1.18458 0
M  V30 2174 O 215.999 1.34446 1.1077 0
M  V30 2175 C 213.131 2.70112 2.07973 0
M  V30 2176 H 214.324 2.98457 0.293873 0
M  V30 2177 H 211.877 1.55871 0.115787 0
M  V30 2178 H 212.612 1.9018 2.62682 0
M  V30 2179 H 212.397 3.47764 1.81115 0
M  V30 2180 H 213.887 3.14738 2.74462 0
M  V30 2181 N 214.325 -0.140222 1.56975 0
M  V30 2182 C 215.573 -0.850005 1.83356 0
M  V30 2183 C 215.894 -1.81399 0.71551 0
M  V30 2184 O 215.164 -1.94136 -0.262294 0
M  V30 2185 H 213.744 -0.316886 0.676456 0
M  V30 2186 H 216.406 -0.132608 1.94448 0
M  V30 2187 H 215.502 -1.40814 2.78528 0
M  V30 2188 N 215.803 -1.52179 -0.40978 0
M  V30 2189 C 216.766 -1.74853 -1.48186 0
M  V30 2190 C 217.766 -0.618417 -1.48433 0
M  V30 2191 O 218.956 -0.886286 -1.49969 0
M  V30 2192 C 216.088 -1.8303 -2.87598 0
M  V30 2193 H 217.281 -2.70559 -1.29374 0
M  V30 2194 H 214.834 -1.42586 -0.640233 0
M  V30 2195 H 215.569 -0.89236 -3.11781 0
M  V30 2196 H 215.354 -2.65187 -2.88822 0
M  V30 2197 H 216.844 -2.02316 -3.65319 0
M  V30 2198 N 217.281 0.66697 -1.42791 0
M  V30 2199 C 218.213 1.7925 -1.42836 0
M  V30 2200 C 219.226 1.59496 -0.326333 0
M  V30 2201 O 220.415 1.6847 -0.589916 0
M  V30 2202 C 217.515 3.16476 -1.21229 0
M  V30 2203 C 216.688 3.63011 -2.44013 0
M  V30 2204 C 215.747 4.78993 -2.17834 0
M  V30 2205 O 214.773 4.89137 -2.91091 0
M  V30 2206 N 215.975 5.68248 -1.18635 0
M  V30 2207 H 218.74 1.79695 -2.39854 0
M  V30 2208 H 216.301 0.850338 -1.37771 0
M  V30 2209 H 218.293 3.91734 -1.01621 0
M  V30 2210 H 216.863 3.10884 -0.32706 0
M  V30 2211 H 216.083 2.78346 -2.79137 0
M  V30 2212 H 217.371 3.90845 -3.25757 0
M  V30 2213 H 216.769 5.62712 -0.580615 0
M  V30 2214 H 215.326 6.43285 -1.05013 0
M  V30 2215 N 218.759 1.29093 0.90403 0
M  V30 2216 C 220.17 1.15186 1.46932 0
M  V30 2217 C 220.521 -0.254587 1.94541 0
M  V30 2218 O 219.646 -1.14972 1.83332 0
M  V30 2219 C 220.241 2.08492 2.67051 0
M  V30 2220 C 218.8 1.98621 3.19729 0
M  V30 2221 C 217.947 1.9967 1.92425 0
M  V30 2222 H 220.898 1.41641 0.715789 0
M  V30 2223 H 220.919 1.65461 3.42641 0
M  V30 2224 H 220.431 3.10847 2.3237 0
M  V30 2225 H 218.532 0.993389 3.59114 0
M  V30 2226 H 218.645 2.86068 3.8432 0
M  V30 2227 H 217.009 1.44208 2.09943 0
M  V30 2228 H 217.792 3.03721 1.60026 0
M  V30 2229 N 220.237 -1.11381 1.11499 0
M  V30 2230 C 221.184 -2.17439 0.773887 0
M  V30 2231 C 222.154 -1.64132 -0.254899 0
M  V30 2232 O 223.339 -1.90345 -0.13168 0
M  V30 2233 C 220.479 -3.44373 0.223917 0
M  V30 2234 C 219.592 -4.1168 1.30934 0
M  V30 2235 C 218.727 -5.263 0.71984 0
M  V30 2236 C 217.766 -5.85493 1.78507 0
M  V30 2237 N 216.903 -6.91507 1.21502 0
M  V30 2238 H 221.743 -2.45962 1.68246 0
M  V30 2239 H 219.28 -1.20744 0.840191 0
M  V30 2240 H 221.238 -4.17047 -0.112921 0
M  V30 2241 H 219.868 -3.16232 -0.647851 0
M  V30 2242 H 218.92 -3.37073 1.76312 0
M  V30 2243 H 220.232 -4.51729 2.11524 0
M  V30 2244 H 219.386 -6.05785 0.333094 0
M  V30 2245 H 218.125 -4.87559 -0.117377 0
M  V30 2246 H 217.13 -5.04686 2.18111 0
M  V30 2247 H 218.355 -6.26301 2.62533 0
M  V30 2248 H 216.301 -6.54783 0.399455 0
M  V30 2249 H 216.218 -7.30214 1.95763 0
M  V30 2250 H 217.486 -7.74795 0.855181 0
M  V30 2251 N 221.715 -0.905404 -1.28997 0
M  V30 2252 C 222.625 -0.392246 -2.31298 0
M  V30 2253 C 223.641 0.515889 -1.66176 0
M  V30 2254 O 224.817 0.404093 -1.97304 0
M  V30 2255 C 221.882 0.36686 -3.44754 0
M  V30 2256 C 220.943 -0.573485 -4.25452 0
M  V30 2257 C 220.176 0.149488 -5.33491 0
M  V30 2258 O 220.399 1.37255 -5.5364 0
M  V30 2259 O 219.333 -0.510919 -5.99728 0
M  V30 2260 H 223.159 -1.2411 -2.77183 0
M  V30 2261 H 220.744 -0.669926 -1.33538 0
M  V30 2262 H 222.626 0.795907 -4.13816 0
M  V30 2263 H 221.301 1.19169 -3.00966 0
M  V30 2264 H 220.208 -1.05176 -3.59011 0
M  V30 2265 H 221.541 -1.36489 -4.72897 0
M  V30 2266 N 223.193 1.4272 -0.668489 0
M  V30 2267 C 224.439 2.02443 -0.197076 0
M  V30 2268 C 224.794 1.51882 1.18109 0
M  V30 2269 O 224.087 0.708618 1.78015 0
M  V30 2270 C 224.281 3.57021 -0.164499 0
M  V30 2271 C 224.11 4.22583 -1.53797 0
M  V30 2272 C 222.88 4.58019 -2.13416 0
M  V30 2273 C 225.078 4.50588 -2.47941 0
M  V30 2274 N 223.06 5.08729 -3.4361 0
M  V30 2275 C 224.431 5.02782 -3.62782 0
M  V30 2276 C 226.486 4.32571 -2.46551 0
M  V30 2277 C 225.189 5.38852 -4.76478 0
M  V30 2278 C 227.215 4.69713 -3.59338 0
M  V30 2279 C 226.577 5.22053 -4.72906 0
M  V30 2280 H 222.676 0.773214 -0.116894 0
M  V30 2281 H 225.26 1.73673 -0.880108 0
M  V30 2282 H 223.431 3.85323 0.487925 0
M  V30 2283 H 225.163 4.03439 0.319207 0
M  V30 2284 H 221.918 4.43566 -1.65969 0
M  V30 2285 H 222.342 5.38521 -4.10273 0
M  V30 2286 H 226.984 3.91365 -1.59978 0
M  V30 2287 H 224.702 5.78993 -5.63731 0
M  V30 2288 H 228.288 4.57454 -3.59482 0
M  V30 2289 H 227.168 5.50258 -5.58736 0
M  V30 2290 N 224.671 0.411399 1.52136 0
M  V30 2291 C 225.92 -0.165009 2.01024 0
M  V30 2292 C 226.233 -1.4603 1.30133 0
M  V30 2293 O 227.439 -2.1181 1.69849 0
M  V30 2294 C 225.895 -0.344618 3.58246 0
M  V30 2295 C 225.503 0.938716 4.38055 0
M  V30 2296 C 227.247 -0.876195 4.15359 0
M  V30 2297 C 225.154 0.726172 5.86925 0
M  V30 2298 H 224.084 -0.0654407 0.751155 0
M  V30 2299 H 226.735 0.537192 1.75461 0
M  V30 2300 H 225.117 -1.10921 3.80148 0
M  V30 2301 H 226.291 1.70963 4.27912 0
M  V30 2302 H 224.606 1.39688 3.92271 0
M  V30 2303 H 227.203 -1.05128 5.24263 0
M  V30 2304 H 227.546 -1.85152 3.7286 0
M  V30 2305 H 228.079 -0.170607 3.97434 0
M  V30 2306 H 224.818 1.67312 6.33788 0
M  V30 2307 H 224.338 -0.00540283 5.998 0
M  V30 2308 H 226.017 0.369231 6.45946 0
M  V30 2309 N 226.149 -1.5696 0.141893 0
M  V30 2310 C 227.565 -1.58151 -0.21456 0
M  V30 2311 C 227.765 -1.1559 -1.65049 0
M  V30 2312 O 226.821 -0.853832 -2.37626 0
M  V30 2313 C 228.134 -3.00674 0.0395576 0
M  V30 2314 C 229.682 -3.1299 -0.0245529 0
M  V30 2315 C 230.157 -4.57554 0.202167 0
M  V30 2316 N 231.648 -4.62961 0.148919 0
M  V30 2317 C 232.383 -5.7262 0.298924 0
M  V30 2318 N 231.879 -6.90947 0.50637 0
M  V30 2319 N 233.672 -5.61601 0.236886 0
M  V30 2320 H 225.823 -1.8292 1.07953 0
M  V30 2321 H 228.086 -0.846425 0.42693 0
M  V30 2322 H 227.792 -3.36183 1.03315 0
M  V30 2323 H 227.666 -3.70981 -0.682143 0
M  V30 2324 H 230.053 -2.77326 -1.00869 0
M  V30 2325 H 230.134 -2.4518 0.729396 0
M  V30 2326 H 229.778 -4.93922 1.18338 0
M  V30 2327 H 229.708 -5.23484 -0.572044 0
M  V30 2328 H 232.199 -3.77899 -0.00697015 0
M  V30 2329 H 232.512 -7.7038 0.611076 0
M  V30 2330 H 230.857 -6.92878 0.542628 0
M  V30 2331 H 234.048 -4.68039 0.0756209 0
M  V30 2332 H 234.221 -6.47015 0.357227 0
M  V30 2333 N 227.627 0.131896 -1.57047 0
M  V30 2334 C 229.038 0.690407 -1.73465 0
M  V30 2335 C 229.389 1.8094 -0.758629 0
M  V30 2336 O 228.514 2.16282 0.0713813 0
M  V30 2337 C 229.109 1.25916 -3.14532 0
M  V30 2338 C 227.668 1.76409 -3.32501 0
M  V30 2339 C 226.815 0.658579 -2.69366 0
M  V30 2340 H 229.766 -0.0939144 -1.58422 0
M  V30 2341 H 229.787 2.12892 -3.15369 0
M  V30 2342 H 229.299 0.444515 -3.85546 0
M  V30 2343 H 227.4 2.60391 -2.66509 0
M  V30 2344 H 227.513 1.88241 -4.4057 0
M  V30 2345 H 225.877 1.08899 -2.30246 0
M  V30 2346 H 226.66 -0.14487 -3.42994 0
M  V30 2347 N 229.106 1.52395 0.401703 0
M  V30 2348 C 230.331 1.70972 1.17403 0
M  V30 2349 C 230.756 0.421615 1.83314 0
M  V30 2350 O 230.114 -0.621564 1.70312 0
M  V30 2351 C 230.162 2.85151 2.20728 0
M  V30 2352 O 229.266 2.51238 3.27037 0
M  V30 2353 H 228.607 0.568927 0.342372 0
M  V30 2354 H 231.137 1.99131 0.469891 0
M  V30 2355 H 231.147 3.10279 2.64936 0
M  V30 2356 H 229.822 3.78603 1.7214 0
M  V30 2357 H 228.399 2.36808 2.88057 0
M  V30 2358 N 230.584 -0.659388 1.43143 0
M  V30 2359 C 231.861 -1.41627 1.34912 0
M  V30 2360 C 232.241 -2.11099 -0.00607785 0
M  V30 2361 O 231.589 -2.04353 -1.02236 0
M  V30 2362 C 231.799 -2.40604 2.52805 0
M  V30 2363 C 233.147 -3.04789 2.95616 0
M  V30 2364 O 234.171 -2.50932 2.52807 0
M  V30 2365 O 233.03 -4.02421 3.69756 0
M  V30 2366 H 230.124 -0.63246 0.532844 0
M  V30 2367 H 232.67 -0.686814 1.5518 0
M  V30 2368 H 231.442 -1.88174 3.43083 0
M  V30 2369 H 231.065 -3.21009 2.34604 0
M  V30 2370 N 232.062 -1.29571 -0.897171 0
M  V30 2371 C 233.308 -1.17863 -1.65034 0
M  V30 2372 C 233.641 0.268729 -1.92332 0
M  V30 2373 O 232.916 1.19378 -1.53555 0
M  V30 2374 C 233.199 -1.995 -2.99786 0
M  V30 2375 C 233.052 -3.5239 -2.79538 0
M  V30 2376 C 234.371 -1.82335 -4.00552 0
M  V30 2377 H 231.49 -0.429528 -0.598895 0
M  V30 2378 H 234.132 -1.59072 -1.03905 0
M  V30 2379 H 232.282 -1.64485 -3.51962 0
M  V30 2380 H 233.954 -3.97401 -2.34244 0
M  V30 2381 H 232.197 -3.77187 -2.14273 0
M  V30 2382 H 232.868 -4.04787 -3.75302 0
M  V30 2383 H 235.344 -2.12924 -3.57495 0
M  V30 2384 H 234.22 -2.41801 -4.92771 0
M  V30 2385 H 234.481 -0.779209 -4.35179 0
M  V30 2386 N 233.54 1.10788 -1.12088 0
M  V30 2387 C 234.45 2.20599 -0.798338 0
M  V30 2388 C 235.466 1.72712 0.21135 0
M  V30 2389 O 236.642 2.01348 0.0458477 0
M  V30 2390 C 233.707 3.45771 -0.253674 0
M  V30 2391 C 232.768 4.08411 -1.32283 0
M  V30 2392 C 232.001 5.27608 -0.80406 0
M  V30 2393 O 232.224 5.69241 0.363478 0
M  V30 2394 O 231.158 5.8101 -1.57198 0
M  V30 2395 H 234.984 2.50614 -1.7154 0
M  V30 2396 H 232.569 1.19454 -0.897275 0
M  V30 2397 H 234.451 4.21376 0.0453691 0
M  V30 2398 H 233.126 3.1739 0.636005 0
M  V30 2399 H 232.033 3.34507 -1.67499 0
M  V30 2400 H 233.366 4.40986 -2.18614 0
M  V30 2401 N 235.018 0.912232 1.28515 0
M  V30 2402 C 235.948 0.416403 2.29757 0
M  V30 2403 C 236.929 -0.515194 1.6211 0
M  V30 2404 O 238.114 -0.423253 1.89532 0
M  V30 2405 C 235.244 -0.34572 3.45575 0
M  V30 2406 C 234.198 0.496599 4.25109 0
M  V30 2407 C 233.524 -0.393771 5.33248 0
M  V30 2408 C 234.824 1.75307 4.92001 0
M  V30 2409 H 236.518 1.26249 2.7148 0
M  V30 2410 H 234.064 0.608515 1.30511 0
M  V30 2411 H 236.017 -0.703422 4.15488 0
M  V30 2412 H 234.741 -1.2257 3.02728 0
M  V30 2413 H 233.4 0.8368 3.56922 0
M  V30 2414 H 233.048 -1.27225 4.86644 0
M  V30 2415 H 232.748 0.166209 5.87365 0
M  V30 2416 H 234.272 -0.747389 6.06009 0
M  V30 2417 H 235.686 1.46437 5.54283 0
M  V30 2418 H 234.083 2.25534 5.56106 0
M  V30 2419 H 235.153 2.48176 4.16577 0
M  V30 2420 N 236.496 -1.42363 0.676048 0
M  V30 2421 C 237.743 -2.01522 0.19883 0
M  V30 2422 C 238.071 -1.53456 -1.19505 0
M  V30 2423 O 237.326 -0.727967 -1.81657 0
M  V30 2424 C 237.625 -3.56929 0.183431 0
M  V30 2425 C 237.291 -4.24431 1.52215 0
M  V30 2426 C 235.953 -4.42585 1.8887 0
M  V30 2427 C 238.305 -4.62459 2.40377 0
M  V30 2428 C 235.633 -4.96039 3.13309 0
M  V30 2429 C 237.985 -5.17294 3.64129 0
M  V30 2430 C 236.649 -5.33661 4.00951 0
M  V30 2431 H 235.919 -0.737419 0.0727571 0
M  V30 2432 H 238.566 -1.70531 0.871281 0
M  V30 2433 H 236.871 -3.87594 -0.572532 0
M  V30 2434 H 238.568 -4.00486 -0.203035 0
M  V30 2435 H 235.158 -4.10661 1.22701 0
M  V30 2436 H 239.342 -4.48105 2.13343 0
M  V30 2437 H 234.598 -5.06896 3.41857 0
M  V30 2438 H 238.772 -5.45704 4.32644 0
M  V30 2439 H 236.399 -5.74845 4.9745 0
M  V30 2440 N 237.974 -0.419461 -1.51915 0
M  V30 2441 C 238.921 0.400927 -2.27291 0
M  V30 2442 C 239.891 1.03224 -1.30131 0
M  V30 2443 O 241.076 1.05455 -1.59009 0
M  V30 2444 C 238.216 1.50603 -3.10504 0
M  V30 2445 C 237.329 0.89462 -4.22635 0
M  V30 2446 C 236.464 1.97328 -4.93189 0
M  V30 2447 C 235.503 1.33935 -5.97267 0
M  V30 2448 N 234.64 2.3586 -6.61298 0
M  V30 2449 H 239.48 -0.248251 -2.96964 0
M  V30 2450 H 237.017 -0.134266 -1.46486 0
M  V30 2451 H 238.975 2.15783 -3.57062 0
M  V30 2452 H 237.605 2.12509 -2.42981 0
M  V30 2453 H 236.657 0.131583 -3.80172 0
M  V30 2454 H 237.969 0.391641 -4.9726 0
M  V30 2455 H 237.123 2.70211 -5.43204 0
M  V30 2456 H 235.862 2.50994 -4.18155 0
M  V30 2457 H 234.867 0.595896 -5.46561 0
M  V30 2458 H 236.092 0.810252 -6.74249 0
M  V30 2459 H 234.038 2.88639 -5.89087 0
M  V30 2460 H 233.955 1.90403 -7.3163 0
M  V30 2461 H 235.223 3.08282 -7.15949 0
M  V30 2462 N 239.452 1.56882 -0.150215 0
M  V30 2463 C 240.399 2.16922 0.788244 0
M  V30 2464 C 241.369 1.10303 1.24187 0
M  V30 2465 O 242.554 1.38359 1.31383 0
M  V30 2466 C 239.694 2.79754 2.02068 0
M  V30 2467 C 238.807 4.00775 1.61257 0
M  V30 2468 C 237.942 4.51595 2.79705 0
M  V30 2469 C 236.981 5.65074 2.35282 0
M  V30 2470 N 236.118 6.10499 3.4675 0
M  V30 2471 H 240.958 2.96779 0.269444 0
M  V30 2472 H 238.495 1.46599 0.12128 0
M  V30 2473 H 240.453 3.14329 2.74323 0
M  V30 2474 H 239.083 2.02536 2.51354 0
M  V30 2475 H 238.135 3.72158 0.787553 0
M  V30 2476 H 239.447 4.82978 1.24633 0
M  V30 2477 H 238.601 4.88242 3.60145 0
M  V30 2478 H 237.34 3.68406 3.19576 0
M  V30 2479 H 236.345 5.28 1.53283 0
M  V30 2480 H 237.57 6.50052 1.96493 0
M  V30 2481 H 235.516 5.30243 3.86236 0
M  V30 2482 H 235.433 6.87637 3.14152 0
M  V30 2483 H 236.701 6.51791 4.27537 0
M  V30 2484 N 240.93 -0.123565 1.57115 0
M  V30 2485 C 242.176 -0.828428 1.85765 0
M  V30 2486 C 242.531 -1.77709 0.737371 0
M  V30 2487 O 241.824 -1.89787 -0.262978 0
M  V30 2488 C 242.018 -1.62016 3.18568 0
M  V30 2489 C 241.847 -0.749663 4.43407 0
M  V30 2490 C 240.617 -0.406251 5.03664 0
M  V30 2491 C 242.815 -0.0693505 5.14253 0
M  V30 2492 N 240.797 0.475389 6.12057 0
M  V30 2493 C 242.168 0.671474 6.16353 0
M  V30 2494 C 244.223 0.00754393 4.97899 0
M  V30 2495 C 242.926 1.48197 7.03868 0
M  V30 2496 C 244.952 0.804845 5.85898 0
M  V30 2497 C 244.314 1.53388 6.87497 0
M  V30 2498 H 240.413 -0.280219 0.73007 0
M  V30 2499 H 242.997 -0.0924183 1.94481 0
M  V30 2500 H 241.168 -2.32724 3.10957 0
M  V30 2501 H 242.9 -2.27 3.35042 0
M  V30 2502 H 239.655 -0.747446 4.67665 0
M  V30 2503 H 240.079 0.907924 6.70884 0
M  V30 2504 H 244.721 -0.541741 4.19315 0
M  V30 2505 H 242.439 2.04242 7.81864 0
M  V30 2506 H 246.025 0.866642 5.75309 0
M  V30 2507 H 244.905 2.1409 7.5441 0
M  V30 2508 N 242.408 -1.52605 -0.393616 0
M  V30 2509 C 243.34 -1.73303 -1.49995 0
M  V30 2510 C 244.353 -0.613473 -1.50799 0
M  V30 2511 O 245.542 -0.889049 -1.54784 0
M  V30 2512 C 242.642 -1.77245 -2.88855 0
M  V30 2513 C 241.815 -3.06483 -3.12069 0
M  V30 2514 C 240.874 -3.02033 -4.30886 0
M  V30 2515 O 239.9 -3.75907 -4.27414 0
M  V30 2516 N 241.102 -2.20897 -5.36828 0
M  V30 2517 H 243.867 -2.68756 -1.32629 0
M  V30 2518 H 241.428 -1.51036 -0.583083 0
M  V30 2519 H 243.42 -1.7178 -3.66434 0
M  V30 2520 H 241.99 -0.891993 -2.99603 0
M  V30 2521 H 241.21 -3.25474 -2.22396 0
M  V30 2522 H 242.498 -3.91947 -3.2443 0
M  V30 2523 H 241.896 -1.60336 -5.42502 0
M  V30 2524 H 240.453 -2.21275 -6.13091 0
M  V30 2525 N 243.887 0.651787 -1.4349 0
M  V30 2526 C 244.819 1.77725 -1.44729 0
M  V30 2527 C 245.832 1.59141 -0.343231 0
M  V30 2528 O 247.021 1.67835 -0.607751 0
M  V30 2529 C 244.121 3.15172 -1.24579 0
M  V30 2530 C 243.294 3.60402 -2.47849 0
M  V30 2531 C 242.353 4.76656 -2.22902 0
M  V30 2532 O 241.379 4.86022 -2.96263 0
M  V30 2533 N 242.581 5.66958 -1.24656 0
M  V30 2534 H 245.346 1.77141 -2.41746 0
M  V30 2535 H 242.907 0.835678 -1.38665 0
M  V30 2536 H 244.899 3.90634 -1.0577 0
M  V30 2537 H 243.469 3.1052 -0.360015 0
M  V30 2538 H 242.689 2.75369 -2.82073 0
M  V30 2539 H 243.977 3.87368 -3.29884 0
M  V30 2540 H 243.375 5.62065 -0.640265 0
M  V30 2541 H 241.932 6.42135 -1.1183 0
M  V30 2542 N 245.365 1.30045 0.890287 0
M  V30 2543 C 246.275 1.17885 2.02831 0
M  V30 2544 C 247.291 0.0999609 1.73713 0
M  V30 2545 O 248.467 0.313867 1.98939 0
M  V30 2546 C 245.532 0.866079 3.35708 0
M  V30 2547 C 244.593 2.02979 3.78283 0
M  V30 2548 C 243.826 1.73184 5.0482 0
M  V30 2549 O 244.049 0.657237 5.66601 0
M  V30 2550 O 242.983 2.58267 5.43674 0
M  V30 2551 H 246.809 2.13474 2.16015 0
M  V30 2552 H 244.394 1.09587 1.01543 0
M  V30 2553 H 246.276 0.706623 4.15433 0
M  V30 2554 H 244.951 -0.0599443 3.23644 0
M  V30 2555 H 243.858 2.24454 2.99285 0
M  V30 2556 H 245.191 2.93734 3.94944 0
M  V30 2557 N 246.843 -1.10192 1.12674 0
M  V30 2558 C 247.806 -2.14786 0.799979 0
M  V30 2559 C 248.806 -1.59711 -0.18685 0
M  V30 2560 O 249.996 -1.74156 0.0392558 0
M  V30 2561 C 247.128 -3.40374 0.189228 0
M  V30 2562 H 248.321 -2.45203 1.72671 0
M  V30 2563 H 245.874 -1.25597 0.930326 0
M  V30 2564 H 246.609 -3.15577 -0.747107 0
M  V30 2565 H 246.394 -3.81637 0.899766 0
M  V30 2566 H 247.884 -4.17594 -0.0228143 0
M  V30 2567 N 248.321 -0.919034 -1.28029 0
M  V30 2568 C 249.569 -0.553838 -1.94363 0
M  V30 2569 C 249.89 0.906357 -1.72656 0
M  V30 2570 O 249.16 1.64143 -1.0693 0
M  V30 2571 H 247.74 -0.201834 -0.719216 0
M  V30 2572 H 250.402 -1.16954 -1.55909 0
M  V30 2573 H 249.498 -0.752758 -3.02886 0
M  V30 2574 N 249.799 1.42003 -0.683588 0
M  V30 2575 C 251.047 2.01015 -0.209101 0
M  V30 2576 C 251.368 1.54365 1.19149 0
M  V30 2577 O 250.638 0.769083 1.80172 0
M  V30 2578 H 249.218 0.743294 -0.074315 0
M  V30 2579 H 251.88 1.73798 -0.882066 0
M  V30 2580 H 250.976 3.11343 -0.2172 0
M  V30 2581 N 251.277 0.427512 1.51691 0
M  V30 2582 C 252.207 -0.3796 2.30394 0
M  V30 2583 C 253.188 -1.02982 1.35384 0
M  V30 2584 O 254.373 -1.03534 1.643 0
M  V30 2585 C 251.503 -1.48649 3.1388 0
M  V30 2586 C 250.457 -0.960294 4.17088 0
M  V30 2587 C 249.783 -2.16219 4.89033 0
M  V30 2588 C 251.083 -0.00153679 5.223 0
M  V30 2589 H 252.777 0.277164 2.98114 0
M  V30 2590 H 250.323 0.134739 1.43368 0
M  V30 2591 H 252.276 -2.05826 3.67714 0
M  V30 2592 H 251 -2.1714 2.43962 0
M  V30 2593 H 249.659 -0.410806 3.64291 0
M  V30 2594 H 249.307 -2.83307 4.15628 0
M  V30 2595 H 249.007 -1.81654 5.58816 0
M  V30 2596 H 250.531 -2.73968 5.45687 0
M  V30 2597 H 251.945 -0.482687 5.71264 0
M  V30 2598 H 250.342 0.256199 5.99553 0
M  V30 2599 H 251.412 0.938174 4.75738 0
M  V30 2600 N 252.755 -1.56801 0.158532 0
M  V30 2601 C 254.004 -1.95665 -0.489702 0
M  V30 2602 C 254.317 -1.04654 -1.65248 0
M  V30 2603 O 255.523 -1.33146 -2.3661 0
M  V30 2604 C 253.979 -3.47874 -0.922582 0
M  V30 2605 C 253.587 -4.47489 0.213893 0
M  V30 2606 C 255.331 -3.95583 -1.53996 0
M  V30 2607 C 253.238 -5.90921 -0.237903 0
M  V30 2608 H 252.168 -0.730516 -0.186716 0
M  V30 2609 H 254.819 -1.81861 0.244722 0
M  V30 2610 H 253.201 -3.57051 -1.71261 0
M  V30 2611 H 254.375 -4.50017 0.991036 0
M  V30 2612 H 252.69 -4.09764 0.740407 0
M  V30 2613 H 255.287 -5.0019 -1.8898 0
M  V30 2614 H 255.63 -3.37789 -2.43319 0
M  V30 2615 H 256.163 -3.8937 -0.814611 0
M  V30 2616 H 252.902 -6.52559 0.620236 0
M  V30 2617 H 252.422 -5.91729 -0.980676 0
M  V30 2618 H 254.101 -6.43352 -0.686067 0
M  V30 2619 N 254.233 0.115231 -1.57178 0
M  V30 2620 C 255.18 1.14115 -2.00615 0
M  V30 2621 C 256.15 1.40939 -0.878941 0
M  V30 2622 O 257.335 1.52741 -1.14345 0
M  V30 2623 C 254.475 2.46156 -2.4187 0
M  V30 2624 C 253.588 2.26236 -3.68024 0
M  V30 2625 C 252.723 3.51534 -3.98243 0
M  V30 2626 C 251.762 3.26787 -5.17568 0
M  V30 2627 N 250.899 4.44298 -5.43639 0
M  V30 2628 H 255.739 0.763743 -2.88047 0
M  V30 2629 H 253.276 0.365615 -1.42484 0
M  V30 2630 H 255.234 3.23189 -2.63827 0
M  V30 2631 H 253.864 2.81783 -1.57475 0
M  V30 2632 H 252.916 1.40102 -3.5366 0
M  V30 2633 H 254.228 2.03929 -4.55208 0
M  V30 2634 H 253.382 4.36984 -4.20868 0
M  V30 2635 H 252.121 3.76876 -3.09541 0
M  V30 2636 H 251.126 2.39729 -4.94783 0
M  V30 2637 H 252.351 3.02812 -6.0785 0
M  V30 2638 H 250.297 4.69754 -4.57895 0
M  V30 2639 H 250.214 4.25109 -6.25154 0
M  V30 2640 H 251.482 5.3087 -5.70786 0
M  V30 2641 N 255.711 1.52812 0.385517 0
M  V30 2642 C 256.96 1.67249 1.12741 0
M  V30 2643 C 257.273 0.4205 1.91027 0
M  V30 2644 O 258.479 0.445064 2.67827 0
M  V30 2645 C 256.935 2.95583 2.05326 0
M  V30 2646 C 256.543 4.27974 1.32447 0
M  V30 2647 C 258.287 3.19386 2.7963 0
M  V30 2648 C 256.194 5.47412 2.23818 0
M  V30 2649 H 255.124 0.6231 0.424573 0
M  V30 2650 H 257.775 1.79309 0.389924 0
M  V30 2651 H 256.157 2.77277 2.82725 0
M  V30 2652 H 257.331 4.56844 0.602495 0
M  V30 2653 H 255.646 4.10459 0.700885 0
M  V30 2654 H 258.243 4.05801 3.48181 0
M  V30 2655 H 258.586 2.34604 3.43899 0
M  V30 2656 H 259.119 3.38274 2.09322 0
M  V30 2657 H 255.858 6.34612 1.64157 0
M  V30 2658 H 255.378 5.22849 2.93921 0
M  V30 2659 H 257.057 5.81423 2.83824 0
M  V30 2660 N 257.189 -0.644168 1.43834 0
M  V30 2661 C 258.435 -1.40603 1.46146 0
M  V30 2662 C 258.768 -1.93997 0.0887717 0
M  V30 2663 O 258.043 -1.72854 -0.891724 0
M  V30 2664 C 258.326 -2.58086 2.51124 0
M  V30 2665 C 258.179 -2.10126 3.97702 0
M  V30 2666 C 259.498 -3.60291 2.52742 0
M  V30 2667 H 256.617 -0.509905 0.532134 0
M  V30 2668 H 259.259 -0.729502 1.75437 0
M  V30 2669 H 257.409 -3.15801 2.26278 0
M  V30 2670 H 259.081 -1.57342 4.33637 0
M  V30 2671 H 257.324 -1.41419 4.10101 0
M  V30 2672 H 257.995 -2.94649 4.66783 0
M  V30 2673 H 260.471 -3.12352 2.7491 0
M  V30 2674 H 259.347 -4.40032 3.28121 0
M  V30 2675 H 259.608 -4.1349 1.56455 0
M  V30 2676 N 258.668 -1.30515 -0.883378 0
M  V30 2677 C 259.896 -1.22359 -1.66841 0
M  V30 2678 C 260.311 0.213296 -1.87591 0
M  V30 2679 O 259.668 1.14075 -1.42454 0
M  V30 2680 C 259.719 -1.95011 -3.04389 0
M  V30 2681 O 259.44 -3.3309 -2.84575 0
M  V30 2682 C 260.941 -1.93532 -3.98824 0
M  V30 2683 H 258.161 -0.423371 -0.520575 0
M  V30 2684 H 260.705 -1.72167 -1.10357 0
M  V30 2685 H 258.86 -1.48997 -3.57601 0
M  V30 2686 H 259.274 -3.69907 -3.71846 0
M  V30 2687 H 260.748 -2.48902 -4.92699 0
M  V30 2688 H 261.225 -0.914627 -4.29571 0
M  V30 2689 H 261.831 -2.39364 -3.51547 0
M  V30 2690 N 260.146 1.09593 -1.13257 0
M  V30 2691 C 261.076 2.18214 -0.830946 0
M  V30 2692 C 262.057 1.68812 0.208966 0
M  V30 2693 O 263.242 1.9408 0.0682666 0
M  V30 2694 C 260.372 3.46051 -0.294296 0
M  V30 2695 C 259.326 4.08778 -1.26826 0
M  V30 2696 C 258.652 5.31419 -0.591449 0
M  V30 2697 C 259.952 4.51476 -2.62615 0
M  V30 2698 H 261.646 2.43703 -1.73923 0
M  V30 2699 H 259.192 1.17128 -0.837675 0
M  V30 2700 H 261.145 4.2134 -0.0709606 0
M  V30 2701 H 259.869 3.20079 0.649366 0
M  V30 2702 H 258.528 3.35505 -1.47756 0
M  V30 2703 H 258.176 5.01727 0.357633 0
M  V30 2704 H 257.876 5.74341 -1.24123 0
M  V30 2705 H 259.4 6.09433 -0.377355 0
M  V30 2706 H 260.814 5.17999 -2.45663 0
M  V30 2707 H 259.211 5.05277 -3.23752 0
M  V30 2708 H 260.281 3.63962 -3.20406 0
M  V30 2709 N 261.624 0.925811 1.2754 0
M  V30 2710 C 262.587 0.428129 2.25166 0
M  V30 2711 C 263.587 -0.452261 1.54309 0
M  V30 2712 O 264.777 -0.253608 1.72344 0
M  V30 2713 C 261.909 -0.384749 3.38722 0
M  V30 2714 H 263.102 1.29066 2.70706 0
M  V30 2715 H 260.655 0.706323 1.3943 0
M  V30 2716 H 261.39 -1.26618 2.98561 0
M  V30 2717 H 261.175 0.246454 3.91325 0
M  V30 2718 H 262.665 -0.723389 4.11287 0
M  V30 2719 N 263.102 -1.41638 0.69111 0
M  V30 2720 C 264.513 -1.84346 0.295517 0
M  V30 2721 C 264.864 -1.57833 -1.16547 0
M  V30 2722 O 263.989 -1.04648 -1.89414 0
M  V30 2723 C 264.584 -3.34636 0.529575 0
M  V30 2724 C 263.143 -3.7593 0.187944 0
M  V30 2725 C 262.29 -2.65082 0.814052 0
M  V30 2726 H 265.241 -1.31253 0.892092 0
M  V30 2727 H 265.262 -3.79903 -0.213148 0
M  V30 2728 H 264.774 -3.53901 1.59297 0
M  V30 2729 H 262.875 -3.62268 -0.871367 0
M  V30 2730 H 262.988 -4.74808 0.63985 0
M  V30 2731 H 261.352 -2.53528 0.244017 0
M  V30 2732 H 262.135 -2.87167 1.88123 0
M  V30 2733 N 264.58 -0.43555 -1.51462 0
M  V30 2734 C 265.49 0.383001 -2.31453 0
M  V30 2735 C 266.506 1.02931 -1.4029 0
M  V30 2736 O 267.682 1.02507 -1.73362 0
M  V30 2737 C 264.747 1.47043 -3.13973 0
M  V30 2738 C 263.808 0.844433 -4.20913 0
M  V30 2739 C 263.041 1.88004 -4.9949 0
M  V30 2740 O 263.264 3.10199 -4.78678 0
M  V30 2741 O 262.198 1.47157 -5.83634 0
M  V30 2742 H 266.024 -0.269964 -3.02498 0
M  V30 2743 H 263.609 -0.19813 -1.4808 0
M  V30 2744 H 265.491 2.10113 -3.65281 0
M  V30 2745 H 264.166 2.10751 -2.45695 0
M  V30 2746 H 263.073 0.175729 -3.73687 0
M  V30 2747 H 264.406 0.250869 -4.9156 0
M  V30 2748 N 266.058 1.56714 -0.166846 0
M  V30 2749 C 266.968 2.21331 0.777791 0
M  V30 2750 C 267.984 1.20358 1.25658 0
M  V30 2751 O 269.16 1.53005 1.30964 0
M  V30 2752 C 266.225 2.83787 1.99163 0
M  V30 2753 C 265.286 3.99947 1.56016 0
M  V30 2754 C 264.519 4.59415 2.71613 0
M  V30 2755 O 264.742 4.17769 3.88362 0
M  V30 2756 O 263.676 5.49359 2.45945 0
M  V30 2757 H 267.502 3.02605 0.257636 0
M  V30 2758 H 265.087 1.49275 0.0611393 0
M  V30 2759 H 266.969 3.23405 2.70161 0
M  V30 2760 H 265.644 2.05513 2.50092 0
M  V30 2761 H 264.551 3.65007 0.819809 0
M  V30 2762 H 265.884 4.79801 1.09782 0
M  V30 2763 N 267.536 -0.106894 1.57237 0
M  V30 2764 C 268.813 -0.843526 1.76477 0
M  V30 2765 C 269.193 -1.97499 0.745464 0
M  V30 2766 O 268.541 -2.27357 -0.228306 0
M  V30 2767 C 268.751 -1.34903 3.21873 0
M  V30 2768 C 270.099 -1.79654 3.8472 0
M  V30 2769 O 271.123 -1.44554 3.2555 0
M  V30 2770 O 269.982 -2.44515 4.88748 0
M  V30 2771 H 267.076 -0.401468 0.723016 0
M  V30 2772 H 269.622 -0.0896927 1.69463 0
M  V30 2773 H 268.394 -0.53781 3.87586 0
M  V30 2774 H 268.017 -2.16522 3.33473 0
M  V30 2775 N 269.014 -1.53014 -0.377408 0
M  V30 2776 C 269.946 -1.74884 -1.48149 0
M  V30 2777 C 270.959 -0.629433 -1.5014 0
M  V30 2778 O 272.148 -0.905416 -1.53833 0
M  V30 2779 C 269.248 -1.80299 -2.86959 0
M  V30 2780 C 268.421 -3.09776 -3.08801 0
M  V30 2781 C 267.48 -3.06586 -4.27658 0
M  V30 2782 O 266.506 -3.80419 -4.23403 0
M  V30 2783 N 267.708 -2.26578 -5.34455 0
M  V30 2784 H 270.473 -2.70147 -1.29771 0
M  V30 2785 H 268.034 -1.51646 -0.56703 0
M  V30 2786 H 270.026 -1.75657 -3.64591 0
M  V30 2787 H 268.596 -0.92372 -2.98641 0
M  V30 2788 H 267.816 -3.27815 -2.18931 0
M  V30 2789 H 269.104 -3.95366 -3.20255 0
M  V30 2790 H 268.502 -1.66081 -5.40771 0
M  V30 2791 H 267.059 -2.27766 -6.10709 0
M  V30 2792 N 270.492 0.636531 -1.44174 0
M  V30 2793 C 271.442 1.74233 -1.47061 0
M  V30 2794 C 272.426 1.57331 -0.337034 0
M  V30 2795 O 273.618 1.67159 -0.581973 0
M  V30 2796 C 270.747 3.12897 -1.41246 0
M  V30 2797 C 269.833 3.35288 -2.59698 0
M  V30 2798 N 270.224 3.2807 -3.84972 0
M  V30 2799 C 268.522 3.66065 -2.54778 0
M  V30 2800 C 269.223 3.51001 -4.63867 0
M  V30 2801 N 268.199 3.73616 -3.94857 0
M  V30 2802 H 272.001 1.67103 -2.41773 0
M  V30 2803 H 269.515 0.838806 -1.3906 0
M  V30 2804 H 271.512 3.92189 -1.41398 0
M  V30 2805 H 270.172 3.21197 -0.47569 0
M  V30 2806 H 271.183 3.07109 -4.17019 0
M  V30 2807 H 267.86 3.81379 -1.6987 0
M  V30 2808 H 269.25 3.51059 -5.72894 0
M  V30 2809 N 271.97 1.30982 0.876444 0
M  V30 2810 C 273.217 1.20296 1.62896 0
M  V30 2811 C 273.545 -0.240395 1.93009 0
M  V30 2812 O 272.8 -1.18733 1.55567 0
M  V30 2813 C 273.099 1.98572 2.9716 0
M  V30 2814 C 272.765 3.48125 2.86566 0
M  V30 2815 C 271.427 3.88905 2.83383 0
M  V30 2816 C 273.779 4.43322 2.74071 0
M  V30 2817 C 271.107 5.2316 2.65556 0
M  V30 2818 C 273.459 5.77695 2.57781 0
M  V30 2819 C 272.123 6.17704 2.52979 0
M  V30 2820 H 271.393 0.440193 0.59608 0
M  V30 2821 H 274.04 1.62177 1.01837 0
M  V30 2822 H 272.345 1.49352 3.62217 0
M  V30 2823 H 274.042 1.8769 3.54364 0
M  V30 2824 H 270.632 3.15723 2.89856 0
M  V30 2825 H 274.816 4.12752 2.75589 0
M  V30 2826 H 270.072 5.53241 2.60259 0
M  V30 2827 H 274.246 6.51091 2.47089 0
M  V30 2828 H 271.873 7.21678 2.38924 0
M  V30 2829 N 273.449 -1.08991 1.13837 0
M  V30 2830 C 274.359 -2.19301 0.833333 0
M  V30 2831 C 275.375 -1.73026 -0.183847 0
M  V30 2832 O 276.551 -2.01395 -0.0138092 0
M  V30 2833 C 273.616 -3.45323 0.308651 0
M  V30 2834 C 272.677 -4.06255 1.38764 0
M  V30 2835 C 271.91 -5.26262 0.887896 0
M  V30 2836 O 272.133 -5.69747 -0.27287 0
M  V30 2837 O 271.067 -5.78435 1.66421 0
M  V30 2838 H 274.893 -2.47854 1.75506 0
M  V30 2839 H 272.478 -1.18012 0.916166 0
M  V30 2840 H 274.36 -4.21394 0.0216739 0
M  V30 2841 H 273.035 -3.18362 -0.585431 0
M  V30 2842 H 271.942 -3.318 1.72799 0
M  V30 2843 H 273.275 -4.37452 2.25602 0
M  V30 2844 N 274.927 -0.932562 -1.27047 0
M  V30 2845 C 275.857 -0.452902 -2.29066 0
M  V30 2846 C 276.838 0.489338 -1.62909 0
M  V30 2847 O 278.023 0.393046 -1.90181 0
M  V30 2848 C 275.153 0.290698 -3.46081 0
M  V30 2849 C 274.107 -0.564168 -4.24265 0
M  V30 2850 C 273.433 0.308886 -5.33807 0
M  V30 2851 C 274.733 -1.83112 -4.89149 0
M  V30 2852 H 276.427 -1.30552 -2.69437 0
M  V30 2853 H 273.973 -0.629201 -1.29526 0
M  V30 2854 H 275.926 0.637233 -4.16554 0
M  V30 2855 H 274.65 1.17738 -3.0464 0
M  V30 2856 H 273.309 -0.893477 -3.55545 0
M  V30 2857 H 272.957 1.19467 -4.88607 0
M  V30 2858 H 272.657 -0.259633 -5.87026 0
M  V30 2859 H 274.181 0.650884 -6.07121 0
M  V30 2860 H 275.595 -1.55236 -5.51883 0
M  V30 2861 H 273.992 -2.34353 -5.52448 0
M  V30 2862 H 275.062 -2.54772 -4.12576 0
M  V30 2863 N 276.405 1.4127 -0.698611 0
M  V30 2864 C 277.654 2.00408 -0.227949 0
M  V30 2865 C 277.967 1.55981 1.18023 0
M  V30 2866 O 279.173 2.07699 1.74852 0
M  V30 2867 C 277.629 3.58129 -0.356636 0
M  V30 2868 C 277.237 4.11536 -1.77037 0
M  V30 2869 C 278.981 4.24466 0.0540969 0
M  V30 2870 C 276.888 5.61701 -1.85055 0
M  V30 2871 H 275.818 0.749586 -0.0814657 0
M  V30 2872 H 278.469 1.61713 -0.867249 0
M  V30 2873 H 276.851 3.94442 0.350965 0
M  V30 2874 H 278.025 3.86636 -2.50698 0
M  V30 2875 H 276.34 3.57736 -2.13105 0
M  V30 2876 H 278.937 5.34698 0.0146723 0
M  V30 2877 H 279.28 4.01687 1.09332 0
M  V30 2878 H 279.813 3.93198 -0.603337 0
M  V30 2879 H 276.552 5.89312 -2.8704 0
M  V30 2880 H 276.072 5.88519 -1.15783 0
M  V30 2881 H 277.751 6.26524 -1.61484 0
M  V30 2882 N 277.883 0.443576 1.51229 0
M  V30 2883 C 279.299 0.0962001 1.5931 0
M  V30 2884 C 279.499 -1.39501 1.45402 0
M  V30 2885 O 278.555 -2.16557 1.29843 0
M  V30 2886 C 279.868 0.621875 2.94199 0
M  V30 2887 C 281.416 0.582865 3.07525 0
M  V30 2888 C 281.891 1.08562 4.44948 0
M  V30 2889 N 283.382 1.04387 4.51284 0
M  V30 2890 C 284.117 1.40368 5.55954 0
M  V30 2891 N 283.613 1.83664 6.68011 0
M  V30 2892 N 285.406 1.32145 5.46346 0
M  V30 2893 H 277.557 1.41376 1.58514 0
M  V30 2894 H 279.82 0.582965 0.747567 0
M  V30 2895 H 279.526 1.66546 3.09767 0
M  V30 2896 H 279.4 0.0502125 3.77167 0
M  V30 2897 H 281.787 -0.451749 2.91622 0
M  V30 2898 H 281.868 1.191 2.26382 0
M  V30 2899 H 281.512 2.11873 4.61598 0
M  V30 2900 H 281.442 0.453956 5.2464 0
M  V30 2901 H 283.933 0.725986 3.70861 0
M  V30 2902 H 284.246 2.0934 7.43906 0
M  V30 2903 H 282.591 1.87596 6.69203 0
M  V30 2904 H 285.782 0.981808 4.57688 0
M  V30 2905 H 285.955 1.60514 6.27805 0
M  V30 2906 N 279.361 -1.56624 0.175154 0
M  V30 2907 C 280.311 -2.14747 -0.766004 0
M  V30 2908 C 281.295 -1.08275 -1.19018 0
M  V30 2909 O 282.487 -1.34388 -1.15191 0
M  V30 2910 C 279.616 -2.79478 -1.99366 0
M  V30 2911 C 278.702 -3.93114 -1.5913 0
M  V30 2912 N 279.093 -4.97752 -0.89872 0
M  V30 2913 C 277.391 -4.04345 -1.88204 0
M  V30 2914 C 278.092 -5.77473 -0.700012 0
M  V30 2915 N 277.068 -5.29207 -1.24263 0
M  V30 2916 H 280.87 -2.93015 -0.22793 0
M  V30 2917 H 278.384 -1.6238 -0.0253843 0
M  V30 2918 H 280.381 -3.19498 -2.67818 0
M  V30 2919 H 279.041 -2.02692 -2.53665 0
M  V30 2920 H 280.052 -5.14903 -0.556347 0
M  V30 2921 H 276.729 -3.38667 -2.44153 0
M  V30 2922 H 278.119 -6.71728 -0.152047 0
M  V30 2923 N 280.839 0.0985539 -1.57292 0
M  V30 2924 C 281.769 1.12064 -2.04851 0
M  V30 2925 C 282.75 1.41981 -0.936767 0
M  V30 2926 O 283.935 1.52071 -1.20781 0
M  V30 2927 C 281.065 2.44144 -2.47004 0
M  V30 2928 C 280.019 2.28643 -3.6181 0
M  V30 2929 C 279.345 3.65869 -3.89929 0
M  V30 2930 C 280.645 1.72986 -4.92822 0
M  V30 2931 H 282.339 0.724979 -2.9049 0
M  V30 2932 H 279.885 0.34729 -1.39749 0
M  V30 2933 H 281.838 3.15914 -2.78884 0
M  V30 2934 H 280.562 2.85639 -1.5836 0
M  V30 2935 H 279.221 1.59318 -3.30172 0
M  V30 2936 H 278.869 4.04885 -2.98458 0
M  V30 2937 H 278.569 3.56344 -4.67218 0
M  V30 2938 H 280.093 4.39112 -4.2428 0
M  V30 2939 H 281.507 2.34593 -5.23105 0
M  V30 2940 H 279.904 1.74229 -5.74251 0
M  V30 2941 H 280.974 0.689007 -4.7998 0
M  V30 2942 N 282.317 1.53212 0.369288 0
M  V30 2943 C 283.264 1.79388 1.45219 0
M  V30 2944 C 284.234 0.638059 1.53356 0
M  V30 2945 O 285.419 0.879852 1.69302 0
M  V30 2946 C 282.559 1.98623 2.82211 0
M  V30 2947 C 281.672 3.26337 2.8307 0
M  V30 2948 C 280.807 3.35779 4.11614 0
M  V30 2949 C 279.846 4.5754 4.06601 0
M  V30 2950 N 278.983 4.64155 5.26787 0
M  V30 2951 H 283.823 2.71794 1.22198 0
M  V30 2952 H 281.36 1.34642 0.592444 0
M  V30 2953 H 283.318 2.07761 3.61789 0
M  V30 2954 H 281.948 1.09558 3.03639 0
M  V30 2955 H 281 3.26171 1.95747 0
M  V30 2956 H 282.312 4.15988 2.75237 0
M  V30 2957 H 281.466 3.44208 4.99606 0
M  V30 2958 H 280.205 2.44137 4.22195 0
M  V30 2959 H 279.21 4.49215 3.16996 0
M  V30 2960 H 280.435 5.50519 3.97625 0
M  V30 2961 H 278.381 3.75413 5.3796 0
M  V30 2962 H 278.298 5.47706 5.21109 0
M  V30 2963 H 279.566 4.76863 6.16621 0
M  V30 2964 N 283.795 -0.628877 1.44509 0
M  V30 2965 C 285.072 -1.38733 1.37886 0
M  V30 2966 C 285.452 -2.11065 0.0387008 0
M  V30 2967 O 284.8 -2.06476 -0.97878 0
M  V30 2968 C 285.01 -2.35188 2.57852 0
M  V30 2969 C 286.358 -2.9845 3.02014 0
M  V30 2970 O 287.382 -2.45513 2.58073 0
M  V30 2971 O 286.241 -3.94487 3.78209 0
M  V30 2972 H 283.335 -0.621015 0.54614 0
M  V30 2973 H 285.881 -0.653744 1.56602 0
M  V30 2974 H 284.653 -1.80855 3.46998 0
M  V30 2975 H 284.276 -3.1596 2.4136 0
M  V30 2976 N 285.273 -1.31445 -0.869486 0
M  V30 2977 C 286.183 -1.21097 -2.0093 0
M  V30 2978 C 287.199 -0.127584 -1.73532 0
M  V30 2979 O 288.375 -0.345477 -1.98415 0
M  V30 2980 C 285.44 -0.919378 -3.34288 0
M  V30 2981 C 284.501 -2.08971 -3.75006 0
M  V30 2982 C 283.734 -1.81194 -5.02001 0
M  V30 2983 O 283.957 -0.747296 -5.65484 0
M  V30 2984 O 282.891 -2.66883 -5.39497 0
M  V30 2985 H 286.717 -2.16883 -2.12592 0
M  V30 2986 H 284.302 -1.11189 -0.997868 0
M  V30 2987 H 286.184 -0.772625 -4.14257 0
M  V30 2988 H 284.859 0.00844772 -3.23699 0
M  V30 2989 H 283.766 -2.29187 -2.95676 0
M  V30 2990 H 285.099 -2.9998 -3.90221 0
M  V30 2991 N 286.751 1.08385 -1.14413 0
M  V30 2992 C 287.976 1.85057 -0.936413 0
M  V30 2993 C 288.401 1.81055 0.509971 0
M  V30 2994 O 287.759 1.1958 1.36273 0
M  V30 2995 C 287.807 3.30505 -1.44217 0
M  V30 2996 O 286.911 4.07491 -0.634409 0
M  V30 2997 H 286.252 0.573425 -0.334784 0
M  V30 2998 H 288.782 1.36799 -1.52142 0
M  V30 2999 H 288.792 3.81348 -1.45043 0
M  V30 3000 H 287.467 3.32734 -2.49522 0
M  V30 3001 H 286.044 3.66368 -0.694902 0
M  V30 3002 N 288.23 0.939286 1.26551 0
M  V30 3003 C 289.479 0.581601 1.93133 0
M  V30 3004 C 289.792 -0.883224 1.74524 0
M  V30 3005 O 290.998 -1.3502 2.35546 0
M  V30 3006 C 289.454 0.989425 3.46032 0
M  V30 3007 C 289.062 2.47573 3.73379 0
M  V30 3008 C 290.806 0.703544 4.18629 0
M  V30 3009 C 288.713 2.82235 5.19709 0
M  V30 3010 H 287.643 0.213803 0.723052 0
M  V30 3011 H 290.294 1.14167 1.4366 0
M  V30 3012 H 288.676 0.357902 3.94379 0
M  V30 3013 H 289.85 3.15614 3.35744 0
M  V30 3014 H 288.165 2.73471 3.1401 0
M  V30 3015 H 290.762 0.938869 5.26393 0
M  V30 3016 H 291.105 -0.359639 4.14744 0
M  V30 3017 H 291.638 1.2947 3.76141 0
M  V30 3018 H 288.377 3.87509 5.28694 0
M  V30 3019 H 287.897 2.18854 5.58447 0
M  V30 3020 H 289.576 2.70599 5.87695 0
M  V30 3021 N 289.708 -1.40897 0.706093 0
M  V30 3022 C 290.957 -2.00284 0.238574 0
M  V30 3023 C 291.27 -1.56604 -1.17194 0
M  V30 3024 O 292.476 -2.08624 -1.73748 0
M  V30 3025 C 290.932 -3.57934 0.375623 0
M  V30 3026 C 290.54 -4.10591 1.79217 0
M  V30 3027 C 292.284 -4.24488 -0.0315857 0
M  V30 3028 C 290.191 -5.60712 1.88032 0
M  V30 3029 H 289.121 -0.749144 0.0854398 0
M  V30 3030 H 291.772 -1.61251 0.875813 0
M  V30 3031 H 290.154 -3.94622 -0.330042 0
M  V30 3032 H 291.328 -3.85301 2.52745 0
M  V30 3033 H 289.643 -3.56601 2.15 0
M  V30 3034 H 292.24 -5.34698 0.0136842 0
M  V30 3035 H 292.583 -4.02261 -1.072 0
M  V30 3036 H 293.116 -3.92873 0.624181 0
M  V30 3037 H 289.855 -5.87781 2.90161 0
M  V30 3038 H 289.375 -5.87896 1.18903 0
M  V30 3039 H 291.054 -6.25658 1.64805 0
M  V30 3040 N 291.186 -0.45159 -1.50991 0
M  V30 3041 C 292.149 0.341117 -2.26647 0
M  V30 3042 C 293.149 0.937422 -1.30649 0
M  V30 3043 O 294.339 0.809644 -1.54241 0
M  V30 3044 C 291.471 1.48398 -3.06905 0
M  V30 3045 H 292.664 -0.322117 -2.98165 0
M  V30 3046 H 290.217 -0.205122 -1.54948 0
M  V30 3047 H 290.952 2.18284 -2.39838 0
M  V30 3048 H 290.737 1.06241 -3.77432 0
M  V30 3049 H 292.227 2.04367 -3.64176 0
M  V30 3050 N 292.664 1.56529 -0.183458 0
M  V30 3051 C 293.889 2.02064 0.467428 0
M  V30 3052 C 294.314 1.06282 1.55196 0
M  V30 3053 O 293.672 0.0443565 1.81246 0
M  V30 3054 C 293.72 3.46122 1.01153 0
M  V30 3055 O 292.824 3.53437 2.12499 0
M  V30 3056 H 292.165 0.654726 0.110588 0
M  V30 3057 H 294.695 2.02521 -0.290917 0
M  V30 3058 H 294.705 3.85676 1.33108 0
M  V30 3059 H 293.38 4.15331 0.217533 0
M  V30 3060 H 291.957 3.2575 1.81497 0
M  V30 3061 N 294.142 -0.090211 1.57342 0
M  V30 3062 C 295.075 -1.14035 1.97664 0
M  V30 3063 C 296.053 -1.38576 0.850616 0
M  V30 3064 O 297.237 -1.52255 1.11134 0
M  V30 3065 C 294.364 -2.48854 2.2976 0
M  V30 3066 C 293.41 -2.40564 3.52181 0
M  V30 3067 S 294.243 -1.81745 5.03715 0
M  V30 3068 C 295.399 -3.18178 5.38993 0
M  V30 3069 H 295.632 -0.796636 2.86428 0
M  V30 3070 H 293.165 -0.298072 1.51496 0
M  V30 3071 H 295.123 -3.26413 2.48927 0
M  V30 3072 H 293.784 -2.80393 1.41558 0
M  V30 3073 H 292.977 -3.39942 3.72096 0
M  V30 3074 H 292.579 -1.71135 3.32549 0
M  V30 3075 H 294.871 -4.14461 5.35937 0
M  V30 3076 H 295.814 -3.03062 6.39968 0
M  V30 3077 H 296.222 -3.17935 4.66452 0
M  V30 3078 N 295.62 -1.53406 -0.361157 0
M  V30 3079 C 296.868 -1.69467 -1.10115 0
M  V30 3080 C 297.189 -0.451352 -1.89705 0
M  V30 3081 O 296.459 0.534636 -1.88463 0
M  V30 3082 H 295.039 -0.624749 -0.409508 0
M  V30 3083 H 297.701 -1.90609 -0.406699 0
M  V30 3084 H 296.797 -2.55774 -1.78847 0
M  V30 3085 N 297.098 0.621204 -1.44841 0
M  V30 3086 C 298.048 1.72663 -1.48901 0
M  V30 3087 C 299.032 1.56964 -0.353702 0
M  V30 3088 O 300.224 1.66532 -0.599669 0
M  V30 3089 C 297.353 3.11381 -1.44557 0
M  V30 3090 C 296.439 3.32514 -2.6324 0
M  V30 3091 N 296.83 3.23969 -3.8843 0
M  V30 3092 C 295.128 3.63343 -2.58647 0
M  V30 3093 C 295.829 3.46062 -4.67564 0
M  V30 3094 N 294.805 3.69407 -3.98797 0
M  V30 3095 H 298.607 1.64529 -2.43531 0
M  V30 3096 H 296.121 0.82401 -1.39942 0
M  V30 3097 H 298.118 3.90667 -1.4555 0
M  V30 3098 H 296.778 3.20674 -0.509731 0
M  V30 3099 H 297.789 3.02669 -4.20252 0
M  V30 3100 H 294.466 3.79556 -1.73906 0
M  V30 3101 H 295.856 3.44963 -5.76585 0
M  V30 3102 N 298.576 1.31904 0.862503 0
M  V30 3103 C 299.804 1.24998 1.64873 0
M  V30 3104 C 300.219 -0.183425 1.87907 0
M  V30 3105 O 299.576 -1.11794 1.44251 0
M  V30 3106 C 299.627 1.99829 3.01248 0
M  V30 3107 O 299.348 3.37575 2.79239 0
M  V30 3108 C 300.849 1.99852 3.95694 0
M  V30 3109 H 298.069 0.431599 0.513773 0
M  V30 3110 H 300.613 1.73901 1.07604 0
M  V30 3111 H 298.768 1.54668 3.55185 0
M  V30 3112 H 299.182 3.75776 3.65914 0
M  V30 3113 H 300.656 2.56709 4.88676 0
M  V30 3114 H 301.133 0.982852 4.28062 0
M  V30 3115 H 301.739 2.44926 3.47694 0
M  V30 3116 N 300.054 -1.07777 1.14986 0
M  V30 3117 C 301.331 -1.7699 0.832695 0
M  V30 3118 C 301.711 -2.001 -0.672561 0
M  V30 3119 O 301.059 -1.61598 -1.6155 0
M  V30 3120 C 301.269 -3.08139 1.63863 0
M  V30 3121 C 302.617 -3.8256 1.84208 0
M  V30 3122 O 303.641 -3.17939 1.60603 0
M  V30 3123 O 302.5 -4.98612 2.23714 0
M  V30 3124 H 299.594 -0.768389 0.305791 0
M  V30 3125 H 302.14 -1.14182 1.25541 0
M  V30 3126 H 300.912 -2.86909 2.6608 0
M  V30 3127 H 300.535 -3.78678 1.21197 0
M  V30 3128 N 301.532 -0.945985 -1.26051 0
M  V30 3129 C 302.495 -0.463897 -2.24456 0
M  V30 3130 C 303.495 0.427655 -1.55009 0
M  V30 3131 O 304.685 0.226157 -1.72726 0
M  V30 3132 C 301.817 0.330812 -3.39291 0
M  V30 3133 H 303.01 -1.33357 -2.68619 0
M  V30 3134 H 300.563 -0.728416 -1.38289 0
M  V30 3135 H 301.298 1.21852 -3.00537 0
M  V30 3136 H 301.083 -0.308679 -3.90883 0
M  V30 3137 H 302.573 0.657865 -4.12386 0
M  V30 3138 N 303.011 1.40521 -0.713556 0
M  V30 3139 C 304.288 1.94775 -0.17943 0
M  V30 3140 C 304.668 1.65184 1.31444 0
M  V30 3141 O 304.016 0.968429 2.06963 0
M  V30 3142 C 304.226 3.45543 -0.489986 0
M  V30 3143 C 305.574 4.22442 -0.427536 0
M  V30 3144 O 306.598 3.53644 -0.425929 0
M  V30 3145 O 305.457 5.4501 -0.403292 0
M  V30 3146 H 302.551 0.826606 -0.0255192 0
M  V30 3147 H 305.097 1.5014 -0.790949 0
M  V30 3148 H 303.869 3.60432 -1.5233 0
M  V30 3149 H 303.492 3.97311 0.151598 0
M  V30 3150 N 304.489 0.459591 1.5075 0
M  V30 3151 C 305.714 -0.0996819 2.0716 0
M  V30 3152 C 306.139 -1.33761 1.32249 0
M  V30 3153 O 305.497 -1.77551 0.366786 0
M  V30 3154 C 305.545 -0.378226 3.58611 0
M  V30 3155 O 304.649 -1.46081 3.85661 0
M  V30 3156 H 303.99 0.00791392 0.663953 0
M  V30 3157 H 306.52 0.647329 1.9409 0
M  V30 3158 H 306.53 -0.622135 4.03229 0
M  V30 3159 H 305.205 0.526439 4.12555 0
M  V30 3160 H 303.782 -1.20511 3.5289 0
M  V30 3161 N 305.967 -1.56429 0.191757 0
M  V30 3162 C 306.93 -2.17707 -0.716688 0
M  V30 3163 C 307.93 -1.13061 -1.14341 0
M  V30 3164 O 309.12 -1.38464 -1.05704 0
M  V30 3165 C 306.252 -2.77644 -1.97804 0
M  V30 3166 H 307.445 -2.99342 -0.1829 0
M  V30 3167 H 304.998 -1.56193 -0.0578566 0
M  V30 3168 H 305.733 -1.99799 -2.55443 0
M  V30 3169 H 305.518 -3.54246 -1.68083 0
M  V30 3170 H 307.008 -3.24708 -2.62592 0
M  V30 3171 N 307.445 0.0818655 -1.57387 0
M  V30 3172 C 308.375 1.09885 -2.06028 0
M  V30 3173 C 309.356 1.4098 -0.951774 0
M  V30 3174 O 310.541 1.50781 -1.22387 0
M  V30 3175 C 307.671 2.4151 -2.4958 0
M  V30 3176 C 306.625 2.24792 -3.64215 0
M  V30 3177 C 305.951 3.61712 -3.93787 0
M  V30 3178 C 307.251 1.67749 -4.94629 0
M  V30 3179 H 308.945 0.694128 -2.91243 0
M  V30 3180 H 306.491 0.332448 -1.4011 0
M  V30 3181 H 308.444 3.12939 -2.82219 0
M  V30 3182 H 307.168 2.83943 -1.61381 0
M  V30 3183 H 305.827 1.55807 -3.31843 0
M  V30 3184 H 305.475 4.01697 -3.02735 0
M  V30 3185 H 305.175 3.51368 -4.70971 0
M  V30 3186 H 306.699 4.34587 -4.28913 0
M  V30 3187 H 308.113 2.29032 -5.25564 0
M  V30 3188 H 306.51 1.68128 -5.76067 0
M  V30 3189 H 307.58 0.638059 -4.80684 0
M  V30 3190 N 308.923 1.53595 0.353017 0
M  V30 3191 C 309.853 1.83902 1.43883 0
M  V30 3192 C 310.834 0.693421 1.55324 0
M  V30 3193 O 312.019 0.944452 1.69687 0
M  V30 3194 C 309.149 2.04016 2.8106 0
M  V30 3195 C 308.103 3.19814 2.84434 0
M  V30 3196 C 307.429 3.25244 4.24406 0
M  V30 3197 C 308.729 4.58133 2.50822 0
M  V30 3198 H 310.423 2.74835 1.1877 0
M  V30 3199 H 307.969 1.32242 0.569917 0
M  V30 3200 H 309.922 2.238 3.57059 0
M  V30 3201 H 308.646 1.09804 3.07588 0
M  V30 3202 H 307.305 2.9987 2.10887 0
M  V30 3203 H 306.953 2.28646 4.48029 0
M  V30 3204 H 306.653 4.03054 4.27576 0
M  V30 3205 H 308.177 3.47228 5.0226 0
M  V30 3206 H 309.591 4.77995 3.16534 0
M  V30 3207 H 307.988 5.38276 2.6529 0
M  V30 3208 H 309.058 4.62387 1.46034 0
M  V30 3209 N 310.401 -0.613514 1.45168 0
M  V30 3210 C 311.626 -1.40437 1.52618 0
M  V30 3211 C 312.051 -1.87438 0.157707 0
M  V30 3212 O 311.409 -1.59791 -0.856537 0
M  V30 3213 C 311.457 -2.58894 2.51011 0
M  V30 3214 O 310.561 -3.59326 2.02382 0
M  V30 3215 H 309.902 -0.419506 0.514695 0
M  V30 3216 H 312.432 -0.747215 1.90467 0
M  V30 3217 H 312.442 -3.06214 2.69624 0
M  V30 3218 H 311.117 -2.24032 3.50403 0
M  V30 3219 H 309.694 -3.18695 1.93618 0
M  V30 3220 N 311.879 -1.3236 -0.855495 0
M  V30 3221 C 313.156 -1.13491 -1.59309 0
M  V30 3222 C 313.536 0.30503 -2.08885 0
M  V30 3223 O 312.884 1.30151 -1.87811 0
M  V30 3224 C 313.094 -2.16176 -2.73987 0
M  V30 3225 C 314.442 -2.49463 -3.43589 0
M  V30 3226 O 315.466 -2.14715 -2.84211 0
M  V30 3227 O 314.325 -3.09027 -4.50738 0
M  V30 3228 H 311.419 -0.437887 -0.701559 0
M  V30 3229 H 313.965 -1.43887 -0.899696 0
M  V30 3230 H 312.737 -3.1297 -2.34873 0
M  V30 3231 H 312.36 -1.86769 -3.51003 0
M  V30 3232 N 313.357 1.07166 -1.15556 0
M  V30 3233 C 314.32 2.12589 -0.856644 0
M  V30 3234 C 315.32 1.6015 0.14444 0
M  V30 3235 O 316.51 1.7399 -0.0854163 0
M  V30 3236 C 313.642 3.39753 -0.279405 0
M  V30 3237 H 314.835 2.40539 -1.79112 0
M  V30 3238 H 312.388 1.23086 -0.963298 0
M  V30 3239 H 313.123 3.17447 0.663174 0
M  V30 3240 H 312.908 3.79117 -1.00063 0
M  V30 3241 H 314.398 4.17507 -0.0879113 0
M  V30 3242 N 314.835 0.952656 1.25548 0
M  V30 3243 C 315.798 0.475794 2.24207 0
M  V30 3244 C 316.798 -0.419428 1.55234 0
M  V30 3245 O 317.988 -0.216994 1.72843 0
M  V30 3246 C 315.12 -0.312814 3.39462 0
M  V30 3247 H 316.313 1.34779 2.67908 0
M  V30 3248 H 313.866 0.735739 1.37901 0
M  V30 3249 H 314.601 -1.20257 3.01179 0
M  V30 3250 H 314.386 0.329404 3.90714 0
M  V30 3251 H 315.876 -0.635986 4.12729 0
M  V30 3252 N 316.313 -1.40141 0.720998 0
M  V30 3253 C 317.26 -2.30688 0.071919 0
M  V30 3254 C 318.23 -1.48476 -0.744584 0
M  V30 3255 O 319.415 -1.77201 -0.707423 0
M  V30 3256 C 316.555 -3.34724 -0.839855 0
M  V30 3257 C 315.668 -4.31998 -0.0122438 0
M  V30 3258 C 314.803 -5.23102 -0.923995 0
M  V30 3259 C 313.842 -6.12033 -0.0907969 0
M  V30 3260 N 312.979 -6.95537 -0.957718 0
M  V30 3261 H 317.819 -2.85628 0.849755 0
M  V30 3262 H 315.356 -1.40653 0.430726 0
M  V30 3263 H 317.314 -3.93618 -1.38279 0
M  V30 3264 H 315.944 -2.81274 -1.58381 0
M  V30 3265 H 314.996 -3.74841 0.64794 0
M  V30 3266 H 316.308 -4.94772 0.632595 0
M  V30 3267 H 315.462 -5.86953 -1.53527 0
M  V30 3268 H 314.201 -4.60615 -1.60264 0
M  V30 3269 H 313.206 -5.47207 0.533377 0
M  V30 3270 H 314.431 -6.76581 0.584428 0
M  V30 3271 H 312.377 -6.35633 -1.62192 0
M  V30 3272 H 312.294 -7.55099 -0.36904 0
M  V30 3273 H 313.562 -7.63832 -1.555 0
M  V30 3274 N 317.792 -0.46758 -1.50504 0
M  V30 3275 C 318.755 0.317059 -2.26996 0
M  V30 3276 C 319.755 0.923513 -1.31635 0
M  V30 3277 O 320.945 0.793239 -1.55091 0
M  V30 3278 C 318.077 1.45134 -3.08462 0
M  V30 3279 H 319.27 -0.353723 -2.97807 0
M  V30 3280 H 316.823 -0.221545 -1.54722 0
M  V30 3281 H 317.558 2.15728 -2.4214 0
M  V30 3282 H 317.343 1.02232 -3.78538 0
M  V30 3283 H 318.833 2.00493 -3.66323 0
M  V30 3284 N 319.27 1.56325 -0.20005 0
M  V30 3285 C 320.518 1.97329 0.436547 0
M  V30 3286 C 320.839 1.08826 1.61808 0
M  V30 3287 O 320.109 0.160604 1.95241 0
M  V30 3288 H 318.689 0.728714 0.164272 0
M  V30 3289 H 321.351 1.92761 -0.287937 0
M  V30 3290 H 320.447 3.02264 0.777353 0
M  V30 3291 N 320.748 -0.0735177 1.57428 0
M  V30 3292 C 321.711 -1.07192 2.02589 0
M  V30 3293 C 322.711 -1.31695 0.922661 0
M  V30 3294 O 323.901 -1.27445 1.18758 0
M  V30 3295 C 321.033 -2.41599 2.40506 0
M  V30 3296 H 322.226 -0.682727 2.92025 0
M  V30 3297 H 319.779 -0.319193 1.53006 0
M  V30 3298 H 320.514 -2.85354 1.5409 0
M  V30 3299 H 320.299 -2.25156 3.21009 0
M  V30 3300 H 321.789 -3.13367 2.76027 0
M  V30 3301 N 322.226 -1.5378 -0.344866 0
M  V30 3302 C 323.451 -1.75211 -1.10977 0
M  V30 3303 C 323.876 -0.48936 -1.81623 0
M  V30 3304 O 323.234 0.557925 -1.72502 0
M  V30 3305 C 323.282 -2.93147 -2.09993 0
M  V30 3306 O 322.386 -2.63203 -3.17487 0
M  V30 3307 H 321.727 -0.581241 -0.321021 0
M  V30 3308 H 324.257 -2.00738 -0.395661 0
M  V30 3309 H 324.267 -3.19898 -2.53237 0
M  V30 3310 H 322.942 -3.84731 -1.5797 0
M  V30 3311 H 321.519 -2.47336 -2.79069 0
M  V30 3312 N 323.704 0.605807 -1.45491 0
M  V30 3313 C 324.654 1.71074 -1.50724 0
M  V30 3314 C 325.638 1.5658 -0.37033 0
M  V30 3315 O 326.83 1.65887 -0.617299 0
M  V30 3316 C 323.959 3.0983 -1.47852 0
M  V30 3317 C 323.045 3.29704 -2.66751 0
M  V30 3318 N 323.436 3.19831 -3.91844 0
M  V30 3319 C 321.734 3.60579 -2.62486 0
M  V30 3320 C 322.435 3.41083 -4.71208 0
M  V30 3321 N 321.411 3.65157 -4.02693 0
M  V30 3322 H 325.213 1.61937 -2.45263 0
M  V30 3323 H 322.727 0.80912 -1.40808 0
M  V30 3324 H 324.724 3.89101 -1.49686 0
M  V30 3325 H 323.384 3.20115 -0.543714 0
M  V30 3326 H 324.395 2.98194 -4.23439 0
M  V30 3327 H 321.072 3.7769 -1.77922 0
M  V30 3328 H 322.462 3.38828 -5.80211 0
M  V30 3329 N 325.182 1.32811 0.848464 0
M  V30 3330 C 326.115 1.16601 1.96162 0
M  V30 3331 C 327.093 0.0638855 1.62474 0
M  V30 3332 O 328.277 0.224348 1.8716 0
M  V30 3333 C 325.404 0.786333 3.29446 0
M  V30 3334 C 324.45 1.89459 3.8211 0
M  V30 3335 S 325.283 3.50395 4.04949 0
M  V30 3336 C 326.439 3.14413 5.41198 0
M  V30 3337 H 326.672 2.10832 2.09612 0
M  V30 3338 H 324.205 1.17543 1.00115 0
M  V30 3339 H 326.163 0.574044 4.06466 0
M  V30 3340 H 324.824 -0.137218 3.138 0
M  V30 3341 H 324.017 1.58207 4.78526 0
M  V30 3342 H 323.619 2.06304 3.11953 0
M  V30 3343 H 325.911 2.64642 6.23675 0
M  V30 3344 H 326.854 4.09874 5.77416 0
M  V30 3345 H 327.262 2.51266 5.05495 0
M  V30 3346 N 326.66 -1.06551 1.16123 0
M  V30 3347 C 327.888 -1.83005 0.965237 0
M  V30 3348 C 328.303 -1.82423 -0.486542 0
M  V30 3349 O 327.66 -1.24152 -1.33763 0
M  V30 3350 C 327.711 -3.29733 1.48183 0
M  V30 3351 O 327.432 -3.30416 2.87674 0
M  V30 3352 C 328.933 -4.22926 1.32848 0
M  V30 3353 H 326.153 -0.577118 0.342309 0
M  V30 3354 H 328.697 -1.3445 1.54089 0
M  V30 3355 H 326.852 -3.75609 0.948517 0
M  V30 3356 H 327.266 -4.22149 3.11272 0
M  V30 3357 H 328.74 -5.23916 1.73827 0
M  V30 3358 H 329.217 -4.38346 0.273692 0
M  V30 3359 H 329.823 -3.82894 1.85127 0
M  V30 3360 N 328.138 -0.959301 -1.25041 0
M  V30 3361 C 329.088 -0.453888 -2.23436 0
M  V30 3362 C 330.072 0.459461 -1.542 0
M  V30 3363 O 331.264 0.291752 -1.74579 0
M  V30 3364 C 328.393 0.262667 -3.42294 0
M  V30 3365 C 327.479 -0.669022 -4.1879 0
M  V30 3366 N 327.87 -1.80267 -4.72586 0
M  V30 3367 C 326.168 -0.47814 -4.4343 0
M  V30 3368 C 326.869 -2.38475 -5.3057 0
M  V30 3369 N 325.845 -1.67078 -5.17287 0
M  V30 3370 H 329.647 -1.319 -2.6264 0
M  V30 3371 H 327.161 -0.817358 -1.40332 0
M  V30 3372 H 329.158 0.641911 -4.11929 0
M  V30 3373 H 327.818 1.12432 -3.04613 0
M  V30 3374 H 328.829 -2.18442 -4.69578 0
M  V30 3375 H 325.506 0.340249 -4.16111 0
M  V30 3376 H 326.896 -3.34094 -5.8295 0
M  V30 3377 N 329.616 1.39756 -0.72842 0
M  V30 3378 C 330.546 2.33289 -0.0991354 0
M  V30 3379 C 331.527 1.53568 0.731489 0
M  V30 3380 O 332.712 1.81987 0.677807 0
M  V30 3381 C 329.842 3.3763 0.813834 0
M  V30 3382 C 328.796 4.2791 0.0878663 0
M  V30 3383 C 328.122 5.22894 1.11741 0
M  V30 3384 C 329.422 5.11314 -1.06563 0
M  V30 3385 H 331.116 2.86163 -0.880408 0
M  V30 3386 H 328.662 1.37591 -0.424819 0
M  V30 3387 H 330.615 4.0201 1.26355 0
M  V30 3388 H 329.339 2.83181 1.62715 0
M  V30 3389 H 327.998 3.65 -0.342159 0
M  V30 3390 H 327.646 4.64744 1.92412 0
M  V30 3391 H 327.346 5.84143 0.636477 0
M  V30 3392 H 328.87 5.90151 1.56697 0
M  V30 3393 H 330.284 5.69076 -0.694671 0
M  V30 3394 H 328.681 5.81671 -1.47577 0
M  V30 3395 H 329.751 4.46534 -1.89038 0
M  V30 3396 N 331.094 0.475555 1.50254 0
M  V30 3397 C 332.324 -0.0753399 2.06463 0
M  V30 3398 C 332.732 -1.33661 1.33908 0
M  V30 3399 O 332.075 -1.79219 0.403257 0
M  V30 3400 C 332.137 -0.424921 3.5698 0
M  V30 3401 C 331.801 0.734965 4.51051 0
M  V30 3402 C 332.798 1.61827 4.94073 0
M  V30 3403 C 330.483 0.926557 4.9368 0
M  V30 3404 C 332.477 2.67754 5.78434 0
M  V30 3405 C 330.164 1.98904 5.77824 0
M  V30 3406 C 331.162 2.8629 6.20103 0
M  V30 3407 O 330.85 3.90708 7.02568 0
M  V30 3408 H 330.582 0.00576308 0.675975 0
M  V30 3409 H 333.136 0.664662 1.94349 0
M  V30 3410 H 331.366 -1.21817 3.67012 0
M  V30 3411 H 333.055 -0.911422 3.95535 0
M  V30 3412 H 333.821 1.48196 4.61804 0
M  V30 3413 H 329.7 0.25584 4.6029 0
M  V30 3414 H 333.244 3.35992 6.11355 0
M  V30 3415 H 329.141 2.12541 6.09505 0
M  V30 3416 H 329.909 3.87751 7.20827 0
M  V30 3417 N 332.573 -1.56217 0.208337 0
M  V30 3418 C 333.521 -2.21053 -0.723769 0
M  V30 3419 C 334.515 -1.18578 -1.20978 0
M  V30 3420 O 335.721 -1.36691 -1.17114 0
M  V30 3421 H 332.096 -0.708595 -0.251788 0
M  V30 3422 H 334.067 -2.98006 -0.153365 0
M  V30 3423 C 332.816 -2.89417 -1.927 0
M  V30 3424 H 332.139 -3.68019 -1.56212 0
M  V30 3425 H 333.579 -3.38201 -2.55727 0
M  V30 3426 C 332.038 -1.91166 -2.77411 0
M  V30 3427 O 332.568 -1.42026 -3.75754 0
M  V30 3428 N 330.774 -1.59105 -2.43175 0
M  V30 3429 H 330.321 -1.99259 -1.63259 0
M  V30 3430 H 330.279 -0.936255 -3.00136 0
M  V30 3431 N 334.051 0.0651679 -1.57465 0
M  V30 3432 C 335.014 1.06117 -2.03155 0
M  V30 3433 C 336.014 1.31204 -0.929632 0
M  V30 3434 O 337.204 1.26813 -1.19432 0
M  V30 3435 C 334.336 2.4032 -2.41783 0
M  V30 3436 H 335.529 0.667231 -2.92383 0
M  V30 3437 H 333.082 0.311075 -1.53173 0
M  V30 3438 H 333.817 2.84532 -1.55601 0
M  V30 3439 H 333.602 2.23451 -3.22199 0
M  V30 3440 H 335.092 3.11898 -2.77685 0
M  V30 3441 N 335.529 1.53961 0.336706 0
M  V30 3442 C 336.462 1.77255 1.43722 0
M  V30 3443 C 337.44 0.62193 1.50236 0
M  V30 3444 O 338.624 0.857874 1.67847 0
M  V30 3445 C 335.751 1.87733 2.81912 0
M  V30 3446 C 334.797 3.09933 2.92991 0
M  V30 3447 S 335.63 4.68836 2.58753 0
M  V30 3448 C 336.786 4.82202 3.99039 0
M  V30 3449 H 337.019 2.70322 1.23748 0
M  V30 3450 H 334.552 1.44917 0.532777 0
M  V30 3451 H 336.51 1.94455 3.61521 0
M  V30 3452 H 335.171 0.956666 2.99177 0
M  V30 3453 H 334.364 3.1396 3.94265 0
M  V30 3454 H 333.966 3.01472 2.21338 0
M  V30 3455 H 336.258 4.64032 4.9364 0
M  V30 3456 H 337.201 5.84298 4.00002 0
M  V30 3457 H 337.609 4.10604 3.87382 0
M  V30 3458 N 337.007 -0.598083 1.45811 0
M  V30 3459 C 338.232 -1.3881 1.54099 0
M  V30 3460 C 338.657 -1.8726 0.177578 0
M  V30 3461 O 338.015 -1.6069 -0.839541 0
M  V30 3462 C 338.063 -2.56217 2.53743 0
M  V30 3463 O 337.167 -3.5716 2.06182 0
M  V30 3464 H 336.508 -0.414024 0.519115 0
M  V30 3465 H 339.038 -0.726971 1.91249 0
M  V30 3466 H 339.048 -3.03337 2.72856 0
M  V30 3467 H 337.723 -2.20303 3.5276 0
M  V30 3468 H 336.3 -3.16624 1.96987 0
M  V30 3469 N 338.485 -1.33259 -0.841409 0
M  V30 3470 C 339.896 -1.22066 -1.41269 0
M  V30 3471 C 340.247 0.161479 -1.95534 0
M  V30 3472 O 339.372 1.06094 -1.88608 0
M  V30 3473 C 339.967 -2.20996 -2.568 0
M  V30 3474 C 338.526 -2.13649 -3.09888 0
M  V30 3475 C 337.673 -2.08623 -1.82679 0
M  V30 3476 H 340.624 -1.44895 -0.647395 0
M  V30 3477 H 340.645 -1.81621 -3.34356 0
M  V30 3478 H 340.157 -3.2158 -2.17274 0
M  V30 3479 H 338.258 -1.16359 -3.53965 0
M  V30 3480 H 338.371 -3.04079 -3.70234 0
M  V30 3481 H 336.735 -1.54061 -2.02824 0
M  V30 3482 H 337.518 -3.1101 -1.45353 0
M  V30 3483 N 339.963 1.05934 -1.16686 0
M  V30 3484 C 341.21 1.788 -0.950622 0
M  V30 3485 C 341.538 1.87384 0.521305 0
M  V30 3486 O 340.793 1.36438 1.40297 0
M  V30 3487 C 341.092 3.23105 -1.52767 0
M  V30 3488 C 340.758 3.34594 -3.02254 0
M  V30 3489 C 339.42 3.37437 -3.43059 0
M  V30 3490 C 341.772 3.36219 -3.98254 0
M  V30 3491 C 339.1 3.39525 -4.78477 0
M  V30 3492 C 341.452 3.39845 -5.33562 0
M  V30 3493 C 340.116 3.40971 -5.73842 0
M  V30 3494 H 339.386 0.654275 -0.347857 0
M  V30 3495 H 342.033 1.24555 -1.45459 0
M  V30 3496 H 340.338 3.80227 -0.94524 0
M  V30 3497 H 342.035 3.7809 -1.336 0
M  V30 3498 H 338.625 3.3309 -2.6972 0
M  V30 3499 H 342.809 3.33231 -3.67792 0
M  V30 3500 H 338.065 3.38703 -5.09009 0
M  V30 3501 H 342.239 3.4005 -6.07733 0
M  V30 3502 H 339.866 3.42342 -6.78753 0
M  V30 3503 N 341.441 0.965919 1.2453 0
M  V30 3504 C 342.391 0.465731 2.23193 0
M  V30 3505 C 343.375 -0.451277 1.54442 0
M  V30 3506 O 344.567 -0.282489 1.74731 0
M  V30 3507 C 341.696 -0.244511 3.42428 0
M  V30 3508 C 340.782 0.691222 4.18429 0
M  V30 3509 N 341.173 1.82771 4.71623 0
M  V30 3510 C 339.471 0.501649 4.4317 0
M  V30 3511 C 340.172 2.41285 5.29298 0
M  V30 3512 N 339.148 1.69819 5.16394 0
M  V30 3513 H 342.95 1.33291 2.61937 0
M  V30 3514 H 340.464 0.824789 1.39896 0
M  V30 3515 H 342.461 -0.620056 4.12263 0
M  V30 3516 H 341.121 -1.10815 3.05205 0
M  V30 3517 H 342.132 2.20929 4.68413 0
M  V30 3518 H 338.809 -0.318177 4.16286 0
M  V30 3519 H 340.199 3.37181 5.8117 0
M  V30 3520 N 342.919 -1.39368 0.735821 0
M  V30 3521 C 343.869 -2.27885 0.0724287 0
M  V30 3522 C 344.853 -1.44301 -0.711756 0
M  V30 3523 O 346.045 -1.67206 -0.58063 0
M  V30 3524 C 343.174 -3.33029 -0.833454 0
M  V30 3525 C 342.26 -4.24078 -0.0433749 0
M  V30 3526 N 342.651 -4.96138 0.983903 0
M  V30 3527 C 340.949 -4.45164 -0.272905 0
M  V30 3528 C 341.65 -5.63069 1.4604 0
M  V30 3529 N 340.626 -5.37991 0.778857 0
M  V30 3530 H 344.428 -2.81052 0.859467 0
M  V30 3531 H 341.942 -1.5206 0.570227 0
M  V30 3532 H 343.939 -3.95311 -1.32419 0
M  V30 3533 H 342.599 -2.81421 -1.61964 0
M  V30 3534 H 343.61 -4.9958 1.36528 0
M  V30 3535 H 340.287 -4.04497 -1.03383 0
M  V30 3536 H 341.677 -6.30755 2.31511 0
M  V30 3537 N 344.397 -0.483516 -1.5 0
M  V30 3538 C 345.813 -0.138404 -1.58999 0
M  V30 3539 C 346.013 1.35597 -1.4905 0
M  V30 3540 O 345.069 2.13039 -1.35539 0
M  V30 3541 C 346.382 -0.699658 -2.92447 0
M  V30 3542 C 347.93 -0.664195 -3.05872 0
M  V30 3543 C 348.405 -1.20321 -4.41913 0
M  V30 3544 N 349.896 -1.16315 -4.48358 0
M  V30 3545 C 350.631 -1.55058 -5.52037 0
M  V30 3546 N 350.127 -2.01311 -6.62907 0
M  V30 3547 N 351.92 -1.46584 -5.42651 0
M  V30 3548 H 344.071 -1.45529 -1.5471 0
M  V30 3549 H 346.334 -0.60258 -0.731848 0
M  V30 3550 H 346.04 -1.747 -3.05242 0
M  V30 3551 H 345.914 -0.150194 -3.76901 0
M  V30 3552 H 348.301 0.374272 -2.92717 0
M  V30 3553 H 348.382 -1.25061 -2.23144 0
M  V30 3554 H 348.026 -2.24037 -4.55818 0
M  V30 3555 H 347.956 -0.592896 -5.23252 0
M  V30 3556 H 350.447 -0.824058 -3.68806 0
M  V30 3557 H 350.76 -2.2899 -7.38095 0
M  V30 3558 H 349.105 -2.05273 -6.63994 0
M  V30 3559 H 352.296 -1.10281 -4.54924 0
M  V30 3560 H 352.469 -1.77103 -6.23329 0
M  V30 3561 N 345.875 1.56104 -0.216619 0
M  V30 3562 C 346.785 2.23694 0.706982 0
M  V30 3563 C 347.801 1.24295 1.21765 0
M  V30 3564 O 348.977 1.57094 1.2603 0
M  V30 3565 C 346.042 2.8998 1.90033 0
M  V30 3566 C 345.103 4.04708 1.43213 0
M  V30 3567 C 344.336 4.67824 2.56859 0
M  V30 3568 O 344.559 4.29913 3.74874 0
M  V30 3569 O 343.493 5.56905 2.28343 0
M  V30 3570 H 347.319 3.03272 0.161235 0
M  V30 3571 H 344.904 1.49394 0.0136177 0
M  V30 3572 H 346.786 3.31837 2.59735 0
M  V30 3573 H 345.461 2.13365 2.43428 0
M  V30 3574 H 344.368 3.6743 0.70327 0
M  V30 3575 H 345.701 4.83051 0.944615 0
M  V30 3576 N 347.353 -0.0568162 1.57498 0
M  V30 3577 C 348.764 -0.606858 1.76562 0
M  V30 3578 C 349.115 -1.77114 0.844094 0
M  V30 3579 O 348.24 -2.16376 0.0318911 0
M  V30 3580 C 348.835 -1.10766 3.20182 0
M  V30 3581 C 347.394 -1.60344 3.40539 0
M  V30 3582 C 346.541 -0.529311 2.72201 0
M  V30 3583 H 349.492 0.169393 1.57793 0
M  V30 3584 H 349.513 -1.97602 3.25167 0
M  V30 3585 H 349.025 -0.26006 3.87228 0
M  V30 3586 H 347.126 -2.47379 2.78629 0
M  V30 3587 H 347.239 -1.67006 4.4905 0
M  V30 3588 H 345.603 -0.977893 2.35179 0
M  V30 3589 H 346.386 0.308352 3.41912 0
M  V30 3590 N 348.832 -1.54138 -0.328536 0
M  V30 3591 C 350.08 -1.71765 -1.06496 0
M  V30 3592 C 350.401 -0.49149 -1.88704 0
M  V30 3593 O 349.671 0.494539 -1.89555 0
M  V30 3594 H 348.251 -0.633295 -0.396164 0
M  V30 3595 H 350.913 -1.91429 -0.366176 0
M  V30 3596 H 350.009 -2.5951 -1.73381 0
M  V30 3597 N 350.31 0.590341 -1.46126 0
M  V30 3598 C 351.556 1.35082 -1.51264 0
M  V30 3599 C 351.889 1.93534 -0.160711 0
M  V30 3600 O 351.164 1.76045 0.826956 0
M  V30 3601 C 351.447 2.48588 -2.6053 0
M  V30 3602 C 351.3 1.95221 -4.05227 0
M  V30 3603 C 352.619 3.50662 -2.6594 0
M  V30 3604 H 349.738 0.489803 -0.550692 0
M  V30 3605 H 352.38 0.663887 -1.78024 0
M  V30 3606 H 350.53 3.07186 -2.37843 0
M  V30 3607 H 352.202 1.41139 -4.39178 0
M  V30 3608 H 350.445 1.26101 -4.15068 0
M  V30 3609 H 351.116 2.77121 -4.77397 0
M  V30 3610 H 353.592 3.01934 -2.86313 0
M  V30 3611 H 352.468 4.27551 -3.44226 0
M  V30 3612 H 352.729 4.07399 -1.71694 0
M  V30 3613 N 351.788 1.33704 0.83433 0
M  V30 3614 C 353.037 1.24763 1.58484 0
M  V30 3615 C 353.35 -0.183775 1.94735 0
M  V30 3616 O 354.556 -0.395234 2.68608 0
M  V30 3617 C 353.012 2.18638 2.85876 0
M  V30 3618 C 352.62 3.66974 2.56971 0
M  V30 3619 C 354.364 2.18581 3.63899 0
M  V30 3620 C 352.271 4.5275 3.80488 0
M  V30 3621 H 351.201 0.463425 0.594772 0
M  V30 3622 H 353.852 1.58797 0.919551 0
M  V30 3623 H 352.234 1.77542 3.5397 0
M  V30 3624 H 353.408 4.16538 1.9706 0
M  V30 3625 H 351.723 3.69366 1.92244 0
M  V30 3626 H 354.32 2.79894 4.55591 0
M  V30 3627 H 354.663 1.18207 3.99165 0
M  V30 3628 H 355.196 2.58062 3.02735 0
M  V30 3629 H 351.935 5.54017 3.5035 0
M  V30 3630 H 351.455 4.07927 4.39722 0
M  V30 3631 H 353.134 4.66784 4.4802 0
M  V30 3632 N 353.266 -1.05314 1.17247 0
M  V30 3633 C 354.514 -1.77941 0.958194 0
M  V30 3634 C 354.835 -1.88089 -0.514556 0
M  V30 3635 O 354.105 -1.39676 -1.37359 0
M  V30 3636 H 352.685 -0.659116 0.351533 0
M  V30 3637 H 355.347 -1.27166 1.47699 0
M  V30 3638 H 354.443 -2.79663 1.38546 0
M  V30 3639 N 354.744 -0.972509 -1.24016 0
M  V30 3640 C 355.972 -0.654803 -1.96265 0
M  V30 3641 C 356.387 0.776708 -1.72083 0
M  V30 3642 O 355.744 1.52171 -1.00748 0
M  V30 3643 C 355.795 -0.92592 -3.49441 0
M  V30 3644 O 355.516 -2.30116 -3.72798 0
M  V30 3645 C 357.017 -0.623068 -4.38899 0
M  V30 3646 H 354.237 -0.243907 -0.6251 0
M  V30 3647 H 356.781 -1.30175 -1.57717 0
M  V30 3648 H 354.936 -0.325108 -3.86033 0
M  V30 3649 H 355.35 -2.38483 -4.67147 0
M  V30 3650 H 356.824 -0.863189 -5.45209 0
M  V30 3651 H 357.301 0.442754 -4.36963 0
M  V30 3652 H 357.907 -1.204 -4.07902 0
M  V30 3653 N 356.222 1.38976 -0.743202 0
M  V30 3654 C 357.185 2.28901 -0.117014 0
M  V30 3655 C 358.185 1.46698 0.658503 0
M  V30 3656 O 359.375 1.67274 0.486305 0
M  V30 3657 C 356.507 3.30309 0.84315 0
M  V30 3658 H 357.7 2.8578 -0.909373 0
M  V30 3659 H 355.253 1.47761 -0.509547 0
M  V30 3660 H 355.988 2.785 1.66157 0
M  V30 3661 H 355.773 3.91029 0.289594 0
M  V30 3662 H 357.263 3.97577 1.2776 0
M  V30 3663 N 357.7 0.491464 1.49741 0
M  V30 3664 C 358.63 -0.28154 2.31796 0
M  V30 3665 C 359.611 -0.971473 1.3963 0
M  V30 3666 O 360.796 -0.964719 1.68543 0
M  V30 3667 C 357.926 -1.35203 3.19902 0
M  V30 3668 C 356.88 -0.782529 4.20786 0
M  V30 3669 C 356.206 -1.95283 4.97764 0
M  V30 3670 C 357.506 0.21999 5.21837 0
M  V30 3671 H 359.2 0.403355 2.96671 0
M  V30 3672 H 356.746 0.195425 1.42668 0
M  V30 3673 H 358.699 -1.90045 3.76113 0
M  V30 3674 H 357.423 -2.06598 2.52953 0
M  V30 3675 H 356.082 -0.255928 3.65706 0
M  V30 3676 H 355.73 -2.65423 4.2727 0
M  V30 3677 H 355.43 -1.57789 5.66018 0
M  V30 3678 H 356.954 -2.50577 5.56816 0
M  V30 3679 H 358.368 -0.23996 5.72798 0
M  V30 3680 H 356.765 0.51026 5.97927 0
M  V30 3681 H 357.835 1.13911 4.7133 0
M  V30 3682 N 359.178 -1.55987 0.224894 0
M  V30 3683 C 360.141 -2.19178 -0.670348 0
M  V30 3684 C 361.141 -1.15461 -1.11917 0
M  V30 3685 O 362.331 -1.40675 -1.02743 0
M  V30 3686 C 359.463 -2.81777 -1.9187 0
M  V30 3687 H 360.656 -2.99662 -0.119364 0
M  V30 3688 H 358.209 -1.5628 -0.0247128 0
M  V30 3689 H 358.944 -2.05172 -2.51147 0
M  V30 3690 H 358.729 -3.57732 -1.60531 0
M  V30 3691 H 360.219 -3.30205 -2.55645 0
M  V30 3692 N 360.656 0.0484629 -1.57525 0
M  V30 3693 C 361.606 1.06246 -2.01732 0
M  V30 3694 C 362.59 1.33155 -0.903245 0
M  V30 3695 O 363.782 1.33065 -1.16717 0
M  V30 3696 C 360.911 2.36943 -2.48421 0
M  V30 3697 C 359.997 2.13208 -3.6661 0
M  V30 3698 N 360.388 1.5947 -4.80003 0
M  V30 3699 C 358.686 2.43581 -3.7361 0
M  V30 3700 C 359.387 1.51092 -5.61735 0
M  V30 3701 N 358.363 1.9797 -5.0627 0
M  V30 3702 H 362.165 0.640675 -2.86832 0
M  V30 3703 H 359.679 0.255134 -1.60383 0
M  V30 3704 H 361.676 3.10374 -2.78341 0
M  V30 3705 H 360.336 2.79818 -1.64718 0
M  V30 3706 H 361.347 1.28008 -5.01831 0
M  V30 3707 H 358.024 2.89662 -3.00669 0
M  V30 3708 H 359.414 1.10199 -6.62801 0
M  V30 3709 N 362.134 1.5431 0.320358 0
M  V30 3710 C 363.411 1.63322 1.07635 0
M  V30 3711 C 363.791 0.46912 2.05821 0
M  V30 3712 O 363.139 -0.536274 2.22118 0
M  V30 3713 C 363.349 3.00465 1.77544 0
M  V30 3714 C 364.697 3.56621 2.30449 0
M  V30 3715 O 365.721 3.02791 1.87606 0
M  V30 3716 O 364.58 4.5083 3.08892 0
M  V30 3717 H 361.674 0.661502 0.496331 0
M  V30 3718 H 364.22 1.66656 0.319992 0
M  V30 3719 H 362.992 3.76629 1.06143 0
M  V30 3720 H 362.615 3.00824 2.59982 0
M  V30 3721 N 363.613 -0.582584 1.46437 0
M  V30 3722 C 364.861 -1.33814 1.51453 0
M  V30 3723 C 365.182 -1.94277 0.167792 0
M  V30 3724 O 364.452 -1.78566 -0.805677 0
M  V30 3725 H 363.032 -0.496838 0.557818 0
M  V30 3726 H 365.694 -0.682281 1.82568 0
M  V30 3727 H 364.79 -2.14479 2.26728 0
M  V30 3728 N 365.091 -1.34144 -0.827227 0
M  V30 3729 C 366.338 -1.26258 -1.58319 0
M  V30 3730 C 366.666 0.168595 -1.93768 0
M  V30 3731 O 365.921 1.12877 -1.59866 0
M  V30 3732 C 366.22 -2.09464 -2.89585 0
M  V30 3733 C 365.886 -3.58521 -2.73448 0
M  V30 3734 C 364.548 -3.99155 -2.68754 0
M  V30 3735 C 366.9 -4.53189 -2.57428 0
M  V30 3736 C 364.228 -5.32656 -2.45957 0
M  V30 3737 C 366.58 -5.86864 -2.36163 0
M  V30 3738 C 365.244 -6.26667 -2.29879 0
M  V30 3739 H 364.514 -0.462013 -0.579332 0
M  V30 3740 H 367.161 -1.65845 -0.95748 0
M  V30 3741 H 365.466 -1.62692 -3.56425 0
M  V30 3742 H 367.163 -2.00712 -3.47154 0
M  V30 3743 H 363.753 -3.26264 -2.77939 0
M  V30 3744 H 367.937 -4.22696 -2.60081 0
M  V30 3745 H 363.193 -5.62519 -2.39546 0
M  V30 3746 H 367.367 -6.59813 -2.22754 0
M  V30 3747 H 364.994 -7.30049 -2.11975 0
M  V30 3748 N 366.569 1.04691 -1.17803 0
M  V30 3749 C 367.815 1.78045 -0.970969 0
M  V30 3750 C 368.148 1.87686 0.498751 0
M  V30 3751 O 367.423 1.38035 1.37027 0
M  V30 3752 C 367.706 3.2166 -1.61884 0
M  V30 3753 C 367.559 3.20001 -3.161 0
M  V30 3754 C 368.878 4.1962 -1.3269 0
M  V30 3755 H 365.997 0.64633 -0.354155 0
M  V30 3756 H 368.639 1.22333 -1.45378 0
M  V30 3757 H 366.789 3.69232 -1.20831 0
M  V30 3758 H 368.461 2.80467 -3.66246 0
M  V30 3759 H 366.704 2.58203 -3.48588 0
M  V30 3760 H 367.375 4.21386 -3.56564 0
M  V30 3761 H 369.851 3.80567 -1.68249 0
M  V30 3762 H 368.727 5.18339 -1.80599 0
M  V30 3763 H 368.988 4.414 -0.248622 0
M  V30 3764 N 368.047 0.979072 1.23499 0
M  V30 3765 C 369.275 0.665202 1.95915 0
M  V30 3766 C 369.69 -0.767571 1.72493 0
M  V30 3767 O 369.047 -1.51635 1.01554 0
M  V30 3768 C 369.098 0.944438 3.48945 0
M  V30 3769 O 368.819 2.3209 3.71572 0
M  V30 3770 C 370.32 0.646336 4.38563 0
M  V30 3771 H 367.54 0.247218 0.623798 0
M  V30 3772 H 370.084 1.31009 1.57025 0
M  V30 3773 H 368.239 0.345575 3.85856 0
M  V30 3774 H 368.653 2.40957 4.65876 0
M  V30 3775 H 370.127 0.892091 5.44744 0
M  V30 3776 H 370.604 -0.419575 4.37191 0
M  V30 3777 H 371.21 1.22562 4.07258 0
M  V30 3778 N 369.525 -1.3858 0.750561 0
M  V30 3779 C 370.435 -2.34278 0.122825 0
M  V30 3780 C 371.451 -1.59116 -0.704131 0
M  V30 3781 O 372.627 -1.91326 -0.628987 0
M  V30 3782 C 369.692 -3.38221 -0.762086 0
M  V30 3783 C 368.753 -4.29227 0.078896 0
M  V30 3784 C 367.986 -5.28205 -0.763874 0
M  V30 3785 O 368.209 -5.34112 -2.00201 0
M  V30 3786 O 367.143 -6.01618 -0.18428 0
M  V30 3787 H 370.969 -2.89649 0.913088 0
M  V30 3788 H 368.554 -1.40374 0.511417 0
M  V30 3789 H 370.436 -4.01872 -1.26793 0
M  V30 3790 H 369.111 -2.85211 -1.5309 0
M  V30 3791 H 368.018 -3.68747 0.630621 0
M  V30 3792 H 369.351 -4.85484 0.810289 0
M  V30 3793 N 371.003 -0.499398 -1.49478 0
M  V30 3794 C 371.933 0.269244 -2.31943 0
M  V30 3795 C 372.914 0.964054 -1.40143 0
M  V30 3796 O 374.099 0.955767 -1.69052 0
M  V30 3797 C 371.229 1.33504 -3.20615 0
M  V30 3798 C 370.183 0.760202 -4.21195 0
M  V30 3799 C 369.509 1.9264 -4.98792 0
M  V30 3800 C 370.809 -0.247661 -5.21712 0
M  V30 3801 H 372.503 -0.419082 -2.96452 0
M  V30 3802 H 370.049 -0.202988 -1.42562 0
M  V30 3803 H 372.002 1.88048 -3.77115 0
M  V30 3804 H 370.726 2.05253 -2.54045 0
M  V30 3805 H 369.385 0.23653 -3.65836 0
M  V30 3806 H 369.033 2.63154 -4.28671 0
M  V30 3807 H 368.733 1.54785 -5.66847 0
M  V30 3808 H 370.257 2.4762 -5.58137 0
M  V30 3809 H 371.671 0.209579 -5.72917 0
M  V30 3810 H 370.068 -0.541962 -5.97648 0
M  V30 3811 H 371.138 -1.16409 -4.7072 0
M  V30 3812 N 372.481 1.55866 -0.233164 0
M  V30 3813 C 373.73 1.97779 0.39579 0
M  V30 3814 C 374.043 1.12419 1.60066 0
M  V30 3815 O 375.249 1.44283 2.29988 0
M  V30 3816 C 373.705 3.5188 0.755556 0
M  V30 3817 C 373.313 4.45959 -0.427152 0
M  V30 3818 C 375.057 4.02479 1.34946 0
M  V30 3819 C 372.964 5.91383 -0.0443043 0
M  V30 3820 H 371.894 0.738592 0.15165 0
M  V30 3821 H 374.545 1.80486 -0.331212 0
M  V30 3822 H 372.927 3.64816 1.5403 0
M  V30 3823 H 374.101 4.44776 -1.20462 0
M  V30 3824 H 372.416 4.05765 -0.935068 0
M  V30 3825 H 375.013 5.08637 1.649 0
M  V30 3826 H 375.356 3.49014 2.26925 0
M  V30 3827 H 375.889 3.92813 0.62791 0
M  V30 3828 H 372.628 6.48857 -0.930874 0
M  V30 3829 H 372.148 5.95734 0.697238 0
M  V30 3830 H 373.827 6.45893 0.378334 0
M  V30 3831 N 373.959 -0.0401083 1.57549 0
M  V30 3832 C 374.922 -1.02871 2.04817 0
M  V30 3833 C 375.922 -1.29708 0.950388 0
M  V30 3834 O 377.112 -1.24897 1.21435 0
M  V30 3835 C 374.244 -2.36443 2.45576 0
M  V30 3836 H 375.437 -0.620631 2.93408 0
M  V30 3837 H 372.99 -0.286667 1.53649 0
M  V30 3838 H 373.725 -2.82021 1.60108 0
M  V30 3839 H 373.51 -2.18296 3.25713 0
M  V30 3840 H 375 -3.07441 2.82612 0
M  V30 3841 N 375.437 -1.54477 -0.31217 0
M  V30 3842 C 376.714 -1.63891 -1.06767 0
M  V30 3843 C 377.094 -0.480028 -2.0557 0
M  V30 3844 O 376.442 0.524487 -2.22399 0
M  V30 3845 C 376.652 -3.01402 -1.75948 0
M  V30 3846 C 378 -3.57838 -2.28554 0
M  V30 3847 O 379.024 -3.03782 -1.85998 0
M  V30 3848 O 377.883 -4.52462 -3.06497 0
M  V30 3849 H 374.977 -0.664125 -0.492816 0
M  V30 3850 H 377.523 -1.66823 -0.311149 0
M  V30 3851 H 376.295 -3.77187 -1.04144 0
M  V30 3852 H 375.918 -3.02199 -2.58383 0
M  V30 3853 N 376.915 0.57481 -1.46744 0
M  V30 3854 C 378.163 1.33009 -1.52161 0
M  V30 3855 C 378.484 1.94185 -0.178092 0
M  V30 3856 O 377.754 1.7899 0.796196 0
M  V30 3857 H 376.334 0.493873 -0.560445 0
M  V30 3858 H 378.996 0.672589 -1.82927 0
M  V30 3859 H 378.092 2.13273 -2.27862 0
M  V30 3860 N 378.394 1.34581 0.820102 0
M  V30 3861 C 379.643 1.26437 1.57151 0
M  V30 3862 C 379.956 -0.163111 1.94919 0
M  V30 3863 O 381.162 -0.366722 2.69012 0
M  V30 3864 C 379.618 2.21658 2.83541 0
M  V30 3865 C 379.226 3.69679 2.53065 0
M  V30 3866 C 380.97 2.22428 3.61561 0
M  V30 3867 C 378.877 4.56761 3.75664 0
M  V30 3868 H 377.807 0.469707 0.589823 0
M  V30 3869 H 380.458 1.59763 0.902656 0
M  V30 3870 H 378.84 1.81287 3.52067 0
M  V30 3871 H 380.014 4.18605 1.92631 0
M  V30 3872 H 378.329 3.71384 1.88316 0
M  V30 3873 H 380.926 2.8471 4.52597 0
M  V30 3874 H 381.269 1.22434 3.97889 0
M  V30 3875 H 381.802 2.61259 2.99981 0
M  V30 3876 H 378.541 5.57702 3.44454 0
M  V30 3877 H 378.061 4.12568 4.35371 0
M  V30 3878 H 379.74 4.71509 4.43044 0
M  V30 3879 N 379.872 -1.04064 1.18357 0
M  V30 3880 C 380.822 -2.10393 0.878561 0
M  V30 3881 C 381.806 -1.60183 -0.151713 0
M  V30 3882 O 382.998 -1.76923 0.0523303 0
M  V30 3883 C 380.127 -3.4089 0.406096 0
M  V30 3884 C 379.213 -3.97866 1.46844 0
M  V30 3885 N 379.604 -4.28657 2.68489 0
M  V30 3886 C 377.902 -4.2574 1.32896 0
M  V30 3887 C 378.603 -4.74253 3.36836 0
M  V30 3888 N 377.579 -4.75068 2.64219 0
M  V30 3889 H 381.381 -2.32076 1.80327 0
M  V30 3890 H 378.895 -1.21818 1.07397 0
M  V30 3891 H 380.892 -4.16557 0.169088 0
M  V30 3892 H 379.552 -3.20633 -0.512275 0
M  V30 3893 H 380.563 -4.18304 3.05356 0
M  V30 3894 H 377.24 -4.1481 0.473134 0
M  V30 3895 H 378.63 -5.07096 4.40798 0
M  V30 3896 N 381.35 -0.985608 -1.22978 0
M  V30 3897 C 382.575 -0.675254 -1.961 0
M  V30 3898 C 383 0.752154 -1.72407 0
M  V30 3899 O 382.358 1.5131 -0.998751 0
M  V30 3900 C 382.406 -0.977899 -3.47087 0
M  V30 3901 O 381.51 -0.072685 -4.12336 0
M  V30 3902 H 380.851 -0.253443 -0.613728 0
M  V30 3903 H 383.381 -1.32061 -1.56272 0
M  V30 3904 H 383.391 -0.916739 -3.97567 0
M  V30 3905 H 382.066 -2.01807 -3.63657 0
M  V30 3906 H 380.643 -0.188703 -3.72422 0
M  V30 3907 N 382.828 1.3818 -0.7579 0
M  V30 3908 C 383.778 2.27741 -0.108674 0
M  V30 3909 C 384.762 1.45415 0.688709 0
M  V30 3910 O 385.954 1.68108 0.553956 0
M  V30 3911 C 383.083 3.34313 0.780367 0
M  V30 3912 C 382.169 4.24093 -0.0240977 0
M  V30 3913 N 382.56 4.9451 -1.06271 0
M  V30 3914 C 380.858 4.45542 0.202049 0
M  V30 3915 C 381.559 5.60675 -1.54979 0
M  V30 3916 N 380.535 5.36684 -0.864348 0
M  V30 3917 H 384.337 2.79649 -0.904071 0
M  V30 3918 H 381.851 1.51133 -0.594346 0
M  V30 3919 H 383.848 3.97368 1.26114 0
M  V30 3920 H 382.508 2.83962 1.57467 0
M  V30 3921 H 383.519 4.97345 -1.44459 0
M  V30 3922 H 380.196 4.06091 0.96935 0
M  V30 3923 H 381.586 6.26992 -2.41517 0
M  V30 3924 N 384.306 0.507319 1.49211 0
M  V30 3925 C 385.717 0.0611118 1.866 0
M  V30 3926 C 386.068 -1.35488 1.41907 0
M  V30 3927 O 385.193 -2.0108 0.799726 0
M  V30 3928 C 385.788 0.104125 3.3864 0
M  V30 3929 C 384.347 -0.28677 3.75306 0
M  V30 3930 C 383.494 0.473893 2.73221 0
M  V30 3931 H 386.445 0.719775 1.41439 0
M  V30 3932 H 386.466 -0.689672 3.74198 0
M  V30 3933 H 385.978 1.13482 3.71138 0
M  V30 3934 H 384.079 -1.32046 3.48417 0
M  V30 3935 H 384.192 0.0370745 4.79086 0
M  V30 3936 H 382.556 -0.0770644 2.54583 0
M  V30 3937 H 383.339 1.50478 3.08563 0
M  V30 3938 N 385.784 -1.5574 0.241426 0
M  V30 3939 C 386.714 -2.24133 -0.654722 0
M  V30 3940 C 387.695 -1.21974 -1.1856 0
M  V30 3941 O 388.88 -1.50612 -1.22595 0
M  V30 3942 C 386.01 -2.93659 -1.85423 0
M  V30 3943 C 384.964 -4.0246 -1.45636 0
M  V30 3944 C 384.29 -4.59383 -2.73626 0
M  V30 3945 C 385.59 -5.18468 -0.631506 0
M  V30 3946 H 387.284 -2.99281 -0.0844353 0
M  V30 3947 H 384.83 -1.43947 -0.0391707 0
M  V30 3948 H 386.783 -3.40203 -2.48676 0
M  V30 3949 H 385.507 -2.15991 -2.44981 0
M  V30 3950 H 384.166 -3.56676 -0.847202 0
M  V30 3951 H 383.814 -3.78422 -3.3137 0
M  V30 3952 H 383.514 -5.32826 -2.4773 0
M  V30 3953 H 385.038 -5.08658 -3.37786 0
M  V30 3954 H 386.452 -5.61272 -1.1682 0
M  V30 3955 H 384.849 -5.98266 -0.468831 0
M  V30 3956 H 385.919 -4.8358 0.357506 0
M  V30 3957 N 387.262 0.0317525 -1.57568 0
M  V30 3958 C 388.225 1.01783 -2.0536 0
M  V30 3959 C 389.225 1.29203 -0.957253 0
M  V30 3960 O 390.415 1.24251 -1.22095 0
M  V30 3961 C 387.547 2.35137 -2.46827 0
M  V30 3962 H 388.74 0.605062 -2.93733 0
M  V30 3963 H 386.293 0.278514 -1.53799 0
M  V30 3964 H 387.028 2.81168 -1.61602 0
M  V30 3965 H 386.813 2.16566 -3.26866 0
M  V30 3966 H 388.303 3.05938 -2.84239 0
M  V30 3967 N 388.74 1.54641 0.303973 0
M  V30 3968 C 389.703 1.84646 1.35789 0
M  V30 3969 C 390.703 0.7192 1.4382 0
M  V30 3970 O 391.893 0.987491 1.43507 0
M  V30 3971 C 389.025 2.02407 2.74307 0
M  V30 3972 H 390.218 2.78829 1.10429 0
M  V30 3973 H 387.771 1.46658 0.540487 0
M  V30 3974 H 388.506 1.10502 3.04893 0
M  V30 3975 H 388.291 2.84453 2.69868 0
M  V30 3976 H 389.781 2.27002 3.50514 0
M  V30 3977 N 390.218 -0.567019 1.47046 0
M  V30 3978 C 391.165 -1.67489 1.58796 0
M  V30 3979 C 392.135 -1.60399 0.43144 0
M  V30 3980 O 393.32 -1.79378 0.650233 0
M  V30 3981 C 390.46 -3.05821 1.59899 0
M  V30 3982 C 389.573 -3.2342 2.86397 0
M  V30 3983 C 388.708 -4.52093 2.789 0
M  V30 3984 C 387.747 -4.6309 4.00267 0
M  V30 3985 N 386.884 -5.83106 3.91064 0
M  V30 3986 H 391.724 -1.56785 2.53422 0
M  V30 3987 H 389.261 -0.763896 1.2571 0
M  V30 3988 H 391.219 -3.8591 1.58522 0
M  V30 3989 H 389.849 -3.15384 0.687929 0
M  V30 3990 H 388.901 -2.3683 2.97684 0
M  V30 3991 H 390.213 -3.27412 3.76301 0
M  V30 3992 H 389.367 -5.4043 2.75718 0
M  V30 3993 H 388.106 -4.50565 1.86662 0
M  V30 3994 H 387.111 -3.73168 4.03765 0
M  V30 3995 H 388.336 -4.66386 4.93621 0
M  V30 3996 H 386.282 -5.82546 3.01623 0
M  V30 3997 H 386.199 -5.88434 4.74638 0
M  V30 3998 H 387.467 -6.73831 3.91882 0
M  V30 3999 N 391.696 -1.35014 -0.812953 0
M  V30 4000 C 392.626 -1.30069 -1.93919 0
M  V30 4001 C 393.607 -0.176275 -1.69184 0
M  V30 4002 O 394.792 -0.370227 -1.90638 0
M  V30 4003 C 391.922 -1.06547 -3.30552 0
M  V30 4004 C 390.876 -2.15561 -3.69753 0
M  V30 4005 C 390.202 -1.77214 -5.04479 0
M  V30 4006 C 391.502 -3.57476 -3.808 0
M  V30 4007 H 393.196 -2.24303 -1.98314 0
M  V30 4008 H 390.742 -1.07977 -0.952736 0
M  V30 4009 H 392.695 -1.01729 -4.08937 0
M  V30 4010 H 391.419 -0.0875719 -3.26483 0
M  V30 4011 H 390.078 -2.19466 -2.9365 0
M  V30 4012 H 389.726 -0.780589 -4.96906 0
M  V30 4013 H 389.426 -2.50184 -5.31678 0
M  V30 4014 H 390.95 -1.7391 -5.8531 0
M  V30 4015 H 392.364 -3.55929 -4.4943 0
M  V30 4016 H 390.761 -4.29152 -4.19462 0
M  V30 4017 H 391.831 -3.94091 -2.82525 0
M  V30 4018 N 393.175 1.03435 -1.18907 0
M  V30 4019 C 394.138 2.09756 -0.923844 0
M  V30 4020 C 395.138 1.60528 0.093416 0
M  V30 4021 O 396.328 1.73631 -0.140727 0
M  V30 4022 C 393.46 3.38692 -0.387354 0
M  V30 4023 H 394.653 2.34719 -1.86674 0
M  V30 4024 H 392.206 1.19959 -1.00197 0
M  V30 4025 H 392.941 3.19396 0.561845 0
M  V30 4026 H 392.726 3.75742 -1.12074 0
M  V30 4027 H 394.216 4.17016 -0.220694 0
M  V30 4028 N 394.653 0.992116 1.22453 0
M  V30 4029 C 395.9 0.667534 1.91181 0
M  V30 4030 C 396.228 -0.800317 1.77271 0
M  V30 4031 O 395.483 -1.59421 1.13505 0
M  V30 4032 C 395.782 1.01832 3.42586 0
M  V30 4033 C 395.448 2.47831 3.76684 0
M  V30 4034 C 394.11 2.87729 3.85701 0
M  V30 4035 C 396.462 3.42466 3.92895 0
M  V30 4036 C 393.79 4.21252 4.08367 0
M  V30 4037 C 396.142 4.75648 4.17064 0
M  V30 4038 C 394.806 5.15288 4.24305 0
M  V30 4039 H 394.076 0.244268 0.699581 0
M  V30 4040 H 396.723 1.24816 1.45235 0
M  V30 4041 H 395.028 0.355769 3.90181 0
M  V30 4042 H 396.725 0.745228 3.94014 0
M  V30 4043 H 393.315 2.15905 3.70247 0
M  V30 4044 H 397.499 3.12814 3.85307 0
M  V30 4045 H 392.755 4.51554 4.122 0
M  V30 4046 H 396.929 5.48924 4.2855 0
M  V30 4047 H 394.556 6.18769 4.41621 0
M  V30 4048 N 396.131 -1.37776 0.765217 0
M  V30 4049 C 397.061 -2.32945 0.160953 0
M  V30 4050 C 398.042 -1.55454 -0.690516 0
M  V30 4051 O 399.227 -1.83721 -0.629318 0
M  V30 4052 C 396.357 -3.39669 -0.724031 0
M  V30 4053 C 395.311 -4.27992 0.0256173 0
M  V30 4054 C 394.637 -5.25673 -0.978383 0
M  V30 4055 C 395.937 -5.08309 1.20082 0
M  V30 4056 H 397.631 -2.83728 0.955969 0
M  V30 4057 H 395.177 -1.36416 0.461149 0
M  V30 4058 H 397.13 -4.05219 -1.15652 0
M  V30 4059 H 395.854 -2.87396 -1.5515 0
M  V30 4060 H 394.513 -3.63964 0.438812 0
M  V30 4061 H 394.161 -4.69682 -1.80022 0
M  V30 4062 H 393.861 -5.85625 -0.481378 0
M  V30 4063 H 395.385 -5.94098 -1.40995 0
M  V30 4064 H 396.799 -5.67034 0.845307 0
M  V30 4065 H 395.196 -5.77554 1.62947 0
M  V30 4066 H 396.266 -4.41365 2.00811 0
M  V30 4067 N 397.609 -0.515225 -1.4894 0
M  V30 4068 C 398.572 0.244681 -2.2789 0
M  V30 4069 C 399.572 0.881166 -1.34507 0
M  V30 4070 O 400.762 0.743497 -1.57537 0
M  V30 4071 C 397.894 1.35247 -3.12923 0
M  V30 4072 H 399.087 -0.448289 -2.96531 0
M  V30 4073 H 396.64 -0.270656 -1.53939 0
M  V30 4074 H 397.375 2.07916 -2.48881 0
M  V30 4075 H 397.16 0.901374 -3.81599 0
M  V30 4076 H 398.65 1.88737 -3.72516 0
M  V30 4077 N 399.087 1.5561 -0.249682 0
M  V30 4078 C 400.034 2.21496 0.648694 0
M  V30 4079 C 401.004 1.17977 1.16921 0
M  V30 4080 O 402.189 1.46434 1.22318 0
M  V30 4081 C 399.329 2.92039 1.83868 0
M  V30 4082 C 398.442 4.10219 1.35442 0
M  V30 4083 C 397.577 4.6847 2.50419 0
M  V30 4084 C 396.616 5.78893 1.98869 0
M  V30 4085 N 395.753 6.31315 3.07223 0
M  V30 4086 H 400.593 2.97892 0.0801582 0
M  V30 4087 H 398.13 1.47074 0.0278031 0
M  V30 4088 H 400.088 3.31138 2.53778 0
M  V30 4089 H 398.718 2.18111 2.37965 0
M  V30 4090 H 397.77 3.76413 0.54928 0
M  V30 4091 H 399.082 4.89927 0.936649 0
M  V30 4092 H 398.236 5.10158 3.28366 0
M  V30 4093 H 396.975 3.87984 2.95499 0
M  V30 4094 H 395.98 5.3668 1.19393 0
M  V30 4095 H 397.205 6.61232 1.54755 0
M  V30 4096 H 395.151 5.53733 3.51732 0
M  V30 4097 H 395.068 7.06224 2.69784 0
M  V30 4098 H 396.336 6.77662 3.8522 0
M  V30 4099 N 400.565 -0.0233959 1.57583 0
M  V30 4100 C 401.813 -0.711654 1.89156 0
M  V30 4101 C 402.134 -1.75591 0.848096 0
M  V30 4102 O 401.404 -1.95547 -0.117566 0
M  V30 4103 H 399.984 -0.265835 0.698098 0
M  V30 4104 H 402.646 0.0119948 1.94896 0
M  V30 4105 H 401.742 -1.19766 2.88206 0
M  V30 4106 N 402.043 -1.548 -0.295768 0
M  V30 4107 C 403.268 -1.78653 -1.05346 0
M  V30 4108 C 403.693 -0.546894 -1.79974 0
M  V30 4109 O 403.051 0.502763 -1.7419 0
M  V30 4110 C 403.099 -2.99679 -2.00561 0
M  V30 4111 O 402.203 -2.7317 -3.08953 0
M  V30 4112 H 401.544 -0.59116 -0.302367 0
M  V30 4113 H 404.074 -2.01895 -0.331598 0
M  V30 4114 H 404.084 -3.27793 -2.42932 0
M  V30 4115 H 402.759 -3.89562 -1.4565 0
M  V30 4116 H 401.336 -2.56089 -2.71059 0
M  V30 4117 N 403.521 0.559213 -1.47345 0
M  V30 4118 C 404.746 1.34676 -1.57725 0
M  V30 4119 C 405.171 1.86723 -0.227164 0
M  V30 4120 O 404.529 1.6286 0.796642 0
M  V30 4121 C 404.577 2.49399 -2.60447 0
M  V30 4122 O 403.681 3.51567 -2.15578 0
M  V30 4123 H 403.022 0.400115 -0.52991 0
M  V30 4124 H 405.552 0.676009 -1.93109 0
M  V30 4125 H 405.562 2.95996 -2.80803 0
M  V30 4126 H 404.237 2.10873 -3.58477 0
M  V30 4127 H 402.814 3.11289 -2.05313 0
M  V30 4128 N 404.999 1.35443 0.805782 0
M  V30 4129 C 405.946 1.28431 1.91766 0
M  V30 4130 C 406.916 0.156102 1.65365 0
M  V30 4131 O 408.101 0.339936 1.87747 0
M  V30 4132 C 405.241 1.06301 3.2832 0
M  V30 4133 C 404.354 2.2805 3.66902 0
M  V30 4134 C 403.489 1.99064 4.92491 0
M  V30 4135 C 402.528 3.16863 5.23703 0
M  V30 4136 N 401.665 2.87647 6.40471 0
M  V30 4137 H 406.505 2.23511 1.97096 0
M  V30 4138 H 404.042 1.11105 0.964054 0
M  V30 4139 H 406 0.915012 4.07042 0
M  V30 4140 H 404.63 0.148822 3.22457 0
M  V30 4141 H 403.682 2.53711 2.83434 0
M  V30 4142 H 404.994 3.1601 3.85927 0
M  V30 4143 H 404.148 1.81099 5.7904 0
M  V30 4144 H 402.887 1.0839 4.75503 0
M  V30 4145 H 401.892 3.35404 4.35642 0
M  V30 4146 H 403.117 4.08339 5.4262 0
M  V30 4147 H 401.063 1.99568 6.24907 0
M  V30 4148 H 400.98 3.69141 6.59751 0
M  V30 4149 H 402.248 2.73226 7.30047 0
M  V30 4150 N 406.477 -1.02803 1.19454 0
M  V30 4151 C 407.407 -2.12999 0.956758 0
M  V30 4152 C 408.388 -1.69743 -0.110188 0
M  V30 4153 O 409.573 -1.94148 0.0450038 0
M  V30 4154 C 406.703 -3.43746 0.495553 0
M  V30 4155 C 405.657 -4.00688 1.50443 0
M  V30 4156 C 404.983 -5.27067 0.900275 0
M  V30 4157 C 406.283 -4.35397 2.8849 0
M  V30 4158 H 407.977 -2.33148 1.87836 0
M  V30 4159 H 405.523 -1.12045 0.904539 0
M  V30 4160 H 407.476 -4.2021 0.316493 0
M  V30 4161 H 406.2 -3.23321 -0.461646 0
M  V30 4162 H 404.859 -3.2632 1.67065 0
M  V30 4163 H 404.507 -5.02959 -0.064503 0
M  V30 4164 H 404.207 -5.66127 1.57397 0
M  V30 4165 H 405.731 -6.06196 0.73203 0
M  V30 4166 H 407.145 -5.02795 2.75446 0
M  V30 4167 H 405.542 -4.85541 3.52661 0
M  V30 4168 H 406.612 -3.44662 3.41081 0
M  V30 4169 N 407.956 -0.998596 -1.21925 0
M  V30 4170 C 409.205 -0.673085 -1.90138 0
M  V30 4171 C 409.518 0.79895 -1.78539 0
M  V30 4172 O 410.724 1.23628 -2.4172 0
M  V30 4173 C 409.18 -1.15339 -3.40918 0
M  V30 4174 C 408.788 -2.65106 -3.61141 0
M  V30 4175 C 410.532 -0.902476 -4.14796 0
M  V30 4176 C 408.439 -3.0671 -5.05651 0
M  V30 4177 H 407.369 -0.248057 -0.712028 0
M  V30 4178 H 410.02 -1.20891 -1.38049 0
M  V30 4179 H 408.402 -0.545658 -3.92223 0
M  V30 4180 H 409.576 -3.31274 -3.20304 0
M  V30 4181 H 407.891 -2.88142 -3.00605 0
M  V30 4182 H 410.488 -1.18895 -5.21314 0
M  V30 4183 H 410.831 0.161349 -4.15987 0
M  V30 4184 H 411.364 -1.47269 -3.69536 0
M  V30 4185 H 408.103 -4.12292 -5.09603 0
M  V30 4186 H 407.623 -2.45249 -5.47369 0
M  V30 4187 H 409.302 -2.9833 -5.74115 0
M  V30 4188 N 409.434 1.37368 -0.772513 0
M  V30 4189 C 410.364 2.32856 -0.173304 0
M  V30 4190 C 411.345 1.55818 0.682262 0
M  V30 4191 O 412.53 1.84052 0.619566 0
M  V30 4192 C 409.66 3.40048 0.706007 0
M  V30 4193 C 408.614 4.27973 -0.0483144 0
M  V30 4194 C 407.94 5.26184 0.950491 0
M  V30 4195 C 409.24 5.07665 -1.22776 0
M  V30 4196 H 410.934 2.83217 -0.971002 0
M  V30 4197 H 408.48 1.3617 -0.468377 0
M  V30 4198 H 410.433 4.05827 1.13501 0
M  V30 4199 H 409.157 2.88214 1.53623 0
M  V30 4200 H 407.816 3.63726 -0.458107 0
M  V30 4201 H 407.464 4.7063 1.77529 0
M  V30 4202 H 407.164 5.85872 0.450314 0
M  V30 4203 H 408.688 5.94838 1.37842 0
M  V30 4204 H 410.102 5.66578 -0.875366 0
M  V30 4205 H 408.499 5.76681 -1.66007 0
M  V30 4206 H 409.569 4.40294 -2.03149 0
M  V30 4207 N 410.912 0.523116 1.48665 0
M  V30 4208 C 412.161 -0.01544 2.01694 0
M  V30 4209 C 412.474 -1.35975 1.40606 0
M  V30 4210 O 413.68 -1.98627 1.85093 0
M  V30 4211 C 412.136 -0.0779303 3.59816 0
M  V30 4212 C 411.744 1.26107 4.29885 0
M  V30 4213 C 413.488 -0.565678 4.20714 0
M  V30 4214 C 411.395 1.15954 5.79921 0
M  V30 4215 H 410.325 -0.00954163 0.75394 0
M  V30 4216 H 412.976 0.665865 1.70993 0
M  V30 4217 H 411.358 -0.824165 3.87329 0
M  V30 4218 H 412.532 2.02233 4.14051 0
M  V30 4219 H 410.847 1.68401 3.80828 0
M  V30 4220 H 413.444 -0.6595 5.30617 0
M  V30 4221 H 413.787 -1.56984 3.85567 0
M  V30 4222 H 414.32 0.12467 3.97605 0
M  V30 4223 H 411.059 2.13864 6.19631 0
M  V30 4224 H 410.579 0.439529 5.98187 0
M  V30 4225 H 412.258 0.847361 6.41427 0
M  V30 4226 N 412.39 -1.55475 0.257931 0
M  V30 4227 C 413.618 -2.03609 -0.367559 0
M  V30 4228 C 414.033 -1.13687 -1.50734 0
M  V30 4229 O 413.39 -0.153479 -1.81853 0
M  V30 4230 C 413.441 -3.51001 -0.864908 0
M  V30 4231 O 413.162 -4.37499 0.229465 0
M  V30 4232 C 414.663 -4.14946 -1.55997 0
M  V30 4233 H 411.883 -0.665459 -0.0860521 0
M  V30 4234 H 414.427 -2.00843 0.385014 0
M  V30 4235 H 412.582 -3.54266 -1.56762 0
M  V30 4236 H 412.996 -5.24286 -0.14998 0
M  V30 4237 H 414.47 -5.19735 -1.85956 0
M  V30 4238 H 414.947 -3.6209 -2.4857 0
M  V30 4239 H 415.553 -4.15635 -0.901543 0
M  V30 4240 N 413.868 0.0150385 -1.57593 0
M  V30 4241 C 415.145 0.7392 -1.81094 0
M  V30 4242 C 415.525 1.92817 -0.859344 0
M  V30 4243 O 414.873 2.28301 0.095362 0
M  V30 4244 C 415.083 1.15907 -3.29191 0
M  V30 4245 C 416.431 1.56918 -3.9454 0
M  V30 4246 O 417.455 1.25328 -3.33424 0
M  V30 4247 O 416.314 2.15604 -5.02173 0
M  V30 4248 H 413.408 0.358631 -0.745193 0
M  V30 4249 H 415.954 -0.00926156 -1.69697 0
M  V30 4250 H 414.726 0.310921 -3.90063 0
M  V30 4251 H 414.349 1.96711 -3.45529 0
M  V30 4252 N 415.346 1.54954 0.287554 0
M  V30 4253 C 416.571 1.79209 1.04397 0
M  V30 4254 C 416.996 0.556431 1.79682 0
M  V30 4255 O 416.354 -0.493518 1.74454 0
M  V30 4256 C 416.402 3.00739 1.98969 0
M  V30 4257 O 415.506 2.74805 3.075 0
M  V30 4258 H 414.847 0.592755 0.299227 0
M  V30 4259 H 417.377 2.02068 0.320886 0
M  V30 4260 H 417.387 3.29077 2.4119 0
M  V30 4261 H 416.062 3.90329 1.43582 0
M  V30 4262 H 414.639 2.57523 2.69697 0
M  V30 4263 N 416.824 -0.551391 1.4764 0
M  V30 4264 C 417.757 -1.6738 1.5511 0
M  V30 4265 C 418.735 -1.5753 0.402856 0
M  V30 4266 O 419.919 -1.78307 0.611475 0
M  V30 4267 C 417.046 -3.05661 1.45908 0
M  V30 4268 C 416.092 -3.33938 2.65307 0
M  V30 4269 S 416.925 -3.22553 4.27457 0
M  V30 4270 C 418.081 -4.63317 4.20818 0
M  V30 4271 H 418.314 -1.6079 2.50068 0
M  V30 4272 H 415.847 -0.732674 1.35909 0
M  V30 4273 H 417.805 -3.8542 1.41286 0
M  V30 4274 H 416.466 -3.09711 0.523248 0
M  V30 4275 H 415.659 -4.34761 2.54948 0
M  V30 4276 H 415.261 -2.61809 2.67081 0
M  V30 4277 H 417.553 -5.54391 3.89431 0
M  V30 4278 H 418.496 -4.78732 5.21748 0
M  V30 4279 H 418.904 -4.41636 3.51593 0
M  V30 4280 N 418.302 -1.35869 -0.798587 0
M  V30 4281 C 419.718 -1.16082 -1.09532 0
M  V30 4282 C 419.918 0.0213124 -2.01489 0
M  V30 4283 O 418.974 0.689488 -2.42904 0
M  V30 4284 C 420.287 -2.46748 -1.7186 0
M  V30 4285 C 421.835 -2.53028 -1.84244 0
M  V30 4286 C 422.31 -3.83758 -2.49988 0
M  V30 4287 N 423.801 -3.85053 -2.57465 0
M  V30 4288 C 424.536 -4.8294 -3.09122 0
M  V30 4289 N 424.032 -5.91217 -3.61157 0
M  V30 4290 N 425.825 -4.70369 -3.0775 0
M  V30 4291 H 417.976 -2.11571 -0.187461 0
M  V30 4292 H 420.239 -0.936726 -0.145765 0
M  V30 4293 H 419.945 -3.33471 -1.11759 0
M  V30 4294 H 419.819 -2.61883 -2.71472 0
M  V30 4295 H 422.206 -1.66729 -2.43486 0
M  V30 4296 H 422.287 -2.418 -0.834643 0
M  V30 4297 H 421.931 -4.70459 -1.91393 0
M  V30 4298 H 421.861 -3.92278 -3.5132 0
M  V30 4299 H 424.352 -3.06822 -2.20609 0
M  V30 4300 H 424.665 -6.61892 -3.98896 0
M  V30 4301 H 423.01 -5.94899 -3.59333 0
M  V30 4302 H 426.201 -3.84914 -2.66381 0
M  V30 4303 H 426.374 -5.46816 -3.47701 0
M  V30 4304 N 419.78 1.02168 -1.19998 0
M  V30 4305 C 420.743 2.08765 -0.94604 0
M  V30 4306 C 421.743 1.60618 0.0763846 0
M  V30 4307 O 422.933 1.73472 -0.159135 0
M  V30 4308 C 420.065 3.38262 -0.423255 0
M  V30 4309 H 421.258 2.32726 -1.89153 0
M  V30 4310 H 418.811 1.1889 -1.01464 0
M  V30 4311 H 419.546 3.19974 0.527938 0
M  V30 4312 H 419.331 3.74532 -1.16053 0
M  V30 4313 H 420.821 4.16759 -0.264911 0
M  V30 4314 N 421.258 1.00505 1.21394 0
M  V30 4315 C 422.205 0.565496 2.23765 0
M  V30 4316 C 423.175 -0.408466 1.60999 0
M  V30 4317 O 424.36 -0.310503 1.88257 0
M  V30 4318 C 421.5 -0.101667 3.4495 0
M  V30 4319 C 420.613 0.915479 4.22188 0
M  V30 4320 C 419.748 0.220574 5.30742 0
M  V30 4321 C 418.787 1.22527 5.99711 0
M  V30 4322 N 417.924 0.557831 6.9988 0
M  V30 4323 H 422.764 1.44314 2.60725 0
M  V30 4324 H 420.301 0.722643 1.28126 0
M  V30 4325 H 422.259 -0.505504 4.14126 0
M  V30 4326 H 420.889 -0.94303 3.08718 0
M  V30 4327 H 419.941 1.43756 3.52191 0
M  V30 4328 H 421.253 1.68005 4.69655 0
M  V30 4329 H 420.407 -0.239368 6.06228 0
M  V30 4330 H 419.146 -0.576401 4.84282 0
M  V30 4331 H 418.151 1.69571 5.22997 0
M  V30 4332 H 419.376 2.02332 6.48258 0
M  V30 4333 H 417.322 -0.219486 6.55633 0
M  V30 4334 H 417.239 1.26065 7.45415 0
M  V30 4335 H 418.507 0.121095 7.79406 0
M  V30 4336 N 422.737 -1.36956 0.779787 0
M  V30 4337 C 423.985 -1.99097 0.347079 0
M  V30 4338 C 424.306 -1.62206 -1.08232 0
M  V30 4339 O 423.576 -0.891373 -1.74446 0
M  V30 4340 H 422.156 -0.736409 0.125342 0
M  V30 4341 H 424.818 -1.67308 0.999696 0
M  V30 4342 H 423.914 -3.09107 0.431162 0
M  V30 4343 N 424.215 -0.530993 -1.48385 0
M  V30 4344 C 425.145 0.219985 -2.32461 0
M  V30 4345 C 426.126 0.934111 -1.42156 0
M  V30 4346 O 427.311 0.919694 -1.71042 0
M  V30 4347 C 424.441 1.26674 -3.23375 0
M  V30 4348 C 423.395 0.67069 -4.22712 0
M  V30 4349 C 422.721 1.82017 -5.02766 0
M  V30 4350 C 424.021 -0.358268 -5.2107 0
M  V30 4351 H 425.715 -0.48187 -2.95497 0
M  V30 4352 H 423.261 -0.233182 -1.42099 0
M  V30 4353 H 425.214 1.80006 -3.81019 0
M  V30 4354 H 423.938 1.99818 -2.58341 0
M  V30 4355 H 422.597 0.158878 -3.66256 0
M  V30 4356 H 422.245 2.54002 -4.34157 0
M  V30 4357 H 421.945 1.42727 -5.70003 0
M  V30 4358 H 423.469 2.35725 -5.63264 0
M  V30 4359 H 424.883 0.0880081 -5.73232 0
M  V30 4360 H 423.28 -0.66861 -5.96364 0
M  V30 4361 H 424.35 -1.26367 -4.68145 0
M  V30 4362 N 425.693 1.55336 -0.266172 0
M  V30 4363 C 426.64 2.22172 0.625165 0
M  V30 4364 C 427.61 1.19211 1.15663 0
M  V30 4365 O 428.795 1.47723 1.20758 0
M  V30 4366 C 425.935 2.93972 1.8076 0
M  V30 4367 C 425.048 4.11632 1.31084 0
M  V30 4368 C 424.183 4.71099 2.45436 0
M  V30 4369 C 423.222 5.8097 1.92718 0
M  V30 4370 N 422.359 6.34538 3.00509 0
M  V30 4371 H 427.199 2.9796 0.0485582 0
M  V30 4372 H 424.736 1.47095 0.0122024 0
M  V30 4373 H 426.694 3.33811 2.50251 0
M  V30 4374 H 425.324 2.20623 2.35638 0
M  V30 4375 H 424.376 3.76975 0.509326 0
M  V30 4376 H 425.688 4.90893 0.884633 0
M  V30 4377 H 424.842 5.13612 3.22936 0
M  V30 4378 H 423.581 3.91096 2.91368 0
M  V30 4379 H 422.586 5.37916 1.13695 0
M  V30 4380 H 423.811 6.62836 1.47733 0
M  V30 4381 H 421.757 5.57433 3.45839 0
M  V30 4382 H 421.674 7.09046 2.62279 0
M  V30 4383 H 422.942 6.81709 3.78011 0
M  V30 4384 N 427.171 -0.0066808 1.57599 0
M  V30 4385 C 428.448 -0.729586 1.81484 0
M  V30 4386 C 428.828 -1.92359 0.869558 0
M  V30 4387 O 428.176 -2.28348 -0.0832533 0
M  V30 4388 C 428.386 -1.1416 3.29801 0
M  V30 4389 C 429.734 -1.54823 3.95367 0
M  V30 4390 O 430.758 -1.23558 3.34084 0
M  V30 4391 O 429.617 -2.12937 5.03309 0
M  V30 4392 H 426.711 -0.354674 0.747085 0
M  V30 4393 H 429.257 0.0182609 1.6969 0
M  V30 4394 H 428.029 -0.290231 3.90222 0
M  V30 4395 H 427.652 -1.94876 3.46568 0
M  V30 4396 N 428.649 -1.55105 -0.279332 0
M  V30 4397 C 429.897 -1.75066 -1.00977 0
M  V30 4398 C 430.218 -0.551276 -1.87045 0
M  V30 4399 O 429.488 0.433984 -1.91032 0
M  V30 4400 H 428.068 -0.645578 -0.375816 0
M  V30 4401 H 430.73 -1.92497 -0.305089 0
M  V30 4402 H 429.826 -2.64894 -1.65038 0
M  V30 4403 N 430.127 0.543554 -1.4793 0
M  V30 4404 C 431.373 1.30201 -1.55485 0
M  V30 4405 C 431.706 1.92925 -0.222201 0
M  V30 4406 O 430.981 1.78586 0.77053 0
M  V30 4407 C 431.264 2.40174 -2.68307 0
M  V30 4408 C 431.117 1.8223 -4.11233 0
M  V30 4409 C 432.436 3.42024 -2.76961 0
M  V30 4410 H 429.555 0.472036 -0.565996 0
M  V30 4411 H 432.197 0.606914 -1.80046 0
M  V30 4412 H 430.347 2.99463 -2.47495 0
M  V30 4413 H 432.019 1.27096 -4.43446 0
M  V30 4414 H 430.262 1.12832 -4.18869 0
M  V30 4415 H 430.933 2.61793 -4.85972 0
M  V30 4416 H 433.409 2.92672 -2.95774 0
M  V30 4417 H 432.285 4.16383 -3.57654 0
M  V30 4418 H 432.546 4.0173 -1.84568 0
M  V30 4419 N 431.605 1.3629 0.791371 0
M  V30 4420 C 432.835 1.33368 1.57786 0
M  V30 4421 C 433.243 -0.0875188 1.88997 0
M  V30 4422 O 432.586 -1.05427 1.50435 0
M  V30 4423 C 432.648 2.08802 2.92646 0
M  V30 4424 C 432.312 3.57903 2.84174 0
M  V30 4425 C 433.309 4.52191 2.56553 0
M  V30 4426 C 430.994 4.00762 3.02812 0
M  V30 4427 C 432.988 5.87315 2.47669 0
M  V30 4428 C 430.675 5.35977 2.93551 0
M  V30 4429 C 431.673 6.29066 2.66017 0
M  V30 4430 O 431.361 7.61798 2.56746 0
M  V30 4431 H 431.093 0.459166 0.496128 0
M  V30 4432 H 433.647 1.79952 0.990269 0
M  V30 4433 H 431.877 1.56878 3.53449 0
M  V30 4434 H 433.566 1.98762 3.53904 0
M  V30 4435 H 434.332 4.20393 2.41858 0
M  V30 4436 H 430.211 3.2868 3.2325 0
M  V30 4437 H 433.755 6.59943 2.26099 0
M  V30 4438 H 429.652 5.67384 3.07808 0
M  V30 4439 H 430.42 7.71898 2.72242 0
M  V30 4440 N 433.083 -1.0153 1.20538 0
M  V30 4441 C 433.993 -2.13557 0.971113 0
M  V30 4442 C 435.009 -1.73845 -0.0734366 0
M  V30 4443 O 436.185 -2.01075 0.114299 0
M  V30 4444 C 433.25 -3.42661 0.527639 0
M  V30 4445 C 432.311 -3.96608 1.64319 0
M  V30 4446 C 431.544 -5.1955 1.22078 0
M  V30 4447 O 431.767 -5.70329 0.0900198 0
M  V30 4448 O 430.701 -5.66681 2.02871 0
M  V30 4449 H 434.527 -2.3619 1.90913 0
M  V30 4450 H 432.112 -1.11946 0.989362 0
M  V30 4451 H 433.994 -4.20404 0.289621 0
M  V30 4452 H 432.669 -3.21441 -0.381779 0
M  V30 4453 H 431.576 -3.20139 1.93551 0
M  V30 4454 H 432.909 -4.22219 2.52966 0
M  V30 4455 N 434.561 -1.01147 -1.20859 0
M  V30 4456 C 435.808 -0.697865 -1.90095 0
M  V30 4457 C 436.136 0.772014 -1.78522 0
M  V30 4458 O 435.391 1.57595 -1.16027 0
M  V30 4459 C 435.69 -1.0727 -3.40922 0
M  V30 4460 C 435.356 -2.53792 -3.72693 0
M  V30 4461 C 434.018 -2.93829 -3.81075 0
M  V30 4462 C 436.37 -3.48674 -3.87397 0
M  V30 4463 C 433.698 -4.27696 -4.01613 0
M  V30 4464 C 436.05 -4.82223 -4.09444 0
M  V30 4465 C 434.714 -5.21973 -4.16054 0
M  V30 4466 H 433.984 -0.255367 -0.695607 0
M  V30 4467 H 436.631 -1.27111 -1.43231 0
M  V30 4468 H 434.936 -0.417799 -3.89566 0
M  V30 4469 H 436.633 -0.807818 -3.92779 0
M  V30 4470 H 433.223 -2.21768 -3.66765 0
M  V30 4471 H 437.407 -3.18904 -3.80281 0
M  V30 4472 H 432.663 -4.58055 -4.04964 0
M  V30 4473 H 436.837 -5.55672 -4.19763 0
M  V30 4474 H 434.464 -6.25717 -4.31721 0
M  V30 4475 N 436.039 1.36541 -0.78704 0
M  V30 4476 C 437.287 1.98911 -0.357633 0
M  V30 4477 C 437.608 1.62778 1.07371 0
M  V30 4478 O 436.878 0.900612 1.73971 0
M  V30 4479 H 435.458 0.735734 -0.129246 0
M  V30 4480 H 438.12 1.66776 -1.00855 0
M  V30 4481 H 437.216 3.08874 -0.447549 0
M  V30 4482 N 437.518 0.538854 1.48102 0
M  V30 4483 C 438.766 0.00798599 2.02098 0
M  V30 4484 C 439.087 -1.33922 1.41739 0
M  V30 4485 O 438.357 -1.86932 0.585934 0
M  V30 4486 H 436.937 -3.62179e-05 0.747 0
M  V30 4487 H 439.599 0.7047 1.81714 0
M  V30 4488 H 438.695 -0.0937672 3.11959 0
M  V30 4489 N 438.996 -1.55193 0.274407 0
M  V30 4490 C 439.928 -2.1989 -0.646595 0
M  V30 4491 C 440.941 -1.1834 -1.11801 0
M  V30 4492 O 442.13 -1.4507 -1.04004 0
M  V30 4493 C 439.23 -2.8104 -1.89393 0
M  V30 4494 C 438.403 -4.08274 -1.56943 0
M  V30 4495 C 437.462 -4.53478 -2.66916 0
M  V30 4496 O 436.488 -5.19267 -2.33132 0
M  V30 4497 N 437.69 -4.2356 -3.9696 0
M  V30 4498 H 440.455 -2.99556 -0.0928686 0
M  V30 4499 H 438.016 -1.61618 0.0954783 0
M  V30 4500 H 440.008 -3.08226 -2.62257 0
M  V30 4501 H 438.578 -2.05372 -2.35672 0
M  V30 4502 H 437.798 -3.88384 -0.674655 0
M  V30 4503 H 439.086 -4.91173 -1.32764 0
M  V30 4504 H 438.484 -3.70799 -4.27229 0
M  V30 4505 H 437.041 -4.55518 -4.66205 0
M  V30 4506 N 440.474 -0.00167713 -1.576 0
M  V30 4507 C 441.699 0.69739 -1.95323 0
M  V30 4508 C 442.124 1.6642 -0.876706 0
M  V30 4509 O 441.482 1.80548 0.165007 0
M  V30 4510 C 441.53 1.40403 -3.32144 0
M  V30 4511 O 440.634 2.5185 -3.26566 0
M  V30 4512 H 439.975 0.185373 -0.637599 0
M  V30 4513 H 442.505 -0.0553665 -2.04525 0
M  V30 4514 H 442.515 1.76707 -3.67748 0
M  V30 4515 H 441.19 0.695167 -4.10049 0
M  V30 4516 H 439.767 2.17861 -3.0264 0
M  V30 4517 N 441.952 1.55251 0.271103 0
M  V30 4518 C 443.198 1.76207 1.00394 0
M  V30 4519 C 443.531 0.562604 1.85872 0
M  V30 4520 O 442.806 -0.439785 1.89463 0
M  V30 4521 C 443.089 3.06828 1.8849 0
M  V30 4522 C 442.942 4.37134 1.05992 0
M  V30 4523 C 444.261 3.33503 2.87165 0
M  V30 4524 H 441.38 0.641086 0.363562 0
M  V30 4525 H 444.022 1.87982 0.276189 0
M  V30 4526 H 442.172 2.96921 2.5054 0
M  V30 4527 H 443.844 4.59001 0.459978 0
M  V30 4528 H 442.087 4.32275 0.363443 0
M  V30 4529 H 442.758 5.2486 1.70955 0
M  V30 4530 H 445.234 3.43215 2.3525 0
M  V30 4531 H 444.11 4.2616 3.45946 0
M  V30 4532 H 444.371 2.53235 3.62387 0
M  V30 4533 N 443.43 -0.535701 1.48216 0
M  V30 4534 C 444.658 -1.31671 1.59594 0
M  V30 4535 C 445.073 -1.87083 0.254056 0
M  V30 4536 O 444.43 -1.66112 -0.755854 0
M  V30 4537 C 444.481 -2.47158 2.63809 0
M  V30 4538 O 444.202 -1.94032 3.92789 0
M  V30 4539 C 445.703 -3.39062 2.85573 0
M  V30 4540 H 442.923 -0.400623 0.538277 0
M  V30 4541 H 445.467 -0.646827 1.94001 0
M  V30 4542 H 443.622 -3.10043 2.32276 0
M  V30 4543 H 444.036 -2.69585 4.49916 0
M  V30 4544 H 445.51 -4.16459 3.62306 0
M  V30 4545 H 445.987 -3.93941 1.94184 0
M  V30 4546 H 446.593 -2.81975 3.18387 0
M  V30 4547 N 444.908 -1.36708 -0.784132 0
M  V30 4548 C 446.154 -1.31426 -1.54451 0
M  V30 4549 C 446.487 0.10476 -1.93917 0
M  V30 4550 O 445.762 1.05934 -1.6312 0
M  V30 4551 C 446.045 -2.24189 -2.818 0
M  V30 4552 C 445.898 -3.74813 -2.48667 0
M  V30 4553 C 447.217 -2.15626 -3.83658 0
M  V30 4554 H 444.336 -0.478739 -0.560337 0
M  V30 4555 H 446.978 -1.67305 -0.900498 0
M  V30 4556 H 445.128 -1.93722 -3.36755 0
M  V30 4557 H 446.8 -4.15823 -1.99722 0
M  V30 4558 H 445.043 -3.93989 -1.81535 0
M  V30 4559 H 445.714 -4.35138 -3.39646 0
M  V30 4560 H 448.19 -2.42456 -3.38163 0
M  V30 4561 H 447.066 -2.82694 -4.70506 0
M  V30 4562 H 447.327 -1.14522 -4.27009 0
M  V30 4563 N 446.386 1.0089 -1.21074 0
M  V30 4564 C 447.802 1.2695 -0.967257 0
M  V30 4565 C 448.002 1.9846 0.348673 0
M  V30 4566 O 447.058 2.28459 1.0753 0
M  V30 4567 C 448.371 2.09697 -2.15517 0
M  V30 4568 C 449.919 2.22937 -2.197 0
M  V30 4569 C 450.394 3.09064 -3.37999 0
M  V30 4570 N 451.885 3.16653 -3.38061 0
M  V30 4571 C 452.62 3.8354 -4.26245 0
M  V30 4572 N 452.116 4.52488 -5.2462 0
M  V30 4573 N 453.909 3.80141 -4.14064 0
M  V30 4574 H 446.06 0.529005 -2.05707 0
M  V30 4575 H 448.323 0.296148 -0.900556 0
M  V30 4576 H 448.029 1.64497 -3.10859 0
M  V30 4577 H 447.903 3.10444 -2.14253 0
M  V30 4578 H 450.29 2.67357 -1.24916 0
M  V30 4579 H 450.371 1.21673 -2.2501 0
M  V30 4580 H 450.015 2.65347 -4.33074 0
M  V30 4581 H 449.945 4.10433 -3.29928 0
M  V30 4582 H 452.436 2.67566 -2.66865 0
M  V30 4583 H 452.749 5.01219 -5.88217 0
M  V30 4584 H 451.094 4.51288 -5.28549 0
M  V30 4585 H 454.285 3.25427 -3.36474 0
M  V30 4586 H 454.458 4.31992 -4.82998 0
M  V30 4587 N 447.864 1.01787 1.20321 0
M  V30 4588 C 449.112 0.706538 1.89347 0
M  V30 4589 C 449.433 -0.766289 1.79313 0
M  V30 4590 O 448.703 -1.55126 1.19635 0
M  V30 4591 H 447.283 0.258348 0.700903 0
M  V30 4592 H 449.945 1.28974 1.46122 0
M  V30 4593 H 449.041 0.991066 2.95946 0
M  V30 4594 N 449.342 -1.36122 0.79427 0
M  V30 4595 C 450.758 -1.5232 0.476525 0
M  V30 4596 C 450.958 -1.74685 -1.00436 0
M  V30 4597 O 450.014 -1.78115 -1.78973 0
M  V30 4598 C 451.327 -2.70607 1.31119 0
M  V30 4599 C 452.875 -2.8448 1.30537 0
M  V30 4600 C 453.35 -4.05778 2.12387 0
M  V30 4601 N 454.841 -4.12933 2.09859 0
M  V30 4602 C 455.576 -5.05876 2.69957 0
M  V30 4603 N 455.072 -6.04232 3.38934 0
M  V30 4604 N 456.865 -4.98528 2.59665 0
M  V30 4605 H 449.016 -1.1986 1.75349 0
M  V30 4606 H 451.279 -0.585418 0.745647 0
M  V30 4607 H 450.985 -2.60619 2.36158 0
M  V30 4608 H 450.859 -3.64888 0.955843 0
M  V30 4609 H 453.246 -2.93927 0.262876 0
M  V30 4610 H 453.327 -1.91093 1.70051 0
M  V30 4611 H 452.971 -3.97092 3.1667 0
M  V30 4612 H 452.901 -4.98323 1.70242 0
M  V30 4613 H 455.392 -3.42515 1.59662 0
M  V30 4614 H 455.705 -6.71724 3.82109 0
M  V30 4615 H 454.05 -6.04443 3.43036 0
M  V30 4616 H 457.241 -4.20641 2.05375 0
M  V30 4617 H 457.414 -5.70773 3.06793 0
M  V30 4618 N 450.82 -0.546701 -1.47814 0
M  V30 4619 C 452.048 -0.0232857 -2.06887 0
M  V30 4620 C 452.463 1.26571 -1.4009 0
M  V30 4621 O 451.82 1.7569 -0.493906 0
M  V30 4622 C 451.871 0.186975 -3.61016 0
M  V30 4623 O 451.592 -1.05097 -4.25307 0
M  V30 4624 C 453.093 0.748872 -4.36929 0
M  V30 4625 H 450.313 -0.0410763 -0.669742 0
M  V30 4626 H 452.857 -0.757117 -1.89968 0
M  V30 4627 H 451.012 0.870903 -3.77484 0
M  V30 4628 H 451.426 -0.842121 -5.17695 0
M  V30 4629 H 452.9 0.845334 -5.45489 0
M  V30 4630 H 453.377 1.75772 -4.02493 0
M  V30 4631 H 453.983 0.100979 -4.2518 0
M  V30 4632 N 452.299 1.55045 -0.282633 0
M  V30 4633 C 453.262 2.21515 0.588539 0
M  V30 4634 C 454.262 1.19535 1.07554 0
M  V30 4635 O 455.452 1.44391 0.974514 0
M  V30 4636 C 452.584 2.88704 1.8128 0
M  V30 4637 H 453.777 2.99899 0.00806397 0
M  V30 4638 H 451.33 1.56265 -0.0333067 0
M  V30 4639 H 452.065 2.14352 2.43359 0
M  V30 4640 H 451.85 3.63443 1.47144 0
M  V30 4641 H 453.34 3.39465 2.43214 0
M  V30 4642 N 453.777 0.010035 1.57597 0
M  V30 4643 C 454.707 -0.976857 2.12084 0
M  V30 4644 C 455.688 -1.35191 1.03235 0
M  V30 4645 O 456.873 -1.43389 1.3097 0
M  V30 4646 C 454.003 -2.26548 2.63236 0
M  V30 4647 C 452.957 -2.03175 3.76701 0
M  V30 4648 C 452.283 -3.38138 4.14206 0
M  V30 4649 C 453.583 -1.38625 5.03568 0
M  V30 4650 H 455.277 -0.523145 2.94794 0
M  V30 4651 H 452.823 -0.250195 1.4181 0
M  V30 4652 H 454.776 -2.95952 2.99984 0
M  V30 4653 H 453.5 -2.74051 1.77661 0
M  V30 4654 H 452.159 -1.36195 3.40362 0
M  V30 4655 H 451.807 -3.83363 3.25641 0
M  V30 4656 H 451.507 -3.23312 4.90656 0
M  V30 4657 H 453.031 -4.08841 4.53521 0
M  V30 4658 H 454.445 -1.98 5.38023 0
M  V30 4659 H 452.842 -1.34256 5.84889 0
M  V30 4660 H 453.912 -0.356722 4.83586 0
M  V30 4661 N 455.255 -1.55392 -0.262866 0
M  V30 4662 C 456.185 -1.91978 -1.32917 0
M  V30 4663 C 457.166 -0.7828 -1.51017 0
M  V30 4664 O 458.351 -1.04178 -1.63892 0
M  V30 4665 C 455.481 -2.20055 -2.68687 0
M  V30 4666 C 454.435 -3.35854 -2.65304 0
M  V30 4667 C 453.761 -3.49435 -4.04721 0
M  V30 4668 C 455.061 -4.71977 -2.23685 0
M  V30 4669 H 456.755 -2.81292 -1.02544 0
M  V30 4670 H 454.301 -1.3534 -0.491846 0
M  V30 4671 H 456.254 -2.44237 -3.43404 0
M  V30 4672 H 454.978 -1.27551 -3.00663 0
M  V30 4673 H 453.637 -3.11655 -1.93045 0
M  V30 4674 H 453.285 -2.54379 -4.33936 0
M  V30 4675 H 452.985 -4.27297 -4.0335 0
M  V30 4676 H 454.509 -3.7592 -4.81161 0
M  V30 4677 H 455.923 -4.95637 -2.88127 0
M  V30 4678 H 454.32 -5.52828 -2.33456 0
M  V30 4679 H 455.39 -4.70115 -1.18827 0
M  V30 4680 N 456.733 0.527833 -1.48498 0
M  V30 4681 C 457.958 1.313 -1.60546 0
M  V30 4682 C 458.383 1.86199 -0.26672 0
M  V30 4683 O 457.741 1.64513 0.761918 0
M  V30 4684 C 457.789 2.43818 -2.65678 0
M  V30 4685 O 456.893 3.46916 -2.22987 0
M  V30 4686 H 456.234 0.388784 -0.538277 0
M  V30 4687 H 458.764 0.634896 -1.945 0
M  V30 4688 H 458.774 2.89973 -2.87018 0
M  V30 4689 H 457.449 2.03222 -3.62869 0
M  V30 4690 H 456.026 3.06864 -2.11869 0
M  V30 4691 N 458.211 1.37122 0.776871 0
M  V30 4692 C 459.488 1.22586 1.52421 0
M  V30 4693 C 459.868 -0.182726 2.10308 0
M  V30 4694 O 459.216 -1.18979 1.9508 0
M  V30 4695 C 459.426 2.31782 2.60918 0
M  V30 4696 C 460.774 2.69071 3.2846 0
M  V30 4697 O 461.798 2.3092 2.71209 0
M  V30 4698 O 460.657 3.3478 4.31954 0
M  V30 4699 H 457.751 0.478045 0.674835 0
M  V30 4700 H 460.297 1.48888 0.814275 0
M  V30 4701 H 459.069 3.26131 2.16227 0
M  V30 4702 H 458.692 2.06916 3.39517 0
M  V30 4703 N 459.689 -1.00246 1.21608 0
M  V30 4704 C 460.937 -1.73717 1.0328 0
M  V30 4705 C 461.258 -1.90102 -0.434318 0
M  V30 4706 O 460.528 -1.45376 -1.31311 0
M  V30 4707 H 459.108 -0.643613 0.379172 0
M  V30 4708 H 461.77 -1.20787 1.52959 0
M  V30 4709 H 460.866 -2.73535 1.50283 0
M  V30 4710 N 461.167 -1.02423 -1.1978 0
M  V30 4711 C 462.395 -0.737456 -1.93311 0
M  V30 4712 C 462.81 0.703023 -1.75223 0
M  V30 4713 O 462.167 1.47761 -1.07112 0
M  V30 4714 C 462.218 -1.0733 -3.45199 0
M  V30 4715 O 461.939 -2.4572 -3.62702 0
M  V30 4716 C 463.44 -0.80866 -4.35862 0
M  V30 4717 H 460.66 -0.2702 -0.614193 0
M  V30 4718 H 463.204 -1.36747 -1.52054 0
M  V30 4719 H 461.359 -0.488545 -3.84307 0
M  V30 4720 H 461.773 -2.58081 -4.56612 0
M  V30 4721 H 463.247 -1.09365 -5.41057 0
M  V30 4722 H 463.724 0.257025 -4.38447 0
M  V30 4723 H 464.33 -1.37592 -4.02428 0
M  V30 4724 N 462.645 1.35699 -0.801477 0
M  V30 4725 C 463.575 2.32436 -0.222658 0
M  V30 4726 C 464.556 1.5723 0.649057 0
M  V30 4727 O 465.741 1.85324 0.580387 0
M  V30 4728 C 462.871 3.41469 0.633719 0
M  V30 4729 C 461.825 4.27774 -0.139083 0
M  V30 4730 C 461.151 5.28082 0.838666 0
M  V30 4731 C 462.451 5.04946 -1.33517 0
M  V30 4732 H 464.145 2.81094 -1.03086 0
M  V30 4733 H 461.691 1.35146 -0.497155 0
M  V30 4734 H 463.644 4.08143 1.04868 0
M  V30 4735 H 462.368 2.91408 1.47475 0
M  V30 4736 H 461.027 3.62673 -0.535156 0
M  V30 4737 H 460.675 4.7429 1.67506 0
M  V30 4738 H 460.375 5.86695 0.32594 0
M  V30 4739 H 461.899 5.97628 1.25194 0
M  V30 4740 H 463.313 5.64593 -0.995349 0
M  V30 4741 H 461.71 5.7303 -1.78202 0
M  V30 4742 H 462.78 4.35886 -2.12442 0
M  V30 4743 N 464.123 0.554532 1.47522 0
M  V30 4744 C 465.086 -0.184174 2.28459 0
M  V30 4745 C 466.086 -0.845195 1.36796 0
M  V30 4746 O 467.276 -0.701467 1.59452 0
M  V30 4747 C 464.408 -1.26903 3.16399 0
M  V30 4748 H 465.601 0.526751 2.95238 0
M  V30 4749 H 463.154 0.311375 1.53167 0
M  V30 4750 H 463.889 -2.01244 2.54306 0
M  V30 4751 H 463.674 -0.799883 3.83854 0
M  V30 4752 H 465.164 -1.78794 3.77389 0
M  V30 4753 N 465.601 -1.54893 0.290851 0
M  V30 4754 C 466.849 -1.99538 -0.320756 0
M  V30 4755 C 467.17 -1.18075 -1.55188 0
M  V30 4756 O 466.44 -0.274162 -1.93972 0
M  V30 4757 H 465.02 -0.737052 -0.121507 0
M  V30 4758 H 467.682 -1.90755 0.399832 0
M  V30 4759 H 466.778 -3.06282 -0.599802 0
M  V30 4760 N 467.08 -0.0183926 -1.57589 0
M  V30 4761 C 468.305 0.676634 -1.96052 0
M  V30 4762 C 468.73 1.6548 -0.894307 0
M  V30 4763 O 468.088 1.80712 0.145849 0
M  V30 4764 C 468.136 1.36872 -3.33614 0
M  V30 4765 O 467.24 2.48372 -3.29219 0
M  V30 4766 H 466.581 0.1786 -0.63953 0
M  V30 4767 H 469.111 -0.077056 -2.04455 0
M  V30 4768 H 469.121 1.72797 -3.69601 0
M  V30 4769 H 467.796 0.651636 -4.10763 0
M  V30 4770 H 466.373 2.14639 -3.04934 0
M  V30 4771 N 468.558 1.5553 0.254621 0
M  V30 4772 C 469.807 1.76202 0.981612 0
M  V30 4773 C 470.12 0.580883 1.86776 0
M  V30 4774 O 471.326 0.670448 2.63092 0
M  V30 4775 C 469.782 3.11921 1.79537 0
M  V30 4776 C 469.39 4.37659 0.956991 0
M  V30 4777 C 471.134 3.41936 2.51555 0
M  V30 4778 C 469.041 5.64411 1.76619 0
M  V30 4779 H 467.971 0.656841 0.370237 0
M  V30 4780 H 470.622 1.81969 0.236556 0
M  V30 4781 H 469.004 3.00241 2.58208 0
M  V30 4782 H 470.178 4.60307 0.21315 0
M  V30 4783 H 468.493 4.14922 0.350497 0
M  V30 4784 H 471.09 4.33849 3.12536 0
M  V30 4785 H 471.433 2.62905 3.22779 0
M  V30 4786 H 471.966 3.54797 1.799 0
M  V30 4787 H 468.705 6.46241 1.09783 0
M  V30 4788 H 468.225 5.45877 2.48551 0
M  V30 4789 H 469.904 6.03386 2.33527 0
M  V30 4790 N 470.036 -0.519951 1.48776 0
M  V30 4791 C 470.966 -1.63253 1.66945 0
M  V30 4792 C 471.947 -1.62014 0.518224 0
M  V30 4793 O 473.132 -1.79053 0.751919 0
M  V30 4794 C 470.262 -3.0181 1.71836 0
M  V30 4795 C 469.216 -3.17911 2.8656 0
M  V30 4796 C 468.542 -4.5763 2.76548 0
M  V30 4797 C 469.842 -2.99729 4.27738 0
M  V30 4798 H 471.536 -1.48302 2.6009 0
M  V30 4799 H 469.082 -0.712026 1.25165 0
M  V30 4800 H 471.035 -3.79525 1.83135 0
M  V30 4801 H 469.759 -3.17806 0.752775 0
M  V30 4802 H 468.418 -2.42616 2.74833 0
M  V30 4803 H 468.066 -4.70476 1.77937 0
M  V30 4804 H 467.766 -4.69346 3.53536 0
M  V30 4805 H 469.29 -5.37431 2.89828 0
M  V30 4806 H 470.704 -3.67228 4.40246 0
M  V30 4807 H 469.101 -3.22932 5.05801 0
M  V30 4808 H 470.171 -1.96047 4.43502 0
M  V30 4809 N 471.514 -1.37532 -0.769588 0
M  V30 4810 C 472.461 -1.3347 -1.88293 0
M  V30 4811 C 473.431 -0.199891 -1.64893 0
M  V30 4812 O 474.616 -0.389594 -1.8678 0
M  V30 4813 C 471.756 -1.14968 -3.25387 0
M  V30 4814 C 470.869 -2.37698 -3.60727 0
M  V30 4815 C 470.004 -2.12051 -4.8704 0
M  V30 4816 C 469.043 -3.30636 -5.15117 0
M  V30 4817 N 468.18 -3.04527 -6.3262 0
M  V30 4818 H 473.02 -2.28658 -1.911 0
M  V30 4819 H 470.557 -1.13622 -0.934257 0
M  V30 4820 H 472.515 -1.02261 -4.04473 0
M  V30 4821 H 471.145 -0.234263 -3.21949 0
M  V30 4822 H 470.197 -2.61137 -2.76608 0
M  V30 4823 H 471.509 -3.26131 -3.77413 0
M  V30 4824 H 470.663 -1.96388 -5.74035 0
M  V30 4825 H 469.402 -1.20959 -4.72462 0
M  V30 4826 H 468.407 -3.46836 -4.26597 0
M  V30 4827 H 469.632 -4.22582 -5.31603 0
M  V30 4828 H 467.578 -2.16067 -6.19396 0
M  V30 4829 H 467.495 -3.86503 -6.49732 0
M  V30 4830 H 468.763 -2.92485 -7.22546 0
M  V30 4831 N 472.992 0.995999 -1.22138 0
M  V30 4832 C 473.925 2.08302 -0.931952 0
M  V30 4833 C 474.903 1.62127 0.123956 0
M  V30 4834 O 476.087 1.88499 -0.00696004 0
M  V30 4835 C 473.214 3.36317 -0.401068 0
M  V30 4836 C 472.26 4.01413 -1.44117 0
M  V30 4837 S 473.093 4.42664 -3.01345 0
M  V30 4838 C 474.249 5.73853 -2.49887 0
M  V30 4839 H 474.482 2.32532 -1.85246 0
M  V30 4840 H 472.015 1.13005 -1.0521 0
M  V30 4841 H 473.973 4.10375 -0.101352 0
M  V30 4842 H 472.634 3.10123 0.498272 0
M  V30 4843 H 471.827 4.9358 -1.01952 0
M  V30 4844 H 471.429 3.33668 -1.68943 0
M  V30 4845 H 473.721 6.50039 -1.90934 0
M  V30 4846 H 474.664 6.20841 -3.40532 0
M  V30 4847 H 475.072 5.31105 -1.9128 0
M  V30 4848 N 474.47 1.03057 1.19235 0
M  V30 4849 C 475.418 0.606391 2.24557 0
M  V30 4850 C 476.412 -0.361826 1.65491 0
M  V30 4851 O 477.618 -0.23022 1.78522 0
M  V30 4852 H 473.993 0.177838 0.730669 0
M  V30 4853 H 475.964 1.50529 2.5765 0
M  V30 4854 C 474.713 -0.0252127 3.47691 0
M  V30 4855 H 474.036 0.710838 3.9343 0
M  V30 4856 H 475.476 -0.284931 4.23042 0
M  V30 4857 C 473.935 -1.27229 3.11953 0
M  V30 4858 O 474.465 -2.36416 3.24762 0
M  V30 4859 N 472.671 -1.16169 2.6637 0
M  V30 4860 H 472.218 -0.273189 2.56147 0
M  V30 4861 H 472.176 -1.99703 2.42829 0
M  V30 4862 N 475.948 -1.35272 0.808662 0
M  V30 4863 C 476.858 -2.33546 0.222079 0
M  V30 4864 C 477.874 -1.6196 -0.636011 0
M  V30 4865 O 479.05 -1.93822 -0.547274 0
M  V30 4866 C 476.115 -3.41148 -0.61795 0
M  V30 4867 C 475.176 -4.28507 0.260875 0
M  V30 4868 C 474.409 -5.3097 -0.539156 0
M  V30 4869 O 474.632 -5.42123 -1.77367 0
M  V30 4870 O 473.566 -6.01858 0.0710526 0
M  V30 4871 H 477.392 -2.85515 1.03512 0
M  V30 4872 H 474.977 -1.38079 0.570495 0
M  V30 4873 H 476.859 -4.06889 -1.09634 0
M  V30 4874 H 475.534 -2.91447 -1.40855 0
M  V30 4875 H 474.441 -3.6574 0.786451 0
M  V30 4876 H 475.774 -4.81611 1.01547 0
M  V30 4877 N 477.426 -0.562348 -1.47226 0
M  V30 4878 C 478.674 -0.0401371 -2.0206 0
M  V30 4879 C 478.995 1.3165 -1.43852 0
M  V30 4880 O 478.265 1.85976 -0.615599 0
M  V30 4881 H 476.845 -0.0118479 -0.746906 0
M  V30 4882 H 479.507 -0.73352 -1.8057 0
M  V30 4883 H 478.603 0.0441254 -3.12069 0
M  V30 4884 N 478.904 1.54736 -0.299062 0
M  V30 4885 C 479.867 2.22127 0.565012 0
M  V30 4886 C 480.867 1.20669 1.06281 0
M  V30 4887 O 482.057 1.45417 0.959145 0
M  V30 4888 C 479.189 2.90611 1.78208 0
M  V30 4889 H 480.382 2.99891 -0.0237448 0
M  V30 4890 H 477.935 1.5622 -0.0498788 0
M  V30 4891 H 478.67 2.16921 2.41072 0
M  V30 4892 H 478.455 3.64984 1.43281 0
M  V30 4893 H 479.945 3.42026 2.396 0
M  V30 4894 N 480.382 0.0267497 1.57577 0
M  V30 4895 C 481.798 -0.32962 1.56159 0
M  V30 4896 C 481.998 -1.73059 1.03213 0
M  V30 4897 O 481.054 -2.43233 0.677804 0
M  V30 4898 C 482.367 -0.18039 3.00158 0
M  V30 4899 C 483.915 -0.253334 3.11973 0
M  V30 4900 C 484.39 -0.132921 4.57807 0
M  V30 4901 N 485.881 -0.189979 4.6281 0
M  V30 4902 C 486.616 -0.120554 5.73273 0
M  V30 4903 N 486.112 -0.000180315 6.928 0
M  V30 4904 N 487.905 -0.174369 5.61829 0
M  V30 4905 H 480.056 0.942896 1.90324 0
M  V30 4906 H 482.319 0.3639 0.875375 0
M  V30 4907 H 482.025 0.784576 3.42837 0
M  V30 4908 H 481.899 -0.951565 3.65 0
M  V30 4909 H 484.286 -1.20876 2.69208 0
M  V30 4910 H 484.367 0.548177 2.49857 0
M  V30 4911 H 484.011 0.819073 5.01252 0
M  V30 4912 H 483.941 -0.953264 5.179 0
M  V30 4913 H 486.432 -0.283257 3.76837 0
M  V30 4914 H 486.745 0.0461666 7.72786 0
M  V30 4915 H 485.09 0.034569 6.94991 0
M  V30 4916 H 488.281 -0.266794 4.67339 0
M  V30 4917 H 488.454 -0.116802 6.47895 0
M  V30 4918 N 481.861 -1.55662 -0.24637 0
M  V30 4919 C 482.811 -1.86753 -1.30795 0
M  V30 4920 C 483.795 -0.728445 -1.43466 0
M  V30 4921 O 484.987 -0.99038 -1.46699 0
M  V30 4922 C 482.116 -2.16618 -2.66329 0
M  V30 4923 C 481.202 -3.36855 -2.57661 0
M  V30 4924 N 481.593 -4.56111 -2.18624 0
M  V30 4925 C 479.891 -3.39976 -2.88673 0
M  V30 4926 C 480.592 -5.38247 -2.20601 0
M  V30 4927 N 479.568 -4.77322 -2.60124 0
M  V30 4928 H 483.37 -2.76486 -0.996642 0
M  V30 4929 H 480.884 -1.55896 -0.454994 0
M  V30 4930 H 482.881 -2.37057 -3.42942 0
M  V30 4931 H 481.541 -1.28185 -2.98327 0
M  V30 4932 H 482.552 -4.81726 -1.9016 0
M  V30 4933 H 479.229 -2.61815 -3.25206 0
M  V30 4934 H 480.619 -6.43657 -1.92756 0
M  V30 4935 N 483.339 0.512053 -1.4905 0
M  V30 4936 C 484.272 1.63209 -1.59493 0
M  V30 4937 C 485.25 1.56407 -0.444481 0
M  V30 4938 O 486.434 1.76623 -0.658535 0
M  V30 4939 C 483.561 3.01685 -1.53961 0
M  V30 4940 C 482.607 3.26786 -2.74068 0
M  V30 4941 S 483.44 3.11107 -4.35859 0
M  V30 4942 C 484.596 4.51997 -4.32954 0
M  V30 4943 H 484.829 1.54104 -2.54243 0
M  V30 4944 H 482.362 0.696382 -1.37804 0
M  V30 4945 H 484.32 3.81538 -1.51455 0
M  V30 4946 H 482.981 3.08215 -0.605178 0
M  V30 4947 H 482.174 4.27849 -2.66386 0
M  V30 4948 H 481.776 2.54635 -2.73928 0
M  V30 4949 H 484.068 5.43871 -4.03993 0
M  V30 4950 H 485.011 4.64731 -5.34257 0
M  V30 4951 H 485.419 4.32159 -3.63178 0
M  V30 4952 N 484.817 1.37938 0.762283 0
M  V30 4953 C 486.233 1.18945 1.06415 0
M  V30 4954 C 486.433 0.0321163 2.01474 0
M  V30 4955 O 485.489 -0.624844 2.44647 0
M  V30 4956 C 486.802 2.51218 1.65258 0
M  V30 4957 C 488.35 2.57824 1.7747 0
M  V30 4958 C 488.825 3.90251 2.39725 0
M  V30 4959 N 490.316 3.91744 2.47166 0
M  V30 4960 C 491.051 4.90966 2.96209 0
M  V30 4961 N 490.547 6.00585 3.45354 0
M  V30 4962 N 492.34 4.78363 2.9517 0
M  V30 4963 H 484.491 2.11994 0.131301 0
M  V30 4964 H 486.754 0.940262 0.120879 0
M  V30 4965 H 486.46 3.36317 1.02878 0
M  V30 4966 H 486.334 2.68989 2.64433 0
M  V30 4967 H 488.721 1.73126 2.3898 0
M  V30 4968 H 488.802 2.43928 0.770241 0
M  V30 4969 H 488.446 4.75368 1.78852 0
M  V30 4970 H 488.376 4.01454 3.40796 0
M  V30 4971 H 490.867 3.12563 2.12397 0
M  V30 4972 H 491.18 6.72236 3.81207 0
M  V30 4973 H 489.525 6.04217 3.43434 0
M  V30 4974 H 492.716 3.91841 2.56082 0
M  V30 4975 H 492.889 5.55843 3.33081 0
M  V30 4976 N 486.295 -0.989507 1.22664 0
M  V30 4977 C 487.205 -2.11449 1.01619 0
M  V30 4978 C 488.221 -1.73962 -0.036545 0
M  V30 4979 O 489.397 -2.00788 0.156924 0
M  V30 4980 C 486.462 -3.41465 0.600204 0
M  V30 4981 C 485.523 -3.93033 1.72695 0
M  V30 4982 C 484.756 -5.16844 1.33071 0
M  V30 4983 O 484.979 -5.7001 0.210975 0
M  V30 4984 O 483.913 -5.6225 2.14845 0
M  V30 4985 H 487.739 -2.32088 1.9588 0
M  V30 4986 H 485.324 -1.09823 1.01289 0
M  V30 4987 H 487.206 -4.19695 0.37873 0
M  V30 4988 H 485.881 -3.22178 -0.313511 0
M  V30 4989 H 484.788 -3.15961 2.00298 0
M  V30 4990 H 486.121 -4.16758 2.61865 0
M  V30 4991 N 487.773 -1.03688 -1.18687 0
M  V30 4992 C 489.02 -0.73803 -1.88572 0
M  V30 4993 C 489.348 0.733973 -1.8012 0
M  V30 4994 O 488.603 1.55098 -1.19344 0
M  V30 4995 C 488.902 -1.14477 -3.3857 0
M  V30 4996 C 488.568 -2.61641 -3.67226 0
M  V30 4997 C 487.23 -3.01846 -3.74757 0
M  V30 4998 C 489.582 -3.56812 -3.79914 0
M  V30 4999 C 486.91 -4.36118 -3.92451 0
M  V30 5000 C 489.262 -4.90799 -3.99123 0
M  V30 5001 C 487.926 -5.3068 -4.04888 0
M  V30 5002 H 487.196 -0.270064 -0.690034 0
M  V30 5003 H 489.843 -1.3012 -1.40503 0
M  V30 5004 H 488.148 -0.500337 -3.88592 0
M  V30 5005 H 489.845 -0.89095 -3.90977 0
M  V30 5006 H 486.435 -2.29498 -3.61979 0
M  V30 5007 H 490.619 -3.26899 -3.73431 0
M  V30 5008 H 485.875 -4.66542 -3.95157 0
M  V30 5009 H 490.049 -5.64451 -4.07882 0
M  V30 5010 H 487.676 -6.34733 -4.18351 0
M  V30 5011 N 489.251 1.34841 -0.815825 0
M  V30 5012 C 490.479 2.0273 -0.413294 0
M  V30 5013 C 490.894 1.61459 0.978599 0
M  V30 5014 O 490.251 0.816584 1.63212 0
M  V30 5015 C 490.302 3.58058 -0.497676 0
M  V30 5016 O 490.023 3.97832 -1.8347 0
M  V30 5017 C 491.524 4.4321 -0.0891339 0
M  V30 5018 H 488.744 0.649956 -0.166728 0
M  V30 5019 H 491.288 1.72267 -1.10201 0
M  V30 5020 H 489.443 3.87136 0.142886 0
M  V30 5021 H 489.857 4.92501 -1.80396 0
M  V30 5022 H 491.331 5.5164 -0.199274 0
M  V30 5023 H 491.808 4.28432 0.966571 0
M  V30 5024 H 492.414 4.19446 -0.703214 0
M  V30 5025 N 490.729 0.570148 1.46925 0
M  V30 5026 C 491.677 -0.183181 2.31878 0
M  V30 5027 C 492.671 -0.896721 1.43719 0
M  V30 5028 O 493.877 -0.816536 1.60414 0
M  V30 5029 H 490.252 -0.077944 0.74795 0
M  V30 5030 H 492.223 0.552312 2.93244 0
M  V30 5031 C 490.972 -1.19172 3.2664 0
M  V30 5032 H 490.295 -0.652088 3.94446 0
M  V30 5033 H 491.735 -1.68946 3.88887 0
M  V30 5034 C 490.194 -2.24627 2.51086 0
M  V30 5035 O 490.724 -3.31773 2.26472 0
M  V30 5036 N 488.93 -1.98898 2.11867 0
M  V30 5037 H 488.477 -1.11777 2.32086 0
M  V30 5038 H 488.435 -2.6967 1.61634 0
M  V30 5039 N 492.207 -1.54576 0.307264 0
M  V30 5040 C 493.447 -2.02172 -0.300962 0
M  V30 5041 C 493.811 -1.19081 -1.50611 0
M  V30 5042 O 495.012 -1.56405 -2.18612 0
M  V30 5043 C 493.283 -3.51576 -0.642591 0
M  V30 5044 S 494.842 -4.21127 -1.23279 0
M  V30 5045 H 491.66 -0.705021 -0.0920141 0
M  V30 5046 H 494.262 -1.90563 0.436594 0
M  V30 5047 H 492.966 -4.09681 0.242901 0
M  V30 5048 H 492.497 -3.67234 -1.41077 0
M  V30 5049 H 494.512 -4.27426 -2.52034 0
M  V30 5050 N 493.685 -0.035106 -1.57561 0
M  V30 5051 C 494.91 0.655802 -1.96759 0
M  V30 5052 C 495.335 1.64523 -0.911809 0
M  V30 5053 O 494.693 1.80857 0.126673 0
M  V30 5054 C 494.741 1.33326 -3.35047 0
M  V30 5055 O 493.845 2.44866 -3.31835 0
M  V30 5056 H 493.186 0.171807 -0.641388 0
M  V30 5057 H 495.716 -0.0987369 -2.04362 0
M  V30 5058 H 495.726 1.68867 -3.71413 0
M  V30 5059 H 494.401 0.608033 -4.11431 0
M  V30 5060 H 492.978 2.11392 -3.07193 0
M  V30 5061 N 495.163 1.55791 0.238111 0
M  V30 5062 C 496.409 1.79211 0.962035 0
M  V30 5063 C 496.764 0.605463 1.82625 0
M  V30 5064 O 496.057 -0.40104 1.87356 0
M  V30 5065 C 496.251 3.05869 1.84875 0
M  V30 5066 C 496.08 4.36739 1.07186 0
M  V30 5067 C 494.85 4.99346 0.773424 0
M  V30 5068 C 497.048 5.1237 0.445168 0
M  V30 5069 N 495.03 6.13894 -0.0266037 0
M  V30 5070 C 496.401 6.19613 -0.219023 0
M  V30 5071 C 498.456 4.96622 0.356522 0
M  V30 5072 C 497.159 7.1282 -0.963358 0
M  V30 5073 C 499.185 5.90214 -0.374304 0
M  V30 5074 C 498.547 6.96872 -1.0271 0
M  V30 5075 H 494.646 0.707627 0.332849 0
M  V30 5076 H 497.23 1.93284 0.234368 0
M  V30 5077 H 495.401 2.93108 2.54837 0
M  V30 5078 H 497.133 3.17547 2.5089 0
M  V30 5079 H 493.888 4.60948 1.08738 0
M  V30 5080 H 494.312 6.75727 -0.414968 0
M  V30 5081 H 498.954 4.14232 0.846878 0
M  V30 5082 H 496.672 7.94704 -1.46529 0
M  V30 5083 H 500.258 5.80106 -0.443678 0
M  V30 5084 H 499.138 7.68045 -1.58358 0
M  V30 5085 N 496.642 -0.504142 1.49319 0
M  V30 5086 C 497.87 -1.28256 1.62351 0
M  V30 5087 C 498.285 -1.86502 0.293682 0
M  V30 5088 O 497.642 -1.67678 -0.720449 0
M  V30 5089 C 497.693 -2.41507 2.68992 0
M  V30 5090 O 497.414 -1.85656 3.96817 0
M  V30 5091 C 498.915 -3.32929 2.927 0
M  V30 5092 H 496.135 -0.389115 0.546654 0
M  V30 5093 H 498.679 -0.605531 1.95329 0
M  V30 5094 H 496.834 -3.05046 2.38801 0
M  V30 5095 H 497.248 -2.59981 4.55533 0
M  V30 5096 H 498.722 -4.0868 3.71058 0
M  V30 5097 H 499.199 -3.89733 2.02496 0
M  V30 5098 H 499.805 -2.75158 3.24296 0
M  V30 5099 N 498.12 -1.38341 -0.754957 0
M  V30 5100 C 499.397 -1.24995 -1.50451 0
M  V30 5101 C 499.777 0.149244 -2.10572 0
M  V30 5102 O 499.125 1.15861 -1.96948 0
M  V30 5103 C 499.335 -2.35904 -2.57197 0
M  V30 5104 C 500.683 -2.74262 -3.24138 0
M  V30 5105 O 501.707 -2.35205 -2.67501 0
M  V30 5106 O 500.566 -3.4161 -4.26574 0
M  V30 5107 H 497.66 -0.48872 -0.667144 0
M  V30 5108 H 500.206 -1.50165 -0.790486 0
M  V30 5109 H 498.978 -3.2953 -2.11011 0
M  V30 5110 H 498.601 -2.12291 -3.36182 0
M  V30 5111 N 499.598 0.982988 -1.23187 0
M  V30 5112 C 500.847 1.71817 -1.05649 0
M  V30 5113 C 501.16 1.91315 0.407176 0
M  V30 5114 O 502.366 2.62256 0.702436 0
M  V30 5115 C 500.822 3.09188 -1.84203 0
M  V30 5116 C 500.43 2.97586 -3.34882 0
M  V30 5117 C 502.174 3.86684 -1.75146 0
M  V30 5118 C 500.081 4.30173 -4.05839 0
M  V30 5119 H 499.011 0.644258 -0.391724 0
M  V30 5120 H 501.662 1.09659 -1.4713 0
M  V30 5121 H 500.044 3.72087 -1.35527 0
M  V30 5122 H 501.218 2.43793 -3.91026 0
M  V30 5123 H 499.533 2.33567 -3.44725 0
M  V30 5124 H 502.13 4.84836 -2.25473 0
M  V30 5125 H 502.473 4.10136 -0.713737 0
M  V30 5126 H 503.006 3.30482 -2.21419 0
M  V30 5127 H 499.745 4.11918 -5.09906 0
M  V30 5128 H 499.265 4.83841 -3.54482 0
M  V30 5129 H 500.944 4.98873 -4.11989 0
M  V30 5130 N 501.076 1.04316 1.18135 0
M  V30 5131 C 502.039 0.640794 2.2006 0
M  V30 5132 C 503.039 -0.303124 1.57917 0
M  V30 5133 O 504.229 -0.0881855 1.73977 0
M  V30 5134 C 501.361 -0.060148 3.40847 0
M  V30 5135 H 502.554 1.54281 2.57172 0
M  V30 5136 H 500.107 0.836004 1.32063 0
M  V30 5137 H 500.842 -0.975845 3.0927 0
M  V30 5138 H 500.627 0.618319 3.87194 0
M  V30 5139 H 502.117 -0.328082 4.16309 0
M  V30 5140 N 502.554 -1.34406 0.822964 0
M  V30 5141 C 503.502 -2.31428 0.233165 0
M  V30 5142 C 504.496 -1.57404 -0.626118 0
M  V30 5143 O 505.702 -1.72402 -0.517453 0
M  V30 5144 H 502.077 -0.749863 0.0566557 0
M  V30 5145 H 504.048 -2.78699 1.06628 0
M  V30 5146 C 502.797 -3.42653 -0.590264 0
M  V30 5147 H 502.12 -3.99753 0.0616129 0
M  V30 5148 H 503.56 -4.12778 -0.969054 0
M  V30 5149 C 502.019 -2.87112 -1.76262 0
M  V30 5150 O 502.549 -2.81995 -2.8608 0
M  V30 5151 N 500.755 -2.43934 -1.57938 0
M  V30 5152 H 500.302 -2.48296 -0.686078 0
M  V30 5153 H 500.26 -2.07123 -2.36532 0
M  V30 5154 N 504.032 -0.577932 -1.46621 0
M  V30 5155 C 505.281 -0.0594281 -2.01612 0
M  V30 5156 C 505.594 1.30663 -1.45556 0
M  V30 5157 O 506.8 1.91621 -1.92337 0
M  V30 5158 C 505.256 -0.0556666 -3.59857 0
M  V30 5159 C 504.864 -1.41975 -4.24908 0
M  V30 5160 C 506.608 0.409143 -4.22524 0
M  V30 5161 C 504.515 -1.37397 -5.75218 0
M  V30 5162 H 503.445 -0.0184469 -0.753774 0
M  V30 5163 H 506.096 -0.728869 -1.68404 0
M  V30 5164 H 504.478 0.679843 -3.90121 0
M  V30 5165 H 505.652 -2.17461 -4.0626 0
M  V30 5166 H 503.967 -1.82419 -3.74316 0
M  V30 5167 H 506.564 0.46211 -5.32699 0
M  V30 5168 H 506.907 1.42565 -3.91128 0
M  V30 5169 H 507.44 -0.272152 -3.96868 0
M  V30 5170 H 504.179 -2.36714 -6.11267 0
M  V30 5171 H 503.699 -0.661239 -5.96144 0
M  V30 5172 H 505.378 -1.08484 -6.3784 0
M  V30 5173 N 505.51 1.54411 -0.315457 0
M  V30 5174 C 506.738 2.04833 0.291738 0
M  V30 5175 C 507.153 1.19203 1.46411 0
M  V30 5176 O 506.51 0.220867 1.81159 0
M  V30 5177 C 506.561 3.53969 0.73404 0
M  V30 5178 O 506.282 4.36346 -0.391682 0
M  V30 5179 C 507.783 4.2045 1.40489 0
M  V30 5180 H 505.003 0.668195 0.0612947 0
M  V30 5181 H 507.547 1.99276 -0.45929 0
M  V30 5182 H 505.702 3.5984 1.43506 0
M  V30 5183 H 506.116 5.24481 -0.0447088 0
M  V30 5184 H 507.59 5.26278 1.66539 0
M  V30 5185 H 508.067 3.71067 2.3496 0
M  V30 5186 H 508.673 4.18694 0.746662 0
M  V30 5187 N 506.988 0.0434614 1.5754 0
M  V30 5188 C 508.213 -0.645358 1.97104 0
M  V30 5189 C 508.638 -1.64037 0.920521 0
M  V30 5190 O 507.996 -1.80922 -0.11708 0
M  V30 5191 C 508.044 -1.31547 3.35749 0
M  V30 5192 O 507.148 -2.43103 3.33129 0
M  V30 5193 H 506.489 -0.168403 0.64229 0
M  V30 5194 H 509.019 0.109573 2.04306 0
M  V30 5195 H 509.029 -1.66895 3.72304 0
M  V30 5196 H 507.704 -0.586205 4.11748 0
M  V30 5197 H 506.281 -2.0976 3.0831 0
M  V30 5198 N 508.466 -1.55915 -0.229846 0
M  V30 5199 C 509.376 -1.94891 -1.30593 0
M  V30 5200 C 510.392 -0.851604 -1.51736 0
M  V30 5201 O 511.568 -1.15447 -1.65027 0
M  V30 5202 C 508.633 -2.25052 -2.63728 0
M  V30 5203 C 507.694 -3.48306 -2.5096 0
M  V30 5204 C 506.927 -3.77019 -3.77747 0
M  V30 5205 O 507.15 -3.07534 -4.80395 0
M  V30 5206 O 506.084 -4.70523 -3.75356 0
M  V30 5207 H 509.91 -2.86581 -1.00525 0
M  V30 5208 H 507.495 -1.43017 -0.432025 0
M  V30 5209 H 509.377 -2.45682 -3.42372 0
M  V30 5210 H 508.052 -1.36538 -2.93495 0
M  V30 5211 H 506.959 -3.32964 -1.70546 0
M  V30 5212 H 508.292 -4.37177 -2.26136 0
M  V30 5213 N 509.944 0.496216 -1.49584 0
M  V30 5214 C 510.892 1.61805 -1.67098 0
M  V30 5215 C 511.886 1.60667 -0.536877 0
M  V30 5216 O 513.092 1.65118 -0.716654 0
M  V30 5217 H 509.467 0.53646 -0.526986 0
M  V30 5218 H 511.438 1.44187 -2.61252 0
M  V30 5219 C 510.187 2.99912 -1.75921 0
M  V30 5220 H 509.51 3.01496 -2.62565 0
M  V30 5221 H 510.95 3.77931 -1.92209 0
M  V30 5222 C 509.409 3.33092 -0.505088 0
M  V30 5223 O 509.939 4.00019 0.367085 0
M  V30 5224 N 508.145 2.88278 -0.366599 0
M  V30 5225 H 507.692 2.33989 -1.07735 0
M  V30 5226 H 507.65 3.10846 0.47142 0
M  V30 5227 N 511.423 1.38739 0.74761 0
M  V30 5228 C 512.386 1.36241 1.84312 0
M  V30 5229 C 513.386 0.261811 1.58654 0
M  V30 5230 O 514.576 0.519031 1.66288 0
M  V30 5231 C 511.708 1.12253 3.21888 0
M  V30 5232 H 512.901 2.33712 1.87933 0
M  V30 5233 H 510.454 1.2412 0.949946 0
M  V30 5234 H 511.189 0.154133 3.23934 0
M  V30 5235 H 510.974 1.91943 3.41907 0
M  V30 5236 H 512.464 1.13215 4.0196 0
M  V30 5237 N 512.901 -0.976442 1.23707 0
M  V30 5238 C 513.864 -2.0511 1.02287 0
M  V30 5239 C 514.864 -1.60791 -0.0167195 0
M  V30 5240 O 516.054 -1.72761 0.223408 0
M  V30 5241 C 513.186 -3.36458 0.548507 0
M  V30 5242 H 514.379 -2.25545 1.9766 0
M  V30 5243 H 511.932 -1.15042 1.05806 0
M  V30 5244 H 512.667 -3.21713 -0.408818 0
M  V30 5245 H 512.452 -3.69967 1.29874 0
M  V30 5246 H 513.942 -4.15489 0.419406 0
M  V30 5247 N 514.379 -1.04941 -1.1758 0
M  V30 5248 C 515.326 -0.648155 -2.21512 0
M  V30 5249 C 516.296 0.348431 -1.62404 0
M  V30 5250 O 517.481 0.240419 -1.89279 0
M  V30 5251 C 514.621 -0.0264291 -3.4509 0
M  V30 5252 C 513.734 -1.07154 -4.185 0
M  V30 5253 C 512.869 -0.417403 -5.29558 0
M  V30 5254 C 511.908 -1.447 -5.94751 0
M  V30 5255 N 511.045 -0.817203 -6.97328 0
M  V30 5256 H 515.885 -1.53891 -2.55189 0
M  V30 5257 H 513.422 -0.769699 -1.25356 0
M  V30 5258 H 515.38 0.351456 -4.15717 0
M  V30 5259 H 514.01 0.827802 -3.12005 0
M  V30 5260 H 513.062 -1.56728 -3.46613 0
M  V30 5261 H 514.374 -1.8532 -4.63096 0
M  V30 5262 H 513.528 0.0142061 -6.06698 0
M  V30 5263 H 512.267 0.396265 -4.86087 0
M  V30 5264 H 511.272 -1.88865 -5.16343 0
M  V30 5265 H 512.497 -2.26252 -6.40302 0
M  V30 5266 H 510.443 -0.0239995 -6.55996 0
M  V30 5267 H 510.36 -1.53644 -7.40223 0
M  V30 5268 H 511.628 -0.410283 -7.7842 0
M  V30 5269 N 515.857 1.33968 -0.830081 0
M  V30 5270 C 516.789 2.28194 -0.21448 0
M  V30 5271 C 517.802 1.5135 0.599752 0
M  V30 5272 O 518.991 1.73286 0.42826 0
M  V30 5273 C 516.091 3.31221 0.717356 0
M  V30 5274 C 515.264 4.37365 -0.055613 0
M  V30 5275 C 514.323 5.2011 0.798231 0
M  V30 5276 O 513.349 5.68691 0.240616 0
M  V30 5277 N 514.551 5.40523 2.11695 0
M  V30 5278 H 517.316 2.81662 -1.02405 0
M  V30 5279 H 514.877 1.46568 -0.687713 0
M  V30 5280 H 516.869 3.83477 1.29334 0
M  V30 5281 H 515.439 2.78095 1.42765 0
M  V30 5282 H 514.659 3.85727 -0.812936 0
M  V30 5283 H 515.947 5.05397 -0.587444 0
M  V30 5284 H 515.345 5.0274 2.59363 0
M  V30 5285 H 513.902 5.95871 2.64162 0
M  V30 5286 N 517.335 0.585699 1.46312 0
M  V30 5287 C 518.265 -0.133556 2.33118 0
M  V30 5288 C 519.246 -0.880707 1.45525 0
M  V30 5289 O 520.431 -0.855579 1.74337 0
M  V30 5290 C 517.561 -1.14585 3.27853 0
M  V30 5291 C 516.515 -0.513341 4.2491 0
M  V30 5292 C 515.841 -1.63231 5.09175 0
M  V30 5293 C 517.141 0.551413 5.19381 0
M  V30 5294 H 518.835 0.59121 2.93505 0
M  V30 5295 H 516.381 0.285761 1.41136 0
M  V30 5296 H 518.334 -1.65741 3.87438 0
M  V30 5297 H 517.058 -1.90093 2.65579 0
M  V30 5298 H 515.717 -0.0228349 3.66593 0
M  V30 5299 H 515.365 -2.37713 4.43285 0
M  V30 5300 H 515.065 -1.21473 5.74907 0
M  V30 5301 H 516.589 -2.14658 5.71624 0
M  V30 5302 H 518.003 0.124804 5.73164 0
M  V30 5303 H 516.4 0.889486 5.93471 0
M  V30 5304 H 517.47 1.43655 4.63132 0
M  V30 5305 N 518.813 -1.54241 0.323641 0
M  V30 5306 C 520.061 -2.00174 -0.278359 0
M  V30 5307 C 520.382 -1.2134 -1.52648 0
M  V30 5308 O 519.652 -0.315244 -1.93347 0
M  V30 5309 H 518.232 -0.739463 -0.105845 0
M  V30 5310 H 520.894 -1.89864 0.440204 0
M  V30 5311 H 519.99 -3.07486 -0.5347 0
M  V30 5312 N 520.291 -0.0518155 -1.57515 0
M  V30 5313 C 521.54 0.621286 -1.91893 0
M  V30 5314 C 521.853 1.71966 -0.932052 0
M  V30 5315 O 523.059 2.45096 -1.16791 0
M  V30 5316 C 521.515 1.15641 -3.40816 0
M  V30 5317 C 521.123 0.0901146 -4.47909 0
M  V30 5318 C 522.867 1.80472 -3.84227 0
M  V30 5319 C 520.774 0.638154 -5.87947 0
M  V30 5320 H 519.704 0.235835 -0.716169 0
M  V30 5321 H 522.355 -0.120809 -1.83102 0
M  V30 5322 H 520.737 1.95084 -3.44613 0
M  V30 5323 H 521.911 -0.683525 -4.55702 0
M  V30 5324 H 520.226 -0.460774 -4.13843 0
M  V30 5325 H 522.823 2.22471 -4.86221 0
M  V30 5326 H 523.166 2.65669 -3.20508 0
M  V30 5327 H 523.699 1.07683 -3.82948 0
M  V30 5328 H 520.438 -0.176202 -6.55263 0
M  V30 5329 H 519.958 1.37976 -5.83714 0
M  V30 5330 H 521.637 1.12085 -6.37217 0
M  V30 5331 N 521.769 1.56035 0.221574 0
M  V30 5332 C 523.016 1.79047 0.94597 0
M  V30 5333 C 523.344 0.62057 1.84334 0
M  V30 5334 O 522.599 -0.395053 1.91671 0
M  V30 5335 C 522.898 3.07813 1.8162 0
M  V30 5336 C 522.564 4.3797 1.07206 0
M  V30 5337 C 521.226 4.73334 0.866508 0
M  V30 5338 C 523.578 5.18326 0.546565 0
M  V30 5339 C 520.906 5.8657 0.123549 0
M  V30 5340 C 523.258 6.32335 -0.18305 0
M  V30 5341 C 521.922 6.66301 -0.399861 0
M  V30 5342 H 521.192 0.655178 0.346155 0
M  V30 5343 H 523.839 1.90299 0.214146 0
M  V30 5344 H 522.144 2.91682 2.61589 0
M  V30 5345 H 523.841 3.2282 2.37884 0
M  V30 5346 H 520.431 4.10202 1.24226 0
M  V30 5347 H 524.615 4.9144 0.692847 0
M  V30 5348 H 519.871 6.11376 -0.0546591 0
M  V30 5349 H 524.045 6.9383 -0.59775 0
M  V30 5350 H 521.672 7.53889 -0.977489 0
M  V30 5351 N 523.247 -0.488276 1.49845 0
M  V30 5352 C 524.524 -1.24959 1.50481 0
M  V30 5353 C 524.904 -2.09735 0.239698 0
M  V30 5354 O 524.252 -2.14865 -0.777524 0
M  V30 5355 C 524.462 -2.0954 2.79095 0
M  V30 5356 C 525.81 -2.68305 3.29086 0
M  V30 5357 O 526.834 -2.19797 2.80299 0
M  V30 5358 O 525.693 -3.56643 4.14087 0
M  V30 5359 H 522.787 -0.566133 0.602845 0
M  V30 5360 H 525.333 -0.501504 1.6212 0
M  V30 5361 H 524.105 -1.46958 3.62656 0
M  V30 5362 H 523.728 -2.91517 2.70377 0
M  V30 5363 N 524.725 -1.39134 -0.740242 0
M  V30 5364 C 526.141 -1.20623 -1.0451 0
M  V30 5365 C 526.341 -0.0641651 -2.01398 0
M  V30 5366 O 525.397 0.585843 -2.4561 0
M  V30 5367 C 526.71 -2.53815 -1.6124 0
M  V30 5368 C 528.258 -2.60615 -1.73346 0
M  V30 5369 C 528.733 -3.94015 -2.33486 0
M  V30 5370 N 530.224 -3.95627 -2.40902 0
M  V30 5371 C 530.959 -4.95616 -2.88361 0
M  V30 5372 N 530.455 -6.06003 -3.35756 0
M  V30 5373 N 532.248 -4.82998 -2.87523 0
M  V30 5374 H 524.399 -2.12176 -0.0975576 0
M  V30 5375 H 526.662 -0.942066 -0.105904 0
M  V30 5376 H 526.368 -3.37911 -0.975144 0
M  V30 5377 H 526.242 -2.73162 -2.6012 0
M  V30 5378 H 528.629 -1.76906 -2.36195 0
M  V30 5379 H 528.71 -2.45123 -0.731336 0
M  V30 5380 H 528.354 -4.78153 -1.71267 0
M  V30 5381 H 528.284 -4.06825 -3.34366 0
M  V30 5382 H 530.775 -3.15903 -2.07398 0
M  V30 5383 H 531.088 -6.78215 -3.70464 0
M  V30 5384 H 529.433 -6.09604 -3.33778 0
M  V30 5385 H 532.624 -3.95866 -2.49816 0
M  V30 5386 H 532.797 -5.61072 -3.24196 0
M  V30 5387 N 526.204 0.969867 -1.24223 0
M  V30 5388 C 527.151 2.06407 -1.0327 0
M  V30 5389 C 528.121 1.66014 0.0533 0
M  V30 5390 O 529.306 1.90533 -0.100896 0
M  V30 5391 C 526.446 3.3909 -0.641262 0
M  V30 5392 C 525.559 3.9269 -1.80051 0
M  V30 5393 C 524.694 5.13631 -1.35486 0
M  V30 5394 C 523.733 5.59423 -2.48419 0
M  V30 5395 N 522.87 6.71586 -2.04737 0
M  V30 5396 H 527.71 2.23663 -1.96923 0
M  V30 5397 H 525.247 1.09624 -0.980862 0
M  V30 5398 H 527.205 4.15323 -0.395351 0
M  V30 5399 H 525.835 3.21765 0.258269 0
M  V30 5400 H 524.887 3.13116 -2.16014 0
M  V30 5401 H 526.199 4.22636 -2.64916 0
M  V30 5402 H 525.353 5.97231 -1.0677 0
M  V30 5403 H 524.092 4.85364 -0.476722 0
M  V30 5404 H 523.097 4.74398 -2.77897 0
M  V30 5405 H 524.322 5.89705 -3.36786 0
M  V30 5406 H 522.268 6.45058 -1.19318 0
M  V30 5407 H 522.185 7.0097 -2.83156 0
M  V30 5408 H 523.453 7.58633 -1.79154 0
M  V30 5409 N 527.682 1.05563 1.17022 0
M  V30 5410 C 528.93 0.76642 1.87004 0
M  V30 5411 C 529.251 -0.708854 1.8166 0
M  V30 5412 O 528.521 -1.51242 1.2451 0
M  V30 5413 H 527.101 0.280516 0.692329 0
M  V30 5414 H 529.763 1.33557 1.41945 0
M  V30 5415 H 528.859 1.08472 2.92644 0
M  V30 5416 N 529.16 -1.33526 0.837174 0
M  V30 5417 C 530.385 -2.0258 0.444545 0
M  V30 5418 C 530.81 -1.6258 -0.946006 0
M  V30 5419 O 530.168 -0.817548 -1.6182 0
M  V30 5420 C 530.216 -3.5605 0.571006 0
M  V30 5421 O 529.32 -4.10422 -0.403431 0
M  V30 5422 H 528.661 -0.638866 0.180958 0
M  V30 5423 H 531.191 -1.70462 1.13154 0
M  V30 5424 H 531.201 -4.05488 0.452024 0
M  V30 5425 H 529.876 -3.84509 1.58512 0
M  V30 5426 H 528.453 -3.72113 -0.242147 0
M  V30 5427 N 530.638 -0.59345 -1.46 0
M  V30 5428 C 531.884 -0.0832754 -2.02629 0
M  V30 5429 C 532.217 1.27749 -1.46266 0
M  V30 5430 O 531.492 1.8395 -0.631866 0
M  V30 5431 C 531.775 -0.0290756 -3.60088 0
M  V30 5432 C 531.628 -1.41951 -4.26814 0
M  V30 5433 C 532.947 0.666055 -4.35031 0
M  V30 5434 H 530.066 -0.031736 -0.736316 0
M  V30 5435 H 532.708 -0.762711 -1.74019 0
M  V30 5436 H 530.858 0.549532 -3.84594 0
M  V30 5437 H 532.53 -2.04411 -4.13538 0
M  V30 5438 H 530.773 -1.98422 -3.8576 0
M  V30 5439 H 531.444 -1.33395 -5.3564 0
M  V30 5440 H 533.92 0.174401 -4.15734 0
M  V30 5441 H 532.796 0.673041 -5.44758 0
M  V30 5442 H 533.057 1.72946 -4.06869 0
M  V30 5443 N 532.116 1.54067 -0.331816 0
M  V30 5444 C 533.344 2.05131 0.269996 0
M  V30 5445 C 533.759 1.20749 1.45138 0
M  V30 5446 O 533.116 0.240069 1.80914 0
M  V30 5447 C 533.167 3.54728 0.696456 0
M  V30 5448 O 532.888 4.35906 -0.43794 0
M  V30 5449 C 534.389 4.21916 1.36021 0
M  V30 5450 H 531.609 0.668807 0.0542042 0
M  V30 5451 H 534.153 1.98777 -0.4804 0
M  V30 5452 H 532.308 3.61342 1.39681 0
M  V30 5453 H 532.722 5.24404 -0.100334 0
M  V30 5454 H 534.196 5.28015 1.60947 0
M  V30 5455 H 534.673 3.73538 2.31011 0
M  V30 5456 H 535.279 4.19463 0.702212 0
M  V30 5457 N 533.594 0.0601682 1.57485 0
M  V30 5458 C 534.84 -0.612501 1.93329 0
M  V30 5459 C 535.173 -1.6996 0.939526 0
M  V30 5460 O 534.448 -1.94472 -0.0330957 0
M  V30 5461 C 534.731 -1.20025 3.39508 0
M  V30 5462 C 534.584 -0.12059 4.49638 0
M  V30 5463 C 535.903 -2.10923 3.86264 0
M  V30 5464 H 533.022 -0.221185 0.703027 0
M  V30 5465 H 535.664 0.123768 1.89596 0
M  V30 5466 H 533.814 -1.82774 3.42821 0
M  V30 5467 H 535.486 0.51185 4.58452 0
M  V30 5468 H 533.729 0.550251 4.30296 0
M  V30 5469 H 534.4 -0.572019 5.49028 0
M  V30 5470 H 536.876 -1.58124 3.84884 0
M  V30 5471 H 535.752 -2.48987 4.8918 0
M  V30 5472 H 536.013 -3.01292 3.23536 0
M  V30 5473 N 535.072 -1.5615 -0.213296 0
M  V30 5474 C 536.32 -1.79191 -0.934612 0
M  V30 5475 C 536.641 -0.630112 -1.84539 0
M  V30 5476 O 535.911 0.35257 -1.92701 0
M  V30 5477 H 534.491 -0.660937 -0.348097 0
M  V30 5478 H 537.153 -1.93618 -0.22317 0
M  V30 5479 H 536.249 -2.71656 -1.53654 0
M  V30 5480 N 536.55 0.480323 -1.50102 0
M  V30 5481 C 537.497 1.57946 -1.6829 0
M  V30 5482 C 538.467 1.57611 -0.524223 0
M  V30 5483 O 539.652 1.75282 -0.753709 0
M  V30 5484 C 536.792 2.95978 -1.77457 0
M  V30 5485 C 535.905 3.06173 -3.04766 0
M  V30 5486 C 535.04 4.35063 -3.04784 0
M  V30 5487 C 534.079 4.38966 -4.26586 0
M  V30 5488 N 533.216 5.59314 -4.24396 0
M  V30 5489 H 538.056 1.41743 -2.62131 0
M  V30 5490 H 535.593 0.689304 -1.2995 0
M  V30 5491 H 537.551 3.76011 -1.80752 0
M  V30 5492 H 536.181 3.10837 -0.870637 0
M  V30 5493 H 535.233 2.19071 -3.10986 0
M  V30 5494 H 536.545 3.04916 -3.9475 0
M  V30 5495 H 535.699 5.23436 -3.06757 0
M  V30 5496 H 534.438 4.38915 -2.12614 0
M  V30 5497 H 533.443 3.48992 -4.24835 0
M  V30 5498 H 534.668 4.36813 -5.19972 0
M  V30 5499 H 532.614 5.63969 -3.35074 0
M  V30 5500 H 532.531 5.5976 -5.08138 0
M  V30 5501 H 533.799 6.49837 -4.30502 0
M  V30 5502 N 538.028 1.39524 0.732853 0
M  V30 5503 C 539.305 1.27373 1.48444 0
M  V30 5504 C 539.685 -0.115725 2.10783 0
M  V30 5505 O 539.033 -1.12713 1.98766 0
M  V30 5506 C 539.243 2.39966 2.53412 0
M  V30 5507 C 540.591 2.79384 3.19733 0
M  V30 5508 O 541.615 2.39431 2.63725 0
M  V30 5509 O 540.474 3.48353 4.21085 0
M  V30 5510 H 537.568 0.499272 0.659285 0
M  V30 5511 H 540.114 1.51403 0.766496 0
M  V30 5512 H 538.886 3.32845 2.05742 0
M  V30 5513 H 538.509 2.17612 3.32762 0
M  V30 5514 N 539.506 -0.963266 1.24736 0
M  V30 5515 C 540.469 -2.04013 1.04457 0
M  V30 5516 C 541.469 -1.608 0.000335555 0
M  V30 5517 O 542.659 -1.72515 0.241719 0
M  V30 5518 C 539.791 -3.35858 0.584162 0
M  V30 5519 H 540.984 -2.23436 2.00041 0
M  V30 5520 H 538.537 -1.13914 1.07021 0
M  V30 5521 H 539.272 -3.22128 -0.374673 0
M  V30 5522 H 539.057 -3.68568 1.3379 0
M  V30 5523 H 540.547 -4.1502 0.463451 0
M  V30 5524 N 540.985 -1.06182 -1.16461 0
M  V30 5525 C 542.262 -0.691364 -1.82974 0
M  V30 5526 C 542.642 0.827377 -1.9421 0
M  V30 5527 O 541.99 1.73723 -1.48434 0
M  V30 5528 C 542.2 -1.39199 -3.20038 0
M  V30 5529 C 543.548 -1.53647 -3.95825 0
M  V30 5530 O 544.572 -1.35181 -3.29552 0
M  V30 5531 O 543.431 -1.83932 -5.14618 0
M  V30 5532 H 540.525 -0.244605 -0.789998 0
M  V30 5533 H 543.071 -1.16203 -1.23673 0
M  V30 5534 H 541.843 -2.42766 -3.06888 0
M  V30 5535 H 541.466 -0.911335 -3.87015 0
M  V30 5536 N 542.463 1.3308 -0.844243 0
M  V30 5537 C 543.393 2.3161 -0.296493 0
M  V30 5538 C 544.374 1.59215 0.598707 0
M  V30 5539 O 545.559 1.87077 0.521134 0
M  V30 5540 C 542.689 3.43313 0.524762 0
M  V30 5541 C 541.643 4.27115 -0.275106 0
M  V30 5542 C 540.969 5.30483 0.670236 0
M  V30 5543 C 542.269 5.00443 -1.49514 0
M  V30 5544 H 543.963 2.77672 -1.11976 0
M  V30 5545 H 541.509 1.33496 -0.539899 0
M  V30 5546 H 543.462 4.11273 0.918298 0
M  V30 5547 H 542.186 2.95952 1.3813 0
M  V30 5548 H 540.845 3.60787 -0.650267 0
M  V30 5549 H 540.493 4.79379 1.52332 0
M  V30 5550 H 540.193 5.87435 0.139123 0
M  V30 5551 H 541.717 6.01308 1.06117 0
M  V30 5552 H 543.131 5.61141 -1.17447 0
M  V30 5553 H 541.528 5.67071 -1.96343 0
M  V30 5554 H 542.598 4.28906 -2.26202 0
M  V30 5555 N 543.941 0.601185 1.45683 0
M  V30 5556 C 545.187 0.0940202 2.02582 0
M  V30 5557 C 545.52 -1.26972 1.46941 0
M  V30 5558 O 544.795 -1.83613 0.641612 0
M  V30 5559 C 545.078 0.0481715 3.60068 0
M  V30 5560 C 544.931 1.44212 4.26055 0
M  V30 5561 C 546.25 -0.642975 4.35378 0
M  V30 5562 H 543.369 0.0356404 0.736138 0
M  V30 5563 H 546.011 0.771929 1.73612 0
M  V30 5564 H 544.161 -0.529128 3.8488 0
M  V30 5565 H 545.833 2.06601 4.12449 0
M  V30 5566 H 544.076 2.00465 3.84703 0
M  V30 5567 H 544.747 1.36234 5.34925 0
M  V30 5568 H 547.223 -0.152351 4.15821 0
M  V30 5569 H 546.099 -0.644141 5.45107 0
M  V30 5570 H 546.36 -1.70785 4.0778 0
M  V30 5571 N 545.419 -1.53889 0.339982 0
M  V30 5572 C 546.668 -2.00035 -0.258604 0
M  V30 5573 C 546.981 -1.23179 -1.51942 0
M  V30 5574 O 548.187 -1.59784 -2.19503 0
M  V30 5575 C 546.643 -3.56249 -0.511359 0
M  V30 5576 C 546.251 -4.41957 0.733349 0
M  V30 5577 C 547.995 -4.1082 -1.069 0
M  V30 5578 C 545.902 -5.89673 0.451591 0
M  V30 5579 H 544.832 -0.747284 -0.10041 0
M  V30 5580 H 547.483 -1.77776 0.454758 0
M  V30 5581 H 545.865 -3.7456 -1.28533 0
M  V30 5582 H 547.039 -4.35421 1.50815 0
M  V30 5583 H 545.354 -3.9836 1.21237 0
M  V30 5584 H 547.951 -5.18789 -1.2947 0
M  V30 5585 H 548.294 -3.63817 -2.02343 0
M  V30 5586 H 548.827 -3.96205 -0.355817 0
M  V30 5587 H 545.566 -6.40903 1.37565 0
M  V30 5588 H 545.086 -5.99122 -0.285193 0
M  V30 5589 H 546.765 -6.46965 0.0675067 0
M  V30 5590 N 546.897 -0.0685191 -1.57451 0
M  V30 5591 C 548.143 0.602239 -1.93652 0
M  V30 5592 C 548.476 1.6946 -0.948526 0
M  V30 5593 O 547.751 1.94487 0.022782 0
M  V30 5594 C 548.034 1.18223 -3.4014 0
M  V30 5595 C 547.887 0.0967431 -4.49696 0
M  V30 5596 C 549.206 2.08872 -3.87377 0
M  V30 5597 H 546.325 0.217453 -0.70419 0
M  V30 5598 H 548.967 -0.133821 -1.89528 0
M  V30 5599 H 547.117 1.80953 -3.43785 0
M  V30 5600 H 548.789 -0.536155 -4.58174 0
M  V30 5601 H 547.032 -0.573063 -4.29998 0
M  V30 5602 H 547.703 0.542894 -5.49324 0
M  V30 5603 H 550.179 1.56081 -3.85717 0
M  V30 5604 H 549.055 2.46389 -4.90493 0
M  V30 5605 H 549.316 2.99572 -3.25129 0
M  V30 5606 N 548.375 1.56261 0.205012 0
M  V30 5607 C 549.6 1.84491 0.947512 0
M  V30 5608 C 550.025 0.650894 1.76479 0
M  V30 5609 O 549.383 -0.40035 1.76824 0
M  V30 5610 C 549.431 3.10863 1.82747 0
M  V30 5611 O 548.535 2.90719 2.925 0
M  V30 5612 H 547.876 0.607783 0.267386 0
M  V30 5613 H 550.406 2.03485 0.213323 0
M  V30 5614 H 550.416 3.41399 2.23407 0
M  V30 5615 H 549.091 3.97392 1.2269 0
M  V30 5616 H 547.668 2.71457 2.55667 0
M  V30 5617 N 549.853 -0.472356 1.50355 0
M  V30 5618 C 551.078 -1.25251 1.65309 0
M  V30 5619 C 551.503 -1.85081 0.335643 0
M  V30 5620 O 550.861 -1.67227 -0.700335 0
M  V30 5621 C 550.909 -2.3379 2.74544 0
M  V30 5622 O 550.013 -3.38401 2.35709 0
M  V30 5623 H 549.354 -0.368539 0.552336 0
M  V30 5624 H 551.884 -0.562271 1.96722 0
M  V30 5625 H 551.894 -2.79121 2.97583 0
M  V30 5626 H 550.569 -1.89614 3.70161 0
M  V30 5627 H 549.146 -2.9879 2.23112 0
M  V30 5628 N 551.331 -1.39911 -0.725443 0
M  V30 5629 C 552.608 -1.28158 -1.47766 0
M  V30 5630 C 552.988 0.104545 -2.10841 0
M  V30 5631 O 552.336 1.11657 -1.99361 0
M  V30 5632 C 552.546 -2.41306 -2.52135 0
M  V30 5633 C 553.894 -2.81076 -3.18247 0
M  V30 5634 O 554.918 -2.40827 -2.62452 0
M  V30 5635 O 553.777 -3.50581 -4.19231 0
M  V30 5636 H 550.871 -0.502761 -0.656628 0
M  V30 5637 H 553.417 -1.51808 -0.758456 0
M  V30 5638 H 552.189 -3.33932 -2.03974 0
M  V30 5639 H 551.812 -2.19374 -3.31603 0
M  V30 5640 N 552.809 0.956637 -1.25245 0
M  V30 5641 C 554.049 1.71585 -1.11076 0
M  V30 5642 C 554.413 1.88916 0.34277 0
M  V30 5643 O 555.614 2.61875 0.606227 0
M  V30 5644 C 553.885 3.06267 -1.84215 0
M  V30 5645 S 555.444 3.97469 -1.85914 0
M  V30 5646 H 552.262 0.589803 -0.397055 0
M  V30 5647 H 554.864 1.14114 -1.58739 0
M  V30 5648 H 553.568 2.91322 -2.89067 0
M  V30 5649 H 553.099 3.688 -1.36931 0
M  V30 5650 H 555.114 4.87316 -0.93474 0
M  V30 5651 N 554.287 1.06798 1.15896 0
M  V30 5652 C 555.197 0.694564 2.24083 0
M  V30 5653 C 556.213 -0.291687 1.71538 0
M  V30 5654 O 557.389 -0.139723 2.00915 0
M  V30 5655 C 554.454 0.0921014 3.46578 0
M  V30 5656 C 553.515 1.13087 4.14137 0
M  V30 5657 C 552.748 0.557064 5.30785 0
M  V30 5658 O 552.971 -0.628623 5.66925 0
M  V30 5659 O 551.905 1.29924 5.8771 0
M  V30 5660 H 555.731 1.59663 2.58344 0
M  V30 5661 H 553.316 0.840575 1.2351 0
M  V30 5662 H 555.198 -0.241884 4.20705 0
M  V30 5663 H 553.873 -0.78337 3.14078 0
M  V30 5664 H 552.78 1.51712 3.41957 0
M  V30 5665 H 554.113 1.97805 4.50704 0
M  V30 5666 N 555.766 -1.3263 0.851289 0
M  V30 5667 C 557.012 -1.9766 0.453694 0
M  V30 5668 C 557.345 -1.67225 -0.987396 0
M  V30 5669 O 556.62 -0.958693 -1.69232 0
M  V30 5670 C 556.903 -3.5344 0.68936 0
M  V30 5671 C 556.756 -3.93517 2.17862 0
M  V30 5672 C 558.075 -4.39866 0.143555 0
M  V30 5673 H 555.194 -0.717989 0.166314 0
M  V30 5674 H 557.836 -1.57068 1.06909 0
M  V30 5675 H 555.986 -3.88147 0.165546 0
M  V30 5676 H 557.658 -3.69006 2.76826 0
M  V30 5677 H 555.901 -3.42798 2.65841 0
M  V30 5678 H 556.572 -5.02065 2.29422 0
M  V30 5679 H 559.048 -4.11875 0.591451 0
M  V30 5680 H 557.924 -5.47858 0.338043 0
M  V30 5681 H 558.185 -4.31696 -0.953466 0
M  V30 5682 N 557.244 -0.608902 -1.45362 0
M  V30 5683 C 558.493 -0.10218 -2.01441 0
M  V30 5684 C 558.806 1.27546 -1.48295 0
M  V30 5685 O 560.012 1.87498 -1.96359 0
M  V30 5686 C 558.468 -0.131985 -3.59658 0
M  V30 5687 C 558.076 -1.50956 -4.21801 0
M  V30 5688 C 559.82 0.319427 -4.23296 0
M  V30 5689 C 557.727 -1.49568 -5.72174 0
M  V30 5690 H 556.657 -0.0344314 -0.753213 0
M  V30 5691 H 559.308 -0.764426 -1.6682 0
M  V30 5692 H 557.69 0.596939 -3.91475 0
M  V30 5693 H 558.864 -2.26029 -4.01556 0
M  V30 5694 H 557.179 -1.90318 -3.70362 0
M  V30 5695 H 559.776 0.349013 -5.3356 0
M  V30 5696 H 560.119 1.34237 -3.94064 0
M  V30 5697 H 560.652 -0.356273 -3.96201 0
M  V30 5698 H 557.391 -2.49626 -6.06108 0
M  V30 5699 H 556.911 -0.787542 -5.94607 0
M  V30 5700 H 558.59 -1.21989 -6.35396 0
M  V30 5701 N 558.722 1.53707 -0.348139 0
M  V30 5702 C 559.652 2.28111 0.498766 0
M  V30 5703 C 560.633 1.29851 1.09876 0
M  V30 5704 O 561.818 1.587 1.11928 0
M  V30 5705 C 558.948 3.05735 1.64753 0
M  V30 5706 C 557.902 4.11537 1.17565 0
M  V30 5707 C 557.228 4.77142 2.4133 0
M  V30 5708 C 558.528 5.21587 0.272844 0
M  V30 5709 H 560.222 2.99152 -0.121934 0
M  V30 5710 H 557.768 1.43875 -0.0600842 0
M  V30 5711 H 559.721 3.56526 2.24649 0
M  V30 5712 H 558.445 2.32354 2.2952 0
M  V30 5713 H 557.104 3.61665 0.599483 0
M  V30 5714 H 556.752 4.0035 3.04514 0
M  V30 5715 H 556.452 5.48626 2.10436 0
M  V30 5716 H 557.976 5.30719 3.01943 0
M  V30 5717 H 559.39 5.67986 0.778779 0
M  V30 5718 H 557.787 6.00074 0.0555849 0
M  V30 5719 H 558.857 4.79969 -0.689785 0
M  V30 5720 N 560.2 0.0768682 1.57412 0
M  V30 5721 C 561.428 -0.59997 1.9801 0
M  V30 5722 C 561.843 -1.62842 0.955408 0
M  V30 5723 O 561.2 -1.8241 -0.057314 0
M  V30 5724 C 561.251 -1.26401 3.38681 0
M  V30 5725 O 560.972 -0.276723 4.37225 0
M  V30 5726 C 562.473 -2.0282 3.94182 0
M  V30 5727 H 559.693 -0.162239 0.651091 0
M  V30 5728 H 562.237 0.150771 2.03943 0
M  V30 5729 H 560.392 -1.96581 3.33819 0
M  V30 5730 H 560.806 -0.753744 5.19056 0
M  V30 5731 H 562.28 -2.44667 4.94815 0
M  V30 5732 H 562.757 -2.88678 3.31001 0
M  V30 5733 H 563.363 -1.37496 4.02461 0
M  V30 5734 N 561.678 -1.56367 -0.196722 0
M  V30 5735 C 562.927 -1.79724 -0.915539 0
M  V30 5736 C 563.24 -0.649804 -1.84491 0
M  V30 5737 O 564.446 -0.767631 -2.60422 0
M  V30 5738 C 562.902 -3.18369 -1.67836 0
M  V30 5739 C 562.51 -4.4091 -0.793897 0
M  V30 5740 C 564.254 -3.51037 -2.38691 0
M  V30 5741 C 562.161 -5.70577 -1.55549 0
M  V30 5742 H 561.091 -0.67013 -0.345604 0
M  V30 5743 H 563.742 -1.82721 -0.168856 0
M  V30 5744 H 562.124 -3.09617 -2.46887 0
M  V30 5745 H 563.298 -4.60781 -0.042163 0
M  V30 5746 H 561.613 -4.15937 -0.19626 0
M  V30 5747 H 564.21 -4.4515 -2.96219 0
M  V30 5748 H 564.553 -2.74704 -3.12799 0
M  V30 5749 H 565.086 -3.61229 -1.66608 0
M  V30 5750 H 561.825 -6.49871 -0.857226 0
M  V30 5751 H 561.345 -5.54726 -2.2812 0
M  V30 5752 H 563.024 -6.11637 -2.10971 0
M  V30 5753 N 563.156 0.464375 -1.50603 0
M  V30 5754 C 564.396 1.22573 -1.6357 0
M  V30 5755 C 564.76 1.89111 -0.331834 0
M  V30 5756 O 565.961 2.66679 -0.336999 0
M  V30 5757 C 564.232 2.23643 -2.7878 0
M  V30 5758 S 565.791 3.08628 -3.1192 0
M  V30 5759 H 562.609 0.416058 -0.576556 0
M  V30 5760 H 565.211 0.521637 -1.88412 0
M  V30 5761 H 563.915 1.73354 -3.7199 0
M  V30 5762 H 563.446 2.98672 -2.56044 0
M  V30 5763 H 565.461 4.24904 -2.56264 0
M  V30 5764 N 564.634 1.40294 0.718013 0
M  V30 5765 C 566.05 1.2227 1.02577 0
M  V30 5766 C 566.25 0.0961976 2.0127 0
M  V30 5767 O 565.306 -0.546695 2.46511 0
M  V30 5768 C 566.619 2.56348 1.57182 0
M  V30 5769 C 568.167 2.6334 1.69178 0
M  V30 5770 C 568.642 3.9768 2.27188 0
M  V30 5771 N 570.133 3.99409 2.34578 0
M  V30 5772 C 570.868 5.00141 2.8044 0
M  V30 5773 N 570.364 6.11268 3.26073 0
M  V30 5774 N 572.157 4.87511 2.79802 0
M  V30 5775 H 564.308 2.12304 0.0637899 0
M  V30 5776 H 566.571 0.943632 0.0909036 0
M  V30 5777 H 566.277 3.3942 0.921262 0
M  V30 5778 H 566.151 2.77266 2.55741 0
M  V30 5779 H 568.538 1.80641 2.33351 0
M  V30 5780 H 568.619 2.46255 0.692247 0
M  V30 5781 H 568.263 4.80817 1.63638 0
M  V30 5782 H 568.193 4.12093 3.27852 0
M  V30 5783 H 570.684 3.19162 2.02346 0
M  V30 5784 H 570.997 6.84023 3.59628 0
M  V30 5785 H 569.342 6.14837 3.24038 0
M  V30 5786 H 572.533 3.9979 2.43487 0
M  V30 5787 H 572.706 5.66158 3.15228 0
M  V30 5788 N 566.112 -0.949982 1.2575 0
M  V30 5789 C 567.36 -1.6918 1.10555 0
M  V30 5790 C 567.681 -1.91773 -0.353298 0
M  V30 5791 O 566.951 -1.50814 -1.25027 0
M  V30 5792 H 565.531 -0.626952 0.406129 0
M  V30 5793 H 568.193 -1.1419 1.57945 0
M  V30 5794 H 567.289 -2.66915 1.61749 0
M  V30 5795 N 567.59 -1.07411 -1.15328 0
M  V30 5796 C 568.538 -0.689316 -2.22151 0
M  V30 5797 C 569.532 0.300156 -1.6672 0
M  V30 5798 O 570.738 0.163804 -1.79253 0
M  V30 5799 H 567.113 -0.204834 -0.723566 0
M  V30 5800 H 569.084 -1.59988 -2.51886 0
M  V30 5801 C 567.833 -0.103848 -3.47545 0
M  V30 5802 H 567.156 -0.856367 -3.90521 0
M  V30 5803 H 568.596 0.127725 -4.23808 0
M  V30 5804 C 567.055 1.15563 -3.1646 0
M  V30 5805 O 567.585 2.242 -3.33312 0
M  V30 5806 N 565.791 1.06203 -2.70498 0
M  V30 5807 H 565.338 0.177933 -2.56985 0
M  V30 5808 H 565.296 1.90553 -2.50074 0
M  V30 5809 N 569.068 1.32177 -0.85831 0
M  V30 5810 C 570.317 1.96392 -0.459689 0
M  V30 5811 C 570.63 1.68659 0.990632 0
M  V30 5812 O 571.836 2.26641 1.49485 0
M  V30 5813 C 570.292 3.51542 -0.7711 0
M  V30 5814 C 569.9 3.8813 -2.2374 0
M  V30 5815 C 571.644 4.2221 -0.44038 0
M  V30 5816 C 569.551 5.36341 -2.49183 0
M  V30 5817 H 568.481 0.735007 -0.168169 0
M  V30 5818 H 571.132 1.50518 -1.0496 0
M  V30 5819 H 569.514 3.95846 -0.11058 0
M  V30 5820 H 570.688 3.54824 -2.94001 0
M  V30 5821 H 569.003 3.30497 -2.533 0
M  V30 5822 H 571.6 5.31234 -0.607855 0
M  V30 5823 H 571.943 4.11683 0.618291 0
M  V30 5824 H 572.476 3.83502 -1.05695 0
M  V30 5825 H 569.215 5.51892 -3.53689 0
M  V30 5826 H 568.735 5.7104 -1.83504 0
M  V30 5827 H 570.414 6.03466 -2.33318 0
M  V30 5828 N 570.547 0.616602 1.45037 0
M  V30 5829 C 571.51 -0.0871112 2.29034 0
M  V30 5830 C 572.51 -0.786414 1.40258 0
M  V30 5831 O 573.7 -0.633207 1.62284 0
M  V30 5832 C 570.832 -1.13369 3.21497 0
M  V30 5833 H 572.025 0.651497 2.92738 0
M  V30 5834 H 569.578 0.376058 1.51709 0
M  V30 5835 H 570.313 -1.90277 2.62612 0
M  V30 5836 H 570.098 -0.636358 3.86902 0
M  V30 5837 H 571.588 -1.62627 3.84633 0
M  V30 5838 N 572.025 -1.5352 0.356285 0
M  V30 5839 C 573.272 -2.01117 -0.236303 0
M  V30 5840 C 573.6 -1.24381 -1.49531 0
M  V30 5841 O 572.855 -0.323057 -1.93015 0
M  V30 5842 C 573.154 -3.52607 -0.583369 0
M  V30 5843 C 572.82 -4.47151 0.58023 0
M  V30 5844 C 571.482 -4.72718 0.899528 0
M  V30 5845 C 573.834 -5.03137 1.36024 0
M  V30 5846 C 571.162 -5.51523 2.00098 0
M  V30 5847 C 573.514 -5.83145 2.45204 0
M  V30 5848 C 572.178 -6.07001 2.77679 0
M  V30 5849 H 571.448 -0.735938 -0.0864695 0
M  V30 5850 H 574.095 -1.85209 0.48683 0
M  V30 5851 H 572.4 -3.66413 -1.38739 0
M  V30 5852 H 574.097 -3.86901 -1.05397 0
M  V30 5853 H 570.687 -4.27394 0.321322 0
M  V30 5854 H 574.871 -4.83339 1.12682 0
M  V30 5855 H 570.127 -5.68229 2.25668 0
M  V30 5856 H 574.301 -6.25537 3.06067 0
M  V30 5857 H 571.928 -6.67851 3.63151 0
M  V30 5858 N 573.503 -0.0852151 -1.57369 0
M  V30 5859 C 574.752 0.580443 -1.93168 0
M  V30 5860 C 575.065 1.6995 -0.968319 0
M  V30 5861 O 576.271 2.42564 -1.21963 0
M  V30 5862 C 574.727 1.08386 -3.43192 0
M  V30 5863 C 574.335 -0.00491388 -4.48 0
M  V30 5864 C 576.079 1.72281 -3.87968 0
M  V30 5865 C 573.986 0.513299 -5.89168 0
M  V30 5866 H 572.916 0.22059 -0.72101 0
M  V30 5867 H 575.567 -0.159621 -1.82804 0
M  V30 5868 H 573.949 1.8773 -3.48674 0
M  V30 5869 H 575.123 -0.780032 -4.5415 0
M  V30 5870 H 573.438 -0.548453 -4.12772 0
M  V30 5871 H 576.035 2.12108 -4.9083 0
M  V30 5872 H 576.378 2.58811 -3.26071 0
M  V30 5873 H 576.911 0.995359 -3.85146 0
M  V30 5874 H 573.65 -0.315153 -6.54742 0
M  V30 5875 H 573.17 1.25564 -5.8651 0
M  V30 5876 H 574.849 0.985433 -6.39451 0
M  V30 5877 N 574.981 1.5647 0.188427 0
M  V30 5878 C 576.206 1.85486 0.927891 0
M  V30 5879 C 576.631 0.669575 1.75779 0
M  V30 5880 O 575.989 -0.381573 1.77239 0
M  V30 5881 C 576.037 3.12784 1.7944 0
M  V30 5882 O 575.141 2.93805 2.894 0
M  V30 5883 H 574.482 0.610585 0.260925 0
M  V30 5884 H 577.012 2.037 0.191729 0
M  V30 5885 H 577.022 3.43749 2.19774 0
M  V30 5886 H 575.697 3.98671 1.18468 0
M  V30 5887 H 574.274 2.74153 2.52774 0
M  V30 5888 N 576.459 -0.456382 1.50847 0
M  V30 5889 C 577.406 -1.55249 1.70782 0
M  V30 5890 C 578.376 -1.56757 0.549231 0
M  V30 5891 O 579.561 -1.74061 0.7815 0
M  V30 5892 C 576.701 -2.93118 1.82143 0
M  V30 5893 C 575.814 -3.01285 3.09598 0
M  V30 5894 C 574.949 -4.30159 3.11667 0
M  V30 5895 C 573.988 -4.32124 4.33515 0
M  V30 5896 N 573.125 -5.52492 4.3324 0
M  V30 5897 H 577.965 -1.37555 2.64353 0
M  V30 5898 H 575.502 -0.668543 1.3103 0
M  V30 5899 H 577.46 -3.73088 1.86711 0
M  V30 5900 H 576.09 -3.09413 0.919978 0
M  V30 5901 H 575.142 -2.14096 3.14431 0
M  V30 5902 H 576.454 -2.98597 3.99551 0
M  V30 5903 H 575.608 -5.18489 3.15046 0
M  V30 5904 H 574.347 -4.35477 2.1957 0
M  V30 5905 H 573.352 -3.42189 4.30333 0
M  V30 5906 H 574.577 -4.28485 5.26856 0
M  V30 5907 H 572.523 -5.58567 3.44004 0
M  V30 5908 H 572.44 -5.51605 5.16979 0
M  V30 5909 H 573.708 -6.42906 4.40786 0
M  V30 5910 N 577.937 -1.40673 -0.710563 0
M  V30 5911 C 578.847 -1.43663 -1.85467 0
M  V30 5912 C 579.863 -0.328721 -1.70867 0
M  V30 5913 O 581.039 -0.574098 -1.93044 0
M  V30 5914 C 578.104 -1.30226 -3.21313 0
M  V30 5915 C 577.165 -2.51204 -3.48131 0
M  V30 5916 C 576.398 -2.38398 -4.77495 0
M  V30 5917 O 576.621 -1.40048 -5.5294 0
M  V30 5918 O 575.555 -3.2787 -5.04762 0
M  V30 5919 H 579.381 -2.40156 -1.859 0
M  V30 5920 H 576.966 -1.22049 -0.861652 0
M  V30 5921 H 578.848 -1.2496 -4.02446 0
M  V30 5922 H 577.523 -0.368419 -3.21597 0
M  V30 5923 H 576.43 -2.62048 -2.66987 0
M  V30 5924 H 577.763 -3.43366 -3.52648 0
M  V30 5925 N 579.415 0.9433 -1.26252 0
M  V30 5926 C 580.378 2.02326 -1.07689 0
M  V30 5927 C 581.378 1.60779 -0.0259174 0
M  V30 5928 O 582.568 1.72108 -0.269134 0
M  V30 5929 C 579.7 3.34886 -0.63752 0
M  V30 5930 H 580.893 2.20225 -2.0357 0
M  V30 5931 H 578.446 1.12197 -1.08819 0
M  V30 5932 H 579.181 3.22684 0.323377 0
M  V30 5933 H 578.966 3.66393 -1.39637 0
M  V30 5934 H 580.456 4.14231 -0.529418 0
M  V30 5935 N 580.893 1.08022 1.14757 0
M  V30 5936 C 582.17 0.720386 1.81851 0
M  V30 5937 C 582.55 -0.796375 1.95502 0
M  V30 5938 O 581.898 -1.71339 1.51179 0
M  V30 5939 C 582.108 1.44273 3.17783 0
M  V30 5940 C 583.456 1.59925 3.93331 0
M  V30 5941 O 584.48 1.40407 3.2736 0
M  V30 5942 O 583.339 1.92096 5.11626 0
M  V30 5943 H 580.433 0.257142 0.786007 0
M  V30 5944 H 582.979 1.18155 1.21809 0
M  V30 5945 H 581.751 2.47618 3.02987 0
M  V30 5946 H 581.374 0.97279 3.85516 0
M  V30 5947 N 582.371 -1.3172 0.865308 0
M  V30 5948 C 583.303 -2.27545 0.274906 0
M  V30 5949 C 584.316 -1.52887 -0.559413 0
M  V30 5950 O 585.505 -1.74361 -0.382166 0
M  V30 5951 C 582.605 -3.33006 -0.629286 0
M  V30 5952 C 581.778 -4.37063 0.171553 0
M  V30 5953 C 580.837 -5.22044 -0.660052 0
M  V30 5954 O 579.863 -5.69129 -0.0897527 0
M  V30 5955 N 581.065 -5.45946 -1.97289 0
M  V30 5956 H 583.83 -2.78848 1.09836 0
M  V30 5957 H 581.391 -1.44693 0.726331 0
M  V30 5958 H 583.383 -3.86772 -1.19121 0
M  V30 5959 H 581.953 -2.81782 -1.35342 0
M  V30 5960 H 581.173 -3.83436 0.914919 0
M  V30 5961 H 582.461 -5.03662 0.721235 0
M  V30 5962 H 581.859 -5.0944 -2.45942 0
M  V30 5963 H 580.416 -6.02665 -2.4827 0
M  V30 5964 N 583.85 -0.624285 -1.44708 0
M  V30 5965 C 585.099 -0.123539 -2.01321 0
M  V30 5966 C 585.412 1.25966 -1.49639 0
M  V30 5967 O 586.618 1.85405 -1.98336 0
M  V30 5968 C 585.074 -0.170124 -3.59498 0
M  V30 5969 C 584.682 -1.55421 -4.20176 0
M  V30 5970 C 586.426 0.274513 -4.23611 0
M  V30 5971 C 584.332 -1.55628 -5.70556 0
M  V30 5972 H 583.263 -0.0424183 -0.752806 0
M  V30 5973 H 585.913 -0.782076 -1.65999 0
M  V30 5974 H 584.296 0.555385 -3.92086 0
M  V30 5975 H 585.47 -2.30276 -3.99136 0
M  V30 5976 H 583.784 -1.94235 -3.68323 0
M  V30 5977 H 586.382 0.292402 -5.339 0
M  V30 5978 H 586.725 1.3005 -3.95465 0
M  V30 5979 H 587.258 -0.398275 -3.95801 0
M  V30 5980 H 583.997 -2.56041 -6.03426 0
M  V30 5981 H 583.517 -0.850563 -5.93739 0
M  V30 5982 H 585.196 -1.28721 -6.34066 0
M  V30 5983 O 585.367 1.53348 -0.50662 0
M  V30 5984 H 586.058 1.93698 0.00952266 0
M  V30 END ATOM
M  V30 BEGIN BOND
M  V30 END BOND
M  V30 END CTAB
M  END
$$$$
