drugbank_target|O34453 Nitric oxide synthase oxygenase (DB02031; DB03144)
 OpenBabel12092119543D

  0  0  0     0  0            999 V3000
M  V30 BEGIN CTAB
M  V30 COUNTS 5833 5909 0 0 0
M  V30 BEGIN ATOM
M  V30 1 H -0.908 1.98254 -0.117106 0
M  V30 2 N 0 1.576 0 0
M  V30 3 C 0.933 2.03868 1.02534 0
M  V30 4 C 1.911 0.928543 1.3348 0
M  V30 5 O 3.095 1.19667 1.45644 0
M  V30 6 C 0.222 2.43627 2.35294 0
M  V30 7 C -0.732 3.65373 2.2001 0
M  V30 8 S 0.101 5.13292 1.52614 0
M  V30 9 C 1.257 5.56322 2.86805 0
M  V30 10 H 1.49 2.90518 0.631377 0
M  V30 11 H -0.977 1.52953 0.210867 0
M  V30 12 H 0.981 2.67203 3.11629 0
M  V30 13 H -0.358 1.57376 2.7183 0
M  V30 14 H -1.165 3.90944 3.18086 0
M  V30 15 H -1.563 3.418 1.51819 0
M  V30 16 H 0.729 5.58782 3.83104 0
M  V30 17 H 1.672 6.56266 2.65933 0
M  V30 18 H 2.08 4.83886 2.90714 0
M  V30 19 N 1.4781 -0.272755 1.55222 0
M  V30 20 C 2.3881 -1.35918 1.91216 0
M  V30 21 C 3.4041 -1.54026 0.809436 0
M  V30 22 O 4.5801 -1.68148 1.10852 0
M  V30 23 C 1.6451 -2.69834 2.17693 0
M  V30 24 C 0.7061 -2.6047 3.41253 0
M  V30 25 C -0.0609 -3.88 3.66458 0
M  V30 26 O 0.1621 -4.88693 2.94169 0
M  V30 27 O -0.9039 -3.88189 4.59992 0
M  V30 28 H 2.9221 -1.0839 2.83699 0
M  V30 29 H 0.5071 -0.471301 1.41771 0
M  V30 30 H 2.3891 -3.49017 2.36147 0
M  V30 31 H 1.0641 -2.97148 1.28392 0
M  V30 32 H -0.0289 -1.79663 3.28134 0
M  V30 33 H 1.3041 -2.38106 4.30774 0
M  V30 34 N 2.9562 -1.48159 -0.537278 0
M  V30 35 C 3.8662 -1.64807 -1.6696 0
M  V30 36 C 4.8822 -0.530651 -1.65711 0
M  V30 37 O 6.0582 -0.800784 -1.84796 0
M  V30 38 C 3.1232 -1.67708 -3.03438 0
M  V30 39 C 2.1842 -2.91025 -3.156 0
M  V30 40 C 1.4172 -2.93778 -4.45567 0
M  V30 41 O 1.6402 -2.05153 -5.3223 0
M  V30 42 O 0.5742 -3.85868 -4.61941 0
M  V30 43 H 4.4002 -2.6066 -1.55853 0
M  V30 44 H 1.9852 -1.31475 -0.709549 0
M  V30 45 H 3.8672 -1.7218 -3.84619 0
M  V30 46 H 2.5422 -0.750278 -3.14885 0
M  V30 47 H 1.4492 -2.92089 -2.33741 0
M  V30 48 H 2.7822 -3.83065 -3.09066 0
M  V30 49 N 4.4343 0.785586 -1.36625 0
M  V30 50 C 5.3813 1.89838 -1.31264 0
M  V30 51 C 6.3513 1.65115 -0.180633 0
M  V30 52 O 7.5363 1.87222 -0.36777 0
M  V30 53 C 4.6763 3.26706 -1.11163 0
M  V30 54 C 3.7893 3.63476 -2.33472 0
M  V30 55 C 2.9243 4.89481 -2.06353 0
M  V30 56 C 1.9633 5.18941 -3.24602 0
M  V30 57 N 1.1003 6.36131 -2.97123 0
M  V30 58 H 5.9403 1.93756 -2.26413 0
M  V30 59 H 3.4773 0.947454 -1.12524 0
M  V30 60 H 5.4353 4.05639 -0.975337 0
M  V30 61 H 4.0653 3.222 -0.196674 0
M  V30 62 H 3.1173 2.79636 -2.57891 0
M  V30 63 H 4.4293 3.81193 -3.21704 0
M  V30 64 H 3.5833 5.76288 -1.89675 0
M  V30 65 H 2.3223 4.73841 -1.15437 0
M  V30 66 H 1.3273 4.30615 -3.41834 0
M  V30 67 H 2.5523 5.36498 -4.16349 0
M  V30 68 H 0.4983 6.21875 -2.08823 0
M  V30 69 H 0.4153 6.54198 -3.78894 0
M  V30 70 H 1.6833 7.2591 -2.84033 0
M  V30 71 N 5.9124 1.20967 1.01018 0
M  V30 72 C 6.8224 0.980157 2.13143 0
M  V30 73 C 7.8384 -0.0660665 1.73875 0
M  V30 74 O 9.0144 0.122821 2.01025 0
M  V30 75 C 6.0794 0.54216 3.42435 0
M  V30 76 C 5.1404 1.65999 3.95908 0
M  V30 77 C 4.3734 1.2428 5.19028 0
M  V30 78 O 4.5964 0.114196 5.70286 0
M  V30 79 O 3.5304 2.05271 5.65816 0
M  V30 80 H 7.3564 1.91913 2.35379 0
M  V30 81 H 4.9414 0.994099 1.11526 0
M  V30 82 H 6.8234 0.30744 4.20277 0
M  V30 83 H 5.4984 -0.36815 3.216 0
M  V30 84 H 4.4054 1.94906 3.19316 0
M  V30 85 H 5.7384 2.54753 4.21143 0
M  V30 86 N 7.3905 -1.2043 1.01659 0
M  V30 87 C 8.6395 -1.89118 0.701237 0
M  V30 88 C 8.9525 -1.79705 -0.772358 0
M  V30 89 O 10.1585 -2.43528 -1.20026 0
M  V30 90 C 8.6145 -3.39168 1.20388 0
M  V30 91 C 8.2225 -3.57166 2.70438 0
M  V30 92 C 9.9665 -4.1341 0.963953 0
M  V30 93 C 7.8735 -5.01042 3.14183 0
M  V30 94 H 6.8035 -0.708267 0.2586 0
M  V30 95 H 9.4545 -1.36239 1.22927 0
M  V30 96 H 7.8365 -3.91369 0.603824 0
M  V30 97 H 9.0105 -3.15351 3.35992 0
M  V30 98 H 7.3255 -2.96294 2.92572 0
M  V30 99 H 9.9225 -5.19491 1.26621 0
M  V30 100 H 10.2655 -4.16181 -0.099578 0
M  V30 101 H 10.7985 -3.67309 1.52738 0
M  V30 102 H 7.5375 -5.03426 4.19812 0
M  V30 103 H 7.0575 -5.43668 2.53348 0
M  V30 104 H 8.7365 -5.69623 3.0682 0
M  V30 105 N 8.8686 -0.792821 -1.36206 0
M  V30 106 C 9.7986 -0.207853 -2.32573 0
M  V30 107 C 10.7796 0.659055 -1.56813 0
M  V30 108 O 11.9646 0.592176 -1.84951 0
M  V30 109 C 9.0946 0.655449 -3.41059 0
M  V30 110 C 8.0486 -0.111842 -4.27854 0
M  V30 111 C 7.3746 0.872274 -5.27537 0
M  V30 112 C 8.6746 -1.30299 -5.05786 0
M  V30 113 H 10.3686 -1.01294 -2.81744 0
M  V30 114 H 7.9146 -0.48854 -1.3546 0
M  V30 115 H 9.8676 1.07464 -4.07467 0
M  V30 116 H 8.5916 1.49328 -2.90463 0
M  V30 117 H 7.2506 -0.512053 -3.63006 0
M  V30 118 H 6.8986 1.70523 -4.73214 0
M  V30 119 H 6.5986 0.363291 -5.86476 0
M  V30 120 H 8.1226 1.28996 -5.96818 0
M  V30 121 H 9.5366 -0.959379 -5.65216 0
M  V30 122 H 7.9336 -1.7455 -5.74154 0
M  V30 123 H 9.0036 -2.09663 -4.37229 0
M  V30 124 N 10.3467 1.47872 -0.545128 0
M  V30 125 C 11.5927 2.03385 -0.0247951 0
M  V30 126 C 11.9477 1.41325 1.30556 0
M  V30 127 O 11.2407 0.5552 1.8338 0
M  V30 128 C 11.4347 3.57131 0.13867 0
M  V30 129 C 11.2637 4.34097 -1.17429 0
M  V30 130 C 10.0337 4.74458 -1.73831 0
M  V30 131 C 12.2317 4.6998 -2.08861 0
M  V30 132 N 10.2137 5.3602 -2.99258 0
M  V30 133 C 11.5847 5.31719 -3.18866 0
M  V30 134 C 13.6397 4.5191 -2.09003 0
M  V30 135 C 12.3427 5.77295 -4.29096 0
M  V30 136 C 14.3687 4.98477 -3.18237 0
M  V30 137 C 13.7307 5.60253 -4.26961 0
M  V30 138 H 9.8297 0.780339 -0.050943 0
M  V30 139 H 12.4137 1.80507 -0.729753 0
M  V30 140 H 10.5847 3.79802 0.812733 0
M  V30 141 H 12.3167 3.99282 0.659976 0
M  V30 142 H 9.0717 4.56037 -1.2778 0
M  V30 143 H 9.4957 5.71355 -3.63157 0
M  V30 144 H 14.1377 4.03516 -1.26234 0
M  V30 145 H 11.8557 6.24687 -5.12633 0
M  V30 146 H 15.4417 4.86274 -3.1942 0
M  V30 147 H 14.3217 5.95631 -5.10091 0
M  V30 148 N 11.8248 0.280983 1.55075 0
M  V30 149 C 12.7728 -0.619864 2.24188 0
M  V30 150 C 13.7668 -1.15315 1.24092 0
M  V30 151 O 14.9728 -1.1061 1.42005 0
M  V30 152 H 11.3478 -0.218459 0.719569 0
M  V30 153 H 13.3188 -0.0141831 2.98397 0
M  V30 154 C 12.0678 -1.7899 2.98091 0
M  V30 155 H 11.3908 -1.38874 3.74905 0
M  V30 156 H 12.8308 -2.39672 3.49762 0
M  V30 157 C 11.2898 -2.68192 2.03899 0
M  V30 158 O 11.8198 -3.6872 1.594 0
M  V30 159 N 10.0258 -2.35488 1.70275 0
M  V30 160 H 9.5728 -1.53787 2.06658 0
M  V30 161 H 9.5308 -2.95442 1.07524 0
M  V30 162 N 13.3029 -1.57598 0.00835791 0
M  V30 163 C 14.2129 -2.12385 -0.996487 0
M  V30 164 C 15.2289 -1.07108 -1.37127 0
M  V30 165 O 16.4049 -1.39055 -1.4569 0
M  V30 166 C 13.4699 -2.62314 -2.26699 0
M  V30 167 C 12.5309 -3.82225 -1.95456 0
M  V30 168 C 11.7639 -4.29763 -3.16449 0
M  V30 169 O 11.9869 -3.76584 -4.28416 0
M  V30 170 O 10.9209 -5.21832 -2.99958 0
M  V30 171 H 14.7469 -2.98479 -0.560725 0
M  V30 172 H 12.3319 -1.47903 -0.210987 0
M  V30 173 H 14.2139 -2.94589 -3.01322 0
M  V30 174 H 12.8889 -1.79313 -2.69497 0
M  V30 175 H 11.7959 -3.54909 -1.18282 0
M  V30 176 H 13.1289 -4.66324 -1.57489 0
M  V30 177 N 14.781 0.264519 -1.55364 0
M  V30 178 C 15.744 1.31046 -1.88042 0
M  V30 179 C 16.744 1.41943 -0.755569 0
M  V30 180 O 17.934 1.40947 -1.02369 0
M  V30 181 C 15.066 2.69067 -2.09323 0
M  V30 182 H 16.259 1.03297 -2.81549 0
M  V30 183 H 13.812 0.502989 -1.47986 0
M  V30 184 H 14.547 3.01982 -1.18226 0
M  V30 185 H 14.332 2.62542 -2.91229 0
M  V30 186 H 15.822 3.44623 -2.35848 0
M  V30 187 N 16.2591 1.48442 0.529413 0
M  V30 188 C 17.2061 1.63007 1.63394 0
M  V30 189 C 18.1761 0.47212 1.59249 0
M  V30 190 O 19.3611 0.695673 1.77666 0
M  V30 191 C 16.5011 1.6763 3.01653 0
M  V30 192 C 15.6141 2.94535 3.16027 0
M  V30 193 C 14.7491 2.90316 4.44849 0
M  V30 194 C 13.7881 4.11923 4.52754 0
M  V30 195 N 12.9251 4.05777 5.72965 0
M  V30 196 H 17.7651 2.5733 1.50285 0
M  V30 197 H 15.3021 1.27613 0.731656 0
M  V30 198 H 17.2601 1.68292 3.81751 0
M  V30 199 H 15.8901 0.76797 3.13532 0
M  V30 200 H 14.9421 3.03615 2.29177 0
M  V30 201 H 16.2541 3.84512 3.17729 0
M  V30 202 H 15.4081 2.89382 5.33238 0
M  V30 203 H 14.1471 1.98068 4.45668 0
M  V30 204 H 13.1521 4.13131 3.62771 0
M  V30 205 H 14.3771 5.0533 4.53672 0
M  V30 206 H 12.3231 3.16351 5.74681 0
M  V30 207 H 12.2401 4.8946 5.76164 0
M  V30 208 H 13.5081 4.08904 6.6364 0
M  V30 209 N 17.7372 -0.778329 1.37039 0
M  V30 210 C 18.7002 -1.87301 1.32102 0
M  V30 211 C 19.7002 -1.59198 0.226405 0
M  V30 212 O 20.8902 -1.67403 0.481861 0
M  V30 213 C 18.0222 -3.24309 1.05055 0
M  V30 214 H 19.2152 -1.93093 2.29467 0
M  V30 215 H 16.7682 -0.977358 1.21973 0
M  V30 216 H 17.5032 -3.24196 0.0819373 0
M  V30 217 H 17.2882 -3.46098 1.84279 0
M  V30 218 H 18.7782 -4.04382 1.04234 0
M  V30 219 N 19.2153 -1.21501 -1.00376 0
M  V30 220 C 20.4623 -1.03299 -1.74171 0
M  V30 221 C 20.7903 0.433326 -1.89612 0
M  V30 222 O 20.0453 1.33779 -1.42834 0
M  V30 223 C 20.3443 -1.67673 -3.15627 0
M  V30 224 C 20.0103 -3.17533 -3.2013 0
M  V30 225 C 18.6723 -3.58427 -3.21067 0
M  V30 226 C 21.0243 -4.13504 -3.17275 0
M  V30 227 C 18.3523 -4.93794 -3.16835 0
M  V30 228 C 20.7043 -5.48834 -3.14585 0
M  V30 229 C 19.3683 -5.89123 -3.13831 0
M  V30 230 H 18.6383 -0.377999 -0.637336 0
M  V30 231 H 21.2853 -1.51111 -1.17634 0
M  V30 232 H 19.5903 -1.12158 -3.75404 0
M  V30 233 H 21.2873 -1.51091 -3.71446 0
M  V30 234 H 17.8773 -2.84965 -3.20145 0
M  V30 235 H 22.0613 -3.82936 -3.15711 0
M  V30 236 H 17.3173 -5.24255 -3.1459 0
M  V30 237 H 21.4913 -6.22934 -3.1133 0
M  V30 238 H 19.1183 -6.93984 -3.10307 0
M  V30 239 N 20.6934 1.19889 -1.02296 0
M  V30 240 C 21.9424 1.88743 -0.711257 0
M  V30 241 C 22.2554 1.80112 0.762817 0
M  V30 242 O 23.4614 2.44161 1.18733 0
M  V30 243 C 21.9174 3.38525 -1.22185 0
M  V30 244 C 21.5254 3.55727 -2.72328 0
M  V30 245 C 23.2694 4.12893 -0.985864 0
M  V30 246 C 21.1764 4.99369 -3.16835 0
M  V30 247 H 20.1064 0.706885 -0.262353 0
M  V30 248 H 22.7574 1.35586 -1.23648 0
M  V30 249 H 21.1394 3.91044 -0.624571 0
M  V30 250 H 22.3134 3.13564 -3.3766 0
M  V30 251 H 20.6284 2.94739 -2.9414 0
M  V30 252 H 23.2254 5.18813 -1.29374 0
M  V30 253 H 23.5684 4.16228 0.0775055 0
M  V30 254 H 24.1014 3.66494 -1.54684 0
M  V30 255 H 20.8404 5.01193 -4.22476 0
M  V30 256 H 20.3604 5.42317 -2.56228 0
M  V30 257 H 22.0394 5.67988 -3.09837 0
M  V30 258 N 22.1715 0.800033 1.35784 0
M  V30 259 C 23.1345 0.211565 2.28221 0
M  V30 260 C 24.1345 -0.59728 1.49296 0
M  V30 261 O 25.3245 -0.416721 1.69142 0
M  V30 262 C 22.4565 -0.705846 3.33513 0
M  V30 263 H 23.6495 1.02677 2.81776 0
M  V30 264 H 21.2025 0.570211 1.45528 0
M  V30 265 H 21.9375 -1.54498 2.85133 0
M  V30 266 H 21.7225 -0.127655 3.91892 0
M  V30 267 H 23.2125 -1.11211 4.02519 0
M  V30 268 N 23.6496 -1.47581 0.552962 0
M  V30 269 C 24.6126 -2.28439 -0.186605 0
M  V30 270 C 25.6126 -1.36706 -0.84665 0
M  V30 271 O 26.8026 -1.59378 -0.703164 0
M  V30 272 C 23.9346 -3.16264 -1.2724 0
M  V30 273 H 25.1276 -2.95294 0.523609 0
M  V30 274 H 22.6806 -1.532 0.309745 0
M  V30 275 H 23.4156 -2.54091 -2.01514 0
M  V30 276 H 23.2006 -3.83769 -0.803968 0
M  V30 277 H 24.6906 -3.77198 -1.79196 0
M  V30 278 N 25.1277 -0.289203 -1.54924 0
M  V30 279 C 26.3677 0.324536 -2.01807 0
M  V30 280 C 26.7317 1.5199 -1.17316 0
M  V30 281 O 27.9327 2.20422 -1.53843 0
M  V30 282 C 26.2037 0.683578 -3.50802 0
M  V30 283 S 27.7627 1.28185 -4.19659 0
M  V30 284 H 24.5807 0.100236 -0.703899 0
M  V30 285 H 27.1827 -0.414325 -1.91059 0
M  V30 286 H 25.8867 -0.195073 -4.09936 0
M  V30 287 H 25.4177 1.45354 -3.65562 0
M  V30 288 H 27.4327 2.57006 -4.24456 0
M  V30 289 N 26.6058 1.57591 -0.0167156 0
M  V30 290 C 27.8358 1.95292 0.674149 0
M  V30 291 C 28.2438 0.891097 1.66901 0
M  V30 292 O 27.5868 -0.136908 1.83189 0
M  V30 293 C 27.6488 3.29072 1.44747 0
M  V30 294 C 27.3128 4.52879 0.612331 0
M  V30 295 C 28.3098 5.1979 -0.107126 0
M  V30 296 C 25.9948 4.99242 0.553381 0
M  V30 297 C 27.9888 6.31375 -0.874339 0
M  V30 298 C 25.6758 6.10713 -0.217546 0
M  V30 299 C 26.6738 6.76637 -0.930123 0
M  V30 300 O 26.3618 7.85969 -1.68844 0
M  V30 301 H 26.0938 0.648275 0.191615 0
M  V30 302 H 28.6478 2.05284 -0.0690148 0
M  V30 303 H 26.8778 3.15535 2.2355 0
M  V30 304 H 28.5668 3.51764 2.02526 0
M  V30 305 H 29.3328 4.84948 -0.0708392 0
M  V30 306 H 25.2118 4.47744 1.09757 0
M  V30 307 H 28.7558 6.82764 -1.43106 0
M  V30 308 H 24.6528 6.44994 -0.255593 0
M  V30 309 H 25.4208 8.02571 -1.6069 0
M  V30 310 N 28.0839 -0.256276 1.55502 0
M  V30 311 C 29.0159 -1.33981 1.85962 0
M  V30 312 C 30.0289 -1.44743 0.745212 0
M  V30 313 O 31.2179 -1.4626 1.02324 0
M  V30 314 C 28.3179 -2.7194 2.02242 0
M  V30 315 C 27.4909 -2.83562 3.33033 0
M  V30 316 C 26.5499 -4.02304 3.39172 0
M  V30 317 O 25.5759 -3.92273 4.12444 0
M  V30 318 N 26.7779 -5.15045 2.67784 0
M  V30 319 H 29.5429 -1.08191 2.7949 0
M  V30 320 H 27.1039 -0.446388 1.55624 0
M  V30 321 H 29.0959 -3.49697 2.03701 0
M  V30 322 H 27.6659 -2.90479 1.15502 0
M  V30 323 H 26.8859 -1.92555 3.43971 0
M  V30 324 H 28.1739 -2.88271 4.19258 0
M  V30 325 H 27.5719 -5.26085 2.07968 0
M  V30 326 H 26.1289 -5.90972 2.74947 0
M  V30 327 N 29.562 -1.4872 -0.521534 0
M  V30 328 C 30.472 -1.66569 -1.65203 0
M  V30 329 C 31.488 -0.548197 -1.65139 0
M  V30 330 O 32.664 -0.820339 -1.83936 0
M  V30 331 C 29.729 -1.70917 -3.01642 0
M  V30 332 C 28.79 -2.94356 -3.12495 0
M  V30 333 C 28.023 -2.98487 -4.42426 0
M  V30 334 O 28.246 -2.10786 -5.30024 0
M  V30 335 O 27.18 -3.90746 -4.57822 0
M  V30 336 H 31.006 -2.62298 -1.5308 0
M  V30 337 H 28.591 -1.3222 -0.695565 0
M  V30 338 H 30.473 -1.7625 -3.82771 0
M  V30 339 H 29.148 -0.783633 -3.14071 0
M  V30 340 H 28.055 -2.94552 -2.3063 0
M  V30 341 H 29.388 -3.86322 -3.04986 0
M  V30 342 N 31.0401 0.771051 -1.3745 0
M  V30 343 C 31.9701 1.89827 -1.3597 0
M  V30 344 C 32.9511 1.68562 -0.228216 0
M  V30 345 O 34.1361 1.8941 -0.428675 0
M  V30 346 C 31.2661 3.2712 -1.16662 0
M  V30 347 C 30.2201 3.6295 -2.2683 0
M  V30 348 C 29.5461 4.98791 -1.92644 0
M  V30 349 C 30.8461 3.69627 -3.69017 0
M  V30 350 H 32.5401 1.91323 -2.30295 0
M  V30 351 H 30.0861 0.919082 -1.10855 0
M  V30 352 H 32.0391 4.05615 -1.14256 0
M  V30 353 H 30.7631 3.26059 -0.187926 0
M  V30 354 H 29.4221 2.86763 -2.28392 0
M  V30 355 H 29.0701 4.94271 -0.933021 0
M  V30 356 H 28.7701 5.23733 -2.66416 0
M  V30 357 H 30.2941 5.79685 -1.91826 0
M  V30 358 H 31.7081 4.38273 -3.69581 0
M  V30 359 H 30.1051 4.06067 -4.41848 0
M  V30 360 H 31.1751 2.70273 -4.02592 0
M  V30 361 N 32.5182 1.22032 0.997298 0
M  V30 362 C 33.7662 1.04016 1.73278 0
M  V30 363 C 34.0872 -0.426255 1.90284 0
M  V30 364 O 33.3572 -1.30694 1.45931 0
M  V30 365 H 31.9372 0.381897 0.642 0
M  V30 366 H 34.5992 1.5347 1.20137 0
M  V30 367 H 33.6952 1.51441 2.72896 0
M  V30 368 N 33.9963 -1.19345 1.0293 0
M  V30 369 C 34.9433 -2.2258 0.610464 0
M  V30 370 C 35.9133 -1.6179 -0.375946 0
M  V30 371 O 37.0983 -1.88844 -0.272511 0
M  V30 372 C 34.2383 -3.45085 -0.0321473 0
M  V30 373 C 33.3513 -4.20258 1.00035 0
M  V30 374 C 32.4863 -5.3019 0.32746 0
M  V30 375 C 31.5253 -5.97121 1.34584 0
M  V30 376 N 30.6623 -6.98615 0.698726 0
M  V30 377 H 35.5023 -2.57764 1.49538 0
M  V30 378 H 33.0393 -1.26644 0.748311 0
M  V30 379 H 34.9973 -4.15061 -0.421966 0
M  V30 380 H 33.6273 -3.10555 -0.88064 0
M  V30 381 H 32.6793 -3.49223 1.50823 0
M  V30 382 H 33.9913 -4.66175 1.77433 0
M  V30 383 H 33.1453 -6.06587 -0.11718 0
M  V30 384 H 31.8843 -4.85345 -0.478713 0
M  V30 385 H 30.8893 -5.19474 1.80074 0
M  V30 386 H 32.1143 -6.4405 2.15352 0
M  V30 387 H 30.0603 -6.55942 -0.0873471 0
M  V30 388 H 29.9773 -7.42724 1.41058 0
M  V30 389 H 31.2453 -7.79004 0.278102 0
M  V30 390 N 35.4744 -0.807222 -1.35358 0
M  V30 391 C 36.3844 -0.219594 -2.3357 0
M  V30 392 C 37.4004 0.637734 -1.61892 0
M  V30 393 O 38.5764 0.549336 -1.93763 0
M  V30 394 C 35.6414 0.62158 -3.41083 0
M  V30 395 C 34.7024 -0.256315 -4.28534 0
M  V30 396 C 33.9354 0.544807 -5.30912 0
M  V30 397 O 34.1584 1.77944 -5.41934 0
M  V30 398 O 33.0924 -0.0646478 -6.01865 0
M  V30 399 H 36.9184 -1.03208 -2.85625 0
M  V30 400 H 34.5034 -0.569025 -1.38139 0
M  V30 401 H 36.3854 1.10067 -4.06772 0
M  V30 402 H 35.0604 1.41165 -2.91297 0
M  V30 403 H 33.9674 -0.782559 -3.65823 0
M  V30 404 H 35.3004 -1.01034 -4.81719 0
M  V30 405 N 36.9525 1.47285 -0.560781 0
M  V30 406 C 37.8625 2.33846 0.187954 0
M  V30 407 C 38.8785 1.48412 0.908293 0
M  V30 408 O 40.0545 1.81332 0.876388 0
M  V30 409 C 37.1195 3.25178 1.2025 0
M  V30 410 C 36.1805 4.26504 0.489208 0
M  V30 411 C 35.4135 5.13472 1.45542 0
M  V30 412 O 35.6365 5.02959 2.6905 0
M  V30 413 O 34.5705 5.93902 0.977963 0
M  V30 414 H 38.3965 2.99177 -0.522177 0
M  V30 415 H 35.9815 1.45903 -0.321364 0
M  V30 416 H 37.8635 3.81584 1.78805 0
M  V30 417 H 36.5385 2.6247 1.89449 0
M  V30 418 H 35.4455 3.73847 -0.137627 0
M  V30 419 H 36.7785 4.91935 -0.161399 0
M  V30 420 N 38.4306 0.297415 1.54768 0
M  V30 421 C 39.3406 -0.58983 2.27064 0
M  V30 422 C 40.3566 -1.15144 1.30453 0
M  V30 423 O 41.5326 -1.17699 1.63428 0
M  V30 424 C 38.5976 -1.74714 2.9946 0
M  V30 425 C 37.6586 -1.21997 4.11601 0
M  V30 426 C 36.8916 -2.32212 4.80535 0
M  V30 427 O 37.1146 -3.52036 4.48806 0
M  V30 428 O 36.0486 -1.99106 5.68014 0
M  V30 429 H 39.8746 -0.00348199 3.037 0
M  V30 430 H 37.4596 0.0640035 1.49263 0
M  V30 431 H 39.3416 -2.42147 3.44881 0
M  V30 432 H 38.0166 -2.32016 2.25722 0
M  V30 433 H 36.9236 -0.511458 3.70587 0
M  V30 434 H 38.2566 -0.692419 4.87305 0
M  V30 435 N 39.9087 -1.5758 0.0250728 0
M  V30 436 C 41.1547 -1.91917 -0.655413 0
M  V30 437 C 41.4877 -0.901433 -1.72011 0
M  V30 438 O 40.7627 0.0764069 -1.9435 0
M  V30 439 C 41.0457 -3.36751 -1.27558 0
M  V30 440 C 40.8987 -4.49258 -0.220719 0
M  V30 441 C 42.2177 -3.81469 -2.19475 0
M  V30 442 H 39.3367 -0.697925 -0.23679 0
M  V30 443 H 41.9787 -1.89825 0.0815036 0
M  V30 444 H 40.1287 -3.38664 -1.90365 0
M  V30 445 H 41.8007 -4.59478 0.409601 0
M  V30 446 H 40.0437 -4.31415 0.454264 0
M  V30 447 H 40.7147 -5.47618 -0.694175 0
M  V30 448 H 43.1907 -3.81266 -1.66659 0
M  V30 449 H 42.0667 -4.83512 -2.59822 0
M  V30 450 H 42.3277 -3.16744 -3.08424 0
M  V30 451 N 41.3868 0.248026 -1.55636 0
M  V30 452 C 42.3338 1.30707 -1.90222 0
M  V30 453 C 43.3038 1.47881 -0.756332 0
M  V30 454 O 44.4888 1.61883 -1.00988 0
M  V30 455 C 41.6288 2.65769 -2.20138 0
M  V30 456 C 40.7418 2.56612 -3.47526 0
M  V30 457 C 39.8768 3.8402 -3.67017 0
M  V30 458 C 38.9158 3.69476 -4.8801 0
M  V30 459 N 38.0528 4.88774 -5.04029 0
M  V30 460 H 42.8928 1.00512 -2.80538 0
M  V30 461 H 40.4298 0.485055 -1.38873 0
M  V30 462 H 42.3878 3.44386 -2.35487 0
M  V30 463 H 41.0178 2.94115 -1.33027 0
M  V30 464 H 40.0698 1.69571 -3.40514 0
M  V30 465 H 41.3818 2.41774 -4.36287 0
M  V30 466 H 40.5358 4.7108 -3.8232 0
M  V30 467 H 39.2748 4.01754 -2.76487 0
M  V30 468 H 38.2798 2.80799 -4.72686 0
M  V30 469 H 39.5048 3.53238 -5.8 0
M  V30 470 H 37.4508 5.0687 -4.16435 0
M  V30 471 H 37.3678 4.76562 -5.86877 0
M  V30 472 H 38.6358 5.77335 -5.23741 0
M  V30 473 N 42.8649 1.48995 0.513639 0
M  V30 474 C 44.1419 1.48338 1.27495 0
M  V30 475 C 44.5219 0.204065 2.10111 0
M  V30 476 O 43.8699 -0.813881 2.13514 0
M  V30 477 C 44.0799 2.75498 2.14247 0
M  V30 478 C 45.4279 3.24484 2.73852 0
M  V30 479 O 46.4519 2.76528 2.24523 0
M  V30 480 O 45.3109 4.07974 3.6362 0
M  V30 481 H 42.4049 0.593149 0.576284 0
M  V30 482 H 44.9509 1.61246 0.528948 0
M  V30 483 H 43.7229 3.60109 1.53092 0
M  V30 484 H 43.3459 2.6539 2.96064 0
M  V30 485 N 44.343 -0.763751 1.37857 0
M  V30 486 C 45.759 -1.06542 1.18832 0
M  V30 487 C 45.959 -2.01478 0.0299722 0
M  V30 488 O 45.015 -2.4458 -0.627447 0
M  V30 489 C 46.328 -1.65525 2.51042 0
M  V30 490 C 47.876 -1.77745 2.57635 0
M  V30 491 C 48.351 -2.4014 3.89996 0
M  V30 492 N 49.842 -2.47582 3.91481 0
M  V30 493 C 50.577 -2.96732 4.9065 0
M  V30 494 N 50.073 -3.45993 6.00217 0
M  V30 495 N 51.866 -2.95679 4.78048 0
M  V30 496 H 44.017 -0.133556 2.1198 0
M  V30 497 H 46.28 -0.121879 0.940133 0
M  V30 498 H 45.986 -1.03236 3.36207 0
M  V30 499 H 45.86 -2.64719 2.68707 0
M  V30 500 H 48.247 -2.39164 1.72872 0
M  V30 501 H 48.328 -0.772836 2.43846 0
M  V30 502 H 47.972 -1.79358 4.75177 0
M  V30 503 H 47.902 -3.41223 4.01092 0
M  V30 504 H 50.393 -2.1273 3.12337 0
M  V30 505 H 50.706 -3.81922 6.7183 0
M  V30 506 H 49.051 -3.44077 6.03851 0
M  V30 507 H 52.242 -2.56499 3.91568 0
M  V30 508 H 52.415 -3.33672 5.55488 0
M  V30 509 N 45.8211 -1.22559 -0.990812 0
M  V30 510 C 46.7511 -1.0218 -2.09956 0
M  V30 511 C 47.7321 0.0579394 -1.70001 0
M  V30 512 O 48.9171 -0.104684 -1.93918 0
M  V30 513 C 46.0471 -0.601023 -3.4206 0
M  V30 514 C 45.0011 -1.62694 -3.95872 0
M  V30 515 C 44.3271 -1.06193 -5.24049 0
M  V30 516 C 45.6271 -3.01743 -4.2632 0
M  V30 517 H 47.3211 -1.94916 -2.27262 0
M  V30 518 H 44.8671 -0.938566 -1.09211 0
M  V30 519 H 46.8201 -0.445561 -4.19038 0
M  V30 520 H 45.5441 0.362005 -3.24588 0
M  V30 521 H 44.2031 -1.77021 -3.21028 0
M  V30 522 H 43.8511 -0.0901903 -5.02919 0
M  V30 523 H 43.5511 -1.74732 -5.61019 0
M  V30 524 H 45.0751 -0.918092 -6.03658 0
M  V30 525 H 46.4891 -2.90777 -4.94087 0
M  V30 526 H 44.8861 -3.67425 -4.74467 0
M  V30 527 H 45.9561 -3.51518 -3.34011 0
M  V30 528 N 47.2992 1.18797 -1.03562 0
M  V30 529 C 48.2622 2.20464 -0.626769 0
M  V30 530 C 49.2622 1.57721 0.313173 0
M  V30 531 O 50.4522 1.73917 0.0992615 0
M  V30 532 C 47.5842 3.40802 0.0818498 0
M  V30 533 H 48.7772 2.58149 -1.5264 0
M  V30 534 H 46.3302 1.32593 -0.827578 0
M  V30 535 H 47.0652 3.08642 0.995518 0
M  V30 536 H 46.8502 3.8758 -0.593652 0
M  V30 537 H 48.3402 4.16092 0.354584 0
M  V30 538 N 48.7773 0.814389 1.34928 0
M  V30 539 C 50.0543 0.321363 1.92942 0
M  V30 540 C 50.4343 -1.19014 1.74353 0
M  V30 541 O 49.7823 -1.99328 1.11716 0
M  V30 542 C 49.9923 0.741323 3.41036 0
M  V30 543 C 51.3403 0.735266 4.18185 0
M  V30 544 O 52.3643 0.68336 3.49584 0
M  V30 545 O 51.2233 0.800703 5.40602 0
M  V30 546 H 48.3173 0.0858893 0.822528 0
M  V30 547 H 50.8633 0.898609 1.43955 0
M  V30 548 H 49.6353 1.78276 3.4833 0
M  V30 549 H 49.2583 0.139307 3.97356 0
M  V30 550 N 50.2554 -1.46986 0.568584 0
M  V30 551 C 51.5044 -2.01646 0.0465894 0
M  V30 552 C 51.8174 -1.44721 -1.31587 0
M  V30 553 O 53.0234 -1.91113 -1.92842 0
M  V30 554 C 51.4794 -3.59885 0.032752 0
M  V30 555 C 51.0874 -4.25804 1.39266 0
M  V30 556 C 52.8314 -4.22255 -0.436038 0
M  V30 557 C 50.7384 -5.76081 1.33732 0
M  V30 558 H 49.6684 -0.753876 0.013647 0
M  V30 559 H 52.3194 -1.68864 0.718131 0
M  V30 560 H 50.7014 -3.8968 -0.704669 0
M  V30 561 H 51.8754 -4.07637 2.1487 0
M  V30 562 H 50.1904 -3.7547 1.80032 0
M  V30 563 H 52.7874 -5.32394 -0.49602 0
M  V30 564 H 53.1304 -3.90212 -1.45053 0
M  V30 565 H 53.6634 -3.97033 0.246877 0
M  V30 566 H 50.4024 -6.12761 2.32817 0
M  V30 567 H 49.9224 -5.96553 0.623267 0
M  V30 568 H 51.6014 -6.38518 1.0442 0
M  V30 569 N 51.7335 -0.305618 -1.54608 0
M  V30 570 C 52.6805 0.568421 -2.23691 0
M  V30 571 C 53.6505 1.12592 -1.22116 0
M  V30 572 O 54.8355 1.16959 -1.50749 0
M  V30 573 C 51.9755 1.7322 -2.98477 0
M  V30 574 C 51.0885 1.20566 -4.14835 0
M  V30 575 C 50.2235 2.33368 -4.77193 0
M  V30 576 C 49.2625 1.7787 -5.85686 0
M  V30 577 N 48.3995 2.84263 -6.4198 0
M  V30 578 H 53.2395 -0.0272867 -2.97988 0
M  V30 579 H 50.7765 -0.0252363 -1.47078 0
M  V30 580 H 52.7345 2.41675 -3.40072 0
M  V30 581 H 51.3645 2.29947 -2.26548 0
M  V30 582 H 50.4165 0.413223 -3.78149 0
M  V30 583 H 51.7285 0.759417 -4.92985 0
M  V30 584 H 50.8825 3.09761 -5.21664 0
M  V30 585 H 49.6215 2.8132 -3.98385 0
M  V30 586 H 48.6265 0.99968 -5.40635 0
M  V30 587 H 49.8515 1.30816 -6.66381 0
M  V30 588 H 47.7975 3.31541 -5.66053 0
M  V30 589 H 47.7145 2.44149 -7.15491 0
M  V30 590 H 48.9825 3.6054 -6.91109 0
M  V30 591 N 53.2116 1.57565 -0.0334293 0
M  V30 592 C 54.4366 1.96689 0.657895 0
M  V30 593 C 54.8616 0.910057 1.64619 0
M  V30 594 O 54.2196 -0.128598 1.80843 0
M  V30 595 C 54.2676 3.34905 1.33683 0
M  V30 596 O 53.3716 3.31574 2.45219 0
M  V30 597 H 52.7126 0.641205 0.172489 0
M  V30 598 H 55.2426 2.04372 -0.0965621 0
M  V30 599 H 55.2526 3.71234 1.69262 0
M  V30 600 H 53.9276 4.11366 0.612411 0
M  V30 601 H 52.5046 3.06968 2.11719 0
M  V30 602 N 54.6897 -0.239769 1.55765 0
M  V30 603 C 55.5997 -1.31831 1.94056 0
M  V30 604 C 56.6157 -1.52275 0.841925 0
M  V30 605 O 57.7917 -1.65759 1.14394 0
M  V30 606 C 54.8567 -2.65156 2.23368 0
M  V30 607 C 53.9177 -2.53173 3.46701 0
M  V30 608 C 53.1507 -3.8014 3.74606 0
M  V30 609 O 53.3737 -4.82343 3.04469 0
M  V30 610 O 52.3077 -3.78344 4.68123 0
M  V30 611 H 56.1337 -1.02347 2.85935 0
M  V30 612 H 53.7187 -0.441123 1.42739 0
M  V30 613 H 55.6007 -3.43929 2.43497 0
M  V30 614 H 54.2757 -2.94358 1.34666 0
M  V30 615 H 53.1827 -1.72662 3.31871 0
M  V30 616 H 54.5157 -2.28915 4.35728 0
M  V30 617 N 56.1678 -1.49265 -0.50573 0
M  V30 618 C 57.4168 -1.57761 -1.25675 0
M  V30 619 C 57.7298 -0.267371 -1.93764 0
M  V30 620 O 58.9358 -0.230827 -2.70517 0
M  V30 621 C 57.3918 -2.78332 -2.28165 0
M  V30 622 C 56.9998 -4.16096 -1.66037 0
M  V30 623 C 58.7438 -2.96155 -3.04125 0
M  V30 624 C 56.6508 -5.27895 -2.6661 0
M  V30 625 H 55.5808 -0.587391 -0.472745 0
M  V30 626 H 58.2318 -1.75644 -0.53118 0
M  V30 627 H 56.6138 -2.53934 -3.03865 0
M  V30 628 H 57.7878 -4.50612 -0.963622 0
M  V30 629 H 56.1028 -4.03591 -1.02484 0
M  V30 630 H 58.6998 -3.76849 -3.79327 0
M  V30 631 H 59.0428 -2.06534 -3.61455 0
M  V30 632 H 59.5758 -3.2057 -2.35541 0
M  V30 633 H 56.3148 -6.1956 -2.14068 0
M  V30 634 H 55.8348 -4.97839 -3.34539 0
M  V30 635 H 57.5138 -5.57031 -3.29129 0
M  V30 636 N 57.6459 0.756429 -1.3826 0
M  V30 637 C 58.9229 1.50584 -1.24835 0
M  V30 638 C 59.3029 2.10556 0.151485 0
M  V30 639 O 58.6509 1.96825 1.1607 0
M  V30 640 C 58.8609 2.57448 -2.3563 0
M  V30 641 C 60.2089 3.24429 -2.73917 0
M  V30 642 O 61.2329 2.67751 -2.34921 0
M  V30 643 O 60.0919 4.26937 -3.41156 0
M  V30 644 H 57.1859 0.667664 -0.48801 0
M  V30 645 H 59.7319 0.792083 -1.5008 0
M  V30 646 H 58.5039 2.11362 -3.29305 0
M  V30 647 H 58.1269 3.36408 -2.11933 0
M  V30 648 N 59.124 1.23083 0.984299 0
M  V30 649 C 60.054 1.03292 2.09411 0
M  V30 650 C 61.035 -0.048923 1.7003 0
M  V30 651 O 62.22 0.114967 1.93859 0
M  V30 652 C 59.35 0.619155 3.41736 0
M  V30 653 C 58.304 1.64791 3.95004 0
M  V30 654 C 57.63 1.0897 5.23478 0
M  V30 655 C 58.93 3.03999 4.24714 0
M  V30 656 H 60.624 1.96119 2.26225 0
M  V30 657 H 58.17 0.944344 1.08711 0
M  V30 658 H 60.123 0.467777 4.18796 0
M  V30 659 H 58.847 -0.344786 3.24775 0
M  V30 660 H 57.506 1.78721 3.20085 0
M  V30 661 H 57.154 0.11686 5.02864 0
M  V30 662 H 56.854 1.77704 5.60085 0
M  V30 663 H 58.378 0.950093 6.03163 0
M  V30 664 H 59.792 2.93393 4.92538 0
M  V30 665 H 58.189 3.69936 4.72512 0
M  V30 666 H 59.259 3.53285 3.32142 0
M  V30 667 N 60.6021 -1.18246 1.0419 0
M  V30 668 C 61.8301 -1.92195 0.766072 0
M  V30 669 C 62.2451 -1.76247 -0.676933 0
M  V30 670 O 61.6021 -1.09293 -1.46155 0
M  V30 671 C 61.6531 -3.43568 1.12442 0
M  V30 672 O 61.3741 -3.59015 2.51078 0
M  V30 673 C 62.8751 -4.34613 0.873275 0
M  V30 674 H 60.0951 -0.610114 0.279288 0
M  V30 675 H 62.6391 -1.50007 1.38989 0
M  V30 676 H 60.7941 -3.8354 0.545542 0
M  V30 677 H 61.2081 -4.5273 2.64831 0
M  V30 678 H 62.6821 -5.39374 1.17385 0
M  V30 679 H 63.1591 -4.38781 -0.191909 0
M  V30 680 H 63.7651 -4.00341 1.43551 0
M  V30 681 N 62.0802 -0.821533 -1.34494 0
M  V30 682 C 63.3282 -0.408139 -1.97936 0
M  V30 683 C 63.6492 1.03193 -1.65457 0
M  V30 684 O 62.9192 1.71622 -0.944595 0
M  V30 685 H 61.4992 -0.147928 -0.732206 0
M  V30 686 H 64.1612 -1.05067 -1.64155 0
M  V30 687 H 63.2572 -0.52601 -3.07635 0
M  V30 688 N 63.5583 1.46682 -0.576371 0
M  V30 689 C 64.7833 2.07304 -0.0630475 0
M  V30 690 C 65.2083 1.42329 1.2298 0
M  V30 691 O 64.5663 0.504865 1.74129 0
M  V30 692 C 64.6143 3.60472 0.095895 0
M  V30 693 O 63.7183 3.95927 1.15394 0
M  V30 694 H 63.0593 0.661288 -0.0599463 0
M  V30 695 H 65.5893 1.88417 -0.797511 0
M  V30 696 H 65.5993 4.06865 0.304071 0
M  V30 697 H 64.2743 4.07157 -0.84828 0
M  V30 698 H 62.8513 3.61252 0.924724 0
M  V30 699 N 65.0364 0.313813 1.54444 0
M  V30 700 C 66.2664 -0.293491 2.04505 0
M  V30 701 C 66.6744 -1.47086 1.19005 0
M  V30 702 O 66.0174 -1.82481 0.211257 0
M  V30 703 C 66.0794 -0.800455 3.50475 0
M  V30 704 C 65.7434 0.253322 4.56297 0
M  V30 705 C 66.7404 1.08612 5.08428 0
M  V30 706 C 64.4254 0.398708 5.00715 0
M  V30 707 C 66.4194 2.05013 6.0353 0
M  V30 708 C 64.1064 1.36614 5.95634 0
M  V30 709 C 65.1044 2.19033 6.46926 0
M  V30 710 O 64.7924 3.14134 7.39983 0
M  V30 711 H 64.5244 -0.0658325 0.672787 0
M  V30 712 H 67.0784 0.455177 2.00293 0
M  V30 713 H 65.3084 -1.59987 3.52053 0
M  V30 714 H 66.9974 -1.32504 3.83663 0
M  V30 715 H 67.7634 0.984736 4.74898 0
M  V30 716 H 63.6424 -0.23289 4.60411 0
M  V30 717 H 67.1864 2.69382 6.4349 0
M  V30 718 H 63.0834 1.4682 6.28581 0
M  V30 719 H 63.8514 3.0926 7.57826 0
M  V30 720 N 66.5145 -1.57545 0.0417849 0
M  V30 721 C 67.7605 -1.92601 -0.635021 0
M  V30 722 C 68.0935 -0.919627 -1.71045 0
M  V30 723 O 67.3685 0.0557892 -1.9442 0
M  V30 724 C 67.6515 -3.38085 -1.23979 0
M  V30 725 C 67.5045 -4.49467 -0.173057 0
M  V30 726 C 68.8235 -3.83776 -2.15416 0
M  V30 727 H 65.9425 -0.700397 -0.229374 0
M  V30 728 H 68.5845 -1.89728 0.101633 0
M  V30 729 H 66.7345 -3.40664 -1.86762 0
M  V30 730 H 68.4065 -4.59018 0.458312 0
M  V30 731 H 66.6495 -4.30909 0.499996 0
M  V30 732 H 67.3205 -5.48323 -0.636054 0
M  V30 733 H 69.7965 -3.83013 -1.62605 0
M  V30 734 H 68.6725 -4.8624 -2.54679 0
M  V30 735 H 68.9335 -3.19998 -3.05047 0
M  V30 736 N 67.9926 0.231505 -1.5589 0
M  V30 737 C 68.9426 1.29007 -1.87993 0
M  V30 738 C 69.9266 1.42764 -0.742102 0
M  V30 739 O 71.1186 1.45747 -1.00433 0
M  V30 740 C 68.2476 2.6425 -2.1915 0
M  V30 741 C 67.3336 2.54435 -3.39299 0
M  V30 742 N 67.7246 2.14262 -4.58176 0
M  V30 743 C 66.0226 2.85416 -3.42715 0
M  V30 744 C 66.7236 2.15455 -5.40328 0
M  V30 745 N 65.6996 2.55558 -4.79783 0
M  V30 746 H 69.5016 0.970213 -2.77424 0
M  V30 747 H 67.0156 0.440097 -1.56323 0
M  V30 748 H 69.0126 3.40665 -2.40319 0
M  V30 749 H 67.6726 2.9709 -1.31025 0
M  V30 750 H 68.6836 1.85554 -4.83518 0
M  V30 751 H 65.3606 3.22693 -2.64906 0
M  V30 752 H 66.7506 1.86605 -6.45467 0
M  V30 753 N 69.4707 1.49531 0.497807 0
M  V30 754 C 70.6987 1.62893 1.27567 0
M  V30 755 C 71.1137 0.301585 1.86376 0
M  V30 756 O 70.4707 -0.713335 1.67982 0
M  V30 757 C 70.5217 2.70013 2.40364 0
M  V30 758 O 70.2427 3.976 1.83972 0
M  V30 759 C 71.7437 2.94109 3.31685 0
M  V30 760 H 68.9637 0.548298 0.386794 0
M  V30 761 H 71.5077 1.95584 0.597245 0
M  V30 762 H 69.6627 2.40092 3.04031 0
M  V30 763 H 70.0767 4.56631 2.58047 0
M  V30 764 H 71.5507 3.72788 4.07104 0
M  V30 765 H 72.0277 2.04147 3.88871 0
M  V30 766 H 72.6337 3.2546 2.73781 0
M  V30 767 N 70.9488 -0.749086 1.3866 0
M  V30 768 C 71.8958 -1.86291 1.36251 0
M  V30 769 C 72.8658 -1.64578 0.224347 0
M  V30 770 O 74.0508 -1.86181 0.417279 0
M  V30 771 C 71.1908 -3.23644 1.19786 0
M  V30 772 C 70.3038 -3.57158 2.43027 0
M  V30 773 C 69.4388 -4.83838 2.19258 0
M  V30 774 C 68.4778 -5.10152 3.38247 0
M  V30 775 N 67.6148 -6.28029 3.13884 0
M  V30 776 H 72.4548 -1.87685 2.3147 0
M  V30 777 H 69.9918 -0.917287 1.14997 0
M  V30 778 H 71.9498 -4.0291 1.08254 0
M  V30 779 H 70.5798 -3.21566 0.282031 0
M  V30 780 H 69.6318 -2.72701 2.65214 0
M  V30 781 H 70.9438 -3.7253 3.31697 0
M  V30 782 H 70.0978 -5.71057 2.04888 0
M  V30 783 H 68.8368 -4.70614 1.2796 0
M  V30 784 H 67.8418 -4.21401 3.53131 0
M  V30 785 H 69.0668 -5.25271 4.30427 0
M  V30 786 H 67.0128 -6.1612 2.25238 0
M  V30 787 H 66.9298 -6.43922 3.96106 0
M  V30 788 H 68.1978 -7.18124 3.03179 0
M  V30 789 N 72.4269 -1.23603 -0.977757 0
M  V30 790 C 73.3369 -1.03632 -2.1047 0
M  V30 791 C 74.3529 0.0199435 -1.73989 0
M  V30 792 O 75.5289 -0.176076 -2.00629 0
M  V30 793 C 72.5939 -0.63276 -3.40877 0
M  V30 794 C 71.6549 -1.76437 -3.91367 0
M  V30 795 C 70.8879 -1.37997 -5.15551 0
M  V30 796 O 71.1109 -0.265357 -5.69782 0
M  V30 797 O 70.0449 -2.20201 -5.60174 0
M  V30 798 H 73.8709 -1.98086 -2.30208 0
M  V30 799 H 71.4559 -1.02332 -1.08851 0
M  V30 800 H 73.3379 -0.418761 -4.19314 0
M  V30 801 H 72.0129 0.282754 -3.22463 0
M  V30 802 H 70.9199 -2.03304 -3.14036 0
M  V30 803 H 72.2529 -2.6583 -4.14241 0
M  V30 804 N 73.905 1.17692 -1.04816 0
M  V30 805 C 74.815 2.25229 -0.65643 0
M  V30 806 C 75.831 1.71018 0.320761 0
M  V30 807 O 77.007 2.00649 0.173805 0
M  V30 808 C 74.072 3.46684 -0.0332629 0
M  V30 809 C 73.133 4.15997 -1.06042 0
M  V30 810 C 72.366 5.31654 -0.466893 0
M  V30 811 O 72.589 5.65777 0.724758 0
M  V30 812 O 71.523 5.89831 -1.1993 0
M  V30 813 H 75.349 2.61016 -1.55255 0
M  V30 814 H 72.934 1.24919 -0.81949 0
M  V30 815 H 74.816 4.20234 0.313256 0
M  V30 816 H 73.491 3.12703 0.836566 0
M  V30 817 H 72.398 3.44482 -1.45886 0
M  V30 818 H 73.731 4.53996 -1.90127 0
M  V30 819 N 75.3831 0.828654 1.34056 0
M  V30 820 C 76.3131 0.269443 2.3194 0
M  V30 821 C 77.2941 -0.617247 1.58506 0
M  V30 822 O 78.4791 -0.542931 1.86456 0
M  V30 823 C 75.6091 -0.564793 3.42677 0
M  V30 824 C 74.5631 0.225241 4.27407 0
M  V30 825 C 73.8891 -0.7321 5.29664 0
M  V30 826 C 75.1891 1.43663 5.02154 0
M  V30 827 H 76.8831 1.08728 2.7896 0
M  V30 828 H 74.4291 0.524283 1.34117 0
M  V30 829 H 76.3821 -0.966233 4.10173 0
M  V30 830 H 75.1061 -1.41574 2.9432 0
M  V30 831 H 73.7651 0.608117 3.61521 0
M  V30 832 H 73.4131 -1.57916 4.77568 0
M  V30 833 H 73.1131 -0.20767 5.87233 0
M  V30 834 H 74.6371 -1.13128 6.00029 0
M  V30 835 H 76.0511 1.1089 5.62473 0
M  V30 836 H 74.4481 1.89711 5.69324 0
M  V30 837 H 75.5181 2.21181 4.31517 0
M  V30 838 N 76.8612 -1.46375 0.584142 0
M  V30 839 C 77.7712 -2.34115 -0.150728 0
M  V30 840 C 78.7872 -1.49838 -0.884567 0
M  V30 841 O 79.9632 -1.82704 -0.847429 0
M  V30 842 C 77.0282 -3.2705 -1.15062 0
M  V30 843 C 76.0892 -4.27228 -0.421293 0
M  V30 844 C 75.3222 -5.15722 -1.37355 0
M  V30 845 O 75.5452 -5.07176 -2.61014 0
M  V30 846 O 74.4792 -5.95383 -0.883355 0
M  V30 847 H 78.3052 -2.98309 0.569708 0
M  V30 848 H 75.8902 -1.45373 0.344535 0
M  V30 849 H 77.7722 -3.84381 -1.72712 0
M  V30 850 H 76.4472 -2.65451 -1.8525 0
M  V30 851 H 75.3542 -3.7358 0.197085 0
M  V30 852 H 76.6872 -4.91616 0.239641 0
M  V30 853 N 78.3393 -0.321999 -1.54275 0
M  V30 854 C 79.2893 0.560185 -2.21011 0
M  V30 855 C 80.2733 1.08283 -1.19011 0
M  V30 856 O 81.4653 1.02011 -1.44647 0
M  V30 857 C 78.5943 1.72137 -2.97025 0
M  V30 858 C 77.6803 1.21369 -4.06363 0
M  V30 859 N 78.0713 0.425566 -5.04007 0
M  V30 860 C 76.3693 1.49255 -4.20284 0
M  V30 861 C 77.0703 0.152601 -5.815 0
M  V30 862 N 76.0463 0.738294 -5.38563 0
M  V30 863 H 79.8483 -0.049265 -2.93859 0
M  V30 864 H 77.3623 -0.127779 -1.61897 0
M  V30 865 H 79.3593 2.36512 -3.43319 0
M  V30 866 H 78.0193 2.33431 -2.25699 0
M  V30 867 H 79.0303 0.068551 -5.17855 0
M  V30 868 H 75.7073 2.11145 -3.60172 0
M  V30 869 H 77.0973 -0.481764 -6.70171 0
M  V30 870 N 79.8174 1.5752 -0.0501392 0
M  V30 871 C 81.0654 1.9227 0.622642 0
M  V30 872 C 81.3864 0.929083 1.71444 0
M  V30 873 O 80.6564 -0.0262186 1.95882 0
M  V30 874 H 79.2364 0.709739 0.232981 0
M  V30 875 H 81.8984 1.94628 -0.102898 0
M  V30 876 H 80.9944 2.93479 1.06191 0
M  V30 877 N 81.2955 -0.223234 1.56011 0
M  V30 878 C 82.2585 -1.26014 1.9145 0
M  V30 879 C 83.2585 -1.3989 0.792937 0
M  V30 880 O 84.4485 -1.38184 1.0607 0
M  V30 881 C 81.5805 -2.63422 2.16383 0
M  V30 882 H 82.7735 -0.95796 2.84189 0
M  V30 883 H 80.3265 -0.463576 1.49267 0
M  V30 884 H 81.0615 -2.98741 1.2619 0
M  V30 885 H 80.8465 -2.54728 2.98088 0
M  V30 886 H 82.3365 -3.38249 2.44903 0
M  V30 887 N 82.7736 -1.49793 -0.48987 0
M  V30 888 C 83.7206 -1.67281 -1.59014 0
M  V30 889 C 84.6906 -0.514177 -1.57941 0
M  V30 890 O 85.8756 -0.742533 -1.75759 0
M  V30 891 C 83.0156 -1.75569 -2.97102 0
M  V30 892 C 82.1286 -3.0281 -3.08107 0
M  V30 893 C 81.2636 -3.02008 -4.36995 0
M  V30 894 C 80.3026 -4.23782 -4.41673 0
M  V30 895 N 79.4396 -4.20826 -5.62005 0
M  V30 896 H 84.2796 -2.61224 -1.43409 0
M  V30 897 H 81.8166 -1.29508 -0.697565 0
M  V30 898 H 83.7746 -1.78354 -3.77155 0
M  V30 899 H 82.4046 -0.850827 -3.11385 0
M  V30 900 H 81.4566 -3.09584 -2.21047 0
M  V30 901 H 82.7686 -3.92801 -3.07423 0
M  V30 902 H 81.9226 -3.03418 -5.25378 0
M  V30 903 H 80.6616 -2.09815 -4.4026 0
M  V30 904 H 79.6666 -4.22604 -3.5169 0
M  V30 905 H 80.8916 -5.17181 -4.40115 0
M  V30 906 H 78.8376 -3.31476 -5.66091 0
M  V30 907 H 78.7546 -5.04564 -5.62984 0
M  V30 908 H 80.0226 -4.26355 -6.52565 0
M  V30 909 N 84.2517 0.741722 -1.39055 0
M  V30 910 C 85.1847 1.86416 -1.31622 0
M  V30 911 C 86.1627 1.61473 -0.191076 0
M  V30 912 O 87.3467 1.84825 -0.370399 0
M  V30 913 C 84.4737 3.22266 -1.04221 0
M  V30 914 C 83.5197 3.66079 -2.18834 0
M  V30 915 S 84.3527 3.7623 -3.81066 0
M  V30 916 C 85.5087 5.14881 -3.55877 0
M  V30 917 H 85.7417 1.92437 -2.26617 0
M  V30 918 H 83.2747 0.905907 -1.25031 0
M  V30 919 H 85.2327 4.00714 -0.890964 0
M  V30 920 H 83.8937 3.1391 -0.109237 0
M  V30 921 H 83.0867 4.64648 -1.95238 0
M  V30 922 H 82.6887 2.94817 -2.30128 0
M  V30 923 H 84.9807 6.01006 -3.12726 0
M  V30 924 H 85.9237 5.43503 -4.53884 0
M  V30 925 H 86.3317 4.84239 -2.90126 0
M  V30 926 N 85.7298 1.2412 0.971189 0
M  V30 927 C 86.6928 1.03156 2.04674 0
M  V30 928 C 87.6928 -0.00990322 1.60797 0
M  V30 929 O 88.8828 0.230729 1.72665 0
M  V30 930 C 86.0148 0.562765 3.36223 0
M  V30 931 H 87.2078 1.98614 2.24705 0
M  V30 932 H 84.7608 1.06293 1.14593 0
M  V30 933 H 85.4958 -0.395176 3.21883 0
M  V30 934 H 85.2808 1.31441 3.69413 0
M  V30 935 H 86.7708 0.437015 4.15307 0
M  V30 936 N 87.2079 -1.17134 1.05439 0
M  V30 937 C 88.4539 -1.87979 0.776872 0
M  V30 938 C 88.8089 -1.7965 -0.688751 0
M  V30 939 O 88.1019 -1.19535 -1.4974 0
M  V30 940 C 88.2959 -3.36833 1.19491 0
M  V30 941 C 88.1249 -3.59653 2.69963 0
M  V30 942 C 86.8949 -3.76234 3.37307 0
M  V30 943 C 89.0929 -3.59091 3.68182 0
M  V30 944 N 87.0749 -3.86922 4.76618 0
M  V30 945 C 88.4459 -3.75659 4.93235 0
M  V30 946 C 90.5009 -3.42255 3.61616 0
M  V30 947 C 89.2039 -3.77133 6.12506 0
M  V30 948 C 91.2299 -3.45018 4.8033 0
M  V30 949 C 90.5919 -3.62096 6.04207 0
M  V30 950 H 86.6909 -0.705876 0.336546 0
M  V30 951 H 89.2749 -1.40602 1.34682 0
M  V30 952 H 87.4459 -3.82873 0.652884 0
M  V30 953 H 89.1779 -3.95305 0.866966 0
M  V30 954 H 85.9329 -3.76193 2.87708 0
M  V30 955 H 86.3569 -3.96055 5.49062 0
M  V30 956 H 90.9989 -3.27986 2.66805 0
M  V30 957 H 88.7169 -3.90186 7.07659 0
M  V30 958 H 92.3029 -3.33246 4.76905 0
M  V30 959 H 91.1829 -3.64142 6.94529 0
M  V30 960 N 88.686 -0.835752 -1.33615 0
M  V30 961 C 90.102 -0.523139 -1.50783 0
M  V30 962 C 90.302 0.950171 -1.77691 0
M  V30 963 O 89.358 1.73411 -1.83534 0
M  V30 964 C 90.671 -1.39378 -2.66448 0
M  V30 965 C 92.219 -1.39223 -2.80332 0
M  V30 966 C 92.694 -2.24765 -3.99055 0
M  V30 967 N 94.185 -2.22458 -4.06284 0
M  V30 968 C 94.92 -2.85386 -4.97336 0
M  V30 969 N 94.416 -3.57354 -5.93523 0
M  V30 970 N 96.209 -2.74872 -4.90308 0
M  V30 971 H 88.36 -1.78952 -1.14411 0
M  V30 972 H 90.623 -0.763297 -0.562212 0
M  V30 973 H 90.329 -2.44061 -2.53234 0
M  V30 974 H 90.203 -1.0676 -3.61776 0
M  V30 975 H 92.59 -0.353136 -2.92979 0
M  V30 976 H 92.671 -1.75846 -1.85773 0
M  V30 977 H 92.315 -3.28732 -3.87167 0
M  V30 978 H 92.245 -1.85485 -4.92852 0
M  V30 979 H 94.736 -1.70119 -3.37443 0
M  V30 980 H 95.049 -4.02584 -6.59656 0
M  V30 981 H 93.394 -3.61461 -5.93608 0
M  V30 982 H 96.585 -2.18213 -4.14126 0
M  V30 983 H 96.758 -3.24199 -5.61069 0
M  V30 984 N 90.1641 1.46063 -0.591896 0
M  V30 985 C 91.1121 2.32124 0.148739 0
M  V30 986 C 92.1061 1.45035 0.875286 0
M  V30 987 O 93.3121 1.61609 0.792632 0
M  V30 988 H 89.6871 0.749024 0.066832 0
M  V30 989 H 91.6581 2.92392 -0.595783 0
M  V30 990 C 90.4071 3.28373 1.1431 0
M  V30 991 H 89.7301 3.95371 0.59346 0
M  V30 992 H 91.1701 3.91352 1.63155 0
M  V30 993 C 89.6291 2.54393 2.20875 0
M  V30 994 O 90.1591 2.31373 3.28374 0
M  V30 995 N 88.3651 2.14797 1.95731 0
M  V30 996 H 87.9121 2.33719 1.08319 0
M  V30 997 H 87.8701 1.65619 2.67241 0
M  V30 998 N 91.6422 0.330177 1.54103 0
M  V30 999 C 92.8672 -0.274893 2.0557 0
M  V30 1000 C 93.2922 -1.44487 1.20437 0
M  V30 1001 O 92.6502 -1.80021 0.214991 0
M  V30 1002 C 92.6982 -0.68079 3.54115 0
M  V30 1003 O 91.8022 -1.7824 3.71893 0
M  V30 1004 H 91.1432 -0.0483849 0.662235 0
M  V30 1005 H 93.6732 0.480508 1.98878 0
M  V30 1006 H 93.6832 -0.961635 3.96505 0
M  V30 1007 H 92.3582 0.174903 4.15532 0
M  V30 1008 H 90.9352 -1.49985 3.41407 0
M  V30 1009 N 93.1203 -1.57491 0.0584922 0
M  V30 1010 C 94.0683 -2.13148 -0.931168 0
M  V30 1011 C 95.0623 -1.06507 -1.31729 0
M  V30 1012 O 96.2683 -1.24906 -1.29609 0
M  V30 1013 H 92.6433 -0.68137 -0.31818 0
M  V30 1014 H 94.6143 -2.95187 -0.436707 0
M  V30 1015 C 93.3633 -2.69732 -2.19408 0
M  V30 1016 H 92.6863 -3.51454 -1.90578 0
M  V30 1017 H 94.1263 -3.12287 -2.86798 0
M  V30 1018 C 92.5853 -1.63855 -2.94369 0
M  V30 1019 O 93.1153 -1.05565 -3.87581 0
M  V30 1020 N 91.3213 -1.35202 -2.57233 0
M  V30 1021 H 90.8683 -1.82791 -1.81508 0
M  V30 1022 H 90.8263 -0.645922 -3.07693 0
M  V30 1023 N 94.5984 0.214957 -1.56127 0
M  V30 1024 C 96.0144 0.564948 -1.49267 0
M  V30 1025 C 96.2144 1.86827 -0.754838 0
M  V30 1026 O 95.2704 2.50745 -0.297198 0
M  V30 1027 C 96.5834 0.638071 -2.93852 0
M  V30 1028 C 98.1314 0.728253 -3.0441 0
M  V30 1029 C 98.6064 0.832663 -4.50367 0
M  V30 1030 N 100.097 0.896712 -4.54437 0
M  V30 1031 C 100.832 0.997324 -5.6466 0
M  V30 1032 N 100.328 1.06147 -6.8462 0
M  V30 1033 N 102.121 1.03297 -5.52527 0
M  V30 1034 H 94.2724 -0.640211 -2.02522 0
M  V30 1035 H 96.5354 -0.225507 -0.920788 0
M  V30 1036 H 96.2414 -0.250126 -3.50809 0
M  V30 1037 H 96.1154 1.49947 -3.46115 0
M  V30 1038 H 98.5024 1.60689 -2.47514 0
M  V30 1039 H 98.5834 -0.158952 -2.55306 0
M  V30 1040 H 98.2274 -0.0415417 -5.07883 0
M  V30 1041 H 98.1574 1.73538 -4.97184 0
M  V30 1042 H 100.648 0.857188 -3.6805 0
M  V30 1043 H 100.961 1.1382 -7.64372 0
M  V30 1044 H 99.3064 1.03049 -6.87318 0
M  V30 1045 H 102.497 0.979558 -4.57736 0
M  V30 1046 H 102.67 1.10793 -6.38458 0
M  V30 1047 N 96.0765 1.50051 0.48192 0
M  V30 1048 C 97.3165 1.62128 1.24474 0
M  V30 1049 C 97.6805 0.309742 1.89485 0
M  V30 1050 O 98.8815 0.305854 2.67054 0
M  V30 1051 C 97.1525 2.76151 2.26882 0
M  V30 1052 S 98.7115 3.08297 3.12247 0
M  V30 1053 H 95.5295 0.571661 0.422759 0
M  V30 1054 H 98.1315 1.87791 0.54359 0
M  V30 1055 H 96.8355 3.69942 1.77683 0
M  V30 1056 H 96.3665 2.52541 3.0164 0
M  V30 1057 H 98.3815 2.51287 4.27866 0
M  V30 1058 N 97.5546 -0.734337 1.39446 0
M  V30 1059 C 98.8036 -1.48937 1.36017 0
M  V30 1060 C 99.1166 -1.95557 -0.0409005 0
M  V30 1061 O 100.323 -2.70779 -0.19778 0
M  V30 1062 C 98.7786 -2.69125 2.38955 0
M  V30 1063 C 98.3866 -2.29452 3.8478 0
M  V30 1064 C 100.131 -3.46944 2.44603 0
M  V30 1065 C 98.0376 -3.46366 4.79358 0
M  V30 1066 H 96.9676 -0.559296 0.505672 0
M  V30 1067 H 99.6186 -0.800983 1.65095 0
M  V30 1068 H 98.0006 -3.40041 2.02948 0
M  V30 1069 H 99.1746 -1.66077 4.29831 0
M  V30 1070 H 97.4896 -1.64723 3.82433 0
M  V30 1071 H 100.087 -4.33907 3.12456 0
M  V30 1072 H 100.43 -3.89454 1.47076 0
M  V30 1073 H 100.963 -2.83056 2.79507 0
M  V30 1074 H 97.7016 -3.08905 5.78151 0
M  V30 1075 H 97.2216 -4.08719 4.38986 0
M  V30 1076 H 98.9006 -4.12691 4.98292 0
M  V30 1077 N 99.0327 -1.24633 -0.964593 0
M  V30 1078 C 100.281 -1.08573 -1.70459 0
M  V30 1079 C 100.602 0.375655 -1.91347 0
M  V30 1080 O 99.8717 1.26779 -1.49345 0
M  V30 1081 H 98.4517 -0.398784 -0.631649 0
M  V30 1082 H 101.114 -1.56601 -1.16026 0
M  V30 1083 H 100.21 -1.58623 -2.68785 0
M  V30 1084 N 100.511 1.16574 -1.06058 0
M  V30 1085 C 101.927 1.3904 -0.783585 0
M  V30 1086 C 102.127 1.91784 0.618145 0
M  V30 1087 O 101.183 2.11511 1.37911 0
M  V30 1088 C 102.496 2.37329 -1.84649 0
M  V30 1089 C 104.044 2.51018 -1.86973 0
M  V30 1090 C 104.519 3.52588 -2.92311 0
M  V30 1091 N 106.01 3.60113 -2.91329 0
M  V30 1092 C 106.745 4.38486 -3.69482 0
M  V30 1093 N 106.241 5.20302 -4.57447 0
M  V30 1094 N 108.034 4.33446 -3.57885 0
M  V30 1095 H 100.185 0.806725 -1.96483 0
M  V30 1096 H 102.448 0.417117 -0.851303 0
M  V30 1097 H 102.154 2.05663 -2.85299 0
M  V30 1098 H 102.028 3.36946 -1.6955 0
M  V30 1099 H 104.415 2.81989 -0.869827 0
M  V30 1100 H 104.496 1.51445 -2.0615 0
M  V30 1101 H 104.14 3.22354 -3.92492 0
M  V30 1102 H 104.07 4.51886 -2.70383 0
M  V30 1103 H 106.561 3.01707 -2.27555 0
M  V30 1104 H 106.874 5.77311 -5.13743 0
M  V30 1105 H 105.219 5.19653 -4.61503 0
M  V30 1106 H 108.41 3.68586 -2.88551 0
M  V30 1107 H 108.583 4.94279 -4.19037 0
M  V30 1108 N 101.989 0.842826 1.3317 0
M  V30 1109 C 102.919 0.294028 2.31641 0
M  V30 1110 C 103.9 -0.600401 1.59151 0
M  V30 1111 O 105.085 -0.523124 1.87022 0
M  V30 1112 C 102.215 -0.528416 3.43257 0
M  V30 1113 C 101.169 0.27056 4.27144 0
M  V30 1114 C 100.495 -0.675881 5.30411 0
M  V30 1115 C 101.795 1.48981 5.00602 0
M  V30 1116 H 103.489 1.11681 2.77791 0
M  V30 1117 H 101.035 0.538478 1.33553 0
M  V30 1118 H 102.988 -0.922674 4.11175 0
M  V30 1119 H 101.712 -1.38445 2.95805 0
M  V30 1120 H 100.371 0.646427 3.60856 0
M  V30 1121 H 100.019 -1.52842 4.79216 0
M  V30 1122 H 99.7189 -0.145374 5.8742 0
M  V30 1123 H 101.243 -1.06757 6.01195 0
M  V30 1124 H 102.657 1.16849 5.61266 0
M  V30 1125 H 101.054 1.95739 5.6728 0
M  V30 1126 H 102.124 2.25746 4.29147 0
M  V30 1127 N 103.467 -1.45747 0.599634 0
M  V30 1128 C 104.714 -2.02292 0.0917284 0
M  V30 1129 C 105.042 -1.46906 -1.27472 0
M  V30 1130 O 104.297 -0.630652 -1.8526 0
M  V30 1131 C 104.596 -3.57399 -0.00602758 0
M  V30 1132 C 104.262 -4.31902 1.29503 0
M  V30 1133 C 102.924 -4.51974 1.65144 0
M  V30 1134 C 105.276 -4.74551 2.15525 0
M  V30 1135 C 102.604 -5.11949 2.86574 0
M  V30 1136 C 104.956 -5.35868 3.36196 0
M  V30 1137 C 103.62 -5.54165 3.72099 0
M  V30 1138 H 102.89 -0.740239 0.0335658 0
M  V30 1139 H 105.537 -1.7491 0.779661 0
M  V30 1140 H 103.842 -3.84014 -0.777183 0
M  V30 1141 H 105.539 -3.98846 -0.415038 0
M  V30 1142 H 102.129 -4.16588 1.00761 0
M  V30 1143 H 106.313 -4.58784 1.8929 0
M  V30 1144 H 101.569 -5.24305 3.14507 0
M  V30 1145 H 105.743 -5.6787 4.03109 0
M  V30 1146 H 103.37 -6.00406 4.6628 0
M  V30 1147 N 104.945 -0.338344 -1.53925 0
M  V30 1148 C 106.191 0.252842 -2.01822 0
M  V30 1149 C 106.546 1.48612 -1.22197 0
M  V30 1150 O 105.839 1.89238 -0.299892 0
M  V30 1151 C 106.033 0.62448 -3.51902 0
M  V30 1152 C 105.862 -0.571235 -4.46057 0
M  V30 1153 C 104.632 -1.07493 -4.93734 0
M  V30 1154 C 106.83 -1.42807 -4.94076 0
M  V30 1155 N 104.812 -2.23351 -5.71828 0
M  V30 1156 C 106.183 -2.43362 -5.70241 0
M  V30 1157 C 108.238 -1.45412 -4.76193 0
M  V30 1158 C 106.941 -3.46346 -6.30426 0
M  V30 1159 C 108.967 -2.47274 -5.37224 0
M  V30 1160 C 108.329 -3.46555 -6.13253 0
M  V30 1161 H 104.428 0.0559669 -0.779995 0
M  V30 1162 H 107.012 -0.476732 -1.88773 0
M  V30 1163 H 105.183 1.32317 -3.65167 0
M  V30 1164 H 106.915 1.19841 -3.86549 0
M  V30 1165 H 103.67 -0.643848 -4.69203 0
M  V30 1166 H 104.094 -2.81834 -6.15548 0
M  V30 1167 H 108.736 -0.700171 -4.16962 0
M  V30 1168 H 106.454 -4.22638 -6.88769 0
M  V30 1169 H 110.04 -2.50109 -5.25297 0
M  V30 1170 H 108.92 -4.24083 -6.59638 0
M  V30 1171 N 106.423 1.57458 -0.0668435 0
M  V30 1172 C 107.371 2.13639 0.919851 0
M  V30 1173 C 108.365 1.07204 1.31163 0
M  V30 1174 O 109.571 1.25591 1.28945 0
M  V30 1175 H 105.946 0.683048 0.314562 0
M  V30 1176 H 107.917 2.95415 0.421047 0
M  V30 1177 C 106.666 2.70892 2.17975 0
M  V30 1178 H 105.989 3.5246 1.88711 0
M  V30 1179 H 107.429 3.13803 2.85138 0
M  V30 1180 C 105.888 1.65414 2.93496 0
M  V30 1181 O 106.418 1.07619 3.87015 0
M  V30 1182 N 104.624 1.36564 2.56512 0
M  V30 1183 H 104.171 1.83751 1.80536 0
M  V30 1184 H 104.129 0.66223 3.07347 0
M  V30 1185 N 107.901 -0.206675 1.56239 0
M  V30 1186 C 109.126 -0.949474 1.8439 0
M  V30 1187 C 109.551 -1.76549 0.649016 0
M  V30 1188 O 108.909 -1.76782 -0.402231 0
M  V30 1189 C 108.957 -1.83078 3.10668 0
M  V30 1190 O 108.061 -2.9281 2.90407 0
M  V30 1191 H 107.402 -0.268033 0.607499 0
M  V30 1192 H 109.932 -0.215488 2.03462 0
M  V30 1193 H 109.942 -2.2377 3.41161 0
M  V30 1194 H 108.617 -1.23112 3.97261 0
M  V30 1195 H 107.194 -2.55956 2.71184 0
M  V30 1196 N 109.379 -1.50304 -0.473955 0
M  V30 1197 C 110.309 -1.71886 -1.58042 0
M  V30 1198 C 111.29 -0.567799 -1.60344 0
M  V30 1199 O 112.475 -0.806623 -1.76656 0
M  V30 1200 C 109.605 -1.81036 -2.96384 0
M  V30 1201 C 108.559 -2.962 -3.08949 0
M  V30 1202 C 107.885 -2.9049 -4.48909 0
M  V30 1203 C 109.185 -4.36752 -2.86434 0
M  V30 1204 H 110.879 -2.64527 -1.40234 0
M  V30 1205 H 108.425 -1.27295 -0.673201 0
M  V30 1206 H 110.378 -1.94719 -3.73714 0
M  V30 1207 H 109.102 -0.850147 -3.15341 0
M  V30 1208 H 107.761 -2.82164 -2.3405 0
M  V30 1209 H 107.409 -1.92321 -4.64781 0
M  V30 1210 H 107.109 -3.67802 -4.58253 0
M  V30 1211 H 108.633 -3.06218 -5.28264 0
M  V30 1212 H 110.047 -4.5133 -3.53517 0
M  V30 1213 H 108.444 -5.15493 -3.07225 0
M  V30 1214 H 109.514 -4.49321 -1.82316 0
M  V30 1215 N 110.857 0.726932 -1.39834 0
M  V30 1216 C 111.805 1.86235 -1.39353 0
M  V30 1217 C 112.799 1.67144 -0.275555 0
M  V30 1218 O 114.005 1.74387 -0.44601 0
M  V30 1219 H 110.38 0.613174 -0.43534 0
M  V30 1220 H 112.351 1.83756 -2.35109 0
M  V30 1221 C 111.1 3.23995 -1.26185 0
M  V30 1222 H 110.423 3.39285 -2.11484 0
M  V30 1223 H 111.863 4.03609 -1.29907 0
M  V30 1224 C 110.322 3.36888 0.0290018 0
M  V30 1225 O 110.852 3.89152 0.99619 0
M  V30 1226 N 109.058 2.90446 0.0947437 0
M  V30 1227 H 108.605 2.48102 -0.693035 0
M  V30 1228 H 108.563 2.99451 0.957932 0
M  V30 1229 N 112.336 1.25143 0.95797 0
M  V30 1230 C 113.582 1.09855 1.70469 0
M  V30 1231 C 113.915 -0.360187 1.90831 0
M  V30 1232 O 113.19 -1.26568 1.47685 0
M  V30 1233 C 113.473 1.8497 3.08963 0
M  V30 1234 C 113.326 3.38652 2.96032 0
M  V30 1235 C 114.645 1.63016 4.08795 0
M  V30 1236 H 111.764 0.400465 0.618706 0
M  V30 1237 H 114.406 1.53933 1.11376 0
M  V30 1238 H 112.556 1.47505 3.59409 0
M  V30 1239 H 114.228 3.85772 2.52938 0
M  V30 1240 H 112.471 3.66534 2.32025 0
M  V30 1241 H 113.142 3.8642 3.94187 0
M  V30 1242 H 115.618 1.95625 3.67247 0
M  V30 1243 H 114.494 2.18015 5.03747 0
M  V30 1244 H 114.755 0.570692 4.38401 0
M  V30 1245 N 113.814 -1.1601 1.06675 0
M  V30 1246 C 115.063 -1.85973 0.780818 0
M  V30 1247 C 115.376 -1.82819 -0.695444 0
M  V30 1248 O 116.582 -2.484 -1.09589 0
M  V30 1249 C 115.038 -3.33757 1.34665 0
M  V30 1250 C 114.646 -3.45374 2.85343 0
M  V30 1251 C 116.39 -4.0895 1.13843 0
M  V30 1252 C 114.297 -4.87266 3.35151 0
M  V30 1253 H 113.227 -0.696661 0.288407 0
M  V30 1254 H 115.878 -1.30903 1.28595 0
M  V30 1255 H 114.26 -3.88456 0.769274 0
M  V30 1256 H 115.434 -3.00816 3.49065 0
M  V30 1257 H 113.749 -2.83619 3.04876 0
M  V30 1258 H 116.346 -5.13654 1.4854 0
M  V30 1259 H 116.689 -4.16229 0.0770282 0
M  V30 1260 H 117.222 -3.605 1.68179 0
M  V30 1261 H 113.961 -4.85168 4.40786 0
M  V30 1262 H 113.481 -5.32433 2.76179 0
M  V30 1263 H 115.16 -5.56097 3.30704 0
M  V30 1264 N 115.292 -0.849877 -1.32721 0
M  V30 1265 C 116.569 -0.372405 -1.92022 0
M  V30 1266 C 116.949 1.1435 -1.77447 0
M  V30 1267 O 116.297 1.96296 -1.16962 0
M  V30 1268 C 116.507 -0.831482 -3.3895 0
M  V30 1269 C 117.855 -0.845882 -4.16089 0
M  V30 1270 O 118.879 -0.775806 -3.47649 0
M  V30 1271 O 117.738 -0.943753 -5.38289 0
M  V30 1272 H 114.832 -0.107667 -0.819961 0
M  V30 1273 H 117.378 -0.93646 -1.41522 0
M  V30 1274 H 116.15 -1.87448 -3.4348 0
M  V30 1275 H 115.773 -0.24461 -3.96847 0
M  V30 1276 N 116.77 1.45427 -0.607355 0
M  V30 1277 C 118.186 1.57283 -0.270985 0
M  V30 1278 C 118.386 1.59875 1.22647 0
M  V30 1279 O 117.442 1.52893 2.00948 0
M  V30 1280 C 118.755 2.85566 -0.941952 0
M  V30 1281 C 120.303 2.9924 -0.917849 0
M  V30 1282 C 120.778 4.30293 -1.56882 0
M  V30 1283 N 122.269 4.37051 -1.5343 0
M  V30 1284 C 123.004 5.37123 -2.00715 0
M  V30 1285 N 122.5 6.43734 -2.56084 0
M  V30 1286 N 124.293 5.28479 -1.91484 0
M  V30 1287 H 116.444 1.41988 -1.57966 0
M  V30 1288 H 118.707 0.67885 -0.661715 0
M  V30 1289 H 118.413 2.8955 -1.99633 0
M  V30 1290 H 118.287 3.74322 -0.465096 0
M  V30 1291 H 120.674 2.94822 0.127984 0
M  V30 1292 H 120.755 2.11895 -1.43297 0
M  V30 1293 H 120.399 4.35469 -2.61398 0
M  V30 1294 H 120.329 5.16454 -1.02873 0
M  V30 1295 H 122.82 3.60615 -1.12982 0
M  V30 1296 H 123.133 7.16341 -2.89958 0
M  V30 1297 H 121.478 6.44485 -2.60122 0
M  V30 1298 H 124.669 4.44098 -1.47967 0
M  V30 1299 H 124.842 6.0632 -2.28648 0
M  V30 1300 N 118.248 0.346503 1.53744 0
M  V30 1301 C 119.664 -0.00530975 1.59599 0
M  V30 1302 C 119.864 -1.48465 1.36236 0
M  V30 1303 O 118.92 -2.24376 1.15808 0
M  V30 1304 C 120.233 0.433516 2.97559 0
M  V30 1305 C 121.781 0.386111 3.10609 0
M  V30 1306 C 122.256 0.800451 4.50951 0
M  V30 1307 N 123.747 0.754753 4.5701 0
M  V30 1308 C 124.482 1.04727 5.63755 0
M  V30 1309 N 123.978 1.4081 6.7834 0
M  V30 1310 N 125.771 0.971316 5.53644 0
M  V30 1311 H 117.922 1.31009 1.67184 0
M  V30 1312 H 120.185 0.534242 0.783128 0
M  V30 1313 H 119.891 1.46509 3.19731 0
M  V30 1314 H 119.765 -0.189753 3.76722 0
M  V30 1315 H 122.152 -0.636295 2.88158 0
M  V30 1316 H 122.233 1.04462 2.33498 0
M  V30 1317 H 121.877 1.82088 4.74137 0
M  V30 1318 H 121.807 0.119386 5.26465 0
M  V30 1319 H 124.298 0.488662 3.74727 0
M  V30 1320 H 124.611 1.61607 7.55714 0
M  V30 1321 H 122.956 1.44657 6.79779 0
M  V30 1322 H 126.147 0.688748 4.63005 0
M  V30 1323 H 126.32 1.20263 6.36742 0
M  V30 1324 N 119.726 -1.57421 0.075193 0
M  V30 1325 C 121.003 -1.85029 -0.634329 0
M  V30 1326 C 121.383 -0.968305 -1.87582 0
M  V30 1327 O 120.731 -0.0354749 -2.28472 0
M  V30 1328 C 120.941 -3.35286 -0.968742 0
M  V30 1329 C 122.289 -4.02875 -1.34077 0
M  V30 1330 O 123.313 -3.40051 -1.06037 0
M  V30 1331 O 122.172 -5.13691 -1.86506 0
M  V30 1332 H 119.266 -0.7645 -0.315387 0
M  V30 1333 H 121.812 -1.69366 0.106382 0
M  V30 1334 H 120.584 -3.91203 -0.0871376 0
M  V30 1335 H 120.207 -3.56223 -1.7661 0
M  V30 1336 N 121.204 0.198386 -1.56346 0
M  V30 1337 C 122.45 0.920648 -1.80698 0
M  V30 1338 C 122.783 1.83045 -0.648697 0
M  V30 1339 O 122.058 1.91308 0.350925 0
M  V30 1340 C 122.341 1.73971 -3.15287 0
M  V30 1341 C 122.194 0.85485 -4.41602 0
M  V30 1342 C 123.513 2.71296 -3.46535 0
M  V30 1343 H 120.632 0.333261 -0.657348 0
M  V30 1344 H 123.274 0.188198 -1.89066 0
M  V30 1345 H 121.424 2.36416 -3.08285 0
M  V30 1346 H 123.096 0.245362 -4.60647 0
M  V30 1347 H 121.339 0.161398 -4.335 0
M  V30 1348 H 122.01 1.46286 -5.32264 0
M  V30 1349 H 124.486 2.18983 -3.53816 0
M  V30 1350 H 123.362 3.2569 -4.41834 0
M  V30 1351 H 123.623 3.5018 -2.69864 0
M  V30 1352 N 122.682 1.50554 0.465978 0
M  V30 1353 C 124.098 1.38093 0.800154 0
M  V30 1354 C 124.298 0.440988 1.96615 0
M  V30 1355 O 123.354 -0.114499 2.5224 0
M  V30 1356 C 124.667 2.79565 1.10742 0
M  V30 1357 C 126.215 2.88516 1.21357 0
M  V30 1358 C 126.69 4.30833 1.55393 0
M  V30 1359 N 128.181 4.33807 1.62375 0
M  V30 1360 C 128.916 5.40927 1.90225 0
M  V30 1361 N 128.412 6.58247 2.16062 0
M  V30 1362 N 130.205 5.28376 1.9177 0
M  V30 1363 H 122.356 2.10237 -0.302366 0
M  V30 1364 H 124.619 0.945203 -0.0727746 0
M  V30 1365 H 124.325 3.50208 0.323661 0
M  V30 1366 H 124.199 3.17125 2.04234 0
M  V30 1367 H 126.586 2.1809 1.98799 0
M  V30 1368 H 126.667 2.54492 0.258321 0
M  V30 1369 H 126.311 5.01799 0.784889 0
M  V30 1370 H 126.241 4.62347 2.52076 0
M  V30 1371 H 128.732 3.49212 1.44427 0
M  V30 1372 H 129.045 7.3569 2.36601 0
M  V30 1373 H 127.39 6.61413 2.13444 0
M  V30 1374 H 130.581 4.35715 1.71085 0
M  V30 1375 H 130.754 6.11944 2.13139 0
M  V30 1376 N 124.16 -0.719506 1.40217 0
M  V30 1377 C 125.388 -1.50864 1.41589 0
M  V30 1378 C 125.803 -1.88794 0.0145275 0
M  V30 1379 O 125.16 -1.55174 -0.960594 0
M  V30 1380 C 125.211 -2.78646 2.30302 0
M  V30 1381 O 124.932 -2.42321 3.64983 0
M  V30 1382 C 126.433 -3.72569 2.40224 0
M  V30 1383 H 123.653 -0.465709 0.48307 0
M  V30 1384 H 126.197 -0.88785 1.84221 0
M  V30 1385 H 124.352 -3.37019 1.91042 0
M  V30 1386 H 124.766 -3.24514 4.12057 0
M  V30 1387 H 126.24 -4.5908 3.06512 0
M  V30 1388 H 126.717 -4.15403 1.42608 0
M  V30 1389 H 127.323 -3.20109 2.80019 0
M  V30 1390 N 125.638 -1.25649 -0.95132 0
M  V30 1391 C 126.585 -1.06323 -2.04851 0
M  V30 1392 C 127.555 0.0286491 -1.66075 0
M  V30 1393 O 128.74 -0.12917 -1.90362 0
M  V30 1394 C 125.88 -0.691529 -3.381 0
M  V30 1395 C 124.993 -1.85861 -3.89974 0
M  V30 1396 C 124.128 -1.43096 -5.11563 0
M  V30 1397 C 123.167 -2.56696 -5.55674 0
M  V30 1398 N 122.304 -2.14684 -6.68472 0
M  V30 1399 H 127.144 -2.00222 -2.20715 0
M  V30 1400 H 124.681 -0.997027 -1.08156 0
M  V30 1401 H 126.639 -0.456963 -4.1469 0
M  V30 1402 H 125.269 0.210474 -3.22113 0
M  V30 1403 H 124.321 -2.20639 -3.09875 0
M  V30 1404 H 125.633 -2.71161 -4.18657 0
M  V30 1405 H 124.787 -1.15624 -5.9558 0
M  V30 1406 H 123.526 -0.548722 -4.84603 0
M  V30 1407 H 122.531 -2.84909 -4.7022 0
M  V30 1408 H 123.756 -3.45503 -5.8464 0
M  V30 1409 H 121.702 -1.28881 -6.43215 0
M  V30 1410 H 121.619 -2.9353 -6.96689 0
M  V30 1411 H 122.887 -1.90397 -7.5589 0
M  V30 1412 N 127.117 1.15442 -1.07289 0
M  V30 1413 C 128.027 2.23786 -0.704057 0
M  V30 1414 C 129.043 1.7166 0.284413 0
M  V30 1415 O 130.219 2.00972 0.131205 0
M  V30 1416 C 127.284 3.46535 -0.106792 0
M  V30 1417 C 126.345 4.13654 -1.14842 0
M  V30 1418 C 125.578 5.30544 -0.57956 0
M  V30 1419 O 125.801 5.67187 0.604585 0
M  V30 1420 O 124.735 5.87154 -1.32414 0
M  V30 1421 H 128.561 2.57664 -1.60757 0
M  V30 1422 H 126.146 1.23152 -0.845803 0
M  V30 1423 H 128.028 4.20804 0.224048 0
M  V30 1424 H 126.703 3.14407 0.770049 0
M  V30 1425 H 125.61 3.4131 -1.5316 0
M  V30 1426 H 126.943 4.49861 -1.99714 0
M  V30 1427 N 128.595 0.856903 1.32268 0
M  V30 1428 C 129.505 0.306131 2.32594 0
M  V30 1429 C 130.521 -0.577209 1.64147 0
M  V30 1430 O 131.697 -0.477043 1.95669 0
M  V30 1431 C 128.762 -0.494561 3.43154 0
M  V30 1432 C 127.823 0.415186 4.27288 0
M  V30 1433 C 127.056 -0.347387 5.32568 0
M  V30 1434 O 127.279 -1.57708 5.48165 0
M  V30 1435 O 126.213 0.287982 6.01211 0
M  V30 1436 H 130.039 1.13737 2.81598 0
M  V30 1437 H 127.624 0.619902 1.35932 0
M  V30 1438 H 129.506 -0.948944 4.10576 0
M  V30 1439 H 128.181 -1.30257 2.96336 0
M  V30 1440 H 127.088 0.917793 3.62667 0
M  V30 1441 H 128.421 1.18844 4.77637 0
M  V30 1442 N 130.073 -1.45103 0.615059 0
M  V30 1443 C 131.319 -2.02483 0.113347 0
M  V30 1444 C 131.652 -1.48146 -1.25564 0
M  V30 1445 O 130.927 -0.659104 -1.82992 0
M  V30 1446 C 131.21 -3.60005 0.0825278 0
M  V30 1447 C 131.063 -4.2466 1.48271 0
M  V30 1448 C 132.382 -4.35972 -0.601401 0
M  V30 1449 H 129.501 -0.735764 0.0426632 0
M  V30 1450 H 132.143 -1.72868 0.788461 0
M  V30 1451 H 130.293 -3.85367 -0.492378 0
M  V30 1452 H 131.965 -4.10458 2.10527 0
M  V30 1453 H 130.208 -3.82772 2.04127 0
M  V30 1454 H 130.879 -5.336 1.41332 0
M  V30 1455 H 133.355 -4.15947 -0.112666 0
M  V30 1456 H 132.231 -5.45697 -0.592097 0
M  V30 1457 H 132.492 -4.09391 -1.66887 0
M  V30 1458 N 131.551 -0.354651 -1.53558 0
M  V30 1459 C 132.967 -0.00315426 -1.596 0
M  V30 1460 C 133.167 1.47741 -1.37021 0
M  V30 1461 O 132.223 2.23759 -1.16996 0
M  V30 1462 C 133.536 -0.44929 -2.97325 0
M  V30 1463 C 135.084 -0.402578 -3.104 0
M  V30 1464 C 135.559 -0.824355 -4.5052 0
M  V30 1465 N 137.05 -0.778979 -4.56603 0
M  V30 1466 C 137.785 -1.07715 -5.63192 0
M  V30 1467 N 137.281 -1.44405 -6.77583 0
M  V30 1468 N 139.074 -1.00066 -5.53121 0
M  V30 1469 H 131.225 -1.31893 -1.66487 0
M  V30 1470 H 133.488 -0.538388 -0.780284 0
M  V30 1471 H 133.194 -1.48202 -3.1895 0
M  V30 1472 H 133.068 0.169772 -3.76818 0
M  V30 1473 H 135.455 0.621004 -2.88492 0
M  V30 1474 H 135.536 -1.05699 -2.32941 0
M  V30 1475 H 135.18 -1.846 -4.73165 0
M  V30 1476 H 135.11 -0.147304 -5.26394 0
M  V30 1477 H 137.601 -0.508528 -3.74463 0
M  V30 1478 H 137.914 -1.65612 -7.54846 0
M  V30 1479 H 136.259 -1.4826 -6.79002 0
M  V30 1480 H 139.45 -0.713293 -4.62633 0
M  V30 1481 H 139.623 -1.23638 -6.36096 0
M  V30 1482 N 133.029 1.57378 -0.0835403 0
M  V30 1483 C 134.306 1.85363 0.624507 0
M  V30 1484 C 134.686 0.978239 1.87066 0
M  V30 1485 O 134.034 0.0475908 2.2845 0
M  V30 1486 C 134.244 3.35795 0.950947 0
M  V30 1487 C 135.592 4.03581 1.31939 0
M  V30 1488 O 136.616 3.40609 1.04232 0
M  V30 1489 O 135.475 5.14672 1.83779 0
M  V30 1490 H 132.569 0.766162 0.311329 0
M  V30 1491 H 135.115 1.69307 -0.115362 0
M  V30 1492 H 133.887 3.91244 0.0663899 0
M  V30 1493 H 133.51 3.57154 1.74719 0
M  V30 1494 N 134.507 -0.190092 1.56449 0
M  V30 1495 C 135.47 -1.21925 1.9408 0
M  V30 1496 C 136.47 -1.38176 0.822431 0
M  V30 1497 O 137.66 -1.35903 1.08977 0
M  V30 1498 C 134.792 -2.58773 2.21922 0
M  V30 1499 H 135.985 -0.897464 2.86157 0
M  V30 1500 H 133.538 -0.43181 1.50217 0
M  V30 1501 H 134.273 -2.95998 1.32499 0
M  V30 1502 H 134.058 -2.48348 3.03424 0
M  V30 1503 H 135.548 -3.32978 2.52022 0
M  V30 1504 N 135.985 -1.50799 -0.457987 0
M  V30 1505 C 136.915 -1.73553 -1.5621 0
M  V30 1506 C 137.896 -0.584774 -1.59732 0
M  V30 1507 O 139.081 -0.825314 -1.7579 0
M  V30 1508 C 136.211 -1.84169 -2.94447 0
M  V30 1509 C 135.165 -2.99461 -3.0579 0
M  V30 1510 C 134.491 -2.95235 -4.45803 0
M  V30 1511 C 135.791 -4.39766 -2.81786 0
M  V30 1512 H 137.485 -2.66 -1.37421 0
M  V30 1513 H 135.031 -1.28002 -0.659662 0
M  V30 1514 H 136.984 -1.98672 -3.71628 0
M  V30 1515 H 135.708 -0.883545 -3.14422 0
M  V30 1516 H 134.367 -2.8463 -2.31044 0
M  V30 1517 H 134.015 -1.97239 -4.62715 0
M  V30 1518 H 133.715 -3.72642 -4.54326 0
M  V30 1519 H 135.239 -3.11803 -5.24987 0
M  V30 1520 H 136.653 -4.55054 -3.4871 0
M  V30 1521 H 135.05 -5.18722 -3.0174 0
M  V30 1522 H 136.12 -4.51229 -1.7754 0
M  V30 1523 N 137.463 0.71206 -1.40597 0
M  V30 1524 C 138.71 1.47197 -1.39065 0
M  V30 1525 C 139.038 1.94499 0.00583891 0
M  V30 1526 O 138.293 1.68752 0.99102 0
M  V30 1527 C 138.592 2.71039 -2.32965 0
M  V30 1528 C 138.258 2.42484 -3.80148 0
M  V30 1529 C 136.92 2.34406 -4.20247 0
M  V30 1530 C 139.272 2.18598 -4.73143 0
M  V30 1531 C 136.6 2.00516 -5.51371 0
M  V30 1532 C 138.952 1.8622 -6.0457 0
M  V30 1533 C 137.616 1.76626 -6.43708 0
M  V30 1534 H 136.886 0.538634 -0.508876 0
M  V30 1535 H 139.533 0.815325 -1.73276 0
M  V30 1536 H 137.838 3.41558 -1.91951 0
M  V30 1537 H 139.535 3.29138 -2.29061 0
M  V30 1538 H 136.125 2.49659 -3.4838 0
M  V30 1539 H 140.309 2.23793 -4.42979 0
M  V30 1540 H 135.565 1.91628 -5.80593 0
M  V30 1541 H 139.739 1.66752 -6.76141 0
M  V30 1542 H 137.366 1.50133 -7.45228 0
M  V30 1543 N 138.941 1.26152 0.944643 0
M  V30 1544 C 139.891 1.04081 2.02857 0
M  V30 1545 C 140.875 -0.0256555 1.6088 0
M  V30 1546 O 142.067 0.190884 1.75968 0
M  V30 1547 C 139.196 0.672118 3.36656 0
M  V30 1548 C 138.282 1.77586 3.85128 0
M  V30 1549 N 138.673 3.01272 4.06287 0
M  V30 1550 C 136.971 1.65867 4.1401 0
M  V30 1551 C 137.672 3.72983 4.46384 0
M  V30 1552 N 136.648 3.00653 4.52889 0
M  V30 1553 H 140.45 1.97968 2.17223 0
M  V30 1554 H 137.964 1.16618 1.13022 0
M  V30 1555 H 139.961 0.495166 4.13949 0
M  V30 1556 H 138.621 -0.259307 3.23663 0
M  V30 1557 H 139.632 3.37213 3.93075 0
M  V30 1558 H 136.309 0.796907 4.09824 0
M  V30 1559 H 137.699 4.792 4.70975 0
M  V30 1560 N 140.419 -1.14872 1.07899 0
M  V30 1561 C 141.369 -2.17809 0.674027 0
M  V30 1562 C 142.353 -1.58008 -0.303699 0
M  V30 1563 O 143.545 -1.76616 -0.11654 0
M  V30 1564 C 140.674 -3.43208 0.0793318 0
M  V30 1565 C 139.76 -4.10051 1.08253 0
M  V30 1566 N 140.151 -4.52296 2.2641 0
M  V30 1567 C 138.449 -4.36469 0.917124 0
M  V30 1568 C 139.15 -5.04199 2.901 0
M  V30 1569 N 138.126 -4.98088 2.17736 0
M  V30 1570 H 141.928 -2.48207 1.57386 0
M  V30 1571 H 139.442 -1.315 0.952976 0
M  V30 1572 H 141.439 -4.16272 -0.228719 0
M  V30 1573 H 140.099 -3.14291 -0.815551 0
M  V30 1574 H 141.11 -4.45504 2.64096 0
M  V30 1575 H 137.787 -4.17432 0.0756078 0
M  V30 1576 H 139.177 -5.46802 3.90458 0
M  V30 1577 N 141.898 -0.863906 -1.31812 0
M  V30 1578 C 143.147 -0.46801 -1.96195 0
M  V30 1579 C 143.46 0.983474 -1.69077 0
M  V30 1580 O 144.666 1.48523 -2.27273 0
M  V30 1581 C 143.122 -0.785995 -3.51212 0
M  V30 1582 C 142.73 -2.25383 -3.87178 0
M  V30 1583 C 144.474 -0.458274 -4.22019 0
M  V30 1584 C 142.381 -2.51455 -5.3528 0
M  V30 1585 H 141.311 -0.171283 -0.734287 0
M  V30 1586 H 143.962 -1.05597 -1.50072 0
M  V30 1587 H 142.344 -0.127359 -3.95795 0
M  V30 1588 H 143.518 -2.95502 -3.53575 0
M  V30 1589 H 141.833 -2.54698 -3.2942 0
M  V30 1590 H 144.43 -0.630369 -5.30971 0
M  V30 1591 H 144.773 0.600834 -4.11941 0
M  V30 1592 H 145.306 -1.07319 -3.8305 0
M  V30 1593 H 142.045 -3.56025 -5.50387 0
M  V30 1594 H 141.565 -1.85923 -5.70257 0
M  V30 1595 H 143.244 -2.35874 -6.02472 0
M  V30 1596 N 143.376 1.44774 -0.622745 0
M  V30 1597 C 144.286 2.34433 0.0886031 0
M  V30 1598 C 145.302 1.52131 0.844529 0
M  V30 1599 O 146.478 1.84886 0.798691 0
M  V30 1600 C 143.543 3.29986 1.0635 0
M  V30 1601 C 142.604 4.28195 0.307873 0
M  V30 1602 C 141.837 5.19183 1.23633 0
M  V30 1603 O 142.06 5.13918 2.47476 0
M  V30 1604 O 140.994 5.97515 0.725189 0
M  V30 1605 H 144.82 2.96693 -0.648599 0
M  V30 1606 H 142.405 1.44408 -0.382957 0
M  V30 1607 H 144.287 3.88825 1.6246 0
M  V30 1608 H 142.962 2.70269 1.78146 0
M  V30 1609 H 141.869 3.72927 -0.296064 0
M  V30 1610 H 143.202 4.90808 -0.3699 0
M  V30 1611 N 144.854 0.36279 1.53368 0
M  V30 1612 C 146.082 -0.228613 2.05633 0
M  V30 1613 C 146.497 -1.42676 1.23649 0
M  V30 1614 O 145.854 -1.80394 0.27647 0
M  V30 1615 C 145.905 -0.624845 3.56059 0
M  V30 1616 O 145.626 0.525675 4.34935 0
M  V30 1617 C 147.127 -1.27493 4.24571 0
M  V30 1618 H 144.347 -0.0407183 0.669763 0
M  V30 1619 H 146.891 0.520352 1.97769 0
M  V30 1620 H 145.046 -1.32373 3.64083 0
M  V30 1621 H 145.46 0.205969 5.24095 0
M  V30 1622 H 146.934 -1.50277 5.31151 0
M  V30 1623 H 147.411 -2.23439 3.78116 0
M  V30 1624 H 148.017 -0.617558 4.20792 0
M  V30 1625 N 146.332 -1.57332 0.0918853 0
M  V30 1626 C 147.295 -2.12708 -0.85369 0
M  V30 1627 C 148.295 -1.05561 -1.213 0
M  V30 1628 O 149.485 -1.31461 -1.14296 0
M  V30 1629 C 146.617 -2.64503 -2.15061 0
M  V30 1630 H 147.81 -2.97573 -0.3729 0
M  V30 1631 H 145.363 -1.55509 -0.157072 0
M  V30 1632 H 146.098 -1.83149 -2.67632 0
M  V30 1633 H 145.883 -3.4284 -1.90272 0
M  V30 1634 H 147.373 -3.07351 -2.82711 0
M  V30 1635 N 147.81 0.181792 -1.56548 0
M  V30 1636 C 149.038 0.915947 -1.85521 0
M  V30 1637 C 149.453 1.76282 -0.676016 0
M  V30 1638 O 148.81 1.79012 0.355077 0
M  V30 1639 C 148.861 1.80126 -3.13427 0
M  V30 1640 O 148.582 0.988562 -4.26801 0
M  V30 1641 C 150.083 2.64597 -3.55673 0
M  V30 1642 H 147.303 0.26661 -0.61576 0
M  V30 1643 H 149.847 0.185039 -2.03661 0
M  V30 1644 H 148.002 2.48563 -2.97145 0
M  V30 1645 H 148.416 1.59308 -4.99721 0
M  V30 1646 H 149.89 3.2235 -4.48101 0
M  V30 1647 H 150.367 3.38958 -2.79292 0
M  V30 1648 H 150.973 2.0151 -3.74532 0
M  V30 1649 N 149.288 1.51039 0.449983 0
M  V30 1650 C 150.236 1.71995 1.5659 0
M  V30 1651 C 151.23 0.586029 1.5894 0
M  V30 1652 O 152.436 0.76709 1.62837 0
M  V30 1653 H 148.811 0.543233 0.520001 0
M  V30 1654 H 150.782 2.65562 1.36085 0
M  V30 1655 C 149.531 1.8506 2.9436 0
M  V30 1656 H 148.854 2.71712 2.93279 0
M  V30 1657 H 150.294 2.0374 3.71842 0
M  V30 1658 C 148.753 0.607277 3.31382 0
M  V30 1659 O 149.283 -0.243903 4.00959 0
M  V30 1660 N 147.489 0.455073 2.87015 0
M  V30 1661 H 147.036 1.14879 2.30566 0
M  V30 1662 H 146.994 -0.375611 3.12148 0
M  V30 1663 N 150.766 -0.704594 1.40972 0
M  V30 1664 C 151.714 -1.83994 1.42299 0
M  V30 1665 C 152.708 -1.66684 0.302111 0
M  V30 1666 O 153.914 -1.73655 0.473697 0
M  V30 1667 H 150.289 -0.606171 0.44504 0
M  V30 1668 H 152.26 -1.79992 2.38003 0
M  V30 1669 C 151.009 -3.21946 1.31323 0
M  V30 1670 H 150.332 -3.35878 2.16855 0
M  V30 1671 H 151.772 -4.01491 1.36311 0
M  V30 1672 C 150.231 -3.36891 0.0245977 0
M  V30 1673 O 150.761 -3.90687 -0.934153 0
M  V30 1674 N 148.967 -2.90559 -0.0485243 0
M  V30 1675 H 148.514 -2.46968 0.732419 0
M  V30 1676 H 148.472 -3.00937 -0.910171 0
M  V30 1677 N 152.244 -1.26651 -0.937939 0
M  V30 1678 C 153.492 -1.12165 -1.68118 0
M  V30 1679 C 153.813 0.334983 -1.92101 0
M  V30 1680 O 153.083 1.23583 -1.52 0
M  V30 1681 H 151.663 -0.412093 -0.623048 0
M  V30 1682 H 154.325 -1.59027 -1.12678 0
M  V30 1683 H 153.421 -1.64289 -2.6536 0
M  V30 1684 N 153.722 1.14298 -1.08507 0
M  V30 1685 C 154.669 2.19414 -0.715965 0
M  V30 1686 C 155.639 1.63399 0.298326 0
M  V30 1687 O 156.824 1.89929 0.182101 0
M  V30 1688 C 153.964 3.44845 -0.132534 0
M  V30 1689 C 153.077 4.15007 -1.19973 0
M  V30 1690 C 152.212 5.28024 -0.580048 0
M  V30 1691 C 151.251 5.9002 -1.62921 0
M  V30 1692 N 150.388 6.94485 -1.03125 0
M  V30 1693 H 155.228 2.50336 -1.61666 0
M  V30 1694 H 152.765 1.2293 -0.807882 0
M  V30 1695 H 154.723 4.16601 0.223454 0
M  V30 1696 H 153.353 3.14403 0.731467 0
M  V30 1697 H 152.405 3.41629 -1.67313 0
M  V30 1698 H 153.717 4.57178 -1.99473 0
M  V30 1699 H 152.871 6.06455 -0.172364 0
M  V30 1700 H 151.61 4.87076 0.246603 0
M  V30 1701 H 150.615 5.10291 -2.04654 0
M  V30 1702 H 151.84 6.33042 -2.45835 0
M  V30 1703 H 149.786 6.55612 -0.225711 0
M  V30 1704 H 149.703 7.35148 -1.76334 0
M  V30 1705 H 150.971 7.7679 -0.649458 0
M  V30 1706 N 155.201 0.870884 1.31352 0
M  V30 1707 C 156.45 0.478408 1.95944 0
M  V30 1708 C 156.763 -0.974493 1.69597 0
M  V30 1709 O 157.969 -1.47316 2.28058 0
M  V30 1710 C 156.425 0.804609 3.50791 0
M  V30 1711 C 156.033 2.27433 3.85977 0
M  V30 1712 C 157.777 0.480648 4.2177 0
M  V30 1713 C 155.684 2.5429 5.33939 0
M  V30 1714 H 154.614 0.175175 0.733369 0
M  V30 1715 H 157.265 1.06391 1.4951 0
M  V30 1716 H 155.647 0.148347 3.95722 0
M  V30 1717 H 156.821 2.97373 3.52002 0
M  V30 1718 H 155.136 2.56442 3.28065 0
M  V30 1719 H 157.733 0.658519 5.30629 0
M  V30 1720 H 158.076 -0.578979 4.12254 0
M  V30 1721 H 158.609 1.09349 3.82476 0
M  V30 1722 H 155.348 3.58939 5.48491 0
M  V30 1723 H 154.868 1.88945 5.69263 0
M  V30 1724 H 156.547 2.39066 6.01212 0
M  V30 1725 N 156.679 -1.44442 0.630414 0
M  V30 1726 C 158.095 -1.56832 0.295973 0
M  V30 1727 C 158.295 -1.61806 -1.20088 0
M  V30 1728 O 157.351 -1.5607 -1.9849 0
M  V30 1729 C 158.664 -2.84031 0.987264 0
M  V30 1730 C 160.212 -2.97742 0.96534 0
M  V30 1731 C 160.687 -4.27743 1.63708 0
M  V30 1732 N 162.178 -4.34555 1.60364 0
M  V30 1733 C 162.913 -5.33862 2.09234 0
M  V30 1734 N 162.409 -6.39578 2.66292 0
M  V30 1735 N 164.202 -5.25366 1.99867 0
M  V30 1736 H 156.353 -1.39457 1.60205 0
M  V30 1737 H 158.616 -0.668237 0.672431 0
M  V30 1738 H 158.322 -2.86338 2.04215 0
M  V30 1739 H 158.196 -3.73534 0.524588 0
M  V30 1740 H 160.583 -2.94989 -0.0810639 0
M  V30 1741 H 160.664 -2.09589 1.4665 0
M  V30 1742 H 160.308 -4.31255 2.68293 0
M  V30 1743 H 160.238 -5.14752 1.11076 0
M  V30 1744 H 162.729 -3.58772 1.18705 0
M  V30 1745 H 163.042 -7.11637 3.01317 0
M  V30 1746 H 161.387 -6.40265 2.70343 0
M  V30 1747 H 164.578 -4.41688 1.55013 0
M  V30 1748 H 164.751 -6.02606 2.38265 0
M  V30 1749 N 158.157 -0.370918 -1.53173 0
M  V30 1750 C 159.568 0.107139 -1.86392 0
M  V30 1751 C 159.919 1.47714 -1.29132 0
M  V30 1752 O 159.044 2.07464 -0.615439 0
M  V30 1753 C 159.639 0.201187 -3.38202 0
M  V30 1754 C 158.198 0.623507 -3.712 0
M  V30 1755 C 157.345 -0.225978 -2.76378 0
M  V30 1756 H 160.296 -0.58951 -1.47345 0
M  V30 1757 H 160.317 1.02377 -3.66468 0
M  V30 1758 H 159.829 -0.796058 -3.79848 0
M  V30 1759 H 157.93 1.62879 -3.35114 0
M  V30 1760 H 158.043 0.394414 -4.77474 0
M  V30 1761 H 156.407 0.305962 -2.52856 0
M  V30 1762 H 157.19 -1.22086 -3.20858 0
M  V30 1763 N 159.635 1.57281 -0.100228 0
M  V30 1764 C 160.863 1.98879 0.570509 0
M  V30 1765 C 161.278 0.979476 1.61405 0
M  V30 1766 O 160.635 -0.0302288 1.82475 0
M  V30 1767 C 160.686 3.4052 1.2136 0
M  V30 1768 O 160.407 4.37588 0.211786 0
M  V30 1769 C 161.908 3.97149 1.96945 0
M  V30 1770 H 159.128 0.653428 0.152555 0
M  V30 1771 H 161.672 2.03697 -0.18103 0
M  V30 1772 H 159.827 3.367 1.91603 0
M  V30 1773 H 160.241 5.20118 0.676607 0
M  V30 1774 H 161.715 4.98393 2.37294 0
M  V30 1775 H 162.192 3.3525 2.83733 0
M  V30 1776 H 162.798 4.04458 1.31506 0
M  V30 1777 N 161.113 -0.173488 1.56642 0
M  V30 1778 C 162.362 -0.888758 1.81063 0
M  V30 1779 C 162.675 -1.83506 0.67712 0
M  V30 1780 O 163.881 -2.59254 0.806206 0
M  V30 1781 C 162.337 -1.63091 3.20826 0
M  V30 1782 C 161.945 -0.728357 4.4204 0
M  V30 1783 C 163.689 -2.33454 3.54541 0
M  V30 1784 C 161.596 -1.47062 5.72823 0
M  V30 1785 H 160.526 -0.335618 0.675186 0
M  V30 1786 H 163.177 -0.141712 1.82952 0
M  V30 1787 H 161.559 -2.42263 3.13248 0
M  V30 1788 H 162.733 0.0262449 4.60793 0
M  V30 1789 H 161.048 -0.134492 4.16183 0
M  V30 1790 H 163.645 -2.89578 4.49498 0
M  V30 1791 H 163.988 -3.08687 2.79317 0
M  V30 1792 H 164.521 -1.61227 3.63663 0
M  V30 1793 H 161.26 -0.760658 6.51072 0
M  V30 1794 H 160.78 -2.1986 5.58052 0
M  V30 1795 H 162.459 -2.01868 6.14702 0
M  V30 1796 N 162.591 -1.51276 -0.441967 0
M  V30 1797 C 163.819 -1.67516 -1.21434 0
M  V30 1798 C 164.234 -0.37055 -1.85128 0
M  V30 1799 O 163.591 0.650498 -1.70513 0
M  V30 1800 C 163.642 -2.78748 -2.30177 0
M  V30 1801 O 163.363 -4.04154 -1.69089 0
M  V30 1802 C 164.864 -3.06217 -3.20541 0
M  V30 1803 H 162.084 -0.562276 -0.366178 0
M  V30 1804 H 164.628 -1.97666 -0.524244 0
M  V30 1805 H 162.783 -2.5121 -2.94911 0
M  V30 1806 H 163.197 -4.65894 -2.40922 0
M  V30 1807 H 164.671 -3.8764 -3.92987 0
M  V30 1808 H 165.148 -2.18439 -3.81026 0
M  V30 1809 H 165.754 -3.35397 -2.61513 0
M  V30 1810 N 164.069 0.697108 -1.41344 0
M  V30 1811 C 165.318 1.45279 -1.39918 0
M  V30 1812 C 165.631 1.95597 -0.0109624 0
M  V30 1813 O 166.837 2.71208 0.125919 0
M  V30 1814 C 165.293 2.62695 -2.46007 0
M  V30 1815 C 164.901 2.19169 -3.90729 0
M  V30 1816 C 166.645 3.40336 -2.53715 0
M  V30 1817 C 164.552 3.33535 -4.88373 0
M  V30 1818 H 163.482 0.545692 -0.520323 0
M  V30 1819 H 166.133 0.756929 -1.67161 0
M  V30 1820 H 164.515 3.34541 -2.11892 0
M  V30 1821 H 165.689 1.54623 -4.34083 0
M  V30 1822 H 164.004 1.54525 -3.86666 0
M  V30 1823 H 166.601 4.2547 -3.2385 0
M  V30 1824 H 166.944 3.85418 -1.5735 0
M  V30 1825 H 167.477 2.75546 -2.86913 0
M  V30 1826 H 164.216 2.93468 -5.86137 0
M  V30 1827 H 163.736 3.96936 -4.49668 0
M  V30 1828 H 165.415 3.99335 -5.09059 0
M  V30 1829 N 165.547 1.27147 0.931209 0
M  V30 1830 C 166.794 1.13278 1.67852 0
M  V30 1831 C 167.122 -0.32204 1.91815 0
M  V30 1832 O 166.377 -1.25224 1.50391 0
M  V30 1833 C 166.676 1.8579 3.05314 0
M  V30 1834 C 166.342 3.35657 3.01073 0
M  V30 1835 C 165.004 3.76536 2.99623 0
M  V30 1836 C 167.356 4.31299 2.92627 0
M  V30 1837 C 164.684 5.11426 2.87506 0
M  V30 1838 C 167.036 5.66242 2.82051 0
M  V30 1839 C 165.7 6.06418 2.7895 0
M  V30 1840 H 164.97 0.414515 0.614214 0
M  V30 1841 H 167.617 1.57712 1.08624 0
M  V30 1842 H 165.922 1.33854 3.68226 0
M  V30 1843 H 167.619 1.72491 3.62005 0
M  V30 1844 H 164.209 3.03146 3.02986 0
M  V30 1845 H 168.393 4.00692 2.92848 0
M  V30 1846 H 163.649 5.41705 2.83489 0
M  V30 1847 H 167.823 6.40026 2.74481 0
M  V30 1848 H 165.45 7.10895 2.69318 0
M  V30 1849 N 167.025 -1.13721 1.09112 0
M  V30 1850 C 168.436 -1.6648 0.845068 0
M  V30 1851 C 168.787 -1.85911 -0.62701 0
M  V30 1852 O 167.912 -1.57556 -1.48341 0
M  V30 1853 C 168.507 -3.02413 1.52748 0
M  V30 1854 C 167.066 -3.52176 1.32849 0
M  V30 1855 C 166.213 -2.27492 1.58564 0
M  V30 1856 H 169.164 -0.976872 1.25072 0
M  V30 1857 H 169.185 -3.68223 0.958752 0
M  V30 1858 H 168.697 -2.88238 2.59885 0
M  V30 1859 H 166.798 -3.7156 0.278137 0
M  V30 1860 H 166.911 -4.32499 2.0611 0
M  V30 1861 H 165.275 -2.33923 1.00758 0
M  V30 1862 H 166.058 -2.15886 2.66924 0
M  V30 1863 N 168.503 -0.877838 -1.30888 0
M  V30 1864 C 169.914 -0.544193 -1.78593 0
M  V30 1865 C 170.265 0.939301 -1.72254 0
M  V30 1866 O 169.39 1.7337 -1.29505 0
M  V30 1867 C 169.985 -0.98105 -3.24285 0
M  V30 1868 C 168.544 -0.698935 -3.69854 0
M  V30 1869 C 167.691 -1.168 -2.51502 0
M  V30 1870 H 170.642 -1.06278 -1.17859 0
M  V30 1871 H 170.663 -0.307009 -3.79259 0
M  V30 1872 H 170.175 -2.06079 -3.28866 0
M  V30 1873 H 168.276 0.369112 -3.70767 0
M  V30 1874 H 168.389 -1.28148 -4.61644 0
M  V30 1875 H 166.753 -0.587535 -2.47831 0
M  V30 1876 H 167.536 -2.25533 -2.58824 0
M  V30 1877 N 169.982 1.44106 -0.638065 0
M  V30 1878 C 170.892 2.34513 0.0637334 0
M  V30 1879 C 171.908 1.53018 0.828346 0
M  V30 1880 O 173.084 1.85723 0.779036 0
M  V30 1881 C 170.149 3.31095 1.02844 0
M  V30 1882 C 169.21 4.28497 0.26244 0
M  V30 1883 C 168.443 5.20465 1.1812 0
M  V30 1884 O 168.666 5.16514 2.42011 0
M  V30 1885 O 167.6 5.98251 0.661774 0
M  V30 1886 H 171.426 2.95989 -0.68003 0
M  V30 1887 H 169.011 1.43994 -0.398252 0
M  V30 1888 H 170.893 3.90526 1.58327 0
M  V30 1889 H 169.568 2.72144 1.7527 0
M  V30 1890 H 168.475 3.72592 -0.335602 0
M  V30 1891 H 169.808 4.90388 -0.421936 0
M  V30 1892 N 171.46 0.379036 1.52974 0
M  V30 1893 C 172.37 -0.468639 2.29872 0
M  V30 1894 C 173.386 -1.08067 1.36373 0
M  V30 1895 O 174.562 -1.08871 1.69438 0
M  V30 1896 C 171.627 -1.58594 3.083 0
M  V30 1897 C 170.688 -1.00007 4.17489 0
M  V30 1898 C 169.921 -2.06413 4.92168 0
M  V30 1899 O 170.144 -3.27751 4.66835 0
M  V30 1900 O 169.078 -1.68717 5.7777 0
M  V30 1901 H 172.904 0.157508 3.03291 0
M  V30 1902 H 170.489 0.143035 1.48714 0
M  V30 1903 H 172.371 -2.23525 3.57232 0
M  V30 1904 H 171.046 -2.19724 2.37703 0
M  V30 1905 H 169.953 -0.314299 3.72777 0
M  V30 1906 H 171.286 -0.433135 4.90291 0
M  V30 1907 N 172.938 -1.57226 0.108567 0
M  V30 1908 C 173.885 -2.14756 -0.845481 0
M  V30 1909 C 174.855 -1.06971 -1.27068 0
M  V30 1910 O 176.04 -1.34827 -1.35005 0
M  V30 1911 C 173.18 -2.74298 -2.09415 0
M  V30 1912 C 172.293 -3.96358 -1.71826 0
M  V30 1913 C 171.428 -4.44021 -2.9158 0
M  V30 1914 C 170.467 -5.58637 -2.50181 0
M  V30 1915 N 169.604 -6.01091 -3.62814 0
M  V30 1916 H 174.444 -2.95961 -0.348035 0
M  V30 1917 H 171.981 -1.46226 -0.160106 0
M  V30 1918 H 173.939 -3.06945 -2.82561 0
M  V30 1919 H 172.569 -1.95801 -2.56636 0
M  V30 1920 H 171.621 -3.69939 -0.885947 0
M  V30 1921 H 172.933 -4.79504 -1.37394 0
M  V30 1922 H 172.087 -4.78522 -3.72963 0
M  V30 1923 H 170.826 -3.59803 -3.29231 0
M  V30 1924 H 169.831 -5.23751 -1.67228 0
M  V30 1925 H 171.056 -6.44613 -2.13659 0
M  V30 1926 H 169.002 -5.19817 -4.00158 0
M  V30 1927 H 168.919 -6.79066 -3.32273 0
M  V30 1928 H 170.187 -6.40227 -4.44668 0
M  V30 1929 N 174.416 0.165178 -1.56732 0
M  V30 1930 C 175.664 0.879068 -1.8198 0
M  V30 1931 C 175.985 1.82514 -0.686561 0
M  V30 1932 O 175.255 1.93694 0.293146 0
M  V30 1933 H 173.835 0.327608 -0.671329 0
M  V30 1934 H 176.497 0.163526 -1.94213 0
M  V30 1935 H 175.593 1.45228 -2.76252 0
M  V30 1936 N 175.894 1.51508 0.433938 0
M  V30 1937 C 176.804 1.75917 1.5521 0
M  V30 1938 C 177.82 0.643545 1.61662 0
M  V30 1939 O 178.996 0.926183 1.7884 0
M  V30 1940 C 176.061 1.88213 2.91164 0
M  V30 1941 C 175.122 3.12074 2.94802 0
M  V30 1942 C 174.355 3.23774 4.24271 0
M  V30 1943 O 174.578 2.4133 5.16833 0
M  V30 1944 O 173.512 4.16774 4.34262 0
M  V30 1945 H 177.338 2.70777 1.37527 0
M  V30 1946 H 174.923 1.36051 0.617293 0
M  V30 1947 H 176.805 1.98267 3.71845 0
M  V30 1948 H 175.48 0.965413 3.08968 0
M  V30 1949 H 174.387 3.07497 2.13065 0
M  V30 1950 H 175.72 4.03446 2.81943 0
M  V30 1951 N 177.372 -0.689602 1.41712 0
M  V30 1952 C 178.319 -1.80345 1.44029 0
M  V30 1953 C 179.289 -1.63478 0.293948 0
M  V30 1954 O 180.474 -1.84244 0.495869 0
M  V30 1955 C 177.614 -3.18272 1.33405 0
M  V30 1956 C 176.727 -3.46529 2.57956 0
M  V30 1957 C 175.862 -4.74103 2.39582 0
M  V30 1958 C 174.901 -4.95347 3.5958 0
M  V30 1959 N 174.038 -6.14151 3.40239 0
M  V30 1960 H 178.878 -1.77698 2.39222 0
M  V30 1961 H 176.415 -0.867688 1.18784 0
M  V30 1962 H 178.373 -3.97956 1.25246 0
M  V30 1963 H 177.003 -3.2008 0.418164 0
M  V30 1964 H 176.055 -2.61207 2.76542 0
M  V30 1965 H 177.367 -3.58126 3.47199 0
M  V30 1966 H 176.521 -5.61853 2.28924 0
M  V30 1967 H 175.26 -4.64763 1.47805 0
M  V30 1968 H 174.265 -4.06044 3.70686 0
M  V30 1969 H 175.49 -5.06542 4.52318 0
M  V30 1970 H 173.436 -6.06013 2.51167 0
M  V30 1971 H 173.353 -6.26543 4.23061 0
M  V30 1972 H 174.621 -7.04619 3.33365 0
M  V30 1973 N 178.85 -1.27639 -0.924453 0
M  V30 1974 C 179.782 -1.06442 -2.02985 0
M  V30 1975 C 180.795 -0.0194771 -1.62788 0
M  V30 1976 O 181.984 -0.261388 -1.76576 0
M  V30 1977 C 179.084 -0.59327 -3.33667 0
M  V30 1978 C 178.257 -1.71123 -4.02537 0
M  V30 1979 C 177.316 -1.23527 -5.11495 0
M  V30 1980 O 176.342 -1.93553 -5.35281 0
M  V30 1981 N 177.544 -0.0926678 -5.80426 0
M  V30 1982 H 180.309 -2.01633 -2.2173 0
M  V30 1983 H 177.87 -1.19248 -1.09505 0
M  V30 1984 H 179.862 -0.258686 -4.03872 0
M  V30 1985 H 178.432 0.265502 -3.1147 0
M  V30 1986 H 177.652 -2.21593 -3.26022 0
M  V30 1987 H 178.94 -2.46145 -4.45298 0
M  V30 1988 H 178.338 0.491741 -5.63559 0
M  V30 1989 H 176.895 0.182714 -6.51544 0
M  V30 1990 N 180.328 1.1314 -1.09713 0
M  V30 1991 C 181.574 1.84757 -0.836224 0
M  V30 1992 C 181.907 1.8347 0.636598 0
M  V30 1993 O 181.182 1.27491 1.46889 0
M  V30 1994 C 181.465 3.32782 -1.37578 0
M  V30 1995 C 181.318 3.42567 -2.91493 0
M  V30 1996 C 182.637 4.28307 -1.01198 0
M  V30 1997 H 179.756 0.67082 -0.305236 0
M  V30 1998 H 182.398 1.3278 -1.35903 0
M  V30 1999 H 180.548 3.77177 -0.931097 0
M  V30 2000 H 182.22 3.06862 -3.44432 0
M  V30 2001 H 180.463 2.83349 -3.28475 0
M  V30 2002 H 181.134 4.46674 -3.24324 0
M  V30 2003 H 183.61 3.91999 -1.39556 0
M  V30 2004 H 182.486 5.30307 -1.41653 0
M  V30 2005 H 182.747 4.42029 0.0794833 0
M  V30 2006 N 181.806 0.884767 1.30421 0
M  V30 2007 C 182.716 0.355398 2.31892 0
M  V30 2008 C 183.732 -0.542261 1.65335 0
M  V30 2009 O 184.908 -0.435432 1.96637 0
M  V30 2010 C 181.973 -0.421661 3.44126 0
M  V30 2011 C 181.034 0.505727 4.26311 0
M  V30 2012 C 180.267 -0.234343 5.33185 0
M  V30 2013 O 180.49 -1.46045 5.51386 0
M  V30 2014 O 179.424 0.415443 6.00465 0
M  V30 2015 H 183.25 1.19685 2.79122 0
M  V30 2016 H 180.835 0.648596 1.34587 0
M  V30 2017 H 182.717 -0.861641 4.12497 0
M  V30 2018 H 181.392 -1.23942 2.99032 0
M  V30 2019 H 180.299 0.994513 3.60639 0
M  V30 2020 H 181.632 1.28948 4.75009 0
M  V30 2021 N 183.284 -1.43765 0.645699 0
M  V30 2022 C 184.533 -2.01116 0.153412 0
M  V30 2023 C 184.846 -1.51493 -1.23731 0
M  V30 2024 O 186.052 -2.01067 -1.8244 0
M  V30 2025 C 184.508 -3.59206 0.223473 0
M  V30 2026 C 184.116 -4.17823 1.61642 0
M  V30 2027 C 185.86 -4.23972 -0.211597 0
M  V30 2028 C 183.767 -5.68183 1.64081 0
M  V30 2029 H 182.697 -0.752093 0.0535891 0
M  V30 2030 H 185.348 -1.6482 0.806633 0
M  V30 2031 H 183.73 -3.92867 -0.497118 0
M  V30 2032 H 184.904 -3.95674 2.36176 0
M  V30 2033 H 183.219 -3.65399 1.99681 0
M  V30 2034 H 185.816 -5.34275 -0.213112 0
M  V30 2035 H 186.159 -3.97352 -1.24165 0
M  V30 2036 H 186.692 -3.95166 0.456988 0
M  V30 2037 H 183.431 -5.99559 2.64971 0
M  V30 2038 H 182.951 -5.9241 0.938611 0
M  V30 2039 H 184.63 -6.32085 1.3812 0
M  V30 2040 N 184.763 -0.387143 -1.52771 0
M  V30 2041 C 186.009 0.188506 -2.02525 0
M  V30 2042 C 186.364 1.44649 -1.26864 0
M  V30 2043 O 185.657 1.88189 -0.359945 0
M  V30 2044 C 185.851 0.512209 -3.53711 0
M  V30 2045 C 185.68 -0.712855 -4.44014 0
M  V30 2046 C 184.45 -1.23147 -4.90064 0
M  V30 2047 C 186.648 -1.58453 -4.89282 0
M  V30 2048 N 184.63 -2.41431 -5.64433 0
M  V30 2049 C 186.001 -2.61381 -5.6221 0
M  V30 2050 C 188.056 -1.60488 -4.71326 0
M  V30 2051 C 186.759 -3.66227 -6.19088 0
M  V30 2052 C 188.785 -2.6424 -5.29085 0
M  V30 2053 C 188.147 -3.6589 -6.01917 0
M  V30 2054 H 184.246 0.0311236 -0.78138 0
M  V30 2055 H 186.83 -0.536548 -1.87161 0
M  V30 2056 H 185.001 1.20632 -3.69192 0
M  V30 2057 H 186.733 1.07482 -3.90166 0
M  V30 2058 H 183.488 -0.792795 -4.66917 0
M  V30 2059 H 183.912 -3.01274 -6.0627 0
M  V30 2060 H 188.554 -0.83247 -4.14524 0
M  V30 2061 H 186.272 -4.44337 -6.74974 0
M  V30 2062 H 189.858 -2.66695 -5.17074 0
M  V30 2063 H 188.738 -4.44855 -6.45813 0
M  V30 2064 N 186.241 1.57166 -0.116904 0
M  V30 2065 C 187.189 2.16457 0.851418 0
M  V30 2066 C 188.183 1.11323 1.27686 0
M  V30 2067 O 189.389 1.2963 1.24884 0
M  V30 2068 H 185.764 0.69271 0.292672 0
M  V30 2069 H 187.735 2.96605 0.32685 0
M  V30 2070 C 186.484 2.77689 2.09246 0
M  V30 2071 H 185.807 3.58285 1.77402 0
M  V30 2072 H 187.247 3.22716 2.7501 0
M  V30 2073 C 185.706 1.74667 2.88085 0
M  V30 2074 O 186.236 1.19877 3.83396 0
M  V30 2075 N 184.442 1.44656 2.52038 0
M  V30 2076 H 183.989 1.89402 1.74599 0
M  V30 2077 H 183.947 0.759675 3.05084 0
M  V30 2078 N 187.719 -0.156864 1.56817 0
M  V30 2079 C 188.669 -1.19891 1.93934 0
M  V30 2080 C 189.653 -1.39061 0.809372 0
M  V30 2081 O 190.845 -1.40789 1.07273 0
M  V30 2082 C 187.974 -2.53493 2.31508 0
M  V30 2083 C 187.06 -2.37957 3.51052 0
M  V30 2084 N 187.451 -1.92158 4.67877 0
M  V30 2085 C 185.749 -2.68739 3.55943 0
M  V30 2086 C 186.45 -1.8943 5.49992 0
M  V30 2087 N 185.426 -2.32375 4.91429 0
M  V30 2088 H 189.228 -0.836746 2.81737 0
M  V30 2089 H 186.742 -0.365012 1.58245 0
M  V30 2090 H 188.739 -3.28811 2.56299 0
M  V30 2091 H 187.399 -2.905 1.45051 0
M  V30 2092 H 188.41 -1.62274 4.91821 0
M  V30 2093 H 185.087 -3.09687 2.80001 0
M  V30 2094 H 186.477 -1.55596 6.53636 0
M  V30 2095 N 189.197 -1.51736 -0.425897 0
M  V30 2096 C 190.129 -1.70083 -1.53638 0
M  V30 2097 C 191.142 -0.581349 -1.52066 0
M  V30 2098 O 192.331 -0.856017 -1.56635 0
M  V30 2099 C 189.431 -1.71078 -2.9255 0
M  V30 2100 C 188.604 -2.99795 -3.185 0
M  V30 2101 C 187.663 -2.92825 -4.37196 0
M  V30 2102 O 186.689 -3.66756 -4.35291 0
M  V30 2103 N 187.891 -2.0946 -5.41393 0
M  V30 2104 H 190.656 -2.65882 -1.383 0
M  V30 2105 H 188.217 -1.49765 -0.614988 0
M  V30 2106 H 190.209 -1.63969 -3.69995 0
M  V30 2107 H 188.779 -0.828242 -3.01428 0
M  V30 2108 H 187.999 -3.20684 -2.2925 0
M  V30 2109 H 189.287 -3.84977 -3.32671 0
M  V30 2110 H 188.685 -1.48792 -5.45781 0
M  V30 2111 H 187.242 -2.08221 -6.17647 0
M  V30 2112 N 190.675 0.682077 -1.42076 0
M  V30 2113 C 191.605 1.80796 -1.47767 0
M  V30 2114 C 192.586 1.6677 -0.334954 0
M  V30 2115 O 193.771 1.863 -0.548264 0
M  V30 2116 C 190.901 3.19038 -1.37229 0
M  V30 2117 C 189.855 3.47789 -2.49453 0
M  V30 2118 C 189.181 4.8553 -2.23975 0
M  V30 2119 C 190.481 3.45411 -3.91776 0
M  V30 2120 H 192.175 1.7629 -2.41997 0
M  V30 2121 H 189.721 0.846721 -1.16476 0
M  V30 2122 H 191.674 3.97528 -1.39821 0
M  V30 2123 H 190.398 3.24204 -0.394907 0
M  V30 2124 H 189.057 2.71657 -2.46166 0
M  V30 2125 H 188.705 4.87337 -1.24547 0
M  V30 2126 H 188.405 5.0573 -2.99184 0
M  V30 2127 H 189.929 5.66312 -2.28304 0
M  V30 2128 H 191.343 4.13882 -3.96705 0
M  V30 2129 H 189.74 3.77145 -4.66778 0
M  V30 2130 H 190.81 2.44122 -4.18966 0
M  V30 2131 N 192.153 1.28127 0.917671 0
M  V30 2132 C 193.402 1.14432 1.66097 0
M  V30 2133 C 193.715 -0.307247 1.93172 0
M  V30 2134 O 194.921 -0.565259 2.65551 0
M  V30 2135 C 193.377 2.00015 2.99202 0
M  V30 2136 C 192.985 3.49889 2.79789 0
M  V30 2137 C 194.729 1.94996 3.77064 0
M  V30 2138 C 192.636 4.27636 4.08511 0
M  V30 2139 H 191.566 0.424662 0.62304 0
M  V30 2140 H 194.217 1.52628 1.01868 0
M  V30 2141 H 192.599 1.54672 3.64544 0
M  V30 2142 H 193.773 4.03162 2.23152 0
M  V30 2143 H 192.088 3.56392 2.15345 0
M  V30 2144 H 194.685 2.50354 4.72469 0
M  V30 2145 H 195.028 0.925819 4.05875 0
M  V30 2146 H 195.561 2.38287 3.18534 0
M  V30 2147 H 192.3 5.30615 3.84874 0
M  V30 2148 H 191.82 3.79137 4.64774 0
M  V30 2149 H 193.499 4.37346 4.76799 0
M  V30 2150 N 193.631 -1.12557 1.10312 0
M  V30 2151 C 195.047 -1.36036 0.834649 0
M  V30 2152 C 195.247 -1.93946 -0.546539 0
M  V30 2153 O 194.303 -2.16484 -1.29966 0
M  V30 2154 C 195.616 -2.30312 1.9333 0
M  V30 2155 C 197.164 -2.43906 1.9616 0
M  V30 2156 C 197.639 -3.41496 3.05195 0
M  V30 2157 N 199.13 -3.49053 3.04494 0
M  V30 2158 C 199.865 -4.24471 3.85502 0
M  V30 2159 N 199.361 -5.02966 4.76442 0
M  V30 2160 N 201.154 -4.19864 3.73725 0
M  V30 2161 H 193.305 -0.733246 1.99342 0
M  V30 2162 H 195.568 -0.385234 0.866198 0
M  V30 2163 H 195.274 -1.94933 2.92735 0
M  V30 2164 H 195.148 -3.30421 1.81939 0
M  V30 2165 H 197.535 -2.78567 0.973886 0
M  V30 2166 H 197.616 -1.4369 2.11629 0
M  V30 2167 H 197.26 -3.07565 4.04186 0
M  V30 2168 H 197.19 -4.41539 2.86968 0
M  V30 2169 H 199.681 -2.93053 2.38596 0
M  V30 2170 H 199.994 -5.57846 5.34815 0
M  V30 2171 H 198.339 -5.02167 4.80472 0
M  V30 2172 H 201.53 -3.57623 3.02032 0
M  V30 2173 H 201.703 -4.78386 4.37093 0
M  V30 2174 N 195.109 -0.891671 -1.2995 0
M  V30 2175 C 196.339 -0.527893 -1.99742 0
M  V30 2176 C 196.747 0.88979 -1.66971 0
M  V30 2177 O 196.09 1.59766 -0.906667 0
M  V30 2178 C 196.152 -0.630804 -3.53922 0
M  V30 2179 C 195.816 -2.01401 -4.10228 0
M  V30 2180 C 196.813 -2.98422 -4.25724 0
M  V30 2181 C 194.498 -2.32121 -4.45449 0
M  V30 2182 C 196.492 -4.24293 -4.75662 0
M  V30 2183 C 194.179 -3.58237 -4.95086 0
M  V30 2184 C 195.177 -4.54137 -5.10146 0
M  V30 2185 O 194.865 -5.78014 -5.58708 0
M  V30 2186 H 194.597 -0.201953 -0.645129 0
M  V30 2187 H 197.151 -1.20076 -1.66646 0
M  V30 2188 H 195.381 0.0990616 -3.86573 0
M  V30 2189 H 197.07 -0.277338 -4.04951 0
M  V30 2190 H 197.836 -2.76001 -3.98809 0
M  V30 2191 H 193.715 -1.5824 -4.32991 0
M  V30 2192 H 197.259 -4.99153 -4.87332 0
M  V30 2193 H 193.156 -3.80491 -5.21437 0
M  V30 2194 H 193.924 -5.8049 -5.77039 0
M  V30 2195 N 196.587 1.43421 -0.653314 0
M  V30 2196 C 197.55 2.29182 0.0287951 0
M  V30 2197 C 198.55 1.42213 0.750465 0
M  V30 2198 O 199.74 1.63843 0.591701 0
M  V30 2199 C 196.872 3.24278 1.05151 0
M  V30 2200 H 198.065 2.90985 -0.725786 0
M  V30 2201 H 195.618 1.50702 -0.414545 0
M  V30 2202 H 196.353 2.6737 1.83532 0
M  V30 2203 H 196.138 3.88396 0.537687 0
M  V30 2204 H 197.628 3.88647 1.52786 0
M  V30 2205 N 198.065 0.39524 1.52563 0
M  V30 2206 C 199.313 -0.184678 2.01254 0
M  V30 2207 C 199.634 -1.46822 1.28329 0
M  V30 2208 O 198.904 -1.91666 0.405094 0
M  V30 2209 H 197.484 -0.0712355 0.743596 0
M  V30 2210 H 200.146 0.528293 1.87603 0
M  V30 2211 H 199.242 -0.390681 3.09645 0
M  V30 2212 N 199.544 -1.57102 0.125237 0
M  V30 2213 C 200.774 -1.99472 -0.538015 0
M  V30 2214 C 201.182 -1.00395 -1.60366 0
M  V30 2215 O 200.525 0.0103875 -1.83697 0
M  V30 2216 C 200.587 -3.38262 -1.21734 0
M  V30 2217 C 200.251 -4.56021 -0.298897 0
M  V30 2218 C 201.248 -5.17817 0.464943 0
M  V30 2219 C 198.933 -5.01869 -0.208149 0
M  V30 2220 C 200.927 -6.23852 1.3072 0
M  V30 2221 C 198.614 -6.07763 0.637736 0
M  V30 2222 C 199.612 -6.68622 1.39403 0
M  V30 2223 O 199.3 -7.7247 2.22586 0
M  V30 2224 H 199.032 -0.659934 -0.146501 0
M  V30 2225 H 201.586 -2.04321 0.210267 0
M  V30 2226 H 199.816 -3.30185 -2.01282 0
M  V30 2227 H 201.505 -3.6488 -1.77813 0
M  V30 2228 H 202.271 -4.83308 0.404741 0
M  V30 2229 H 198.15 -4.54241 -0.786522 0
M  V30 2230 H 201.694 -6.71284 1.898 0
M  V30 2231 H 197.591 -6.41701 0.699309 0
M  V30 2232 H 198.359 -7.89595 2.15596 0
M  V30 2233 N 201.022 0.148545 -1.56898 0
M  V30 2234 C 201.932 1.20293 -2.01412 0
M  V30 2235 C 202.948 1.47107 -0.929273 0
M  V30 2236 O 204.124 1.58807 -1.23863 0
M  V30 2237 C 201.189 2.51682 -2.38447 0
M  V30 2238 C 200.25 2.32529 -3.60872 0
M  V30 2239 C 199.483 3.57653 -3.96132 0
M  V30 2240 O 199.706 4.63771 -3.32073 0
M  V30 2241 O 198.64 3.50408 -4.89385 0
M  V30 2242 H 202.466 0.855025 -2.91416 0
M  V30 2243 H 200.051 0.357151 -1.45068 0
M  V30 2244 H 201.933 3.29147 -2.63135 0
M  V30 2245 H 200.608 2.86006 -1.51599 0
M  V30 2246 H 199.515 1.53019 -3.41373 0
M  V30 2247 H 200.848 2.03121 -4.48333 0
M  V30 2248 N 202.5 1.5196 0.417844 0
M  V30 2249 C 203.725 1.69717 1.1921 0
M  V30 2250 C 204.15 0.402148 1.83751 0
M  V30 2251 O 203.508 -0.639593 1.69643 0
M  V30 2252 C 203.556 2.82794 2.2374 0
M  V30 2253 O 202.66 2.47756 3.29683 0
M  V30 2254 H 202.001 0.565263 0.348387 0
M  V30 2255 H 204.531 1.98621 0.490985 0
M  V30 2256 H 204.541 3.07452 2.68212 0
M  V30 2257 H 203.216 3.76756 1.76146 0
M  V30 2258 H 201.793 2.33739 2.90552 0
M  V30 2259 N 203.978 -0.674533 1.42435 0
M  V30 2260 C 205.255 -1.4305 1.33402 0
M  V30 2261 C 205.635 -2.11081 -0.0284674 0
M  V30 2262 O 204.983 -2.03257 -1.04397 0
M  V30 2263 C 205.193 -2.43272 2.50239 0
M  V30 2264 C 206.541 -3.07907 2.92367 0
M  V30 2265 O 207.565 -2.53599 2.50132 0
M  V30 2266 O 206.424 -4.0632 3.65467 0
M  V30 2267 H 203.518 -0.638076 0.526106 0
M  V30 2268 H 206.064 -0.703235 1.54443 0
M  V30 2269 H 204.836 -1.91803 3.41068 0
M  V30 2270 H 204.459 -3.23479 2.31186 0
M  V30 2271 N 205.456 -1.28612 -0.910864 0
M  V30 2272 C 206.704 -1.15705 -1.65701 0
M  V30 2273 C 207.025 0.29416 -1.92769 0
M  V30 2274 O 206.295 1.20331 -1.54588 0
M  V30 2275 H 204.875 -0.425216 -0.614167 0
M  V30 2276 H 207.537 -1.61381 -1.0928 0
M  V30 2277 H 206.633 -1.6988 -2.61815 0
M  V30 2278 N 206.934 1.1197 -1.10907 0
M  V30 2279 C 207.844 2.21433 -0.774896 0
M  V30 2280 C 208.86 1.72478 0.229657 0
M  V30 2281 O 210.036 2.01288 0.0672008 0
M  V30 2282 C 207.101 3.4602 -0.216986 0
M  V30 2283 C 206.162 4.09791 -1.27944 0
M  V30 2284 C 205.395 5.28431 -0.748055 0
M  V30 2285 O 205.618 5.68823 0.423833 0
M  V30 2286 O 204.552 5.82644 -1.51027 0
M  V30 2287 H 208.378 2.5242 -1.68873 0
M  V30 2288 H 205.963 1.20399 -0.884555 0
M  V30 2289 H 207.845 4.21304 0.090059 0
M  V30 2290 H 206.52 3.16698 0.669633 0
M  V30 2291 H 205.427 3.36265 -1.63941 0
M  V30 2292 H 206.76 4.4328 -2.13925 0
M  V30 2293 N 208.412 0.89855 1.29475 0
M  V30 2294 C 209.828 0.594483 1.48115 0
M  V30 2295 C 210.028 -0.86431 1.82022 0
M  V30 2296 O 209.084 -1.64457 1.91599 0
M  V30 2297 C 210.397 1.51932 2.59494 0
M  V30 2298 C 211.945 1.5244 2.7337 0
M  V30 2299 C 212.42 2.43548 3.87877 0
M  V30 2300 N 213.911 2.41589 3.95208 0
M  V30 2301 C 214.646 3.08789 4.83153 0
M  V30 2302 N 214.142 3.85265 5.75798 0
M  V30 2303 N 215.935 2.97952 4.76635 0
M  V30 2304 H 208.086 1.84207 1.05742 0
M  V30 2305 H 210.349 0.789251 0.525154 0
M  V30 2306 H 210.055 2.55865 2.41301 0
M  V30 2307 H 209.929 1.23899 3.56271 0
M  V30 2308 H 212.316 0.492518 2.90961 0
M  V30 2309 H 212.397 1.8451 1.77172 0
M  V30 2310 H 212.041 3.46829 3.71041 0
M  V30 2311 H 211.971 2.08788 4.83441 0
M  V30 2312 H 214.462 1.86025 3.28943 0
M  V30 2313 H 214.775 4.33598 6.39697 0
M  V30 2314 H 213.12 3.89371 5.75687 0
M  V30 2315 H 216.311 2.37723 4.03244 0
M  V30 2316 H 216.484 3.50599 5.44962 0
M  V30 2317 N 209.89 -1.43072 0.660911 0
M  V30 2318 C 211.139 -2.00942 0.174735 0
M  V30 2319 C 211.452 -1.52797 -1.22117 0
M  V30 2320 O 212.658 -2.02991 -1.80297 0
M  V30 2321 C 211.114 -3.58948 0.261559 0
M  V30 2322 C 210.722 -4.16085 1.66064 0
M  V30 2323 C 212.466 -4.24173 -0.166617 0
M  V30 2324 C 210.373 -5.6641 1.70098 0
M  V30 2325 H 209.303 -0.751483 0.0615631 0
M  V30 2326 H 211.954 -1.63955 0.824069 0
M  V30 2327 H 210.336 -3.93372 -0.455421 0
M  V30 2328 H 211.51 -3.93147 2.40359 0
M  V30 2329 H 209.825 -3.6326 2.03546 0
M  V30 2330 H 212.422 -5.34471 -0.156433 0
M  V30 2331 H 212.765 -3.98647 -1.19943 0
M  V30 2332 H 213.298 -3.94659 0.498875 0
M  V30 2333 H 210.037 -5.96715 2.71315 0
M  V30 2334 H 209.557 -5.91382 1.00139 0
M  V30 2335 H 211.236 -6.30585 1.44816 0
M  V30 2336 N 211.368 -0.403325 -1.52352 0
M  V30 2337 C 212.616 0.174003 -2.0135 0
M  V30 2338 C 212.937 1.46139 -1.29106 0
M  V30 2339 O 212.207 1.91448 -0.415253 0
M  V30 2340 H 210.787 0.0672911 -0.743963 0
M  V30 2341 H 213.449 -0.538235 -1.87321 0
M  V30 2342 H 212.545 0.374254 -3.09848 0
M  V30 2343 N 212.846 1.57033 -0.133567 0
M  V30 2344 C 214.123 1.87256 0.56522 0
M  V30 2345 C 214.503 1.03726 1.83859 0
M  V30 2346 O 213.851 0.120247 2.28183 0
M  V30 2347 C 214.061 3.3865 0.843636 0
M  V30 2348 C 215.409 4.07574 1.19032 0
M  V30 2349 O 216.433 3.43752 0.933429 0
M  V30 2350 O 215.292 5.20259 1.67312 0
M  V30 2351 H 212.386 0.775678 0.286796 0
M  V30 2352 H 214.932 1.68855 -0.169168 0
M  V30 2353 H 213.704 3.91257 -0.0581149 0
M  V30 2354 H 213.327 3.62532 1.63268 0
M  V30 2355 N 214.325 -0.140222 1.56975 0
M  V30 2356 C 215.736 -0.699596 1.73097 0
M  V30 2357 C 216.087 -1.8134 0.749022 0
M  V30 2358 O 215.212 -2.16241 -0.0828503 0
M  V30 2359 C 215.807 -1.27582 3.1386 0
M  V30 2360 C 214.366 -1.78169 3.31561 0
M  V30 2361 C 213.513 -0.672855 2.69013 0
M  V30 2362 H 216.464 0.0855115 1.58469 0
M  V30 2363 H 216.485 -2.14561 3.14235 0
M  V30 2364 H 215.997 -0.464955 3.85305 0
M  V30 2365 H 214.098 -2.61801 2.65124 0
M  V30 2366 H 214.211 -1.90574 4.39566 0
M  V30 2367 H 212.575 -1.10118 2.29665 0
M  V30 2368 H 213.358 0.126679 3.43066 0
M  V30 2369 N 215.803 -1.52179 -0.40978 0
M  V30 2370 C 216.766 -1.74853 -1.48186 0
M  V30 2371 C 217.766 -0.618417 -1.48433 0
M  V30 2372 O 218.956 -0.886286 -1.49969 0
M  V30 2373 C 216.088 -1.8303 -2.87598 0
M  V30 2374 H 217.281 -2.70559 -1.29374 0
M  V30 2375 H 214.834 -1.42586 -0.640233 0
M  V30 2376 H 215.569 -0.89236 -3.11781 0
M  V30 2377 H 215.354 -2.65187 -2.88822 0
M  V30 2378 H 216.844 -2.02316 -3.65319 0
M  V30 2379 N 217.281 0.66697 -1.42791 0
M  V30 2380 C 218.506 1.46004 -1.47301 0
M  V30 2381 C 218.931 1.87894 -0.0880317 0
M  V30 2382 O 218.289 1.56502 0.915253 0
M  V30 2383 C 218.337 2.68031 -2.41229 0
M  V30 2384 O 217.441 3.6659 -1.88906 0
M  V30 2385 H 216.782 0.43832 -0.49877 0
M  V30 2386 H 219.312 0.817391 -1.87563 0
M  V30 2387 H 219.322 3.1601 -2.58073 0
M  V30 2388 H 217.997 2.36883 -3.41847 0
M  V30 2389 H 216.574 3.25661 -1.81656 0
M  V30 2390 N 218.759 1.29093 0.90403 0
M  V30 2391 C 219.999 1.18076 1.66845 0
M  V30 2392 C 220.363 -0.26436 1.90171 0
M  V30 2393 O 221.564 -0.497423 2.64157 0
M  V30 2394 C 219.835 1.96722 2.98388 0
M  V30 2395 S 221.394 2.0219 3.89441 0
M  V30 2396 H 218.212 0.421104 0.572881 0
M  V30 2397 H 220.814 1.63322 1.07453 0
M  V30 2398 H 219.518 3.00866 2.7912 0
M  V30 2399 H 219.049 1.52064 3.62823 0
M  V30 2400 H 221.064 1.13545 4.83034 0
M  V30 2401 N 220.237 -1.11381 1.11499 0
M  V30 2402 C 221.462 -1.87475 0.887019 0
M  V30 2403 C 221.887 -1.79639 -0.557796 0
M  V30 2404 O 221.245 -1.15924 -1.39396 0
M  V30 2405 C 221.293 -3.34213 1.35403 0
M  V30 2406 O 220.397 -4.0903 0.526146 0
M  V30 2407 H 219.738 -0.582099 0.319463 0
M  V30 2408 H 222.268 -1.40785 1.48461 0
M  V30 2409 H 222.278 -3.8506 1.34881 0
M  V30 2410 H 220.953 -3.39232 2.40612 0
M  V30 2411 H 219.53 -3.68082 0.597522 0
M  V30 2412 N 221.715 -0.905404 -1.28997 0
M  V30 2413 C 222.645 -0.404212 -2.29975 0
M  V30 2414 C 223.626 0.523784 -1.61835 0
M  V30 2415 O 224.811 0.433298 -1.89304 0
M  V30 2416 C 221.941 0.364042 -3.45387 0
M  V30 2417 C 220.895 -0.474048 -4.25367 0
M  V30 2418 C 220.221 0.422045 -5.33032 0
M  V30 2419 C 221.521 -1.72696 -4.92923 0
M  V30 2420 H 223.215 -1.24807 -2.72146 0
M  V30 2421 H 220.761 -0.601585 -1.30832 0
M  V30 2422 H 222.714 0.725447 -4.15109 0
M  V30 2423 H 221.438 1.24174 -3.02074 0
M  V30 2424 H 220.097 -0.81786 -3.57361 0
M  V30 2425 H 219.745 1.29804 -4.85963 0
M  V30 2426 H 219.445 -0.135057 -5.87445 0
M  V30 2427 H 220.969 0.779517 -6.05604 0
M  V30 2428 H 222.383 -1.43495 -5.55051 0
M  V30 2429 H 220.78 -2.22582 -5.57295 0
M  V30 2430 H 221.85 -2.45964 -4.17887 0
M  V30 2431 N 223.193 1.4272 -0.668489 0
M  V30 2432 C 224.421 2.05966 -0.196348 0
M  V30 2433 C 224.836 1.50191 1.14403 0
M  V30 2434 O 224.193 0.639208 1.7094 0
M  V30 2435 C 224.244 3.61314 -0.115815 0
M  V30 2436 O 223.965 4.1502 -1.40322 0
M  V30 2437 C 225.466 4.41663 0.380579 0
M  V30 2438 H 222.686 0.663954 -0.0969829 0
M  V30 2439 H 225.23 1.82966 -0.913446 0
M  V30 2440 H 223.385 3.83448 0.551931 0
M  V30 2441 H 223.799 5.08832 -1.27243 0
M  V30 2442 H 225.273 5.5065 0.385848 0
M  V30 2443 H 225.75 4.15792 1.41471 0
M  V30 2444 H 226.356 4.24534 -0.255209 0
M  V30 2445 N 224.671 0.411399 1.52136 0
M  V30 2446 C 225.634 -0.401089 2.25663 0
M  V30 2447 C 226.634 -0.971732 1.28117 0
M  V30 2448 O 227.824 -0.850254 1.52041 0
M  V30 2449 C 224.956 -1.56483 3.02863 0
M  V30 2450 H 226.149 0.24295 2.98914 0
M  V30 2451 H 223.702 0.163968 1.55438 0
M  V30 2452 H 224.437 -2.24567 2.33967 0
M  V30 2453 H 224.222 -1.16211 3.74483 0
M  V30 2454 H 225.712 -2.13951 3.58629 0
M  V30 2455 N 226.149 -1.5696 0.141893 0
M  V30 2456 C 227.112 -2.15316 -0.785587 0
M  V30 2457 C 228.112 -1.09366 -1.1788 0
M  V30 2458 O 229.302 -1.35031 -1.10056 0
M  V30 2459 C 226.434 -2.71211 -2.06537 0
M  V30 2460 H 227.627 -2.98608 -0.278041 0
M  V30 2461 H 225.18 -1.5593 -0.107519 0
M  V30 2462 H 225.915 -1.91571 -2.6167 0
M  V30 2463 H 225.7 -3.4872 -1.79268 0
M  V30 2464 H 227.19 -3.16189 -2.72789 0
M  V30 2465 N 227.627 0.131896 -1.57047 0
M  V30 2466 C 228.867 0.847972 -1.85981 0
M  V30 2467 C 229.231 1.77655 -0.7282 0
M  V30 2468 O 230.432 2.53322 -0.898968 0
M  V30 2469 C 228.703 1.58919 -3.20124 0
M  V30 2470 S 230.262 2.34862 -3.70655 0
M  V30 2471 H 227.08 0.283273 -0.652133 0
M  V30 2472 H 229.682 0.107057 -1.95207 0
M  V30 2473 H 228.386 0.898771 -4.00438 0
M  V30 2474 H 227.917 2.37073 -3.13942 0
M  V30 2475 H 229.932 3.60344 -3.41126 0
M  V30 2476 N 229.106 1.52395 0.401703 0
M  V30 2477 C 230.016 1.7917 1.51444 0
M  V30 2478 C 231.032 0.677691 1.6026 0
M  V30 2479 O 232.208 0.963909 1.76835 0
M  V30 2480 C 229.273 1.94347 2.87107 0
M  V30 2481 C 228.334 3.18257 2.88116 0
M  V30 2482 C 227.567 3.32701 4.17308 0
M  V30 2483 O 227.79 2.52238 5.11598 0
M  V30 2484 O 226.724 4.25891 4.25324 0
M  V30 2485 H 230.55 2.73633 1.31752 0
M  V30 2486 H 228.135 1.3733 0.588296 0
M  V30 2487 H 230.017 2.06109 3.67555 0
M  V30 2488 H 228.692 1.03073 3.06851 0
M  V30 2489 H 227.599 3.11947 2.06494 0
M  V30 2490 H 228.932 4.09336 2.73322 0
M  V30 2491 N 230.584 -0.659388 1.43143 0
M  V30 2492 C 231.494 -1.80167 1.50256 0
M  V30 2493 C 232.51 -1.69571 0.390106 0
M  V30 2494 O 233.686 -1.90849 0.643319 0
M  V30 2495 C 230.751 -3.16409 1.41725 0
M  V30 2496 C 229.812 -3.38848 2.63591 0
M  V30 2497 C 229.045 -4.68591 2.55458 0
M  V30 2498 O 229.268 -5.47532 1.59891 0
M  V30 2499 O 228.202 -4.92614 3.45854 0
M  V30 2500 H 232.028 -1.77121 2.46702 0
M  V30 2501 H 229.613 -0.817092 1.25076 0
M  V30 2502 H 231.495 -3.9768 1.39387 0
M  V30 2503 H 230.17 -3.20059 0.484118 0
M  V30 2504 H 229.077 -2.57366 2.71502 0
M  V30 2505 H 230.41 -3.4004 3.55856 0
M  V30 2506 N 232.062 -1.29571 -0.897171 0
M  V30 2507 C 232.992 -1.17473 -2.01798 0
M  V30 2508 C 233.973 -0.068323 -1.69963 0
M  V30 2509 O 235.158 -0.248239 -1.92607 0
M  V30 2510 C 232.288 -0.853099 -3.36659 0
M  V30 2511 C 231.242 -1.9161 -3.82713 0
M  V30 2512 C 230.568 -1.44773 -5.14728 0
M  V30 2513 C 231.868 -3.32535 -4.02763 0
M  V30 2514 H 233.562 -2.11237 -2.12177 0
M  V30 2515 H 231.108 -1.01699 -1.01948 0
M  V30 2516 H 233.061 -0.755165 -4.14578 0
M  V30 2517 H 231.785 0.120236 -3.26379 0
M  V30 2518 H 230.444 -2.00346 -3.07013 0
M  V30 2519 H 230.092 -0.462995 -5.00865 0
M  V30 2520 H 229.792 -2.15865 -5.46513 0
M  V30 2521 H 231.316 -1.36334 -5.95185 0
M  V30 2522 H 232.73 -3.26626 -4.71156 0
M  V30 2523 H 231.127 -4.01607 -4.45905 0
M  V30 2524 H 232.197 -3.75326 -3.07016 0
M  V30 2525 N 233.54 1.10788 -1.12088 0
M  V30 2526 C 234.788 1.8231 -0.872205 0
M  V30 2527 C 235.109 1.85419 0.603709 0
M  V30 2528 O 234.379 1.32963 1.43867 0
M  V30 2529 H 232.959 0.675137 -0.319686 0
M  V30 2530 H 235.621 1.34068 -1.41463 0
M  V30 2531 H 234.717 2.85955 -1.25045 0
M  V30 2532 N 235.018 0.912232 1.28515 0
M  V30 2533 C 236.264 0.554851 1.95686 0
M  V30 2534 C 236.619 -0.89138 1.70506 0
M  V30 2535 O 235.912 -1.62529 1.01464 0
M  V30 2536 C 236.106 0.798392 3.48368 0
M  V30 2537 C 235.935 2.26674 3.88393 0
M  V30 2538 C 234.705 2.91657 4.12631 0
M  V30 2539 C 236.903 3.24303 3.99164 0
M  V30 2540 N 234.885 4.28805 4.39317 0
M  V30 2541 C 236.256 4.4661 4.30046 0
M  V30 2542 C 238.311 3.19723 3.81683 0
M  V30 2543 C 237.014 5.64915 4.45268 0
M  V30 2544 C 239.04 4.37325 3.98121 0
M  V30 2545 C 238.402 5.58406 4.29375 0
M  V30 2546 H 234.501 0.252876 0.739985 0
M  V30 2547 H 237.085 1.17565 1.55199 0
M  V30 2548 H 235.256 0.20688 3.87849 0
M  V30 2549 H 236.988 0.405193 4.02666 0
M  V30 2550 H 233.743 2.42393 4.06869 0
M  V30 2551 H 234.167 4.99712 4.56746 0
M  V30 2552 H 238.809 2.27191 3.56573 0
M  V30 2553 H 236.527 6.57927 4.6921 0
M  V30 2554 H 240.113 4.35282 3.86033 0
M  V30 2555 H 238.993 6.47889 4.41825 0
M  V30 2556 N 236.496 -1.42363 0.676048 0
M  V30 2557 C 237.912 -1.55811 0.345718 0
M  V30 2558 C 238.112 -1.65544 -1.14879 0
M  V30 2559 O 237.168 -1.62306 -1.93424 0
M  V30 2560 C 238.481 -2.80746 1.07713 0
M  V30 2561 C 240.029 -2.9452 1.05958 0
M  V30 2562 C 240.504 -4.22318 1.77233 0
M  V30 2563 N 241.995 -4.29233 1.74108 0
M  V30 2564 C 242.73 -5.26935 2.26113 0
M  V30 2565 N 242.226 -6.30783 2.86505 0
M  V30 2566 N 244.019 -5.18741 2.1648 0
M  V30 2567 H 236.17 -1.34289 1.6456 0
M  V30 2568 H 238.433 -0.646506 0.69335 0
M  V30 2569 H 238.139 -2.79696 2.13221 0
M  V30 2570 H 238.013 -3.71676 0.64316 0
M  V30 2571 H 240.4 -2.95097 0.0128255 0
M  V30 2572 H 240.481 -2.04817 1.53244 0
M  V30 2573 H 240.125 -4.22502 2.81877 0
M  V30 2574 H 240.055 -5.10958 1.27396 0
M  V30 2575 H 242.546 -3.54814 1.30059 0
M  V30 2576 H 242.859 -7.01691 3.23805 0
M  V30 2577 H 241.204 -6.31341 2.90575 0
M  V30 2578 H 244.395 -4.36533 1.68987 0
M  V30 2579 H 244.568 -5.94721 2.57316 0
M  V30 2580 N 237.974 -0.419461 -1.51915 0
M  V30 2581 C 239.222 0.152637 -2.01523 0
M  V30 2582 C 239.543 1.44762 -1.30649 0
M  V30 2583 O 238.813 1.90997 -0.435535 0
M  V30 2584 H 237.393 0.0593966 -0.744635 0
M  V30 2585 H 240.055 -0.558073 -1.86739 0
M  V30 2586 H 239.151 0.341369 -3.10227 0
M  V30 2587 N 239.452 1.56882 -0.150215 0
M  V30 2588 C 240.362 2.20494 0.801222 0
M  V30 2589 C 241.378 1.19019 1.26927 0
M  V30 2590 O 242.554 1.51607 1.32579 0
M  V30 2591 C 239.619 2.81659 2.02161 0
M  V30 2592 C 238.68 3.9827 1.60249 0
M  V30 2593 C 237.913 4.56508 2.7647 0
M  V30 2594 O 238.136 4.13627 3.92771 0
M  V30 2595 O 237.07 5.46719 2.51757 0
M  V30 2596 H 240.896 3.02315 0.289717 0
M  V30 2597 H 238.481 1.49202 0.0769684 0
M  V30 2598 H 240.363 3.20522 2.73576 0
M  V30 2599 H 239.038 2.02849 2.52258 0
M  V30 2600 H 237.945 3.64117 0.858477 0
M  V30 2601 H 239.278 4.78609 1.14864 0
M  V30 2602 N 240.93 -0.123565 1.57115 0
M  V30 2603 C 242.346 -0.476961 1.52306 0
M  V30 2604 C 242.546 -1.82109 0.86248 0
M  V30 2605 O 241.602 -2.48586 0.442884 0
M  V30 2606 C 242.915 -0.465661 2.97073 0
M  V30 2607 C 244.463 -0.549534 3.08138 0
M  V30 2608 C 244.938 -0.568669 4.54456 0
M  V30 2609 N 246.429 -0.630237 4.58892 0
M  V30 2610 C 247.164 -0.666415 5.69514 0
M  V30 2611 N 246.66 -0.660514 6.89644 0
M  V30 2612 N 248.453 -0.709077 5.5761 0
M  V30 2613 H 240.604 0.757198 1.98445 0
M  V30 2614 H 242.867 0.278808 0.906074 0
M  V30 2615 H 242.573 0.454232 3.48754 0
M  V30 2616 H 242.447 -1.29513 3.54269 0
M  V30 2617 H 244.834 -1.45985 2.56461 0
M  V30 2618 H 244.915 0.307532 2.53945 0
M  V30 2619 H 244.559 0.337581 5.06777 0
M  V30 2620 H 244.489 -1.44256 5.06456 0
M  V30 2621 H 246.98 -0.641146 3.72421 0
M  V30 2622 H 247.293 -0.690616 7.69708 0
M  V30 2623 H 245.638 -0.628012 6.92157 0
M  V30 2624 H 248.829 -0.711019 4.62668 0
M  V30 2625 H 249.002 -0.733804 6.43832 0
M  V30 2626 N 242.408 -1.52605 -0.393616 0
M  V30 2627 C 243.636 -1.71294 -1.16043 0
M  V30 2628 C 244.051 -0.429259 -1.83855 0
M  V30 2629 O 243.408 0.595921 -1.72496 0
M  V30 2630 C 243.459 -2.8593 -2.21193 0
M  V30 2631 O 243.18 -4.09329 -1.56146 0
M  V30 2632 C 244.681 -3.16259 -3.10636 0
M  V30 2633 H 241.901 -0.573641 -0.348104 0
M  V30 2634 H 244.445 -1.99234 -0.461092 0
M  V30 2635 H 242.6 -2.60465 -2.86769 0
M  V30 2636 H 243.014 -4.73323 -2.25978 0
M  V30 2637 H 244.488 -3.99946 -3.80456 0
M  V30 2638 H 244.965 -2.3045 -3.73884 0
M  V30 2639 H 245.571 -3.43547 -2.50711 0
M  V30 2640 N 243.887 0.651787 -1.4349 0
M  V30 2641 C 245.164 1.40909 -1.35661 0
M  V30 2642 C 245.544 2.11099 -0.00511733 0
M  V30 2643 O 244.892 2.04892 1.0115 0
M  V30 2644 C 245.102 2.3926 -2.54078 0
M  V30 2645 C 246.45 3.03217 -2.97228 0
M  V30 2646 O 247.474 2.49588 -2.54135 0
M  V30 2647 O 246.333 4.00455 -3.71885 0
M  V30 2648 H 243.427 0.629625 -0.536191 0
M  V30 2649 H 245.973 0.678575 -1.55542 0
M  V30 2650 H 244.745 1.86352 -3.44076 0
M  V30 2651 H 244.368 3.1976 -2.36303 0
M  V30 2652 N 245.365 1.30045 0.890287 0
M  V30 2653 C 246.612 1.18561 1.64163 0
M  V30 2654 C 246.94 -0.260852 1.92743 0
M  V30 2655 O 246.195 -1.20376 1.54299 0
M  V30 2656 C 246.494 1.95409 2.99249 0
M  V30 2657 C 246.16 3.45066 2.90242 0
M  V30 2658 C 244.822 3.85878 2.87492 0
M  V30 2659 C 247.174 4.4039 2.78758 0
M  V30 2660 C 244.502 5.20314 2.7109 0
M  V30 2661 C 246.854 5.74928 2.63894 0
M  V30 2662 C 245.518 6.14986 2.59516 0
M  V30 2663 H 244.788 0.433846 0.600715 0
M  V30 2664 H 247.435 1.61088 1.03552 0
M  V30 2665 H 245.74 1.45501 3.63781 0
M  V30 2666 H 247.437 1.8392 3.56334 0
M  V30 2667 H 244.027 3.12631 2.93189 0
M  V30 2668 H 248.211 4.09806 2.79952 0
M  V30 2669 H 243.467 5.50449 2.66112 0
M  V30 2670 H 247.641 6.48434 2.53981 0
M  V30 2671 H 245.268 7.19104 2.46565 0
M  V30 2672 N 246.843 -1.10192 1.12674 0
M  V30 2673 C 248.12 -1.78717 0.794965 0
M  V30 2674 C 248.5 -1.98628 -0.714853 0
M  V30 2675 O 247.848 -1.58135 -1.64941 0
M  V30 2676 C 248.058 -3.11546 1.5729 0
M  V30 2677 C 249.406 -3.86382 1.76052 0
M  V30 2678 O 250.43 -3.21274 1.53823 0
M  V30 2679 O 249.289 -5.03246 2.13087 0
M  V30 2680 H 246.383 -0.774702 0.289423 0
M  V30 2681 H 248.929 -1.16819 1.23091 0
M  V30 2682 H 247.701 -2.92489 2.59935 0
M  V30 2683 H 247.324 -3.81164 1.13137 0
M  V30 2684 N 248.321 -0.919034 -1.28029 0
M  V30 2685 C 249.251 -0.428581 -2.29533 0
M  V30 2686 C 250.232 0.50659 -1.62381 0
M  V30 2687 O 251.417 0.413195 -1.89753 0
M  V30 2688 C 248.547 0.327388 -3.45753 0
M  V30 2689 C 247.501 -0.519137 -4.2484 0
M  V30 2690 C 246.827 0.365486 -5.33449 0
M  V30 2691 C 248.127 -1.77914 -4.91064 0
M  V30 2692 H 249.821 -1.27687 -2.70807 0
M  V30 2693 H 247.367 -0.615428 -1.30186 0
M  V30 2694 H 249.32 0.681378 -4.15855 0
M  V30 2695 H 248.044 1.20963 -3.03374 0
M  V30 2696 H 246.703 -0.855717 -3.56473 0
M  V30 2697 H 246.351 1.24642 -4.87312 0
M  V30 2698 H 246.051 -0.197356 -5.87268 0
M  V30 2699 H 247.575 0.715241 -6.06396 0
M  V30 2700 H 248.989 -1.49374 -5.53498 0
M  V30 2701 H 247.386 -2.2848 -5.54903 0
M  V30 2702 H 248.456 -2.50382 -4.15255 0
M  V30 2703 N 249.799 1.42003 -0.683588 0
M  V30 2704 C 250.729 2.33487 -0.024866 0
M  V30 2705 C 251.71 1.51163 0.779975 0
M  V30 2706 O 252.895 1.79739 0.735362 0
M  V30 2707 C 250.025 3.3487 0.920836 0
M  V30 2708 C 248.979 4.27414 0.223958 0
M  V30 2709 C 248.305 5.19074 1.2832 0
M  V30 2710 C 249.605 5.14445 -0.90242 0
M  V30 2711 H 251.299 2.88819 -0.788921 0
M  V30 2712 H 248.845 1.38873 -0.38083 0
M  V30 2713 H 250.798 3.97787 1.39081 0
M  V30 2714 H 249.522 2.77861 1.71642 0
M  V30 2715 H 248.181 3.65904 -0.225864 0
M  V30 2716 H 247.829 4.58387 2.071 0
M  V30 2717 H 247.529 5.81822 0.821995 0
M  V30 2718 H 249.053 5.84867 1.75392 0
M  V30 2719 H 250.467 5.70998 -0.513272 0
M  V30 2720 H 248.864 5.86072 -1.28997 0
M  V30 2721 H 249.934 4.52322 -1.74737 0
M  V30 2722 N 251.277 0.427512 1.51691 0
M  V30 2723 C 252.688 -0.0378867 1.86662 0
M  V30 2724 C 253.039 -1.42819 1.34525 0
M  V30 2725 O 252.164 -2.05037 0.692014 0
M  V30 2726 C 252.759 -0.0755266 3.38716 0
M  V30 2727 C 251.318 -0.485309 3.73258 0
M  V30 2728 C 250.465 0.328399 2.75349 0
M  V30 2729 H 253.416 0.64379 1.45055 0
M  V30 2730 H 253.437 -0.887056 3.70016 0
M  V30 2731 H 252.949 0.936487 3.76632 0
M  V30 2732 H 251.05 -1.50329 3.40928 0
M  V30 2733 H 251.163 -0.21693 4.78609 0
M  V30 2734 H 249.527 -0.211905 2.53817 0
M  V30 2735 H 250.31 1.3391 3.16106 0
M  V30 2736 N 252.755 -1.56801 0.158532 0
M  V30 2737 C 253.685 -2.20347 -0.772609 0
M  V30 2738 C 254.666 -1.15518 -1.24859 0
M  V30 2739 O 255.851 -1.43902 -1.30406 0
M  V30 2740 C 252.981 -2.83417 -2.00729 0
M  V30 2741 C 251.935 -3.94174 -1.66765 0
M  V30 2742 C 251.261 -4.44233 -2.97592 0
M  V30 2743 C 252.561 -5.14392 -0.905447 0
M  V30 2744 H 254.255 -2.98413 -0.242959 0
M  V30 2745 H 251.801 -1.43537 -0.115419 0
M  V30 2746 H 253.754 -3.26543 -2.6636 0
M  V30 2747 H 252.478 -2.02701 -2.56086 0
M  V30 2748 H 251.137 -3.51684 -1.03508 0
M  V30 2749 H 250.785 -3.60325 -3.50963 0
M  V30 2750 H 250.485 -5.18945 -2.75626 0
M  V30 2751 H 252.009 -4.90037 -3.64274 0
M  V30 2752 H 253.423 -5.5429 -1.46408 0
M  V30 2753 H 251.82 -5.9494 -0.7853 0
M  V30 2754 H 252.89 -4.84795 0.100668 0
M  V30 2755 N 254.233 0.115231 -1.57178 0
M  V30 2756 C 255.482 0.820945 -1.84237 0
M  V30 2757 C 255.795 1.80866 -0.744761 0
M  V30 2758 O 257.001 2.56083 -0.901871 0
M  V30 2759 C 255.457 1.51072 -3.26658 0
M  V30 2760 C 255.065 0.563795 -4.44438 0
M  V30 2761 C 256.809 2.20134 -3.62962 0
M  V30 2762 C 254.716 1.25701 -5.77887 0
M  V30 2763 H 253.646 0.310328 -0.687177 0
M  V30 2764 H 256.297 0.0737134 -1.83352 0
M  V30 2765 H 254.679 2.30471 -3.22024 0
M  V30 2766 H 255.853 -0.197247 -4.60378 0
M  V30 2767 H 254.168 -0.0200638 -4.16395 0
M  V30 2768 H 256.765 2.72696 -4.59936 0
M  V30 2769 H 257.108 2.98107 -2.90582 0
M  V30 2770 H 257.641 1.47619 -3.69396 0
M  V30 2771 H 254.38 0.518493 -6.53446 0
M  V30 2772 H 253.9 1.98997 -5.65827 0
M  V30 2773 H 255.579 1.78915 -6.2177 0
M  V30 2774 N 255.711 1.52812 0.385517 0
M  V30 2775 C 256.958 1.68026 1.1302 0
M  V30 2776 C 257.286 0.421934 1.89868 0
M  V30 2777 O 256.541 -0.595749 1.86412 0
M  V30 2778 C 256.84 2.86856 2.13187 0
M  V30 2779 C 256.506 4.24159 1.5297 0
M  V30 2780 C 255.168 4.61501 1.36274 0
M  V30 2781 C 257.52 5.09627 1.09223 0
M  V30 2782 C 254.848 5.81966 0.743837 0
M  V30 2783 C 257.2 6.30719 0.487411 0
M  V30 2784 C 255.864 6.6679 0.307777 0
M  V30 2785 H 255.134 0.614849 0.413571 0
M  V30 2786 H 257.781 1.86962 0.414405 0
M  V30 2787 H 256.086 2.6235 2.90998 0
M  V30 2788 H 257.783 2.95821 2.70722 0
M  V30 2789 H 254.373 3.94746 1.66954 0
M  V30 2790 H 258.557 4.81343 1.20922 0
M  V30 2791 H 253.813 6.08519 0.592891 0
M  V30 2792 H 257.987 6.96259 0.140143 0
M  V30 2793 H 255.614 7.60001 -0.173879 0
M  V30 2794 N 257.189 -0.644168 1.43834 0
M  V30 2795 C 258.605 -0.960875 1.27434 0
M  V30 2796 C 258.805 -2.00499 0.200618 0
M  V30 2797 O 257.861 -2.49018 -0.417906 0
M  V30 2798 C 259.174 -1.43653 2.64167 0
M  V30 2799 C 260.722 -1.55271 2.71772 0
M  V30 2800 C 261.197 -2.06224 4.08944 0
M  V30 2801 N 262.688 -2.13513 4.11055 0
M  V30 2802 C 263.423 -2.54081 5.14033 0
M  V30 2803 N 262.919 -2.9388 6.27381 0
M  V30 2804 N 264.712 -2.54101 5.01387 0
M  V30 2805 H 256.863 0.0465779 2.12349 0
M  V30 2806 H 259.126 -0.0417638 0.94708 0
M  V30 2807 H 258.832 -0.743706 3.43747 0
M  V30 2808 H 258.706 -2.40993 2.90176 0
M  V30 2809 H 261.093 -2.23653 1.92519 0
M  V30 2810 H 261.174 -0.563395 2.49519 0
M  V30 2811 H 260.818 -1.38441 4.88668 0
M  V30 2812 H 260.748 -3.06003 4.28567 0
M  V30 2813 H 263.239 -1.85493 3.29242 0
M  V30 2814 H 263.552 -3.2361 7.01781 0
M  V30 2815 H 261.897 -2.91663 6.30839 0
M  V30 2816 H 265.088 -2.22391 4.11898 0
M  V30 2817 H 265.261 -2.85394 5.81768 0
M  V30 2818 N 258.668 -1.30515 -0.883378 0
M  V30 2819 C 259.601 -1.11359 -1.99184 0
M  V30 2820 C 260.579 -0.0207858 -1.62587 0
M  V30 2821 O 261.763 -0.174646 -1.87689 0
M  V30 2822 C 258.89 -0.69871 -3.31415 0
M  V30 2823 C 257.936 -1.79261 -3.86998 0
M  V30 2824 S 258.769 -3.39536 -4.14096 0
M  V30 2825 C 259.925 -2.99954 -5.49344 0
M  V30 2826 H 260.158 -2.052 -2.15128 0
M  V30 2827 H 257.691 -1.14847 -1.03196 0
M  V30 2828 H 259.649 -0.466075 -4.07846 0
M  V30 2829 H 258.31 0.220368 -3.13326 0
M  V30 2830 H 257.503 -1.45464 -4.82552 0
M  V30 2831 H 257.105 -1.97961 -3.17313 0
M  V30 2832 H 259.397 -2.48013 -6.30473 0
M  V30 2833 H 260.34 -3.9442 -5.8808 0
M  V30 2834 H 260.748 -2.37775 -5.1198 0
M  V30 2835 N 260.146 1.09593 -1.13257 0
M  V30 2836 C 261.093 2.1618 -0.808381 0
M  V30 2837 C 262.063 1.64517 0.228754 0
M  V30 2838 O 263.248 1.9053 0.101381 0
M  V30 2839 C 260.388 3.43973 -0.278675 0
M  V30 2840 C 259.501 4.09545 -1.37466 0
M  V30 2841 C 258.636 5.25088 -0.803479 0
M  V30 2842 C 257.675 5.82579 -1.87799 0
M  V30 2843 N 256.812 6.89486 -1.32488 0
M  V30 2844 H 261.652 2.43254 -1.72138 0
M  V30 2845 H 259.189 1.19392 -0.859294 0
M  V30 2846 H 261.147 4.17174 0.0465583 0
M  V30 2847 H 259.777 3.17223 0.597459 0
M  V30 2848 H 258.829 3.34226 -1.81652 0
M  V30 2849 H 260.141 4.48307 -2.18684 0
M  V30 2850 H 259.295 6.05178 -0.429427 0
M  V30 2851 H 258.034 4.87684 0.0397956 0
M  V30 2852 H 257.039 5.01152 -2.26113 0
M  V30 2853 H 258.264 6.22045 -2.72463 0
M  V30 2854 H 256.21 6.54064 -0.503575 0
M  V30 2855 H 256.127 7.27007 -2.07355 0
M  V30 2856 H 257.395 7.73336 -0.978336 0
M  V30 2857 N 261.624 0.925811 1.2754 0
M  V30 2858 C 262.872 0.564138 1.94067 0
M  V30 2859 C 263.193 -0.897188 1.73134 0
M  V30 2860 O 262.463 -1.63573 1.07799 0
M  V30 2861 H 261.043 0.205645 0.718136 0
M  V30 2862 H 263.705 1.1778 1.55287 0
M  V30 2863 H 262.801 0.76881 3.02483 0
M  V30 2864 N 263.102 -1.41638 0.69111 0
M  V30 2865 C 264.379 -1.95036 0.148421 0
M  V30 2866 C 264.759 -1.63072 -1.34055 0
M  V30 2867 O 264.107 -0.93538 -2.08478 0
M  V30 2868 C 264.317 -3.46279 0.434951 0
M  V30 2869 C 265.665 -4.23069 0.360275 0
M  V30 2870 O 266.689 -3.54277 0.369613 0
M  V30 2871 O 265.548 -5.45583 0.316534 0
M  V30 2872 H 262.642 -0.826908 0.0123654 0
M  V30 2873 H 265.188 -1.5138 0.766963 0
M  V30 2874 H 263.96 -3.6281 1.46576 0
M  V30 2875 H 263.583 -3.97019 -0.214787 0
M  V30 2876 N 264.58 -0.43555 -1.51462 0
M  V30 2877 C 265.49 0.383001 -2.31453 0
M  V30 2878 C 266.506 1.02931 -1.4029 0
M  V30 2879 O 267.682 1.02507 -1.73362 0
M  V30 2880 C 264.747 1.47043 -3.13973 0
M  V30 2881 C 263.808 0.844433 -4.20913 0
M  V30 2882 C 263.041 1.88004 -4.9949 0
M  V30 2883 O 263.264 3.10199 -4.78678 0
M  V30 2884 O 262.198 1.47157 -5.83634 0
M  V30 2885 H 266.024 -0.269964 -3.02498 0
M  V30 2886 H 263.609 -0.19813 -1.4808 0
M  V30 2887 H 265.491 2.10113 -3.65281 0
M  V30 2888 H 264.166 2.10751 -2.45695 0
M  V30 2889 H 263.073 0.175729 -3.73687 0
M  V30 2890 H 264.406 0.250869 -4.9156 0
M  V30 2891 N 266.058 1.56714 -0.166846 0
M  V30 2892 C 266.99 2.14914 0.796537 0
M  V30 2893 C 268.003 1.10357 1.19688 0
M  V30 2894 O 269.192 1.37561 1.13751 0
M  V30 2895 C 266.292 2.67326 2.08303 0
M  V30 2896 C 265.465 3.96493 1.84696 0
M  V30 2897 C 264.524 4.34014 2.97521 0
M  V30 2898 O 263.55 5.01973 2.6835 0
M  V30 2899 N 264.752 3.95208 4.25196 0
M  V30 2900 H 267.517 2.98205 0.299006 0
M  V30 2901 H 265.078 1.61892 0.0160839 0
M  V30 2902 H 267.07 2.89428 2.82867 0
M  V30 2903 H 265.64 1.88649 2.4926 0
M  V30 2904 H 264.86 3.82814 0.940602 0
M  V30 2905 H 266.148 4.8086 1.66285 0
M  V30 2906 H 265.546 3.40487 4.51758 0
M  V30 2907 H 264.103 4.2232 4.96477 0
M  V30 2908 N 267.536 -0.106894 1.57237 0
M  V30 2909 C 268.947 -0.662723 1.74542 0
M  V30 2910 C 269.298 -1.7971 0.787319 0
M  V30 2911 O 268.423 -2.16368 -0.0369636 0
M  V30 2912 C 269.018 -1.20896 3.16496 0
M  V30 2913 C 267.577 -1.71096 3.35266 0
M  V30 2914 C 266.724 -0.615642 2.7038 0
M  V30 2915 H 269.675 0.119106 1.58252 0
M  V30 2916 H 269.696 -2.07847 3.18716 0
M  V30 2917 H 269.208 -0.383122 3.86204 0
M  V30 2918 H 267.309 -2.56119 2.70618 0
M  V30 2919 H 267.422 -1.81208 4.43509 0
M  V30 2920 H 265.786 -1.05222 2.31949 0
M  V30 2921 H 266.569 0.199419 3.4272 0
M  V30 2922 N 269.014 -1.53014 -0.377408 0
M  V30 2923 C 270.26 -1.68872 -1.12294 0
M  V30 2924 C 270.593 -0.433224 -1.89306 0
M  V30 2925 O 269.868 0.569258 -1.85983 0
M  V30 2926 C 270.151 -2.93115 -2.09179 0
M  V30 2927 C 270.004 -4.28794 -1.35853 0
M  V30 2928 C 271.323 -3.12928 -3.09458 0
M  V30 2929 H 268.442 -0.614518 -0.406862 0
M  V30 2930 H 271.084 -1.85633 -0.40503 0
M  V30 2931 H 269.234 -2.78956 -2.70399 0
M  V30 2932 H 270.906 -4.54742 -0.775082 0
M  V30 2933 H 269.149 -4.28744 -0.660364 0
M  V30 2934 H 269.82 -5.11837 -2.06706 0
M  V30 2935 H 272.296 -3.26194 -2.58334 0
M  V30 2936 H 271.172 -4.01316 -3.74482 0
M  V30 2937 H 271.433 -2.27669 -3.78971 0
M  V30 2938 N 270.492 0.636531 -1.44174 0
M  V30 2939 C 271.738 1.39649 -1.47884 0
M  V30 2940 C 272.093 1.92098 -0.107747 0
M  V30 2941 O 271.386 1.70391 0.876208 0
M  V30 2942 C 271.58 2.58309 -2.47005 0
M  V30 2943 C 271.409 2.17476 -3.93617 0
M  V30 2944 C 270.179 2.0501 -4.61843 0
M  V30 2945 C 272.377 1.76722 -4.82984 0
M  V30 2946 N 270.359 1.57683 -5.93304 0
M  V30 2947 C 271.73 1.40601 -6.03847 0
M  V30 2948 C 273.785 1.64054 -4.70096 0
M  V30 2949 C 272.488 0.930787 -7.13252 0
M  V30 2950 C 274.514 1.17937 -5.79521 0
M  V30 2951 C 273.876 0.827625 -6.99521 0
M  V30 2952 H 269.975 0.506027 -0.596205 0
M  V30 2953 H 272.559 0.730791 -1.80465 0
M  V30 2954 H 270.73 3.22514 -2.16423 0
M  V30 2955 H 272.462 3.25083 -2.41045 0
M  V30 2956 H 269.217 2.25294 -4.16581 0
M  V30 2957 H 269.641 1.36334 -6.63131 0
M  V30 2958 H 274.283 1.89882 -3.77762 0
M  V30 2959 H 272.001 0.660012 -8.054 0
M  V30 2960 H 275.587 1.08601 -5.71574 0
M  V30 2961 H 274.467 0.476231 -7.82753 0
M  V30 2962 N 271.97 1.30982 0.876444 0
M  V30 2963 C 273.2 1.23063 1.65949 0
M  V30 2964 C 273.608 -0.207537 1.88058 0
M  V30 2965 O 272.951 -1.14781 1.43426 0
M  V30 2966 C 273.013 1.89768 3.05333 0
M  V30 2967 C 272.677 3.39106 3.0636 0
M  V30 2968 C 273.674 4.3496 2.84791 0
M  V30 2969 C 271.359 3.80693 3.27686 0
M  V30 2970 C 273.353 5.70375 2.84519 0
M  V30 2971 C 271.04 5.16223 3.27043 0
M  V30 2972 C 272.038 6.10875 3.05485 0
M  V30 2973 O 271.726 7.43928 3.04674 0
M  V30 2974 H 271.458 0.426685 0.524324 0
M  V30 2975 H 274.012 1.7329 1.10271 0
M  V30 2976 H 272.242 1.34082 3.6271 0
M  V30 2977 H 273.931 1.75853 3.65829 0
M  V30 2978 H 274.697 4.0416 2.68103 0
M  V30 2979 H 270.576 3.07457 3.43499 0
M  V30 2980 H 274.12 6.44228 2.67611 0
M  V30 2981 H 270.017 5.4666 3.43269 0
M  V30 2982 H 270.785 7.53022 3.2078 0
M  V30 2983 N 273.449 -1.08991 1.13837 0
M  V30 2984 C 274.359 -2.19301 0.833333 0
M  V30 2985 C 275.375 -1.73026 -0.183847 0
M  V30 2986 O 276.551 -2.01395 -0.0138092 0
M  V30 2987 C 273.616 -3.45323 0.308651 0
M  V30 2988 C 272.677 -4.06255 1.38764 0
M  V30 2989 C 271.91 -5.26262 0.887896 0
M  V30 2990 O 272.133 -5.69747 -0.27287 0
M  V30 2991 O 271.067 -5.78435 1.66421 0
M  V30 2992 H 274.893 -2.47854 1.75506 0
M  V30 2993 H 272.478 -1.18012 0.916166 0
M  V30 2994 H 274.36 -4.21394 0.0216739 0
M  V30 2995 H 273.035 -3.18362 -0.585431 0
M  V30 2996 H 271.942 -3.318 1.72799 0
M  V30 2997 H 273.275 -4.37452 2.25602 0
M  V30 2998 N 274.927 -0.932562 -1.27047 0
M  V30 2999 C 275.857 -0.452902 -2.29066 0
M  V30 3000 C 276.838 0.489338 -1.62909 0
M  V30 3001 O 278.023 0.393046 -1.90181 0
M  V30 3002 C 275.153 0.290698 -3.46081 0
M  V30 3003 C 274.107 -0.564168 -4.24265 0
M  V30 3004 C 273.433 0.308886 -5.33807 0
M  V30 3005 C 274.733 -1.83112 -4.89149 0
M  V30 3006 H 276.427 -1.30552 -2.69437 0
M  V30 3007 H 273.973 -0.629201 -1.29526 0
M  V30 3008 H 275.926 0.637233 -4.16554 0
M  V30 3009 H 274.65 1.17738 -3.0464 0
M  V30 3010 H 273.309 -0.893477 -3.55545 0
M  V30 3011 H 272.957 1.19467 -4.88607 0
M  V30 3012 H 272.657 -0.259633 -5.87026 0
M  V30 3013 H 274.181 0.650884 -6.07121 0
M  V30 3014 H 275.595 -1.55236 -5.51883 0
M  V30 3015 H 273.992 -2.34353 -5.52448 0
M  V30 3016 H 275.062 -2.54772 -4.12576 0
M  V30 3017 N 276.405 1.4127 -0.698611 0
M  V30 3018 C 277.816 1.84187 -0.305289 0
M  V30 3019 C 278.167 1.58449 1.15708 0
M  V30 3020 O 277.292 1.05651 1.88856 0
M  V30 3021 C 277.887 3.3435 -0.547314 0
M  V30 3022 C 276.446 3.75826 -0.207878 0
M  V30 3023 C 275.593 2.64647 -0.828099 0
M  V30 3024 H 278.544 1.30778 -0.89904 0
M  V30 3025 H 278.565 3.8001 0.192998 0
M  V30 3026 H 278.077 3.53051 -1.61172 0
M  V30 3027 H 276.178 3.62725 0.852143 0
M  V30 3028 H 276.291 4.74462 -0.665021 0
M  V30 3029 H 274.655 2.53395 -0.257458 0
M  V30 3030 H 275.438 2.86165 -1.89643 0
M  V30 3031 N 277.883 0.443576 1.51229 0
M  V30 3032 C 279.299 0.0962001 1.5931 0
M  V30 3033 C 279.499 -1.39501 1.45402 0
M  V30 3034 O 278.555 -2.16557 1.29843 0
M  V30 3035 C 279.868 0.621875 2.94199 0
M  V30 3036 C 281.416 0.582865 3.07525 0
M  V30 3037 C 281.891 1.08562 4.44948 0
M  V30 3038 N 283.382 1.04387 4.51284 0
M  V30 3039 C 284.117 1.40368 5.55954 0
M  V30 3040 N 283.613 1.83664 6.68011 0
M  V30 3041 N 285.406 1.32145 5.46346 0
M  V30 3042 H 277.557 1.41376 1.58514 0
M  V30 3043 H 279.82 0.582965 0.747567 0
M  V30 3044 H 279.526 1.66546 3.09767 0
M  V30 3045 H 279.4 0.0502125 3.77167 0
M  V30 3046 H 281.787 -0.451749 2.91622 0
M  V30 3047 H 281.868 1.191 2.26382 0
M  V30 3048 H 281.512 2.11873 4.61598 0
M  V30 3049 H 281.442 0.453956 5.2464 0
M  V30 3050 H 283.933 0.725986 3.70861 0
M  V30 3051 H 284.246 2.0934 7.43906 0
M  V30 3052 H 282.591 1.87596 6.69203 0
M  V30 3053 H 285.782 0.981808 4.57688 0
M  V30 3054 H 285.955 1.60514 6.27805 0
M  V30 3055 N 279.361 -1.56624 0.175154 0
M  V30 3056 C 280.586 -2.01813 -0.478137 0
M  V30 3057 C 281.011 -1.05457 -1.55757 0
M  V30 3058 O 280.369 -0.0347439 -1.81267 0
M  V30 3059 C 280.417 -3.45581 -1.02987 0
M  V30 3060 O 279.521 -3.52305 -2.14371 0
M  V30 3061 H 278.862 -0.65413 -0.114059 0
M  V30 3062 H 281.392 -2.02673 0.280173 0
M  V30 3063 H 281.402 -3.84965 -1.35151 0
M  V30 3064 H 280.077 -4.1521 -0.239556 0
M  V30 3065 H 278.654 -3.24783 -1.83222 0
M  V30 3066 N 280.839 0.0985539 -1.57292 0
M  V30 3067 C 281.769 1.12064 -2.04851 0
M  V30 3068 C 282.75 1.41981 -0.936767 0
M  V30 3069 O 283.935 1.52071 -1.20781 0
M  V30 3070 C 281.065 2.44144 -2.47004 0
M  V30 3071 C 280.019 2.28643 -3.6181 0
M  V30 3072 C 279.345 3.65869 -3.89929 0
M  V30 3073 C 280.645 1.72986 -4.92822 0
M  V30 3074 H 282.339 0.724979 -2.9049 0
M  V30 3075 H 279.885 0.34729 -1.39749 0
M  V30 3076 H 281.838 3.15914 -2.78884 0
M  V30 3077 H 280.562 2.85639 -1.5836 0
M  V30 3078 H 279.221 1.59318 -3.30172 0
M  V30 3079 H 278.869 4.04885 -2.98458 0
M  V30 3080 H 278.569 3.56344 -4.67218 0
M  V30 3081 H 280.093 4.39112 -4.2428 0
M  V30 3082 H 281.507 2.34593 -5.23105 0
M  V30 3083 H 279.904 1.74229 -5.74251 0
M  V30 3084 H 280.974 0.689007 -4.7998 0
M  V30 3085 N 282.317 1.53212 0.369288 0
M  V30 3086 C 283.563 1.69466 1.11397 0
M  V30 3087 C 283.896 0.443257 1.89074 0
M  V30 3088 O 283.171 -0.559386 1.86282 0
M  V30 3089 C 283.454 2.9422 2.07621 0
M  V30 3090 C 283.307 4.29508 1.33577 0
M  V30 3091 C 284.626 3.14565 3.07794 0
M  V30 3092 H 281.745 0.616667 0.403597 0
M  V30 3093 H 284.387 1.85845 0.395179 0
M  V30 3094 H 282.537 2.80387 2.68916 0
M  V30 3095 H 284.209 4.55147 0.750955 0
M  V30 3096 H 282.452 4.29088 0.637618 0
M  V30 3097 H 283.123 5.12926 2.03989 0
M  V30 3098 H 285.599 3.2756 2.56601 0
M  V30 3099 H 284.475 4.03297 3.72348 0
M  V30 3100 H 284.736 2.29675 3.77759 0
M  V30 3101 N 283.795 -0.628877 1.44509 0
M  V30 3102 C 285.044 -1.38437 1.4669 0
M  V30 3103 C 285.357 -1.95322 0.104272 0
M  V30 3104 O 286.563 -2.715 0.00362163 0
M  V30 3105 C 285.019 -2.50659 2.5826 0
M  V30 3106 C 284.627 -2.00277 4.0074 0
M  V30 3107 C 286.371 -3.27844 2.69664 0
M  V30 3108 C 284.278 -3.09854 5.0373 0
M  V30 3109 H 283.208 -0.520245 0.545766 0
M  V30 3110 H 285.859 -0.676313 1.70582 0
M  V30 3111 H 284.241 -3.2405 2.27612 0
M  V30 3112 H 285.415 -1.33736 4.40966 0
M  V30 3113 H 283.73 -1.35901 3.93599 0
M  V30 3114 H 286.327 -4.09534 3.43781 0
M  V30 3115 H 286.67 -3.77471 1.75559 0
M  V30 3116 H 287.203 -2.61543 2.99733 0
M  V30 3117 H 283.942 -2.65168 5.99472 0
M  V30 3118 H 283.462 -3.7503 4.68095 0
M  V30 3119 H 285.141 -3.74592 5.27532 0
M  V30 3120 N 285.273 -1.31445 -0.869486 0
M  V30 3121 C 286.183 -1.21097 -2.0093 0
M  V30 3122 C 287.199 -0.127584 -1.73532 0
M  V30 3123 O 288.375 -0.345477 -1.98415 0
M  V30 3124 C 285.44 -0.919378 -3.34288 0
M  V30 3125 C 284.501 -2.08971 -3.75006 0
M  V30 3126 C 283.734 -1.81194 -5.02001 0
M  V30 3127 O 283.957 -0.747296 -5.65484 0
M  V30 3128 O 282.891 -2.66883 -5.39497 0
M  V30 3129 H 286.717 -2.16883 -2.12592 0
M  V30 3130 H 284.302 -1.11189 -0.997868 0
M  V30 3131 H 286.184 -0.772625 -4.14257 0
M  V30 3132 H 284.859 0.00844772 -3.23699 0
M  V30 3133 H 283.766 -2.29187 -2.95676 0
M  V30 3134 H 285.099 -2.9998 -3.90221 0
M  V30 3135 N 286.751 1.08385 -1.14413 0
M  V30 3136 C 287.997 1.81044 -0.913834 0
M  V30 3137 C 288.33 1.86004 0.558209 0
M  V30 3138 O 287.605 1.33606 1.4135 0
M  V30 3139 C 287.888 3.26648 -1.51569 0
M  V30 3140 C 287.741 3.29895 -3.0576 0
M  V30 3141 C 289.06 4.23629 -1.19273 0
M  V30 3142 H 286.179 0.65727 -0.333414 0
M  V30 3143 H 288.821 1.26896 -1.41412 0
M  V30 3144 H 286.971 3.72889 -1.09023 0
M  V30 3145 H 288.643 2.91977 -3.57137 0
M  V30 3146 H 286.886 2.69163 -3.40197 0
M  V30 3147 H 287.557 4.32516 -3.42977 0
M  V30 3148 H 290.033 3.85727 -1.56057 0
M  V30 3149 H 288.909 5.23822 -1.64017 0
M  V30 3150 H 289.17 4.41968 -0.108068 0
M  V30 3151 N 288.23 0.939286 1.26551 0
M  V30 3152 C 289.641 0.628782 1.75793 0
M  V30 3153 C 289.992 -0.856046 1.7654 0
M  V30 3154 O 289.117 -1.66994 1.3763 0
M  V30 3155 C 289.712 1.13465 3.19235 0
M  V30 3156 C 288.271 0.874601 3.66098 0
M  V30 3157 C 287.418 1.28667 2.45642 0
M  V30 3158 H 290.369 1.1178 1.12654 0
M  V30 3159 H 290.39 0.487609 3.77363 0
M  V30 3160 H 289.902 2.21535 3.1866 0
M  V30 3161 H 288.003 -0.191793 3.72106 0
M  V30 3162 H 288.116 1.50028 4.55004 0
M  V30 3163 H 286.48 0.705109 2.44745 0
M  V30 3164 H 287.263 2.37625 2.47769 0
M  V30 3165 N 289.708 -1.40897 0.706093 0
M  V30 3166 C 290.957 -2.00284 0.238574 0
M  V30 3167 C 291.27 -1.56604 -1.17194 0
M  V30 3168 O 292.476 -2.08624 -1.73748 0
M  V30 3169 C 290.932 -3.57934 0.375623 0
M  V30 3170 C 290.54 -4.10591 1.79217 0
M  V30 3171 C 292.284 -4.24488 -0.0315857 0
M  V30 3172 C 290.191 -5.60712 1.88032 0
M  V30 3173 H 289.121 -0.749144 0.0854398 0
M  V30 3174 H 291.772 -1.61251 0.875813 0
M  V30 3175 H 290.154 -3.94622 -0.330042 0
M  V30 3176 H 291.328 -3.85301 2.52745 0
M  V30 3177 H 289.643 -3.56601 2.15 0
M  V30 3178 H 292.24 -5.34698 0.0136842 0
M  V30 3179 H 292.583 -4.02261 -1.072 0
M  V30 3180 H 293.116 -3.92873 0.624181 0
M  V30 3181 H 289.855 -5.87781 2.90161 0
M  V30 3182 H 289.375 -5.87896 1.18903 0
M  V30 3183 H 291.054 -6.25658 1.64805 0
M  V30 3184 N 291.186 -0.45159 -1.50991 0
M  V30 3185 C 292.414 0.108334 -2.06616 0
M  V30 3186 C 292.829 1.35224 -1.31757 0
M  V30 3187 O 292.186 1.78475 -0.381174 0
M  V30 3188 C 292.237 0.41619 -3.59096 0
M  V30 3189 O 291.958 -0.778361 -4.3113 0
M  V30 3190 C 293.459 1.02523 -4.31282 0
M  V30 3191 H 290.679 0.00159995 -0.670998 0
M  V30 3192 H 293.223 -0.634771 -1.94399 0
M  V30 3193 H 291.378 1.10921 -3.71181 0
M  V30 3194 H 291.792 -0.511181 -5.22003 0
M  V30 3195 H 293.266 1.19053 -5.39009 0
M  V30 3196 H 293.743 2.01013 -3.905 0
M  V30 3197 H 294.349 0.371173 -4.23677 0
M  V30 3198 N 292.664 1.56529 -0.183458 0
M  V30 3199 C 293.614 2.1515 0.754605 0
M  V30 3200 C 294.598 1.08904 1.18443 0
M  V30 3201 O 295.79 1.34997 1.14476 0
M  V30 3202 C 292.919 2.80531 1.97881 0
M  V30 3203 C 292.005 3.93952 1.57043 0
M  V30 3204 N 292.396 4.98221 0.87231 0
M  V30 3205 C 290.694 4.05338 1.86057 0
M  V30 3206 C 291.395 5.77836 0.669377 0
M  V30 3207 N 290.371 5.29858 1.21454 0
M  V30 3208 H 294.173 2.93132 0.212387 0
M  V30 3209 H 291.687 1.62391 0.0167725 0
M  V30 3210 H 293.684 3.20914 2.6612 0
M  V30 3211 H 292.344 2.04035 2.52586 0
M  V30 3212 H 293.355 5.15191 0.529033 0
M  V30 3213 H 290.032 3.39957 2.42354 0
M  V30 3214 H 291.422 6.71799 0.116422 0
M  V30 3215 N 294.142 -0.090211 1.57342 0
M  V30 3216 C 295.553 -0.644173 1.75235 0
M  V30 3217 C 295.904 -1.78865 0.806335 0
M  V30 3218 O 295.029 -2.16395 -0.0140128 0
M  V30 3219 C 295.624 -1.17532 3.1776 0
M  V30 3220 C 294.183 -1.67531 3.37061 0
M  V30 3221 C 293.33 -0.58693 2.71017 0
M  V30 3222 H 296.281 0.135884 1.58117 0
M  V30 3223 H 296.302 -2.04455 3.20902 0
M  V30 3224 H 295.814 -0.342138 3.86589 0
M  V30 3225 H 293.915 -2.53234 2.73319 0
M  V30 3226 H 294.028 -1.76493 4.45406 0
M  V30 3227 H 292.392 -1.02756 2.33052 0
M  V30 3228 H 293.175 0.235758 3.4249 0
M  V30 3229 N 295.62 -1.53406 -0.361157 0
M  V30 3230 C 296.897 -1.60411 -1.11927 0
M  V30 3231 C 297.277 -0.414385 -2.06993 0
M  V30 3232 O 296.625 0.594976 -2.20618 0
M  V30 3233 C 296.835 -2.95652 -1.85448 0
M  V30 3234 C 298.183 -3.50386 -2.39823 0
M  V30 3235 O 299.207 -2.97711 -1.95568 0
M  V30 3236 O 298.066 -4.42482 -3.20737 0
M  V30 3237 H 295.16 -0.64811 -0.513695 0
M  V30 3238 H 297.706 -1.65749 -0.364065 0
M  V30 3239 H 296.478 -3.73682 -1.16091 0
M  V30 3240 H 296.101 -2.93825 -2.67866 0
M  V30 3241 N 297.098 0.621204 -1.44841 0
M  V30 3242 C 298.347 1.37658 -1.47422 0
M  V30 3243 C 298.66 1.95264 -0.114629 0
M  V30 3244 O 299.866 2.71494 -0.0180199 0
M  V30 3245 C 298.322 2.49285 -2.59586 0
M  V30 3246 C 297.93 1.98149 -4.01797 0
M  V30 3247 C 299.674 3.26409 -2.71399 0
M  V30 3248 C 297.581 3.07178 -5.05367 0
M  V30 3249 H 296.511 0.517344 -0.548517 0
M  V30 3250 H 299.162 0.667257 -1.70938 0
M  V30 3251 H 297.544 3.22839 -2.29328 0
M  V30 3252 H 298.718 1.31395 -4.41669 0
M  V30 3253 H 297.033 1.33812 -3.94314 0
M  V30 3254 H 299.63 4.07706 -3.45948 0
M  V30 3255 H 299.973 3.76535 -1.77559 0
M  V30 3256 H 300.506 2.5995 -3.01116 0
M  V30 3257 H 297.245 2.61985 -6.00869 0
M  V30 3258 H 296.765 3.72542 -4.70077 0
M  V30 3259 H 298.444 3.71789 -5.29511 0
M  V30 3260 N 298.576 1.31904 0.862503 0
M  V30 3261 C 299.486 1.22161 2.00285 0
M  V30 3262 C 300.502 0.136785 1.73462 0
M  V30 3263 O 301.678 0.355994 1.98229 0
M  V30 3264 C 298.743 0.937093 3.33796 0
M  V30 3265 C 297.804 2.10957 3.73893 0
M  V30 3266 C 297.037 1.83853 5.01033 0
M  V30 3267 O 297.26 0.777274 5.65079 0
M  V30 3268 O 296.194 2.69741 5.38074 0
M  V30 3269 H 300.02 2.18008 2.11439 0
M  V30 3270 H 297.605 1.11716 0.991957 0
M  V30 3271 H 299.487 0.794583 4.13841 0
M  V30 3272 H 298.162 0.00871894 3.23699 0
M  V30 3273 H 297.069 2.30752 2.94456 0
M  V30 3274 H 298.402 3.02046 3.88625 0
M  V30 3275 N 300.054 -1.07777 1.14986 0
M  V30 3276 C 301.017 -2.13041 0.845358 0
M  V30 3277 C 302.017 -1.60071 -0.152931 0
M  V30 3278 O 303.207 -1.74033 0.0761879 0
M  V30 3279 C 300.339 -3.39896 0.261383 0
M  V30 3280 H 301.532 -2.41485 1.77834 0
M  V30 3281 H 299.085 -1.23595 0.956757 0
M  V30 3282 H 299.82 -3.17091 -0.68 0
M  V30 3283 H 299.605 -3.79642 0.980514 0
M  V30 3284 H 301.095 -4.17548 0.0657687 0
M  V30 3285 N 301.532 -0.945985 -1.26051 0
M  V30 3286 C 302.779 -0.596118 -1.93527 0
M  V30 3287 C 303.107 0.865559 -1.74179 0
M  V30 3288 O 302.362 1.63524 -1.0751 0
M  V30 3289 C 302.661 -0.890475 -3.46129 0
M  V30 3290 C 302.327 -2.3368 -3.85622 0
M  V30 3291 C 300.989 -2.73216 -3.96114 0
M  V30 3292 C 303.341 -3.27648 -4.05334 0
M  V30 3293 C 300.669 -4.05806 -4.2372 0
M  V30 3294 C 303.021 -4.59841 -4.3443 0
M  V30 3295 C 301.685 -4.99185 -4.43137 0
M  V30 3296 H 300.955 -0.218135 -0.708165 0
M  V30 3297 H 303.602 -1.1934 -1.49768 0
M  V30 3298 H 301.907 -0.210711 -3.91233 0
M  V30 3299 H 303.604 -0.598478 -3.96509 0
M  V30 3300 H 300.194 -2.02015 -3.78005 0
M  V30 3301 H 304.378 -2.98298 -3.96651 0
M  V30 3302 H 299.634 -4.35945 -4.28675 0
M  V30 3303 H 303.808 -5.32641 -4.48628 0
M  V30 3304 H 301.435 -6.01952 -4.64282 0
M  V30 3305 N 303.011 1.40521 -0.713556 0
M  V30 3306 C 304.236 2.05759 -0.26035 0
M  V30 3307 C 304.661 1.53403 1.08854 0
M  V30 3308 O 304.019 0.668535 1.68524 0
M  V30 3309 C 304.067 3.59745 -0.248122 0
M  V30 3310 O 303.171 4.05123 0.77131 0
M  V30 3311 H 302.512 0.652564 -0.122703 0
M  V30 3312 H 305.042 1.79958 -0.973467 0
M  V30 3313 H 305.052 4.07911 -0.0851129 0
M  V30 3314 H 303.727 3.97218 -1.2325 0
M  V30 3315 H 302.304 3.68422 0.57619 0
M  V30 3316 N 304.489 0.459591 1.5075 0
M  V30 3317 C 305.766 -0.160371 1.94941 0
M  V30 3318 C 306.146 -1.58048 1.39943 0
M  V30 3319 O 305.494 -2.206 0.595629 0
M  V30 3320 C 305.704 -0.115432 3.48809 0
M  V30 3321 C 307.052 -0.310026 4.23467 0
M  V30 3322 O 308.076 -0.192543 3.55679 0
M  V30 3323 O 306.935 -0.546031 5.43765 0
M  V30 3324 H 304.029 -0.117925 0.818549 0
M  V30 3325 H 306.575 0.519169 1.61563 0
M  V30 3326 H 305.347 0.87652 3.81357 0
M  V30 3327 H 304.97 -0.836928 3.88692 0
M  V30 3328 N 305.967 -1.56429 0.191757 0
M  V30 3329 C 306.897 -2.21937 -0.725696 0
M  V30 3330 C 307.878 -1.1814 -1.2238 0
M  V30 3331 O 309.063 -1.46636 -1.27325 0
M  V30 3332 C 306.193 -2.87611 -1.94672 0
M  V30 3333 C 305.147 -3.97623 -1.58366 0
M  V30 3334 C 304.473 -4.50446 -2.88102 0
M  V30 3335 C 305.773 -5.16197 -0.796133 0
M  V30 3336 H 307.467 -2.98861 -0.179606 0
M  V30 3337 H 305.013 -1.43749 -0.0849464 0
M  V30 3338 H 306.966 -3.3212 -2.59373 0
M  V30 3339 H 305.69 -2.08087 -2.51728 0
M  V30 3340 H 304.349 -3.53801 -0.960247 0
M  V30 3341 H 303.997 -3.67688 -3.43241 0
M  V30 3342 H 303.697 -5.24675 -2.64556 0
M  V30 3343 H 305.221 -4.97654 -3.53798 0
M  V30 3344 H 306.635 -5.57271 -1.34618 0
M  V30 3345 H 305.032 -5.96471 -0.658928 0
M  V30 3346 H 306.102 -4.84473 0.203478 0
M  V30 3347 N 307.445 0.0818655 -1.57387 0
M  V30 3348 C 308.355 1.11642 -2.06333 0
M  V30 3349 C 309.371 1.43033 -0.99083 0
M  V30 3350 O 310.547 1.53411 -1.30488 0
M  V30 3351 C 307.612 2.41342 -2.48907 0
M  V30 3352 C 306.673 2.17014 -3.7041 0
M  V30 3353 C 305.906 3.4053 -4.10944 0
M  V30 3354 O 306.129 4.4927 -3.51444 0
M  V30 3355 O 305.063 3.29336 -5.03807 0
M  V30 3356 H 308.889 0.730657 -2.9478 0
M  V30 3357 H 306.474 0.295301 -1.46452 0
M  V30 3358 H 308.356 3.17691 -2.76858 0
M  V30 3359 H 307.031 2.79319 -1.63593 0
M  V30 3360 H 305.938 1.38403 -3.47556 0
M  V30 3361 H 307.271 1.83923 -4.56545 0
M  V30 3362 N 308.923 1.53595 0.353017 0
M  V30 3363 C 309.853 1.83902 1.43883 0
M  V30 3364 C 310.834 0.693421 1.55324 0
M  V30 3365 O 312.019 0.944452 1.69687 0
M  V30 3366 C 309.149 2.04016 2.8106 0
M  V30 3367 C 308.103 3.19814 2.84434 0
M  V30 3368 C 307.429 3.25244 4.24406 0
M  V30 3369 C 308.729 4.58133 2.50822 0
M  V30 3370 H 310.423 2.74835 1.1877 0
M  V30 3371 H 307.969 1.32242 0.569917 0
M  V30 3372 H 309.922 2.238 3.57059 0
M  V30 3373 H 308.646 1.09804 3.07588 0
M  V30 3374 H 307.305 2.9987 2.10887 0
M  V30 3375 H 306.953 2.28646 4.48029 0
M  V30 3376 H 306.653 4.03054 4.27576 0
M  V30 3377 H 308.177 3.47228 5.0226 0
M  V30 3378 H 309.591 4.77995 3.16534 0
M  V30 3379 H 307.988 5.38276 2.6529 0
M  V30 3380 H 309.058 4.62387 1.46034 0
M  V30 3381 N 310.401 -0.613514 1.45168 0
M  V30 3382 C 311.348 -1.72456 1.53387 0
M  V30 3383 C 312.318 -1.6169 0.380191 0
M  V30 3384 O 313.503 -1.81356 0.592836 0
M  V30 3385 C 310.643 -3.10753 1.50088 0
M  V30 3386 C 309.756 -3.32368 2.75963 0
M  V30 3387 C 308.891 -4.60737 2.64376 0
M  V30 3388 C 307.93 -4.7559 3.85332 0
M  V30 3389 N 307.067 -5.95253 3.72315 0
M  V30 3390 H 311.907 -1.64768 2.48305 0
M  V30 3391 H 309.444 -0.803503 1.23216 0
M  V30 3392 H 311.402 -3.90758 1.46164 0
M  V30 3393 H 310.032 -3.17413 0.587243 0
M  V30 3394 H 309.084 -2.4618 2.89999 0
M  V30 3395 H 310.396 -3.39218 3.65695 0
M  V30 3396 H 309.55 -5.48928 2.58385 0
M  V30 3397 H 308.289 -4.56275 1.72233 0
M  V30 3398 H 307.294 -3.85824 3.91688 0
M  V30 3399 H 308.519 -4.81854 4.78533 0
M  V30 3400 H 306.465 -5.91847 2.82937 0
M  V30 3401 H 306.382 -6.03236 4.55677 0
M  V30 3402 H 307.65 -6.85958 3.70246 0
M  V30 3403 N 311.879 -1.3236 -0.855495 0
M  V30 3404 C 313.125 -1.24064 -1.61182 0
M  V30 3405 C 313.48 0.195914 -1.914 0
M  V30 3406 O 312.773 1.13345 -1.54478 0
M  V30 3407 C 312.967 -2.03275 -2.93963 0
M  V30 3408 C 312.796 -3.54486 -2.76712 0
M  V30 3409 C 311.566 -4.23824 -2.75139 0
M  V30 3410 C 313.764 -4.49154 -2.50531 0
M  V30 3411 N 311.746 -5.61095 -2.4909 0
M  V30 3412 C 313.117 -5.74195 -2.3388 0
M  V30 3413 C 315.172 -4.3842 -2.35992 0
M  V30 3414 C 313.875 -6.89716 -2.04168 0
M  V30 3415 C 315.901 -5.53739 -2.0767 0
M  V30 3416 C 315.263 -6.77779 -1.9182 0
M  V30 3417 H 311.362 -0.509139 -0.59355 0
M  V30 3418 H 313.946 -1.66715 -1.00569 0
M  V30 3419 H 312.117 -1.6297 -3.52555 0
M  V30 3420 H 313.849 -1.86881 -3.58967 0
M  V30 3421 H 310.604 -3.75934 -2.88047 0
M  V30 3422 H 311.028 -6.33411 -2.38996 0
M  V30 3423 H 315.67 -3.43172 -2.46967 0
M  V30 3424 H 313.388 -7.84977 -1.9193 0
M  V30 3425 H 316.974 -5.4736 -1.97201 0
M  V30 3426 H 315.854 -7.65504 -1.70217 0
M  V30 3427 N 313.357 1.07166 -1.15556 0
M  V30 3428 C 314.587 1.83248 -0.954133 0
M  V30 3429 C 314.995 1.82449 0.500911 0
M  V30 3430 O 314.338 1.23575 1.35923 0
M  V30 3431 C 314.4 3.31393 -1.39351 0
M  V30 3432 C 314.064 3.5591 -2.86666 0
M  V30 3433 C 315.061 3.49695 -3.8472 0
M  V30 3434 C 312.746 3.83515 -3.24379 0
M  V30 3435 C 314.74 3.70737 -5.18491 0
M  V30 3436 C 312.427 4.04209 -4.58321 0
M  V30 3437 C 313.425 3.97815 -5.55186 0
M  V30 3438 O 313.113 4.17954 -6.86709 0
M  V30 3439 H 312.845 0.584941 -0.338851 0
M  V30 3440 H 315.399 1.36169 -1.53777 0
M  V30 3441 H 313.629 3.79292 -0.75329 0
M  V30 3442 H 315.318 3.88945 -1.16089 0
M  V30 3443 H 316.084 3.28368 -3.56931 0
M  V30 3444 H 311.963 3.87605 -2.49567 0
M  V30 3445 H 315.507 3.65663 -5.94085 0
M  V30 3446 H 311.404 4.25023 -4.85825 0
M  V30 3447 H 312.172 4.35291 -6.93155 0
M  V30 3448 N 314.835 0.952656 1.25548 0
M  V30 3449 C 316.083 0.605176 1.92826 0
M  V30 3450 C 316.404 -0.860261 1.74999 0
M  V30 3451 O 315.674 -1.6125 1.11244 0
M  V30 3452 H 314.254 0.220832 0.713612 0
M  V30 3453 H 316.916 1.21047 1.52754 0
M  V30 3454 H 316.012 0.832798 3.00784 0
M  V30 3455 N 316.313 -1.40141 0.720998 0
M  V30 3456 C 317.559 -2.01084 0.263231 0
M  V30 3457 C 317.892 -1.57052 -1.14229 0
M  V30 3458 O 317.167 -0.793027 -1.77599 0
M  V30 3459 C 317.45 -3.58401 0.349344 0
M  V30 3460 C 317.303 -4.12491 1.79363 0
M  V30 3461 C 318.622 -4.39231 -0.276351 0
M  V30 3462 H 315.741 -0.730572 0.0971228 0
M  V30 3463 H 318.383 -1.66543 0.914518 0
M  V30 3464 H 316.533 -3.87958 -0.205165 0
M  V30 3465 H 318.205 -3.93711 2.40394 0
M  V30 3466 H 316.448 -3.66576 2.31958 0
M  V30 3467 H 317.119 -5.21646 1.80524 0
M  V30 3468 H 319.595 -4.15637 0.196184 0
M  V30 3469 H 318.471 -5.48586 -0.185681 0
M  V30 3470 H 318.732 -4.20643 -1.36059 0
M  V30 3471 N 317.792 -0.46758 -1.50504 0
M  V30 3472 C 319.203 -0.0116166 -1.86696 0
M  V30 3473 C 319.554 1.39202 -1.38265 0
M  V30 3474 O 318.679 2.0313 -0.746132 0
M  V30 3475 C 319.274 -0.0143044 -3.38797 0
M  V30 3476 C 317.833 0.386175 -3.74414 0
M  V30 3477 C 316.98 -0.401287 -2.74381 0
M  V30 3478 H 319.931 -0.682022 -1.43297 0
M  V30 3479 H 319.952 0.788641 -3.72237 0
M  V30 3480 H 319.464 -1.03602 -3.74016 0
M  V30 3481 H 317.565 1.41237 -3.44794 0
M  V30 3482 H 317.678 0.0899596 -4.79016 0
M  V30 3483 H 316.042 0.144536 -2.5429 0
M  V30 3484 H 316.825 -1.42244 -3.12444 0
M  V30 3485 N 319.27 1.56325 -0.20005 0
M  V30 3486 C 320.519 1.96895 0.437652 0
M  V30 3487 C 320.832 1.08999 1.62415 0
M  V30 3488 O 322.038 1.39372 2.32997 0
M  V30 3489 C 320.494 3.50198 0.830025 0
M  V30 3490 C 320.102 4.46765 -0.332461 0
M  V30 3491 C 321.846 3.99526 1.43453 0
M  V30 3492 C 319.753 5.91344 0.0811468 0
M  V30 3493 H 318.683 0.735209 0.167282 0
M  V30 3494 H 321.334 1.81148 -0.292853 0
M  V30 3495 H 319.716 3.61467 1.61734 0
M  V30 3496 H 320.89 4.47231 -1.11 0
M  V30 3497 H 319.205 4.07657 -0.848789 0
M  V30 3498 H 321.802 5.05025 1.75652 0
M  V30 3499 H 322.145 3.44122 2.34277 0
M  V30 3500 H 322.678 3.91393 0.71109 0
M  V30 3501 H 319.417 6.50685 -0.793033 0
M  V30 3502 H 318.937 5.94121 0.823445 0
M  V30 3503 H 320.616 6.44945 0.515252 0
M  V30 3504 N 320.748 -0.0735177 1.57428 0
M  V30 3505 C 321.997 -0.771809 1.86349 0
M  V30 3506 C 322.31 -1.78828 0.792452 0
M  V30 3507 O 323.516 -2.53602 0.96945 0
M  V30 3508 C 321.972 -1.42358 3.30548 0
M  V30 3509 C 321.58 -0.445761 4.45777 0
M  V30 3510 C 323.324 -2.10434 3.6867 0
M  V30 3511 C 321.231 -1.10335 5.81016 0
M  V30 3512 H 320.161 -0.291999 0.695164 0
M  V30 3513 H 322.812 -0.0250749 1.83483 0
M  V30 3514 H 321.194 -2.21852 3.28021 0
M  V30 3515 H 322.368 0.319239 4.59693 0
M  V30 3516 H 320.683 0.130457 4.16196 0
M  V30 3517 H 323.28 -2.60405 4.67004 0
M  V30 3518 H 323.623 -2.90298 2.98383 0
M  V30 3519 H 324.156 -1.37773 3.7318 0
M  V30 3520 H 320.895 -0.345061 6.54591 0
M  V30 3521 H 320.415 -1.83925 5.70904 0
M  V30 3522 H 322.094 -1.62367 6.26295 0
M  V30 3523 N 322.226 -1.5378 -0.344866 0
M  V30 3524 C 323.451 -1.75211 -1.10977 0
M  V30 3525 C 323.876 -0.48936 -1.81623 0
M  V30 3526 O 323.234 0.557925 -1.72502 0
M  V30 3527 C 323.282 -2.93147 -2.09993 0
M  V30 3528 O 322.386 -2.63203 -3.17487 0
M  V30 3529 H 321.727 -0.581241 -0.321021 0
M  V30 3530 H 324.257 -2.00738 -0.395661 0
M  V30 3531 H 324.267 -3.19898 -2.53237 0
M  V30 3532 H 322.942 -3.84731 -1.5797 0
M  V30 3533 H 321.519 -2.47336 -2.79069 0
M  V30 3534 N 323.704 0.605807 -1.45491 0
M  V30 3535 C 324.981 1.36522 -1.40075 0
M  V30 3536 C 325.361 2.10976 -0.0722744 0
M  V30 3537 O 324.709 2.08007 0.945808 0
M  V30 3538 C 324.919 2.31056 -2.61561 0
M  V30 3539 C 326.267 2.93608 -3.06724 0
M  V30 3540 O 327.291 2.41376 -2.61946 0
M  V30 3541 O 326.15 3.88421 -3.84437 0
M  V30 3542 H 323.244 0.612248 -0.555951 0
M  V30 3543 H 325.79 0.628747 -1.57623 0
M  V30 3544 H 324.562 1.75311 -3.49831 0
M  V30 3545 H 324.185 3.12081 -2.46356 0
M  V30 3546 N 325.182 1.32811 0.848464 0
M  V30 3547 C 326.115 1.16601 1.96162 0
M  V30 3548 C 327.093 0.0638855 1.62474 0
M  V30 3549 O 328.277 0.224348 1.8716 0
M  V30 3550 C 325.404 0.786333 3.29446 0
M  V30 3551 C 324.45 1.89459 3.8211 0
M  V30 3552 S 325.283 3.50395 4.04949 0
M  V30 3553 C 326.439 3.14413 5.41198 0
M  V30 3554 H 326.672 2.10832 2.09612 0
M  V30 3555 H 324.205 1.17543 1.00115 0
M  V30 3556 H 326.163 0.574044 4.06466 0
M  V30 3557 H 324.824 -0.137218 3.138 0
M  V30 3558 H 324.017 1.58207 4.78526 0
M  V30 3559 H 323.619 2.06304 3.11953 0
M  V30 3560 H 325.911 2.64642 6.23675 0
M  V30 3561 H 326.854 4.09874 5.77416 0
M  V30 3562 H 327.262 2.51266 5.05495 0
M  V30 3563 N 326.66 -1.06551 1.16123 0
M  V30 3564 C 327.607 -2.13961 0.865414 0
M  V30 3565 C 328.577 -1.65066 -0.185055 0
M  V30 3566 O 329.762 -1.90732 -0.05083 0
M  V30 3567 C 326.902 -3.43113 0.369776 0
M  V30 3568 C 326.015 -4.05756 1.48276 0
M  V30 3569 C 325.15 -5.22773 0.942414 0
M  V30 3570 C 324.189 -5.77395 2.03179 0
M  V30 3571 N 323.326 -6.85731 1.50721 0
M  V30 3572 H 328.166 -2.38605 1.78527 0
M  V30 3573 H 325.703 -1.17072 0.890646 0
M  V30 3574 H 327.661 -4.17151 0.0640643 0
M  V30 3575 H 326.291 -3.18695 -0.513143 0
M  V30 3576 H 325.343 -3.29292 1.9045 0
M  V30 3577 H 326.655 -4.42351 2.30493 0
M  V30 3578 H 325.809 -6.03827 0.589729 0
M  V30 3579 H 324.548 -4.87618 0.0895191 0
M  V30 3580 H 323.553 -4.94981 2.3932 0
M  V30 3581 H 324.778 -6.14603 2.8886 0
M  V30 3582 H 322.724 -6.52499 0.676811 0
M  V30 3583 H 322.641 -7.21254 2.26557 0
M  V30 3584 H 323.909 -7.7047 1.18303 0
M  V30 3585 N 328.138 -0.959301 -1.25041 0
M  V30 3586 C 329.068 -0.501388 -2.28053 0
M  V30 3587 C 330.049 0.454673 -1.63911 0
M  V30 3588 O 331.234 0.352618 -1.90972 0
M  V30 3589 C 328.364 0.217224 -3.4662 0
M  V30 3590 C 327.318 -0.654034 -4.22973 0
M  V30 3591 C 326.644 0.195589 -5.34342 0
M  V30 3592 C 327.944 -1.93447 -4.85155 0
M  V30 3593 H 329.638 -1.36238 -2.66608 0
M  V30 3594 H 327.184 -0.656534 -1.28163 0
M  V30 3595 H 329.137 0.548732 -4.17812 0
M  V30 3596 H 327.861 1.1125 -3.07068 0
M  V30 3597 H 326.52 -0.968693 -3.5357 0
M  V30 3598 H 326.168 1.09076 -4.91031 0
M  V30 3599 H 325.868 -0.384091 -5.86343 0
M  V30 3600 H 327.392 0.521958 -6.08365 0
M  V30 3601 H 328.806 -1.66908 -5.48466 0
M  V30 3602 H 327.203 -2.46018 -5.47353 0
M  V30 3603 H 328.273 -2.63466 -4.07079 0
M  V30 3604 N 329.616 1.39756 -0.72842 0
M  V30 3605 C 330.526 2.34444 -0.0855374 0
M  V30 3606 C 331.542 1.57976 0.729356 0
M  V30 3607 O 332.718 1.90301 0.659346 0
M  V30 3608 C 329.783 3.36965 0.815798 0
M  V30 3609 C 328.844 4.29299 -0.0105996 0
M  V30 3610 C 328.077 5.26923 0.84781 0
M  V30 3611 O 328.3 5.30859 2.08673 0
M  V30 3612 O 327.234 6.01249 0.279969 0
M  V30 3613 H 331.06 2.91065 -0.866892 0
M  V30 3614 H 328.645 1.4117 -0.48902 0
M  V30 3615 H 330.527 3.99804 1.33171 0
M  V30 3616 H 329.202 2.82739 1.57608 0
M  V30 3617 H 328.109 3.69703 -0.571877 0
M  V30 3618 H 329.442 4.86712 -0.73295 0
M  V30 3619 N 331.094 0.475555 1.50254 0
M  V30 3620 C 332.34 -0.0780073 2.0265 0
M  V30 3621 C 332.673 -1.38968 1.35652 0
M  V30 3622 O 331.948 -1.8839 0.483691 0
M  V30 3623 C 332.231 -0.257161 3.59181 0
M  V30 3624 C 332.084 1.07585 4.36744 0
M  V30 3625 C 333.403 -1.00965 4.28362 0
M  V30 3626 H 330.522 -0.0268758 0.73651 0
M  V30 3627 H 333.164 0.622015 1.7953 0
M  V30 3628 H 331.314 -0.853412 3.79011 0
M  V30 3629 H 332.986 1.70902 4.28474 0
M  V30 3630 H 331.229 1.6714 4.00308 0
M  V30 3631 H 331.9 0.904088 5.44546 0
M  V30 3632 H 334.376 -0.504214 4.13034 0
M  V30 3633 H 333.252 -1.10381 5.37687 0
M  V30 3634 H 333.513 -2.04731 3.91839 0
M  V30 3635 N 332.573 -1.56217 0.208337 0
M  V30 3636 C 333.821 -1.97558 -0.426076 0
M  V30 3637 C 334.142 -1.09683 -1.61229 0
M  V30 3638 O 333.412 -0.170956 -1.95153 0
M  V30 3639 H 331.992 -0.729575 -0.160405 0
M  V30 3640 H 334.654 -1.92606 0.298155 0
M  V30 3641 H 333.75 -3.02672 -0.761312 0
M  V30 3642 N 334.051 0.0651679 -1.57465 0
M  V30 3643 C 335.299 0.761555 -1.87202 0
M  V30 3644 C 335.62 1.77778 -0.801243 0
M  V30 3645 O 334.89 1.95166 0.16937 0
M  V30 3646 H 333.47 0.284251 -0.690804 0
M  V30 3647 H 336.132 0.0396827 -1.9486 0
M  V30 3648 H 335.228 1.27365 -2.84929 0
M  V30 3649 N 335.529 1.53961 0.336706 0
M  V30 3650 C 336.778 1.70751 1.07363 0
M  V30 3651 C 337.091 0.481061 1.89592 0
M  V30 3652 O 338.297 0.530046 2.66276 0
M  V30 3653 C 336.753 3.01965 1.95818 0
M  V30 3654 C 336.361 4.31971 1.18764 0
M  V30 3655 C 338.105 3.28121 2.69327 0
M  V30 3656 C 336.012 5.54255 2.06289 0
M  V30 3657 H 334.942 0.636292 0.404535 0
M  V30 3658 H 337.593 1.80459 0.332681 0
M  V30 3659 H 335.975 2.86132 2.7376 0
M  V30 3660 H 337.149 4.5853 0.456849 0
M  V30 3661 H 335.464 4.12481 0.569946 0
M  V30 3662 H 338.061 4.16673 3.35094 0
M  V30 3663 H 338.404 2.45426 3.36261 0
M  V30 3664 H 338.937 3.44762 1.98454 0
M  V30 3665 H 335.676 6.39513 1.43885 0
M  V30 3666 H 335.196 5.31935 2.77138 0
M  V30 3667 H 336.875 5.90159 2.65182 0
M  V30 3668 N 337.007 -0.598083 1.45811 0
M  V30 3669 C 337.957 -1.70272 1.51629 0
M  V30 3670 C 338.941 -1.56382 0.378629 0
M  V30 3671 O 340.133 -1.65557 0.626087 0
M  V30 3672 C 337.262 -3.09042 1.49493 0
M  V30 3673 C 336.348 -3.28284 2.68496 0
M  V30 3674 N 336.739 -3.17748 3.93535 0
M  V30 3675 C 335.037 -3.59182 2.64394 0
M  V30 3676 C 335.738 -3.38579 4.7301 0
M  V30 3677 N 334.714 -3.63016 4.04624 0
M  V30 3678 H 338.516 -1.60634 2.46118 0
M  V30 3679 H 336.03 -0.801642 1.41235 0
M  V30 3680 H 338.027 -3.88302 1.51747 0
M  V30 3681 H 336.687 -3.19823 0.560683 0
M  V30 3682 H 337.698 -2.95944 4.25014 0
M  V30 3683 H 334.375 -3.76742 1.79922 0
M  V30 3684 H 335.765 -3.35747 5.82 0
M  V30 3685 N 338.485 -1.33259 -0.841409 0
M  V30 3686 C 339.715 -1.2742 -1.62628 0
M  V30 3687 C 340.123 0.157604 -1.88542 0
M  V30 3688 O 339.466 1.10938 -1.46419 0
M  V30 3689 C 339.528 -1.97797 -3.00194 0
M  V30 3690 C 339.192 -3.47109 -2.97261 0
M  V30 3691 C 340.189 -4.42358 -2.73159 0
M  V30 3692 C 337.874 -3.89247 -3.17478 0
M  V30 3693 C 339.868 -5.77718 -2.69296 0
M  V30 3694 C 337.555 -5.24713 -3.13241 0
M  V30 3695 C 338.553 -6.1876 -2.89181 0
M  V30 3696 O 338.241 -7.51745 -2.84843 0
M  V30 3697 H 337.973 -0.440436 -0.512827 0
M  V30 3698 H 340.527 -1.76153 -1.05638 0
M  V30 3699 H 338.757 -1.43652 -3.59028 0
M  V30 3700 H 340.446 -1.8549 -3.61038 0
M  V30 3701 H 341.212 -4.11127 -2.57294 0
M  V30 3702 H 337.091 -3.16456 -3.35226 0
M  V30 3703 H 340.635 -6.51097 -2.50436 0
M  V30 3704 H 336.532 -5.55569 -3.28654 0
M  V30 3705 H 337.3 -7.61262 -3.00702 0
M  V30 3706 N 339.963 1.05934 -1.16686 0
M  V30 3707 C 340.911 2.15603 -0.872817 0
M  V30 3708 C 341.905 1.68647 0.159576 0
M  V30 3709 O 343.111 1.79995 0.0132125 0
M  V30 3710 H 339.486 0.703885 -0.264671 0
M  V30 3711 H 341.457 2.37613 -1.80507 0
M  V30 3712 C 340.206 3.45457 -0.394344 0
M  V30 3713 H 339.529 3.81984 -1.18019 0
M  V30 3714 H 340.969 4.2339 -0.227408 0
M  V30 3715 C 339.428 3.25021 0.88673 0
M  V30 3716 O 339.958 3.50906 1.95519 0
M  V30 3717 N 338.164 2.78437 0.831925 0
M  V30 3718 H 337.711 2.57572 -0.0377619 0
M  V30 3719 H 337.669 2.65144 1.68956 0
M  V30 3720 N 341.441 0.965919 1.2453 0
M  V30 3721 C 342.404 0.499547 2.2369 0
M  V30 3722 C 343.404 -0.40294 1.5567 0
M  V30 3723 O 344.594 -0.19865 1.73064 0
M  V30 3724 C 341.726 -0.276792 3.39774 0
M  V30 3725 H 342.919 1.37613 2.66463 0
M  V30 3726 H 340.472 0.750324 1.37112 0
M  V30 3727 H 341.207 -1.17055 3.02438 0
M  V30 3728 H 340.992 0.370826 3.90343 0
M  V30 3729 H 342.482 -0.592175 4.1338 0
M  V30 3730 N 342.919 -1.39368 0.735821 0
M  V30 3731 C 343.882 -2.2896 0.104874 0
M  V30 3732 C 344.882 -1.46347 -0.666274 0
M  V30 3733 O 346.072 -1.67014 -0.49517 0
M  V30 3734 C 343.204 -3.29857 -0.860656 0
M  V30 3735 H 344.397 -2.86259 0.894205 0
M  V30 3736 H 341.95 -1.48029 0.501704 0
M  V30 3737 H 342.685 -2.77615 -1.67631 0
M  V30 3738 H 342.47 -3.9087 -0.310327 0
M  V30 3739 H 343.96 -3.96893 -1.29867 0
M  V30 3740 N 344.397 -0.483516 -1.5 0
M  V30 3741 C 345.808 -0.0314176 -1.86674 0
M  V30 3742 C 346.159 1.37728 -1.39733 0
M  V30 3743 O 345.284 2.02327 -0.767635 0
M  V30 3744 C 345.879 -0.0502376 -3.38763 0
M  V30 3745 C 344.438 0.346442 -3.74802 0
M  V30 3746 C 343.585 -0.430366 -2.7394 0
M  V30 3747 H 346.536 -0.697182 -1.42566 0
M  V30 3748 H 346.557 0.749116 -3.73053 0
M  V30 3749 H 346.069 -1.07563 -3.72897 0
M  V30 3750 H 344.17 1.37572 -3.46273 0
M  V30 3751 H 344.283 0.0391486 -4.79084 0
M  V30 3752 H 342.647 0.117557 -2.54429 0
M  V30 3753 H 343.43 -1.4555 -3.10918 0
M  V30 3754 N 345.875 1.56104 -0.216619 0
M  V30 3755 C 347.122 1.98172 0.416416 0
M  V30 3756 C 347.45 1.10413 1.60122 0
M  V30 3757 O 346.705 0.147967 1.9514 0
M  V30 3758 C 347.004 3.45923 0.898464 0
M  V30 3759 C 346.67 4.50559 -0.175288 0
M  V30 3760 C 345.332 4.78897 -0.470271 0
M  V30 3761 C 347.684 5.1334 -0.901728 0
M  V30 3762 C 345.012 5.67299 -1.4963 0
M  V30 3763 C 347.364 6.02853 -1.91705 0
M  V30 3764 C 346.028 6.29537 -2.21901 0
M  V30 3765 H 345.298 0.725164 0.152377 0
M  V30 3766 H 347.945 1.88839 -0.318103 0
M  V30 3767 H 346.25 3.52434 1.71165 0
M  V30 3768 H 347.947 3.75841 1.39803 0
M  V30 3769 H 344.537 4.28551 0.0647806 0
M  V30 3770 H 348.721 4.91521 -0.687072 0
M  V30 3771 H 343.977 5.86239 -1.73592 0
M  V30 3772 H 348.151 6.50552 -2.48505 0
M  V30 3773 H 345.778 6.97835 -3.01548 0
M  V30 3774 N 347.353 -0.0568162 1.57498 0
M  V30 3775 C 348.301 -1.08452 2.05769 0
M  V30 3776 C 349.295 -1.39164 0.965903 0
M  V30 3777 O 350.501 -1.38395 1.15095 0
M  V30 3778 H 346.876 -0.367148 0.656282 0
M  V30 3779 H 348.847 -0.651368 2.91204 0
M  V30 3780 C 347.596 -2.38543 2.52968 0
M  V30 3781 H 346.919 -2.15765 3.36579 0
M  V30 3782 H 348.359 -3.08863 2.90481 0
M  V30 3783 C 346.818 -3.05562 1.41893 0
M  V30 3784 O 347.348 -3.94262 0.769442 0
M  V30 3785 N 345.554 -2.6643 1.16032 0
M  V30 3786 H 345.101 -1.94387 1.6903 0
M  V30 3787 H 345.059 -3.11593 0.419219 0
M  V30 3788 N 348.832 -1.54138 -0.328536 0
M  V30 3789 C 350.08 -1.71765 -1.06496 0
M  V30 3790 C 350.401 -0.49149 -1.88704 0
M  V30 3791 O 349.671 0.494539 -1.89555 0
M  V30 3792 H 348.251 -0.633295 -0.396164 0
M  V30 3793 H 350.913 -1.91429 -0.366176 0
M  V30 3794 H 350.009 -2.5951 -1.73381 0
M  V30 3795 N 350.31 0.590341 -1.46126 0
M  V30 3796 C 351.556 1.34874 -1.52252 0
M  V30 3797 C 351.911 1.91658 -0.168807 0
M  V30 3798 O 351.204 1.73093 0.821556 0
M  V30 3799 C 351.398 2.5032 -2.55097 0
M  V30 3800 C 351.227 2.04843 -4.00337 0
M  V30 3801 C 349.997 1.90213 -4.68132 0
M  V30 3802 C 352.195 1.61267 -4.88362 0
M  V30 3803 N 350.177 1.38727 -5.9802 0
M  V30 3804 C 351.548 1.21319 -6.08015 0
M  V30 3805 C 353.603 1.49015 -4.75078 0
M  V30 3806 C 352.306 0.7034 -7.15852 0
M  V30 3807 C 354.332 0.994401 -5.8298 0
M  V30 3808 C 353.694 0.604659 -7.018 0
M  V30 3809 H 349.793 0.486803 -0.612002 0
M  V30 3810 H 352.377 0.673007 -1.82698 0
M  V30 3811 H 350.548 3.15466 -2.26574 0
M  V30 3812 H 352.28 3.1725 -2.51266 0
M  V30 3813 H 349.035 2.11927 -4.23537 0
M  V30 3814 H 349.459 1.15168 -6.67132 0
M  V30 3815 H 354.101 1.77768 -3.83612 0
M  V30 3816 H 351.819 0.403446 -8.07092 0
M  V30 3817 H 355.405 0.903621 -5.7474 0
M  V30 3818 H 354.285 0.226963 -7.83871 0
M  V30 3819 N 351.788 1.33704 0.83433 0
M  V30 3820 C 353.018 1.28281 1.6195 0
M  V30 3821 C 353.426 -0.147603 1.88623 0
M  V30 3822 O 352.769 -1.1016 1.47005 0
M  V30 3823 C 352.831 1.99386 2.99141 0
M  V30 3824 C 352.495 3.48681 2.95416 0
M  V30 3825 C 353.492 4.438 2.70809 0
M  V30 3826 C 351.177 3.90925 3.15409 0
M  V30 3827 C 353.171 5.79138 2.66229 0
M  V30 3828 C 350.858 5.26366 3.10454 0
M  V30 3829 C 351.856 6.20284 2.85895 0
M  V30 3830 O 351.544 7.53245 2.80852 0
M  V30 3831 H 351.276 0.44315 0.510484 0
M  V30 3832 H 353.83 1.76711 1.04702 0
M  V30 3833 H 352.06 1.45554 3.58261 0
M  V30 3834 H 353.749 1.87403 3.60049 0
M  V30 3835 H 354.515 4.12485 2.5511 0
M  V30 3836 H 350.394 3.18229 3.33543 0
M  V30 3837 H 353.938 6.52416 2.4698 0
M  V30 3838 H 349.835 5.57304 3.25703 0
M  V30 3839 H 350.603 7.62846 2.96661 0
M  V30 3840 N 353.266 -1.05314 1.17247 0
M  V30 3841 C 354.199 -2.12512 0.831507 0
M  V30 3842 C 355.177 -1.61351 -0.201168 0
M  V30 3843 O 356.361 -1.88317 -0.0829831 0
M  V30 3844 C 353.488 -3.37848 0.24015 0
M  V30 3845 C 352.534 -4.07832 1.24801 0
M  V30 3846 S 353.367 -4.56537 2.79882 0
M  V30 3847 C 354.523 -5.85122 2.22223 0
M  V30 3848 H 354.756 -2.41106 1.7394 0
M  V30 3849 H 352.289 -1.17896 0.996988 0
M  V30 3850 H 354.247 -4.10391 -0.0945588 0
M  V30 3851 H 352.908 -3.07392 -0.645668 0
M  V30 3852 H 352.101 -4.97883 0.78287 0
M  V30 3853 H 351.703 -3.41348 1.52831 0
M  V30 3854 H 353.995 -6.58408 1.59703 0
M  V30 3855 H 354.938 -6.36381 3.10523 0
M  V30 3856 H 355.346 -5.39626 1.65722 0
M  V30 3857 N 354.744 -0.972509 -1.24016 0
M  V30 3858 C 355.992 -0.635776 -1.91839 0
M  V30 3859 C 356.313 0.832312 -1.76345 0
M  V30 3860 O 355.583 1.5946 -1.13795 0
M  V30 3861 H 354.163 -0.232157 -0.710009 0
M  V30 3862 H 356.825 -1.23462 -1.50809 0
M  V30 3863 H 355.921 -0.880545 -2.99421 0
M  V30 3864 N 356.222 1.38976 -0.743202 0
M  V30 3865 C 357.45 2.04636 -0.30525 0
M  V30 3866 C 357.865 1.56044 1.06281 0
M  V30 3867 O 357.222 0.728921 1.67311 0
M  V30 3868 C 357.273 3.60193 -0.307177 0
M  V30 3869 O 356.994 4.06998 -1.62124 0
M  V30 3870 C 358.495 4.4306 0.145928 0
M  V30 3871 H 355.715 0.65788 -0.132041 0
M  V30 3872 H 358.259 1.77866 -1.00915 0
M  V30 3873 H 356.414 3.85835 0.347898 0
M  V30 3874 H 356.828 5.01371 -1.54036 0
M  V30 3875 H 358.302 5.51921 0.0934183 0
M  V30 3876 H 358.779 4.22706 1.19231 0
M  V30 3877 H 359.385 4.22584 -0.479886 0
M  V30 3878 N 357.7 0.491464 1.49741 0
M  V30 3879 C 358.61 -0.296835 2.32715 0
M  V30 3880 C 359.626 -0.976536 1.44013 0
M  V30 3881 O 360.802 -0.960023 1.77047 0
M  V30 3882 C 357.867 -1.35288 3.19215 0
M  V30 3883 C 356.928 -0.687632 4.23757 0
M  V30 3884 C 356.161 -1.69336 5.06123 0
M  V30 3885 O 356.384 -2.92219 4.89861 0
M  V30 3886 O 355.318 -1.25394 5.88693 0
M  V30 3887 H 359.144 0.382048 3.01287 0
M  V30 3888 H 356.729 0.252953 1.47243 0
M  V30 3889 H 358.611 -1.96411 3.72828 0
M  V30 3890 H 357.286 -2.01487 2.53347 0
M  V30 3891 H 356.193 -0.0369159 3.74082 0
M  V30 3892 H 357.526 -0.0682566 4.92153 0
M  V30 3893 N 359.178 -1.55987 0.224894 0
M  V30 3894 C 360.427 -1.97566 -0.406273 0
M  V30 3895 C 360.74 -1.11569 -1.6066 0
M  V30 3896 O 361.946 -1.43062 -2.3075 0
M  V30 3897 C 360.402 -3.51474 -0.774207 0
M  V30 3898 C 360.01 -4.46179 0.403496 0
M  V30 3899 C 361.754 -4.01758 -1.37079 0
M  V30 3900 C 359.661 -5.91399 0.0129412 0
M  V30 3901 H 358.591 -0.737777 -0.155565 0
M  V30 3902 H 361.242 -1.80659 0.321635 0
M  V30 3903 H 359.624 -3.63994 -1.55963 0
M  V30 3904 H 360.798 -4.45409 1.18101 0
M  V30 3905 H 359.113 -4.06255 0.913536 0
M  V30 3906 H 361.71 -5.07756 -1.67596 0
M  V30 3907 H 362.053 -3.47805 -2.28773 0
M  V30 3908 H 362.586 -3.92475 -0.648733 0
M  V30 3909 H 359.325 -6.49341 0.896451 0
M  V30 3910 H 358.845 -5.95356 -0.728821 0
M  V30 3911 H 360.524 -6.45683 -0.412582 0
M  V30 3912 N 360.656 0.0484629 -1.57525 0
M  V30 3913 C 361.904 0.741657 -1.88 0
M  V30 3914 C 362.225 1.76918 -0.820054 0
M  V30 3915 O 361.495 1.95335 0.148661 0
M  V30 3916 H 360.075 0.276908 -0.69378 0
M  V30 3917 H 362.737 0.019013 -1.94891 0
M  V30 3918 H 361.833 1.24336 -2.86264 0
M  V30 3919 N 362.134 1.5431 0.320358 0
M  V30 3920 C 363.097 1.83195 1.3774 0
M  V30 3921 C 364.097 0.703906 1.44575 0
M  V30 3922 O 365.287 0.972214 1.44546 0
M  V30 3923 C 362.419 1.99487 2.76438 0
M  V30 3924 H 363.612 2.77642 1.1338 0
M  V30 3925 H 361.165 1.46076 0.556012 0
M  V30 3926 H 361.9 1.07262 3.06048 0
M  V30 3927 H 361.685 2.81575 2.7287 0
M  V30 3928 H 363.175 2.23271 3.52902 0
M  V30 3929 N 363.613 -0.582584 1.46437 0
M  V30 3930 C 365.029 -0.905962 1.31394 0
M  V30 3931 C 365.229 -1.99468 0.285476 0
M  V30 3932 O 364.285 -2.50566 -0.311914 0
M  V30 3933 C 365.598 -1.3232 2.70022 0
M  V30 3934 C 367.146 -1.43604 2.78113 0
M  V30 3935 C 367.621 -1.88694 4.17323 0
M  V30 3936 N 369.112 -1.95887 4.19741 0
M  V30 3937 C 369.847 -2.32051 5.24347 0
M  V30 3938 N 369.343 -2.67006 6.39281 0
M  V30 3939 N 371.136 -2.32606 5.11713 0
M  V30 3940 H 363.287 0.1366 2.1196 0
M  V30 3941 H 365.55 -0.00155736 0.947999 0
M  V30 3942 H 365.256 -0.597242 3.46592 0
M  V30 3943 H 365.13 -2.28469 3.00136 0
M  V30 3944 H 367.517 -2.15286 2.01832 0
M  V30 3945 H 367.598 -0.457059 2.51684 0
M  V30 3946 H 367.242 -1.1759 4.941 0
M  V30 3947 H 367.172 -2.8755 4.4116 0
M  V30 3948 H 369.663 -1.71362 3.36814 0
M  V30 3949 H 369.976 -2.93554 7.14875 0
M  V30 3950 H 368.321 -2.64644 6.42642 0
M  V30 3951 H 371.512 -2.04721 4.2096 0
M  V30 3952 H 371.685 -2.60462 5.93349 0
M  V30 3953 N 365.091 -1.34144 -0.827227 0
M  V30 3954 C 366.039 -1.25364 -1.95925 0
M  V30 3955 C 367.033 -0.152608 -1.68711 0
M  V30 3956 O 368.239 -0.317311 -1.77181 0
M  V30 3957 H 364.614 -0.389342 -0.643364 0
M  V30 3958 H 366.585 -2.21045 -2.00454 0
M  V30 3959 C 365.334 -1.02158 -3.32354 0
M  V30 3960 H 364.657 -1.86111 -3.5384 0
M  V30 3961 H 366.097 -1.00048 -4.12027 0
M  V30 3962 C 364.556 0.275244 -3.35774 0
M  V30 3963 O 365.086 1.27806 -3.80826 0
M  V30 3964 N 363.292 0.306853 -2.88975 0
M  V30 3965 H 362.839 -0.509777 -2.52506 0
M  V30 3966 H 362.797 1.17432 -2.91646 0
M  V30 3967 N 366.569 1.04691 -1.17803 0
M  V30 3968 C 367.499 2.14494 -0.92275 0
M  V30 3969 C 368.48 1.69546 0.137179 0
M  V30 3970 O 369.665 1.94195 -0.0141108 0
M  V30 3971 C 366.795 3.44491 -0.440803 0
M  V30 3972 C 365.749 4.03031 -1.4405 0
M  V30 3973 C 365.075 5.28432 -0.81631 0
M  V30 3974 C 366.375 4.39932 -2.81527 0
M  V30 3975 H 368.069 2.36107 -1.84103 0
M  V30 3976 H 365.615 1.1347 -0.886599 0
M  V30 3977 H 367.568 4.2066 -0.249602 0
M  V30 3978 H 366.292 3.22546 0.513025 0
M  V30 3979 H 364.951 3.28937 -1.61853 0
M  V30 3980 H 364.599 5.02792 0.144511 0
M  V30 3981 H 364.299 5.68559 -1.48371 0
M  V30 3982 H 365.823 6.07284 -0.635496 0
M  V30 3983 H 367.237 5.07113 -2.67412 0
M  V30 3984 H 365.634 4.9109 -3.44892 0
M  V30 3985 H 366.704 3.50045 -3.35554 0
M  V30 3986 N 368.047 0.979072 1.23499 0
M  V30 3987 C 369.01 0.523244 2.23147 0
M  V30 3988 C 370.01 -0.386406 1.56088 0
M  V30 3989 O 371.2 -0.180283 1.73265 0
M  V30 3990 C 368.332 -0.240739 3.40049 0
M  V30 3991 H 369.525 1.40432 2.64989 0
M  V30 3992 H 367.078 0.764824 1.36309 0
M  V30 3993 H 367.813 -1.13841 3.03662 0
M  V30 3994 H 367.598 0.412207 3.89927 0
M  V30 3995 H 369.088 -0.548297 4.13985 0
M  V30 3996 N 369.525 -1.3858 0.750561 0
M  V30 3997 C 370.802 -1.94231 0.231009 0
M  V30 3998 C 371.182 -1.68611 -1.27018 0
M  V30 3999 O 370.53 -1.02296 -2.04323 0
M  V30 4000 C 370.74 -3.44123 0.581428 0
M  V30 4001 C 372.088 -4.2116 0.539389 0
M  V30 4002 O 373.112 -3.52391 0.519541 0
M  V30 4003 O 371.971 -5.43749 0.54765 0
M  V30 4004 H 369.065 -0.825639 0.0474263 0
M  V30 4005 H 371.611 -1.4799 0.830478 0
M  V30 4006 H 370.383 -3.56267 1.61833 0
M  V30 4007 H 370.006 -3.97573 -0.0462047 0
M  V30 4008 N 371.003 -0.499398 -1.49478 0
M  V30 4009 C 371.913 0.284489 -2.32869 0
M  V30 4010 C 372.929 0.968885 -1.44529 0
M  V30 4011 O 374.105 0.95062 -1.77553 0
M  V30 4012 C 371.17 1.33594 -3.19928 0
M  V30 4013 C 370.231 0.665149 -4.24116 0
M  V30 4014 C 369.464 1.6665 -5.07014 0
M  V30 4015 O 369.687 2.89618 -4.91404 0
M  V30 4016 O 368.621 1.22271 -5.8935 0
M  V30 4017 H 372.447 -0.39802 -3.01081 0
M  V30 4018 H 370.032 -0.260758 -1.47107 0
M  V30 4019 H 371.914 1.94431 -3.73864 0
M  V30 4020 H 370.589 2.0014 -2.54412 0
M  V30 4021 H 369.496 0.0170769 -3.74096 0
M  V30 4022 H 370.829 0.0421555 -4.92182 0
M  V30 4023 N 372.481 1.55866 -0.233164 0
M  V30 4024 C 373.428 2.20796 0.67215 0
M  V30 4025 C 374.398 1.16731 1.18166 0
M  V30 4026 O 375.583 1.45129 1.23864 0
M  V30 4027 C 372.723 2.90072 1.86955 0
M  V30 4028 C 371.836 4.08759 1.39786 0
M  V30 4029 C 370.971 4.65787 2.55374 0
M  V30 4030 C 370.01 5.76752 2.04998 0
M  V30 4031 N 369.147 6.28021 3.13901 0
M  V30 4032 H 373.987 2.9779 0.111749 0
M  V30 4033 H 371.524 1.47036 0.0434007 0
M  V30 4034 H 373.482 3.28428 2.57276 0
M  V30 4035 H 372.112 2.15575 2.40265 0
M  V30 4036 H 371.164 3.7581 0.589173 0
M  V30 4037 H 372.476 4.88906 0.98856 0
M  V30 4038 H 371.63 5.06646 3.33758 0
M  V30 4039 H 370.369 3.84828 2.99598 0
M  V30 4040 H 369.374 5.35383 1.25079 0
M  V30 4041 H 370.599 6.59553 1.61759 0
M  V30 4042 H 368.545 5.49971 3.57586 0
M  V30 4043 H 368.462 7.03323 2.7726 0
M  V30 4044 H 369.73 6.73538 3.92386 0
M  V30 4045 N 373.959 -0.0401083 1.57549 0
M  V30 4046 C 375.375 -0.395556 1.54621 0
M  V30 4047 C 375.575 -1.77281 0.957799 0
M  V30 4048 O 374.631 -2.45888 0.574031 0
M  V30 4049 C 375.944 -0.307535 2.99123 0
M  V30 4050 C 377.492 -0.385425 3.10618 0
M  V30 4051 C 377.967 -0.326973 4.56831 0
M  V30 4052 N 379.458 -0.386102 4.61588 0
M  V30 4053 C 380.193 -0.363591 5.72246 0
M  V30 4054 N 379.689 -0.29402 6.92176 0
M  V30 4055 N 381.482 -0.412503 5.60584 0
M  V30 4056 H 373.633 0.861325 1.94152 0
M  V30 4057 H 375.896 0.326445 0.890021 0
M  V30 4058 H 375.602 0.638461 3.45856 0
M  V30 4059 H 375.476 -1.10552 3.60636 0
M  V30 4060 H 377.863 -1.32185 2.63839 0
M  V30 4061 H 377.944 0.44171 2.51957 0
M  V30 4062 H 377.588 0.605738 5.04275 0
M  V30 4063 H 377.518 -1.17207 5.13391 0
M  V30 4064 H 380.009 -0.442832 3.75296 0
M  V30 4065 H 380.322 -0.28164 7.72287 0
M  V30 4066 H 378.667 -0.260232 6.94513 0
M  V30 4067 H 381.858 -0.464769 4.65787 0
M  V30 4068 H 382.031 -0.391492 6.46816 0
M  V30 4069 N 375.437 -1.54477 -0.31217 0
M  V30 4070 C 376.667 -1.76948 -1.06645 0
M  V30 4071 C 377.075 -0.523593 -1.81811 0
M  V30 4072 O 376.418 0.51578 -1.76311 0
M  V30 4073 C 376.48 -2.91668 -2.10166 0
M  V30 4074 C 376.144 -4.30165 -1.54296 0
M  V30 4075 C 377.141 -5.10603 -0.978793 0
M  V30 4076 C 374.826 -4.76738 -1.58196 0
M  V30 4077 C 376.82 -6.3573 -0.461048 0
M  V30 4078 C 374.507 -6.01831 -1.06034 0
M  V30 4079 C 375.505 -6.81161 -0.500844 0
M  V30 4080 O 375.193 -8.03899 0.0128958 0
M  V30 4081 H 374.925 -0.594088 -0.322546 0
M  V30 4082 H 377.479 -2.02213 -0.360441 0
M  V30 4083 H 375.709 -2.62001 -2.84416 0
M  V30 4084 H 377.398 -3.01817 -2.71406 0
M  V30 4085 H 378.164 -4.75771 -0.941651 0
M  V30 4086 H 374.043 -4.15027 -2.00683 0
M  V30 4087 H 377.587 -6.97596 -0.0236894 0
M  V30 4088 H 373.484 -6.36152 -1.09459 0
M  V30 4089 H 374.252 -8.18437 -0.101457 0
M  V30 4090 N 376.915 0.57481 -1.46744 0
M  V30 4091 C 378.192 1.3352 -1.4294 0
M  V30 4092 C 378.572 2.10775 -0.117009 0
M  V30 4093 O 377.92 2.09966 0.901474 0
M  V30 4094 C 378.13 2.25456 -2.66403 0
M  V30 4095 C 379.478 2.87035 -3.12883 0
M  V30 4096 O 380.502 2.35766 -2.67007 0
M  V30 4097 O 379.361 3.80179 -3.92589 0
M  V30 4098 H 376.455 0.600318 -0.568812 0
M  V30 4099 H 379.001 0.595171 -1.58921 0
M  V30 4100 H 377.773 1.67851 -3.53471 0
M  V30 4101 H 377.396 3.06785 -2.52921 0
M  V30 4102 N 378.394 1.34581 0.820102 0
M  V30 4103 C 379.341 1.2639 1.93117 0
M  V30 4104 C 380.311 0.138554 1.65521 0
M  V30 4105 O 381.496 0.320004 1.88097 0
M  V30 4106 C 378.636 1.02812 3.29429 0
M  V30 4107 C 377.749 2.24146 3.693 0
M  V30 4108 C 376.884 1.93829 4.94574 0
M  V30 4109 C 375.923 3.1129 5.27034 0
M  V30 4110 N 375.06 2.80838 6.43486 0
M  V30 4111 H 379.9 2.21408 1.99455 0
M  V30 4112 H 377.437 1.10077 0.975784 0
M  V30 4113 H 379.395 0.871788 4.0799 0
M  V30 4114 H 378.025 0.114612 3.22596 0
M  V30 4115 H 377.077 2.50691 2.86109 0
M  V30 4116 H 378.389 3.11899 3.89257 0
M  V30 4117 H 377.543 1.74948 5.80929 0
M  V30 4118 H 376.282 1.03341 4.76626 0
M  V30 4119 H 375.287 3.30764 4.39175 0
M  V30 4120 H 376.512 4.02561 5.4692 0
M  V30 4121 H 374.458 1.92929 6.26988 0
M  V30 4122 H 374.375 3.62123 6.63629 0
M  V30 4123 H 375.643 2.65467 7.32903 0
M  V30 4124 N 379.872 -1.04064 1.18357 0
M  V30 4125 C 380.802 -2.14001 0.934113 0
M  V30 4126 C 381.783 -1.69616 -0.128186 0
M  V30 4127 O 382.968 -1.94185 0.0244093 0
M  V30 4128 C 380.098 -3.44253 0.459066 0
M  V30 4129 C 379.052 -4.02261 1.46185 0
M  V30 4130 C 378.378 -5.27992 0.844322 0
M  V30 4131 C 379.678 -4.38432 2.83856 0
M  V30 4132 H 381.372 -2.35127 1.85352 0
M  V30 4133 H 378.918 -1.12998 0.892604 0
M  V30 4134 H 380.871 -4.20522 0.271907 0
M  V30 4135 H 379.595 -3.22813 -0.495912 0
M  V30 4136 H 378.254 -3.28074 1.63595 0
M  V30 4137 H 377.902 -5.02862 -0.117845 0
M  V30 4138 H 377.602 -5.67765 1.51384 0
M  V30 4139 H 379.126 -6.06938 0.667693 0
M  V30 4140 H 380.54 -5.05688 2.70098 0
M  V30 4141 H 378.937 -4.89254 3.47491 0
M  V30 4142 H 380.007 -3.4826 3.37406 0
M  V30 4143 N 381.35 -0.985608 -1.22978 0
M  V30 4144 C 382.297 -0.529825 -2.24636 0
M  V30 4145 C 383.267 0.434028 -1.60329 0
M  V30 4146 O 384.452 0.340414 -1.87739 0
M  V30 4147 C 381.592 0.156533 -3.44745 0
M  V30 4148 C 380.705 -0.848197 -4.23591 0
M  V30 4149 C 379.84 -0.136109 -5.31026 0
M  V30 4150 C 378.879 -1.1297 -6.01585 0
M  V30 4151 N 378.016 -0.446415 -7.00679 0
M  V30 4152 H 382.856 -1.40148 -2.62988 0
M  V30 4153 H 380.393 -0.702168 -1.29259 0
M  V30 4154 H 382.351 0.571324 -4.1327 0
M  V30 4155 H 380.981 0.992025 -3.07179 0
M  V30 4156 H 380.033 -1.38135 -3.54433 0
M  V30 4157 H 381.345 -1.60512 -4.72268 0
M  V30 4158 H 380.499 0.335784 -6.0577 0
M  V30 4159 H 379.238 0.653373 -4.83304 0
M  V30 4160 H 378.243 -1.6123 -5.25628 0
M  V30 4161 H 379.468 -1.91993 -6.51395 0
M  V30 4162 H 377.414 0.323763 -6.55201 0
M  V30 4163 H 377.331 -1.1419 -7.47326 0
M  V30 4164 H 378.599 0.00291697 -7.795 0
M  V30 4165 N 382.828 1.3818 -0.7579 0
M  V30 4166 C 383.775 2.30416 -0.133057 0
M  V30 4167 C 384.745 1.50398 0.704957 0
M  V30 4168 O 385.93 1.79014 0.660192 0
M  V30 4169 C 383.07 3.36834 0.750813 0
M  V30 4170 C 382.183 4.31879 -0.102297 0
M  V30 4171 C 381.318 5.25368 0.784979 0
M  V30 4172 C 380.357 6.12058 -0.0715046 0
M  V30 4173 N 379.494 6.97832 0.772972 0
M  V30 4174 H 384.334 2.83274 -0.925186 0
M  V30 4175 H 381.871 1.39461 -0.467866 0
M  V30 4176 H 383.829 3.97145 1.27794 0
M  V30 4177 H 382.459 2.85374 1.50868 0
M  V30 4178 H 381.511 3.72991 -0.747095 0
M  V30 4179 H 382.823 4.92921 -0.763552 0
M  V30 4180 H 381.977 5.90818 1.37911 0
M  V30 4181 H 380.716 4.64703 1.47996 0
M  V30 4182 H 379.721 5.456 -0.678272 0
M  V30 4183 H 380.946 6.74793 -0.763606 0
M  V30 4184 H 378.892 6.3971 1.45282 0
M  V30 4185 H 378.809 7.55812 0.168709 0
M  V30 4186 H 380.077 7.67687 1.35194 0
M  V30 4187 N 384.306 0.507319 1.49211 0
M  V30 4188 C 385.552 -0.0350047 2.0277 0
M  V30 4189 C 385.885 -1.3606 1.38569 0
M  V30 4190 O 385.16 -1.87321 0.523542 0
M  V30 4191 C 385.443 -0.180916 3.59645 0
M  V30 4192 C 385.296 1.16825 4.34364 0
M  V30 4193 C 386.615 -0.918558 4.30407 0
M  V30 4194 H 383.734 -0.0112473 0.736914 0
M  V30 4195 H 386.376 0.659956 1.7817 0
M  V30 4196 H 384.526 -0.772826 3.80736 0
M  V30 4197 H 386.198 1.79952 4.24753 0
M  V30 4198 H 384.441 1.75594 3.96673 0
M  V30 4199 H 385.112 1.01939 5.42506 0
M  V30 4200 H 387.588 -0.41649 4.1401 0
M  V30 4201 H 386.464 -0.989505 5.39907 0
M  V30 4202 H 386.725 -1.96373 3.96093 0
M  V30 4203 N 385.784 -1.5574 0.241426 0
M  V30 4204 C 386.747 -2.19877 -0.647063 0
M  V30 4205 C 387.747 -1.16642 -1.10686 0
M  V30 4206 O 388.937 -1.41757 -1.01245 0
M  V30 4207 C 386.069 -2.83797 -1.88871 0
M  V30 4208 H 387.262 -2.99772 -0.087574 0
M  V30 4209 H 384.815 -1.56298 -0.00813574 0
M  V30 4210 H 385.55 -2.07824 -2.48957 0
M  V30 4211 H 385.335 -3.59414 -1.56728 0
M  V30 4212 H 386.825 -3.32898 -2.52129 0
M  V30 4213 N 387.262 0.0317525 -1.57568 0
M  V30 4214 C 388.487 0.738664 -1.938 0
M  V30 4215 C 388.912 1.68242 -0.841208 0
M  V30 4216 O 388.27 1.80157 0.203267 0
M  V30 4217 C 388.318 1.47417 -3.29091 0
M  V30 4218 O 387.422 2.5872 -3.2115 0
M  V30 4219 H 386.763 0.198856 -0.633524 0
M  V30 4220 H 389.293 -0.0119713 -2.04596 0
M  V30 4221 H 389.303 1.84468 -3.63917 0
M  V30 4222 H 387.978 0.781988 -4.08482 0
M  V30 4223 H 386.555 2.24231 -2.97951 0
M  V30 4224 N 388.74 1.54641 0.303973 0
M  V30 4225 C 389.986 1.74038 1.04109 0
M  V30 4226 C 390.319 0.523051 1.87024 0
M  V30 4227 O 389.594 -0.479874 1.88487 0
M  V30 4228 C 389.877 3.02761 1.94955 0
M  V30 4229 C 389.73 4.34787 1.1524 0
M  V30 4230 C 391.049 3.27336 2.94175 0
M  V30 4231 H 388.168 0.63323 0.377079 0
M  V30 4232 H 390.81 1.87354 0.316001 0
M  V30 4233 H 388.96 2.9154 2.56782 0
M  V30 4234 H 390.632 4.57922 0.557236 0
M  V30 4235 H 388.875 4.31407 0.455053 0
M  V30 4236 H 389.546 5.21116 1.8205 0
M  V30 4237 H 392.022 3.38148 2.42477 0
M  V30 4238 H 390.898 4.18726 3.54908 0
M  V30 4239 H 391.159 2.45491 3.67677 0
M  V30 4240 N 390.218 -0.567019 1.47046 0
M  V30 4241 C 391.467 -1.32091 1.5243 0
M  V30 4242 C 391.78 -1.94704 0.187021 0
M  V30 4243 O 392.986 -2.7124 0.118771 0
M  V30 4244 C 391.442 -2.39479 2.68659 0
M  V30 4245 C 391.05 -1.831 4.08874 0
M  V30 4246 C 392.794 -3.16111 2.83327 0
M  V30 4247 C 390.701 -2.8821 5.16419 0
M  V30 4248 H 389.631 -0.496629 0.56734 0
M  V30 4249 H 392.282 -0.603354 1.73297 0
M  V30 4250 H 390.664 -3.14105 2.41152 0
M  V30 4251 H 391.838 -1.14913 4.46242 0
M  V30 4252 H 390.153 -1.19085 3.99008 0
M  V30 4253 H 392.75 -3.94585 3.60842 0
M  V30 4254 H 393.093 -3.69686 1.91411 0
M  V30 4255 H 393.626 -2.48595 3.10556 0
M  V30 4256 H 390.365 -2.39504 6.10179 0
M  V30 4257 H 389.885 -3.54839 4.8358 0
M  V30 4258 H 391.564 -3.51881 5.42945 0
M  V30 4259 N 391.696 -1.35014 -0.812953 0
M  V30 4260 C 392.944 -1.27678 -1.56661 0
M  V30 4261 C 393.265 0.150359 -1.94419 0
M  V30 4262 O 392.535 1.08532 -1.63088 0
M  V30 4263 H 391.115 -0.469602 -0.580933 0
M  V30 4264 H 393.777 -1.69043 -0.970076 0
M  V30 4265 H 392.873 -1.88833 -2.48492 0
M  V30 4266 N 393.175 1.03435 -1.18907 0
M  V30 4267 C 394.424 1.76143 -0.982669 0
M  V30 4268 C 394.737 1.89416 0.487953 0
M  V30 4269 O 395.943 2.59041 0.813036 0
M  V30 4270 C 394.399 3.16722 -1.70924 0
M  V30 4271 C 394.007 3.11522 -3.21959 0
M  V30 4272 C 395.751 3.93764 -1.58588 0
M  V30 4273 C 393.658 4.46999 -3.87228 0
M  V30 4274 H 392.588 0.660292 -0.364047 0
M  V30 4275 H 395.239 1.158 -1.42347 0
M  V30 4276 H 393.621 3.775 -1.19623 0
M  V30 4277 H 394.795 2.60158 -3.80335 0
M  V30 4278 H 393.11 2.47978 -3.34508 0
M  V30 4279 H 395.707 4.93963 -2.04707 0
M  V30 4280 H 396.05 4.12794 -0.539142 0
M  V30 4281 H 396.583 3.39576 -2.07203 0
M  V30 4282 H 393.322 4.33174 -4.91976 0
M  V30 4283 H 392.842 4.98441 -3.33642 0
M  V30 4284 H 394.521 5.15898 -3.90459 0
M  V30 4285 N 394.653 0.992116 1.22453 0
M  V30 4286 C 395.616 0.546883 2.2258 0
M  V30 4287 C 396.616 -0.369829 1.56489 0
M  V30 4288 O 397.806 -0.161896 1.73446 0
M  V30 4289 C 394.938 -0.204659 3.40285 0
M  V30 4290 H 396.131 1.43234 2.63484 0
M  V30 4291 H 393.684 0.779239 1.3549 0
M  V30 4292 H 394.419 -1.10614 3.04853 0
M  V30 4293 H 394.204 0.45354 3.89468 0
M  V30 4294 H 395.694 -0.504358 4.14543 0
M  V30 4295 N 396.131 -1.37776 0.765217 0
M  V30 4296 C 397.094 -2.28686 0.153416 0
M  V30 4297 C 398.094 -1.47727 -0.635081 0
M  V30 4298 O 399.284 -1.68027 -0.459632 0
M  V30 4299 C 396.416 -3.31608 -0.790495 0
M  V30 4300 H 397.609 -2.84297 0.954723 0
M  V30 4301 H 395.162 -1.46932 0.53299 0
M  V30 4302 H 395.897 -2.81109 -1.61705 0
M  V30 4303 H 395.682 -3.9144 -0.227348 0
M  V30 4304 H 397.172 -3.99559 -1.21419 0
M  V30 4305 N 397.609 -0.515225 -1.4894 0
M  V30 4306 C 398.886 0.0879088 -1.95402 0
M  V30 4307 C 399.266 1.52745 -1.45712 0
M  V30 4308 O 398.614 2.18238 -0.677093 0
M  V30 4309 C 398.824 -0.0141055 -3.48997 0
M  V30 4310 C 400.172 0.152646 -4.24326 0
M  V30 4311 O 401.196 0.0604025 -3.56149 0
M  V30 4312 O 400.055 0.34384 -5.45417 0
M  V30 4313 H 397.149 0.0874636 -0.822362 0
M  V30 4314 H 399.695 -0.578775 -1.59525 0
M  V30 4315 H 398.467 -1.01745 -3.77841 0
M  V30 4316 H 398.09 0.692091 -3.9153 0
M  V30 4317 N 399.087 1.5561 -0.249682 0
M  V30 4318 C 400.317 2.03116 0.377803 0
M  V30 4319 C 400.725 1.12822 1.51881 0
M  V30 4320 O 400.068 0.13562 1.83199 0
M  V30 4321 C 400.13 3.46866 0.944693 0
M  V30 4322 C 399.794 4.56955 -0.0644259 0
M  V30 4323 C 400.791 5.12485 -0.874957 0
M  V30 4324 C 398.476 5.01936 -0.19132 0
M  V30 4325 C 400.47 6.11491 -1.79881 0
M  V30 4326 C 398.157 6.00773 -1.11868 0
M  V30 4327 C 399.155 6.5543 -1.92095 0
M  V30 4328 O 398.843 7.5234 -2.83267 0
M  V30 4329 H 398.575 0.669489 0.0935961 0
M  V30 4330 H 401.129 2.02004 -0.371966 0
M  V30 4331 H 399.359 3.45136 1.74407 0
M  V30 4332 H 401.048 3.77856 1.48255 0
M  V30 4333 H 401.814 4.78564 -0.787523 0
M  V30 4334 H 397.693 4.59055 0.423072 0
M  V30 4335 H 401.237 6.54078 -2.42543 0
M  V30 4336 H 397.134 6.34114 -1.20703 0
M  V30 4337 H 397.902 7.69966 -2.7766 0
M  V30 4338 N 400.565 -0.0233959 1.57583 0
M  V30 4339 C 401.513 -1.04063 2.08023 0
M  V30 4340 C 402.507 -1.37084 0.995204 0
M  V30 4341 O 403.713 -1.35923 1.18004 0
M  V30 4342 H 400.088 -0.353144 0.663922 0
M  V30 4343 H 402.059 -0.589453 2.9252 0
M  V30 4344 C 400.808 -2.33123 2.57971 0
M  V30 4345 H 400.131 -2.08577 3.4108 0
M  V30 4346 H 401.571 -3.02632 2.96967 0
M  V30 4347 C 400.03 -3.02483 1.48342 0
M  V30 4348 O 400.56 -3.92541 0.852898 0
M  V30 4349 N 398.766 -2.63909 1.21658 0
M  V30 4350 H 398.313 -1.90758 1.73116 0
M  V30 4351 H 398.271 -3.10633 0.485218 0
M  V30 4352 N 402.043 -1.548 -0.295768 0
M  V30 4353 C 403.271 -1.78327 -1.04914 0
M  V30 4354 C 403.686 -0.545316 -1.80753 0
M  V30 4355 O 403.043 0.485013 -1.75937 0
M  V30 4356 C 403.094 -2.99418 -2.02561 0
M  V30 4357 O 402.815 -4.18431 -1.29798 0
M  V30 4358 C 404.316 -3.35375 -2.89895 0
M  V30 4359 H 401.536 -0.594618 -0.310918 0
M  V30 4360 H 404.08 -2.01763 -0.333454 0
M  V30 4361 H 402.235 -2.78175 -2.69624 0
M  V30 4362 H 402.649 -4.86736 -1.95419 0
M  V30 4363 H 404.123 -4.23332 -3.54251 0
M  V30 4364 H 404.6 -2.53761 -3.58472 0
M  V30 4365 H 405.206 -3.58796 -2.28355 0
M  V30 4366 N 403.521 0.559213 -1.47345 0
M  V30 4367 C 404.798 1.31997 -1.44348 0
M  V30 4368 C 405.178 2.1064 -0.139358 0
M  V30 4369 O 404.526 2.1091 0.879153 0
M  V30 4370 C 404.736 2.22618 -2.68779 0
M  V30 4371 C 406.084 2.83701 -3.1591 0
M  V30 4372 O 407.108 2.32921 -2.69493 0
M  V30 4373 O 405.967 3.75993 -3.966 0
M  V30 4374 H 403.061 0.594251 -0.575147 0
M  V30 4375 H 405.607 0.578282 -1.59543 0
M  V30 4376 H 404.379 1.64093 -3.55231 0
M  V30 4377 H 404.002 3.04085 -2.5616 0
M  V30 4378 N 404.999 1.35443 0.805782 0
M  V30 4379 C 405.929 1.31095 1.93226 0
M  V30 4380 C 406.91 0.185244 1.69088 0
M  V30 4381 O 408.095 0.380332 1.90439 0
M  V30 4382 C 405.225 1.08299 3.29983 0
M  V30 4383 C 404.179 2.17519 3.68605 0
M  V30 4384 C 403.505 1.79887 5.03532 0
M  V30 4385 C 404.805 3.5949 3.78898 0
M  V30 4386 H 406.499 2.25352 1.97122 0
M  V30 4387 H 404.045 1.0848 0.946996 0
M  V30 4388 H 405.998 1.03897 4.08391 0
M  V30 4389 H 404.722 0.104885 3.26432 0
M  V30 4390 H 403.381 2.2102 2.92482 0
M  V30 4391 H 403.029 0.80693 4.96485 0
M  V30 4392 H 402.729 2.53001 5.30344 0
M  V30 4393 H 404.253 1.77011 5.84379 0
M  V30 4394 H 405.667 3.58307 4.47536 0
M  V30 4395 H 404.064 4.31371 4.1718 0
M  V30 4396 H 405.134 3.95584 2.80431 0
M  V30 4397 N 406.477 -1.02803 1.19454 0
M  V30 4398 C 407.723 -1.76598 1.0092 0
M  V30 4399 C 408.078 -1.86939 -0.455142 0
M  V30 4400 O 407.371 -1.37575 -1.33355 0
M  V30 4401 C 407.565 -3.18941 1.6128 0
M  V30 4402 C 407.394 -3.22476 3.13431 0
M  V30 4403 C 406.164 -3.30375 3.82336 0
M  V30 4404 C 408.362 -3.09451 4.10785 0
M  V30 4405 N 406.344 -3.23292 5.21877 0
M  V30 4406 C 407.715 -3.10012 5.36929 0
M  V30 4407 C 409.77 -2.93585 4.02135 0
M  V30 4408 C 408.473 -2.96334 6.55423 0
M  V30 4409 C 410.499 -2.81256 5.20239 0
M  V30 4410 C 409.861 -2.82472 6.45282 0
M  V30 4411 H 405.96 -0.657447 0.423424 0
M  V30 4412 H 408.544 -1.22369 1.5144 0
M  V30 4413 H 406.715 -3.71489 1.1336 0
M  V30 4414 H 408.447 -3.81102 1.36173 0
M  V30 4415 H 405.202 -3.3663 3.33132 0
M  V30 4416 H 405.626 -3.23156 5.94894 0
M  V30 4417 H 410.268 -2.91466 3.0628 0
M  V30 4418 H 407.986 -2.97203 7.51463 0
M  V30 4419 H 411.572 -2.70014 5.15348 0
M  V30 4420 H 410.452 -2.73036 7.35133 0
M  V30 4421 N 407.956 -0.998596 -1.21925 0
M  V30 4422 C 408.903 -0.553621 -2.24062 0
M  V30 4423 C 409.873 0.416999 -1.6078 0
M  V30 4424 O 411.058 0.320482 -1.88089 0
M  V30 4425 C 408.198 0.119959 -3.44891 0
M  V30 4426 C 407.311 -0.893077 -4.22668 0
M  V30 4427 C 406.446 -0.192424 -5.30851 0
M  V30 4428 C 405.485 -1.19344 -6.00353 0
M  V30 4429 N 404.622 -0.520707 -7.00166 0
M  V30 4430 H 409.462 -1.4293 -2.61486 0
M  V30 4431 H 406.999 -0.715838 -1.28507 0
M  V30 4432 H 408.957 0.527459 -4.13852 0
M  V30 4433 H 407.587 0.959389 -3.08214 0
M  V30 4434 H 406.639 -1.41886 -3.52948 0
M  V30 4435 H 407.951 -1.65512 -4.70539 0
M  V30 4436 H 407.105 0.271515 -6.06092 0
M  V30 4437 H 405.844 0.602075 -4.83969 0
M  V30 4438 H 404.849 -1.66795 -5.23889 0
M  V30 4439 H 406.074 -1.98891 -6.49322 0
M  V30 4440 H 404.02 0.254252 -6.55507 0
M  V30 4441 H 403.937 -1.2211 -7.46073 0
M  V30 4442 H 405.205 -0.0797596 -7.79459 0
M  V30 4443 N 409.434 1.37368 -0.772513 0
M  V30 4444 C 410.711 1.93839 -0.26188 0
M  V30 4445 C 411.091 1.7061 1.24319 0
M  V30 4446 O 410.439 1.05534 2.02669 0
M  V30 4447 C 410.649 3.43154 -0.636102 0
M  V30 4448 C 411.997 4.20249 -0.606324 0
M  V30 4449 O 413.021 3.5152 -0.575538 0
M  V30 4450 O 411.88 5.42809 -0.634086 0
M  V30 4451 H 408.974 0.82478 -0.0605555 0
M  V30 4452 H 411.52 1.4665 -0.853917 0
M  V30 4453 H 410.292 3.53647 -1.6748 0
M  V30 4454 H 409.915 3.97596 -0.0170516 0
M  V30 4455 N 410.912 0.523116 1.48665 0
M  V30 4456 C 411.844 -0.280421 2.27478 0
M  V30 4457 C 412.857 -0.910694 1.34945 0
M  V30 4458 O 414.046 -0.790295 1.60052 0
M  V30 4459 C 411.146 -1.41171 3.08097 0
M  V30 4460 C 410.319 -0.884642 4.28361 0
M  V30 4461 C 409.378 -1.89622 4.90846 0
M  V30 4462 O 408.404 -1.4559 5.50265 0
M  V30 4463 N 409.606 -3.22801 4.82472 0
M  V30 4464 H 412.371 0.395481 2.97079 0
M  V30 4465 H 409.932 0.357018 1.57915 0
M  V30 4466 H 411.924 -2.08645 3.4677 0
M  V30 4467 H 410.494 -1.99139 2.40961 0
M  V30 4468 H 409.714 -0.0341177 3.94185 0
M  V30 4469 H 411.002 -0.511268 5.06225 0
M  V30 4470 H 410.4 -3.61246 4.35336 0
M  V30 4471 H 408.957 -3.85927 5.25265 0
M  V30 4472 N 412.39 -1.55475 0.257931 0
M  V30 4473 C 413.353 -2.20551 -0.623706 0
M  V30 4474 C 414.353 -1.17809 -1.09443 0
M  V30 4475 O 415.543 -1.42823 -0.997362 0
M  V30 4476 C 412.675 -2.85784 -1.8585 0
M  V30 4477 H 413.868 -2.99848 -0.0557743 0
M  V30 4478 H 411.421 -1.56298 0.0084422 0
M  V30 4479 H 412.156 -2.10453 -2.46739 0
M  V30 4480 H 411.941 -3.61057 -1.52907 0
M  V30 4481 H 413.431 -3.35553 -2.48584 0
M  V30 4482 N 413.868 0.0150385 -1.57593 0
M  V30 4483 C 414.798 1.01047 -2.10503 0
M  V30 4484 C 415.779 1.36816 -1.01071 0
M  V30 4485 O 416.964 1.45455 -1.28672 0
M  V30 4486 C 414.094 2.30708 -2.59598 0
M  V30 4487 C 413.048 2.09142 -3.73421 0
M  V30 4488 C 412.374 3.44685 -4.08774 0
M  V30 4489 C 413.674 1.46619 -5.01298 0
M  V30 4490 H 415.368 0.569978 -2.93925 0
M  V30 4491 H 412.914 0.272724 -1.41394 0
M  V30 4492 H 414.867 3.00687 -2.95238 0
M  V30 4493 H 413.591 2.76843 -1.73279 0
M  V30 4494 H 412.25 1.41592 -3.38153 0
M  V30 4495 H 411.898 3.88495 -3.195 0
M  V30 4496 H 411.598 3.31077 -4.8545 0
M  V30 4497 H 413.122 4.16004 -4.4696 0
M  V30 4498 H 414.536 2.06535 -5.34805 0
M  V30 4499 H 412.933 1.43544 -5.82679 0
M  V30 4500 H 414.003 0.433611 -4.82957 0
M  V30 4501 N 415.346 1.54954 0.287554 0
M  V30 4502 C 416.592 1.75132 1.02257 0
M  V30 4503 C 416.925 0.542858 1.86458 0
M  V30 4504 O 416.2 -0.459856 1.88986 0
M  V30 4505 C 416.483 3.04812 1.91733 0
M  V30 4506 C 416.336 4.35985 1.10622 0
M  V30 4507 C 417.655 3.30438 2.90687 0
M  V30 4508 H 414.774 0.637194 0.370341 0
M  V30 4509 H 417.416 1.87678 0.296111 0
M  V30 4510 H 415.566 2.94247 2.53675 0
M  V30 4511 H 417.238 4.58487 0.508636 0
M  V30 4512 H 415.481 4.31865 0.409271 0
M  V30 4513 H 416.152 5.23017 1.76513 0
M  V30 4514 H 418.628 3.40701 2.38877 0
M  V30 4515 H 417.504 4.22467 3.50447 0
M  V30 4516 H 417.765 2.49377 3.65053 0
M  V30 4517 N 416.824 -0.551391 1.4764 0
M  V30 4518 C 417.734 -1.68525 1.63207 0
M  V30 4519 C 418.75 -1.6621 0.514815 0
M  V30 4520 O 419.926 -1.85551 0.783113 0
M  V30 4521 C 416.991 -3.05025 1.64805 0
M  V30 4522 C 416.052 -3.18362 2.88 0
M  V30 4523 C 415.285 -4.4835 2.89513 0
M  V30 4524 O 415.508 -5.34163 2.00065 0
M  V30 4525 O 414.442 -4.65602 3.81443 0
M  V30 4526 H 418.268 -1.58333 2.59161 0
M  V30 4527 H 415.853 -0.722063 1.30792 0
M  V30 4528 H 417.735 -3.86245 1.68502 0
M  V30 4529 H 416.41 -3.15587 0.720197 0
M  V30 4530 H 415.317 -2.36518 2.89845 0
M  V30 4531 H 416.65 -3.12707 3.80099 0
M  V30 4532 N 418.302 -1.35869 -0.798587 0
M  V30 4533 C 419.232 -1.32118 -1.92528 0
M  V30 4534 C 420.213 -0.194209 -1.68988 0
M  V30 4535 O 421.398 -0.390426 -1.90235 0
M  V30 4536 C 418.528 -1.10047 -3.29404 0
M  V30 4537 C 417.482 -2.19471 -3.67446 0
M  V30 4538 C 416.808 -1.82555 -5.02571 0
M  V30 4539 C 418.108 -3.61495 -3.76987 0
M  V30 4540 H 419.802 -2.26394 -1.95924 0
M  V30 4541 H 417.348 -1.08981 -0.94123 0
M  V30 4542 H 419.301 -1.06061 -4.07835 0
M  V30 4543 H 418.025 -0.122195 -3.26371 0
M  V30 4544 H 416.684 -2.22568 -2.91306 0
M  V30 4545 H 416.332 -0.833249 -4.9605 0
M  V30 4546 H 416.032 -2.5581 -5.28995 0
M  V30 4547 H 417.556 -1.80108 -5.83432 0
M  V30 4548 H 418.97 -3.60676 -4.4563 0
M  V30 4549 H 417.367 -4.33577 -4.14887 0
M  V30 4550 H 418.437 -3.97065 -2.78329 0
M  V30 4551 N 419.78 1.02168 -1.19998 0
M  V30 4552 C 420.728 2.12717 -0.940967 0
M  V30 4553 C 421.722 1.69069 0.105841 0
M  V30 4554 O 422.928 1.79946 -0.0440583 0
M  V30 4555 H 419.303 0.695108 -0.28693 0
M  V30 4556 H 421.274 2.3175 -1.87975 0
M  V30 4557 C 420.023 3.44027 -0.504049 0
M  V30 4558 H 419.346 3.78036 -1.30112 0
M  V30 4559 H 420.786 4.22452 -0.361991 0
M  V30 4560 C 419.245 3.27678 0.782878 0
M  V30 4561 O 419.775 3.56949 1.84256 0
M  V30 4562 N 417.981 2.80943 0.742921 0
M  V30 4563 H 417.528 2.57322 -0.119687 0
M  V30 4564 H 417.486 2.70385 1.60435 0
M  V30 4565 N 421.258 1.00505 1.21394 0
M  V30 4566 C 422.205 0.565496 2.23765 0
M  V30 4567 C 423.175 -0.408466 1.60999 0
M  V30 4568 O 424.36 -0.310503 1.88257 0
M  V30 4569 C 421.5 -0.101667 3.4495 0
M  V30 4570 C 420.613 0.915479 4.22188 0
M  V30 4571 C 419.748 0.220574 5.30742 0
M  V30 4572 C 418.787 1.22527 5.99711 0
M  V30 4573 N 417.924 0.557831 6.9988 0
M  V30 4574 H 422.764 1.44314 2.60725 0
M  V30 4575 H 420.301 0.722643 1.28126 0
M  V30 4576 H 422.259 -0.505504 4.14126 0
M  V30 4577 H 420.889 -0.94303 3.08718 0
M  V30 4578 H 419.941 1.43756 3.52191 0
M  V30 4579 H 421.253 1.68005 4.69655 0
M  V30 4580 H 420.407 -0.239368 6.06228 0
M  V30 4581 H 419.146 -0.576401 4.84282 0
M  V30 4582 H 418.151 1.69571 5.22997 0
M  V30 4583 H 419.376 2.02332 6.48258 0
M  V30 4584 H 417.322 -0.219486 6.55633 0
M  V30 4585 H 417.239 1.26065 7.45415 0
M  V30 4586 H 418.507 0.121095 7.79406 0
M  V30 4587 N 422.737 -1.36956 0.779787 0
M  V30 4588 C 423.7 -2.2851 0.177662 0
M  V30 4589 C 424.7 -1.48393 -0.619377 0
M  V30 4590 O 425.89 -1.68505 -0.441785 0
M  V30 4591 C 423.022 -3.32428 -0.755279 0
M  V30 4592 H 424.215 -2.83269 0.984823 0
M  V30 4593 H 421.768 -1.46358 0.548544 0
M  V30 4594 H 422.503 -2.82808 -1.58714 0
M  V30 4595 H 422.288 -3.91659 -0.185817 0
M  V30 4596 H 423.778 -4.00824 -1.17174 0
M  V30 4597 N 424.215 -0.530993 -1.48385 0
M  V30 4598 C 425.461 0.00274135 -2.028 0
M  V30 4599 C 425.794 1.33838 -1.40716 0
M  V30 4600 O 425.069 1.86465 -0.553277 0
M  V30 4601 C 425.352 0.123676 -3.59888 0
M  V30 4602 C 425.205 -1.2372 -4.3245 0
M  V30 4603 C 426.524 0.849967 -4.31814 0
M  V30 4604 H 423.643 -0.000477758 -0.737 0
M  V30 4605 H 426.285 -0.688217 -1.77098 0
M  V30 4606 H 424.435 0.712157 -3.81917 0
M  V30 4607 H 426.107 -1.86687 -4.21836 0
M  V30 4608 H 424.35 -1.81882 -3.93829 0
M  V30 4609 H 425.021 -1.10557 -5.40815 0
M  V30 4610 H 427.497 0.350572 -4.14621 0
M  V30 4611 H 426.373 0.903486 -5.41413 0
M  V30 4612 H 426.634 1.90047 -3.99167 0
M  V30 4613 N 425.693 1.55336 -0.266172 0
M  V30 4614 C 426.623 2.25146 0.618981 0
M  V30 4615 C 427.604 1.23845 1.16604 0
M  V30 4616 O 428.789 1.52544 1.20183 0
M  V30 4617 C 425.919 2.96572 1.80728 0
M  V30 4618 C 424.873 4.04726 1.39215 0
M  V30 4619 C 424.199 4.63678 2.66283 0
M  V30 4620 C 425.499 5.19407 0.548942 0
M  V30 4621 H 427.193 2.99377 0.0368116 0
M  V30 4622 H 424.739 1.43991 0.0162651 0
M  V30 4623 H 426.692 3.44116 2.43232 0
M  V30 4624 H 425.416 2.19861 2.41514 0
M  V30 4625 H 424.075 3.57979 0.790351 0
M  V30 4626 H 423.723 3.83646 3.25308 0
M  V30 4627 H 423.423 5.367 2.39222 0
M  V30 4628 H 424.947 5.13967 3.29651 0
M  V30 4629 H 426.361 5.63059 1.07876 0
M  V30 4630 H 424.758 5.98936 0.373593 0
M  V30 4631 H 425.828 4.8295 -0.434394 0
M  V30 4632 N 427.171 -0.0066808 1.57599 0
M  V30 4633 C 428.121 -1.0086 2.04478 0
M  V30 4634 C 429.105 -1.30714 0.938231 0
M  V30 4635 O 430.297 -1.29924 1.20203 0
M  V30 4636 C 427.426 -2.30273 2.54615 0
M  V30 4637 C 426.512 -2.03413 3.72134 0
M  V30 4638 N 426.903 -1.46688 4.84062 0
M  V30 4639 C 425.201 -2.33589 3.79937 0
M  V30 4640 C 425.902 -1.36146 5.65543 0
M  V30 4641 N 424.878 -1.84477 5.1134 0
M  V30 4642 H 428.68 -0.564402 2.8843 0
M  V30 4643 H 426.194 -0.212521 1.61003 0
M  V30 4644 H 428.191 -3.02885 2.86472 0
M  V30 4645 H 426.851 -2.75352 1.72079 0
M  V30 4646 H 427.862 -1.14658 5.05049 0
M  V30 4647 H 424.539 -2.81589 3.08243 0
M  V30 4648 H 425.929 -0.925873 6.6549 0
M  V30 4649 N 428.649 -1.55105 -0.279332 0
M  V30 4650 C 429.874 -1.7976 -1.03446 0
M  V30 4651 C 430.299 -0.565952 -1.79384 0
M  V30 4652 O 429.657 0.484259 -1.74713 0
M  V30 4653 C 429.705 -3.0179 -1.97371 0
M  V30 4654 O 428.809 -2.76432 -3.06038 0
M  V30 4655 H 428.15 -0.594334 -0.29608 0
M  V30 4656 H 430.68 -2.02235 -0.310165 0
M  V30 4657 H 430.69 -3.30351 -2.39441 0
M  V30 4658 H 429.365 -3.91085 -1.4151 0
M  V30 4659 H 427.942 -2.58949 -2.68328 0
M  V30 4660 N 430.127 0.543554 -1.4793 0
M  V30 4661 C 431.357 1.32324 -1.58663 0
M  V30 4662 C 431.765 1.8766 -0.240896 0
M  V30 4663 O 431.108 1.66411 0.778011 0
M  V30 4664 C 431.17 2.52094 -2.56299 0
M  V30 4665 C 430.834 2.17944 -4.01683 0
M  V30 4666 C 431.831 1.74422 -4.89768 0
M  V30 4667 C 429.516 2.28884 -4.47121 0
M  V30 4668 C 431.51 1.42287 -6.21316 0
M  V30 4669 C 429.197 1.96361 -5.78693 0
M  V30 4670 C 430.195 1.53132 -6.65612 0
M  V30 4671 O 429.883 1.21029 -7.94737 0
M  V30 4672 H 429.615 0.409174 -0.538101 0
M  V30 4673 H 432.169 0.663887 -1.94375 0
M  V30 4674 H 430.399 3.20965 -2.15681 0
M  V30 4675 H 432.088 3.14165 -2.57012 0
M  V30 4676 H 432.854 1.65452 -4.55907 0
M  V30 4677 H 428.733 2.61488 -3.79664 0
M  V30 4678 H 432.277 1.08472 -6.89115 0
M  V30 4679 H 428.174 2.04967 -6.12094 0
M  V30 4680 H 428.942 1.34543 -8.07366 0
M  V30 4681 N 431.605 1.3629 0.791371 0
M  V30 4682 C 432.552 1.30458 1.90393 0
M  V30 4683 C 433.522 0.173632 1.6519 0
M  V30 4684 O 434.707 0.35983 1.87376 0
M  V30 4685 C 431.847 1.09777 3.27174 0
M  V30 4686 C 430.96 2.31929 3.64462 0
M  V30 4687 C 430.095 2.04276 4.90352 0
M  V30 4688 C 429.134 3.224 5.20312 0
M  V30 4689 N 428.271 2.94424 6.37385 0
M  V30 4690 H 433.111 2.25589 1.94714 0
M  V30 4691 H 430.648 1.12122 0.952216 0
M  V30 4692 H 432.606 0.958133 4.06049 0
M  V30 4693 H 431.236 0.183014 3.22281 0
M  V30 4694 H 430.288 2.56703 2.80727 0
M  V30 4695 H 431.6 3.20085 3.82553 0
M  V30 4696 H 430.754 1.87231 5.77087 0
M  V30 4697 H 429.493 1.13428 4.74326 0
M  V30 4698 H 428.498 3.40005 4.32061 0
M  V30 4699 H 429.723 4.14071 5.38258 0
M  V30 4700 H 427.669 2.06185 6.22755 0
M  V30 4701 H 427.586 3.76118 6.55798 0
M  V30 4702 H 428.854 2.80953 7.27108 0
M  V30 4703 N 433.083 -1.0153 1.20538 0
M  V30 4704 C 434.03 -2.10098 0.955383 0
M  V30 4705 C 435 -1.65702 -0.114878 0
M  V30 4706 O 436.185 -1.90776 0.0301118 0
M  V30 4707 C 433.325 -3.41236 0.514969 0
M  V30 4708 C 432.438 -3.99102 1.65353 0
M  V30 4709 C 431.573 -5.18306 1.16329 0
M  V30 4710 C 430.612 -5.68258 2.27485 0
M  V30 4711 N 429.749 -6.78722 1.7967 0
M  V30 4712 H 434.589 -2.30818 1.88486 0
M  V30 4713 H 432.126 -1.13189 0.939499 0
M  V30 4714 H 434.084 -4.16504 0.240935 0
M  V30 4715 H 432.714 -3.20585 -0.377512 0
M  V30 4716 H 431.766 -3.20918 2.04245 0
M  V30 4717 H 433.078 -4.32177 2.49047 0
M  V30 4718 H 432.232 -6.00782 0.845302 0
M  V30 4719 H 430.971 -4.86799 0.296254 0
M  V30 4720 H 429.976 -4.84385 2.60099 0
M  V30 4721 H 431.201 -6.01798 3.14667 0
M  V30 4722 H 429.147 -6.49042 0.95295 0
M  V30 4723 H 429.064 -7.10996 2.56944 0
M  V30 4724 H 430.332 -7.64759 1.50875 0
M  V30 4725 N 434.561 -1.01147 -1.20859 0
M  V30 4726 C 435.493 -0.535546 -2.22855 0
M  V30 4727 C 436.506 0.379323 -1.58319 0
M  V30 4728 O 437.695 0.178489 -1.77605 0
M  V30 4729 C 434.795 0.240962 -3.38042 0
M  V30 4730 C 433.968 -0.674562 -4.32167 0
M  V30 4731 C 433.027 0.053467 -5.26173 0
M  V30 4732 O 432.053 -0.567339 -5.66366 0
M  V30 4733 N 433.255 1.32997 -5.65059 0
M  V30 4734 H 436.02 -1.41268 -2.64317 0
M  V30 4735 H 433.581 -0.888386 -1.35349 0
M  V30 4736 H 435.573 0.737115 -3.97931 0
M  V30 4737 H 434.143 1.01935 -2.95513 0
M  V30 4738 H 433.363 -1.35111 -3.70322 0
M  V30 4739 H 434.651 -1.2974 -4.91981 0
M  V30 4740 H 434.049 1.85536 -5.34409 0
M  V30 4741 H 432.606 1.77095 -6.2728 0
M  V30 4742 N 436.039 1.36541 -0.78704 0
M  V30 4743 C 437.287 1.98911 -0.357633 0
M  V30 4744 C 437.608 1.62778 1.07371 0
M  V30 4745 O 436.878 0.900612 1.73971 0
M  V30 4746 H 435.458 0.735734 -0.129246 0
M  V30 4747 H 438.12 1.66776 -1.00855 0
M  V30 4748 H 437.216 3.08874 -0.447549 0
M  V30 4749 N 437.518 0.538854 1.48102 0
M  V30 4750 C 438.764 0.00801365 2.02798 0
M  V30 4751 C 439.097 -1.3309 1.41424 0
M  V30 4752 O 438.372 -1.86169 0.563158 0
M  V30 4753 C 438.655 -0.104589 3.59948 0
M  V30 4754 C 438.508 1.26012 4.31788 0
M  V30 4755 C 439.827 -0.827055 4.32259 0
M  V30 4756 H 436.946 0.00438624 0.736987 0
M  V30 4757 H 439.588 0.6976 1.7673 0
M  V30 4758 H 437.738 -0.691893 3.82289 0
M  V30 4759 H 439.41 1.88922 4.2084 0
M  V30 4760 H 437.653 1.83968 3.92859 0
M  V30 4761 H 438.324 1.13424 5.40221 0
M  V30 4762 H 440.8 -0.328578 4.14801 0
M  V30 4763 H 439.676 -0.87476 5.41885 0
M  V30 4764 H 439.937 -1.87927 4.0017 0
M  V30 4765 N 438.996 -1.55193 0.274407 0
M  V30 4766 C 440.221 -2.04446 -0.348824 0
M  V30 4767 C 440.646 -1.15149 -1.48735 0
M  V30 4768 O 440.004 -0.149952 -1.80679 0
M  V30 4769 C 440.052 -3.51431 -0.808009 0
M  V30 4770 O 439.156 -3.65225 -1.91531 0
M  V30 4771 H 438.497 -0.66006 -0.0722276 0
M  V30 4772 H 441.027 -2.00481 0.408498 0
M  V30 4773 H 441.037 -3.92781 -1.10395 0
M  V30 4774 H 439.712 -4.15892 0.0249865 0
M  V30 4775 H 438.289 -3.35778 -1.62196 0
M  V30 4776 N 440.474 -0.00167713 -1.576 0
M  V30 4777 C 441.723 0.682021 -1.89819 0
M  V30 4778 C 442.036 1.74844 -0.876871 0
M  V30 4779 O 443.242 2.48688 -1.08934 0
M  V30 4780 C 441.698 1.26425 -3.36964 0
M  V30 4781 C 441.306 0.232568 -4.47396 0
M  V30 4782 C 443.05 1.92604 -3.78291 0
M  V30 4783 C 440.957 0.824882 -5.85619 0
M  V30 4784 H 439.887 0.258499 -0.708304 0
M  V30 4785 H 442.538 -0.0624957 -1.83394 0
M  V30 4786 H 440.92 2.05949 -3.38232 0
M  V30 4787 H 442.094 -0.5382 -4.57646 0
M  V30 4788 H 440.409 -0.32888 -4.15099 0
M  V30 4789 H 443.006 2.37827 -4.78897 0
M  V30 4790 H 443.349 2.75732 -3.11894 0
M  V30 4791 H 443.882 1.19812 -3.79328 0
M  V30 4792 H 440.621 0.0323542 -6.55492 0
M  V30 4793 H 440.141 1.56477 -5.79029 0
M  V30 4794 H 441.82 1.32301 -6.33329 0
M  V30 4795 N 441.952 1.55251 0.271103 0
M  V30 4796 C 443.198 1.76207 1.00394 0
M  V30 4797 C 443.531 0.562604 1.85872 0
M  V30 4798 O 442.806 -0.439785 1.89463 0
M  V30 4799 C 443.089 3.06828 1.8849 0
M  V30 4800 C 442.942 4.37134 1.05992 0
M  V30 4801 C 444.261 3.33503 2.87165 0
M  V30 4802 H 441.38 0.641086 0.363562 0
M  V30 4803 H 444.022 1.87982 0.276189 0
M  V30 4804 H 442.172 2.96921 2.5054 0
M  V30 4805 H 443.844 4.59001 0.459978 0
M  V30 4806 H 442.087 4.32275 0.363443 0
M  V30 4807 H 442.758 5.2486 1.70955 0
M  V30 4808 H 445.234 3.43215 2.3525 0
M  V30 4809 H 444.11 4.2616 3.45946 0
M  V30 4810 H 444.371 2.53235 3.62387 0
M  V30 4811 N 443.43 -0.535701 1.48216 0
M  V30 4812 C 444.707 -1.29683 1.46429 0
M  V30 4813 C 445.087 -2.10391 0.172852 0
M  V30 4814 O 444.435 -2.12282 -0.845488 0
M  V30 4815 C 444.645 -2.18313 2.72287 0
M  V30 4816 C 445.993 -2.78639 3.20383 0
M  V30 4817 O 447.017 -2.28604 2.73164 0
M  V30 4818 O 445.876 -3.69636 4.02531 0
M  V30 4819 H 442.97 -0.585026 0.584529 0
M  V30 4820 H 445.516 -0.552827 1.60443 0
M  V30 4821 H 444.288 -1.58421 3.57797 0
M  V30 4822 H 443.911 -2.99971 2.60966 0
M  V30 4823 N 444.908 -1.36708 -0.784132 0
M  V30 4824 C 445.858 -1.2799 -1.88686 0
M  V30 4825 C 446.842 -0.170282 -1.59996 0
M  V30 4826 O 448.034 -0.403571 -1.72338 0
M  V30 4827 C 445.163 -1.07674 -3.25977 0
M  V30 4828 C 444.249 -2.23127 -3.60659 0
M  V30 4829 N 444.64 -3.48467 -3.66612 0
M  V30 4830 C 442.938 -2.15009 -3.90752 0
M  V30 4831 C 443.639 -4.24525 -3.97685 0
M  V30 4832 N 442.615 -3.53524 -4.12943 0
M  V30 4833 H 446.417 -2.22927 -1.91522 0
M  V30 4834 H 443.931 -1.29503 -0.979933 0
M  V30 4835 H 445.928 -0.995151 -4.04849 0
M  V30 4836 H 444.588 -0.13643 -3.24413 0
M  V30 4837 H 445.599 -3.82534 -3.49125 0
M  V30 4838 H 442.276 -1.28963 -3.97083 0
M  V30 4839 H 443.666 -5.32944 -4.0917 0
M  V30 4840 N 446.386 1.0089 -1.21074 0
M  V30 4841 C 447.336 2.0799 -0.934034 0
M  V30 4842 C 448.32 1.60529 0.10919 0
M  V30 4843 O 449.512 1.76722 -0.0992198 0
M  V30 4844 C 446.641 3.39693 -0.496334 0
M  V30 4845 C 445.727 3.93833 -1.57341 0
M  V30 4846 N 446.118 4.21388 -2.7976 0
M  V30 4847 C 444.416 4.22067 -1.44137 0
M  V30 4848 C 445.117 4.65156 -3.49292 0
M  V30 4849 N 444.093 4.67895 -2.76722 0
M  V30 4850 H 447.895 2.27213 -1.86417 0
M  V30 4851 H 445.409 1.18927 -1.10589 0
M  V30 4852 H 447.406 4.15962 -0.279471 0
M  V30 4853 H 446.066 3.21879 0.427084 0
M  V30 4854 H 447.077 4.10061 -3.1634 0
M  V30 4855 H 443.754 4.1341 -0.582947 0
M  V30 4856 H 445.144 4.95231 -4.54088 0
M  V30 4857 N 447.864 1.01787 1.20321 0
M  V30 4858 C 449.092 0.727194 1.937 0
M  V30 4859 C 449.507 -0.712305 1.74848 0
M  V30 4860 O 448.864 -1.48327 1.06327 0
M  V30 4861 C 448.915 1.05497 3.45764 0
M  V30 4862 O 448.636 2.43794 3.64 0
M  V30 4863 C 450.137 0.785534 4.36285 0
M  V30 4864 H 447.357 0.266939 0.615617 0
M  V30 4865 H 449.901 1.35939 1.52777 0
M  V30 4866 H 448.056 0.468158 3.84561 0
M  V30 4867 H 448.47 2.55656 4.57974 0
M  V30 4868 H 449.944 1.06495 5.4163 0
M  V30 4869 H 450.421 -0.280273 4.38305 0
M  V30 4870 H 451.027 1.35456 4.03152 0
M  V30 4871 N 449.342 -1.36122 0.79427 0
M  V30 4872 C 450.305 -2.28309 0.201889 0
M  V30 4873 C 451.305 -1.49041 -0.603603 0
M  V30 4874 O 452.495 -1.68964 -0.423888 0
M  V30 4875 C 449.627 -3.3321 -0.719978 0
M  V30 4876 H 450.82 -2.82208 1.01481 0
M  V30 4877 H 448.373 -1.45768 0.564037 0
M  V30 4878 H 449.108 -2.84475 -1.55706 0
M  V30 4879 H 448.893 -3.91835 -0.144266 0
M  V30 4880 H 450.383 -4.02044 -1.12916 0
M  V30 4881 N 450.82 -0.546701 -1.47814 0
M  V30 4882 C 451.783 0.196287 -2.28358 0
M  V30 4883 C 452.783 0.852437 -1.36346 0
M  V30 4884 O 453.973 0.709913 -1.59078 0
M  V30 4885 C 451.105 1.28579 -3.15722 0
M  V30 4886 H 452.298 -0.511086 -2.95513 0
M  V30 4887 H 449.851 -0.303248 -1.5333 0
M  V30 4888 H 450.586 2.0259 -2.53235 0
M  V30 4889 H 450.371 0.820229 -3.83425 0
M  V30 4890 H 451.861 1.80793 -3.76435 0
M  V30 4891 N 452.299 1.55045 -0.282633 0
M  V30 4892 C 453.524 2.04628 0.337977 0
M  V30 4893 C 453.949 1.15937 1.48123 0
M  V30 4894 O 453.307 0.159532 1.80597 0
M  V30 4895 C 453.355 3.51854 0.78936 0
M  V30 4896 O 452.459 3.66236 1.89592 0
M  V30 4897 H 451.8 0.660434 0.0687261 0
M  V30 4898 H 454.33 2.00261 -0.419124 0
M  V30 4899 H 454.34 3.93361 1.08311 0
M  V30 4900 H 453.015 4.15873 -0.0470419 0
M  V30 4901 H 451.592 3.36633 1.60413 0
M  V30 4902 N 453.777 0.010035 1.57597 0
M  V30 4903 C 454.709 -1.00649 2.05918 0
M  V30 4904 C 455.722 -1.30077 0.978964 0
M  V30 4905 O 456.911 -1.26878 1.25556 0
M  V30 4906 C 454.011 -2.33876 2.45265 0
M  V30 4907 C 453.184 -2.23242 3.7614 0
M  V30 4908 C 452.243 -3.39242 4.02245 0
M  V30 4909 O 451.269 -3.1698 4.72771 0
M  V30 4910 N 452.471 -4.6242 3.50924 0
M  V30 4911 H 455.236 -0.594333 2.93748 0
M  V30 4912 H 452.797 -0.17714 1.60928 0
M  V30 4913 H 454.789 -3.1027 2.59836 0
M  V30 4914 H 453.359 -2.66799 1.62902 0
M  V30 4915 H 452.579 -1.31696 3.71551 0
M  V30 4916 H 453.867 -2.13321 4.61922 0
M  V30 4917 H 453.265 -4.83404 2.93832 0
M  V30 4918 H 451.822 -5.36046 3.70807 0
M  V30 4919 N 455.255 -1.55392 -0.262866 0
M  V30 4920 C 456.502 -1.76476 -0.993109 0
M  V30 4921 C 456.83 -0.571479 -1.85915 0
M  V30 4922 O 456.085 0.445733 -1.90556 0
M  V30 4923 C 456.384 -3.02889 -1.89718 0
M  V30 4924 C 456.05 -4.34974 -1.18781 0
M  V30 4925 C 454.712 -4.7087 -0.991699 0
M  V30 4926 C 457.064 -5.16695 -0.683798 0
M  V30 4927 C 454.392 -5.86036 -0.279024 0
M  V30 4928 C 456.744 -6.32598 0.0153327 0
M  V30 4929 C 455.408 -6.67127 0.223062 0
M  V30 4930 H 454.678 -0.64577 -0.363404 0
M  V30 4931 H 457.325 -1.89664 -0.264525 0
M  V30 4932 H 455.63 -2.84644 -2.6923 0
M  V30 4933 H 457.327 -3.16399 -2.46359 0
M  V30 4934 H 453.917 -4.06765 -1.35058 0
M  V30 4935 H 458.101 -4.8943 -0.8229 0
M  V30 4936 H 453.357 -6.11306 -0.107456 0
M  V30 4937 H 457.531 -6.95171 0.413584 0
M  V30 4938 H 455.158 -7.56216 0.777265 0
M  V30 4939 N 456.733 0.527833 -1.48498 0
M  V30 4940 C 457.68 1.6322 -1.6318 0
M  V30 4941 C 458.65 1.59199 -0.473815 0
M  V30 4942 O 459.835 1.77591 -0.697563 0
M  V30 4943 C 456.975 3.01474 -1.67951 0
M  V30 4944 C 456.088 3.15713 -2.94871 0
M  V30 4945 C 455.223 4.44539 -2.90789 0
M  V30 4946 C 454.262 4.52315 -4.12404 0
M  V30 4947 N 453.399 5.72533 -4.06387 0
M  V30 4948 H 458.239 1.50011 -2.57489 0
M  V30 4949 H 455.776 0.730298 -1.27691 0
M  V30 4950 H 457.734 3.81572 -1.68698 0
M  V30 4951 H 456.364 3.1345 -0.771306 0
M  V30 4952 H 455.416 2.28854 -3.03859 0
M  V30 4953 H 456.728 3.1732 -3.8485 0
M  V30 4954 H 455.882 5.3293 -2.89949 0
M  V30 4955 H 454.621 4.45457 -1.98542 0
M  V30 4956 H 453.626 3.62331 -4.13517 0
M  V30 4957 H 454.851 4.53134 -5.05812 0
M  V30 4958 H 452.797 5.74344 -3.16962 0
M  V30 4959 H 452.714 5.75643 -4.90073 0
M  V30 4960 H 453.982 6.63204 -4.0961 0
M  V30 4961 N 458.211 1.37122 0.776871 0
M  V30 4962 C 459.627 1.1781 1.07671 0
M  V30 4963 C 459.827 0.0107454 2.01497 0
M  V30 4964 O 458.883 -0.650756 2.4397 0
M  V30 4965 C 460.196 2.49451 1.67913 0
M  V30 4966 C 461.744 2.55927 1.80195 0
M  V30 4967 C 462.219 3.87686 2.43851 0
M  V30 4968 N 463.71 3.891 2.51307 0
M  V30 4969 C 464.445 4.87797 3.014 0
M  V30 4970 N 463.941 5.96888 3.51705 0
M  V30 4971 N 465.734 4.75205 3.00227 0
M  V30 4972 H 457.885 2.11843 0.153778 0
M  V30 4973 H 460.148 0.938927 0.130844 0
M  V30 4974 H 459.854 3.35207 1.06439 0
M  V30 4975 H 459.728 2.66169 2.67271 0
M  V30 4976 H 462.115 1.70582 2.40803 0
M  V30 4977 H 462.196 2.43097 0.796069 0
M  V30 4978 H 461.84 4.73444 1.83884 0
M  V30 4979 H 461.77 3.97817 3.45035 0
M  V30 4980 H 464.261 3.10293 2.157 0
M  V30 4981 H 464.574 6.68155 3.88316 0
M  V30 4982 H 462.919 6.0054 3.49824 0
M  V30 4983 H 466.11 3.89103 2.60224 0
M  V30 4984 H 466.283 5.52279 3.38957 0
M  V30 4985 N 459.689 -1.00246 1.21608 0
M  V30 4986 C 460.936 -1.74061 1.03485 0
M  V30 4987 C 461.264 -1.89658 -0.431308 0
M  V30 4988 O 460.519 -1.42976 -1.33627 0
M  V30 4989 C 460.818 -3.15448 1.68009 0
M  V30 4990 C 460.484 -3.19792 3.17874 0
M  V30 4991 C 459.146 -3.20685 3.58768 0
M  V30 4992 C 461.498 -3.16835 4.13842 0
M  V30 4993 C 458.826 -3.16309 4.94131 0
M  V30 4994 C 461.178 -3.14001 5.49169 0
M  V30 4995 C 459.842 -3.13204 5.89457 0
M  V30 4996 H 459.112 -0.636934 0.378677 0
M  V30 4997 H 461.759 -1.17473 1.51236 0
M  V30 4998 H 460.064 -3.75284 1.12557 0
M  V30 4999 H 461.761 -3.71285 1.51487 0
M  V30 5000 H 458.351 -3.19842 2.85305 0
M  V30 5001 H 462.535 -3.15303 3.83272 0
M  V30 5002 H 457.791 -3.14032 5.24589 0
M  V30 5003 H 461.965 -3.10667 6.23265 0
M  V30 5004 H 459.592 -3.09568 6.94314 0
M  V30 5005 N 461.167 -1.02423 -1.1978 0
M  V30 5006 C 462.077 -0.610919 -2.26506 0
M  V30 5007 C 463.093 0.355152 -1.70337 0
M  V30 5008 O 464.269 0.214195 -2.00258 0
M  V30 5009 C 461.334 0.0365921 -3.46681 0
M  V30 5010 C 460.395 -0.976389 -4.18049 0
M  V30 5011 C 459.628 -0.359683 -5.32487 0
M  V30 5012 O 459.851 0.838601 -5.64202 0
M  V30 5013 O 458.785 -1.08022 -5.92127 0
M  V30 5014 H 462.611 -1.49965 -2.64091 0
M  V30 5015 H 460.196 -0.794156 -1.26545 0
M  V30 5016 H 462.078 0.39786 -4.19518 0
M  V30 5017 H 460.753 0.899398 -3.10954 0
M  V30 5018 H 459.66 -1.38916 -3.47352 0
M  V30 5019 H 460.993 -1.80941 -4.57735 0
M  V30 5020 N 462.645 1.35699 -0.801477 0
M  V30 5021 C 463.555 2.33661 -0.209691 0
M  V30 5022 C 464.571 1.6162 0.644591 0
M  V30 5023 O 465.747 1.93529 0.557545 0
M  V30 5024 C 462.812 3.40816 0.636033 0
M  V30 5025 C 461.873 4.28639 -0.238147 0
M  V30 5026 C 461.106 5.30676 0.567307 0
M  V30 5027 O 461.329 5.41174 1.8024 0
M  V30 5028 O 460.263 6.01887 -0.0391336 0
M  V30 5029 H 464.089 2.8606 -1.01996 0
M  V30 5030 H 461.674 1.38379 -0.563164 0
M  V30 5031 H 463.556 4.06301 1.11791 0
M  V30 5032 H 462.231 2.90696 1.42399 0
M  V30 5033 H 461.138 3.66152 -0.767044 0
M  V30 5034 H 462.471 4.82143 -0.989915 0
M  V30 5035 N 464.123 0.554532 1.47522 0
M  V30 5036 C 465.055 -0.232106 2.28022 0
M  V30 5037 C 466.068 -0.881865 1.36847 0
M  V30 5038 O 467.257 -0.756168 1.61692 0
M  V30 5039 C 464.357 -1.34604 3.11022 0
M  V30 5040 C 463.53 -0.793582 4.30141 0
M  V30 5041 C 462.589 -1.79168 4.94758 0
M  V30 5042 O 461.615 -1.33886 5.5323 0
M  V30 5043 N 462.817 -3.12495 4.89211 0
M  V30 5044 H 465.582 0.458407 2.96173 0
M  V30 5045 H 463.143 0.390433 1.57122 0
M  V30 5046 H 465.135 -2.01243 3.51118 0
M  V30 5047 H 463.705 -1.93983 2.45131 0
M  V30 5048 H 462.925 0.0495025 3.94169 0
M  V30 5049 H 464.213 -0.403776 5.07195 0
M  V30 5050 H 463.611 -3.51931 4.42901 0
M  V30 5051 H 462.168 -3.74698 5.33333 0
M  V30 5052 N 465.601 -1.54893 0.290851 0
M  V30 5053 C 466.511 -2.26812 -0.59945 0
M  V30 5054 C 467.527 -1.29963 -1.15696 0
M  V30 5055 O 468.703 -1.62928 -1.18391 0
M  V30 5056 C 465.768 -2.98716 -1.75982 0
M  V30 5057 C 464.829 -4.1108 -1.2374 0
M  V30 5058 C 464.062 -4.79546 -2.34246 0
M  V30 5059 O 464.285 -4.47309 -3.53936 0
M  V30 5060 O 463.219 -5.67165 -2.01512 0
M  V30 5061 H 467.045 -3.03696 -0.0163561 0
M  V30 5062 H 464.63 -1.49289 0.0576755 0
M  V30 5063 H 466.512 -3.43851 -2.43607 0
M  V30 5064 H 465.187 -2.24737 -2.3297 0
M  V30 5065 H 464.094 -3.70367 -0.527163 0
M  V30 5066 H 465.427 -4.87007 -0.71307 0
M  V30 5067 N 467.08 -0.0183926 -1.57589 0
M  V30 5068 C 467.99 0.982943 -2.13015 0
M  V30 5069 C 469.006 1.36443 -1.07979 0
M  V30 5070 O 470.182 1.44802 -1.3998 0
M  V30 5071 C 467.247 2.25024 -2.63752 0
M  V30 5072 C 466.308 1.93018 -3.83461 0
M  V30 5073 C 465.541 3.13706 -4.31769 0
M  V30 5074 O 465.764 4.2601 -3.79305 0
M  V30 5075 O 464.698 2.96629 -5.23732 0
M  V30 5076 H 468.524 0.541709 -2.9883 0
M  V30 5077 H 466.109 0.201565 -1.48034 0
M  V30 5078 H 467.991 2.99441 -2.96502 0
M  V30 5079 H 466.666 2.68349 -1.81026 0
M  V30 5080 H 465.573 1.16019 -3.55655 0
M  V30 5081 H 466.906 1.54516 -4.67317 0
M  V30 5082 N 468.558 1.5553 0.254621 0
M  V30 5083 C 469.468 1.92789 1.33677 0
M  V30 5084 C 470.484 0.827356 1.53071 0
M  V30 5085 O 471.66 1.12807 1.66843 0
M  V30 5086 C 468.725 2.20827 2.67275 0
M  V30 5087 C 467.786 3.4427 2.5647 0
M  V30 5088 C 467.019 3.70961 3.83697 0
M  V30 5089 O 467.242 2.99852 4.85227 0
M  V30 5090 O 466.176 4.64491 3.82794 0
M  V30 5091 H 470.002 2.84945 1.05071 0
M  V30 5092 H 467.587 1.42312 0.454723 0
M  V30 5093 H 469.469 2.40204 3.46237 0
M  V30 5094 H 468.144 1.31851 2.9563 0
M  V30 5095 H 467.051 3.30209 1.75821 0
M  V30 5096 H 468.384 4.33524 2.33062 0
M  V30 5097 N 470.036 -0.519951 1.48776 0
M  V30 5098 C 470.999 -1.60574 1.6355 0
M  V30 5099 C 471.999 -1.52557 0.508234 0
M  V30 5100 O 473.189 -1.56047 0.774262 0
M  V30 5101 C 470.321 -3.00211 1.61512 0
M  V30 5102 H 471.514 -1.4881 2.60376 0
M  V30 5103 H 469.067 -0.742772 1.37523 0
M  V30 5104 H 469.802 -3.17471 0.662009 0
M  V30 5105 H 469.587 -3.07439 2.43359 0
M  V30 5106 H 471.077 -3.79134 1.75064 0
M  V30 5107 N 471.514 -1.37532 -0.769588 0
M  V30 5108 C 472.762 -1.32597 -1.5252 0
M  V30 5109 C 473.083 0.0884294 -1.94799 0
M  V30 5110 O 472.353 1.03289 -1.66458 0
M  V30 5111 H 470.933 -0.487846 -0.565699 0
M  V30 5112 H 473.595 -1.72044 -0.915806 0
M  V30 5113 H 472.691 -1.96643 -2.42359 0
M  V30 5114 N 472.992 0.995999 -1.22138 0
M  V30 5115 C 474.408 1.25917 -0.980667 0
M  V30 5116 C 474.608 1.98819 0.327604 0
M  V30 5117 O 473.664 2.29587 1.05101 0
M  V30 5118 C 474.977 2.07399 -2.17729 0
M  V30 5119 C 476.525 2.20594 -2.22052 0
M  V30 5120 C 477 3.05462 -3.41258 0
M  V30 5121 N 478.491 3.13049 -3.41401 0
M  V30 5122 C 479.226 3.78997 -4.30289 0
M  V30 5123 N 478.722 4.46899 -5.2939 0
M  V30 5124 N 480.515 3.75728 -4.18073 0
M  V30 5125 H 472.666 0.507158 -2.06256 0
M  V30 5126 H 474.929 0.28658 -0.903646 0
M  V30 5127 H 474.635 1.61191 -3.12586 0
M  V30 5128 H 474.509 3.08154 -2.17534 0
M  V30 5129 H 476.896 2.66017 -1.27745 0
M  V30 5130 H 476.977 1.1928 -2.26287 0
M  V30 5131 H 476.621 2.60739 -4.35864 0
M  V30 5132 H 476.551 4.06911 -3.34262 0
M  V30 5133 H 479.042 2.64721 -2.69688 0
M  V30 5134 H 479.355 4.94952 -5.935 0
M  V30 5135 H 477.7 4.45657 -5.33306 0
M  V30 5136 H 480.891 3.2184 -3.39907 0
M  V30 5137 H 481.064 4.26845 -4.87553 0
M  V30 5138 N 474.47 1.03057 1.19235 0
M  V30 5139 C 475.417 0.612832 2.22515 0
M  V30 5140 C 476.387 -0.374224 1.61829 0
M  V30 5141 O 477.572 -0.270501 1.88873 0
M  V30 5142 C 474.712 -0.028475 3.45088 0
M  V30 5143 C 473.825 1.00483 4.20151 0
M  V30 5144 C 472.96 0.333102 5.30155 0
M  V30 5145 C 471.999 1.3522 5.96977 0
M  V30 5146 N 471.136 0.70616 6.9854 0
M  V30 5147 H 475.976 1.49812 2.57605 0
M  V30 5148 H 473.513 0.749658 1.26564 0
M  V30 5149 H 475.471 -0.417548 4.15105 0
M  V30 5150 H 474.101 -0.877334 3.10649 0
M  V30 5151 H 473.153 1.51194 3.49062 0
M  V30 5152 H 474.465 1.77929 4.65986 0
M  V30 5153 H 473.619 -0.110725 6.06599 0
M  V30 5154 H 472.358 -0.473547 4.85396 0
M  V30 5155 H 471.363 1.80627 5.19282 0
M  V30 5156 H 472.588 2.16037 6.4382 0
M  V30 5157 H 470.534 -0.0803667 6.55951 0
M  V30 5158 H 470.451 1.41848 7.42573 0
M  V30 5159 H 471.719 0.286391 7.78974 0
M  V30 5160 N 475.948 -1.35272 0.808662 0
M  V30 5161 C 476.878 -2.32315 0.234981 0
M  V30 5162 C 477.859 -1.57572 -0.64071 0
M  V30 5163 O 479.044 -1.8563 -0.570551 0
M  V30 5164 C 476.174 -3.41801 -0.615601 0
M  V30 5165 C 475.128 -4.27694 0.161767 0
M  V30 5166 C 474.454 -5.28519 -0.810649 0
M  V30 5167 C 475.754 -5.04231 1.36193 0
M  V30 5168 H 477.448 -2.80543 1.04575 0
M  V30 5169 H 474.994 -1.3488 0.504315 0
M  V30 5170 H 476.947 -4.08693 -1.02702 0
M  V30 5171 H 475.671 -2.92186 -1.45928 0
M  V30 5172 H 474.33 -3.62384 0.554382 0
M  V30 5173 H 473.978 -4.75171 -1.64988 0
M  V30 5174 H 473.678 -5.8686 -0.294822 0
M  V30 5175 H 475.202 -5.98283 -1.22023 0
M  V30 5176 H 476.616 -5.64058 1.02528 0
M  V30 5177 H 475.013 -5.72077 1.81239 0
M  V30 5178 H 476.083 -4.34753 2.14751 0
M  V30 5179 N 477.426 -0.562348 -1.47226 0
M  V30 5180 C 478.654 -0.0452275 -2.06851 0
M  V30 5181 C 479.069 1.25078 -1.41424 0
M  V30 5182 O 478.426 1.75156 -0.512513 0
M  V30 5183 C 478.477 0.148674 -3.61194 0
M  V30 5184 O 478.198 -1.09602 -4.24169 0
M  V30 5185 C 479.699 0.702488 -4.37699 0
M  V30 5186 H 476.919 -0.0481775 -0.669268 0
M  V30 5187 H 479.463 -0.777223 -1.89155 0
M  V30 5188 H 477.618 0.830817 -3.78386 0
M  V30 5189 H 478.032 -0.896982 -5.16773 0
M  V30 5190 H 479.506 0.78743 -5.46355 0
M  V30 5191 H 479.983 1.71493 -4.04335 0
M  V30 5192 H 480.589 0.0558772 -4.25263 0
M  V30 5193 N 478.904 1.54736 -0.299062 0
M  V30 5194 C 480.152 1.99706 0.31017 0
M  V30 5195 C 480.473 1.18896 1.54559 0
M  V30 5196 O 479.743 0.284445 1.93824 0
M  V30 5197 H 478.323 0.737686 0.117596 0
M  V30 5198 H 480.985 1.9054 -0.409943 0
M  V30 5199 H 480.081 3.06596 0.58355 0
M  V30 5200 N 480.382 0.0267497 1.57577 0
M  V30 5201 C 481.659 -0.690926 1.82991 0
M  V30 5202 C 482.039 -1.90471 0.910164 0
M  V30 5203 O 481.387 -2.28474 -0.0347985 0
M  V30 5204 C 481.597 -1.07139 3.32148 0
M  V30 5205 C 482.945 -1.46402 3.98562 0
M  V30 5206 O 483.969 -1.16443 3.36629 0
M  V30 5207 O 482.828 -2.02214 5.07712 0
M  V30 5208 H 479.922 -0.338747 0.75444 0
M  V30 5209 H 482.468 0.0542506 1.69613 0
M  V30 5210 H 481.24 -0.207394 3.9075 0
M  V30 5211 H 480.863 -1.87481 3.50623 0
M  V30 5212 N 481.861 -1.55662 -0.24637 0
M  V30 5213 C 483.107 -1.78698 -0.971525 0
M  V30 5214 C 483.462 -0.59577 -1.82944 0
M  V30 5215 O 482.755 0.41097 -1.87141 0
M  V30 5216 C 482.949 -3.04885 -1.86494 0
M  V30 5217 C 482.778 -4.36165 -1.09501 0
M  V30 5218 C 481.548 -4.98929 -0.799895 0
M  V30 5219 C 483.746 -5.12126 -0.472334 0
M  V30 5220 N 481.728 -6.139 -0.00595299 0
M  V30 5221 C 483.099 -6.1972 0.18616 0
M  V30 5222 C 485.154 -4.96426 -0.382854 0
M  V30 5223 C 483.857 -7.13321 0.925542 0
M  V30 5224 C 485.883 -5.90405 0.342999 0
M  V30 5225 C 485.245 -6.97407 0.990128 0
M  V30 5226 H 481.344 -0.705852 -0.336597 0
M  V30 5227 H 483.928 -1.93157 -0.244615 0
M  V30 5228 H 482.099 -2.91753 -2.56388 0
M  V30 5229 H 483.831 -3.16212 -2.5257 0
M  V30 5230 H 480.586 -4.60365 -1.11181 0
M  V30 5231 H 481.01 -6.75938 0.379127 0
M  V30 5232 H 485.652 -4.13777 -0.868834 0
M  V30 5233 H 483.37 -7.9547 1.42312 0
M  V30 5234 H 486.956 -5.80333 0.412907 0
M  V30 5235 H 485.836 -7.68874 1.54282 0
M  V30 5236 N 483.339 0.512053 -1.4905 0
M  V30 5237 C 484.567 1.29116 -1.61669 0
M  V30 5238 C 484.982 1.86655 -0.283787 0
M  V30 5239 O 484.339 1.67293 0.729331 0
M  V30 5240 C 484.39 2.4293 -2.67707 0
M  V30 5241 O 484.111 1.87758 -3.95826 0
M  V30 5242 C 485.612 3.34476 -2.90931 0
M  V30 5243 H 482.832 0.392009 -0.544583 0
M  V30 5244 H 485.376 0.615881 -1.95006 0
M  V30 5245 H 483.531 3.06308 -2.37179 0
M  V30 5246 H 483.945 2.62393 -4.54148 0
M  V30 5247 H 485.419 4.10642 -3.68886 0
M  V30 5248 H 485.896 3.90801 -2.00427 0
M  V30 5249 H 486.502 2.76874 -3.22832 0
M  V30 5250 N 484.817 1.37938 0.762283 0
M  V30 5251 C 486.063 1.34873 1.52253 0
M  V30 5252 C 486.418 -0.0635972 1.92295 0
M  V30 5253 O 485.711 -1.02434 1.61919 0
M  V30 5254 C 485.905 2.23042 2.79261 0
M  V30 5255 C 485.734 3.72706 2.51635 0
M  V30 5256 C 484.504 4.41771 2.45289 0
M  V30 5257 C 486.702 4.65345 2.18994 0
M  V30 5258 N 484.684 5.76921 2.09846 0
M  V30 5259 C 486.055 5.88943 1.9377 0
M  V30 5260 C 488.11 4.53636 2.0523 0
M  V30 5261 C 486.813 7.02142 1.5617 0
M  V30 5262 C 488.839 5.6673 1.69031 0
M  V30 5263 C 488.201 6.89383 1.44673 0
M  V30 5264 H 484.3 0.548818 0.557067 0
M  V30 5265 H 486.884 1.73247 0.888458 0
M  V30 5266 H 485.055 1.8687 3.40491 0
M  V30 5267 H 486.787 2.11165 3.45241 0
M  V30 5268 H 483.542 3.94883 2.61465 0
M  V30 5269 H 483.966 6.4837 1.94794 0
M  V30 5270 H 488.608 3.5937 2.2274 0
M  V30 5271 H 486.326 7.96334 1.37399 0
M  V30 5272 H 489.912 5.59645 1.59026 0
M  V30 5273 H 488.792 7.75411 1.17079 0
M  V30 5274 N 486.295 -0.989507 1.22664 0
M  V30 5275 C 487.225 -2.09847 1.02404 0
M  V30 5276 C 488.206 -1.70007 -0.0561303 0
M  V30 5277 O 489.391 -1.93906 0.106748 0
M  V30 5278 C 486.521 -3.41996 0.604663 0
M  V30 5279 C 485.475 -3.95699 1.63115 0
M  V30 5280 C 484.801 -5.23936 1.0675 0
M  V30 5281 C 486.101 -4.25999 3.02196 0
M  V30 5282 H 487.795 -2.27054 1.95158 0
M  V30 5283 H 485.341 -1.09111 0.939727 0
M  V30 5284 H 487.294 -4.1899 0.45002 0
M  V30 5285 H 486.018 -3.24626 -0.35855 0
M  V30 5286 H 484.677 -3.2084 1.77362 0
M  V30 5287 H 484.325 -5.02909 0.0955422 0
M  V30 5288 H 484.025 -5.60833 1.75328 0
M  V30 5289 H 485.549 -6.0356 0.924516 0
M  V30 5290 H 486.963 -4.93777 2.91303 0
M  V30 5291 H 485.36 -4.74076 3.67929 0
M  V30 5292 H 486.43 -3.33636 3.51873 0
M  V30 5293 N 487.773 -1.03688 -1.18687 0
M  V30 5294 C 489.022 -0.733235 -1.879 0
M  V30 5295 C 489.335 0.741745 -1.8099 0
M  V30 5296 O 490.541 1.15875 -2.4553 0
M  V30 5297 C 488.997 -1.26127 -3.37076 0
M  V30 5298 C 488.605 -2.76461 -3.52524 0
M  V30 5299 C 490.349 -1.03398 -4.11715 0
M  V30 5300 C 488.256 -3.22642 -4.95637 0
M  V30 5301 H 487.186 -0.270584 -0.703776 0
M  V30 5302 H 489.837 -1.25222 -1.34133 0
M  V30 5303 H 488.219 -0.670165 -3.90288 0
M  V30 5304 H 489.393 -3.41296 -3.09602 0
M  V30 5305 H 487.708 -2.97559 -2.91286 0
M  V30 5306 H 490.305 -1.3542 -5.17267 0
M  V30 5307 H 490.648 0.0289246 -4.1629 0
M  V30 5308 H 491.181 -1.5895 -3.64664 0
M  V30 5309 H 487.92 -4.28296 -4.96228 0
M  V30 5310 H 487.44 -2.62539 -5.39289 0
M  V30 5311 H 489.119 -3.16444 -5.64333 0
M  V30 5312 N 489.251 1.34841 -0.815825 0
M  V30 5313 C 490.662 1.80937 -0.46029 0
M  V30 5314 C 491.013 1.67685 1.01863 0
M  V30 5315 O 490.138 1.21277 1.79223 0
M  V30 5316 C 490.733 3.28509 -0.828708 0
M  V30 5317 C 489.292 3.72712 -0.525644 0
M  V30 5318 C 488.439 2.56676 -1.04941 0
M  V30 5319 H 491.39 1.22688 -1.00664 0
M  V30 5320 H 491.411 3.80279 -0.129757 0
M  V30 5321 H 490.923 3.38122 -1.90513 0
M  V30 5322 H 489.024 3.68642 0.541666 0
M  V30 5323 H 489.137 4.67119 -1.06474 0
M  V30 5324 H 487.501 2.50302 -0.471286 0
M  V30 5325 H 488.284 2.69063 -2.13214 0
M  V30 5326 N 490.729 0.570148 1.46925 0
M  V30 5327 C 492.14 0.1402 1.86173 0
M  V30 5328 C 492.491 -1.29347 1.47526 0
M  V30 5329 O 491.616 -1.97508 0.884292 0
M  V30 5330 C 492.211 0.247661 3.37894 0
M  V30 5331 C 490.77 -0.127332 3.76185 0
M  V30 5332 C 489.917 0.589349 2.70965 0
M  V30 5333 H 492.868 0.779117 1.38259 0
M  V30 5334 H 492.889 -0.530341 3.76786 0
M  V30 5335 H 492.401 1.29121 3.65991 0
M  V30 5336 H 490.502 -1.17149 3.53704 0
M  V30 5337 H 490.615 0.240238 4.78497 0
M  V30 5338 H 488.979 0.0309824 2.54681 0
M  V30 5339 H 489.762 1.6343 3.01903 0
M  V30 5340 N 492.207 -1.54576 0.307264 0
M  V30 5341 C 493.456 -1.99442 -0.300976 0
M  V30 5342 C 493.769 -1.19928 -1.5452 0
M  V30 5343 O 494.975 -1.55092 -2.22842 0
M  V30 5344 C 493.431 -3.55084 -0.586809 0
M  V30 5345 C 493.039 -4.43413 0.639438 0
M  V30 5346 C 494.783 -4.0846 -1.1559 0
M  V30 5347 C 492.69 -5.90499 0.326411 0
M  V30 5348 H 491.62 -0.744986 -0.116238 0
M  V30 5349 H 494.271 -1.787 0.416947 0
M  V30 5350 H 492.653 -3.71749 -1.36449 0
M  V30 5351 H 493.827 -4.38522 1.41545 0
M  V30 5352 H 492.142 -4.00842 1.1276 0
M  V30 5353 H 494.739 -5.15926 -1.40445 0
M  V30 5354 H 495.082 -3.59443 -2.10015 0
M  V30 5355 H 495.615 -3.95362 -0.439778 0
M  V30 5356 H 492.354 -6.43676 1.23939 0
M  V30 5357 H 491.874 -5.98382 -0.412212 0
M  V30 5358 H 493.553 -6.46962 -0.0697393 0
M  V30 5359 N 493.685 -0.035106 -1.57561 0
M  V30 5360 C 494.91 0.655802 -1.96759 0
M  V30 5361 C 495.335 1.64523 -0.911809 0
M  V30 5362 O 494.693 1.80857 0.126673 0
M  V30 5363 C 494.741 1.33326 -3.35047 0
M  V30 5364 O 493.845 2.44866 -3.31835 0
M  V30 5365 H 493.186 0.171807 -0.641388 0
M  V30 5366 H 495.716 -0.0987369 -2.04362 0
M  V30 5367 H 495.726 1.68867 -3.71413 0
M  V30 5368 H 494.401 0.608033 -4.11431 0
M  V30 5369 H 492.978 2.11392 -3.07193 0
M  V30 5370 N 495.163 1.55791 0.238111 0
M  V30 5371 C 496.574 1.68383 0.806472 0
M  V30 5372 C 496.925 0.634157 1.85669 0
M  V30 5373 O 496.05 -0.217913 2.153 0
M  V30 5374 C 496.645 3.05268 1.46959 0
M  V30 5375 C 495.204 3.1977 1.98555 0
M  V30 5376 C 494.351 2.64279 0.839763 0
M  V30 5377 H 497.302 1.58694 0.0137535 0
M  V30 5378 H 497.323 3.00203 2.33792 0
M  V30 5379 H 496.835 3.81643 0.704993 0
M  V30 5380 H 494.936 2.48234 2.77868 0
M  V30 5381 H 495.049 4.26788 2.17689 0
M  V30 5382 H 493.413 2.22329 1.24265 0
M  V30 5383 H 494.196 3.43187 0.0881032 0
M  V30 5384 N 496.642 -0.504142 1.49319 0
M  V30 5385 C 497.605 -1.5883 1.65244 0
M  V30 5386 C 498.605 -1.52009 0.524386 0
M  V30 5387 O 499.795 -1.55218 0.79077 0
M  V30 5388 C 496.927 -2.98481 1.64687 0
M  V30 5389 H 498.12 -1.4604 2.61939 0
M  V30 5390 H 495.673 -0.728144 1.38303 0
M  V30 5391 H 496.408 -3.16751 0.695644 0
M  V30 5392 H 496.193 -3.0484 2.46607 0
M  V30 5393 H 497.683 -3.77256 1.79075 0
M  V30 5394 N 498.12 -1.38341 -0.754957 0
M  V30 5395 C 499.083 -1.35262 -1.85032 0
M  V30 5396 C 500.083 -0.253393 -1.58791 0
M  V30 5397 O 501.273 -0.510205 -1.66561 0
M  V30 5398 C 498.405 -1.10544 -3.22479 0
M  V30 5399 H 499.598 -2.32712 -1.8917 0
M  V30 5400 H 497.151 -1.23614 -0.956515 0
M  V30 5401 H 497.886 -0.136952 -3.24011 0
M  V30 5402 H 497.671 -1.90127 -3.4292 0
M  V30 5403 H 499.161 -1.11082 -4.02555 0
M  V30 5404 N 499.598 0.982988 -1.23187 0
M  V30 5405 C 500.826 1.75921 -1.08901 0
M  V30 5406 C 501.241 1.85341 0.359719 0
M  V30 5407 O 500.598 1.33072 1.24892 0
M  V30 5408 C 500.649 3.18742 -1.70545 0
M  V30 5409 O 500.37 3.09814 -3.09753 0
M  V30 5410 C 501.871 4.1277 -1.61667 0
M  V30 5411 H 499.091 0.552166 -0.381252 0
M  V30 5412 H 501.635 1.23516 -1.62985 0
M  V30 5413 H 499.79 3.68182 -1.20501 0
M  V30 5414 H 500.204 3.99703 -3.39614 0
M  V30 5415 H 501.678 5.10697 -2.09506 0
M  V30 5416 H 502.155 4.3542 -0.575009 0
M  V30 5417 H 502.761 3.69232 -2.11064 0
M  V30 5418 N 501.076 1.04316 1.18135 0
M  V30 5419 C 502.026 0.606731 2.19779 0
M  V30 5420 C 503.01 -0.352144 1.56999 0
M  V30 5421 O 504.202 -0.170795 1.76174 0
M  V30 5422 C 501.331 -0.0262443 3.4329 0
M  V30 5423 C 500.417 0.955928 4.13186 0
M  V30 5424 N 500.808 2.12395 4.59045 0
M  V30 5425 C 499.106 0.782473 4.39082 0
M  V30 5426 C 499.807 2.74458 5.12882 0
M  V30 5427 N 498.783 2.02316 5.04548 0
M  V30 5428 H 502.585 1.49679 2.5293 0
M  V30 5429 H 500.099 0.912088 1.34368 0
M  V30 5430 H 502.096 -0.356617 4.15372 0
M  V30 5431 H 500.756 -0.911811 3.11635 0
M  V30 5432 H 501.767 2.50272 4.53414 0
M  V30 5433 H 498.444 -0.0527906 4.17467 0
M  V30 5434 H 499.834 3.73459 5.5855 0
M  V30 5435 N 502.554 -1.34406 0.822964 0
M  V30 5436 C 503.803 -1.97542 0.407458 0
M  V30 5437 C 504.116 -1.65973 -1.035 0
M  V30 5438 O 505.322 -2.22598 -1.55442 0
M  V30 5439 C 503.778 -3.53463 0.677623 0
M  V30 5440 C 503.386 -3.93925 2.1337 0
M  V30 5441 C 505.13 -4.23229 0.328284 0
M  V30 5442 C 503.037 -5.42759 2.34876 0
M  V30 5443 H 501.967 -0.739207 0.148623 0
M  V30 5444 H 504.618 -1.53248 1.00932 0
M  V30 5445 H 503 -3.96 0.00558965 0
M  V30 5446 H 504.174 -3.62494 2.8449 0
M  V30 5447 H 502.489 -3.37097 2.44448 0
M  V30 5448 H 505.086 -5.32659 0.466794 0
M  V30 5449 H 505.429 -4.09899 -0.727224 0
M  V30 5450 H 505.962 -3.86169 0.954896 0
M  V30 5451 H 502.701 -5.61075 3.38932 0
M  V30 5452 H 502.221 -5.75704 1.68299 0
M  V30 5453 H 503.9 -6.0944 2.17236 0
M  V30 5454 N 504.032 -0.577932 -1.46621 0
M  V30 5455 C 505.279 -0.0616879 -2.02406 0
M  V30 5456 C 505.607 1.29638 -1.44997 0
M  V30 5457 O 504.862 1.86176 -0.60308 0
M  V30 5458 C 505.161 0.0590832 -3.57351 0
M  V30 5459 C 504.827 -1.23077 -4.33777 0
M  V30 5460 C 503.489 -1.58416 -4.54376 0
M  V30 5461 C 505.841 -2.08457 -4.77698 0
M  V30 5462 C 503.169 -2.78943 -5.16147 0
M  V30 5463 C 505.521 -3.28204 -5.408 0
M  V30 5464 C 504.185 -3.63832 -5.59627 0
M  V30 5465 H 503.455 -0.0225732 -0.740656 0
M  V30 5466 H 506.102 -0.753609 -1.76048 0
M  V30 5467 H 504.407 0.834104 -3.82818 0
M  V30 5468 H 506.104 0.474202 -3.98186 0
M  V30 5469 H 502.694 -0.945652 -4.18038 0
M  V30 5470 H 506.878 -1.82459 -4.61544 0
M  V30 5471 H 502.134 -3.06689 -5.28916 0
M  V30 5472 H 506.308 -3.94634 -5.73792 0
M  V30 5473 H 503.935 -4.57315 -6.07262 0
M  V30 5474 N 505.51 1.54411 -0.315457 0
M  V30 5475 C 506.46 2.20772 0.569549 0
M  V30 5476 C 507.444 1.18551 1.08787 0
M  V30 5477 O 508.636 1.44213 1.02624 0
M  V30 5478 C 505.765 2.96293 1.73394 0
M  V30 5479 C 504.851 4.05844 1.2309 0
M  V30 5480 N 505.242 5.03822 0.446927 0
M  V30 5481 C 503.54 4.19648 1.51035 0
M  V30 5482 C 504.241 5.8143 0.17725 0
M  V30 5483 N 503.217 5.38245 0.761118 0
M  V30 5484 H 507.019 2.93877 -0.0368076 0
M  V30 5485 H 504.533 1.61949 -0.120915 0
M  V30 5486 H 506.53 3.42313 2.37965 0
M  V30 5487 H 505.19 2.24708 2.34386 0
M  V30 5488 H 506.201 5.17821 0.0905027 0
M  V30 5489 H 502.878 3.59274 2.1267 0
M  V30 5490 H 504.268 6.70369 -0.45335 0
M  V30 5491 N 506.988 0.0434614 1.5754 0
M  V30 5492 C 508.404 -0.313039 1.565 0
M  V30 5493 C 508.604 -1.71954 1.05043 0
M  V30 5494 O 507.66 -2.425 0.703564 0
M  V30 5495 C 508.973 -0.148544 3.00333 0
M  V30 5496 C 510.521 -0.220231 3.12224 0
M  V30 5497 C 510.996 -0.0843565 4.57922 0
M  V30 5498 N 512.487 -0.140881 4.62986 0
M  V30 5499 C 513.222 -0.0597443 5.73369 0
M  V30 5500 N 512.718 0.0733004 6.92761 0
M  V30 5501 N 514.511 -0.11477 5.61983 0
M  V30 5502 H 506.662 0.96303 1.89313 0
M  V30 5503 H 508.925 0.373164 0.871466 0
M  V30 5504 H 508.631 0.820894 3.41986 0
M  V30 5505 H 508.505 -0.912798 3.65989 0
M  V30 5506 H 510.892 -1.18014 2.70475 0
M  V30 5507 H 510.973 0.574646 2.49262 0
M  V30 5508 H 510.617 0.872192 5.00355 0
M  V30 5509 H 510.547 -0.898281 5.18882 0
M  V30 5510 H 513.038 -0.243273 3.77116 0
M  V30 5511 H 513.351 0.128128 7.72694 0
M  V30 5512 H 511.696 0.10828 6.94916 0
M  V30 5513 H 514.887 -0.217212 4.67596 0
M  V30 5514 H 515.06 -0.0480779 6.47982 0
M  V30 5515 N 508.466 -1.55915 -0.229846 0
M  V30 5516 C 509.691 -1.8296 -0.976743 0
M  V30 5517 C 510.116 -0.622735 -1.77493 0
M  V30 5518 O 509.474 0.428431 -1.76165 0
M  V30 5519 C 509.522 -3.07916 -1.8767 0
M  V30 5520 O 508.626 -2.86028 -2.97088 0
M  V30 5521 H 507.967 -0.603453 -0.277021 0
M  V30 5522 H 510.497 -2.0312 -0.245669 0
M  V30 5523 H 510.507 -3.37802 -2.2881 0
M  V30 5524 H 509.182 -3.95389 -1.28996 0
M  V30 5525 H 507.759 -2.67355 -2.59954 0
M  V30 5526 N 509.944 0.496216 -1.49584 0
M  V30 5527 C 511.174 1.27209 -1.62793 0
M  V30 5528 C 511.582 1.86799 -0.300476 0
M  V30 5529 O 510.925 1.68802 0.724674 0
M  V30 5530 C 510.987 2.43812 -2.64189 0
M  V30 5531 C 510.651 2.05055 -4.08414 0
M  V30 5532 C 511.648 1.58752 -4.9507 0
M  V30 5533 C 509.333 2.14543 -4.54177 0
M  V30 5534 C 511.327 1.22448 -6.25528 0
M  V30 5535 C 509.014 1.77851 -5.84647 0
M  V30 5536 C 510.012 1.31878 -6.70147 0
M  V30 5537 O 509.7 0.956834 -7.98185 0
M  V30 5538 H 509.432 0.391848 -0.550846 0
M  V30 5539 H 511.986 0.601712 -1.96389 0
M  V30 5540 H 510.216 3.13941 -2.25783 0
M  V30 5541 H 511.905 3.05829 -2.66877 0
M  V30 5542 H 512.671 1.50863 -4.60939 0
M  V30 5543 H 508.55 2.49277 -3.87791 0
M  V30 5544 H 512.094 0.864933 -6.92217 0
M  V30 5545 H 507.991 1.8539 -6.18305 0
M  V30 5546 H 508.759 1.08789 -8.11238 0
M  V30 5547 N 511.423 1.38739 0.74761 0
M  V30 5548 C 512.7 1.25791 1.49786 0
M  V30 5549 C 513.08 -0.138075 2.10648 0
M  V30 5550 O 512.428 -1.14815 1.9756 0
M  V30 5551 C 512.638 2.37265 2.55942 0
M  V30 5552 C 513.986 2.75978 3.22679 0
M  V30 5553 O 515.01 2.36621 2.6625 0
M  V30 5554 O 513.869 3.43867 4.24756 0
M  V30 5555 H 510.963 0.492251 0.664543 0
M  V30 5556 H 513.509 1.50582 0.782511 0
M  V30 5557 H 512.281 3.30644 2.0926 0
M  V30 5558 H 511.904 2.14071 3.35051 0
M  V30 5559 N 512.901 -0.976442 1.23707 0
M  V30 5560 C 513.849 -2.09078 1.01927 0
M  V30 5561 C 514.843 -1.69345 -0.0430193 0
M  V30 5562 O 516.049 -1.79659 0.110814 0
M  V30 5563 H 512.424 -0.68398 0.312531 0
M  V30 5564 H 514.395 -2.24614 1.96447 0
M  V30 5565 C 513.144 -3.41919 0.631385 0
M  V30 5566 H 512.467 -3.72946 1.44053 0
M  V30 5567 H 513.907 -4.20817 0.518532 0
M  V30 5568 C 512.366 -3.30357 -0.660723 0
M  V30 5569 O 512.896 -3.63542 -1.70881 0
M  V30 5570 N 511.102 -2.83507 -0.638139 0
M  V30 5571 H 510.649 -2.567 0.215108 0
M  V30 5572 H 510.607 -2.76153 -1.50289 0
M  V30 5573 N 514.379 -1.04941 -1.1758 0
M  V30 5574 C 515.604 -0.778253 -1.92245 0
M  V30 5575 C 516.029 0.659707 -1.76152 0
M  V30 5576 O 515.387 1.45803 -1.07755 0
M  V30 5577 C 515.435 -1.16051 -3.41416 0
M  V30 5578 O 514.539 -0.291153 -4.11371 0
M  V30 5579 H 513.88 -0.285619 -0.599431 0
M  V30 5580 H 516.41 -1.40159 -1.49052 0
M  V30 5581 H 516.42 -1.12619 -3.92149 0
M  V30 5582 H 515.095 -2.208 -3.52449 0
M  V30 5583 H 513.672 -0.385851 -3.70898 0
M  V30 5584 N 515.857 1.33968 -0.830081 0
M  V30 5585 C 517.106 1.97323 -0.417928 0
M  V30 5586 C 517.419 1.6652 1.02618 0
M  V30 5587 O 518.625 2.2342 1.54259 0
M  V30 5588 C 517.081 3.53099 -0.696359 0
M  V30 5589 C 516.689 3.92788 -2.15457 0
M  V30 5590 C 518.433 4.23049 -0.350724 0
M  V30 5591 C 516.34 5.41506 -2.37751 0
M  V30 5592 H 515.27 0.738409 -0.152541 0
M  V30 5593 H 517.921 1.52711 -1.01744 0
M  V30 5594 H 516.303 3.95991 -0.0265904 0
M  V30 5595 H 517.477 3.6098 -2.86408 0
M  V30 5596 H 515.792 3.35795 -2.46232 0
M  V30 5597 H 518.389 5.32403 -0.495036 0
M  V30 5598 H 518.732 4.10279 0.705476 0
M  V30 5599 H 519.265 3.85657 -0.975362 0
M  V30 5600 H 516.004 5.5927 -3.41903 0
M  V30 5601 H 515.524 5.74804 -1.7135 0
M  V30 5602 H 517.203 6.0828 -2.20465 0
M  V30 5603 N 517.335 0.585699 1.46312 0
M  V30 5604 C 518.581 0.0725284 2.0267 0
M  V30 5605 C 518.914 -1.28523 1.45586 0
M  V30 5606 O 518.189 -1.84283 0.622101 0
M  V30 5607 C 518.472 0.0099788 3.60099 0
M  V30 5608 C 518.325 1.39685 4.27561 0
M  V30 5609 C 519.644 -0.689117 4.34671 0
M  V30 5610 H 516.763 0.0278307 0.736474 0
M  V30 5611 H 519.405 0.753472 1.74421 0
M  V30 5612 H 517.555 -0.56992 3.84297 0
M  V30 5613 H 519.227 2.02215 4.14617 0
M  V30 5614 H 517.47 1.96374 3.86807 0
M  V30 5615 H 518.141 1.30553 5.36339 0
M  V30 5616 H 520.617 -0.196446 4.15636 0
M  V30 5617 H 519.493 -0.701921 5.44393 0
M  V30 5618 H 519.754 -1.75101 4.05946 0
M  V30 5619 N 518.813 -1.54241 0.323641 0
M  V30 5620 C 519.76 -2.24339 -0.542277 0
M  V30 5621 C 520.73 -1.23421 -1.11159 0
M  V30 5622 O 521.915 -1.52104 -1.15192 0
M  V30 5623 C 519.055 -3.00479 -1.69725 0
M  V30 5624 C 518.168 -4.16214 -1.15716 0
M  V30 5625 C 517.303 -4.79884 -2.27783 0
M  V30 5626 C 516.342 -5.87722 -1.71023 0
M  V30 5627 N 515.479 -6.45254 -2.76752 0
M  V30 5628 H 520.319 -2.97935 0.0620613 0
M  V30 5629 H 517.856 -1.47039 0.0423993 0
M  V30 5630 H 519.814 -3.42869 -2.3769 0
M  V30 5631 H 518.444 -2.29217 -2.27288 0
M  V30 5632 H 517.496 -3.78605 -0.369063 0
M  V30 5633 H 518.808 -4.93838 -0.701832 0
M  V30 5634 H 517.962 -5.25243 -3.03651 0
M  V30 5635 H 516.701 -4.01641 -2.76652 0
M  V30 5636 H 515.706 -5.41765 -0.936518 0
M  V30 5637 H 516.931 -6.67863 -1.2303 0
M  V30 5638 H 514.877 -5.69884 -3.24912 0
M  V30 5639 H 514.794 -7.18292 -2.35782 0
M  V30 5640 H 516.062 -6.95269 -3.5245 0
M  V30 5641 N 520.291 -0.0518155 -1.57515 0
M  V30 5642 C 521.702 0.483787 -1.80323 0
M  V30 5643 C 522.053 1.70879 -0.964099 0
M  V30 5644 O 521.178 2.15643 -0.180872 0
M  V30 5645 C 521.773 0.884459 -3.27052 0
M  V30 5646 C 520.332 1.36504 -3.50776 0
M  V30 5647 C 519.479 0.340539 -2.75201 0
M  V30 5648 H 522.43 -0.277691 -1.56252 0
M  V30 5649 H 522.451 1.74733 -3.38007 0
M  V30 5650 H 521.963 -0.00731093 -3.88099 0
M  V30 5651 H 520.064 2.27598 -2.95009 0
M  V30 5652 H 520.177 1.35675 -4.59488 0
M  V30 5653 H 518.541 0.81356 -2.41357 0
M  V30 5654 H 519.324 -0.543156 -3.38976 0
M  V30 5655 N 521.769 1.56035 0.221574 0
M  V30 5656 C 522.717 1.93269 1.29421 0
M  V30 5657 C 523.711 0.814727 1.48521 0
M  V30 5658 O 524.917 0.999559 1.49696 0
M  V30 5659 H 521.292 0.614188 0.43391 0
M  V30 5660 H 523.263 2.82773 0.952987 0
M  V30 5661 C 522.012 2.26573 2.63742 0
M  V30 5662 H 521.335 3.12112 2.49853 0
M  V30 5663 H 522.775 2.5651 3.37607 0
M  V30 5664 C 521.234 1.09086 3.1875 0
M  V30 5665 O 521.764 0.351985 4.00155 0
M  V30 5666 N 519.97 0.874693 2.77124 0
M  V30 5667 H 519.517 1.47726 2.11033 0
M  V30 5668 H 519.475 0.0903349 3.1427 0
M  V30 5669 N 523.247 -0.488276 1.49845 0
M  V30 5670 C 524.477 -1.26344 1.63465 0
M  V30 5671 C 524.885 -1.86637 0.310379 0
M  V30 5672 O 524.228 -1.69184 -0.715712 0
M  V30 5673 C 524.29 -2.42407 2.65479 0
M  V30 5674 C 523.954 -2.02886 4.09495 0
M  V30 5675 C 524.951 -1.56124 4.95904 0
M  V30 5676 C 522.636 -2.12131 4.55308 0
M  V30 5677 C 524.63 -1.19129 6.26169 0
M  V30 5678 C 522.317 -1.74747 5.85582 0
M  V30 5679 C 523.315 -1.28322 6.70837 0
M  V30 5680 O 523.003 -0.914491 7.98682 0
M  V30 5681 H 522.735 -0.388921 0.552916 0
M  V30 5682 H 525.289 -0.591288 1.96705 0
M  V30 5683 H 523.519 -3.12739 2.27445 0
M  V30 5684 H 525.208 -3.04409 2.68495 0
M  V30 5685 H 525.974 -1.48417 4.61733 0
M  V30 5686 H 521.853 -2.47217 3.89107 0
M  V30 5687 H 525.397 -0.828211 6.92666 0
M  V30 5688 H 521.294 -1.82109 6.19279 0
M  V30 5689 H 522.062 -1.04485 8.11804 0
M  V30 5690 N 524.725 -1.39134 -0.740242 0
M  V30 5691 C 525.972 -1.36071 -1.49969 0
M  V30 5692 C 526.3 0.0450245 -1.94448 0
M  V30 5693 O 525.555 1.02482 -1.66721 0
M  V30 5694 C 525.854 -2.27457 -2.75678 0
M  V30 5695 C 525.52 -3.75185 -2.50094 0
M  V30 5696 C 524.182 -4.15439 -2.42825 0
M  V30 5697 C 526.534 -4.68643 -2.28086 0
M  V30 5698 C 523.862 -5.4722 -2.11584 0
M  V30 5699 C 526.214 -6.00695 -1.98363 0
M  V30 5700 C 524.878 -6.40018 -1.8956 0
M  V30 5701 H 524.148 -0.497921 -0.548777 0
M  V30 5702 H 526.795 -1.71599 -0.85007 0
M  V30 5703 H 525.1 -1.8503 -3.45356 0
M  V30 5704 H 526.797 -2.22384 -3.33686 0
M  V30 5705 H 523.387 -3.43279 -2.56627 0
M  V30 5706 H 527.571 -4.3838 -2.32672 0
M  V30 5707 H 522.827 -5.76615 -2.03287 0
M  V30 5708 H 527.001 -6.72644 -1.80341 0
M  V30 5709 H 524.628 -7.42051 -1.65117 0
M  V30 5710 N 526.204 0.969867 -1.24223 0
M  V30 5711 C 527.434 1.74502 -1.106 0
M  V30 5712 C 527.842 1.86038 0.344483 0
M  V30 5713 O 527.185 1.3465 1.24961 0
M  V30 5714 C 527.247 3.18391 -1.66935 0
M  V30 5715 C 526.911 3.30334 -3.15798 0
M  V30 5716 C 527.908 3.15832 -4.12973 0
M  V30 5717 C 525.593 3.54644 -3.55715 0
M  V30 5718 C 527.587 3.25461 -5.48045 0
M  V30 5719 C 525.274 3.63912 -4.90929 0
M  V30 5720 C 526.272 3.49332 -5.86904 0
M  V30 5721 O 525.96 3.58251 -7.1966 0
M  V30 5722 H 525.692 0.554119 -0.387206 0
M  V30 5723 H 528.246 1.22646 -1.64764 0
M  V30 5724 H 526.476 3.71543 -1.07203 0
M  V30 5725 H 528.165 3.77707 -1.48634 0
M  V30 5726 H 528.931 2.96937 -3.83476 0
M  V30 5727 H 524.81 3.65059 -2.81519 0
M  V30 5728 H 528.354 3.13998 -6.22937 0
M  V30 5729 H 524.251 3.82319 -5.20098 0
M  V30 5730 H 525.019 3.7498 -7.27552 0
M  V30 5731 N 527.682 1.05563 1.17022 0
M  V30 5732 C 528.614 0.617888 2.20714 0
M  V30 5733 C 529.627 -0.320303 1.59618 0
M  V30 5734 O 530.816 -0.112449 1.78145 0
M  V30 5735 C 527.916 -0.115333 3.38704 0
M  V30 5736 C 527.089 0.834493 4.29366 0
M  V30 5737 C 526.148 0.141855 5.26009 0
M  V30 5738 O 525.174 0.777151 5.6387 0
M  V30 5739 N 526.376 -1.11934 5.69606 0
M  V30 5740 H 529.141 1.50981 2.58892 0
M  V30 5741 H 526.702 0.938008 1.31958 0
M  V30 5742 H 528.694 -0.588918 4.00392 0
M  V30 5743 H 527.264 -0.908967 2.99093 0
M  V30 5744 H 526.484 1.48762 3.65053 0
M  V30 5745 H 527.772 1.4791 4.86827 0
M  V30 5746 H 527.17 -1.65574 5.40927 0
M  V30 5747 H 525.727 -1.53692 6.33421 0
M  V30 5748 N 529.16 -1.33526 0.837174 0
M  V30 5749 C 530.437 -1.92369 0.354065 0
M  V30 5750 C 530.817 -1.76348 -1.16038 0
M  V30 5751 O 530.165 -1.15083 -1.97403 0
M  V30 5752 C 530.375 -3.39728 0.799101 0
M  V30 5753 C 531.723 -4.16877 0.806139 0
M  V30 5754 O 532.747 -3.48373 0.742597 0
M  V30 5755 O 531.606 -5.39166 0.892345 0
M  V30 5756 H 528.7 -0.820952 0.0998378 0
M  V30 5757 H 531.246 -1.42409 0.922913 0
M  V30 5758 H 530.018 -3.45254 1.84162 0
M  V30 5759 H 529.641 -3.97062 0.206731 0
M  V30 5760 N 530.638 -0.59345 -1.46 0
M  V30 5761 C 531.585 0.133618 -2.30413 0
M  V30 5762 C 532.555 0.873736 -1.41262 0
M  V30 5763 O 533.74 0.862279 -1.70204 0
M  V30 5764 C 530.88 1.13434 -3.25924 0
M  V30 5765 C 529.993 0.39656 -4.30176 0
M  V30 5766 C 529.128 1.38575 -5.12806 0
M  V30 5767 C 528.167 0.634984 -6.08797 0
M  V30 5768 N 527.304 1.57276 -6.84258 0
M  V30 5769 H 532.144 -0.592252 -2.92055 0
M  V30 5770 H 529.681 -0.303874 -1.43927 0
M  V30 5771 H 531.639 1.72752 -3.79753 0
M  V30 5772 H 530.269 1.82779 -2.66067 0
M  V30 5773 H 529.321 -0.311861 -3.79119 0
M  V30 5774 H 530.633 -0.189869 -4.98438 0
M  V30 5775 H 529.787 2.05141 -5.70966 0
M  V30 5776 H 528.526 2.00611 -4.44529 0
M  V30 5777 H 527.531 -0.0443925 -5.49782 0
M  V30 5778 H 528.756 0.0198678 -6.79097 0
M  V30 5779 H 526.702 2.18103 -6.18682 0
M  V30 5780 H 526.619 1.03941 -7.48821 0
M  V30 5781 H 527.887 2.22844 -7.46968 0
M  V30 5782 N 532.116 1.54067 -0.331816 0
M  V30 5783 C 533.527 1.86059 0.15454 0
M  V30 5784 C 533.878 1.25331 1.50952 0
M  V30 5785 O 533.003 0.562441 2.08963 0
M  V30 5786 C 533.598 3.37581 0.287192 0
M  V30 5787 C 532.157 3.69493 0.717773 0
M  V30 5788 C 531.304 2.76863 -0.155569 0
M  V30 5789 H 534.255 1.48797 -0.55182 0
M  V30 5790 H 534.276 3.63744 1.11671 0
M  V30 5791 H 533.788 3.81751 -0.699131 0
M  V30 5792 H 531.889 3.3086 1.71354 0
M  V30 5793 H 532.002 4.76315 0.5158 0
M  V30 5794 H 530.366 2.51995 0.370213 0
M  V30 5795 H 531.149 3.23861 -1.13881 0
M  V30 5796 N 533.594 0.0601682 1.57485 0
M  V30 5797 C 534.824 -0.620037 1.97076 0
M  V30 5798 C 535.232 -1.64381 0.936784 0
M  V30 5799 O 534.575 -1.83497 -0.0863377 0
M  V30 5800 C 534.637 -1.35617 3.32939 0
M  V30 5801 C 534.301 -0.487208 4.54396 0
M  V30 5802 C 535.298 0.250428 5.19297 0
M  V30 5803 C 532.983 -0.415494 5.00579 0
M  V30 5804 C 534.977 1.04812 6.28723 0
M  V30 5805 C 532.664 0.385879 6.0988 0
M  V30 5806 C 533.662 1.11637 6.73815 0
M  V30 5807 O 533.35 1.90454 7.81014 0
M  V30 5808 H 533.082 -0.173664 0.653312 0
M  V30 5809 H 535.636 0.1256 2.05016 0
M  V30 5810 H 533.866 -2.14763 3.2158 0
M  V30 5811 H 535.555 -1.92749 3.57215 0
M  V30 5812 H 536.321 0.204546 4.84568 0
M  V30 5813 H 532.2 -0.973679 4.506 0
M  V30 5814 H 535.744 1.6188 6.78558 0
M  V30 5815 H 531.641 0.433366 6.44044 0
M  V30 5816 H 532.409 1.82762 7.97835 0
M  V30 5817 N 535.072 -1.5615 -0.213296 0
M  V30 5818 C 535.982 -1.96265 -1.28519 0
M  V30 5819 C 536.998 -0.86765 -1.50824 0
M  V30 5820 O 538.174 -1.17191 -1.63793 0
M  V30 5821 C 535.239 -2.27836 -2.61327 0
M  V30 5822 C 534.3 -3.50949 -2.47252 0
M  V30 5823 C 533.533 -3.81004 -3.73727 0
M  V30 5824 O 533.756 -3.12612 -4.77106 0
M  V30 5825 O 532.69 -4.74477 -3.70344 0
M  V30 5826 H 536.516 -2.87631 -0.974795 0
M  V30 5827 H 534.101 -1.43467 -0.416832 0
M  V30 5828 H 535.983 -2.49299 -3.39747 0
M  V30 5829 H 534.658 -1.39643 -2.9203 0
M  V30 5830 H 533.565 -3.34754 -1.67004 0
M  V30 5831 H 534.898 -4.39551 -2.21486 0
M  V30 5832 O 536.589 0.35868 -1.57467 0
M  V30 5833 H 537.28 1.00907 -1.6534 0
M  V30 END ATOM
M  V30 BEGIN BOND
M  V30 END BOND
M  V30 END CTAB
M  END
$$$$
