drugbank_target|O34598 Guanine deaminase (DB03366)
 OpenBabel12092120273D

  0  0  0     0  0            999 V3000
M  V30 BEGIN CTAB
M  V30 COUNTS 2372 2402 0 0 0
M  V30 BEGIN ATOM
M  V30 1 H -0.908 1.98254 -0.117106 0
M  V30 2 N 0 1.576 0 0
M  V30 3 C 0.933 2.03868 1.02534 0
M  V30 4 C 1.911 0.928543 1.3348 0
M  V30 5 O 3.095 1.19667 1.45644 0
M  V30 6 C 0.222 2.43627 2.35294 0
M  V30 7 C -0.732 3.65373 2.2001 0
M  V30 8 S 0.101 5.13292 1.52614 0
M  V30 9 C 1.257 5.56322 2.86805 0
M  V30 10 H 1.49 2.90518 0.631377 0
M  V30 11 H -0.977 1.52953 0.210867 0
M  V30 12 H 0.981 2.67203 3.11629 0
M  V30 13 H -0.358 1.57376 2.7183 0
M  V30 14 H -1.165 3.90944 3.18086 0
M  V30 15 H -1.563 3.418 1.51819 0
M  V30 16 H 0.729 5.58782 3.83104 0
M  V30 17 H 1.672 6.56266 2.65933 0
M  V30 18 H 2.08 4.83886 2.90714 0
M  V30 19 N 1.4781 -0.272755 1.55222 0
M  V30 20 C 2.4261 -1.35705 1.88909 0
M  V30 21 C 3.4201 -1.5112 0.765456 0
M  V30 22 O 4.6261 -1.52901 0.949802 0
M  V30 23 H 1.0011 -0.453868 0.59959 0
M  V30 24 H 2.9721 -1.04544 2.79487 0
M  V30 25 C 1.7211 -2.71049 2.17779 0
M  V30 26 H 1.0441 -2.59979 3.03728 0
M  V30 27 H 2.4841 -3.45858 2.45272 0
M  V30 28 C 0.9431 -3.22165 0.985473 0
M  V30 29 O 1.4731 -4.01096 0.220233 0
M  V30 30 N -0.3209 -2.7985 0.783108 0
M  V30 31 H -0.7739 -2.15775 1.40708 0
M  V30 32 H -0.8159 -3.14397 -0.0130392 0
M  V30 33 N 2.9562 -1.48159 -0.537278 0
M  V30 34 C 3.9062 -1.5854 -1.63857 0
M  V30 35 C 4.8902 -0.442969 -1.54682 0
M  V30 36 O 6.0822 -0.69401 -1.62827 0
M  V30 37 C 3.2112 -1.62144 -3.02596 0
M  V30 38 C 2.2972 -2.81841 -3.16901 0
M  V30 39 N 2.6882 -4.06337 -3.01204 0
M  V30 40 C 0.9862 -2.79021 -3.47942 0
M  V30 41 C 1.6872 -4.86606 -3.18731 0
M  V30 42 N 0.6632 -4.19288 -3.45974 0
M  V30 43 H 4.4652 -2.5255 -1.50319 0
M  V30 44 H 1.9792 -1.4443 -0.742555 0
M  V30 45 H 3.9762 -1.67674 -3.81695 0
M  V30 46 H 2.6362 -0.69245 -3.17231 0
M  V30 47 H 3.6472 -4.36888 -2.78117 0
M  V30 48 H 0.3242 -1.95347 -3.6898 0
M  V30 49 H 1.7142 -5.95385 -3.11394 0
M  V30 50 N 4.4343 0.785586 -1.36625 0
M  V30 51 C 5.3443 1.92964 -1.33425 0
M  V30 52 C 6.3603 1.72394 -0.235851 0
M  V30 53 O 7.5363 1.95866 -0.468878 0
M  V30 54 C 4.6013 3.27884 -1.12662 0
M  V30 55 C 3.6623 3.61204 -2.32013 0
M  V30 56 C 2.8953 4.89687 -2.12231 0
M  V30 57 O 3.1183 5.59704 -1.09945 0
M  V30 58 O 2.0523 5.21752 -3.00098 0
M  V30 59 H 5.8783 1.98613 -2.29753 0
M  V30 60 H 3.4633 0.926384 -1.17211 0
M  V30 61 H 5.3453 4.08614 -1.03016 0
M  V30 62 H 4.0203 3.23118 -0.193991 0
M  V30 63 H 2.9273 2.80765 -2.47228 0
M  V30 64 H 4.2603 3.70698 -3.23796 0
M  V30 65 N 5.9124 1.20967 1.01018 0
M  V30 66 C 7.1404 1.04956 1.78303 0
M  V30 67 C 7.5554 -0.400915 1.84494 0
M  V30 68 O 6.9124 -1.27826 1.30257 0
M  V30 69 C 6.9634 1.63403 3.22462 0
M  V30 70 O 6.6844 3.02775 3.16637 0
M  V30 71 C 8.1854 1.52432 4.16268 0
M  V30 72 H 5.4054 0.368858 0.560522 0
M  V30 73 H 7.9494 1.60193 1.27116 0
M  V30 74 H 6.1044 1.1227 3.70775 0
M  V30 75 H 6.5184 3.30626 4.07169 0
M  V30 76 H 7.9924 1.98078 5.15237 0
M  V30 77 H 8.4694 0.477875 4.36592 0
M  V30 78 H 9.0754 2.02787 3.73841 0
M  V30 79 N 7.3905 -1.2043 1.01659 0
M  V30 80 C 8.6375 -1.89797 0.705917 0
M  V30 81 C 8.9655 -1.78848 -0.764439 0
M  V30 82 O 8.2205 -1.16694 -1.57102 0
M  V30 83 C 8.5195 -3.40464 1.08714 0
M  V30 84 C 8.1855 -3.71614 2.5537 0
M  V30 85 C 6.8475 -3.79826 2.95441 0
M  V30 86 C 9.1995 -3.85915 3.50313 0
M  V30 87 C 6.5275 -3.99797 4.29394 0
M  V30 88 C 8.8795 -4.07396 4.83954 0
M  V30 89 C 7.5435 -4.13837 5.23732 0
M  V30 90 H 6.8135 -0.694518 0.258313 0
M  V30 91 H 9.4605 -1.42691 1.27717 0
M  V30 92 H 7.7655 -3.89385 0.434309 0
M  V30 93 H 9.4625 -3.92433 0.824461 0
M  V30 94 H 6.0525 -3.65822 2.23321 0
M  V30 95 H 10.2365 -3.78926 3.20513 0
M  V30 96 H 5.4925 -4.03018 4.59768 0
M  V30 97 H 9.6665 -4.17404 5.57447 0
M  V30 98 H 7.2935 -4.29064 6.27541 0
M  V30 99 N 8.8686 -0.792821 -1.36206 0
M  V30 100 C 9.7986 -0.207853 -2.32573 0
M  V30 101 C 10.7796 0.659055 -1.56813 0
M  V30 102 O 11.9646 0.592176 -1.84951 0
M  V30 103 C 9.0946 0.655449 -3.41059 0
M  V30 104 C 8.0486 -0.111842 -4.27854 0
M  V30 105 C 7.3746 0.872274 -5.27537 0
M  V30 106 C 8.6746 -1.30299 -5.05786 0
M  V30 107 H 10.3686 -1.01294 -2.81744 0
M  V30 108 H 7.9146 -0.48854 -1.3546 0
M  V30 109 H 9.8676 1.07464 -4.07467 0
M  V30 110 H 8.5916 1.49328 -2.90463 0
M  V30 111 H 7.2506 -0.512053 -3.63006 0
M  V30 112 H 6.8986 1.70523 -4.73214 0
M  V30 113 H 6.5986 0.363291 -5.86476 0
M  V30 114 H 8.1226 1.28996 -5.96818 0
M  V30 115 H 9.5366 -0.959379 -5.65216 0
M  V30 116 H 7.9336 -1.7455 -5.74154 0
M  V30 117 H 9.0036 -2.09663 -4.37229 0
M  V30 118 N 10.3467 1.47872 -0.545128 0
M  V30 119 C 11.2937 2.29849 0.2093 0
M  V30 120 C 12.2637 1.38313 0.919707 0
M  V30 121 O 13.4487 1.67277 0.917772 0
M  V30 122 C 10.5887 3.22019 1.24088 0
M  V30 123 C 9.7017 4.2864 0.537778 0
M  V30 124 C 8.8367 5.07973 1.5536 0
M  V30 125 C 7.8757 6.06381 0.8348 0
M  V30 126 N 7.0127 6.78717 1.79688 0
M  V30 127 H 11.8527 2.93845 -0.49591 0
M  V30 128 H 9.3897 1.44848 -0.256389 0
M  V30 129 H 11.3477 3.73868 1.85144 0
M  V30 130 H 9.9777 2.59914 1.91428 0
M  V30 131 H 9.0297 3.7994 -0.187046 0
M  V30 132 H 10.3417 4.98793 -0.0258907 0
M  V30 133 H 9.4957 5.63912 2.23803 0
M  V30 134 H 8.2347 4.37693 2.15118 0
M  V30 135 H 7.2397 5.49631 0.136388 0
M  V30 136 H 8.4647 6.78665 0.24313 0
M  V30 137 H 6.4107 6.11177 2.38326 0
M  V30 138 H 6.3277 7.44998 1.28505 0
M  V30 139 H 7.5957 7.39237 2.47282 0
M  V30 140 N 11.8248 0.280983 1.55075 0
M  V30 141 C 13.2408 -0.0729964 1.59433 0
M  V30 142 C 13.4408 -1.5411 1.29817 0
M  V30 143 O 12.4968 -2.29086 1.06187 0
M  V30 144 C 13.8098 0.306921 2.9913 0
M  V30 145 C 15.3578 0.254023 3.11968 0
M  V30 146 C 15.8328 0.608467 4.5394 0
M  V30 147 N 17.3238 0.560241 4.59799 0
M  V30 148 C 18.0588 0.80722 5.6769 0
M  V30 149 N 17.5548 1.11912 6.83701 0
M  V30 150 N 19.3478 0.735623 5.57266 0
M  V30 151 H 11.4988 1.238 1.7259 0
M  V30 152 H 13.7618 0.500547 0.805082 0
M  V30 153 H 13.4678 1.32816 3.25657 0
M  V30 154 H 13.3418 -0.349363 3.75579 0
M  V30 155 H 15.7288 -0.75794 2.852 0
M  V30 156 H 15.8098 0.944649 2.37718 0
M  V30 157 H 15.4538 1.61814 4.81434 0
M  V30 158 H 15.3838 -0.104013 5.26497 0
M  V30 159 H 17.8748 0.329288 3.76463 0
M  V30 160 H 18.1878 1.29409 7.61888 0
M  V30 161 H 16.5328 1.15695 6.85303 0
M  V30 162 H 19.7238 0.491752 4.6551 0
M  V30 163 H 19.8968 0.931482 6.4127 0
M  V30 164 N 13.3029 -1.57598 0.00835791 0
M  V30 165 C 14.2659 -2.07884 -0.965242 0
M  V30 166 C 15.2659 -0.989825 -1.26725 0
M  V30 167 O 16.4559 -1.25218 -1.21104 0
M  V30 168 C 13.5879 -2.52731 -2.28779 0
M  V30 169 H 14.7809 -2.95178 -0.530112 0
M  V30 170 H 12.3339 -1.54458 -0.239283 0
M  V30 171 H 13.0689 -1.68705 -2.76964 0
M  V30 172 H 12.8539 -3.32272 -2.08177 0
M  V30 173 H 14.3439 -2.91933 -2.98605 0
M  V30 174 N 14.781 0.264519 -1.55364 0
M  V30 175 C 16.027 0.99646 -1.76631 0
M  V30 176 C 16.36 1.85632 -0.570478 0
M  V30 177 O 15.635 1.89647 0.43175 0
M  V30 178 C 15.918 1.87187 -3.07625 0
M  V30 179 C 15.771 1.04138 -4.37579 0
M  V30 180 C 17.09 2.85749 -3.34717 0
M  V30 181 H 14.209 0.360841 -0.642622 0
M  V30 182 H 16.851 0.268218 -1.88097 0
M  V30 183 H 15.001 2.49279 -2.9798 0
M  V30 184 H 16.673 0.440517 -4.59192 0
M  V30 185 H 14.916 0.345115 -4.32425 0
M  V30 186 H 15.587 1.68729 -5.2558 0
M  V30 187 H 18.063 2.33793 -3.4421 0
M  V30 188 H 16.939 3.44136 -4.27623 0
M  V30 189 H 17.2 3.61311 -2.54768 0
M  V30 190 N 16.2591 1.48442 0.529413 0
M  V30 191 C 17.4871 1.60151 1.30994 0
M  V30 192 C 17.9021 0.261985 1.86973 0
M  V30 193 O 17.2591 -0.748805 1.66431 0
M  V30 194 C 17.3101 2.64854 2.46038 0
M  V30 195 O 17.0311 3.93608 1.92365 0
M  V30 196 C 18.5321 2.87007 3.37849 0
M  V30 197 H 15.7521 0.539971 0.398338 0
M  V30 198 H 18.2961 1.94273 0.638597 0
M  V30 199 H 16.4511 2.33589 3.09055 0
M  V30 200 H 16.8651 4.51055 2.67675 0
M  V30 201 H 18.3391 3.64068 4.14919 0
M  V30 202 H 18.8161 1.95852 3.93114 0
M  V30 203 H 19.4221 3.19579 2.80623 0
M  V30 204 N 17.7372 -0.778329 1.37039 0
M  V30 205 C 18.6672 -1.90546 1.34962 0
M  V30 206 C 19.6482 -1.68681 0.219274 0
M  V30 207 O 20.8332 -1.89634 0.418624 0
M  V30 208 C 17.9632 -3.27734 1.14925 0
M  V30 209 C 16.9172 -3.64147 2.24902 0
M  V30 210 C 16.2432 -4.99806 1.89996 0
M  V30 211 C 17.5432 -3.71579 3.67051 0
M  V30 212 H 19.2372 -1.92541 2.29277 0
M  V30 213 H 16.7832 -0.924948 1.10366 0
M  V30 214 H 18.7362 -4.06215 1.12104 0
M  V30 215 H 17.4602 -3.26154 0.170631 0
M  V30 216 H 16.1192 -2.8797 2.26868 0
M  V30 217 H 15.7672 -4.94759 0.906796 0
M  V30 218 H 15.4672 -5.25139 2.63634 0
M  V30 219 H 16.9912 -5.80694 1.88749 0
M  V30 220 H 18.4052 -4.40227 3.67251 0
M  V30 221 H 16.8022 -4.08405 4.39688 0
M  V30 222 H 17.8722 -2.72404 4.01154 0
M  V30 223 N 19.2153 -1.21501 -1.00376 0
M  V30 224 C 20.1783 -0.976927 -2.07337 0
M  V30 225 C 21.1783 0.0525322 -1.60714 0
M  V30 226 O 22.3683 -0.184869 -1.73216 0
M  V30 227 C 19.5003 -0.473423 -3.37597 0
M  V30 228 H 20.6933 -1.92587 -2.29892 0
M  V30 229 H 18.2463 -1.03217 -1.17371 0
M  V30 230 H 18.9813 0.480379 -3.20722 0
M  V30 231 H 18.7663 -1.216 -3.72768 0
M  V30 232 H 20.2563 -0.32675 -4.1632 0
M  V30 233 N 20.6934 1.19889 -1.02296 0
M  V30 234 C 21.9334 1.91125 -0.724602 0
M  V30 235 C 22.2974 1.77464 0.732835 0
M  V30 236 O 23.4984 2.43241 1.144 0
M  V30 237 C 21.7694 3.38187 -1.15604 0
M  V30 238 S 23.3284 4.27702 -0.980621 0
M  V30 239 H 20.1464 0.66018 -0.263976 0
M  V30 240 H 22.7484 1.44978 -1.31155 0
M  V30 241 H 21.4524 3.45653 -2.21251 0
M  V30 242 H 20.9834 3.89363 -0.562131 0
M  V30 243 H 22.9984 4.96073 0.112225 0
M  V30 244 N 22.1715 0.800033 1.35784 0
M  V30 245 C 23.0815 0.207204 2.33683 0
M  V30 246 C 24.0975 -0.64631 1.61551 0
M  V30 247 O 25.2735 -0.559604 1.93469 0
M  V30 248 C 22.3385 -0.639659 3.40748 0
M  V30 249 C 21.3995 0.233585 4.28664 0
M  V30 250 C 20.6325 -0.572954 5.30616 0
M  V30 251 O 20.8555 -1.80816 5.40982 0
M  V30 252 O 19.7895 0.0327285 6.01891 0
M  V30 253 H 23.6155 1.01692 2.86169 0
M  V30 254 H 21.2005 0.561691 1.38439 0
M  V30 255 H 23.0825 -1.12223 4.06182 0
M  V30 256 H 21.7575 -1.42708 2.90544 0
M  V30 257 H 20.6645 0.763147 3.66233 0
M  V30 258 H 21.9975 0.984784 4.82248 0
M  V30 259 N 23.6496 -1.47581 0.552962 0
M  V30 260 C 24.8976 -2.02082 0.0272703 0
M  V30 261 C 25.2186 -1.4301 -1.32563 0
M  V30 262 O 24.4886 -0.603745 -1.86365 0
M  V30 263 H 23.0686 -0.746966 0.00709182 0
M  V30 264 H 25.7306 -1.81033 0.722008 0
M  V30 265 H 24.8266 -3.12034 -0.0639951 0
M  V30 266 N 25.1277 -0.289203 -1.54924 0
M  V30 267 C 26.3737 0.323998 -2.00195 0
M  V30 268 C 26.7067 1.54441 -1.17735 0
M  V30 269 O 25.9817 1.92875 -0.250878 0
M  V30 270 C 26.2647 0.692276 -3.53383 0
M  V30 271 C 26.1177 -0.536457 -4.46589 0
M  V30 272 C 27.4367 1.52335 -4.12895 0
M  V30 273 H 24.5557 0.116289 -0.727768 0
M  V30 274 H 27.1977 -0.398954 -1.85764 0
M  V30 275 H 25.3477 1.30822 -3.65811 0
M  V30 276 H 27.0197 -1.17499 -4.46085 0
M  V30 277 H 25.2627 -1.17192 -4.1767 0
M  V30 278 H 25.9337 -0.234806 -5.515 0
M  V30 279 H 28.4097 1.00302 -4.0383 0
M  V30 280 H 27.2857 1.74982 -5.20262 0
M  V30 281 H 27.5467 2.50886 -3.64018 0
M  V30 282 N 26.6058 1.57591 -0.0167156 0
M  V30 283 C 27.5538 2.10604 0.987353 0
M  V30 284 C 28.5478 1.02977 1.34507 0
M  V30 285 O 29.7538 1.21425 1.32875 0
M  V30 286 H 26.1288 0.672695 0.336134 0
M  V30 287 H 28.0998 2.93925 0.514817 0
M  V30 288 C 26.8488 2.6382 2.26483 0
M  V30 289 H 26.1718 3.46278 1.99829 0
M  V30 290 H 27.6118 3.04573 2.94977 0
M  V30 291 C 26.0708 1.55992 2.9861 0
M  V30 292 O 26.6008 0.952521 3.90243 0
M  V30 293 N 24.8068 1.28335 2.60727 0
M  V30 294 H 24.3538 1.77914 1.86291 0
M  V30 295 H 24.3118 0.564115 3.09298 0
M  V30 296 N 28.0839 -0.256276 1.55502 0
M  V30 297 C 29.0469 -1.30047 1.88734 0
M  V30 298 C 30.0469 -1.4154 0.763086 0
M  V30 299 O 31.2369 -1.40403 1.03115 0
M  V30 300 C 28.3689 -2.67953 2.10747 0
M  V30 301 H 29.5619 -1.01802 2.82093 0
M  V30 302 H 27.1149 -0.495134 1.4825 0
M  V30 303 H 27.8499 -3.01351 1.19825 0
M  V30 304 H 27.6349 -2.60993 2.92617 0
M  V30 305 H 29.1249 -3.43368 2.37673 0
M  V30 306 N 29.562 -1.4872 -0.521534 0
M  V30 307 C 30.81 -1.56857 -1.27437 0
M  V30 308 C 31.131 -0.247982 -1.93417 0
M  V30 309 O 30.401 0.731151 -1.81744 0
M  V30 310 H 28.981 -0.577885 -0.473347 0
M  V30 311 H 31.643 -1.85233 -0.606205 0
M  V30 312 H 30.739 -2.35402 -2.0492 0
M  V30 313 N 31.0401 0.771051 -1.3745 0
M  V30 314 C 32.2891 1.52491 -1.3202 0
M  V30 315 C 32.6021 1.9538 0.0927347 0
M  V30 316 O 33.8081 2.70159 0.269503 0
M  V30 317 C 32.2641 2.75366 -2.31736 0
M  V30 318 C 31.8721 2.39573 -3.78562 0
M  V30 319 C 33.6161 3.53307 -2.35318 0
M  V30 320 C 31.5231 3.58954 -4.70007 0
M  V30 321 H 30.4531 0.572506 -0.490666 0
M  V30 322 H 33.1041 0.844474 -1.62914 0
M  V30 323 H 31.4861 3.45303 -1.93861 0
M  V30 324 H 32.6601 1.77415 -4.25277 0
M  V30 325 H 30.9751 1.74805 -3.77932 0
M  V30 326 H 33.5721 4.42039 -3.00842 0
M  V30 327 H 33.9151 3.93217 -1.36698 0
M  V30 328 H 34.4481 2.90367 -2.71904 0
M  V30 329 H 31.1871 3.24125 -5.69757 0
M  V30 330 H 30.7071 4.20214 -4.27996 0
M  V30 331 H 32.3861 4.25758 -4.87175 0
M  V30 332 N 32.5182 1.22032 0.997298 0
M  V30 333 C 33.7662 1.04016 1.73278 0
M  V30 334 C 34.0872 -0.426255 1.90284 0
M  V30 335 O 33.3572 -1.30694 1.45931 0
M  V30 336 H 31.9372 0.381897 0.642 0
M  V30 337 H 34.5992 1.5347 1.20137 0
M  V30 338 H 33.6952 1.51441 2.72896 0
M  V30 339 N 33.9963 -1.19345 1.0293 0
M  V30 340 C 35.2443 -1.88665 0.724574 0
M  V30 341 C 35.5653 -1.80036 -0.749144 0
M  V30 342 O 34.8353 -1.2111 -1.53978 0
M  V30 343 H 33.4153 -0.698406 0.265025 0
M  V30 344 H 36.0773 -1.44885 1.30362 0
M  V30 345 H 35.1733 -2.94987 1.01926 0
M  V30 346 N 35.4744 -0.807222 -1.35358 0
M  V30 347 C 36.8854 -0.44876 -1.81226 0
M  V30 348 C 37.2364 1.02929 -1.67033 0
M  V30 349 O 36.3614 1.79991 -1.20133 0
M  V30 350 C 36.9564 -0.807774 -3.2903 0
M  V30 351 C 35.5154 -0.501901 -3.73039 0
M  V30 352 C 34.6624 -1.03304 -2.57339 0
M  V30 353 H 37.6134 -0.998808 -1.23327 0
M  V30 354 H 37.6344 -0.10554 -3.80354 0
M  V30 355 H 37.1464 -1.88357 -3.39328 0
M  V30 356 H 35.2474 0.565128 -3.68289 0
M  V30 357 H 35.3604 -1.03497 -4.67787 0
M  V30 358 H 33.7244 -0.455339 -2.50597 0
M  V30 359 H 34.5074 -2.11496 -2.70415 0
M  V30 360 N 36.9525 1.47285 -0.560781 0
M  V30 361 C 38.1995 2.02464 -0.038062 0
M  V30 362 C 38.5275 1.43474 1.31322 0
M  V30 363 O 37.7825 0.581311 1.86867 0
M  V30 364 C 38.0815 3.57258 0.100784 0
M  V30 365 C 37.7475 4.35184 -1.18007 0
M  V30 366 C 36.4095 4.56194 -1.53103 0
M  V30 367 C 38.7615 4.80098 -2.02867 0
M  V30 368 C 36.0895 5.19367 -2.729 0
M  V30 369 C 38.4415 5.44593 -3.21871 0
M  V30 370 C 37.1055 5.63835 -3.57276 0
M  V30 371 H 36.3755 0.740869 -0.0139279 0
M  V30 372 H 39.0225 1.76916 -0.733012 0
M  V30 373 H 37.3275 3.81819 0.878724 0
M  V30 374 H 39.0245 3.97606 0.520639 0
M  V30 375 H 35.6145 4.19113 -0.8968 0
M  V30 376 H 39.7985 4.63642 -1.7706 0
M  V30 377 H 35.0545 5.32459 -3.00496 0
M  V30 378 H 39.2285 5.78358 -3.87911 0
M  V30 379 H 36.8555 6.12557 -4.50197 0
M  V30 380 N 38.4306 0.297415 1.54768 0
M  V30 381 C 39.6786 -0.312295 1.99673 0
M  V30 382 C 39.9996 -1.54686 1.18732 0
M  V30 383 O 39.2696 -1.93854 0.282382 0
M  V30 384 H 37.8496 -0.118381 0.73756 0
M  V30 385 H 40.5116 0.407915 1.90583 0
M  V30 386 H 39.6076 -0.586813 3.06534 0
M  V30 387 N 39.9087 -1.5758 0.0250728 0
M  V30 388 C 40.8717 -2.08896 -0.943139 0
M  V30 389 C 41.8717 -1.00321 -1.25668 0
M  V30 390 O 43.0617 -1.26495 -1.19769 0
M  V30 391 C 40.1937 -2.55143 -2.26086 0
M  V30 392 H 41.3867 -2.95723 -0.498775 0
M  V30 393 H 38.9397 -1.54703 -0.222888 0
M  V30 394 H 39.6747 -1.71633 -2.75159 0
M  V30 395 H 39.4597 -3.34461 -2.04641 0
M  V30 396 H 40.9497 -2.95083 -2.95492 0
M  V30 397 N 41.3868 0.248026 -1.55636 0
M  V30 398 C 42.6328 0.97767 -1.77678 0
M  V30 399 C 42.9658 1.85016 -0.590135 0
M  V30 400 O 42.2408 1.90095 0.411611 0
M  V30 401 C 42.5238 1.83914 -3.09593 0
M  V30 402 C 42.3768 0.99491 -4.38659 0
M  V30 403 C 43.6958 2.82183 -3.37729 0
M  V30 404 H 40.8148 0.354005 -0.646413 0
M  V30 405 H 43.4568 0.248253 -1.88371 0
M  V30 406 H 41.6068 2.46104 -3.00608 0
M  V30 407 H 43.2788 0.391789 -4.59633 0
M  V30 408 H 41.5218 0.299231 -4.32767 0
M  V30 409 H 42.1928 1.63145 -5.2734 0
M  V30 410 H 44.6688 2.30129 -3.4667 0
M  V30 411 H 43.5448 3.39582 -4.31249 0
M  V30 412 H 43.8058 3.58588 -2.58586 0
M  V30 413 N 42.8649 1.48995 0.513639 0
M  V30 414 C 44.1139 1.57093 1.2651 0
M  V30 415 C 44.4269 0.257091 1.93903 0
M  V30 416 O 45.6329 0.216478 2.70636 0
M  V30 417 C 44.0889 2.77118 2.29638 0
M  V30 418 C 43.6969 4.15209 1.68241 0
M  V30 419 C 45.4409 2.94538 3.05692 0
M  V30 420 C 43.3479 5.26474 2.69406 0
M  V30 421 H 42.2779 0.584876 0.475854 0
M  V30 422 H 44.9289 1.7536 0.540487 0
M  V30 423 H 43.3109 2.52319 3.05207 0
M  V30 424 H 44.4849 4.50094 0.987505 0
M  V30 425 H 42.7999 4.03042 1.04623 0
M  V30 426 H 45.3969 3.74832 3.8132 0
M  V30 427 H 45.7399 2.04614 3.62545 0
M  V30 428 H 46.2729 3.19316 2.37238 0
M  V30 429 H 43.0119 6.18417 2.17351 0
M  V30 430 H 42.5319 4.96058 3.37175 0
M  V30 431 H 44.2109 5.55277 3.32078 0
M  V30 432 N 44.343 -0.763751 1.37857 0
M  V30 433 C 45.589 -1.52483 1.33704 0
M  V30 434 C 45.922 -1.94051 -0.0759612 0
M  V30 435 O 45.197 -1.64675 -1.03501 0
M  V30 436 C 45.48 -2.78441 2.28348 0
M  V30 437 C 45.333 -2.43075 3.78463 0
M  V30 438 C 46.652 -3.80415 2.21298 0
M  V30 439 H 43.771 -0.553169 0.487005 0
M  V30 440 H 46.413 -0.875562 1.68624 0
M  V30 441 H 44.563 -3.33842 1.987 0
M  V30 442 H 46.235 -1.93527 4.18742 0
M  V30 443 H 44.478 -1.75666 3.96641 0
M  V30 444 H 45.149 -3.33149 4.40132 0
M  V30 445 H 47.625 -3.34527 2.47449 0
M  V30 446 H 46.501 -4.66257 2.89647 0
M  V30 447 H 46.762 -4.25262 1.20849 0
M  V30 448 N 45.8211 -1.22559 -0.990812 0
M  V30 449 C 46.7681 -0.997519 -2.0813 0
M  V30 450 C 47.7381 0.0814702 -1.659 0
M  V30 451 O 48.9231 -0.0685424 -1.90677 0
M  V30 452 C 46.0631 -0.583615 -3.40129 0
M  V30 453 C 45.1761 -1.7336 -3.9569 0
M  V30 454 C 44.3111 -1.26748 -5.15857 0
M  V30 455 C 43.3501 -2.38888 -5.63559 0
M  V30 456 N 42.4871 -1.93308 -6.74964 0
M  V30 457 H 47.3271 -1.93099 -2.26973 0
M  V30 458 H 44.8641 -0.962114 -1.11273 0
M  V30 459 H 46.8221 -0.324801 -4.15934 0
M  V30 460 H 45.4521 0.312845 -3.2128 0
M  V30 461 H 44.5041 -2.10669 -3.16738 0
M  V30 462 H 45.8161 -2.57704 -4.27071 0
M  V30 463 H 44.9701 -0.966173 -5.98957 0
M  V30 464 H 43.7091 -0.394272 -4.86104 0
M  V30 465 H 42.7141 -2.69805 -4.79046 0
M  V30 466 H 43.9391 -3.26728 -5.95336 0
M  V30 467 H 41.8851 -1.08352 -6.4699 0
M  V30 468 H 41.8021 -2.71217 -7.05675 0
M  V30 469 H 43.0701 -1.66252 -7.61564 0
M  V30 470 N 47.2992 1.18797 -1.03562 0
M  V30 471 C 48.5762 1.84469 -0.650434 0
M  V30 472 C 48.9562 1.92319 0.870433 0
M  V30 473 O 48.3042 1.44528 1.76986 0
M  V30 474 C 48.5142 3.2306 -1.32036 0
M  V30 475 C 49.8622 3.9915 -1.44792 0
M  V30 476 O 50.8862 3.32481 -1.27806 0
M  V30 477 O 49.7452 5.18587 -1.72423 0
M  V30 478 H 46.8392 0.795251 -0.226946 0
M  V30 479 H 49.3852 1.26231 -1.13419 0
M  V30 480 H 48.1572 3.1222 -2.3587 0
M  V30 481 H 47.7802 3.88949 -0.8249 0
M  V30 482 N 48.7773 0.814389 1.34928 0
M  V30 483 C 50.0253 0.397636 1.9815 0
M  V30 484 C 50.3463 -1.04069 1.64908 0
M  V30 485 O 49.6163 -1.72121 0.93548 0
M  V30 486 H 48.1963 0.144043 0.732981 0
M  V30 487 H 50.8583 1.04195 1.6471 0
M  V30 488 H 49.9543 0.509688 3.0791 0
M  V30 489 N 50.2554 -1.46986 0.568584 0
M  V30 490 C 51.2184 -2.28624 -0.162366 0
M  V30 491 C 52.2184 -1.37596 -0.832103 0
M  V30 492 O 53.4084 -1.60115 -0.68622 0
M  V30 493 C 50.5404 -3.17596 -1.23878 0
M  V30 494 H 51.7334 -2.94722 0.554899 0
M  V30 495 H 49.2864 -1.52863 0.325976 0
M  V30 496 H 50.0214 -2.56214 -1.98808 0
M  V30 497 H 49.8064 -3.846 -0.763219 0
M  V30 498 H 51.2964 -3.79078 -1.75185 0
M  V30 499 N 51.7335 -0.305618 -1.54608 0
M  V30 500 C 52.9825 0.303098 -1.9941 0
M  V30 501 C 53.2955 1.54648 -1.19764 0
M  V30 502 O 54.5015 2.23007 -1.54855 0
M  V30 503 C 52.9575 0.590588 -3.55021 0
M  V30 504 C 52.5655 -0.634719 -4.43481 0
M  V30 505 C 54.3095 1.16025 -4.08336 0
M  V30 506 C 52.2165 -0.320126 -5.90533 0
M  V30 507 H 51.1465 0.117031 -0.744862 0
M  V30 508 H 53.7975 -0.415045 -1.78745 0
M  V30 509 H 52.1795 1.36845 -3.71604 0
M  V30 510 H 53.3535 -1.41079 -4.38672 0
M  V30 511 H 51.6685 -1.12333 -4.00962 0
M  V30 512 H 54.2655 1.40994 -5.15776 0
M  V30 513 H 54.6085 2.10397 -3.5922 0
M  V30 514 H 55.1415 0.443985 -3.95315 0
M  V30 515 H 51.8805 -1.23254 -6.43808 0
M  V30 516 H 51.4005 0.418579 -5.98338 0
M  V30 517 H 53.0795 0.0766241 -6.46955 0
M  V30 518 N 53.2116 1.57565 -0.0334293 0
M  V30 519 C 54.4606 1.91155 0.643639 0
M  V30 520 C 54.7736 0.91192 1.73042 0
M  V30 521 O 55.9796 1.13923 2.46442 0
M  V30 522 C 54.4356 3.39443 1.1961 0
M  V30 523 C 54.0436 4.47774 0.142381 0
M  V30 524 C 55.7876 3.82094 1.84944 0
M  V30 525 C 53.6946 5.87162 0.706727 0
M  V30 526 H 52.6246 0.713368 0.244176 0
M  V30 527 H 55.2756 1.8323 -0.0994323 0
M  V30 528 H 53.6576 3.42313 1.99092 0
M  V30 529 H 54.8316 4.56469 -0.630296 0
M  V30 530 H 53.1466 4.14352 -0.412446 0
M  V30 531 H 55.7436 4.83591 2.2813 0
M  V30 532 H 56.0866 3.17386 2.69392 0
M  V30 533 H 56.6196 3.81665 1.12145 0
M  V30 534 H 53.3586 6.55424 -0.0997178 0
M  V30 535 H 52.8786 5.82064 1.44779 0
M  V30 536 H 54.5576 6.35866 1.19514 0
M  V30 537 N 54.6897 -0.239769 1.55765 0
M  V30 538 C 55.6527 -1.28038 1.90103 0
M  V30 539 C 56.6527 -1.40723 0.778055 0
M  V30 540 O 57.8427 -1.39301 1.04599 0
M  V30 541 C 54.9747 -2.65702 2.13577 0
M  V30 542 H 56.1677 -0.988048 2.83157 0
M  V30 543 H 53.7207 -0.479382 1.48767 0
M  V30 544 H 54.4557 -3.00063 1.23015 0
M  V30 545 H 54.2407 -2.57875 2.95369 0
M  V30 546 H 55.7307 -3.40828 2.41301 0
M  V30 547 N 56.1678 -1.49265 -0.50573 0
M  V30 548 C 57.0778 -1.68312 -1.63427 0
M  V30 549 C 58.0938 -0.565682 -1.64548 0
M  V30 550 O 59.2698 -0.839801 -1.83055 0
M  V30 551 C 56.3348 -1.74107 -2.99813 0
M  V30 552 C 55.3958 -2.97653 -3.09356 0
M  V30 553 C 54.6288 -3.03163 -4.39236 0
M  V30 554 O 54.8518 -2.16396 -5.27758 0
M  V30 555 O 53.7858 -3.9558 -4.53652 0
M  V30 556 H 57.6118 -2.63907 -1.50289 0
M  V30 557 H 55.1968 -1.32951 -0.681502 0
M  V30 558 H 57.0788 -1.803 -3.80881 0
M  V30 559 H 55.7538 -0.816901 -3.13223 0
M  V30 560 H 54.6608 -2.96981 -2.27493 0
M  V30 561 H 55.9938 -3.89535 -3.00871 0
M  V30 562 N 57.6459 0.756429 -1.3826 0
M  V30 563 C 58.8939 1.51248 -1.34047 0
M  V30 564 C 59.2149 1.94875 0.0698372 0
M  V30 565 O 58.4849 1.67436 1.01696 0
M  V30 566 H 57.0649 0.561018 -0.493222 0
M  V30 567 H 59.7269 0.899347 -1.7291 0
M  V30 568 H 58.8229 2.40472 -1.98947 0
M  V30 569 N 59.124 1.23083 0.984299 0
M  V30 570 C 60.056 0.96636 2.07832 0
M  V30 571 C 61.069 -0.0582135 1.62696 0
M  V30 572 O 62.258 0.176843 1.77622 0
M  V30 573 C 59.358 0.433397 3.36117 0
M  V30 574 C 58.531 1.51722 4.10243 0
M  V30 575 C 57.59 0.989821 5.16807 0
M  V30 576 O 56.616 1.67794 5.43906 0
M  V30 577 N 57.818 -0.184367 5.80207 0
M  V30 578 H 60.583 1.90824 2.31098 0
M  V30 579 H 58.144 1.13888 1.1507 0
M  V30 580 H 60.136 0.065699 4.04647 0
M  V30 581 H 58.706 -0.413806 3.09849 0
M  V30 582 H 57.926 2.05786 3.36223 0
M  V30 583 H 59.214 2.24619 4.56534 0
M  V30 584 H 58.612 -0.760062 5.60571 0
M  V30 585 H 57.169 -0.493366 6.4993 0
M  V30 586 N 60.6021 -1.18246 1.0419 0
M  V30 587 C 61.5501 -2.23968 0.627792 0
M  V30 588 C 62.5441 -1.65828 -0.346019 0
M  V30 589 O 63.7501 -1.78733 -0.213175 0
M  V30 590 H 60.1251 -0.728939 0.184802 0
M  V30 591 H 62.0961 -2.56202 1.52981 0
M  V30 592 C 60.8451 -3.47699 0.00796591 0
M  V30 593 H 60.1681 -3.92734 0.748347 0
M  V30 594 H 61.6081 -4.23294 -0.24455 0
M  V30 595 C 60.0671 -3.13153 -1.24246 0
M  V30 596 O 60.5971 -3.27003 -2.33307 0
M  V30 597 N 58.8031 -2.67467 -1.13622 0
M  V30 598 H 58.3501 -2.56396 -0.248734 0
M  V30 599 H 58.3081 -2.44724 -1.97377 0
M  V30 600 N 62.0802 -0.821533 -1.34494 0
M  V30 601 C 63.0282 -0.230702 -2.31453 0
M  V30 602 C 64.0222 0.627793 -1.57338 0
M  V30 603 O 65.2282 0.519288 -1.72347 0
M  V30 604 H 61.6032 -0.0558577 -0.749923 0
M  V30 605 H 63.5742 -1.06332 -2.78812 0
M  V30 606 C 62.3232 0.59391 -3.4259 0
M  V30 607 H 61.6462 -0.0573588 -3.99759 0
M  V30 608 H 63.0862 0.973446 -4.12674 0
M  V30 609 C 61.5452 1.76568 -2.86924 0
M  V30 610 O 62.0752 2.8638 -2.81691 0
M  V30 611 N 60.2812 1.58198 -2.43766 0
M  V30 612 H 59.8282 0.68872 -2.48222 0
M  V30 613 H 59.7862 2.36752 -2.06871 0
M  V30 614 N 63.5583 1.46682 -0.576371 0
M  V30 615 C 64.8043 2.02712 -0.0596221 0
M  V30 616 C 65.1373 1.44765 1.29448 0
M  V30 617 O 64.4123 0.610355 1.84675 0
M  V30 618 C 64.6953 3.60098 0.0129503 0
M  V30 619 C 64.5483 4.28441 -1.3696 0
M  V30 620 C 65.8673 4.34224 0.71678 0
M  V30 621 H 62.9863 0.736637 -0.0231407 0
M  V30 622 H 65.6283 1.74898 -0.742351 0
M  V30 623 H 63.7783 3.83926 0.594378 0
M  V30 624 H 65.4503 4.15896 -1.9957 0
M  V30 625 H 63.6933 3.8805 -1.93907 0
M  V30 626 H 64.3643 5.3716 -1.27135 0
M  V30 627 H 66.8403 4.15503 0.222908 0
M  V30 628 H 65.7163 5.43936 0.73657 0
M  V30 629 H 65.9773 4.04823 1.77682 0
M  V30 630 N 65.0364 0.313813 1.54444 0
M  V30 631 C 66.2644 -0.293918 2.04802 0
M  V30 632 C 66.6794 -1.46537 1.19047 0
M  V30 633 O 66.0364 -1.81182 0.218939 0
M  V30 634 C 66.0874 -0.737806 3.53891 0
M  V30 635 O 65.8084 0.387038 4.36387 0
M  V30 636 C 67.3094 -1.40936 4.203 0
M  V30 637 H 64.5294 -0.0620057 0.668129 0
M  V30 638 H 67.0734 0.457169 1.99324 0
M  V30 639 H 65.2284 -1.43889 3.59687 0
M  V30 640 H 65.6424 0.0391274 5.24485 0
M  V30 641 H 67.1164 -1.67099 5.26101 0
M  V30 642 H 67.5934 -2.35355 3.70816 0
M  V30 643 H 68.1994 -0.751117 4.18615 0
M  V30 644 N 66.5145 -1.57545 0.0417849 0
M  V30 645 C 67.7425 -1.96624 -0.643928 0
M  V30 646 C 68.1575 -0.918897 -1.64929 0
M  V30 647 O 67.5145 0.0979323 -1.82237 0
M  V30 648 C 67.5655 -3.35781 -1.33914 0
M  V30 649 O 67.2865 -4.365 -0.374048 0
M  V30 650 C 68.7875 -3.89566 -2.1155 0
M  V30 651 H 66.0075 -0.647316 -0.176702 0
M  V30 652 H 68.5515 -2.04229 0.105304 0
M  V30 653 H 66.7065 -3.29357 -2.03968 0
M  V30 654 H 67.1205 -5.17248 -0.869179 0
M  V30 655 H 68.5945 -4.89242 -2.55628 0
M  V30 656 H 69.0715 -3.24488 -2.9598 0
M  V30 657 H 69.6775 -3.99298 -1.46427 0
M  V30 658 N 67.9926 0.231505 -1.5589 0
M  V30 659 C 69.2176 0.978689 -1.82856 0
M  V30 660 C 69.6426 1.77559 -0.620846 0
M  V30 661 O 69.0006 1.76119 0.430305 0
M  V30 662 C 69.0486 1.87997 -3.07716 0
M  V30 663 O 68.1526 2.97393 -2.85712 0
M  V30 664 H 67.4936 0.277663 -0.603158 0
M  V30 665 H 70.0236 0.24783 -2.03093 0
M  V30 666 H 70.0336 2.2917 -3.37558 0
M  V30 667 H 68.7086 1.29417 -3.95252 0
M  V30 668 H 67.2856 2.60238 -2.67078 0
M  V30 669 N 69.4707 1.49531 0.497807 0
M  V30 670 C 70.4187 1.66926 1.61983 0
M  V30 671 C 71.4127 0.535167 1.60724 0
M  V30 672 O 72.6187 0.714896 1.65195 0
M  V30 673 H 68.9937 0.526415 0.537021 0
M  V30 674 H 70.9647 2.61098 1.44465 0
M  V30 675 C 69.7137 1.75602 3.00099 0
M  V30 676 H 69.0367 2.62244 3.01775 0
M  V30 677 H 70.4767 1.91807 3.78135 0
M  V30 678 C 68.9357 0.501543 3.33146 0
M  V30 679 O 69.4657 -0.371342 3.9998 0
M  V30 680 N 67.6717 0.363531 2.88317 0
M  V30 681 H 67.2187 1.07485 2.34104 0
M  V30 682 H 67.1767 -0.474728 3.10795 0
M  V30 683 N 70.9488 -0.749086 1.3866 0
M  V30 684 C 72.2258 -1.4992 1.25632 0
M  V30 685 C 72.6058 -2.10633 -0.140317 0
M  V30 686 O 71.9538 -1.97437 -1.15025 0
M  V30 687 C 72.1638 -2.56195 2.36992 0
M  V30 688 C 73.5118 -3.22972 2.75634 0
M  V30 689 O 74.5358 -2.66502 2.36337 0
M  V30 690 O 73.3948 -4.25122 3.43415 0
M  V30 691 H 70.4888 -0.665067 0.491544 0
M  V30 692 H 73.0348 -0.784113 1.50498 0
M  V30 693 H 71.8068 -2.09612 3.30422 0
M  V30 694 H 71.4298 -3.35279 2.13714 0
M  V30 695 N 72.4269 -1.23603 -0.977757 0
M  V30 696 C 73.8379 -1.06424 -1.53398 0
M  V30 697 C 74.1889 0.367578 -1.92726 0
M  V30 698 O 73.3139 1.25465 -1.76316 0
M  V30 699 C 73.9089 -1.92568 -2.78753 0
M  V30 700 C 72.4679 -1.79642 -3.30765 0
M  V30 701 C 71.6149 -1.88111 -2.03739 0
M  V30 702 H 74.5659 -1.37227 -0.797152 0
M  V30 703 H 74.5869 -1.45203 -3.51705 0
M  V30 704 H 74.0989 -2.96771 -2.50098 0
M  V30 705 H 72.1999 -0.782325 -3.64294 0
M  V30 706 H 72.3129 -2.63174 -4.00345 0
M  V30 707 H 70.6769 -1.31723 -2.17994 0
M  V30 708 H 71.4599 -2.93875 -1.77461 0
M  V30 709 N 73.905 1.17692 -1.04816 0
M  V30 710 C 75.133 1.91786 -0.776254 0
M  V30 711 C 75.548 1.76604 0.667577 0
M  V30 712 O 74.905 1.10067 1.45573 0
M  V30 713 C 74.956 3.42967 -1.14263 0
M  V30 714 O 74.677 3.57678 -2.52978 0
M  V30 715 C 76.178 4.34144 -0.896311 0
M  V30 716 H 73.398 0.608624 -0.282519 0
M  V30 717 H 75.942 1.49268 -1.39783 0
M  V30 718 H 74.097 3.83245 -0.565874 0
M  V30 719 H 74.511 4.51319 -2.67229 0
M  V30 720 H 75.985 5.38744 -1.20244 0
M  V30 721 H 76.462 4.38876 0.168636 0
M  V30 722 H 77.068 3.99574 -1.45672 0
M  V30 723 N 75.3831 0.828654 1.34056 0
M  V30 724 C 76.3461 0.259927 2.27721 0
M  V30 725 C 77.3461 -0.565478 1.50529 0
M  V30 726 O 78.5361 -0.38075 1.69988 0
M  V30 727 C 75.6681 -0.634944 3.34935 0
M  V30 728 H 76.8611 1.0863 2.79534 0
M  V30 729 H 74.4141 0.600951 1.44285 0
M  V30 730 H 75.1491 -1.48416 2.88346 0
M  V30 731 H 74.9341 -0.0444999 3.92075 0
M  V30 732 H 76.4241 -1.02648 4.04788 0
M  V30 733 N 76.8612 -1.46375 0.584142 0
M  V30 734 C 77.8112 -2.27371 -0.169232 0
M  V30 735 C 78.7952 -1.35955 -0.860523 0
M  V30 736 O 79.9872 -1.60119 -0.754382 0
M  V30 737 C 77.1162 -3.22334 -1.18134 0
M  V30 738 C 76.2022 -4.21235 -0.492088 0
M  V30 739 N 76.5932 -5.03766 0.453129 0
M  V30 740 C 74.8912 -4.39773 -0.742652 0
M  V30 741 C 75.5922 -5.75366 0.85609 0
M  V30 742 N 74.5682 -5.43214 0.204926 0
M  V30 743 H 78.3702 -2.88572 0.557097 0
M  V30 744 H 75.8842 -1.57242 0.406042 0
M  V30 745 H 77.8812 -3.79071 -1.73525 0
M  V30 746 H 76.5412 -2.62693 -1.90847 0
M  V30 747 H 77.5522 -5.11227 0.828723 0
M  V30 748 H 74.2292 -3.91279 -1.45625 0
M  V30 749 H 75.6192 -6.5172 1.63434 0
M  V30 750 N 78.3393 -0.321999 -1.54275 0
M  V30 751 C 79.3023 0.531975 -2.22941 0
M  V30 752 C 80.3023 1.04478 -1.22234 0
M  V30 753 O 81.4923 0.937452 -1.46825 0
M  V30 754 C 78.6243 1.73874 -2.93224 0
M  V30 755 H 79.8173 -0.0682612 -2.99822 0
M  V30 756 H 77.3703 -0.0730644 -1.56129 0
M  V30 757 H 78.1053 2.37825 -2.20476 0
M  V30 758 H 77.8903 1.37847 -3.6707 0
M  V30 759 H 79.3803 2.34496 -3.45545 0
M  V30 760 N 79.8174 1.5752 -0.0501392 0
M  V30 761 C 80.7274 2.14952 0.939827 0
M  V30 762 C 81.7434 1.10706 1.34239 0
M  V30 763 O 82.9194 1.42869 1.41952 0
M  V30 764 C 79.9844 2.68232 2.19665 0
M  V30 765 C 79.0454 3.87272 1.85253 0
M  V30 766 C 78.2784 4.38002 3.04943 0
M  V30 767 O 78.5014 3.87811 4.18281 0
M  V30 768 O 77.4354 5.29602 2.86017 0
M  V30 769 H 81.2614 2.9986 0.481392 0
M  V30 770 H 78.8464 1.4841 0.171699 0
M  V30 771 H 80.7284 3.02475 2.93406 0
M  V30 772 H 79.4034 1.86395 2.64648 0
M  V30 773 H 78.3104 3.5792 1.0883 0
M  V30 774 H 79.6434 4.70336 1.4507 0
M  V30 775 N 81.2955 -0.223234 1.56011 0
M  V30 776 C 82.5415 -0.949279 1.79211 0
M  V30 777 C 82.8745 -1.84054 0.619494 0
M  V30 778 O 82.1495 -1.90726 -0.381317 0
M  V30 779 C 82.4325 -1.78965 3.12479 0
M  V30 780 C 82.2855 -0.924997 4.40186 0
M  V30 781 C 83.6045 -2.76774 3.42175 0
M  V30 782 H 80.7235 -0.343676 0.651963 0
M  V30 783 H 83.3655 -0.218253 1.88742 0
M  V30 784 H 81.5155 -2.41291 3.04485 0
M  V30 785 H 83.1875 -0.318615 4.60198 0
M  V30 786 H 81.4305 -0.230344 4.33188 0
M  V30 787 H 82.1015 -1.54735 5.29869 0
M  V30 788 H 84.5775 -2.24584 3.50287 0
M  V30 789 H 83.4535 -3.32678 4.36597 0
M  V30 790 H 83.7145 -3.54429 2.64258 0
M  V30 791 N 82.7736 -1.49793 -0.48987 0
M  V30 792 C 84.0016 -1.63568 -1.26701 0
M  V30 793 C 84.4166 -0.311465 -1.86213 0
M  V30 794 O 83.7736 0.704416 -1.68357 0
M  V30 795 C 83.8246 -2.71284 -2.38929 0
M  V30 796 O 83.5456 -3.9857 -1.81861 0
M  V30 797 C 85.0466 -2.95864 -3.3012 0
M  V30 798 H 82.2666 -0.550342 -0.383881 0
M  V30 799 H 84.8106 -1.95898 -0.586864 0
M  V30 800 H 82.9656 -2.417 -3.02753 0
M  V30 801 H 83.3796 -4.57993 -2.55622 0
M  V30 802 H 84.8536 -3.74941 -4.05121 0
M  V30 803 H 85.3306 -2.06206 -3.87783 0
M  V30 804 H 85.9366 -3.26907 -2.72051 0
M  V30 805 N 84.2517 0.741722 -1.39055 0
M  V30 806 C 85.2147 1.83733 -1.37021 0
M  V30 807 C 86.2147 1.58542 -0.268534 0
M  V30 808 O 87.4047 1.66067 -0.526076 0
M  V30 809 C 84.5367 3.2141 -1.13617 0
M  V30 810 H 85.7297 1.86941 -2.34506 0
M  V30 811 H 83.2827 0.944676 -1.24521 0
M  V30 812 H 84.0177 3.23865 -0.167863 0
M  V30 813 H 83.8027 3.4109 -1.93391 0
M  V30 814 H 85.2927 4.01477 -1.14918 0
M  V30 815 N 85.7298 1.2412 0.971189 0
M  V30 816 C 86.9788 1.07284 1.70801 0
M  V30 817 C 87.2918 -0.388902 1.91695 0
M  V30 818 O 88.4978 -0.677379 2.62914 0
M  V30 819 C 86.9538 1.87145 3.07416 0
M  V30 820 C 86.5618 3.37707 2.94377 0
M  V30 821 C 88.3058 1.78828 3.84995 0
M  V30 822 C 86.2128 4.09925 4.26281 0
M  V30 823 H 85.1428 0.397854 0.64049 0
M  V30 824 H 87.7938 1.4817 1.0825 0
M  V30 825 H 86.1758 1.39071 3.70777 0
M  V30 826 H 87.3498 3.93335 2.4005 0
M  V30 827 H 85.6648 3.46938 2.30267 0
M  V30 828 H 88.2618 2.30089 4.82662 0
M  V30 829 H 88.6048 0.75284 4.09436 0
M  V30 830 H 89.1378 2.24563 3.28354 0
M  V30 831 H 85.8768 5.13813 4.07033 0
M  V30 832 H 85.3968 3.59083 4.80437 0
M  V30 833 H 87.0758 4.1673 4.94919 0
M  V30 834 N 87.2079 -1.17134 1.05439 0
M  V30 835 C 88.6239 -1.39454 0.776201 0
M  V30 836 C 88.8239 -1.91454 -0.628307 0
M  V30 837 O 87.8799 -2.10777 -1.39031 0
M  V30 838 C 89.1929 -2.38305 1.83388 0
M  V30 839 C 90.7409 -2.52006 1.85639 0
M  V30 840 C 91.2159 -3.54133 2.90437 0
M  V30 841 N 92.7069 -3.61653 2.89415 0
M  V30 842 C 93.4419 -4.4044 3.67152 0
M  V30 843 N 92.9379 -5.22721 4.54681 0
M  V30 844 N 94.7309 -4.35337 3.55581 0
M  V30 845 H 86.8819 -0.817134 1.96053 0
M  V30 846 H 89.1449 -0.421626 0.849079 0
M  V30 847 H 88.8509 -2.07173 2.84204 0
M  V30 848 H 88.7249 -3.37841 1.67761 0
M  V30 849 H 91.1119 -2.82447 0.85486 0
M  V30 850 H 91.1929 -1.52537 2.05344 0
M  V30 851 H 90.8369 -3.24431 3.90777 0
M  V30 852 H 90.7669 -4.53313 2.67983 0
M  V30 853 H 93.2579 -3.02909 2.25952 0
M  V30 854 H 93.5709 -5.80027 5.10674 0
M  V30 855 H 91.9159 -5.22093 4.58741 0
M  V30 856 H 95.1069 -3.70112 2.86592 0
M  V30 857 H 95.2799 -4.96494 4.1641 0
M  V30 858 N 88.686 -0.835752 -1.33615 0
M  V30 859 C 89.633 -0.26473 -2.29277 0
M  V30 860 C 90.603 0.617712 -1.54187 0
M  V30 861 O 91.788 0.556641 -1.825 0
M  V30 862 C 88.928 0.556777 -3.40579 0
M  V30 863 C 88.041 -0.349339 -4.30585 0
M  V30 864 C 87.176 0.482969 -5.29 0
M  V30 865 C 86.215 -0.421732 -6.10645 0
M  V30 866 N 85.352 0.372262 -7.01112 0
M  V30 867 H 90.192 -1.08582 -2.77514 0
M  V30 868 H 87.729 -0.546927 -1.36554 0
M  V30 869 H 89.687 1.04852 -4.03809 0
M  V30 870 H 88.317 1.34286 -2.93542 0
M  V30 871 H 87.369 -0.959372 -3.68104 0
M  V30 872 H 88.681 -1.04445 -4.87742 0
M  V30 873 H 87.835 1.03866 -5.97743 0
M  V30 874 H 86.574 1.21153 -4.72412 0
M  V30 875 H 85.579 -0.989464 -5.40823 0
M  V30 876 H 86.804 -1.14861 -6.69316 0
M  V30 877 H 84.75 1.08426 -6.46977 0
M  V30 878 H 84.667 -0.264198 -7.55538 0
M  V30 879 H 85.935 0.910293 -7.74167 0
M  V30 880 N 90.1641 1.46063 -0.591896 0
M  V30 881 C 91.1271 2.28854 0.125973 0
M  V30 882 C 92.1271 1.38903 0.810107 0
M  V30 883 O 93.3171 1.61186 0.66066 0
M  V30 884 C 90.4491 3.19526 1.1881 0
M  V30 885 H 91.6421 2.93802 -0.601717 0
M  V30 886 H 89.1951 1.52325 -0.350254 0
M  V30 887 H 89.9301 2.59345 1.94707 0
M  V30 888 H 89.7151 3.85766 0.701936 0
M  V30 889 H 91.2051 3.81817 1.69132 0
M  V30 890 N 91.6422 0.330177 1.54103 0
M  V30 891 C 92.8822 -0.270916 2.02597 0
M  V30 892 C 93.2462 -1.48826 1.21304 0
M  V30 893 O 94.4472 -2.16266 1.59633 0
M  V30 894 C 92.7182 -0.590328 3.52491 0
M  V30 895 S 94.2772 -1.17014 4.2291 0
M  V30 896 H 91.0952 -0.0815379 0.706309 0
M  V30 897 H 93.6972 0.464835 1.89893 0
M  V30 898 H 92.4012 0.303691 4.09275 0
M  V30 899 H 91.9322 -1.3561 3.69288 0
M  V30 900 H 93.9472 -2.45662 4.3112 0
M  V30 901 N 93.1203 -1.57491 0.0584922 0
M  V30 902 C 94.0673 -2.11958 -0.913376 0
M  V30 903 C 95.0373 -1.02875 -1.30407 0
M  V30 904 O 96.2223 -1.30464 -1.39226 0
M  V30 905 C 93.3623 -2.67497 -2.18035 0
M  V30 906 C 92.4753 -3.90691 -1.84349 0
M  V30 907 C 91.6103 -4.3452 -3.05559 0
M  V30 908 C 90.6493 -5.50395 -2.67827 0
M  V30 909 N 89.7863 -5.89244 -3.81754 0
M  V30 910 H 94.6263 -2.94704 -0.442017 0
M  V30 911 H 92.1633 -1.45643 -0.206545 0
M  V30 912 H 94.1213 -2.978 -2.92183 0
M  V30 913 H 92.7513 -1.87537 -2.62735 0
M  V30 914 H 91.8033 -3.66934 -1.00319 0
M  V30 915 H 93.1153 -4.7489 -1.5258 0
M  V30 916 H 92.2693 -4.66414 -3.87998 0
M  V30 917 H 91.0083 -3.49147 -3.40511 0
M  V30 918 H 90.0133 -5.18165 -1.83806 0
M  V30 919 H 91.2383 -6.3749 -2.34059 0
M  V30 920 H 89.1843 -5.06823 -4.16493 0
M  V30 921 H 89.1013 -6.68151 -3.53708 0
M  V30 922 H 90.3693 -6.25756 -4.64811 0
M  V30 923 N 94.5984 0.214957 -1.56127 0
M  V30 924 C 95.8444 0.939762 -1.79712 0
M  V30 925 C 96.1774 1.83723 -0.629247 0
M  V30 926 O 95.4524 1.90925 0.371197 0
M  V30 927 C 95.7354 1.77306 -3.13424 0
M  V30 928 C 95.5884 0.90164 -4.40671 0
M  V30 929 C 96.9074 2.74956 -3.43638 0
M  V30 930 H 94.0264 0.340214 -0.653776 0
M  V30 931 H 96.6684 0.20824 -1.88855 0
M  V30 932 H 94.8184 2.39673 -3.0576 0
M  V30 933 H 96.4904 0.294206 -4.60361 0
M  V30 934 H 94.7334 0.207368 -4.33304 0
M  V30 935 H 95.4044 1.51923 -5.30682 0
M  V30 936 H 97.8804 2.22724 -3.51473 0
M  V30 937 H 96.7564 3.30358 -4.38355 0
M  V30 938 H 97.0174 3.53023 -2.66134 0
M  V30 939 N 96.0765 1.50051 0.48192 0
M  V30 940 C 97.0065 1.71046 1.58951 0
M  V30 941 C 97.9875 0.559288 1.60642 0
M  V30 942 O 99.1725 0.797243 1.77081 0
M  V30 943 C 96.3025 1.79462 2.97339 0
M  V30 944 C 95.2565 2.94558 3.10515 0
M  V30 945 C 94.5825 2.88105 4.50444 0
M  V30 946 C 95.8825 4.35227 2.88747 0
M  V30 947 H 97.5765 2.6378 1.41635 0
M  V30 948 H 95.1225 1.26936 0.679942 0
M  V30 949 H 97.0755 1.92734 3.74742 0
M  V30 950 H 95.7995 0.833412 3.15788 0
M  V30 951 H 94.4585 2.80918 2.35543 0
M  V30 952 H 94.1065 1.89853 4.65795 0
M  V30 953 H 93.8065 3.65366 4.60197 0
M  V30 954 H 95.3305 3.03412 5.29881 0
M  V30 955 H 96.7445 4.49449 3.55905 0
M  V30 956 H 95.1415 5.13856 3.09955 0
M  V30 957 H 96.2115 4.48347 1.84696 0
M  V30 958 N 97.5546 -0.734337 1.39446 0
M  V30 959 C 98.8026 -1.49096 1.36436 0
M  V30 960 C 99.1236 -1.94961 -0.0388255 0
M  V30 961 O 98.3936 -1.69033 -0.990191 0
M  V30 962 H 96.9736 -0.5531 0.502085 0
M  V30 963 H 99.6356 -0.871725 1.74319 0
M  V30 964 H 98.7316 -2.37276 2.02747 0
M  V30 965 N 99.0327 -1.24633 -0.964593 0
M  V30 966 C 99.9957 -1.0424 -2.04124 0
M  V30 967 C 100.996 0.00137563 -1.608 0
M  V30 968 O 102.186 -0.239883 -1.7254 0
M  V30 969 C 99.3177 -0.580588 -3.3592 0
M  V30 970 H 100.511 -1.99803 -2.23649 0
M  V30 971 H 98.0637 -1.06899 -1.14027 0
M  V30 972 H 98.7987 0.3781 -3.22088 0
M  V30 973 H 98.5837 -1.33398 -3.6871 0
M  V30 974 H 100.074 -0.459034 -4.15069 0
M  V30 975 N 100.511 1.16574 -1.06058 0
M  V30 976 C 101.741 1.90675 -0.795397 0
M  V30 977 C 102.149 1.77547 0.653735 0
M  V30 978 O 101.492 1.11611 1.45907 0
M  V30 979 C 101.554 3.42011 -1.10764 0
M  V30 980 C 101.218 3.78924 -2.55471 0
M  V30 981 C 102.215 3.81042 -3.53699 0
M  V30 982 C 99.8998 4.09626 -2.90708 0
M  V30 983 C 101.894 4.13346 -4.85205 0
M  V30 984 C 99.5808 4.41597 -4.22416 0
M  V30 985 C 100.579 4.43436 -5.19474 0
M  V30 986 O 100.267 4.74649 -6.48817 0
M  V30 987 H 99.9988 0.611554 -0.288058 0
M  V30 988 H 102.553 1.48711 -1.41683 0
M  V30 989 H 100.783 3.84312 -0.429128 0
M  V30 990 H 102.472 3.97384 -0.827077 0
M  V30 991 H 103.238 3.57437 -3.27817 0
M  V30 992 H 99.1168 4.07361 -2.15819 0
M  V30 993 H 102.661 4.14696 -5.60957 0
M  V30 994 H 98.5578 4.64667 -4.48056 0
M  V30 995 H 99.3258 4.9247 -6.5377 0
M  V30 996 N 101.989 0.842826 1.3317 0
M  V30 997 C 102.921 0.236245 2.27979 0
M  V30 998 C 103.934 -0.585282 1.51915 0
M  V30 999 O 105.123 -0.411705 1.73687 0
M  V30 1000 C 102.223 -0.685717 3.3189 0
M  V30 1001 C 101.396 0.0973448 4.37292 0
M  V30 1002 C 100.455 -0.748565 5.20848 0
M  V30 1003 O 99.4809 -0.186339 5.68895 0
M  V30 1004 N 100.683 -2.06527 5.42519 0
M  V30 1005 H 103.448 1.05088 2.80672 0
M  V30 1006 H 101.009 0.701667 1.45905 0
M  V30 1007 H 103.001 -1.25669 3.84694 0
M  V30 1008 H 101.571 -1.40105 2.79445 0
M  V30 1009 H 100.791 0.849706 3.84933 0
M  V30 1010 H 102.079 0.635643 5.04814 0
M  V30 1011 H 101.477 -2.54554 5.05192 0
M  V30 1012 H 100.034 -2.58464 5.98364 0
M  V30 1013 N 103.467 -1.45747 0.599634 0
M  V30 1014 C 104.397 -2.33235 -0.111306 0
M  V30 1015 C 105.378 -1.46359 -0.866781 0
M  V30 1016 O 106.563 -1.75146 -0.838904 0
M  V30 1017 C 103.693 -3.28932 -1.11451 0
M  V30 1018 C 102.647 -4.25381 -0.472772 0
M  V30 1019 C 101.973 -5.1071 -1.58365 0
M  V30 1020 C 103.273 -5.18831 0.600948 0
M  V30 1021 H 104.967 -2.92927 0.61919 0
M  V30 1022 H 102.513 -1.40857 0.299215 0
M  V30 1023 H 104.466 -3.89002 -1.62036 0
M  V30 1024 H 103.19 -2.67381 -1.8755 0
M  V30 1025 H 101.849 -3.66598 0.0121472 0
M  V30 1026 H 101.497 -4.45533 -2.33473 0
M  V30 1027 H 101.197 -5.7604 -1.15982 0
M  V30 1028 H 102.721 -5.73647 -2.09194 0
M  V30 1029 H 104.135 -5.73019 0.179491 0
M  V30 1030 H 102.532 -5.92595 0.946076 0
M  V30 1031 H 103.602 -4.6174 1.48068 0
M  V30 1032 N 104.945 -0.338344 -1.53925 0
M  V30 1033 C 106.222 0.314774 -1.93051 0
M  V30 1034 C 106.602 1.68669 -1.26941 0
M  V30 1035 O 105.95 2.24636 -0.418445 0
M  V30 1036 C 106.16 0.392249 -3.46789 0
M  V30 1037 C 107.508 0.645554 -4.19664 0
M  V30 1038 O 108.532 0.474575 -3.53024 0
M  V30 1039 O 107.391 0.976408 -5.37707 0
M  V30 1040 H 104.485 0.182598 -0.80659 0
M  V30 1041 H 107.031 -0.389141 -1.65178 0
M  V30 1042 H 105.803 -0.570702 -3.87116 0
M  V30 1043 H 105.426 1.14316 -3.80812 0
M  V30 1044 N 106.423 1.57458 -0.0668435 0
M  V30 1045 C 107.7 1.8469 0.644132 0
M  V30 1046 C 108.08 0.958343 1.88093 0
M  V30 1047 O 107.428 0.0233579 2.28488 0
M  V30 1048 C 107.638 3.34767 0.986509 0
M  V30 1049 C 108.986 4.02159 1.36212 0
M  V30 1050 O 110.01 3.39484 1.07839 0
M  V30 1051 O 108.869 5.12694 1.89227 0
M  V30 1052 H 105.963 0.762816 0.319437 0
M  V30 1053 H 108.509 1.6942 -0.0973986 0
M  V30 1054 H 107.281 3.91151 0.107883 0
M  V30 1055 H 106.904 3.55281 1.78497 0
M  V30 1056 N 107.901 -0.206675 1.56239 0
M  V30 1057 C 109.141 -0.93574 1.81723 0
M  V30 1058 C 109.505 -1.80927 0.642609 0
M  V30 1059 O 110.706 -2.57323 0.777081 0
M  V30 1060 C 108.977 -1.74012 3.12177 0
M  V30 1061 S 110.536 -2.52279 3.59028 0
M  V30 1062 H 107.354 -0.314065 0.637875 0
M  V30 1063 H 109.956 -0.200071 1.94474 0
M  V30 1064 H 108.66 -1.0888 3.95693 0
M  V30 1065 H 108.191 -2.51782 3.02274 0
M  V30 1066 H 110.206 -3.76209 3.23545 0
M  V30 1067 N 109.379 -1.50304 -0.473955 0
M  V30 1068 C 110.628 -1.60392 -1.22301 0
M  V30 1069 C 110.941 -0.308411 -1.93153 0
M  V30 1070 O 112.147 -0.288156 -2.69966 0
M  V30 1071 C 110.603 -2.83109 -2.2221 0
M  V30 1072 C 110.211 -4.19524 -1.57173 0
M  V30 1073 C 111.955 -3.0254 -2.97775 0
M  V30 1074 C 109.862 -5.33431 -2.55353 0
M  V30 1075 H 108.792 -0.597286 -0.460179 0
M  V30 1076 H 111.443 -1.76731 -0.493803 0
M  V30 1077 H 109.825 -2.60322 -2.9841 0
M  V30 1078 H 110.999 -4.52554 -0.867824 0
M  V30 1079 H 109.314 -4.05674 -0.939002 0
M  V30 1080 H 111.911 -3.84811 -3.71248 0
M  V30 1081 H 112.254 -2.14154 -3.56992 0
M  V30 1082 H 112.787 -3.25494 -2.28688 0
M  V30 1083 H 109.526 -6.23962 -2.00878 0
M  V30 1084 H 109.046 -5.04823 -3.23904 0
M  V30 1085 H 110.725 -5.63887 -3.17239 0
M  V30 1086 N 110.857 0.726932 -1.39834 0
M  V30 1087 C 111.787 1.85405 -1.41941 0
M  V30 1088 C 112.768 1.67751 -0.281728 0
M  V30 1089 O 113.953 1.8795 -0.488717 0
M  V30 1090 C 111.083 3.23243 -1.2701 0
M  V30 1091 C 110.037 3.55549 -2.38262 0
M  V30 1092 C 109.363 4.9241 -2.08415 0
M  V30 1093 C 110.663 3.577 -3.80589 0
M  V30 1094 H 112.357 1.83899 -2.36266 0
M  V30 1095 H 109.903 0.883349 -1.13723 0
M  V30 1096 H 111.856 4.01775 -1.27103 0
M  V30 1097 H 110.58 3.25296 -0.291564 0
M  V30 1098 H 109.239 2.79351 -2.37399 0
M  V30 1099 H 108.887 4.91052 -1.0898 0
M  V30 1100 H 108.587 5.14992 -2.82943 0
M  V30 1101 H 110.111 5.73289 -2.10171 0
M  V30 1102 H 111.525 4.26293 -3.83337 0
M  V30 1103 H 109.922 3.91804 -4.54543 0
M  V30 1104 H 110.992 2.57328 -4.10987 0
M  V30 1105 N 112.336 1.25143 0.95797 0
M  V30 1106 C 113.566 1.12261 1.73439 0
M  V30 1107 C 113.974 -0.326715 1.86358 0
M  V30 1108 O 113.317 -1.2367 1.35836 0
M  V30 1109 C 113.379 1.69966 3.16784 0
M  V30 1110 C 113.043 3.18936 3.27305 0
M  V30 1111 C 114.04 4.15968 3.11877 0
M  V30 1112 C 111.725 3.59083 3.51234 0
M  V30 1113 C 113.719 5.51126 3.20217 0
M  V30 1114 C 111.406 4.9438 3.5921 0
M  V30 1115 C 112.404 5.90211 3.43716 0
M  V30 1116 O 112.092 7.23046 3.51368 0
M  V30 1117 H 111.824 0.392476 0.550399 0
M  V30 1118 H 114.378 1.65927 1.21068 0
M  V30 1119 H 112.608 1.10744 3.70503 0
M  V30 1120 H 114.297 1.52232 3.76272 0
M  V30 1121 H 115.063 3.86292 2.93264 0
M  V30 1122 H 110.942 2.84989 3.62356 0
M  V30 1123 H 114.486 6.25905 3.0804 0
M  V30 1124 H 110.383 5.23723 3.77339 0
M  V30 1125 H 111.151 7.31097 3.6802 0
M  V30 1126 N 113.814 -1.1601 1.06675 0
M  V30 1127 C 115.042 -1.90527 0.806667 0
M  V30 1128 C 115.457 -1.77643 -0.639396 0
M  V30 1129 O 114.814 -1.12369 -1.43803 0
M  V30 1130 C 114.865 -3.41106 1.19705 0
M  V30 1131 O 114.586 -3.53608 2.58636 0
M  V30 1132 C 116.087 -4.32663 0.965266 0
M  V30 1133 H 113.307 -0.604053 0.292166 0
M  V30 1134 H 115.851 -1.47026 1.4214 0
M  V30 1135 H 114.006 -3.82296 0.626774 0
M  V30 1136 H 114.42 -4.47011 2.74375 0
M  V30 1137 H 115.894 -5.36763 1.288 0
M  V30 1138 H 116.371 -4.39089 -0.0987936 0
M  V30 1139 H 116.977 -3.97206 1.52011 0
M  V30 1140 N 115.292 -0.849877 -1.32721 0
M  V30 1141 C 116.517 -0.463856 -2.02146 0
M  V30 1142 C 116.942 0.930449 -1.63476 0
M  V30 1143 O 116.3 1.61033 -0.832952 0
M  V30 1144 C 116.348 -0.604955 -3.55489 0
M  V30 1145 O 115.452 0.36425 -4.10788 0
M  V30 1146 H 114.793 -0.187046 -0.637111 0
M  V30 1147 H 117.323 -1.14775 -1.69375 0
M  V30 1148 H 117.333 -0.490696 -4.05038 0
M  V30 1149 H 116.008 -1.62174 -3.82978 0
M  V30 1150 H 114.585 0.206628 -3.72327 0
M  V30 1151 N 116.77 1.45427 -0.607355 0
M  V30 1152 C 118.01 2.04128 -0.105458 0
M  V30 1153 C 118.374 1.46555 1.24039 0
M  V30 1154 O 119.575 1.96608 1.833 0
M  V30 1155 C 117.846 3.57338 -0.0665324 0
M  V30 1156 S 119.405 4.37201 0.374207 0
M  V30 1157 H 116.223 0.709278 -0.0494575 0
M  V30 1158 H 118.825 1.78139 -0.805404 0
M  V30 1159 H 117.529 3.96752 -1.04957 0
M  V30 1160 H 117.06 3.87902 0.655415 0
M  V30 1161 H 119.075 4.6888 1.62377 0
M  V30 1162 N 118.248 0.346503 1.53744 0
M  V30 1163 C 119.158 -0.517293 2.28826 0
M  V30 1164 C 120.174 -1.10935 1.3405 0
M  V30 1165 O 121.35 -1.1244 1.6709 0
M  V30 1166 C 118.415 -1.65098 3.04866 0
M  V30 1167 C 117.476 -1.0884 4.15274 0
M  V30 1168 C 116.709 -2.16806 4.87679 0
M  V30 1169 O 116.932 -3.3758 4.59778 0
M  V30 1170 O 115.866 -1.80934 5.74061 0
M  V30 1171 H 119.692 0.0931396 3.03557 0
M  V30 1172 H 117.277 0.111458 1.48984 0
M  V30 1173 H 119.159 -2.31053 3.5241 0
M  V30 1174 H 117.834 -2.24717 2.32989 0
M  V30 1175 H 116.741 -0.3933 3.72027 0
M  V30 1176 H 118.074 -0.537036 4.89261 0
M  V30 1177 N 119.726 -1.57421 0.075193 0
M  V30 1178 C 121.137 -1.81021 -0.456964 0
M  V30 1179 C 121.488 -0.98936 -1.69429 0
M  V30 1180 O 120.613 -0.212865 -2.15351 0
M  V30 1181 C 121.208 -3.28329 -0.83581 0
M  V30 1182 C 119.767 -3.52764 -1.31281 0
M  V30 1183 C 118.914 -2.75676 -0.299648 0
M  V30 1184 H 121.865 -1.55822 0.300856 0
M  V30 1185 H 121.886 -3.40564 -1.69696 0
M  V30 1186 H 121.398 -3.88046 0.0649238 0
M  V30 1187 H 119.499 -2.98355 -2.23193 0
M  V30 1188 H 119.612 -4.61451 -1.28839 0
M  V30 1189 H 117.976 -2.42538 -0.777641 0
M  V30 1190 H 118.759 -3.38132 0.593417 0
M  V30 1191 N 121.204 0.198386 -1.56346 0
M  V30 1192 C 122.444 0.92609 -1.82217 0
M  V30 1193 C 122.808 1.80584 -0.652195 0
M  V30 1194 O 124.009 2.56907 -0.790716 0
M  V30 1195 C 122.28 1.72354 -3.13096 0
M  V30 1196 S 123.839 2.50371 -3.6036 0
M  V30 1197 H 120.657 0.310677 -0.639532 0
M  V30 1198 H 123.259 0.189755 -1.94577 0
M  V30 1199 H 121.963 1.0678 -3.96265 0
M  V30 1200 H 121.494 2.50175 -3.03605 0
M  V30 1201 H 123.509 3.74488 -3.25535 0
M  V30 1202 N 122.682 1.50554 0.465978 0
M  V30 1203 C 124.093 1.54599 1.04671 0
M  V30 1204 C 124.444 0.352488 1.93008 0
M  V30 1205 O 123.569 -0.534044 2.09707 0
M  V30 1206 C 124.164 2.80166 1.90505 0
M  V30 1207 C 122.723 2.86876 2.43678 0
M  V30 1208 C 121.87 2.48947 1.22151 0
M  V30 1209 H 124.821 1.56744 0.248384 0
M  V30 1210 H 124.842 2.62311 2.75633 0
M  V30 1211 H 124.354 3.67013 1.26186 0
M  V30 1212 H 122.455 2.04393 3.11536 0
M  V30 1213 H 122.568 3.89885 2.78436 0
M  V30 1214 H 120.932 2.01498 1.5579 0
M  V30 1215 H 121.715 3.38107 0.594866 0
M  V30 1216 N 124.16 -0.719506 1.40217 0
M  V30 1217 C 125.093 -1.84298 1.34571 0
M  V30 1218 C 126.071 -1.61149 0.216741 0
M  V30 1219 O 127.255 -1.84212 0.399756 0
M  V30 1220 C 124.382 -3.20568 1.09335 0
M  V30 1221 C 123.428 -3.62551 2.24631 0
M  V30 1222 S 124.261 -3.7012 3.87004 0
M  V30 1223 C 125.417 -5.09154 3.64024 0
M  V30 1224 H 125.65 -1.88807 2.2965 0
M  V30 1225 H 123.183 -0.885901 1.26456 0
M  V30 1226 H 125.141 -3.99246 0.954602 0
M  V30 1227 H 123.802 -3.13696 0.159164 0
M  V30 1228 H 122.995 -4.61483 2.02606 0
M  V30 1229 H 122.597 -2.91119 2.34789 0
M  V30 1230 H 124.889 -5.95955 3.22248 0
M  V30 1231 H 125.832 -5.36213 4.62473 0
M  V30 1232 H 126.24 -4.79562 2.97793 0
M  V30 1233 N 125.638 -1.25649 -0.95132 0
M  V30 1234 C 126.878 -1.11802 -1.71113 0
M  V30 1235 C 127.242 0.334758 -1.89059 0
M  V30 1236 O 128.443 0.595121 -2.62129 0
M  V30 1237 C 126.714 -1.85512 -3.05483 0
M  V30 1238 S 128.273 -1.87597 -3.96677 0
M  V30 1239 H 125.091 -0.399552 -0.588115 0
M  V30 1240 H 127.693 -1.59222 -1.1344 0
M  V30 1241 H 126.397 -2.90299 -2.90094 0
M  V30 1242 H 125.928 -1.38493 -3.68216 0
M  V30 1243 H 127.943 -0.955389 -4.86916 0
M  V30 1244 N 127.117 1.15442 -1.07289 0
M  V30 1245 C 128.047 2.22312 -0.714107 0
M  V30 1246 C 129.028 1.67467 0.298155 0
M  V30 1247 O 130.213 1.93445 0.171048 0
M  V30 1248 C 127.343 3.47124 -0.110448 0
M  V30 1249 C 126.297 4.14926 -1.04979 0
M  V30 1250 C 125.623 5.33807 -0.308924 0
M  V30 1251 C 126.923 4.64762 -2.38314 0
M  V30 1252 H 128.617 2.5258 -1.6076 0
M  V30 1253 H 126.163 1.21404 -0.77441 0
M  V30 1254 H 128.116 4.21124 0.152482 0
M  V30 1255 H 126.84 3.16187 0.81812 0
M  V30 1256 H 125.499 3.42866 -1.29764 0
M  V30 1257 H 125.147 4.99126 0.623084 0
M  V30 1258 H 124.847 5.80113 -0.935036 0
M  V30 1259 H 126.371 6.10576 -0.0537771 0
M  V30 1260 H 127.785 5.30292 -2.1786 0
M  V30 1261 H 126.182 5.21728 -2.96514 0
M  V30 1262 H 127.252 3.80434 -3.00663 0
M  V30 1263 N 128.595 0.856903 1.32268 0
M  V30 1264 C 129.843 0.460474 1.96784 0
M  V30 1265 C 130.164 -0.987701 1.68135 0
M  V30 1266 O 129.434 -1.69058 0.989765 0
M  V30 1267 H 128.014 0.167289 0.728027 0
M  V30 1268 H 130.676 1.09383 1.61312 0
M  V30 1269 H 129.772 0.60739 3.06133 0
M  V30 1270 N 130.073 -1.45103 0.615059 0
M  V30 1271 C 131.036 -2.29025 -0.0895485 0
M  V30 1272 C 132.036 -1.40174 -0.787906 0
M  V30 1273 O 133.226 -1.62217 -0.634933 0
M  V30 1274 C 130.358 -3.21376 -1.13711 0
M  V30 1275 H 131.551 -2.92807 0.648382 0
M  V30 1276 H 129.104 -1.51749 0.374444 0
M  V30 1277 H 129.839 -2.6241 -1.90556 0
M  V30 1278 H 129.624 -3.86834 -0.640475 0
M  V30 1279 H 131.114 -3.84459 -1.63036 0
M  V30 1280 N 131.551 -0.354651 -1.53558 0
M  V30 1281 C 132.8 0.239504 -2.00273 0
M  V30 1282 C 133.113 1.50759 -1.24623 0
M  V30 1283 O 134.319 2.17968 -1.61871 0
M  V30 1284 C 132.775 0.477341 -3.5672 0
M  V30 1285 C 132.383 -0.775488 -4.41237 0
M  V30 1286 C 134.127 1.02975 -4.11821 0
M  V30 1287 C 132.034 -0.507838 -5.89216 0
M  V30 1288 H 130.964 0.0932743 -0.748208 0
M  V30 1289 H 133.615 -0.471701 -1.77334 0
M  V30 1290 H 131.997 1.24953 -3.7577 0
M  V30 1291 H 133.171 -1.54963 -4.33962 0
M  V30 1292 H 131.486 -1.25033 -3.97185 0
M  V30 1293 H 134.083 1.24513 -5.2 0
M  V30 1294 H 134.426 1.98862 -3.65731 0
M  V30 1295 H 134.959 0.317994 -3.96527 0
M  V30 1296 H 131.698 -1.43674 -6.39561 0
M  V30 1297 H 131.218 0.228011 -5.99366 0
M  V30 1298 H 132.897 -0.129238 -6.46871 0
M  V30 1299 N 133.029 1.57378 -0.0835403 0
M  V30 1300 C 134.259 1.97975 0.590713 0
M  V30 1301 C 134.667 0.961083 1.62972 0
M  V30 1302 O 134.01 -0.0590879 1.83605 0
M  V30 1303 C 134.072 3.34915 1.3066 0
M  V30 1304 C 133.736 4.55069 0.419698 0
M  V30 1305 C 134.733 5.18868 -0.32749 0
M  V30 1306 C 132.418 5.0114 0.341137 0
M  V30 1307 C 134.412 6.27098 -1.14134 0
M  V30 1308 C 132.099 6.0924 -0.476374 0
M  V30 1309 C 133.097 6.72083 -1.21627 0
M  V30 1310 O 132.785 7.781 -2.02028 0
M  V30 1311 H 132.517 0.655818 0.163947 0
M  V30 1312 H 135.071 2.04807 -0.156021 0
M  V30 1313 H 133.301 3.24733 2.09966 0
M  V30 1314 H 134.99 3.60037 1.87424 0
M  V30 1315 H 135.756 4.84211 -0.276459 0
M  V30 1316 H 131.635 4.51996 0.90668 0
M  V30 1317 H 135.179 6.7608 -1.71935 0
M  V30 1318 H 131.076 6.43329 -0.528927 0
M  V30 1319 H 131.844 7.95034 -1.94586 0
M  V30 1320 N 134.507 -0.190092 1.56449 0
M  V30 1321 C 135.753 -0.906472 1.82084 0
M  V30 1322 C 136.108 -1.80677 0.661335 0
M  V30 1323 O 135.401 -1.88501 -0.343237 0
M  V30 1324 C 135.595 -1.75382 3.1141 0
M  V30 1325 C 135.424 -0.937053 4.39829 0
M  V30 1326 C 134.194 -0.619507 5.01488 0
M  V30 1327 C 136.392 -0.2874 5.13496 0
M  V30 1328 N 134.374 0.215367 6.13522 0
M  V30 1329 C 135.745 0.409454 6.18646 0
M  V30 1330 C 137.8 -0.203639 4.97483 0
M  V30 1331 C 136.503 1.1821 7.0952 0
M  V30 1332 C 138.529 0.555622 5.88784 0
M  V30 1333 C 137.891 1.24091 6.93384 0
M  V30 1334 H 133.99 -0.310931 0.717528 0
M  V30 1335 H 136.574 -0.174821 1.93914 0
M  V30 1336 H 134.745 -2.45703 3.00806 0
M  V30 1337 H 136.477 -2.41006 3.25112 0
M  V30 1338 H 133.232 -0.945126 4.64074 0
M  V30 1339 H 133.656 0.622562 6.74131 0
M  V30 1340 H 138.298 -0.719099 4.1664 0
M  V30 1341 H 136.016 1.70897 7.89823 0
M  V30 1342 H 139.602 0.621854 5.78467 0
M  V30 1343 H 138.482 1.81901 7.62812 0
M  V30 1344 N 135.985 -1.50799 -0.457987 0
M  V30 1345 C 136.948 -1.7005 -1.53674 0
M  V30 1346 C 137.948 -0.570881 -1.50325 0
M  V30 1347 O 139.138 -0.838126 -1.52712 0
M  V30 1348 C 136.27 -1.73788 -2.93276 0
M  V30 1349 H 137.463 -2.66306 -1.37917 0
M  V30 1350 H 135.016 -1.40477 -0.685271 0
M  V30 1351 H 135.751 -0.792717 -3.14462 0
M  V30 1352 H 135.536 -2.55864 -2.97113 0
M  V30 1353 H 137.026 -1.90591 -3.71571 0
M  V30 1354 N 137.463 0.71206 -1.40597 0
M  V30 1355 C 138.879 1.02058 -1.22704 0
M  V30 1356 C 139.079 2.01228 -0.104729 0
M  V30 1357 O 138.135 2.4674 0.53624 0
M  V30 1358 C 139.448 1.56094 -2.57012 0
M  V30 1359 C 140.996 1.6806 -2.64054 0
M  V30 1360 C 141.471 2.25501 -3.9864 0
M  V30 1361 N 142.962 2.32882 -4.004 0
M  V30 1362 C 143.697 2.78317 -5.01325 0
M  V30 1363 N 143.193 3.23478 -6.12645 0
M  V30 1364 N 144.986 2.77733 -4.88693 0
M  V30 1365 H 137.137 0.0547896 -2.12329 0
M  V30 1366 H 139.4 0.0869027 -0.944008 0
M  V30 1367 H 139.106 0.906865 -3.39807 0
M  V30 1368 H 138.98 2.54564 -2.78347 0
M  V30 1369 H 141.367 2.32583 -1.81629 0
M  V30 1370 H 141.448 0.681802 -2.46546 0
M  V30 1371 H 141.092 1.61598 -4.81506 0
M  V30 1372 H 141.022 3.26102 -4.13479 0
M  V30 1373 H 143.513 2.00991 -3.20017 0
M  V30 1374 H 143.826 3.56725 -6.85542 0
M  V30 1375 H 142.171 3.21429 -6.16205 0
M  V30 1376 H 145.362 2.4179 -4.00818 0
M  V30 1377 H 145.535 3.12826 -5.67489 0
M  V30 1378 N 138.941 1.26152 0.944643 0
M  V30 1379 C 140.352 1.10454 1.50522 0
M  V30 1380 C 140.703 -0.31635 1.93633 0
M  V30 1381 O 139.828 -1.20746 1.79581 0
M  V30 1382 C 140.423 1.99891 2.73549 0
M  V30 1383 C 138.982 1.88348 3.25886 0
M  V30 1384 C 138.129 1.93447 1.9868 0
M  V30 1385 H 141.08 1.39292 0.760489 0
M  V30 1386 H 141.101 1.54477 3.47732 0
M  V30 1387 H 140.613 3.03297 2.42141 0
M  V30 1388 H 138.714 0.878636 3.62092 0
M  V30 1389 H 138.827 2.73696 3.93227 0
M  V30 1390 H 137.191 1.37456 2.14425 0
M  V30 1391 H 137.974 2.98476 1.69607 0
M  V30 1392 N 140.419 -1.14872 1.07899 0
M  V30 1393 C 141.366 -2.19791 0.704319 0
M  V30 1394 C 142.336 -1.63238 -0.306987 0
M  V30 1395 O 143.521 -1.8983 -0.192171 0
M  V30 1396 C 140.661 -3.44911 0.114244 0
M  V30 1397 C 139.774 -4.15637 1.1777 0
M  V30 1398 C 138.909 -5.28324 0.552037 0
M  V30 1399 C 137.948 -5.90875 1.59789 0
M  V30 1400 N 137.085 -6.95022 0.994404 0
M  V30 1401 H 141.925 -2.5119 1.60336 0
M  V30 1402 H 139.462 -1.23356 0.801352 0
M  V30 1403 H 141.42 -4.16477 -0.245544 0
M  V30 1404 H 140.05 -3.14011 -0.74813 0
M  V30 1405 H 139.102 -3.42512 1.65499 0
M  V30 1406 H 140.414 -4.5823 1.97046 0
M  V30 1407 H 139.568 -6.06538 0.1402 0
M  V30 1408 H 138.307 -4.86939 -0.272431 0
M  V30 1409 H 137.312 -5.11369 2.01945 0
M  V30 1410 H 138.537 -6.34337 2.42474 0
M  V30 1411 H 136.483 -6.55722 0.190939 0
M  V30 1412 H 136.4 -7.36073 1.72432 0
M  V30 1413 H 137.668 -7.77123 0.608253 0
M  V30 1414 N 141.898 -0.863906 -1.31812 0
M  V30 1415 C 142.861 -0.320212 -2.26952 0
M  V30 1416 C 143.861 0.525369 -1.51975 0
M  V30 1417 O 145.051 0.335547 -1.70938 0
M  V30 1418 C 142.183 0.545919 -3.365 0
M  V30 1419 H 143.376 -1.16004 -2.76556 0
M  V30 1420 H 140.929 -0.638995 -1.42641 0
M  V30 1421 H 141.664 1.40718 -2.92179 0
M  V30 1422 H 141.449 -0.0594674 -3.92055 0
M  V30 1423 H 142.939 0.918796 -4.07367 0
M  V30 1424 N 143.376 1.44774 -0.622745 0
M  V30 1425 C 144.622 2.0242 -0.124083 0
M  V30 1426 C 144.955 1.4881 1.24777 0
M  V30 1427 O 144.23 0.668799 1.8264 0
M  V30 1428 C 144.513 3.59957 -0.101619 0
M  V30 1429 C 144.366 4.23867 -1.50521 0
M  V30 1430 C 145.685 4.36284 0.578272 0
M  V30 1431 H 142.804 0.735528 -0.0465645 0
M  V30 1432 H 145.446 1.72447 -0.797617 0
M  V30 1433 H 143.596 3.85623 0.471934 0
M  V30 1434 H 145.268 4.09336 -2.12701 0
M  V30 1435 H 143.511 3.81684 -2.06154 0
M  V30 1436 H 144.182 5.32843 -1.4416 0
M  V30 1437 H 146.658 4.16001 0.0906057 0
M  V30 1438 H 145.534 5.46004 0.563149 0
M  V30 1439 H 145.795 4.10271 1.64713 0
M  V30 1440 N 144.854 0.36279 1.53368 0
M  V30 1441 C 146.101 -0.227776 2.01215 0
M  V30 1442 C 146.429 -1.49003 1.25014 0
M  V30 1443 O 145.684 -1.92876 0.331236 0
M  V30 1444 C 145.983 -0.568417 3.52851 0
M  V30 1445 C 145.649 0.59918 4.46901 0
M  V30 1446 C 144.311 0.919559 4.72332 0
M  V30 1447 C 146.663 1.38156 5.02556 0
M  V30 1448 C 143.991 2.02434 5.5067 0
M  V30 1449 C 146.343 2.47674 5.821 0
M  V30 1450 C 145.007 2.8025 6.05819 0
M  V30 1451 H 144.277 -0.083349 0.736297 0
M  V30 1452 H 146.924 0.494677 1.85001 0
M  V30 1453 H 145.229 -1.37185 3.66998 0
M  V30 1454 H 146.926 -1.03756 3.87344 0
M  V30 1455 H 143.516 0.339437 4.27254 0
M  V30 1456 H 147.7 1.14729 4.82857 0
M  V30 1457 H 142.956 2.28075 5.67267 0
M  V30 1458 H 147.13 3.08716 6.24234 0
M  V30 1459 H 144.757 3.65979 6.66306 0
M  V30 1460 N 146.332 -1.57332 0.0918853 0
M  V30 1461 C 147.562 -1.98286 -0.580205 0
M  V30 1462 C 147.97 -0.969713 -1.6246 0
M  V30 1463 O 147.313 0.0493501 -1.83634 0
M  V30 1464 C 147.375 -3.35603 -1.28882 0
M  V30 1465 C 147.039 -4.55285 -0.395559 0
M  V30 1466 C 148.036 -5.18687 0.355002 0
M  V30 1467 C 145.721 -5.01314 -0.314556 0
M  V30 1468 C 147.715 -6.26484 1.17458 0
M  V30 1469 C 145.402 -6.08979 0.508677 0
M  V30 1470 C 146.4 -6.71429 1.2519 0
M  V30 1471 O 146.088 -7.77018 2.06151 0
M  V30 1472 H 145.82 -0.656678 -0.160466 0
M  V30 1473 H 148.374 -2.04721 0.16688 0
M  V30 1474 H 146.604 -3.25842 -2.08241 0
M  V30 1475 H 148.293 -3.61026 -1.85512 0
M  V30 1476 H 149.059 -4.84058 0.302134 0
M  V30 1477 H 144.938 -4.5247 -0.882697 0
M  V30 1478 H 148.482 -6.75159 1.75518 0
M  V30 1479 H 144.379 -6.4304 0.563037 0
M  V30 1480 H 145.147 -7.93991 1.98799 0
M  V30 1481 N 147.81 0.181792 -1.56548 0
M  V30 1482 C 148.773 1.20894 -1.94724 0
M  V30 1483 C 149.773 1.37738 -0.829747 0
M  V30 1484 O 150.963 1.35323 -1.09697 0
M  V30 1485 C 148.095 2.57593 -2.23291 0
M  V30 1486 H 149.288 0.882275 -2.86629 0
M  V30 1487 H 146.841 0.423838 -1.50444 0
M  V30 1488 H 147.576 2.95291 -1.34067 0
M  V30 1489 H 147.361 2.46735 -3.04736 0
M  V30 1490 H 148.851 3.31637 -2.53785 0
M  V30 1491 N 149.288 1.51039 0.449983 0
M  V30 1492 C 150.251 1.70863 1.5277 0
M  V30 1493 C 151.251 0.578846 1.5002 0
M  V30 1494 O 152.441 0.846213 1.52266 0
M  V30 1495 C 149.573 1.75341 2.9235 0
M  V30 1496 H 150.766 2.67034 1.36502 0
M  V30 1497 H 148.319 1.40838 0.677812 0
M  V30 1498 H 149.054 0.809383 3.14037 0
M  V30 1499 H 148.839 2.57436 2.95752 0
M  V30 1500 H 150.329 1.92559 3.70555 0
M  V30 1501 N 150.766 -0.704594 1.40972 0
M  V30 1502 C 151.676 -1.84856 1.44448 0
M  V30 1503 C 152.692 -1.70726 0.335961 0
M  V30 1504 O 153.868 -1.92799 0.582276 0
M  V30 1505 C 150.933 -3.20758 1.31587 0
M  V30 1506 C 149.994 -3.47063 2.52677 0
M  V30 1507 C 149.227 -4.76481 2.4042 0
M  V30 1508 O 149.45 -5.52341 1.42391 0
M  V30 1509 O 148.384 -5.03367 3.30007 0
M  V30 1510 H 152.21 -1.8488 2.40942 0
M  V30 1511 H 149.795 -0.85647 1.22413 0
M  V30 1512 H 151.677 -4.01913 1.26665 0
M  V30 1513 H 150.352 -3.21438 0.382049 0
M  V30 1514 H 149.259 -2.65873 2.63177 0
M  V30 1515 H 150.592 -3.5119 3.44858 0
M  V30 1516 N 152.244 -1.26651 -0.937939 0
M  V30 1517 C 153.194 -1.05156 -2.02302 0
M  V30 1518 C 154.178 0.0171233 -1.60891 0
M  V30 1519 O 155.37 -0.200213 -1.75864 0
M  V30 1520 C 152.499 -0.689962 -3.36295 0
M  V30 1521 C 151.585 -1.79626 -3.84181 0
M  V30 1522 N 151.976 -3.03422 -4.04684 0
M  V30 1523 C 150.274 -1.6806 -4.13124 0
M  V30 1524 C 150.975 -3.75345 -4.444 0
M  V30 1525 N 149.951 -3.03051 -4.51288 0
M  V30 1526 H 153.753 -1.99117 -2.1617 0
M  V30 1527 H 151.267 -1.17216 -1.12402 0
M  V30 1528 H 153.264 -0.517112 -4.13681 0
M  V30 1529 H 151.924 0.242139 -3.23796 0
M  V30 1530 H 152.935 -3.39293 -3.91281 0
M  V30 1531 H 149.612 -0.818629 -4.09396 0
M  V30 1532 H 151.002 -4.81691 -4.68427 0
M  V30 1533 N 153.722 1.14298 -1.08507 0
M  V30 1534 C 154.95 1.89219 -0.836876 0
M  V30 1535 C 155.365 1.78638 0.611054 0
M  V30 1536 O 154.722 1.14643 1.41998 0
M  V30 1537 C 154.773 3.39158 -1.25116 0
M  V30 1538 O 154.494 3.49449 -2.64229 0
M  V30 1539 C 155.995 4.31073 -1.03398 0
M  V30 1540 H 153.215 0.599328 -0.301739 0
M  V30 1541 H 155.759 1.44746 -1.44461 0
M  V30 1542 H 153.914 3.81251 -0.687514 0
M  V30 1543 H 154.328 4.42589 -2.81452 0
M  V30 1544 H 155.802 5.34646 -1.37323 0
M  V30 1545 H 156.279 4.3919 0.0289259 0
M  V30 1546 H 156.885 3.94738 -1.58311 0
M  V30 1547 N 155.201 0.870884 1.31352 0
M  V30 1548 C 156.478 0.402907 1.91405 0
M  V30 1549 C 156.858 -1.11512 1.79244 0
M  V30 1550 O 156.206 -1.94411 1.2007 0
M  V30 1551 C 156.416 0.885301 3.37585 0
M  V30 1552 C 157.764 0.911971 4.14691 0
M  V30 1553 O 158.788 0.831016 3.46371 0
M  V30 1554 O 157.647 1.02927 5.3672 0
M  V30 1555 H 154.741 0.120698 0.818145 0
M  V30 1556 H 157.287 0.958857 1.40014 0
M  V30 1557 H 156.059 1.92889 3.40455 0
M  V30 1558 H 155.682 0.307714 3.96407 0
M  V30 1559 N 156.679 -1.44442 0.630414 0
M  V30 1560 C 157.642 -2.29107 -0.0652523 0
M  V30 1561 C 158.642 -1.41002 -0.772995 0
M  V30 1562 O 159.832 -1.62881 -0.617692 0
M  V30 1563 C 156.964 -3.22564 -1.10296 0
M  V30 1564 H 158.157 -2.92103 0.679401 0
M  V30 1565 H 155.71 -1.51343 0.390517 0
M  V30 1566 H 156.445 -2.64416 -1.87762 0
M  V30 1567 H 156.23 -3.87491 -0.59941 0
M  V30 1568 H 157.72 -3.86167 -1.5895 0
M  V30 1569 N 158.157 -0.370918 -1.53173 0
M  V30 1570 C 159.12 0.460778 -2.24521 0
M  V30 1571 C 160.12 1.00536 -1.25496 0
M  V30 1572 O 161.31 0.890266 -1.49733 0
M  V30 1573 C 158.442 1.64457 -2.98608 0
M  V30 1574 H 159.635 -0.163613 -2.99453 0
M  V30 1575 H 157.188 -0.122699 -1.55818 0
M  V30 1576 H 157.923 2.30691 -2.2793 0
M  V30 1577 H 157.708 1.26099 -3.7127 0
M  V30 1578 H 159.198 2.23384 -3.5283 0
M  V30 1579 N 159.635 1.57281 -0.100228 0
M  V30 1580 C 160.545 2.17833 0.870965 0
M  V30 1581 C 161.561 1.14921 1.30649 0
M  V30 1582 O 162.737 1.47313 1.37335 0
M  V30 1583 C 159.802 2.75085 2.1102 0
M  V30 1584 C 158.863 3.9297 1.72838 0
M  V30 1585 C 158.096 4.47482 2.90854 0
M  V30 1586 O 158.319 4.00922 4.05731 0
M  V30 1587 O 157.253 5.38433 2.69023 0
M  V30 1588 H 161.079 3.0124 0.38575 0
M  V30 1589 H 158.664 1.48881 0.124397 0
M  V30 1590 H 160.546 3.11656 2.83634 0
M  V30 1591 H 159.221 1.94721 2.58584 0
M  V30 1592 H 158.128 3.61201 0.973883 0
M  V30 1593 H 159.461 4.74713 1.30033 0
M  V30 1594 N 161.113 -0.173488 1.56642 0
M  V30 1595 C 162.076 -1.19859 1.95362 0
M  V30 1596 C 163.076 -1.37296 0.83704 0
M  V30 1597 O 164.266 -1.34739 1.10413 0
M  V30 1598 C 161.398 -2.56405 2.24654 0
M  V30 1599 H 162.591 -0.867062 2.87092 0
M  V30 1600 H 160.144 -0.415853 1.50666 0
M  V30 1601 H 160.879 -2.94576 1.35631 0
M  V30 1602 H 160.664 -2.45115 3.06041 0
M  V30 1603 H 162.154 -3.30287 2.5554 0
M  V30 1604 N 162.591 -1.51276 -0.441967 0
M  V30 1605 C 163.839 -1.63392 -1.18943 0
M  V30 1606 C 164.16 -0.350159 -1.9183 0
M  V30 1607 O 163.43 0.633784 -1.85364 0
M  V30 1608 H 162.01 -0.602164 -0.442049 0
M  V30 1609 H 164.672 -1.88186 -0.507165 0
M  V30 1610 H 163.768 -2.45934 -1.92154 0
M  V30 1611 N 164.069 0.697108 -1.41344 0
M  V30 1612 C 165.316 1.45714 -1.40619 0
M  V30 1613 C 165.644 1.94494 -0.0147907 0
M  V30 1614 O 164.899 1.69794 0.973066 0
M  V30 1615 C 165.198 2.68553 -2.35826 0
M  V30 1616 C 164.864 2.38438 -3.82698 0
M  V30 1617 C 163.526 2.29936 -4.22709 0
M  V30 1618 C 165.878 2.13567 -4.75435 0
M  V30 1619 C 163.206 1.94656 -5.53467 0
M  V30 1620 C 165.558 1.79797 -6.06511 0
M  V30 1621 C 164.222 1.69789 -6.45545 0
M  V30 1622 H 163.492 0.533206 -0.51456 0
M  V30 1623 H 166.139 0.796901 -1.74131 0
M  V30 1624 H 164.444 3.39503 -1.95563 0
M  V30 1625 H 166.141 3.2669 -2.32539 0
M  V30 1626 H 162.731 2.4595 -3.51008 0
M  V30 1627 H 166.915 2.19082 -4.45328 0
M  V30 1628 H 162.171 1.8546 -5.82593 0
M  V30 1629 H 166.345 1.59572 -6.77872 0
M  V30 1630 H 163.972 1.4222 -7.46778 0
M  V30 1631 N 165.547 1.27147 0.931209 0
M  V30 1632 C 166.824 1.0401 1.65654 0
M  V30 1633 C 167.204 -0.426297 2.06751 0
M  V30 1634 O 166.552 -1.40879 1.79904 0
M  V30 1635 C 166.762 1.99834 2.86125 0
M  V30 1636 C 168.11 2.29007 3.57549 0
M  V30 1637 O 169.134 1.97779 2.96246 0
M  V30 1638 O 167.993 2.82222 4.67989 0
M  V30 1639 H 165.087 0.396239 0.725895 0
M  V30 1640 H 167.633 1.38397 0.982056 0
M  V30 1641 H 166.405 2.98744 2.52721 0
M  V30 1642 H 166.028 1.65987 3.61295 0
M  V30 1643 N 167.025 -1.13721 1.09112 0
M  V30 1644 C 168.302 -1.81155 0.737706 0
M  V30 1645 C 168.682 -1.96253 -0.777683 0
M  V30 1646 O 168.03 -1.52807 -1.69889 0
M  V30 1647 C 168.24 -3.16392 1.47299 0
M  V30 1648 C 169.588 -3.91787 1.63671 0
M  V30 1649 O 170.612 -3.26005 1.43524 0
M  V30 1650 O 169.471 -5.0977 1.96969 0
M  V30 1651 H 166.565 -0.783518 0.26463 0
M  V30 1652 H 169.111 -1.20676 1.19312 0
M  V30 1653 H 167.883 -3.0061 2.50498 0
M  V30 1654 H 167.506 -3.8457 1.00953 0
M  V30 1655 N 168.503 -0.877838 -1.30888 0
M  V30 1656 C 169.728 -0.506629 -2.01117 0
M  V30 1657 C 170.153 0.895564 -1.65412 0
M  V30 1658 O 169.511 1.5923 -0.866922 0
M  V30 1659 C 169.559 -0.680223 -3.54126 0
M  V30 1660 O 168.663 0.277033 -4.11468 0
M  V30 1661 H 168.004 -0.200518 -0.633 0
M  V30 1662 H 170.534 -1.18342 -1.66902 0
M  V30 1663 H 170.544 -0.5765 -4.03907 0
M  V30 1664 H 169.219 -1.70261 -3.79452 0
M  V30 1665 H 167.796 0.127606 -3.72682 0
M  V30 1666 N 169.982 1.44106 -0.638065 0
M  V30 1667 C 171.229 2.01978 -0.14533 0
M  V30 1668 C 171.557 1.50234 1.23532 0
M  V30 1669 O 170.812 0.679548 1.83523 0
M  V30 1670 C 171.111 3.5729 -0.0887327 0
M  V30 1671 C 170.777 4.28317 -1.40909 0
M  V30 1672 C 169.439 4.47437 -1.77069 0
M  V30 1673 C 171.791 4.6867 -2.28031 0
M  V30 1674 C 169.119 5.04171 -3.00047 0
M  V30 1675 C 171.471 5.26766 -3.50286 0
M  V30 1676 C 170.135 5.44104 -3.86661 0
M  V30 1677 H 169.405 0.739089 -0.0531801 0
M  V30 1678 H 172.052 1.72781 -0.825761 0
M  V30 1679 H 170.357 3.8594 0.675095 0
M  V30 1680 H 172.054 3.99807 0.309145 0
M  V30 1681 H 168.644 4.1377 -1.1177 0
M  V30 1682 H 172.828 4.53604 -2.01388 0
M  V30 1683 H 168.084 5.15782 -3.28298 0
M  V30 1684 H 172.258 5.56983 -4.18023 0
M  V30 1685 H 169.885 5.87832 -4.82034 0
M  V30 1686 N 171.46 0.379036 1.52974 0
M  V30 1687 C 172.709 -0.207612 2.00629 0
M  V30 1688 C 173.022 -1.48758 1.27006 0
M  V30 1689 O 174.228 -2.15365 1.65318 0
M  V30 1690 C 172.684 -0.42053 3.57435 0
M  V30 1691 C 172.292 0.845587 4.39948 0
M  V30 1692 C 174.036 -0.964102 4.13407 0
M  V30 1693 C 171.943 0.601513 5.88333 0
M  V30 1694 H 170.873 -0.0813591 0.749598 0
M  V30 1695 H 173.524 0.499853 1.76561 0
M  V30 1696 H 171.906 -1.18959 3.7771 0
M  V30 1697 H 173.08 1.61848 4.31442 0
M  V30 1698 H 171.395 1.31336 3.95145 0
M  V30 1699 H 173.992 -1.16225 5.21916 0
M  V30 1700 H 174.335 -1.93019 3.68849 0
M  V30 1701 H 174.868 -0.25487 3.96983 0
M  V30 1702 H 171.607 1.53831 6.37194 0
M  V30 1703 H 171.127 -0.132628 5.99653 0
M  V30 1704 H 172.806 0.232134 6.46583 0
M  V30 1705 N 172.938 -1.57226 0.108567 0
M  V30 1706 C 174.168 -1.9889 -0.559142 0
M  V30 1707 C 174.576 -0.986889 -1.61422 0
M  V30 1708 O 173.919 0.0298705 -1.83676 0
M  V30 1709 C 173.981 -3.36952 -1.25315 0
M  V30 1710 C 173.645 -4.55679 -0.347248 0
M  V30 1711 C 174.642 -5.18281 0.409996 0
M  V30 1712 C 172.327 -5.0162 -0.261367 0
M  V30 1713 C 174.321 -6.25203 1.24096 0
M  V30 1714 C 172.008 -6.08405 0.573238 0
M  V30 1715 C 173.006 -6.70063 1.32304 0
M  V30 1716 O 172.694 -7.74788 2.14381 0
M  V30 1717 H 172.426 -0.658343 -0.153492 0
M  V30 1718 H 174.98 -2.04532 0.188584 0
M  V30 1719 H 173.21 -3.28032 -2.04773 0
M  V30 1720 H 174.899 -3.62974 -1.81673 0
M  V30 1721 H 175.665 -4.8371 0.353457 0
M  V30 1722 H 171.544 -4.53381 -0.834656 0
M  V30 1723 H 175.088 -6.73259 1.82669 0
M  V30 1724 H 170.985 -6.42406 0.631208 0
M  V30 1725 H 171.753 -7.91837 2.07209 0
M  V30 1726 N 174.416 0.165178 -1.56732 0
M  V30 1727 C 175.363 1.2044 -1.96883 0
M  V30 1728 C 176.333 1.43664 -0.833657 0
M  V30 1729 O 177.518 1.56302 -1.09427 0
M  V30 1730 C 174.658 2.53727 -2.33916 0
M  V30 1731 C 173.771 2.3783 -3.6064 0
M  V30 1732 C 172.906 3.64026 -3.86857 0
M  V30 1733 C 171.945 3.43088 -5.06909 0
M  V30 1734 N 171.082 4.61369 -5.29229 0
M  V30 1735 H 175.922 0.854996 -2.85471 0
M  V30 1736 H 173.459 0.41076 -1.41249 0
M  V30 1737 H 175.417 3.31419 -2.53411 0
M  V30 1738 H 174.047 2.8665 -1.48431 0
M  V30 1739 H 173.099 1.51282 -3.49024 0
M  V30 1740 H 174.411 2.18308 -4.4849 0
M  V30 1741 H 173.565 4.50152 -4.06753 0
M  V30 1742 H 172.304 3.86533 -2.97394 0
M  V30 1743 H 171.309 2.55349 -4.86906 0
M  V30 1744 H 172.534 3.21997 -5.97909 0
M  V30 1745 H 170.48 4.84084 -4.42718 0
M  V30 1746 H 170.397 4.44783 -6.11313 0
M  V30 1747 H 171.665 5.48761 -5.53608 0
M  V30 1748 N 175.894 1.51508 0.433938 0
M  V30 1749 C 176.804 1.75917 1.5521 0
M  V30 1750 C 177.82 0.643545 1.61662 0
M  V30 1751 O 178.996 0.926183 1.7884 0
M  V30 1752 C 176.061 1.88213 2.91164 0
M  V30 1753 C 175.122 3.12074 2.94802 0
M  V30 1754 C 174.355 3.23774 4.24271 0
M  V30 1755 O 174.578 2.4133 5.16833 0
M  V30 1756 O 173.512 4.16774 4.34262 0
M  V30 1757 H 177.338 2.70777 1.37527 0
M  V30 1758 H 174.923 1.36051 0.617293 0
M  V30 1759 H 176.805 1.98267 3.71845 0
M  V30 1760 H 175.48 0.965413 3.08968 0
M  V30 1761 H 174.387 3.07497 2.13065 0
M  V30 1762 H 175.72 4.03446 2.81943 0
M  V30 1763 N 177.372 -0.689602 1.41712 0
M  V30 1764 C 178.621 -1.44534 1.40686 0
M  V30 1765 C 178.934 -1.95588 0.0213352 0
M  V30 1766 O 180.14 -2.71271 -0.111534 0
M  V30 1767 C 178.596 -2.61387 2.47396 0
M  V30 1768 C 178.204 -2.17094 3.91885 0
M  V30 1769 C 179.948 -3.38986 2.55517 0
M  V30 1770 C 177.855 -3.3094 4.90135 0
M  V30 1771 H 176.785 -0.542925 0.52321 0
M  V30 1772 H 179.436 -0.748054 1.6756 0
M  V30 1773 H 177.818 -3.33412 2.13664 0
M  V30 1774 H 178.992 -1.52318 4.34897 0
M  V30 1775 H 177.307 -1.52473 3.8748 0
M  V30 1776 H 179.904 -4.23747 3.26102 0
M  V30 1777 H 180.247 -3.84578 1.59391 0
M  V30 1778 H 180.78 -2.74021 2.8837 0
M  V30 1779 H 177.519 -2.90355 5.87685 0
M  V30 1780 H 177.039 -3.94546 4.51767 0
M  V30 1781 H 178.718 -3.9663 5.11169 0
M  V30 1782 N 178.85 -1.27639 -0.924453 0
M  V30 1783 C 180.127 -1.04887 -1.651 0
M  V30 1784 C 180.507 0.415327 -2.06974 0
M  V30 1785 O 179.855 1.39923 -1.80648 0
M  V30 1786 C 180.065 -2.01348 -2.85061 0
M  V30 1787 C 181.413 -2.30899 -3.56329 0
M  V30 1788 O 182.437 -1.99348 -2.95193 0
M  V30 1789 O 181.296 -2.84699 -4.66485 0
M  V30 1790 H 178.39 -0.400083 -0.723784 0
M  V30 1791 H 180.936 -1.38916 -0.974703 0
M  V30 1792 H 179.708 -3.0008 -2.51133 0
M  V30 1793 H 179.331 -1.679 -3.6041 0
M  V30 1794 N 180.328 1.1314 -1.09713 0
M  V30 1795 C 181.275 2.18642 -0.739196 0
M  V30 1796 C 182.245 1.63706 0.280978 0
M  V30 1797 O 183.43 1.90111 0.161946 0
M  V30 1798 C 180.57 3.44685 -0.169102 0
M  V30 1799 C 179.683 4.13711 -1.24367 0
M  V30 1800 C 178.818 5.27379 -0.636019 0
M  V30 1801 C 177.857 5.88259 -1.69169 0
M  V30 1802 N 176.994 6.93352 -1.10485 0
M  V30 1803 H 181.834 2.48607 -1.64312 0
M  V30 1804 H 179.371 1.22066 -0.820875 0
M  V30 1805 H 181.329 4.16815 0.179256 0
M  V30 1806 H 179.959 3.15161 0.698079 0
M  V30 1807 H 179.011 3.39835 -1.70927 0
M  V30 1808 H 180.323 4.55037 -2.04311 0
M  V30 1809 H 179.477 6.06238 -0.236677 0
M  V30 1810 H 178.216 4.8731 0.194928 0
M  V30 1811 H 177.221 5.08092 -2.10055 0
M  V30 1812 H 178.446 6.30399 -2.52536 0
M  V30 1813 H 176.392 6.55335 -0.295234 0
M  V30 1814 H 176.309 7.33236 -1.84121 0
M  V30 1815 H 177.577 7.76057 -0.73181 0
M  V30 1816 N 181.806 0.884767 1.30421 0
M  V30 1817 C 183.217 0.553656 1.78302 0
M  V30 1818 C 183.568 -0.930153 1.7275 0
M  V30 1819 O 182.693 -1.72681 1.30423 0
M  V30 1820 C 183.288 0.998234 3.2376 0
M  V30 1821 C 181.847 0.71854 3.69478 0
M  V30 1822 C 180.994 1.18132 2.50879 0
M  V30 1823 H 183.945 1.06901 1.17294 0
M  V30 1824 H 183.966 0.327118 3.79091 0
M  V30 1825 H 183.478 2.0782 3.27769 0
M  V30 1826 H 181.579 -0.349444 3.70958 0
M  V30 1827 H 181.692 1.30595 4.60958 0
M  V30 1828 H 180.056 0.600669 2.47516 0
M  V30 1829 H 180.839 2.26902 2.57624 0
M  V30 1830 N 183.284 -1.43765 0.645699 0
M  V30 1831 C 184.247 -2.29163 -0.0409488 0
M  V30 1832 C 185.247 -1.41813 -0.757996 0
M  V30 1833 O 186.437 -1.63527 -0.600382 0
M  V30 1834 C 183.569 -3.23716 -1.06869 0
M  V30 1835 H 184.762 -2.91366 0.710345 0
M  V30 1836 H 182.315 -1.5092 0.406547 0
M  V30 1837 H 183.05 -2.66393 -1.84947 0
M  V30 1838 H 182.835 -3.88105 -0.558277 0
M  V30 1839 H 184.325 -3.87831 -1.54845 0
M  V30 1840 N 184.763 -0.387143 -1.52771 0
M  V30 1841 C 185.673 0.456442 -2.30117 0
M  V30 1842 C 186.689 1.07342 -1.36944 0
M  V30 1843 O 187.865 1.07971 -1.70013 0
M  V30 1844 C 184.93 1.56957 -3.09136 0
M  V30 1845 C 183.991 0.977916 -4.18014 0
M  V30 1846 C 183.224 2.038 -4.93256 0
M  V30 1847 O 183.447 3.25271 -4.68567 0
M  V30 1848 O 182.381 1.6565 -5.78657 0
M  V30 1849 H 186.207 -0.17359 -3.03203 0
M  V30 1850 H 183.792 -0.150919 -1.48636 0
M  V30 1851 H 185.674 2.21628 -3.58412 0
M  V30 1852 H 184.349 2.18461 -2.38865 0
M  V30 1853 H 183.256 0.294525 -3.72939 0
M  V30 1854 H 184.589 0.407128 -4.90513 0
M  V30 1855 N 186.241 1.57166 -0.116904 0
M  V30 1856 C 187.151 2.18745 0.847812 0
M  V30 1857 C 188.167 1.163 1.29423 0
M  V30 1858 O 189.343 1.48761 1.35765 0
M  V30 1859 C 186.408 2.77307 2.0809 0
M  V30 1860 C 185.469 3.94781 1.68661 0
M  V30 1861 C 184.702 4.50541 2.86091 0
M  V30 1862 O 184.925 4.05202 4.01456 0
M  V30 1863 O 183.859 5.41256 2.63298 0
M  V30 1864 H 187.685 3.01632 0.353778 0
M  V30 1865 H 185.27 1.49005 0.108599 0
M  V30 1866 H 187.152 3.14647 2.80313 0
M  V30 1867 H 185.827 1.97452 2.56504 0
M  V30 1868 H 184.734 3.62214 0.935518 0
M  V30 1869 H 186.067 4.76065 1.24991 0
M  V30 1870 N 187.719 -0.156864 1.56817 0
M  V30 1871 C 189.135 -0.50916 1.5126 0
M  V30 1872 C 189.335 -1.83897 0.823658 0
M  V30 1873 O 188.391 -2.49469 0.390055 0
M  V30 1874 C 189.704 -0.52857 2.96018 0
M  V30 1875 C 191.252 -0.614771 3.06903 0
M  V30 1876 C 191.727 -0.664938 4.53147 0
M  V30 1877 N 193.218 -0.727433 4.57452 0
M  V30 1878 C 193.953 -0.787067 5.67973 0
M  V30 1879 N 193.449 -0.806649 6.88088 0
M  V30 1880 N 195.242 -0.827195 5.5598 0
M  V30 1881 H 187.393 0.714935 2.00006 0
M  V30 1882 H 189.656 0.259526 0.911784 0
M  V30 1883 H 189.362 0.380154 3.49639 0
M  V30 1884 H 189.236 -1.36998 3.51442 0
M  V30 1885 H 191.623 -1.51392 2.53307 0
M  V30 1886 H 191.704 0.253597 2.5454 0
M  V30 1887 H 191.348 0.230011 5.07379 0
M  V30 1888 H 191.278 -1.54966 5.03282 0
M  V30 1889 H 193.769 -0.719998 3.70978 0
M  V30 1890 H 194.082 -0.853727 7.6807 0
M  V30 1891 H 192.427 -0.774687 6.90669 0
M  V30 1892 H 195.618 -0.808998 4.61056 0
M  V30 1893 H 195.791 -0.870206 6.4213 0
M  V30 1894 N 189.197 -1.51736 -0.425897 0
M  V30 1895 C 190.425 -1.68794 -1.1965 0
M  V30 1896 C 190.84 -0.390164 -1.84725 0
M  V30 1897 O 190.197 0.632376 -1.71194 0
M  V30 1898 C 190.248 -2.81174 -2.27208 0
M  V30 1899 O 189.969 -4.05925 -1.64793 0
M  V30 1900 C 191.47 -3.09599 -3.17275 0
M  V30 1901 H 188.69 -0.566128 -0.360194 0
M  V30 1902 H 191.234 -1.98211 -0.503249 0
M  V30 1903 H 189.389 -2.54324 -2.9223 0
M  V30 1904 H 189.803 -4.68423 -2.35967 0
M  V30 1905 H 191.277 -3.91786 -3.88854 0
M  V30 1906 H 191.754 -2.22468 -3.78688 0
M  V30 1907 H 192.36 -3.38151 -2.57941 0
M  V30 1908 N 190.675 0.682077 -1.42076 0
M  V30 1909 C 191.924 1.43786 -1.41451 0
M  V30 1910 C 192.237 1.95574 -0.0317074 0
M  V30 1911 O 193.443 2.71326 0.0971462 0
M  V30 1912 C 191.899 2.60071 -2.48779 0
M  V30 1913 C 191.507 2.15013 -3.93031 0
M  V30 1914 C 193.251 3.37626 -2.57311 0
M  V30 1915 C 191.158 3.28336 -4.91883 0
M  V30 1916 H 190.088 0.540143 -0.526082 0
M  V30 1917 H 192.739 0.739157 -1.67955 0
M  V30 1918 H 191.121 3.32275 -2.15429 0
M  V30 1919 H 192.295 1.5001 -4.35699 0
M  V30 1920 H 190.61 1.50416 -3.88284 0
M  V30 1921 H 193.207 4.22012 -3.28345 0
M  V30 1922 H 193.55 3.83727 -1.61429 0
M  V30 1923 H 194.083 2.72488 -2.89819 0
M  V30 1924 H 190.822 2.87234 -5.89217 0
M  V30 1925 H 190.342 3.92145 -4.53853 0
M  V30 1926 H 192.021 3.93913 -5.13265 0
M  V30 1927 N 192.153 1.28127 0.917671 0
M  V30 1928 C 193.564 1.13622 1.48145 0
M  V30 1929 C 193.915 -0.275207 1.9426 0
M  V30 1930 O 193.04 -1.1691 1.82102 0
M  V30 1931 C 193.635 2.05648 2.69248 0
M  V30 1932 C 192.194 1.95219 3.21818 0
M  V30 1933 C 191.341 1.97618 1.94532 0
M  V30 1934 H 194.292 1.40874 0.730772 0
M  V30 1935 H 194.313 1.61818 3.44377 0
M  V30 1936 H 193.825 3.08365 2.35653 0
M  V30 1937 H 191.926 0.955244 3.60147 0
M  V30 1938 H 192.039 2.81976 3.87333 0
M  V30 1939 H 190.403 1.41973 2.11461 0
M  V30 1940 H 191.186 3.02007 1.63238 0
M  V30 1941 N 193.631 -1.12557 1.10312 0
M  V30 1942 C 194.878 -1.84038 0.844759 0
M  V30 1943 C 195.206 -1.84026 -0.629668 0
M  V30 1944 O 194.461 -1.28026 -1.48013 0
M  V30 1945 C 194.76 -3.31462 1.33669 0
M  V30 1946 C 194.426 -3.51647 2.82232 0
M  V30 1947 C 193.088 -3.56864 3.22802 0
M  V30 1948 C 195.44 -3.58867 3.77974 0
M  V30 1949 C 192.768 -3.66844 4.57867 0
M  V30 1950 C 195.12 -3.70375 5.1284 0
M  V30 1951 C 193.784 -3.73848 5.52986 0
M  V30 1952 H 193.054 -0.673444 0.309119 0
M  V30 1953 H 195.701 -1.32824 1.37949 0
M  V30 1954 H 194.006 -3.85091 0.721949 0
M  V30 1955 H 195.703 -3.85236 1.11329 0
M  V30 1956 H 192.293 -3.48249 2.49842 0
M  V30 1957 H 196.477 -3.54107 3.47738 0
M  V30 1958 H 191.733 -3.67804 4.88396 0
M  V30 1959 H 195.907 -3.74904 5.86873 0
M  V30 1960 H 193.534 -3.81333 6.57639 0
M  V30 1961 N 195.109 -0.891671 -1.2995 0
M  V30 1962 C 196.339 -0.527893 -1.99742 0
M  V30 1963 C 196.747 0.88979 -1.66971 0
M  V30 1964 O 196.09 1.59766 -0.906667 0
M  V30 1965 C 196.152 -0.630804 -3.53922 0
M  V30 1966 C 195.816 -2.01401 -4.10228 0
M  V30 1967 C 196.813 -2.98422 -4.25724 0
M  V30 1968 C 194.498 -2.32121 -4.45449 0
M  V30 1969 C 196.492 -4.24293 -4.75662 0
M  V30 1970 C 194.179 -3.58237 -4.95086 0
M  V30 1971 C 195.177 -4.54137 -5.10146 0
M  V30 1972 O 194.865 -5.78014 -5.58708 0
M  V30 1973 H 194.597 -0.201953 -0.645129 0
M  V30 1974 H 197.151 -1.20076 -1.66646 0
M  V30 1975 H 195.381 0.0990616 -3.86573 0
M  V30 1976 H 197.07 -0.277338 -4.04951 0
M  V30 1977 H 197.836 -2.76001 -3.98809 0
M  V30 1978 H 193.715 -1.5824 -4.32991 0
M  V30 1979 H 197.259 -4.99153 -4.87332 0
M  V30 1980 H 193.156 -3.80491 -5.21437 0
M  V30 1981 H 193.924 -5.8049 -5.77039 0
M  V30 1982 N 196.587 1.43421 -0.653314 0
M  V30 1983 C 197.519 2.29071 0.0769134 0
M  V30 1984 C 198.532 1.42513 0.787017 0
M  V30 1985 O 199.721 1.66449 0.644757 0
M  V30 1986 C 196.821 3.19436 1.13199 0
M  V30 1987 C 195.994 4.34533 0.500006 0
M  V30 1988 C 195.053 5.05771 1.45198 0
M  V30 1989 O 194.079 5.61037 0.960538 0
M  V30 1990 N 195.281 5.0928 2.78594 0
M  V30 1991 H 198.046 2.92382 -0.658235 0
M  V30 1992 H 195.607 1.54112 -0.496104 0
M  V30 1993 H 197.599 3.63958 1.76964 0
M  V30 1994 H 196.169 2.57724 1.7691 0
M  V30 1995 H 195.389 3.92925 -0.316738 0
M  V30 1996 H 196.677 5.08766 0.0588345 0
M  V30 1997 H 196.075 4.65751 3.2108 0
M  V30 1998 H 194.632 5.57519 3.37662 0
M  V30 1999 N 198.065 0.39524 1.52563 0
M  V30 2000 C 199.311 -0.185318 2.01952 0
M  V30 2001 C 199.644 -1.45964 1.28095 0
M  V30 2002 O 198.919 -1.90689 0.38315 0
M  V30 2003 C 199.202 -0.447193 3.57312 0
M  V30 2004 C 199.055 0.842828 4.41833 0
M  V30 2005 C 200.374 -1.23529 4.22408 0
M  V30 2006 H 197.493 -0.0658788 0.73405 0
M  V30 2007 H 200.135 0.525975 1.82575 0
M  V30 2008 H 198.285 -1.05312 3.73954 0
M  V30 2009 H 199.957 1.4795 4.36931 0
M  V30 2010 H 198.2 1.45686 4.08605 0
M  V30 2011 H 198.871 0.614165 5.48573 0
M  V30 2012 H 201.347 -0.722445 4.0978 0
M  V30 2013 H 200.223 -1.38727 5.3108 0
M  V30 2014 H 200.484 -2.25213 3.80436 0
M  V30 2015 N 199.544 -1.57102 0.125237 0
M  V30 2016 C 200.772 -1.99761 -0.538797 0
M  V30 2017 C 201.187 -1.00503 -1.59827 0
M  V30 2018 O 200.544 0.00119474 -1.825 0
M  V30 2019 C 200.595 -3.42408 -1.15927 0
M  V30 2020 O 200.316 -4.37869 -0.142143 0
M  V30 2021 C 201.817 -4.00232 -1.90602 0
M  V30 2022 H 199.037 -0.655772 -0.14214 0
M  V30 2023 H 201.581 -2.03383 0.213413 0
M  V30 2024 H 199.736 -3.39706 -1.86223 0
M  V30 2025 H 200.15 -5.21128 -0.593775 0
M  V30 2026 H 201.624 -5.02105 -2.29335 0
M  V30 2027 H 202.101 -3.39721 -2.78363 0
M  V30 2028 H 202.707 -4.06499 -1.25055 0
M  V30 2029 N 201.022 0.148545 -1.56898 0
M  V30 2030 C 201.952 1.18524 -2.01182 0
M  V30 2031 C 202.933 1.4489 -0.891123 0
M  V30 2032 O 204.118 1.55836 -1.15882 0
M  V30 2033 C 201.248 2.51879 -2.39112 0
M  V30 2034 C 200.202 2.40038 -3.54353 0
M  V30 2035 C 199.528 3.78089 -3.78091 0
M  V30 2036 C 200.828 1.88577 -4.87069 0
M  V30 2037 H 202.522 0.817029 -2.88036 0
M  V30 2038 H 200.068 0.391575 -1.38574 0
M  V30 2039 H 202.021 3.24627 -2.68692 0
M  V30 2040 H 200.745 2.90532 -1.49193 0
M  V30 2041 H 199.404 1.69742 -3.24936 0
M  V30 2042 H 199.052 4.14175 -2.85426 0
M  V30 2043 H 198.752 3.71028 -4.55645 0
M  V30 2044 H 200.276 4.52387 -4.10095 0
M  V30 2045 H 201.69 2.51117 -5.15377 0
M  V30 2046 H 200.087 1.9241 -5.68417 0
M  V30 2047 H 201.157 0.84136 -4.77545 0
M  V30 2048 N 202.5 1.5196 0.417844 0
M  V30 2049 C 203.728 1.69426 1.18753 0
M  V30 2050 C 204.143 0.399955 1.84515 0
M  V30 2051 O 203.5 -0.623288 1.71527 0
M  V30 2052 C 203.551 2.82375 2.25714 0
M  V30 2053 O 203.272 4.06793 1.62638 0
M  V30 2054 C 204.773 3.11277 3.15628 0
M  V30 2055 H 201.993 0.568031 0.357186 0
M  V30 2056 H 204.537 1.98475 0.49273 0
M  V30 2057 H 202.692 2.5587 2.90877 0
M  V30 2058 H 203.106 4.69667 2.3348 0
M  V30 2059 H 204.58 3.93843 3.86771 0
M  V30 2060 H 205.057 2.24473 3.77503 0
M  V30 2061 H 205.663 3.39515 2.56144 0
M  V30 2062 N 203.978 -0.674533 1.42435 0
M  V30 2063 C 204.888 -1.81751 1.48337 0
M  V30 2064 C 205.904 -1.69975 0.372099 0
M  V30 2065 O 207.08 -1.91521 0.62304 0
M  V30 2066 C 204.145 -3.17895 1.38361 0
M  V30 2067 C 203.206 -3.41625 2.59982 0
M  V30 2068 C 202.439 -4.71274 2.50473 0
M  V30 2069 O 202.662 -5.49197 1.54075 0
M  V30 2070 O 201.596 -4.96254 3.4061 0
M  V30 2071 H 205.422 -1.79728 2.44809 0
M  V30 2072 H 203.007 -0.830312 1.24202 0
M  V30 2073 H 204.889 -3.99136 1.35161 0
M  V30 2074 H 203.564 -3.20555 0.450144 0
M  V30 2075 H 202.471 -2.60231 2.68757 0
M  V30 2076 H 203.804 -3.43796 3.52229 0
M  V30 2077 N 205.456 -1.28612 -0.910864 0
M  V30 2078 C 206.406 -1.09423 -2.00026 0
M  V30 2079 C 207.39 -0.0170079 -1.60891 0
M  V30 2080 O 208.582 -0.237472 -1.754 0
M  V30 2081 C 205.711 -0.76114 -3.34756 0
M  V30 2082 C 204.797 -1.87735 -3.80285 0
M  V30 2083 N 205.188 -3.11938 -3.98156 0
M  V30 2084 C 203.486 -1.76786 -4.09467 0
M  V30 2085 C 204.187 -3.84687 -4.36338 0
M  V30 2086 N 203.163 -3.12555 -4.44759 0
M  V30 2087 H 206.965 -2.03658 -2.11898 0
M  V30 2088 H 204.479 -1.19573 -1.09891 0
M  V30 2089 H 206.476 -0.604743 -4.12491 0
M  V30 2090 H 205.136 0.173403 -3.24237 0
M  V30 2091 H 206.147 -3.47516 -3.83996 0
M  V30 2092 H 202.824 -0.905284 -4.07567 0
M  V30 2093 H 204.214 -4.91518 -4.58104 0
M  V30 2094 N 206.934 1.1197 -1.10907 0
M  V30 2095 C 207.864 2.19928 -0.784473 0
M  V30 2096 C 208.845 1.6833 0.244726 0
M  V30 2097 O 210.03 1.93892 0.109418 0
M  V30 2098 C 207.16 3.46597 -0.220827 0
M  V30 2099 C 206.114 4.11376 -1.18127 0
M  V30 2100 C 205.44 5.32554 -0.478594 0
M  V30 2101 C 206.74 4.56945 -2.52979 0
M  V30 2102 H 208.434 2.47337 -1.68715 0
M  V30 2103 H 205.98 1.18879 -0.812642 0
M  V30 2104 H 207.933 4.21396 0.0184278 0
M  V30 2105 H 206.657 3.1863 0.717113 0
M  V30 2106 H 205.316 3.38564 -1.40606 0
M  V30 2107 H 204.964 5.00856 0.463976 0
M  V30 2108 H 204.664 5.76844 -1.11912 0
M  V30 2109 H 206.188 6.10096 -0.248 0
M  V30 2110 H 207.602 5.23093 -2.3462 0
M  V30 2111 H 205.999 5.1203 -3.12962 0
M  V30 2112 H 207.069 3.70676 -3.12614 0
M  V30 2113 N 208.412 0.89855 1.29475 0
M  V30 2114 C 209.637 0.538561 2.00285 0
M  V30 2115 C 210.062 -0.869135 1.66816 0
M  V30 2116 O 209.42 -1.57831 0.892145 0
M  V30 2117 C 209.468 0.736475 3.52999 0
M  V30 2118 O 208.572 -0.211537 4.11857 0
M  V30 2119 H 207.913 0.210563 0.62973 0
M  V30 2120 H 210.443 1.20982 1.64998 0
M  V30 2121 H 210.453 0.640685 4.02938 0
M  V30 2122 H 209.128 1.76276 3.76696 0
M  V30 2123 H 207.705 -0.0682991 3.72837 0
M  V30 2124 N 209.89 -1.43072 0.660911 0
M  V30 2125 C 211.301 -1.84932 0.256348 0
M  V30 2126 C 211.652 -1.55325 -1.19868 0
M  V30 2127 O 210.777 -1.00607 -1.91591 0
M  V30 2128 C 211.372 -3.35684 0.458475 0
M  V30 2129 C 209.931 -3.76245 0.108161 0
M  V30 2130 C 209.078 -2.66749 0.757641 0
M  V30 2131 H 212.029 -1.33116 0.864051 0
M  V30 2132 H 212.05 -3.79365 -0.293683 0
M  V30 2133 H 211.562 -3.572 1.51755 0
M  V30 2134 H 209.663 -3.60338 -0.948014 0
M  V30 2135 H 209.776 -4.76058 0.538992 0
M  V30 2136 H 208.14 -2.53989 0.190185 0
M  V30 2137 H 208.923 -2.91092 1.81989 0
M  V30 2138 N 211.368 -0.403325 -1.52352 0
M  V30 2139 C 212.615 0.174347 -2.01748 0
M  V30 2140 C 212.943 1.45636 -1.2892 0
M  V30 2141 O 212.198 1.9193 -0.382258 0
M  V30 2142 C 212.497 0.474665 -3.54234 0
M  V30 2143 C 212.163 -0.717458 -4.45155 0
M  V30 2144 C 210.825 -1.04447 -4.69728 0
M  V30 2145 C 213.177 -1.51432 -4.98716 0
M  V30 2146 C 210.505 -2.16963 -5.45109 0
M  V30 2147 C 212.857 -2.6302 -5.75329 0
M  V30 2148 C 211.521 -2.96213 -5.98175 0
M  V30 2149 H 210.791 0.0637981 -0.738248 0
M  V30 2150 H 213.438 -0.543553 -1.83624 0
M  V30 2151 H 211.743 1.27406 -3.70506 0
M  V30 2152 H 213.44 0.934496 -3.89959 0
M  V30 2153 H 210.03 -0.452596 -4.26204 0
M  V30 2154 H 214.214 -1.27491 -4.79645 0
M  V30 2155 H 209.47 -2.43034 -5.61021 0
M  V30 2156 H 213.644 -3.25158 -6.15829 0
M  V30 2157 H 211.271 -3.83516 -6.56368 0
M  V30 2158 N 212.846 1.57033 -0.133567 0
M  V30 2159 C 213.778 2.13176 0.841944 0
M  V30 2160 C 214.791 1.07794 1.22001 0
M  V30 2161 O 215.98 1.35117 1.16643 0
M  V30 2162 C 213.08 2.62847 2.13926 0
M  V30 2163 C 212.253 3.92486 1.93064 0
M  V30 2164 C 211.312 4.27605 3.0666 0
M  V30 2165 O 210.338 4.96168 2.78937 0
M  V30 2166 N 211.54 3.861 4.33483 0
M  V30 2167 H 214.305 2.97503 0.362192 0
M  V30 2168 H 211.866 1.61821 0.05042 0
M  V30 2169 H 213.858 2.83363 2.88942 0
M  V30 2170 H 212.428 1.83319 2.53205 0
M  V30 2171 H 211.648 3.80732 1.02159 0
M  V30 2172 H 212.936 4.77225 1.76447 0
M  V30 2173 H 212.334 3.30828 4.58878 0
M  V30 2174 H 210.891 4.11694 5.05323 0
M  V30 2175 N 214.325 -0.140222 1.56975 0
M  V30 2176 C 215.288 -1.15689 1.97861 0
M  V30 2177 C 216.288 -1.3549 0.865974 0
M  V30 2178 O 217.478 -1.32367 1.13246 0
M  V30 2179 C 214.61 -2.51582 2.30042 0
M  V30 2180 H 215.803 -0.805971 2.88867 0
M  V30 2181 H 213.356 -0.383801 1.51515 0
M  V30 2182 H 214.091 -2.91632 1.41849 0
M  V30 2183 H 213.876 -2.38569 3.11171 0
M  V30 2184 H 215.366 -3.24792 2.62488 0
M  V30 2185 N 215.803 -1.52179 -0.40978 0
M  V30 2186 C 217.049 -1.67408 -1.15525 0
M  V30 2187 C 217.404 -0.398746 -1.88223 0
M  V30 2188 O 216.697 0.60678 -1.81738 0
M  V30 2189 C 216.891 -2.83428 -2.17723 0
M  V30 2190 C 216.72 -4.22121 -1.55061 0
M  V30 2191 C 215.49 -4.87657 -1.3236 0
M  V30 2192 C 217.688 -5.04248 -1.01185 0
M  V30 2193 N 215.67 -6.10387 -0.655834 0
M  V30 2194 C 217.041 -6.18209 -0.470963 0
M  V30 2195 C 219.096 -4.89583 -0.906252 0
M  V30 2196 C 217.799 -7.1911 0.165172 0
M  V30 2197 C 219.825 -5.90718 -0.28397 0
M  V30 2198 C 219.187 -7.03969 0.246243 0
M  V30 2199 H 215.286 -0.666251 -0.409431 0
M  V30 2200 H 217.87 -1.89482 -0.447729 0
M  V30 2201 H 216.041 -2.6297 -2.85834 0
M  V30 2202 H 217.773 -2.87697 -2.84627 0
M  V30 2203 H 214.528 -4.46007 -1.59294 0
M  V30 2204 H 214.952 -6.76153 -0.338596 0
M  V30 2205 H 219.594 -4.02253 -1.302 0
M  V30 2206 H 217.312 -8.06066 0.572986 0
M  V30 2207 H 220.898 -5.81443 -0.203792 0
M  V30 2208 H 219.778 -7.80886 0.720173 0
M  V30 2209 N 217.281 0.66697 -1.42791 0
M  V30 2210 C 218.697 0.981027 -1.25889 0
M  V30 2211 C 218.897 2.00793 -0.168695 0
M  V30 2212 O 217.953 2.48321 0.45747 0
M  V30 2213 C 219.266 1.47838 -2.61848 0
M  V30 2214 C 220.814 1.59575 -2.69267 0
M  V30 2215 C 221.289 2.12704 -4.05612 0
M  V30 2216 N 222.78 2.20026 -4.07606 0
M  V30 2217 C 223.515 2.62227 -5.09926 0
M  V30 2218 N 223.011 3.03824 -6.22626 0
M  V30 2219 N 224.804 2.62045 -4.97281 0
M  V30 2220 H 216.955 -0.0127891 -2.12396 0
M  V30 2221 H 219.218 0.0568258 -0.946295 0
M  V30 2222 H 218.924 0.798299 -3.4252 0
M  V30 2223 H 218.798 2.45579 -2.86305 0
M  V30 2224 H 221.185 2.26687 -1.88936 0
M  V30 2225 H 221.266 0.60302 -2.48591 0
M  V30 2226 H 220.91 1.46198 -4.86404 0
M  V30 2227 H 220.84 3.12782 -4.23645 0
M  V30 2228 H 223.331 1.90708 -3.2625 0
M  V30 2229 H 223.644 3.34734 -6.96544 0
M  V30 2230 H 221.989 3.01662 -6.26119 0
M  V30 2231 H 225.18 2.28916 -4.08308 0
M  V30 2232 H 225.353 2.94613 -5.77154 0
M  V30 2233 N 218.759 1.29093 0.90403 0
M  V30 2234 C 219.707 1.13727 2.02901 0
M  V30 2235 C 220.701 0.0539853 1.69314 0
M  V30 2236 O 221.907 0.213469 1.7873 0
M  V30 2237 H 218.282 0.35117 0.664969 0
M  V30 2238 H 220.253 2.08982 2.13001 0
M  V30 2239 C 219.002 0.826066 3.37745 0
M  V30 2240 H 218.325 1.65164 3.64089 0
M  V30 2241 H 219.765 0.758559 4.17159 0
M  V30 2242 C 218.224 -0.470541 3.33598 0
M  V30 2243 O 218.754 -1.49792 3.72727 0
M  V30 2244 N 216.96 -0.474812 2.86695 0
M  V30 2245 H 216.507 0.361692 2.55048 0
M  V30 2246 H 216.465 -1.34236 2.84303 0
M  V30 2247 N 220.237 -1.11381 1.11499 0
M  V30 2248 C 221.484 -1.83132 0.864231 0
M  V30 2249 C 221.812 -1.84683 -0.610114 0
M  V30 2250 O 221.067 -1.29589 -1.46646 0
M  V30 2251 C 221.366 -3.30026 1.37177 0
M  V30 2252 C 221.032 -3.48634 2.85946 0
M  V30 2253 C 219.694 -3.53421 3.26569 0
M  V30 2254 C 222.046 -3.54837 3.81759 0
M  V30 2255 C 219.374 -3.61967 4.61733 0
M  V30 2256 C 221.726 -3.64915 5.1674 0
M  V30 2257 C 220.39 -3.67962 5.5692 0
M  V30 2258 H 219.66 -0.670127 0.316245 0
M  V30 2259 H 222.307 -1.31354 1.3935 0
M  V30 2260 H 220.612 -3.84304 0.762753 0
M  V30 2261 H 222.309 -3.84034 1.15408 0
M  V30 2262 H 218.899 -3.45579 2.53521 0
M  V30 2263 H 223.083 -3.50399 3.51474 0
M  V30 2264 H 218.339 -3.62603 4.92269 0
M  V30 2265 H 222.513 -3.68658 5.90816 0
M  V30 2266 H 220.14 -3.74336 6.61647 0
M  V30 2267 N 221.715 -0.905404 -1.28997 0
M  V30 2268 C 222.678 -0.392253 -2.25819 0
M  V30 2269 C 223.678 0.476753 -1.5357 0
M  V30 2270 O 224.868 0.280994 -1.71919 0
M  V30 2271 C 222 0.438588 -3.38067 0
M  V30 2272 H 223.193 -1.24743 -2.72725 0
M  V30 2273 H 220.746 -0.684051 -1.40536 0
M  V30 2274 H 221.481 1.31352 -2.96508 0
M  V30 2275 H 221.266 -0.184167 -3.91667 0
M  V30 2276 H 222.756 0.78873 -4.10084 0
M  V30 2277 N 223.193 1.4272 -0.668489 0
M  V30 2278 C 224.141 2.32586 0.0254857 0
M  V30 2279 C 225.135 1.49471 0.797176 0
M  V30 2280 O 226.341 1.65583 0.705853 0
M  V30 2281 H 222.716 0.751514 0.0270339 0
M  V30 2282 H 224.687 2.88823 -0.749936 0
M  V30 2283 C 223.436 3.3397 0.967427 0
M  V30 2284 H 222.759 3.97961 0.383048 0
M  V30 2285 H 224.199 3.9945 1.42181 0
M  V30 2286 C 222.658 2.65744 2.0708 0
M  V30 2287 O 223.188 2.48454 3.15648 0
M  V30 2288 N 221.394 2.2487 1.8407 0
M  V30 2289 H 220.941 2.39132 0.95778 0
M  V30 2290 H 220.899 1.79552 2.58086 0
M  V30 2291 N 224.671 0.411399 1.52136 0
M  V30 2292 C 225.618 -0.412975 2.27075 0
M  V30 2293 C 226.588 -1.03912 1.29582 0
M  V30 2294 O 227.773 -1.06296 1.58448 0
M  V30 2295 C 224.913 -1.52247 3.09701 0
M  V30 2296 C 224.026 -0.917021 4.22155 0
M  V30 2297 C 223.161 -1.9994 4.92135 0
M  V30 2298 C 222.2 -1.37101 5.96548 0
M  V30 2299 N 221.337 -2.39364 6.60038 0
M  V30 2300 H 226.177 0.232499 2.97092 0
M  V30 2301 H 223.714 0.126496 1.46555 0
M  V30 2302 H 225.672 -2.17674 3.55913 0
M  V30 2303 H 224.302 -2.13794 2.41851 0
M  V30 2304 H 223.354 -0.151742 3.80097 0
M  V30 2305 H 224.666 -0.418006 4.97045 0
M  V30 2306 H 223.82 -2.73088 5.41763 0
M  V30 2307 H 222.559 -2.53208 4.16818 0
M  V30 2308 H 221.564 -0.624873 5.46237 0
M  V30 2309 H 222.789 -0.845998 6.7381 0
M  V30 2310 H 220.735 -2.91759 5.87548 0
M  V30 2311 H 220.652 -1.9428 7.3061 0
M  V30 2312 H 221.92 -3.12074 7.14304 0
M  V30 2313 N 226.149 -1.5696 0.141893 0
M  V30 2314 C 227.096 -2.16501 -0.799737 0
M  V30 2315 C 228.066 -1.09643 -1.24771 0
M  V30 2316 O 229.251 -1.3766 -1.32115 0
M  V30 2317 C 226.391 -2.78679 -2.03549 0
M  V30 2318 C 225.504 -3.99914 -1.6338 0
M  V30 2319 C 224.639 -4.50106 -2.82096 0
M  V30 2320 C 223.678 -5.63819 -2.38275 0
M  V30 2321 N 222.815 -6.08651 -3.49983 0
M  V30 2322 H 227.655 -2.96632 -0.285179 0
M  V30 2323 H 225.192 -1.46533 -0.129053 0
M  V30 2324 H 227.15 -3.1287 -2.75986 0
M  V30 2325 H 225.78 -2.012 -2.52425 0
M  V30 2326 H 224.832 -3.71735 -0.807279 0
M  V30 2327 H 226.144 -4.82311 -1.27192 0
M  V30 2328 H 225.298 -4.86325 -3.62729 0
M  V30 2329 H 224.037 -3.66706 -3.21525 0
M  V30 2330 H 223.042 -5.2718 -1.56081 0
M  V30 2331 H 224.267 -6.49 -1.99938 0
M  V30 2332 H 222.213 -5.28188 -3.89042 0
M  V30 2333 H 222.13 -6.85961 -3.17794 0
M  V30 2334 H 223.398 -6.49515 -4.30988 0
M  V30 2335 N 227.627 0.131896 -1.57047 0
M  V30 2336 C 228.537 1.1815 -2.02676 0
M  V30 2337 C 229.553 1.46113 -0.944824 0
M  V30 2338 O 230.729 1.57485 -1.25541 0
M  V30 2339 C 227.794 2.49139 -2.41103 0
M  V30 2340 C 226.855 2.28688 -3.63318 0
M  V30 2341 C 226.088 3.53431 -3.99903 0
M  V30 2342 O 226.311 4.60223 -3.36973 0
M  V30 2343 O 225.245 3.45198 -4.93074 0
M  V30 2344 H 229.071 0.824069 -2.92306 0
M  V30 2345 H 226.656 0.341745 -1.45439 0
M  V30 2346 H 228.538 3.26338 -2.66611 0
M  V30 2347 H 227.213 2.84382 -1.54624 0
M  V30 2348 H 226.12 1.4939 -3.42977 0
M  V30 2349 H 227.453 1.98355 -4.50462 0
M  V30 2350 N 229.106 1.52395 0.401703 0
M  V30 2351 C 230.336 1.70429 1.1678 0
M  V30 2352 C 230.744 0.416702 1.84554 0
M  V30 2353 O 230.087 -0.617697 1.73003 0
M  V30 2354 C 230.149 2.78919 2.26814 0
M  V30 2355 C 229.813 4.20437 1.79113 0
M  V30 2356 C 230.81 5.04028 1.27482 0
M  V30 2357 C 228.495 4.66704 1.85722 0
M  V30 2358 C 230.489 6.31961 0.830913 0
M  V30 2359 C 228.176 5.94625 1.40942 0
M  V30 2360 C 229.174 6.77082 0.897128 0
M  V30 2361 O 228.862 8.02607 0.455822 0
M  V30 2362 H 228.594 0.574272 0.356634 0
M  V30 2363 H 231.148 1.99767 0.477724 0
M  V30 2364 H 229.378 2.44973 2.99207 0
M  V30 2365 H 231.067 2.8548 2.88541 0
M  V30 2366 H 231.833 4.69471 1.21744 0
M  V30 2367 H 227.712 4.0262 2.24539 0
M  V30 2368 H 231.256 6.96271 0.430368 0
M  V30 2369 H 227.153 6.28688 1.46362 0
M  V30 2370 H 227.921 8.16453 0.578457 0
M  V30 2371 O 230.623 -0.547609 1.51933 0
M  V30 2372 H 231.314 -1.20275 1.51834 0
M  V30 END ATOM
M  V30 BEGIN BOND
M  V30 END BOND
M  V30 END CTAB
M  END
$$$$
