drugbank_target|O34714 Oxalate decarboxylase OxdC (DB01942)
 OpenBabel12092120233D

  0  0  0     0  0            999 V3000
M  V30 BEGIN CTAB
M  V30 COUNTS 6051 6134 0 0 0
M  V30 BEGIN ATOM
M  V30 1 H -0.908 1.98254 -0.117106 0
M  V30 2 N 0 1.576 0 0
M  V30 3 C 0.933 2.03868 1.02534 0
M  V30 4 C 1.911 0.928543 1.3348 0
M  V30 5 O 3.095 1.19667 1.45644 0
M  V30 6 C 0.222 2.43627 2.35294 0
M  V30 7 C -0.732 3.65373 2.2001 0
M  V30 8 S 0.101 5.13292 1.52614 0
M  V30 9 C 1.257 5.56322 2.86805 0
M  V30 10 H 1.49 2.90518 0.631377 0
M  V30 11 H -0.977 1.52953 0.210867 0
M  V30 12 H 0.981 2.67203 3.11629 0
M  V30 13 H -0.358 1.57376 2.7183 0
M  V30 14 H -1.165 3.90944 3.18086 0
M  V30 15 H -1.563 3.418 1.51819 0
M  V30 16 H 0.729 5.58782 3.83104 0
M  V30 17 H 1.672 6.56266 2.65933 0
M  V30 18 H 2.08 4.83886 2.90714 0
M  V30 19 N 1.4781 -0.272755 1.55222 0
M  V30 20 C 2.4251 -1.33716 1.88119 0
M  V30 21 C 3.3951 -1.49066 0.73271 0
M  V30 22 O 4.5801 -1.63469 0.984002 0
M  V30 23 C 1.7201 -2.69238 2.15882 0
M  V30 24 C 0.8331 -2.62108 3.43399 0
M  V30 25 C -0.0319 -3.89811 3.60861 0
M  V30 26 C -0.9929 -3.77193 4.8207 0
M  V30 27 N -1.8559 -4.9673 4.96189 0
M  V30 28 H 2.9841 -1.04962 2.78903 0
M  V30 29 H 0.5211 -0.507088 1.38083 0
M  V30 30 H 2.4791 -3.48089 2.29978 0
M  V30 31 H 1.1091 -2.96194 1.28331 0
M  V30 32 H 0.1611 -1.74967 3.37773 0
M  V30 33 H 1.4731 -2.48685 4.32386 0
M  V30 34 H 0.6271 -4.77103 3.74777 0
M  V30 35 H -0.6339 -4.06102 2.7006 0
M  V30 36 H -1.6289 -2.88284 4.68159 0
M  V30 37 H -0.4039 -3.62421 5.74307 0
M  V30 38 H -2.4579 -5.13431 4.08319 0
M  V30 39 H -2.5409 -4.85839 5.79221 0
M  V30 40 H -1.2729 -5.85594 5.1449 0
M  V30 41 N 2.9562 -1.48159 -0.537278 0
M  V30 42 C 3.9032 -1.62138 -1.64256 0
M  V30 43 C 4.8732 -0.463668 -1.59497 0
M  V30 44 O 6.0582 -0.686241 -1.78032 0
M  V30 45 C 3.1982 -1.66028 -3.02537 0
M  V30 46 C 2.3112 -2.92855 -3.17585 0
M  V30 47 C 1.4462 -2.87952 -4.46382 0
M  V30 48 C 0.4852 -4.09516 -4.54932 0
M  V30 49 N -0.3778 -4.02733 -5.75109 0
M  V30 50 H 4.4622 -2.56529 -1.51647 0
M  V30 51 H 1.9992 -1.27224 -0.738414 0
M  V30 52 H 3.9572 -1.66265 -3.82638 0
M  V30 53 H 2.5872 -0.751331 -3.13934 0
M  V30 54 H 1.6392 -3.02395 -2.30784 0
M  V30 55 H 2.9512 -3.82822 -3.19764 0
M  V30 56 H 2.1052 -2.8655 -5.34765 0
M  V30 57 H 0.8442 -1.95702 -4.46712 0
M  V30 58 H -0.1508 -4.11201 -3.64957 0
M  V30 59 H 1.0742 -5.02917 -4.56346 0
M  V30 60 H -0.9798 -3.13299 -5.76351 0
M  V30 61 H -1.0628 -4.86397 -5.78752 0
M  V30 62 H 0.2052 -4.05379 -6.65799 0
M  V30 63 N 4.4343 0.785586 -1.36625 0
M  V30 64 C 5.3663 1.90711 -1.2713 0
M  V30 65 C 6.3793 1.61688 -0.189986 0
M  V30 66 O 7.5683 1.72864 -0.445014 0
M  V30 67 C 4.6683 3.25611 -0.939713 0
M  V30 68 C 3.8413 3.82385 -2.12369 0
M  V30 69 C 2.9003 4.95732 -1.76456 0
M  V30 70 O 1.9263 5.12047 -2.48589 0
M  V30 71 N 3.1283 5.76258 -0.700492 0
M  V30 72 H 5.8933 1.99376 -2.23762 0
M  V30 73 H 3.4543 0.964041 -1.30069 0
M  V30 74 H 5.4463 3.98937 -0.680554 0
M  V30 75 H 4.0163 3.12538 -0.0624074 0
M  V30 76 H 3.2363 3.01001 -2.54543 0
M  V30 77 H 4.5243 4.17047 -2.9146 0
M  V30 78 H 3.9223 5.65609 -0.101624 0
M  V30 79 H 2.4793 6.4987 -0.501165 0
M  V30 80 N 5.9124 1.20967 1.01018 0
M  V30 81 C 6.8604 0.961223 2.1181 0
M  V30 82 C 7.8544 -0.0897034 1.69162 0
M  V30 83 O 9.0604 0.0612271 1.79896 0
M  V30 84 H 5.4354 0.29355 0.692338 0
M  V30 85 H 7.4064 1.90178 2.29946 0
M  V30 86 C 6.1554 0.536854 3.4353 0
M  V30 87 H 5.4784 1.33713 3.76777 0
M  V30 88 H 6.9184 0.402286 4.22087 0
M  V30 89 C 5.3774 -0.751574 3.2841 0
M  V30 90 O 5.9074 -1.80841 3.58691 0
M  V30 91 N 4.1134 -0.716079 2.81639 0
M  V30 92 H 3.6604 0.144236 2.57196 0
M  V30 93 H 3.6184 -1.57847 2.71904 0
M  V30 94 N 7.3905 -1.2043 1.01659 0
M  V30 95 C 8.6675 -1.8548 0.621004 0
M  V30 96 C 9.0475 -1.9091 -0.900919 0
M  V30 97 O 8.3955 -1.41694 -1.79263 0
M  V30 98 C 8.6055 -3.25119 1.2688 0
M  V30 99 C 9.9535 -4.01403 1.38423 0
M  V30 100 O 10.9775 -3.34473 1.22501 0
M  V30 101 O 9.8365 -5.21265 1.64151 0
M  V30 102 H 6.9305 -0.798761 0.214266 0
M  V30 103 H 9.4765 -1.28019 1.11396 0
M  V30 104 H 8.2485 -3.15932 2.30873 0
M  V30 105 H 7.8715 -3.90212 0.762917 0
M  V30 106 N 8.8686 -0.792821 -1.36206 0
M  V30 107 C 10.1176 -0.363353 -1.984 0
M  V30 108 C 10.4306 1.07172 -1.63626 0
M  V30 109 O 11.6366 1.60362 -2.19081 0
M  V30 110 C 10.0926 -0.59872 -3.54885 0
M  V30 111 C 9.7006 -2.04543 -3.9858 0
M  V30 112 C 11.4446 -0.233926 -4.23855 0
M  V30 113 C 9.3516 -2.22727 -5.47856 0
M  V30 114 H 8.2816 -0.13212 -0.742334 0
M  V30 115 H 10.9326 -0.974935 -1.55458 0
M  V30 116 H 9.3146 0.0826222 -3.95914 0
M  V30 117 H 10.4886 -2.76345 -3.68741 0
M  V30 118 H 8.8036 -2.36879 -3.42458 0
M  V30 119 H 11.4006 -0.348027 -5.33566 0
M  V30 120 H 11.7436 0.818351 -4.08177 0
M  V30 121 H 12.2766 -0.868639 -3.882 0
M  V30 122 H 9.0156 -3.2635 -5.68486 0
M  V30 123 H 8.5356 -1.55434 -5.7931 0
M  V30 124 H 10.2146 -2.03607 -6.14128 0
M  V30 125 N 10.3467 1.47872 -0.545128 0
M  V30 126 C 11.7577 1.86384 -0.108581 0
M  V30 127 C 12.1087 1.45309 1.31832 0
M  V30 128 O 11.2337 0.850641 1.9898 0
M  V30 129 C 11.8287 3.38265 -0.190274 0
M  V30 130 C 10.3877 3.75914 0.191164 0
M  V30 131 C 9.5347 2.71926 -0.543273 0
M  V30 132 H 12.4857 1.39561 -0.755537 0
M  V30 133 H 12.5067 3.75831 0.594217 0
M  V30 134 H 12.0187 3.6813 -1.2289 0
M  V30 135 H 10.1197 3.51665 1.23136 0
M  V30 136 H 10.2327 4.78836 -0.158987 0
M  V30 137 H 8.5967 2.54697 0.0122495 0
M  V30 138 H 9.3797 3.04634 -1.58282 0
M  V30 139 N 11.8248 0.280983 1.55075 0
M  V30 140 C 12.7568 -0.637268 2.20163 0
M  V30 141 C 13.7698 -1.11298 1.18813 0
M  V30 142 O 14.9588 -1.03388 1.4551 0
M  V30 143 C 12.0588 -1.88199 2.81841 0
M  V30 144 C 11.2318 -1.55211 4.08936 0
M  V30 145 C 10.2908 -2.64991 4.54606 0
M  V30 146 O 9.3168 -2.30929 5.2025 0
M  V30 147 N 10.5188 -3.95161 4.25238 0
M  V30 148 H 13.2838 -0.0801694 2.99593 0
M  V30 149 H 10.8448 0.102329 1.61576 0
M  V30 150 H 12.8368 -2.60948 3.09335 0
M  V30 151 H 11.4068 -2.34799 2.06369 0
M  V30 152 H 10.6268 -0.658185 3.88666 0
M  V30 153 H 11.9148 -1.30681 4.91732 0
M  V30 154 H 11.3128 -4.25653 3.72607 0
M  V30 155 H 9.8698 -4.6427 4.5749 0
M  V30 156 N 13.3029 -1.57598 0.00835791 0
M  V30 157 C 14.7139 -1.7892 -0.53333 0
M  V30 158 C 15.0649 -0.916609 -1.73473 0
M  V30 159 O 14.1899 -0.121336 -2.1606 0
M  V30 160 C 14.7849 -3.24488 -0.974313 0
M  V30 161 C 13.3439 -3.46878 -1.46125 0
M  V30 162 C 12.4909 -2.74157 -0.416302 0
M  V30 163 H 15.4419 -1.56958 0.234495 0
M  V30 164 H 15.4629 -3.3306 -1.83988 0
M  V30 165 H 14.9749 -3.87972 -0.099718 0
M  V30 166 H 13.0759 -2.8862 -2.35646 0
M  V30 167 H 13.1889 -4.55572 -1.48295 0
M  V30 168 H 11.5529 -2.39022 -0.87981 0
M  V30 169 H 12.3359 -3.40345 0.44947 0
M  V30 170 N 14.781 0.264519 -1.55364 0
M  V30 171 C 16.03 0.992812 -1.75574 0
M  V30 172 C 16.343 1.87142 -0.568979 0
M  V30 173 O 17.549 2.63513 -0.653682 0
M  V30 174 C 16.005 1.81519 -3.10771 0
M  V30 175 C 15.613 0.984839 -4.37041 0
M  V30 176 C 17.357 2.53727 -3.40327 0
M  V30 177 C 15.264 1.80209 -5.63275 0
M  V30 178 H 14.194 0.374412 -0.65447 0
M  V30 179 H 16.845 0.248138 -1.81815 0
M  V30 180 H 15.227 2.60115 -2.98591 0
M  V30 181 H 16.401 0.242455 -4.60162 0
M  V30 182 H 14.716 0.37691 -4.14691 0
M  V30 183 H 17.313 3.15292 -4.3185 0
M  V30 184 H 17.656 3.24447 -2.60845 0
M  V30 185 H 18.189 1.82156 -3.53644 0
M  V30 186 H 14.928 1.13896 -6.45529 0
M  V30 187 H 14.448 2.52022 -5.44284 0
M  V30 188 H 16.127 2.37364 -6.01887 0
M  V30 189 N 16.2591 1.48442 0.529413 0
M  V30 190 C 17.6751 1.34575 0.858004 0
M  V30 191 C 17.8751 0.3572 1.98309 0
M  V30 192 O 16.9311 -0.221379 2.51528 0
M  V30 193 C 18.2441 2.74617 1.22499 0
M  V30 194 C 19.7921 2.83109 1.33484 0
M  V30 195 C 20.2671 4.23854 1.73526 0
M  V30 196 N 21.7581 4.2653 1.80628 0
M  V30 197 C 22.4931 5.32372 2.12997 0
M  V30 198 N 21.9891 6.48491 2.43786 0
M  V30 199 N 23.7821 5.19766 2.14008 0
M  V30 200 H 15.9331 2.1133 -0.212925 0
M  V30 201 H 18.1961 0.947439 -0.0326199 0
M  V30 202 H 17.9021 3.4852 0.471905 0
M  V30 203 H 17.7761 3.08177 2.17501 0
M  V30 204 H 20.1631 2.09462 2.0787 0
M  V30 205 H 20.2441 2.53168 0.366027 0
M  V30 206 H 19.8881 4.98018 0.997013 0
M  V30 207 H 19.8181 4.5124 2.71459 0
M  V30 208 H 22.3091 3.42772 1.59108 0
M  V30 209 H 22.6221 7.24993 2.67592 0
M  V30 210 H 20.9671 6.51765 2.41304 0
M  V30 211 H 24.1581 4.28066 1.89412 0
M  V30 212 H 24.3311 6.02354 2.38902 0
M  V30 213 N 17.7372 -0.778329 1.37039 0
M  V30 214 C 18.9852 -1.53361 1.31623 0
M  V30 215 C 19.3062 -1.94739 -0.100831 0
M  V30 216 O 18.5762 -1.65797 -1.04347 0
M  V30 217 H 17.1562 -0.568794 0.484234 0
M  V30 218 H 19.8182 -0.926742 1.71457 0
M  V30 219 H 18.9142 -2.43606 1.95096 0
M  V30 220 N 19.2153 -1.21501 -1.00376 0
M  V30 221 C 20.4923 -0.941745 -1.71437 0
M  V30 222 C 20.8723 0.546114 -2.03914 0
M  V30 223 O 20.2203 1.51128 -1.71384 0
M  V30 224 C 20.4303 -1.82812 -2.97289 0
M  V30 225 C 21.7783 -2.07771 -3.70292 0
M  V30 226 O 22.8023 -1.80171 -3.07273 0
M  V30 227 O 21.6613 -2.54456 -4.83647 0
M  V30 228 H 18.7553 -0.353243 -0.747762 0
M  V30 229 H 21.3013 -1.32436 -1.06108 0
M  V30 230 H 20.0733 -2.83501 -2.69709 0
M  V30 231 H 19.6963 -1.4464 -3.70358 0
M  V30 232 N 20.6934 1.19889 -1.02296 0
M  V30 233 C 21.6404 2.22901 -0.598651 0
M  V30 234 C 22.6104 1.61588 0.384521 0
M  V30 235 O 23.7954 1.88697 0.282522 0
M  V30 236 C 20.9354 3.45063 0.0504476 0
M  V30 237 C 20.0484 4.20783 -0.978053 0
M  V30 238 C 19.1834 5.30356 -0.299338 0
M  V30 239 C 18.2224 5.97826 -1.31416 0
M  V30 240 N 17.3594 6.98975 -0.661667 0
M  V30 241 H 22.1994 2.58554 -1.48169 0
M  V30 242 H 19.7364 1.27039 -0.741584 0
M  V30 243 H 21.6944 4.14831 0.443971 0
M  V30 244 H 20.3244 3.10084 0.897097 0
M  V30 245 H 19.3764 3.50018 -1.48969 0
M  V30 246 H 20.6884 4.67109 -1.74958 0
M  V30 247 H 19.8424 6.06516 0.149347 0
M  V30 248 H 18.5814 4.85084 0.504445 0
M  V30 249 H 17.5864 5.20422 -1.77317 0
M  V30 250 H 18.8114 6.45183 -2.11933 0
M  V30 251 H 16.7574 6.55886 0.122132 0
M  V30 252 H 16.6744 7.43461 -1.37117 0
M  V30 253 H 17.9424 7.7914 -0.236785 0
M  V30 254 N 22.1715 0.800033 1.35784 0
M  V30 255 C 23.4195 0.376597 1.9856 0
M  V30 256 C 23.7405 -1.05812 1.63795 0
M  V30 257 O 23.0105 -1.73103 0.917171 0
M  V30 258 H 21.5905 0.136261 0.734467 0
M  V30 259 H 24.2525 1.02442 1.65806 0
M  V30 260 H 23.3485 0.477002 3.08433 0
M  V30 261 N 23.6496 -1.47581 0.552962 0
M  V30 262 C 24.6126 -2.28439 -0.186605 0
M  V30 263 C 25.6126 -1.36706 -0.84665 0
M  V30 264 O 26.8026 -1.59378 -0.703164 0
M  V30 265 C 23.9346 -3.16264 -1.2724 0
M  V30 266 H 25.1276 -2.95294 0.523609 0
M  V30 267 H 22.6806 -1.532 0.309745 0
M  V30 268 H 23.4156 -2.54091 -2.01514 0
M  V30 269 H 23.2006 -3.83769 -0.803968 0
M  V30 270 H 24.6906 -3.77198 -1.79196 0
M  V30 271 N 25.1277 -0.289203 -1.54924 0
M  V30 272 C 26.3557 0.326463 -2.04308 0
M  V30 273 C 26.7707 1.48413 -1.16701 0
M  V30 274 O 26.1277 1.81507 -0.190087 0
M  V30 275 C 26.1787 0.794014 -3.52672 0
M  V30 276 O 25.8997 -0.317564 -4.36948 0
M  V30 277 C 27.4007 1.47605 -4.18004 0
M  V30 278 H 24.6207 0.0726272 -0.667058 0
M  V30 279 H 27.1647 -0.425401 -2.00026 0
M  V30 280 H 25.3197 1.49593 -3.57352 0
M  V30 281 H 25.7337 0.0443186 -5.24481 0
M  V30 282 H 27.2077 1.75447 -5.23376 0
M  V30 283 H 27.6847 2.41224 -3.67025 0
M  V30 284 H 28.2907 0.81762 -4.17367 0
M  V30 285 N 26.6058 1.57591 -0.0167156 0
M  V30 286 C 27.8518 1.91567 0.665582 0
M  V30 287 C 28.1848 0.892298 1.72487 0
M  V30 288 O 27.4598 -0.0867127 1.94307 0
M  V30 289 C 27.7428 3.36069 1.29342 0
M  V30 290 C 27.5958 4.49135 0.244541 0
M  V30 291 C 28.9148 3.803 2.21495 0
M  V30 292 H 26.0338 0.69666 0.240488 0
M  V30 293 H 28.6758 1.89866 -0.0714356 0
M  V30 294 H 26.8258 3.3765 1.92158 0
M  V30 295 H 28.4978 4.59689 -0.385228 0
M  V30 296 H 26.7408 4.3165 -0.431379 0
M  V30 297 H 27.4118 5.47242 0.723207 0
M  V30 298 H 29.8878 3.80377 1.68678 0
M  V30 299 H 28.7638 4.82127 2.62382 0
M  V30 300 H 29.0248 3.15104 3.101 0
M  V30 301 N 28.0839 -0.256276 1.55502 0
M  V30 302 C 29.0309 -1.31714 1.89526 0
M  V30 303 C 30.0009 -1.4828 0.748479 0
M  V30 304 O 31.1859 -1.62416 1.00128 0
M  V30 305 C 28.3259 -2.66933 2.18725 0
M  V30 306 C 27.4389 -2.58452 3.4616 0
M  V30 307 C 26.5739 -3.85961 3.64976 0
M  V30 308 C 25.6129 -3.72059 4.86044 0
M  V30 309 N 24.7499 -4.9144 5.01429 0
M  V30 310 H 29.5899 -1.01998 2.80001 0
M  V30 311 H 27.1269 -0.492413 1.38613 0
M  V30 312 H 29.0849 -3.4563 2.33657 0
M  V30 313 H 27.7149 -2.94816 1.31466 0
M  V30 314 H 26.7669 -1.71374 3.3961 0
M  V30 315 H 28.0789 -2.44085 4.34999 0
M  V30 316 H 27.2329 -4.73101 3.79816 0
M  V30 317 H 25.9719 -4.03215 2.74353 0
M  V30 318 H 24.9769 -2.83302 4.7119 0
M  V30 319 H 26.2019 -3.56309 5.78118 0
M  V30 320 H 24.1479 -5.09072 4.13741 0
M  V30 321 H 24.0649 -4.79668 5.84341 0
M  V30 322 H 25.3329 -5.80104 5.20672 0
M  V30 323 N 29.562 -1.4872 -0.521534 0
M  V30 324 C 30.811 -1.56419 -1.27341 0
M  V30 325 C 31.124 -0.246805 -1.94037 0
M  V30 326 O 32.33 -0.202122 -2.70747 0
M  V30 327 C 30.786 -2.75896 -2.31105 0
M  V30 328 C 30.394 -4.14311 -1.70441 0
M  V30 329 C 32.138 -2.92913 -3.07249 0
M  V30 330 C 30.045 -5.25038 -2.72194 0
M  V30 331 H 28.975 -0.582344 -0.478949 0
M  V30 332 H 31.626 -1.75071 -0.549779 0
M  V30 333 H 30.008 -2.50697 -3.06541 0
M  V30 334 H 31.182 -4.49564 -1.01136 0
M  V30 335 H 29.497 -4.02482 -1.06759 0
M  V30 336 H 32.094 -3.72805 -3.83302 0
M  V30 337 H 32.437 -2.02689 -3.63625 0
M  V30 338 H 32.97 -3.18054 -2.38928 0
M  V30 339 H 29.709 -6.17255 -2.20627 0
M  V30 340 H 29.229 -4.94263 -3.39801 0
M  V30 341 H 30.908 -5.53508 -3.35019 0
M  V30 342 N 31.0401 0.771051 -1.3745 0
M  V30 343 C 32.4511 1.34737 -1.29239 0
M  V30 344 C 32.8021 1.96109 0.0596908 0
M  V30 345 O 31.9271 1.93865 0.961534 0
M  V30 346 C 32.5221 2.44973 -2.34037 0
M  V30 347 C 31.0811 2.98372 -2.29458 0
M  V30 348 C 30.2281 1.71595 -2.17831 0
M  V30 349 H 33.1791 0.571256 -1.48062 0
M  V30 350 H 33.2001 3.24471 -1.98744 0
M  V30 351 H 32.7121 2.00276 -3.32432 0
M  V30 352 H 30.8131 3.47443 -1.34589 0
M  V30 353 H 30.9261 3.53939 -3.229 0
M  V30 354 H 29.2901 1.94547 -1.64388 0
M  V30 355 H 30.0731 1.29001 -3.18141 0
M  V30 356 N 32.5182 1.22032 0.997298 0
M  V30 357 C 33.9342 0.979326 1.26021 0
M  V30 358 C 34.1342 -0.32972 1.98784 0
M  V30 359 O 33.1902 -1.05345 2.29475 0
M  V30 360 C 34.5032 2.17509 2.07631 0
M  V30 361 C 36.0512 2.21817 2.2083 0
M  V30 362 C 36.5262 3.40933 3.05825 0
M  V30 363 N 38.0172 3.41067 3.13412 0
M  V30 364 C 38.7522 4.29885 3.79455 0
M  V30 365 N 38.2482 5.28914 4.47462 0
M  V30 366 N 40.0412 4.17673 3.76173 0
M  V30 367 H 32.1922 2.06202 0.509352 0
M  V30 368 H 34.4552 0.90334 0.287541 0
M  V30 369 H 34.1612 3.12415 1.61524 0
M  V30 370 H 34.0352 2.17206 3.08385 0
M  V30 371 H 36.4222 1.27462 2.66153 0
M  V30 372 H 36.5032 2.2616 1.1952 0
M  V30 373 H 36.1472 4.35586 2.61203 0
M  V30 374 H 36.0772 3.33829 4.07266 0
M  V30 375 H 38.5682 2.69406 2.65007 0
M  V30 376 H 38.8812 5.92973 4.95583 0
M  V30 377 H 37.2262 5.32831 4.46224 0
M  V30 378 H 40.4172 3.39564 3.22202 0
M  V30 379 H 40.5902 4.87098 4.27363 0
M  V30 380 N 33.9963 -1.19345 1.0293 0
M  V30 381 C 34.9443 -2.24621 0.604001 0
M  V30 382 C 35.9383 -1.65452 -0.363587 0
M  V30 383 O 37.1443 -1.78497 -0.23212 0
M  V30 384 H 33.5193 -0.730858 0.177061 0
M  V30 385 H 35.4903 -2.5781 1.50255 0
M  V30 386 C 34.2393 -3.47688 -0.0289127 0
M  V30 387 H 33.5623 -3.93505 0.706651 0
M  V30 388 H 35.0023 -4.23011 -0.289432 0
M  V30 389 C 33.4613 -3.11817 -1.2756 0
M  V30 390 O 33.9913 -3.2451 -2.36762 0
M  V30 391 N 32.1973 -2.66246 -1.16453 0
M  V30 392 H 31.7443 -2.56118 -0.275914 0
M  V30 393 H 31.7023 -2.42617 -1.99961 0
M  V30 394 N 35.4744 -0.807222 -1.35358 0
M  V30 395 C 36.7234 -0.384376 -1.98004 0
M  V30 396 C 37.0364 1.0543 -1.64754 0
M  V30 397 O 38.2424 1.58029 -2.20769 0
M  V30 398 C 36.6984 -0.636326 -3.5423 0
M  V30 399 C 36.3064 -2.08759 -3.96388 0
M  V30 400 C 38.0504 -0.278869 -4.23583 0
M  V30 401 C 35.9574 -2.28525 -5.45463 0
M  V30 402 H 34.8874 -0.139986 -0.740891 0
M  V30 403 H 37.5384 -0.991369 -1.54415 0
M  V30 404 H 35.9204 0.0406256 -3.95979 0
M  V30 405 H 37.0944 -2.8024 -3.6579 0
M  V30 406 H 35.4094 -2.40497 -3.39926 0
M  V30 407 H 38.0064 -0.404599 -5.33167 0
M  V30 408 H 38.3494 0.775012 -4.09022 0
M  V30 409 H 38.8824 -0.909764 -3.87257 0
M  V30 410 H 35.6214 -3.32361 -5.64992 0
M  V30 411 H 35.1414 -1.61569 -5.77629 0
M  V30 412 H 36.8204 -2.10109 -6.11934 0
M  V30 413 N 36.9525 1.47285 -0.560781 0
M  V30 414 C 37.8625 2.33846 0.187954 0
M  V30 415 C 38.8785 1.48412 0.908293 0
M  V30 416 O 40.0545 1.81332 0.876388 0
M  V30 417 C 37.1195 3.25178 1.2025 0
M  V30 418 C 36.1805 4.26504 0.489208 0
M  V30 419 C 35.4135 5.13472 1.45542 0
M  V30 420 O 35.6365 5.02959 2.6905 0
M  V30 421 O 34.5705 5.93902 0.977963 0
M  V30 422 H 38.3965 2.99177 -0.522177 0
M  V30 423 H 35.9815 1.45903 -0.321364 0
M  V30 424 H 37.8635 3.81584 1.78805 0
M  V30 425 H 36.5385 2.6247 1.89449 0
M  V30 426 H 35.4455 3.73847 -0.137627 0
M  V30 427 H 36.7785 4.91935 -0.161399 0
M  V30 428 N 38.4306 0.297415 1.54768 0
M  V30 429 C 39.8466 -0.0560823 1.59501 0
M  V30 430 C 40.0466 -1.52725 1.31444 0
M  V30 431 O 39.1026 -2.27947 1.08611 0
M  V30 432 C 40.4156 0.338631 2.98787 0
M  V30 433 C 41.9636 0.287097 3.11681 0
M  V30 434 C 42.4386 0.656579 4.53269 0
M  V30 435 N 43.9296 0.608977 4.59179 0
M  V30 436 C 44.6646 0.867385 5.66802 0
M  V30 437 N 44.1606 1.19157 6.82476 0
M  V30 438 N 45.9536 0.794687 5.56454 0
M  V30 439 H 38.1046 1.25624 1.71267 0
M  V30 440 H 40.3676 0.509057 0.799728 0
M  V30 441 H 40.0736 1.36263 3.2423 0
M  V30 442 H 39.9476 -0.309508 3.75928 0
M  V30 443 H 42.3346 -0.727649 2.85988 0
M  V30 444 H 42.4156 0.969809 2.36703 0
M  V30 445 H 42.0596 1.66912 4.7969 0
M  V30 446 H 41.9896 -0.0481649 5.26578 0
M  V30 447 H 44.4806 0.369198 3.76092 0
M  V30 448 H 44.7936 1.37482 7.60473 0
M  V30 449 H 43.1386 1.22958 6.84037 0
M  V30 450 H 46.3296 0.541098 4.64962 0
M  V30 451 H 46.5026 0.999445 6.40246 0
M  V30 452 N 39.9087 -1.5758 0.0250728 0
M  V30 453 C 41.1857 -1.82917 -0.692873 0
M  V30 454 C 41.5657 -0.908137 -1.90568 0
M  V30 455 O 40.9137 0.0372298 -2.2847 0
M  V30 456 C 41.1237 -3.32034 -1.07492 0
M  V30 457 C 42.4717 -3.98406 -1.46826 0
M  V30 458 O 43.4957 -3.36505 -1.16801 0
M  V30 459 O 42.3547 -5.07497 -2.02754 0
M  V30 460 H 39.4487 -0.754079 -0.33955 0
M  V30 461 H 41.9947 -1.69619 0.0524456 0
M  V30 462 H 40.7667 -3.90728 -0.211552 0
M  V30 463 H 40.3897 -3.50424 -1.87854 0
M  V30 464 N 41.3868 0.248026 -1.55636 0
M  V30 465 C 42.8028 0.596483 -1.48035 0
M  V30 466 C 43.0028 1.88386 -0.715039 0
M  V30 467 O 42.0588 2.51319 -0.243944 0
M  V30 468 C 43.3718 0.700258 -2.92433 0
M  V30 469 C 44.9198 0.792659 -3.02797 0
M  V30 470 C 45.3948 0.928005 -4.485 0
M  V30 471 N 46.8858 0.992903 -4.52433 0
M  V30 472 C 47.6208 1.11687 -5.62418 0
M  V30 473 N 47.1168 1.20645 -6.82214 0
M  V30 474 N 48.9098 1.14994 -5.50212 0
M  V30 475 H 41.0608 -0.597109 -2.03834 0
M  V30 476 H 43.3238 -0.205925 -0.925364 0
M  V30 477 H 43.0298 -0.175658 -3.51261 0
M  V30 478 H 42.9038 1.57255 -3.42857 0
M  V30 479 H 45.2908 1.65903 -2.4405 0
M  V30 480 H 45.3718 -0.104762 -2.55585 0
M  V30 481 H 45.0158 0.0661971 -5.07857 0
M  V30 482 H 44.9458 1.84045 -4.93391 0
M  V30 483 H 47.4368 0.935064 -3.66149 0
M  V30 484 H 47.7498 1.30008 -7.61786 0
M  V30 485 H 46.0948 1.17605 -6.84977 0
M  V30 486 H 49.2858 1.07643 -4.55555 0
M  V30 487 H 49.4588 1.24311 -6.35965 0
M  V30 488 N 42.8649 1.48995 0.513639 0
M  V30 489 C 43.7969 1.60836 1.63293 0
M  V30 490 C 44.8099 0.491701 1.55197 0
M  V30 491 O 45.9989 0.763238 1.6136 0
M  V30 492 C 43.0989 1.53731 3.02027 0
M  V30 493 C 42.2719 2.80715 3.35437 0
M  V30 494 C 41.3309 2.66837 4.53525 0
M  V30 495 O 40.3569 3.40753 4.55934 0
M  V30 496 N 41.5589 1.77539 5.52684 0
M  V30 497 H 44.3239 2.57366 1.53566 0
M  V30 498 H 41.8849 1.45925 0.701259 0
M  V30 499 H 43.8769 1.42118 3.78926 0
M  V30 500 H 42.4469 0.651092 3.05744 0
M  V30 501 H 41.6669 3.06772 2.47557 0
M  V30 502 H 42.9549 3.64927 3.54551 0
M  V30 503 H 42.3529 1.16719 5.53528 0
M  V30 504 H 40.9099 1.71856 6.28736 0
M  V30 505 N 44.343 -0.763751 1.37857 0
M  V30 506 C 45.291 -1.89864 1.34367 0
M  V30 507 C 46.285 -1.67816 0.231143 0
M  V30 508 O 47.491 -1.75508 0.399617 0
M  V30 509 H 43.866 -0.624501 0.41893 0
M  V30 510 H 45.837 -1.89925 2.30155 0
M  V30 511 C 44.586 -3.27227 1.1755 0
M  V30 512 H 43.909 -3.44773 2.02414 0
M  V30 513 H 45.349 -4.06911 1.1916 0
M  V30 514 C 43.808 -3.36692 -0.118311 0
M  V30 515 O 44.338 -3.86374 -1.09902 0
M  V30 516 N 42.544 -2.90092 -0.171717 0
M  V30 517 H 42.091 -2.49853 0.627012 0
M  V30 518 H 42.049 -2.96806 -1.03699 0
M  V30 519 N 45.8211 -1.22559 -0.990812 0
M  V30 520 C 47.2321 -1.04791 -1.54518 0
M  V30 521 C 47.5831 0.387998 -1.92325 0
M  V30 522 O 46.7081 1.27328 -1.74976 0
M  V30 523 C 47.3031 -1.896 -2.80779 0
M  V30 524 C 45.8621 -1.76124 -3.32652 0
M  V30 525 C 45.0091 -1.8594 -2.05722 0
M  V30 526 H 47.9601 -1.36374 -0.811662 0
M  V30 527 H 47.9811 -1.41464 -3.53225 0
M  V30 528 H 47.4931 -2.94101 -2.53231 0
M  V30 529 H 45.5941 -0.743643 -3.65104 0
M  V30 530 H 45.7071 -2.58913 -4.03114 0
M  V30 531 H 44.0711 -1.29403 -2.19379 0
M  V30 532 H 44.8541 -2.91976 -1.80568 0
M  V30 533 N 47.2992 1.18797 -1.03562 0
M  V30 534 C 48.5762 1.84469 -0.650434 0
M  V30 535 C 48.9562 1.92319 0.870433 0
M  V30 536 O 48.3042 1.44528 1.76986 0
M  V30 537 C 48.5142 3.2306 -1.32036 0
M  V30 538 C 49.8622 3.9915 -1.44792 0
M  V30 539 O 50.8862 3.32481 -1.27806 0
M  V30 540 O 49.7452 5.18587 -1.72423 0
M  V30 541 H 46.8392 0.795251 -0.226946 0
M  V30 542 H 49.3852 1.26231 -1.13419 0
M  V30 543 H 48.1572 3.1222 -2.3587 0
M  V30 544 H 47.7802 3.88949 -0.8249 0
M  V30 545 N 48.7773 0.814389 1.34928 0
M  V30 546 C 49.7103 0.175641 2.27523 0
M  V30 547 C 50.6883 -0.662953 1.48471 0
M  V30 548 O 51.8723 -0.628545 1.77712 0
M  V30 549 C 48.9993 -0.755516 3.30166 0
M  V30 550 C 48.0453 0.00445305 4.265 0
M  V30 551 S 48.8783 1.34582 5.18313 0
M  V30 552 C 50.0343 0.419315 6.24494 0
M  V30 553 H 50.2673 0.960691 2.8135 0
M  V30 554 H 47.8003 0.609846 1.41846 0
M  V30 555 H 49.7583 -1.28723 3.89796 0
M  V30 556 H 48.4193 -1.51402 2.75202 0
M  V30 557 H 47.6123 -0.703077 4.99072 0
M  V30 558 H 47.2143 0.466447 3.7108 0
M  V30 559 H 49.5063 -0.392432 6.76362 0
M  V30 560 H 50.4493 1.11446 6.99275 0
M  V30 561 H 50.8573 0.0115389 5.64499 0
M  V30 562 N 50.2554 -1.46986 0.568584 0
M  V30 563 C 51.1854 -2.32946 -0.160753 0
M  V30 564 C 52.1664 -1.44487 -0.897631 0
M  V30 565 O 53.3514 -1.73327 -0.875867 0
M  V30 566 C 50.4814 -3.26494 -1.18403 0
M  V30 567 C 49.4354 -4.24282 -0.562895 0
M  V30 568 C 48.7614 -5.07236 -1.69163 0
M  V30 569 C 50.0614 -5.19989 0.490761 0
M  V30 570 H 51.7554 -2.94175 0.556916 0
M  V30 571 H 49.3014 -1.4146 0.26927 0
M  V30 572 H 51.2544 -3.85477 -1.70251 0
M  V30 573 H 49.9784 -2.63343 -1.93179 0
M  V30 574 H 48.6374 -3.66541 -0.0656164 0
M  V30 575 H 48.2854 -4.4048 -2.42871 0
M  V30 576 H 47.9854 -5.7345 -1.28174 0
M  V30 577 H 49.5094 -5.6908 -2.21314 0
M  V30 578 H 50.9234 -5.73271 0.0579047 0
M  V30 579 H 49.3204 -5.94469 0.820165 0
M  V30 580 H 50.3904 -4.64777 1.3824 0
M  V30 581 N 51.7335 -0.305618 -1.54608 0
M  V30 582 C 52.9795 0.302746 -2.00528 0
M  V30 583 C 53.3125 1.53184 -1.19367 0
M  V30 584 O 52.5875 1.92598 -0.271321 0
M  V30 585 C 52.8705 0.654756 -3.54097 0
M  V30 586 C 52.7235 -0.583793 -4.45995 0
M  V30 587 C 54.0425 1.47947 -4.14487 0
M  V30 588 H 51.1615 0.108564 -0.72896 0
M  V30 589 H 53.8035 -0.418634 -1.85331 0
M  V30 590 H 51.9535 1.26935 -3.67178 0
M  V30 591 H 53.6255 -1.22224 -4.44814 0
M  V30 592 H 51.8685 -1.21615 -4.16404 0
M  V30 593 H 52.5395 -0.293287 -5.5122 0
M  V30 594 H 55.0155 0.96013 -4.04871 0
M  V30 595 H 53.8915 1.69454 -5.22088 0
M  V30 596 H 54.1525 2.47011 -3.66658 0
M  V30 597 N 53.2116 1.57565 -0.0334293 0
M  V30 598 C 54.6226 1.79746 0.504798 0
M  V30 599 C 54.9736 0.944091 1.71992 0
M  V30 600 O 54.0986 0.155694 2.15839 0
M  V30 601 C 54.6936 3.25997 0.922567 0
M  V30 602 C 53.2526 3.49159 1.40588 0
M  V30 603 C 52.3996 2.74785 0.372633 0
M  V30 604 H 55.3506 1.56565 -0.259436 0
M  V30 605 H 55.3716 3.35945 1.78666 0
M  V30 606 H 54.8836 3.88081 0.0379825 0
M  V30 607 H 52.9846 2.92332 2.31025 0
M  V30 608 H 53.0976 4.57873 1.41028 0
M  V30 609 H 51.4616 2.40391 0.841672 0
M  V30 610 H 52.2446 3.39587 -0.503559 0
M  V30 611 N 54.6897 -0.239769 1.55765 0
M  V30 612 C 56.1007 -0.808263 1.68297 0
M  V30 613 C 56.4517 -1.85736 0.632181 0
M  V30 614 O 55.5767 -2.15277 -0.220204 0
M  V30 615 C 56.1717 -1.47284 3.05111 0
M  V30 616 C 54.7307 -1.98895 3.19559 0
M  V30 617 C 53.8777 -0.842575 2.64189 0
M  V30 618 H 56.8287 -0.0154422 1.58692 0
M  V30 619 H 56.8497 -2.34111 2.99954 0
M  V30 620 H 56.3617 -0.709053 3.81568 0
M  V30 621 H 54.4627 -2.78132 2.47938 0
M  V30 622 H 54.5757 -2.18143 4.26556 0
M  V30 623 H 52.9397 -1.24501 2.22197 0
M  V30 624 H 53.7227 -0.0917552 3.43177 0
M  V30 625 N 56.1678 -1.49265 -0.50573 0
M  V30 626 C 57.0778 -1.68312 -1.63427 0
M  V30 627 C 58.0938 -0.565682 -1.64548 0
M  V30 628 O 59.2698 -0.839801 -1.83055 0
M  V30 629 C 56.3348 -1.74107 -2.99813 0
M  V30 630 C 55.3958 -2.97653 -3.09356 0
M  V30 631 C 54.6288 -3.03163 -4.39236 0
M  V30 632 O 54.8518 -2.16396 -5.27758 0
M  V30 633 O 53.7858 -3.9558 -4.53652 0
M  V30 634 H 57.6118 -2.63907 -1.50289 0
M  V30 635 H 55.1968 -1.32951 -0.681502 0
M  V30 636 H 57.0788 -1.803 -3.80881 0
M  V30 637 H 55.7538 -0.816901 -3.13223 0
M  V30 638 H 54.6608 -2.96981 -2.27493 0
M  V30 639 H 55.9938 -3.89535 -3.00871 0
M  V30 640 N 57.6459 0.756429 -1.3826 0
M  V30 641 C 58.8739 1.54565 -1.3754 0
M  V30 642 C 59.2889 1.88767 0.0355331 0
M  V30 643 O 58.6459 1.52572 1.0014 0
M  V30 644 C 58.6969 2.84654 -2.22833 0
M  V30 645 O 58.4179 2.51912 -3.5843 0
M  V30 646 C 59.9189 3.78807 -2.30261 0
M  V30 647 H 57.1389 0.478353 -0.470553 0
M  V30 648 H 59.6829 0.936381 -1.81803 0
M  V30 649 H 57.8379 3.41965 -1.8204 0
M  V30 650 H 58.2519 3.35325 -4.03308 0
M  V30 651 H 59.7259 4.67045 -2.94233 0
M  V30 652 H 60.2029 4.19038 -1.31545 0
M  V30 653 H 60.8089 3.2742 -2.71433 0
M  V30 654 N 59.124 1.23083 0.984299 0
M  V30 655 C 60.401 0.9689 1.69917 0
M  V30 656 C 60.781 -0.513604 2.04757 0
M  V30 657 O 60.129 -1.48383 1.73767 0
M  V30 658 C 60.339 1.87518 2.94343 0
M  V30 659 C 61.687 2.13636 3.6694 0
M  V30 660 O 62.711 1.85036 3.04368 0
M  V30 661 O 61.57 2.62119 4.79537 0
M  V30 662 H 58.664 0.365095 0.742048 0
M  V30 663 H 61.21 1.34107 1.03987 0
M  V30 664 H 59.982 2.87756 2.65164 0
M  V30 665 H 59.605 1.50514 3.6801 0
M  V30 666 N 60.6021 -1.18246 1.0419 0
M  V30 667 C 61.5521 -2.19843 0.604392 0
M  V30 668 C 62.5361 -1.56962 -0.353814 0
M  V30 669 O 63.7281 -1.76156 -0.17267 0
M  V30 670 C 60.8571 -3.43287 -0.0298975 0
M  V30 671 C 59.9431 -4.13288 0.951531 0
M  V30 672 N 60.3341 -4.59271 2.11906 0
M  V30 673 C 58.6321 -4.39165 0.7778 0
M  V30 674 C 59.3331 -5.13173 2.73912 0
M  V30 675 N 58.3091 -5.04763 2.01779 0
M  V30 676 H 62.1111 -2.53089 1.4941 0
M  V30 677 H 59.6251 -1.34465 0.910658 0
M  V30 678 H 61.6221 -4.15334 -0.361037 0
M  V30 679 H 60.2821 -3.11537 -0.915127 0
M  V30 680 H 61.2931 -4.5368 2.49789 0
M  V30 681 H 57.9701 -4.17461 -0.0572331 0
M  V30 682 H 59.3601 -5.58947 3.72864 0
M  V30 683 N 62.0802 -0.821533 -1.34494 0
M  V30 684 C 63.3282 -0.408139 -1.97936 0
M  V30 685 C 63.6492 1.03193 -1.65457 0
M  V30 686 O 62.9192 1.71622 -0.944595 0
M  V30 687 H 61.4992 -0.147928 -0.732206 0
M  V30 688 H 64.1612 -1.05067 -1.64155 0
M  V30 689 H 63.2572 -0.52601 -3.07635 0
M  V30 690 N 63.5583 1.46682 -0.576371 0
M  V30 691 C 64.7863 2.06798 -0.0649635 0
M  V30 692 C 65.2013 1.42612 1.23723 0
M  V30 693 O 64.5583 0.529203 1.74659 0
M  V30 694 C 64.6093 3.6132 0.114202 0
M  V30 695 O 64.3303 4.23104 -1.13644 0
M  V30 696 C 65.8313 4.38349 0.66069 0
M  V30 697 H 63.0513 0.668778 -0.0545616 0
M  V30 698 H 65.5953 1.88404 -0.795237 0
M  V30 699 H 63.7503 3.79162 0.794673 0
M  V30 700 H 64.1643 5.15894 -0.946253 0
M  V30 701 H 65.6383 5.47081 0.73526 0
M  V30 702 H 66.1153 4.05953 1.67627 0
M  V30 703 H 66.7213 4.25297 0.0152951 0
M  V30 704 N 65.0364 0.313813 1.54444 0
M  V30 705 C 66.2824 -0.292108 2.00685 0
M  V30 706 C 66.6154 -1.52548 1.20177 0
M  V30 707 O 65.8904 -1.92452 0.281531 0
M  V30 708 C 66.1734 -0.635968 3.5444 0
M  V30 709 C 66.0264 0.607437 4.4568 0
M  V30 710 C 67.3454 -1.45747 4.15266 0
M  V30 711 H 64.4644 -0.104697 0.729526 0
M  V30 712 H 67.1064 0.428457 1.85106 0
M  V30 713 H 65.2564 -1.24986 3.67846 0
M  V30 714 H 66.9284 1.24581 4.44159 0
M  V30 715 H 65.1714 1.23822 4.15753 0
M  V30 716 H 65.8424 0.322515 5.51057 0
M  V30 717 H 68.3184 -0.938645 4.05375 0
M  V30 718 H 67.1944 -1.66683 5.2298 0
M  V30 719 H 67.4554 -2.45063 3.67963 0
M  V30 720 N 66.5145 -1.57545 0.0417849 0
M  V30 721 C 67.7395 -1.97035 -0.647455 0
M  V30 722 C 68.1645 -0.918775 -1.64135 0
M  V30 723 O 67.5225 0.119006 -1.80909 0
M  V30 724 C 67.5705 -3.35609 -1.31905 0
M  V30 725 O 66.6745 -3.3287 -2.43457 0
M  V30 726 H 66.0155 -0.64211 -0.169086 0
M  V30 727 H 68.5455 -2.04318 0.107399 0
M  V30 728 H 68.5555 -3.72126 -1.67291 0
M  V30 729 H 67.2305 -4.11685 -0.590586 0
M  V30 730 H 65.8075 -3.08087 -2.10088 0
M  V30 731 N 67.9926 0.231505 -1.5589 0
M  V30 732 C 68.9406 1.30649 -1.92441 0
M  V30 733 C 69.9346 1.49037 -0.805254 0
M  V30 734 O 71.1406 1.50329 -0.990007 0
M  V30 735 H 67.5156 0.437812 -0.611412 0
M  V30 736 H 69.4866 0.970973 -2.82161 0
M  V30 737 C 68.2356 2.65179 -2.24889 0
M  V30 738 H 67.5586 2.51835 -3.10514 0
M  V30 739 H 68.9986 3.39234 -2.54355 0
M  V30 740 C 67.4576 3.19439 -1.07054 0
M  V30 741 O 67.9876 4.00371 -0.326499 0
M  V30 742 N 66.1936 2.77675 -0.85703 0
M  V30 743 H 65.7406 2.11969 -1.46379 0
M  V30 744 H 65.6986 3.14321 -0.0703223 0
M  V30 745 N 69.4707 1.49531 0.497807 0
M  V30 746 C 70.4037 1.61043 1.6168 0
M  V30 747 C 71.3817 0.459386 1.55976 0
M  V30 748 O 72.5657 0.675358 1.75986 0
M  V30 749 C 69.6927 1.56833 3.00202 0
M  V30 750 C 68.7387 2.77173 3.24156 0
M  V30 751 S 69.5717 4.38808 3.06933 0
M  V30 752 C 70.7277 4.37248 4.47845 0
M  V30 753 H 70.9607 2.55702 1.51671 0
M  V30 754 H 68.4937 1.38462 0.683201 0
M  V30 755 H 70.4517 1.55089 3.80076 0
M  V30 756 H 69.1127 0.634561 3.07623 0
M  V30 757 H 68.3057 2.70456 4.25288 0
M  V30 758 H 67.9077 2.76346 2.5201 0
M  V30 759 H 70.1997 4.09164 5.39992 0
M  V30 760 H 71.1427 5.38668 4.59612 0
M  V30 761 H 71.5507 3.67286 4.28674 0
M  V30 762 N 70.9488 -0.749086 1.3866 0
M  V30 763 C 71.8958 -1.86291 1.36251 0
M  V30 764 C 72.8658 -1.64578 0.224347 0
M  V30 765 O 74.0508 -1.86181 0.417279 0
M  V30 766 C 71.1908 -3.23644 1.19786 0
M  V30 767 C 70.3038 -3.57158 2.43027 0
M  V30 768 C 69.4388 -4.83838 2.19258 0
M  V30 769 C 68.4778 -5.10152 3.38247 0
M  V30 770 N 67.6148 -6.28029 3.13884 0
M  V30 771 H 72.4548 -1.87685 2.3147 0
M  V30 772 H 69.9918 -0.917287 1.14997 0
M  V30 773 H 71.9498 -4.0291 1.08254 0
M  V30 774 H 70.5798 -3.21566 0.282031 0
M  V30 775 H 69.6318 -2.72701 2.65214 0
M  V30 776 H 70.9438 -3.7253 3.31697 0
M  V30 777 H 70.0978 -5.71057 2.04888 0
M  V30 778 H 68.8368 -4.70614 1.2796 0
M  V30 779 H 67.8418 -4.21401 3.53131 0
M  V30 780 H 69.0668 -5.25271 4.30427 0
M  V30 781 H 67.0128 -6.1612 2.25238 0
M  V30 782 H 66.9298 -6.43922 3.96106 0
M  V30 783 H 68.1978 -7.18124 3.03179 0
M  V30 784 N 72.4269 -1.23603 -0.977757 0
M  V30 785 C 73.6739 -1.06971 -1.71941 0
M  V30 786 C 74.0019 0.393009 -1.90488 0
M  V30 787 O 73.2569 1.30719 -1.4564 0
M  V30 788 C 73.5559 -1.7433 -3.11999 0
M  V30 789 C 73.2219 -3.24252 -3.13323 0
M  V30 790 C 71.8839 -3.65156 -3.13392 0
M  V30 791 C 74.2359 -4.20141 -3.08433 0
M  V30 792 C 71.5639 -5.00403 -3.0629 0
M  V30 793 C 73.9159 -5.55384 -3.02873 0
M  V30 794 C 72.5799 -5.95647 -3.01265 0
M  V30 795 H 71.8499 -0.391433 -0.629175 0
M  V30 796 H 74.4969 -1.53572 -1.14403 0
M  V30 797 H 72.8019 -1.20096 -3.7294 0
M  V30 798 H 74.4989 -1.58936 -3.68158 0
M  V30 799 H 71.0889 -2.91692 -3.14029 0
M  V30 800 H 75.2729 -3.89547 -3.07517 0
M  V30 801 H 70.5289 -5.3081 -3.03399 0
M  V30 802 H 74.7029 -6.29398 -2.98046 0
M  V30 803 H 72.3299 -7.0041 -2.95516 0
M  V30 804 N 73.905 1.17692 -1.04816 0
M  V30 805 C 75.13 1.92327 -0.776207 0
M  V30 806 C 75.555 1.76082 0.661581 0
M  V30 807 O 74.913 1.076 1.45917 0
M  V30 808 C 74.961 3.41539 -1.15687 0
M  V30 809 O 74.065 4.11402 -0.286775 0
M  V30 810 H 73.406 0.599735 -0.284981 0
M  V30 811 H 75.936 1.49201 -1.4 0
M  V30 812 H 75.946 3.92269 -1.12202 0
M  V30 813 H 74.621 3.52684 -2.20425 0
M  V30 814 H 73.198 3.70939 -0.381903 0
M  V30 815 N 75.3831 0.828654 1.34056 0
M  V30 816 C 76.6301 0.419458 1.98108 0
M  V30 817 C 76.9581 -1.01886 1.65679 0
M  V30 818 O 76.2131 -1.72539 0.923512 0
M  V30 819 C 76.5121 0.575226 3.52741 0
M  V30 820 C 76.1781 1.98012 4.05095 0
M  V30 821 C 74.8401 2.36442 4.19104 0
M  V30 822 C 77.1921 2.89824 4.33188 0
M  V30 823 C 74.5201 3.66009 4.58535 0
M  V30 824 C 76.8721 4.1886 4.74066 0
M  V30 825 C 75.5361 4.5726 4.86281 0
M  V30 826 H 74.8061 0.153491 0.724929 0
M  V30 827 H 77.4531 1.05371 1.59904 0
M  V30 828 H 75.7581 -0.142385 3.91541 0
M  V30 829 H 77.4551 0.239057 4.00287 0
M  V30 830 H 74.0451 1.67162 3.94658 0
M  V30 831 H 78.2291 2.61375 4.21897 0
M  V30 832 H 73.4851 3.95579 4.66184 0
M  V30 833 H 77.6591 4.90086 4.94761 0
M  V30 834 H 75.2861 5.57707 5.16592 0
M  V30 835 N 76.8612 -1.46375 0.584142 0
M  V30 836 C 78.0862 -2.07268 0.0740405 0
M  V30 837 C 78.5112 -1.42979 -1.22223 0
M  V30 838 O 77.8692 -0.514092 -1.73859 0
M  V30 839 C 77.9172 -3.60518 -0.0767769 0
M  V30 840 O 77.0212 -3.96533 -1.13292 0
M  V30 841 H 76.3622 -0.660961 0.0634524 0
M  V30 842 H 78.8922 -1.87991 0.807492 0
M  V30 843 H 78.9022 -4.07021 -0.282489 0
M  V30 844 H 77.5772 -4.06702 0.86986 0
M  V30 845 H 76.1542 -3.61738 -0.905553 0
M  V30 846 N 78.3393 -0.321999 -1.54275 0
M  V30 847 C 79.6163 0.335232 -1.92706 0
M  V30 848 C 79.9963 1.70006 -1.25145 0
M  V30 849 O 79.3443 2.25067 -0.394596 0
M  V30 850 C 79.5543 0.429008 -3.46353 0
M  V30 851 C 80.9023 0.690029 -4.18956 0
M  V30 852 O 81.9263 0.511992 -3.52501 0
M  V30 853 O 80.7853 1.03338 -5.36641 0
M  V30 854 H 77.8793 0.191143 -0.804608 0
M  V30 855 H 80.4253 -0.3716 -1.65581 0
M  V30 856 H 79.1973 -0.529611 -3.87699 0
M  V30 857 H 78.8203 1.18348 -3.79578 0
M  V30 858 N 79.8174 1.5752 -0.0501392 0
M  V30 859 C 81.0454 1.96963 0.633492 0
M  V30 860 C 81.4604 0.927631 1.6444 0
M  V30 861 O 80.8174 -0.0882665 1.82286 0
M  V30 862 C 80.8684 3.36487 1.32132 0
M  V30 863 O 80.5894 4.36693 0.350894 0
M  V30 864 C 82.0904 3.90682 2.09481 0
M  V30 865 H 79.3104 0.648244 0.173266 0
M  V30 866 H 81.8544 2.0417 -0.116134 0
M  V30 867 H 80.0094 3.30434 2.02218 0
M  V30 868 H 80.4234 5.17702 0.841735 0
M  V30 869 H 81.8974 4.90591 2.5303 0
M  V30 870 H 82.3744 3.26053 2.94255 0
M  V30 871 H 82.9804 4.00069 1.44307 0
M  V30 872 N 81.2955 -0.223234 1.56011 0
M  V30 873 C 82.2455 -1.28008 1.88674 0
M  V30 874 C 83.2295 -1.42369 0.749663 0
M  V30 875 O 84.4215 -1.45212 1.01205 0
M  V30 876 C 81.5505 -2.63084 2.20548 0
M  V30 877 C 80.6365 -2.52632 3.40643 0
M  V30 878 N 81.0275 -2.11829 4.59306 0
M  V30 879 C 79.3255 -2.83594 3.44224 0
M  V30 880 C 80.0265 -2.12587 5.41463 0
M  V30 881 N 79.0025 -2.5301 4.81131 0
M  V30 882 H 82.8045 -0.955487 2.77935 0
M  V30 883 H 80.3185 -0.431801 1.56554 0
M  V30 884 H 82.3155 -3.39385 2.42122 0
M  V30 885 H 80.9755 -2.96391 1.32599 0
M  V30 886 H 81.9865 -1.82988 4.84496 0
M  V30 887 H 78.6635 -3.21284 2.66614 0
M  V30 888 H 80.0535 -1.83179 6.46448 0
M  V30 889 N 82.7736 -1.49793 -0.48987 0
M  V30 890 C 83.7216 -1.67783 -1.61095 0
M  V30 891 C 84.7156 -0.543683 -1.60438 0
M  V30 892 O 85.9216 -0.723647 -1.64813 0
M  V30 893 H 82.2966 -0.529255 -0.534222 0
M  V30 894 H 84.2676 -2.61861 -1.43078 0
M  V30 895 C 83.0166 -1.77191 -2.99164 0
M  V30 896 H 82.3396 -2.63841 -3.0038 0
M  V30 897 H 83.7796 -1.93809 -3.77113 0
M  V30 898 C 82.2386 -0.519203 -3.32875 0
M  V30 899 O 82.7686 0.350124 -4.00171 0
M  V30 900 N 80.9746 -0.378816 -2.8812 0
M  V30 901 H 80.5216 -1.08725 -2.33531 0
M  V30 902 H 80.4796 0.458239 -3.11043 0
M  V30 903 N 84.2517 0.741722 -1.39055 0
M  V30 904 C 85.6677 1.04638 -1.20512 0
M  V30 905 C 85.8677 2.01405 -0.0620218 0
M  V30 906 O 84.9237 2.45547 0.588457 0
M  V30 907 C 86.2367 1.6151 -2.53643 0
M  V30 908 C 87.7847 1.73623 -2.6043 0
M  V30 909 C 88.2597 2.33906 -3.93767 0
M  V30 910 N 89.7507 2.41323 -3.9537 0
M  V30 911 C 90.4857 2.88888 -4.95309 0
M  V30 912 N 89.9817 3.36401 -6.05645 0
M  V30 913 N 91.7747 2.88037 -4.82692 0
M  V30 914 H 83.9257 0.0998155 -2.12165 0
M  V30 915 H 86.1887 0.106907 -0.941953 0
M  V30 916 H 85.8947 0.978739 -3.37807 0
M  V30 917 H 85.7687 2.60411 -2.72885 0
M  V30 918 H 88.1557 2.36384 -1.76655 0
M  V30 919 H 88.2367 0.733945 -2.45045 0
M  V30 920 H 87.8807 1.71776 -4.7797 0
M  V30 921 H 87.8107 3.34799 -4.06469 0
M  V30 922 H 90.3017 2.07734 -3.15682 0
M  V30 923 H 90.6147 3.71186 -6.77821 0
M  V30 924 H 88.9597 3.34427 -6.09248 0
M  V30 925 H 92.1507 2.50237 -3.95599 0
M  V30 926 H 92.3237 3.24792 -5.60726 0
M  V30 927 N 85.7298 1.2412 0.971189 0
M  V30 928 C 86.6598 1.05508 2.08304 0
M  V30 929 C 87.6408 -0.0308864 1.70072 0
M  V30 930 O 88.8258 0.135521 1.93727 0
M  V30 931 C 85.9558 0.655365 3.4106 0
M  V30 932 C 84.9098 1.68971 3.93234 0
M  V30 933 C 84.2358 1.14516 5.22293 0
M  V30 934 C 85.5358 3.08487 4.21465 0
M  V30 935 H 87.2298 1.98507 2.24132 0
M  V30 936 H 84.7758 0.955821 1.07704 0
M  V30 937 H 86.7288 0.51217 4.18276 0
M  V30 938 H 85.4528 -0.31032 3.25122 0
M  V30 939 H 84.1118 1.82106 3.18171 0
M  V30 940 H 83.7598 0.170189 5.02712 0
M  V30 941 H 83.4598 1.83635 5.58168 0
M  V30 942 H 84.9838 1.01401 6.02121 0
M  V30 943 H 86.3978 2.98601 4.89398 0
M  V30 944 H 84.7948 3.74926 4.68562 0
M  V30 945 H 85.8648 3.56787 3.28376 0
M  V30 946 N 87.2079 -1.17134 1.05439 0
M  V30 947 C 88.1179 -2.24878 0.668365 0
M  V30 948 C 89.1339 -1.71186 -0.311687 0
M  V30 949 O 90.3099 -2.00738 -0.163161 0
M  V30 950 C 87.3749 -3.46662 0.051648 0
M  V30 951 C 86.4359 -4.15429 1.08246 0
M  V30 952 C 85.6689 -5.31399 0.495082 0
M  V30 953 O 85.8919 -5.66153 -0.694743 0
M  V30 954 O 84.8259 -5.89187 1.23056 0
M  V30 955 H 88.6519 -2.60189 1.56637 0
M  V30 956 H 86.2369 -1.24482 0.826104 0
M  V30 957 H 88.1189 -4.20394 -0.290966 0
M  V30 958 H 86.7939 -3.13142 -0.819971 0
M  V30 959 H 85.7009 -3.43704 1.47711 0
M  V30 960 H 87.0339 -4.52982 1.92532 0
M  V30 961 N 88.686 -0.835752 -1.33615 0
M  V30 962 C 89.633 -0.26473 -2.29277 0
M  V30 963 C 90.603 0.617712 -1.54187 0
M  V30 964 O 91.788 0.556641 -1.825 0
M  V30 965 C 88.928 0.556777 -3.40579 0
M  V30 966 C 88.041 -0.349339 -4.30585 0
M  V30 967 C 87.176 0.482969 -5.29 0
M  V30 968 C 86.215 -0.421732 -6.10645 0
M  V30 969 N 85.352 0.372262 -7.01112 0
M  V30 970 H 90.192 -1.08582 -2.77514 0
M  V30 971 H 87.729 -0.546927 -1.36554 0
M  V30 972 H 89.687 1.04852 -4.03809 0
M  V30 973 H 88.317 1.34286 -2.93542 0
M  V30 974 H 87.369 -0.959372 -3.68104 0
M  V30 975 H 88.681 -1.04445 -4.87742 0
M  V30 976 H 87.835 1.03866 -5.97743 0
M  V30 977 H 86.574 1.21153 -4.72412 0
M  V30 978 H 85.579 -0.989464 -5.40823 0
M  V30 979 H 86.804 -1.14861 -6.69316 0
M  V30 980 H 84.75 1.08426 -6.46977 0
M  V30 981 H 84.667 -0.264198 -7.55538 0
M  V30 982 H 85.935 0.910293 -7.74167 0
M  V30 983 N 90.1641 1.46063 -0.591896 0
M  V30 984 C 91.4121 2.01938 -0.0808391 0
M  V30 985 C 91.7331 1.46475 1.28725 0
M  V30 986 O 91.0031 0.652944 1.84698 0
M  V30 987 H 89.5831 0.746516 -0.0268938 0
M  V30 988 H 92.2451 1.79055 -0.769752 0
M  V30 989 H 91.3411 3.12094 -0.0187578 0
M  V30 990 N 91.6422 0.330177 1.54103 0
M  V30 991 C 92.8902 -0.269871 2.0029 0
M  V30 992 C 93.2112 -1.52133 1.21986 0
M  V30 993 O 92.4812 -1.93212 0.323438 0
M  V30 994 H 91.0612 -0.10271 0.739905 0
M  V30 995 H 93.7232 0.448249 1.89675 0
M  V30 996 H 92.8192 -0.52166 3.07709 0
M  V30 997 N 93.1203 -1.57491 0.0584922 0
M  V30 998 C 94.3503 -1.9701 -0.622134 0
M  V30 999 C 94.7583 -0.935034 -1.6448 0
M  V30 1000 O 94.1013 0.0882904 -1.83488 0
M  V30 1001 C 94.1633 -3.32794 -1.35972 0
M  V30 1002 C 93.8273 -4.54343 -0.492043 0
M  V30 1003 C 94.8243 -5.19323 0.244901 0
M  V30 1004 C 92.5093 -5.00534 -0.420821 0
M  V30 1005 C 94.5033 -6.28835 1.04143 0
M  V30 1006 C 92.1903 -6.09921 0.379389 0
M  V30 1007 C 93.1883 -6.73933 1.10919 0
M  V30 1008 O 92.8763 -7.81216 1.89623 0
M  V30 1009 H 92.6083 -0.653127 -0.174359 0
M  V30 1010 H 95.1623 -2.05029 0.123418 0
M  V30 1011 H 93.3923 -3.21351 -2.15105 0
M  V30 1012 H 95.0813 -3.5701 -1.93129 0
M  V30 1013 H 95.8473 -4.8459 0.19939 0
M  V30 1014 H 91.7263 -4.50496 -0.978474 0
M  V30 1015 H 95.2703 -6.7873 1.61157 0
M  V30 1016 H 91.1673 -6.44089 0.426512 0
M  V30 1017 H 91.9353 -7.98029 1.81913 0
M  V30 1018 N 94.5984 0.214957 -1.56127 0
M  V30 1019 C 95.5614 1.24997 -1.92116 0
M  V30 1020 C 96.5614 1.39467 -0.800344 0
M  V30 1021 O 97.7514 1.37619 -1.06802 0
M  V30 1022 C 94.8834 2.62271 -2.17777 0
M  V30 1023 H 96.0764 0.942875 -2.84693 0
M  V30 1024 H 93.6294 0.455654 -1.49511 0
M  V30 1025 H 94.3644 2.98068 -1.27773 0
M  V30 1026 H 94.1494 2.53143 -2.99434 0
M  V30 1027 H 95.6394 3.36946 -2.46693 0
M  V30 1028 N 96.0765 1.50051 0.48192 0
M  V30 1029 C 97.4925 1.37237 0.814756 0
M  V30 1030 C 97.6925 0.420109 1.97072 0
M  V30 1031 O 96.7485 -0.141246 2.52105 0
M  V30 1032 C 98.0615 2.78375 1.13701 0
M  V30 1033 C 99.6095 2.87213 1.2441 0
M  V30 1034 C 100.084 4.29161 1.59954 0
M  V30 1035 N 101.575 4.32061 1.66967 0
M  V30 1036 C 102.31 5.38879 1.95952 0
M  V30 1037 N 101.806 6.55918 2.23031 0
M  V30 1038 N 103.599 5.26312 1.97363 0
M  V30 1039 H 95.7505 2.10546 -0.28005 0
M  V30 1040 H 98.0135 0.945921 -0.0627454 0
M  V30 1041 H 97.7195 3.49845 0.360787 0
M  V30 1042 H 97.5935 3.14941 2.07586 0
M  V30 1043 H 99.9805 2.15969 2.01101 0
M  V30 1044 H 100.061 2.54204 0.285299 0
M  V30 1045 H 99.7055 5.00938 0.838067 0
M  V30 1046 H 99.6355 4.59648 2.56966 0
M  V30 1047 H 102.126 3.47661 1.48123 0
M  V30 1048 H 102.439 7.33139 2.44391 0
M  V30 1049 H 100.784 6.59112 2.20447 0
M  V30 1050 H 103.975 4.33876 1.75697 0
M  V30 1051 H 104.148 6.09649 2.19618 0
M  V30 1052 N 97.5546 -0.734337 1.39446 0
M  V30 1053 C 98.4646 -1.87879 1.40495 0
M  V30 1054 C 99.4806 -1.714 0.299672 0
M  V30 1055 O 100.657 -1.93991 0.541249 0
M  V30 1056 C 97.7216 -3.23477 1.24754 0
M  V30 1057 C 96.7826 -3.52344 2.45259 0
M  V30 1058 C 96.0156 -4.81473 2.30259 0
M  V30 1059 O 96.2386 -5.55237 1.30643 0
M  V30 1060 O 95.1726 -5.10254 3.19256 0
M  V30 1061 H 98.9986 -1.89949 2.36966 0
M  V30 1062 H 96.5836 -0.882243 1.20569 0
M  V30 1063 H 98.4656 -4.04509 1.18111 0
M  V30 1064 H 97.1406 -3.22176 0.313781 0
M  V30 1065 H 96.0476 -2.71396 2.57478 0
M  V30 1066 H 97.3806 -3.58426 3.37331 0
M  V30 1067 N 99.0327 -1.24633 -0.964593 0
M  V30 1068 C 100.279 -1.08949 -1.71049 0
M  V30 1069 C 100.612 0.370302 -1.90637 0
M  V30 1070 O 99.8867 1.27349 -1.47011 0
M  V30 1071 C 100.17 -1.83329 -3.0994 0
M  V30 1072 C 100.023 -3.37077 -2.97824 0
M  V30 1073 C 101.342 -1.60846 -4.09654 0
M  V30 1074 H 98.4607 -0.397178 -0.620821 0
M  V30 1075 H 101.103 -1.5334 -1.12191 0
M  V30 1076 H 99.2527 -1.45597 -3.60186 0
M  V30 1077 H 100.925 -3.84425 -2.5498 0
M  V30 1078 H 99.1677 -3.65298 -2.33965 0
M  V30 1079 H 99.8387 -3.84324 -3.96231 0
M  V30 1080 H 102.315 -1.93674 -3.68279 0
M  V30 1081 H 101.191 -2.1534 -5.04896 0
M  V30 1082 H 101.452 -0.547434 -4.38698 0
M  V30 1083 N 100.511 1.16574 -1.06058 0
M  V30 1084 C 101.739 1.90952 -0.796552 0
M  V30 1085 C 102.154 1.77302 0.648808 0
M  V30 1086 O 101.511 1.11605 1.44397 0
M  V30 1087 C 101.562 3.41736 -1.17894 0
M  V30 1088 O 101.283 3.54975 -2.56758 0
M  V30 1089 C 102.784 4.33169 -0.942308 0
M  V30 1090 H 100.004 0.605594 -0.288959 0
M  V30 1091 H 102.548 1.47777 -1.41358 0
M  V30 1092 H 100.703 3.82623 -0.606491 0
M  V30 1093 H 101.117 4.4846 -2.72 0
M  V30 1094 H 102.591 5.37439 -1.25952 0
M  V30 1095 H 103.068 4.3903 0.122078 0
M  V30 1096 H 103.674 3.98007 -1.49902 0
M  V30 1097 N 101.989 0.842826 1.3317 0
M  V30 1098 C 103.235 0.441099 1.97945 0
M  V30 1099 C 103.568 -0.998024 1.66593 0
M  V30 1100 O 102.843 -1.69839 0.947898 0
M  V30 1101 C 103.126 0.666841 3.53872 0
M  V30 1102 C 102.979 2.15352 3.94897 0
M  V30 1103 C 104.298 0.115544 4.39948 0
M  V30 1104 H 101.417 0.161739 0.719034 0
M  V30 1105 H 104.059 1.05907 1.57746 0
M  V30 1106 H 102.209 0.140828 3.88245 0
M  V30 1107 H 103.881 2.7447 3.70761 0
M  V30 1108 H 102.124 2.63653 3.44484 0
M  V30 1109 H 102.795 2.26221 5.03516 0
M  V30 1110 H 105.271 0.565213 4.12243 0
M  V30 1111 H 104.147 0.303152 5.48062 0
M  V30 1112 H 104.408 -0.980935 4.3108 0
M  V30 1113 N 103.467 -1.45747 0.599634 0
M  V30 1114 C 104.883 -1.57424 0.26264 0
M  V30 1115 C 105.083 -1.59222 -1.23493 0
M  V30 1116 O 104.139 -1.51825 -2.01756 0
M  V30 1117 C 105.452 -2.86061 0.926795 0
M  V30 1118 C 107 -2.99722 0.901967 0
M  V30 1119 C 107.475 -4.31119 1.54598 0
M  V30 1120 N 108.966 -4.37858 1.5111 0
M  V30 1121 C 109.701 -5.3818 1.97863 0
M  V30 1122 N 109.197 -6.45083 2.52666 0
M  V30 1123 N 110.99 -5.29487 1.88679 0
M  V30 1124 H 103.141 -1.42823 1.57211 0
M  V30 1125 H 105.404 -0.68235 0.658105 0
M  V30 1126 H 105.11 -2.90605 1.98095 0
M  V30 1127 H 104.984 -3.74563 0.445238 0
M  V30 1128 H 107.371 -2.9475 -0.143617 0
M  V30 1129 H 107.452 -2.12652 1.42171 0
M  V30 1130 H 107.096 -4.36849 2.59085 0
M  V30 1131 H 107.026 -5.16992 1.00132 0
M  V30 1132 H 109.517 -3.61209 1.11068 0
M  V30 1133 H 109.83 -7.17869 2.86155 0
M  V30 1134 H 108.175 -6.45856 2.56701 0
M  V30 1135 H 111.366 -4.44877 1.4561 0
M  V30 1136 H 111.539 -6.07524 2.25429 0
M  V30 1137 N 104.945 -0.338344 -1.53925 0
M  V30 1138 C 105.855 0.529421 -2.28548 0
M  V30 1139 C 106.871 1.11645 -1.3346 0
M  V30 1140 O 108.047 1.13325 -1.66492 0
M  V30 1141 C 105.112 1.66713 -3.03987 0
M  V30 1142 C 104.173 1.11041 -4.14691 0
M  V30 1143 C 103.406 2.19389 -4.86522 0
M  V30 1144 O 103.629 3.40013 -4.57982 0
M  V30 1145 O 102.563 1.83976 -5.73094 0
M  V30 1146 H 106.389 -0.0770399 -3.03602 0
M  V30 1147 H 103.974 -0.103555 -1.49041 0
M  V30 1148 H 105.856 2.32918 -3.5118 0
M  V30 1149 H 104.531 2.25949 -2.31794 0
M  V30 1150 H 103.438 0.413024 -3.71813 0
M  V30 1151 H 104.771 0.562975 -4.8897 0
M  V30 1152 N 106.423 1.57458 -0.0668435 0
M  V30 1153 C 107.353 2.15468 0.899764 0
M  V30 1154 C 108.334 1.08042 1.31381 0
M  V30 1155 O 109.519 1.36054 1.38574 0
M  V30 1156 C 106.649 2.71232 2.16911 0
M  V30 1157 C 105.603 3.83781 1.89463 0
M  V30 1158 C 104.929 4.26127 3.22986 0
M  V30 1159 C 106.229 5.08238 1.20381 0
M  V30 1160 H 107.923 2.96488 0.416529 0
M  V30 1161 H 105.469 1.4262 0.198908 0
M  V30 1162 H 107.422 3.10458 2.84945 0
M  V30 1163 H 106.146 1.87426 2.67468 0
M  V30 1164 H 104.805 3.45051 1.23836 0
M  V30 1165 H 104.453 3.39249 3.71374 0
M  V30 1166 H 104.153 5.01993 3.05413 0
M  V30 1167 H 105.677 4.67966 3.92225 0
M  V30 1168 H 107.091 5.44811 1.78475 0
M  V30 1169 H 105.488 5.89349 1.13083 0
M  V30 1170 H 106.558 4.84558 0.182153 0
M  V30 1171 N 107.901 -0.206675 1.56239 0
M  V30 1172 C 109.312 -0.772383 1.69974 0
M  V30 1173 C 109.663 -1.84353 0.671436 0
M  V30 1174 O 108.788 -2.15695 -0.174491 0
M  V30 1175 C 109.383 -1.40779 3.08167 0
M  V30 1176 C 107.942 -1.92072 3.23706 0
M  V30 1177 C 107.089 -0.786347 2.65917 0
M  V30 1178 H 110.04 0.0182223 1.5869 0
M  V30 1179 H 110.061 -2.27696 3.04852 0
M  V30 1180 H 109.573 -0.627958 3.82986 0
M  V30 1181 H 107.674 -2.7281 2.53782 0
M  V30 1182 H 107.787 -2.09046 4.31087 0
M  V30 1183 H 106.151 -1.1976 2.24788 0
M  V30 1184 H 106.934 -0.0189416 3.43295 0
M  V30 1185 N 109.379 -1.50304 -0.473955 0
M  V30 1186 C 110.628 -1.60392 -1.22301 0
M  V30 1187 C 110.941 -0.308411 -1.93153 0
M  V30 1188 O 112.147 -0.288156 -2.69966 0
M  V30 1189 C 110.603 -2.83109 -2.2221 0
M  V30 1190 C 110.211 -4.19524 -1.57173 0
M  V30 1191 C 111.955 -3.0254 -2.97775 0
M  V30 1192 C 109.862 -5.33431 -2.55353 0
M  V30 1193 H 108.792 -0.597286 -0.460179 0
M  V30 1194 H 111.443 -1.76731 -0.493803 0
M  V30 1195 H 109.825 -2.60322 -2.9841 0
M  V30 1196 H 110.999 -4.52554 -0.867824 0
M  V30 1197 H 109.314 -4.05674 -0.939002 0
M  V30 1198 H 111.911 -3.84811 -3.71248 0
M  V30 1199 H 112.254 -2.14154 -3.56992 0
M  V30 1200 H 112.787 -3.25494 -2.28688 0
M  V30 1201 H 109.526 -6.23962 -2.00878 0
M  V30 1202 H 109.046 -5.04823 -3.23904 0
M  V30 1203 H 110.725 -5.63887 -3.17239 0
M  V30 1204 N 110.857 0.726932 -1.39834 0
M  V30 1205 C 112.082 1.52121 -1.40976 0
M  V30 1206 C 112.507 1.88098 -0.00826029 0
M  V30 1207 O 111.865 1.52479 0.980807 0
M  V30 1208 C 111.913 2.78021 -2.29644 0
M  V30 1209 O 111.017 3.74272 -1.73188 0
M  V30 1210 H 110.358 0.45908 -0.479731 0
M  V30 1211 H 112.888 0.896207 -1.83927 0
M  V30 1212 H 112.898 3.26671 -2.44438 0
M  V30 1213 H 111.573 2.51169 -3.31492 0
M  V30 1214 H 110.15 3.33073 -1.6768 0
M  V30 1215 N 112.336 1.25143 0.95797 0
M  V30 1216 C 113.246 1.06968 2.08794 0
M  V30 1217 C 114.262 0.00773911 1.73998 0
M  V30 1218 O 115.438 0.207972 2.00323 0
M  V30 1219 C 112.503 0.68691 3.39827 0
M  V30 1220 C 111.564 1.82641 3.88511 0
M  V30 1221 C 110.797 1.46181 5.1329 0
M  V30 1222 O 111.02 0.355971 5.69288 0
M  V30 1223 O 109.954 2.29085 5.566 0
M  V30 1224 H 113.78 2.01723 2.27027 0
M  V30 1225 H 111.365 1.04051 1.07209 0
M  V30 1226 H 113.247 0.485417 4.18595 0
M  V30 1227 H 111.922 -0.231417 3.22872 0
M  V30 1228 H 110.829 2.08274 3.10762 0
M  V30 1229 H 112.162 2.72386 4.09959 0
M  V30 1230 N 113.814 -1.1601 1.06675 0
M  V30 1231 C 114.762 -2.22586 0.675157 0
M  V30 1232 C 115.756 -1.66525 -0.310766 0
M  V30 1233 O 116.962 -1.79145 -0.175215 0
M  V30 1234 H 113.337 -0.724855 0.200223 0
M  V30 1235 H 115.308 -2.52899 1.58381 0
M  V30 1236 C 114.057 -3.47604 0.0817162 0
M  V30 1237 H 113.38 -3.91058 0.831484 0
M  V30 1238 H 114.82 -4.23718 -0.154708 0
M  V30 1239 C 113.279 -3.15718 -1.17576 0
M  V30 1240 O 113.809 -3.31878 -2.26318 0
M  V30 1241 N 112.015 -2.69816 -1.07923 0
M  V30 1242 H 111.562 -2.56866 -0.194293 0
M  V30 1243 H 111.52 -2.48855 -1.92141 0
M  V30 1244 N 115.292 -0.849877 -1.32721 0
M  V30 1245 C 116.222 -0.306308 -2.31482 0
M  V30 1246 C 117.203 0.591952 -1.59468 0
M  V30 1247 O 118.388 0.513199 -1.87296 0
M  V30 1248 C 115.518 0.510204 -3.43532 0
M  V30 1249 C 114.472 -0.293209 -4.26994 0
M  V30 1250 C 113.798 0.647743 -5.30762 0
M  V30 1251 C 115.098 -1.51634 -4.99804 0
M  V30 1252 H 116.792 -1.13153 -2.77195 0
M  V30 1253 H 114.338 -0.545553 -1.33266 0
M  V30 1254 H 116.291 0.900856 -4.11658 0
M  V30 1255 H 115.015 1.36874 -2.96535 0
M  V30 1256 H 113.674 -0.665555 -3.60508 0
M  V30 1257 H 113.322 1.50299 -4.8002 0
M  V30 1258 H 113.022 0.11422 -5.87489 0
M  V30 1259 H 114.546 1.03567 -6.01753 0
M  V30 1260 H 115.96 -1.19824 -5.60638 0
M  V30 1261 H 114.357 -1.98745 -5.66234 0
M  V30 1262 H 115.427 -2.28018 -4.27943 0
M  V30 1263 N 116.77 1.45427 -0.607355 0
M  V30 1264 C 117.733 2.28974 0.101693 0
M  V30 1265 C 118.733 1.39754 0.795329 0
M  V30 1266 O 119.923 1.61878 0.643527 0
M  V30 1267 C 117.055 3.20768 1.15414 0
M  V30 1268 H 118.248 2.93147 -0.632844 0
M  V30 1269 H 115.801 1.51945 -0.366391 0
M  V30 1270 H 116.536 2.61395 1.91945 0
M  V30 1271 H 116.321 3.86489 0.66098 0
M  V30 1272 H 117.811 3.83589 1.65073 0
M  V30 1273 N 118.248 0.346503 1.53744 0
M  V30 1274 C 119.473 -0.253074 2.0585 0
M  V30 1275 C 119.898 -1.43202 1.21962 0
M  V30 1276 O 119.256 -1.79783 0.234073 0
M  V30 1277 C 119.304 -0.643193 3.54817 0
M  V30 1278 O 118.408 -1.74286 3.73762 0
M  V30 1279 H 117.749 -0.0413583 0.662711 0
M  V30 1280 H 120.279 0.501574 1.98357 0
M  V30 1281 H 120.289 -0.919526 3.97503 0
M  V30 1282 H 118.964 0.218966 4.15323 0
M  V30 1283 H 117.541 -1.46356 3.42979 0
M  V30 1284 N 119.726 -1.57421 0.075193 0
M  V30 1285 C 120.972 -1.93905 -0.594025 0
M  V30 1286 C 121.305 -0.955701 -1.69056 0
M  V30 1287 O 120.58 0.0145373 -1.94495 0
M  V30 1288 C 120.863 -3.40638 -1.1678 0
M  V30 1289 C 120.716 -4.49733 -0.0776792 0
M  V30 1290 C 122.035 -3.88259 -2.07228 0
M  V30 1291 H 119.154 -0.705105 -0.214466 0
M  V30 1292 H 121.796 -1.8947 0.141854 0
M  V30 1293 H 119.946 -3.44549 -1.79494 0
M  V30 1294 H 121.618 -4.57942 0.555573 0
M  V30 1295 H 119.861 -4.29751 0.591286 0
M  V30 1296 H 120.532 -5.49549 -0.519603 0
M  V30 1297 H 123.008 -3.86376 -1.54445 0
M  V30 1298 H 121.884 -4.91533 -2.44308 0
M  V30 1299 H 122.145 -3.26396 -2.98191 0
M  V30 1300 N 121.204 0.198386 -1.56346 0
M  V30 1301 C 122.152 1.26538 -1.95169 0
M  V30 1302 C 123.146 1.47295 -0.836685 0
M  V30 1303 O 124.352 1.48195 -1.02167 0
M  V30 1304 H 120.727 0.424744 -0.620561 0
M  V30 1305 H 122.698 0.910904 -2.84157 0
M  V30 1306 C 121.447 2.6035 -2.30463 0
M  V30 1307 H 120.77 2.45192 -3.15786 0
M  V30 1308 H 122.21 3.33762 -2.61494 0
M  V30 1309 C 120.669 3.17096 -1.13806 0
M  V30 1310 O 121.199 3.99588 -0.41135 0
M  V30 1311 N 119.405 2.75795 -0.915736 0
M  V30 1312 H 118.952 2.08816 -1.50843 0
M  V30 1313 H 118.91 3.14101 -0.136979 0
M  V30 1314 N 122.682 1.50554 0.465978 0
M  V30 1315 C 123.615 1.64436 1.58227 0
M  V30 1316 C 124.593 0.492367 1.54966 0
M  V30 1317 O 125.777 0.712536 1.74514 0
M  V30 1318 C 122.904 1.63165 2.96808 0
M  V30 1319 C 121.95 2.83987 3.18204 0
M  V30 1320 S 122.783 4.45219 2.97557 0
M  V30 1321 C 123.939 4.46649 4.3847 0
M  V30 1322 H 124.172 2.58861 1.46213 0
M  V30 1323 H 121.705 1.3988 0.653678 0
M  V30 1324 H 123.663 1.63116 3.76701 0
M  V30 1325 H 122.324 0.69967 3.06208 0
M  V30 1326 H 121.517 2.79416 4.19455 0
M  V30 1327 H 121.119 2.81629 2.46092 0
M  V30 1328 H 123.411 4.20526 5.31191 0
M  V30 1329 H 124.354 5.48295 4.48082 0
M  V30 1330 H 124.762 3.76296 4.20787 0
M  V30 1331 N 124.16 -0.719506 1.40217 0
M  V30 1332 C 125.576 -1.02707 1.22161 0
M  V30 1333 C 125.776 -2.0128 0.0940557 0
M  V30 1334 O 124.832 -2.46452 -0.549318 0
M  V30 1335 C 126.145 -1.57454 2.56181 0
M  V30 1336 C 127.693 -1.69458 2.63159 0
M  V30 1337 C 128.168 -2.27611 3.97438 0
M  V30 1338 N 129.659 -2.35002 3.99159 0
M  V30 1339 C 130.394 -2.80972 4.99842 0
M  V30 1340 N 129.89 -3.26723 6.10921 0
M  V30 1341 N 131.683 -2.80321 4.87213 0
M  V30 1342 H 123.834 -0.0660492 2.12297 0
M  V30 1343 H 126.097 -0.0919077 0.943534 0
M  V30 1344 H 125.803 -0.924873 3.39321 0
M  V30 1345 H 125.677 -2.56036 2.76993 0
M  V30 1346 H 128.064 -2.33543 1.80393 0
M  V30 1347 H 128.145 -0.694867 2.46181 0
M  V30 1348 H 127.789 -1.6415 4.80643 0
M  V30 1349 H 127.719 -3.2829 4.11744 0
M  V30 1350 H 130.21 -2.02685 3.18947 0
M  V30 1351 H 130.523 -3.60355 6.8364 0
M  V30 1352 H 128.868 -3.24692 6.14492 0
M  V30 1353 H 132.059 -2.43912 3.9953 0
M  V30 1354 H 132.232 -3.15831 5.65822 0
M  V30 1355 N 125.638 -1.25649 -0.95132 0
M  V30 1356 C 126.568 -1.08808 -2.06599 0
M  V30 1357 C 127.549 0.00382547 -1.701 0
M  V30 1358 O 128.734 -0.166325 -1.93486 0
M  V30 1359 C 125.864 -0.709542 -3.39975 0
M  V30 1360 C 124.818 -1.75206 -3.90496 0
M  V30 1361 C 124.144 -1.22811 -5.20405 0
M  V30 1362 C 125.444 -3.15153 -4.16504 0
M  V30 1363 H 127.138 -2.02048 -2.20946 0
M  V30 1364 H 124.684 -0.972835 -1.06169 0
M  V30 1365 H 126.637 -0.578649 -4.17408 0
M  V30 1366 H 125.361 0.258556 -3.25575 0
M  V30 1367 H 124.02 -1.87145 -3.15234 0
M  V30 1368 H 123.668 -0.250145 -5.02378 0
M  V30 1369 H 123.368 -1.92492 -5.55176 0
M  V30 1370 H 124.892 -1.10968 -6.00432 0
M  V30 1371 H 126.306 -3.06349 -4.84586 0
M  V30 1372 H 124.703 -3.82333 -4.62538 0
M  V30 1373 H 125.773 -3.61966 -3.22658 0
M  V30 1374 N 127.117 1.15442 -1.07289 0
M  V30 1375 C 128.064 2.20161 -0.692653 0
M  V30 1376 C 129.034 1.63073 0.31564 0
M  V30 1377 O 130.219 1.89725 0.202235 0
M  V30 1378 C 127.359 3.44967 -0.0959509 0
M  V30 1379 C 126.472 4.16256 -1.15564 0
M  V30 1380 C 125.607 5.28609 -0.524011 0
M  V30 1381 C 124.646 5.91715 -1.56653 0
M  V30 1382 N 123.783 6.9554 -0.957531 0
M  V30 1383 H 128.623 2.52037 -1.59002 0
M  V30 1384 H 126.16 1.2378 -0.794798 0
M  V30 1385 H 128.118 4.16341 0.267628 0
M  V30 1386 H 126.748 3.1361 0.764772 0
M  V30 1387 H 125.8 3.43385 -1.6368 0
M  V30 1388 H 127.112 4.59268 -1.94613 0
M  V30 1389 H 126.266 6.06604 -0.108032 0
M  V30 1390 H 125.005 4.86787 0.29825 0
M  V30 1391 H 124.01 5.12433 -1.9923 0
M  V30 1392 H 125.235 6.35614 -2.39107 0
M  V30 1393 H 123.181 6.55814 -0.156162 0
M  V30 1394 H 123.098 7.36977 -1.68526 0
M  V30 1395 H 124.366 7.77435 -0.567032 0
M  V30 1396 N 128.595 0.856903 1.32268 0
M  V30 1397 C 130.006 0.515711 1.79436 0
M  V30 1398 C 130.357 -0.966586 1.70738 0
M  V30 1399 O 129.482 -1.75409 1.26731 0
M  V30 1400 C 130.077 0.929335 3.25805 0
M  V30 1401 C 128.636 0.640006 3.70919 0
M  V30 1402 C 127.783 1.12784 2.53328 0
M  V30 1403 H 130.734 1.04389 1.19535 0
M  V30 1404 H 130.755 0.246633 3.797 0
M  V30 1405 H 130.267 2.00821 3.32103 0
M  V30 1406 H 128.368 -0.428051 3.70133 0
M  V30 1407 H 128.481 1.20788 4.63624 0
M  V30 1408 H 126.845 0.548033 2.48734 0
M  V30 1409 H 127.628 2.21387 2.62379 0
M  V30 1410 N 130.073 -1.45103 0.615059 0
M  V30 1411 C 131.321 -2.01784 0.112955 0
M  V30 1412 C 131.642 -1.48504 -1.26378 0
M  V30 1413 O 130.912 -0.682245 -1.83636 0
M  V30 1414 H 129.492 -0.745993 0.0387668 0
M  V30 1415 H 132.154 -1.77808 0.798141 0
M  V30 1416 H 131.25 -3.12025 0.0684069 0
M  V30 1417 N 131.551 -0.354651 -1.53558 0
M  V30 1418 C 132.514 0.484566 -2.24019 0
M  V30 1419 C 133.514 1.01861 -1.24422 0
M  V30 1420 O 134.704 0.906097 -1.4878 0
M  V30 1421 C 131.836 1.67615 -2.96847 0
M  V30 1422 H 133.029 -0.131843 -2.9961 0
M  V30 1423 H 130.582 -0.106165 -1.55939 0
M  V30 1424 H 131.317 2.33095 -2.25471 0
M  V30 1425 H 131.102 1.30029 -3.69912 0
M  V30 1426 H 132.592 2.27114 -3.50441 0
M  V30 1427 N 133.029 1.57378 -0.0835403 0
M  V30 1428 C 134.278 1.93106 0.582498 0
M  V30 1429 C 134.591 0.96651 1.70053 0
M  V30 1430 O 135.797 1.21705 2.42693 0
M  V30 1431 C 134.253 3.43076 1.08751 0
M  V30 1432 C 133.861 4.48 -0.000146404 0
M  V30 1433 C 135.605 3.87785 1.72694 0
M  V30 1434 C 133.512 5.89113 0.519568 0
M  V30 1435 H 132.442 0.720775 0.221358 0
M  V30 1436 H 135.093 1.82821 -0.157675 0
M  V30 1437 H 133.475 3.48474 1.88101 0
M  V30 1438 H 134.649 4.54233 -0.775199 0
M  V30 1439 H 132.964 4.1283 -0.54406 0
M  V30 1440 H 135.561 4.90604 2.1263 0
M  V30 1441 H 135.904 3.25796 2.59158 0
M  V30 1442 H 136.437 3.8504 0.999457 0
M  V30 1443 H 133.176 6.54775 -0.308186 0
M  V30 1444 H 132.696 5.86376 1.26188 0
M  V30 1445 H 134.375 6.39346 0.992237 0
M  V30 1446 N 134.507 -0.190092 1.56449 0
M  V30 1447 C 135.923 -0.54113 1.50146 0
M  V30 1448 C 136.123 -1.85603 0.784465 0
M  V30 1449 O 135.179 -2.5024 0.337051 0
M  V30 1450 C 136.492 -0.591241 2.9483 0
M  V30 1451 C 138.04 -0.679732 3.0553 0
M  V30 1452 C 138.515 -0.760908 4.51635 0
M  V30 1453 N 140.006 -0.824302 4.55806 0
M  V30 1454 C 140.741 -0.907365 5.66175 0
M  V30 1455 N 140.237 -0.952422 6.86222 0
M  V30 1456 N 142.03 -0.94494 5.541 0
M  V30 1457 H 134.181 0.67235 2.01478 0
M  V30 1458 H 136.444 0.240127 0.917084 0
M  V30 1459 H 136.15 0.305905 3.50367 0
M  V30 1460 H 136.024 -1.44422 3.48457 0
M  V30 1461 H 138.411 -1.56731 2.50039 0
M  V30 1462 H 138.492 0.199549 2.5502 0
M  V30 1463 H 138.136 0.122336 5.07753 0
M  V30 1464 H 138.066 -1.65606 4.99882 0
M  V30 1465 H 140.557 -0.798526 3.69367 0
M  V30 1466 H 140.87 -1.01645 7.66086 0
M  V30 1467 H 139.215 -0.921014 6.8887 0
M  V30 1468 H 142.406 -0.906612 4.59236 0
M  V30 1469 H 142.579 -1.00622 6.4014 0
M  V30 1470 N 135.985 -1.50799 -0.457987 0
M  V30 1471 C 136.895 -1.73426 -1.57989 0
M  V30 1472 C 137.911 -0.617745 -1.62665 0
M  V30 1473 O 139.087 -0.897614 -1.80291 0
M  V30 1474 C 136.152 -1.83557 -2.94122 0
M  V30 1475 C 135.213 -3.07345 -2.99729 0
M  V30 1476 C 134.446 -3.16983 -4.29368 0
M  V30 1477 O 134.669 -2.33077 -5.20607 0
M  V30 1478 O 133.603 -4.09812 -4.40837 0
M  V30 1479 H 137.429 -2.68555 -1.41817 0
M  V30 1480 H 135.014 -1.35052 -0.638859 0
M  V30 1481 H 136.896 -1.92326 -3.74952 0
M  V30 1482 H 135.571 -0.916137 -3.10465 0
M  V30 1483 H 134.478 -3.04068 -2.1793 0
M  V30 1484 H 135.811 -3.9891 -2.88326 0
M  V30 1485 N 137.463 0.71206 -1.40597 0
M  V30 1486 C 138.393 1.83889 -1.43899 0
M  V30 1487 C 139.374 1.67442 -0.299504 0
M  V30 1488 O 140.559 1.87421 -0.508624 0
M  V30 1489 C 137.689 3.21877 -1.30431 0
M  V30 1490 C 136.643 3.53002 -2.42019 0
M  V30 1491 C 135.969 4.90172 -2.13626 0
M  V30 1492 C 137.269 3.53643 -3.84362 0
M  V30 1493 H 138.963 1.81383 -2.38203 0
M  V30 1494 H 136.509 0.871237 -1.14654 0
M  V30 1495 H 138.462 4.00404 -1.31357 0
M  V30 1496 H 137.186 3.24968 -0.326049 0
M  V30 1497 H 135.845 2.76818 -2.40349 0
M  V30 1498 H 135.493 4.89869 -1.14182 0
M  V30 1499 H 135.193 5.11962 -2.88389 0
M  V30 1500 H 136.717 5.71028 -2.1624 0
M  V30 1501 H 138.131 4.22203 -3.87837 0
M  V30 1502 H 136.528 3.86961 -4.58673 0
M  V30 1503 H 137.598 2.52954 -4.13693 0
M  V30 1504 N 138.941 1.26152 0.944643 0
M  V30 1505 C 139.891 1.04081 2.02857 0
M  V30 1506 C 140.875 -0.0256555 1.6088 0
M  V30 1507 O 142.067 0.190884 1.75968 0
M  V30 1508 C 139.196 0.672118 3.36656 0
M  V30 1509 C 138.282 1.77586 3.85128 0
M  V30 1510 N 138.673 3.01272 4.06287 0
M  V30 1511 C 136.971 1.65867 4.1401 0
M  V30 1512 C 137.672 3.72983 4.46384 0
M  V30 1513 N 136.648 3.00653 4.52889 0
M  V30 1514 H 140.45 1.97968 2.17223 0
M  V30 1515 H 137.964 1.16618 1.13022 0
M  V30 1516 H 139.961 0.495166 4.13949 0
M  V30 1517 H 138.621 -0.259307 3.23663 0
M  V30 1518 H 139.632 3.37213 3.93075 0
M  V30 1519 H 136.309 0.796907 4.09824 0
M  V30 1520 H 137.699 4.792 4.70975 0
M  V30 1521 N 140.419 -1.14872 1.07899 0
M  V30 1522 C 141.665 -1.86289 0.81657 0
M  V30 1523 C 142.02 -1.8107 -0.65049 0
M  V30 1524 O 141.313 -1.22684 -1.47171 0
M  V30 1525 C 141.507 -3.34223 1.26609 0
M  V30 1526 C 141.336 -3.53846 2.77531 0
M  V30 1527 C 140.106 -3.68995 3.45212 0
M  V30 1528 C 142.304 -3.51201 3.75716 0
M  V30 1529 N 140.286 -3.76725 4.84718 0
M  V30 1530 C 141.657 -3.65112 5.01092 0
M  V30 1531 C 143.712 -3.34507 3.68794 0
M  V30 1532 C 142.415 -3.64056 6.20368 0
M  V30 1533 C 144.441 -3.34752 4.8754 0
M  V30 1534 C 143.803 -3.49199 6.11751 0
M  V30 1535 H 139.902 -0.698579 0.351443 0
M  V30 1536 H 142.486 -1.37713 1.37634 0
M  V30 1537 H 140.657 -3.81402 0.73395 0
M  V30 1538 H 142.389 -3.93377 0.95062 0
M  V30 1539 H 139.144 -3.70006 2.95622 0
M  V30 1540 H 139.568 -3.8432 5.5734 0
M  V30 1541 H 144.21 -3.22253 2.73702 0
M  V30 1542 H 141.928 -3.75087 7.15776 0
M  V30 1543 H 145.514 -3.23055 4.83866 0
M  V30 1544 H 144.394 -3.49328 7.02097 0
M  V30 1545 N 141.898 -0.863906 -1.31812 0
M  V30 1546 C 142.848 -0.286898 -2.26188 0
M  V30 1547 C 143.832 0.572577 -1.50367 0
M  V30 1548 O 145.024 0.420447 -1.71934 0
M  V30 1549 C 142.153 0.515849 -3.39402 0
M  V30 1550 C 141.239 -0.356531 -4.22599 0
M  V30 1551 N 141.63 -1.44716 -4.84656 0
M  V30 1552 C 139.928 -0.147898 -4.45755 0
M  V30 1553 C 140.629 -1.98462 -5.46798 0
M  V30 1554 N 139.605 -1.28247 -5.28255 0
M  V30 1555 H 143.407 -1.12055 -2.717 0
M  V30 1556 H 140.921 -0.711012 -1.46008 0
M  V30 1557 H 142.918 0.945701 -4.06032 0
M  V30 1558 H 141.578 1.34718 -2.95434 0
M  V30 1559 H 142.589 -1.83008 -4.84488 0
M  V30 1560 H 139.266 0.647973 -4.12441 0
M  V30 1561 H 140.656 -2.89932 -6.06126 0
M  V30 1562 N 143.376 1.44774 -0.622745 0
M  V30 1563 C 144.323 2.30635 0.0871679 0
M  V30 1564 C 145.293 1.42994 0.845097 0
M  V30 1565 O 146.478 1.71907 0.827812 0
M  V30 1566 C 143.618 3.28144 1.06844 0
M  V30 1567 C 142.731 4.30888 0.309809 0
M  V30 1568 C 141.866 5.15494 1.28215 0
M  V30 1569 C 140.905 6.09953 0.512198 0
M  V30 1570 N 140.042 6.87287 1.43458 0
M  V30 1571 H 144.882 2.90803 -0.650974 0
M  V30 1572 H 142.419 1.43286 -0.33281 0
M  V30 1573 H 144.377 3.83157 1.65066 0
M  V30 1574 H 143.007 2.69695 1.77382 0
M  V30 1575 H 142.059 3.78414 -0.388181 0
M  V30 1576 H 143.371 4.97955 -0.290254 0
M  V30 1577 H 142.525 5.74983 1.93596 0
M  V30 1578 H 141.264 4.48481 1.91614 0
M  V30 1579 H 140.269 5.49581 -0.155151 0
M  V30 1580 H 141.494 6.78999 -0.116958 0
M  V30 1581 H 139.44 6.2295 2.05594 0
M  V30 1582 H 139.357 7.50763 0.888335 0
M  V30 1583 H 140.625 7.51306 2.07749 0
M  V30 1584 N 144.854 0.36279 1.53368 0
M  V30 1585 C 145.764 -0.492994 2.29362 0
M  V30 1586 C 146.78 -1.09507 1.35219 0
M  V30 1587 O 147.956 -1.10662 1.68273 0
M  V30 1588 C 145.021 -1.61855 3.066 0
M  V30 1589 C 144.082 -1.04429 4.16405 0
M  V30 1590 C 143.315 -2.11621 4.89951 0
M  V30 1591 O 143.538 -3.32684 4.63333 0
M  V30 1592 O 142.472 -1.74835 5.75948 0
M  V30 1593 H 146.298 0.125331 3.03441 0
M  V30 1594 H 143.883 0.127253 1.48857 0
M  V30 1595 H 145.765 -2.27302 3.54841 0
M  V30 1596 H 144.44 -2.22233 2.3536 0
M  V30 1597 H 143.347 -0.353819 3.72423 0
M  V30 1598 H 144.68 -0.485113 4.89804 0
M  V30 1599 N 146.332 -1.57332 0.0918853 0
M  V30 1600 C 147.295 -2.12708 -0.85369 0
M  V30 1601 C 148.295 -1.05561 -1.213 0
M  V30 1602 O 149.485 -1.31461 -1.14296 0
M  V30 1603 C 146.617 -2.64503 -2.15061 0
M  V30 1604 H 147.81 -2.97573 -0.3729 0
M  V30 1605 H 145.363 -1.55509 -0.157072 0
M  V30 1606 H 146.098 -1.83149 -2.67632 0
M  V30 1607 H 145.883 -3.4284 -1.90272 0
M  V30 1608 H 147.373 -3.07351 -2.82711 0
M  V30 1609 N 147.81 0.181792 -1.56548 0
M  V30 1610 C 148.72 1.24538 -1.98815 0
M  V30 1611 C 149.736 1.49045 -0.897861 0
M  V30 1612 O 150.912 1.61399 -1.20467 0
M  V30 1613 C 147.977 2.56683 -2.33055 0
M  V30 1614 C 147.038 2.40131 -3.55859 0
M  V30 1615 C 146.271 3.65975 -3.88456 0
M  V30 1616 O 146.494 4.70711 -3.22161 0
M  V30 1617 O 145.428 3.6071 -4.81842 0
M  V30 1618 H 149.254 0.916647 -2.89536 0
M  V30 1619 H 146.839 0.387842 -1.44278 0
M  V30 1620 H 148.721 3.34655 -2.56094 0
M  V30 1621 H 147.396 2.89157 -1.45498 0
M  V30 1622 H 146.303 1.60226 -3.38051 0
M  V30 1623 H 147.636 2.12585 -4.43924 0
M  V30 1624 N 149.288 1.51039 0.449983 0
M  V30 1625 C 150.534 1.64287 1.19923 0
M  V30 1626 C 150.889 0.348701 1.89214 0
M  V30 1627 O 150.182 -0.654751 1.80065 0
M  V30 1628 C 150.376 2.77556 2.25161 0
M  V30 1629 C 150.205 4.17862 1.66198 0
M  V30 1630 C 148.975 4.83976 1.45243 0
M  V30 1631 C 151.173 5.01388 1.14519 0
M  V30 1632 N 149.155 6.08433 0.817437 0
M  V30 1633 C 150.526 6.16743 0.634705 0
M  V30 1634 C 152.581 4.87008 1.03574 0
M  V30 1635 C 151.284 7.19295 0.0255452 0
M  V30 1636 C 153.31 5.89757 0.440489 0
M  V30 1637 C 152.672 7.04375 -0.0595112 0
M  V30 1638 H 148.771 0.655161 0.426952 0
M  V30 1639 H 151.355 1.88228 0.49781 0
M  V30 1640 H 149.526 2.553 2.92706 0
M  V30 1641 H 151.258 2.80049 2.92155 0
M  V30 1642 H 148.013 4.41627 1.71063 0
M  V30 1643 H 148.437 6.75017 0.517747 0
M  V30 1644 H 153.079 3.9866 1.4082 0
M  V30 1645 H 150.797 8.07302 -0.359071 0
M  V30 1646 H 154.383 5.80698 0.35788 0
M  V30 1647 H 153.263 7.82521 -0.512882 0
M  V30 1648 N 150.766 -0.704594 1.40972 0
M  V30 1649 C 151.729 -1.80035 1.41845 0
M  V30 1650 C 152.729 -1.57774 0.310474 0
M  V30 1651 O 153.919 -1.64613 0.56992 0
M  V30 1652 C 151.051 -3.18284 1.22098 0
M  V30 1653 H 152.244 -1.80658 2.3938 0
M  V30 1654 H 149.797 -0.911329 1.26982 0
M  V30 1655 H 150.532 -3.23306 0.253672 0
M  V30 1656 H 150.317 -3.35843 2.02366 0
M  V30 1657 H 151.807 -3.98289 1.25522 0
M  V30 1658 N 152.244 -1.26651 -0.937939 0
M  V30 1659 C 153.474 -1.15006 -1.71631 0
M  V30 1660 C 153.882 0.297026 -1.86854 0
M  V30 1661 O 153.225 1.21493 -1.37786 0
M  V30 1662 C 153.287 -1.74984 -3.14039 0
M  V30 1663 C 152.951 -3.24103 -3.2219 0
M  V30 1664 C 153.948 -4.20877 -3.05219 0
M  V30 1665 C 151.633 -3.64625 -3.45476 0
M  V30 1666 C 153.627 -5.56151 -3.11408 0
M  V30 1667 C 151.314 -5.00032 -3.513 0
M  V30 1668 C 152.312 -5.95604 -3.34282 0
M  V30 1669 O 152 -7.28545 -3.3982 0
M  V30 1670 H 151.732 -0.401183 -0.544085 0
M  V30 1671 H 154.286 -1.67832 -1.18413 0
M  V30 1672 H 152.516 -1.16624 -3.68695 0
M  V30 1673 H 154.205 -1.58199 -3.73802 0
M  V30 1674 H 154.971 -3.90908 -2.87081 0
M  V30 1675 H 150.85 -2.90718 -3.57777 0
M  V30 1676 H 154.394 -6.30727 -2.98043 0
M  V30 1677 H 150.291 -5.29659 -3.68959 0
M  V30 1678 H 151.059 -7.3686 -3.56343 0
M  V30 1679 N 153.722 1.14298 -1.08507 0
M  V30 1680 C 154.655 2.18447 -0.660004 0
M  V30 1681 C 155.633 1.59242 0.328749 0
M  V30 1682 O 156.817 1.87062 0.232367 0
M  V30 1683 C 153.944 3.38688 0.0290807 0
M  V30 1684 C 152.99 4.1646 -0.919982 0
M  V30 1685 S 153.823 4.77334 -2.42718 0
M  V30 1686 C 154.979 6.00931 -1.75024 0
M  V30 1687 H 155.212 2.54166 -1.54231 0
M  V30 1688 H 152.745 1.25446 -0.900149 0
M  V30 1689 H 154.703 4.08342 0.420378 0
M  V30 1690 H 153.364 3.01289 0.887895 0
M  V30 1691 H 152.557 5.02529 -0.384751 0
M  V30 1692 H 152.159 3.52414 -1.25223 0
M  V30 1693 H 154.451 6.69017 -1.06877 0
M  V30 1694 H 155.394 6.59044 -2.58971 0
M  V30 1695 H 155.802 5.51089 -1.22317 0
M  V30 1696 N 155.201 0.870884 1.31352 0
M  V30 1697 C 156.45 0.478408 1.95944 0
M  V30 1698 C 156.763 -0.974493 1.69597 0
M  V30 1699 O 157.969 -1.47316 2.28058 0
M  V30 1700 C 156.425 0.804609 3.50791 0
M  V30 1701 C 156.033 2.27433 3.85977 0
M  V30 1702 C 157.777 0.480648 4.2177 0
M  V30 1703 C 155.684 2.5429 5.33939 0
M  V30 1704 H 154.614 0.175175 0.733369 0
M  V30 1705 H 157.265 1.06391 1.4951 0
M  V30 1706 H 155.647 0.148347 3.95722 0
M  V30 1707 H 156.821 2.97373 3.52002 0
M  V30 1708 H 155.136 2.56442 3.28065 0
M  V30 1709 H 157.733 0.658519 5.30629 0
M  V30 1710 H 158.076 -0.578979 4.12254 0
M  V30 1711 H 158.609 1.09349 3.82476 0
M  V30 1712 H 155.348 3.58939 5.48491 0
M  V30 1713 H 154.868 1.88945 5.69263 0
M  V30 1714 H 156.547 2.39066 6.01212 0
M  V30 1715 N 156.679 -1.44442 0.630414 0
M  V30 1716 C 157.909 -2.06115 0.141465 0
M  V30 1717 C 158.317 -1.47179 -1.1889 0
M  V30 1718 O 157.66 -0.588873 -1.74006 0
M  V30 1719 C 157.722 -3.59467 -0.0484355 0
M  V30 1720 C 157.386 -4.40864 1.20366 0
M  V30 1721 C 158.383 -4.74391 2.12719 0
M  V30 1722 C 156.068 -4.8125 1.43887 0
M  V30 1723 C 158.062 -5.47186 3.26904 0
M  V30 1724 C 155.749 -5.53795 2.5837 0
M  V30 1725 C 156.747 -5.86682 3.49705 0
M  V30 1726 O 156.435 -6.57749 4.62191 0
M  V30 1727 H 156.167 -0.671648 0.0765792 0
M  V30 1728 H 158.721 -1.86312 0.864695 0
M  V30 1729 H 156.951 -3.77758 -0.826803 0
M  V30 1730 H 158.64 -4.02909 -0.491849 0
M  V30 1731 H 159.406 -4.43728 1.95781 0
M  V30 1732 H 155.285 -4.55073 0.736853 0
M  V30 1733 H 158.829 -5.72773 3.98217 0
M  V30 1734 H 154.726 -5.83872 2.75251 0
M  V30 1735 H 155.494 -6.76217 4.61164 0
M  V30 1736 N 158.157 -0.370918 -1.53173 0
M  V30 1737 C 159.405 0.216673 -2.00935 0
M  V30 1738 C 159.726 1.48845 -1.25977 0
M  V30 1739 O 158.996 1.92286 -0.374551 0
M  V30 1740 H 157.576 0.0830565 -0.742368 0
M  V30 1741 H 160.238 -0.49838 -1.8842 0
M  V30 1742 H 159.334 0.439893 -3.08984 0
M  V30 1743 N 159.635 1.57281 -0.100228 0
M  V30 1744 C 160.86 1.99302 0.573881 0
M  V30 1745 C 161.285 0.979059 1.60611 0
M  V30 1746 O 160.643 -0.0517803 1.81226 0
M  V30 1747 C 160.691 3.40274 1.19358 0
M  V30 1748 O 159.795 3.41676 2.30935 0
M  V30 1749 H 159.136 0.647944 0.145138 0
M  V30 1750 H 161.666 2.03779 -0.183156 0
M  V30 1751 H 161.676 3.78078 1.53365 0
M  V30 1752 H 160.351 4.13594 0.437385 0
M  V30 1753 H 158.928 3.15672 1.98509 0
M  V30 1754 N 161.113 -0.173488 1.56642 0
M  V30 1755 C 162.076 -1.19859 1.95362 0
M  V30 1756 C 163.076 -1.37296 0.83704 0
M  V30 1757 O 164.266 -1.34739 1.10413 0
M  V30 1758 C 161.398 -2.56405 2.24654 0
M  V30 1759 H 162.591 -0.867062 2.87092 0
M  V30 1760 H 160.144 -0.415853 1.50666 0
M  V30 1761 H 160.879 -2.94576 1.35631 0
M  V30 1762 H 160.664 -2.45115 3.06041 0
M  V30 1763 H 162.154 -3.30287 2.5554 0
M  V30 1764 N 162.591 -1.51276 -0.441967 0
M  V30 1765 C 164.007 -1.39349 -0.778083 0
M  V30 1766 C 164.207 -0.472212 -1.95889 0
M  V30 1767 O 163.263 0.0743551 -2.5239 0
M  V30 1768 C 164.576 -2.81292 -1.0628 0
M  V30 1769 C 166.124 -2.9041 -1.16751 0
M  V30 1770 C 166.599 -4.33251 -1.48519 0
M  V30 1771 N 168.09 -4.36336 -1.55453 0
M  V30 1772 C 168.825 -5.43885 -1.81596 0
M  V30 1773 N 168.321 -6.61601 -2.05562 0
M  V30 1774 N 170.114 -5.3136 -1.8334 0
M  V30 1775 H 162.265 -2.09729 0.335774 0
M  V30 1776 H 164.528 -0.943925 0.0878028 0
M  V30 1777 H 164.234 -3.50678 -0.267905 0
M  V30 1778 H 164.108 -3.20334 -1.99163 0
M  V30 1779 H 166.495 -2.21225 -1.95304 0
M  V30 1780 H 166.576 -2.54871 -0.217801 0
M  V30 1781 H 166.22 -5.02984 -0.704958 0
M  V30 1782 H 166.15 -4.66299 -2.44689 0
M  V30 1783 H 168.641 -3.51466 -1.38853 0
M  V30 1784 H 168.954 -7.39361 -2.24867 0
M  V30 1785 H 167.299 -6.64725 -2.02894 0
M  V30 1786 H 170.49 -4.38382 -1.64132 0
M  V30 1787 H 170.663 -6.15258 -2.03377 0
M  V30 1788 N 164.069 0.697108 -1.41344 0
M  V30 1789 C 165.315 1.4593 -1.40827 0
M  V30 1790 C 165.648 1.94193 -0.0167098 0
M  V30 1791 O 164.923 1.69425 0.955263 0
M  V30 1792 C 165.206 2.67229 -2.41373 0
M  V30 1793 C 165.059 2.24741 -3.8963 0
M  V30 1794 C 166.378 3.69423 -2.39196 0
M  V30 1795 H 163.497 0.529303 -0.512842 0
M  V30 1796 H 166.139 0.794112 -1.72609 0
M  V30 1797 H 164.289 3.23982 -2.14401 0
M  V30 1798 H 165.961 1.73327 -4.27499 0
M  V30 1799 H 164.204 1.56542 -4.0457 0
M  V30 1800 H 164.875 3.1177 -4.55525 0
M  V30 1801 H 167.351 3.2234 -2.63128 0
M  V30 1802 H 166.227 4.51907 -3.11563 0
M  V30 1803 H 166.488 4.19012 -1.41001 0
M  V30 1804 N 165.547 1.27147 0.931209 0
M  V30 1805 C 166.775 1.16082 1.71267 0
M  V30 1806 C 167.19 -0.282772 1.8667 0
M  V30 1807 O 166.547 -1.19283 1.38122 0
M  V30 1808 C 166.598 1.8358 3.11417 0
M  V30 1809 O 166.319 3.22299 2.96741 0
M  V30 1810 C 167.82 1.78597 4.05732 0
M  V30 1811 H 165.04 0.403758 0.535929 0
M  V30 1812 H 167.584 1.67953 1.16671 0
M  V30 1813 H 165.739 1.35623 3.62885 0
M  V30 1814 H 166.153 3.55851 3.85319 0
M  V30 1815 H 167.627 2.30444 5.01597 0
M  V30 1816 H 168.104 0.754564 4.3267 0
M  V30 1817 H 168.71 2.26152 3.60188 0
M  V30 1818 N 167.025 -1.13721 1.09112 0
M  V30 1819 C 168.274 -1.84275 0.82009 0
M  V30 1820 C 168.587 -1.84253 -0.656509 0
M  V30 1821 O 169.793 -2.50668 -1.04296 0
M  V30 1822 C 168.249 -3.30825 1.41714 0
M  V30 1823 C 167.857 -3.39244 2.92605 0
M  V30 1824 C 169.601 -4.06443 1.22492 0
M  V30 1825 C 167.508 -4.80047 3.45411 0
M  V30 1826 H 166.438 -0.690387 0.30312 0
M  V30 1827 H 169.089 -1.28146 1.31343 0
M  V30 1828 H 167.471 -3.86737 0.851498 0
M  V30 1829 H 168.645 -2.93344 3.55367 0
M  V30 1830 H 166.96 -2.77088 3.10823 0
M  V30 1831 H 169.557 -5.10387 1.59402 0
M  V30 1832 H 169.9 -4.15972 0.165299 0
M  V30 1833 H 170.433 -3.56852 1.75788 0
M  V30 1834 H 167.172 -4.75709 4.50978 0
M  V30 1835 H 166.692 -5.26455 2.87411 0
M  V30 1836 H 168.371 -5.48957 3.42425 0
M  V30 1837 N 168.503 -0.877838 -1.30888 0
M  V30 1838 C 169.749 -0.493426 -1.96706 0
M  V30 1839 C 170.082 0.953504 -1.6918 0
M  V30 1840 O 169.357 1.67266 -0.992594 0
M  V30 1841 C 169.64 -0.760429 -3.51979 0
M  V30 1842 C 169.493 -2.25747 -3.89048 0
M  V30 1843 C 170.812 -0.232148 -4.39487 0
M  V30 1844 H 167.931 -0.180746 -0.714493 0
M  V30 1845 H 170.573 -1.10052 -1.54882 0
M  V30 1846 H 168.723 -0.243715 -3.87735 0
M  V30 1847 H 170.395 -2.84204 -3.63354 0
M  V30 1848 H 168.638 -2.72694 -3.37373 0
M  V30 1849 H 169.309 -2.39491 -4.97341 0
M  V30 1850 H 171.785 -0.674314 -4.106 0
M  V30 1851 H 170.661 -0.448355 -5.47066 0
M  V30 1852 H 170.922 0.866297 -4.33529 0
M  V30 1853 N 169.982 1.44106 -0.638065 0
M  V30 1854 C 171.259 1.95453 -0.0759321 0
M  V30 1855 C 171.639 1.57984 1.40015 0
M  V30 1856 O 170.987 0.857361 2.11806 0
M  V30 1857 C 171.197 3.47655 -0.306132 0
M  V30 1858 C 172.545 4.24114 -0.203008 0
M  V30 1859 O 173.569 3.55405 -0.237871 0
M  V30 1860 O 172.428 5.46381 -0.113827 0
M  V30 1861 H 169.522 0.826797 0.0183332 0
M  V30 1862 H 172.068 1.54122 -0.710251 0
M  V30 1863 H 170.84 3.68 -1.3301 0
M  V30 1864 H 170.463 3.95949 0.361991 0
M  V30 1865 N 171.46 0.379036 1.52974 0
M  V30 1866 C 172.37 -0.468639 2.29872 0
M  V30 1867 C 173.386 -1.08067 1.36373 0
M  V30 1868 O 174.562 -1.08871 1.69438 0
M  V30 1869 C 171.627 -1.58594 3.083 0
M  V30 1870 C 170.688 -1.00007 4.17489 0
M  V30 1871 C 169.921 -2.06413 4.92168 0
M  V30 1872 O 170.144 -3.27751 4.66835 0
M  V30 1873 O 169.078 -1.68717 5.7777 0
M  V30 1874 H 172.904 0.157508 3.03291 0
M  V30 1875 H 170.489 0.143035 1.48714 0
M  V30 1876 H 172.371 -2.23525 3.57232 0
M  V30 1877 H 171.046 -2.19724 2.37703 0
M  V30 1878 H 169.953 -0.314299 3.72777 0
M  V30 1879 H 171.286 -0.433135 4.90291 0
M  V30 1880 N 172.938 -1.57226 0.108567 0
M  V30 1881 C 173.885 -2.14756 -0.845481 0
M  V30 1882 C 174.855 -1.06971 -1.27068 0
M  V30 1883 O 176.04 -1.34827 -1.35005 0
M  V30 1884 C 173.18 -2.74298 -2.09415 0
M  V30 1885 C 172.293 -3.96358 -1.71826 0
M  V30 1886 C 171.428 -4.44021 -2.9158 0
M  V30 1887 C 170.467 -5.58637 -2.50181 0
M  V30 1888 N 169.604 -6.01091 -3.62814 0
M  V30 1889 H 174.444 -2.95961 -0.348035 0
M  V30 1890 H 171.981 -1.46226 -0.160106 0
M  V30 1891 H 173.939 -3.06945 -2.82561 0
M  V30 1892 H 172.569 -1.95801 -2.56636 0
M  V30 1893 H 171.621 -3.69939 -0.885947 0
M  V30 1894 H 172.933 -4.79504 -1.37394 0
M  V30 1895 H 172.087 -4.78522 -3.72963 0
M  V30 1896 H 170.826 -3.59803 -3.29231 0
M  V30 1897 H 169.831 -5.23751 -1.67228 0
M  V30 1898 H 171.056 -6.44613 -2.13659 0
M  V30 1899 H 169.002 -5.19817 -4.00158 0
M  V30 1900 H 168.919 -6.79066 -3.32273 0
M  V30 1901 H 170.187 -6.40227 -4.44668 0
M  V30 1902 N 174.416 0.165178 -1.56732 0
M  V30 1903 C 175.664 0.879068 -1.8198 0
M  V30 1904 C 175.985 1.82514 -0.686561 0
M  V30 1905 O 175.255 1.93694 0.293146 0
M  V30 1906 H 173.835 0.327608 -0.671329 0
M  V30 1907 H 176.497 0.163526 -1.94213 0
M  V30 1908 H 175.593 1.45228 -2.76252 0
M  V30 1909 N 175.894 1.51508 0.433938 0
M  V30 1910 C 177.31 1.39759 0.770682 0
M  V30 1911 C 177.51 0.482594 1.95636 0
M  V30 1912 O 176.566 -0.0609691 2.52426 0
M  V30 1913 C 177.879 2.81851 1.04787 0
M  V30 1914 C 179.427 2.91025 1.1521 0
M  V30 1915 C 179.902 4.34032 1.46219 0
M  V30 1916 N 181.393 4.37154 1.53136 0
M  V30 1917 C 182.128 5.4484 1.78709 0
M  V30 1918 N 181.624 6.62682 2.02051 0
M  V30 1919 N 183.417 5.32324 1.80519 0
M  V30 1920 H 175.568 2.09548 -0.346892 0
M  V30 1921 H 177.831 0.943446 -0.0928074 0
M  V30 1922 H 177.537 3.50815 0.249304 0
M  V30 1923 H 177.411 3.21386 1.97461 0
M  V30 1924 H 179.798 2.22257 1.94128 0
M  V30 1925 H 179.879 2.54983 0.204281 0
M  V30 1926 H 179.523 5.03351 0.678274 0
M  V30 1927 H 179.453 4.6759 2.42212 0
M  V30 1928 H 181.944 3.52197 1.36987 0
M  V30 1929 H 182.257 7.40543 2.20943 0
M  V30 1930 H 180.602 6.65791 1.99366 0
M  V30 1931 H 183.793 4.39246 1.61805 0
M  V30 1932 H 183.966 6.16328 2.00111 0
M  V30 1933 N 177.372 -0.689602 1.41712 0
M  V30 1934 C 178.597 -1.48329 1.44959 0
M  V30 1935 C 179.022 -1.8801 0.0581283 0
M  V30 1936 O 178.38 -1.55026 -0.940035 0
M  V30 1937 C 178.428 -2.71835 2.36935 0
M  V30 1938 O 177.532 -3.69549 1.8305 0
M  V30 1939 H 176.873 -0.446199 0.491734 0
M  V30 1940 H 179.403 -0.847127 1.86239 0
M  V30 1941 H 179.413 -3.20076 2.53013 0
M  V30 1942 H 178.088 -2.42291 3.38035 0
M  V30 1943 H 176.665 -3.2851 1.76452 0
M  V30 1944 N 178.85 -1.27639 -0.924453 0
M  V30 1945 C 180.097 -1.14167 -1.67249 0
M  V30 1946 C 180.425 0.311863 -1.91984 0
M  V30 1947 O 179.68 1.24425 -1.51053 0
M  V30 1948 C 179.979 -1.87407 -3.04325 0
M  V30 1949 C 179.645 -3.37249 -2.99289 0
M  V30 1950 C 178.307 -3.7812 -2.97622 0
M  V30 1951 C 180.659 -4.32845 -2.90336 0
M  V30 1952 C 177.987 -5.12944 -2.8479 0
M  V30 1953 C 180.339 -5.6773 -2.79045 0
M  V30 1954 C 179.003 -6.07889 -2.7573 0
M  V30 1955 H 178.273 -0.417766 -0.612007 0
M  V30 1956 H 180.92 -1.58286 -1.07786 0
M  V30 1957 H 179.225 -1.35805 -3.67511 0
M  V30 1958 H 180.922 -1.74408 -3.61086 0
M  V30 1959 H 177.512 -3.04748 -3.01374 0
M  V30 1960 H 181.696 -4.02239 -2.90719 0
M  V30 1961 H 176.952 -5.432 -2.80612 0
M  V30 1962 H 181.126 -6.41472 -2.71083 0
M  V30 1963 H 178.753 -7.12314 -2.65544 0
M  V30 1964 N 180.328 1.1314 -1.09713 0
M  V30 1965 C 181.577 1.83838 -0.829851 0
M  V30 1966 C 181.89 1.84599 0.646728 0
M  V30 1967 O 183.096 2.51218 1.02965 0
M  V30 1968 C 181.552 3.30069 -1.43466 0
M  V30 1969 C 181.16 3.37688 -2.94399 0
M  V30 1970 C 182.904 4.05788 -1.24645 0
M  V30 1971 C 180.811 4.78209 -3.47952 0
M  V30 1972 H 179.741 0.68877 -0.306777 0
M  V30 1973 H 182.392 1.27448 -1.3202 0
M  V30 1974 H 180.774 3.8628 -0.871996 0
M  V30 1975 H 181.948 2.91456 -3.56918 0
M  V30 1976 H 180.263 2.75436 -3.12289 0
M  V30 1977 H 182.86 5.09535 -1.62107 0
M  V30 1978 H 183.203 4.15878 -0.187357 0
M  V30 1979 H 183.736 3.55915 -1.77678 0
M  V30 1980 H 180.475 4.73311 -4.53495 0
M  V30 1981 H 179.995 5.24924 -2.90198 0
M  V30 1982 H 181.674 5.47133 -3.45332 0
M  V30 1983 N 181.806 0.884767 1.30421 0
M  V30 1984 C 183.083 0.423185 1.90967 0
M  V30 1985 C 183.463 -1.09605 1.80416 0
M  V30 1986 O 182.811 -1.93126 1.22125 0
M  V30 1987 C 183.021 0.921056 3.36627 0
M  V30 1988 C 184.369 0.955903 4.137 0
M  V30 1989 O 185.393 0.867706 3.4547 0
M  V30 1990 O 184.252 1.08614 5.35598 0
M  V30 1991 H 181.346 0.129369 0.816819 0
M  V30 1992 H 183.892 0.973653 1.3899 0
M  V30 1993 H 182.664 1.96489 3.3839 0
M  V30 1994 H 182.287 0.349741 3.96059 0
M  V30 1995 N 183.284 -1.43765 0.645699 0
M  V30 1996 C 184.561 -1.9541 0.0862963 0
M  V30 1997 C 184.941 -1.58725 -1.39175 0
M  V30 1998 O 184.289 -0.868581 -2.11348 0
M  V30 1999 C 184.499 -3.47488 0.324565 0
M  V30 2000 C 185.847 -4.24001 0.225497 0
M  V30 2001 O 186.871 -3.55274 0.256715 0
M  V30 2002 O 185.73 -5.46313 0.142801 0
M  V30 2003 H 182.824 -0.826882 -0.0139483 0
M  V30 2004 H 185.37 -1.53743 0.718415 0
M  V30 2005 H 184.142 -3.67289 1.3496 0
M  V30 2006 H 183.765 -3.96135 -0.340987 0
M  V30 2007 N 184.763 -0.387143 -1.52771 0
M  V30 2008 C 186.009 0.196025 -2.0185 0
M  V30 2009 C 186.342 1.46641 -1.27319 0
M  V30 2010 O 185.617 1.90889 -0.373032 0
M  V30 2011 C 185.9 0.466136 -3.5707 0
M  V30 2012 C 185.753 -0.819385 -4.42274 0
M  V30 2013 C 187.072 1.25768 -4.21747 0
M  V30 2014 H 184.191 0.0697708 -0.73369 0
M  V30 2015 H 186.833 -0.516286 -1.82851 0
M  V30 2016 H 184.983 1.07293 -3.7339 0
M  V30 2017 H 186.655 -1.4563 -4.37709 0
M  V30 2018 H 184.898 -1.43517 -4.09372 0
M  V30 2019 H 185.569 -0.585065 -5.48891 0
M  V30 2020 H 188.045 0.744167 -4.09391 0
M  V30 2021 H 186.921 1.41541 -5.30337 0
M  V30 2022 H 187.182 2.27228 -3.79236 0
M  V30 2023 N 186.241 1.57166 -0.116904 0
M  V30 2024 C 187.489 1.94737 0.540533 0
M  V30 2025 C 187.81 1.00096 1.67349 0
M  V30 2026 O 187.08 0.0568854 1.95817 0
M  V30 2027 H 185.66 0.718981 0.202669 0
M  V30 2028 H 188.322 1.94017 -0.185353 0
M  V30 2029 H 187.418 2.97719 0.936483 0
M  V30 2030 N 187.719 -0.156864 1.56817 0
M  V30 2031 C 188.629 -1.2136 2.00771 0
M  V30 2032 C 189.645 -1.47598 0.921459 0
M  V30 2033 O 190.821 -1.59462 1.2302 0
M  V30 2034 C 187.886 -2.52943 2.37109 0
M  V30 2035 C 186.947 -2.34439 3.59634 0
M  V30 2036 C 186.18 -3.59748 3.94229 0
M  V30 2037 O 186.403 -4.65526 3.29609 0
M  V30 2038 O 185.337 -3.52998 4.8752 0
M  V30 2039 H 189.163 -0.870468 2.90958 0
M  V30 2040 H 186.748 -0.36484 1.44877 0
M  V30 2041 H 188.63 -3.30538 2.61386 0
M  V30 2042 H 187.305 -2.86806 1.5008 0
M  V30 2043 H 186.212 -1.54828 3.40557 0
M  V30 2044 H 187.545 -2.05496 4.4725 0
M  V30 2045 N 189.197 -1.51736 -0.425897 0
M  V30 2046 C 190.445 -1.64644 -1.17204 0
M  V30 2047 C 190.766 -0.370486 -1.91448 0
M  V30 2048 O 190.036 0.614088 -1.86026 0
M  V30 2049 H 188.616 -0.606819 -0.435638 0
M  V30 2050 H 191.278 -1.88713 -0.487177 0
M  V30 2051 H 190.374 -2.47958 -1.89534 0
M  V30 2052 N 190.675 0.682077 -1.42076 0
M  V30 2053 C 191.952 1.43755 -1.32642 0
M  V30 2054 C 192.332 2.11063 0.0396611 0
M  V30 2055 O 191.68 2.02701 1.05474 0
M  V30 2056 C 191.89 2.44596 -2.48946 0
M  V30 2057 C 193.238 3.09454 -2.9073 0
M  V30 2058 O 194.262 2.54922 -2.48783 0
M  V30 2059 O 193.121 4.08253 -3.63307 0
M  V30 2060 H 190.215 0.640857 -0.522715 0
M  V30 2061 H 192.761 0.711415 -1.54068 0
M  V30 2062 H 191.533 1.93609 -3.40046 0
M  V30 2063 H 191.156 3.24701 -2.29467 0
M  V30 2064 N 192.153 1.28127 0.917671 0
M  V30 2065 C 193.083 1.14248 2.03641 0
M  V30 2066 C 194.064 0.0412748 1.7005 0
M  V30 2067 O 195.249 0.217566 1.92977 0
M  V30 2068 C 192.379 0.799431 3.37974 0
M  V30 2069 C 191.333 1.85497 3.85713 0
M  V30 2070 C 190.659 1.36565 5.16966 0
M  V30 2071 C 191.959 3.26085 4.08002 0
M  V30 2072 H 193.653 2.07835 2.15511 0
M  V30 2073 H 191.199 1.00064 1.03553 0
M  V30 2074 H 193.152 0.689114 4.15727 0
M  V30 2075 H 191.876 -0.172145 3.26146 0
M  V30 2076 H 190.535 1.95437 3.10161 0
M  V30 2077 H 190.183 0.383253 5.01538 0
M  V30 2078 H 189.883 2.07143 5.49878 0
M  V30 2079 H 191.407 1.26848 5.97279 0
M  V30 2080 H 192.821 3.19089 4.76293 0
M  V30 2081 H 191.218 3.94462 4.52238 0
M  V30 2082 H 192.288 3.70394 3.12948 0
M  V30 2083 N 193.631 -1.12557 1.10312 0
M  V30 2084 C 194.877 -1.84515 0.855901 0
M  V30 2085 C 195.232 -1.82409 -0.611936 0
M  V30 2086 O 194.525 -1.25778 -1.44535 0
M  V30 2087 C 194.719 -3.31462 1.33669 0
M  V30 2088 C 194.548 -3.47879 2.84974 0
M  V30 2089 C 193.318 -3.61589 3.52961 0
M  V30 2090 C 195.516 -3.43152 3.83081 0
M  V30 2091 N 193.498 -3.66359 4.926 0
M  V30 2092 C 194.869 -3.54401 5.08724 0
M  V30 2093 C 196.924 -3.2661 3.75807 0
M  V30 2094 C 195.627 -3.50815 6.2795 0
M  V30 2095 C 197.653 -3.24335 4.94531 0
M  V30 2096 C 197.015 -3.36144 6.19021 0
M  V30 2097 H 193.114 -0.690967 0.366182 0
M  V30 2098 H 195.698 -1.34763 1.40524 0
M  V30 2099 H 193.869 -3.7976 0.814686 0
M  V30 2100 H 195.601 -3.91272 1.03385 0
M  V30 2101 H 192.356 -3.63652 3.03404 0
M  V30 2102 H 192.78 -3.72411 5.65366 0
M  V30 2103 H 197.422 -3.16375 2.80476 0
M  V30 2104 H 195.14 -3.5982 7.23571 0
M  V30 2105 H 198.726 -3.12719 4.9061 0
M  V30 2106 H 197.606 -3.34357 7.09348 0
M  V30 2107 N 195.109 -0.891671 -1.2995 0
M  V30 2108 C 196.339 -0.527893 -1.99742 0
M  V30 2109 C 196.747 0.88979 -1.66971 0
M  V30 2110 O 196.09 1.59766 -0.906667 0
M  V30 2111 C 196.152 -0.630804 -3.53922 0
M  V30 2112 C 195.816 -2.01401 -4.10228 0
M  V30 2113 C 196.813 -2.98422 -4.25724 0
M  V30 2114 C 194.498 -2.32121 -4.45449 0
M  V30 2115 C 196.492 -4.24293 -4.75662 0
M  V30 2116 C 194.179 -3.58237 -4.95086 0
M  V30 2117 C 195.177 -4.54137 -5.10146 0
M  V30 2118 O 194.865 -5.78014 -5.58708 0
M  V30 2119 H 194.597 -0.201953 -0.645129 0
M  V30 2120 H 197.151 -1.20076 -1.66646 0
M  V30 2121 H 195.381 0.0990616 -3.86573 0
M  V30 2122 H 197.07 -0.277338 -4.04951 0
M  V30 2123 H 197.836 -2.76001 -3.98809 0
M  V30 2124 H 193.715 -1.5824 -4.32991 0
M  V30 2125 H 197.259 -4.99153 -4.87332 0
M  V30 2126 H 193.156 -3.80491 -5.21437 0
M  V30 2127 H 193.924 -5.8049 -5.77039 0
M  V30 2128 N 196.587 1.43421 -0.653314 0
M  V30 2129 C 197.834 2.01812 -0.166745 0
M  V30 2130 C 198.162 1.51535 1.21931 0
M  V30 2131 O 197.417 0.698975 1.82792 0
M  V30 2132 C 197.716 3.57176 -0.126623 0
M  V30 2133 C 197.382 4.26798 -1.45444 0
M  V30 2134 C 196.044 4.45534 -1.81805 0
M  V30 2135 C 198.396 4.66225 -2.32989 0
M  V30 2136 C 195.724 5.00961 -3.05377 0
M  V30 2137 C 198.076 5.23021 -3.55853 0
M  V30 2138 C 196.74 5.39973 -3.9241 0
M  V30 2139 H 196.01 0.738484 -0.0610162 0
M  V30 2140 H 198.657 1.71896 -0.84404 0
M  V30 2141 H 196.962 3.86634 0.634123 0
M  V30 2142 H 198.659 4.00112 0.266723 0
M  V30 2143 H 195.249 4.12561 -1.16153 0
M  V30 2144 H 199.433 4.51443 -2.06187 0
M  V30 2145 H 194.689 5.12271 -3.3375 0
M  V30 2146 H 198.863 5.52518 -4.23907 0
M  V30 2147 H 196.49 5.82687 -4.88242 0
M  V30 2148 N 198.065 0.39524 1.52563 0
M  V30 2149 C 199.476 -0.0774719 1.86539 0
M  V30 2150 C 199.827 -1.45641 1.31466 0
M  V30 2151 O 198.952 -2.06459 0.648367 0
M  V30 2152 C 199.547 -0.147356 3.38479 0
M  V30 2153 C 198.106 -0.564373 3.72145 0
M  V30 2154 C 197.253 0.269919 2.75983 0
M  V30 2155 H 200.204 0.612876 1.46388 0
M  V30 2156 H 200.225 -0.965343 3.68051 0
M  V30 2157 H 199.737 0.856387 3.78534 0
M  V30 2158 H 197.838 -1.57527 3.37663 0
M  V30 2159 H 197.951 -0.318402 4.78041 0
M  V30 2160 H 196.315 -0.265696 2.5331 0
M  V30 2161 H 197.098 1.27175 3.18875 0
M  V30 2162 N 199.544 -1.57102 0.125237 0
M  V30 2163 C 200.769 -2.0019 -0.542101 0
M  V30 2164 C 201.194 -1.00449 -1.59034 0
M  V30 2165 O 200.552 0.0229423 -1.81285 0
M  V30 2166 C 200.6 -3.42129 -1.13929 0
M  V30 2167 O 199.704 -3.45307 -2.2547 0
M  V30 2168 H 199.045 -0.650171 -0.134812 0
M  V30 2169 H 201.575 -2.03461 0.215553 0
M  V30 2170 H 201.585 -3.80471 -1.4733 0
M  V30 2171 H 200.26 -4.14237 -0.371531 0
M  V30 2172 H 198.837 -3.1879 -1.93462 0
M  V30 2173 N 201.022 0.148545 -1.56898 0
M  V30 2174 C 202.27 0.859717 -1.82902 0
M  V30 2175 C 202.591 1.81775 -0.70588 0
M  V30 2176 O 201.861 1.93994 0.272586 0
M  V30 2177 H 200.441 0.320469 -0.674766 0
M  V30 2178 H 203.103 0.142918 -1.94375 0
M  V30 2179 H 202.199 1.4229 -2.77777 0
M  V30 2180 N 202.5 1.5196 0.417844 0
M  V30 2181 C 203.43 1.77634 1.51554 0
M  V30 2182 C 204.411 0.626918 1.58126 0
M  V30 2183 O 205.596 0.871632 1.7354 0
M  V30 2184 C 202.726 1.91911 2.8946 0
M  V30 2185 C 201.68 3.07463 2.97743 0
M  V30 2186 C 201.006 3.06951 4.37819 0
M  V30 2187 C 202.306 4.47082 2.70027 0
M  V30 2188 H 204 2.6955 1.3032 0
M  V30 2189 H 201.546 1.29706 0.625492 0
M  V30 2190 H 203.499 2.08455 3.6623 0
M  V30 2191 H 202.223 0.966598 3.11969 0
M  V30 2192 H 200.882 2.90656 2.23416 0
M  V30 2193 H 200.53 2.09438 4.57323 0
M  V30 2194 H 200.23 3.84556 4.44286 0
M  V30 2195 H 201.754 3.25613 5.16535 0
M  V30 2196 H 203.168 4.6414 3.36522 0
M  V30 2197 H 201.565 5.2654 2.87881 0
M  V30 2198 H 202.635 4.55777 1.65514 0
M  V30 2199 N 203.978 -0.674533 1.42435 0
M  V30 2200 C 205.389 -1.25514 1.38214 0
M  V30 2201 C 205.74 -1.96055 0.0755464 0
M  V30 2202 O 204.865 -2.00028 -0.8257 0
M  V30 2203 C 205.46 -2.28269 2.50357 0
M  V30 2204 C 204.019 -2.81856 2.49467 0
M  V30 2205 C 203.166 -1.56182 2.29134 0
M  V30 2206 H 206.117 -0.467902 1.51646 0
M  V30 2207 H 206.138 -3.10009 2.20624 0
M  V30 2208 H 205.65 -1.769 3.45439 0
M  V30 2209 H 203.751 -3.37346 1.58204 0
M  V30 2210 H 203.864 -3.30854 3.46515 0
M  V30 2211 H 202.228 -1.82761 1.774 0
M  V30 2212 H 203.011 -1.06778 3.26272 0
M  V30 2213 N 205.456 -1.28612 -0.910864 0
M  V30 2214 C 206.406 -1.09423 -2.00026 0
M  V30 2215 C 207.39 -0.0170079 -1.60891 0
M  V30 2216 O 208.582 -0.237472 -1.754 0
M  V30 2217 C 205.711 -0.76114 -3.34756 0
M  V30 2218 C 204.797 -1.87735 -3.80285 0
M  V30 2219 N 205.188 -3.11938 -3.98156 0
M  V30 2220 C 203.486 -1.76786 -4.09467 0
M  V30 2221 C 204.187 -3.84687 -4.36338 0
M  V30 2222 N 203.163 -3.12555 -4.44759 0
M  V30 2223 H 206.965 -2.03658 -2.11898 0
M  V30 2224 H 204.479 -1.19573 -1.09891 0
M  V30 2225 H 206.476 -0.604743 -4.12491 0
M  V30 2226 H 205.136 0.173403 -3.24237 0
M  V30 2227 H 206.147 -3.47516 -3.83996 0
M  V30 2228 H 202.824 -0.905284 -4.07567 0
M  V30 2229 H 204.214 -4.91518 -4.58104 0
M  V30 2230 N 206.934 1.1197 -1.10907 0
M  V30 2231 C 208.159 1.87942 -0.877064 0
M  V30 2232 C 208.584 1.79341 0.567314 0
M  V30 2233 O 207.942 1.15184 1.40009 0
M  V30 2234 C 207.99 3.34926 -1.33629 0
M  V30 2235 O 207.094 4.09303 -0.504447 0
M  V30 2236 H 206.435 0.583785 -0.316371 0
M  V30 2237 H 208.965 1.4157 -1.47712 0
M  V30 2238 H 208.975 3.8577 -1.32837 0
M  V30 2239 H 207.65 3.40504 -2.3881 0
M  V30 2240 H 206.227 3.68393 -0.577993 0
M  V30 2241 N 208.412 0.89855 1.29475 0
M  V30 2242 C 209.661 0.519863 1.94885 0
M  V30 2243 C 209.974 -0.9383 1.71625 0
M  V30 2244 O 211.18 -1.42445 2.31131 0
M  V30 2245 C 209.636 0.878836 3.49005 0
M  V30 2246 C 209.244 2.35569 3.81066 0
M  V30 2247 C 210.988 0.570004 4.20656 0
M  V30 2248 C 208.895 2.65558 5.28425 0
M  V30 2249 H 207.825 0.190692 0.729488 0
M  V30 2250 H 210.476 1.09539 1.47219 0
M  V30 2251 H 208.858 0.232253 3.95318 0
M  V30 2252 H 210.032 3.04773 3.45616 0
M  V30 2253 H 208.347 2.63343 3.22552 0
M  V30 2254 H 210.944 0.770925 5.29113 0
M  V30 2255 H 211.287 -0.491404 4.1339 0
M  V30 2256 H 211.82 1.17438 3.8007 0
M  V30 2257 H 208.559 3.70493 5.40754 0
M  V30 2258 H 208.079 2.00977 5.65127 0
M  V30 2259 H 209.758 2.51765 5.96006 0
M  V30 2260 N 209.89 -1.43072 0.660911 0
M  V30 2261 C 210.822 -2.29108 -0.0647641 0
M  V30 2262 C 211.835 -1.42928 -0.779448 0
M  V30 2263 O 213.024 -1.66788 -0.635921 0
M  V30 2264 C 210.124 -3.20032 -1.11503 0
M  V30 2265 C 209.297 -4.34792 -0.476955 0
M  V30 2266 C 208.356 -5.06534 -1.42513 0
M  V30 2267 O 207.382 -5.61538 -0.930771 0
M  V30 2268 N 208.584 -5.1075 -2.75889 0
M  V30 2269 H 211.349 -2.92029 0.673731 0
M  V30 2270 H 208.91 -1.53846 0.50427 0
M  V30 2271 H 210.902 -3.64892 -1.75032 0
M  V30 2272 H 209.472 -2.58658 -1.75541 0
M  V30 2273 H 208.692 -3.92752 0.337572 0
M  V30 2274 H 209.98 -5.0879 -0.0318525 0
M  V30 2275 H 209.378 -4.67447 -3.18606 0
M  V30 2276 H 207.935 -5.59302 -3.347 0
M  V30 2277 N 211.368 -0.403325 -1.52352 0
M  V30 2278 C 212.331 0.413051 -2.25447 0
M  V30 2279 C 213.331 0.978513 -1.276 0
M  V30 2280 O 214.521 0.858305 -1.51587 0
M  V30 2281 C 211.653 1.58087 -3.02029 0
M  V30 2282 H 212.846 -0.227094 -2.99039 0
M  V30 2283 H 210.399 -0.155722 -1.55522 0
M  V30 2284 H 211.134 2.25804 -2.32772 0
M  V30 2285 H 210.919 1.18195 -3.73861 0
M  V30 2286 H 212.409 2.1585 -3.57489 0
M  V30 2287 N 212.846 1.57033 -0.133567 0
M  V30 2288 C 213.776 2.1909 0.807567 0
M  V30 2289 C 214.757 1.13517 1.26681 0
M  V30 2290 O 215.942 1.41809 1.32679 0
M  V30 2291 C 213.072 2.80188 2.05212 0
M  V30 2292 C 212.026 3.91471 1.73015 0
M  V30 2293 C 211.352 4.39443 3.04622 0
M  V30 2294 C 212.652 5.12886 0.987168 0
M  V30 2295 H 214.346 2.97988 0.290403 0
M  V30 2296 H 211.892 1.43335 0.138239 0
M  V30 2297 H 213.845 3.22264 2.71521 0
M  V30 2298 H 212.569 1.98601 2.59278 0
M  V30 2299 H 211.228 3.49993 1.0909 0
M  V30 2300 H 210.876 3.54695 3.56651 0
M  V30 2301 H 210.576 5.14495 2.83847 0
M  V30 2302 H 212.1 4.8418 3.72024 0
M  V30 2303 H 213.514 5.51891 1.55208 0
M  V30 2304 H 211.911 5.93615 0.87985 0
M  V30 2305 H 212.981 4.84894 -0.0235286 0
M  V30 2306 N 214.325 -0.140222 1.56975 0
M  V30 2307 C 215.235 -1.19223 2.02047 0
M  V30 2308 C 216.251 -1.46612 0.937062 0
M  V30 2309 O 217.427 -1.58148 1.24704 0
M  V30 2310 C 214.492 -2.50414 2.39778 0
M  V30 2311 C 213.553 -2.30612 3.621 0
M  V30 2312 C 212.786 -3.55547 3.98023 0
M  V30 2313 O 213.009 -4.62004 3.34528 0
M  V30 2314 O 211.943 -3.47808 4.91237 0
M  V30 2315 H 215.769 -0.839559 2.91865 0
M  V30 2316 H 213.354 -0.349453 1.45256 0
M  V30 2317 H 215.236 -3.27747 2.64877 0
M  V30 2318 H 213.911 -2.85198 1.53114 0
M  V30 2319 H 212.818 -1.51207 3.4218 0
M  V30 2320 H 214.151 -2.00741 4.49404 0
M  V30 2321 N 215.803 -1.52179 -0.40978 0
M  V30 2322 C 216.713 -1.78364 -1.52392 0
M  V30 2323 C 217.729 -0.669183 -1.60617 0
M  V30 2324 O 218.905 -0.954518 -1.77344 0
M  V30 2325 C 215.97 -1.92822 -2.88133 0
M  V30 2326 C 215.031 -3.16725 -2.898 0
M  V30 2327 C 214.264 -3.30483 -4.19067 0
M  V30 2328 O 214.487 -2.49522 -5.12928 0
M  V30 2329 O 213.421 -4.2363 -4.27576 0
M  V30 2330 H 217.247 -2.72931 -1.33201 0
M  V30 2331 H 214.832 -1.37016 -0.59557 0
M  V30 2332 H 216.714 -2.04157 -3.68643 0
M  V30 2333 H 215.389 -1.01444 -3.07393 0
M  V30 2334 H 214.296 -3.10848 -2.08146 0
M  V30 2335 H 215.629 -4.07881 -2.75489 0
M  V30 2336 N 217.281 0.66697 -1.42791 0
M  V30 2337 C 218.529 1.42417 -1.43394 0
M  V30 2338 C 218.85 1.94925 -0.0542373 0
M  V30 2339 O 218.12 1.73564 0.908415 0
M  V30 2340 H 216.7 0.528515 -0.527902 0
M  V30 2341 H 219.362 0.787562 -1.78279 0
M  V30 2342 H 218.458 2.27333 -2.13837 0
M  V30 2343 N 218.759 1.29093 0.90403 0
M  V30 2344 C 219.722 1.1386 1.98919 0
M  V30 2345 C 220.722 0.0753457 1.60623 0
M  V30 2346 O 221.912 0.321931 1.71199 0
M  V30 2347 C 219.044 0.740198 3.32767 0
M  V30 2348 H 220.237 2.10246 2.13861 0
M  V30 2349 H 217.79 1.12218 1.08797 0
M  V30 2350 H 218.525 -0.223997 3.23525 0
M  V30 2351 H 218.31 1.50838 3.61926 0
M  V30 2352 H 219.8 0.656546 4.12407 0
M  V30 2353 N 220.237 -1.11381 1.11499 0
M  V30 2354 C 221.147 -2.21019 0.786628 0
M  V30 2355 C 222.163 -1.72597 -0.220507 0
M  V30 2356 O 223.339 -2.01321 -0.0565251 0
M  V30 2357 C 220.404 -3.459 0.235333 0
M  V30 2358 C 219.465 -4.09107 1.30115 0
M  V30 2359 C 218.698 -5.28027 0.776068 0
M  V30 2360 O 218.921 -5.6904 -0.393661 0
M  V30 2361 O 217.855 -5.81835 1.54114 0
M  V30 2362 H 221.681 -2.51521 1.70209 0
M  V30 2363 H 219.266 -1.19928 0.890928 0
M  V30 2364 H 221.148 -4.21346 -0.067715 0
M  V30 2365 H 219.823 -3.17049 -0.652828 0
M  V30 2366 H 218.73 -3.35391 1.65722 0
M  V30 2367 H 220.063 -4.42139 2.16273 0
M  V30 2368 N 221.715 -0.905404 -1.28997 0
M  V30 2369 C 222.962 -0.534248 -1.95325 0
M  V30 2370 C 223.29 0.920535 -1.71337 0
M  V30 2371 O 222.545 1.66861 -1.02254 0
M  V30 2372 C 222.844 -0.779906 -3.48787 0
M  V30 2373 C 222.51 -2.21293 -3.92861 0
M  V30 2374 C 221.172 -2.60475 -4.04606 0
M  V30 2375 C 223.524 -3.14587 -4.15553 0
M  V30 2376 C 220.852 -3.9212 -4.36416 0
M  V30 2377 C 223.204 -4.45787 -4.48839 0
M  V30 2378 C 221.868 -4.84834 -4.58794 0
M  V30 2379 H 221.138 -0.195495 -0.714747 0
M  V30 2380 H 223.785 -1.14514 -1.53488 0
M  V30 2381 H 222.09 -0.0861365 -3.91705 0
M  V30 2382 H 223.787 -0.472029 -3.98212 0
M  V30 2383 H 220.377 -1.89887 -3.84241 0
M  V30 2384 H 224.561 -2.85528 -4.0594 0
M  V30 2385 H 219.817 -4.22086 -4.42327 0
M  V30 2386 H 223.991 -5.18098 -4.65346 0
M  V30 2387 H 221.618 -5.86877 -4.83197 0
M  V30 2388 N 223.193 1.4272 -0.668489 0
M  V30 2389 C 224.123 2.335 -0.000100175 0
M  V30 2390 C 225.104 1.50328 0.795964 0
M  V30 2391 O 226.289 1.78949 0.754385 0
M  V30 2392 C 223.419 3.33874 0.956302 0
M  V30 2393 C 222.373 4.27152 0.269278 0
M  V30 2394 C 221.699 5.17684 1.33818 0
M  V30 2395 C 222.999 5.15373 -0.847805 0
M  V30 2396 H 224.693 2.89639 -0.758244 0
M  V30 2397 H 222.239 1.39269 -0.366079 0
M  V30 2398 H 224.192 3.9629 1.43292 0
M  V30 2399 H 222.916 2.76025 1.74579 0
M  V30 2400 H 221.575 3.66123 -0.187042 0
M  V30 2401 H 221.223 4.56165 2.1195 0
M  V30 2402 H 220.923 5.80918 0.883659 0
M  V30 2403 H 222.447 5.82974 1.81586 0
M  V30 2404 H 223.861 5.7151 -0.452681 0
M  V30 2405 H 222.258 5.87407 -1.22773 0
M  V30 2406 H 223.328 4.5415 -1.69929 0
M  V30 2407 N 224.671 0.411399 1.52136 0
M  V30 2408 C 225.601 -0.404015 2.29978 0
M  V30 2409 C 226.582 -1.04412 1.34284 0
M  V30 2410 O 227.767 -1.0527 1.63192 0
M  V30 2411 C 224.897 -1.5197 3.12286 0
M  V30 2412 C 223.851 -1.00448 4.16046 0
M  V30 2413 C 223.177 -2.21393 4.86712 0
M  V30 2414 C 224.477 -0.0569336 5.22269 0
M  V30 2415 H 226.171 0.245529 2.98392 0
M  V30 2416 H 223.717 0.119525 1.43503 0
M  V30 2417 H 225.67 -2.09715 3.6551 0
M  V30 2418 H 224.394 -2.19716 2.41646 0
M  V30 2419 H 223.053 -0.449421 3.63835 0
M  V30 2420 H 222.701 -2.87699 4.12599 0
M  V30 2421 H 222.401 -1.87571 5.56858 0
M  V30 2422 H 223.925 -2.7974 5.4275 0
M  V30 2423 H 225.339 -0.54325 5.7072 0
M  V30 2424 H 223.736 0.192594 5.99791 0
M  V30 2425 H 224.806 0.887663 4.76706 0
M  V30 2426 N 226.149 -1.5696 0.141893 0
M  V30 2427 C 227.395 -1.9625 -0.511248 0
M  V30 2428 C 227.728 -1.02654 -1.64851 0
M  V30 2429 O 227.003 -0.0679676 -1.94381 0
M  V30 2430 C 227.286 -3.45285 -1.02227 0
M  V30 2431 C 227.139 -4.49658 0.113138 0
M  V30 2432 C 228.458 -3.96698 -1.90574 0
M  V30 2433 H 225.577 -0.713567 -0.184367 0
M  V30 2434 H 228.219 -1.88698 0.222087 0
M  V30 2435 H 226.369 -3.51852 -1.64719 0
M  V30 2436 H 228.041 -4.55174 0.749302 0
M  V30 2437 H 226.284 -4.26857 0.773026 0
M  V30 2438 H 226.955 -5.51258 -0.286053 0
M  V30 2439 H 229.431 -3.92578 -1.37918 0
M  V30 2440 H 228.307 -5.01453 -2.2324 0
M  V30 2441 H 228.568 -3.3875 -2.84079 0
M  V30 2442 N 227.627 0.131896 -1.57047 0
M  V30 2443 C 228.874 0.841932 -1.84168 0
M  V30 2444 C 229.202 1.8048 -0.725066 0
M  V30 2445 O 228.457 1.93618 0.284692 0
M  V30 2446 C 228.756 1.63703 -3.17704 0
M  V30 2447 C 228.422 0.81961 -4.43388 0
M  V30 2448 C 227.084 0.594148 -4.77518 0
M  V30 2449 C 229.436 0.248977 -5.20605 0
M  V30 2450 C 226.764 -0.212409 -5.86315 0
M  V30 2451 C 229.116 -0.544701 -6.30251 0
M  V30 2452 C 227.78 -0.780599 -6.6292 0
M  V30 2453 H 227.05 0.308085 -0.673917 0
M  V30 2454 H 229.697 0.104867 -1.91213 0
M  V30 2455 H 228.002 2.44464 -3.06177 0
M  V30 2456 H 229.699 2.19015 -3.35907 0
M  V30 2457 H 226.289 1.00542 -4.16641 0
M  V30 2458 H 230.473 0.410408 -4.946 0
M  V30 2459 H 225.729 -0.404524 -6.1006 0
M  V30 2460 H 229.903 -0.993922 -6.89271 0
M  V30 2461 H 227.53 -1.40742 -7.47058 0
M  V30 2462 N 229.106 1.52395 0.401703 0
M  V30 2463 C 230.383 1.57387 1.16141 0
M  V30 2464 C 230.763 0.359359 2.08019 0
M  V30 2465 O 230.111 -0.65326 2.18963 0
M  V30 2466 C 230.321 2.90631 1.93221 0
M  V30 2467 C 231.669 3.43904 2.49028 0
M  V30 2468 O 232.693 2.92421 2.03393 0
M  V30 2469 O 231.552 4.33823 3.32356 0
M  V30 2470 H 228.646 0.634262 0.530698 0
M  V30 2471 H 231.192 1.64725 0.407883 0
M  V30 2472 H 229.964 3.70473 1.25958 0
M  V30 2473 H 229.587 2.8662 2.75563 0
M  V30 2474 N 230.584 -0.659388 1.43143 0
M  V30 2475 C 231.861 -1.41627 1.34912 0
M  V30 2476 C 232.241 -2.11099 -0.00607785 0
M  V30 2477 O 231.589 -2.04353 -1.02236 0
M  V30 2478 C 231.799 -2.40604 2.52805 0
M  V30 2479 C 233.147 -3.04789 2.95616 0
M  V30 2480 O 234.171 -2.50932 2.52807 0
M  V30 2481 O 233.03 -4.02421 3.69756 0
M  V30 2482 H 230.124 -0.63246 0.532844 0
M  V30 2483 H 232.67 -0.686814 1.5518 0
M  V30 2484 H 231.442 -1.88174 3.43083 0
M  V30 2485 H 231.065 -3.21009 2.34604 0
M  V30 2486 N 232.062 -1.29571 -0.897171 0
M  V30 2487 C 233.31 -1.17456 -1.64464 0
M  V30 2488 C 233.631 0.273698 -1.9307 0
M  V30 2489 O 232.901 1.18684 -1.55855 0
M  V30 2490 H 231.481 -0.431706 -0.609622 0
M  V30 2491 H 234.143 -1.62531 -1.07562 0
M  V30 2492 H 233.239 -1.72648 -2.59998 0
M  V30 2493 N 233.54 1.10788 -1.12088 0
M  V30 2494 C 234.765 1.87002 -0.896949 0
M  V30 2495 C 235.19 1.79933 0.548261 0
M  V30 2496 O 234.548 1.16662 1.38779 0
M  V30 2497 C 234.596 3.3349 -1.37174 0
M  V30 2498 O 233.7 4.08745 -0.547831 0
M  V30 2499 H 233.041 0.580397 -0.322545 0
M  V30 2500 H 235.571 1.39996 -1.49206 0
M  V30 2501 H 235.581 3.84339 -1.36922 0
M  V30 2502 H 234.256 3.37951 -2.42408 0
M  V30 2503 H 232.833 3.6776 -0.617034 0
M  V30 2504 N 235.018 0.912232 1.28515 0
M  V30 2505 C 236.265 0.544599 1.95039 0
M  V30 2506 C 236.593 -0.911435 1.71823 0
M  V30 2507 O 235.848 -1.66317 1.03137 0
M  V30 2508 C 236.147 0.798392 3.48368 0
M  V30 2509 C 235.813 2.23374 3.91682 0
M  V30 2510 C 234.475 2.62617 4.03219 0
M  V30 2511 C 236.827 3.16786 4.13879 0
M  V30 2512 C 234.155 3.94429 4.3433 0
M  V30 2513 C 236.507 4.48161 4.46469 0
M  V30 2514 C 235.171 4.8726 4.56217 0
M  V30 2515 H 234.441 0.199283 0.7137 0
M  V30 2516 H 237.088 1.15327 1.52879 0
M  V30 2517 H 235.393 0.106908 3.91654 0
M  V30 2518 H 237.09 0.493141 3.97956 0
M  V30 2519 H 233.68 1.91922 3.83228 0
M  V30 2520 H 237.864 2.87677 4.0442 0
M  V30 2521 H 233.12 4.24426 4.40082 0
M  V30 2522 H 237.294 5.20559 4.62592 0
M  V30 2523 H 234.921 5.89431 4.80078 0
M  V30 2524 N 236.496 -1.42363 0.676048 0
M  V30 2525 C 237.721 -2.06377 0.205705 0
M  V30 2526 C 238.146 -1.50463 -1.12883 0
M  V30 2527 O 237.504 -0.623619 -1.70237 0
M  V30 2528 C 237.552 -3.60277 0.152655 0
M  V30 2529 O 236.656 -4.02935 -0.87845 0
M  V30 2530 H 235.997 -0.655588 0.105359 0
M  V30 2531 H 238.527 -1.82475 0.925412 0
M  V30 2532 H 238.537 -4.07993 -0.0230675 0
M  V30 2533 H 237.212 -4.00346 1.12675 0
M  V30 2534 H 235.789 -3.66764 -0.673668 0
M  V30 2535 N 237.974 -0.419461 -1.51915 0
M  V30 2536 C 238.884 0.407528 -2.31033 0
M  V30 2537 C 239.9 1.04413 -1.3919 0
M  V30 2538 O 241.076 1.0434 -1.72265 0
M  V30 2539 C 238.141 1.50365 -3.12396 0
M  V30 2540 C 237.202 0.889029 -4.19994 0
M  V30 2541 C 236.435 1.93291 -4.97468 0
M  V30 2542 O 236.658 3.15259 -4.75361 0
M  V30 2543 O 235.592 1.53339 -5.8204 0
M  V30 2544 H 239.418 -0.237865 -3.02767 0
M  V30 2545 H 237.003 -0.182413 -1.48282 0
M  V30 2546 H 238.885 2.13975 -3.63032 0
M  V30 2547 H 237.56 2.13345 -2.43445 0
M  V30 2548 H 236.467 0.215353 -3.7348 0
M  V30 2549 H 237.8 0.302991 -4.91267 0
M  V30 2550 N 239.452 1.56882 -0.150215 0
M  V30 2551 C 240.4 2.18214 0.805313 0
M  V30 2552 C 241.394 1.14006 1.25296 0
M  V30 2553 O 242.6 1.3225 1.22107 0
M  V30 2554 H 238.975 0.698762 0.277913 0
M  V30 2555 H 240.946 2.97231 0.263862 0
M  V30 2556 C 239.695 2.82065 2.03309 0
M  V30 2557 H 239.018 3.61968 1.69763 0
M  V30 2558 H 240.458 3.28477 2.68103 0
M  V30 2559 C 238.917 1.80739 2.84315 0
M  V30 2560 O 239.447 1.27983 3.80767 0
M  V30 2561 N 237.653 1.4997 2.48913 0
M  V30 2562 H 237.2 1.93062 1.70542 0
M  V30 2563 H 237.158 0.824217 3.03404 0
M  V30 2564 N 240.93 -0.123565 1.57115 0
M  V30 2565 C 242.155 -0.850398 1.89164 0
M  V30 2566 C 242.58 -1.7286 0.741688 0
M  V30 2567 O 241.938 -1.78665 -0.307958 0
M  V30 2568 C 241.986 -1.66353 3.19936 0
M  V30 2569 O 241.09 -2.77004 3.0552 0
M  V30 2570 H 240.431 -0.235454 0.620852 0
M  V30 2571 H 242.961 -0.107335 2.04318 0
M  V30 2572 H 242.971 -2.05372 3.52543 0
M  V30 2573 H 241.646 -1.01881 4.03228 0
M  V30 2574 H 240.223 -2.41221 2.84371 0
M  V30 2575 N 242.408 -1.52605 -0.393616 0
M  V30 2576 C 243.636 -1.71294 -1.16043 0
M  V30 2577 C 244.051 -0.429259 -1.83855 0
M  V30 2578 O 243.408 0.595921 -1.72496 0
M  V30 2579 C 243.459 -2.8593 -2.21193 0
M  V30 2580 O 243.18 -4.09329 -1.56146 0
M  V30 2581 C 244.681 -3.16259 -3.10636 0
M  V30 2582 H 241.901 -0.573641 -0.348104 0
M  V30 2583 H 244.445 -1.99234 -0.461092 0
M  V30 2584 H 242.6 -2.60465 -2.86769 0
M  V30 2585 H 243.014 -4.73323 -2.25978 0
M  V30 2586 H 244.488 -3.99946 -3.80456 0
M  V30 2587 H 244.965 -2.3045 -3.73884 0
M  V30 2588 H 245.571 -3.43547 -2.50711 0
M  V30 2589 N 243.887 0.651787 -1.4349 0
M  V30 2590 C 245.134 1.41167 -1.45183 0
M  V30 2591 C 245.462 1.94349 -0.0766601 0
M  V30 2592 O 244.717 1.72804 0.918555 0
M  V30 2593 C 245.016 2.60914 -2.44251 0
M  V30 2594 C 244.682 2.26142 -3.9009 0
M  V30 2595 C 243.344 2.16371 -4.2981 0
M  V30 2596 C 245.696 1.98334 -4.81989 0
M  V30 2597 C 243.024 1.7695 -5.5938 0
M  V30 2598 C 245.376 1.6041 -6.11924 0
M  V30 2599 C 244.04 1.49166 -6.5062 0
M  V30 2600 H 243.31 0.516566 -0.531263 0
M  V30 2601 H 245.957 0.741099 -1.76579 0
M  V30 2602 H 244.262 3.3311 -2.06265 0
M  V30 2603 H 245.959 3.19127 -2.42815 0
M  V30 2604 H 242.549 2.34658 -3.58655 0
M  V30 2605 H 246.733 2.04803 -4.52072 0
M  V30 2606 H 241.989 1.66831 -5.88198 0
M  V30 2607 H 246.163 1.37925 -6.82605 0
M  V30 2608 H 243.79 1.1839 -7.50925 0
M  V30 2609 N 245.365 1.30045 0.890287 0
M  V30 2610 C 246.297 1.11786 2.00091 0
M  V30 2611 C 247.31 0.0626307 1.62679 0
M  V30 2612 O 248.499 0.308112 1.75821 0
M  V30 2613 C 245.599 0.681527 3.31977 0
M  V30 2614 C 244.772 1.81735 3.97858 0
M  V30 2615 C 243.831 1.37045 5.08041 0
M  V30 2616 O 242.857 2.07677 5.29961 0
M  V30 2617 N 244.059 0.246525 5.79976 0
M  V30 2618 H 246.824 2.07441 2.16306 0
M  V30 2619 H 244.385 1.2211 1.06305 0
M  V30 2620 H 246.377 0.365675 4.03045 0
M  V30 2621 H 244.947 -0.182828 3.12065 0
M  V30 2622 H 244.167 2.30159 3.20032 0
M  V30 2623 H 245.455 2.57865 4.38615 0
M  V30 2624 H 244.853 -0.34215 5.64664 0
M  V30 2625 H 243.41 -0.00990438 6.51799 0
M  V30 2626 N 246.843 -1.10192 1.12674 0
M  V30 2627 C 247.773 -2.18652 0.819362 0
M  V30 2628 C 248.754 -1.68698 -0.217915 0
M  V30 2629 O 249.939 -1.94041 -0.0785581 0
M  V30 2630 C 247.069 -3.46202 0.27594 0
M  V30 2631 C 246.023 -4.09444 1.24656 0
M  V30 2632 C 245.349 -5.31725 0.563258 0
M  V30 2633 C 246.649 -4.52863 2.60217 0
M  V30 2634 H 248.343 -2.44622 1.72628 0
M  V30 2635 H 245.889 -1.17571 0.831451 0
M  V30 2636 H 247.842 -4.21372 0.0486149 0
M  V30 2637 H 246.566 -3.1973 -0.666331 0
M  V30 2638 H 245.225 -3.36284 1.45974 0
M  V30 2639 H 244.873 -5.0153 -0.384235 0
M  V30 2640 H 244.573 -5.74991 1.21075 0
M  V30 2641 H 246.097 -6.09624 0.34503 0
M  V30 2642 H 247.511 -5.19294 2.42913 0
M  V30 2643 H 245.908 -5.06986 3.21068 0
M  V30 2644 H 246.978 -3.65656 3.18471 0
M  V30 2645 N 248.321 -0.919034 -1.28029 0
M  V30 2646 C 249.549 -0.570971 -1.98866 0
M  V30 2647 C 249.964 0.848996 -1.68634 0
M  V30 2648 O 249.321 1.56307 -0.942036 0
M  V30 2649 C 249.372 -0.776876 -3.53054 0
M  V30 2650 O 249.093 -2.14097 -3.82222 0
M  V30 2651 C 250.594 -0.436356 -4.41147 0
M  V30 2652 H 247.814 -0.217175 -0.634883 0
M  V30 2653 H 250.358 -1.23368 -1.63097 0
M  V30 2654 H 248.513 -0.161085 -3.87065 0
M  V30 2655 H 248.927 -2.18455 -4.76841 0
M  V30 2656 H 250.401 -0.63117 -5.4838 0
M  V30 2657 H 250.878 0.627686 -4.34692 0
M  V30 2658 H 251.484 -1.02991 -4.12641 0
M  V30 2659 N 249.799 1.42003 -0.683588 0
M  V30 2660 C 251.076 1.95112 -0.138075 0
M  V30 2661 C 251.456 1.62359 1.34918 0
M  V30 2662 O 250.804 0.924311 2.08971 0
M  V30 2663 C 251.014 3.46505 -0.416581 0
M  V30 2664 C 252.362 4.23254 -0.337834 0
M  V30 2665 O 253.386 3.54468 -0.35082 0
M  V30 2666 O 252.245 5.45743 -0.287596 0
M  V30 2667 H 249.339 0.826961 -0.00797996 0
M  V30 2668 H 251.885 1.51784 -0.758924 0
M  V30 2669 H 250.657 3.63582 -1.4465 0
M  V30 2670 H 250.28 3.969 0.235839 0
M  V30 2671 N 251.277 0.427512 1.51691 0
M  V30 2672 C 252.523 -0.134744 2.02953 0
M  V30 2673 C 252.878 -1.41235 1.30654 0
M  V30 2674 O 252.171 -1.87168 0.409713 0
M  V30 2675 C 252.365 -0.418249 3.54944 0
M  V30 2676 C 252.194 0.830327 4.41968 0
M  V30 2677 C 250.964 1.36097 4.86627 0
M  V30 2678 C 253.162 1.7137 4.84909 0
M  V30 2679 N 251.144 2.56311 5.57833 0
M  V30 2680 C 252.515 2.76195 5.55082 0
M  V30 2681 C 254.57 1.72928 4.66905 0
M  V30 2682 C 253.273 3.82512 6.09161 0
M  V30 2683 C 255.299 2.78175 5.21894 0
M  V30 2684 C 254.661 3.8172 5.92004 0
M  V30 2685 H 250.76 -0.0103958 0.781931 0
M  V30 2686 H 253.344 0.585981 1.85673 0
M  V30 2687 H 251.515 -1.10801 3.7226 0
M  V30 2688 H 253.247 -0.970999 3.92879 0
M  V30 2689 H 250.002 0.916311 4.64651 0
M  V30 2690 H 250.426 3.17242 5.98069 0
M  V30 2691 H 255.068 0.942081 4.12171 0
M  V30 2692 H 252.786 4.62077 6.62956 0
M  V30 2693 H 256.372 2.8031 5.09821 0
M  V30 2694 H 255.252 4.61821 6.33791 0
M  V30 2695 N 252.755 -1.56801 0.158532 0
M  V30 2696 C 253.685 -2.20347 -0.772609 0
M  V30 2697 C 254.666 -1.15518 -1.24859 0
M  V30 2698 O 255.851 -1.43902 -1.30406 0
M  V30 2699 C 252.981 -2.83417 -2.00729 0
M  V30 2700 C 251.935 -3.94174 -1.66765 0
M  V30 2701 C 251.261 -4.44233 -2.97592 0
M  V30 2702 C 252.561 -5.14392 -0.905447 0
M  V30 2703 H 254.255 -2.98413 -0.242959 0
M  V30 2704 H 251.801 -1.43537 -0.115419 0
M  V30 2705 H 253.754 -3.26543 -2.6636 0
M  V30 2706 H 252.478 -2.02701 -2.56086 0
M  V30 2707 H 251.137 -3.51684 -1.03508 0
M  V30 2708 H 250.785 -3.60325 -3.50963 0
M  V30 2709 H 250.485 -5.18945 -2.75626 0
M  V30 2710 H 252.009 -4.90037 -3.64274 0
M  V30 2711 H 253.423 -5.5429 -1.46408 0
M  V30 2712 H 251.82 -5.9494 -0.7853 0
M  V30 2713 H 252.89 -4.84795 0.100668 0
M  V30 2714 N 254.233 0.115231 -1.57178 0
M  V30 2715 C 255.196 1.12526 -1.99676 0
M  V30 2716 C 256.196 1.34095 -0.88742 0
M  V30 2717 O 257.386 1.30548 -1.15337 0
M  V30 2718 C 254.518 2.4789 -2.34015 0
M  V30 2719 H 255.711 0.759912 -2.90113 0
M  V30 2720 H 253.264 0.359648 -1.52106 0
M  V30 2721 H 253.999 2.89339 -1.4647 0
M  V30 2722 H 253.784 2.33588 -3.14927 0
M  V30 2723 H 255.274 3.20575 -2.67622 0
M  V30 2724 N 255.711 1.52812 0.385517 0
M  V30 2725 C 256.661 1.74219 1.47078 0
M  V30 2726 C 257.645 0.59632 1.49442 0
M  V30 2727 O 258.837 0.85428 1.5502 0
M  V30 2728 C 255.966 1.9176 2.84751 0
M  V30 2729 C 255.052 3.12289 2.86943 0
M  V30 2730 N 255.443 4.34575 2.58802 0
M  V30 2731 C 253.741 3.12605 3.1811 0
M  V30 2732 C 254.442 5.162 2.68166 0
M  V30 2733 N 253.418 4.51964 3.02043 0
M  V30 2734 H 257.22 2.6639 1.24152 0
M  V30 2735 H 254.734 1.51166 0.593504 0
M  V30 2736 H 256.731 2.05218 3.62893 0
M  V30 2737 H 255.391 1.00805 3.08656 0
M  V30 2738 H 256.402 4.62649 2.32759 0
M  V30 2739 H 253.079 2.31472 3.47458 0
M  V30 2740 H 254.469 6.23689 2.49923 0
M  V30 2741 N 257.189 -0.644168 1.43834 0
M  V30 2742 C 258.417 -1.43147 1.49387 0
M  V30 2743 C 258.832 -1.88452 0.114583 0
M  V30 2744 O 258.189 -1.60047 -0.876989 0
M  V30 2745 C 258.24 -2.66046 2.44748 0
M  V30 2746 O 257.961 -2.22633 3.77314 0
M  V30 2747 C 259.462 -3.59311 2.59635 0
M  V30 2748 H 256.682 -0.439447 0.507077 0
M  V30 2749 H 259.226 -0.78895 1.88669 0
M  V30 2750 H 257.381 -3.26418 2.08638 0
M  V30 2751 H 257.795 -3.02216 4.28679 0
M  V30 2752 H 259.269 -4.42187 3.30416 0
M  V30 2753 H 259.746 -4.07259 1.64427 0
M  V30 2754 H 260.352 -3.04816 2.96593 0
M  V30 2755 N 258.668 -1.30515 -0.883378 0
M  V30 2756 C 260.079 -1.17509 -1.45081 0
M  V30 2757 C 260.43 0.223605 -1.94922 0
M  V30 2758 O 259.555 1.12041 -1.85137 0
M  V30 2759 C 260.15 -2.12715 -2.63701 0
M  V30 2760 C 258.709 -2.03682 -3.16529 0
M  V30 2761 C 257.856 -2.02706 -1.89224 0
M  V30 2762 H 260.807 -1.42762 -0.693165 0
M  V30 2763 H 260.828 -1.70891 -3.39965 0
M  V30 2764 H 260.34 -3.14505 -2.27395 0
M  V30 2765 H 258.441 -1.05039 -3.57488 0
M  V30 2766 H 258.554 -2.92146 -3.7972 0
M  V30 2767 H 256.918 -1.4753 -2.07622 0
M  V30 2768 H 257.701 -3.06229 -1.55174 0
M  V30 2769 N 260.146 1.09593 -1.13257 0
M  V30 2770 C 261.093 2.1618 -0.808381 0
M  V30 2771 C 262.063 1.64517 0.228754 0
M  V30 2772 O 263.248 1.9053 0.101381 0
M  V30 2773 C 260.388 3.43973 -0.278675 0
M  V30 2774 C 259.501 4.09545 -1.37466 0
M  V30 2775 C 258.636 5.25088 -0.803479 0
M  V30 2776 C 257.675 5.82579 -1.87799 0
M  V30 2777 N 256.812 6.89486 -1.32488 0
M  V30 2778 H 261.652 2.43254 -1.72138 0
M  V30 2779 H 259.189 1.19392 -0.859294 0
M  V30 2780 H 261.147 4.17174 0.0465583 0
M  V30 2781 H 259.777 3.17223 0.597459 0
M  V30 2782 H 258.829 3.34226 -1.81652 0
M  V30 2783 H 260.141 4.48307 -2.18684 0
M  V30 2784 H 259.295 6.05178 -0.429427 0
M  V30 2785 H 258.034 4.87684 0.0397956 0
M  V30 2786 H 257.039 5.01152 -2.26113 0
M  V30 2787 H 258.264 6.22045 -2.72463 0
M  V30 2788 H 256.21 6.54064 -0.503575 0
M  V30 2789 H 256.127 7.27007 -2.07355 0
M  V30 2790 H 257.395 7.73336 -0.978336 0
M  V30 2791 N 261.624 0.925811 1.2754 0
M  V30 2792 C 262.534 0.428993 2.30644 0
M  V30 2793 C 263.55 -0.489387 1.66976 0
M  V30 2794 O 264.726 -0.372653 1.97922 0
M  V30 2795 C 261.791 -0.311967 3.45294 0
M  V30 2796 C 260.852 0.641098 4.24486 0
M  V30 2797 C 260.085 -0.0645955 5.33661 0
M  V30 2798 O 260.308 -1.28429 5.55754 0
M  V30 2799 O 259.242 0.606265 5.98839 0
M  V30 2800 H 263.068 1.28504 2.75173 0
M  V30 2801 H 260.653 0.691086 1.32455 0
M  V30 2802 H 262.535 -0.729972 4.15029 0
M  V30 2803 H 261.21 -1.14365 3.02824 0
M  V30 2804 H 260.117 1.10874 3.57292 0
M  V30 2805 H 261.45 1.43995 4.70666 0
M  V30 2806 N 263.102 -1.41638 0.69111 0
M  V30 2807 C 264.348 -2.01598 0.220519 0
M  V30 2808 C 264.681 -1.54594 -1.17535 0
M  V30 2809 O 263.956 -0.755177 -1.79241 0
M  V30 2810 C 264.239 -3.59062 0.273243 0
M  V30 2811 C 264.092 -4.16203 1.70573 0
M  V30 2812 C 265.411 -4.38546 -0.369457 0
M  V30 2813 H 262.53 -0.732468 0.0816045 0
M  V30 2814 H 265.172 -1.68445 0.878986 0
M  V30 2815 H 263.322 -3.87435 -0.287411 0
M  V30 2816 H 264.994 -3.98722 2.31989 0
M  V30 2817 H 263.237 -3.71414 2.2413 0
M  V30 2818 H 263.908 -5.25358 1.69419 0
M  V30 2819 H 266.384 -4.1596 0.107977 0
M  V30 2820 H 265.26 -5.48069 -0.302002 0
M  V30 2821 H 265.521 -4.17662 -1.44951 0
M  V30 2822 N 264.58 -0.43555 -1.51462 0
M  V30 2823 C 265.829 0.133007 -2.01261 0
M  V30 2824 C 266.142 1.43942 -1.32439 0
M  V30 2825 O 267.348 2.09081 -1.73198 0
M  V30 2826 C 265.804 0.287581 -3.58749 0
M  V30 2827 C 265.412 -1.00829 -4.36506 0
M  V30 2828 C 267.156 0.810004 -4.167 0
M  V30 2829 C 265.063 -0.819454 -5.85695 0
M  V30 2830 H 263.993 0.0534822 -0.752101 0
M  V30 2831 H 266.644 -0.565038 -1.74584 0
M  V30 2832 H 265.026 1.04859 -3.81865 0
M  V30 2833 H 266.2 -1.77749 -4.25138 0
M  V30 2834 H 264.515 -1.45911 -3.89999 0
M  V30 2835 H 267.112 0.967743 -5.2587 0
M  V30 2836 H 267.455 1.79196 -3.75758 0
M  V30 2837 H 267.988 0.107357 -3.97655 0
M  V30 2838 H 264.727 -1.77374 -6.31046 0
M  V30 2839 H 264.247 -0.0900208 -5.99732 0
M  V30 2840 H 265.926 -0.471949 -6.45276 0
M  V30 2841 N 266.058 1.56714 -0.166846 0
M  V30 2842 C 267.021 2.16539 0.751232 0
M  V30 2843 C 268.021 1.11228 1.16125 0
M  V30 2844 O 269.211 1.36765 1.07894 0
M  V30 2845 C 266.343 2.74462 2.02196 0
M  V30 2846 H 267.536 2.99013 0.230499 0
M  V30 2847 H 265.089 1.56081 0.0826982 0
M  V30 2848 H 265.824 1.95709 2.58589 0
M  V30 2849 H 265.609 3.51527 1.73698 0
M  V30 2850 H 267.099 3.20489 2.67725 0
M  V30 2851 N 267.536 -0.106894 1.57237 0
M  V30 2852 C 268.499 -1.11466 2.0027 0
M  V30 2853 C 269.499 -1.33623 0.894519 0
M  V30 2854 O 270.689 -1.29935 1.16028 0
M  V30 2855 C 267.821 -2.46646 2.35327 0
M  V30 2856 H 269.014 -0.744516 2.90512 0
M  V30 2857 H 266.567 -0.351576 1.52295 0
M  V30 2858 H 267.302 -2.88558 1.48003 0
M  V30 2859 H 267.087 -2.31915 3.16161 0
M  V30 2860 H 268.577 -3.19151 2.69318 0
M  V30 2861 N 269.014 -1.53014 -0.377408 0
M  V30 2862 C 269.962 -1.7927 -1.48206 0
M  V30 2863 C 270.956 -0.661195 -1.55963 0
M  V30 2864 O 272.162 -0.843908 -1.58991 0
M  V30 2865 H 268.537 -0.567425 -0.493491 0
M  V30 2866 H 270.508 -2.71753 -1.2326 0
M  V30 2867 C 269.257 -1.98894 -2.85196 0
M  V30 2868 H 268.58 -2.85395 -2.79981 0
M  V30 2869 H 270.02 -2.21249 -3.61698 0
M  V30 2870 C 268.479 -0.764691 -3.28107 0
M  V30 2871 O 269.009 0.0523226 -4.01666 0
M  V30 2872 N 267.215 -0.591493 -2.84517 0
M  V30 2873 H 266.762 -1.25749 -2.24822 0
M  V30 2874 H 266.72 0.226253 -3.13585 0
M  V30 2875 N 270.492 0.636531 -1.44174 0
M  V30 2876 C 271.739 1.39619 -1.46672 0
M  V30 2877 C 272.067 1.94257 -0.0972691 0
M  V30 2878 O 271.322 1.73768 0.900175 0
M  V30 2879 C 271.621 2.58309 -2.47005 0
M  V30 2880 C 271.287 2.21992 -3.92467 0
M  V30 2881 C 269.949 2.118 -4.32081 0
M  V30 2882 C 272.301 1.9321 -4.84065 0
M  V30 2883 C 269.629 1.71007 -5.61225 0
M  V30 2884 C 271.981 1.53911 -6.13591 0
M  V30 2885 C 270.645 1.42257 -6.52165 0
M  V30 2886 H 269.915 0.510902 -0.536712 0
M  V30 2887 H 272.562 0.722328 -1.77355 0
M  V30 2888 H 270.867 3.30903 -2.09786 0
M  V30 2889 H 272.564 3.16533 -2.46186 0
M  V30 2890 H 269.154 2.30841 -3.61124 0
M  V30 2891 H 273.338 1.99997 -4.54219 0
M  V30 2892 H 268.594 1.60583 -5.89935 0
M  V30 2893 H 272.768 1.30677 -6.8403 0
M  V30 2894 H 270.395 1.10419 -7.52138 0
M  V30 2895 N 271.97 1.30982 0.876444 0
M  V30 2896 C 273.218 1.20058 1.62575 0
M  V30 2897 C 273.539 -0.242947 1.93481 0
M  V30 2898 O 272.809 -1.1619 1.57724 0
M  V30 2899 H 271.389 0.44135 0.602677 0
M  V30 2900 H 274.051 1.64222 1.04962 0
M  V30 2901 H 273.147 1.76762 2.57219 0
M  V30 2902 N 273.449 -1.08991 1.13837 0
M  V30 2903 C 274.695 -1.81526 0.90422 0
M  V30 2904 C 275.028 -1.85706 -0.568066 0
M  V30 2905 O 274.303 -1.32855 -1.42056 0
M  V30 2906 C 274.586 -3.27447 1.49835 0
M  V30 2907 C 274.439 -3.31512 3.04006 0
M  V30 2908 C 275.758 -4.24256 1.17025 0
M  V30 2909 H 272.877 -0.659029 0.329923 0
M  V30 2910 H 275.519 -1.27644 1.40737 0
M  V30 2911 H 273.669 -3.73462 1.07044 0
M  V30 2912 H 275.341 -2.93867 3.55584 0
M  V30 2913 H 273.584 -2.70963 3.38765 0
M  V30 2914 H 274.255 -4.34329 3.40679 0
M  V30 2915 H 276.731 -3.86549 1.54009 0
M  V30 2916 H 275.607 -5.24684 1.61237 0
M  V30 2917 H 275.868 -4.42019 0.0846274 0
M  V30 2918 N 274.927 -0.932562 -1.27047 0
M  V30 2919 C 276.155 -0.592031 -1.98249 0
M  V30 2920 C 276.57 0.831062 -1.69525 0
M  V30 2921 O 275.927 1.55299 -0.958561 0
M  V30 2922 C 275.978 -0.814279 -3.5221 0
M  V30 2923 O 275.699 -2.18139 -3.7993 0
M  V30 2924 C 277.2 -0.483121 -4.4066 0
M  V30 2925 H 274.42 -0.223896 -0.632544 0
M  V30 2926 H 276.964 -1.25091 -1.61779 0
M  V30 2927 H 275.119 -0.20213 -3.86872 0
M  V30 2928 H 275.533 -2.235 -4.74498 0
M  V30 2929 H 277.007 -0.689298 -5.47679 0
M  V30 2930 H 277.484 0.581546 -4.35333 0
M  V30 2931 H 278.09 -1.07362 -4.11526 0
M  V30 2932 N 276.405 1.4127 -0.698611 0
M  V30 2933 C 277.352 2.30773 -0.0352094 0
M  V30 2934 C 278.322 1.47273 0.768111 0
M  V30 2935 O 279.507 1.76053 0.735524 0
M  V30 2936 C 276.647 3.33346 0.893 0
M  V30 2937 C 275.76 4.31924 0.0809695 0
M  V30 2938 C 274.895 5.21566 1.0071 0
M  V30 2939 C 273.934 6.11811 0.188155 0
M  V30 2940 N 273.071 6.93926 1.06825 0
M  V30 2941 H 277.911 2.86943 -0.804207 0
M  V30 2942 H 275.448 1.4132 -0.408294 0
M  V30 2943 H 277.406 3.91368 1.44523 0
M  V30 2944 H 276.036 2.78719 1.62836 0
M  V30 2945 H 275.088 3.75825 -0.588224 0
M  V30 2946 H 276.4 4.95716 -0.553801 0
M  V30 2947 H 275.554 5.84437 1.62845 0
M  V30 2948 H 274.293 4.58008 1.67572 0
M  V30 2949 H 273.298 5.47986 -0.446254 0
M  V30 2950 H 274.523 6.77425 -0.476716 0
M  V30 2951 H 272.469 6.32973 1.72283 0
M  V30 2952 H 272.386 7.54416 0.489123 0
M  V30 2953 H 273.654 7.61262 1.67632 0
M  V30 2954 N 277.883 0.443576 1.51229 0
M  V30 2955 C 278.793 -0.370721 2.31652 0
M  V30 2956 C 279.809 -1.02186 1.40833 0
M  V30 2957 O 280.985 -1.01586 1.73903 0
M  V30 2958 C 278.05 -1.45376 3.14749 0
M  V30 2959 C 277.111 -0.822099 4.21355 0
M  V30 2960 C 276.344 -1.85353 5.0048 0
M  V30 2961 O 276.567 -3.07656 4.80316 0
M  V30 2962 O 275.501 -1.4406 5.84406 0
M  V30 2963 H 279.327 0.286002 3.0235 0
M  V30 2964 H 276.912 0.20598 1.47973 0
M  V30 2965 H 278.794 -2.08173 3.66391 0
M  V30 2966 H 277.469 -2.09445 2.46809 0
M  V30 2967 H 276.376 -0.155909 3.73775 0
M  V30 2968 H 277.709 -0.224797 4.91686 0
M  V30 2969 N 279.361 -1.56624 0.175154 0
M  V30 2970 C 280.271 -2.21741 -0.766042 0
M  V30 2971 C 281.287 -1.21023 -1.25018 0
M  V30 2972 O 282.463 -1.53697 -1.3015 0
M  V30 2973 C 279.528 -2.84839 -1.97655 0
M  V30 2974 C 278.589 -4.00769 -1.53892 0
M  V30 2975 C 277.822 -4.60849 -2.69173 0
M  V30 2976 O 278.045 -4.19823 -3.86141 0
M  V30 2977 O 276.979 -5.50655 -2.43028 0
M  V30 2978 H 280.805 -3.02738 -0.241585 0
M  V30 2979 H 278.39 -1.49305 -0.053222 0
M  V30 2980 H 280.272 -3.24834 -2.68442 0
M  V30 2981 H 278.947 -2.06836 -2.48999 0
M  V30 2982 H 277.854 -3.65436 -0.80044 0
M  V30 2983 H 279.187 -4.80376 -1.07236 0
M  V30 2984 N 280.839 0.0985539 -1.57292 0
M  V30 2985 C 282.088 0.801358 -1.85098 0
M  V30 2986 C 282.401 1.80066 -0.763902 0
M  V30 2987 O 283.607 2.55112 -0.928981 0
M  V30 2988 C 282.063 1.47599 -3.28242 0
M  V30 2989 C 281.671 0.516624 -4.45011 0
M  V30 2990 C 283.415 2.16272 -3.65276 0
M  V30 2991 C 281.322 1.19564 -5.79188 0
M  V30 2992 H 280.252 0.303022 -0.69043 0
M  V30 2993 H 282.903 0.0542623 -1.8342 0
M  V30 2994 H 281.285 2.27042 -3.2445 0
M  V30 2995 H 282.459 -0.246065 -4.60143 0
M  V30 2996 H 280.774 -0.064227 -4.1635 0
M  V30 2997 H 283.371 2.67802 -4.62803 0
M  V30 2998 H 283.714 2.95009 -2.93727 0
M  V30 2999 H 284.247 1.43693 -3.70941 0
M  V30 3000 H 280.986 0.449157 -6.53959 0
M  V30 3001 H 280.506 1.92984 -5.67906 0
M  V30 3002 H 282.185 1.7231 -6.23633 0
M  V30 3003 N 282.317 1.53212 0.369288 0
M  V30 3004 C 283.542 1.73423 1.1375 0
M  V30 3005 C 283.967 0.460404 1.82378 0
M  V30 3006 O 283.325 -0.585298 1.71592 0
M  V30 3007 C 283.373 2.89769 2.1463 0
M  V30 3008 O 282.477 2.58119 3.21634 0
M  V30 3009 H 281.818 0.576061 0.330227 0
M  V30 3010 H 284.348 2.00083 0.427547 0
M  V30 3011 H 284.358 3.15829 2.58294 0
M  V30 3012 H 283.033 3.8217 1.64071 0
M  V30 3013 H 281.61 2.42864 2.82969 0
M  V30 3014 N 283.795 -0.628877 1.44509 0
M  V30 3015 C 284.743 -1.76193 1.51852 0
M  V30 3016 C 285.737 -1.64849 0.390042 0
M  V30 3017 O 286.943 -1.709 0.565082 0
M  V30 3018 H 283.318 -0.581728 0.476547 0
M  V30 3019 H 285.289 -1.67123 2.47209 0
M  V30 3020 C 284.038 -3.14533 1.48204 0
M  V30 3021 H 283.361 -3.23911 2.34354 0
M  V30 3022 H 284.801 -3.93701 1.57402 0
M  V30 3023 C 283.26 -3.36287 0.203142 0
M  V30 3024 O 283.79 -3.9509 -0.725745 0
M  V30 3025 N 281.996 -2.90408 0.105563 0
M  V30 3026 H 281.543 -2.42739 0.862301 0
M  V30 3027 H 281.501 -3.05339 -0.749371 0
M  V30 3028 N 285.273 -1.31445 -0.869486 0
M  V30 3029 C 286.203 -1.21727 -1.99261 0
M  V30 3030 C 287.184 -0.104359 -1.6978 0
M  V30 3031 O 288.369 -0.289038 -1.92037 0
M  V30 3032 C 285.499 -0.924317 -3.34774 0
M  V30 3033 C 284.453 -1.99685 -3.78563 0
M  V30 3034 C 283.779 -1.55658 -5.11541 0
M  V30 3035 C 285.079 -3.41003 -3.95619 0
M  V30 3036 H 286.773 -2.1569 -2.07649 0
M  V30 3037 H 284.319 -1.03839 -0.997675 0
M  V30 3038 H 286.272 -0.842934 -4.12883 0
M  V30 3039 H 284.996 0.0509793 -3.2656 0
M  V30 3040 H 283.655 -2.06813 -3.02694 0
M  V30 3041 H 283.303 -0.569132 -4.9977 0
M  V30 3042 H 283.003 -2.27409 -5.41811 0
M  V30 3043 H 284.527 -1.48928 -5.92159 0
M  V30 3044 H 285.941 -3.36547 -4.64122 0
M  V30 3045 H 284.338 -4.10975 -4.37286 0
M  V30 3046 H 285.408 -3.81754 -2.98985 0
M  V30 3047 N 286.751 1.08385 -1.14413 0
M  V30 3048 C 288.162 1.62258 -0.923535 0
M  V30 3049 C 288.513 1.88691 0.537595 0
M  V30 3050 O 287.638 1.64454 1.40655 0
M  V30 3051 C 288.233 2.94781 -1.67002 0
M  V30 3052 C 286.792 3.45437 -1.495 0
M  V30 3053 C 285.939 2.19668 -1.69238 0
M  V30 3054 H 288.89 0.916086 -1.2959 0
M  V30 3055 H 288.911 3.63229 -1.13334 0
M  V30 3056 H 288.423 2.7551 -2.73342 0
M  V30 3057 H 286.524 3.6981 -0.455097 0
M  V30 3058 H 286.637 4.22173 -2.2651 0
M  V30 3059 H 285.001 2.28849 -1.11804 0
M  V30 3060 H 285.784 2.02905 -2.7692 0
M  V30 3061 N 288.23 0.939286 1.26551 0
M  V30 3062 C 289.478 0.58469 1.93457 0
M  V30 3063 C 289.799 -0.878774 1.74076 0
M  V30 3064 O 289.069 -1.62421 1.09528 0
M  V30 3065 H 287.649 0.21325 0.715914 0
M  V30 3066 H 290.311 1.1942 1.54029 0
M  V30 3067 H 289.407 0.800849 3.0165 0
M  V30 3068 N 289.708 -1.40897 0.706093 0
M  V30 3069 C 290.655 -2.30751 0.0474474 0
M  V30 3070 C 291.625 -1.47678 -0.76029 0
M  V30 3071 O 292.81 -1.76441 -0.726177 0
M  V30 3072 C 289.95 -3.33815 -0.875309 0
M  V30 3073 C 289.063 -4.31961 -0.0580623 0
M  V30 3074 C 288.198 -5.22093 -0.979425 0
M  V30 3075 C 287.237 -6.11902 -0.155706 0
M  V30 3076 N 286.374 -6.94482 -1.03144 0
M  V30 3077 H 291.214 -2.86513 0.819413 0
M  V30 3078 H 288.751 -1.41102 0.415783 0
M  V30 3079 H 290.709 -3.92129 -1.42446 0
M  V30 3080 H 289.339 -2.79579 -1.61356 0
M  V30 3081 H 288.391 -3.75507 0.608147 0
M  V30 3082 H 289.703 -4.95415 0.580082 0
M  V30 3083 H 288.857 -5.85292 -1.59744 0
M  V30 3084 H 287.596 -4.5889 -1.65141 0
M  V30 3085 H 286.601 -5.47742 0.475309 0
M  V30 3086 H 287.826 -6.77162 0.512635 0
M  V30 3087 H 285.772 -6.33877 -1.68924 0
M  V30 3088 H 285.689 -7.54665 -0.449108 0
M  V30 3089 H 286.957 -7.6214 -1.63593 0
M  V30 3090 N 291.186 -0.45159 -1.50991 0
M  V30 3091 C 292.096 0.358431 -2.31846 0
M  V30 3092 C 293.112 1.01438 -1.41373 0
M  V30 3093 O 294.288 1.00663 -1.74439 0
M  V30 3094 C 291.353 1.43704 -3.15515 0
M  V30 3095 C 290.414 0.799742 -4.21785 0
M  V30 3096 C 289.647 1.82696 -5.01456 0
M  V30 3097 O 289.87 3.05105 -4.81941 0
M  V30 3098 O 288.804 1.40958 -5.85162 0
M  V30 3099 H 292.63 -0.302032 -3.02194 0
M  V30 3100 H 290.215 -0.213825 -1.47862 0
M  V30 3101 H 292.097 2.06227 -3.67489 0
M  V30 3102 H 290.772 2.08133 -2.47916 0
M  V30 3103 H 289.679 0.136084 -3.73852 0
M  V30 3104 H 291.012 0.198718 -4.91799 0
M  V30 3105 N 292.664 1.56529 -0.183458 0
M  V30 3106 C 293.611 2.18546 0.742055 0
M  V30 3107 C 294.581 1.12912 1.2182 0
M  V30 3108 O 295.766 1.41115 1.28418 0
M  V30 3109 C 292.906 2.83977 1.96089 0
M  V30 3110 C 292.019 4.04105 1.52719 0
M  V30 3111 C 291.154 4.57427 2.70063 0
M  V30 3112 C 290.193 5.69938 2.23243 0
M  V30 3113 N 289.33 6.17717 3.33722 0
M  V30 3114 H 294.17 2.97284 0.206432 0
M  V30 3115 H 291.707 1.46823 0.0901571 0
M  V30 3116 H 293.665 3.20077 2.67594 0
M  V30 3117 H 292.295 2.07822 2.47002 0
M  V30 3118 H 291.347 3.73745 0.708436 0
M  V30 3119 H 292.659 4.85513 1.1436 0
M  V30 3120 H 291.813 4.95772 3.49708 0
M  V30 3121 H 290.552 3.75101 3.11689 0
M  V30 3122 H 289.557 5.31133 1.42048 0
M  V30 3123 H 290.782 6.54073 1.82661 0
M  V30 3124 H 288.728 5.38317 3.74902 0
M  V30 3125 H 288.645 6.94146 2.99495 0
M  V30 3126 H 289.913 6.60713 4.13616 0
M  V30 3127 N 294.142 -0.090211 1.57342 0
M  V30 3128 C 295.372 -0.805055 1.90269 0
M  V30 3129 C 295.78 -1.72561 0.775842 0
M  V30 3130 O 295.123 -1.81839 -0.260843 0
M  V30 3131 C 295.185 -1.66734 3.18497 0
M  V30 3132 C 294.849 -0.918092 4.47683 0
M  V30 3133 C 295.846 -0.245674 5.19319 0
M  V30 3134 C 293.531 -0.890724 4.94339 0
M  V30 3135 C 295.525 0.444088 6.35851 0
M  V30 3136 C 293.212 -0.197179 6.10782 0
M  V30 3137 C 294.21 0.469044 6.81388 0
M  V30 3138 O 293.898 1.15146 7.95611 0
M  V30 3139 H 293.63 -0.235143 0.633785 0
M  V30 3140 H 296.184 -0.0703805 2.05279 0
M  V30 3141 H 294.414 -2.44437 2.99646 0
M  V30 3142 H 296.103 -2.25919 3.37217 0
M  V30 3143 H 296.869 -0.258246 4.84312 0
M  V30 3144 H 292.748 -1.39873 4.39268 0
M  V30 3145 H 296.292 0.964667 6.90898 0
M  V30 3146 H 292.189 -0.18247 6.45242 0
M  V30 3147 H 292.957 1.05885 8.11622 0
M  V30 3148 N 295.62 -1.53406 -0.361157 0
M  V30 3149 C 296.869 -1.69022 -1.10066 0
M  V30 3150 C 297.182 -0.450838 -1.90333 0
M  V30 3151 O 298.388 -0.487617 -2.67085 0
M  V30 3152 C 296.844 -2.98812 -2.00598 0
M  V30 3153 C 296.452 -4.30027 -1.25621 0
M  V30 3154 C 298.196 -3.23795 -2.74513 0
M  V30 3155 C 296.103 -5.50903 -2.1508 0
M  V30 3156 H 295.033 -0.629776 -0.414606 0
M  V30 3157 H 297.684 -1.79907 -0.361348 0
M  V30 3158 H 296.066 -2.8174 -2.78278 0
M  V30 3159 H 297.24 -4.57745 -0.529739 0
M  V30 3160 H 295.555 -4.11522 -0.635496 0
M  V30 3161 H 298.152 -4.11289 -3.41681 0
M  V30 3162 H 298.495 -2.40045 -3.40123 0
M  V30 3163 H 299.028 -3.41561 -2.03914 0
M  V30 3164 H 295.767 -6.37143 -1.54041 0
M  V30 3165 H 295.287 -5.27459 -2.85565 0
M  V30 3166 H 296.966 -5.85865 -2.74538 0
M  V30 3167 N 297.098 0.621204 -1.44841 0
M  V30 3168 C 298.345 1.38055 -1.48145 0
M  V30 3169 C 298.673 1.94143 -0.117867 0
M  V30 3170 O 297.928 1.74713 0.881694 0
M  V30 3171 C 298.227 2.55675 -2.4973 0
M  V30 3172 C 297.893 2.17817 -3.94799 0
M  V30 3173 C 296.555 2.07205 -4.34303 0
M  V30 3174 C 298.907 1.88065 -4.86087 0
M  V30 3175 C 296.235 1.65045 -5.63007 0
M  V30 3176 C 298.587 1.47394 -6.15189 0
M  V30 3177 C 297.251 1.35331 -6.53637 0
M  V30 3178 H 296.521 0.505181 -0.542101 0
M  V30 3179 H 299.168 0.703477 -1.78111 0
M  V30 3180 H 297.473 3.2866 -2.13284 0
M  V30 3181 H 299.17 3.13904 -2.4953 0
M  V30 3182 H 295.76 2.26998 -3.63552 0
M  V30 3183 H 299.944 1.95168 -4.56315 0
M  V30 3184 H 295.2 1.54317 -5.91605 0
M  V30 3185 H 299.374 1.23415 -6.85377 0
M  V30 3186 H 297.001 1.02435 -7.53267 0
M  V30 3187 N 298.576 1.31904 0.862503 0
M  V30 3188 C 299.486 1.22161 2.00285 0
M  V30 3189 C 300.502 0.136785 1.73462 0
M  V30 3190 O 301.678 0.355994 1.98229 0
M  V30 3191 C 298.743 0.937093 3.33796 0
M  V30 3192 C 297.804 2.10957 3.73893 0
M  V30 3193 C 297.037 1.83853 5.01033 0
M  V30 3194 O 297.26 0.777274 5.65079 0
M  V30 3195 O 296.194 2.69741 5.38074 0
M  V30 3196 H 300.02 2.18008 2.11439 0
M  V30 3197 H 297.605 1.11716 0.991957 0
M  V30 3198 H 299.487 0.794583 4.13841 0
M  V30 3199 H 298.162 0.00871894 3.23699 0
M  V30 3200 H 297.069 2.30752 2.94456 0
M  V30 3201 H 298.402 3.02046 3.88625 0
M  V30 3202 N 300.054 -1.07777 1.14986 0
M  V30 3203 C 301.002 -2.16964 0.838406 0
M  V30 3204 C 301.996 -1.68372 -0.186386 0
M  V30 3205 O 303.202 -1.79951 -0.0418465 0
M  V30 3206 H 299.577 -0.708006 0.253439 0
M  V30 3207 H 301.548 -2.40454 1.76704 0
M  V30 3208 C 300.297 -3.4604 0.339335 0
M  V30 3209 H 299.62 -3.83813 1.11927 0
M  V30 3210 H 301.06 -4.23698 0.160021 0
M  V30 3211 C 299.519 -3.23569 -0.938325 0
M  V30 3212 O 300.049 -3.47752 -2.01077 0
M  V30 3213 N 298.255 -2.77079 -0.876117 0
M  V30 3214 H 297.802 -2.576 -0.00322037 0
M  V30 3215 H 297.76 -2.62422 -1.73153 0
M  V30 3216 N 301.532 -0.945985 -1.26051 0
M  V30 3217 C 302.464 -0.416662 -2.25381 0
M  V30 3218 C 303.477 0.462712 -1.56086 0
M  V30 3219 O 304.666 0.272383 -1.7641 0
M  V30 3220 C 301.766 0.419812 -3.3629 0
M  V30 3221 C 300.939 -0.444531 -4.35135 0
M  V30 3222 C 299.998 0.332305 -5.2515 0
M  V30 3223 O 299.024 -0.266324 -5.68577 0
M  V30 3224 N 300.226 1.62763 -5.57215 0
M  V30 3225 H 302.991 -1.27059 -2.71433 0
M  V30 3226 H 300.552 -0.815392 -1.39868 0
M  V30 3227 H 302.544 0.947013 -3.93464 0
M  V30 3228 H 301.114 1.17456 -2.89694 0
M  V30 3229 H 300.334 -1.15291 -3.76964 0
M  V30 3230 H 301.622 -1.03478 -4.98166 0
M  V30 3231 H 301.02 2.13603 -5.23823 0
M  V30 3232 H 299.577 2.10097 -6.17011 0
M  V30 3233 N 303.011 1.40521 -0.713556 0
M  V30 3234 C 303.941 2.33381 -0.0743864 0
M  V30 3235 C 304.922 1.52784 0.747735 0
M  V30 3236 O 306.107 1.81258 0.697071 0
M  V30 3237 C 303.237 3.36748 0.849598 0
M  V30 3238 C 302.191 4.27793 0.133247 0
M  V30 3239 C 301.517 5.21679 1.17281 0
M  V30 3240 C 302.817 5.12415 -1.01134 0
M  V30 3241 H 304.511 2.87081 -0.850007 0
M  V30 3242 H 302.057 1.38034 -0.410201 0
M  V30 3243 H 304.01 4.00648 1.30612 0
M  V30 3244 H 302.734 2.81439 1.65709 0
M  V30 3245 H 301.393 3.65342 -0.303426 0
M  V30 3246 H 301.041 4.62677 1.9733 0
M  V30 3247 H 300.741 5.83435 0.698397 0
M  V30 3248 H 302.265 5.88456 1.62947 0
M  V30 3249 H 303.679 5.69781 -0.634274 0
M  V30 3250 H 302.076 5.83203 -1.41399 0
M  V30 3251 H 303.146 4.48514 -1.84292 0
M  V30 3252 N 304.489 0.459591 1.5075 0
M  V30 3253 C 305.9 0.00171547 1.867 0
M  V30 3254 C 306.251 -1.39934 1.37525 0
M  V30 3255 O 305.376 -2.03523 0.735349 0
M  V30 3256 C 305.971 -0.00366298 3.388 0
M  V30 3257 C 304.53 -0.406026 3.74204 0
M  V30 3258 C 303.677 0.38673 2.7459 0
M  V30 3259 H 306.628 0.674413 1.43657 0
M  V30 3260 H 306.649 -0.808371 3.71814 0
M  V30 3261 H 306.161 1.01617 3.74561 0
M  V30 3262 H 304.262 -1.43063 3.4404 0
M  V30 3263 H 304.375 -0.115362 4.78961 0
M  V30 3264 H 302.739 -0.158019 2.54209 0
M  V30 3265 H 303.522 1.40585 3.13194 0
M  V30 3266 N 305.967 -1.56429 0.191757 0
M  V30 3267 C 307.215 -1.97095 -0.447006 0
M  V30 3268 C 307.536 -1.07967 -1.62383 0
M  V30 3269 O 306.806 -0.150248 -1.95323 0
M  V30 3270 H 305.386 -0.727832 -0.168135 0
M  V30 3271 H 308.048 -1.92911 0.27771 0
M  V30 3272 H 307.144 -3.01848 -0.793371 0
M  V30 3273 N 307.445 0.0818655 -1.57387 0
M  V30 3274 C 308.67 0.799946 -1.91352 0
M  V30 3275 C 309.095 1.70833 -0.787258 0
M  V30 3276 O 308.453 1.79419 0.26048 0
M  V30 3277 C 308.501 1.57812 -3.24234 0
M  V30 3278 O 307.605 2.68806 -3.12757 0
M  V30 3279 H 306.946 0.21891 -0.626877 0
M  V30 3280 H 309.476 0.0531256 -2.04531 0
M  V30 3281 H 309.486 1.95952 -3.57864 0
M  V30 3282 H 308.161 0.911548 -4.05788 0
M  V30 3283 H 306.738 2.33597 -2.90666 0
M  V30 3284 N 308.923 1.53595 0.353017 0
M  V30 3285 C 309.853 1.83902 1.43883 0
M  V30 3286 C 310.834 0.693421 1.55324 0
M  V30 3287 O 312.019 0.944452 1.69687 0
M  V30 3288 C 309.149 2.04016 2.8106 0
M  V30 3289 C 308.103 3.19814 2.84434 0
M  V30 3290 C 307.429 3.25244 4.24406 0
M  V30 3291 C 308.729 4.58133 2.50822 0
M  V30 3292 H 310.423 2.74835 1.1877 0
M  V30 3293 H 307.969 1.32242 0.569917 0
M  V30 3294 H 309.922 2.238 3.57059 0
M  V30 3295 H 308.646 1.09804 3.07588 0
M  V30 3296 H 307.305 2.9987 2.10887 0
M  V30 3297 H 306.953 2.28646 4.48029 0
M  V30 3298 H 306.653 4.03054 4.27576 0
M  V30 3299 H 308.177 3.47228 5.0226 0
M  V30 3300 H 309.591 4.77995 3.16534 0
M  V30 3301 H 307.988 5.38276 2.6529 0
M  V30 3302 H 309.058 4.62387 1.46034 0
M  V30 3303 N 310.401 -0.613514 1.45168 0
M  V30 3304 C 311.348 -1.72456 1.53387 0
M  V30 3305 C 312.318 -1.6169 0.380191 0
M  V30 3306 O 313.503 -1.81356 0.592836 0
M  V30 3307 C 310.643 -3.10753 1.50088 0
M  V30 3308 C 309.756 -3.32368 2.75963 0
M  V30 3309 C 308.891 -4.60737 2.64376 0
M  V30 3310 C 307.93 -4.7559 3.85332 0
M  V30 3311 N 307.067 -5.95253 3.72315 0
M  V30 3312 H 311.907 -1.64768 2.48305 0
M  V30 3313 H 309.444 -0.803503 1.23216 0
M  V30 3314 H 311.402 -3.90758 1.46164 0
M  V30 3315 H 310.032 -3.17413 0.587243 0
M  V30 3316 H 309.084 -2.4618 2.89999 0
M  V30 3317 H 310.396 -3.39218 3.65695 0
M  V30 3318 H 309.55 -5.48928 2.58385 0
M  V30 3319 H 308.289 -4.56275 1.72233 0
M  V30 3320 H 307.294 -3.85824 3.91688 0
M  V30 3321 H 308.519 -4.81854 4.78533 0
M  V30 3322 H 306.465 -5.91847 2.82937 0
M  V30 3323 H 306.382 -6.03236 4.55677 0
M  V30 3324 H 307.65 -6.85958 3.70246 0
M  V30 3325 N 311.879 -1.3236 -0.855495 0
M  V30 3326 C 313.156 -1.13491 -1.59309 0
M  V30 3327 C 313.536 0.30503 -2.08885 0
M  V30 3328 O 312.884 1.30151 -1.87811 0
M  V30 3329 C 313.094 -2.16176 -2.73987 0
M  V30 3330 C 314.442 -2.49463 -3.43589 0
M  V30 3331 O 315.466 -2.14715 -2.84211 0
M  V30 3332 O 314.325 -3.09027 -4.50738 0
M  V30 3333 H 311.419 -0.437887 -0.701559 0
M  V30 3334 H 313.965 -1.43887 -0.899696 0
M  V30 3335 H 312.737 -3.1297 -2.34873 0
M  V30 3336 H 312.36 -1.86769 -3.51003 0
M  V30 3337 N 313.357 1.07166 -1.15556 0
M  V30 3338 C 314.634 1.76546 -0.842069 0
M  V30 3339 C 315.014 2.00453 0.661939 0
M  V30 3340 O 314.362 1.62452 1.60691 0
M  V30 3341 C 314.572 3.07266 -1.65495 0
M  V30 3342 C 315.92 3.81578 -1.86234 0
M  V30 3343 O 316.944 3.17083 -1.62287 0
M  V30 3344 O 315.803 4.97419 -2.26355 0
M  V30 3345 H 312.897 0.766756 -0.309862 0
M  V30 3346 H 315.443 1.13514 -1.26145 0
M  V30 3347 H 314.215 2.85494 -2.67598 0
M  V30 3348 H 313.838 3.7803 -1.23203 0
M  V30 3349 N 314.835 0.952656 1.25548 0
M  V30 3350 C 316.084 0.602053 1.92505 0
M  V30 3351 C 316.397 -0.864663 1.75451 0
M  V30 3352 O 317.603 -1.32514 2.36965 0
M  V30 3353 C 316.059 1.02607 3.44963 0
M  V30 3354 C 315.667 2.51519 3.70732 0
M  V30 3355 C 317.411 0.747905 4.1786 0
M  V30 3356 C 315.318 2.87732 5.16686 0
M  V30 3357 H 314.248 0.22146 0.720744 0
M  V30 3358 H 316.899 1.15684 1.42441 0
M  V30 3359 H 315.281 0.399712 3.93978 0
M  V30 3360 H 316.455 3.19157 3.32378 0
M  V30 3361 H 314.77 2.76786 3.11092 0
M  V30 3362 H 317.367 0.994647 5.25367 0
M  V30 3363 H 317.71 -0.315629 4.15102 0
M  V30 3364 H 318.243 1.33452 3.74747 0
M  V30 3365 H 314.982 3.93095 5.24554 0
M  V30 3366 H 314.502 2.24765 5.56094 0
M  V30 3367 H 316.181 2.76817 5.84792 0
M  V30 3368 N 316.313 -1.40141 0.720998 0
M  V30 3369 C 317.559 -2.01084 0.263231 0
M  V30 3370 C 317.892 -1.57052 -1.14229 0
M  V30 3371 O 317.167 -0.793027 -1.77599 0
M  V30 3372 C 317.45 -3.58401 0.349344 0
M  V30 3373 C 317.303 -4.12491 1.79363 0
M  V30 3374 C 318.622 -4.39231 -0.276351 0
M  V30 3375 H 315.741 -0.730572 0.0971228 0
M  V30 3376 H 318.383 -1.66543 0.914518 0
M  V30 3377 H 316.533 -3.87958 -0.205165 0
M  V30 3378 H 318.205 -3.93711 2.40394 0
M  V30 3379 H 316.448 -3.66576 2.31958 0
M  V30 3380 H 317.119 -5.21646 1.80524 0
M  V30 3381 H 319.595 -4.15637 0.196184 0
M  V30 3382 H 318.471 -5.48586 -0.185681 0
M  V30 3383 H 318.732 -4.20643 -1.36059 0
M  V30 3384 N 317.792 -0.46758 -1.50504 0
M  V30 3385 C 318.702 0.33382 -2.32213 0
M  V30 3386 C 319.718 0.999323 -1.42441 0
M  V30 3387 O 320.894 0.988068 -1.75497 0
M  V30 3388 C 317.959 1.4035 -3.17022 0
M  V30 3389 C 317.02 0.754961 -4.2261 0
M  V30 3390 C 316.253 1.77367 -5.03365 0
M  V30 3391 O 316.476 2.99976 -4.8515 0
M  V30 3392 O 315.41 1.34744 -5.86624 0
M  V30 3393 H 319.236 -0.334067 -3.01857 0
M  V30 3394 H 316.821 -0.229496 -1.47627 0
M  V30 3395 H 318.703 2.02318 -3.69656 0
M  V30 3396 H 317.378 2.05492 -2.5011 0
M  V30 3397 H 316.285 0.0964244 -3.73976 0
M  V30 3398 H 317.618 0.146545 -4.91982 0
M  V30 3399 N 319.27 1.56325 -0.20005 0
M  V30 3400 C 320.518 1.97329 0.436547 0
M  V30 3401 C 320.839 1.08826 1.61808 0
M  V30 3402 O 320.109 0.160604 1.95241 0
M  V30 3403 H 318.689 0.728714 0.164272 0
M  V30 3404 H 321.351 1.92761 -0.287937 0
M  V30 3405 H 320.447 3.02264 0.777353 0
M  V30 3406 N 320.748 -0.0735177 1.57428 0
M  V30 3407 C 322.159 -0.625551 1.75908 0
M  V30 3408 C 322.51 -1.78 0.825261 0
M  V30 3409 O 321.635 -2.16398 0.00893964 0
M  V30 3410 C 322.23 -1.14155 3.18989 0
M  V30 3411 C 320.789 -1.63946 3.38819 0
M  V30 3412 C 319.936 -0.558151 2.71625 0
M  V30 3413 H 322.887 0.152647 1.57964 0
M  V30 3414 H 322.908 -2.0104 3.23053 0
M  V30 3415 H 322.42 -0.301116 3.8693 0
M  V30 3416 H 320.521 -2.50321 2.7599 0
M  V30 3417 H 320.634 -1.71759 4.47253 0
M  V30 3418 H 318.998 -1.00278 2.34129 0
M  V30 3419 H 319.781 0.272071 3.4222 0
M  V30 3420 N 322.226 -1.5378 -0.344866 0
M  V30 3421 C 323.174 -1.82373 -1.4437 0
M  V30 3422 C 324.168 -0.694128 -1.54526 0
M  V30 3423 O 325.374 -0.877442 -1.57165 0
M  V30 3424 H 321.749 -0.577765 -0.481344 0
M  V30 3425 H 323.72 -2.74306 -1.17468 0
M  V30 3426 C 322.469 -2.04898 -2.80913 0
M  V30 3427 H 321.792 -2.9127 -2.73865 0
M  V30 3428 H 323.232 -2.28871 -3.56923 0
M  V30 3429 C 321.691 -0.834116 -3.26411 0
M  V30 3430 O 322.221 -0.0328885 -4.01687 0
M  V30 3431 N 320.427 -0.65171 -2.83198 0
M  V30 3432 H 319.974 -1.30489 -2.22104 0
M  V30 3433 H 319.932 0.159686 -3.13994 0
M  V30 3434 N 323.704 0.605807 -1.45491 0
M  V30 3435 C 324.952 1.36207 -1.49305 0
M  V30 3436 C 325.273 1.94519 -0.136863 0
M  V30 3437 O 324.543 1.77261 0.833983 0
M  V30 3438 H 323.123 0.50565 -0.549843 0
M  V30 3439 H 325.785 0.711239 -1.81459 0
M  V30 3440 H 324.881 2.18058 -2.23287 0
M  V30 3441 N 325.182 1.32811 0.848464 0
M  V30 3442 C 326.092 1.24278 1.98978 0
M  V30 3443 C 327.108 0.155176 1.73307 0
M  V30 3444 O 328.284 0.376999 1.9784 0
M  V30 3445 C 325.349 0.972444 3.32783 0
M  V30 3446 C 324.41 2.14911 3.71634 0
M  V30 3447 C 323.643 1.89157 4.99054 0
M  V30 3448 O 323.866 0.837165 5.64223 0
M  V30 3449 O 322.8 2.75433 5.35183 0
M  V30 3450 H 326.626 2.20238 2.09115 0
M  V30 3451 H 324.211 1.12762 0.980052 0
M  V30 3452 H 326.093 0.838432 4.12975 0
M  V30 3453 H 324.768 0.043051 3.23671 0
M  V30 3454 H 323.675 2.33862 2.91992 0
M  V30 3455 H 325.008 3.06151 3.85399 0
M  V30 3456 N 326.66 -1.06551 1.16123 0
M  V30 3457 C 327.906 -1.79567 0.94252 0
M  V30 3458 C 328.239 -1.86869 -0.528547 0
M  V30 3459 O 327.514 -1.35838 -1.39206 0
M  V30 3460 C 327.797 -3.24195 1.56747 0
M  V30 3461 C 327.65 -3.24989 3.10969 0
M  V30 3462 C 328.969 -4.21678 1.25998 0
M  V30 3463 H 326.088 -0.651883 0.343828 0
M  V30 3464 H 328.73 -1.2463 1.43413 0
M  V30 3465 H 326.88 -3.71107 1.14942 0
M  V30 3466 H 328.552 -2.86258 3.61737 0
M  V30 3467 H 326.795 -2.63716 3.44436 0
M  V30 3468 H 327.466 -4.27005 3.49815 0
M  V30 3469 H 329.942 -3.83196 1.62174 0
M  V30 3470 H 328.818 -5.21146 1.7233 0
M  V30 3471 H 329.079 -4.4174 0.178367 0
M  V30 3472 N 328.138 -0.959301 -1.25041 0
M  V30 3473 C 329.549 -0.65667 -1.74771 0
M  V30 3474 C 329.9 0.827852 -1.77879 0
M  V30 3475 O 329.025 1.64783 -1.40269 0
M  V30 3476 C 329.62 -1.1853 -3.1739 0
M  V30 3477 C 328.179 -0.932734 -3.6466 0
M  V30 3478 C 327.326 -1.32558 -2.43564 0
M  V30 3479 H 330.277 -1.13558 -1.10862 0
M  V30 3480 H 330.298 -0.547582 -3.76539 0
M  V30 3481 H 329.81 -2.26576 -3.15095 0
M  V30 3482 H 327.911 0.13257 -3.72364 0
M  V30 3483 H 328.024 -1.57248 -4.52559 0
M  V30 3484 H 326.388 -0.743956 -2.43593 0
M  V30 3485 H 327.171 -2.41537 -2.43957 0
M  V30 3486 N 329.616 1.39756 -0.72842 0
M  V30 3487 C 330.846 2.04651 -0.283117 0
M  V30 3488 C 331.254 1.5502 1.08469 0
M  V30 3489 O 330.597 0.707343 1.69536 0
M  V30 3490 C 330.659 3.58947 -0.199309 0
M  V30 3491 C 330.323 4.31525 -1.5045 0
M  V30 3492 C 331.32 4.5861 -2.44894 0
M  V30 3493 C 329.005 4.70195 -1.76698 0
M  V30 3494 C 330.999 5.23366 -3.63822 0
M  V30 3495 C 328.686 5.3468 -2.95906 0
M  V30 3496 C 329.684 5.61198 -3.89289 0
M  V30 3497 O 329.372 6.24347 -5.06404 0
M  V30 3498 H 329.104 0.664777 -0.122666 0
M  V30 3499 H 331.658 1.79913 -0.990987 0
M  V30 3500 H 329.888 3.82556 0.56461 0
M  V30 3501 H 331.577 4.0534 0.213125 0
M  V30 3502 H 332.343 4.29187 -2.25883 0
M  V30 3503 H 328.222 4.48916 -1.04859 0
M  V30 3504 H 331.766 5.4398 -4.36728 0
M  V30 3505 H 327.663 5.63524 -3.14819 0
M  V30 3506 H 328.431 6.42842 -5.06652 0
M  V30 3507 N 331.094 0.475555 1.50254 0
M  V30 3508 C 332.505 0.0215174 1.86688 0
M  V30 3509 C 332.856 -1.38467 1.39001 0
M  V30 3510 O 331.981 -2.02732 0.756894 0
M  V30 3511 C 332.576 0.0322715 3.38785 0
M  V30 3512 C 331.135 -0.366314 3.74613 0
M  V30 3513 C 330.282 0.415832 2.74164 0
M  V30 3514 H 333.233 0.689612 1.42934 0
M  V30 3515 H 333.254 -0.76889 3.7265 0
M  V30 3516 H 332.766 1.05584 3.73462 0
M  V30 3517 H 330.867 -1.39406 3.45538 0
M  V30 3518 H 330.98 -0.064555 4.79057 0
M  V30 3519 H 329.344 -0.131048 2.54363 0
M  V30 3520 H 330.127 1.43899 3.11686 0
M  V30 3521 N 332.573 -1.56217 0.208337 0
M  V30 3522 C 333.82 -1.97949 -0.42692 0
M  V30 3523 C 334.148 -1.09562 -1.60706 0
M  V30 3524 O 333.403 -0.137616 -1.95216 0
M  V30 3525 C 333.702 -3.45441 -0.916797 0
M  V30 3526 C 333.368 -4.50646 0.151391 0
M  V30 3527 C 332.03 -4.79139 0.444867 0
M  V30 3528 C 334.382 -5.13811 0.874492 0
M  V30 3529 C 331.71 -5.68084 1.46619 0
M  V30 3530 C 334.062 -6.03861 1.88506 0
M  V30 3531 C 332.726 -6.30704 2.18559 0
M  V30 3532 H 331.996 -0.724345 -0.156221 0
M  V30 3533 H 334.643 -1.89006 0.308084 0
M  V30 3534 H 332.948 -3.51521 -1.73032 0
M  V30 3535 H 334.645 -3.75094 -1.41794 0
M  V30 3536 H 331.235 -4.28511 -0.0875068 0
M  V30 3537 H 335.419 -4.91879 0.660996 0
M  V30 3538 H 330.675 -5.87151 1.7048 0
M  V30 3539 H 334.849 -6.51861 2.45051 0
M  V30 3540 H 332.476 -6.99424 2.97843 0
M  V30 3541 N 334.051 0.0651679 -1.57465 0
M  V30 3542 C 335.279 0.775808 -1.91804 0
M  V30 3543 C 335.694 1.70782 -0.804916 0
M  V30 3544 O 335.051 1.81153 0.221311 0
M  V30 3545 C 335.102 1.56381 -3.25925 0
M  V30 3546 O 334.823 0.669248 -4.32958 0
M  V30 3547 C 336.324 2.37485 -3.7432 0
M  V30 3548 H 333.544 0.2202 -0.63384 0
M  V30 3549 H 336.088 0.0334587 -2.04473 0
M  V30 3550 H 334.243 2.25837 -3.14764 0
M  V30 3551 H 334.657 1.21801 -5.10162 0
M  V30 3552 H 336.131 2.88223 -4.70778 0
M  V30 3553 H 336.608 3.17307 -3.03666 0
M  V30 3554 H 337.214 1.73173 -3.88447 0
M  V30 3555 N 335.529 1.53961 0.336706 0
M  V30 3556 C 336.759 1.75229 1.09446 0
M  V30 3557 C 337.167 0.494602 1.82621 0
M  V30 3558 O 336.51 -0.543764 1.75468 0
M  V30 3559 C 336.572 2.88288 2.1478 0
M  V30 3560 C 336.236 4.27656 1.6112 0
M  V30 3561 C 337.233 5.08981 1.0599 0
M  V30 3562 C 334.918 4.74161 1.6576 0
M  V30 3563 C 336.912 6.34916 0.562129 0
M  V30 3564 C 334.599 6.00067 1.15595 0
M  V30 3565 C 335.597 6.80278 0.609147 0
M  V30 3566 O 335.285 8.03818 0.114999 0
M  V30 3567 H 335.017 0.588881 0.331956 0
M  V30 3568 H 337.571 2.01614 0.392566 0
M  V30 3569 H 335.801 2.57443 2.88548 0
M  V30 3570 H 337.49 2.97461 2.76174 0
M  V30 3571 H 338.256 4.74213 1.01722 0
M  V30 3572 H 334.135 4.11781 2.07261 0
M  V30 3573 H 337.679 6.9747 0.134668 0
M  V30 3574 H 333.576 6.3433 1.19566 0
M  V30 3575 H 334.344 8.18172 0.231651 0
M  V30 3576 N 337.007 -0.598083 1.45811 0
M  V30 3577 C 338.423 -0.919847 1.30426 0
M  V30 3578 C 338.623 -1.99759 0.264303 0
M  V30 3579 O 337.679 -2.50221 -0.338472 0
M  V30 3580 C 338.992 -1.35176 2.68603 0
M  V30 3581 C 340.54 -1.46546 2.76574 0
M  V30 3582 C 341.015 -1.9311 4.15298 0
M  V30 3583 N 342.506 -2.00328 4.1764 0
M  V30 3584 C 343.241 -2.37599 5.21856 0
M  V30 3585 N 342.737 -2.73771 6.36413 0
M  V30 3586 N 344.53 -2.38021 5.09218 0
M  V30 3587 H 336.681 0.114111 2.12093 0
M  V30 3588 H 338.944 -0.0116121 0.947929 0
M  V30 3589 H 338.65 -0.633969 3.45939 0
M  V30 3590 H 338.524 -2.3164 2.97696 0
M  V30 3591 H 340.911 -2.17415 1.99537 0
M  V30 3592 H 340.992 -0.483727 2.51185 0
M  V30 3593 H 340.636 -1.22824 4.92825 0
M  V30 3594 H 340.566 -2.92213 4.38086 0
M  V30 3595 H 343.057 -1.74925 3.34977 0
M  V30 3596 H 343.37 -3.0112 7.11721 0
M  V30 3597 H 341.715 -2.71445 6.39799 0
M  V30 3598 H 344.906 -2.09174 4.18765 0
M  V30 3599 H 345.079 -2.66741 5.90554 0
M  V30 3600 N 338.485 -1.33259 -0.841409 0
M  V30 3601 C 339.415 -1.25926 -1.96634 0
M  V30 3602 C 340.396 -0.140349 -1.6952 0
M  V30 3603 O 341.581 -0.329707 -1.91381 0
M  V30 3604 C 338.711 -0.99512 -3.32738 0
M  V30 3605 C 337.665 -2.0767 -3.74242 0
M  V30 3606 C 336.991 -1.66474 -5.08125 0
M  V30 3607 C 338.291 -3.49318 -3.88297 0
M  V30 3608 H 339.985 -2.20046 -2.03027 0
M  V30 3609 H 337.531 -1.05931 -0.975425 0
M  V30 3610 H 339.484 -0.930323 -4.11002 0
M  V30 3611 H 338.208 -0.0183004 -3.26595 0
M  V30 3612 H 336.867 -2.13187 -2.98239 0
M  V30 3613 H 336.515 -0.675012 -4.9845 0
M  V30 3614 H 336.215 -2.3885 -5.36865 0
M  V30 3615 H 337.739 -1.61455 -5.88867 0
M  V30 3616 H 339.153 -3.46316 -4.56879 0
M  V30 3617 H 337.55 -4.20158 -4.28471 0
M  V30 3618 H 338.62 -3.8801 -2.9082 0
M  V30 3619 N 339.963 1.05934 -1.16686 0
M  V30 3620 C 340.893 2.1546 -0.899949 0
M  V30 3621 C 341.874 1.69391 0.155154 0
M  V30 3622 O 343.059 1.94199 0.00648693 0
M  V30 3623 C 340.189 3.44939 -0.404241 0
M  V30 3624 C 339.143 4.04536 -1.39767 0
M  V30 3625 C 338.469 5.29268 -0.760216 0
M  V30 3626 C 339.769 4.42893 -2.76845 0
M  V30 3627 H 341.463 2.38046 -1.81588 0
M  V30 3628 H 339.009 1.14404 -0.874514 0
M  V30 3629 H 340.962 4.20901 -0.204971 0
M  V30 3630 H 339.686 3.21983 0.547206 0
M  V30 3631 H 338.345 3.30635 -1.58355 0
M  V30 3632 H 337.993 5.02611 0.197831 0
M  V30 3633 H 337.693 5.70101 -1.42332 0
M  V30 3634 H 339.217 6.07924 -0.57105 0
M  V30 3635 H 340.631 5.09921 -2.62019 0
M  V30 3636 H 339.028 4.94721 -3.39663 0
M  V30 3637 H 340.098 3.53584 -3.31823 0
M  V30 3638 N 341.441 0.965919 1.2453 0
M  V30 3639 C 342.351 0.502154 2.29163 0
M  V30 3640 C 343.367 -0.436017 1.68448 0
M  V30 3641 O 344.543 -0.309497 1.99008 0
M  V30 3642 C 341.608 -0.201956 3.46111 0
M  V30 3643 C 340.669 0.775821 4.22232 0
M  V30 3644 C 339.902 0.105217 5.33596 0
M  V30 3645 O 340.125 -1.10683 5.59558 0
M  V30 3646 O 339.059 0.796475 5.96607 0
M  V30 3647 H 342.885 1.37194 2.70946 0
M  V30 3648 H 340.47 0.732875 1.30189 0
M  V30 3649 H 342.352 -0.597564 4.17142 0
M  V30 3650 H 341.027 -1.04673 3.06309 0
M  V30 3651 H 339.934 1.22185 3.53584 0
M  V30 3652 H 341.267 1.58896 4.65846 0
M  V30 3653 N 342.919 -1.39368 0.735821 0
M  V30 3654 C 343.851 -2.2913 0.0567723 0
M  V30 3655 C 344.864 -1.46859 -0.702589 0
M  V30 3656 O 346.053 -1.69925 -0.546616 0
M  V30 3657 C 343.153 -3.25492 -0.943823 0
M  V30 3658 C 342.326 -4.36709 -0.24581 0
M  V30 3659 C 341.385 -5.13376 -1.15463 0
M  V30 3660 O 340.411 -5.65683 -0.631803 0
M  V30 3661 N 341.613 -5.24656 -2.48427 0
M  V30 3662 H 344.378 -2.88047 0.827582 0
M  V30 3663 H 341.939 -1.50957 0.585112 0
M  V30 3664 H 343.931 -3.73657 -1.55443 0
M  V30 3665 H 342.501 -2.676 -1.61583 0
M  V30 3666 H 341.721 -3.9041 0.545286 0
M  V30 3667 H 343.009 -5.08244 0.237891 0
M  V30 3668 H 342.407 -4.83679 -2.93379 0
M  V30 3669 H 340.964 -5.76258 -3.04582 0
M  V30 3670 N 344.397 -0.483516 -1.5 0
M  V30 3671 C 345.307 0.309172 -2.32554 0
M  V30 3672 C 346.323 0.984159 -1.43493 0
M  V30 3673 O 347.499 0.969399 -1.76535 0
M  V30 3674 C 344.564 1.36979 -3.18493 0
M  V30 3675 C 343.625 0.710095 -4.23387 0
M  V30 3676 C 342.858 1.72018 -5.05218 0
M  V30 3677 O 343.081 2.94813 -4.88305 0
M  V30 3678 O 342.015 1.28515 -5.8802 0
M  V30 3679 H 345.841 -0.366064 -3.01486 0
M  V30 3680 H 343.426 -0.24514 -1.47375 0
M  V30 3681 H 345.308 1.98385 -3.71781 0
M  V30 3682 H 343.983 2.02828 -2.52275 0
M  V30 3683 H 342.89 0.0567539 -3.74057 0
M  V30 3684 H 344.223 0.0943557 -4.9211 0
M  V30 3685 N 345.875 1.56104 -0.216619 0
M  V30 3686 C 347.286 1.844 0.292128 0
M  V30 3687 C 347.637 1.13788 1.59833 0
M  V30 3688 O 346.762 0.405888 2.12559 0
M  V30 3689 C 347.357 3.3452 0.53681 0
M  V30 3690 C 345.916 3.63151 0.989876 0
M  V30 3691 C 345.063 2.77255 0.0502302 0
M  V30 3692 H 348.014 1.52481 -0.439926 0
M  V30 3693 H 348.035 3.54459 1.38345 0
M  V30 3694 H 347.547 3.85885 -0.414031 0
M  V30 3695 H 345.648 3.17238 1.95425 0
M  V30 3696 H 345.761 4.71177 0.867698 0
M  V30 3697 H 344.125 2.48555 0.556117 0
M  V30 3698 H 344.908 3.31416 -0.89544 0
M  V30 3699 N 347.353 -0.0568162 1.57498 0
M  V30 3700 C 348.602 -0.752001 1.87157 0
M  V30 3701 C 348.915 -1.77978 0.811375 0
M  V30 3702 O 350.121 -2.52559 0.996293 0
M  V30 3703 C 348.577 -1.38844 3.3204 0
M  V30 3704 C 348.185 -0.398456 4.46225 0
M  V30 3705 C 349.929 -2.06512 3.70882 0
M  V30 3706 C 347.836 -1.04166 5.82154 0
M  V30 3707 H 346.766 -0.28461 0.698222 0
M  V30 3708 H 349.417 -0.00561272 1.83499 0
M  V30 3709 H 347.799 -2.1836 3.30356 0
M  V30 3710 H 348.973 0.367977 4.59328 0
M  V30 3711 H 347.288 0.174592 4.16034 0
M  V30 3712 H 349.885 -2.55437 4.6974 0
M  V30 3713 H 350.228 -2.87117 3.01445 0
M  V30 3714 H 350.761 -1.33808 3.7462 0
M  V30 3715 H 347.5 -0.275614 6.5492 0
M  V30 3716 H 347.02 -1.7786 5.72823 0
M  V30 3717 H 348.699 -1.55715 6.27982 0
M  V30 3718 N 348.832 -1.54138 -0.328536 0
M  V30 3719 C 349.742 -1.86192 -1.42723 0
M  V30 3720 C 350.758 -0.753382 -1.56844 0
M  V30 3721 O 351.934 -1.04718 -1.72035 0
M  V30 3722 C 348.999 -2.07824 -2.77507 0
M  V30 3723 C 348.06 -3.31641 -2.72603 0
M  V30 3724 C 347.293 -3.52232 -4.00959 0
M  V30 3725 O 347.516 -2.7636 -4.9898 0
M  V30 3726 O 346.45 -4.45699 -4.0452 0
M  V30 3727 H 350.276 -2.79608 -1.18547 0
M  V30 3728 H 347.861 -1.3998 -0.522104 0
M  V30 3729 H 349.743 -2.23411 -3.57303 0
M  V30 3730 H 348.418 -1.17596 -3.01584 0
M  V30 3731 H 347.325 -3.21444 -1.91376 0
M  V30 3732 H 348.658 -4.2191 -2.53481 0
M  V30 3733 N 350.31 0.590341 -1.46126 0
M  V30 3734 C 351.535 1.37991 -1.54833 0
M  V30 3735 C 351.96 1.87163 -0.187506 0
M  V30 3736 O 351.318 1.61133 0.831008 0
M  V30 3737 C 351.366 2.54867 -2.55098 0
M  V30 3738 O 350.47 3.56061 -2.08073 0
M  V30 3739 H 349.811 0.411265 -0.521303 0
M  V30 3740 H 352.341 0.716819 -1.91632 0
M  V30 3741 H 352.351 3.01886 -2.74461 0
M  V30 3742 H 351.026 2.18429 -3.53923 0
M  V30 3743 H 349.603 3.15574 -1.98664 0
M  V30 3744 N 351.788 1.33704 0.83433 0
M  V30 3745 C 352.698 1.26382 1.97648 0
M  V30 3746 C 353.714 0.173548 1.73132 0
M  V30 3747 O 354.89 0.397962 1.97429 0
M  V30 3748 C 351.955 1.00769 3.31733 0
M  V30 3749 C 351.016 2.1884 3.69334 0
M  V30 3750 C 350.249 1.9444 4.9702 0
M  V30 3751 O 350.472 0.896961 5.63303 0
M  V30 3752 O 349.406 2.81093 5.32231 0
M  V30 3753 H 353.232 2.22444 2.06767 0
M  V30 3754 H 350.817 1.13795 0.968037 0
M  V30 3755 H 352.699 0.882186 4.12062 0
M  V30 3756 H 351.374 0.0773783 3.23608 0
M  V30 3757 H 350.281 2.36946 2.89495 0
M  V30 3758 H 351.614 3.10221 3.82131 0
M  V30 3759 N 353.266 -1.05314 1.17247 0
M  V30 3760 C 354.514 -1.77941 0.958194 0
M  V30 3761 C 354.835 -1.88089 -0.514556 0
M  V30 3762 O 354.105 -1.39676 -1.37359 0
M  V30 3763 H 352.685 -0.659116 0.351533 0
M  V30 3764 H 355.347 -1.27166 1.47699 0
M  V30 3765 H 354.443 -2.79663 1.38546 0
M  V30 3766 N 354.744 -0.972509 -1.24016 0
M  V30 3767 C 355.992 -0.635776 -1.91839 0
M  V30 3768 C 356.313 0.832312 -1.76345 0
M  V30 3769 O 355.583 1.5946 -1.13795 0
M  V30 3770 H 354.163 -0.232157 -0.710009 0
M  V30 3771 H 356.825 -1.23462 -1.50809 0
M  V30 3772 H 355.921 -0.880545 -2.99421 0
M  V30 3773 N 356.222 1.38976 -0.743202 0
M  V30 3774 C 357.169 2.30544 -0.10861 0
M  V30 3775 C 358.139 1.49642 0.720869 0
M  V30 3776 O 359.324 1.78304 0.679142 0
M  V30 3777 C 356.464 3.36018 0.786496 0
M  V30 3778 C 355.577 4.31963 -0.0564849 0
M  V30 3779 C 354.712 5.24506 0.840657 0
M  V30 3780 C 353.751 6.121 -0.00658363 0
M  V30 3781 N 352.888 6.96973 0.846943 0
M  V30 3782 H 357.728 2.8424 -0.895088 0
M  V30 3783 H 355.265 1.3995 -0.453048 0
M  V30 3784 H 357.223 3.95768 1.31999 0
M  V30 3785 H 355.853 2.83758 1.53887 0
M  V30 3786 H 354.905 3.73763 -0.707492 0
M  V30 3787 H 356.217 4.93703 -0.711229 0
M  V30 3788 H 355.371 5.89322 1.4417 0
M  V30 3789 H 354.11 4.63107 1.52916 0
M  V30 3790 H 353.115 5.46289 -0.620366 0
M  V30 3791 H 354.34 6.75565 -0.691992 0
M  V30 3792 H 352.286 6.38133 1.52059 0
M  V30 3793 H 352.203 7.5559 0.248864 0
M  V30 3794 H 353.471 7.6621 1.43328 0
M  V30 3795 N 357.7 0.491464 1.49741 0
M  V30 3796 C 358.946 -0.0565092 2.02721 0
M  V30 3797 C 359.279 -1.37522 1.37118 0
M  V30 3798 O 358.554 -1.87866 0.503645 0
M  V30 3799 C 358.837 -0.219051 3.59433 0
M  V30 3800 C 358.69 1.12211 4.35579 0
M  V30 3801 C 360.009 -0.964157 4.29409 0
M  V30 3802 H 357.128 -0.0190627 0.736753 0
M  V30 3803 H 359.77 0.641021 1.7886 0
M  V30 3804 H 357.92 -0.813165 3.79895 0
M  V30 3805 H 359.592 1.75437 4.26637 0
M  V30 3806 H 357.835 1.71377 3.98513 0
M  V30 3807 H 358.506 0.961794 5.43556 0
M  V30 3808 H 360.982 -0.460378 4.13545 0
M  V30 3809 H 359.858 -1.04671 5.38828 0
M  V30 3810 H 360.119 -2.00563 3.93988 0
M  V30 3811 N 359.178 -1.55987 0.224894 0
M  V30 3812 C 360.408 -2.02489 -0.41007 0
M  V30 3813 C 360.816 -1.10391 -1.53657 0
M  V30 3814 O 360.159 -0.106458 -1.83391 0
M  V30 3815 C 360.221 -3.45319 -0.999757 0
M  V30 3816 C 359.885 -4.56999 -0.00827976 0
M  V30 3817 C 360.882 -5.13812 0.793314 0
M  V30 3818 C 358.567 -5.02176 0.111442 0
M  V30 3819 C 360.561 -6.14276 1.7013 0
M  V30 3820 C 358.248 -6.02477 1.02296 0
M  V30 3821 C 359.246 -6.58403 1.81643 0
M  V30 3822 O 358.934 -7.56751 2.71262 0
M  V30 3823 H 358.666 -0.667915 -0.104235 0
M  V30 3824 H 361.22 -2.0257 0.339782 0
M  V30 3825 H 359.45 -3.42318 -1.79876 0
M  V30 3826 H 361.139 -3.7545 -1.54248 0
M  V30 3827 H 361.905 -4.79756 0.711288 0
M  V30 3828 H 357.784 -4.58323 -0.49605 0
M  V30 3829 H 361.328 -6.57854 2.32107 0
M  V30 3830 H 357.225 -6.35954 1.10599 0
M  V30 3831 H 357.993 -7.74286 2.65375 0
M  V30 3832 N 360.656 0.0484629 -1.57525 0
M  V30 3833 C 361.905 0.742065 -1.87553 0
M  V30 3834 C 362.218 1.77545 -0.820802 0
M  V30 3835 O 363.424 2.52027 -1.00967 0
M  V30 3836 C 361.88 1.37081 -3.32771 0
M  V30 3837 C 361.488 0.374786 -4.4643 0
M  V30 3838 C 363.232 2.04542 -3.71972 0
M  V30 3839 C 361.139 1.01077 -5.82698 0
M  V30 3840 H 360.069 0.280903 -0.699721 0
M  V30 3841 H 362.72 -0.00411877 -1.835 0
M  V30 3842 H 361.102 2.16605 -3.31509 0
M  V30 3843 H 362.276 -0.392331 -4.59127 0
M  V30 3844 H 360.591 -0.196653 -4.15935 0
M  V30 3845 H 363.188 2.52943 -4.71088 0
M  V30 3846 H 363.531 2.85515 -3.02964 0
M  V30 3847 H 364.064 1.31819 -3.75325 0
M  V30 3848 H 360.803 0.240878 -6.55057 0
M  V30 3849 H 360.323 1.74819 -5.73758 0
M  V30 3850 H 362.002 1.52383 -6.28799 0
M  V30 3851 N 362.134 1.5431 0.320358 0
M  V30 3852 C 363.097 1.83195 1.3774 0
M  V30 3853 C 364.097 0.703906 1.44575 0
M  V30 3854 O 365.287 0.972214 1.44546 0
M  V30 3855 C 362.419 1.99487 2.76438 0
M  V30 3856 H 363.612 2.77642 1.1338 0
M  V30 3857 H 361.165 1.46076 0.556012 0
M  V30 3858 H 361.9 1.07262 3.06048 0
M  V30 3859 H 361.685 2.81575 2.7287 0
M  V30 3860 H 363.175 2.23271 3.52902 0
M  V30 3861 N 363.613 -0.582584 1.46437 0
M  V30 3862 C 364.89 -1.34276 1.4223 0
M  V30 3863 C 365.27 -2.10835 0.10583 0
M  V30 3864 O 364.618 -2.09485 -0.912596 0
M  V30 3865 C 364.828 -2.26865 2.65204 0
M  V30 3866 C 366.176 -2.88691 3.11356 0
M  V30 3867 O 367.2 -2.37178 2.65753 0
M  V30 3868 O 366.059 -3.82255 3.90568 0
M  V30 3869 H 363.153 -0.603326 0.565621 0
M  V30 3870 H 365.699 -0.603591 1.58603 0
M  V30 3871 H 364.471 -1.69724 3.52576 0
M  V30 3872 H 364.094 -3.08122 2.5129 0
M  V30 3873 N 365.091 -1.34144 -0.827227 0
M  V30 3874 C 366.316 -1.29476 -1.62021 0
M  V30 3875 C 366.741 0.129292 -1.87655 0
M  V30 3876 O 366.099 1.08967 -1.449 0
M  V30 3877 C 366.147 -2.08702 -2.94068 0
M  V30 3878 O 365.251 -1.45359 -3.85933 0
M  V30 3879 H 364.592 -0.444881 -0.492927 0
M  V30 3880 H 367.122 -1.76882 -1.02829 0
M  V30 3881 H 367.132 -2.19898 -3.43669 0
M  V30 3882 H 365.807 -3.12241 -2.74734 0
M  V30 3883 H 364.384 -1.42879 -3.44442 0
M  V30 3884 N 366.569 1.04691 -1.17803 0
M  V30 3885 C 367.797 1.81446 -0.99423 0
M  V30 3886 C 368.212 1.83174 0.457459 0
M  V30 3887 O 367.569 1.26265 1.31771 0
M  V30 3888 C 367.62 3.27334 -1.5341 0
M  V30 3889 O 367.341 3.25798 -2.92895 0
M  V30 3890 C 368.842 4.20759 -1.39559 0
M  V30 3891 H 366.062 0.571599 -0.351447 0
M  V30 3892 H 368.606 1.31982 -1.56208 0
M  V30 3893 H 366.761 3.74052 -1.00815 0
M  V30 3894 H 367.175 4.17144 -3.17949 0
M  V30 3895 H 368.649 5.21084 -1.82141 0
M  V30 3896 H 369.126 4.37856 -0.343394 0
M  V30 3897 H 369.732 3.79901 -1.91195 0
M  V30 3898 N 368.047 0.979072 1.23499 0
M  V30 3899 C 368.995 0.510604 2.26926 0
M  V30 3900 C 369.989 -0.431691 1.63807 0
M  V30 3901 O 371.195 -0.30573 1.77385 0
M  V30 3902 H 367.57 0.146688 0.737554 0
M  V30 3903 H 369.541 1.39466 2.63803 0
M  V30 3904 C 368.29 -0.172658 3.47271 0
M  V30 3905 H 367.613 0.543331 3.96091 0
M  V30 3906 H 369.053 -0.464101 4.21452 0
M  V30 3907 C 367.512 -1.40345 3.06276 0
M  V30 3908 O 368.042 -2.49978 3.14442 0
M  V30 3909 N 366.248 -1.27362 2.61203 0
M  V30 3910 H 365.795 -0.381584 2.54758 0
M  V30 3911 H 365.753 -2.09822 2.34141 0
M  V30 3912 N 369.525 -1.3858 0.750561 0
M  V30 3913 C 370.772 -2.00184 0.305373 0
M  V30 3914 C 371.1 -1.59575 -1.11203 0
M  V30 3915 O 370.355 -0.823236 -1.77542 0
M  V30 3916 C 370.654 -3.55455 0.372373 0
M  V30 3917 C 370.32 -4.15765 1.745 0
M  V30 3918 C 368.982 -4.31951 2.12065 0
M  V30 3919 C 371.334 -4.49067 2.64553 0
M  V30 3920 C 368.662 -4.78734 3.39162 0
M  V30 3921 C 371.014 -4.97265 3.91038 0
M  V30 3922 C 369.678 -5.11658 4.28676 0
M  V30 3923 H 368.948 -0.732526 0.111744 0
M  V30 3924 H 371.595 -1.65673 0.960451 0
M  V30 3925 H 369.9 -3.90084 -0.366272 0
M  V30 3926 H 371.597 -4.00999 0.00953918 0
M  V30 3927 H 368.187 -4.03579 1.44297 0
M  V30 3928 H 372.371 -4.36166 2.36796 0
M  V30 3929 H 367.627 -4.88062 3.68246 0
M  V30 3930 H 371.801 -5.22003 4.60962 0
M  V30 3931 H 369.428 -5.47668 5.27222 0
M  V30 3932 N 371.003 -0.499398 -1.49478 0
M  V30 3933 C 371.95 0.279881 -2.29097 0
M  V30 3934 C 372.92 0.961805 -1.3542 0
M  V30 3935 O 374.105 0.968777 -1.64376 0
M  V30 3936 C 371.245 1.33932 -3.18051 0
M  V30 3937 C 370.358 0.669333 -4.26783 0
M  V30 3938 C 369.493 1.70907 -5.02955 0
M  V30 3939 C 368.532 1.02087 -6.03527 0
M  V30 3940 N 367.669 2.00474 -6.7287 0
M  V30 3941 H 372.509 -0.405317 -2.95231 0
M  V30 3942 H 370.046 -0.211726 -1.45568 0
M  V30 3943 H 372.004 1.96553 -3.67998 0
M  V30 3944 H 370.634 1.9933 -2.53904 0
M  V30 3945 H 369.686 -0.0701234 -3.80335 0
M  V30 3946 H 370.998 0.127503 -4.98637 0
M  V30 3947 H 370.152 2.41037 -5.56764 0
M  V30 3948 H 368.891 2.28476 -4.30871 0
M  V30 3949 H 367.896 0.305338 -5.48951 0
M  V30 3950 H 369.121 0.451708 -6.77596 0
M  V30 3951 H 367.067 2.57007 -6.03559 0
M  V30 3952 H 366.984 1.51353 -7.40694 0
M  V30 3953 H 368.252 2.69897 -7.31284 0
M  V30 3954 N 372.481 1.55866 -0.233164 0
M  V30 3955 C 373.727 1.98897 0.395959 0
M  V30 3956 C 374.06 1.12091 1.58585 0
M  V30 3957 O 373.335 0.181182 1.93654 0
M  V30 3958 C 373.618 3.50658 0.819224 0
M  V30 3959 C 373.471 4.48233 -0.375109 0
M  V30 3960 C 374.79 4.07135 1.67121 0
M  V30 3961 H 371.909 0.723102 0.142451 0
M  V30 3962 H 374.551 1.87082 -0.331725 0
M  V30 3963 H 372.701 3.60857 1.43925 0
M  V30 3964 H 374.373 4.50031 -1.01341 0
M  V30 3965 H 372.616 4.21624 -1.02058 0
M  V30 3966 H 373.287 5.51988 -0.0358328 0
M  V30 3967 H 375.763 3.99952 1.14795 0
M  V30 3968 H 374.639 5.13615 1.93625 0
M  V30 3969 H 374.9 3.54736 2.63846 0
M  V30 3970 N 373.959 -0.0401083 1.57549 0
M  V30 3971 C 375.184 -0.748931 1.93406 0
M  V30 3972 C 375.609 -1.68686 0.832274 0
M  V30 3973 O 374.967 -1.80047 -0.212818 0
M  V30 3974 C 375.015 -1.4916 3.28304 0
M  V30 3975 O 374.119 -2.6042 3.19774 0
M  V30 3976 H 373.46 -0.202212 0.63246 0
M  V30 3977 H 375.99 0.00112086 2.046 0
M  V30 3978 H 376 -1.86395 3.62934 0
M  V30 3979 H 374.675 -0.80364 4.08062 0
M  V30 3980 H 373.252 -2.25808 2.96758 0
M  V30 3981 N 375.437 -1.54477 -0.31217 0
M  V30 3982 C 376.384 -1.84655 -1.38461 0
M  V30 3983 C 377.354 -0.694536 -1.50882 0
M  V30 3984 O 378.539 -0.942081 -1.6592 0
M  V30 3985 C 375.679 -2.0896 -2.74645 0
M  V30 3986 C 374.792 -3.36618 -2.70763 0
M  V30 3987 C 373.927 -3.50824 -3.98868 0
M  V30 3988 C 372.966 -4.72315 -3.89339 0
M  V30 3989 N 372.103 -4.83387 -5.09197 0
M  V30 3990 H 376.943 -2.76142 -1.12026 0
M  V30 3991 H 374.48 -1.36748 -0.542065 0
M  V30 3992 H 376.438 -2.21045 -3.53829 0
M  V30 3993 H 375.068 -1.20752 -2.99364 0
M  V30 3994 H 374.12 -3.33211 -1.83506 0
M  V30 3995 H 375.432 -4.25917 -2.59608 0
M  V30 3996 H 374.586 -3.62513 -4.86486 0
M  V30 3997 H 373.325 -2.59638 -4.12843 0
M  V30 3998 H 372.33 -4.6067 -3.00105 0
M  V30 3999 H 373.555 -5.64897 -3.76919 0
M  V30 4000 H 371.501 -3.9512 -5.23657 0
M  V30 4001 H 371.418 -5.66669 -5.00422 0
M  V30 4002 H 372.686 -4.9942 -5.98498 0
M  V30 4003 N 376.915 0.57481 -1.46744 0
M  V30 4004 C 378.143 1.35856 -1.56047 0
M  V30 4005 C 378.558 1.87691 -0.204365 0
M  V30 4006 O 377.915 1.64049 0.79963 0
M  V30 4007 C 377.966 2.54066 -2.57163 0
M  V30 4008 O 377.687 2.04377 -3.87507 0
M  V30 4009 C 379.188 3.46514 -2.76483 0
M  V30 4010 H 376.408 0.414754 -0.527466 0
M  V30 4011 H 378.952 0.698035 -1.92218 0
M  V30 4012 H 377.107 3.16092 -2.23974 0
M  V30 4013 H 377.521 2.81419 -4.4261 0
M  V30 4014 H 378.995 4.25919 -3.51137 0
M  V30 4015 H 379.472 3.98951 -1.83671 0
M  V30 4016 H 380.078 2.90318 -3.10799 0
M  V30 4017 N 378.394 1.34581 0.820102 0
M  V30 4018 C 379.643 1.26437 1.57151 0
M  V30 4019 C 379.956 -0.163111 1.94919 0
M  V30 4020 O 381.162 -0.366722 2.69012 0
M  V30 4021 C 379.618 2.21658 2.83541 0
M  V30 4022 C 379.226 3.69679 2.53065 0
M  V30 4023 C 380.97 2.22428 3.61561 0
M  V30 4024 C 378.877 4.56761 3.75664 0
M  V30 4025 H 377.807 0.469707 0.589823 0
M  V30 4026 H 380.458 1.59763 0.902656 0
M  V30 4027 H 378.84 1.81287 3.52067 0
M  V30 4028 H 380.014 4.18605 1.92631 0
M  V30 4029 H 378.329 3.71384 1.88316 0
M  V30 4030 H 380.926 2.8471 4.52597 0
M  V30 4031 H 381.269 1.22434 3.97889 0
M  V30 4032 H 381.802 2.61259 2.99981 0
M  V30 4033 H 378.541 5.57702 3.44454 0
M  V30 4034 H 378.061 4.12568 4.35371 0
M  V30 4035 H 379.74 4.71509 4.43044 0
M  V30 4036 N 379.872 -1.04064 1.18357 0
M  V30 4037 C 380.835 -2.10243 0.912707 0
M  V30 4038 C 381.835 -1.60477 -0.101928 0
M  V30 4039 O 383.025 -1.73703 0.131517 0
M  V30 4040 C 380.157 -3.38893 0.369387 0
M  V30 4041 H 381.35 -2.35706 1.85426 0
M  V30 4042 H 378.903 -1.20489 0.995594 0
M  V30 4043 H 379.638 -3.19094 -0.578776 0
M  V30 4044 H 379.423 -3.76331 1.1008 0
M  V30 4045 H 380.913 -4.17128 0.198575 0
M  V30 4046 N 381.35 -0.985608 -1.22978 0
M  V30 4047 C 382.575 -0.675254 -1.961 0
M  V30 4048 C 383 0.752154 -1.72407 0
M  V30 4049 O 382.358 1.5131 -0.998751 0
M  V30 4050 C 382.406 -0.977899 -3.47087 0
M  V30 4051 O 381.51 -0.072685 -4.12336 0
M  V30 4052 H 380.851 -0.253443 -0.613728 0
M  V30 4053 H 383.381 -1.32061 -1.56272 0
M  V30 4054 H 383.391 -0.916739 -3.97567 0
M  V30 4055 H 382.066 -2.01807 -3.63657 0
M  V30 4056 H 380.643 -0.188703 -3.72422 0
M  V30 4057 N 382.828 1.3818 -0.7579 0
M  V30 4058 C 383.791 2.28764 -0.141286 0
M  V30 4059 C 384.791 1.47388 0.642907 0
M  V30 4060 O 385.981 1.67781 0.468536 0
M  V30 4061 C 383.113 3.31184 0.808069 0
M  V30 4062 H 384.306 2.848 -0.939633 0
M  V30 4063 H 381.859 1.47212 -0.525191 0
M  V30 4064 H 382.594 2.80247 1.63193 0
M  V30 4065 H 382.379 3.91314 0.248104 0
M  V30 4066 H 383.869 3.98909 1.23536 0
M  V30 4067 N 384.306 0.507319 1.49211 0
M  V30 4068 C 385.236 -0.256939 2.32082 0
M  V30 4069 C 386.217 -0.956609 1.40652 0
M  V30 4070 O 387.402 -0.946788 1.69557 0
M  V30 4071 C 384.532 -1.31802 3.21318 0
M  V30 4072 C 383.486 -0.737855 4.21592 0
M  V30 4073 C 382.812 -1.89992 4.99807 0
M  V30 4074 C 384.112 0.275325 5.21574 0
M  V30 4075 H 385.806 0.434798 2.96226 0
M  V30 4076 H 383.352 0.210546 1.42452 0
M  V30 4077 H 385.305 -1.86045 3.78107 0
M  V30 4078 H 384.029 -2.03903 2.5513 0
M  V30 4079 H 382.688 -0.217126 3.65956 0
M  V30 4080 H 382.336 -2.60877 4.30061 0
M  V30 4081 H 382.036 -1.51777 5.6766 0
M  V30 4082 H 383.56 -2.44657 5.59442 0
M  V30 4083 H 384.974 -0.179193 5.7302 0
M  V30 4084 H 383.371 0.573649 5.97352 0
M  V30 4085 H 384.441 1.18903 4.70096 0
M  V30 4086 N 385.784 -1.5574 0.241426 0
M  V30 4087 C 387.03 -1.99104 -0.385406 0
M  V30 4088 C 387.363 -1.1293 -1.57988 0
M  V30 4089 O 386.638 -0.191449 -1.93555 0
M  V30 4090 C 386.921 -3.51087 -0.800616 0
M  V30 4091 C 386.774 -4.48028 0.398874 0
M  V30 4092 C 388.093 -4.08015 -1.64959 0
M  V30 4093 H 385.212 -0.723848 -0.138614 0
M  V30 4094 H 387.854 -1.86903 0.341642 0
M  V30 4095 H 386.004 -3.61615 -1.4201 0
M  V30 4096 H 387.676 -4.49487 1.03726 0
M  V30 4097 H 385.919 -4.21077 1.04293 0
M  V30 4098 H 386.59 -5.51962 0.0651056 0
M  V30 4099 H 389.066 -4.00555 -1.12672 0
M  V30 4100 H 387.942 -5.14635 -1.90898 0
M  V30 4101 H 388.203 -3.56131 -2.61961 0
M  V30 4102 N 387.262 0.0317525 -1.57568 0
M  V30 4103 C 388.49 0.734949 -1.93407 0
M  V30 4104 C 388.905 1.69036 -0.84096 0
M  V30 4105 O 388.262 1.81582 0.182836 0
M  V30 4106 C 388.313 1.49432 -3.29169 0
M  V30 4107 O 388.034 0.577261 -4.3428 0
M  V30 4108 C 389.535 2.29492 -3.79273 0
M  V30 4109 H 386.755 0.206706 -0.638368 0
M  V30 4110 H 389.299 -0.00992046 -2.04498 0
M  V30 4111 H 387.454 2.1911 -3.19483 0
M  V30 4112 H 387.868 1.10952 -5.1263 0
M  V30 4113 H 389.342 2.78172 -4.76785 0
M  V30 4114 H 389.819 3.10794 -3.10328 0
M  V30 4115 H 390.425 1.64894 -3.92033 0
M  V30 4116 N 388.74 1.54641 0.303973 0
M  V30 4117 C 389.986 1.74038 1.04109 0
M  V30 4118 C 390.319 0.523051 1.87024 0
M  V30 4119 O 389.594 -0.479874 1.88487 0
M  V30 4120 C 389.877 3.02761 1.94955 0
M  V30 4121 C 389.73 4.34787 1.1524 0
M  V30 4122 C 391.049 3.27336 2.94175 0
M  V30 4123 H 388.168 0.63323 0.377079 0
M  V30 4124 H 390.81 1.87354 0.316001 0
M  V30 4125 H 388.96 2.9154 2.56782 0
M  V30 4126 H 390.632 4.57922 0.557236 0
M  V30 4127 H 388.875 4.31407 0.455053 0
M  V30 4128 H 389.546 5.21116 1.8205 0
M  V30 4129 H 392.022 3.38148 2.42477 0
M  V30 4130 H 390.898 4.18726 3.54908 0
M  V30 4131 H 391.159 2.45491 3.67677 0
M  V30 4132 N 390.218 -0.567019 1.47046 0
M  V30 4133 C 391.128 -1.70247 1.6141 0
M  V30 4134 C 392.144 -1.66746 0.497157 0
M  V30 4135 O 393.32 -1.86371 0.763389 0
M  V30 4136 C 390.385 -3.06756 1.61561 0
M  V30 4137 C 389.446 -3.21399 2.84607 0
M  V30 4138 C 388.679 -4.51396 2.84741 0
M  V30 4139 O 388.902 -5.36255 1.94388 0
M  V30 4140 O 387.836 -4.69621 3.76483 0
M  V30 4141 H 391.662 -1.61073 2.57467 0
M  V30 4142 H 389.247 -0.735894 1.30019 0
M  V30 4143 H 391.129 -3.8801 1.64396 0
M  V30 4144 H 389.804 -3.16333 0.686684 0
M  V30 4145 H 388.711 -2.39579 2.8732 0
M  V30 4146 H 390.044 -3.16721 3.76761 0
M  V30 4147 N 391.696 -1.35014 -0.812953 0
M  V30 4148 C 393.107 -1.25035 -1.38648 0
M  V30 4149 C 393.458 0.119967 -1.95833 0
M  V30 4150 O 392.583 1.02069 -1.90816 0
M  V30 4151 C 393.178 -2.26394 -2.52054 0
M  V30 4152 C 391.737 -2.20175 -3.05287 0
M  V30 4153 C 390.884 -2.12451 -1.78213 0
M  V30 4154 H 393.835 -1.46235 -0.616516 0
M  V30 4155 H 393.856 -1.88672 -3.30429 0
M  V30 4156 H 393.368 -3.26116 -2.10404 0
M  V30 4157 H 391.469 -1.23841 -3.51417 0
M  V30 4158 H 391.582 -3.11863 -3.63701 0
M  V30 4159 H 389.946 -1.58328 -1.9951 0
M  V30 4160 H 390.729 -3.14024 -1.38723 0
M  V30 4161 N 393.175 1.03435 -1.18907 0
M  V30 4162 C 394.423 1.76394 -0.986382 0
M  V30 4163 C 394.744 1.88883 0.484567 0
M  V30 4164 O 394.014 1.41843 1.3512 0
M  V30 4165 H 392.594 0.65344 -0.361975 0
M  V30 4166 H 395.256 1.248 -1.49703 0
M  V30 4167 H 394.352 2.77424 -1.42978 0
M  V30 4168 N 394.653 0.992116 1.22453 0
M  V30 4169 C 395.616 0.546883 2.2258 0
M  V30 4170 C 396.616 -0.369829 1.56489 0
M  V30 4171 O 397.806 -0.161896 1.73446 0
M  V30 4172 C 394.938 -0.204659 3.40285 0
M  V30 4173 H 396.131 1.43234 2.63484 0
M  V30 4174 H 393.684 0.779239 1.3549 0
M  V30 4175 H 394.419 -1.10614 3.04853 0
M  V30 4176 H 394.204 0.45354 3.89468 0
M  V30 4177 H 395.694 -0.504358 4.14543 0
M  V30 4178 N 396.131 -1.37776 0.765217 0
M  V30 4179 C 397.064 -2.28008 0.0935025 0
M  V30 4180 C 398.042 -1.45985 -0.716047 0
M  V30 4181 O 399.226 -1.75331 -0.692203 0
M  V30 4182 C 396.353 -3.27228 -0.874052 0
M  V30 4183 C 395.399 -4.26239 -0.149307 0
M  V30 4184 S 396.232 -5.22827 1.15809 0
M  V30 4185 C 397.388 -6.256 0.193906 0
M  V30 4186 H 397.621 -2.84631 0.858637 0
M  V30 4187 H 395.154 -1.43952 0.558313 0
M  V30 4188 H 397.112 -3.84902 -1.42691 0
M  V30 4189 H 395.773 -2.69565 -1.61225 0
M  V30 4190 H 394.966 -4.96213 -0.88254 0
M  V30 4191 H 394.568 -3.7252 0.332366 0
M  V30 4192 H 396.86 -6.74508 -0.636011 0
M  V30 4193 H 397.803 -7.02838 0.861638 0
M  V30 4194 H 398.211 -5.64173 -0.191975 0
M  V30 4195 N 397.609 -0.515225 -1.4894 0
M  V30 4196 C 399.025 -0.172099 -1.58669 0
M  V30 4197 C 399.225 1.32405 -1.51892 0
M  V30 4198 O 398.281 2.10116 -1.40027 0
M  V30 4199 C 399.594 -0.761533 -2.90897 0
M  V30 4200 C 401.142 -0.728926 -3.04394 0
M  V30 4201 C 401.617 -1.29667 -4.39261 0
M  V30 4202 N 403.108 -1.25799 -4.4579 0
M  V30 4203 C 403.843 -1.66733 -5.48623 0
M  V30 4204 N 403.339 -2.15327 -6.58488 0
M  V30 4205 N 405.132 -1.58061 -5.39419 0
M  V30 4206 H 397.283 -1.48778 -1.51588 0
M  V30 4207 H 399.546 -0.617968 -0.718901 0
M  V30 4208 H 399.252 -1.81136 -3.01468 0
M  V30 4209 H 399.126 -0.230106 -3.76497 0
M  V30 4210 H 401.513 0.312098 -2.93445 0
M  V30 4211 H 401.594 -1.29766 -2.20442 0
M  V30 4212 H 401.238 -2.33655 -4.50963 0
M  V30 4213 H 401.168 -0.703752 -5.21876 0
M  V30 4214 H 403.659 -0.902102 -3.66975 0
M  V30 4215 H 403.972 -2.44594 -7.33071 0
M  V30 4216 H 402.317 -2.19311 -6.59491 0
M  V30 4217 H 405.508 -1.19906 -4.52482 0
M  V30 4218 H 405.681 -1.90284 -6.19432 0
M  V30 4219 N 399.087 1.5561 -0.249682 0
M  V30 4220 C 399.997 2.25143 0.659375 0
M  V30 4221 C 401.013 1.2685 1.19101 0
M  V30 4222 O 402.189 1.59732 1.22669 0
M  V30 4223 C 399.254 2.93945 1.8384 0
M  V30 4224 C 398.315 4.07655 1.34596 0
M  V30 4225 C 397.548 4.73167 2.46878 0
M  V30 4226 O 397.771 4.37768 3.65671 0
M  V30 4227 O 396.705 5.61623 2.16478 0
M  V30 4228 H 400.531 3.03545 0.0968698 0
M  V30 4229 H 398.116 1.49389 -0.018074 0
M  V30 4230 H 399.998 3.37271 2.52638 0
M  V30 4231 H 398.673 2.18481 2.38847 0
M  V30 4232 H 397.58 3.68839 0.625174 0
M  V30 4233 H 398.913 4.84946 0.841941 0
M  V30 4234 N 400.565 -0.0233959 1.57583 0
M  V30 4235 C 401.495 -1.02162 2.09965 0
M  V30 4236 C 402.476 -1.3735 1.00344 0
M  V30 4237 O 403.661 -1.46135 1.27899 0
M  V30 4238 C 400.791 -2.32081 2.58371 0
M  V30 4239 C 399.745 -2.1112 3.72307 0
M  V30 4240 C 399.071 -3.46848 4.06941 0
M  V30 4241 C 400.371 -1.49276 5.00514 0
M  V30 4242 H 402.065 -0.585557 2.93618 0
M  V30 4243 H 399.611 -0.280218 1.41247 0
M  V30 4244 H 401.564 -3.02249 2.93639 0
M  V30 4245 H 400.288 -2.77758 1.71808 0
M  V30 4246 H 398.947 -1.43384 3.37397 0
M  V30 4247 H 398.595 -3.90184 3.17436 0
M  V30 4248 H 398.295 -3.33646 4.83688 0
M  V30 4249 H 399.819 -4.18369 4.44747 0
M  V30 4250 H 401.233 -2.09368 5.33702 0
M  V30 4251 H 399.63 -1.46632 5.8191 0
M  V30 4252 H 400.7 -0.459217 4.82721 0
M  V30 4253 N 402.043 -1.548 -0.295768 0
M  V30 4254 C 402.993 -1.82497 -1.3667 0
M  V30 4255 C 403.977 -0.682434 -1.45711 0
M  V30 4256 O 405.169 -0.943207 -1.49775 0
M  V30 4257 C 402.298 -2.08036 -2.73086 0
M  V30 4258 C 401.384 -3.28488 -2.68247 0
M  V30 4259 N 401.775 -4.48924 -2.33025 0
M  V30 4260 C 400.073 -3.3062 -2.99343 0
M  V30 4261 C 400.774 -5.30956 -2.37613 0
M  V30 4262 N 399.75 -4.68805 -2.75178 0
M  V30 4263 H 403.552 -2.73175 -1.0841 0
M  V30 4264 H 401.066 -1.5437 -0.504361 0
M  V30 4265 H 403.063 -2.26027 -3.5031 0
M  V30 4266 H 401.723 -1.18629 -3.02254 0
M  V30 4267 H 402.734 -4.75432 -2.05389 0
M  V30 4268 H 399.411 -2.51336 -3.33371 0
M  V30 4269 H 400.801 -6.37199 -2.13135 0
M  V30 4270 N 403.521 0.559213 -1.47345 0
M  V30 4271 C 404.767 1.31614 -1.55079 0
M  V30 4272 C 405.122 1.91257 -0.209422 0
M  V30 4273 O 404.415 1.74796 0.784656 0
M  V30 4274 C 404.609 2.44853 -2.6035 0
M  V30 4275 C 404.438 1.96305 -4.04591 0
M  V30 4276 C 403.208 1.8024 -4.72061 0
M  V30 4277 C 405.406 1.50872 -4.91673 0
M  V30 4278 N 403.388 1.26011 -6.00828 0
M  V30 4279 C 404.759 1.08395 -6.10451 0
M  V30 4280 C 406.814 1.38905 -4.78132 0
M  V30 4281 C 405.517 0.551399 -7.17183 0
M  V30 4282 C 407.543 0.870518 -5.84958 0
M  V30 4283 C 406.905 0.455661 -7.02925 0
M  V30 4284 H 403.004 0.473712 -0.62219 0
M  V30 4285 H 405.588 0.634103 -1.84085 0
M  V30 4286 H 403.759 3.10589 -2.33215 0
M  V30 4287 H 405.491 3.11849 -2.57938 0
M  V30 4288 H 402.246 2.02895 -4.27937 0
M  V30 4289 H 402.67 1.00991 -6.69425 0
M  V30 4290 H 407.312 1.69591 -3.87297 0
M  V30 4291 H 405.03 0.232159 -8.07766 0
M  V30 4292 H 408.616 0.781507 -5.76527 0
M  V30 4293 H 407.496 0.0606414 -7.84177 0
M  V30 4294 N 404.999 1.35443 0.805782 0
M  V30 4295 C 405.949 1.24972 1.90699 0
M  V30 4296 C 406.933 0.144806 1.60247 0
M  V30 4297 O 408.125 0.376102 1.72958 0
M  V30 4298 C 405.254 1.02475 3.27649 0
M  V30 4299 C 404.34 2.17361 3.64164 0
M  V30 4300 N 404.731 3.42591 3.72109 0
M  V30 4301 C 403.029 2.08765 3.94123 0
M  V30 4302 C 403.73 4.18144 4.04389 0
M  V30 4303 N 402.706 3.4691 4.18515 0
M  V30 4304 H 406.508 2.19852 1.95044 0
M  V30 4305 H 404.022 1.27928 1.00041 0
M  V30 4306 H 406.019 0.930617 4.06381 0
M  V30 4307 H 404.679 0.0848009 3.24589 0
M  V30 4308 H 405.69 3.76932 3.55166 0
M  V30 4309 H 402.367 1.22629 3.99084 0
M  V30 4310 H 403.757 5.26367 4.17597 0
M  V30 4311 N 406.477 -1.02803 1.19454 0
M  V30 4312 C 407.888 -1.57667 0.999899 0
M  V30 4313 C 408.239 -1.91041 -0.446956 0
M  V30 4314 O 407.364 -1.70978 -1.32648 0
M  V30 4315 C 407.959 -2.86477 1.80877 0
M  V30 4316 C 406.518 -3.37911 1.65811 0
M  V30 4317 C 405.665 -2.11343 1.79526 0
M  V30 4318 H 408.616 -0.853214 1.33813 0
M  V30 4319 H 408.637 -3.57408 1.30536 0
M  V30 4320 H 408.149 -2.62155 2.86175 0
M  V30 4321 H 406.25 -3.67218 0.63102 0
M  V30 4322 H 406.363 -4.10885 2.46395 0
M  V30 4323 H 404.727 -2.23254 1.22596 0
M  V30 4324 H 405.51 -1.89461 2.86285 0
M  V30 4325 N 407.956 -0.998596 -1.21925 0
M  V30 4326 C 408.904 -0.546641 -2.26085 0
M  V30 4327 C 409.898 0.405576 -1.64473 0
M  V30 4328 O 411.104 0.277471 -1.77849 0
M  V30 4329 H 407.479 -0.158403 -0.735127 0
M  V30 4330 H 409.45 -1.43645 -2.61551 0
M  V30 4331 C 408.199 0.117388 -3.47502 0
M  V30 4332 H 407.522 -0.606277 -3.95176 0
M  V30 4333 H 408.962 0.396993 -4.22137 0
M  V30 4334 C 407.421 1.35455 -3.0847 0
M  V30 4335 O 407.951 2.44944 -3.18379 0
M  V30 4336 N 406.157 1.23191 -2.63196 0
M  V30 4337 H 405.704 0.341006 -2.55333 0
M  V30 4338 H 405.662 2.06071 -2.37449 0
M  V30 4339 N 409.434 1.37368 -0.772513 0
M  V30 4340 C 410.662 2.03942 -0.348588 0
M  V30 4341 C 411.077 1.58264 1.02947 0
M  V30 4342 O 410.434 0.764246 1.65727 0
M  V30 4343 C 410.485 3.5946 -0.38351 0
M  V30 4344 O 410.206 4.03468 -1.70721 0
M  V30 4345 C 411.707 4.4327 0.0519152 0
M  V30 4346 H 408.927 0.654931 -0.145966 0
M  V30 4347 H 411.471 1.75686 -1.04665 0
M  V30 4348 H 409.626 3.86486 0.265978 0
M  V30 4349 H 410.04 4.97991 -1.64636 0
M  V30 4350 H 411.514 5.51995 -0.0236733 0
M  V30 4351 H 411.991 4.2514 1.10238 0
M  V30 4352 H 412.597 4.21471 -0.569415 0
M  V30 4353 N 410.912 0.523116 1.48665 0
M  V30 4354 C 411.862 -0.263106 2.26477 0
M  V30 4355 C 412.846 -0.916005 1.32281 0
M  V30 4356 O 414.038 -0.819946 1.56863 0
M  V30 4357 C 411.167 -1.31361 3.17174 0
M  V30 4358 C 410.253 -0.665849 4.1884 0
M  V30 4359 N 410.644 0.244434 5.05209 0
M  V30 4360 C 408.942 -0.923863 4.36326 0
M  V30 4361 C 409.643 0.617443 5.78414 0
M  V30 4362 N 408.619 -0.0198686 5.43596 0
M  V30 4363 H 412.421 0.437295 2.90629 0
M  V30 4364 H 409.935 0.340675 1.58787 0
M  V30 4365 H 411.932 -1.89052 3.71571 0
M  V30 4366 H 410.592 -2.01546 2.54576 0
M  V30 4367 H 411.603 0.616621 5.14216 0
M  V30 4368 H 408.28 -1.6168 3.84923 0
M  V30 4369 H 409.67 1.36346 6.57921 0
M  V30 4370 N 412.39 -1.55475 0.257931 0
M  V30 4371 C 413.3 -2.2549 -0.647425 0
M  V30 4372 C 414.316 -1.2748 -1.18427 0
M  V30 4373 O 415.492 -1.6038 -1.2182 0
M  V30 4374 C 412.557 -2.94916 -1.82278 0
M  V30 4375 C 411.618 -4.08363 -1.32432 0
M  V30 4376 C 410.851 -4.74469 -2.44366 0
M  V30 4377 O 411.074 -4.39701 -3.63344 0
M  V30 4378 O 410.008 -5.62763 -2.13497 0
M  V30 4379 H 413.834 -3.03593 -0.0807707 0
M  V30 4380 H 411.419 -1.49377 0.0259962 0
M  V30 4381 H 413.301 -3.38606 -2.50846 0
M  V30 4382 H 411.976 -2.19744 -2.37685 0
M  V30 4383 H 410.883 -3.69166 -0.605605 0
M  V30 4384 H 412.216 -4.85385 -0.816211 0
M  V30 4385 N 413.868 0.0150385 -1.57593 0
M  V30 4386 C 415.114 0.69849 -1.91031 0
M  V30 4387 C 415.469 1.72208 -0.85804 0
M  V30 4388 O 414.762 1.91147 0.131614 0
M  V30 4389 C 414.956 1.39686 -3.28972 0
M  V30 4390 C 414.785 0.442428 -4.47518 0
M  V30 4391 C 413.555 0.0583223 -5.05266 0
M  V30 4392 C 415.753 -0.285072 -5.13509 0
M  V30 4393 N 413.735 -0.895893 -6.07328 0
M  V30 4394 C 415.106 -1.09447 -6.10263 0
M  V30 4395 C 417.161 -0.350518 -4.96665 0
M  V30 4396 C 415.864 -1.96333 -6.91987 0
M  V30 4397 C 417.89 -1.20655 -5.78962 0
M  V30 4398 C 417.252 -2.00383 -6.75297 0
M  V30 4399 H 413.351 0.22926 -0.747639 0
M  V30 4400 H 415.935 -0.0417748 -1.94655 0
M  V30 4401 H 414.106 2.1075 -3.2625 0
M  V30 4402 H 415.838 2.03381 -3.49883 0
M  V30 4403 H 412.593 0.423506 -4.71703 0
M  V30 4404 H 413.017 -1.36792 -6.63036 0
M  V30 4405 H 417.659 0.251596 -4.22051 0
M  V30 4406 H 415.377 -2.57618 -7.65936 0
M  V30 4407 H 418.963 -1.2609 -5.67972 0
M  V30 4408 H 417.843 -2.65552 -7.3787 0
M  V30 4409 N 415.346 1.54954 0.287554 0
M  V30 4410 C 416.278 1.83224 1.37701 0
M  V30 4411 C 417.291 0.715898 1.46215 0
M  V30 4412 O 418.48 0.993565 1.48292 0
M  V30 4413 C 415.58 1.96723 2.75959 0
M  V30 4414 C 414.753 3.27253 2.90215 0
M  V30 4415 C 413.812 3.30998 4.09056 0
M  V30 4416 O 412.838 4.04457 4.00503 0
M  V30 4417 N 414.04 2.57353 5.20336 0
M  V30 4418 H 416.805 2.77254 1.138 0
M  V30 4419 H 414.366 1.54694 0.477652 0
M  V30 4420 H 416.358 1.96615 3.5373 0
M  V30 4421 H 414.928 1.09626 2.92747 0
M  V30 4422 H 414.148 3.40022 1.99447 0
M  V30 4423 H 415.436 4.13365 2.96659 0
M  V30 4424 H 414.834 1.97327 5.30169 0
M  V30 4425 H 413.391 2.62984 5.96391 0
M  V30 4426 N 416.824 -0.551391 1.4764 0
M  V30 4427 C 418.054 -1.33163 1.57959 0
M  V30 4428 C 418.462 -1.87785 0.23094 0
M  V30 4429 O 417.805 -1.65996 -0.786825 0
M  V30 4430 C 417.867 -2.53449 2.54958 0
M  V30 4431 C 417.531 -2.20071 4.00522 0
M  V30 4432 C 418.528 -1.77017 4.88836 0
M  V30 4433 C 416.213 -2.31252 4.45901 0
M  V30 4434 C 418.207 -1.4558 6.20552 0
M  V30 4435 C 415.894 -1.99427 5.77644 0
M  V30 4436 C 416.892 -1.56659 6.64791 0
M  V30 4437 O 416.58 -1.25242 7.94084 0
M  V30 4438 H 416.312 -0.412022 0.535923 0
M  V30 4439 H 418.866 -0.674186 1.9402 0
M  V30 4440 H 417.096 -3.22104 2.13976 0
M  V30 4441 H 418.785 -3.15523 2.55343 0
M  V30 4442 H 419.551 -1.67867 4.55023 0
M  V30 4443 H 415.43 -2.63498 3.78272 0
M  V30 4444 H 418.974 -1.12125 6.8853 0
M  V30 4445 H 414.871 -2.08211 6.10998 0
M  V30 4446 H 415.639 -1.38822 8.06642 0
M  V30 4447 N 418.302 -1.35869 -0.798587 0
M  V30 4448 C 419.532 -1.32529 -1.58491 0
M  V30 4449 C 419.94 0.0975405 -1.88948 0
M  V30 4450 O 419.283 1.06224 -1.49874 0
M  V30 4451 C 419.345 -2.07247 -2.9375 0
M  V30 4452 C 419.009 -3.56391 -2.86068 0
M  V30 4453 C 420.006 -4.50824 -2.58947 0
M  V30 4454 C 417.691 -3.9915 -3.04933 0
M  V30 4455 C 419.685 -5.85993 -2.5078 0
M  V30 4456 C 417.372 -5.34413 -2.96389 0
M  V30 4457 C 418.37 -6.27646 -2.69349 0
M  V30 4458 O 418.058 -7.60426 -2.60782 0
M  V30 4459 H 417.79 -0.456529 -0.498556 0
M  V30 4460 H 420.344 -1.79425 -0.999799 0
M  V30 4461 H 418.574 -1.55001 -3.54276 0
M  V30 4462 H 420.263 -1.96883 -3.54954 0
M  V30 4463 H 421.029 -4.19104 -2.44084 0
M  V30 4464 H 416.908 -3.26961 -3.24989 0
M  V30 4465 H 420.452 -6.58735 -2.29595 0
M  V30 4466 H 416.349 -5.65743 -3.10813 0
M  V30 4467 H 417.117 -7.70444 -2.76331 0
M  V30 4468 N 419.78 1.02168 -1.19998 0
M  V30 4469 C 421.029 1.75091 -1.0013 0
M  V30 4470 C 421.342 1.89923 0.467835 0
M  V30 4471 O 422.548 2.59888 0.785515 0
M  V30 4472 C 421.004 3.14892 -1.74273 0
M  V30 4473 C 420.612 3.0809 -3.25245 0
M  V30 4474 C 422.356 3.9206 -1.62755 0
M  V30 4475 C 420.263 4.42867 -3.91948 0
M  V30 4476 H 419.193 0.656394 -0.37103 0
M  V30 4477 H 421.844 1.14284 -1.43567 0
M  V30 4478 H 420.226 3.7621 -1.2362 0
M  V30 4479 H 421.4 2.5611 -3.83072 0
M  V30 4480 H 419.715 2.44416 -3.3712 0
M  V30 4481 H 422.312 4.91764 -2.09934 0
M  V30 4482 H 422.655 4.12199 -0.582894 0
M  V30 4483 H 423.188 3.37359 -2.10793 0
M  V30 4484 H 419.927 4.27931 -4.96543 0
M  V30 4485 H 419.447 4.94874 -3.3891 0
M  V30 4486 H 421.126 5.11728 -3.95909 0
M  V30 4487 N 421.258 1.00505 1.21394 0
M  V30 4488 C 422.483 0.706367 1.95001 0
M  V30 4489 C 422.908 -0.72463 1.73582 0
M  V30 4490 O 422.266 -1.49702 1.0227 0
M  V30 4491 C 422.314 1.03299 3.45487 0
M  V30 4492 O 421.418 0.138275 4.12168 0
M  V30 4493 H 420.759 0.263175 0.609619 0
M  V30 4494 H 423.289 1.34531 1.54151 0
M  V30 4495 H 423.299 0.979872 3.96059 0
M  V30 4496 H 421.974 2.07567 3.60401 0
M  V30 4497 H 420.551 0.247928 3.72075 0
M  V30 4498 N 422.737 -1.36956 0.779787 0
M  V30 4499 C 423.985 -1.99097 0.347079 0
M  V30 4500 C 424.306 -1.62206 -1.08232 0
M  V30 4501 O 423.576 -0.891373 -1.74446 0
M  V30 4502 H 422.156 -0.736409 0.125342 0
M  V30 4503 H 424.818 -1.67308 0.999696 0
M  V30 4504 H 423.914 -3.09107 0.431162 0
M  V30 4505 N 424.215 -0.530993 -1.48385 0
M  V30 4506 C 425.162 0.231223 -2.29639 0
M  V30 4507 C 426.132 0.932864 -1.37429 0
M  V30 4508 O 427.317 0.933692 -1.66394 0
M  V30 4509 C 424.457 1.27155 -3.2082 0
M  V30 4510 C 423.57 0.578655 -4.28107 0
M  V30 4511 C 422.705 1.602 -5.06467 0
M  V30 4512 C 421.744 0.892625 -6.05556 0
M  V30 4513 N 420.881 1.86157 -6.76971 0
M  V30 4514 H 425.721 -0.467848 -2.94305 0
M  V30 4515 H 423.258 -0.242556 -1.45086 0
M  V30 4516 H 425.216 1.88703 -3.72085 0
M  V30 4517 H 423.846 1.939 -2.58075 0
M  V30 4518 H 422.898 -0.150782 -3.80101 0
M  V30 4519 H 424.21 0.0217065 -4.98795 0
M  V30 4520 H 423.364 2.29173 -5.61751 0
M  V30 4521 H 422.103 2.19285 -4.35621 0
M  V30 4522 H 421.108 0.188829 -5.49476 0
M  V30 4523 H 422.333 0.307878 -6.78402 0
M  V30 4524 H 420.279 2.44147 -6.08875 0
M  V30 4525 H 420.196 1.35608 -7.43738 0
M  V30 4526 H 421.464 2.54325 -7.36844 0
M  V30 4527 N 425.693 1.55336 -0.266172 0
M  V30 4528 C 426.656 2.20878 0.612001 0
M  V30 4529 C 427.656 1.18388 1.08816 0
M  V30 4530 O 428.846 1.4335 0.989774 0
M  V30 4531 C 425.978 2.86765 1.84332 0
M  V30 4532 H 427.171 2.99873 0.0398718 0
M  V30 4533 H 424.724 1.56291 -0.0167309 0
M  V30 4534 H 425.459 2.11759 2.45619 0
M  V30 4535 H 425.244 3.61862 1.5099 0
M  V30 4536 H 426.734 3.36867 2.46801 0
M  V30 4537 N 427.171 -0.0066808 1.57599 0
M  V30 4538 C 428.587 -0.36267 1.55425 0
M  V30 4539 C 428.787 -1.75209 0.995187 0
M  V30 4540 O 427.843 -2.44616 0.626058 0
M  V30 4541 C 429.156 -0.244017 2.99708 0
M  V30 4542 C 430.704 -0.319451 3.11366 0
M  V30 4543 C 431.179 -0.229998 4.57422 0
M  V30 4544 N 432.67 -0.288105 4.62303 0
M  V30 4545 C 433.405 -0.242127 5.72889 0
M  V30 4546 N 432.901 -0.147133 6.92644 0
M  V30 4547 N 434.694 -0.293502 5.61333 0
M  V30 4548 H 426.845 0.902314 1.92281 0
M  V30 4549 H 429.108 0.34525 0.882896 0
M  V30 4550 H 428.814 0.711678 3.44424 0
M  V30 4551 H 428.688 -1.02877 3.629 0
M  V30 4552 H 431.075 -1.26559 2.66584 0
M  V30 4553 H 431.156 0.495055 2.50964 0
M  V30 4554 H 430.8 0.712566 5.02877 0
M  V30 4555 H 430.73 -1.0629 5.15761 0
M  V30 4556 H 433.221 -0.363126 3.76151 0
M  V30 4557 H 433.534 -0.117763 7.7271 0
M  V30 4558 H 431.879 -0.112857 6.94908 0
M  V30 4559 H 435.07 -0.365864 4.66668 0
M  V30 4560 H 435.243 -0.254204 6.47501 0
M  V30 4561 N 428.649 -1.55105 -0.279332 0
M  V30 4562 C 429.582 -1.82467 -1.37044 0
M  V30 4563 C 430.56 -0.677261 -1.47824 0
M  V30 4564 O 431.744 -0.919578 -1.64548 0
M  V30 4565 C 428.871 -1.98066 -2.7475 0
M  V30 4566 C 427.917 -3.20594 -2.81286 0
M  V30 4567 S 428.75 -4.78116 -2.41175 0
M  V30 4568 C 429.906 -4.9668 -3.80867 0
M  V30 4569 H 430.139 -2.74728 -1.1363 0
M  V30 4570 H 427.672 -1.46794 -0.478625 0
M  V30 4571 H 429.63 -2.07739 -3.54055 0
M  V30 4572 H 428.291 -1.06704 -2.9542 0
M  V30 4573 H 427.484 -3.28376 -3.82341 0
M  V30 4574 H 427.086 -3.09479 -2.09996 0
M  V30 4575 H 429.378 -4.82033 -4.76078 0
M  V30 4576 H 430.321 -5.98741 -3.78041 0
M  V30 4577 H 430.729 -4.24698 -3.71876 0
M  V30 4578 N 430.127 0.543554 -1.4793 0
M  V30 4579 C 431.355 1.32516 -1.58894 0
M  V30 4580 C 431.77 1.87215 -0.244131 0
M  V30 4581 O 431.127 1.65709 0.764652 0
M  V30 4582 C 431.178 2.48554 -2.62494 0
M  V30 4583 O 430.899 1.96112 -3.91755 0
M  V30 4584 C 432.4 3.40572 -2.8377 0
M  V30 4585 H 429.62 0.403472 -0.536145 0
M  V30 4586 H 432.164 0.657106 -1.93655 0
M  V30 4587 H 430.319 3.1127 -2.30629 0
M  V30 4588 H 430.733 2.71967 -4.4848 0
M  V30 4589 H 432.207 4.18375 -3.60093 0
M  V30 4590 H 432.684 3.94965 -1.92092 0
M  V30 4591 H 433.29 2.8366 -3.16887 0
M  V30 4592 N 431.605 1.3629 0.791371 0
M  V30 4593 C 432.851 1.30605 1.55146 0
M  V30 4594 C 433.184 -0.115042 1.93859 0
M  V30 4595 O 432.459 -1.06798 1.62556 0
M  V30 4596 C 432.742 2.22692 2.82985 0
M  V30 4597 C 432.595 3.73489 2.50651 0
M  V30 4598 C 433.914 2.13588 3.84796 0
M  V30 4599 H 431.033 0.475761 0.562868 0
M  V30 4600 H 433.675 1.66825 0.909358 0
M  V30 4601 H 431.825 1.91933 3.37778 0
M  V30 4602 H 433.497 4.14758 2.01924 0
M  V30 4603 H 431.74 3.93021 1.83622 0
M  V30 4604 H 432.411 4.3333 3.41949 0
M  V30 4605 H 434.887 2.40659 3.39445 0
M  V30 4606 H 433.763 2.80195 4.71998 0
M  V30 4607 H 434.024 1.12256 4.27611 0
M  V30 4608 N 433.083 -1.0153 1.20538 0
M  V30 4609 C 434.33 -1.75149 1.01633 0
M  V30 4610 C 434.658 -1.89189 -0.451399 0
M  V30 4611 O 433.913 -1.41551 -1.35136 0
M  V30 4612 C 434.212 -3.17213 1.64654 0
M  V30 4613 C 433.878 -3.23146 3.14464 0
M  V30 4614 C 432.54 -3.24472 3.55347 0
M  V30 4615 C 434.892 -3.21207 4.10458 0
M  V30 4616 C 432.22 -3.21532 4.90748 0
M  V30 4617 C 434.572 -3.19808 5.45807 0
M  V30 4618 C 433.236 -3.19439 5.86102 0
M  V30 4619 H 432.506 -0.640914 0.3719 0
M  V30 4620 H 435.153 -1.19071 1.49981 0
M  V30 4621 H 433.458 -3.76457 1.08571 0
M  V30 4622 H 435.155 -3.72871 1.4754 0
M  V30 4623 H 431.745 -3.2285 2.81897 0
M  V30 4624 H 435.929 -3.19351 3.79906 0
M  V30 4625 H 431.185 -3.19578 5.21229 0
M  V30 4626 H 435.359 -3.1726 6.19935 0
M  V30 4627 H 432.986 -3.16915 6.90991 0
M  V30 4628 N 434.561 -1.01147 -1.20859 0
M  V30 4629 C 435.524 -0.582224 -2.21682 0
M  V30 4630 C 436.524 0.344887 -1.57058 0
M  V30 4631 O 437.714 0.134281 -1.73682 0
M  V30 4632 C 434.846 0.150496 -3.40568 0
M  V30 4633 H 436.039 -1.47408 -2.61172 0
M  V30 4634 H 433.592 -0.800695 -1.34233 0
M  V30 4635 H 434.327 1.0575 -3.06574 0
M  V30 4636 H 434.112 -0.515444 -3.88697 0
M  V30 4637 H 435.602 0.438344 -4.15293 0
M  V30 4638 N 436.039 1.36541 -0.78704 0
M  V30 4639 C 437.264 2.0409 -0.369053 0
M  V30 4640 C 437.689 1.58957 1.00569 0
M  V30 4641 O 437.047 0.756926 1.64743 0
M  V30 4642 C 437.095 3.57924 -0.438466 0
M  V30 4643 O 436.199 4.08642 0.555479 0
M  V30 4644 H 435.54 0.645142 -0.157122 0
M  V30 4645 H 438.07 1.74545 -1.06749 0
M  V30 4646 H 438.08 4.06887 -0.301218 0
M  V30 4647 H 436.755 3.90127 -1.44132 0
M  V30 4648 H 435.332 3.70958 0.380088 0
M  V30 4649 N 437.518 0.538854 1.48102 0
M  V30 4650 C 438.795 -0.0568108 1.95517 0
M  V30 4651 C 439.175 -1.50408 1.48124 0
M  V30 4652 O 438.523 -2.17133 0.711727 0
M  V30 4653 C 438.733 0.0696262 3.48931 0
M  V30 4654 C 440.081 -0.0851202 4.24515 0
M  V30 4655 O 441.105 -0.0037347 3.562 0
M  V30 4656 O 439.964 -0.257025 5.45895 0
M  V30 4657 H 437.058 -0.0743695 0.823649 0
M  V30 4658 H 439.604 0.604081 1.58584 0
M  V30 4659 H 438.376 1.07744 3.76174 0
M  V30 4660 H 437.999 -0.629714 3.92582 0
M  V30 4661 N 438.996 -1.55193 0.274407 0
M  V30 4662 C 440.244 -1.99187 -0.341902 0
M  V30 4663 C 440.565 -1.16422 -1.56431 0
M  V30 4664 O 439.835 -0.253573 -1.94252 0
M  V30 4665 H 438.415 -0.735721 -0.129317 0
M  V30 4666 H 441.077 -1.91168 0.379578 0
M  V30 4667 H 440.173 -3.05629 -0.632253 0
M  V30 4668 N 440.474 -0.00167713 -1.576 0
M  V30 4669 C 441.424 0.997744 -2.0501 0
M  V30 4670 C 442.408 1.30214 -0.94515 0
M  V30 4671 O 443.6 1.29284 -1.20891 0
M  V30 4672 C 440.729 2.2892 -2.55833 0
M  V30 4673 C 439.815 2.01437 -3.73208 0
M  V30 4674 N 440.206 1.44119 -4.84833 0
M  V30 4675 C 438.504 2.31571 -3.8117 0
M  V30 4676 C 439.205 1.33145 -5.66257 0
M  V30 4677 N 438.181 1.81763 -5.12312 0
M  V30 4678 H 441.983 0.549098 -2.88725 0
M  V30 4679 H 439.497 0.20398 -1.61114 0
M  V30 4680 H 441.494 3.01361 -2.88075 0
M  V30 4681 H 440.154 2.74436 -1.73537 0
M  V30 4682 H 441.165 1.11978 -5.0565 0
M  V30 4683 H 437.842 2.7995 -3.09732 0
M  V30 4684 H 439.232 0.890567 -6.65972 0
M  V30 4685 N 441.952 1.55251 0.271103 0
M  V30 4686 C 442.915 1.87484 1.31842 0
M  V30 4687 C 443.915 0.749545 1.42262 0
M  V30 4688 O 445.105 1.01771 1.4138 0
M  V30 4689 C 442.237 2.0818 2.69951 0
M  V30 4690 H 443.43 2.81108 1.0449 0
M  V30 4691 H 440.983 1.47771 0.509258 0
M  V30 4692 H 441.718 1.16944 3.02481 0
M  V30 4693 H 441.503 2.90114 2.63774 0
M  V30 4694 H 442.993 2.34385 3.4562 0
M  V30 4695 N 443.43 -0.535701 1.48216 0
M  V30 4696 C 444.846 -0.863701 1.3421 0
M  V30 4697 C 445.046 -1.98458 0.34879 0
M  V30 4698 O 444.102 -2.51432 -0.23204 0
M  V30 4699 C 445.415 -1.23662 2.74095 0
M  V30 4700 C 446.963 -1.34683 2.82541 0
M  V30 4701 C 447.438 -1.75322 4.23115 0
M  V30 4702 N 448.929 -1.82434 4.2576 0
M  V30 4703 C 449.664 -2.15252 5.31464 0
M  V30 4704 N 449.16 -2.46533 6.47452 0
M  V30 4705 N 450.953 -2.16209 5.18855 0
M  V30 4706 H 443.104 0.203965 2.11418 0
M  V30 4707 H 445.367 0.0286033 0.947568 0
M  V30 4708 H 445.073 -0.486674 3.48316 0
M  V30 4709 H 444.947 -2.18805 3.07253 0
M  V30 4710 H 447.334 -2.08756 2.08579 0
M  V30 4711 H 447.415 -0.376756 2.5301 0
M  V30 4712 H 447.059 -1.01812 4.97591 0
M  V30 4713 H 446.989 -2.7337 4.50085 0
M  V30 4714 H 449.48 -1.6056 3.42095 0
M  V30 4715 H 449.793 -2.70662 7.23852 0
M  V30 4716 H 448.138 -2.44065 6.50736 0
M  V30 4717 H 451.329 -1.91224 4.2726 0
M  V30 4718 H 451.502 -2.41453 6.01335 0
M  V30 4719 N 444.908 -1.36708 -0.784132 0
M  V30 4720 C 446.136 -1.34398 -1.57305 0
M  V30 4721 C 446.551 0.0735577 -1.88657 0
M  V30 4722 O 445.908 1.03193 -1.50524 0
M  V30 4723 C 445.959 -2.17053 -2.89085 0
M  V30 4724 O 445.68 -3.53281 -2.59083 0
M  V30 4725 C 447.181 -2.22583 -3.83369 0
M  V30 4726 H 444.401 -0.460819 -0.487736 0
M  V30 4727 H 446.945 -1.79879 -0.972819 0
M  V30 4728 H 445.1 -1.75113 -3.45564 0
M  V30 4729 H 445.514 -3.9647 -3.43383 0
M  V30 4730 H 446.988 -2.84763 -4.72878 0
M  V30 4731 H 447.465 -1.23075 -4.21603 0
M  V30 4732 H 448.071 -2.64781 -3.32823 0
M  V30 4733 N 446.386 1.0089 -1.21074 0
M  V30 4734 C 447.633 1.74607 -1.0256 0
M  V30 4735 C 447.961 1.89426 0.44136 0
M  V30 4736 O 447.216 1.42266 1.34384 0
M  V30 4737 C 447.515 3.16335 -1.66334 0
M  V30 4738 C 447.181 3.21474 -3.16173 0
M  V30 4739 C 445.843 3.22583 -3.57062 0
M  V30 4740 C 448.195 3.19025 -4.12156 0
M  V30 4741 C 445.523 3.18925 -4.92446 0
M  V30 4742 C 447.875 3.16909 -5.47496 0
M  V30 4743 C 446.539 3.16326 -5.87787 0
M  V30 4744 H 445.809 0.638933 -0.375294 0
M  V30 4745 H 448.456 1.18274 -1.50611 0
M  V30 4746 H 446.761 3.75876 -1.10566 0
M  V30 4747 H 448.458 3.72083 -1.49516 0
M  V30 4748 H 445.048 3.2135 -2.83605 0
M  V30 4749 H 449.232 3.17332 -3.81595 0
M  V30 4750 H 444.488 3.16809 -5.22917 0
M  V30 4751 H 448.662 3.13968 -6.21609 0
M  V30 4752 H 446.289 3.13246 -6.92662 0
M  V30 4753 N 447.864 1.01787 1.20321 0
M  V30 4754 C 448.812 0.58254 2.25187 0
M  V30 4755 C 449.806 -0.379359 1.65098 0
M  V30 4756 O 451.012 -0.249142 1.78267 0
M  V30 4757 H 447.387 0.170078 0.732514 0
M  V30 4758 H 449.358 1.47788 2.59232 0
M  V30 4759 C 448.107 -0.0620885 3.47645 0
M  V30 4760 H 447.43 0.669069 3.94162 0
M  V30 4761 H 448.87 -0.329784 4.22716 0
M  V30 4762 C 447.329 -1.3053 3.10586 0
M  V30 4763 O 447.859 -2.39848 3.22236 0
M  V30 4764 N 446.065 -1.18988 2.65123 0
M  V30 4765 H 445.612 -0.300341 2.55843 0
M  V30 4766 H 445.57 -2.02267 2.40698 0
M  V30 4767 N 449.342 -1.36122 0.79427 0
M  V30 4768 C 450.572 -2.03067 0.380437 0
M  V30 4769 C 450.98 -1.60018 -1.00949 0
M  V30 4770 O 450.323 -0.787425 -1.65968 0
M  V30 4771 C 450.385 -3.57587 0.37034 0
M  V30 4772 C 450.049 -4.23855 1.70867 0
M  V30 4773 C 451.046 -4.46404 2.66496 0
M  V30 4774 C 448.731 -4.61229 1.9893 0
M  V30 4775 C 450.725 -5.05412 3.88378 0
M  V30 4776 C 448.412 -5.19953 3.21079 0
M  V30 4777 C 449.41 -5.41985 4.15621 0
M  V30 4778 O 449.098 -5.99475 5.35616 0
M  V30 4779 H 448.83 -0.658168 0.154243 0
M  V30 4780 H 451.384 -1.7498 1.0757 0
M  V30 4781 H 449.614 -3.84814 -0.381444 0
M  V30 4782 H 451.303 -4.05895 -0.0194894 0
M  V30 4783 H 452.069 -4.17921 2.46103 0
M  V30 4784 H 447.948 -4.43402 1.26158 0
M  V30 4785 H 451.492 -5.22524 4.62185 0
M  V30 4786 H 447.389 -5.47862 3.41347 0
M  V30 4787 H 448.157 -6.17937 5.36745 0
M  V30 4788 N 450.82 -0.546701 -1.47814 0
M  V30 4789 C 451.752 0.244196 -2.27895 0
M  V30 4790 C 452.765 0.88911 -1.36377 0
M  V30 4791 O 453.954 0.764733 -1.61289 0
M  V30 4792 C 451.054 1.36252 -3.10304 0
M  V30 4793 C 450.227 0.816382 -4.29714 0
M  V30 4794 C 449.286 1.81789 -4.93801 0
M  V30 4795 O 448.312 1.36818 -5.52512 0
M  V30 4796 N 449.514 3.15085 -4.87547 0
M  V30 4797 H 452.279 -0.442694 -2.96412 0
M  V30 4798 H 449.84 -0.382095 -1.57327 0
M  V30 4799 H 451.832 2.03102 -3.50045 0
M  V30 4800 H 450.402 1.95281 -2.44099 0
M  V30 4801 H 449.622 -0.0285981 -3.9419 0
M  V30 4802 H 450.91 0.430668 -5.06974 0
M  V30 4803 H 450.308 3.54275 -4.41028 0
M  V30 4804 H 448.865 3.77522 -5.31339 0
M  V30 4805 N 452.299 1.55045 -0.282633 0
M  V30 4806 C 453.262 2.21515 0.588539 0
M  V30 4807 C 454.262 1.19535 1.07554 0
M  V30 4808 O 455.452 1.44391 0.974514 0
M  V30 4809 C 452.584 2.88704 1.8128 0
M  V30 4810 H 453.777 2.99899 0.00806397 0
M  V30 4811 H 451.33 1.56265 -0.0333067 0
M  V30 4812 H 452.065 2.14352 2.43359 0
M  V30 4813 H 451.85 3.63443 1.47144 0
M  V30 4814 H 453.34 3.39465 2.43214 0
M  V30 4815 N 453.777 0.010035 1.57597 0
M  V30 4816 C 455.025 -0.671371 1.90623 0
M  V30 4817 C 455.346 -1.73753 0.885151 0
M  V30 4818 O 454.616 -1.95752 -0.0760611 0
M  V30 4819 H 453.196 -0.250968 0.703579 0
M  V30 4820 H 455.858 0.0533325 1.94827 0
M  V30 4821 H 454.954 -1.13626 2.90681 0
M  V30 4822 N 455.255 -1.55392 -0.262866 0
M  V30 4823 C 456.532 -1.67204 -1.01499 0
M  V30 4824 C 456.912 -0.545186 -2.03939 0
M  V30 4825 O 456.26 0.453467 -2.23955 0
M  V30 4826 C 456.47 -3.06847 -1.6627 0
M  V30 4827 C 457.818 -3.64928 -2.17054 0
M  V30 4828 O 458.842 -3.09545 -1.76239 0
M  V30 4829 O 457.701 -4.61984 -2.91947 0
M  V30 4830 H 454.795 -0.679467 -0.471438 0
M  V30 4831 H 457.341 -1.67729 -0.257918 0
M  V30 4832 H 456.113 -3.80309 -0.920915 0
M  V30 4833 H 455.736 -3.10266 -2.48638 0
M  V30 4834 N 456.733 0.527833 -1.48498 0
M  V30 4835 C 457.979 1.28545 -1.56857 0
M  V30 4836 C 458.312 1.92678 -0.242651 0
M  V30 4837 O 457.587 1.79394 0.751545 0
M  V30 4838 C 457.87 2.37314 -2.70839 0
M  V30 4839 C 457.723 1.77858 -4.13142 0
M  V30 4840 C 459.042 3.39068 -2.80573 0
M  V30 4841 H 456.161 0.466006 -0.570971 0
M  V30 4842 H 458.803 0.587784 -1.8068 0
M  V30 4843 H 456.953 2.96821 -2.50658 0
M  V30 4844 H 458.625 1.22385 -4.44769 0
M  V30 4845 H 456.868 1.08383 -4.20042 0
M  V30 4846 H 457.539 2.56624 -4.88721 0
M  V30 4847 H 460.015 2.89518 -2.98862 0
M  V30 4848 H 458.891 4.12566 -3.6205 0
M  V30 4849 H 459.152 3.9975 -1.88818 0
M  V30 4850 N 458.211 1.37122 0.776871 0
M  V30 4851 C 459.459 1.31787 1.53221 0
M  V30 4852 C 459.78 -0.0987589 1.9475 0
M  V30 4853 O 459.05 -1.0417 1.65908 0
M  V30 4854 H 457.63 0.484839 0.568278 0
M  V30 4855 H 460.292 1.71556 0.924917 0
M  V30 4856 H 459.388 1.95355 2.43398 0
M  V30 4857 N 459.689 -1.00246 1.21608 0
M  V30 4858 C 460.919 -1.77373 1.05935 0
M  V30 4859 C 461.327 -1.85059 -0.393686 0
M  V30 4860 O 460.67 -1.31289 -1.28487 0
M  V30 4861 C 460.732 -3.22705 1.58435 0
M  V30 4862 C 460.396 -3.38591 3.06929 0
M  V30 4863 C 461.393 -3.2667 4.04454 0
M  V30 4864 C 459.078 -3.6395 3.46187 0
M  V30 4865 C 461.072 -3.39877 5.39224 0
M  V30 4866 C 458.759 -3.768 4.81108 0
M  V30 4867 C 459.757 -3.6477 5.77436 0
M  V30 4868 O 459.445 -3.77206 7.09909 0
M  V30 4869 H 459.177 -0.56419 0.372378 0
M  V30 4870 H 461.731 -1.26971 1.61454 0
M  V30 4871 H 459.961 -3.74255 0.973147 0
M  V30 4872 H 461.65 -3.81515 1.38568 0
M  V30 4873 H 462.416 -3.06999 3.75468 0
M  V30 4874 H 458.295 -3.72395 2.71741 0
M  V30 4875 H 461.839 -3.30404 6.14393 0
M  V30 4876 H 457.736 -3.95975 5.09779 0
M  V30 4877 H 458.504 -3.94138 7.17355 0
M  V30 4878 N 461.167 -1.02423 -1.1978 0
M  V30 4879 C 462.413 -0.719051 -1.89625 0
M  V30 4880 C 462.746 0.750083 -1.7913 0
M  V30 4881 O 462.021 1.54574 -1.18056 0
M  V30 4882 C 462.304 -1.16499 -3.40735 0
M  V30 4883 C 462.157 -2.695 -3.60125 0
M  V30 4884 C 463.476 -0.742166 -4.33797 0
M  V30 4885 H 460.595 -0.26269 -0.688595 0
M  V30 4886 H 463.237 -1.27333 -1.41018 0
M  V30 4887 H 461.387 -0.69341 -3.82262 0
M  V30 4888 H 463.059 -3.24569 -3.278 0
M  V30 4889 H 461.302 -3.10113 -3.03336 0
M  V30 4890 H 461.973 -2.95757 -4.66081 0
M  V30 4891 H 464.449 -1.1477 -3.99959 0
M  V30 4892 H 463.325 -1.08213 -5.38127 0
M  V30 4893 H 463.586 0.355747 -4.40666 0
M  V30 4894 N 462.645 1.35699 -0.801477 0
M  V30 4895 C 464.056 1.81415 -0.441073 0
M  V30 4896 C 464.407 1.66595 1.03636 0
M  V30 4897 O 463.532 1.19369 1.80499 0
M  V30 4898 C 464.127 3.29369 -0.793819 0
M  V30 4899 C 462.686 3.73248 -0.486083 0
M  V30 4900 C 461.833 2.57775 -1.02213 0
M  V30 4901 H 464.784 1.23749 -0.993572 0
M  V30 4902 H 464.805 3.80395 -0.0894158 0
M  V30 4903 H 464.317 3.40123 -1.86917 0
M  V30 4904 H 462.418 3.68046 0.580735 0
M  V30 4905 H 462.531 4.68222 -1.01513 0
M  V30 4906 H 460.895 2.50788 -0.444712 0
M  V30 4907 H 461.678 2.71309 -2.10348 0
M  V30 4908 N 464.123 0.554532 1.47522 0
M  V30 4909 C 465.37 0.029479 2.02479 0
M  V30 4910 C 465.698 -1.31929 1.42916 0
M  V30 4911 O 464.953 -1.87112 0.573385 0
M  V30 4912 C 465.252 -0.115927 3.57212 0
M  V30 4913 C 464.918 1.16161 4.3568 0
M  V30 4914 C 463.58 1.51168 4.56839 0
M  V30 4915 C 465.932 2.0083 4.80954 0
M  V30 4916 C 463.26 2.70696 5.2052 0
M  V30 4917 C 465.612 3.19559 5.45953 0
M  V30 4918 C 464.276 3.54882 5.65345 0
M  V30 4919 H 463.546 0.0107871 0.740921 0
M  V30 4920 H 466.193 0.725506 1.77225 0
M  V30 4921 H 464.498 -0.894902 3.81443 0
M  V30 4922 H 466.195 -0.53749 3.97381 0
M  V30 4923 H 462.785 0.879026 4.19489 0
M  V30 4924 H 466.969 1.75093 4.64388 0
M  V30 4925 H 462.225 2.98236 5.33728 0
M  V30 4926 H 466.399 3.85456 5.79997 0
M  V30 4927 H 464.026 4.47596 6.1446 0
M  V30 4928 N 465.601 -1.54893 0.290851 0
M  V30 4929 C 466.564 -2.21824 -0.576784 0
M  V30 4930 C 467.564 -1.20104 -1.06919 0
M  V30 4931 O 468.754 -1.44906 -0.966843 0
M  V30 4932 C 465.886 -2.89662 -1.79747 0
M  V30 4933 H 467.079 -2.99899 0.00784051 0
M  V30 4934 H 464.632 -1.56245 0.0415934 0
M  V30 4935 H 465.367 -2.15639 -2.42219 0
M  V30 4936 H 465.152 -3.64219 -1.45214 0
M  V30 4937 H 466.642 -3.4075 -2.4141 0
M  V30 4938 N 467.08 -0.0183926 -1.57589 0
M  V30 4939 C 468.013 1.00148 -2.0505 0
M  V30 4940 C 468.991 1.32387 -0.944058 0
M  V30 4941 O 470.175 1.44237 -1.21358 0
M  V30 4942 C 467.302 2.32435 -2.46357 0
M  V30 4943 C 466.348 2.15731 -3.67916 0
M  V30 4944 S 467.181 1.46613 -5.15039 0
M  V30 4945 C 468.337 2.80293 -5.59631 0
M  V30 4946 H 468.57 0.597429 -2.91235 0
M  V30 4947 H 466.103 0.193002 -1.53189 0
M  V30 4948 H 468.061 3.0849 -2.70822 0
M  V30 4949 H 466.722 2.69975 -1.60537 0
M  V30 4950 H 465.915 3.13502 -3.9463 0
M  V30 4951 H 465.517 1.4782 -3.43548 0
M  V30 4952 H 467.809 3.76557 -5.63215 0
M  V30 4953 H 468.752 2.58256 -6.59325 0
M  V30 4954 H 469.16 2.85047 -4.87246 0
M  V30 4955 N 468.558 1.5553 0.254621 0
M  V30 4956 C 469.806 1.7665 0.981793 0
M  V30 4957 C 470.127 0.580963 1.86145 0
M  V30 4958 O 469.397 -0.403537 1.91699 0
M  V30 4959 H 467.977 0.651475 0.365498 0
M  V30 4960 H 470.639 1.92958 0.274426 0
M  V30 4961 H 469.735 2.67486 1.60802 0
M  V30 4962 N 470.036 -0.519951 1.48776 0
M  V30 4963 C 470.986 -1.61995 1.60442 0
M  V30 4964 C 471.97 -1.54155 0.460991 0
M  V30 4965 O 473.162 -1.62006 0.712965 0
M  V30 4966 C 470.291 -3.00683 1.65664 0
M  V30 4967 C 469.377 -3.1359 2.8552 0
M  V30 4968 N 469.768 -2.96441 4.09825 0
M  V30 4969 C 468.066 -3.44662 2.83062 0
M  V30 4970 C 468.767 -3.1303 4.90293 0
M  V30 4971 N 467.743 -3.41058 4.23297 0
M  V30 4972 H 471.545 -1.47362 2.54287 0
M  V30 4973 H 469.059 -0.725649 1.45286 0
M  V30 4974 H 471.056 -3.79712 1.72117 0
M  V30 4975 H 469.716 -3.16401 0.729425 0
M  V30 4976 H 470.727 -2.72999 4.40104 0
M  V30 4977 H 467.404 -3.66675 1.9964 0
M  V30 4978 H 468.794 -3.04424 5.98979 0
M  V30 4979 N 471.514 -1.37532 -0.769588 0
M  V30 4980 C 472.744 -1.35861 -1.55645 0
M  V30 4981 C 473.152 0.0574398 -1.89113 0
M  V30 4982 O 472.495 1.03021 -1.52093 0
M  V30 4983 C 472.557 -2.13431 -2.89288 0
M  V30 4984 C 472.221 -3.62378 -2.78444 0
M  V30 4985 C 473.218 -4.56215 -2.49326 0
M  V30 4986 C 470.903 -4.05529 -2.96398 0
M  V30 4987 C 472.897 -5.91181 -2.38294 0
M  V30 4988 C 470.584 -5.40579 -2.84987 0
M  V30 4989 C 471.582 -6.33218 -2.55975 0
M  V30 4990 O 471.27 -7.65787 -2.44594 0
M  V30 4991 H 471.002 -0.467001 -0.48876 0
M  V30 4992 H 473.556 -1.81505 -0.961515 0
M  V30 4993 H 471.786 -1.62481 -3.50909 0
M  V30 4994 H 473.475 -2.04368 -3.50697 0
M  V30 4995 H 474.241 -4.24187 -2.35139 0
M  V30 4996 H 470.12 -3.33781 -3.1798 0
M  V30 4997 H 473.664 -6.63457 -2.15571 0
M  V30 4998 H 469.561 -5.72209 -2.98743 0
M  V30 4999 H 470.329 -7.76132 -2.59927 0
M  V30 5000 N 472.992 0.995999 -1.22138 0
M  V30 5001 C 474.238 1.73767 -1.04561 0
M  V30 5002 C 474.571 1.89633 0.418698 0
M  V30 5003 O 473.846 1.43723 1.3105 0
M  V30 5004 C 474.129 3.14505 -1.75382 0
M  V30 5005 C 473.982 3.06306 -3.29388 0
M  V30 5006 C 475.301 4.13615 -1.50369 0
M  V30 5007 H 472.42 0.630728 -0.38125 0
M  V30 5008 H 475.062 1.16057 -1.50435 0
M  V30 5009 H 473.212 3.63775 -1.36383 0
M  V30 5010 H 474.884 2.64681 -3.77812 0
M  V30 5011 H 473.127 2.43186 -3.59226 0
M  V30 5012 H 473.798 4.05884 -3.74116 0
M  V30 5013 H 476.274 3.73089 -1.84239 0
M  V30 5014 H 475.15 5.10212 -2.02421 0
M  V30 5015 H 475.411 4.39949 -0.435611 0
M  V30 5016 N 474.47 1.03057 1.19235 0
M  V30 5017 C 475.38 0.622922 2.26179 0
M  V30 5018 C 476.396 -0.346113 1.70523 0
M  V30 5019 O 477.572 -0.203572 2.00369 0
M  V30 5020 C 474.637 -0.0182063 3.46695 0
M  V30 5021 C 473.698 0.998546 4.17526 0
M  V30 5022 C 472.931 0.387917 5.32288 0
M  V30 5023 O 473.154 -0.808668 5.64639 0
M  V30 5024 O 472.088 1.1116 5.91546 0
M  V30 5025 H 475.914 1.51363 2.63292 0
M  V30 5026 H 473.499 0.800856 1.26122 0
M  V30 5027 H 475.381 -0.375606 4.19723 0
M  V30 5028 H 474.056 -0.882895 3.11427 0
M  V30 5029 H 472.963 1.40756 3.4661 0
M  V30 5030 H 474.296 1.83366 4.56769 0
M  V30 5031 N 475.948 -1.35272 0.808662 0
M  V30 5032 C 476.896 -2.31663 0.208606 0
M  V30 5033 C 477.89 -1.56731 -0.642778 0
M  V30 5034 O 479.096 -1.71843 -0.53571 0
M  V30 5035 H 475.471 -0.750421 0.0486993 0
M  V30 5036 H 477.442 -2.79814 1.03666 0
M  V30 5037 C 476.191 -3.42008 -0.626573 0
M  V30 5038 H 475.514 -3.99795 0.0192103 0
M  V30 5039 H 476.954 -4.11727 -1.01278 0
M  V30 5040 C 475.413 -2.85226 -1.79298 0
M  V30 5041 O 475.943 -2.78945 -2.89055 0
M  V30 5042 N 474.149 -2.42245 -1.60516 0
M  V30 5043 H 473.696 -2.47554 -0.712375 0
M  V30 5044 H 473.654 -2.04603 -2.38715 0
M  V30 5045 N 477.426 -0.562348 -1.47226 0
M  V30 5046 C 478.675 -0.038041 -2.01664 0
M  V30 5047 C 478.988 1.32199 -1.44162 0
M  V30 5048 O 480.194 1.9365 -1.90294 0
M  V30 5049 C 478.65 -0.0174958 -3.59896 0
M  V30 5050 C 478.258 -1.3746 -4.2639 0
M  V30 5051 C 480.002 0.453934 -4.22066 0
M  V30 5052 C 477.909 -1.31289 -5.76643 0
M  V30 5053 H 476.839 -0.0104511 -0.753928 0
M  V30 5054 H 479.49 -0.710966 -1.69167 0
M  V30 5055 H 477.872 0.721182 -3.89378 0
M  V30 5056 H 479.046 -2.1314 -4.08544 0
M  V30 5057 H 477.361 -1.78438 -3.7623 0
M  V30 5058 H 479.958 0.518584 -5.32179 0
M  V30 5059 H 480.301 1.46706 -3.89594 0
M  V30 5060 H 480.834 -0.230044 -3.97134 0
M  V30 5061 H 477.573 -2.30217 -6.13743 0
M  V30 5062 H 477.093 -0.597973 -5.96812 0
M  V30 5063 H 478.772 -1.01713 -6.38955 0
M  V30 5064 N 478.904 1.54736 -0.299062 0
M  V30 5065 C 480.152 1.99706 0.31017 0
M  V30 5066 C 480.473 1.18896 1.54559 0
M  V30 5067 O 479.743 0.284445 1.93824 0
M  V30 5068 H 478.323 0.737686 0.117596 0
M  V30 5069 H 480.985 1.9054 -0.409943 0
M  V30 5070 H 480.081 3.06596 0.58355 0
M  V30 5071 N 480.382 0.0267497 1.57577 0
M  V30 5072 C 481.659 -0.690926 1.82991 0
M  V30 5073 C 482.039 -1.90471 0.910164 0
M  V30 5074 O 481.387 -2.28474 -0.0347985 0
M  V30 5075 C 481.597 -1.07139 3.32148 0
M  V30 5076 C 482.945 -1.46402 3.98562 0
M  V30 5077 O 483.969 -1.16443 3.36629 0
M  V30 5078 O 482.828 -2.02214 5.07712 0
M  V30 5079 H 479.922 -0.338747 0.75444 0
M  V30 5080 H 482.468 0.0542506 1.69613 0
M  V30 5081 H 481.24 -0.207394 3.9075 0
M  V30 5082 H 480.863 -1.87481 3.50623 0
M  V30 5083 N 481.861 -1.55662 -0.24637 0
M  V30 5084 C 482.771 -1.93495 -1.32653 0
M  V30 5085 C 483.787 -0.835462 -1.5263 0
M  V30 5086 O 484.963 -1.1369 -1.66242 0
M  V30 5087 C 482.028 -2.22242 -2.66101 0
M  V30 5088 C 481.089 -3.45625 -2.54641 0
M  V30 5089 C 480.322 -3.72991 -3.81724 0
M  V30 5090 O 480.545 -3.02421 -4.8363 0
M  V30 5091 O 479.479 -4.66515 -3.80325 0
M  V30 5092 H 483.305 -2.85498 -1.03559 0
M  V30 5093 H 480.89 -1.42551 -0.44717 0
M  V30 5094 H 482.772 -2.42037 -3.44958 0
M  V30 5095 H 481.447 -1.33417 -2.94926 0
M  V30 5096 H 480.354 -3.31136 -1.74067 0
M  V30 5097 H 481.687 -4.34754 -2.3076 0
M  V30 5098 N 483.339 0.512053 -1.4905 0
M  V30 5099 C 484.75 1.09376 -1.51307 0
M  V30 5100 C 485.101 1.94 -0.292971 0
M  V30 5101 O 484.226 2.07965 0.598277 0
M  V30 5102 C 484.821 1.99031 -2.74176 0
M  V30 5103 C 483.38 2.52385 -2.79247 0
M  V30 5104 C 482.527 1.29749 -2.45073 0
M  V30 5105 H 485.478 0.296467 -1.55906 0
M  V30 5106 H 485.499 2.83569 -2.53711 0
M  V30 5107 H 485.011 1.37412 -3.62959 0
M  V30 5108 H 483.112 3.17673 -1.94716 0
M  V30 5109 H 483.225 2.90293 -3.81139 0
M  V30 5110 H 481.589 1.61912 -1.96612 0
M  V30 5111 H 482.372 0.698555 -3.36118 0
M  V30 5112 N 484.817 1.37938 0.762283 0
M  V30 5113 C 485.747 1.37176 1.88958 0
M  V30 5114 C 486.728 0.238945 1.68413 0
M  V30 5115 O 487.913 0.440726 1.89133 0
M  V30 5116 C 485.043 1.18742 3.2637 0
M  V30 5117 C 483.997 2.29136 3.61498 0
M  V30 5118 C 483.323 1.95816 4.97554 0
M  V30 5119 C 484.623 3.71363 3.6727 0
M  V30 5120 H 486.317 2.31509 1.89853 0
M  V30 5121 H 483.863 1.11438 0.912005 0
M  V30 5122 H 485.816 1.16837 4.04879 0
M  V30 5123 H 484.54 0.208683 3.25933 0
M  V30 5124 H 483.199 2.30213 2.85303 0
M  V30 5125 H 482.847 0.964475 4.93667 0
M  V30 5126 H 482.547 2.69745 5.22026 0
M  V30 5127 H 484.071 1.95513 5.78452 0
M  V30 5128 H 485.485 3.72364 4.35911 0
M  V30 5129 H 483.882 4.44425 4.03245 0
M  V30 5130 H 484.952 4.04305 2.67704 0
M  V30 5131 N 486.295 -0.989507 1.22664 0
M  V30 5132 C 487.541 -1.7321 1.05481 0
M  V30 5133 C 487.874 -1.89852 -0.408635 0
M  V30 5134 O 487.149 -1.44416 -1.30285 0
M  V30 5135 C 487.432 -3.1357 1.77047 0
M  V30 5136 C 487.285 -3.04555 3.31008 0
M  V30 5137 C 488.604 -4.12812 1.5256 0
M  V30 5138 H 485.723 -0.628697 0.384589 0
M  V30 5139 H 488.365 -1.15258 1.51049 0
M  V30 5140 H 486.515 -3.63046 1.3831 0
M  V30 5141 H 488.187 -2.62674 3.7921 0
M  V30 5142 H 486.43 -2.41278 3.6051 0
M  V30 5143 H 487.101 -4.03894 3.76263 0
M  V30 5144 H 489.577 -3.72106 1.86215 0
M  V30 5145 H 488.453 -5.09132 2.05124 0
M  V30 5146 H 488.714 -4.39711 0.458936 0
M  V30 5147 N 487.773 -1.03688 -1.18687 0
M  V30 5148 C 489.02 -0.73803 -1.88572 0
M  V30 5149 C 489.348 0.733973 -1.8012 0
M  V30 5150 O 488.603 1.55098 -1.19344 0
M  V30 5151 C 488.902 -1.14477 -3.3857 0
M  V30 5152 C 488.568 -2.61641 -3.67226 0
M  V30 5153 C 487.23 -3.01846 -3.74757 0
M  V30 5154 C 489.582 -3.56812 -3.79914 0
M  V30 5155 C 486.91 -4.36118 -3.92451 0
M  V30 5156 C 489.262 -4.90799 -3.99123 0
M  V30 5157 C 487.926 -5.3068 -4.04888 0
M  V30 5158 H 487.196 -0.270064 -0.690034 0
M  V30 5159 H 489.843 -1.3012 -1.40503 0
M  V30 5160 H 488.148 -0.500337 -3.88592 0
M  V30 5161 H 489.845 -0.89095 -3.90977 0
M  V30 5162 H 486.435 -2.29498 -3.61979 0
M  V30 5163 H 490.619 -3.26899 -3.73431 0
M  V30 5164 H 485.875 -4.66542 -3.95157 0
M  V30 5165 H 490.049 -5.64451 -4.07882 0
M  V30 5166 H 487.676 -6.34733 -4.18351 0
M  V30 5167 N 489.251 1.34841 -0.815825 0
M  V30 5168 C 490.181 2.32187 -0.247298 0
M  V30 5169 C 491.162 1.5791 0.632344 0
M  V30 5170 O 492.347 1.8593 0.560698 0
M  V30 5171 C 489.477 3.42122 0.597466 0
M  V30 5172 C 488.431 4.27602 -0.184446 0
M  V30 5173 C 487.757 5.28942 0.782609 0
M  V30 5174 C 489.057 5.03502 -1.38865 0
M  V30 5175 H 490.751 2.79985 -1.06061 0
M  V30 5176 H 488.297 1.34611 -0.511461 0
M  V30 5177 H 490.25 4.09232 1.00533 0
M  V30 5178 H 488.974 2.92956 1.44376 0
M  V30 5179 H 487.633 3.62085 -0.573592 0
M  V30 5180 H 487.281 4.7604 1.62466 0
M  V30 5181 H 486.981 5.87008 0.263695 0
M  V30 5182 H 488.505 5.98922 1.18848 0
M  V30 5183 H 489.919 5.63506 -1.05518 0
M  V30 5184 H 488.316 5.71108 -1.8427 0
M  V30 5185 H 489.386 4.33608 -2.17054 0
M  V30 5186 N 490.729 0.570148 1.46925 0
M  V30 5187 C 491.639 -0.173061 2.33961 0
M  V30 5188 C 492.655 -0.898825 1.48987 0
M  V30 5189 O 493.831 -0.864825 1.81887 0
M  V30 5190 C 490.896 -1.18177 3.25937 0
M  V30 5191 C 489.957 -0.462041 4.26806 0
M  V30 5192 C 489.19 -1.4227 5.14388 0
M  V30 5193 O 489.413 -2.65842 5.04662 0
M  V30 5194 O 488.347 -0.940127 5.94513 0
M  V30 5195 H 492.173 0.541216 2.98839 0
M  V30 5196 H 489.758 0.330647 1.45695 0
M  V30 5197 H 491.64 -1.76372 3.82715 0
M  V30 5198 H 490.315 -1.87774 2.63671 0
M  V30 5199 H 489.222 0.161429 3.73752 0
M  V30 5200 H 490.555 0.192719 4.91823 0
M  V30 5201 N 492.207 -1.54576 0.307264 0
M  V30 5202 C 493.456 -1.99442 -0.300976 0
M  V30 5203 C 493.769 -1.19928 -1.5452 0
M  V30 5204 O 494.975 -1.55092 -2.22842 0
M  V30 5205 C 493.431 -3.55084 -0.586809 0
M  V30 5206 C 493.039 -4.43413 0.639438 0
M  V30 5207 C 494.783 -4.0846 -1.1559 0
M  V30 5208 C 492.69 -5.90499 0.326411 0
M  V30 5209 H 491.62 -0.744986 -0.116238 0
M  V30 5210 H 494.271 -1.787 0.416947 0
M  V30 5211 H 492.653 -3.71749 -1.36449 0
M  V30 5212 H 493.827 -4.38522 1.41545 0
M  V30 5213 H 492.142 -4.00842 1.1276 0
M  V30 5214 H 494.739 -5.15926 -1.40445 0
M  V30 5215 H 495.082 -3.59443 -2.10015 0
M  V30 5216 H 495.615 -3.95362 -0.439778 0
M  V30 5217 H 492.354 -6.43676 1.23939 0
M  V30 5218 H 491.874 -5.98382 -0.412212 0
M  V30 5219 H 493.553 -6.46962 -0.0697393 0
M  V30 5220 N 493.685 -0.035106 -1.57561 0
M  V30 5221 C 494.932 0.642229 -1.92046 0
M  V30 5222 C 495.26 1.7179 -0.91206 0
M  V30 5223 O 494.515 1.95544 0.0781153 0
M  V30 5224 C 494.814 1.29149 -3.3325 0
M  V30 5225 C 494.48 0.345604 -4.49574 0
M  V30 5226 C 493.142 0.0852775 -4.81124 0
M  V30 5227 C 495.494 -0.303569 -5.20315 0
M  V30 5228 C 492.822 -0.831927 -5.80772 0
M  V30 5229 C 495.174 -1.20886 -6.20942 0
M  V30 5230 C 493.838 -1.47802 -6.50931 0
M  V30 5231 H 493.108 0.235008 -0.702746 0
M  V30 5232 H 495.755 -0.0981529 -1.91248 0
M  V30 5233 H 494.06 2.10676 -3.30337 0
M  V30 5234 H 495.757 1.82223 -3.57205 0
M  V30 5235 H 492.347 0.558683 -4.24943 0
M  V30 5236 H 496.531 -0.115515 -4.96166 0
M  V30 5237 H 491.787 -1.0481 -6.02349 0
M  V30 5238 H 495.961 -1.71804 -6.74875 0
M  V30 5239 H 493.588 -2.19039 -7.2796 0
M  V30 5240 N 495.163 1.55791 0.238111 0
M  V30 5241 C 496.11 1.9105 1.29493 0
M  V30 5242 C 497.08 0.765733 1.47397 0
M  V30 5243 O 498.265 1.02017 1.61236 0
M  V30 5244 C 495.405 2.21826 2.64362 0
M  V30 5245 C 494.518 3.49153 2.54394 0
M  V30 5246 C 493.653 3.69455 3.81676 0
M  V30 5247 C 492.692 4.90353 3.66361 0
M  V30 5248 N 491.829 5.07131 4.85554 0
M  V30 5249 H 496.669 2.81172 0.987233 0
M  V30 5250 H 494.206 1.39179 0.476203 0
M  V30 5251 H 496.164 2.37675 3.4288 0
M  V30 5252 H 494.794 1.34897 2.93262 0
M  V30 5253 H 493.846 3.41587 1.67399 0
M  V30 5254 H 495.158 4.37818 2.38991 0
M  V30 5255 H 494.312 3.85311 4.68636 0
M  V30 5256 H 493.051 2.7904 3.99985 0
M  V30 5257 H 492.056 4.74464 2.77784 0
M  V30 5258 H 493.281 5.82237 3.49538 0
M  V30 5259 H 491.227 4.19654 5.04209 0
M  V30 5260 H 491.144 5.89899 4.72816 0
M  V30 5261 H 492.412 5.27407 5.73988 0
M  V30 5262 N 496.642 -0.504142 1.49319 0
M  V30 5263 C 497.919 -1.26548 1.49147 0
M  V30 5264 C 498.299 -2.09977 0.21744 0
M  V30 5265 O 497.647 -2.14028 -0.800269 0
M  V30 5266 C 497.857 -2.12489 2.76857 0
M  V30 5267 C 499.205 -2.7178 3.26222 0
M  V30 5268 O 500.229 -2.22758 2.77952 0
M  V30 5269 O 499.088 -3.61015 4.10281 0
M  V30 5270 H 496.182 -0.572495 0.596806 0
M  V30 5271 H 498.728 -0.51867 1.61579 0
M  V30 5272 H 497.5 -1.50796 3.61077 0
M  V30 5273 H 497.123 -2.94368 2.6727 0
M  V30 5274 N 498.12 -1.38341 -0.754957 0
M  V30 5275 C 499.397 -1.24995 -1.50451 0
M  V30 5276 C 499.777 0.149244 -2.10572 0
M  V30 5277 O 499.125 1.15861 -1.96948 0
M  V30 5278 C 499.335 -2.35904 -2.57197 0
M  V30 5279 C 500.683 -2.74262 -3.24138 0
M  V30 5280 O 501.707 -2.35205 -2.67501 0
M  V30 5281 O 500.566 -3.4161 -4.26574 0
M  V30 5282 H 497.66 -0.48872 -0.667144 0
M  V30 5283 H 500.206 -1.50165 -0.790486 0
M  V30 5284 H 498.978 -3.2953 -2.11011 0
M  V30 5285 H 498.601 -2.12291 -3.36182 0
M  V30 5286 N 499.598 0.982988 -1.23187 0
M  V30 5287 C 500.548 2.05962 -0.977942 0
M  V30 5288 C 501.532 1.60725 0.0751148 0
M  V30 5289 O 502.724 1.76471 -0.136683 0
M  V30 5290 C 499.853 3.38564 -0.568276 0
M  V30 5291 C 498.939 3.90407 -1.6566 0
M  V30 5292 N 499.33 4.15359 -2.88635 0
M  V30 5293 C 497.628 4.18915 -1.53058 0
M  V30 5294 C 498.329 4.57642 -3.5908 0
M  V30 5295 N 497.305 4.6192 -2.86584 0
M  V30 5296 H 501.107 2.23208 -1.91195 0
M  V30 5297 H 498.621 1.16555 -1.13087 0
M  V30 5298 H 500.618 4.15276 -0.36764 0
M  V30 5299 H 499.278 3.22712 0.358713 0
M  V30 5300 H 500.289 4.03258 -3.24966 0
M  V30 5301 H 496.966 4.12081 -0.670506 0
M  V30 5302 H 498.356 4.85488 -4.6449 0
M  V30 5303 N 501.076 1.04316 1.18135 0
M  V30 5304 C 502.306 0.767003 1.91835 0
M  V30 5305 C 502.714 -0.68002 1.76557 0
M  V30 5306 O 502.057 -1.47548 1.09432 0
M  V30 5307 C 502.119 1.05674 3.43618 0
M  V30 5308 C 501.783 2.49818 3.82675 0
M  V30 5309 C 502.78 3.48003 3.86251 0
M  V30 5310 C 500.465 2.84596 4.13897 0
M  V30 5311 C 502.459 4.79016 4.20503 0
M  V30 5312 C 500.146 4.15813 4.4782 0
M  V30 5313 C 501.144 5.12834 4.51099 0
M  V30 5314 O 500.832 6.41699 4.84229 0
M  V30 5315 H 500.564 0.278948 0.615763 0
M  V30 5316 H 503.118 1.3946 1.50798 0
M  V30 5317 H 501.348 0.372029 3.84906 0
M  V30 5318 H 503.037 0.767994 3.98568 0
M  V30 5319 H 503.803 3.22475 3.62264 0
M  V30 5320 H 499.682 2.09748 4.1052 0
M  V30 5321 H 503.226 5.54739 4.22978 0
M  V30 5322 H 499.123 4.41109 4.71268 0
M  V30 5323 H 499.891 6.46387 5.02121 0
M  V30 5324 N 502.554 -1.34406 0.822964 0
M  V30 5325 C 503.517 -2.2783 0.250271 0
M  V30 5326 C 504.517 -1.50288 -0.571854 0
M  V30 5327 O 505.707 -1.69825 -0.387952 0
M  V30 5328 C 502.839 -3.34663 -0.649137 0
M  V30 5329 H 504.032 -2.79992 1.07444 0
M  V30 5330 H 501.585 -1.44539 0.594829 0
M  V30 5331 H 502.32 -2.87714 -1.49637 0
M  V30 5332 H 502.105 -3.92052 -0.0611199 0
M  V30 5333 H 503.595 -4.04349 -1.04363 0
M  V30 5334 N 504.032 -0.577932 -1.46621 0
M  V30 5335 C 505.309 0.00495287 -1.95599 0
M  V30 5336 C 505.689 1.46428 -1.5206 0
M  V30 5337 O 505.037 2.1517 -0.769046 0
M  V30 5338 C 505.247 -0.162114 -3.48623 0
M  V30 5339 C 506.595 -0.0274623 -4.24591 0
M  V30 5340 O 507.619 -0.0907067 -3.56084 0
M  V30 5341 O 506.478 0.1122 -5.46385 0
M  V30 5342 H 503.572 0.0525057 -0.825332 0
M  V30 5343 H 506.118 -0.645914 -1.56927 0
M  V30 5344 H 504.89 -1.17679 -3.73185 0
M  V30 5345 H 504.513 0.525407 -3.94113 0
M  V30 5346 N 505.51 1.54411 -0.315457 0
M  V30 5347 C 506.756 2.00716 0.289972 0
M  V30 5348 C 507.089 1.2034 1.5242 0
M  V30 5349 O 506.364 0.283579 1.92422 0
M  V30 5350 C 506.647 3.54507 0.632196 0
M  V30 5351 C 506.5 4.45615 -0.61218 0
M  V30 5352 C 507.819 4.15421 1.45305 0
M  V30 5353 H 504.938 0.729637 0.10392 0
M  V30 5354 H 507.58 1.8506 -0.430427 0
M  V30 5355 H 505.73 3.67979 1.24595 0
M  V30 5356 H 507.402 4.44026 -1.25053 0
M  V30 5357 H 505.645 4.15621 -1.24264 0
M  V30 5358 H 506.316 5.51022 -0.328379 0
M  V30 5359 H 508.792 4.05474 0.934331 0
M  V30 5360 H 507.668 5.23157 1.66127 0
M  V30 5361 H 507.929 3.68223 2.44671 0
M  V30 5362 N 506.988 0.0434614 1.5754 0
M  V30 5363 C 508.213 -0.645358 1.97104 0
M  V30 5364 C 508.638 -1.64037 0.920521 0
M  V30 5365 O 507.996 -1.80922 -0.11708 0
M  V30 5366 C 508.044 -1.31547 3.35749 0
M  V30 5367 O 507.148 -2.43103 3.33129 0
M  V30 5368 H 506.489 -0.168403 0.64229 0
M  V30 5369 H 509.019 0.109573 2.04306 0
M  V30 5370 H 509.029 -1.66895 3.72304 0
M  V30 5371 H 507.704 -0.586205 4.11748 0
M  V30 5372 H 506.281 -2.0976 3.0831 0
M  V30 5373 N 508.466 -1.55915 -0.229846 0
M  V30 5374 C 509.396 -1.94754 -1.28815 0
M  V30 5375 C 510.377 -0.814657 -1.49323 0
M  V30 5376 O 511.562 -1.07631 -1.61645 0
M  V30 5377 C 508.692 -2.25705 -2.63959 0
M  V30 5378 C 507.646 -3.41406 -2.5812 0
M  V30 5379 C 506.972 -3.57941 -3.97218 0
M  V30 5380 C 508.272 -4.76616 -2.13623 0
M  V30 5381 H 509.966 -2.83404 -0.965547 0
M  V30 5382 H 507.512 -1.36353 -0.463028 0
M  V30 5383 H 509.465 -2.51467 -3.38146 0
M  V30 5384 H 508.189 -1.339 -2.9789 0
M  V30 5385 H 506.848 -3.1568 -1.86391 0
M  V30 5386 H 506.496 -2.63526 -4.28443 0
M  V30 5387 H 506.196 -4.35757 -3.94195 0
M  V30 5388 H 507.72 -3.86042 -4.73079 0
M  V30 5389 H 509.134 -5.01637 -2.77549 0
M  V30 5390 H 507.531 -5.57655 -2.21677 0
M  V30 5391 H 508.601 -4.7253 -1.08829 0
M  V30 5392 N 509.944 0.496216 -1.49584 0
M  V30 5393 C 510.892 1.61805 -1.67098 0
M  V30 5394 C 511.886 1.60667 -0.536877 0
M  V30 5395 O 513.092 1.65118 -0.716654 0
M  V30 5396 H 509.467 0.53646 -0.526986 0
M  V30 5397 H 511.438 1.44187 -2.61252 0
M  V30 5398 C 510.187 2.99912 -1.75921 0
M  V30 5399 H 509.51 3.01496 -2.62565 0
M  V30 5400 H 510.95 3.77931 -1.92209 0
M  V30 5401 C 509.409 3.33092 -0.505088 0
M  V30 5402 O 509.939 4.00019 0.367085 0
M  V30 5403 N 508.145 2.88278 -0.366599 0
M  V30 5404 H 507.692 2.33989 -1.07735 0
M  V30 5405 H 507.65 3.10846 0.47142 0
M  V30 5406 N 511.423 1.38739 0.74761 0
M  V30 5407 C 512.355 1.32341 1.87132 0
M  V30 5408 C 513.368 0.234502 1.61102 0
M  V30 5409 O 514.557 0.492516 1.71571 0
M  V30 5410 C 511.657 1.02915 3.22896 0
M  V30 5411 C 510.83 2.22834 3.76383 0
M  V30 5412 C 509.889 1.90059 4.90677 0
M  V30 5413 O 508.915 2.62615 5.04997 0
M  V30 5414 N 510.117 0.859141 5.74107 0
M  V30 5415 H 512.882 2.29175 1.93129 0
M  V30 5416 H 510.443 1.32678 0.927805 0
M  V30 5417 H 512.435 0.79031 3.96908 0
M  V30 5418 H 511.005 0.148572 3.12247 0
M  V30 5419 H 510.225 2.62747 2.93867 0
M  V30 5420 H 511.513 3.02851 4.08851 0
M  V30 5421 H 510.911 0.257564 5.65113 0
M  V30 5422 H 509.468 0.680189 6.48241 0
M  V30 5423 N 512.901 -0.976442 1.23707 0
M  V30 5424 C 514.147 -1.72158 1.08319 0
M  V30 5425 C 514.502 -1.88701 -0.375445 0
M  V30 5426 O 513.795 -1.43107 -1.274 0
M  V30 5427 C 513.989 -3.11814 1.74662 0
M  V30 5428 C 513.818 -3.08892 3.26827 0
M  V30 5429 C 512.588 -3.13861 3.96004 0
M  V30 5430 C 514.786 -2.9175 4.2354 0
M  V30 5431 N 512.768 -3.00867 5.35119 0
M  V30 5432 C 514.139 -2.8696 5.49595 0
M  V30 5433 C 516.194 -2.76265 4.14225 0
M  V30 5434 C 514.897 -2.68268 6.67401 0
M  V30 5435 C 516.923 -2.58938 5.317 0
M  V30 5436 C 516.285 -2.54849 6.56682 0
M  V30 5437 H 512.384 -0.638896 0.450927 0
M  V30 5438 H 514.968 -1.15835 1.56494 0
M  V30 5439 H 513.139 -3.66347 1.29014 0
M  V30 5440 H 514.871 -3.74984 1.52215 0
M  V30 5441 H 511.626 -3.22198 3.4711 0
M  V30 5442 H 512.05 -2.97634 6.08065 0
M  V30 5443 H 516.692 -2.78213 3.18366 0
M  V30 5444 H 514.41 -2.65063 7.63392 0
M  V30 5445 H 517.996 -2.47914 5.26336 0
M  V30 5446 H 516.876 -2.41611 7.46052 0
M  V30 5447 N 514.379 -1.04941 -1.1758 0
M  V30 5448 C 515.309 -0.669172 -2.23706 0
M  V30 5449 C 516.29 0.331835 -1.66832 0
M  V30 5450 O 517.475 0.209988 -1.93061 0
M  V30 5451 C 514.605 -0.0404889 -3.47276 0
M  V30 5452 C 513.559 -0.965983 -4.16957 0
M  V30 5453 C 512.885 -0.201312 -5.34321 0
M  V30 5454 C 514.185 -2.28902 -4.69469 0
M  V30 5455 H 515.879 -1.55639 -2.55767 0
M  V30 5456 H 513.425 -0.749793 -1.22939 0
M  V30 5457 H 515.378 0.237298 -4.20731 0
M  V30 5458 H 514.102 0.881658 -3.14475 0
M  V30 5459 H 512.761 -1.22829 -3.45411 0
M  V30 5460 H 512.409 0.723519 -4.97769 0
M  V30 5461 H 512.109 -0.817968 -5.81879 0
M  V30 5462 H 513.633 0.0692499 -6.10561 0
M  V30 5463 H 515.047 -2.07132 -5.34574 0
M  V30 5464 H 513.444 -2.85942 -5.27596 0
M  V30 5465 H 514.514 -2.92937 -3.86414 0
M  V30 5466 N 515.857 1.33968 -0.830081 0
M  V30 5467 C 516.82 2.27694 -0.26235 0
M  V30 5468 C 517.82 1.50589 0.563876 0
M  V30 5469 O 519.01 1.70028 0.378941 0
M  V30 5470 C 516.142 3.35002 0.63138 0
M  V30 5471 H 517.335 2.79419 -1.08928 0
M  V30 5472 H 514.888 1.44221 -0.602486 0
M  V30 5473 H 515.623 2.88504 1.48109 0
M  V30 5474 H 515.408 3.92079 0.0403276 0
M  V30 5475 H 516.898 4.04897 1.02217 0
M  V30 5476 N 517.335 0.585699 1.46312 0
M  V30 5477 C 518.268 -0.194257 2.27372 0
M  V30 5478 C 519.246 -0.894116 1.3581 0
M  V30 5479 O 520.43 -0.907402 1.65222 0
M  V30 5480 C 517.557 -1.27901 3.13622 0
M  V30 5481 C 516.603 -0.684666 4.20969 0
M  V30 5482 S 517.436 0.490745 5.33247 0
M  V30 5483 C 518.592 -0.595137 6.23064 0
M  V30 5484 H 518.825 0.493515 2.93175 0
M  V30 5485 H 516.358 0.372666 1.49835 0
M  V30 5486 H 518.316 -1.90008 3.63878 0
M  V30 5487 H 516.977 -1.93875 2.47126 0
M  V30 5488 H 516.17 -1.50015 4.81156 0
M  V30 5489 H 515.772 -0.139204 3.73741 0
M  V30 5490 H 518.064 -1.48002 6.61137 0
M  V30 5491 H 519.007 -0.0299446 7.08094 0
M  V30 5492 H 519.415 -0.900627 5.57269 0
M  V30 5493 N 518.813 -1.54241 0.323641 0
M  V30 5494 C 519.743 -2.27289 -0.534993 0
M  V30 5495 C 520.724 -1.28087 -1.11927 0
M  V30 5496 O 521.909 -1.56899 -1.14439 0
M  V30 5497 C 519.039 -3.03075 -1.69596 0
M  V30 5498 C 517.993 -4.09614 -1.24098 0
M  V30 5499 C 517.319 -4.73242 -2.4889 0
M  V30 5500 C 518.619 -5.21087 -0.355789 0
M  V30 5501 H 520.313 -2.99308 0.0743257 0
M  V30 5502 H 517.859 -1.43952 0.0371874 0
M  V30 5503 H 519.812 -3.52907 -2.30293 0
M  V30 5504 H 518.536 -2.28673 -2.33187 0
M  V30 5505 H 517.195 -3.60666 -0.656945 0
M  V30 5506 H 516.843 -3.95455 -3.10845 0
M  V30 5507 H 516.543 -5.45209 -2.19138 0
M  V30 5508 H 518.067 -5.25848 -3.10348 0
M  V30 5509 H 519.481 -5.66675 -0.869042 0
M  V30 5510 H 517.878 -5.9991 -0.151045 0
M  V30 5511 H 518.948 -4.81005 0.613339 0
M  V30 5512 N 520.291 -0.0518155 -1.57515 0
M  V30 5513 C 521.702 0.483787 -1.80323 0
M  V30 5514 C 522.053 1.70879 -0.964099 0
M  V30 5515 O 521.178 2.15643 -0.180872 0
M  V30 5516 C 521.773 0.884459 -3.27052 0
M  V30 5517 C 520.332 1.36504 -3.50776 0
M  V30 5518 C 519.479 0.340539 -2.75201 0
M  V30 5519 H 522.43 -0.277691 -1.56252 0
M  V30 5520 H 522.451 1.74733 -3.38007 0
M  V30 5521 H 521.963 -0.00731093 -3.88099 0
M  V30 5522 H 520.064 2.27598 -2.95009 0
M  V30 5523 H 520.177 1.35675 -4.59488 0
M  V30 5524 H 518.541 0.81356 -2.41357 0
M  V30 5525 H 519.324 -0.543156 -3.38976 0
M  V30 5526 N 521.769 1.56035 0.221574 0
M  V30 5527 C 522.679 1.95581 1.29558 0
M  V30 5528 C 523.695 0.859639 1.51282 0
M  V30 5529 O 524.871 1.16321 1.64413 0
M  V30 5530 C 521.936 2.26447 2.62531 0
M  V30 5531 C 520.997 3.49632 2.4911 0
M  V30 5532 C 520.23 3.79017 3.75742 0
M  V30 5533 O 520.453 3.10077 4.78757 0
M  V30 5534 O 519.387 4.72507 3.72855 0
M  V30 5535 H 523.213 2.8711 0.990035 0
M  V30 5536 H 520.798 1.43244 0.424434 0
M  V30 5537 H 522.68 2.47494 3.41064 0
M  V30 5538 H 521.355 1.38092 2.92766 0
M  V30 5539 H 520.262 3.33864 1.68777 0
M  V30 5540 H 521.595 4.3837 2.23814 0
M  V30 5541 N 523.247 -0.488276 1.49845 0
M  V30 5542 C 524.475 -1.26527 1.63702 0
M  V30 5543 C 524.89 -1.8618 0.313447 0
M  V30 5544 O 524.247 -1.68432 -0.702624 0
M  V30 5545 C 524.298 -2.3864 2.71538 0
M  V30 5546 O 524.019 -1.81437 3.98763 0
M  V30 5547 C 525.52 -3.29805 2.96215 0
M  V30 5548 H 522.74 -0.383295 0.55075 0
M  V30 5549 H 525.284 -0.584779 1.95961 0
M  V30 5550 H 523.439 -3.02496 2.42023 0
M  V30 5551 H 523.853 -2.55135 4.58265 0
M  V30 5552 H 525.327 -4.04722 3.75372 0
M  V30 5553 H 525.804 -3.87563 2.06619 0
M  V30 5554 H 526.41 -2.71703 3.27196 0
M  V30 5555 N 524.725 -1.39134 -0.740242 0
M  V30 5556 C 525.972 -1.36071 -1.49969 0
M  V30 5557 C 526.3 0.0450245 -1.94448 0
M  V30 5558 O 525.555 1.02482 -1.66721 0
M  V30 5559 C 525.854 -2.27457 -2.75678 0
M  V30 5560 C 525.52 -3.75185 -2.50094 0
M  V30 5561 C 524.182 -4.15439 -2.42825 0
M  V30 5562 C 526.534 -4.68643 -2.28086 0
M  V30 5563 C 523.862 -5.4722 -2.11584 0
M  V30 5564 C 526.214 -6.00695 -1.98363 0
M  V30 5565 C 524.878 -6.40018 -1.8956 0
M  V30 5566 H 524.148 -0.497921 -0.548777 0
M  V30 5567 H 526.795 -1.71599 -0.85007 0
M  V30 5568 H 525.1 -1.8503 -3.45356 0
M  V30 5569 H 526.797 -2.22384 -3.33686 0
M  V30 5570 H 523.387 -3.43279 -2.56627 0
M  V30 5571 H 527.571 -4.3838 -2.32672 0
M  V30 5572 H 522.827 -5.76615 -2.03287 0
M  V30 5573 H 527.001 -6.72644 -1.80341 0
M  V30 5574 H 524.628 -7.42051 -1.65117 0
M  V30 5575 N 526.204 0.969867 -1.24223 0
M  V30 5576 C 527.45 1.7151 -1.08223 0
M  V30 5577 C 527.783 1.90478 0.37838 0
M  V30 5578 O 527.058 1.4647 1.27971 0
M  V30 5579 C 527.341 3.10714 -1.82013 0
M  V30 5580 C 527.194 2.9925 -3.35811 0
M  V30 5581 C 528.513 4.10332 -1.59108 0
M  V30 5582 H 525.632 0.622499 -0.394543 0
M  V30 5583 H 528.274 1.1284 -1.52863 0
M  V30 5584 H 526.424 3.608 -1.44068 0
M  V30 5585 H 528.096 2.56608 -3.83341 0
M  V30 5586 H 526.339 2.35512 -3.64303 0
M  V30 5587 H 527.01 3.97857 -3.82641 0
M  V30 5588 H 529.486 3.69097 -1.92111 0
M  V30 5589 H 528.362 5.05804 -2.13198 0
M  V30 5590 H 528.623 4.38926 -0.528832 0
M  V30 5591 N 527.682 1.05563 1.17022 0
M  V30 5592 C 528.614 0.617888 2.20714 0
M  V30 5593 C 529.627 -0.320303 1.59618 0
M  V30 5594 O 530.816 -0.112449 1.78145 0
M  V30 5595 C 527.916 -0.115333 3.38704 0
M  V30 5596 C 527.089 0.834493 4.29366 0
M  V30 5597 C 526.148 0.141855 5.26009 0
M  V30 5598 O 525.174 0.777151 5.6387 0
M  V30 5599 N 526.376 -1.11934 5.69606 0
M  V30 5600 H 529.141 1.50981 2.58892 0
M  V30 5601 H 526.702 0.938008 1.31958 0
M  V30 5602 H 528.694 -0.588918 4.00392 0
M  V30 5603 H 527.264 -0.908967 2.99093 0
M  V30 5604 H 526.484 1.48762 3.65053 0
M  V30 5605 H 527.772 1.4791 4.86827 0
M  V30 5606 H 527.17 -1.65574 5.40927 0
M  V30 5607 H 525.727 -1.53692 6.33421 0
M  V30 5608 N 529.16 -1.33526 0.837174 0
M  V30 5609 C 530.123 -2.27551 0.274421 0
M  V30 5610 C 531.123 -1.50886 -0.555881 0
M  V30 5611 O 532.313 -1.70227 -0.369918 0
M  V30 5612 C 529.445 -3.35332 -0.613605 0
M  V30 5613 H 530.638 -2.78837 1.10408 0
M  V30 5614 H 528.191 -1.439 0.610126 0
M  V30 5615 H 528.926 -2.89285 -1.46577 0
M  V30 5616 H 528.711 -3.92095 -0.0195341 0
M  V30 5617 H 530.201 -4.05433 -1.00068 0
M  V30 5618 N 530.638 -0.59345 -1.46 0
M  V30 5619 C 531.588 0.154751 -2.27474 0
M  V30 5620 C 532.572 0.851849 -1.365 0
M  V30 5621 O 533.764 0.744171 -1.60596 0
M  V30 5622 C 530.893 1.16079 -3.2308 0
M  V30 5623 C 529.979 0.465256 -4.2154 0
M  V30 5624 N 530.37 -0.485197 -5.03467 0
M  V30 5625 C 528.668 0.714634 -4.40237 0
M  V30 5626 C 529.369 -0.892709 -5.74809 0
M  V30 5627 N 528.345 -0.239511 -5.43072 0
M  V30 5628 H 532.147 -0.57546 -2.88211 0
M  V30 5629 H 529.661 -0.416046 -1.5698 0
M  V30 5630 H 531.658 1.71108 -3.80168 0
M  V30 5631 H 530.318 1.89171 -2.63903 0
M  V30 5632 H 531.329 -0.861258 -5.10689 0
M  V30 5633 H 528.006 1.43131 -3.92199 0
M  V30 5634 H 529.396 -1.67581 -6.50666 0
M  V30 5635 N 532.116 1.54067 -0.331816 0
M  V30 5636 C 533.046 2.27569 0.522932 0
M  V30 5637 C 534.027 1.28679 1.11247 0
M  V30 5638 O 535.212 1.57504 1.13605 0
M  V30 5639 C 532.342 3.0397 1.67987 0
M  V30 5640 C 531.296 4.10267 1.21924 0
M  V30 5641 C 530.622 4.74555 2.46377 0
M  V30 5642 C 531.922 5.21268 0.32815 0
M  V30 5643 H 533.616 2.99264 -0.0901977 0
M  V30 5644 H 531.162 1.4393 -0.044821 0
M  V30 5645 H 533.115 3.54123 2.28418 0
M  V30 5646 H 531.839 2.29906 2.31971 0
M  V30 5647 H 530.498 3.61009 0.637809 0
M  V30 5648 H 530.146 3.97098 3.08743 0
M  V30 5649 H 529.846 5.46363 2.16243 0
M  V30 5650 H 531.37 5.27487 3.07555 0
M  V30 5651 H 532.784 5.67128 0.838978 0
M  V30 5652 H 531.181 5.99982 0.119228 0
M  V30 5653 H 532.251 4.80673 -0.638839 0
M  V30 5654 N 533.594 0.0601682 1.57485 0
M  V30 5655 C 534.871 -0.651956 1.84415 0
M  V30 5656 C 535.251 -1.88498 0.950361 0
M  V30 5657 O 534.599 -2.28496 0.0136719 0
M  V30 5658 C 534.809 -1.00069 3.34346 0
M  V30 5659 C 536.157 -1.37915 4.01578 0
M  V30 5660 O 537.181 -1.09277 3.39024 0
M  V30 5661 O 536.04 -1.91399 5.11887 0
M  V30 5662 H 533.134 -0.322668 0.761455 0
M  V30 5663 H 535.68 0.0902159 1.6946 0
M  V30 5664 H 534.452 -0.124463 3.91102 0
M  V30 5665 H 534.075 -1.80001 3.54521 0
M  V30 5666 N 535.072 -1.5615 -0.213296 0
M  V30 5667 C 536.002 -1.96109 -1.26742 0
M  V30 5668 C 536.983 -0.830448 -1.48451 0
M  V30 5669 O 538.168 -1.09339 -1.60495 0
M  V30 5670 C 535.298 -2.28492 -2.61551 0
M  V30 5671 C 534.252 -3.44124 -2.54485 0
M  V30 5672 C 533.578 -3.62134 -3.93399 0
M  V30 5673 C 534.878 -4.78855 -2.08556 0
M  V30 5674 H 536.572 -2.84412 -0.935434 0
M  V30 5675 H 534.118 -1.36836 -0.44854 0
M  V30 5676 H 536.071 -2.55039 -3.3546 0
M  V30 5677 H 534.795 -1.37052 -2.96453 0
M  V30 5678 H 533.454 -3.17639 -1.83033 0
M  V30 5679 H 533.102 -2.68055 -4.25623 0
M  V30 5680 H 532.802 -4.39913 -3.89551 0
M  V30 5681 H 534.326 -3.91038 -4.68958 0
M  V30 5682 H 535.74 -5.04552 -2.72213 0
M  V30 5683 H 534.137 -5.59975 -2.1575 0
M  V30 5684 H 535.207 -4.73657 -1.03811 0
M  V30 5685 N 536.55 0.480323 -1.50102 0
M  V30 5686 C 537.798 1.23063 -1.60312 0
M  V30 5687 C 538.119 1.92659 -0.301226 0
M  V30 5688 O 537.389 1.83691 0.680753 0
M  V30 5689 H 535.969 0.457231 -0.590719 0
M  V30 5690 H 538.631 0.554893 -1.86834 0
M  V30 5691 H 537.727 1.9835 -2.40964 0
M  V30 5692 N 538.028 1.39524 0.732853 0
M  V30 5693 C 538.975 1.38416 1.84688 0
M  V30 5694 C 539.945 0.243539 1.64305 0
M  V30 5695 O 541.13 0.438979 1.85681 0
M  V30 5696 C 538.27 1.23555 3.22224 0
M  V30 5697 C 537.383 2.47179 3.54298 0
M  V30 5698 C 536.518 2.2489 4.81246 0
M  V30 5699 C 535.557 3.44178 5.0617 0
M  V30 5700 N 534.694 3.21192 6.24323 0
M  V30 5701 H 539.534 2.33645 1.84971 0
M  V30 5702 H 537.071 1.16059 0.903804 0
M  V30 5703 H 539.029 1.12949 4.0162 0
M  V30 5704 H 537.659 0.31954 3.21215 0
M  V30 5705 H 536.711 2.68379 2.69587 0
M  V30 5706 H 538.023 3.36022 3.68633 0
M  V30 5707 H 537.177 2.11538 5.68627 0
M  V30 5708 H 535.916 1.33443 4.69089 0
M  V30 5709 H 534.921 3.58025 4.17251 0
M  V30 5710 H 536.146 4.36528 5.20212 0
M  V30 5711 H 534.092 2.32413 6.1345 0
M  V30 5712 H 534.009 4.03594 6.39256 0
M  V30 5713 H 535.277 3.1154 7.14537 0
M  V30 5714 N 539.506 -0.963266 1.24736 0
M  V30 5715 C 540.783 -1.68248 0.9976 0
M  V30 5716 C 541.163 -2.05599 -0.478776 0
M  V30 5717 O 540.511 -1.7626 -1.45412 0
M  V30 5718 C 540.721 -2.91118 1.92487 0
M  V30 5719 C 542.069 -3.63261 2.19833 0
M  V30 5720 O 543.093 -3.01184 1.90176 0
M  V30 5721 O 541.952 -4.75019 2.7022 0
M  V30 5722 H 539.046 -0.735744 0.377637 0
M  V30 5723 H 541.592 -1.01696 1.35853 0
M  V30 5724 H 540.364 -2.60242 2.92215 0
M  V30 5725 H 539.987 -3.65402 1.56738 0
M  V30 5726 N 540.985 -1.06182 -1.16461 0
M  V30 5727 C 542.232 -0.777863 -1.86964 0
M  V30 5728 C 542.56 0.695602 -1.81636 0
M  V30 5729 O 541.815 1.52532 -1.22607 0
M  V30 5730 C 542.114 -1.21633 -3.36066 0
M  V30 5731 C 541.78 -2.69371 -3.61594 0
M  V30 5732 C 540.442 -3.09727 -3.6827 0
M  V30 5733 C 542.794 -3.64791 -3.7226 0
M  V30 5734 C 540.122 -4.44345 -3.83112 0
M  V30 5735 C 542.474 -4.99155 -3.88623 0
M  V30 5736 C 541.138 -5.39149 -3.93541 0
M  V30 5737 H 540.408 -0.28464 -0.68415 0
M  V30 5738 H 543.055 -1.33071 -1.37711 0
M  V30 5739 H 541.36 -0.582651 -3.87443 0
M  V30 5740 H 543.057 -0.973682 -3.88999 0
M  V30 5741 H 539.647 -2.37124 -3.57029 0
M  V30 5742 H 543.831 -3.34746 -3.66413 0
M  V30 5743 H 539.087 -4.74819 -3.85172 0
M  V30 5744 H 543.261 -5.72976 -3.95817 0
M  V30 5745 H 540.888 -6.43464 -4.04794 0
M  V30 5746 N 542.463 1.3308 -0.844243 0
M  V30 5747 C 543.691 2.01808 -0.456203 0
M  V30 5748 C 544.106 1.63498 0.944131 0
M  V30 5749 O 543.463 0.85102 1.61443 0
M  V30 5750 C 543.514 3.56922 -0.573513 0
M  V30 5751 O 543.235 3.93851 -1.91868 0
M  V30 5752 C 544.736 4.42922 -0.183125 0
M  V30 5753 H 541.956 0.646273 -0.180477 0
M  V30 5754 H 544.5 1.69891 -1.1383 0
M  V30 5755 H 542.655 3.87352 0.0607367 0
M  V30 5756 H 543.069 4.88564 -1.90802 0
M  V30 5757 H 544.543 5.51093 -0.316241 0
M  V30 5758 H 545.02 4.30386 0.875477 0
M  V30 5759 H 545.626 4.1786 -0.792027 0
M  V30 5760 N 543.941 0.601185 1.45683 0
M  V30 5761 C 545.218 0.0261659 1.95582 0
M  V30 5762 C 545.598 -1.4399 1.5437 0
M  V30 5763 O 544.946 -2.13919 0.80318 0
M  V30 5764 C 545.156 0.217557 3.48321 0
M  V30 5765 C 546.504 0.0950076 4.24494 0
M  V30 5766 O 547.528 0.147345 3.55895 0
M  V30 5767 O 546.387 -0.025261 5.46494 0
M  V30 5768 H 543.481 -0.0393688 0.826062 0
M  V30 5769 H 546.027 0.670798 1.55879 0
M  V30 5770 H 544.799 1.23601 3.71266 0
M  V30 5771 H 544.422 -0.46264 3.94899 0
M  V30 5772 N 545.419 -1.53889 0.339982 0
M  V30 5773 C 546.665 -2.01152 -0.258003 0
M  V30 5774 C 546.998 -1.22749 -1.50487 0
M  V30 5775 O 546.273 -0.314156 -1.91946 0
M  V30 5776 C 546.556 -3.55468 -0.575717 0
M  V30 5777 C 546.409 -4.44584 0.682996 0
M  V30 5778 C 547.728 -4.1768 -1.38677 0
M  V30 5779 H 544.847 -0.731198 -0.0922992 0
M  V30 5780 H 547.489 -1.84352 0.459814 0
M  V30 5781 H 545.639 -3.69914 -1.18725 0
M  V30 5782 H 547.311 -4.41981 1.32102 0
M  V30 5783 H 545.554 -4.13592 1.3086 0
M  V30 5784 H 546.225 -5.5043 0.416001 0
M  V30 5785 H 548.701 -4.0691 -0.869705 0
M  V30 5786 H 547.577 -5.25734 -1.57783 0
M  V30 5787 H 547.838 -3.72069 -2.38782 0
M  V30 5788 N 546.897 -0.0685191 -1.57451 0
M  V30 5789 C 547.827 0.89747 -2.15564 0
M  V30 5790 C 548.808 1.31266 -1.08181 0
M  V30 5791 O 549.993 1.38429 -1.36202 0
M  V30 5792 C 547.123 2.16623 -2.71463 0
M  V30 5793 C 546.077 1.89054 -3.83982 0
M  V30 5794 C 545.403 3.22532 -4.26471 0
M  V30 5795 C 546.703 1.1984 -5.08366 0
M  V30 5796 H 548.397 0.413373 -2.96533 0
M  V30 5797 H 545.943 0.197391 -1.42641 0
M  V30 5798 H 547.896 2.84614 -3.10761 0
M  V30 5799 H 546.62 2.67269 -1.8771 0
M  V30 5800 H 545.279 1.23469 -3.45183 0
M  V30 5801 H 544.927 3.71013 -3.39644 0
M  V30 5802 H 544.627 3.04879 -5.02317 0
M  V30 5803 H 546.151 3.91727 -4.68383 0
M  V30 5804 H 547.565 1.77896 -5.45001 0
M  V30 5805 H 545.962 1.12456 -5.89469 0
M  V30 5806 H 547.032 0.176996 -4.84577 0
M  V30 5807 N 548.375 1.56261 0.205012 0
M  V30 5808 C 549.6 1.84491 0.947512 0
M  V30 5809 C 550.025 0.650894 1.76479 0
M  V30 5810 O 549.383 -0.40035 1.76824 0
M  V30 5811 C 549.431 3.10863 1.82747 0
M  V30 5812 O 548.535 2.90719 2.925 0
M  V30 5813 H 547.876 0.607783 0.267386 0
M  V30 5814 H 550.406 2.03485 0.213323 0
M  V30 5815 H 550.416 3.41399 2.23407 0
M  V30 5816 H 549.091 3.97392 1.2269 0
M  V30 5817 H 547.668 2.71457 2.55667 0
M  V30 5818 N 549.853 -0.472356 1.50355 0
M  V30 5819 C 550.8 -1.57051 1.69126 0
M  V30 5820 C 551.77 -1.5733 0.532574 0
M  V30 5821 O 552.955 -1.7488 0.762994 0
M  V30 5822 C 550.095 -2.95033 1.79024 0
M  V30 5823 C 549.208 -3.04552 3.06386 0
M  V30 5824 C 548.343 -4.33441 3.07087 0
M  V30 5825 C 547.382 -4.36697 4.28908 0
M  V30 5826 N 546.519 -5.57056 4.27356 0
M  V30 5827 H 551.359 -1.40351 2.62879 0
M  V30 5828 H 548.896 -0.682403 1.30314 0
M  V30 5829 H 550.854 -3.75048 1.82744 0
M  V30 5830 H 549.484 -3.10371 0.887109 0
M  V30 5831 H 548.536 -2.17419 3.12143 0
M  V30 5832 H 549.848 -3.02818 3.96362 0
M  V30 5833 H 549.002 -5.21801 3.09529 0
M  V30 5834 H 547.741 -4.37782 2.14939 0
M  V30 5835 H 546.746 -3.46734 4.2668 0
M  V30 5836 H 547.971 -4.34049 5.22282 0
M  V30 5837 H 545.917 -5.62184 3.3806 0
M  V30 5838 H 545.834 -5.57058 5.111 0
M  V30 5839 H 547.102 -6.47545 4.33942 0
M  V30 5840 N 551.331 -1.39911 -0.725443 0
M  V30 5841 C 552.241 -1.41688 -1.8698 0
M  V30 5842 C 553.257 -0.310579 -1.71206 0
M  V30 5843 O 554.433 -0.55359 -1.93642 0
M  V30 5844 C 551.498 -1.26811 -3.22676 0
M  V30 5845 C 550.559 -2.47497 -3.50776 0
M  V30 5846 C 549.792 -2.3332 -4.79997 0
M  V30 5847 O 550.015 -1.34175 -5.54394 0
M  V30 5848 O 548.949 -3.22498 -5.08211 0
M  V30 5849 H 552.775 -2.38171 -1.88436 0
M  V30 5850 H 550.36 -1.21128 -0.874548 0
M  V30 5851 H 552.242 -1.20684 -4.03749 0
M  V30 5852 H 550.917 -0.334289 -3.21969 0
M  V30 5853 H 549.824 -2.59201 -2.69751 0
M  V30 5854 H 551.157 -3.39606 -3.5627 0
M  V30 5855 N 552.809 0.956637 -1.25245 0
M  V30 5856 C 553.756 2.053 -1.05454 0
M  V30 5857 C 554.726 1.66062 0.0356889 0
M  V30 5858 O 555.911 1.90415 -0.121099 0
M  V30 5859 C 553.051 3.38391 -0.677191 0
M  V30 5860 C 552.164 3.90758 -1.84206 0
M  V30 5861 C 551.299 5.12165 -1.40926 0
M  V30 5862 C 550.338 5.56757 -2.54338 0
M  V30 5863 N 549.475 6.69376 -2.11848 0
M  V30 5864 H 554.315 2.21562 -1.99284 0
M  V30 5865 H 551.852 1.08578 -0.992434 0
M  V30 5866 H 553.81 4.1488 -0.43938 0
M  V30 5867 H 552.44 3.22021 0.224127 0
M  V30 5868 H 551.492 3.10808 -2.19323 0
M  V30 5869 H 552.804 4.19802 -2.69383 0
M  V30 5870 H 551.958 5.96065 -1.13098 0
M  V30 5871 H 550.697 4.84832 -0.528175 0
M  V30 5872 H 549.702 4.71423 -2.82913 0
M  V30 5873 H 550.927 5.861 -3.43022 0
M  V30 5874 H 548.873 6.43756 -1.26153 0
M  V30 5875 H 548.79 6.97927 -2.90574 0
M  V30 5876 H 550.058 7.5669 -1.87191 0
M  V30 5877 N 554.287 1.06798 1.15896 0
M  V30 5878 C 555.237 0.653213 2.18443 0
M  V30 5879 C 556.221 -0.318763 1.57711 0
M  V30 5880 O 557.413 -0.133388 1.76497 0
M  V30 5881 C 554.542 0.0465785 3.43268 0
M  V30 5882 C 553.628 1.04336 4.11066 0
M  V30 5883 N 554.019 2.22084 4.54436 0
M  V30 5884 C 552.317 0.875433 4.37324 0
M  V30 5885 C 553.018 2.85276 5.06944 0
M  V30 5886 N 551.994 2.12973 5.00143 0
M  V30 5887 H 555.796 1.55011 2.49698 0
M  V30 5888 H 553.31 0.940384 1.32403 0
M  V30 5889 H 555.307 -0.26843 4.16035 0
M  V30 5890 H 553.967 -0.845504 3.13499 0
M  V30 5891 H 554.978 2.59833 4.48004 0
M  V30 5892 H 551.655 0.0357721 4.17485 0
M  V30 5893 H 553.045 3.85223 5.50503 0
M  V30 5894 N 555.766 -1.3263 0.851289 0
M  V30 5895 C 557.177 -1.79653 0.5081 0
M  V30 5896 C 557.528 -1.70327 -0.973815 0
M  V30 5897 O 556.653 -1.25986 -1.75944 0
M  V30 5898 C 557.248 -3.26196 0.915515 0
M  V30 5899 C 555.807 -3.71187 0.624277 0
M  V30 5900 C 554.954 -2.53804 1.11709 0
M  V30 5901 H 557.905 -1.19976 1.03882 0
M  V30 5902 H 557.926 -3.79801 0.230535 0
M  V30 5903 H 557.438 -3.32952 1.99411 0
M  V30 5904 H 555.539 -3.69948 -0.443737 0
M  V30 5905 H 555.652 -4.64132 1.18821 0
M  V30 5906 H 554.016 -2.48964 0.537484 0
M  V30 5907 H 554.799 -2.63315 2.20272 0
M  V30 5908 N 557.244 -0.608902 -1.45362 0
M  V30 5909 C 558.49 -0.104762 -2.02529 0
M  V30 5910 C 558.823 1.26191 -1.47613 0
M  V30 5911 O 558.098 1.8327 -0.65134 0
M  V30 5912 C 558.381 -0.0672661 -3.60037 0
M  V30 5913 C 558.234 -1.4647 -4.25284 0
M  V30 5914 C 559.553 0.619877 -4.35713 0
M  V30 5915 H 556.672 -0.0395438 -0.735938 0
M  V30 5916 H 559.314 -0.781126 -1.73201 0
M  V30 5917 H 557.464 0.50871 -3.85155 0
M  V30 5918 H 559.136 -2.08785 -4.11347 0
M  V30 5919 H 557.379 -2.02502 -3.83634 0
M  V30 5920 H 558.05 -1.39069 -5.34195 0
M  V30 5921 H 560.526 0.130297 -4.15896 0
M  V30 5922 H 559.402 0.615224 -5.45441 0
M  V30 5923 H 559.663 1.68621 -4.0868 0
M  V30 5924 N 558.722 1.53707 -0.348139 0
M  V30 5925 C 559.968 2.01286 0.247332 0
M  V30 5926 C 560.301 1.23546 1.49834 0
M  V30 5927 O 559.576 0.324331 1.91777 0
M  V30 5928 C 559.859 3.55768 0.556858 0
M  V30 5929 C 559.712 4.44216 -0.706564 0
M  V30 5930 C 561.031 4.1841 1.3646 0
M  V30 5931 H 558.15 0.731677 0.0884201 0
M  V30 5932 H 560.792 1.84106 -0.469584 0
M  V30 5933 H 558.942 3.70539 1.16761 0
M  V30 5934 H 560.614 4.41274 -1.34444 0
M  V30 5935 H 558.857 4.12892 -1.33052 0
M  V30 5936 H 559.528 5.50202 -0.445186 0
M  V30 5937 H 562.004 4.07365 0.848113 0
M  V30 5938 H 560.88 5.26563 1.54992 0
M  V30 5939 H 561.141 3.7333 2.36805 0
M  V30 5940 N 560.2 0.0768682 1.57412 0
M  V30 5941 C 561.147 -0.888577 2.13009 0
M  V30 5942 C 562.117 -1.29198 1.0439 0
M  V30 5943 O 563.302 -1.37694 1.3208 0
M  V30 5944 C 560.442 -2.14899 2.70023 0
M  V30 5945 C 559.555 -1.79777 3.92816 0
M  V30 5946 C 558.69 -3.00467 4.38056 0
M  V30 5947 C 557.729 -2.61385 5.53484 0
M  V30 5948 N 556.866 -3.74851 5.93659 0
M  V30 5949 H 561.706 -0.407593 2.95199 0
M  V30 5950 H 559.243 -0.189534 1.45874 0
M  V30 5951 H 561.201 -2.88688 3.0119 0
M  V30 5952 H 559.831 -2.60529 1.9059 0
M  V30 5953 H 558.883 -0.960301 3.68079 0
M  V30 5954 H 560.195 -1.47027 4.76639 0
M  V30 5955 H 559.349 -3.82529 4.7091 0
M  V30 5956 H 558.088 -3.36413 3.53097 0
M  V30 5957 H 557.093 -1.77746 5.20275 0
M  V30 5958 H 558.318 -2.26603 6.40178 0
M  V30 5959 H 556.264 -4.1055 5.11649 0
M  V30 5960 H 556.181 -3.45887 6.72234 0
M  V30 5961 H 557.449 -4.57477 6.31138 0
M  V30 5962 N 561.678 -1.56367 -0.196722 0
M  V30 5963 C 562.625 -1.94417 -1.24382 0
M  V30 5964 C 563.595 -0.804543 -1.45315 0
M  V30 5965 O 564.78 -1.06256 -1.58475 0
M  V30 5966 C 561.92 -2.28757 -2.58388 0
M  V30 5967 C 561.033 -3.55775 -2.45047 0
M  V30 5968 C 560.168 -3.79445 -3.71746 0
M  V30 5969 C 559.207 -4.99894 -3.53231 0
M  V30 5970 N 558.344 -5.19826 -4.71938 0
M  V30 5971 H 563.184 -2.83691 -0.912338 0
M  V30 5972 H 560.721 -1.40392 -0.439135 0
M  V30 5973 H 562.679 -2.46682 -3.36457 0
M  V30 5974 H 561.309 -1.42625 -2.89582 0
M  V30 5975 H 560.361 -3.45905 -1.58284 0
M  V30 5976 H 561.673 -4.44 -2.27299 0
M  V30 5977 H 560.827 -3.97601 -4.58256 0
M  V30 5978 H 559.566 -2.89546 -3.92446 0
M  V30 5979 H 558.571 -4.81662 -2.65107 0
M  V30 5980 H 559.796 -5.913 -3.33978 0
M  V30 5981 H 557.742 -4.32875 -4.92905 0
M  V30 5982 H 557.659 -6.02228 -4.57009 0
M  V30 5983 H 558.927 -5.42439 -5.59803 0
M  V30 5984 N 563.156 0.464375 -1.50603 0
M  V30 5985 C 564.103 1.56152 -1.69956 0
M  V30 5986 C 565.073 1.57046 -0.54091 0
M  V30 5987 O 566.258 1.74473 -0.772258 0
M  V30 5988 C 563.398 2.94079 -1.80586 0
M  V30 5989 C 562.511 3.02923 -3.07996 0
M  V30 5990 C 561.646 4.31806 -3.09382 0
M  V30 5991 C 560.685 4.34417 -4.31218 0
M  V30 5992 N 559.822 5.54782 -4.30304 0
M  V30 5993 H 564.662 1.38955 -2.6362 0
M  V30 5994 H 562.199 0.675482 -1.30674 0
M  V30 5995 H 564.157 3.74073 -1.8473 0
M  V30 5996 H 562.787 3.09896 -0.903556 0
M  V30 5997 H 561.839 2.1576 -3.13292 0
M  V30 5998 H 563.151 3.00712 -3.97962 0
M  V30 5999 H 562.305 5.20153 -3.12292 0
M  V30 6000 H 561.044 4.36636 -2.17257 0
M  V30 6001 H 560.049 3.44467 -4.28512 0
M  V30 6002 H 561.274 4.31273 -5.24576 0
M  V30 6003 H 559.22 5.60384 -3.41037 0
M  V30 6004 H 559.137 5.54339 -5.14047 0
M  V30 6005 H 560.405 6.45235 -4.3737 0
M  V30 6006 N 564.634 1.40294 0.718013 0
M  V30 6007 C 565.874 1.39888 1.49032 0
M  V30 6008 C 566.238 -0.000462935 1.92 0
M  V30 6009 O 567.439 -0.129622 2.68487 0
M  V30 6010 C 565.71 2.35868 2.68516 0
M  V30 6011 S 567.269 2.53799 3.57954 0
M  V30 6012 H 564.087 0.495849 0.509563 0
M  V30 6013 H 566.689 1.76541 0.839846 0
M  V30 6014 H 565.393 3.36375 2.35117 0
M  V30 6015 H 564.924 2.0049 3.38478 0
M  V30 6016 H 566.939 1.78859 4.62843 0
M  V30 6017 N 566.112 -0.949982 1.2575 0
M  V30 6018 C 567.337 -1.73503 1.13628 0
M  V30 6019 C 567.762 -1.85601 -0.30559 0
M  V30 6020 O 567.12 -1.33984 -1.22139 0
M  V30 6021 C 567.168 -3.1243 1.80055 0
M  V30 6022 O 566.272 -3.97916 1.08336 0
M  V30 6023 H 565.613 -0.532665 0.396439 0
M  V30 6024 H 568.143 -1.19043 1.66403 0
M  V30 6025 H 568.153 -3.62866 1.86527 0
M  V30 6026 H 566.828 -3.02941 2.84956 0
M  V30 6027 H 565.405 -3.56375 1.09777 0
M  V30 6028 N 567.59 -1.07411 -1.15328 0
M  V30 6029 C 568.537 -0.694995 -2.20087 0
M  V30 6030 C 569.507 0.313904 -1.63107 0
M  V30 6031 O 570.692 0.200216 -1.89747 0
M  V30 6032 C 567.832 -0.0996218 -3.44956 0
M  V30 6033 C 566.945 -1.16007 -4.16133 0
M  V30 6034 C 566.08 -0.529636 -5.28553 0
M  V30 6035 C 565.119 -1.57283 -5.91548 0
M  V30 6036 N 564.256 -0.964932 -6.95438 0
M  V30 6037 H 569.096 -1.5927 -2.51867 0
M  V30 6038 H 566.633 -0.796115 -1.23695 0
M  V30 6039 H 568.591 0.263197 -4.16369 0
M  V30 6040 H 567.221 0.761435 -3.13691 0
M  V30 6041 H 566.273 -1.64045 -3.4321 0
M  V30 6042 H 567.585 -1.95101 -4.59061 0
M  V30 6043 H 566.739 -0.114487 -6.06592 0
M  V30 6044 H 565.478 0.29307 -4.86819 0
M  V30 6045 H 564.483 -1.99775 -5.12221 0
M  V30 6046 H 565.708 -2.39783 -6.35359 0
M  V30 6047 H 563.654 -0.16314 -6.55797 0
M  V30 6048 H 563.571 -1.69311 -7.36797 0
M  V30 6049 H 564.839 -0.575305 -7.77374 0
M  V30 6050 O 569.107 1.27418 -0.99231 0
M  V30 6051 H 569.798 1.82762 -0.641704 0
M  V30 END ATOM
M  V30 BEGIN BOND
M  V30 END BOND
M  V30 END CTAB
M  END
$$$$
