drugbank_target|O43193 Motilin receptor (DB00199; DB06587)
 OpenBabel12092120333D

  0  0  0     0  0            999 V3000
M  V30 BEGIN CTAB
M  V30 COUNTS 6484 6571 0 0 0
M  V30 BEGIN ATOM
M  V30 1 H -0.908 1.98254 -0.117106 0
M  V30 2 N 0 1.576 0 0
M  V30 3 C 0.933 2.03868 1.02534 0
M  V30 4 C 1.911 0.928543 1.3348 0
M  V30 5 O 3.095 1.19667 1.45644 0
M  V30 6 C 0.222 2.43627 2.35294 0
M  V30 7 C -0.732 3.65373 2.2001 0
M  V30 8 S 0.101 5.13292 1.52614 0
M  V30 9 C 1.257 5.56322 2.86805 0
M  V30 10 H 1.49 2.90518 0.631377 0
M  V30 11 H -0.977 1.52953 0.210867 0
M  V30 12 H 0.981 2.67203 3.11629 0
M  V30 13 H -0.358 1.57376 2.7183 0
M  V30 14 H -1.165 3.90944 3.18086 0
M  V30 15 H -1.563 3.418 1.51819 0
M  V30 16 H 0.729 5.58782 3.83104 0
M  V30 17 H 1.672 6.56266 2.65933 0
M  V30 18 H 2.08 4.83886 2.90714 0
M  V30 19 N 1.4781 -0.272755 1.55222 0
M  V30 20 C 2.7261 -1.00234 1.75492 0
M  V30 21 C 3.0471 -1.8681 0.5592 0
M  V30 22 O 2.3171 -1.91215 -0.425882 0
M  V30 23 H 0.8971 -0.373076 0.647166 0
M  V30 24 H 3.5591 -0.296926 1.92625 0
M  V30 25 H 2.6551 -1.63913 2.65592 0
M  V30 26 N 2.9562 -1.48159 -0.537278 0
M  V30 27 C 4.1812 -1.59707 -1.32319 0
M  V30 28 C 4.6062 -0.254859 -1.86365 0
M  V30 29 O 3.9642 0.772378 -1.64024 0
M  V30 30 C 4.0122 -2.6412 -2.45505 0
M  V30 31 O 3.1162 -2.20774 -3.48328 0
M  V30 32 H 2.4572 -0.535791 -0.392204 0
M  V30 33 H 4.9872 -1.94092 -0.647268 0
M  V30 34 H 4.9972 -2.85166 -2.91795 0
M  V30 35 H 3.6722 -3.61567 -2.05528 0
M  V30 36 H 2.2492 -2.09911 -3.08207 0
M  V30 37 N 4.4343 0.785586 -1.36625 0
M  V30 38 C 5.8453 1.36101 -1.27803 0
M  V30 39 C 6.1963 1.96035 0.0804875 0
M  V30 40 O 5.3213 1.92834 0.982042 0
M  V30 41 C 5.9163 2.47442 -2.31426 0
M  V30 42 C 4.4753 3.00789 -2.26281 0
M  V30 43 C 3.6223 1.73896 -2.15999 0
M  V30 44 H 6.5733 0.586928 -1.47448 0
M  V30 45 H 6.5943 3.2656 -1.95291 0
M  V30 46 H 6.1063 2.03791 -3.30289 0
M  V30 47 H 4.2073 3.48851 -1.30896 0
M  V30 48 H 4.3203 3.57343 -3.19128 0
M  V30 49 H 2.6843 1.9628 -1.62316 0
M  V30 50 H 3.4673 1.32368 -3.16755 0
M  V30 51 N 5.9124 1.20967 1.01018 0
M  V30 52 C 7.1584 1.0353 1.7508 0
M  V30 53 C 7.5134 -0.42734 1.87594 0
M  V30 54 O 6.8064 -1.31298 1.3954 0
M  V30 55 C 7.0004 1.65997 3.16512 0
M  V30 56 C 6.8294 3.18184 3.17788 0
M  V30 57 C 5.5994 3.87198 3.24662 0
M  V30 58 C 7.7974 4.15334 3.03319 0
M  V30 59 N 5.7794 5.26618 3.15509 0
M  V30 60 C 7.1504 5.41472 3.02007 0
M  V30 61 C 9.2054 4.06449 2.87583 0
M  V30 62 C 7.9084 6.5975 2.86571 0
M  V30 63 C 9.9344 5.24357 2.73503 0
M  V30 64 C 9.2964 6.49404 2.72862 0
M  V30 65 H 5.3954 0.433137 0.651089 0
M  V30 66 H 7.9794 1.5324 1.20107 0
M  V30 67 H 6.1504 1.18863 3.69765 0
M  V30 68 H 7.8824 1.41816 3.79039 0
M  V30 69 H 4.6374 3.38093 3.31648 0
M  V30 70 H 5.0614 5.99626 3.14289 0
M  V30 71 H 9.7034 3.10573 2.86887 0
M  V30 72 H 7.4214 7.55792 2.86015 0
M  V30 73 H 11.0074 5.19299 2.62334 0
M  V30 74 H 9.8874 7.39105 2.62093 0
M  V30 75 N 7.3905 -1.2043 1.01659 0
M  V30 76 C 8.3385 -2.25249 0.580143 0
M  V30 77 C 9.3325 -1.65057 -0.381115 0
M  V30 78 O 10.5385 -1.78241 -0.251039 0
M  V30 79 H 6.9135 -0.732695 0.169299 0
M  V30 80 H 8.8845 -2.59389 1.47512 0
M  V30 81 C 7.6335 -3.47638 -0.065788 0
M  V30 82 H 6.9565 -3.94233 0.664874 0
M  V30 83 H 8.3965 -4.2268 -0.334282 0
M  V30 84 C 6.8555 -3.10447 -1.3086 0
M  V30 85 O 7.3855 -3.21981 -2.4019 0
M  V30 86 N 5.5915 -2.64996 -1.1927 0
M  V30 87 H 5.1385 -2.55811 -0.303064 0
M  V30 88 H 5.0965 -2.40482 -2.02523 0
M  V30 89 N 8.8686 -0.792821 -1.36206 0
M  V30 90 C 10.1166 -0.366062 -1.98757 0
M  V30 91 C 10.4376 1.0668 -1.63231 0
M  V30 92 O 9.7076 1.73587 -0.907978 0
M  V30 93 H 8.2876 -0.132364 -0.735179 0
M  V30 94 H 10.9496 -1.01562 -1.66347 0
M  V30 95 H 10.0456 -0.460638 -3.08682 0
M  V30 96 N 10.3467 1.47872 -0.545128 0
M  V30 97 C 11.5717 2.07391 -0.0190611 0
M  V30 98 C 11.9967 1.39688 1.25971 0
M  V30 99 O 11.3547 0.467816 1.7516 0
M  V30 100 C 11.4027 3.60188 0.172335 0
M  V30 101 O 10.5067 3.9339 1.23766 0
M  V30 102 H 9.8477 0.662411 -0.0459059 0
M  V30 103 H 12.3777 1.90066 -0.757365 0
M  V30 104 H 12.3877 4.06129 0.390305 0
M  V30 105 H 11.0627 4.08865 -0.761725 0
M  V30 106 H 9.6397 3.5921 1.00114 0
M  V30 107 N 11.8248 0.280983 1.55075 0
M  V30 108 C 13.1018 -0.386207 1.91749 0
M  V30 109 C 13.4818 -1.73264 1.20594 0
M  V30 110 O 12.8298 -2.26034 0.334784 0
M  V30 111 C 13.0398 -0.520687 3.45094 0
M  V30 112 C 14.3878 -0.800865 4.16979 0
M  V30 113 O 15.4118 -0.605271 3.5102 0
M  V30 114 O 14.2708 -1.1753 5.33712 0
M  V30 115 H 11.3648 -0.212408 0.799257 0
M  V30 116 H 13.9108 0.327568 1.66509 0
M  V30 117 H 12.6828 0.426633 3.88967 0
M  V30 118 H 12.3058 -1.2837 3.76307 0
M  V30 119 N 13.3029 -1.57598 0.00835791 0
M  V30 120 C 14.5509 -1.90551 -0.6734 0
M  V30 121 C 14.8719 -0.883301 -1.73847 0
M  V30 122 O 14.1419 0.0781442 -1.95744 0
M  V30 123 H 12.7219 -0.703312 -0.251717 0
M  V30 124 H 15.3839 -1.94833 0.0512592 0
M  V30 125 H 14.4799 -2.9056 -1.13935 0
M  V30 126 N 14.781 0.264519 -1.55364 0
M  V30 127 C 16.192 0.834936 -1.6699 0
M  V30 128 C 16.543 1.86718 -0.602552 0
M  V30 129 O 15.668 2.14899 0.254425 0
M  V30 130 C 16.263 1.5212 -3.02729 0
M  V30 131 C 14.822 2.03954 -3.16354 0
M  V30 132 C 13.969 0.884498 -2.62815 0
M  V30 133 H 16.92 0.0406869 -1.58648 0
M  V30 134 H 16.941 2.38853 -2.96191 0
M  V30 135 H 16.453 0.769668 -3.80392 0
M  V30 136 H 14.554 2.82041 -2.43482 0
M  V30 137 H 14.667 2.24902 -4.23032 0
M  V30 138 H 13.031 1.2802 -2.20188 0
M  V30 139 H 13.814 0.14634 -3.42988 0
M  V30 140 N 16.2591 1.48442 0.529413 0
M  V30 141 C 17.1691 1.6569 1.66084 0
M  V30 142 C 18.1851 0.539432 1.65427 0
M  V30 143 O 19.3611 0.810572 1.84368 0
M  V30 144 C 16.4261 1.69315 3.02545 0
M  V30 145 C 15.4871 2.92694 3.14052 0
M  V30 146 C 14.7201 2.96137 4.44003 0
M  V30 147 O 14.9431 2.07973 5.31134 0
M  V30 148 O 13.8771 3.88312 4.59888 0
M  V30 149 H 17.7031 2.61483 1.54469 0
M  V30 150 H 15.2881 1.3185 0.702567 0
M  V30 151 H 17.1701 1.74217 3.83701 0
M  V30 152 H 15.8451 0.766966 3.14483 0
M  V30 153 H 14.7521 2.93324 2.32189 0
M  V30 154 H 16.0851 3.84699 3.0703 0
M  V30 155 N 17.7372 -0.778329 1.37039 0
M  V30 156 C 18.9852 -1.53361 1.31623 0
M  V30 157 C 19.3062 -1.94739 -0.100831 0
M  V30 158 O 18.5762 -1.65797 -1.04347 0
M  V30 159 H 17.1562 -0.568794 0.484234 0
M  V30 160 H 19.8182 -0.926742 1.71457 0
M  V30 161 H 18.9142 -2.43606 1.95096 0
M  V30 162 N 19.2153 -1.21501 -1.00376 0
M  V30 163 C 20.1783 -0.976927 -2.07337 0
M  V30 164 C 21.1783 0.0525322 -1.60714 0
M  V30 165 O 22.3683 -0.184869 -1.73216 0
M  V30 166 C 19.5003 -0.473423 -3.37597 0
M  V30 167 H 20.6933 -1.92587 -2.29892 0
M  V30 168 H 18.2463 -1.03217 -1.17371 0
M  V30 169 H 18.9813 0.480379 -3.20722 0
M  V30 170 H 18.7663 -1.216 -3.72768 0
M  V30 171 H 20.2563 -0.32675 -4.1632 0
M  V30 172 N 20.6934 1.19889 -1.02296 0
M  V30 173 C 22.1094 1.41462 -0.738954 0
M  V30 174 C 22.3094 1.89721 0.678846 0
M  V30 175 O 21.3654 2.07016 1.4457 0
M  V30 176 C 22.6784 2.43083 -1.77005 0
M  V30 177 C 24.2264 2.5684 -1.78892 0
M  V30 178 C 24.7014 3.61709 -2.80945 0
M  V30 179 N 26.1924 3.69199 -2.79725 0
M  V30 180 C 26.9274 4.50019 -3.55345 0
M  V30 181 N 26.4234 5.34592 -4.40662 0
M  V30 182 N 28.2164 4.44612 -3.43914 0
M  V30 183 H 20.3674 0.868827 -1.93817 0
M  V30 184 H 22.6304 0.44399 -0.837602 0
M  V30 185 H 22.3364 2.14636 -2.78612 0
M  V30 186 H 22.2104 3.4217 -1.58744 0
M  V30 187 H 24.5974 2.84614 -0.779674 0
M  V30 188 H 24.6784 1.57927 -2.01228 0
M  V30 189 H 24.3224 3.34678 -3.82038 0
M  V30 190 H 24.2524 4.60259 -2.5587 0
M  V30 191 H 26.7434 3.08794 -2.17842 0
M  V30 192 H 27.0564 5.93363 -4.95116 0
M  V30 193 H 25.4014 5.34073 -4.44737 0
M  V30 194 H 28.5924 3.7758 -2.76679 0
M  V30 195 H 28.7654 5.0736 -4.031 0
M  V30 196 N 22.1715 0.800033 1.35784 0
M  V30 197 C 23.0815 0.207204 2.33683 0
M  V30 198 C 24.0975 -0.64631 1.61551 0
M  V30 199 O 25.2735 -0.559604 1.93469 0
M  V30 200 C 22.3385 -0.639659 3.40748 0
M  V30 201 C 21.3995 0.233585 4.28664 0
M  V30 202 C 20.6325 -0.572954 5.30616 0
M  V30 203 O 20.8555 -1.80816 5.40982 0
M  V30 204 O 19.7895 0.0327285 6.01891 0
M  V30 205 H 23.6155 1.01692 2.86169 0
M  V30 206 H 21.2005 0.561691 1.38439 0
M  V30 207 H 23.0825 -1.12223 4.06182 0
M  V30 208 H 21.7575 -1.42708 2.90544 0
M  V30 209 H 20.6645 0.763147 3.66233 0
M  V30 210 H 21.9975 0.984784 4.82248 0
M  V30 211 N 23.6496 -1.47581 0.552962 0
M  V30 212 C 25.0606 -1.86324 0.118463 0
M  V30 213 C 25.4116 -1.46006 -1.3106 0
M  V30 214 O 24.5366 -0.861182 -1.98526 0
M  V30 215 C 25.1316 -3.3816 0.20821 0
M  V30 216 C 23.6906 -3.7601 -0.171226 0
M  V30 217 C 22.8376 -2.71634 0.557686 0
M  V30 218 H 25.7886 -1.39159 0.762928 0
M  V30 219 H 25.8096 -3.76141 -0.574278 0
M  V30 220 H 25.3216 -3.67473 1.24841 0
M  V30 221 H 23.4226 -3.52313 -1.21269 0
M  V30 222 H 23.5356 -4.78745 0.184379 0
M  V30 223 H 21.8996 -2.547 0.00125792 0
M  V30 224 H 22.6826 -3.0379 1.59896 0
M  V30 225 N 25.1277 -0.289203 -1.54924 0
M  V30 226 C 26.5387 0.205791 -1.85562 0
M  V30 227 C 26.8897 1.54351 -1.2112 0
M  V30 228 O 26.0147 2.10435 -0.504601 0
M  V30 229 C 26.6097 0.380177 -3.3666 0
M  V30 230 C 25.1687 0.819395 -3.67373 0
M  V30 231 C 24.3157 -0.079159 -2.77187 0
M  V30 232 H 27.2667 -0.510577 -1.50262 0
M  V30 233 H 27.2877 1.21659 -3.60526 0
M  V30 234 H 26.7997 -0.593589 -3.83534 0
M  V30 235 H 24.9007 1.80413 -3.26009 0
M  V30 236 H 25.0137 0.646957 -4.74712 0
M  V30 237 H 23.3777 0.439565 -2.50878 0
M  V30 238 H 24.1607 -1.04906 -3.26878 0
M  V30 239 N 26.6058 1.57591 -0.0167156 0
M  V30 240 C 27.8518 1.92399 0.659861 0
M  V30 241 C 28.2068 0.892561 1.70444 0
M  V30 242 O 27.4998 -0.0930755 1.91374 0
M  V30 243 C 27.6938 3.3172 1.33029 0
M  V30 244 C 27.5228 4.48319 0.352174 0
M  V30 245 C 26.2928 5.05281 -0.0434883 0
M  V30 246 C 28.4908 5.12831 -0.388474 0
M  V30 247 N 26.4728 6.05399 -1.01807 0
M  V30 248 C 27.8438 6.07934 -1.2172 0
M  V30 249 C 29.8988 4.95858 -0.450513 0
M  V30 250 C 28.6018 6.87891 -2.10235 0
M  V30 251 C 30.6278 5.76413 -1.32295 0
M  V30 252 C 29.9898 6.71123 -2.13948 0
M  V30 253 H 26.0888 0.752106 0.21415 0
M  V30 254 H 28.6728 1.94532 -0.0809846 0
M  V30 255 H 26.8438 3.3043 2.04134 0
M  V30 256 H 28.5758 3.5391 1.9629 0
M  V30 257 H 25.3308 4.7246 0.328384 0
M  V30 258 H 25.7548 6.60145 -1.50123 0
M  V30 259 H 30.3968 4.22472 0.166512 0
M  V30 260 H 28.1148 7.60591 -2.72997 0
M  V30 261 H 31.7008 5.65317 -1.37508 0
M  V30 262 H 30.5808 7.3237 -2.80364 0
M  V30 263 N 28.0839 -0.256276 1.55502 0
M  V30 264 C 29.4949 -0.826068 1.67431 0
M  V30 265 C 29.8459 -1.86396 0.612446 0
M  V30 266 O 28.9709 -2.15031 -0.243025 0
M  V30 267 C 29.5659 -1.50512 3.03532 0
M  V30 268 C 28.1249 -2.02273 3.17431 0
M  V30 269 C 27.2719 -0.870548 2.63281 0
M  V30 270 H 30.2229 -0.0322728 1.58667 0
M  V30 271 H 30.2439 -2.37279 2.97454 0
M  V30 272 H 29.7559 -0.749484 3.80794 0
M  V30 273 H 27.8569 -2.80746 2.44974 0
M  V30 274 H 27.9699 -2.22655 4.24219 0
M  V30 275 H 26.3339 -1.26851 2.20864 0
M  V30 276 H 27.1169 -0.128149 3.43061 0
M  V30 277 N 29.562 -1.4872 -0.521534 0
M  V30 278 C 30.525 -1.63379 -1.60748 0
M  V30 279 C 31.525 -0.50661 -1.52611 0
M  V30 280 O 32.715 -0.772601 -1.5613 0
M  V30 281 C 29.847 -1.61192 -3.00383 0
M  V30 282 H 31.04 -2.60217 -1.49087 0
M  V30 283 H 28.593 -1.37444 -0.744235 0
M  V30 284 H 29.328 -0.65863 -3.17541 0
M  V30 285 H 29.113 -2.43032 -3.07698 0
M  V30 286 H 30.603 -1.7466 -3.7932 0
M  V30 287 N 31.0401 0.771051 -1.3745 0
M  V30 288 C 31.9701 1.89827 -1.3597 0
M  V30 289 C 32.9511 1.68562 -0.228216 0
M  V30 290 O 34.1361 1.8941 -0.428675 0
M  V30 291 C 31.2661 3.2712 -1.16662 0
M  V30 292 C 30.2201 3.6295 -2.2683 0
M  V30 293 C 29.5461 4.98791 -1.92644 0
M  V30 294 C 30.8461 3.69627 -3.69017 0
M  V30 295 H 32.5401 1.91323 -2.30295 0
M  V30 296 H 30.0861 0.919082 -1.10855 0
M  V30 297 H 32.0391 4.05615 -1.14256 0
M  V30 298 H 30.7631 3.26059 -0.187926 0
M  V30 299 H 29.4221 2.86763 -2.28392 0
M  V30 300 H 29.0701 4.94271 -0.933021 0
M  V30 301 H 28.7701 5.23733 -2.66416 0
M  V30 302 H 30.2941 5.79685 -1.91826 0
M  V30 303 H 31.7081 4.38273 -3.69581 0
M  V30 304 H 30.1051 4.06067 -4.41848 0
M  V30 305 H 31.1751 2.70273 -4.02592 0
M  V30 306 N 32.5182 1.22032 0.997298 0
M  V30 307 C 33.9292 1.0397 1.55071 0
M  V30 308 C 34.2802 -0.398192 1.92117 0
M  V30 309 O 33.4052 -1.28254 1.74298 0
M  V30 310 C 34.0002 1.88109 2.81781 0
M  V30 311 C 32.5592 1.74357 3.33581 0
M  V30 312 C 31.7062 1.84846 2.06706 0
M  V30 313 H 34.6572 1.35941 0.818883 0
M  V30 314 H 34.6782 1.39589 3.53971 0
M  V30 315 H 34.1902 2.92754 2.54787 0
M  V30 316 H 32.2912 0.72427 3.65493 0
M  V30 317 H 32.4042 2.56772 4.04481 0
M  V30 318 H 30.7682 1.28238 2.20062 0
M  V30 319 H 31.5512 2.91014 1.82114 0
M  V30 320 N 33.9963 -1.19345 1.0293 0
M  V30 321 C 35.4073 -1.70725 0.755633 0
M  V30 322 C 35.7583 -1.82326 -0.724676 0
M  V30 323 O 34.8833 -1.49471 -1.56484 0
M  V30 324 C 35.4783 -3.10084 1.36503 0
M  V30 325 C 34.0373 -3.58723 1.13994 0
M  V30 326 C 33.1843 -2.35577 1.46283 0
M  V30 327 H 36.1353 -1.0418 1.19718 0
M  V30 328 H 36.1563 -3.72787 0.762217 0
M  V30 329 H 35.6683 -3.01609 2.44241 0
M  V30 330 H 33.7693 -3.72512 0.0807901 0
M  V30 331 H 33.8823 -4.42816 1.82894 0
M  V30 332 H 32.2463 -2.38935 0.88217 0
M  V30 333 H 33.0293 -2.29731 2.55105 0
M  V30 334 N 35.4744 -0.807222 -1.35358 0
M  V30 335 C 36.7144 -0.393534 -2.00576 0
M  V30 336 C 37.0784 1.0203 -1.62647 0
M  V30 337 O 38.2794 1.53603 -2.20589 0
M  V30 338 C 36.5504 -0.572017 -3.52793 0
M  V30 339 S 38.1094 -0.248845 -4.38094 0
M  V30 340 H 34.9274 -0.149425 -0.695121 0
M  V30 341 H 37.5294 -1.04961 -1.64935 0
M  V30 342 H 36.2334 -1.60097 -3.77885 0
M  V30 343 H 35.7644 0.099359 -3.93275 0
M  V30 344 H 37.7794 0.943253 -4.87152 0
M  V30 345 N 36.9525 1.47285 -0.560781 0
M  V30 346 C 38.2295 1.9558 0.0277798 0
M  V30 347 C 38.6095 1.5034 1.48192 0
M  V30 348 O 37.9575 0.743882 2.16052 0
M  V30 349 C 38.1675 3.48789 -0.121418 0
M  V30 350 C 39.5155 4.24594 0.0220912 0
M  V30 351 O 40.5395 3.56166 -0.0491439 0
M  V30 352 O 39.3985 5.46217 0.175958 0
M  V30 353 H 36.4925 0.824663 0.0621342 0
M  V30 354 H 39.0385 1.5767 -0.627556 0
M  V30 355 H 37.8105 3.74533 -1.13316 0
M  V30 356 H 37.4335 3.93473 0.571366 0
M  V30 357 N 38.4306 0.297415 1.54768 0
M  V30 358 C 39.3406 -0.58983 2.27064 0
M  V30 359 C 40.3566 -1.15144 1.30453 0
M  V30 360 O 41.5326 -1.17699 1.63428 0
M  V30 361 C 38.5976 -1.74714 2.9946 0
M  V30 362 C 37.6586 -1.21997 4.11601 0
M  V30 363 C 36.8916 -2.32212 4.80535 0
M  V30 364 O 37.1146 -3.52036 4.48806 0
M  V30 365 O 36.0486 -1.99106 5.68014 0
M  V30 366 H 39.8746 -0.00348199 3.037 0
M  V30 367 H 37.4596 0.0640035 1.49263 0
M  V30 368 H 39.3416 -2.42147 3.44881 0
M  V30 369 H 38.0166 -2.32016 2.25722 0
M  V30 370 H 36.9236 -0.511458 3.70587 0
M  V30 371 H 38.2566 -0.692419 4.87305 0
M  V30 372 N 39.9087 -1.5758 0.0250728 0
M  V30 373 C 41.3247 -1.56124 -0.331282 0
M  V30 374 C 41.5247 -1.03029 -1.73169 0
M  V30 375 O 40.5807 -0.675215 -2.43305 0
M  V30 376 C 41.8937 -3.00139 -0.183584 0
M  V30 377 C 43.4417 -3.11946 -0.256654 0
M  V30 378 C 43.9167 -4.57793 -0.137792 0
M  V30 379 N 45.4077 -4.6279 -0.194904 0
M  V30 380 C 46.1427 -5.7326 -0.126655 0
M  V30 381 N 45.6387 -6.928 -0.00755288 0
M  V30 382 N 47.4317 -5.61811 -0.180348 0
M  V30 383 H 39.5827 -1.90424 0.94087 0
M  V30 384 H 41.8457 -0.875761 0.362968 0
M  V30 385 H 41.5517 -3.4292 0.780927 0
M  V30 386 H 41.4257 -3.64899 -0.955448 0
M  V30 387 H 43.8127 -2.69079 -1.21162 0
M  V30 388 H 43.8937 -2.49915 0.545517 0
M  V30 389 H 43.5377 -5.01339 0.813739 0
M  V30 390 H 43.4677 -5.17798 -0.958775 0
M  V30 391 H 45.9587 -3.76807 -0.287267 0
M  V30 392 H 46.2717 -7.72791 0.0379428 0
M  V30 393 H 44.6167 -6.94995 0.0271731 0
M  V30 394 H 47.8077 -4.6731 -0.271767 0
M  V30 395 H 47.9807 -6.47882 -0.123697 0
M  V30 396 N 41.3868 0.248026 -1.55636 0
M  V30 397 C 42.8028 0.596483 -1.48035 0
M  V30 398 C 43.0028 1.88386 -0.715039 0
M  V30 399 O 42.0588 2.51319 -0.243944 0
M  V30 400 C 43.3718 0.700258 -2.92433 0
M  V30 401 C 44.9198 0.792659 -3.02797 0
M  V30 402 C 45.3948 0.928005 -4.485 0
M  V30 403 N 46.8858 0.992903 -4.52433 0
M  V30 404 C 47.6208 1.11687 -5.62418 0
M  V30 405 N 47.1168 1.20645 -6.82214 0
M  V30 406 N 48.9098 1.14994 -5.50212 0
M  V30 407 H 41.0608 -0.597109 -2.03834 0
M  V30 408 H 43.3238 -0.205925 -0.925364 0
M  V30 409 H 43.0298 -0.175658 -3.51261 0
M  V30 410 H 42.9038 1.57255 -3.42857 0
M  V30 411 H 45.2908 1.65903 -2.4405 0
M  V30 412 H 45.3718 -0.104762 -2.55585 0
M  V30 413 H 45.0158 0.0661971 -5.07857 0
M  V30 414 H 44.9458 1.84045 -4.93391 0
M  V30 415 H 47.4368 0.935064 -3.66149 0
M  V30 416 H 47.7498 1.30008 -7.61786 0
M  V30 417 H 46.0948 1.17605 -6.84977 0
M  V30 418 H 49.2858 1.07643 -4.55555 0
M  V30 419 H 49.4588 1.24311 -6.35965 0
M  V30 420 N 42.8649 1.48995 0.513639 0
M  V30 421 C 44.1049 1.59452 1.27885 0
M  V30 422 C 44.4689 0.269479 1.90099 0
M  V30 423 O 45.6699 0.249139 2.67643 0
M  V30 424 C 43.9409 2.71277 2.32688 0
M  V30 425 S 45.4999 3.01604 3.18717 0
M  V30 426 H 42.3179 0.562565 0.434789 0
M  V30 427 H 44.9199 1.86595 0.583301 0
M  V30 428 H 43.6239 3.66089 1.8549 0
M  V30 429 H 43.1549 2.46086 3.06929 0
M  V30 430 H 45.1699 2.42155 4.331 0
M  V30 431 N 44.343 -0.763751 1.37857 0
M  V30 432 C 45.568 -1.55805 1.36893 0
M  V30 433 C 45.993 -1.88054 -0.0416135 0
M  V30 434 O 45.351 -1.49825 -1.02089 0
M  V30 435 C 45.399 -2.84012 2.22192 0
M  V30 436 O 44.503 -3.78732 1.63204 0
M  V30 437 H 43.844 -0.471638 0.46739 0
M  V30 438 H 46.374 -0.944657 1.81487 0
M  V30 439 H 46.384 -3.33037 2.35691 0
M  V30 440 H 45.059 -2.59869 3.24716 0
M  V30 441 H 43.636 -3.37402 1.58791 0
M  V30 442 N 45.8211 -1.22559 -0.990812 0
M  V30 443 C 47.2321 -1.04791 -1.54518 0
M  V30 444 C 47.5831 0.387998 -1.92325 0
M  V30 445 O 46.7081 1.27328 -1.74976 0
M  V30 446 C 47.3031 -1.896 -2.80779 0
M  V30 447 C 45.8621 -1.76124 -3.32652 0
M  V30 448 C 45.0091 -1.8594 -2.05722 0
M  V30 449 H 47.9601 -1.36374 -0.811662 0
M  V30 450 H 47.9811 -1.41464 -3.53225 0
M  V30 451 H 47.4931 -2.94101 -2.53231 0
M  V30 452 H 45.5941 -0.743643 -3.65104 0
M  V30 453 H 45.7071 -2.58913 -4.03114 0
M  V30 454 H 44.0711 -1.29403 -2.19379 0
M  V30 455 H 44.8541 -2.91976 -1.80568 0
M  V30 456 N 47.2992 1.18797 -1.03562 0
M  V30 457 C 48.5462 1.8865 -0.736023 0
M  V30 458 C 48.8742 1.80041 0.735889 0
M  V30 459 O 48.1292 1.19179 1.55225 0
M  V30 460 C 48.4282 3.38692 -1.14117 0
M  V30 461 C 48.0942 3.67504 -2.6125 0
M  V30 462 C 46.7562 3.75078 -3.01447 0
M  V30 463 C 49.1082 3.80293 -3.56408 0
M  V30 464 C 46.4362 3.92915 -4.35701 0
M  V30 465 C 48.7882 3.99645 -4.90374 0
M  V30 466 C 47.4522 4.05453 -5.30249 0
M  V30 467 H 46.7222 0.690321 -0.26933 0
M  V30 468 H 49.3692 1.40641 -1.29971 0
M  V30 469 H 47.6742 3.88645 -0.496202 0
M  V30 470 H 49.3712 3.91072 -0.886789 0
M  V30 471 H 45.9612 3.62223 -2.29113 0
M  V30 472 H 50.1452 3.73779 -3.26501 0
M  V30 473 H 45.4012 3.95653 -4.66121 0
M  V30 474 H 49.5752 4.08482 -5.64017 0
M  V30 475 H 47.2022 4.19027 -6.34288 0
M  V30 476 N 48.7773 0.814389 1.34928 0
M  V30 477 C 50.1883 0.458364 1.80986 0
M  V30 478 C 50.5393 -1.02042 1.67577 0
M  V30 479 O 49.6643 -1.79352 1.21086 0
M  V30 480 C 50.2593 0.825212 3.28597 0
M  V30 481 C 48.8183 0.521677 3.72767 0
M  V30 482 C 47.9653 1.04668 2.56788 0
M  V30 483 H 50.9163 1.00533 1.22795 0
M  V30 484 H 50.9373 0.12571 3.80292 0
M  V30 485 H 50.4493 1.90154 3.38324 0
M  V30 486 H 48.5503 -0.545589 3.68584 0
M  V30 487 H 48.6633 1.05977 4.67232 0
M  V30 488 H 47.0273 0.468622 2.50352 0
M  V30 489 H 47.8103 2.12927 2.6929 0
M  V30 490 N 50.2554 -1.46986 0.568584 0
M  V30 491 C 51.1854 -2.32946 -0.160753 0
M  V30 492 C 52.1664 -1.44487 -0.897631 0
M  V30 493 O 53.3514 -1.73327 -0.875867 0
M  V30 494 C 50.4814 -3.26494 -1.18403 0
M  V30 495 C 49.4354 -4.24282 -0.562895 0
M  V30 496 C 48.7614 -5.07236 -1.69163 0
M  V30 497 C 50.0614 -5.19989 0.490761 0
M  V30 498 H 51.7554 -2.94175 0.556916 0
M  V30 499 H 49.3014 -1.4146 0.26927 0
M  V30 500 H 51.2544 -3.85477 -1.70251 0
M  V30 501 H 49.9784 -2.63343 -1.93179 0
M  V30 502 H 48.6374 -3.66541 -0.0656164 0
M  V30 503 H 48.2854 -4.4048 -2.42871 0
M  V30 504 H 47.9854 -5.7345 -1.28174 0
M  V30 505 H 49.5094 -5.6908 -2.21314 0
M  V30 506 H 50.9234 -5.73271 0.0579047 0
M  V30 507 H 49.3204 -5.94469 0.820165 0
M  V30 508 H 50.3904 -4.64777 1.3824 0
M  V30 509 N 51.7335 -0.305618 -1.54608 0
M  V30 510 C 52.9815 0.301701 -1.99835 0
M  V30 511 C 53.3025 1.54054 -1.19551 0
M  V30 512 O 52.5725 1.93702 -0.292658 0
M  V30 513 H 51.1525 0.114468 -0.738178 0
M  V30 514 H 53.8145 -0.418016 -1.90364 0
M  V30 515 H 52.9105 0.570548 -3.06841 0
M  V30 516 N 53.2116 1.57565 -0.0334293 0
M  V30 517 C 54.1746 2.09393 0.932048 0
M  V30 518 C 55.1746 1.00986 1.25134 0
M  V30 519 O 56.3646 1.27129 1.19096 0
M  V30 520 C 53.4966 2.56338 2.2473 0
M  V30 521 H 54.6896 2.95984 0.483085 0
M  V30 522 H 52.2426 1.54819 0.21468 0
M  V30 523 H 52.9776 1.7309 2.74245 0
M  V30 524 H 52.7626 3.35542 2.02865 0
M  V30 525 H 54.2526 2.96646 2.93923 0
M  V30 526 N 54.6897 -0.239769 1.55765 0
M  V30 527 C 55.6197 -1.30052 1.9393 0
M  V30 528 C 56.6007 -1.49839 0.805132 0
M  V30 529 O 57.7857 -1.62328 1.06599 0
M  V30 530 C 54.9157 -2.65391 2.2402 0
M  V30 531 C 53.8697 -2.60289 3.39755 0
M  V30 532 C 53.1957 -3.99489 3.55405 0
M  V30 533 C 54.4957 -2.16654 4.75246 0
M  V30 534 H 56.1897 -0.983573 2.82783 0
M  V30 535 H 53.7357 -0.471701 1.36055 0
M  V30 536 H 55.6887 -3.3974 2.49308 0
M  V30 537 H 54.4127 -2.98736 1.32 0
M  V30 538 H 53.0717 -1.88398 3.14487 0
M  V30 539 H 52.7197 -4.30112 2.60793 0
M  V30 540 H 52.4197 -3.96962 4.33238 0
M  V30 541 H 53.9437 -4.75528 3.83022 0
M  V30 542 H 55.3577 -2.80737 4.99859 0
M  V30 543 H 53.7547 -2.25223 5.56232 0
M  V30 544 H 54.8247 -1.11835 4.71827 0
M  V30 545 N 56.1678 -1.49265 -0.50573 0
M  V30 546 C 57.4138 -1.58748 -1.26202 0
M  V30 547 C 57.7468 -0.271227 -1.92297 0
M  V30 548 O 57.0218 0.724831 -1.80489 0
M  V30 549 C 57.3048 -2.74332 -2.33268 0
M  V30 550 C 57.1578 -4.15737 -1.71705 0
M  V30 551 C 58.4768 -2.85576 -3.34865 0
M  V30 552 H 55.5958 -0.577826 -0.457478 0
M  V30 553 H 58.2378 -1.81532 -0.560897 0
M  V30 554 H 56.3878 -2.55036 -2.93068 0
M  V30 555 H 58.0598 -4.46537 -1.15769 0
M  V30 556 H 56.3028 -4.21605 -1.02135 0
M  V30 557 H 56.9738 -4.92477 -2.49341 0
M  V30 558 H 59.4498 -3.03127 -2.8505 0
M  V30 559 H 58.3258 -3.68135 -4.07146 0
M  V30 560 H 58.5868 -1.94732 -3.96903 0
M  V30 561 N 57.6459 0.756429 -1.3826 0
M  V30 562 C 59.0569 1.33359 -1.30661 0
M  V30 563 C 59.4079 1.96161 0.0388875 0
M  V30 564 O 58.5329 1.94874 0.940918 0
M  V30 565 C 59.1279 2.42477 -2.36622 0
M  V30 566 C 57.6869 2.95922 -2.3261 0
M  V30 567 C 56.8339 1.69275 -2.19639 0
M  V30 568 H 59.7849 0.55552 -1.4866 0
M  V30 569 H 59.8059 3.22345 -2.02174 0
M  V30 570 H 59.3179 1.96739 -3.34538 0
M  V30 571 H 57.4189 3.45996 -1.38267 0
M  V30 572 H 57.5319 3.50494 -3.26636 0
M  V30 573 H 55.8959 1.92793 -1.66442 0
M  V30 574 H 56.6789 1.25619 -3.19491 0
M  V30 575 N 59.124 1.23083 0.984299 0
M  V30 576 C 60.37 1.06214 1.72761 0
M  V30 577 C 60.703 -0.400584 1.90024 0
M  V30 578 O 59.978 -1.29672 1.44967 0
M  V30 579 C 60.261 1.78375 3.12817 0
M  V30 580 C 60.114 3.32296 3.03149 0
M  V30 581 C 61.433 1.54309 4.12161 0
M  V30 582 H 58.552 0.387251 0.627061 0
M  V30 583 H 61.194 1.51536 1.14616 0
M  V30 584 H 59.344 1.39848 3.62457 0
M  V30 585 H 61.016 3.8032 2.61064 0
M  V30 586 H 59.259 3.6153 2.39747 0
M  V30 587 H 59.93 3.77972 4.02295 0
M  V30 588 H 62.406 1.87791 3.71314 0
M  V30 589 H 61.282 2.07281 5.08258 0
M  V30 590 H 61.543 0.477572 4.39513 0
M  V30 591 N 60.6021 -1.18246 1.0419 0
M  V30 592 C 61.8301 -1.92195 0.766072 0
M  V30 593 C 62.2451 -1.76247 -0.676933 0
M  V30 594 O 61.6021 -1.09293 -1.46155 0
M  V30 595 C 61.6531 -3.43568 1.12442 0
M  V30 596 O 61.3741 -3.59015 2.51078 0
M  V30 597 C 62.8751 -4.34613 0.873275 0
M  V30 598 H 60.0951 -0.610114 0.279288 0
M  V30 599 H 62.6391 -1.50007 1.38989 0
M  V30 600 H 60.7941 -3.8354 0.545542 0
M  V30 601 H 61.2081 -4.5273 2.64831 0
M  V30 602 H 62.6821 -5.39374 1.17385 0
M  V30 603 H 63.1591 -4.38781 -0.191909 0
M  V30 604 H 63.7651 -4.00341 1.43551 0
M  V30 605 N 62.0802 -0.821533 -1.34494 0
M  V30 606 C 63.0432 -0.247847 -2.27856 0
M  V30 607 C 64.0432 0.573453 -1.50227 0
M  V30 608 O 65.2332 0.389759 -1.69784 0
M  V30 609 C 62.3652 0.652698 -3.34593 0
M  V30 610 H 63.5582 -1.07146 -2.80107 0
M  V30 611 H 61.1112 -0.593291 -1.44602 0
M  V30 612 H 61.8462 1.49943 -2.87555 0
M  V30 613 H 61.6312 0.065292 -3.92046 0
M  V30 614 H 63.1212 1.04793 -4.04238 0
M  V30 615 N 63.5583 1.46682 -0.576371 0
M  V30 616 C 64.8043 2.02712 -0.0596221 0
M  V30 617 C 65.1373 1.44765 1.29448 0
M  V30 618 O 64.4123 0.610355 1.84675 0
M  V30 619 C 64.6953 3.60098 0.0129503 0
M  V30 620 C 64.5483 4.28441 -1.3696 0
M  V30 621 C 65.8673 4.34224 0.71678 0
M  V30 622 H 62.9863 0.736637 -0.0231407 0
M  V30 623 H 65.6283 1.74898 -0.742351 0
M  V30 624 H 63.7783 3.83926 0.594378 0
M  V30 625 H 65.4503 4.15896 -1.9957 0
M  V30 626 H 63.6933 3.8805 -1.93907 0
M  V30 627 H 64.3643 5.3716 -1.27135 0
M  V30 628 H 66.8403 4.15503 0.222908 0
M  V30 629 H 65.7163 5.43936 0.73657 0
M  V30 630 H 65.9773 4.04823 1.77682 0
M  V30 631 N 65.0364 0.313813 1.54444 0
M  V30 632 C 66.2764 -0.292389 2.02298 0
M  V30 633 C 66.6404 -1.50105 1.19719 0
M  V30 634 O 67.8414 -2.17947 1.5733 0
M  V30 635 C 66.1124 -0.627682 3.51845 0
M  V30 636 S 67.6714 -1.21493 4.21646 0
M  V30 637 H 64.4894 -0.0890247 0.705405 0
M  V30 638 H 67.0914 0.444668 1.90376 0
M  V30 639 H 65.7954 0.260265 4.09574 0
M  V30 640 H 65.3264 -1.39519 3.67829 0
M  V30 641 H 67.3414 -2.5022 4.28491 0
M  V30 642 N 66.5145 -1.57545 0.0417849 0
M  V30 643 C 67.4445 -2.14009 -0.933929 0
M  V30 644 C 68.4255 -1.05938 -1.33083 0
M  V30 645 O 69.6105 -1.33833 -1.40721 0
M  V30 646 C 66.7405 -2.67747 -2.21199 0
M  V30 647 C 65.6945 -3.80718 -1.95544 0
M  V30 648 C 65.0205 -4.20935 -3.29724 0
M  V30 649 C 66.3205 -5.06258 -1.28452 0
M  V30 650 H 68.0145 -2.95788 -0.463645 0
M  V30 651 H 65.5605 -1.42285 -0.221573 0
M  V30 652 H 67.5135 -3.05886 -2.89848 0
M  V30 653 H 66.2375 -1.83147 -2.70416 0
M  V30 654 H 64.8965 -3.43037 -1.2931 0
M  V30 655 H 64.5445 -3.33298 -3.76724 0
M  V30 656 H 64.2445 -4.9707 -3.13361 0
M  V30 657 H 65.7685 -4.61666 -3.9962 0
M  V30 658 H 67.1825 -5.41903 -1.8712 0
M  V30 659 H 65.5795 -5.87475 -1.22445 0
M  V30 660 H 66.6495 -4.84207 -0.259219 0
M  V30 661 N 67.9926 0.231505 -1.5589 0
M  V30 662 C 69.2326 0.964533 -1.80211 0
M  V30 663 C 69.5966 1.81926 -0.613744 0
M  V30 664 O 70.7976 2.58526 -0.736045 0
M  V30 665 C 69.0686 1.78956 -3.09369 0
M  V30 666 S 70.6276 2.57959 -3.54969 0
M  V30 667 H 67.4456 0.324173 -0.632798 0
M  V30 668 H 70.0476 0.230985 -1.94131 0
M  V30 669 H 68.7516 1.15161 -3.93911 0
M  V30 670 H 68.2826 2.56559 -2.9823 0
M  V30 671 H 70.2976 3.81309 -3.17519 0
M  V30 672 N 69.4707 1.49531 0.497807 0
M  V30 673 C 70.4007 1.6935 1.60757 0
M  V30 674 C 71.3817 0.542218 1.61227 0
M  V30 675 O 72.5667 0.778417 1.77917 0
M  V30 676 C 69.6967 1.76298 2.99226 0
M  V30 677 C 68.6507 2.91248 3.13622 0
M  V30 678 C 67.9767 2.83312 4.53474 0
M  V30 679 C 69.2767 4.3214 2.93346 0
M  V30 680 H 70.9707 2.62263 1.44425 0
M  V30 681 H 68.5167 1.26208 0.693367 0
M  V30 682 H 70.4697 1.88749 3.76765 0
M  V30 683 H 69.1937 0.799871 3.16654 0
M  V30 684 H 67.8527 2.78404 2.38509 0
M  V30 685 H 67.5007 1.84902 4.67782 0
M  V30 686 H 67.2007 3.60465 4.64046 0
M  V30 687 H 68.7247 2.97775 5.33069 0
M  V30 688 H 70.1387 4.45649 3.60652 0
M  V30 689 H 68.5357 5.1054 3.15387 0
M  V30 690 H 69.6057 4.46363 1.89441 0
M  V30 691 N 70.9488 -0.749086 1.3866 0
M  V30 692 C 72.1958 -1.50833 1.35114 0
M  V30 693 C 72.5238 -1.94415 -0.0574049 0
M  V30 694 O 71.7788 -1.66065 -1.03541 0
M  V30 695 C 72.0778 -2.7712 2.25697 0
M  V30 696 C 71.7438 -2.52477 3.73585 0
M  V30 697 C 70.4058 -2.45466 4.13884 0
M  V30 698 C 72.7578 -2.31066 4.67181 0
M  V30 699 C 70.0858 -2.15064 5.45861 0
M  V30 700 C 72.4378 -2.02183 5.9942 0
M  V30 701 C 71.1018 -1.93631 6.38798 0
M  V30 702 H 70.3718 -0.551936 0.494416 0
M  V30 703 H 73.0188 -0.860979 1.71054 0
M  V30 704 H 71.3238 -3.46528 1.82827 0
M  V30 705 H 73.0208 -3.35096 2.20254 0
M  V30 706 H 69.6108 -2.58807 3.41638 0
M  V30 707 H 73.7948 -2.35459 4.3689 0
M  V30 708 H 69.0508 -2.06954 5.75308 0
M  V30 709 H 73.2248 -1.8462 6.71482 0
M  V30 710 H 70.8518 -1.69839 7.40985 0
M  V30 711 N 72.4269 -1.23603 -0.977757 0
M  V30 712 C 73.6729 -1.07129 -1.72195 0
M  V30 713 C 74.0059 0.390501 -1.90233 0
M  V30 714 O 73.2809 1.28902 -1.45653 0
M  V30 715 C 73.5639 -1.80031 -3.11867 0
M  V30 716 C 73.4169 -3.33899 -3.01383 0
M  V30 717 C 74.7359 -1.56492 -4.11337 0
M  V30 718 H 71.8549 -0.390571 -0.624999 0
M  V30 719 H 74.4969 -1.52142 -1.13811 0
M  V30 720 H 72.6469 -1.41768 -3.6171 0
M  V30 721 H 74.3189 -3.81699 -2.59043 0
M  V30 722 H 72.5619 -3.62796 -2.37827 0
M  V30 723 H 73.2329 -3.801 -4.00285 0
M  V30 724 H 75.7089 -1.89757 -3.70313 0
M  V30 725 H 74.5849 -2.09973 -5.07151 0
M  V30 726 H 74.8459 -0.500874 -4.39254 0
M  V30 727 N 73.905 1.17692 -1.04816 0
M  V30 728 C 75.151 1.88137 -0.75711 0
M  V30 729 C 75.484 1.80604 0.713841 0
M  V30 730 O 74.759 1.21146 1.52164 0
M  V30 731 C 75.042 3.38318 -1.2334 0
M  V30 732 C 74.895 3.54622 -2.76701 0
M  V30 733 C 76.214 4.32214 -0.829415 0
M  V30 734 H 73.333 0.683163 -0.27651 0
M  V30 735 H 75.975 1.38424 -1.30149 0
M  V30 736 H 74.125 3.80787 -0.770286 0
M  V30 737 H 75.797 3.21194 -3.31107 0
M  V30 738 H 74.04 2.97026 -3.16161 0
M  V30 739 H 74.711 4.60028 -3.05088 0
M  V30 740 H 77.187 3.97565 -1.22805 0
M  V30 741 H 76.063 5.35838 -1.19033 0
M  V30 742 H 76.324 4.41294 0.266891 0
M  V30 743 N 75.3831 0.828654 1.34056 0
M  V30 744 C 76.6311 0.41863 1.97717 0
M  V30 745 C 76.9521 -1.02314 1.66002 0
M  V30 746 O 76.2221 -1.71119 0.953683 0
M  V30 747 H 74.8021 0.151809 0.731412 0
M  V30 748 H 77.4641 1.05936 1.63596 0
M  V30 749 H 76.5601 0.542318 3.07352 0
M  V30 750 N 76.8612 -1.46375 0.584142 0
M  V30 751 C 78.1072 -2.02678 0.0703716 0
M  V30 752 C 78.4402 -1.4545 -1.28678 0
M  V30 753 O 77.7152 -0.62014 -1.84349 0
M  V30 754 C 77.9982 -3.60099 0.00614674 0
M  V30 755 C 77.8512 -4.27709 1.3923 0
M  V30 756 C 79.1702 -4.34598 -0.693742 0
M  V30 757 H 76.2892 -0.736504 0.027047 0
M  V30 758 H 78.9312 -1.74501 0.751615 0
M  V30 759 H 77.0812 -3.84236 -0.574009 0
M  V30 760 H 78.7532 -4.14832 2.01773 0
M  V30 761 H 76.9962 -3.87016 1.95962 0
M  V30 762 H 77.6672 -5.36478 1.29982 0
M  V30 763 H 80.1432 -4.15615 -0.200869 0
M  V30 764 H 79.0192 -5.44318 -0.707714 0
M  V30 765 H 79.2802 -4.05759 -1.75533 0
M  V30 766 N 78.3393 -0.321999 -1.54275 0
M  V30 767 C 79.5643 0.285791 -2.05422 0
M  V30 768 C 79.9893 1.45124 -1.19669 0
M  V30 769 O 79.3473 1.80132 -0.205441 0
M  V30 770 C 79.3953 0.69956 -3.53749 0
M  V30 771 O 78.4993 1.8021 -3.70942 0
M  V30 772 H 77.8403 0.0518962 -0.661969 0
M  V30 773 H 80.3703 -0.469954 -1.9913 0
M  V30 774 H 80.3803 0.982649 -3.9599 0
M  V30 775 H 79.0553 -0.152864 -4.15619 0
M  V30 776 H 77.6323 1.51794 -3.40607 0
M  V30 777 N 79.8174 1.5752 -0.0501392 0
M  V30 778 C 81.0654 1.9227 0.622642 0
M  V30 779 C 81.3864 0.929083 1.71444 0
M  V30 780 O 80.6564 -0.0262186 1.95882 0
M  V30 781 H 79.2364 0.709739 0.232981 0
M  V30 782 H 81.8984 1.94628 -0.102898 0
M  V30 783 H 80.9944 2.93479 1.06191 0
M  V30 784 N 81.2955 -0.223234 1.56011 0
M  V30 785 C 82.2435 -1.29627 1.93131 0
M  V30 786 C 83.2375 -1.48608 0.813146 0
M  V30 787 O 84.4435 -1.49802 0.997966 0
M  V30 788 H 80.8185 -0.434563 0.613726 0
M  V30 789 H 82.7895 -0.955995 2.82672 0
M  V30 790 C 81.5385 -2.63983 2.26292 0
M  V30 791 H 80.8615 -2.50185 3.11846 0
M  V30 792 H 82.3015 -3.3788 2.56151 0
M  V30 793 C 80.7605 -3.18866 1.08747 0
M  V30 794 O 81.2905 -4.00192 0.347727 0
M  V30 795 N 79.4965 -2.77217 0.871743 0
M  V30 796 H 79.0435 -2.1119 1.47501 0
M  V30 797 H 79.0015 -3.1428 0.0869905 0
M  V30 798 N 82.7736 -1.49793 -0.48987 0
M  V30 799 C 84.0196 -1.60078 -1.24511 0
M  V30 800 C 84.3526 -0.291608 -1.91998 0
M  V30 801 O 83.6276 0.705647 -1.81248 0
M  V30 802 C 83.9106 -2.76791 -2.30345 0
M  V30 803 C 83.7636 -4.17535 -1.67286 0
M  V30 804 C 85.0826 -2.89111 -3.31817 0
M  V30 805 H 82.2016 -0.582645 -0.451324 0
M  V30 806 H 84.8436 -1.82117 -0.541612 0
M  V30 807 H 82.9936 -2.5813 -2.90346 0
M  V30 808 H 84.6656 -4.4774 -1.11026 0
M  V30 809 H 82.9086 -4.22665 -0.976577 0
M  V30 810 H 83.5796 -4.95094 -2.44103 0
M  V30 811 H 86.0556 -3.06133 -2.81819 0
M  V30 812 H 84.9316 -3.72433 -4.03219 0
M  V30 813 H 85.1926 -1.9893 -3.94815 0
M  V30 814 N 84.2517 0.741722 -1.39055 0
M  V30 815 C 85.4977 1.50336 -1.36113 0
M  V30 816 C 85.8307 1.94148 0.0450796 0
M  V30 817 O 85.1057 1.66301 1.00868 0
M  V30 818 C 85.3887 2.74773 -2.32749 0
M  V30 819 C 85.2417 2.37023 -3.82283 0
M  V30 820 C 86.5607 3.76846 -2.27322 0
M  V30 821 H 83.6797 0.545351 -0.495743 0
M  V30 822 H 86.3217 0.848624 -1.69995 0
M  V30 823 H 84.4717 3.30639 -2.03986 0
M  V30 824 H 86.1437 1.8684 -4.21768 0
M  V30 825 H 84.3867 1.69334 -3.99385 0
M  V30 826 H 85.0577 3.26104 -4.45376 0
M  V30 827 H 87.5337 3.30548 -2.5274 0
M  V30 828 H 86.4097 4.6159 -2.97028 0
M  V30 829 H 86.6707 4.23286 -1.27599 0
M  V30 830 N 85.7298 1.2412 0.971189 0
M  V30 831 C 86.9578 1.10575 1.74874 0
M  V30 832 C 87.3728 -0.342017 1.85676 0
M  V30 833 O 86.7298 -1.23617 1.34258 0
M  V30 834 C 86.7808 1.73579 3.171 0
M  V30 835 O 86.5018 3.12695 3.06844 0
M  V30 836 C 88.0028 1.65598 4.11208 0
M  V30 837 H 85.2228 0.386504 0.548503 0
M  V30 838 H 87.7668 1.64156 1.21955 0
M  V30 839 H 85.9218 1.24009 3.67016 0
M  V30 840 H 86.3358 3.43412 3.96445 0
M  V30 841 H 87.8098 2.1437 5.08674 0
M  V30 842 H 88.2868 0.616532 4.34851 0
M  V30 843 H 88.8928 2.14578 3.67201 0
M  V30 844 N 87.2079 -1.17134 1.05439 0
M  V30 845 C 88.4539 -1.87733 0.767077 0
M  V30 846 C 88.7869 -1.8098 -0.704253 0
M  V30 847 O 88.0619 -1.21951 -1.5152 0
M  V30 848 C 88.3449 -3.37659 1.25133 0
M  V30 849 C 88.1979 -3.53149 2.78578 0
M  V30 850 C 89.5169 -4.31768 0.852324 0
M  V30 851 H 86.6359 -0.681687 0.280129 0
M  V30 852 H 89.2779 -1.37732 1.30881 0
M  V30 853 H 87.4279 -3.80373 0.790469 0
M  V30 854 H 89.0999 -3.19434 3.32806 0
M  V30 855 H 87.3429 -2.95345 3.17732 0
M  V30 856 H 88.0139 -4.58403 3.07523 0
M  V30 857 H 90.4899 -3.96909 1.24911 0
M  V30 858 H 89.3659 -5.35199 1.21873 0
M  V30 859 H 89.6269 -4.41429 -0.243485 0
M  V30 860 N 88.686 -0.835752 -1.33615 0
M  V30 861 C 89.619 -0.211815 -2.27215 0
M  V30 862 C 90.597 0.639249 -1.49507 0
M  V30 863 O 91.781 0.600193 -1.78689 0
M  V30 864 C 88.908 0.702893 -3.31326 0
M  V30 865 C 87.954 -0.0723049 -4.26439 0
M  V30 866 S 88.787 -1.42811 -5.16106 0
M  V30 867 C 89.943 -0.518613 -6.23748 0
M  V30 868 H 90.176 -1.00533 -2.79786 0
M  V30 869 H 87.709 -0.632336 -1.40858 0
M  V30 870 H 89.667 1.22505 -3.91794 0
M  V30 871 H 88.328 1.47004 -2.77576 0
M  V30 872 H 87.521 0.62359 -5.00127 0
M  V30 873 H 87.123 -0.525424 -3.70291 0
M  V30 874 H 89.415 0.284778 -6.76901 0
M  V30 875 H 90.358 -1.22556 -6.97413 0
M  V30 876 H 90.766 -0.101344 -5.64409 0
M  V30 877 N 90.1641 1.46063 -0.591896 0
M  V30 878 C 91.0941 2.33172 0.123673 0
M  V30 879 C 92.0751 1.45897 0.87453 0
M  V30 880 O 93.2601 1.74698 0.848181 0
M  V30 881 C 90.3901 3.28336 1.13194 0
M  V30 882 C 89.3441 4.25124 0.495324 0
M  V30 883 C 88.6701 5.09863 1.61071 0
M  V30 884 C 89.9701 5.19143 -0.573425 0
M  V30 885 H 91.6641 2.93252 -0.603646 0
M  V30 886 H 89.2101 1.41014 -0.291741 0
M  V30 887 H 91.1631 3.88137 1.64097 0
M  V30 888 H 89.8871 2.66383 1.88965 0
M  V30 889 H 88.5461 3.66599 0.00729452 0
M  V30 890 H 88.1941 4.44288 2.35832 0
M  V30 891 H 87.8941 5.75417 1.19035 0
M  V30 892 H 89.4181 5.72529 2.12233 0
M  V30 893 H 90.8321 5.73106 -0.1491 0
M  V30 894 H 89.2291 5.93089 -0.914636 0
M  V30 895 H 90.2991 4.62519 -1.45617 0
M  V30 896 N 91.6422 0.330177 1.54103 0
M  V30 897 C 92.8912 -0.271336 1.99867 0
M  V30 898 C 93.2042 -1.52723 1.22209 0
M  V30 899 O 94.4102 -2.20515 1.58383 0
M  V30 900 C 92.8662 -0.534032 3.55916 0
M  V30 901 C 92.4742 0.705193 4.42415 0
M  V30 902 C 94.2182 -1.09514 4.1013 0
M  V30 903 C 92.1252 0.414035 5.89949 0
M  V30 904 H 91.0552 -0.105166 0.74663 0
M  V30 905 H 93.7062 0.443429 1.78062 0
M  V30 906 H 92.0882 -1.30915 3.73734 0
M  V30 907 H 93.2622 1.4804 4.36372 0
M  V30 908 H 91.5772 1.18698 3.99124 0
M  V30 909 H 94.1742 -1.3277 5.17954 0
M  V30 910 H 94.5172 -2.04656 3.62521 0
M  V30 911 H 95.0502 -0.381038 3.95971 0
M  V30 912 H 91.7892 1.33481 6.41766 0
M  V30 913 H 91.3092 -0.323336 5.98928 0
M  V30 914 H 92.9882 0.0263105 6.46995 0
M  V30 915 N 93.1203 -1.57491 0.0584922 0
M  V30 916 C 94.3683 -1.92597 -0.612436 0
M  V30 917 C 94.6893 -0.938162 -1.70949 0
M  V30 918 O 93.9593 0.0158301 -1.95894 0
M  V30 919 H 92.5393 -0.710964 -0.229214 0
M  V30 920 H 95.2013 -1.94571 0.113218 0
M  V30 921 H 94.2973 -2.94038 -1.04633 0
M  V30 922 N 94.5984 0.214957 -1.56127 0
M  V30 923 C 96.0144 0.564948 -1.49267 0
M  V30 924 C 96.2144 1.86827 -0.754838 0
M  V30 925 O 95.2704 2.50745 -0.297198 0
M  V30 926 C 96.5834 0.638071 -2.93852 0
M  V30 927 C 98.1314 0.728253 -3.0441 0
M  V30 928 C 98.6064 0.832663 -4.50367 0
M  V30 929 N 100.097 0.896712 -4.54437 0
M  V30 930 C 100.832 0.997324 -5.6466 0
M  V30 931 N 100.328 1.06147 -6.8462 0
M  V30 932 N 102.121 1.03297 -5.52527 0
M  V30 933 H 94.2724 -0.640211 -2.02522 0
M  V30 934 H 96.5354 -0.225507 -0.920788 0
M  V30 935 H 96.2414 -0.250126 -3.50809 0
M  V30 936 H 96.1154 1.49947 -3.46115 0
M  V30 937 H 98.5024 1.60689 -2.47514 0
M  V30 938 H 98.5834 -0.158952 -2.55306 0
M  V30 939 H 98.2274 -0.0415417 -5.07883 0
M  V30 940 H 98.1574 1.73538 -4.97184 0
M  V30 941 H 100.648 0.857188 -3.6805 0
M  V30 942 H 100.961 1.1382 -7.64372 0
M  V30 943 H 99.3064 1.03049 -6.87318 0
M  V30 944 H 102.497 0.979558 -4.57736 0
M  V30 945 H 102.67 1.10793 -6.38458 0
M  V30 946 N 96.0765 1.50051 0.48192 0
M  V30 947 C 97.3065 1.63999 1.2565 0
M  V30 948 C 97.7145 0.318288 1.86504 0
M  V30 949 O 97.0575 -0.708534 1.69486 0
M  V30 950 C 97.1195 2.66504 2.4128 0
M  V30 951 C 96.7835 4.10352 2.01148 0
M  V30 952 C 97.7805 4.96562 1.54021 0
M  V30 953 C 95.4655 4.56203 2.10199 0
M  V30 954 C 97.4595 6.26668 1.16473 0
M  V30 955 C 95.1465 5.86318 1.72264 0
M  V30 956 C 96.1445 6.71375 1.25477 0
M  V30 957 O 95.8325 7.99062 0.880626 0
M  V30 958 H 95.5645 0.55456 0.386574 0
M  V30 959 H 98.1185 1.96954 0.582944 0
M  V30 960 H 96.3485 2.28769 3.11772 0
M  V30 961 H 98.0375 2.69783 3.03268 0
M  V30 962 H 98.8035 4.62358 1.46458 0
M  V30 963 H 94.6825 3.90152 2.45566 0
M  V30 964 H 98.2265 6.93011 0.798841 0
M  V30 965 H 94.1235 6.20046 1.79482 0
M  V30 966 H 94.8915 8.12239 1.01043 0
M  V30 967 N 97.5546 -0.734337 1.39446 0
M  V30 968 C 98.9706 -1.03997 1.21065 0
M  V30 969 C 99.1706 -2.01369 0.0727019 0
M  V30 970 O 98.2266 -2.45856 -0.575426 0
M  V30 971 C 99.5396 -1.60163 2.54496 0
M  V30 972 C 101.088 -1.7224 2.61347 0
M  V30 973 C 101.563 -2.31814 3.95002 0
M  V30 974 N 103.054 -2.39223 3.96644 0
M  V30 975 C 103.789 -2.86258 4.96834 0
M  V30 976 N 103.285 -3.33184 6.07421 0
M  V30 977 N 105.078 -2.85473 4.84213 0
M  V30 978 H 97.2286 -0.0885624 2.12215 0
M  V30 979 H 99.4916 -0.10191 0.942506 0
M  V30 980 H 99.1976 -0.960811 3.38321 0
M  V30 981 H 99.0716 -2.5896 2.74262 0
M  V30 982 H 101.459 -2.35443 1.77906 0
M  V30 983 H 101.54 -0.720939 2.4543 0
M  V30 984 H 101.184 -1.69238 4.78875 0
M  V30 985 H 101.114 -3.32638 4.08239 0
M  V30 986 H 103.605 -2.06057 3.16779 0
M  V30 987 H 103.918 -3.67586 6.7978 0
M  V30 988 H 102.263 -3.31191 6.11013 0
M  V30 989 H 105.454 -2.48136 3.96921 0
M  V30 990 H 105.627 -3.21814 5.62441 0
M  V30 991 N 99.0327 -1.24633 -0.964593 0
M  V30 992 C 100.31 -0.995809 -1.68354 0
M  V30 993 C 100.69 0.480964 -2.05548 0
M  V30 994 O 100.038 1.45599 -1.76105 0
M  V30 995 C 100.248 -1.92177 -2.91323 0
M  V30 996 C 101.596 -2.19446 -3.63495 0
M  V30 997 O 102.62 -1.89855 -3.01386 0
M  V30 998 O 101.479 -2.69714 -4.75307 0
M  V30 999 H 98.5727 -0.376854 -0.736146 0
M  V30 1000 H 101.119 -1.35745 -1.0184 0
M  V30 1001 H 99.8907 -2.91938 -2.60553 0
M  V30 1002 H 99.5137 -1.56349 -3.65569 0
M  V30 1003 N 100.511 1.16574 -1.06058 0
M  V30 1004 C 101.444 2.19798 -0.61352 0
M  V30 1005 C 102.422 1.58509 0.362453 0
M  V30 1006 O 103.606 1.86527 0.271994 0
M  V30 1007 C 100.733 3.3855 0.100915 0
M  V30 1008 C 99.7788 4.18317 -0.831438 0
M  V30 1009 S 100.612 4.82375 -2.32539 0
M  V30 1010 C 101.768 6.04508 -1.62238 0
M  V30 1011 H 102.001 2.5738 -1.48805 0
M  V30 1012 H 99.5338 1.27327 -0.873338 0
M  V30 1013 H 101.492 4.07358 0.506898 0
M  V30 1014 H 100.153 2.99338 0.951604 0
M  V30 1015 H 99.3458 5.03232 -0.278071 0
M  V30 1016 H 98.9478 3.5499 -1.17719 0
M  V30 1017 H 101.24 6.71133 -0.926622 0
M  V30 1018 H 102.183 6.64389 -2.44934 0
M  V30 1019 H 102.591 5.53559 -1.106 0
M  V30 1020 N 101.989 0.842826 1.3317 0
M  V30 1021 C 103.405 0.531128 1.50503 0
M  V30 1022 C 103.605 -0.940734 1.78192 0
M  V30 1023 O 102.661 -1.72436 1.84451 0
M  V30 1024 C 103.974 1.40789 2.65705 0
M  V30 1025 C 105.522 1.40708 2.79589 0
M  V30 1026 C 105.997 2.26878 3.97857 0
M  V30 1027 N 107.488 2.24609 4.05099 0
M  V30 1028 C 108.223 2.88019 4.95815 0
M  V30 1029 N 107.719 3.60496 5.9162 0
M  V30 1030 N 109.512 2.77469 4.88843 0
M  V30 1031 H 101.663 1.79557 1.1346 0
M  V30 1032 H 103.926 0.766267 0.558156 0
M  V30 1033 H 103.632 2.454 2.51936 0
M  V30 1034 H 103.506 1.08677 3.61205 0
M  V30 1035 H 105.893 0.368668 2.92788 0
M  V30 1036 H 105.974 1.76829 1.84838 0
M  V30 1037 H 105.618 3.3078 3.85418 0
M  V30 1038 H 105.548 1.88096 4.91861 0
M  V30 1039 H 108.039 1.71906 3.36536 0
M  V30 1040 H 108.352 4.06076 6.57512 0
M  V30 1041 H 106.697 3.64604 5.91683 0
M  V30 1042 H 109.888 2.20406 4.12963 0
M  V30 1043 H 110.061 3.2717 5.59342 0
M  V30 1044 N 103.467 -1.45747 0.599634 0
M  V30 1045 C 104.695 -2.06668 0.0978551 0
M  V30 1046 C 105.11 -1.44562 -1.21439 0
M  V30 1047 O 104.467 -0.556923 -1.73795 0
M  V30 1048 C 104.518 -3.61456 -0.0567044 0
M  V30 1049 O 104.239 -4.21242 1.20361 0
M  V30 1050 C 105.74 -4.39345 -0.590869 0
M  V30 1051 H 102.96 -0.667825 0.0651943 0
M  V30 1052 H 105.504 -1.87115 0.82511 0
M  V30 1053 H 103.659 -3.80378 -0.734251 0
M  V30 1054 H 104.073 -5.14323 1.02821 0
M  V30 1055 H 105.547 -5.48182 -0.648131 0
M  V30 1056 H 106.024 -4.08568 -1.61147 0
M  V30 1057 H 106.63 -4.25268 0.0523679 0
M  V30 1058 N 104.945 -0.338344 -1.53925 0
M  V30 1059 C 106.173 0.261298 -2.05243 0
M  V30 1060 C 106.588 1.44625 -1.21363 0
M  V30 1061 O 105.945 1.80811 -0.247736 0
M  V30 1062 C 105.996 0.681412 -3.5502 0
M  V30 1063 O 105.717 -0.456414 -4.35716 0
M  V30 1064 C 107.218 1.34232 -4.22489 0
M  V30 1065 H 104.438 0.0513685 -0.669031 0
M  V30 1066 H 106.982 -0.488822 -1.98572 0
M  V30 1067 H 105.137 1.38148 -3.61931 0
M  V30 1068 H 105.551 -0.122564 -5.24357 0
M  V30 1069 H 107.025 1.58708 -5.28693 0
M  V30 1070 H 107.502 2.29426 -3.74514 0
M  V30 1071 H 108.108 0.684424 -4.19757 0
M  V30 1072 N 106.423 1.57458 -0.0668435 0
M  V30 1073 C 107.651 1.97624 0.612565 0
M  V30 1074 C 108.066 0.94502 1.63447 0
M  V30 1075 O 107.423 -0.0689276 1.8237 0
M  V30 1076 C 107.474 3.37869 1.28555 0
M  V30 1077 O 107.195 4.3704 0.304557 0
M  V30 1078 C 108.696 3.92882 2.05325 0
M  V30 1079 H 105.916 0.650045 0.166381 0
M  V30 1080 H 108.46 2.04035 -0.137782 0
M  V30 1081 H 106.615 3.3256 1.98702 0
M  V30 1082 H 107.029 5.18565 0.786779 0
M  V30 1083 H 108.503 4.93247 2.47812 0
M  V30 1084 H 108.98 3.29156 2.9078 0
M  V30 1085 H 109.586 4.01577 1.40056 0
M  V30 1086 N 107.901 -0.206675 1.56239 0
M  V30 1087 C 108.849 -1.27571 1.94495 0
M  V30 1088 C 109.843 -1.47737 0.828862 0
M  V30 1089 O 111.049 -1.48735 1.0138 0
M  V30 1090 H 107.424 -0.428029 0.6183 0
M  V30 1091 H 109.395 -0.925961 2.8367 0
M  V30 1092 C 108.144 -2.61568 2.29079 0
M  V30 1093 H 107.467 -2.46863 3.14482 0
M  V30 1094 H 108.907 -3.35144 2.5972 0
M  V30 1095 C 107.366 -3.17695 1.12123 0
M  V30 1096 O 107.896 -3.99801 0.390153 0
M  V30 1097 N 106.102 -2.76276 0.901097 0
M  V30 1098 H 105.649 -2.09613 1.49733 0
M  V30 1099 H 105.607 -3.1417 0.120319 0
M  V30 1100 N 109.379 -1.50304 -0.473955 0
M  V30 1101 C 110.309 -1.71886 -1.58042 0
M  V30 1102 C 111.29 -0.567799 -1.60344 0
M  V30 1103 O 112.475 -0.806623 -1.76656 0
M  V30 1104 C 109.605 -1.81036 -2.96384 0
M  V30 1105 C 108.559 -2.962 -3.08949 0
M  V30 1106 C 107.885 -2.9049 -4.48909 0
M  V30 1107 C 109.185 -4.36752 -2.86434 0
M  V30 1108 H 110.879 -2.64527 -1.40234 0
M  V30 1109 H 108.425 -1.27295 -0.673201 0
M  V30 1110 H 110.378 -1.94719 -3.73714 0
M  V30 1111 H 109.102 -0.850147 -3.15341 0
M  V30 1112 H 107.761 -2.82164 -2.3405 0
M  V30 1113 H 107.409 -1.92321 -4.64781 0
M  V30 1114 H 107.109 -3.67802 -4.58253 0
M  V30 1115 H 108.633 -3.06218 -5.28264 0
M  V30 1116 H 110.047 -4.5133 -3.53517 0
M  V30 1117 H 108.444 -5.15493 -3.07225 0
M  V30 1118 H 109.514 -4.49321 -1.82316 0
M  V30 1119 N 110.857 0.726932 -1.39834 0
M  V30 1120 C 112.087 1.51393 -1.40583 0
M  V30 1121 C 112.495 1.892 -0.000740625 0
M  V30 1122 O 111.838 1.55189 0.982951 0
M  V30 1123 C 111.9 2.82588 -2.22226 0
M  V30 1124 C 111.564 2.67169 -3.70769 0
M  V30 1125 C 112.561 2.3518 -4.63666 0
M  V30 1126 C 110.246 2.83788 -4.14451 0
M  V30 1127 C 112.24 2.20002 -5.98229 0
M  V30 1128 C 109.927 2.68229 -5.49087 0
M  V30 1129 C 110.925 2.36382 -6.4079 0
M  V30 1130 O 110.613 2.2093 -7.72946 0
M  V30 1131 H 110.345 0.474168 -0.48181 0
M  V30 1132 H 112.899 0.905247 -1.84376 0
M  V30 1133 H 111.129 3.45746 -1.73195 0
M  V30 1134 H 112.818 3.44247 -2.15055 0
M  V30 1135 H 113.584 2.21984 -4.31217 0
M  V30 1136 H 109.463 3.07566 -3.43401 0
M  V30 1137 H 113.007 1.95067 -6.69772 0
M  V30 1138 H 108.904 2.81006 -5.81125 0
M  V30 1139 H 109.672 2.35937 -7.83757 0
M  V30 1140 N 112.336 1.25143 0.95797 0
M  V30 1141 C 113.266 1.07711 2.07173 0
M  V30 1142 C 114.247 -0.0128462 1.70095 0
M  V30 1143 O 115.432 0.156061 1.93572 0
M  V30 1144 C 112.562 0.691503 3.40346 0
M  V30 1145 C 111.516 1.73132 3.9142 0
M  V30 1146 C 110.842 1.20049 5.21049 0
M  V30 1147 C 112.142 3.1294 4.1817 0
M  V30 1148 H 113.836 2.00873 2.22014 0
M  V30 1149 H 111.382 0.967191 1.06684 0
M  V30 1150 H 113.335 0.556505 4.17709 0
M  V30 1151 H 112.059 -0.275819 3.25433 0
M  V30 1152 H 110.718 1.8547 3.16222 0
M  V30 1153 H 110.366 0.223499 5.02503 0
M  V30 1154 H 110.066 1.89545 5.56189 0
M  V30 1155 H 111.59 1.07782 6.01012 0
M  V30 1156 H 113.004 3.03775 4.86203 0
M  V30 1157 H 111.401 3.79875 4.64559 0
M  V30 1158 H 112.471 3.6025 3.24573 0
M  V30 1159 N 113.814 -1.1601 1.06675 0
M  V30 1160 C 115.062 -1.86264 0.784229 0
M  V30 1161 C 115.383 -1.82328 -0.691488 0
M  V30 1162 O 114.653 -1.25947 -1.50047 0
M  V30 1163 H 113.233 -0.689621 0.28711 0
M  V30 1164 H 115.895 -1.40664 1.34906 0
M  V30 1165 H 114.991 -2.91595 1.11259 0
M  V30 1166 N 115.292 -0.849877 -1.32721 0
M  V30 1167 C 116.517 -0.463856 -2.02146 0
M  V30 1168 C 116.942 0.930449 -1.63476 0
M  V30 1169 O 116.3 1.61033 -0.832952 0
M  V30 1170 C 116.348 -0.604955 -3.55489 0
M  V30 1171 O 115.452 0.36425 -4.10788 0
M  V30 1172 H 114.793 -0.187046 -0.637111 0
M  V30 1173 H 117.323 -1.14775 -1.69375 0
M  V30 1174 H 117.333 -0.490696 -4.05038 0
M  V30 1175 H 116.008 -1.62174 -3.82978 0
M  V30 1176 H 114.585 0.206628 -3.72327 0
M  V30 1177 N 116.77 1.45427 -0.607355 0
M  V30 1178 C 117.703 2.27635 0.160482 0
M  V30 1179 C 118.681 1.37122 0.873857 0
M  V30 1180 O 119.865 1.66551 0.882775 0
M  V30 1181 C 116.992 3.15486 1.23231 0
M  V30 1182 C 116.038 4.21939 0.622097 0
M  V30 1183 S 116.871 5.32459 -0.569852 0
M  V30 1184 C 118.027 6.23879 0.502577 0
M  V30 1185 H 118.26 2.9241 -0.536983 0
M  V30 1186 H 115.793 1.49265 -0.394868 0
M  V30 1187 H 117.751 3.66659 1.84585 0
M  V30 1188 H 116.412 2.49977 1.90185 0
M  V30 1189 H 115.605 4.8333 1.42856 0
M  V30 1190 H 115.207 3.73906 0.0837063 0
M  V30 1191 H 117.499 6.63261 1.38171 0
M  V30 1192 H 118.442 7.0806 -0.0751759 0
M  V30 1193 H 118.85 5.58545 0.8178 0
M  V30 1194 N 118.248 0.346503 1.53744 0
M  V30 1195 C 119.211 -0.496439 2.23759 0
M  V30 1196 C 120.211 -1.0252 1.2388 0
M  V30 1197 O 121.401 -0.913974 1.48297 0
M  V30 1198 C 118.533 -1.69187 2.95954 0
M  V30 1199 H 119.726 0.115952 2.99676 0
M  V30 1200 H 117.279 0.0978939 1.55993 0
M  V30 1201 H 118.014 -2.34288 2.24231 0
M  V30 1202 H 117.799 -1.31989 3.69217 0
M  V30 1203 H 119.289 -2.28969 3.49232 0
M  V30 1204 N 119.726 -1.57421 0.075193 0
M  V30 1205 C 120.972 -1.93905 -0.594025 0
M  V30 1206 C 121.305 -0.955701 -1.69056 0
M  V30 1207 O 120.58 0.0145373 -1.94495 0
M  V30 1208 C 120.863 -3.40638 -1.1678 0
M  V30 1209 C 120.716 -4.49733 -0.0776792 0
M  V30 1210 C 122.035 -3.88259 -2.07228 0
M  V30 1211 H 119.154 -0.705105 -0.214466 0
M  V30 1212 H 121.796 -1.8947 0.141854 0
M  V30 1213 H 119.946 -3.44549 -1.79494 0
M  V30 1214 H 121.618 -4.57942 0.555573 0
M  V30 1215 H 119.861 -4.29751 0.591286 0
M  V30 1216 H 120.532 -5.49549 -0.519603 0
M  V30 1217 H 123.008 -3.86376 -1.54445 0
M  V30 1218 H 121.884 -4.91533 -2.44308 0
M  V30 1219 H 122.145 -3.26396 -2.98191 0
M  V30 1220 N 121.204 0.198386 -1.56346 0
M  V30 1221 C 122.429 0.939682 -1.84891 0
M  V30 1222 C 122.854 1.76202 -0.658369 0
M  V30 1223 O 122.212 1.76993 0.392851 0
M  V30 1224 C 122.26 1.81428 -3.11635 0
M  V30 1225 O 121.364 2.91265 -2.91956 0
M  V30 1226 H 120.705 0.264807 -0.608912 0
M  V30 1227 H 123.235 0.204695 -2.03573 0
M  V30 1228 H 123.245 2.21958 -3.42343 0
M  V30 1229 H 121.92 1.21004 -3.97908 0
M  V30 1230 H 120.497 2.54514 -2.72538 0
M  V30 1231 N 122.682 1.50554 0.465978 0
M  V30 1232 C 123.959 1.5232 1.22712 0
M  V30 1233 C 124.339 0.270807 2.09356 0
M  V30 1234 O 123.687 -0.745541 2.15995 0
M  V30 1235 C 123.897 2.82175 2.05374 0
M  V30 1236 C 125.245 3.33033 2.6339 0
M  V30 1237 O 126.269 2.83531 2.15612 0
M  V30 1238 O 125.128 4.19336 3.50456 0
M  V30 1239 H 122.222 0.611183 0.557122 0
M  V30 1240 H 124.768 1.62847 0.477381 0
M  V30 1241 H 123.54 3.64797 1.41558 0
M  V30 1242 H 123.163 2.74675 2.87471 0
M  V30 1243 N 124.16 -0.719506 1.40217 0
M  V30 1244 C 125.09 -1.8465 1.42922 0
M  V30 1245 C 126.071 -1.67599 0.29062 0
M  V30 1246 O 127.256 -1.87688 0.498677 0
M  V30 1247 C 124.386 -3.22565 1.28722 0
M  V30 1248 C 123.34 -3.54281 2.40144 0
M  V30 1249 C 122.666 -4.91298 2.11023 0
M  V30 1250 C 123.966 -3.55676 3.82481 0
M  V30 1251 H 125.66 -1.82644 2.37237 0
M  V30 1252 H 123.206 -0.877305 1.1419 0
M  V30 1253 H 125.159 -4.01095 1.29232 0
M  V30 1254 H 123.883 -3.25137 0.308811 0
M  V30 1255 H 122.542 -2.78088 2.38877 0
M  V30 1256 H 122.19 -4.90468 1.11582 0
M  V30 1257 H 121.89 -5.13485 2.8567 0
M  V30 1258 H 123.414 -5.72166 2.13209 0
M  V30 1259 H 124.828 -4.24254 3.85592 0
M  V30 1260 H 123.225 -3.89388 4.56614 0
M  V30 1261 H 124.295 -2.55144 4.12346 0
M  V30 1262 N 125.638 -1.25649 -0.95132 0
M  V30 1263 C 126.568 -1.08808 -2.06599 0
M  V30 1264 C 127.549 0.00382547 -1.701 0
M  V30 1265 O 128.734 -0.166325 -1.93486 0
M  V30 1266 C 125.864 -0.709542 -3.39975 0
M  V30 1267 C 124.818 -1.75206 -3.90496 0
M  V30 1268 C 124.144 -1.22811 -5.20405 0
M  V30 1269 C 125.444 -3.15153 -4.16504 0
M  V30 1270 H 127.138 -2.02048 -2.20946 0
M  V30 1271 H 124.684 -0.972835 -1.06169 0
M  V30 1272 H 126.637 -0.578649 -4.17408 0
M  V30 1273 H 125.361 0.258556 -3.25575 0
M  V30 1274 H 124.02 -1.87145 -3.15234 0
M  V30 1275 H 123.668 -0.250145 -5.02378 0
M  V30 1276 H 123.368 -1.92492 -5.55176 0
M  V30 1277 H 124.892 -1.10968 -6.00432 0
M  V30 1278 H 126.306 -3.06349 -4.84586 0
M  V30 1279 H 124.703 -3.82333 -4.62538 0
M  V30 1280 H 125.773 -3.61966 -3.22658 0
M  V30 1281 N 127.117 1.15442 -1.07289 0
M  V30 1282 C 128.366 1.85557 -0.790669 0
M  V30 1283 C 128.679 1.83186 0.685739 0
M  V30 1284 O 129.885 2.48977 1.0827 0
M  V30 1285 C 128.341 3.33038 -1.36433 0
M  V30 1286 C 127.949 3.43856 -2.8717 0
M  V30 1287 C 129.693 4.0834 -1.1601 0
M  V30 1288 C 127.6 4.85482 -3.3773 0
M  V30 1289 H 126.53 0.695122 -0.292098 0
M  V30 1290 H 129.181 1.30219 -1.29287 0
M  V30 1291 H 127.563 3.88043 -0.789864 0
M  V30 1292 H 128.737 2.98961 -3.50655 0
M  V30 1293 H 127.052 2.81998 -3.06376 0
M  V30 1294 H 129.649 5.12859 -1.51262 0
M  V30 1295 H 129.992 4.16182 -0.0991007 0
M  V30 1296 H 130.525 3.59603 -1.70089 0
M  V30 1297 H 127.264 4.82823 -4.43353 0
M  V30 1298 H 126.784 5.30961 -2.78999 0
M  V30 1299 H 128.463 5.54335 -3.33648 0
M  V30 1300 N 128.595 0.856903 1.32268 0
M  V30 1301 C 129.525 0.31858 2.31316 0
M  V30 1302 C 130.506 -0.583487 1.59779 0
M  V30 1303 O 131.691 -0.503259 1.87566 0
M  V30 1304 C 128.821 -0.491979 3.43798 0
M  V30 1305 C 127.775 0.315849 4.26833 0
M  V30 1306 C 127.101 -0.619586 5.31098 0
M  V30 1307 C 128.401 1.54282 4.98993 0
M  V30 1308 H 130.095 1.14621 2.76591 0
M  V30 1309 H 127.641 0.552613 1.32974 0
M  V30 1310 H 129.594 -0.879012 4.1213 0
M  V30 1311 H 128.318 -1.35299 2.97257 0
M  V30 1312 H 126.977 0.684664 3.6015 0
M  V30 1313 H 126.625 -1.47751 4.8081 0
M  V30 1314 H 126.325 -0.0830621 5.87541 0
M  V30 1315 H 127.849 -1.00375 6.02293 0
M  V30 1316 H 129.263 1.22796 5.59995 0
M  V30 1317 H 127.66 2.01745 5.65172 0
M  V30 1318 H 128.73 2.30285 4.26728 0
M  V30 1319 N 130.073 -1.45103 0.615059 0
M  V30 1320 C 131.003 -2.33339 -0.0865619 0
M  V30 1321 C 131.984 -1.4727 -0.851209 0
M  V30 1322 O 133.169 -1.76026 -0.820281 0
M  V30 1323 C 130.299 -3.30095 -1.07956 0
M  V30 1324 C 129.253 -4.25858 -0.427628 0
M  V30 1325 C 128.579 -5.12361 -1.5294 0
M  V30 1326 C 129.879 -5.18165 0.655944 0
M  V30 1327 H 131.573 -2.92254 0.650224 0
M  V30 1328 H 129.119 -1.40532 0.314138 0
M  V30 1329 H 131.072 -3.90698 -1.57901 0
M  V30 1330 H 129.796 -2.69355 -1.84703 0
M  V30 1331 H 128.455 -3.66564 0.0510292 0
M  V30 1332 H 128.103 -4.47984 -2.28734 0
M  V30 1333 H 127.803 -5.77238 -1.09865 0
M  V30 1334 H 129.327 -5.75833 -2.03098 0
M  V30 1335 H 130.741 -5.72796 0.240257 0
M  V30 1336 H 129.138 -5.91559 1.00888 0
M  V30 1337 H 130.208 -4.60144 1.52957 0
M  V30 1338 N 131.551 -0.354651 -1.53558 0
M  V30 1339 C 132.799 0.237972 -2.00694 0
M  V30 1340 C 133.12 1.50173 -1.24391 0
M  V30 1341 O 132.39 1.92673 -0.354135 0
M  V30 1342 H 130.97 0.0909256 -0.741446 0
M  V30 1343 H 133.632 -0.478368 -1.88938 0
M  V30 1344 H 132.728 0.47264 -3.085 0
M  V30 1345 N 133.029 1.57378 -0.0835403 0
M  V30 1346 C 133.959 2.1641 0.87686 0
M  V30 1347 C 134.94 1.09429 1.30228 0
M  V30 1348 O 136.125 1.37516 1.37124 0
M  V30 1349 C 133.255 2.73517 2.14022 0
M  V30 1350 C 132.209 3.85769 1.85381 0
M  V30 1351 C 131.535 4.29529 3.18448 0
M  V30 1352 C 132.835 5.09486 1.14984 0
M  V30 1353 H 134.529 2.96914 0.385059 0
M  V30 1354 H 132.075 1.42823 0.18377 0
M  V30 1355 H 134.028 3.13463 2.81636 0
M  V30 1356 H 132.752 1.90252 2.65465 0
M  V30 1357 H 131.411 3.46345 1.20169 0
M  V30 1358 H 131.059 3.43169 3.67755 0
M  V30 1359 H 130.759 5.05204 3.00071 0
M  V30 1360 H 132.283 4.72099 3.8724 0
M  V30 1361 H 133.697 5.46674 1.72687 0
M  V30 1362 H 132.094 5.90515 1.06826 0
M  V30 1363 H 133.164 4.84724 0.130749 0
M  V30 1364 N 134.507 -0.190092 1.56449 0
M  V30 1365 C 135.918 -0.754312 1.70784 0
M  V30 1366 C 136.269 -1.83631 0.690951 0
M  V30 1367 O 135.394 -2.15868 -0.151604 0
M  V30 1368 C 135.989 -1.37503 3.09642 0
M  V30 1369 C 134.548 -1.88628 3.25725 0
M  V30 1370 C 133.695 -0.758098 2.66736 0
M  V30 1371 H 136.646 0.0350524 1.58661 0
M  V30 1372 H 136.667 -2.2445 3.0725 0
M  V30 1373 H 136.179 -0.587302 3.83631 0
M  V30 1374 H 134.28 -2.70103 2.56661 0
M  V30 1375 H 134.393 -2.04462 4.3328 0
M  V30 1376 H 132.757 -1.17369 2.26046 0
M  V30 1377 H 133.54 0.0174705 3.43296 0
M  V30 1378 N 135.985 -1.50799 -0.457987 0
M  V30 1379 C 137.232 -1.62442 -1.20908 0
M  V30 1380 C 137.56 -0.330865 -1.91665 0
M  V30 1381 O 136.815 0.68401 -1.83357 0
M  V30 1382 C 137.114 -2.76358 -2.2663 0
M  V30 1383 C 136.78 -4.16378 -1.73033 0
M  V30 1384 C 135.442 -4.54473 -1.58138 0
M  V30 1385 C 137.794 -5.03836 -1.33413 0
M  V30 1386 C 135.122 -5.77754 -1.02065 0
M  V30 1387 C 137.474 -6.27676 -0.78778 0
M  V30 1388 C 136.138 -6.64562 -0.625561 0
M  V30 1389 H 135.408 -0.594417 -0.442435 0
M  V30 1390 H 138.055 -1.84772 -0.503136 0
M  V30 1391 H 136.36 -2.48167 -3.03184 0
M  V30 1392 H 138.057 -2.82568 -2.84528 0
M  V30 1393 H 134.647 -3.86331 -1.85598 0
M  V30 1394 H 138.831 -4.75026 -1.4375 0
M  V30 1395 H 134.087 -6.04997 -0.882547 0
M  V30 1396 H 138.261 -6.94797 -0.472177 0
M  V30 1397 H 135.888 -7.59965 -0.188926 0
M  V30 1398 N 137.463 0.71206 -1.40597 0
M  V30 1399 C 138.74 1.46536 -1.29563 0
M  V30 1400 C 139.12 2.10931 0.0844217 0
M  V30 1401 O 138.468 2.00418 1.0975 0
M  V30 1402 C 138.678 2.49821 -2.43701 0
M  V30 1403 C 140.026 3.15551 -2.841 0
M  V30 1404 O 141.05 2.60142 -2.4332 0
M  V30 1405 O 139.909 4.15867 -3.54566 0
M  V30 1406 H 137.003 0.651801 -0.509004 0
M  V30 1407 H 139.549 0.743935 -1.52524 0
M  V30 1408 H 138.321 2.00778 -3.35863 0
M  V30 1409 H 137.944 3.29495 -2.22528 0
M  V30 1410 N 138.941 1.26152 0.944643 0
M  V30 1411 C 139.871 1.09902 2.06019 0
M  V30 1412 C 140.852 0.00519538 1.70099 0
M  V30 1413 O 142.037 0.176583 1.93396 0
M  V30 1414 C 139.167 0.727562 3.39594 0
M  V30 1415 C 138.121 1.77274 3.89561 0
M  V30 1416 C 137.447 1.25569 5.19747 0
M  V30 1417 C 138.747 3.17357 4.14827 0
M  V30 1418 H 140.441 2.03217 2.19871 0
M  V30 1419 H 137.987 0.978452 1.05652 0
M  V30 1420 H 139.94 0.600777 4.17095 0
M  V30 1421 H 138.664 -0.241287 3.25707 0
M  V30 1422 H 137.323 1.88814 3.14237 0
M  V30 1423 H 136.971 0.276783 5.02238 0
M  V30 1424 H 136.671 1.95433 5.54148 0
M  V30 1425 H 138.195 1.1415 5.99835 0
M  V30 1426 H 139.609 3.08914 4.82954 0
M  V30 1427 H 138.006 3.84781 4.60504 0
M  V30 1428 H 139.076 3.63673 3.20734 0
M  V30 1429 N 140.419 -1.14872 1.07899 0
M  V30 1430 C 141.649 -1.89386 0.825631 0
M  V30 1431 C 142.057 -1.78565 -0.625406 0
M  V30 1432 O 141.4 -1.13918 -1.44113 0
M  V30 1433 C 141.462 -3.40206 1.16191 0
M  V30 1434 C 141.126 -3.74812 2.61467 0
M  V30 1435 C 142.123 -3.75367 3.59716 0
M  V30 1436 C 139.808 -4.0495 2.97189 0
M  V30 1437 C 141.802 -4.05574 4.9172 0
M  V30 1438 C 139.489 -4.34821 4.29388 0
M  V30 1439 C 140.487 -4.35116 5.26463 0
M  V30 1440 O 140.175 -4.64267 6.56286 0
M  V30 1441 H 139.907 -0.606894 0.297751 0
M  V30 1442 H 142.461 -1.46438 1.44031 0
M  V30 1443 H 140.691 -3.8358 0.490214 0
M  V30 1444 H 142.38 -3.96018 0.890193 0
M  V30 1445 H 143.146 -3.52176 3.33462 0
M  V30 1446 H 139.025 -4.03876 2.22273 0
M  V30 1447 H 142.569 -4.05719 5.67484 0
M  V30 1448 H 138.466 -4.5748 4.55392 0
M  V30 1449 H 139.234 -4.82007 6.61522 0
M  V30 1450 N 141.898 -0.863906 -1.31812 0
M  V30 1451 C 143.314 -0.555004 -1.49639 0
M  V30 1452 C 143.514 0.912266 -1.79666 0
M  V30 1453 O 142.57 1.69479 -1.87171 0
M  V30 1454 C 143.883 -1.44998 -2.63431 0
M  V30 1455 C 145.431 -1.45138 -2.77316 0
M  V30 1456 C 145.906 -2.33179 -3.94197 0
M  V30 1457 N 147.397 -2.31025 -4.01474 0
M  V30 1458 C 148.132 -2.95871 -4.9117 0
M  V30 1459 N 147.628 -3.69863 -5.8581 0
M  V30 1460 N 149.421 -2.85211 -4.84367 0
M  V30 1461 H 141.572 -1.81339 -1.10589 0
M  V30 1462 H 143.835 -0.77505 -0.545895 0
M  V30 1463 H 143.541 -2.49377 -2.48 0
M  V30 1464 H 143.415 -1.14409 -3.59431 0
M  V30 1465 H 145.802 -0.415201 -2.92164 0
M  V30 1466 H 145.883 -1.79747 -1.82001 0
M  V30 1467 H 145.527 -3.3687 -3.80107 0
M  V30 1468 H 145.457 -1.95897 -4.88807 0
M  V30 1469 H 147.948 -1.77238 -3.33759 0
M  V30 1470 H 148.261 -4.16486 -6.50968 0
M  V30 1471 H 146.606 -3.73971 -5.85808 0
M  V30 1472 H 149.797 -2.26948 -4.09405 0
M  V30 1473 H 149.97 -3.36027 -5.54066 0
M  V30 1474 N 143.376 1.44774 -0.622745 0
M  V30 1475 C 144.306 2.33382 0.0741861 0
M  V30 1476 C 145.287 1.47719 0.843387 0
M  V30 1477 O 146.472 1.76458 0.810934 0
M  V30 1478 C 143.602 3.30663 1.06204 0
M  V30 1479 C 142.556 4.26079 0.405037 0
M  V30 1480 C 141.882 5.13165 1.5022 0
M  V30 1481 C 143.182 5.1781 -0.683414 0
M  V30 1482 H 144.876 2.91905 -0.665713 0
M  V30 1483 H 142.422 1.40363 -0.321587 0
M  V30 1484 H 144.375 3.9153 1.55827 0
M  V30 1485 H 143.099 2.70331 1.83272 0
M  V30 1486 H 141.758 3.66532 -0.0704683 0
M  V30 1487 H 141.406 4.49191 2.26355 0
M  V30 1488 H 141.106 5.77812 1.06803 0
M  V30 1489 H 142.63 5.76902 2.00041 0
M  V30 1490 H 144.044 5.72661 -0.270631 0
M  V30 1491 H 142.441 5.91015 -1.04023 0
M  V30 1492 H 143.511 4.59326 -1.55395 0
M  V30 1493 N 144.854 0.36279 1.53368 0
M  V30 1494 C 146.1 -0.220702 2.02199 0
M  V30 1495 C 146.455 -1.46649 1.24546 0
M  V30 1496 O 145.748 -1.88737 0.32996 0
M  V30 1497 C 145.942 -0.568417 3.52851 0
M  V30 1498 C 145.771 0.642126 4.45092 0
M  V30 1499 C 144.541 1.15335 4.91961 0
M  V30 1500 C 146.739 1.50649 4.91741 0
M  V30 1501 N 144.721 2.3242 5.68202 0
M  V30 1502 C 146.092 2.52404 5.66297 0
M  V30 1503 C 148.147 1.52969 4.73819 0
M  V30 1504 C 146.85 3.56331 6.24836 0
M  V30 1505 C 148.876 2.55789 5.33222 0
M  V30 1506 C 148.238 3.56268 6.07662 0
M  V30 1507 H 144.337 -0.0435508 0.780786 0
M  V30 1508 H 146.921 0.506704 1.87991 0
M  V30 1509 H 145.092 -1.2649 3.67226 0
M  V30 1510 H 146.824 -1.13676 3.88407 0
M  V30 1511 H 143.579 0.718412 4.68119 0
M  V30 1512 H 144.003 2.91591 6.10986 0
M  V30 1513 H 148.645 0.766418 4.15795 0
M  V30 1514 H 146.363 4.33543 6.81958 0
M  V30 1515 H 149.949 2.58435 5.21251 0
M  V30 1516 H 148.829 4.34524 6.52808 0
M  V30 1517 N 146.332 -1.57332 0.0918853 0
M  V30 1518 C 147.748 -1.57389 -0.264766 0
M  V30 1519 C 147.948 -1.10281 -1.68643 0
M  V30 1520 O 147.004 -0.777801 -2.40222 0
M  V30 1521 C 148.317 -3.00648 -0.0561195 0
M  V30 1522 C 149.865 -3.12754 -0.124116 0
M  V30 1523 C 150.34 -4.57965 0.0564972 0
M  V30 1524 N 151.831 -4.632 0.00155611 0
M  V30 1525 C 152.566 -5.73281 0.116598 0
M  V30 1526 N 152.062 -6.92208 0.286294 0
M  V30 1527 N 153.855 -5.6207 0.0580973 0
M  V30 1528 H 146.006 -1.86262 1.02079 0
M  V30 1529 H 148.269 -0.859579 0.399786 0
M  V30 1530 H 147.975 -3.393 0.925669 0
M  V30 1531 H 147.849 -3.68623 -0.799823 0
M  V30 1532 H 150.236 -2.73976 -1.09641 0
M  V30 1533 H 150.317 -2.47377 0.651024 0
M  V30 1534 H 149.961 -4.97436 1.02564 0
M  V30 1535 H 149.891 -5.21399 -0.738297 0
M  V30 1536 H 152.382 -3.77686 -0.127192 0
M  V30 1537 H 152.695 -7.71934 0.365676 0
M  V30 1538 H 151.04 -6.94254 0.32192 0
M  V30 1539 H 154.231 -4.68043 -0.0733204 0
M  V30 1540 H 154.404 -6.47824 0.151203 0
M  V30 1541 N 147.81 0.181792 -1.56548 0
M  V30 1542 C 149.035 0.920019 -1.85877 0
M  V30 1543 C 149.46 1.75494 -0.677021 0
M  V30 1544 O 148.818 1.77399 0.374056 0
M  V30 1545 C 148.866 1.78112 -3.13542 0
M  V30 1546 O 147.97 2.88152 -2.95029 0
M  V30 1547 H 147.311 0.258334 -0.611686 0
M  V30 1548 H 149.841 0.183092 -2.03779 0
M  V30 1549 H 149.851 2.18314 -3.44678 0
M  V30 1550 H 148.526 1.16777 -3.99169 0
M  V30 1551 H 147.103 2.51609 -2.75222 0
M  V30 1552 N 149.288 1.51039 0.449983 0
M  V30 1553 C 150.704 1.38934 0.785462 0
M  V30 1554 C 150.904 0.461817 1.96136 0
M  V30 1555 O 149.96 -0.0877389 2.52348 0
M  V30 1556 C 151.273 2.80724 1.0777 0
M  V30 1557 C 152.821 2.89787 1.1829 0
M  V30 1558 C 153.296 4.32457 1.50815 0
M  V30 1559 N 154.787 4.35505 1.57764 0
M  V30 1560 C 155.522 5.42914 1.84477 0
M  V30 1561 N 155.018 6.60502 2.09068 0
M  V30 1562 N 156.811 5.3038 1.86155 0
M  V30 1563 H 148.962 2.09904 -0.324647 0
M  V30 1564 H 151.225 0.944378 -0.0827957 0
M  V30 1565 H 150.931 3.50531 0.286498 0
M  V30 1566 H 150.805 3.19273 2.00859 0
M  V30 1567 H 153.192 2.20186 1.96474 0
M  V30 1568 H 153.273 2.54752 0.231314 0
M  V30 1569 H 152.917 5.02603 0.731622 0
M  V30 1570 H 152.847 4.64995 2.47158 0
M  V30 1571 H 155.338 3.50724 1.40715 0
M  V30 1572 H 155.651 7.38158 2.28785 0
M  V30 1573 H 153.996 6.63639 2.06416 0
M  V30 1574 H 157.187 4.37505 1.66454 0
M  V30 1575 H 157.36 6.1417 2.06637 0
M  V30 1576 N 150.766 -0.704594 1.40972 0
M  V30 1577 C 152.177 -1.28418 1.3552 0
M  V30 1578 C 152.528 -1.96171 0.0339434 0
M  V30 1579 O 151.653 -1.98231 -0.867944 0
M  V30 1580 C 152.248 -2.33528 2.45459 0
M  V30 1581 C 150.807 -2.87085 2.43433 0
M  V30 1582 C 149.954 -1.61007 2.2577 0
M  V30 1583 H 152.905 -0.499963 1.50619 0
M  V30 1584 H 152.926 -3.14619 2.13998 0
M  V30 1585 H 152.438 -1.84187 3.41609 0
M  V30 1586 H 150.539 -3.40626 1.51013 0
M  V30 1587 H 150.652 -3.3813 3.39419 0
M  V30 1588 H 149.016 -1.86482 1.73483 0
M  V30 1589 H 149.799 -1.13675 3.23933 0
M  V30 1590 N 152.244 -1.26651 -0.937939 0
M  V30 1591 C 153.49 -1.13562 -1.68746 0
M  V30 1592 C 153.845 0.317241 -1.89767 0
M  V30 1593 O 153.138 1.22939 -1.46957 0
M  V30 1594 C 153.332 -1.84168 -3.06295 0
M  V30 1595 C 153.161 -3.36171 -2.98696 0
M  V30 1596 C 151.931 -4.05468 -3.01535 0
M  V30 1597 C 154.129 -4.32312 -2.78588 0
M  V30 1598 N 152.111 -5.44118 -2.84269 0
M  V30 1599 C 153.482 -5.58159 -2.69924 0
M  V30 1600 C 155.537 -4.22524 -2.63396 0
M  V30 1601 C 154.24 -6.75335 -2.47618 0
M  V30 1602 C 156.266 -5.39411 -2.42466 0
M  V30 1603 C 155.628 -6.64208 -2.34536 0
M  V30 1604 H 151.727 -0.470361 -0.624728 0
M  V30 1605 H 154.311 -1.59982 -1.10968 0
M  V30 1606 H 152.482 -1.40219 -3.62206 0
M  V30 1607 H 154.214 -1.63674 -3.70126 0
M  V30 1608 H 150.969 -3.56854 -3.11372 0
M  V30 1609 H 151.393 -6.1693 -2.78795 0
M  V30 1610 H 156.035 -3.26771 -2.68292 0
M  V30 1611 H 153.753 -7.71182 -2.41463 0
M  V30 1612 H 157.339 -5.33711 -2.31611 0
M  V30 1613 H 156.219 -7.53129 -2.18555 0
M  V30 1614 N 153.722 1.14298 -1.08507 0
M  V30 1615 C 154.968 1.85633 -0.816581 0
M  V30 1616 C 155.301 1.82784 0.656021 0
M  V30 1617 O 154.576 1.25926 1.48233 0
M  V30 1618 C 154.859 3.34223 -1.34041 0
M  V30 1619 C 154.712 3.45639 -2.87843 0
M  V30 1620 C 156.031 4.29356 -0.9665 0
M  V30 1621 H 153.15 0.67402 -0.298104 0
M  V30 1622 H 155.792 1.34214 -1.34487 0
M  V30 1623 H 153.942 3.78144 -0.89104 0
M  V30 1624 H 155.614 3.10498 -3.41158 0
M  V30 1625 H 153.857 2.86817 -3.25451 0
M  V30 1626 H 154.528 4.50089 -3.19569 0
M  V30 1627 H 157.004 3.93457 -1.35391 0
M  V30 1628 H 155.88 5.3178 -1.3602 0
M  V30 1629 H 156.141 4.41919 0.126362 0
M  V30 1630 N 155.201 0.870884 1.31352 0
M  V30 1631 C 156.448 0.482273 1.96673 0
M  V30 1632 C 156.776 -0.965638 1.68836 0
M  V30 1633 O 156.031 -1.69514 0.977937 0
M  V30 1634 C 156.33 0.687157 3.50732 0
M  V30 1635 C 155.996 2.108 3.9859 0
M  V30 1636 C 154.658 2.49656 4.1137 0
M  V30 1637 C 157.01 3.03459 4.23748 0
M  V30 1638 C 154.338 3.80412 4.46659 0
M  V30 1639 C 156.69 4.3373 4.60501 0
M  V30 1640 C 155.354 4.725 4.71487 0
M  V30 1641 H 154.624 0.176476 0.719679 0
M  V30 1642 H 157.271 1.10405 1.56471 0
M  V30 1643 H 155.576 -0.0177476 3.91796 0
M  V30 1644 H 157.273 0.366284 3.99324 0
M  V30 1645 H 153.863 1.79633 3.8914 0
M  V30 1646 H 158.047 2.74665 4.13368 0
M  V30 1647 H 153.303 4.1021 4.53362 0
M  V30 1648 H 157.477 5.05578 4.78919 0
M  V30 1649 H 155.104 5.73859 4.98588 0
M  V30 1650 N 156.679 -1.44442 0.630414 0
M  V30 1651 C 157.927 -2.01653 0.134351 0
M  V30 1652 C 158.248 -1.49836 -1.24796 0
M  V30 1653 O 157.518 -0.701684 -1.82902 0
M  V30 1654 H 156.098 -0.74554 0.0466769 0
M  V30 1655 H 158.76 -1.76952 0.816955 0
M  V30 1656 H 157.856 -3.11935 0.101498 0
M  V30 1657 N 158.157 -0.370918 -1.53173 0
M  V30 1658 C 159.568 0.107139 -1.86392 0
M  V30 1659 C 159.919 1.47714 -1.29132 0
M  V30 1660 O 159.044 2.07464 -0.615439 0
M  V30 1661 C 159.639 0.201187 -3.38202 0
M  V30 1662 C 158.198 0.623507 -3.712 0
M  V30 1663 C 157.345 -0.225978 -2.76378 0
M  V30 1664 H 160.296 -0.58951 -1.47345 0
M  V30 1665 H 160.317 1.02377 -3.66468 0
M  V30 1666 H 159.829 -0.796058 -3.79848 0
M  V30 1667 H 157.93 1.62879 -3.35114 0
M  V30 1668 H 158.043 0.394414 -4.77474 0
M  V30 1669 H 156.407 0.305962 -2.52856 0
M  V30 1670 H 157.19 -1.22086 -3.20858 0
M  V30 1671 N 159.635 1.57281 -0.100228 0
M  V30 1672 C 160.565 2.17328 0.853857 0
M  V30 1673 C 161.546 1.10804 1.2906 0
M  V30 1674 O 162.731 1.38963 1.35657 0
M  V30 1675 C 159.861 2.75772 2.11109 0
M  V30 1676 C 158.815 3.87713 1.81279 0
M  V30 1677 C 158.141 4.32882 3.13874 0
M  V30 1678 C 159.441 5.10677 1.09574 0
M  V30 1679 H 161.135 2.97305 0.353545 0
M  V30 1680 H 158.681 1.43009 0.168612 0
M  V30 1681 H 160.634 3.16433 2.78296 0
M  V30 1682 H 159.358 1.93057 2.63432 0
M  V30 1683 H 158.017 3.476 1.16489 0
M  V30 1684 H 157.665 3.47051 3.64095 0
M  V30 1685 H 157.365 5.08358 2.94696 0
M  V30 1686 H 158.889 4.7618 3.82211 0
M  V30 1687 H 160.303 5.48474 1.66879 0
M  V30 1688 H 158.7 5.91615 1.00557 0
M  V30 1689 H 159.77 4.84835 0.0793299 0
M  V30 1690 N 161.113 -0.173488 1.56642 0
M  V30 1691 C 162.043 -1.2171 1.99271 0
M  V30 1692 C 163.024 -1.46289 0.867959 0
M  V30 1693 O 164.209 -1.5766 1.13388 0
M  V30 1694 C 161.339 -2.55651 2.35074 0
M  V30 1695 C 160.293 -2.45645 3.50489 0
M  V30 1696 C 159.619 -3.84056 3.72028 0
M  V30 1697 C 160.919 -1.96302 4.84007 0
M  V30 1698 H 162.613 -0.86275 2.867 0
M  V30 1699 H 160.159 -0.413571 1.37933 0
M  V30 1700 H 162.112 -3.2886 2.63494 0
M  V30 1701 H 160.836 -2.92869 1.44552 0
M  V30 1702 H 159.495 -1.7489 3.22194 0
M  V30 1703 H 159.143 -4.18664 2.788 0
M  V30 1704 H 158.843 -3.7823 4.49684 0
M  V30 1705 H 160.367 -4.58854 4.02846 0
M  V30 1706 H 161.781 -2.59284 5.11317 0
M  V30 1707 H 160.178 -2.01429 5.65284 0
M  V30 1708 H 161.248 -0.917226 4.76146 0
M  V30 1709 N 162.591 -1.51276 -0.441967 0
M  V30 1710 C 163.831 -1.65372 -1.20132 0
M  V30 1711 C 164.195 -0.359871 -1.88597 0
M  V30 1712 O 165.396 -0.376551 -2.66149 0
M  V30 1713 C 163.667 -2.8207 -2.1948 0
M  V30 1714 S 165.226 -3.16467 -3.03964 0
M  V30 1715 H 162.044 -0.582669 -0.407453 0
M  V30 1716 H 164.646 -1.89166 -0.493609 0
M  V30 1717 H 163.35 -3.74523 -1.67812 0
M  V30 1718 H 162.881 -2.6045 -2.94838 0
M  V30 1719 H 164.896 -2.62543 -4.21053 0
M  V30 1720 N 164.069 0.697108 -1.41344 0
M  V30 1721 C 165.485 1.00751 -1.2378 0
M  V30 1722 C 165.685 2.01105 -0.126066 0
M  V30 1723 O 164.741 2.47295 0.51004 0
M  V30 1724 C 166.054 1.53359 -2.58653 0
M  V30 1725 C 167.602 1.6525 -2.65822 0
M  V30 1726 C 168.077 2.2126 -4.01009 0
M  V30 1727 N 169.568 2.28622 -4.02847 0
M  V30 1728 C 170.303 2.72984 -5.04249 0
M  V30 1729 N 169.799 3.16962 -6.16041 0
M  V30 1730 N 171.592 2.72534 -4.91611 0
M  V30 1731 H 163.743 0.0322662 -2.12375 0
M  V30 1732 H 166.006 0.0768853 -0.944877 0
M  V30 1733 H 165.712 0.870773 -3.4075 0
M  V30 1734 H 165.586 2.51597 -2.81032 0
M  V30 1735 H 167.973 2.30644 -1.84086 0
M  V30 1736 H 168.054 0.655614 -2.47256 0
M  V30 1737 H 167.698 1.56482 -4.83193 0
M  V30 1738 H 167.628 3.21698 -4.16915 0
M  V30 1739 H 170.119 1.97585 -3.22131 0
M  V30 1740 H 170.432 3.49434 -6.89287 0
M  V30 1741 H 168.777 3.14875 -6.1958 0
M  V30 1742 H 171.968 2.37525 -4.0336 0
M  V30 1743 H 172.141 3.06789 -5.70775 0
M  V30 1744 N 165.547 1.27147 0.931209 0
M  V30 1745 C 166.477 1.12081 2.04842 0
M  V30 1746 C 167.458 0.0232364 1.70084 0
M  V30 1747 O 168.643 0.197085 1.93197 0
M  V30 1748 C 165.773 0.76354 3.38803 0
M  V30 1749 C 164.727 1.81396 3.87659 0
M  V30 1750 C 164.053 1.31075 5.18385 0
M  V30 1751 C 165.353 3.21739 4.11438 0
M  V30 1752 H 167.047 2.05537 2.17703 0
M  V30 1753 H 164.593 0.989603 1.04608 0
M  V30 1754 H 166.546 0.644982 4.16435 0
M  V30 1755 H 165.27 -0.206727 3.25945 0
M  V30 1756 H 163.929 1.92136 3.12217 0
M  V30 1757 H 163.577 0.330037 5.01916 0
M  V30 1758 H 163.277 2.013 5.52044 0
M  V30 1759 H 164.801 1.20506 5.98591 0
M  V30 1760 H 166.215 3.14019 4.79651 0
M  V30 1761 H 164.612 3.89644 4.56397 0
M  V30 1762 H 165.682 3.67054 3.16859 0
M  V30 1763 N 167.025 -1.13721 1.09112 0
M  V30 1764 C 168.25 -1.89314 0.847053 0
M  V30 1765 C 168.675 -1.78416 -0.595774 0
M  V30 1766 O 168.033 -1.12942 -1.41823 0
M  V30 1767 C 168.081 -3.3701 1.28284 0
M  V30 1768 O 167.185 -4.10054 0.439267 0
M  V30 1769 H 166.526 -0.588745 0.307044 0
M  V30 1770 H 169.056 -1.43902 1.45442 0
M  V30 1771 H 169.066 -3.87834 1.26683 0
M  V30 1772 H 167.741 -3.4426 2.33363 0
M  V30 1773 H 166.318 -3.69266 0.519312 0
M  V30 1774 N 168.503 -0.877838 -1.30888 0
M  V30 1775 C 169.433 -0.35534 -2.3078 0
M  V30 1776 C 170.414 0.557994 -1.60687 0
M  V30 1777 O 171.599 0.473355 -1.88343 0
M  V30 1778 C 168.729 0.437221 -3.44537 0
M  V30 1779 C 167.683 -0.383715 -4.26276 0
M  V30 1780 C 167.009 0.535014 -5.32017 0
M  V30 1781 C 168.309 -1.62201 -4.96476 0
M  V30 1782 H 170.003 -1.19007 -2.74732 0
M  V30 1783 H 167.549 -0.573698 -1.32078 0
M  V30 1784 H 169.502 0.813334 -4.13477 0
M  V30 1785 H 168.226 1.30553 -2.99372 0
M  V30 1786 H 166.885 -0.741874 -3.59015 0
M  V30 1787 H 166.533 1.40083 -4.831 0
M  V30 1788 H 166.233 -0.0104211 -5.87599 0
M  V30 1789 H 167.757 0.907799 -6.03814 0
M  V30 1790 H 169.171 -1.31689 -5.5797 0
M  V30 1791 H 167.568 -2.10711 -5.61891 0
M  V30 1792 H 168.638 -2.37044 -4.23011 0
M  V30 1793 N 169.982 1.44106 -0.638065 0
M  V30 1794 C 171.212 2.06037 -0.152394 0
M  V30 1795 C 171.62 1.47808 1.18108 0
M  V30 1796 O 170.963 0.598092 1.73691 0
M  V30 1797 C 171.025 3.59488 0.0293714 0
M  V30 1798 C 170.689 4.4022 -1.22702 0
M  V30 1799 C 171.686 4.73256 -2.15232 0
M  V30 1800 C 169.371 4.8048 -1.46437 0
M  V30 1801 C 171.365 5.45444 -3.29802 0
M  V30 1802 C 169.052 5.52417 -2.61303 0
M  V30 1803 C 170.05 5.84819 -3.52811 0
M  V30 1804 O 169.738 6.55289 -4.65673 0
M  V30 1805 H 169.47 0.671233 -0.0801401 0
M  V30 1806 H 172.024 1.85851 -0.874563 0
M  V30 1807 H 170.254 3.78191 0.806758 0
M  V30 1808 H 171.943 4.03164 0.470475 0
M  V30 1809 H 172.709 4.42684 -1.98131 0
M  V30 1810 H 168.588 4.54676 -0.760977 0
M  V30 1811 H 172.132 5.70653 -4.01249 0
M  V30 1812 H 168.029 5.82404 -2.78344 0
M  V30 1813 H 168.797 6.73762 -4.64744 0
M  V30 1814 N 171.46 0.379036 1.52974 0
M  V30 1815 C 172.706 -0.206727 2.01744 0
M  V30 1816 C 173.039 -1.47314 1.26539 0
M  V30 1817 O 172.314 -1.91084 0.362903 0
M  V30 1818 C 172.597 -0.485066 3.56818 0
M  V30 1819 C 172.45 0.795919 4.42702 0
M  V30 1820 C 173.769 -1.28003 4.21074 0
M  V30 1821 H 170.888 -0.0736607 0.73331 0
M  V30 1822 H 173.53 0.506581 1.83122 0
M  V30 1823 H 171.68 -1.09272 3.72816 0
M  V30 1824 H 173.352 1.43307 4.38476 0
M  V30 1825 H 171.595 1.41344 4.10127 0
M  V30 1826 H 172.266 0.555947 5.49193 0
M  V30 1827 H 174.742 -0.765867 4.08991 0
M  V30 1828 H 173.618 -1.44352 5.29579 0
M  V30 1829 H 173.879 -2.29236 3.78026 0
M  V30 1830 N 172.938 -1.57226 0.108567 0
M  V30 1831 C 174.186 -1.94448 -0.550853 0
M  V30 1832 C 174.507 -0.992074 -1.67878 0
M  V30 1833 O 173.777 -0.0465 -1.95845 0
M  V30 1834 H 172.357 -0.717897 -0.206479 0
M  V30 1835 H 175.019 -1.94112 0.175062 0
M  V30 1836 H 174.115 -2.97218 -0.952259 0
M  V30 1837 N 174.416 0.165178 -1.56732 0
M  V30 1838 C 175.326 1.22423 -2.00125 0
M  V30 1839 C 176.342 1.48084 -0.913619 0
M  V30 1840 O 177.518 1.60112 -1.22172 0
M  V30 1841 C 174.583 2.54197 -2.35764 0
M  V30 1842 C 173.644 2.36343 -3.58386 0
M  V30 1843 C 172.877 3.61834 -3.92316 0
M  V30 1844 O 173.1 4.67267 -3.27135 0
M  V30 1845 O 172.034 3.55579 -4.85641 0
M  V30 1846 H 175.86 0.885886 -2.90492 0
M  V30 1847 H 173.445 0.372518 -1.44681 0
M  V30 1848 H 175.327 3.3192 -2.59629 0
M  V30 1849 H 174.002 2.87598 -1.48557 0
M  V30 1850 H 172.909 1.56632 -3.39731 0
M  V30 1851 H 174.242 2.07865 -4.46154 0
M  V30 1852 N 175.894 1.51508 0.433938 0
M  V30 1853 C 177.142 1.6402 1.18075 0
M  V30 1854 C 177.463 0.360328 1.91642 0
M  V30 1855 O 176.733 -0.623945 1.85698 0
M  V30 1856 H 175.313 0.6045 0.43885 0
M  V30 1857 H 177.975 1.88452 0.497178 0
M  V30 1858 H 177.071 2.46949 1.90847 0
M  V30 1859 N 177.372 -0.689602 1.41712 0
M  V30 1860 C 178.612 -1.46184 1.42862 0
M  V30 1861 C 178.976 -1.91962 0.0382204 0
M  V30 1862 O 180.177 -2.68694 -0.0755019 0
M  V30 1863 C 178.448 -2.6371 2.4123 0
M  V30 1864 S 180.007 -3.52768 2.6096 0
M  V30 1865 H 176.825 -0.49947 0.506015 0
M  V30 1866 H 179.427 -0.804107 1.78198 0
M  V30 1867 H 178.131 -2.28293 3.41044 0
M  V30 1868 H 177.662 -3.3437 2.07269 0
M  V30 1869 H 179.677 -4.59146 1.88148 0
M  V30 1870 N 178.85 -1.27639 -0.924453 0
M  V30 1871 C 180.078 -1.16989 -1.70649 0
M  V30 1872 C 180.493 0.272869 -1.86818 0
M  V30 1873 O 179.85 1.18549 -1.38753 0
M  V30 1874 C 179.901 -1.85229 -3.10439 0
M  V30 1875 O 179.622 -3.23868 -2.95028 0
M  V30 1876 C 181.123 -1.80746 -4.04779 0
M  V30 1877 H 178.343 -0.406595 -0.53378 0
M  V30 1878 H 180.887 -1.68569 -1.15778 0
M  V30 1879 H 179.042 -1.37545 -3.6216 0
M  V30 1880 H 179.456 -3.57889 -3.83426 0
M  V30 1881 H 180.93 -2.33101 -5.00368 0
M  V30 1882 H 181.407 -0.777499 -4.32263 0
M  V30 1883 H 182.013 -2.28059 -3.58984 0
M  V30 1884 N 180.328 1.1314 -1.09713 0
M  V30 1885 C 181.558 1.88048 -0.855656 0
M  V30 1886 C 181.966 1.79537 0.596919 0
M  V30 1887 O 181.309 1.16196 1.42282 0
M  V30 1888 C 181.371 3.38314 -1.21589 0
M  V30 1889 C 181.035 3.70605 -2.67397 0
M  V30 1890 C 182.032 3.69596 -3.65643 0
M  V30 1891 C 179.717 4.0017 -3.03593 0
M  V30 1892 C 181.711 3.977 -4.9811 0
M  V30 1893 C 179.398 4.27935 -4.36251 0
M  V30 1894 C 180.396 4.26685 -5.33318 0
M  V30 1895 O 180.084 4.53767 -6.63589 0
M  V30 1896 H 179.816 0.60208 -0.307368 0
M  V30 1897 H 182.37 1.44128 -1.46343 0
M  V30 1898 H 180.6 3.82752 -0.551177 0
M  V30 1899 H 182.289 3.94552 -0.953083 0
M  V30 1900 H 183.055 3.46826 -3.39023 0
M  V30 1901 H 178.934 4.00289 -2.2867 0
M  V30 1902 H 182.478 3.9664 -5.73866 0
M  V30 1903 H 178.375 4.50178 -4.62613 0
M  V30 1904 H 179.143 4.71422 -6.69107 0
M  V30 1905 N 181.806 0.884767 1.30421 0
M  V30 1906 C 182.769 0.356277 2.26414 0
M  V30 1907 C 183.769 -0.501124 1.52792 0
M  V30 1908 O 184.959 -0.30831 1.7145 0
M  V30 1909 C 182.091 -0.492316 3.37326 0
M  V30 1910 H 183.284 1.20389 2.74675 0
M  V30 1911 H 180.837 0.661607 1.41607 0
M  V30 1912 H 181.572 -1.36052 2.94381 0
M  V30 1913 H 181.357 0.121832 3.91911 0
M  V30 1914 H 182.847 -0.853871 4.08777 0
M  V30 1915 N 183.284 -1.43765 0.645699 0
M  V30 1916 C 184.512 -2.06253 0.163556 0
M  V30 1917 C 184.927 -1.48352 -1.16778 0
M  V30 1918 O 184.284 -0.611932 -1.71935 0
M  V30 1919 C 184.335 -3.61453 0.0583186 0
M  V30 1920 O 184.056 -4.172 1.33702 0
M  V30 1921 C 185.557 -4.41002 -0.450795 0
M  V30 1922 H 182.777 -0.665413 0.0864077 0
M  V30 1923 H 185.321 -1.84396 0.884222 0
M  V30 1924 H 183.476 -3.82522 -0.612865 0
M  V30 1925 H 183.89 -5.10791 1.19131 0
M  V30 1926 H 185.364 -5.49966 -0.473403 0
M  V30 1927 H 185.841 -4.13488 -1.48068 0
M  V30 1928 H 186.447 -4.24886 0.187637 0
M  V30 1929 N 184.763 -0.387143 -1.52771 0
M  V30 1930 C 185.693 0.440551 -2.29306 0
M  V30 1931 C 186.674 1.06535 -1.32606 0
M  V30 1932 O 187.859 1.07853 -1.61497 0
M  V30 1933 C 184.989 1.56919 -3.09829 0
M  V30 1934 C 183.943 1.07054 -4.14395 0
M  V30 1935 C 183.269 2.29109 -4.83129 0
M  V30 1936 C 184.569 0.140015 -5.22112 0
M  V30 1937 H 186.263 -0.198026 -2.98744 0
M  V30 1938 H 183.809 -0.09668 -1.43675 0
M  V30 1939 H 185.762 2.15503 -3.62128 0
M  V30 1940 H 184.486 2.23532 -2.3812 0
M  V30 1941 H 183.145 0.507247 -3.63074 0
M  V30 1942 H 182.793 2.94227 -4.0797 0
M  V30 1943 H 182.493 1.96406 -5.53804 0
M  V30 1944 H 184.017 2.88339 -5.38231 0
M  V30 1945 H 185.431 0.633978 -5.69784 0
M  V30 1946 H 183.828 -0.0971485 -6.00021 0
M  V30 1947 H 184.898 -0.811711 -4.78058 0
M  V30 1948 N 186.241 1.57166 -0.116904 0
M  V30 1949 C 187.171 2.18222 0.830759 0
M  V30 1950 C 188.152 1.12167 1.27877 0
M  V30 1951 O 189.337 1.40394 1.34176 0
M  V30 1952 C 186.467 2.77996 2.08172 0
M  V30 1953 C 185.421 3.89614 1.77157 0
M  V30 1954 C 184.747 4.36187 3.09265 0
M  V30 1955 C 186.047 5.1181 1.04151 0
M  V30 1956 H 187.741 2.97664 0.321992 0
M  V30 1957 H 185.287 1.4318 0.153434 0
M  V30 1958 H 187.24 3.19366 2.74924 0
M  V30 1959 H 185.964 1.9584 2.6137 0
M  V30 1960 H 184.623 3.48816 1.12796 0
M  V30 1961 H 184.271 3.50893 3.60393 0
M  V30 1962 H 183.971 5.11455 2.89288 0
M  V30 1963 H 185.495 4.80207 3.77139 0
M  V30 1964 H 186.909 5.50214 1.61052 0
M  V30 1965 H 185.306 5.92648 0.942762 0
M  V30 1966 H 186.376 4.84892 0.0279022 0
M  V30 1967 N 187.719 -0.156864 1.56817 0
M  V30 1968 C 188.669 -1.19891 1.93934 0
M  V30 1969 C 189.653 -1.39061 0.809372 0
M  V30 1970 O 190.845 -1.40789 1.07273 0
M  V30 1971 C 187.974 -2.53493 2.31508 0
M  V30 1972 C 187.06 -2.37957 3.51052 0
M  V30 1973 N 187.451 -1.92158 4.67877 0
M  V30 1974 C 185.749 -2.68739 3.55943 0
M  V30 1975 C 186.45 -1.8943 5.49992 0
M  V30 1976 N 185.426 -2.32375 4.91429 0
M  V30 1977 H 189.228 -0.836746 2.81737 0
M  V30 1978 H 186.742 -0.365012 1.58245 0
M  V30 1979 H 188.739 -3.28811 2.56299 0
M  V30 1980 H 187.399 -2.905 1.45051 0
M  V30 1981 H 188.41 -1.62274 4.91821 0
M  V30 1982 H 185.087 -3.09687 2.80001 0
M  V30 1983 H 186.477 -1.55596 6.53636 0
M  V30 1984 N 189.197 -1.51736 -0.425897 0
M  V30 1985 C 190.13 -1.68574 -1.53812 0
M  V30 1986 C 191.108 -0.53328 -1.53606 0
M  V30 1987 O 192.292 -0.758555 -1.72564 0
M  V30 1988 C 189.419 -1.70977 -2.92377 0
M  V30 1989 C 188.465 -2.92324 -3.10563 0
M  V30 1990 S 189.298 -4.52952 -2.85648 0
M  V30 1991 C 190.454 -4.58117 -4.26474 0
M  V30 1992 H 190.687 -2.62647 -1.39298 0
M  V30 1993 H 188.22 -1.41564 -0.616361 0
M  V30 1994 H 190.178 -1.73047 -3.72243 0
M  V30 1995 H 188.839 -0.78061 -3.04245 0
M  V30 1996 H 188.032 -2.90439 -4.11899 0
M  V30 1997 H 187.634 -2.88055 -2.38538 0
M  V30 1998 H 189.926 -4.34462 -5.19855 0
M  V30 1999 H 190.869 -5.59983 -4.33388 0
M  V30 2000 H 191.277 -3.8732 -4.10662 0
M  V30 2001 N 190.675 0.682077 -1.42076 0
M  V30 2002 C 191.903 1.47057 -1.4554 0
M  V30 2003 C 192.318 1.8869 -0.0645779 0
M  V30 2004 O 191.675 1.57666 0.919115 0
M  V30 2005 C 191.726 2.72442 -2.37609 0
M  V30 2006 O 191.447 2.32559 -3.71279 0
M  V30 2007 C 192.948 3.66069 -2.50017 0
M  V30 2008 H 190.168 0.452737 -0.495248 0
M  V30 2009 H 192.712 0.838695 -1.8651 0
M  V30 2010 H 190.867 3.31835 -1.9991 0
M  V30 2011 H 191.281 3.13475 -4.20516 0
M  V30 2012 H 192.755 4.50792 -3.18576 0
M  V30 2013 H 193.232 4.11476 -1.53572 0
M  V30 2014 H 193.838 3.12572 -2.88407 0
M  V30 2015 N 192.153 1.28127 0.917671 0
M  V30 2016 C 193.116 1.11744 2.00115 0
M  V30 2017 C 194.116 0.0583052 1.60694 0
M  V30 2018 O 195.306 0.303755 1.71531 0
M  V30 2019 C 192.438 0.704862 3.33533 0
M  V30 2020 H 193.631 2.07966 2.16079 0
M  V30 2021 H 191.184 1.11058 1.09981 0
M  V30 2022 H 191.919 -0.258299 3.2327 0
M  V30 2023 H 191.704 1.4699 3.63505 0
M  V30 2024 H 193.194 0.612768 4.1308 0
M  V30 2025 N 193.631 -1.12557 1.10312 0
M  V30 2026 C 194.561 -2.20341 0.772798 0
M  V30 2027 C 195.542 -1.68198 -0.25365 0
M  V30 2028 O 196.727 -1.93831 -0.119699 0
M  V30 2029 C 193.857 -3.46709 0.202443 0
M  V30 2030 C 192.811 -4.11996 1.15943 0
M  V30 2031 C 192.137 -5.328 0.450345 0
M  V30 2032 C 193.437 -4.5828 2.50552 0
M  V30 2033 H 195.131 -2.48229 1.674 0
M  V30 2034 H 192.677 -1.19308 0.806326 0
M  V30 2035 H 194.63 -4.2138 -0.0407752 0
M  V30 2036 H 193.354 -3.18245 -0.734001 0
M  V30 2037 H 192.013 -3.39305 1.38808 0
M  V30 2038 H 191.661 -5.00602 -0.490531 0
M  V30 2039 H 191.361 -5.7743 1.08851 0
M  V30 2040 H 192.885 -6.10219 0.215642 0
M  V30 2041 H 194.299 -5.2433 2.31843 0
M  V30 2042 H 192.696 -5.13683 3.10242 0
M  V30 2043 H 193.766 -3.72329 3.10643 0
M  V30 2044 N 195.109 -0.891671 -1.2995 0
M  V30 2045 C 196.334 -0.527932 -2.00568 0
M  V30 2046 C 196.759 0.877969 -1.66353 0
M  V30 2047 O 196.117 1.58301 -0.883762 0
M  V30 2048 C 196.165 -0.717745 -3.53385 0
M  V30 2049 O 195.269 0.233376 -4.11739 0
M  V30 2050 H 194.61 -0.20722 -0.630837 0
M  V30 2051 H 197.14 -1.20105 -1.65638 0
M  V30 2052 H 197.15 -0.619307 -4.03272 0
M  V30 2053 H 195.825 -1.74276 -3.77625 0
M  V30 2054 H 194.402 0.0880706 -3.72796 0
M  V30 2055 N 196.587 1.43421 -0.653314 0
M  V30 2056 C 197.833 2.02111 -0.166992 0
M  V30 2057 C 198.166 1.51423 1.21592 0
M  V30 2058 O 197.441 0.707389 1.8118 0
M  V30 2059 C 197.724 3.5966 -0.177948 0
M  V30 2060 C 197.577 4.20579 -1.59478 0
M  V30 2061 C 198.896 4.37413 0.4856 0
M  V30 2062 H 196.015 0.734374 -0.0621557 0
M  V30 2063 H 198.657 1.70717 -0.834016 0
M  V30 2064 H 196.807 3.86537 0.390032 0
M  V30 2065 H 198.479 4.04732 -2.21336 0
M  V30 2066 H 196.722 3.77226 -2.14204 0
M  V30 2067 H 197.393 5.29665 -1.5543 0
M  V30 2068 H 199.869 4.161 0.00234528 0
M  V30 2069 H 198.745 5.47075 0.447207 0
M  V30 2070 H 199.006 4.13672 1.55974 0
M  V30 2071 N 198.065 0.39524 1.52563 0
M  V30 2072 C 198.975 -0.444232 2.30356 0
M  V30 2073 C 199.991 -1.06615 1.37511 0
M  V30 2074 O 201.167 -1.07067 1.70583 0
M  V30 2075 C 198.232 -1.55315 3.09964 0
M  V30 2076 C 197.293 -0.955734 4.18526 0
M  V30 2077 C 196.526 -2.01181 4.9433 0
M  V30 2078 O 196.749 -3.22781 4.70285 0
M  V30 2079 O 195.683 -1.62579 5.79527 0
M  V30 2080 H 199.509 0.189667 3.03107 0
M  V30 2081 H 197.094 0.1588 1.48554 0
M  V30 2082 H 198.976 -2.19724 3.59582 0
M  V30 2083 H 197.651 -2.17191 2.4002 0
M  V30 2084 H 196.558 -0.274743 3.7309 0
M  V30 2085 H 197.891 -0.381109 4.90722 0
M  V30 2086 N 199.544 -1.57102 0.125237 0
M  V30 2087 C 200.96 -1.57915 -0.231322 0
M  V30 2088 C 201.16 -1.13833 -1.66266 0
M  V30 2089 O 200.216 -0.828581 -2.38518 0
M  V30 2090 C 201.529 -3.00699 0.00766489 0
M  V30 2091 C 203.077 -3.12947 -0.0577483 0
M  V30 2092 C 203.552 -4.57742 0.153626 0
M  V30 2093 N 205.043 -4.63092 0.0998073 0
M  V30 2094 C 205.778 -5.72905 0.238174 0
M  V30 2095 N 205.274 -6.91445 0.433057 0
M  V30 2096 N 207.067 -5.6182 0.177308 0
M  V30 2097 H 199.218 -1.84055 1.06007 0
M  V30 2098 H 201.481 -0.850905 0.417929 0
M  V30 2099 H 201.187 -3.3726 0.997431 0
M  V30 2100 H 201.061 -3.70236 -0.721452 0
M  V30 2101 H 203.448 -2.7624 -1.03804 0
M  V30 2102 H 203.529 -2.4594 0.70335 0
M  V30 2103 H 203.173 -4.95149 1.13092 0
M  V30 2104 H 203.103 -5.22848 -0.627534 0
M  V30 2105 H 205.594 -3.77871 -0.047051 0
M  V30 2106 H 205.907 -7.70985 0.529332 0
M  V30 2107 H 204.252 -6.93415 0.469109 0
M  V30 2108 H 207.443 -4.68093 0.0259748 0
M  V30 2109 H 207.616 -6.47357 0.288582 0
M  V30 2110 N 201.022 0.148545 -1.56898 0
M  V30 2111 C 202.252 0.875118 -1.8715 0
M  V30 2112 C 202.66 1.75322 -0.711262 0
M  V30 2113 O 202.003 1.80745 0.328151 0
M  V30 2114 C 202.065 1.7844 -3.12089 0
M  V30 2115 C 201.729 1.08361 -4.43967 0
M  V30 2116 C 202.726 0.438247 -5.1805 0
M  V30 2117 C 200.411 1.07358 -4.90693 0
M  V30 2118 C 202.405 -0.20779 -6.37061 0
M  V30 2119 C 200.092 0.42373 -6.09629 0
M  V30 2120 C 201.09 -0.215829 -6.82659 0
M  V30 2121 O 200.778 -0.855378 -7.99336 0
M  V30 2122 H 200.51 0.258504 -0.624621 0
M  V30 2123 H 203.064 0.14652 -2.04877 0
M  V30 2124 H 201.294 2.55389 -2.90367 0
M  V30 2125 H 202.983 2.38279 -3.286 0
M  V30 2126 H 203.749 0.437817 -4.8302 0
M  V30 2127 H 199.628 1.5608 -4.33774 0
M  V30 2128 H 203.172 -0.70758 -6.94002 0
M  V30 2129 H 199.069 0.421822 -6.4412 0
M  V30 2130 H 199.837 -0.756892 -8.14993 0
M  V30 2131 N 202.5 1.5196 0.417844 0
M  V30 2132 C 203.43 1.77634 1.51554 0
M  V30 2133 C 204.411 0.626918 1.58126 0
M  V30 2134 O 205.596 0.871632 1.7354 0
M  V30 2135 C 202.726 1.91911 2.8946 0
M  V30 2136 C 201.68 3.07463 2.97743 0
M  V30 2137 C 201.006 3.06951 4.37819 0
M  V30 2138 C 202.306 4.47082 2.70027 0
M  V30 2139 H 204 2.6955 1.3032 0
M  V30 2140 H 201.546 1.29706 0.625492 0
M  V30 2141 H 203.499 2.08455 3.6623 0
M  V30 2142 H 202.223 0.966598 3.11969 0
M  V30 2143 H 200.882 2.90656 2.23416 0
M  V30 2144 H 200.53 2.09438 4.57323 0
M  V30 2145 H 200.23 3.84556 4.44286 0
M  V30 2146 H 201.754 3.25613 5.16535 0
M  V30 2147 H 203.168 4.6414 3.36522 0
M  V30 2148 H 201.565 5.2654 2.87881 0
M  V30 2149 H 202.635 4.55777 1.65514 0
M  V30 2150 N 203.978 -0.674533 1.42435 0
M  V30 2151 C 204.941 -1.76986 1.45632 0
M  V30 2152 C 205.941 -1.5708 0.343871 0
M  V30 2153 O 207.131 -1.63367 0.604709 0
M  V30 2154 C 204.263 -3.15623 1.28822 0
M  V30 2155 H 205.456 -1.75539 2.43158 0
M  V30 2156 H 203.009 -0.884189 1.28887 0
M  V30 2157 H 203.744 -3.22696 0.322193 0
M  V30 2158 H 203.529 -3.31475 2.09444 0
M  V30 2159 H 205.019 -3.95537 1.33942 0
M  V30 2160 N 205.456 -1.28612 -0.910864 0
M  V30 2161 C 206.705 -1.15311 -1.65488 0
M  V30 2162 C 207.018 0.296999 -1.93332 0
M  V30 2163 O 208.224 0.551168 -2.65847 0
M  V30 2164 C 206.68 -2.01599 -2.98137 0
M  V30 2165 C 206.288 -3.51367 -2.7793 0
M  V30 2166 C 208.032 -1.96993 -3.76024 0
M  V30 2167 C 205.939 -4.29797 -4.06237 0
M  V30 2168 H 204.869 -0.42796 -0.620779 0
M  V30 2169 H 207.52 -1.53166 -1.01057 0
M  V30 2170 H 205.902 -1.56603 -3.63719 0
M  V30 2171 H 207.076 -4.0434 -2.21011 0
M  V30 2172 H 205.391 -3.57529 -2.13452 0
M  V30 2173 H 207.988 -2.52856 -4.71135 0
M  V30 2174 H 208.331 -0.94733 -4.05378 0
M  V30 2175 H 208.864 -2.39973 -3.17266 0
M  V30 2176 H 205.603 -5.32648 -3.82055 0
M  V30 2177 H 205.123 -3.81596 -4.62757 0
M  V30 2178 H 206.802 -4.39869 -4.74473 0
M  V30 2179 N 206.934 1.1197 -1.10907 0
M  V30 2180 C 208.174 1.85224 -0.864378 0
M  V30 2181 C 208.538 1.82411 0.599178 0
M  V30 2182 O 209.739 2.51057 0.960416 0
M  V30 2183 C 208.01 3.2868 -1.40371 0
M  V30 2184 S 209.569 4.1925 -1.29518 0
M  V30 2185 H 206.387 0.63878 -0.312219 0
M  V30 2186 H 208.989 1.3485 -1.41548 0
M  V30 2187 H 207.693 3.28289 -2.46281 0
M  V30 2188 H 207.224 3.84121 -0.849402 0
M  V30 2189 H 209.239 4.95539 -0.256059 0
M  V30 2190 N 208.412 0.89855 1.29475 0
M  V30 2191 C 209.828 0.594483 1.48115 0
M  V30 2192 C 210.028 -0.86431 1.82022 0
M  V30 2193 O 209.084 -1.64457 1.91599 0
M  V30 2194 C 210.397 1.51932 2.59494 0
M  V30 2195 C 211.945 1.5244 2.7337 0
M  V30 2196 C 212.42 2.43548 3.87877 0
M  V30 2197 N 213.911 2.41589 3.95208 0
M  V30 2198 C 214.646 3.08789 4.83153 0
M  V30 2199 N 214.142 3.85265 5.75798 0
M  V30 2200 N 215.935 2.97952 4.76635 0
M  V30 2201 H 208.086 1.84207 1.05742 0
M  V30 2202 H 210.349 0.789251 0.525154 0
M  V30 2203 H 210.055 2.55865 2.41301 0
M  V30 2204 H 209.929 1.23899 3.56271 0
M  V30 2205 H 212.316 0.492518 2.90961 0
M  V30 2206 H 212.397 1.8451 1.77172 0
M  V30 2207 H 212.041 3.46829 3.71041 0
M  V30 2208 H 211.971 2.08788 4.83441 0
M  V30 2209 H 214.462 1.86025 3.28943 0
M  V30 2210 H 214.775 4.33598 6.39697 0
M  V30 2211 H 213.12 3.89371 5.75687 0
M  V30 2212 H 216.311 2.37723 4.03244 0
M  V30 2213 H 216.484 3.50599 5.44962 0
M  V30 2214 N 209.89 -1.43072 0.660911 0
M  V30 2215 C 211.301 -1.84932 0.256348 0
M  V30 2216 C 211.652 -1.55325 -1.19868 0
M  V30 2217 O 210.777 -1.00607 -1.91591 0
M  V30 2218 C 211.372 -3.35684 0.458475 0
M  V30 2219 C 209.931 -3.76245 0.108161 0
M  V30 2220 C 209.078 -2.66749 0.757641 0
M  V30 2221 H 212.029 -1.33116 0.864051 0
M  V30 2222 H 212.05 -3.79365 -0.293683 0
M  V30 2223 H 211.562 -3.572 1.51755 0
M  V30 2224 H 209.663 -3.60338 -0.948014 0
M  V30 2225 H 209.776 -4.76058 0.538992 0
M  V30 2226 H 208.14 -2.53989 0.190185 0
M  V30 2227 H 208.923 -2.91092 1.81989 0
M  V30 2228 N 211.368 -0.403325 -1.52352 0
M  V30 2229 C 212.298 0.416205 -2.29761 0
M  V30 2230 C 213.279 1.05123 -1.33728 0
M  V30 2231 O 214.464 1.06134 -1.62632 0
M  V30 2232 C 211.594 1.53624 -3.11475 0
M  V30 2233 C 210.548 1.02653 -4.15507 0
M  V30 2234 C 209.874 2.23971 -4.85532 0
M  V30 2235 C 211.174 0.08463 -5.22231 0
M  V30 2236 H 212.868 -0.229701 -2.98518 0
M  V30 2237 H 210.414 -0.111913 -1.43564 0
M  V30 2238 H 212.367 2.1165 -3.64393 0
M  V30 2239 H 211.091 2.20994 -2.40477 0
M  V30 2240 H 209.75 0.46871 -3.63591 0
M  V30 2241 H 209.398 2.89883 -4.11068 0
M  V30 2242 H 209.098 1.90521 -5.55856 0
M  V30 2243 H 210.622 2.82614 -5.41259 0
M  V30 2244 H 212.036 0.573509 -5.70424 0
M  V30 2245 H 210.433 -0.160783 -5.99885 0
M  V30 2246 H 211.503 -0.86237 -4.7717 0
M  V30 2247 N 212.846 1.57033 -0.133567 0
M  V30 2248 C 214.262 1.58035 0.222944 0
M  V30 2249 C 214.462 1.14713 1.6566 0
M  V30 2250 O 213.518 0.841218 2.38075 0
M  V30 2251 C 214.831 3.00691 -0.0236116 0
M  V30 2252 C 216.379 3.12973 0.0411512 0
M  V30 2253 C 216.854 4.57654 -0.177899 0
M  V30 2254 N 218.345 4.63033 -0.124365 0
M  V30 2255 C 219.08 5.72771 -0.268553 0
M  V30 2256 N 218.576 6.91206 -0.46972 0
M  V30 2257 N 220.369 5.61718 -0.2071 0
M  V30 2258 H 212.52 1.8349 -1.06981 0
M  V30 2259 H 214.783 0.848677 -0.422436 0
M  V30 2260 H 214.489 3.36726 -1.0153 0
M  V30 2261 H 214.363 3.70614 0.701808 0
M  V30 2262 H 216.75 2.76787 1.02338 0
M  V30 2263 H 216.831 2.45564 -0.716383 0
M  V30 2264 H 216.475 4.94542 -1.15717 0
M  V30 2265 H 216.405 5.23173 0.599797 0
M  V30 2266 H 218.896 3.7789 0.027011 0
M  V30 2267 H 219.209 7.70693 -0.570212 0
M  V30 2268 H 217.554 6.93156 -0.505876 0
M  V30 2269 H 220.745 4.68072 -0.0507986 0
M  V30 2270 H 220.918 6.47195 -0.322909 0
M  V30 2271 N 214.325 -0.140222 1.56975 0
M  V30 2272 C 215.288 -1.15689 1.97861 0
M  V30 2273 C 216.288 -1.3549 0.865974 0
M  V30 2274 O 217.478 -1.32367 1.13246 0
M  V30 2275 C 214.61 -2.51582 2.30042 0
M  V30 2276 H 215.803 -0.805971 2.88867 0
M  V30 2277 H 213.356 -0.383801 1.51515 0
M  V30 2278 H 214.091 -2.91632 1.41849 0
M  V30 2279 H 213.876 -2.38569 3.11171 0
M  V30 2280 H 215.366 -3.24792 2.62488 0
M  V30 2281 N 215.803 -1.52179 -0.40978 0
M  V30 2282 C 217.219 -1.40968 -0.74835 0
M  V30 2283 C 217.419 -0.513657 -1.94843 0
M  V30 2284 O 216.475 0.0208026 -2.52491 0
M  V30 2285 C 217.788 -2.83483 -1.0029 0
M  V30 2286 C 219.336 -2.92821 -1.10565 0
M  V30 2287 C 219.811 -4.36303 -1.39296 0
M  V30 2288 N 221.302 -4.39535 -1.46162 0
M  V30 2289 C 222.037 -5.47614 -1.70018 0
M  V30 2290 N 221.533 -6.65812 -1.91483 0
M  V30 2291 N 223.326 -5.35129 -1.72027 0
M  V30 2292 H 215.477 -2.0897 0.380186 0
M  V30 2293 H 217.74 -0.94185 0.107805 0
M  V30 2294 H 217.446 -3.51168 -0.193461 0
M  V30 2295 H 217.32 -3.24487 -1.92323 0
M  V30 2296 H 219.707 -2.25318 -1.90568 0
M  V30 2297 H 219.788 -2.55276 -0.16369 0
M  V30 2298 H 219.432 -5.04366 -0.598109 0
M  V30 2299 H 219.362 -4.71385 -2.34743 0
M  V30 2300 H 221.853 -3.54332 -1.31367 0
M  V30 2301 H 222.166 -7.43964 -2.09134 0
M  V30 2302 H 220.511 -6.68879 -1.88749 0
M  V30 2303 H 223.702 -4.41764 -1.54796 0
M  V30 2304 H 223.875 -6.19433 -1.9028 0
M  V30 2305 N 217.281 0.66697 -1.42791 0
M  V30 2306 C 218.527 1.4291 -1.43891 0
M  V30 2307 C 218.86 1.94114 -0.0578972 0
M  V30 2308 O 218.135 1.71414 0.91911 0
M  V30 2309 C 218.418 2.62049 -2.46987 0
M  V30 2310 C 218.271 2.16426 -3.94309 0
M  V30 2311 C 219.59 3.64266 -2.46978 0
M  V30 2312 H 216.709 0.518306 -0.523954 0
M  V30 2313 H 219.351 0.757321 -1.74255 0
M  V30 2314 H 217.501 3.19361 -2.21225 0
M  V30 2315 H 219.173 1.64221 -4.31079 0
M  V30 2316 H 217.416 1.47925 -4.078 0
M  V30 2317 H 218.087 3.02038 -4.62036 0
M  V30 2318 H 220.563 3.16686 -2.69906 0
M  V30 2319 H 219.439 4.45196 -3.21079 0
M  V30 2320 H 219.7 4.15927 -1.49857 0
M  V30 2321 N 218.759 1.29093 0.90403 0
M  V30 2322 C 219.689 1.16401 2.02418 0
M  V30 2323 C 220.67 0.0593085 1.69997 0
M  V30 2324 O 221.855 0.238021 1.92736 0
M  V30 2325 C 218.985 0.835233 3.37107 0
M  V30 2326 C 217.939 1.89578 3.83724 0
M  V30 2327 C 217.265 1.42041 5.15489 0
M  V30 2328 C 218.565 3.30394 4.04521 0
M  V30 2329 H 220.259 2.10109 2.13295 0
M  V30 2330 H 217.805 1.01157 1.02486 0
M  V30 2331 H 219.758 0.733169 4.14973 0
M  V30 2332 H 218.482 -0.137543 3.2631 0
M  V30 2333 H 217.141 1.98715 3.08071 0
M  V30 2334 H 216.789 0.436426 5.01103 0
M  V30 2335 H 216.489 2.12964 5.4765 0
M  V30 2336 H 218.013 1.33176 5.959 0
M  V30 2337 H 219.427 3.24123 4.72882 0
M  V30 2338 H 217.824 3.99237 4.48029 0
M  V30 2339 H 218.894 3.73692 3.09002 0
M  V30 2340 N 220.237 -1.11381 1.11499 0
M  V30 2341 C 221.483 -1.83403 0.865512 0
M  V30 2342 C 221.816 -1.84459 -0.607329 0
M  V30 2343 O 221.091 -1.29811 -1.44842 0
M  V30 2344 C 221.374 -3.30552 1.42855 0
M  V30 2345 C 221.227 -3.37886 2.96906 0
M  V30 2346 C 222.546 -4.26643 1.08 0
M  V30 2347 H 219.665 -0.665879 0.31587 0
M  V30 2348 H 222.307 -1.30601 1.37998 0
M  V30 2349 H 220.457 -3.75648 0.990985 0
M  V30 2350 H 222.129 -3.01343 3.49271 0
M  V30 2351 H 220.372 -2.78088 3.32941 0
M  V30 2352 H 221.043 -4.41458 3.31389 0
M  V30 2353 H 223.519 -3.89729 1.45775 0
M  V30 2354 H 222.395 -5.27986 1.50072 0
M  V30 2355 H 222.656 -4.42099 -0.00915037 0
M  V30 2356 N 221.715 -0.905404 -1.28997 0
M  V30 2357 C 222.943 -0.549846 -1.9946 0
M  V30 2358 C 223.358 0.866834 -1.67724 0
M  V30 2359 O 222.715 1.57298 -0.925404 0
M  V30 2360 C 222.766 -0.739387 -3.53858 0
M  V30 2361 O 222.487 -2.10031 -3.84472 0
M  V30 2362 C 223.988 -0.389541 -4.41585 0
M  V30 2363 H 221.208 -0.210429 -0.637151 0
M  V30 2364 H 223.752 -1.21632 -1.64396 0
M  V30 2365 H 221.907 -0.120023 -3.87214 0
M  V30 2366 H 222.321 -2.13385 -4.79132 0
M  V30 2367 H 223.795 -0.572972 -5.49018 0
M  V30 2368 H 224.272 0.673756 -4.34001 0
M  V30 2369 H 224.878 -0.986089 -4.1371 0
M  V30 2370 N 223.193 1.4272 -0.668489 0
M  V30 2371 C 224.609 1.55992 -0.33745 0
M  V30 2372 C 224.809 1.64933 1.15756 0
M  V30 2373 O 223.865 1.61278 1.94282 0
M  V30 2374 C 225.178 2.81314 -1.06222 0
M  V30 2375 C 226.726 2.95078 -1.04394 0
M  V30 2376 C 227.201 4.23252 -1.74991 0
M  V30 2377 N 228.692 4.3015 -1.71829 0
M  V30 2378 C 229.427 5.28127 -2.23315 0
M  V30 2379 N 228.923 6.32293 -2.83156 0
M  V30 2380 N 230.716 5.19882 -2.13726 0
M  V30 2381 H 222.867 1.3516 -1.63846 0
M  V30 2382 H 225.13 0.650174 -0.689912 0
M  V30 2383 H 224.836 2.80823 -2.11734 0
M  V30 2384 H 224.71 3.72012 -0.62344 0
M  V30 2385 H 227.097 2.951 0.0028244 0
M  V30 2386 H 227.178 2.05627 -1.52155 0
M  V30 2387 H 226.822 4.2399 -2.79633 0
M  V30 2388 H 226.752 5.11626 -1.24685 0
M  V30 2389 H 229.243 3.55499 -1.28175 0
M  V30 2390 H 229.556 7.03398 -3.20079 0
M  V30 2391 H 227.901 6.32873 -2.87223 0
M  V30 2392 H 231.092 4.37423 -1.66669 0
M  V30 2393 H 231.265 5.96077 -2.54158 0
M  V30 2394 N 224.671 0.411399 1.52136 0
M  V30 2395 C 226.087 0.0623865 1.59478 0
M  V30 2396 C 226.287 -1.42554 1.4241 0
M  V30 2397 O 225.343 -2.19263 1.2522 0
M  V30 2398 C 226.656 0.559331 2.95452 0
M  V30 2399 C 228.204 0.517503 3.08692 0
M  V30 2400 C 228.679 0.990994 4.4715 0
M  V30 2401 N 230.17 0.947908 4.53397 0
M  V30 2402 C 230.905 1.28544 5.58806 0
M  V30 2403 N 230.401 1.69454 6.71757 0
M  V30 2404 N 232.194 1.20526 5.49026 0
M  V30 2405 H 224.345 1.37982 1.61477 0
M  V30 2406 H 226.608 0.566977 0.759764 0
M  V30 2407 H 226.314 1.59938 3.1323 0
M  V30 2408 H 226.188 -0.0298014 3.77188 0
M  V30 2409 H 228.575 -0.513505 2.90598 0
M  V30 2410 H 228.656 1.14272 2.28857 0
M  V30 2411 H 228.3 2.02034 4.65988 0
M  V30 2412 H 228.23 0.34257 5.25485 0
M  V30 2413 H 230.721 0.647157 3.72317 0
M  V30 2414 H 231.034 1.93513 7.48179 0
M  V30 2415 H 229.379 1.73359 6.73032 0
M  V30 2416 H 232.57 0.884505 4.59667 0
M  V30 2417 H 232.743 1.47161 6.31069 0
M  V30 2418 N 226.149 -1.5696 0.141893 0
M  V30 2419 C 227.565 -1.58151 -0.21456 0
M  V30 2420 C 227.765 -1.1559 -1.65049 0
M  V30 2421 O 226.821 -0.853832 -2.37626 0
M  V30 2422 C 228.134 -3.00674 0.0395576 0
M  V30 2423 C 229.682 -3.1299 -0.0245529 0
M  V30 2424 C 230.157 -4.57554 0.202167 0
M  V30 2425 N 231.648 -4.62961 0.148919 0
M  V30 2426 C 232.383 -5.7262 0.298924 0
M  V30 2427 N 231.879 -6.90947 0.50637 0
M  V30 2428 N 233.672 -5.61601 0.236886 0
M  V30 2429 H 225.823 -1.8292 1.07953 0
M  V30 2430 H 228.086 -0.846425 0.42693 0
M  V30 2431 H 227.792 -3.36183 1.03315 0
M  V30 2432 H 227.666 -3.70981 -0.682143 0
M  V30 2433 H 230.053 -2.77326 -1.00869 0
M  V30 2434 H 230.134 -2.4518 0.729396 0
M  V30 2435 H 229.778 -4.93922 1.18338 0
M  V30 2436 H 229.708 -5.23484 -0.572044 0
M  V30 2437 H 232.199 -3.77899 -0.00697015 0
M  V30 2438 H 232.512 -7.7038 0.611076 0
M  V30 2439 H 230.857 -6.92878 0.542628 0
M  V30 2440 H 234.048 -4.68039 0.0756209 0
M  V30 2441 H 234.221 -6.47015 0.357227 0
M  V30 2442 N 227.627 0.131896 -1.57047 0
M  V30 2443 C 228.873 0.843179 -1.84441 0
M  V30 2444 C 229.206 1.80129 -0.725749 0
M  V30 2445 O 228.481 1.92624 0.269469 0
M  V30 2446 C 228.764 1.60442 -3.22382 0
M  V30 2447 C 228.617 0.666782 -4.4483 0
M  V30 2448 C 229.936 2.56354 -3.5773 0
M  V30 2449 H 227.055 0.305081 -0.670891 0
M  V30 2450 H 229.697 0.107839 -1.89694 0
M  V30 2451 H 227.847 2.23128 -3.18035 0
M  V30 2452 H 229.519 0.0497646 -4.61273 0
M  V30 2453 H 227.762 -0.022609 -4.33794 0
M  V30 2454 H 228.433 1.23579 -5.37989 0
M  V30 2455 H 230.909 2.0378 -3.62785 0
M  V30 2456 H 229.785 3.06657 -4.5525 0
M  V30 2457 H 230.046 3.38419 -2.84473 0
M  V30 2458 N 229.106 1.52395 0.401703 0
M  V30 2459 C 230.522 1.41363 0.740864 0
M  V30 2460 C 230.722 0.523982 1.94568 0
M  V30 2461 O 229.778 -0.00741204 2.52499 0
M  V30 2462 C 231.091 2.84011 0.987847 0
M  V30 2463 C 232.639 2.93404 1.09011 0
M  V30 2464 C 233.114 4.37036 1.3698 0
M  V30 2465 N 234.605 4.40304 1.43829 0
M  V30 2466 C 235.34 5.48508 1.67112 0
M  V30 2467 N 234.836 6.66819 1.87949 0
M  V30 2468 N 236.629 5.36034 1.69187 0
M  V30 2469 H 228.78 2.08765 -0.391262 0
M  V30 2470 H 231.043 0.941265 -0.112798 0
M  V30 2471 H 230.749 3.51265 0.174835 0
M  V30 2472 H 230.623 3.25502 1.906 0
M  V30 2473 H 233.01 2.26325 1.8937 0
M  V30 2474 H 233.091 2.55359 0.15015 0
M  V30 2475 H 232.735 5.04676 0.571353 0
M  V30 2476 H 232.665 4.72623 2.3224 0
M  V30 2477 H 235.156 3.55024 1.29486 0
M  V30 2478 H 235.469 7.45063 2.05185 0
M  V30 2479 H 233.814 6.6987 1.85199 0
M  V30 2480 H 237.005 4.42579 1.52451 0
M  V30 2481 H 237.178 6.20434 1.86993 0
M  V30 2482 N 230.584 -0.659388 1.43143 0
M  V30 2483 C 231.547 -1.75432 1.47501 0
M  V30 2484 C 232.547 -1.56707 0.360512 0
M  V30 2485 O 233.737 -1.62717 0.622002 0
M  V30 2486 C 230.869 -3.14239 1.32162 0
M  V30 2487 H 232.062 -1.7295 2.45006 0
M  V30 2488 H 229.615 -0.870469 1.29817 0
M  V30 2489 H 230.35 -3.22336 0.356401 0
M  V30 2490 H 230.135 -3.29235 2.12948 0
M  V30 2491 H 231.625 -3.94094 1.3813 0
M  V30 2492 N 232.062 -1.29571 -0.897171 0
M  V30 2493 C 232.992 -1.17473 -2.01798 0
M  V30 2494 C 233.973 -0.068323 -1.69963 0
M  V30 2495 O 235.158 -0.248239 -1.92607 0
M  V30 2496 C 232.288 -0.853099 -3.36659 0
M  V30 2497 C 231.242 -1.9161 -3.82713 0
M  V30 2498 C 230.568 -1.44773 -5.14728 0
M  V30 2499 C 231.868 -3.32535 -4.02763 0
M  V30 2500 H 233.562 -2.11237 -2.12177 0
M  V30 2501 H 231.108 -1.01699 -1.01948 0
M  V30 2502 H 233.061 -0.755165 -4.14578 0
M  V30 2503 H 231.785 0.120236 -3.26379 0
M  V30 2504 H 230.444 -2.00346 -3.07013 0
M  V30 2505 H 230.092 -0.462995 -5.00865 0
M  V30 2506 H 229.792 -2.15865 -5.46513 0
M  V30 2507 H 231.316 -1.36334 -5.95185 0
M  V30 2508 H 232.73 -3.26626 -4.71156 0
M  V30 2509 H 231.127 -4.01607 -4.45905 0
M  V30 2510 H 232.197 -3.75326 -3.07016 0
M  V30 2511 N 233.54 1.10788 -1.12088 0
M  V30 2512 C 234.789 1.82036 -0.868659 0
M  V30 2513 C 235.102 1.85929 0.607426 0
M  V30 2514 O 236.308 2.53346 0.97613 0
M  V30 2515 C 234.764 3.26951 -1.50435 0
M  V30 2516 C 234.372 3.31367 -3.01496 0
M  V30 2517 C 236.116 4.03053 -1.33225 0
M  V30 2518 C 234.023 4.7072 -3.58017 0
M  V30 2519 H 232.953 0.682108 -0.321318 0
M  V30 2520 H 235.604 1.24618 -1.34694 0
M  V30 2521 H 233.986 3.84343 -0.953735 0
M  V30 2522 H 235.16 2.83819 -3.6302 0
M  V30 2523 H 233.475 2.6875 -3.18061 0
M  V30 2524 H 236.072 5.05981 -1.72878 0
M  V30 2525 H 236.415 4.15387 -0.275529 0
M  V30 2526 H 236.948 3.52066 -1.85188 0
M  V30 2527 H 233.687 4.63585 -4.63432 0
M  V30 2528 H 233.207 5.1865 -3.01268 0
M  V30 2529 H 234.886 5.39685 -3.56859 0
M  V30 2530 N 235.018 0.912232 1.28515 0
M  V30 2531 C 235.981 0.404223 2.25607 0
M  V30 2532 C 236.981 -0.468602 1.53821 0
M  V30 2533 O 238.171 -0.271873 1.72065 0
M  V30 2534 C 235.303 -0.420653 3.38295 0
M  V30 2535 H 236.496 1.26188 2.7206 0
M  V30 2536 H 234.049 0.691495 1.40171 0
M  V30 2537 H 234.784 -1.29777 2.97201 0
M  V30 2538 H 234.569 0.204935 3.91564 0
M  V30 2539 H 236.059 -0.766971 4.10496 0
M  V30 2540 N 236.496 -1.42363 0.676048 0
M  V30 2541 C 237.742 -2.0182 0.199125 0
M  V30 2542 C 238.075 -1.53339 -1.19168 0
M  V30 2543 O 237.35 -0.736124 -1.80032 0
M  V30 2544 C 237.633 -3.59331 0.235144 0
M  V30 2545 C 237.486 -4.17989 1.66149 0
M  V30 2546 C 238.805 -4.3813 -0.41595 0
M  V30 2547 H 235.924 -0.733293 0.0738311 0
M  V30 2548 H 238.566 -1.69368 0.86107 0
M  V30 2549 H 236.716 -3.87109 -0.328487 0
M  V30 2550 H 238.388 -4.0116 2.27747 0
M  V30 2551 H 236.631 -3.7377 2.20178 0
M  V30 2552 H 237.302 -5.27126 1.63837 0
M  V30 2553 H 239.778 -4.16051 0.0638529 0
M  V30 2554 H 238.654 -5.47717 -0.360115 0
M  V30 2555 H 238.915 -4.16101 -1.49373 0
M  V30 2556 N 237.974 -0.419461 -1.51915 0
M  V30 2557 C 238.904 0.391813 -2.30189 0
M  V30 2558 C 239.885 1.03699 -1.34836 0
M  V30 2559 O 241.07 1.04403 -1.63748 0
M  V30 2560 C 238.2 1.50312 -3.13087 0
M  V30 2561 C 237.154 0.9824 -4.16573 0
M  V30 2562 C 236.48 2.18809 -4.8788 0
M  V30 2563 C 237.78 0.0292356 -5.22292 0
M  V30 2564 H 239.474 -0.26135 -2.98257 0
M  V30 2565 H 237.02 -0.127134 -1.43438 0
M  V30 2566 H 238.973 2.07773 -3.66617 0
M  V30 2567 H 237.697 2.18431 -2.42807 0
M  V30 2568 H 236.356 0.430119 -3.64068 0
M  V30 2569 H 236.004 2.85507 -4.14119 0
M  V30 2570 H 235.704 1.84615 -5.57845 0
M  V30 2571 H 237.228 2.76858 -5.44226 0
M  V30 2572 H 238.642 0.512976 -5.71 0
M  V30 2573 H 237.039 -0.2244 -5.9968 0
M  V30 2574 H 238.109 -0.912931 -4.76228 0
M  V30 2575 N 239.452 1.56882 -0.150215 0
M  V30 2576 C 240.698 1.97299 0.494427 0
M  V30 2577 C 241.053 1.0338 1.62266 0
M  V30 2578 O 240.346 0.0694497 1.91474 0
M  V30 2579 C 240.54 3.41801 1.04437 0
M  V30 2580 C 240.369 4.49691 -0.0290451 0
M  V30 2581 C 239.139 5.03095 -0.47156 0
M  V30 2582 C 241.337 5.07693 -0.821703 0
M  V30 2583 N 239.319 5.94593 -1.52749 0
M  V30 2584 C 240.69 5.95431 -1.72805 0
M  V30 2585 C 242.745 4.90256 -0.869134 0
M  V30 2586 C 241.448 6.67599 -2.67777 0
M  V30 2587 C 243.474 5.63127 -1.8067 0
M  V30 2588 C 242.836 6.50576 -2.70057 0
M  V30 2589 H 238.935 0.76755 0.149639 0
M  V30 2590 H 241.519 1.93145 -0.24556 0
M  V30 2591 H 239.69 3.46541 1.75396 0
M  V30 2592 H 241.422 3.69272 1.6559 0
M  V30 2593 H 238.177 4.73543 -0.0732101 0
M  V30 2594 H 238.601 6.45047 -2.05531 0
M  V30 2595 H 243.243 4.22363 -0.192134 0
M  V30 2596 H 240.961 7.34717 -3.36476 0
M  V30 2597 H 244.547 5.51629 -1.84924 0
M  V30 2598 H 243.427 7.05974 -3.41424 0
M  V30 2599 N 240.93 -0.123565 1.57115 0
M  V30 2600 C 241.893 -1.13583 1.99076 0
M  V30 2601 C 242.893 -1.34564 0.880296 0
M  V30 2602 O 244.083 -1.31158 1.14644 0
M  V30 2603 C 241.215 -2.49128 2.32698 0
M  V30 2604 H 242.408 -0.775287 2.89706 0
M  V30 2605 H 239.961 -0.36771 1.51913 0
M  V30 2606 H 240.696 -2.90111 1.44934 0
M  V30 2607 H 240.481 -2.35255 3.13684 0
M  V30 2608 H 241.971 -3.2199 2.65918 0
M  V30 2609 N 242.408 -1.52605 -0.393616 0
M  V30 2610 C 243.654 -1.67672 -1.14079 0
M  V30 2611 C 243.987 -0.413121 -1.89755 0
M  V30 2612 O 243.262 0.588952 -1.85369 0
M  V30 2613 C 243.545 -2.9088 -2.12276 0
M  V30 2614 C 243.398 -4.27329 -1.40394 0
M  V30 2615 C 244.717 -3.09628 -3.12759 0
M  V30 2616 H 241.836 -0.610168 -0.413356 0
M  V30 2617 H 244.478 -1.85193 -0.424696 0
M  V30 2618 H 242.628 -2.76073 -2.73342 0
M  V30 2619 H 244.3 -4.53894 -0.82327 0
M  V30 2620 H 242.543 -4.2802 -0.705801 0
M  V30 2621 H 243.214 -5.09615 -2.12123 0
M  V30 2622 H 245.69 -3.23436 -2.61779 0
M  V30 2623 H 244.566 -3.97322 -3.78717 0
M  V30 2624 H 244.827 -2.23637 -3.81365 0
M  V30 2625 N 243.887 0.651787 -1.4349 0
M  V30 2626 C 244.85 1.74647 -1.48429 0
M  V30 2627 C 245.85 1.56513 -0.368817 0
M  V30 2628 O 247.04 1.62385 -0.630623 0
M  V30 2629 C 244.172 3.13533 -1.33827 0
M  V30 2630 H 245.365 1.71649 -2.4592 0
M  V30 2631 H 242.918 0.863573 -1.30277 0
M  V30 2632 H 243.653 3.22142 -0.37349 0
M  V30 2633 H 243.438 3.28101 -2.14691 0
M  V30 2634 H 244.928 3.93356 -1.40218 0
M  V30 2635 N 245.365 1.30045 0.890287 0
M  V30 2636 C 246.295 1.18541 2.01172 0
M  V30 2637 C 247.276 0.0773356 1.69924 0
M  V30 2638 O 248.461 0.25845 1.92473 0
M  V30 2639 C 245.591 0.870941 3.36202 0
M  V30 2640 C 244.545 1.93637 3.81692 0
M  V30 2641 C 243.871 1.475 5.13953 0
M  V30 2642 C 245.171 3.34666 4.00994 0
M  V30 2643 H 246.865 2.12359 2.11054 0
M  V30 2644 H 244.411 1.02238 1.01407 0
M  V30 2645 H 246.364 0.777141 4.14172 0
M  V30 2646 H 245.088 -0.102926 3.26438 0
M  V30 2647 H 243.747 2.01972 3.05946 0
M  V30 2648 H 243.395 0.489551 5.00612 0
M  V30 2649 H 243.095 2.1876 5.4536 0
M  V30 2650 H 244.619 1.39489 5.94454 0
M  V30 2651 H 246.033 3.2912 4.69417 0
M  V30 2652 H 244.43 4.03966 4.43769 0
M  V30 2653 H 245.5 3.76949 3.05021 0
M  V30 2654 N 246.843 -1.10192 1.12674 0
M  V30 2655 C 247.773 -2.18652 0.819362 0
M  V30 2656 C 248.754 -1.68698 -0.217915 0
M  V30 2657 O 249.939 -1.94041 -0.0785581 0
M  V30 2658 C 247.069 -3.46202 0.27594 0
M  V30 2659 C 246.023 -4.09444 1.24656 0
M  V30 2660 C 245.349 -5.31725 0.563258 0
M  V30 2661 C 246.649 -4.52863 2.60217 0
M  V30 2662 H 248.343 -2.44622 1.72628 0
M  V30 2663 H 245.889 -1.17571 0.831451 0
M  V30 2664 H 247.842 -4.21372 0.0486149 0
M  V30 2665 H 246.566 -3.1973 -0.666331 0
M  V30 2666 H 245.225 -3.36284 1.45974 0
M  V30 2667 H 244.873 -5.0153 -0.384235 0
M  V30 2668 H 244.573 -5.74991 1.21075 0
M  V30 2669 H 246.097 -6.09624 0.34503 0
M  V30 2670 H 247.511 -5.19294 2.42913 0
M  V30 2671 H 245.908 -5.06986 3.21068 0
M  V30 2672 H 246.978 -3.65656 3.18471 0
M  V30 2673 N 248.321 -0.919034 -1.28029 0
M  V30 2674 C 249.546 -0.570357 -1.99403 0
M  V30 2675 C 249.971 0.842486 -1.68178 0
M  V30 2676 O 249.329 1.56391 -0.917141 0
M  V30 2677 C 249.377 -0.792541 -3.51783 0
M  V30 2678 O 248.481 0.145988 -4.12142 0
M  V30 2679 H 247.822 -0.220555 -0.6263 0
M  V30 2680 H 250.352 -1.23592 -1.63053 0
M  V30 2681 H 250.362 -0.704708 -4.01868 0
M  V30 2682 H 249.037 -1.82247 -3.73844 0
M  V30 2683 H 247.614 0.00897528 -3.72899 0
M  V30 2684 N 249.799 1.42003 -0.683588 0
M  V30 2685 C 250.762 2.29191 -0.0198243 0
M  V30 2686 C 251.762 1.43773 0.72013 0
M  V30 2687 O 252.952 1.65061 0.556815 0
M  V30 2688 C 250.084 3.26435 0.982487 0
M  V30 2689 H 251.277 2.8938 -0.787345 0
M  V30 2690 H 248.83 1.49789 -0.446418 0
M  V30 2691 H 249.565 2.71203 1.77819 0
M  V30 2692 H 249.35 3.89449 0.455182 0
M  V30 2693 H 250.84 3.918 1.44508 0
M  V30 2694 N 251.277 0.427512 1.51691 0
M  V30 2695 C 252.525 -0.141948 2.01601 0
M  V30 2696 C 252.846 -1.44067 1.31414 0
M  V30 2697 O 252.116 -1.90763 0.445658 0
M  V30 2698 H 250.696 -0.0554468 0.744939 0
M  V30 2699 H 253.358 0.567968 1.86441 0
M  V30 2700 H 252.454 -0.324913 3.10404 0
M  V30 2701 N 252.755 -1.56801 0.158532 0
M  V30 2702 C 254.166 -1.83189 -0.360366 0
M  V30 2703 C 254.517 -1.07778 -1.63946 0
M  V30 2704 O 253.642 -0.326718 -2.13919 0
M  V30 2705 C 254.237 -3.32297 -0.660595 0
M  V30 2706 C 252.796 -3.59227 -1.12398 0
M  V30 2707 C 251.943 -2.76877 -0.153097 0
M  V30 2708 H 254.894 -1.54008 0.383031 0
M  V30 2709 H 254.915 -3.4908 -1.51405 0
M  V30 2710 H 254.427 -3.87156 0.270527 0
M  V30 2711 H 252.528 -3.09766 -2.07064 0
M  V30 2712 H 252.641 -4.67632 -1.04197 0
M  V30 2713 H 251.005 -2.46319 -0.647983 0
M  V30 2714 H 251.788 -3.34511 0.77182 0
M  V30 2715 N 254.233 0.115231 -1.57178 0
M  V30 2716 C 255.48 0.822351 -1.8505 0
M  V30 2717 C 255.808 1.79701 -0.744168 0
M  V30 2718 O 255.063 1.93909 0.26414 0
M  V30 2719 C 255.362 1.60324 -3.19423 0
M  V30 2720 C 255.028 0.772536 -4.44233 0
M  V30 2721 C 253.69 0.543468 -4.78121 0
M  V30 2722 C 256.042 0.193746 -5.2084 0
M  V30 2723 C 253.37 -0.274583 -5.86057 0
M  V30 2724 C 255.722 -0.611517 -6.29637 0
M  V30 2725 C 254.386 -0.850867 -6.62055 0
M  V30 2726 H 253.656 0.30092 -0.677147 0
M  V30 2727 H 256.303 0.0845802 -1.91313 0
M  V30 2728 H 254.608 2.41203 -3.08753 0
M  V30 2729 H 256.305 2.1544 -3.38211 0
M  V30 2730 H 252.895 0.96117 -4.17683 0
M  V30 2731 H 257.079 0.357926 -4.95008 0
M  V30 2732 H 252.335 -0.469206 -6.09597 0
M  V30 2733 H 256.509 -1.06697 -6.88178 0
M  V30 2734 H 254.136 -1.48657 -7.45523 0
M  V30 2735 N 255.711 1.52812 0.385517 0
M  V30 2736 C 256.641 1.80808 1.47752 0
M  V30 2737 C 257.622 0.660318 1.5676 0
M  V30 2738 O 258.807 0.908246 1.71652 0
M  V30 2739 C 255.937 1.98008 2.85324 0
M  V30 2740 C 254.891 3.13709 2.91154 0
M  V30 2741 C 254.217 3.16169 4.31209 0
M  V30 2742 C 255.517 4.52709 2.60483 0
M  V30 2743 H 257.211 2.72253 1.24573 0
M  V30 2744 H 254.757 1.31003 0.597839 0
M  V30 2745 H 256.71 2.16176 3.61726 0
M  V30 2746 H 255.434 1.03255 3.09848 0
M  V30 2747 H 254.093 2.95329 2.17201 0
M  V30 2748 H 253.741 2.19092 4.52778 0
M  V30 2749 H 253.441 3.93894 4.36029 0
M  V30 2750 H 254.965 3.36496 5.09512 0
M  V30 2751 H 256.379 4.71173 3.26602 0
M  V30 2752 H 254.776 5.32528 2.76648 0
M  V30 2753 H 255.846 4.59186 1.55809 0
M  V30 2754 N 257.189 -0.644168 1.43834 0
M  V30 2755 C 258.436 -1.40395 1.4593 0
M  V30 2756 C 258.764 -1.94305 0.0869658 0
M  V30 2757 O 258.019 -1.73288 -0.909378 0
M  V30 2758 C 258.318 -2.59615 2.45631 0
M  V30 2759 C 257.984 -2.2407 3.91284 0
M  V30 2760 C 256.646 -2.14089 4.30952 0
M  V30 2761 C 258.998 -1.95775 4.83034 0
M  V30 2762 C 256.326 -1.73981 5.6031 0
M  V30 2763 C 258.678 -1.57163 6.12766 0
M  V30 2764 C 257.342 -1.45713 6.51402 0
M  V30 2765 H 256.612 -0.513741 0.533995 0
M  V30 2766 H 259.259 -0.731724 1.76969 0
M  V30 2767 H 257.564 -3.32011 2.08028 0
M  V30 2768 H 259.261 -3.17834 2.44504 0
M  V30 2769 H 255.851 -2.32753 3.59895 0
M  V30 2770 H 260.035 -2.02403 4.53152 0
M  V30 2771 H 255.291 -1.63709 5.89075 0
M  V30 2772 H 259.465 -1.34303 6.83327 0
M  V30 2773 H 257.092 -1.14406 7.51542 0
M  V30 2774 N 258.668 -1.30515 -0.883378 0
M  V30 2775 C 259.598 -1.19607 -2.00541 0
M  V30 2776 C 260.579 -0.086346 -1.69881 0
M  V30 2777 O 261.764 -0.268654 -1.92333 0
M  V30 2778 C 258.894 -0.888758 -3.35736 0
M  V30 2779 C 257.848 -1.95659 -3.8066 0
M  V30 2780 C 257.174 -1.50224 -5.13164 0
M  V30 2781 C 258.474 -3.36788 -3.99213 0
M  V30 2782 H 260.168 -2.13476 -2.09925 0
M  V30 2783 H 257.714 -1.02775 -1.00863 0
M  V30 2784 H 259.667 -0.799094 -4.13754 0
M  V30 2785 H 258.391 0.0856125 -3.26488 0
M  V30 2786 H 257.05 -2.03591 -3.04871 0
M  V30 2787 H 256.698 -0.516092 -5.00345 0
M  V30 2788 H 256.398 -2.2165 -5.44192 0
M  V30 2789 H 257.922 -1.42639 -5.93706 0
M  V30 2790 H 259.336 -3.31605 -4.67665 0
M  V30 2791 H 257.733 -4.06314 -4.41621 0
M  V30 2792 H 258.803 -3.78561 -3.03017 0
M  V30 2793 N 260.146 1.09593 -1.13257 0
M  V30 2794 C 261.392 1.82003 -0.89458 0
M  V30 2795 C 261.725 1.85402 0.577906 0
M  V30 2796 O 261 1.32099 1.42759 0
M  V30 2797 C 261.283 3.28237 -1.48096 0
M  V30 2798 C 261.136 3.3312 -3.02244 0
M  V30 2799 C 262.455 4.24871 -1.14774 0
M  V30 2800 H 259.574 0.66077 -0.326424 0
M  V30 2801 H 262.216 1.28389 -1.40058 0
M  V30 2802 H 260.366 3.74024 -1.05062 0
M  V30 2803 H 262.038 2.95748 -3.54021 0
M  V30 2804 H 260.281 2.72756 -3.37323 0
M  V30 2805 H 260.952 4.3613 -3.38371 0
M  V30 2806 H 263.428 3.87361 -1.51957 0
M  V30 2807 H 262.304 5.25532 -1.58452 0
M  V30 2808 H 262.565 4.42058 -0.0611849 0
M  V30 2809 N 261.624 0.925811 1.2754 0
M  V30 2810 C 262.872 0.564138 1.94067 0
M  V30 2811 C 263.193 -0.897188 1.73134 0
M  V30 2812 O 262.463 -1.63573 1.07799 0
M  V30 2813 H 261.043 0.205645 0.718136 0
M  V30 2814 H 263.705 1.1778 1.55287 0
M  V30 2815 H 262.801 0.76881 3.02483 0
M  V30 2816 N 263.102 -1.41638 0.69111 0
M  V30 2817 C 264.348 -2.01598 0.220519 0
M  V30 2818 C 264.681 -1.54594 -1.17535 0
M  V30 2819 O 263.956 -0.755177 -1.79241 0
M  V30 2820 C 264.239 -3.59062 0.273243 0
M  V30 2821 C 264.092 -4.16203 1.70573 0
M  V30 2822 C 265.411 -4.38546 -0.369457 0
M  V30 2823 H 262.53 -0.732468 0.0816045 0
M  V30 2824 H 265.172 -1.68445 0.878986 0
M  V30 2825 H 263.322 -3.87435 -0.287411 0
M  V30 2826 H 264.994 -3.98722 2.31989 0
M  V30 2827 H 263.237 -3.71414 2.2413 0
M  V30 2828 H 263.908 -5.25358 1.69419 0
M  V30 2829 H 266.384 -4.1596 0.107977 0
M  V30 2830 H 265.26 -5.48069 -0.302002 0
M  V30 2831 H 265.521 -4.17662 -1.44951 0
M  V30 2832 N 264.58 -0.43555 -1.51462 0
M  V30 2833 C 265.49 0.383001 -2.31453 0
M  V30 2834 C 266.506 1.02931 -1.4029 0
M  V30 2835 O 267.682 1.02507 -1.73362 0
M  V30 2836 C 264.747 1.47043 -3.13973 0
M  V30 2837 C 263.808 0.844433 -4.20913 0
M  V30 2838 C 263.041 1.88004 -4.9949 0
M  V30 2839 O 263.264 3.10199 -4.78678 0
M  V30 2840 O 262.198 1.47157 -5.83634 0
M  V30 2841 H 266.024 -0.269964 -3.02498 0
M  V30 2842 H 263.609 -0.19813 -1.4808 0
M  V30 2843 H 265.491 2.10113 -3.65281 0
M  V30 2844 H 264.166 2.10751 -2.45695 0
M  V30 2845 H 263.073 0.175729 -3.73687 0
M  V30 2846 H 264.406 0.250869 -4.9156 0
M  V30 2847 N 266.058 1.56714 -0.166846 0
M  V30 2848 C 266.99 2.14914 0.796537 0
M  V30 2849 C 268.003 1.10357 1.19688 0
M  V30 2850 O 269.192 1.37561 1.13751 0
M  V30 2851 C 266.292 2.67326 2.08303 0
M  V30 2852 C 265.465 3.96493 1.84696 0
M  V30 2853 C 264.524 4.34014 2.97521 0
M  V30 2854 O 263.55 5.01973 2.6835 0
M  V30 2855 N 264.752 3.95208 4.25196 0
M  V30 2856 H 267.517 2.98205 0.299006 0
M  V30 2857 H 265.078 1.61892 0.0160839 0
M  V30 2858 H 267.07 2.89428 2.82867 0
M  V30 2859 H 265.64 1.88649 2.4926 0
M  V30 2860 H 264.86 3.82814 0.940602 0
M  V30 2861 H 266.148 4.8086 1.66285 0
M  V30 2862 H 265.546 3.40487 4.51758 0
M  V30 2863 H 264.103 4.2232 4.96477 0
M  V30 2864 N 267.536 -0.106894 1.57237 0
M  V30 2865 C 268.813 -0.843526 1.76477 0
M  V30 2866 C 269.193 -1.97499 0.745464 0
M  V30 2867 O 268.541 -2.27357 -0.228306 0
M  V30 2868 C 268.751 -1.34903 3.21873 0
M  V30 2869 C 270.099 -1.79654 3.8472 0
M  V30 2870 O 271.123 -1.44554 3.2555 0
M  V30 2871 O 269.982 -2.44515 4.88748 0
M  V30 2872 H 267.076 -0.401468 0.723016 0
M  V30 2873 H 269.622 -0.0896927 1.69463 0
M  V30 2874 H 268.394 -0.53781 3.87586 0
M  V30 2875 H 268.017 -2.16522 3.33473 0
M  V30 2876 N 269.014 -1.53014 -0.377408 0
M  V30 2877 C 270.425 -1.60438 -0.954798 0
M  V30 2878 C 270.776 -0.464418 -1.90624 0
M  V30 2879 O 269.901 0.41087 -2.12464 0
M  V30 2880 C 270.496 -2.90797 -1.73847 0
M  V30 2881 C 269.055 -3.00595 -2.26538 0
M  V30 2882 C 268.202 -2.55645 -1.07429 0
M  V30 2883 H 271.153 -1.57926 -0.156575 0
M  V30 2884 H 271.174 -2.77935 -2.5987 0
M  V30 2885 H 270.686 -3.73746 -1.04574 0
M  V30 2886 H 268.787 -2.22208 -2.99089 0
M  V30 2887 H 268.9 -4.05456 -2.5523 0
M  V30 2888 H 267.264 -2.10239 -1.43777 0
M  V30 2889 H 268.047 -3.41 -0.396728 0
M  V30 2890 N 270.492 0.636531 -1.44174 0
M  V30 2891 C 271.74 1.39343 -1.46383 0
M  V30 2892 C 272.061 1.94766 -0.0955715 0
M  V30 2893 O 271.331 1.75452 0.871395 0
M  V30 2894 H 269.911 0.517199 -0.538994 0
M  V30 2895 H 272.573 0.74957 -1.7991 0
M  V30 2896 H 271.669 2.22746 -2.18611 0
M  V30 2897 N 271.97 1.30982 0.876444 0
M  V30 2898 C 273.219 1.19658 1.62373 0
M  V30 2899 C 273.532 -0.245636 1.94052 0
M  V30 2900 O 274.738 -0.48049 2.67214 0
M  V30 2901 C 273.194 2.09433 2.92687 0
M  V30 2902 C 272.802 3.58613 2.68516 0
M  V30 2903 C 274.546 2.06893 3.70669 0
M  V30 2904 C 272.453 4.40416 3.94699 0
M  V30 2905 H 271.383 0.444268 0.609214 0
M  V30 2906 H 274.034 1.55791 0.969605 0
M  V30 2907 H 272.416 1.66191 3.59439 0
M  V30 2908 H 273.59 4.10058 2.10212 0
M  V30 2909 H 271.905 3.63063 2.03898 0
M  V30 2910 H 274.502 2.65258 4.64265 0
M  V30 2911 H 274.845 1.05448 4.02724 0
M  V30 2912 H 275.378 2.48301 3.10792 0
M  V30 2913 H 272.117 5.42591 3.67798 0
M  V30 2914 H 271.637 3.93731 4.52477 0
M  V30 2915 H 273.316 4.52294 4.62644 0
M  V30 2916 N 273.449 -1.08991 1.13837 0
M  V30 2917 C 274.674 -1.85551 0.926585 0
M  V30 2918 C 275.099 -1.80782 -0.519566 0
M  V30 2919 O 274.457 -1.18855 -1.36906 0
M  V30 2920 C 274.505 -3.31266 1.42462 0
M  V30 2921 O 273.609 -4.07822 0.612789 0
M  V30 2922 H 272.95 -0.575192 0.331738 0
M  V30 2923 H 275.48 -1.37604 1.51414 0
M  V30 2924 H 275.49 -3.82112 1.43019 0
M  V30 2925 H 274.165 -3.34052 2.47754 0
M  V30 2926 H 272.742 -3.66731 0.675463 0
M  V30 2927 N 274.927 -0.932562 -1.27047 0
M  V30 2928 C 276.173 -0.576412 -1.94436 0
M  V30 2929 C 276.506 0.880891 -1.73072 0
M  V30 2930 O 275.781 1.62905 -1.06264 0
M  V30 2931 C 276.064 -0.909031 -3.48437 0
M  V30 2932 C 275.917 -2.42044 -3.79123 0
M  V30 2933 C 277.236 -0.418341 -4.38107 0
M  V30 2934 H 274.355 -0.210888 -0.706184 0
M  V30 2935 H 276.997 -1.16522 -1.50075 0
M  V30 2936 H 275.147 -0.407947 -3.86352 0
M  V30 2937 H 276.819 -2.99359 -3.50973 0
M  V30 2938 H 275.062 -2.86758 -3.25503 0
M  V30 2939 H 275.733 -2.6037 -4.86736 0
M  V30 2940 H 278.209 -0.847856 -4.0737 0
M  V30 2941 H 277.085 -0.679981 -5.44672 0
M  V30 2942 H 277.346 0.681642 -4.36814 0
M  V30 2943 N 276.405 1.4127 -0.698611 0
M  V30 2944 C 277.651 2.01478 -0.231207 0
M  V30 2945 C 277.984 1.55215 1.16713 0
M  V30 2946 O 277.259 0.764672 1.78838 0
M  V30 2947 C 277.542 3.58912 -0.292281 0
M  V30 2948 C 277.395 4.15293 -1.72778 0
M  V30 2949 C 278.714 4.38736 0.346194 0
M  V30 2950 H 275.833 0.732025 -0.0854878 0
M  V30 2951 H 278.475 1.67977 -0.887906 0
M  V30 2952 H 276.625 3.87582 0.26686 0
M  V30 2953 H 278.297 3.97486 -2.341 0
M  V30 2954 H 276.54 3.7022 -2.26096 0
M  V30 2955 H 277.211 5.24452 -1.72202 0
M  V30 2956 H 279.687 4.15897 -0.130035 0
M  V30 2957 H 278.563 5.48221 0.272932 0
M  V30 2958 H 278.824 4.18425 1.42734 0
M  V30 2959 N 277.883 0.443576 1.51229 0
M  V30 2960 C 279.294 -0.0180867 1.86691 0
M  V30 2961 C 279.645 -1.41384 1.36033 0
M  V30 2962 O 278.77 -2.04291 0.713722 0
M  V30 2963 C 279.365 -0.039597 3.38777 0
M  V30 2964 C 277.924 -0.445692 3.73752 0
M  V30 2965 C 277.071 0.357584 2.74985 0
M  V30 2966 H 280.022 0.659138 1.44364 0
M  V30 2967 H 280.043 -0.847761 3.70936 0
M  V30 2968 H 279.555 0.976382 3.75617 0
M  V30 2969 H 277.656 -1.46704 3.42503 0
M  V30 2970 H 277.769 -0.166155 4.78812 0
M  V30 2971 H 276.133 -0.184973 2.54027 0
M  V30 2972 H 276.916 1.37256 3.14668 0
M  V30 2973 N 279.361 -1.56624 0.175154 0
M  V30 2974 C 280.609 -1.96609 -0.467885 0
M  V30 2975 C 280.93 -1.06238 -1.63519 0
M  V30 2976 O 280.2 -0.129523 -1.95471 0
M  V30 2977 H 278.78 -0.726008 -0.175845 0
M  V30 2978 H 281.442 -1.93195 0.257234 0
M  V30 2979 H 280.538 -3.00989 -0.825342 0
M  V30 2980 N 280.839 0.0985539 -1.57292 0
M  V30 2981 C 281.769 1.12064 -2.04851 0
M  V30 2982 C 282.75 1.41981 -0.936767 0
M  V30 2983 O 283.935 1.52071 -1.20781 0
M  V30 2984 C 281.065 2.44144 -2.47004 0
M  V30 2985 C 280.019 2.28643 -3.6181 0
M  V30 2986 C 279.345 3.65869 -3.89929 0
M  V30 2987 C 280.645 1.72986 -4.92822 0
M  V30 2988 H 282.339 0.724979 -2.9049 0
M  V30 2989 H 279.885 0.34729 -1.39749 0
M  V30 2990 H 281.838 3.15914 -2.78884 0
M  V30 2991 H 280.562 2.85639 -1.5836 0
M  V30 2992 H 279.221 1.59318 -3.30172 0
M  V30 2993 H 278.869 4.04885 -2.98458 0
M  V30 2994 H 278.569 3.56344 -4.67218 0
M  V30 2995 H 280.093 4.39112 -4.2428 0
M  V30 2996 H 281.507 2.34593 -5.23105 0
M  V30 2997 H 279.904 1.74229 -5.74251 0
M  V30 2998 H 280.974 0.689007 -4.7998 0
M  V30 2999 N 282.317 1.53212 0.369288 0
M  V30 3000 C 283.265 1.80054 1.47253 0
M  V30 3001 C 284.259 0.669456 1.55611 0
M  V30 3002 O 285.465 0.852328 1.58541 0
M  V30 3003 H 281.84 0.570034 0.490475 0
M  V30 3004 H 283.811 2.72403 1.21817 0
M  V30 3005 C 282.56 2.00403 2.84137 0
M  V30 3006 H 281.883 2.86876 2.78464 0
M  V30 3007 H 283.323 2.23164 3.60519 0
M  V30 3008 C 281.782 0.782081 3.27697 0
M  V30 3009 O 282.312 -0.0310205 4.01688 0
M  V30 3010 N 280.518 0.606573 2.84199 0
M  V30 3011 H 280.065 1.26939 2.24152 0
M  V30 3012 H 280.023 -0.20962 3.137 0
M  V30 3013 N 283.795 -0.628877 1.44509 0
M  V30 3014 C 285.043 -1.38565 1.4712 0
M  V30 3015 C 285.364 -1.94712 0.105899 0
M  V30 3016 O 284.634 -1.75912 -0.862079 0
M  V30 3017 H 283.214 -0.514333 0.541729 0
M  V30 3018 H 285.876 -0.740018 1.80305 0
M  V30 3019 H 284.972 -2.21583 2.19789 0
M  V30 3020 N 285.273 -1.31445 -0.869486 0
M  V30 3021 C 286.501 -1.24122 -1.65534 0
M  V30 3022 C 286.916 0.193387 -1.87807 0
M  V30 3023 O 286.273 1.12557 -1.43656 0
M  V30 3024 C 286.324 -1.98229 -3.02304 0
M  V30 3025 O 286.045 -3.3609 -2.81026 0
M  V30 3026 C 287.546 -1.97751 -3.96749 0
M  V30 3027 H 284.766 -0.428868 -0.516055 0
M  V30 3028 H 287.31 -1.73328 -1.08525 0
M  V30 3029 H 285.465 -1.52782 -3.56001 0
M  V30 3030 H 285.879 -3.7383 -3.67902 0
M  V30 3031 H 287.353 -2.54114 -4.90031 0
M  V30 3032 H 287.83 -0.960137 -4.28577 0
M  V30 3033 H 288.436 -2.43079 -3.48988 0
M  V30 3034 N 286.751 1.08385 -1.14413 0
M  V30 3035 C 287.714 2.13486 -0.834048 0
M  V30 3036 C 288.714 1.59988 0.161418 0
M  V30 3037 O 289.904 1.74071 -0.0669575 0
M  V30 3038 C 287.036 3.4003 -0.243354 0
M  V30 3039 H 288.229 2.42425 -1.7655 0
M  V30 3040 H 285.782 1.24101 -0.950189 0
M  V30 3041 H 286.517 3.16726 0.696807 0
M  V30 3042 H 286.302 3.80157 -0.960367 0
M  V30 3043 H 287.792 4.17577 -0.0436242 0
M  V30 3044 N 288.23 0.939286 1.26551 0
M  V30 3045 C 289.646 0.641304 1.46149 0
M  V30 3046 C 289.846 -0.805964 1.84679 0
M  V30 3047 O 288.902 -1.58278 1.96734 0
M  V30 3048 C 290.215 1.6011 2.54529 0
M  V30 3049 C 291.763 1.6106 2.68382 0
M  V30 3050 C 292.238 2.55765 3.79932 0
M  V30 3051 N 293.729 2.5404 3.87322 0
M  V30 3052 C 294.464 3.24004 4.73085 0
M  V30 3053 N 293.96 4.03388 5.63249 0
M  V30 3054 N 295.753 3.12965 4.66914 0
M  V30 3055 H 287.904 1.87478 0.998285 0
M  V30 3056 H 290.167 0.805559 0.499779 0
M  V30 3057 H 289.873 2.63412 2.33039 0
M  V30 3058 H 289.747 1.35171 3.52149 0
M  V30 3059 H 292.134 0.584835 2.89247 0
M  V30 3060 H 292.215 1.90053 1.71212 0
M  V30 3061 H 291.859 3.58458 3.5982 0
M  V30 3062 H 291.789 2.24063 4.76554 0
M  V30 3063 H 294.28 1.96396 3.22858 0
M  V30 3064 H 294.593 4.5373 6.25579 0
M  V30 3065 H 292.938 4.07489 5.63008 0
M  V30 3066 H 296.129 2.50432 3.95476 0
M  V30 3067 H 296.302 3.67759 5.33533 0
M  V30 3068 N 289.708 -1.40897 0.706093 0
M  V30 3069 C 290.957 -2.00284 0.238574 0
M  V30 3070 C 291.27 -1.56604 -1.17194 0
M  V30 3071 O 292.476 -2.08624 -1.73748 0
M  V30 3072 C 290.932 -3.57934 0.375623 0
M  V30 3073 C 290.54 -4.10591 1.79217 0
M  V30 3074 C 292.284 -4.24488 -0.0315857 0
M  V30 3075 C 290.191 -5.60712 1.88032 0
M  V30 3076 H 289.121 -0.749144 0.0854398 0
M  V30 3077 H 291.772 -1.61251 0.875813 0
M  V30 3078 H 290.154 -3.94622 -0.330042 0
M  V30 3079 H 291.328 -3.85301 2.52745 0
M  V30 3080 H 289.643 -3.56601 2.15 0
M  V30 3081 H 292.24 -5.34698 0.0136842 0
M  V30 3082 H 292.583 -4.02261 -1.072 0
M  V30 3083 H 293.116 -3.92873 0.624181 0
M  V30 3084 H 289.855 -5.87781 2.90161 0
M  V30 3085 H 289.375 -5.87896 1.18903 0
M  V30 3086 H 291.054 -6.25658 1.64805 0
M  V30 3087 N 291.186 -0.45159 -1.50991 0
M  V30 3088 C 292.149 0.341117 -2.26647 0
M  V30 3089 C 293.149 0.937422 -1.30649 0
M  V30 3090 O 294.339 0.809644 -1.54241 0
M  V30 3091 C 291.471 1.48398 -3.06905 0
M  V30 3092 H 292.664 -0.322117 -2.98165 0
M  V30 3093 H 290.217 -0.205122 -1.54948 0
M  V30 3094 H 290.952 2.18284 -2.39838 0
M  V30 3095 H 290.737 1.06241 -3.77432 0
M  V30 3096 H 292.227 2.04367 -3.64176 0
M  V30 3097 N 292.664 1.56529 -0.183458 0
M  V30 3098 C 293.889 2.02064 0.467428 0
M  V30 3099 C 294.314 1.06282 1.55196 0
M  V30 3100 O 293.672 0.0443565 1.81246 0
M  V30 3101 C 293.72 3.46122 1.01153 0
M  V30 3102 O 292.824 3.53437 2.12499 0
M  V30 3103 H 292.165 0.654726 0.110588 0
M  V30 3104 H 294.695 2.02521 -0.290917 0
M  V30 3105 H 294.705 3.85676 1.33108 0
M  V30 3106 H 293.38 4.15331 0.217533 0
M  V30 3107 H 291.957 3.2575 1.81497 0
M  V30 3108 N 294.142 -0.090211 1.57342 0
M  V30 3109 C 295.367 -0.810082 1.90925 0
M  V30 3110 C 295.792 -1.71248 0.778187 0
M  V30 3111 O 295.15 -1.79278 -0.269991 0
M  V30 3112 C 295.198 -1.59529 3.23393 0
M  V30 3113 O 294.302 -2.70461 3.11327 0
M  V30 3114 H 293.643 -0.222231 0.625707 0
M  V30 3115 H 296.173 -0.0639716 2.045 0
M  V30 3116 H 296.183 -1.97847 3.5682 0
M  V30 3117 H 294.858 -0.933055 4.05299 0
M  V30 3118 H 293.435 -2.35135 2.89423 0
M  V30 3119 N 295.62 -1.53406 -0.361157 0
M  V30 3120 C 297.031 -1.61442 -0.937728 0
M  V30 3121 C 297.382 -0.48461 -1.90121 0
M  V30 3122 O 296.507 0.388312 -2.12888 0
M  V30 3123 C 297.102 -2.92624 -1.70753 0
M  V30 3124 C 295.661 -3.02981 -2.23337 0
M  V30 3125 C 294.808 -2.5677 -1.04712 0
M  V30 3126 H 297.759 -1.58083 -0.139816 0
M  V30 3127 H 297.78 -2.80675 -2.56908 0
M  V30 3128 H 297.292 -3.74834 -1.00604 0
M  V30 3129 H 295.393 -2.25368 -2.96715 0
M  V30 3130 H 295.506 -4.0814 -2.50916 0
M  V30 3131 H 293.87 -2.11752 -1.41539 0
M  V30 3132 H 294.653 -3.41402 -0.360539 0
M  V30 3133 N 297.098 0.621204 -1.44841 0
M  V30 3134 C 298.028 1.74366 -1.55303 0
M  V30 3135 C 299.009 1.65199 -0.405385 0
M  V30 3136 O 300.194 1.83807 -0.626787 0
M  V30 3137 C 297.324 3.12931 -1.50637 0
M  V30 3138 C 296.278 3.36896 -2.63979 0
M  V30 3139 C 295.604 4.75594 -2.44366 0
M  V30 3140 C 296.904 3.28483 -4.06074 0
M  V30 3141 H 298.598 1.65867 -2.49256 0
M  V30 3142 H 296.144 0.796558 -1.19962 0
M  V30 3143 H 298.097 3.9124 -1.56555 0
M  V30 3144 H 296.821 3.22237 -0.532057 0
M  V30 3145 H 295.48 2.60972 -2.57467 0
M  V30 3146 H 295.128 4.81616 -1.45105 0
M  V30 3147 H 294.828 4.92586 -3.20364 0
M  V30 3148 H 296.352 5.5612 -2.52117 0
M  V30 3149 H 297.766 3.96684 -4.13902 0
M  V30 3150 H 296.163 3.57008 -4.82354 0
M  V30 3151 H 297.233 2.26133 -4.28943 0
M  V30 3152 N 298.576 1.31904 0.862503 0
M  V30 3153 C 299.539 1.20131 1.95195 0
M  V30 3154 C 300.539 0.126409 1.60302 0
M  V30 3155 O 301.729 0.376234 1.70089 0
M  V30 3156 C 298.861 0.845691 3.30244 0
M  V30 3157 H 300.054 2.16943 2.07064 0
M  V30 3158 H 297.607 1.15622 1.05172 0
M  V30 3159 H 298.342 -0.120957 3.24074 0
M  V30 3160 H 298.127 1.62276 3.56944 0
M  V30 3161 H 299.617 0.787418 4.10109 0
M  V30 3162 N 300.054 -1.07777 1.14986 0
M  V30 3163 C 301.279 -1.84558 0.946213 0
M  V30 3164 C 301.704 -1.81323 -0.500362 0
M  V30 3165 O 301.062 -1.20301 -1.35637 0
M  V30 3166 C 301.11 -3.29736 1.45968 0
M  V30 3167 O 300.214 -4.07149 0.65601 0
M  V30 3168 H 299.555 -0.571641 0.33782 0
M  V30 3169 H 302.085 -1.35991 1.52865 0
M  V30 3170 H 302.095 -3.80574 1.47063 0
M  V30 3171 H 300.77 -3.31406 2.51283 0
M  V30 3172 H 299.347 -3.65994 0.714322 0
M  V30 3173 N 301.532 -0.945985 -1.26051 0
M  V30 3174 C 302.757 -0.612525 -1.98149 0
M  V30 3175 C 303.182 0.806623 -1.69927 0
M  V30 3176 O 302.54 1.54411 -0.950108 0
M  V30 3177 C 302.588 -0.866981 -3.50023 0
M  V30 3178 O 301.692 0.0585333 -4.12358 0
M  V30 3179 H 301.033 -0.23379 -0.621481 0
M  V30 3180 H 303.563 -1.27023 -1.60395 0
M  V30 3181 H 303.573 -0.789792 -4.00283 0
M  V30 3182 H 302.248 -1.90135 -3.69894 0
M  V30 3183 H 300.825 -0.0701241 -3.72834 0
M  V30 3184 N 303.011 1.40521 -0.713556 0
M  V30 3185 C 304.422 1.83853 -0.324807 0
M  V30 3186 C 304.773 1.59667 1.14021 0
M  V30 3187 O 303.898 1.07649 1.87725 0
M  V30 3188 C 304.493 3.33751 -0.582746 0
M  V30 3189 C 303.052 3.75584 -0.247727 0
M  V30 3190 C 302.199 2.63753 -0.856121 0
M  V30 3191 H 305.15 1.29817 -0.91286 0
M  V30 3192 H 305.171 3.80194 0.152682 0
M  V30 3193 H 304.683 3.51322 -1.64908 0
M  V30 3194 H 302.784 3.63608 0.813624 0
M  V30 3195 H 302.897 4.7373 -0.715307 0
M  V30 3196 H 301.261 2.53108 -0.28432 0
M  V30 3197 H 302.044 2.84137 -1.92668 0
M  V30 3198 N 304.489 0.459591 1.5075 0
M  V30 3199 C 305.9 0.00171547 1.867 0
M  V30 3200 C 306.251 -1.39934 1.37525 0
M  V30 3201 O 305.376 -2.03523 0.735349 0
M  V30 3202 C 305.971 -0.00366298 3.388 0
M  V30 3203 C 304.53 -0.406026 3.74204 0
M  V30 3204 C 303.677 0.38673 2.7459 0
M  V30 3205 H 306.628 0.674413 1.43657 0
M  V30 3206 H 306.649 -0.808371 3.71814 0
M  V30 3207 H 306.161 1.01617 3.74561 0
M  V30 3208 H 304.262 -1.43063 3.4404 0
M  V30 3209 H 304.375 -0.115362 4.78961 0
M  V30 3210 H 302.739 -0.158019 2.54209 0
M  V30 3211 H 303.522 1.40585 3.13194 0
M  V30 3212 N 305.967 -1.56429 0.191757 0
M  V30 3213 C 306.897 -2.21937 -0.725696 0
M  V30 3214 C 307.878 -1.1814 -1.2238 0
M  V30 3215 O 309.063 -1.46636 -1.27325 0
M  V30 3216 C 306.193 -2.87611 -1.94672 0
M  V30 3217 C 305.147 -3.97623 -1.58366 0
M  V30 3218 C 304.473 -4.50446 -2.88102 0
M  V30 3219 C 305.773 -5.16197 -0.796133 0
M  V30 3220 H 307.467 -2.98861 -0.179606 0
M  V30 3221 H 305.013 -1.43749 -0.0849464 0
M  V30 3222 H 306.966 -3.3212 -2.59373 0
M  V30 3223 H 305.69 -2.08087 -2.51728 0
M  V30 3224 H 304.349 -3.53801 -0.960247 0
M  V30 3225 H 303.997 -3.67688 -3.43241 0
M  V30 3226 H 303.697 -5.24675 -2.64556 0
M  V30 3227 H 305.221 -4.97654 -3.53798 0
M  V30 3228 H 306.635 -5.57271 -1.34618 0
M  V30 3229 H 305.032 -5.96471 -0.658928 0
M  V30 3230 H 306.102 -4.84473 0.203478 0
M  V30 3231 N 307.445 0.0818655 -1.57387 0
M  V30 3232 C 308.691 0.778884 -1.87896 0
M  V30 3233 C 309.046 1.75692 -0.784229 0
M  V30 3234 O 308.339 1.90417 0.212567 0
M  V30 3235 C 308.533 1.53513 -3.22752 0
M  V30 3236 C 308.362 0.631838 -4.45239 0
M  V30 3237 C 307.132 0.272571 -5.04564 0
M  V30 3238 C 309.33 -0.0670191 -5.14256 0
M  V30 3239 N 307.312 -0.637498 -6.10581 0
M  V30 3240 C 308.683 -0.834653 -6.14356 0
M  V30 3241 C 310.738 -0.139551 -4.97704 0
M  V30 3242 C 309.441 -1.66806 -6.99691 0
M  V30 3243 C 311.467 -0.959903 -5.83558 0
M  V30 3244 C 310.829 -1.71561 -6.83188 0
M  V30 3245 H 306.928 0.260764 -0.737242 0
M  V30 3246 H 309.512 0.0408227 -1.94657 0
M  V30 3247 H 307.683 2.24398 -3.17018 0
M  V30 3248 H 309.415 2.18038 -3.40942 0
M  V30 3249 H 306.17 0.62319 -4.69482 0
M  V30 3250 H 306.594 -1.08548 -6.68241 0
M  V30 3251 H 311.236 0.430376 -4.20604 0
M  V30 3252 H 308.954 -2.249 -7.76174 0
M  V30 3253 H 312.54 -1.01887 -5.72809 0
M  V30 3254 H 311.42 -2.34017 -7.48469 0
M  V30 3255 N 308.923 1.53595 0.353017 0
M  V30 3256 C 309.853 1.83902 1.43883 0
M  V30 3257 C 310.834 0.693421 1.55324 0
M  V30 3258 O 312.019 0.944452 1.69687 0
M  V30 3259 C 309.149 2.04016 2.8106 0
M  V30 3260 C 308.103 3.19814 2.84434 0
M  V30 3261 C 307.429 3.25244 4.24406 0
M  V30 3262 C 308.729 4.58133 2.50822 0
M  V30 3263 H 310.423 2.74835 1.1877 0
M  V30 3264 H 307.969 1.32242 0.569917 0
M  V30 3265 H 309.922 2.238 3.57059 0
M  V30 3266 H 308.646 1.09804 3.07588 0
M  V30 3267 H 307.305 2.9987 2.10887 0
M  V30 3268 H 306.953 2.28646 4.48029 0
M  V30 3269 H 306.653 4.03054 4.27576 0
M  V30 3270 H 308.177 3.47228 5.0226 0
M  V30 3271 H 309.591 4.77995 3.16534 0
M  V30 3272 H 307.988 5.38276 2.6529 0
M  V30 3273 H 309.058 4.62387 1.46034 0
M  V30 3274 N 310.401 -0.613514 1.45168 0
M  V30 3275 C 311.626 -1.40437 1.52618 0
M  V30 3276 C 312.051 -1.87438 0.157707 0
M  V30 3277 O 311.409 -1.59791 -0.856537 0
M  V30 3278 C 311.457 -2.58894 2.51011 0
M  V30 3279 O 310.561 -3.59326 2.02382 0
M  V30 3280 H 309.902 -0.419506 0.514695 0
M  V30 3281 H 312.432 -0.747215 1.90467 0
M  V30 3282 H 312.442 -3.06214 2.69624 0
M  V30 3283 H 311.117 -2.24032 3.50403 0
M  V30 3284 H 309.694 -3.18695 1.93618 0
M  V30 3285 N 311.879 -1.3236 -0.855495 0
M  V30 3286 C 313.295 -1.11332 -1.14356 0
M  V30 3287 C 313.495 0.106751 -2.01217 0
M  V30 3288 O 312.551 0.791891 -2.39761 0
M  V30 3289 C 313.864 -2.39237 -1.82171 0
M  V30 3290 C 315.412 -2.44986 -1.9481 0
M  V30 3291 C 315.887 -3.7281 -2.66039 0
M  V30 3292 N 317.378 -3.73787 -2.73565 0
M  V30 3293 C 318.113 -4.69394 -3.29327 0
M  V30 3294 N 317.609 -5.75367 -3.85907 0
M  V30 3295 N 319.402 -4.56893 -3.27423 0
M  V30 3296 H 311.553 -2.10586 -0.277027 0
M  V30 3297 H 313.816 -0.929701 -0.185364 0
M  V30 3298 H 313.522 -3.28431 -1.25802 0
M  V30 3299 H 313.396 -2.50134 -2.82335 0
M  V30 3300 H 315.783 -1.56252 -2.50338 0
M  V30 3301 H 315.864 -2.38043 -0.936448 0
M  V30 3302 H 315.508 -4.61918 -2.11174 0
M  V30 3303 H 315.438 -3.77024 -3.67642 0
M  V30 3304 H 317.929 -2.97189 -2.33424 0
M  V30 3305 H 318.242 -6.44378 -4.26611 0
M  V30 3306 H 316.587 -5.79123 -3.84242 0
M  V30 3307 H 319.778 -3.73269 -2.82467 0
M  V30 3308 H 319.951 -5.31577 -3.7058 0
M  V30 3309 N 313.357 1.07166 -1.15556 0
M  V30 3310 C 314.32 2.12589 -0.856644 0
M  V30 3311 C 315.32 1.6015 0.14444 0
M  V30 3312 O 316.51 1.7399 -0.0854163 0
M  V30 3313 C 313.642 3.39753 -0.279405 0
M  V30 3314 H 314.835 2.40539 -1.79112 0
M  V30 3315 H 312.388 1.23086 -0.963298 0
M  V30 3316 H 313.123 3.17447 0.663174 0
M  V30 3317 H 312.908 3.79117 -1.00063 0
M  V30 3318 H 314.398 4.17507 -0.0879113 0
M  V30 3319 N 314.835 0.952656 1.25548 0
M  V30 3320 C 316.246 0.647392 1.75116 0
M  V30 3321 C 316.597 -0.837274 1.77438 0
M  V30 3322 O 315.722 -1.65525 1.39393 0
M  V30 3323 C 316.317 1.16845 3.18014 0
M  V30 3324 C 314.876 0.913382 3.6515 0
M  V30 3325 C 314.023 1.31265 2.44264 0
M  V30 3326 H 316.974 1.12968 1.11462 0
M  V30 3327 H 316.995 0.527606 3.76824 0
M  V30 3328 H 316.507 2.24902 3.16292 0
M  V30 3329 H 314.608 -0.152316 3.72289 0
M  V30 3330 H 314.721 1.54845 4.53387 0
M  V30 3331 H 313.085 0.731028 2.43984 0
M  V30 3332 H 313.868 2.40239 2.45234 0
M  V30 3333 N 316.313 -1.40141 0.720998 0
M  V30 3334 C 317.724 -1.83678 0.334553 0
M  V30 3335 C 318.075 -1.6027 -1.13173 0
M  V30 3336 O 317.2 -1.08643 -1.87152 0
M  V30 3337 C 317.795 -3.33437 0.600437 0
M  V30 3338 C 316.354 -3.75447 0.267642 0
M  V30 3339 C 315.501 -2.63296 0.870097 0
M  V30 3340 H 318.452 -1.29331 0.919732 0
M  V30 3341 H 318.473 -3.80269 -0.132517 0
M  V30 3342 H 317.985 -3.50442 1.66768 0
M  V30 3343 H 316.086 -3.64035 -0.794329 0
M  V30 3344 H 316.199 -4.73344 0.74042 0
M  V30 3345 H 314.563 -2.52954 0.297739 0
M  V30 3346 H 315.346 -2.83112 1.94172 0
M  V30 3347 N 317.792 -0.46758 -1.50504 0
M  V30 3348 C 319.203 -0.0116166 -1.86696 0
M  V30 3349 C 319.554 1.39202 -1.38265 0
M  V30 3350 O 318.679 2.0313 -0.746132 0
M  V30 3351 C 319.274 -0.0143044 -3.38797 0
M  V30 3352 C 317.833 0.386175 -3.74414 0
M  V30 3353 C 316.98 -0.401287 -2.74381 0
M  V30 3354 H 319.931 -0.682022 -1.43297 0
M  V30 3355 H 319.952 0.788641 -3.72237 0
M  V30 3356 H 319.464 -1.03602 -3.74016 0
M  V30 3357 H 317.565 1.41237 -3.44794 0
M  V30 3358 H 317.678 0.0899596 -4.79016 0
M  V30 3359 H 316.042 0.144536 -2.5429 0
M  V30 3360 H 316.825 -1.42244 -3.12444 0
M  V30 3361 N 319.27 1.56325 -0.20005 0
M  V30 3362 C 320.495 2.02548 0.44597 0
M  V30 3363 C 320.92 1.07922 1.5406 0
M  V30 3364 O 320.278 0.0635775 1.81188 0
M  V30 3365 C 320.326 3.47175 0.974761 0
M  V30 3366 O 319.43 3.55671 2.08739 0
M  V30 3367 H 318.771 0.655862 0.103638 0
M  V30 3368 H 321.301 2.02201 -0.312381 0
M  V30 3369 H 321.311 3.87067 1.2901 0
M  V30 3370 H 319.986 4.15538 0.17347 0
M  V30 3371 H 318.563 3.27657 1.78032 0
M  V30 3372 N 320.748 -0.0735177 1.57428 0
M  V30 3373 C 322.159 -0.625551 1.75908 0
M  V30 3374 C 322.51 -1.78 0.825261 0
M  V30 3375 O 321.635 -2.16398 0.00893964 0
M  V30 3376 C 322.23 -1.14155 3.18989 0
M  V30 3377 C 320.789 -1.63946 3.38819 0
M  V30 3378 C 319.936 -0.558151 2.71625 0
M  V30 3379 H 322.887 0.152647 1.57964 0
M  V30 3380 H 322.908 -2.0104 3.23053 0
M  V30 3381 H 322.42 -0.301116 3.8693 0
M  V30 3382 H 320.521 -2.50321 2.7599 0
M  V30 3383 H 320.634 -1.71759 4.47253 0
M  V30 3384 H 318.998 -1.00278 2.34129 0
M  V30 3385 H 319.781 0.272071 3.4222 0
M  V30 3386 N 322.226 -1.5378 -0.344866 0
M  V30 3387 C 323.637 -1.62428 -0.920552 0
M  V30 3388 C 323.988 -0.504747 -1.89596 0
M  V30 3389 O 323.113 0.365711 -2.13287 0
M  V30 3390 C 323.708 -2.94419 -1.67639 0
M  V30 3391 C 322.267 -3.05333 -2.20111 0
M  V30 3392 C 321.414 -2.57866 -1.01982 0
M  V30 3393 H 324.365 -1.58222 -0.123042 0
M  V30 3394 H 324.386 -2.83384 -2.53917 0
M  V30 3395 H 323.898 -3.7588 -0.966224 0
M  V30 3396 H 321.999 -2.28502 -2.94308 0
M  V30 3397 H 322.112 -4.10778 -2.46573 0
M  V30 3398 H 320.476 -2.13241 -1.39285 0
M  V30 3399 H 321.259 -3.41765 -0.324308 0
M  V30 3400 N 323.704 0.605807 -1.45491 0
M  V30 3401 C 324.929 1.39625 -1.53361 0
M  V30 3402 C 325.354 1.87351 -0.167645 0
M  V30 3403 O 324.712 1.60243 0.848051 0
M  V30 3404 C 324.76 2.57559 -2.5238 0
M  V30 3405 O 323.864 3.58248 -2.04285 0
M  V30 3406 H 323.205 0.416771 -0.516912 0
M  V30 3407 H 325.735 0.737103 -1.90861 0
M  V30 3408 H 325.745 3.0478 -2.71244 0
M  V30 3409 H 324.42 2.22171 -3.51586 0
M  V30 3410 H 322.997 3.17664 -1.95305 0
M  V30 3411 N 325.182 1.32811 0.848464 0
M  V30 3412 C 326.43 1.23479 1.59991 0
M  V30 3413 C 326.751 -0.201853 1.93952 0
M  V30 3414 O 326.021 -1.12818 1.60153 0
M  V30 3415 H 324.601 0.454034 0.593179 0
M  V30 3416 H 327.263 1.66412 1.01455 0
M  V30 3417 H 326.359 1.82178 2.53412 0
M  V30 3418 N 326.66 -1.06551 1.16123 0
M  V30 3419 C 328.071 -1.60768 0.949232 0
M  V30 3420 C 328.422 -1.89523 -0.507508 0
M  V30 3421 O 327.547 -1.66671 -1.38021 0
M  V30 3422 C 328.142 -2.92086 1.71671 0
M  V30 3423 C 326.701 -3.43015 1.54977 0
M  V30 3424 C 325.848 -2.16947 1.72711 0
M  V30 3425 H 328.799 -0.895354 1.31031 0
M  V30 3426 H 328.82 -3.6138 1.19099 0
M  V30 3427 H 328.332 -2.71127 2.7769 0
M  V30 3428 H 326.433 -3.69039 0.513873 0
M  V30 3429 H 326.546 -4.18516 2.33198 0
M  V30 3430 H 324.91 -2.27041 1.15431 0
M  V30 3431 H 325.693 -1.98473 2.80113 0
M  V30 3432 N 328.138 -0.959301 -1.25041 0
M  V30 3433 C 329.048 -0.489994 -2.29426 0
M  V30 3434 C 330.064 0.444944 -1.68215 0
M  V30 3435 O 331.24 0.320046 -1.98841 0
M  V30 3436 C 328.305 0.220309 -3.45999 0
M  V30 3437 C 327.366 -0.753418 -4.22637 0
M  V30 3438 C 326.599 -0.076918 -5.33645 0
M  V30 3439 O 326.822 1.13649 -5.58963 0
M  V30 3440 O 325.756 -0.764824 -5.97021 0
M  V30 3441 H 329.582 -1.35755 -2.71669 0
M  V30 3442 H 327.167 -0.725961 -1.30576 0
M  V30 3443 H 329.049 0.619677 -4.16819 0
M  V30 3444 H 327.724 1.06296 -3.0575 0
M  V30 3445 H 326.631 -1.20308 -3.54227 0
M  V30 3446 H 327.964 -1.56423 -4.66683 0
M  V30 3447 N 329.616 1.39756 -0.72842 0
M  V30 3448 C 330.844 2.04948 -0.283528 0
M  V30 3449 C 331.259 1.54908 1.0793 0
M  V30 3450 O 330.616 0.711135 1.68075 0
M  V30 3451 C 330.667 3.60498 -0.268957 0
M  V30 3452 O 330.388 4.08695 -1.57798 0
M  V30 3453 C 331.889 4.4288 0.192912 0
M  V30 3454 H 329.109 0.659243 -0.125056 0
M  V30 3455 H 331.653 1.78927 -0.990226 0
M  V30 3456 H 329.808 3.85444 0.388801 0
M  V30 3457 H 330.222 5.02977 -1.48709 0
M  V30 3458 H 331.696 5.51791 0.151952 0
M  V30 3459 H 332.173 4.21418 1.23708 0
M  V30 3460 H 332.779 4.23069 -0.435039 0
M  V30 3461 N 331.094 0.475555 1.50254 0
M  V30 3462 C 332.057 -0.305016 2.27161 0
M  V30 3463 C 333.057 -0.916519 1.32123 0
M  V30 3464 O 334.247 -0.785003 1.5551 0
M  V30 3465 C 331.379 -1.43496 3.09227 0
M  V30 3466 H 332.572 0.369511 2.97615 0
M  V30 3467 H 330.125 0.229747 1.54602 0
M  V30 3468 H 330.86 -2.14441 2.43281 0
M  V30 3469 H 330.645 -1.00223 3.79075 0
M  V30 3470 H 332.135 -1.98548 3.67381 0
M  V30 3471 N 332.573 -1.56217 0.208337 0
M  V30 3472 C 333.483 -2.23316 -0.718836 0
M  V30 3473 C 334.499 -1.23648 -1.22422 0
M  V30 3474 O 335.675 -1.56423 -1.26861 0
M  V30 3475 C 332.74 -2.88968 -1.91568 0
M  V30 3476 C 331.801 -4.03943 -1.45357 0
M  V30 3477 C 331.034 -4.66455 -2.59337 0
M  V30 3478 O 331.257 -4.27919 -3.77149 0
M  V30 3479 O 330.191 -5.55686 -2.31293 0
M  V30 3480 H 334.017 -3.03182 -0.177315 0
M  V30 3481 H 331.602 -1.49384 -0.0215402 0
M  V30 3482 H 333.484 -3.30455 -2.61491 0
M  V30 3483 H 332.159 -2.12071 -2.44556 0
M  V30 3484 H 331.066 -3.67052 -0.722746 0
M  V30 3485 H 332.399 -4.82543 -0.970219 0
M  V30 3486 N 334.051 0.0651679 -1.57465 0
M  V30 3487 C 335.014 1.06117 -2.03155 0
M  V30 3488 C 336.014 1.31204 -0.929632 0
M  V30 3489 O 337.204 1.26813 -1.19432 0
M  V30 3490 C 334.336 2.4032 -2.41783 0
M  V30 3491 H 335.529 0.667231 -2.92383 0
M  V30 3492 H 333.082 0.311075 -1.53173 0
M  V30 3493 H 333.817 2.84532 -1.55601 0
M  V30 3494 H 333.602 2.23451 -3.22199 0
M  V30 3495 H 335.092 3.11898 -2.77685 0
M  V30 3496 N 335.529 1.53961 0.336706 0
M  V30 3497 C 336.492 1.81724 1.39675 0
M  V30 3498 C 337.492 0.688532 1.45313 0
M  V30 3499 O 338.682 0.956829 1.45569 0
M  V30 3500 C 335.814 1.96543 2.78538 0
M  V30 3501 H 337.007 2.76424 1.16318 0
M  V30 3502 H 334.56 1.45478 0.571474 0
M  V30 3503 H 335.295 1.0401 3.07168 0
M  V30 3504 H 335.08 2.78665 2.75841 0
M  V30 3505 H 336.57 2.19516 3.5525 0
M  V30 3506 N 337.007 -0.598083 1.45811 0
M  V30 3507 C 337.97 -1.69018 1.54808 0
M  V30 3508 C 338.97 -1.55037 0.426652 0
M  V30 3509 O 340.16 -1.59932 0.690456 0
M  V30 3510 C 337.292 -3.0835 1.45371 0
M  V30 3511 H 338.485 -1.62403 2.52121 0
M  V30 3512 H 336.038 -0.814626 1.33392 0
M  V30 3513 H 336.773 -3.20534 0.492793 0
M  V30 3514 H 336.558 -3.19907 2.26721 0
M  V30 3515 H 338.048 -3.8788 1.54721 0
M  V30 3516 N 338.485 -1.33259 -0.841409 0
M  V30 3517 C 339.415 -1.25926 -1.96634 0
M  V30 3518 C 340.396 -0.140349 -1.6952 0
M  V30 3519 O 341.581 -0.329707 -1.91381 0
M  V30 3520 C 338.711 -0.99512 -3.32738 0
M  V30 3521 C 337.665 -2.0767 -3.74242 0
M  V30 3522 C 336.991 -1.66474 -5.08125 0
M  V30 3523 C 338.291 -3.49318 -3.88297 0
M  V30 3524 H 339.985 -2.20046 -2.03027 0
M  V30 3525 H 337.531 -1.05931 -0.975425 0
M  V30 3526 H 339.484 -0.930323 -4.11002 0
M  V30 3527 H 338.208 -0.0183004 -3.26595 0
M  V30 3528 H 336.867 -2.13187 -2.98239 0
M  V30 3529 H 336.515 -0.675012 -4.9845 0
M  V30 3530 H 336.215 -2.3885 -5.36865 0
M  V30 3531 H 337.739 -1.61455 -5.88867 0
M  V30 3532 H 339.153 -3.46316 -4.56879 0
M  V30 3533 H 337.55 -4.20158 -4.28471 0
M  V30 3534 H 338.62 -3.8801 -2.9082 0
M  V30 3535 N 339.963 1.05934 -1.16686 0
M  V30 3536 C 341.21 1.788 -0.950622 0
M  V30 3537 C 341.538 1.87384 0.521305 0
M  V30 3538 O 340.793 1.36438 1.40297 0
M  V30 3539 C 341.092 3.23105 -1.52767 0
M  V30 3540 C 340.758 3.34594 -3.02254 0
M  V30 3541 C 339.42 3.37437 -3.43059 0
M  V30 3542 C 341.772 3.36219 -3.98254 0
M  V30 3543 C 339.1 3.39525 -4.78477 0
M  V30 3544 C 341.452 3.39845 -5.33562 0
M  V30 3545 C 340.116 3.40971 -5.73842 0
M  V30 3546 H 339.386 0.654275 -0.347857 0
M  V30 3547 H 342.033 1.24555 -1.45459 0
M  V30 3548 H 340.338 3.80227 -0.94524 0
M  V30 3549 H 342.035 3.7809 -1.336 0
M  V30 3550 H 338.625 3.3309 -2.6972 0
M  V30 3551 H 342.809 3.33231 -3.67792 0
M  V30 3552 H 338.065 3.38703 -5.09009 0
M  V30 3553 H 342.239 3.4005 -6.07733 0
M  V30 3554 H 339.866 3.42342 -6.78753 0
M  V30 3555 N 341.441 0.965919 1.2453 0
M  V30 3556 C 342.666 0.643971 1.97149 0
M  V30 3557 C 343.091 -0.779487 1.71189 0
M  V30 3558 O 342.449 -1.5288 0.974553 0
M  V30 3559 C 342.497 0.922557 3.48599 0
M  V30 3560 O 341.601 0.00707672 4.12399 0
M  V30 3561 H 340.942 0.243647 0.617683 0
M  V30 3562 H 343.472 1.29558 1.58353 0
M  V30 3563 H 343.482 0.853373 3.98976 0
M  V30 3564 H 342.157 1.95996 3.66822 0
M  V30 3565 H 340.734 0.12943 3.72675 0
M  V30 3566 N 342.919 -1.39368 0.735821 0
M  V30 3567 C 344.335 -1.54204 0.411492 0
M  V30 3568 C 344.535 -1.70268 -1.07755 0
M  V30 3569 O 343.591 -1.70364 -1.86366 0
M  V30 3570 C 344.904 -2.75925 1.19523 0
M  V30 3571 C 346.452 -2.89761 1.18354 0
M  V30 3572 C 346.927 -4.14421 1.94986 0
M  V30 3573 N 348.418 -4.21462 1.92156 0
M  V30 3574 C 349.153 -5.16871 2.48258 0
M  V30 3575 N 348.649 -6.18063 3.13001 0
M  V30 3576 N 350.442 -5.09093 2.38287 0
M  V30 3577 H 342.593 -1.27189 1.70108 0
M  V30 3578 H 344.856 -0.616517 0.720147 0
M  V30 3579 H 344.562 -2.70401 2.24892 0
M  V30 3580 H 344.436 -3.68614 0.800222 0
M  V30 3581 H 346.823 -2.94777 0.137975 0
M  V30 3582 H 346.904 -1.98133 1.61793 0
M  V30 3583 H 346.548 -4.10166 2.99543 0
M  V30 3584 H 346.478 -5.05095 1.48953 0
M  V30 3585 H 348.969 -3.48979 1.44991 0
M  V30 3586 H 349.282 -6.87326 3.53275 0
M  V30 3587 H 347.627 -6.18448 3.17091 0
M  V30 3588 H 350.818 -4.28973 1.8735 0
M  V30 3589 H 350.991 -5.83272 2.82308 0
M  V30 3590 N 344.397 -0.483516 -1.5 0
M  V30 3591 C 345.307 0.309172 -2.32554 0
M  V30 3592 C 346.323 0.984159 -1.43493 0
M  V30 3593 O 347.499 0.969399 -1.76535 0
M  V30 3594 C 344.564 1.36979 -3.18493 0
M  V30 3595 C 343.625 0.710095 -4.23387 0
M  V30 3596 C 342.858 1.72018 -5.05218 0
M  V30 3597 O 343.081 2.94813 -4.88305 0
M  V30 3598 O 342.015 1.28515 -5.8802 0
M  V30 3599 H 345.841 -0.366064 -3.01486 0
M  V30 3600 H 343.426 -0.24514 -1.47375 0
M  V30 3601 H 345.308 1.98385 -3.71781 0
M  V30 3602 H 343.983 2.02828 -2.52275 0
M  V30 3603 H 342.89 0.0567539 -3.74057 0
M  V30 3604 H 344.223 0.0943557 -4.9211 0
M  V30 3605 N 345.875 1.56104 -0.216619 0
M  V30 3606 C 347.115 2.00074 0.418322 0
M  V30 3607 C 347.479 1.10098 1.57297 0
M  V30 3608 O 348.68 1.43393 2.27359 0
M  V30 3609 C 346.951 3.47231 0.846477 0
M  V30 3610 S 348.51 4.13223 1.47622 0
M  V30 3611 H 345.328 0.698457 0.132962 0
M  V30 3612 H 347.93 1.92784 -0.324748 0
M  V30 3613 H 346.634 4.104 -0.0036319 0
M  V30 3614 H 346.165 3.58384 1.62248 0
M  V30 3615 H 348.18 4.12005 2.76526 0
M  V30 3616 N 347.353 -0.0568162 1.57498 0
M  V30 3617 C 348.769 -0.411933 1.54192 0
M  V30 3618 C 348.969 -1.78287 0.938942 0
M  V30 3619 O 348.025 -2.46483 0.547919 0
M  V30 3620 C 349.338 -0.339244 2.9878 0
M  V30 3621 C 350.886 -0.418348 3.10192 0
M  V30 3622 C 351.361 -0.375407 4.56459 0
M  V30 3623 N 352.852 -0.435038 4.61153 0
M  V30 3624 C 353.587 -0.424265 5.71828 0
M  V30 3625 N 353.083 -0.367418 6.91825 0
M  V30 3626 N 354.876 -0.471938 5.60115 0
M  V30 3627 H 347.027 0.840684 1.95055 0
M  V30 3628 H 349.29 0.316987 0.893433 0
M  V30 3629 H 348.996 0.601742 3.46514 0
M  V30 3630 H 348.87 -1.14371 3.59443 0
M  V30 3631 H 351.257 -1.34976 2.62422 0
M  V30 3632 H 351.338 0.414962 2.52412 0
M  V30 3633 H 350.982 0.552219 5.04889 0
M  V30 3634 H 350.912 -1.22645 5.12119 0
M  V30 3635 H 353.403 -0.482612 3.74806 0
M  V30 3636 H 353.716 -0.363535 7.71944 0
M  V30 3637 H 352.061 -0.333879 6.94198 0
M  V30 3638 H 355.252 -0.514145 4.65268 0
M  V30 3639 H 355.425 -0.460073 6.46365 0
M  V30 3640 N 348.832 -1.54138 -0.328536 0
M  V30 3641 C 350.243 -1.63395 -0.903272 0
M  V30 3642 C 350.594 -0.524828 -1.8905 0
M  V30 3643 O 349.719 0.343068 -2.13663 0
M  V30 3644 C 350.314 -2.9618 -1.64507 0
M  V30 3645 C 348.873 -3.0765 -2.1686 0
M  V30 3646 C 348.02 -2.58933 -0.992416 0
M  V30 3647 H 350.971 -1.58344 -0.106253 0
M  V30 3648 H 350.992 -2.86061 -2.50897 0
M  V30 3649 H 350.504 -3.76884 -0.926302 0
M  V30 3650 H 348.605 -2.31611 -2.91868 0
M  V30 3651 H 348.718 -4.1337 -2.42202 0
M  V30 3652 H 347.082 -2.14706 -1.37016 0
M  V30 3653 H 347.865 -3.42089 -0.288041 0
M  V30 3654 N 350.31 0.590341 -1.46126 0
M  V30 3655 C 351.535 1.37991 -1.54833 0
M  V30 3656 C 351.96 1.87163 -0.187506 0
M  V30 3657 O 351.318 1.61133 0.831008 0
M  V30 3658 C 351.366 2.54867 -2.55098 0
M  V30 3659 O 350.47 3.56061 -2.08073 0
M  V30 3660 H 349.811 0.411265 -0.521303 0
M  V30 3661 H 352.341 0.716819 -1.91632 0
M  V30 3662 H 352.351 3.01886 -2.74461 0
M  V30 3663 H 351.026 2.18429 -3.53923 0
M  V30 3664 H 349.603 3.15574 -1.98664 0
M  V30 3665 N 351.788 1.33704 0.83433 0
M  V30 3666 C 353.199 1.22813 1.4062 0
M  V30 3667 C 353.55 -0.151107 1.95617 0
M  V30 3668 O 352.675 -1.05092 1.89168 0
M  V30 3669 C 353.27 2.22355 2.55624 0
M  V30 3670 C 351.829 2.1529 3.08751 0
M  V30 3671 C 350.976 2.09589 1.8157 0
M  V30 3672 H 353.927 1.45236 0.639702 0
M  V30 3673 H 353.948 1.83391 3.33389 0
M  V30 3674 H 353.46 3.22728 2.15566 0
M  V30 3675 H 351.561 1.18235 3.53343 0
M  V30 3676 H 351.674 3.06038 3.68616 0
M  V30 3677 H 350.038 1.55134 2.02004 0
M  V30 3678 H 350.821 3.11777 1.43701 0
M  V30 3679 N 353.266 -1.05314 1.17247 0
M  V30 3680 C 354.229 -2.112 0.890357 0
M  V30 3681 C 355.229 -1.60359 -0.118943 0
M  V30 3682 O 356.419 -1.73833 0.113086 0
M  V30 3683 C 353.551 -3.39266 0.333422 0
M  V30 3684 H 354.744 -2.37659 1.82916 0
M  V30 3685 H 352.297 -1.21538 0.982758 0
M  V30 3686 H 353.032 -3.18462 -0.612587 0
M  V30 3687 H 352.817 -3.77477 1.06082 0
M  V30 3688 H 354.307 -4.17315 0.154322 0
M  V30 3689 N 354.744 -0.972509 -1.24016 0
M  V30 3690 C 355.676 -0.464375 -2.24446 0
M  V30 3691 C 356.689 0.4295 -1.57032 0
M  V30 3692 O 357.878 0.234902 -1.76948 0
M  V30 3693 C 354.978 0.348385 -3.37105 0
M  V30 3694 C 354.151 -0.53673 -4.34094 0
M  V30 3695 C 353.21 0.220838 -5.25736 0
M  V30 3696 O 352.236 -0.386867 -5.67884 0
M  V30 3697 N 353.438 1.50907 -5.60542 0
M  V30 3698 H 356.203 -1.32788 -2.68677 0
M  V30 3699 H 353.764 -0.844877 -1.38107 0
M  V30 3700 H 355.756 0.863341 -3.95384 0
M  V30 3701 H 354.326 1.11285 -2.92121 0
M  V30 3702 H 353.546 -1.23261 -3.74433 0
M  V30 3703 H 354.834 -1.14022 -4.95859 0
M  V30 3704 H 354.232 2.02444 -5.28236 0
M  V30 3705 H 352.789 1.96962 -6.21329 0
M  V30 3706 N 356.222 1.38976 -0.743202 0
M  V30 3707 C 357.152 2.33171 -0.123873 0
M  V30 3708 C 358.133 1.54336 0.71516 0
M  V30 3709 O 359.318 1.82696 0.658467 0
M  V30 3710 C 356.448 3.38474 0.777978 0
M  V30 3711 C 355.402 4.27979 0.0424758 0
M  V30 3712 C 354.728 5.2405 1.06189 0
M  V30 3713 C 356.028 5.10155 -1.1198 0
M  V30 3714 H 357.722 2.85213 -0.910709 0
M  V30 3715 H 355.268 1.37133 -0.439388 0
M  V30 3716 H 357.221 4.03328 1.22084 0
M  V30 3717 H 355.945 2.84891 1.59702 0
M  V30 3718 H 354.604 3.64616 -0.380853 0
M  V30 3719 H 354.252 4.66758 1.87472 0
M  V30 3720 H 353.952 5.84785 0.574485 0
M  V30 3721 H 355.476 5.9178 1.50428 0
M  V30 3722 H 356.89 5.68307 -0.75499 0
M  V30 3723 H 355.287 5.80073 -1.53738 0
M  V30 3724 H 356.357 4.44504 -1.93764 0
M  V30 3725 N 357.7 0.491464 1.49741 0
M  V30 3726 C 358.948 -0.0563141 2.02022 0
M  V30 3727 C 359.269 -1.38363 1.37407 0
M  V30 3728 O 358.539 -1.88702 0.526166 0
M  V30 3729 H 357.119 -0.0238014 0.746621 0
M  V30 3730 H 359.781 0.646533 1.83864 0
M  V30 3731 H 358.877 -0.192967 3.11503 0
M  V30 3732 N 359.178 -1.55987 0.224894 0
M  V30 3733 C 360.141 -2.19178 -0.670348 0
M  V30 3734 C 361.141 -1.15461 -1.11917 0
M  V30 3735 O 362.331 -1.40675 -1.02743 0
M  V30 3736 C 359.463 -2.81777 -1.9187 0
M  V30 3737 H 360.656 -2.99662 -0.119364 0
M  V30 3738 H 358.209 -1.5628 -0.0247128 0
M  V30 3739 H 358.944 -2.05172 -2.51147 0
M  V30 3740 H 358.729 -3.57732 -1.60531 0
M  V30 3741 H 360.219 -3.30205 -2.55645 0
M  V30 3742 N 360.656 0.0484629 -1.57525 0
M  V30 3743 C 361.586 1.0549 -2.08313 0
M  V30 3744 C 362.567 1.38929 -0.981463 0
M  V30 3745 O 363.752 1.48151 -1.25558 0
M  V30 3746 C 360.882 2.36162 -2.54646 0
M  V30 3747 C 359.836 2.17016 -3.68901 0
M  V30 3748 C 359.162 3.53278 -4.01371 0
M  V30 3749 C 360.462 1.57219 -4.98076 0
M  V30 3750 H 362.156 0.632195 -2.92649 0
M  V30 3751 H 359.702 0.302654 -1.40784 0
M  V30 3752 H 361.655 3.06882 -2.88793 0
M  V30 3753 H 360.379 2.80456 -1.67368 0
M  V30 3754 H 359.038 1.48733 -3.35073 0
M  V30 3755 H 358.686 3.95185 -3.11188 0
M  V30 3756 H 358.386 3.41299 -4.78318 0
M  V30 3757 H 359.91 4.25391 -4.38035 0
M  V30 3758 H 361.324 2.17832 -5.30304 0
M  V30 3759 H 359.721 1.55871 -5.79503 0
M  V30 3760 H 360.791 0.535956 -4.81929 0
M  V30 3761 N 362.134 1.5431 0.320358 0
M  V30 3762 C 363.55 1.45091 0.664889 0
M  V30 3763 C 363.75 0.626382 1.91517 0
M  V30 3764 O 362.806 0.126443 2.52183 0
M  V30 3765 C 364.119 2.88848 0.83591 0
M  V30 3766 C 365.667 2.9877 0.933046 0
M  V30 3767 C 366.142 4.43683 1.13621 0
M  V30 3768 N 367.633 4.47309 1.20287 0
M  V30 3769 C 368.368 5.56595 1.37801 0
M  V30 3770 N 367.864 6.75844 1.52338 0
M  V30 3771 N 369.657 5.44248 1.40535 0
M  V30 3772 H 361.808 2.06398 -0.501374 0
M  V30 3773 H 364.071 0.933963 -0.162534 0
M  V30 3774 H 363.777 3.51698 -0.0116092 0
M  V30 3775 H 363.651 3.35148 1.73078 0
M  V30 3776 H 366.038 2.36045 1.77107 0
M  V30 3777 H 366.119 2.55796 0.0145782 0
M  V30 3778 H 365.763 5.06995 0.303032 0
M  V30 3779 H 365.693 4.84269 2.0686 0
M  V30 3780 H 368.184 3.61388 1.10485 0
M  V30 3781 H 368.497 7.54892 1.65403 0
M  V30 3782 H 366.842 6.78746 1.4943 0
M  V30 3783 H 370.033 4.50038 1.28777 0
M  V30 3784 H 370.206 6.29473 1.53842 0
M  V30 3785 N 363.613 -0.582584 1.46437 0
M  V30 3786 C 364.859 -1.34278 1.51978 0
M  V30 3787 C 365.192 -1.93446 0.170973 0
M  V30 3788 O 364.467 -1.76481 -0.817608 0
M  V30 3789 C 364.75 -2.47203 2.61845 0
M  V30 3790 C 364.603 -1.93069 4.06257 0
M  V30 3791 C 365.922 -3.49247 2.67795 0
M  V30 3792 H 363.041 -0.486876 0.553282 0
M  V30 3793 H 365.683 -0.654437 1.78374 0
M  V30 3794 H 363.833 -3.0592 2.39469 0
M  V30 3795 H 365.505 -1.38808 4.3992 0
M  V30 3796 H 363.748 -1.23898 4.1573 0
M  V30 3797 H 364.419 -2.74586 4.7886 0
M  V30 3798 H 366.895 -3.00411 2.8791 0
M  V30 3799 H 365.771 -4.25719 3.46489 0
M  V30 3800 H 366.032 -4.06482 1.73852 0
M  V30 3801 N 365.091 -1.34144 -0.827227 0
M  V30 3802 C 366.024 -1.19707 -1.94282 0
M  V30 3803 C 367.002 -0.0897256 -1.62352 0
M  V30 3804 O 368.186 -0.254095 -1.8678 0
M  V30 3805 C 365.313 -0.838646 -3.28153 0
M  V30 3806 C 364.359 -1.95514 -3.79047 0
M  V30 3807 S 365.192 -3.56793 -3.99323 0
M  V30 3808 C 366.348 -3.22983 -5.36127 0
M  V30 3809 H 366.581 -2.1414 -2.06231 0
M  V30 3810 H 364.114 -1.19121 -0.982321 0
M  V30 3811 H 366.072 -0.638637 -4.05502 0
M  V30 3812 H 364.733 0.0872776 -3.13979 0
M  V30 3813 H 363.926 -1.658 -4.75948 0
M  V30 3814 H 363.528 -2.11241 -3.08631 0
M  V30 3815 H 365.82 -2.74531 -6.19386 0
M  V30 3816 H 366.763 -4.19008 -5.70822 0
M  V30 3817 H 367.171 -2.59276 -5.01434 0
M  V30 3818 N 366.569 1.04691 -1.17803 0
M  V30 3819 C 367.499 2.14494 -0.92275 0
M  V30 3820 C 368.48 1.69546 0.137179 0
M  V30 3821 O 369.665 1.94195 -0.0141108 0
M  V30 3822 C 366.795 3.44491 -0.440803 0
M  V30 3823 C 365.749 4.03031 -1.4405 0
M  V30 3824 C 365.075 5.28432 -0.81631 0
M  V30 3825 C 366.375 4.39932 -2.81527 0
M  V30 3826 H 368.069 2.36107 -1.84103 0
M  V30 3827 H 365.615 1.1347 -0.886599 0
M  V30 3828 H 367.568 4.2066 -0.249602 0
M  V30 3829 H 366.292 3.22546 0.513025 0
M  V30 3830 H 364.951 3.28937 -1.61853 0
M  V30 3831 H 364.599 5.02792 0.144511 0
M  V30 3832 H 364.299 5.68559 -1.48371 0
M  V30 3833 H 365.823 6.07284 -0.635496 0
M  V30 3834 H 367.237 5.07113 -2.67412 0
M  V30 3835 H 365.634 4.9109 -3.44892 0
M  V30 3836 H 366.704 3.50045 -3.35554 0
M  V30 3837 N 368.047 0.979072 1.23499 0
M  V30 3838 C 369.293 0.6578 1.9247 0
M  V30 3839 C 369.648 -0.799746 1.74991 0
M  V30 3840 O 368.941 -1.56922 1.09937 0
M  V30 3841 C 369.135 0.981932 3.43646 0
M  V30 3842 C 368.964 2.46944 3.75831 0
M  V30 3843 C 367.734 3.13119 3.96591 0
M  V30 3844 C 369.932 3.45006 3.81412 0
M  V30 3845 N 367.914 4.51489 4.15969 0
M  V30 3846 C 369.285 4.68778 4.05768 0
M  V30 3847 C 371.34 3.39505 3.64198 0
M  V30 3848 C 370.043 5.87723 4.14697 0
M  V30 3849 C 372.069 4.57814 3.7438 0
M  V30 3850 C 371.431 5.80381 3.99171 0
M  V30 3851 H 367.53 0.291746 0.72554 0
M  V30 3852 H 370.114 1.25626 1.48749 0
M  V30 3853 H 368.285 0.412179 3.86207 0
M  V30 3854 H 370.017 0.618068 3.99953 0
M  V30 3855 H 366.772 2.63619 3.93449 0
M  V30 3856 H 367.196 5.23221 4.29615 0
M  V30 3857 H 371.838 2.45773 3.44029 0
M  V30 3858 H 369.556 6.81874 4.33675 0
M  V30 3859 H 373.142 4.55132 3.62417 0
M  V30 3860 H 372.022 6.70398 4.06861 0
M  V30 3861 N 369.525 -1.3858 0.750561 0
M  V30 3862 C 370.771 -2.00481 0.305825 0
M  V30 3863 C 371.104 -1.5944 -1.10872 0
M  V30 3864 O 370.379 -0.83052 -1.75877 0
M  V30 3865 C 370.662 -3.5758 0.425287 0
M  V30 3866 C 370.515 -4.08594 1.88072 0
M  V30 3867 C 371.834 -4.39719 -0.183122 0
M  V30 3868 H 368.953 -0.728348 0.112598 0
M  V30 3869 H 371.595 -1.64566 0.949638 0
M  V30 3870 H 369.745 -3.88306 -0.122828 0
M  V30 3871 H 371.417 -3.88523 2.48691 0
M  V30 3872 H 369.66 -3.61574 2.39681 0
M  V30 3873 H 370.331 -5.177 1.91548 0
M  V30 3874 H 372.807 -4.15128 0.284303 0
M  V30 3875 H 371.683 -5.48856 -0.0692757 0
M  V30 3876 H 371.944 -4.23434 -1.27106 0
M  V30 3877 N 371.003 -0.499398 -1.49478 0
M  V30 3878 C 372.231 0.0425456 -2.06856 0
M  V30 3879 C 372.646 1.30964 -1.35992 0
M  V30 3880 O 372.003 1.77172 -0.437762 0
M  V30 3881 C 372.054 0.301735 -3.60239 0
M  V30 3882 O 371.775 -0.915127 -4.28436 0
M  V30 3883 C 373.276 0.887499 -4.34325 0
M  V30 3884 H 370.496 -0.0197482 -0.670709 0
M  V30 3885 H 373.04 -0.696297 -1.92281 0
M  V30 3886 H 371.195 0.990556 -3.74522 0
M  V30 3887 H 371.609 -0.676993 -5.20113 0
M  V30 3888 H 373.083 1.01845 -5.42523 0
M  V30 3889 H 373.56 1.88488 -3.96698 0
M  V30 3890 H 374.166 0.236196 -4.24644 0
M  V30 3891 N 372.481 1.55866 -0.233164 0
M  V30 3892 C 373.709 2.02998 0.399905 0
M  V30 3893 C 374.124 1.11274 1.52524 0
M  V30 3894 O 373.481 0.124528 1.82075 0
M  V30 3895 C 373.532 3.4958 0.920639 0
M  V30 3896 O 373.253 4.37808 -0.159834 0
M  V30 3897 C 374.754 4.12411 1.62578 0
M  V30 3898 H 371.974 0.664006 0.0966281 0
M  V30 3899 H 374.518 2.0143 -0.353013 0
M  V30 3900 H 372.673 3.51727 1.62379 0
M  V30 3901 H 373.087 5.23981 0.23337 0
M  V30 3902 H 374.561 5.16711 1.94201 0
M  V30 3903 H 375.038 3.5809 2.54299 0
M  V30 3904 H 375.644 4.14148 0.967553 0
M  V30 3905 N 373.959 -0.0401083 1.57549 0
M  V30 3906 C 374.922 -1.02871 2.04817 0
M  V30 3907 C 375.922 -1.29708 0.950388 0
M  V30 3908 O 377.112 -1.24897 1.21435 0
M  V30 3909 C 374.244 -2.36443 2.45576 0
M  V30 3910 H 375.437 -0.620631 2.93408 0
M  V30 3911 H 372.99 -0.286667 1.53649 0
M  V30 3912 H 373.725 -2.82021 1.60108 0
M  V30 3913 H 373.51 -2.18296 3.25713 0
M  V30 3914 H 375 -3.07441 2.82612 0
M  V30 3915 N 375.437 -1.54477 -0.31217 0
M  V30 3916 C 376.667 -1.76948 -1.06645 0
M  V30 3917 C 377.075 -0.523593 -1.81811 0
M  V30 3918 O 376.418 0.51578 -1.76311 0
M  V30 3919 C 376.48 -2.91668 -2.10166 0
M  V30 3920 C 376.144 -4.30165 -1.54296 0
M  V30 3921 C 377.141 -5.10603 -0.978793 0
M  V30 3922 C 374.826 -4.76738 -1.58196 0
M  V30 3923 C 376.82 -6.3573 -0.461048 0
M  V30 3924 C 374.507 -6.01831 -1.06034 0
M  V30 3925 C 375.505 -6.81161 -0.500844 0
M  V30 3926 O 375.193 -8.03899 0.0128958 0
M  V30 3927 H 374.925 -0.594088 -0.322546 0
M  V30 3928 H 377.479 -2.02213 -0.360441 0
M  V30 3929 H 375.709 -2.62001 -2.84416 0
M  V30 3930 H 377.398 -3.01817 -2.71406 0
M  V30 3931 H 378.164 -4.75771 -0.941651 0
M  V30 3932 H 374.043 -4.15027 -2.00683 0
M  V30 3933 H 377.587 -6.97596 -0.0236894 0
M  V30 3934 H 373.484 -6.36152 -1.09459 0
M  V30 3935 H 374.252 -8.18437 -0.101457 0
M  V30 3936 N 376.915 0.57481 -1.46744 0
M  V30 3937 C 378.162 1.33272 -1.52462 0
M  V30 3938 C 378.49 1.93669 -0.179572 0
M  V30 3939 O 377.745 1.7743 0.825664 0
M  V30 3940 C 378.044 2.476 -2.57738 0
M  V30 3941 C 377.71 2.05146 -4.01529 0
M  V30 3942 C 376.372 1.93284 -4.40676 0
M  V30 3943 C 378.724 1.72506 -4.91824 0
M  V30 3944 C 376.052 1.47049 -5.67973 0
M  V30 3945 C 378.404 1.27748 -6.19567 0
M  V30 3946 C 377.068 1.14468 -6.57612 0
M  V30 3947 H 376.338 0.487678 -0.557899 0
M  V30 3948 H 378.985 0.646456 -1.80259 0
M  V30 3949 H 377.29 3.21708 -2.23632 0
M  V30 3950 H 378.987 3.05807 -2.5939 0
M  V30 3951 H 375.577 2.15316 -3.7059 0
M  V30 3952 H 379.761 1.80552 -4.62293 0
M  V30 3953 H 375.017 1.35417 -5.96215 0
M  V30 3954 H 379.191 1.01547 -6.88957 0
M  V30 3955 H 376.818 0.78419 -7.56145 0
M  V30 3956 N 378.394 1.34581 0.820102 0
M  V30 3957 C 379.641 1.27096 1.57648 0
M  V30 3958 C 379.969 -0.158317 1.93855 0
M  V30 3959 O 379.224 -1.12028 1.60463 0
M  V30 3960 C 379.523 2.10997 2.8847 0
M  V30 3961 C 379.189 3.59966 2.71543 0
M  V30 3962 C 377.851 4.00575 2.66634 0
M  V30 3963 C 380.203 4.54548 2.55021 0
M  V30 3964 C 377.531 5.33953 2.43128 0
M  V30 3965 C 379.883 5.88109 2.33047 0
M  V30 3966 C 378.547 6.27878 2.26552 0
M  V30 3967 H 377.817 0.465078 0.576874 0
M  V30 3968 H 380.464 1.6635 0.948671 0
M  V30 3969 H 378.769 1.6458 3.55557 0
M  V30 3970 H 380.466 2.0255 3.46084 0
M  V30 3971 H 377.056 3.27733 2.76205 0
M  V30 3972 H 381.24 4.24069 2.57835 0
M  V30 3973 H 376.496 5.63781 2.3656 0
M  V30 3974 H 380.67 6.60985 2.19251 0
M  V30 3975 H 378.297 7.31162 2.081 0
M  V30 3976 N 379.872 -1.04064 1.18357 0
M  V30 3977 C 380.802 -2.14001 0.934113 0
M  V30 3978 C 381.783 -1.69616 -0.128186 0
M  V30 3979 O 382.968 -1.94185 0.0244093 0
M  V30 3980 C 380.098 -3.44253 0.459066 0
M  V30 3981 C 379.052 -4.02261 1.46185 0
M  V30 3982 C 378.378 -5.27992 0.844322 0
M  V30 3983 C 379.678 -4.38432 2.83856 0
M  V30 3984 H 381.372 -2.35127 1.85352 0
M  V30 3985 H 378.918 -1.12998 0.892604 0
M  V30 3986 H 380.871 -4.20522 0.271907 0
M  V30 3987 H 379.595 -3.22813 -0.495912 0
M  V30 3988 H 378.254 -3.28074 1.63595 0
M  V30 3989 H 377.902 -5.02862 -0.117845 0
M  V30 3990 H 377.602 -5.67765 1.51384 0
M  V30 3991 H 379.126 -6.06938 0.667693 0
M  V30 3992 H 380.54 -5.05688 2.70098 0
M  V30 3993 H 378.937 -4.89254 3.47491 0
M  V30 3994 H 380.007 -3.4826 3.37406 0
M  V30 3995 N 381.35 -0.985608 -1.22978 0
M  V30 3996 C 382.761 -0.693593 -1.73338 0
M  V30 3997 C 383.112 0.789935 -1.79595 0
M  V30 3998 O 382.237 1.61771 -1.43733 0
M  V30 3999 C 382.832 -1.25235 -3.14804 0
M  V30 4000 C 381.391 -1.00987 -3.626 0
M  V30 4001 C 380.538 -1.37695 -2.40698 0
M  V30 4002 H 383.489 -1.15884 -1.08428 0
M  V30 4003 H 383.51 -0.627329 -3.75293 0
M  V30 4004 H 383.022 -2.33209 -3.10218 0
M  V30 4005 H 381.123 0.0535565 -3.72562 0
M  V30 4006 H 381.236 -1.66812 -4.49122 0
M  V30 4007 H 379.6 -0.795459 -2.4196 0
M  V30 4008 H 380.383 -2.46657 -2.38779 0
M  V30 4009 N 382.828 1.3818 -0.7579 0
M  V30 4010 C 384.075 2.00019 -0.315985 0
M  V30 4011 C 384.403 1.60163 1.10355 0
M  V30 4012 O 383.658 0.83264 1.77103 0
M  V30 4013 C 383.957 3.55252 -0.391218 0
M  V30 4014 C 383.623 4.14834 -1.76702 0
M  V30 4015 C 382.285 4.30821 -2.14353 0
M  V30 4016 C 384.637 4.47658 -2.66931 0
M  V30 4017 C 381.965 4.76928 -3.41696 0
M  V30 4018 C 384.317 4.95184 -3.93669 0
M  V30 4019 C 382.981 5.09377 -4.31383 0
M  V30 4020 H 382.251 0.731923 -0.115627 0
M  V30 4021 H 384.898 1.65161 -0.969223 0
M  V30 4022 H 383.203 3.90273 0.34558 0
M  V30 4023 H 384.9 4.00988 -0.030805 0
M  V30 4024 H 381.49 4.02808 -1.46435 0
M  V30 4025 H 385.674 4.34904 -2.39106 0
M  V30 4026 H 380.93 4.86103 -3.70829 0
M  V30 4027 H 385.104 5.19551 -4.63724 0
M  V30 4028 H 382.731 5.44865 -5.30119 0
M  V30 4029 N 384.306 0.507319 1.49211 0
M  V30 4030 C 385.236 -0.256939 2.32082 0
M  V30 4031 C 386.217 -0.956609 1.40652 0
M  V30 4032 O 387.402 -0.946788 1.69557 0
M  V30 4033 C 384.532 -1.31802 3.21318 0
M  V30 4034 C 383.486 -0.737855 4.21592 0
M  V30 4035 C 382.812 -1.89992 4.99807 0
M  V30 4036 C 384.112 0.275325 5.21574 0
M  V30 4037 H 385.806 0.434798 2.96226 0
M  V30 4038 H 383.352 0.210546 1.42452 0
M  V30 4039 H 385.305 -1.86045 3.78107 0
M  V30 4040 H 384.029 -2.03903 2.5513 0
M  V30 4041 H 382.688 -0.217126 3.65956 0
M  V30 4042 H 382.336 -2.60877 4.30061 0
M  V30 4043 H 382.036 -1.51777 5.6766 0
M  V30 4044 H 383.56 -2.44657 5.59442 0
M  V30 4045 H 384.974 -0.179193 5.7302 0
M  V30 4046 H 383.371 0.573649 5.97352 0
M  V30 4047 H 384.441 1.18903 4.70096 0
M  V30 4048 N 385.784 -1.5574 0.241426 0
M  V30 4049 C 387.024 -2.00714 -0.38644 0
M  V30 4050 C 387.388 -1.12586 -1.55526 0
M  V30 4051 O 388.589 -1.46992 -2.25048 0
M  V30 4052 C 386.86 -3.48534 -0.791128 0
M  V30 4053 S 388.419 -4.15519 -1.41029 0
M  V30 4054 H 385.237 -0.700484 -0.121834 0
M  V30 4055 H 387.839 -1.92243 0.355377 0
M  V30 4056 H 386.543 -4.10342 0.0689225 0
M  V30 4057 H 386.074 -3.6092 -1.56526 0
M  V30 4058 H 388.089 -4.16352 -2.69936 0
M  V30 4059 N 387.262 0.0317525 -1.57568 0
M  V30 4060 C 388.192 1.03274 -2.0942 0
M  V30 4061 C 389.173 1.3788 -0.996143 0
M  V30 4062 O 390.358 1.46811 -1.27122 0
M  V30 4063 C 387.488 2.33448 -2.57137 0
M  V30 4064 C 386.442 2.13091 -3.71182 0
M  V30 4065 C 385.768 3.49001 -4.05095 0
M  V30 4066 C 387.068 1.51928 -4.99715 0
M  V30 4067 H 388.762 0.60112 -2.93303 0
M  V30 4068 H 386.308 0.287705 -1.41097 0
M  V30 4069 H 388.261 3.03802 -2.92032 0
M  V30 4070 H 386.985 2.78665 -1.70333 0
M  V30 4071 H 385.644 1.45171 -3.36632 0
M  V30 4072 H 385.292 3.91862 -3.15362 0
M  V30 4073 H 384.992 3.36207 -4.81911 0
M  V30 4074 H 386.516 4.20721 -4.42522 0
M  V30 4075 H 387.93 2.12196 -5.32584 0
M  V30 4076 H 386.327 1.49716 -5.81124 0
M  V30 4077 H 387.397 0.484811 -4.8247 0
M  V30 4078 N 388.74 1.54641 0.303973 0
M  V30 4079 C 389.965 1.78092 1.06292 0
M  V30 4080 C 390.39 0.537342 1.80262 0
M  V30 4081 O 389.748 -0.511993 1.7392 0
M  V30 4082 C 389.796 2.98612 2.02147 0
M  V30 4083 O 388.9 2.71528 3.10397 0
M  V30 4084 H 388.241 0.589548 0.305497 0
M  V30 4085 H 390.771 2.01716 0.3423 0
M  V30 4086 H 390.781 3.265 2.44667 0
M  V30 4087 H 389.456 3.88785 1.47714 0
M  V30 4088 H 388.033 2.54648 2.72413 0
M  V30 4089 N 390.218 -0.567019 1.47046 0
M  V30 4090 C 391.467 -1.32091 1.5243 0
M  V30 4091 C 391.78 -1.94704 0.187021 0
M  V30 4092 O 392.986 -2.7124 0.118771 0
M  V30 4093 C 391.442 -2.39479 2.68659 0
M  V30 4094 C 391.05 -1.831 4.08874 0
M  V30 4095 C 392.794 -3.16111 2.83327 0
M  V30 4096 C 390.701 -2.8821 5.16419 0
M  V30 4097 H 389.631 -0.496629 0.56734 0
M  V30 4098 H 392.282 -0.603354 1.73297 0
M  V30 4099 H 390.664 -3.14105 2.41152 0
M  V30 4100 H 391.838 -1.14913 4.46242 0
M  V30 4101 H 390.153 -1.19085 3.99008 0
M  V30 4102 H 392.75 -3.94585 3.60842 0
M  V30 4103 H 393.093 -3.69686 1.91411 0
M  V30 4104 H 393.626 -2.48595 3.10556 0
M  V30 4105 H 390.365 -2.39504 6.10179 0
M  V30 4106 H 389.885 -3.54839 4.8358 0
M  V30 4107 H 391.564 -3.51881 5.42945 0
M  V30 4108 N 391.696 -1.35014 -0.812953 0
M  V30 4109 C 392.626 -1.30069 -1.93919 0
M  V30 4110 C 393.607 -0.176275 -1.69184 0
M  V30 4111 O 394.792 -0.370227 -1.90638 0
M  V30 4112 C 391.922 -1.06547 -3.30552 0
M  V30 4113 C 390.876 -2.15561 -3.69753 0
M  V30 4114 C 390.202 -1.77214 -5.04479 0
M  V30 4115 C 391.502 -3.57476 -3.808 0
M  V30 4116 H 393.196 -2.24303 -1.98314 0
M  V30 4117 H 390.742 -1.07977 -0.952736 0
M  V30 4118 H 392.695 -1.01729 -4.08937 0
M  V30 4119 H 391.419 -0.0875719 -3.26483 0
M  V30 4120 H 390.078 -2.19466 -2.9365 0
M  V30 4121 H 389.726 -0.780589 -4.96906 0
M  V30 4122 H 389.426 -2.50184 -5.31678 0
M  V30 4123 H 390.95 -1.7391 -5.8531 0
M  V30 4124 H 392.364 -3.55929 -4.4943 0
M  V30 4125 H 390.761 -4.29152 -4.19462 0
M  V30 4126 H 391.831 -3.94091 -2.82525 0
M  V30 4127 N 393.175 1.03435 -1.18907 0
M  V30 4128 C 394.405 1.8012 -1.01195 0
M  V30 4129 C 394.813 1.8395 0.442613 0
M  V30 4130 O 394.156 1.27836 1.31923 0
M  V30 4131 C 394.218 3.26792 -1.49823 0
M  V30 4132 C 393.882 3.46609 -2.97844 0
M  V30 4133 C 394.879 3.37278 -3.95651 0
M  V30 4134 C 392.564 3.73001 -3.36416 0
M  V30 4135 C 394.558 3.54054 -5.30023 0
M  V30 4136 C 392.245 3.89423 -4.70949 0
M  V30 4137 C 393.243 3.79951 -5.67562 0
M  V30 4138 O 392.931 3.95895 -6.99659 0
M  V30 4139 H 392.663 0.573865 -0.357289 0
M  V30 4140 H 395.217 1.31207 -1.58031 0
M  V30 4141 H 393.447 3.76703 -0.873578 0
M  V30 4142 H 395.136 3.85055 -1.28404 0
M  V30 4143 H 395.902 3.16846 -3.67197 0
M  V30 4144 H 391.781 3.79469 -2.61772 0
M  V30 4145 H 395.325 3.46577 -6.05417 0
M  V30 4146 H 391.222 4.09351 -4.99101 0
M  V30 4147 H 391.99 4.13019 -7.06653 0
M  V30 4148 N 394.653 0.992116 1.22453 0
M  V30 4149 C 395.901 0.666215 1.90804 0
M  V30 4150 C 396.222 -0.804152 1.77647 0
M  V30 4151 O 395.492 -1.57629 1.16318 0
M  V30 4152 H 394.072 0.243423 0.706225 0
M  V30 4153 H 396.734 1.25845 1.48825 0
M  V30 4154 H 395.83 0.928069 2.97982 0
M  V30 4155 N 396.131 -1.37776 0.765217 0
M  V30 4156 C 397.061 -2.32945 0.160953 0
M  V30 4157 C 398.042 -1.55454 -0.690516 0
M  V30 4158 O 399.227 -1.83721 -0.629318 0
M  V30 4159 C 396.357 -3.39669 -0.724031 0
M  V30 4160 C 395.311 -4.27992 0.0256173 0
M  V30 4161 C 394.637 -5.25673 -0.978383 0
M  V30 4162 C 395.937 -5.08309 1.20082 0
M  V30 4163 H 397.631 -2.83728 0.955969 0
M  V30 4164 H 395.177 -1.36416 0.461149 0
M  V30 4165 H 397.13 -4.05219 -1.15652 0
M  V30 4166 H 395.854 -2.87396 -1.5515 0
M  V30 4167 H 394.513 -3.63964 0.438812 0
M  V30 4168 H 394.161 -4.69682 -1.80022 0
M  V30 4169 H 393.861 -5.85625 -0.481378 0
M  V30 4170 H 395.385 -5.94098 -1.40995 0
M  V30 4171 H 396.799 -5.67034 0.845307 0
M  V30 4172 H 395.196 -5.77554 1.62947 0
M  V30 4173 H 396.266 -4.41365 2.00811 0
M  V30 4174 N 397.609 -0.515225 -1.4894 0
M  V30 4175 C 398.858 0.0261361 -2.01683 0
M  V30 4176 C 399.171 1.36719 -1.39883 0
M  V30 4177 O 400.377 1.99606 -1.84037 0
M  V30 4178 C 398.833 0.0970111 -3.59769 0
M  V30 4179 C 398.441 -1.23825 -4.30548 0
M  V30 4180 C 400.185 0.587981 -4.20408 0
M  V30 4181 C 398.092 -1.12877 -5.80528 0
M  V30 4182 H 397.022 0.0135398 -0.753878 0
M  V30 4183 H 399.673 -0.656787 -1.71343 0
M  V30 4184 H 398.055 0.844694 -3.86886 0
M  V30 4185 H 399.229 -2.00034 -4.15118 0
M  V30 4186 H 397.544 -1.66379 -3.81716 0
M  V30 4187 H 400.141 0.68763 -5.3026 0
M  V30 4188 H 400.484 1.59026 -3.84729 0
M  V30 4189 H 401.017 -0.103582 -3.97665 0
M  V30 4190 H 397.756 -2.10575 -6.20756 0
M  V30 4191 H 397.276 -0.407799 -5.98412 0
M  V30 4192 H 398.955 -0.813332 -6.41868 0
M  V30 4193 N 399.087 1.5561 -0.249682 0
M  V30 4194 C 400.335 1.98618 0.373548 0
M  V30 4195 C 400.656 1.13919 1.58264 0
M  V30 4196 O 399.926 0.222637 1.94631 0
M  V30 4197 H 398.506 0.733571 0.141006 0
M  V30 4198 H 401.168 1.91748 -0.349117 0
M  V30 4199 H 400.264 3.04584 0.680796 0
M  V30 4200 N 400.565 -0.0233959 1.57583 0
M  V30 4201 C 401.981 -0.379134 1.55031 0
M  V30 4202 C 402.181 -1.76255 0.976548 0
M  V30 4203 O 401.237 -2.45266 0.600078 0
M  V30 4204 C 402.55 -0.275792 2.99433 0
M  V30 4205 C 404.098 -0.352458 3.11009 0
M  V30 4206 C 404.573 -0.278501 4.57152 0
M  V30 4207 N 406.064 -0.337123 4.61972 0
M  V30 4208 C 406.799 -0.302876 5.726 0
M  V30 4209 N 406.295 -0.220589 6.92449 0
M  V30 4210 N 408.088 -0.353023 5.6099 0
M  V30 4211 H 400.239 0.881869 1.93227 0
M  V30 4212 H 402.502 0.335867 0.886509 0
M  V30 4213 H 402.208 0.675108 3.4516 0
M  V30 4214 H 402.082 -1.06721 3.61788 0
M  V30 4215 H 404.469 -1.29379 2.65226 0
M  V30 4216 H 404.55 0.468409 2.51475 0
M  V30 4217 H 404.194 0.659189 5.03604 0
M  V30 4218 H 404.124 -1.11755 5.14605 0
M  V30 4219 H 406.615 -0.403002 3.75745 0
M  V30 4220 H 406.928 -0.199713 7.72542 0
M  V30 4221 H 405.273 -0.186555 6.9475 0
M  V30 4222 H 408.464 -0.415339 4.66254 0
M  V30 4223 H 408.637 -0.322866 6.47195 0
M  V30 4224 N 402.043 -1.548 -0.295768 0
M  V30 4225 C 402.953 -1.89177 -1.38742 0
M  V30 4226 C 403.969 -0.786481 -1.55211 0
M  V30 4227 O 405.145 -1.08344 -1.69775 0
M  V30 4228 C 402.21 -2.13663 -2.73036 0
M  V30 4229 C 401.271 -3.37349 -2.65508 0
M  V30 4230 C 400.504 -3.60658 -3.93398 0
M  V30 4231 O 400.727 -2.86882 -4.93006 0
M  V30 4232 O 399.661 -4.54179 -3.94975 0
M  V30 4233 H 403.487 -2.82059 -1.12589 0
M  V30 4234 H 401.072 -1.41056 -0.492295 0
M  V30 4235 H 402.954 -2.3094 -3.52484 0
M  V30 4236 H 401.629 -1.23967 -2.99022 0
M  V30 4237 H 400.536 -3.25431 -1.84514 0
M  V30 4238 H 401.869 -4.27192 -2.44474 0
M  V30 4239 N 403.521 0.559213 -1.47345 0
M  V30 4240 C 404.451 1.67622 -1.62558 0
M  V30 4241 C 405.432 1.63331 -0.475087 0
M  V30 4242 O 406.617 1.80983 -0.704182 0
M  V30 4243 C 403.747 3.0626 -1.63774 0
M  V30 4244 C 402.701 3.25397 -2.7803 0
M  V30 4245 C 402.027 4.64801 -2.64318 0
M  V30 4246 C 403.327 3.10965 -4.19641 0
M  V30 4247 H 405.021 1.55146 -2.56067 0
M  V30 4248 H 402.567 0.744961 -1.23233 0
M  V30 4249 H 404.52 3.84247 -1.73008 0
M  V30 4250 H 403.244 3.1969 -0.66825 0
M  V30 4251 H 401.903 2.49817 -2.68304 0
M  V30 4252 H 401.551 4.75028 -1.65401 0
M  V30 4253 H 401.251 4.78555 -3.40968 0
M  V30 4254 H 402.775 5.44926 -2.75478 0
M  V30 4255 H 404.189 3.78772 -4.30354 0
M  V30 4256 H 402.586 3.36229 -4.97062 0
M  V30 4257 H 403.656 2.07736 -4.38148 0
M  V30 4258 N 404.999 1.35443 0.805782 0
M  V30 4259 C 406.245 1.2996 1.56467 0
M  V30 4260 C 406.6 -0.124742 1.91995 0
M  V30 4261 O 405.893 -1.07533 1.58579 0
M  V30 4262 C 406.087 2.14045 2.86216 0
M  V30 4263 C 405.916 3.64512 2.63365 0
M  V30 4264 C 404.686 4.33744 2.59219 0
M  V30 4265 C 406.884 4.58142 2.33688 0
M  V30 4266 N 404.866 5.69953 2.28094 0
M  V30 4267 C 406.237 5.8248 2.12408 0
M  V30 4268 C 408.292 4.46877 2.19558 0
M  V30 4269 C 406.995 6.96818 1.78429 0
M  V30 4270 C 409.021 5.61065 1.86976 0
M  V30 4271 C 408.383 6.84431 1.66532 0
M  V30 4272 H 404.482 0.530817 0.574245 0
M  V30 4273 H 407.066 1.70333 0.943126 0
M  V30 4274 H 405.237 1.75942 3.46264 0
M  V30 4275 H 406.969 2.00075 3.51784 0
M  V30 4276 H 403.724 3.86365 2.73896 0
M  V30 4277 H 404.148 6.41845 2.15323 0
M  V30 4278 H 408.79 3.52102 2.34061 0
M  V30 4279 H 406.508 7.91559 1.62664 0
M  V30 4280 H 410.094 5.54302 1.7675 0
M  V30 4281 H 408.974 7.71294 1.41688 0
M  V30 4282 N 406.477 -1.02803 1.19454 0
M  V30 4283 C 407.702 -1.80378 1.02364 0
M  V30 4284 C 408.127 -1.83282 -0.423007 0
M  V30 4285 O 407.485 -1.25945 -1.30413 0
M  V30 4286 C 407.533 -3.23248 1.59821 0
M  V30 4287 O 406.637 -4.04 0.828105 0
M  V30 4288 H 405.978 -0.556799 0.361761 0
M  V30 4289 H 408.508 -1.29385 1.58495 0
M  V30 4290 H 408.518 -3.73994 1.63073 0
M  V30 4291 H 407.193 -3.2045 2.65113 0
M  V30 4292 H 405.77 -3.62635 0.86891 0
M  V30 4293 N 407.956 -0.998596 -1.21925 0
M  V30 4294 C 409.181 -0.696015 -1.95372 0
M  V30 4295 C 409.606 0.733826 -1.73195 0
M  V30 4296 O 408.964 1.50242 -1.01474 0
M  V30 4297 C 409.012 -1.01466 -3.4603 0
M  V30 4298 O 408.116 -0.116415 -4.12236 0
M  V30 4299 H 407.457 -0.259938 -0.611006 0
M  V30 4300 H 409.987 -1.33711 -1.54863 0
M  V30 4301 H 409.997 -0.958855 -3.96573 0
M  V30 4302 H 408.672 -2.05653 -3.61497 0
M  V30 4303 H 407.249 -0.228193 -3.72201 0
M  V30 4304 N 409.434 1.37368 -0.772513 0
M  V30 4305 C 410.85 1.53059 -0.452231 0
M  V30 4306 C 411.05 1.73065 1.03203 0
M  V30 4307 O 410.106 1.75245 1.81784 0
M  V30 4308 C 411.419 2.72659 -1.26797 0
M  V30 4309 C 412.967 2.86521 -1.25995 0
M  V30 4310 C 413.442 4.09105 -2.05905 0
M  V30 4311 N 414.933 4.16219 -2.03263 0
M  V30 4312 C 415.668 5.10107 -2.61875 0
M  V30 4313 N 415.164 6.09547 -3.29278 0
M  V30 4314 N 416.957 5.02596 -2.51701 0
M  V30 4315 H 409.108 1.22634 -1.7342 0
M  V30 4316 H 411.371 0.597206 -0.736239 0
M  V30 4317 H 411.077 2.64343 -2.31982 0
M  V30 4318 H 410.951 3.66363 -0.897672 0
M  V30 4319 H 413.338 2.94308 -0.216081 0
M  V30 4320 H 413.419 1.93774 -1.66989 0
M  V30 4321 H 413.063 4.0208 -3.10313 0
M  V30 4322 H 412.993 5.00968 -1.62292 0
M  V30 4323 H 415.484 3.45012 -1.54192 0
M  V30 4324 H 415.797 6.77718 -3.71374 0
M  V30 4325 H 414.142 6.09824 -3.33377 0
M  V30 4326 H 417.333 4.23855 -1.98657 0
M  V30 4327 H 417.506 5.75582 -2.97673 0
M  V30 4328 N 410.912 0.523116 1.48665 0
M  V30 4329 C 412.328 0.180511 1.58576 0
M  V30 4330 C 412.528 -1.31597 1.52592 0
M  V30 4331 O 411.584 -2.0937 1.4114 0
M  V30 4332 C 412.897 0.776949 2.90489 0
M  V30 4333 C 414.445 0.745058 3.04003 0
M  V30 4334 C 414.92 1.31995 4.38567 0
M  V30 4335 N 416.411 1.28162 4.45117 0
M  V30 4336 C 417.146 1.6964 5.47731 0
M  V30 4337 N 416.642 2.18816 6.57337 0
M  V30 4338 N 418.435 1.6092 5.38573 0
M  V30 4339 H 410.586 1.4958 1.50797 0
M  V30 4340 H 412.849 0.621772 0.715614 0
M  V30 4341 H 412.555 1.82732 3.00503 0
M  V30 4342 H 412.429 0.25007 3.7637 0
M  V30 4343 H 414.816 -0.296532 2.93606 0
M  V30 4344 H 414.897 1.30933 2.1975 0
M  V30 4345 H 414.541 2.36043 4.49718 0
M  V30 4346 H 414.471 0.731418 5.21496 0
M  V30 4347 H 416.962 0.92155 3.66491 0
M  V30 4348 H 417.275 2.48478 7.31764 0
M  V30 4349 H 415.62 2.22805 6.58318 0
M  V30 4350 H 418.811 1.22304 4.5184 0
M  V30 4351 H 418.984 1.93567 6.18414 0
M  V30 4352 N 412.39 -1.55475 0.257931 0
M  V30 4353 C 413.801 -1.8511 -0.243135 0
M  V30 4354 C 414.152 -1.17986 -1.5676 0
M  V30 4355 O 413.277 -0.462102 -2.11409 0
M  V30 4356 C 413.872 -3.35826 -0.447929 0
M  V30 4357 C 412.431 -3.65647 -0.893245 0
M  V30 4358 C 411.578 -2.7729 0.0232965 0
M  V30 4359 H 414.529 -1.51261 0.480199 0
M  V30 4360 H 414.55 -3.58002 -1.28898 0
M  V30 4361 H 414.062 -3.84652 0.516196 0
M  V30 4362 H 412.163 -3.22308 -1.86945 0
M  V30 4363 H 412.276 -4.73312 -0.742469 0
M  V30 4364 H 410.64 -2.49942 -0.490021 0
M  V30 4365 H 411.423 -3.28926 0.982994 0
M  V30 4366 N 413.868 0.0150385 -1.57593 0
M  V30 4367 C 414.798 1.01047 -2.10503 0
M  V30 4368 C 415.779 1.36816 -1.01071 0
M  V30 4369 O 416.964 1.45455 -1.28672 0
M  V30 4370 C 414.094 2.30708 -2.59598 0
M  V30 4371 C 413.048 2.09142 -3.73421 0
M  V30 4372 C 412.374 3.44685 -4.08774 0
M  V30 4373 C 413.674 1.46619 -5.01298 0
M  V30 4374 H 415.368 0.569978 -2.93925 0
M  V30 4375 H 412.914 0.272724 -1.41394 0
M  V30 4376 H 414.867 3.00687 -2.95238 0
M  V30 4377 H 413.591 2.76843 -1.73279 0
M  V30 4378 H 412.25 1.41592 -3.38153 0
M  V30 4379 H 411.898 3.88495 -3.195 0
M  V30 4380 H 411.598 3.31077 -4.8545 0
M  V30 4381 H 413.122 4.16004 -4.4696 0
M  V30 4382 H 414.536 2.06535 -5.34805 0
M  V30 4383 H 412.933 1.43544 -5.82679 0
M  V30 4384 H 414.003 0.433611 -4.82957 0
M  V30 4385 N 415.346 1.54954 0.287554 0
M  V30 4386 C 416.762 1.46469 0.633964 0
M  V30 4387 C 416.962 0.666865 1.90145 0
M  V30 4388 O 416.018 0.179906 2.51858 0
M  V30 4389 C 417.331 2.90556 0.774454 0
M  V30 4390 C 418.879 3.00681 0.869462 0
M  V30 4391 C 419.354 4.45993 1.04184 0
M  V30 4392 N 420.845 4.4976 1.10772 0
M  V30 4393 C 421.58 5.59393 1.25964 0
M  V30 4394 N 421.076 6.78923 1.37968 0
M  V30 4395 N 422.869 5.47107 1.28959 0
M  V30 4396 H 415.02 2.05288 -0.545041 0
M  V30 4397 H 417.283 0.930305 -0.182308 0
M  V30 4398 H 416.989 3.51594 -0.086207 0
M  V30 4399 H 416.863 3.38743 1.6593 0
M  V30 4400 H 419.25 2.39749 1.7206 0
M  V30 4401 H 419.331 2.55769 -0.0396831 0
M  V30 4402 H 418.975 5.07524 0.195422 0
M  V30 4403 H 418.905 4.88548 1.96542 0
M  V30 4404 H 421.396 3.63651 1.02794 0
M  V30 4405 H 421.709 7.58231 1.49353 0
M  V30 4406 H 420.054 6.81763 1.34999 0
M  V30 4407 H 423.245 4.52668 1.19202 0
M  V30 4408 H 423.418 6.32595 1.40455 0
M  V30 4409 N 416.824 -0.551391 1.4764 0
M  V30 4410 C 418.072 -1.30572 1.54258 0
M  V30 4411 C 418.393 -1.93877 0.208963 0
M  V30 4412 O 417.663 -1.80234 -0.767619 0
M  V30 4413 H 416.243 -0.484894 0.568231 0
M  V30 4414 H 418.905 -0.643402 1.83974 0
M  V30 4415 H 418.001 -2.09621 2.31226 0
M  V30 4416 N 418.302 -1.35869 -0.798587 0
M  V30 4417 C 419.713 -1.26498 -1.37314 0
M  V30 4418 C 420.064 0.0991899 -1.95949 0
M  V30 4419 O 419.189 1.0004 -1.91888 0
M  V30 4420 C 419.784 -2.29054 -2.49639 0
M  V30 4421 C 418.343 -2.234 -3.02935 0
M  V30 4422 C 417.49 -2.14329 -1.75949 0
M  V30 4423 H 420.441 -1.46881 -0.600971 0
M  V30 4424 H 420.462 -1.92166 -3.28409 0
M  V30 4425 H 419.974 -3.2833 -2.06933 0
M  V30 4426 H 418.075 -1.27562 -3.50084 0
M  V30 4427 H 418.188 -3.15703 -3.60372 0
M  V30 4428 H 416.552 -1.60435 -1.9782 0
M  V30 4429 H 417.335 -3.15477 -1.35384 0
M  V30 4430 N 419.78 1.02168 -1.19998 0
M  V30 4431 C 420.743 2.08765 -0.94604 0
M  V30 4432 C 421.743 1.60618 0.0763846 0
M  V30 4433 O 422.933 1.73472 -0.159135 0
M  V30 4434 C 420.065 3.38262 -0.423255 0
M  V30 4435 H 421.258 2.32726 -1.89153 0
M  V30 4436 H 418.811 1.1889 -1.01464 0
M  V30 4437 H 419.546 3.19974 0.527938 0
M  V30 4438 H 419.331 3.74532 -1.16053 0
M  V30 4439 H 420.821 4.16759 -0.264911 0
M  V30 4440 N 421.258 1.00505 1.21394 0
M  V30 4441 C 422.221 0.570459 2.21987 0
M  V30 4442 C 423.221 -0.353211 1.56873 0
M  V30 4443 O 424.411 -0.14349 1.73608 0
M  V30 4444 C 421.543 -0.168555 3.40483 0
M  V30 4445 H 422.736 1.46021 2.6195 0
M  V30 4446 H 420.289 0.793565 1.34656 0
M  V30 4447 H 421.024 -1.07374 3.06009 0
M  V30 4448 H 420.809 0.494823 3.88965 0
M  V30 4449 H 422.299 -0.460362 4.15055 0
M  V30 4450 N 422.737 -1.36956 0.779787 0
M  V30 4451 C 423.962 -2.04283 0.358224 0
M  V30 4452 C 424.387 -1.58422 -1.01411 0
M  V30 4453 O 423.745 -0.748179 -1.65142 0
M  V30 4454 C 423.793 -3.58152 0.419479 0
M  V30 4455 O 422.897 -4.08342 -0.577142 0
M  V30 4456 H 422.238 -0.645967 0.153698 0
M  V30 4457 H 424.768 -1.75108 1.05822 0
M  V30 4458 H 424.778 -4.07041 0.279636 0
M  V30 4459 H 423.453 -3.90886 1.42061 0
M  V30 4460 H 422.03 -3.70751 -0.399755 0
M  V30 4461 N 424.215 -0.530993 -1.48385 0
M  V30 4462 C 425.463 0.00273189 -2.021 0
M  V30 4463 C 425.784 1.34672 -1.41027 0
M  V30 4464 O 425.054 1.8724 -0.576012 0
M  V30 4465 H 423.634 0.00399774 -0.746989 0
M  V30 4466 H 426.296 -0.695054 -1.82085 0
M  V30 4467 H 425.392 0.11031 -3.11905 0
M  V30 4468 N 425.693 1.55336 -0.266172 0
M  V30 4469 C 427.109 1.59356 0.0882065 0
M  V30 4470 C 427.309 1.2834 1.55342 0
M  V30 4471 O 426.365 1.03996 2.30089 0
M  V30 4472 C 427.678 2.99409 -0.278364 0
M  V30 4473 C 429.226 3.12196 -0.224243 0
M  V30 4474 C 429.701 4.545 -0.565123 0
M  V30 4475 N 431.192 4.60313 -0.51634 0
M  V30 4476 C 431.927 5.68434 -0.753013 0
M  V30 4477 N 431.423 6.84738 -1.05383 0
M  V30 4478 N 433.216 5.57942 -0.682414 0
M  V30 4479 H 425.367 1.73764 -1.22147 0
M  V30 4480 H 427.63 0.809822 -0.492841 0
M  V30 4481 H 427.336 3.2691 -1.29703 0
M  V30 4482 H 427.21 3.75228 0.385186 0
M  V30 4483 H 429.597 2.84464 0.78512 0
M  V30 4484 H 429.678 2.38609 -0.921922 0
M  V30 4485 H 429.322 4.82956 -1.57213 0
M  V30 4486 H 429.252 5.26374 0.154248 0
M  V30 4487 H 431.743 3.7676 -0.29335 0
M  V30 4488 H 432.056 7.63088 -1.22133 0
M  V30 4489 H 430.401 6.86375 -1.09151 0
M  V30 4490 H 433.592 4.65958 -0.44731 0
M  V30 4491 H 433.765 6.4213 -0.870248 0
M  V30 4492 N 427.171 -0.0066808 1.57599 0
M  V30 4493 C 428.081 -1.01671 2.11424 0
M  V30 4494 C 429.097 -1.38143 1.05795 0
M  V30 4495 O 430.273 -1.47011 1.37658 0
M  V30 4496 C 427.338 -2.29192 2.60139 0
M  V30 4497 C 426.399 -1.99094 3.80342 0
M  V30 4498 C 425.632 -3.20535 4.26724 0
M  V30 4499 O 425.855 -4.3199 3.72479 0
M  V30 4500 O 424.789 -3.04924 5.18946 0
M  V30 4501 H 428.615 -0.589181 2.9793 0
M  V30 4502 H 426.2 -0.225091 1.47695 0
M  V30 4503 H 428.082 -3.0412 2.917 0
M  V30 4504 H 426.757 -2.71195 1.76733 0
M  V30 4505 H 425.664 -1.21663 3.53764 0
M  V30 4506 H 426.997 -1.61931 4.648 0
M  V30 4507 N 428.649 -1.55105 -0.279332 0
M  V30 4508 C 430.065 -1.46803 -0.626187 0
M  V30 4509 C 430.265 -0.676939 -1.89789 0
M  V30 4510 O 429.321 -0.19326 -2.51759 0
M  V30 4511 C 430.634 -2.90962 -0.759034 0
M  V30 4512 C 432.182 -3.01138 -0.853504 0
M  V30 4513 C 432.657 -4.46539 -1.01818 0
M  V30 4514 N 434.148 -4.50341 -1.08386 0
M  V30 4515 C 434.883 -5.60053 -1.22996 0
M  V30 4516 N 434.379 -6.79645 -1.34366 0
M  V30 4517 N 436.172 -5.47783 -1.26056 0
M  V30 4518 H 428.323 -2.04996 0.555921 0
M  V30 4519 H 430.586 -0.929325 0.187239 0
M  V30 4520 H 430.292 -3.51544 0.104852 0
M  V30 4521 H 430.166 -3.39619 -1.64131 0
M  V30 4522 H 432.553 -2.40658 -1.70786 0
M  V30 4523 H 432.634 -2.55745 0.0532466 0
M  V30 4524 H 432.278 -5.0762 -0.168504 0
M  V30 4525 H 432.208 -4.89583 -1.93948 0
M  V30 4526 H 434.699 -3.64191 -1.00864 0
M  V30 4527 H 435.012 -7.59012 -1.4533 0
M  V30 4528 H 433.357 -6.82469 -1.31382 0
M  V30 4529 H 436.548 -4.53294 -1.168 0
M  V30 4530 H 436.721 -6.33331 -1.37098 0
M  V30 4531 N 430.127 0.543554 -1.4793 0
M  V30 4532 C 431.375 1.29752 -1.54948 0
M  V30 4533 C 431.696 1.93764 -0.219242 0
M  V30 4534 O 430.966 1.80639 0.75805 0
M  V30 4535 H 429.546 0.481874 -0.570795 0
M  V30 4536 H 432.208 0.633636 -1.84312 0
M  V30 4537 H 431.304 2.08392 -2.32334 0
M  V30 4538 N 431.605 1.3629 0.791371 0
M  V30 4539 C 432.555 1.26988 1.89362 0
M  V30 4540 C 433.539 0.161795 1.60084 0
M  V30 4541 O 434.731 0.394426 1.72549 0
M  V30 4542 C 431.86 1.05944 3.26544 0
M  V30 4543 C 430.946 2.21211 3.61838 0
M  V30 4544 N 431.337 3.46518 3.68455 0
M  V30 4545 C 429.635 2.12933 3.91887 0
M  V30 4546 C 430.336 4.2241 3.99931 0
M  V30 4547 N 429.312 3.51329 4.14812 0
M  V30 4548 H 433.114 2.21908 1.92702 0
M  V30 4549 H 430.628 1.28982 0.986787 0
M  V30 4550 H 432.625 0.973666 4.05371 0
M  V30 4551 H 431.285 0.119223 3.24481 0
M  V30 4552 H 432.296 3.80677 3.51148 0
M  V30 4553 H 428.973 1.26855 3.97761 0
M  V30 4554 H 430.363 5.30767 4.1199 0
M  V30 4555 N 433.083 -1.0153 1.20538 0
M  V30 4556 C 434.499 -1.27461 0.96051 0
M  V30 4557 C 434.699 -1.98273 -0.359193 0
M  V30 4558 O 433.755 -2.27886 -1.0874 0
M  V30 4559 C 435.068 -2.10837 2.14402 0
M  V30 4560 C 436.616 -2.24099 2.18515 0
M  V30 4561 C 437.091 -3.10852 3.36355 0
M  V30 4562 N 438.582 -3.18441 3.36377 0
M  V30 4563 C 439.317 -3.85795 4.24205 0
M  V30 4564 N 438.813 -4.55264 5.22213 0
M  V30 4565 N 440.606 -3.82331 4.12043 0
M  V30 4566 H 432.757 -0.539907 2.05423 0
M  V30 4567 H 435.02 -0.30092 0.898972 0
M  V30 4568 H 434.726 -1.66144 3.09983 0
M  V30 4569 H 434.6 -3.11576 2.12604 0
M  V30 4570 H 436.987 -2.68016 1.23497 0
M  V30 4571 H 437.068 -1.22865 2.24361 0
M  V30 4572 H 436.712 -2.6764 4.31661 0
M  V30 4573 H 436.642 -4.12177 3.27746 0
M  V30 4574 H 439.133 -2.68978 2.65442 0
M  V30 4575 H 439.446 -5.04331 5.85551 0
M  V30 4576 H 437.791 -4.54085 5.26148 0
M  V30 4577 H 440.982 -3.27207 3.34743 0
M  V30 4578 H 441.155 -4.34547 4.807 0
M  V30 4579 N 434.561 -1.01147 -1.20859 0
M  V30 4580 C 435.493 -0.535546 -2.22855 0
M  V30 4581 C 436.506 0.379323 -1.58319 0
M  V30 4582 O 437.695 0.178489 -1.77605 0
M  V30 4583 C 434.795 0.240962 -3.38042 0
M  V30 4584 C 433.968 -0.674562 -4.32167 0
M  V30 4585 C 433.027 0.053467 -5.26173 0
M  V30 4586 O 432.053 -0.567339 -5.66366 0
M  V30 4587 N 433.255 1.32997 -5.65059 0
M  V30 4588 H 436.02 -1.41268 -2.64317 0
M  V30 4589 H 433.581 -0.888386 -1.35349 0
M  V30 4590 H 435.573 0.737115 -3.97931 0
M  V30 4591 H 434.143 1.01935 -2.95513 0
M  V30 4592 H 433.363 -1.35111 -3.70322 0
M  V30 4593 H 434.651 -1.2974 -4.91981 0
M  V30 4594 H 434.049 1.85536 -5.34409 0
M  V30 4595 H 432.606 1.77095 -6.2728 0
M  V30 4596 N 436.039 1.36541 -0.78704 0
M  V30 4597 C 437.267 2.03561 -0.370199 0
M  V30 4598 C 437.682 1.59347 1.01263 0
M  V30 4599 O 437.039 0.781781 1.64907 0
M  V30 4600 C 437.09 3.59033 -0.421614 0
M  V30 4601 O 436.811 4.01634 -1.7499 0
M  V30 4602 C 438.312 4.433 0.00489763 0
M  V30 4603 H 435.532 0.653346 -0.152904 0
M  V30 4604 H 438.076 1.74566 -1.06522 0
M  V30 4605 H 436.231 3.86746 0.224971 0
M  V30 4606 H 436.645 4.96217 -1.69909 0
M  V30 4607 H 438.119 5.51939 -0.0822184 0
M  V30 4608 H 438.596 4.26285 1.05723 0
M  V30 4609 H 439.202 4.20843 -0.614085 0
M  V30 4610 N 437.518 0.538854 1.48102 0
M  V30 4611 C 438.764 0.00801365 2.02798 0
M  V30 4612 C 439.097 -1.3309 1.41424 0
M  V30 4613 O 438.372 -1.86169 0.563158 0
M  V30 4614 C 438.655 -0.104589 3.59948 0
M  V30 4615 C 438.508 1.26012 4.31788 0
M  V30 4616 C 439.827 -0.827055 4.32259 0
M  V30 4617 H 436.946 0.00438624 0.736987 0
M  V30 4618 H 439.588 0.6976 1.7673 0
M  V30 4619 H 437.738 -0.691893 3.82289 0
M  V30 4620 H 439.41 1.88922 4.2084 0
M  V30 4621 H 437.653 1.83968 3.92859 0
M  V30 4622 H 438.324 1.13424 5.40221 0
M  V30 4623 H 440.8 -0.328578 4.14801 0
M  V30 4624 H 439.676 -0.87476 5.41885 0
M  V30 4625 H 439.937 -1.87927 4.0017 0
M  V30 4626 N 438.996 -1.55193 0.274407 0
M  V30 4627 C 440.412 -1.59401 -0.0797543 0
M  V30 4628 C 440.612 -1.29162 -1.54659 0
M  V30 4629 O 439.668 -1.05215 -2.29534 0
M  V30 4630 C 440.981 -2.99257 0.294238 0
M  V30 4631 C 442.529 -3.12072 0.240796 0
M  V30 4632 C 443.004 -4.54194 0.589218 0
M  V30 4633 N 444.495 -4.60033 0.540744 0
M  V30 4634 C 445.23 -5.68027 0.783147 0
M  V30 4635 N 444.726 -6.8417 1.09013 0
M  V30 4636 N 446.519 -5.57572 0.711993 0
M  V30 4637 H 438.67 -1.73113 1.23067 0
M  V30 4638 H 440.933 -0.807197 0.497129 0
M  V30 4639 H 440.639 -3.26217 1.31435 0
M  V30 4640 H 440.513 -3.75427 -0.365281 0
M  V30 4641 H 442.9 -2.84877 -0.770024 0
M  V30 4642 H 442.981 -2.38117 0.934563 0
M  V30 4643 H 442.625 -4.82115 1.59772 0
M  V30 4644 H 442.555 -5.26448 -0.126331 0
M  V30 4645 H 445.046 -3.76599 0.313327 0
M  V30 4646 H 445.359 -7.6243 1.26178 0
M  V30 4647 H 443.704 -6.85787 1.12789 0
M  V30 4648 H 446.895 -4.65714 0.472014 0
M  V30 4649 H 447.068 -6.41659 0.90429 0
M  V30 4650 N 440.474 -0.00167713 -1.576 0
M  V30 4651 C 441.72 0.683832 -1.90923 0
M  V30 4652 C 442.053 1.7333 -0.875799 0
M  V30 4653 O 441.328 1.94215 0.10525 0
M  V30 4654 C 441.611 1.32543 -3.3482 0
M  V30 4655 C 441.464 0.287387 -4.48881 0
M  V30 4656 C 442.783 2.25114 -3.78169 0
M  V30 4657 H 439.902 0.247125 -0.694333 0
M  V30 4658 H 442.544 -0.0533149 -1.89925 0
M  V30 4659 H 440.694 1.95372 -3.35801 0
M  V30 4660 H 442.366 -0.341346 -4.60035 0
M  V30 4661 H 440.609 -0.39017 -4.32042 0
M  V30 4662 H 441.28 0.775393 -5.46527 0
M  V30 4663 H 443.756 1.723 -3.7875 0
M  V30 4664 H 442.632 2.66971 -4.79602 0
M  V30 4665 H 442.893 3.13092 -3.12131 0
M  V30 4666 N 441.952 1.55251 0.271103 0
M  V30 4667 C 442.882 1.9127 1.33933 0
M  V30 4668 C 443.863 0.77478 1.5143 0
M  V30 4669 O 445.048 1.03307 1.64442 0
M  V30 4670 C 442.178 2.18627 2.69851 0
M  V30 4671 C 441.132 3.34442 2.67081 0
M  V30 4672 C 440.458 3.47284 4.06569 0
M  V30 4673 C 441.758 4.70784 2.26185 0
M  V30 4674 H 443.452 2.80744 1.04035 0
M  V30 4675 H 440.998 1.35077 0.499017 0
M  V30 4676 H 442.951 2.42413 3.44694 0
M  V30 4677 H 441.675 1.25955 3.01335 0
M  V30 4678 H 440.334 3.10627 1.94695 0
M  V30 4679 H 439.982 2.52074 4.35279 0
M  V30 4680 H 439.682 4.25152 4.0561 0
M  V30 4681 H 441.206 3.73363 4.83148 0
M  V30 4682 H 442.62 4.94102 2.90751 0
M  V30 4683 H 441.017 5.51582 2.36384 0
M  V30 4684 H 442.087 4.69478 1.21319 0
M  V30 4685 N 443.43 -0.535701 1.48216 0
M  V30 4686 C 444.36 -1.65014 1.65204 0
M  V30 4687 C 445.341 -1.62554 0.501011 0
M  V30 4688 O 446.526 -1.7984 0.732886 0
M  V30 4689 C 443.656 -3.03616 1.68626 0
M  V30 4690 C 442.61 -3.20932 2.83172 0
M  V30 4691 C 441.936 -4.60537 2.71679 0
M  V30 4692 C 443.236 -3.04249 4.24535 0
M  V30 4693 H 444.93 -1.51053 2.58502 0
M  V30 4694 H 442.476 -0.725262 1.24402 0
M  V30 4695 H 444.429 -3.81446 1.79099 0
M  V30 4696 H 443.153 -3.18587 0.719026 0
M  V30 4697 H 441.812 -2.45517 2.72244 0
M  V30 4698 H 441.46 -4.72336 1.72937 0
M  V30 4699 H 441.16 -4.73069 3.48538 0
M  V30 4700 H 442.684 -5.40475 2.84112 0
M  V30 4701 H 444.098 -3.71877 4.36326 0
M  V30 4702 H 442.495 -3.28278 5.02348 0
M  V30 4703 H 443.565 -2.00739 4.41397 0
M  V30 4704 N 444.908 -1.36708 -0.784132 0
M  V30 4705 C 446.154 -1.31426 -1.54451 0
M  V30 4706 C 446.487 0.10476 -1.93917 0
M  V30 4707 O 445.762 1.05934 -1.6312 0
M  V30 4708 C 446.045 -2.24189 -2.818 0
M  V30 4709 C 445.898 -3.74813 -2.48667 0
M  V30 4710 C 447.217 -2.15626 -3.83658 0
M  V30 4711 H 444.336 -0.478739 -0.560337 0
M  V30 4712 H 446.978 -1.67305 -0.900498 0
M  V30 4713 H 445.128 -1.93722 -3.36755 0
M  V30 4714 H 446.8 -4.15823 -1.99722 0
M  V30 4715 H 445.043 -3.93989 -1.81535 0
M  V30 4716 H 445.714 -4.35138 -3.39646 0
M  V30 4717 H 448.19 -2.42456 -3.38163 0
M  V30 4718 H 447.066 -2.82694 -4.70506 0
M  V30 4719 H 447.327 -1.14522 -4.27009 0
M  V30 4720 N 446.386 1.0089 -1.21074 0
M  V30 4721 C 447.632 1.74866 -1.02712 0
M  V30 4722 C 447.965 1.89178 0.438787 0
M  V30 4723 O 447.24 1.42325 1.32567 0
M  V30 4724 C 447.523 3.16347 -1.72036 0
M  V30 4725 C 447.376 3.09782 -3.26121 0
M  V30 4726 C 448.695 4.15187 -1.45973 0
M  V30 4727 H 445.814 0.634736 -0.374539 0
M  V30 4728 H 448.456 1.17646 -1.49196 0
M  V30 4729 H 446.606 3.65201 -1.32517 0
M  V30 4730 H 448.278 2.68673 -3.74983 0
M  V30 4731 H 446.521 2.46982 -3.56626 0
M  V30 4732 H 447.192 4.09829 -3.6979 0
M  V30 4733 H 449.668 3.75022 -1.80272 0
M  V30 4734 H 448.544 5.12331 -1.96999 0
M  V30 4735 H 448.805 4.40386 -0.388924 0
M  V30 4736 N 447.864 1.01787 1.20321 0
M  V30 4737 C 449.11 0.708985 1.90003 0
M  V30 4738 C 449.443 -0.759572 1.78729 0
M  V30 4739 O 448.718 -1.55198 1.17234 0
M  V30 4740 C 449.001 1.1469 3.41348 0
M  V30 4741 C 448.854 2.67586 3.61549 0
M  V30 4742 C 450.173 0.71915 4.34185 0
M  V30 4743 H 447.292 0.259034 0.689978 0
M  V30 4744 H 449.934 1.26584 1.41692 0
M  V30 4745 H 448.084 0.673128 3.82624 0
M  V30 4746 H 449.756 3.22826 3.29517 0
M  V30 4747 H 447.999 3.085 3.04976 0
M  V30 4748 H 448.67 2.93281 4.67643 0
M  V30 4749 H 451.146 1.12647 4.00562 0
M  V30 4750 H 450.022 1.05358 5.38694 0
M  V30 4751 H 450.283 -0.379111 4.40472 0
M  V30 4752 N 449.342 -1.36122 0.79427 0
M  V30 4753 C 450.272 -2.32551 0.210328 0
M  V30 4754 C 451.253 -1.56884 -0.657386 0
M  V30 4755 O 452.438 -1.85014 -0.590207 0
M  V30 4756 C 449.568 -3.41128 -0.651819 0
M  V30 4757 C 448.522 -4.27842 0.116395 0
M  V30 4758 C 447.848 -5.2763 -0.86666 0
M  V30 4759 C 449.148 -5.05647 1.30837 0
M  V30 4760 H 450.842 -2.81636 1.01594 0
M  V30 4761 H 448.388 -1.35407 0.489981 0
M  V30 4762 H 450.341 -4.07581 -1.07031 0
M  V30 4763 H 449.065 -2.90622 -1.49019 0
M  V30 4764 H 447.724 -3.62952 0.515915 0
M  V30 4765 H 447.372 -4.73395 -1.70019 0
M  V30 4766 H 447.072 -5.86514 -0.35705 0
M  V30 4767 H 448.596 -5.96955 -1.28361 0
M  V30 4768 H 450.01 -5.65113 0.965393 0
M  V30 4769 H 448.407 -5.73967 1.75161 0
M  V30 4770 H 449.477 -4.37006 2.10128 0
M  V30 4771 N 450.82 -0.546701 -1.47814 0
M  V30 4772 C 451.783 0.196287 -2.28358 0
M  V30 4773 C 452.783 0.852437 -1.36346 0
M  V30 4774 O 453.973 0.709913 -1.59078 0
M  V30 4775 C 451.105 1.28579 -3.15722 0
M  V30 4776 H 452.298 -0.511086 -2.95513 0
M  V30 4777 H 449.851 -0.303248 -1.5333 0
M  V30 4778 H 450.586 2.0259 -2.53235 0
M  V30 4779 H 450.371 0.820229 -3.83425 0
M  V30 4780 H 451.861 1.80793 -3.76435 0
M  V30 4781 N 452.299 1.55045 -0.282633 0
M  V30 4782 C 453.546 1.9976 0.33199 0
M  V30 4783 C 453.874 1.17105 1.55295 0
M  V30 4784 O 453.129 0.230599 1.94337 0
M  V30 4785 C 453.428 3.49422 0.750938 0
M  V30 4786 C 453.094 4.4941 -0.366228 0
M  V30 4787 C 451.756 4.76471 -0.672964 0
M  V30 4788 C 454.108 5.09054 -1.11864 0
M  V30 4789 C 451.436 5.60442 -1.73556 0
M  V30 4790 C 453.788 5.9418 -2.17102 0
M  V30 4791 C 452.452 6.19558 -2.48402 0
M  V30 4792 H 451.722 0.730974 0.121484 0
M  V30 4793 H 454.369 1.8732 -0.39791 0
M  V30 4794 H 452.674 3.59377 1.56063 0
M  V30 4795 H 454.371 3.81432 1.23736 0
M  V30 4796 H 450.961 4.2844 -0.117041 0
M  V30 4797 H 455.145 4.88165 -0.894925 0
M  V30 4798 H 450.401 5.78349 -1.983 0
M  V30 4799 H 454.575 6.39427 -2.75873 0
M  V30 4800 H 452.202 6.84417 -3.30874 0
M  V30 4801 N 453.777 0.010035 1.57597 0
M  V30 4802 C 455.026 -0.671945 1.90178 0
M  V30 4803 C 455.339 -1.74376 0.886131 0
M  V30 4804 O 456.545 -2.48107 1.10252 0
M  V30 4805 C 455.001 -1.24636 3.3763 0
M  V30 4806 C 454.609 -0.208838 4.47513 0
M  V30 4807 C 456.353 -1.90595 3.79307 0
M  V30 4808 C 454.26 -0.793814 5.86048 0
M  V30 4809 H 453.19 -0.25474 0.709665 0
M  V30 4810 H 455.841 0.0722206 1.83358 0
M  V30 4811 H 454.223 -2.04152 3.3932 0
M  V30 4812 H 455.397 0.562463 4.57354 0
M  V30 4813 H 453.712 0.350889 4.14919 0
M  V30 4814 H 456.309 -2.35284 4.80151 0
M  V30 4815 H 456.652 -2.74074 3.13352 0
M  V30 4816 H 457.185 -1.17798 3.79958 0
M  V30 4817 H 453.924 0.00240855 6.555 0
M  V30 4818 H 453.444 -1.53404 5.79851 0
M  V30 4819 H 455.123 -1.2894 6.34022 0
M  V30 4820 N 455.255 -1.55392 -0.262866 0
M  V30 4821 C 456.504 -1.75679 -0.990943 0
M  V30 4822 C 456.817 -0.57097 -1.87081 0
M  V30 4823 O 458.023 -0.656486 -2.63444 0
M  V30 4824 C 456.479 -3.10964 -1.81188 0
M  V30 4825 C 456.087 -4.37146 -0.980188 0
M  V30 4826 C 457.831 -3.40597 -2.53365 0
M  V30 4827 C 455.738 -5.63466 -1.7961 0
M  V30 4828 H 454.668 -0.654868 -0.373716 0
M  V30 4829 H 457.319 -1.81841 -0.246203 0
M  V30 4830 H 455.701 -2.98867 -2.59797 0
M  V30 4831 H 456.875 -4.60187 -0.237558 0
M  V30 4832 H 455.19 -4.14731 -0.372497 0
M  V30 4833 H 457.787 -4.32186 -3.14833 0
M  V30 4834 H 458.13 -2.6119 -3.24169 0
M  V30 4835 H 458.663 -3.53838 -1.81779 0
M  V30 4836 H 455.402 -6.4565 -1.13209 0
M  V30 4837 H 454.922 -5.44552 -2.51443 0
M  V30 4838 H 456.601 -6.02139 -2.36723 0
M  V30 4839 N 456.733 0.527833 -1.48498 0
M  V30 4840 C 457.973 1.29401 -1.58224 0
M  V30 4841 C 458.337 1.90348 -0.251327 0
M  V30 4842 O 459.538 2.67868 -0.223588 0
M  V30 4843 C 457.809 2.35266 -2.69044 0
M  V30 4844 S 459.368 3.2158 -2.98549 0
M  V30 4845 H 456.186 0.440138 -0.558391 0
M  V30 4846 H 458.788 0.601079 -1.8603 0
M  V30 4847 H 457.492 1.88975 -3.64303 0
M  V30 4848 H 457.023 3.09263 -2.43146 0
M  V30 4849 H 459.038 4.35391 -2.38011 0
M  V30 4850 N 458.211 1.37122 0.776871 0
M  V30 4851 C 459.457 1.3325 1.53675 0
M  V30 4852 C 459.812 -0.0839891 1.92217 0
M  V30 4853 O 459.105 -1.04145 1.60824 0
M  V30 4854 C 459.299 2.20068 2.81611 0
M  V30 4855 C 459.128 3.70016 2.55574 0
M  V30 4856 C 457.898 4.39144 2.4996 0
M  V30 4857 C 460.096 4.62996 2.23917 0
M  V30 4858 N 458.078 5.74663 2.15953 0
M  V30 4859 C 459.449 5.86854 2.00005 0
M  V30 4860 C 461.504 4.51433 2.1003 0
M  V30 4861 C 460.207 7.00446 1.63609 0
M  V30 4862 C 462.233 5.64905 1.75033 0
M  V30 4863 C 461.595 6.8781 1.51977 0
M  V30 4864 H 457.694 0.542878 0.562856 0
M  V30 4865 H 460.278 1.72295 0.906784 0
M  V30 4866 H 458.449 1.83248 3.42454 0
M  V30 4867 H 460.181 2.07492 3.47461 0
M  V30 4868 H 456.936 3.92088 2.65639 0
M  V30 4869 H 457.36 6.46268 2.0166 0
M  V30 4870 H 462.002 3.56987 2.26539 0
M  V30 4871 H 459.72 7.94831 1.45837 0
M  V30 4872 H 463.306 5.57926 1.64952 0
M  V30 4873 H 462.186 7.74126 1.25296 0
M  V30 4874 N 459.689 -1.00246 1.21608 0
M  V30 4875 C 460.619 -2.10921 1.00172 0
M  V30 4876 C 461.6 -1.69938 -0.0741587 0
M  V30 4877 O 462.785 -1.94009 0.0861753 0
M  V30 4878 C 459.915 -3.42618 0.568355 0
M  V30 4879 C 458.869 -3.97407 1.58909 0
M  V30 4880 C 458.195 -5.25038 1.01187 0
M  V30 4881 C 459.495 -4.2918 2.97661 0
M  V30 4882 H 461.189 -2.29112 1.92739 0
M  V30 4883 H 458.735 -1.10101 0.928102 0
M  V30 4884 H 460.688 -4.19444 0.405555 0
M  V30 4885 H 459.412 -3.24227 -0.392961 0
M  V30 4886 H 458.071 -3.22703 1.73949 0
M  V30 4887 H 457.719 -5.02982 0.0421965 0
M  V30 4888 H 457.419 -5.62661 1.6937 0
M  V30 4889 H 458.943 -6.04507 0.860448 0
M  V30 4890 H 460.357 -4.96839 2.86049 0
M  V30 4891 H 458.754 -4.77952 3.6288 0
M  V30 4892 H 459.824 -3.3735 3.48315 0
M  V30 4893 N 461.167 -1.02423 -1.1978 0
M  V30 4894 C 462.578 -0.748389 -1.71044 0
M  V30 4895 C 462.929 0.732398 -1.82017 0
M  V30 4896 O 462.054 1.57116 -1.48807 0
M  V30 4897 C 462.649 -1.35187 -3.1066 0
M  V30 4898 C 461.208 -1.12472 -3.59203 0
M  V30 4899 C 460.355 -1.45283 -2.36195 0
M  V30 4900 H 463.306 -1.19275 -1.04686 0
M  V30 4901 H 463.327 -0.746408 -3.73107 0
M  V30 4902 H 462.839 -2.4296 -3.02642 0
M  V30 4903 H 460.94 -0.0649983 -3.72543 0
M  V30 4904 H 461.053 -1.81016 -4.43588 0
M  V30 4905 H 459.417 -0.872034 -2.39307 0
M  V30 4906 H 460.2 -2.54129 -2.30811 0
M  V30 4907 N 462.645 1.35699 -0.801477 0
M  V30 4908 C 463.892 1.98913 -0.379459 0
M  V30 4909 C 464.22 1.63592 1.05204 0
M  V30 4910 O 463.475 0.888563 1.74365 0
M  V30 4911 C 463.774 3.53828 -0.504041 0
M  V30 4912 C 463.44 4.09002 -1.8981 0
M  V30 4913 C 462.102 4.23783 -2.27951 0
M  V30 4914 C 464.454 4.38939 -2.81038 0
M  V30 4915 C 461.782 4.65816 -3.56696 0
M  V30 4916 C 464.134 4.82409 -4.09224 0
M  V30 4917 C 462.798 4.95395 -4.4737 0
M  V30 4918 H 462.068 0.727874 -0.138854 0
M  V30 4919 H 464.715 1.61994 -1.02128 0
M  V30 4920 H 463.02 3.91175 0.221242 0
M  V30 4921 H 464.717 4.00687 -0.158361 0
M  V30 4922 H 461.307 3.97946 -1.59176 0
M  V30 4923 H 465.491 4.27077 -2.52821 0
M  V30 4924 H 460.747 4.74059 -3.86106 0
M  V30 4925 H 464.921 5.04535 -4.80018 0
M  V30 4926 H 462.548 5.27724 -5.47185 0
M  V30 4927 N 464.123 0.554532 1.47522 0
M  V30 4928 C 465.073 -0.215008 2.26984 0
M  V30 4929 C 466.057 -0.88774 1.34194 0
M  V30 4930 O 467.249 -0.786489 1.58567 0
M  V30 4931 C 464.378 -1.24604 3.19889 0
M  V30 4932 C 463.464 -0.576857 4.20159 0
M  V30 4933 N 463.855 0.351541 5.04577 0
M  V30 4934 C 462.153 -0.831104 4.38188 0
M  V30 4935 C 462.854 0.739995 5.76974 0
M  V30 4936 N 461.83 0.0954407 5.43516 0
M  V30 4937 H 465.632 0.498843 2.89636 0
M  V30 4938 H 463.146 0.374279 1.58028 0
M  V30 4939 H 465.143 -1.81128 3.75498 0
M  V30 4940 H 463.803 -1.96101 2.58794 0
M  V30 4941 H 464.814 0.725556 5.12792 0
M  V30 4942 H 461.491 -1.53479 3.88266 0
M  V30 4943 H 462.881 1.50271 6.5488 0
M  V30 4944 N 465.601 -1.54893 0.290851 0
M  V30 4945 C 466.847 -2.0023 -0.321867 0
M  V30 4946 C 467.18 -1.179 -1.54316 0
M  V30 4947 O 466.455 -0.25293 -1.92848 0
M  V30 4948 C 466.738 -3.53456 -0.688515 0
M  V30 4949 C 466.591 -4.46532 0.541209 0
M  V30 4950 C 467.91 -4.13057 -1.51895 0
M  V30 4951 H 465.029 -0.727891 -0.115515 0
M  V30 4952 H 467.671 -1.85722 0.400931 0
M  V30 4953 H 465.821 -3.6595 -1.30433 0
M  V30 4954 H 467.493 -4.4596 1.17973 0
M  V30 4955 H 465.736 -4.17545 1.17636 0
M  V30 4956 H 466.407 -5.51475 0.240675 0
M  V30 4957 H 468.883 -4.03937 -0.99872 0
M  V30 4958 H 467.759 -5.20448 -1.74429 0
M  V30 4959 H 468.02 -3.64284 -2.50498 0
M  V30 4960 N 467.08 -0.0183926 -1.57589 0
M  V30 4961 C 468.328 0.661253 -1.90976 0
M  V30 4962 C 468.649 1.73281 -0.894353 0
M  V30 4963 O 467.919 1.9579 0.0656788 0
M  V30 4964 H 466.499 0.247233 -0.704901 0
M  V30 4965 H 469.161 -0.0636639 -1.94796 0
M  V30 4966 H 468.257 1.12083 -2.9128 0
M  V30 4967 N 468.558 1.5553 0.254621 0
M  V30 4968 C 469.974 1.4778 0.602753 0
M  V30 4969 C 470.174 0.707047 1.88688 0
M  V30 4970 O 469.23 0.233288 2.5142 0
M  V30 4971 C 470.543 2.92133 0.712648 0
M  V30 4972 C 472.091 3.02458 0.805488 0
M  V30 4973 C 472.566 4.48102 0.947009 0
M  V30 4974 N 474.057 4.52008 1.01207 0
M  V30 4975 C 474.792 5.61939 1.1407 0
M  V30 4976 N 474.288 6.81697 1.23536 0
M  V30 4977 N 476.081 5.49719 1.17325 0
M  V30 4978 H 468.232 2.04085 -0.588463 0
M  V30 4979 H 470.495 0.926229 -0.202001 0
M  V30 4980 H 470.201 3.51332 -0.160766 0
M  V30 4981 H 470.075 3.42187 1.58707 0
M  V30 4982 H 472.462 2.43344 1.66936 0
M  V30 4983 H 472.543 2.55627 -0.0939266 0
M  V30 4984 H 472.187 5.07824 0.087725 0
M  V30 4985 H 472.117 4.92607 1.86135 0
M  V30 4986 H 474.608 3.65749 0.950577 0
M  V30 4987 H 474.921 7.61228 1.33236 0
M  V30 4988 H 473.266 6.84473 1.20508 0
M  V30 4989 H 476.457 4.55095 1.09573 0
M  V30 4990 H 476.63 6.35432 1.27005 0
M  V30 4991 N 470.036 -0.519951 1.48776 0
M  V30 4992 C 471.285 -1.27175 1.56555 0
M  V30 4993 C 471.598 -1.9401 0.248869 0
M  V30 4994 O 472.804 -2.70725 0.205004 0
M  V30 4995 C 471.26 -2.30811 2.76142 0
M  V30 4996 C 470.868 -1.7 4.14493 0
M  V30 4997 C 472.612 -3.06937 2.9324 0
M  V30 4998 C 470.519 -2.71635 5.25327 0
M  V30 4999 H 469.449 -0.478329 0.582853 0
M  V30 5000 H 472.1 -0.547916 1.75129 0
M  V30 5001 H 470.482 -3.06274 2.51023 0
M  V30 5002 H 471.656 -1.00658 4.49672 0
M  V30 5003 H 469.971 -1.06331 4.02595 0
M  V30 5004 H 472.568 -3.82905 3.73213 0
M  V30 5005 H 472.911 -3.63409 2.03075 0
M  V30 5006 H 473.444 -2.38589 3.18308 0
M  V30 5007 H 470.183 -2.1997 6.1749 0
M  V30 5008 H 469.703 -3.39275 4.94624 0
M  V30 5009 H 471.382 -3.34429 5.53865 0
M  V30 5010 N 471.514 -1.37532 -0.769588 0
M  V30 5011 C 472.763 -1.32183 -1.5235 0
M  V30 5012 C 473.076 0.0906555 -1.9539 0
M  V30 5013 O 474.282 0.266628 -2.70188 0
M  V30 5014 C 472.738 -2.32029 -2.75119 0
M  V30 5015 C 472.346 -3.78816 -2.3917 0
M  V30 5016 C 474.09 -2.35694 -3.53056 0
M  V30 5017 C 471.997 -4.70388 -3.58453 0
M  V30 5018 H 470.927 -0.491275 -0.571984 0
M  V30 5019 H 473.578 -1.63004 -0.842739 0
M  V30 5020 H 471.96 -1.94229 -3.45096 0
M  V30 5021 H 473.134 -4.25466 -1.76962 0
M  V30 5022 H 471.449 -3.78117 -1.74402 0
M  V30 5023 H 474.046 -3.01312 -4.41718 0
M  V30 5024 H 474.389 -1.37117 -3.93071 0
M  V30 5025 H 474.922 -2.72212 -2.90078 0
M  V30 5026 H 471.661 -5.70102 -3.23518 0
M  V30 5027 H 471.181 -4.28442 -4.19758 0
M  V30 5028 H 472.86 -4.87628 -4.25239 0
M  V30 5029 N 472.992 0.995999 -1.22138 0
M  V30 5030 C 474.222 1.76809 -1.06874 0
M  V30 5031 C 474.63 1.85265 0.383866 0
M  V30 5032 O 473.973 1.31969 1.27789 0
M  V30 5033 C 474.035 3.2186 -1.60144 0
M  V30 5034 C 473.699 3.36958 -3.0872 0
M  V30 5035 C 474.696 3.2452 -4.0618 0
M  V30 5036 C 472.381 3.62109 -3.48112 0
M  V30 5037 C 474.375 3.37013 -5.41019 0
M  V30 5038 C 472.062 3.74243 -4.831 0
M  V30 5039 C 473.06 3.61702 -5.79362 0
M  V30 5040 O 472.748 3.73436 -7.119 0
M  V30 5041 H 472.48 0.562207 -0.375365 0
M  V30 5042 H 475.034 1.26113 -1.62125 0
M  V30 5043 H 473.264 3.73734 -0.992981 0
M  V30 5044 H 474.953 3.80775 -1.40589 0
M  V30 5045 H 475.719 3.05004 -3.77091 0
M  V30 5046 H 471.598 3.70949 -2.73712 0
M  V30 5047 H 475.142 3.27141 -6.16137 0
M  V30 5048 H 471.039 3.93266 -5.11872 0
M  V30 5049 H 471.807 3.90328 -7.19435 0
M  V30 5050 N 474.47 1.03057 1.19235 0
M  V30 5051 C 475.719 0.72326 1.88287 0
M  V30 5052 C 476.032 -0.751333 1.80594 0
M  V30 5053 O 477.238 -1.17176 2.44912 0
M  V30 5054 C 475.694 1.24338 3.3774 0
M  V30 5055 C 475.302 2.74587 3.53986 0
M  V30 5056 C 477.046 1.01213 4.12257 0
M  V30 5057 C 474.953 3.20009 4.97341 0
M  V30 5058 H 473.883 0.266848 0.705201 0
M  V30 5059 H 476.534 1.24509 1.34795 0
M  V30 5060 H 474.916 0.649457 3.90638 0
M  V30 5061 H 476.09 3.39649 3.11408 0
M  V30 5062 H 474.405 2.9601 2.9286 0
M  V30 5063 H 477.002 1.32675 5.17978 0
M  V30 5064 H 477.345 -0.051001 4.16269 0
M  V30 5065 H 477.878 1.57014 3.65501 0
M  V30 5066 H 474.617 4.25659 4.98493 0
M  V30 5067 H 474.137 2.59676 5.40674 0
M  V30 5068 H 475.816 3.13447 5.66003 0
M  V30 5069 N 475.948 -1.35272 0.808662 0
M  V30 5070 C 476.896 -2.31663 0.208606 0
M  V30 5071 C 477.89 -1.56731 -0.642778 0
M  V30 5072 O 479.096 -1.71843 -0.53571 0
M  V30 5073 H 475.471 -0.750421 0.0486993 0
M  V30 5074 H 477.442 -2.79814 1.03666 0
M  V30 5075 C 476.191 -3.42008 -0.626573 0
M  V30 5076 H 475.514 -3.99795 0.0192103 0
M  V30 5077 H 476.954 -4.11727 -1.01278 0
M  V30 5078 C 475.413 -2.85226 -1.79298 0
M  V30 5079 O 475.943 -2.78945 -2.89055 0
M  V30 5080 N 474.149 -2.42245 -1.60516 0
M  V30 5081 H 473.696 -2.47554 -0.712375 0
M  V30 5082 H 473.654 -2.04603 -2.38715 0
M  V30 5083 N 477.426 -0.562348 -1.47226 0
M  V30 5084 C 478.654 -0.0452275 -2.06851 0
M  V30 5085 C 479.069 1.25078 -1.41424 0
M  V30 5086 O 478.426 1.75156 -0.512513 0
M  V30 5087 C 478.477 0.148674 -3.61194 0
M  V30 5088 O 478.198 -1.09602 -4.24169 0
M  V30 5089 C 479.699 0.702488 -4.37699 0
M  V30 5090 H 476.919 -0.0481775 -0.669268 0
M  V30 5091 H 479.463 -0.777223 -1.89155 0
M  V30 5092 H 477.618 0.830817 -3.78386 0
M  V30 5093 H 478.032 -0.896982 -5.16773 0
M  V30 5094 H 479.506 0.78743 -5.46355 0
M  V30 5095 H 479.983 1.71493 -4.04335 0
M  V30 5096 H 480.589 0.0558772 -4.25263 0
M  V30 5097 N 478.904 1.54736 -0.299062 0
M  V30 5098 C 479.814 2.27127 0.587413 0
M  V30 5099 C 480.83 1.30575 1.15005 0
M  V30 5100 O 482.006 1.63554 1.17525 0
M  V30 5101 C 479.071 2.99645 1.74395 0
M  V30 5102 C 478.132 4.11731 1.21559 0
M  V30 5103 C 477.365 4.80781 2.317 0
M  V30 5104 O 477.588 4.4918 3.51558 0
M  V30 5105 O 476.522 5.68226 1.98501 0
M  V30 5106 H 480.348 3.037 0.000250109 0
M  V30 5107 H 477.933 1.49256 -0.0655919 0
M  V30 5108 H 479.815 3.45138 2.4178 0
M  V30 5109 H 478.49 2.25969 2.31775 0
M  V30 5110 H 477.397 3.70641 0.507514 0
M  V30 5111 H 478.73 4.87379 0.687233 0
M  V30 5112 N 480.382 0.0267497 1.57577 0
M  V30 5113 C 481.659 -0.690926 1.82991 0
M  V30 5114 C 482.039 -1.90471 0.910164 0
M  V30 5115 O 481.387 -2.28474 -0.0347985 0
M  V30 5116 C 481.597 -1.07139 3.32148 0
M  V30 5117 C 482.945 -1.46402 3.98562 0
M  V30 5118 O 483.969 -1.16443 3.36629 0
M  V30 5119 O 482.828 -2.02214 5.07712 0
M  V30 5120 H 479.922 -0.338747 0.75444 0
M  V30 5121 H 482.468 0.0542506 1.69613 0
M  V30 5122 H 481.24 -0.207394 3.9075 0
M  V30 5123 H 480.863 -1.87481 3.50623 0
M  V30 5124 N 481.861 -1.55662 -0.24637 0
M  V30 5125 C 483.086 -1.81914 -0.996093 0
M  V30 5126 C 483.511 -0.603875 -1.78143 0
M  V30 5127 O 482.869 0.447091 -1.75701 0
M  V30 5128 C 482.917 -3.05908 -1.90925 0
M  V30 5129 O 482.021 -2.82861 -3.00105 0
M  V30 5130 H 481.362 -0.600481 -0.283406 0
M  V30 5131 H 483.892 -2.02848 -0.267199 0
M  V30 5132 H 483.902 -3.35356 -2.3238 0
M  V30 5133 H 482.577 -3.93999 -1.33183 0
M  V30 5134 H 481.154 -2.64583 -2.62775 0
M  V30 5135 N 483.339 0.512053 -1.4905 0
M  V30 5136 C 484.755 0.84224 -1.35567 0
M  V30 5137 C 484.955 1.97878 -0.380319 0
M  V30 5138 O 484.011 2.51769 0.19201 0
M  V30 5139 C 485.324 1.19286 -2.76028 0
M  V30 5140 C 486.872 1.30171 -2.84648 0
M  V30 5141 C 487.347 1.68568 -4.25851 0
M  V30 5142 N 488.838 1.75638 -4.28609 0
M  V30 5143 C 489.573 2.06769 -5.34821 0
M  V30 5144 N 489.069 2.36201 -6.51292 0
M  V30 5145 N 490.862 2.07927 -5.22229 0
M  V30 5146 H 483.013 -0.237574 -2.11067 0
M  V30 5147 H 485.276 -0.0436747 -0.946993 0
M  V30 5148 H 484.982 0.431199 -3.49047 0
M  V30 5149 H 484.856 2.13889 -3.10695 0
M  V30 5150 H 487.243 2.05411 -2.11873 0
M  V30 5151 H 487.324 0.336457 -2.53578 0
M  V30 5152 H 486.968 0.938824 -4.99148 0
M  V30 5153 H 486.898 2.66174 -4.54377 0
M  V30 5154 H 489.389 1.55097 -3.44606 0
M  V30 5155 H 489.702 2.59112 -7.28066 0
M  V30 5156 H 488.047 2.33681 -6.54536 0
M  V30 5157 H 491.238 1.84403 -4.30248 0
M  V30 5158 H 491.411 2.31856 -6.05101 0
M  V30 5159 N 484.817 1.37938 0.762283 0
M  V30 5160 C 485.75 1.2884 1.88349 0
M  V30 5161 C 486.728 0.167084 1.61739 0
M  V30 5162 O 487.912 0.34292 1.85355 0
M  V30 5163 C 485.039 0.994257 3.23778 0
M  V30 5164 C 484.085 2.13376 3.69287 0
M  V30 5165 S 484.918 3.75439 3.81845 0
M  V30 5166 C 486.074 3.48195 5.20107 0
M  V30 5167 H 486.307 2.23736 1.95779 0
M  V30 5168 H 483.84 1.23672 0.924368 0
M  V30 5169 H 485.798 0.83138 4.01993 0
M  V30 5170 H 484.459 0.0626251 3.14038 0
M  V30 5171 H 483.652 1.88319 4.67495 0
M  V30 5172 H 483.254 2.25726 2.98201 0
M  V30 5173 H 485.546 3.0377 6.05583 0
M  V30 5174 H 486.489 4.45765 5.50181 0
M  V30 5175 H 486.897 2.82905 4.88493 0
M  V30 5176 N 486.295 -0.989507 1.22664 0
M  V30 5177 C 487.228 -2.07805 0.942985 0
M  V30 5178 C 488.206 -1.6219 -0.115356 0
M  V30 5179 O 489.39 -1.88492 0.0169565 0
M  V30 5180 C 486.517 -3.361 0.418898 0
M  V30 5181 C 485.563 -4.00643 1.46244 0
M  V30 5182 S 486.396 -4.41059 3.03689 0
M  V30 5183 C 487.552 -5.7252 2.52927 0
M  V30 5184 H 487.785 -2.31547 1.86476 0
M  V30 5185 H 485.318 -1.12446 1.05808 0
M  V30 5186 H 487.276 -4.10315 0.123114 0
M  V30 5187 H 485.937 -3.10383 -0.481818 0
M  V30 5188 H 485.13 -4.93033 1.04569 0
M  V30 5189 H 484.732 -3.32767 1.7071 0
M  V30 5190 H 487.024 -6.49017 1.94379 0
M  V30 5191 H 487.967 -6.19026 3.4382 0
M  V30 5192 H 488.375 -5.30083 1.94094 0
M  V30 5193 N 487.773 -1.03688 -1.18687 0
M  V30 5194 C 489.003 -0.756819 -1.92239 0
M  V30 5195 C 489.411 0.689374 -1.76194 0
M  V30 5196 O 488.754 1.48126 -1.08648 0
M  V30 5197 C 488.816 -1.03851 -3.44173 0
M  V30 5198 C 488.48 -2.47785 -3.83994 0
M  V30 5199 C 489.477 -3.4595 -3.88091 0
M  V30 5200 C 487.162 -2.82397 -4.154 0
M  V30 5201 C 489.156 -4.76779 -4.23038 0
M  V30 5202 C 486.843 -4.13433 -4.50018 0
M  V30 5203 C 487.841 -5.10434 -4.53813 0
M  V30 5204 O 487.529 -6.39122 -4.87625 0
M  V30 5205 H 487.261 -0.275678 -0.617234 0
M  V30 5206 H 489.815 -1.38658 -1.51536 0
M  V30 5207 H 488.045 -0.351612 -3.85098 0
M  V30 5208 H 489.734 -0.746846 -3.9897 0
M  V30 5209 H 490.5 -3.20549 -3.63969 0
M  V30 5210 H 486.379 -2.07568 -4.11627 0
M  V30 5211 H 489.923 -5.52488 -4.25914 0
M  V30 5212 H 485.82 -4.38604 -4.736 0
M  V30 5213 H 486.588 -6.43715 -5.05542 0
M  V30 5214 N 489.251 1.34841 -0.815825 0
M  V30 5215 C 490.498 1.98499 -0.400535 0
M  V30 5216 C 490.826 1.64699 1.03463 0
M  V30 5217 O 490.081 0.907006 1.73412 0
M  V30 5218 C 490.38 3.53273 -0.541541 0
M  V30 5219 C 490.046 4.06966 -1.94138 0
M  V30 5220 C 488.708 4.21341 -2.32433 0
M  V30 5221 C 491.06 4.35933 -2.85677 0
M  V30 5222 C 488.388 4.62007 -3.61617 0
M  V30 5223 C 490.74 4.78042 -4.14317 0
M  V30 5224 C 489.404 4.90622 -4.52599 0
M  V30 5225 H 488.674 0.72636 -0.146566 0
M  V30 5226 H 491.321 1.60902 -1.0384 0
M  V30 5227 H 489.626 3.91387 0.179741 0
M  V30 5228 H 491.323 4.00497 -0.20085 0
M  V30 5229 H 487.913 3.96235 -1.63388 0
M  V30 5230 H 492.097 4.24372 -2.57337 0
M  V30 5231 H 487.353 4.69937 -3.91113 0
M  V30 5232 H 491.527 4.99415 -4.85342 0
M  V30 5233 H 489.154 5.2189 -5.52752 0
M  V30 5234 N 490.729 0.570148 1.46925 0
M  V30 5235 C 491.954 0.0542592 2.07329 0
M  V30 5236 C 492.379 -1.23582 1.41806 0
M  V30 5237 O 491.737 -1.74341 0.497479 0
M  V30 5238 C 491.785 -0.111175 3.60429 0
M  V30 5239 O 490.889 -1.17071 3.95434 0
M  V30 5240 H 490.23 0.0571425 0.661537 0
M  V30 5241 H 492.76 0.789516 1.88753 0
M  V30 5242 H 492.77 -0.321315 4.06733 0
M  V30 5243 H 491.445 0.831012 4.07513 0
M  V30 5244 H 490.022 -0.940029 3.60857 0
M  V30 5245 N 492.207 -1.54576 0.307264 0
M  V30 5246 C 493.139 -2.21212 -0.599807 0
M  V30 5247 C 494.152 -1.20685 -1.09266 0
M  V30 5248 O 495.341 -1.47244 -1.00903 0
M  V30 5249 C 492.441 -2.84994 -1.83389 0
M  V30 5250 C 491.614 -4.11511 -1.48248 0
M  V30 5251 C 490.673 -4.59038 -2.57237 0
M  V30 5252 O 489.699 -5.24095 -2.22065 0
M  V30 5253 N 490.901 -4.31884 -3.87887 0
M  V30 5254 H 493.666 -2.99686 -0.0293075 0
M  V30 5255 H 491.227 -1.61379 0.129738 0
M  V30 5256 H 493.219 -3.1372 -2.5566 0
M  V30 5257 H 491.789 -2.10324 -2.31263 0
M  V30 5258 H 491.009 -3.89728 -0.592122 0
M  V30 5259 H 492.297 -4.93879 -1.22316 0
M  V30 5260 H 491.695 -3.79778 -4.19268 0
M  V30 5261 H 490.252 -4.65304 -4.56438 0
M  V30 5262 N 493.685 -0.035106 -1.57561 0
M  V30 5263 C 494.915 0.651312 -1.96065 0
M  V30 5264 C 495.323 1.6585 -0.910514 0
M  V30 5265 O 494.666 1.83336 0.11552 0
M  V30 5266 C 494.728 1.40897 -3.30739 0
M  V30 5267 C 494.392 0.559436 -4.53563 0
M  V30 5268 C 495.389 -0.16778 -5.19629 0
M  V30 5269 C 493.074 0.495079 -4.99854 0
M  V30 5270 C 495.068 -0.947963 -6.30311 0
M  V30 5271 C 492.755 -0.288804 -6.10417 0
M  V30 5272 C 493.753 -1.00903 -6.75505 0
M  V30 5273 O 493.441 -1.78005 -7.83945 0
M  V30 5274 H 493.173 0.184036 -0.650467 0
M  V30 5275 H 495.727 -0.0929677 -2.05189 0
M  V30 5276 H 493.957 2.19852 -3.18123 0
M  V30 5277 H 495.646 1.98407 -3.54104 0
M  V30 5278 H 496.412 -0.12743 -4.84833 0
M  V30 5279 H 492.291 1.04524 -4.48994 0
M  V30 5280 H 495.835 -1.51064 -6.81047 0
M  V30 5281 H 491.732 -0.33085 -6.44652 0
M  V30 5282 H 492.5 -1.70046 -8.00641 0
M  V30 5283 N 495.163 1.55791 0.238111 0
M  V30 5284 C 496.41 1.78033 0.964907 0
M  V30 5285 C 496.738 0.600984 1.84982 0
M  V30 5286 O 495.993 -0.41536 1.91241 0
M  V30 5287 C 496.292 3.05869 1.84875 0
M  V30 5288 C 495.958 4.36808 1.11846 0
M  V30 5289 C 494.62 4.72388 0.916662 0
M  V30 5290 C 496.972 5.17717 0.60151 0
M  V30 5291 C 494.3 5.86406 0.185756 0
M  V30 5292 C 496.652 6.32494 -0.115972 0
M  V30 5293 C 495.316 6.66688 -0.329168 0
M  V30 5294 H 494.586 0.651469 0.353085 0
M  V30 5295 H 497.233 1.90061 0.234318 0
M  V30 5296 H 495.538 2.88891 2.64668 0
M  V30 5297 H 497.235 3.20278 2.41294 0
M  V30 5298 H 493.825 4.08862 1.28569 0
M  V30 5299 H 498.009 4.90678 0.744932 0
M  V30 5300 H 493.265 6.11399 0.0101886 0
M  V30 5301 H 497.439 6.94425 -0.524127 0
M  V30 5302 H 495.066 7.54884 -0.897474 0
M  V30 5303 N 496.642 -0.504142 1.49319 0
M  V30 5304 C 497.59 -1.62689 1.66238 0
M  V30 5305 C 498.584 -1.6095 0.528349 0
M  V30 5306 O 499.79 -1.65496 0.707887 0
M  V30 5307 H 496.165 -0.539247 0.524134 0
M  V30 5308 H 498.136 -1.45571 2.60484 0
M  V30 5309 C 496.885 -3.00841 1.74328 0
M  V30 5310 H 496.208 -3.02884 2.60963 0
M  V30 5311 H 497.648 -3.78945 1.90202 0
M  V30 5312 C 496.107 -3.33355 0.487416 0
M  V30 5313 O 496.637 -3.99819 -0.388294 0
M  V30 5314 N 494.843 -2.88469 0.351306 0
M  V30 5315 H 494.39 -2.34557 1.06492 0
M  V30 5316 H 494.348 -3.10591 -0.487899 0
M  V30 5317 N 498.12 -1.38341 -0.754957 0
M  V30 5318 C 499.369 -1.33791 -1.5094 0
M  V30 5319 C 499.682 0.0699267 -1.95475 0
M  V30 5320 O 500.888 0.237956 -2.70455 0
M  V30 5321 C 499.344 -2.34934 -2.72643 0
M  V30 5322 C 498.952 -3.81332 -2.35138 0
M  V30 5323 C 500.696 -2.39425 -3.50536 0
M  V30 5324 C 498.603 -4.74164 -3.53444 0
M  V30 5325 H 497.533 -0.497314 -0.566741 0
M  V30 5326 H 500.184 -1.63888 -0.825403 0
M  V30 5327 H 498.566 -1.97878 -3.43017 0
M  V30 5328 H 499.74 -4.27319 -1.7244 0
M  V30 5329 H 498.055 -3.79946 -1.70382 0
M  V30 5330 H 500.652 -3.0598 -4.38498 0
M  V30 5331 H 500.995 -1.41278 -3.91594 0
M  V30 5332 H 501.528 -2.75274 -2.87174 0
M  V30 5333 H 498.267 -5.73501 -3.17453 0
M  V30 5334 H 497.787 -4.3287 -4.15191 0
M  V30 5335 H 499.466 -4.92111 -4.20043 0
M  V30 5336 N 499.598 0.982988 -1.23187 0
M  V30 5337 C 500.844 1.72648 -1.06398 0
M  V30 5338 C 501.177 1.90066 0.398561 0
M  V30 5339 O 500.452 1.45105 1.29518 0
M  V30 5340 C 500.735 3.12627 -1.78707 0
M  V30 5341 C 500.588 3.02795 -3.32618 0
M  V30 5342 C 501.907 4.11997 -1.54747 0
M  V30 5343 H 499.026 0.626649 -0.387918 0
M  V30 5344 H 501.668 1.14455 -1.51658 0
M  V30 5345 H 499.818 3.62308 -1.40234 0
M  V30 5346 H 501.49 2.60659 -3.80598 0
M  V30 5347 H 499.733 2.39362 -3.61785 0
M  V30 5348 H 500.404 4.01893 -3.78399 0
M  V30 5349 H 502.88 3.71114 -1.88186 0
M  V30 5350 H 501.756 5.08037 -2.07821 0
M  V30 5351 H 502.017 4.39462 -0.482249 0
M  V30 5352 N 501.076 1.04316 1.18135 0
M  V30 5353 C 502.039 0.640794 2.2006 0
M  V30 5354 C 503.039 -0.303124 1.57917 0
M  V30 5355 O 504.229 -0.0881855 1.73977 0
M  V30 5356 C 501.361 -0.060148 3.40847 0
M  V30 5357 H 502.554 1.54281 2.57172 0
M  V30 5358 H 500.107 0.836004 1.32063 0
M  V30 5359 H 500.842 -0.975845 3.0927 0
M  V30 5360 H 500.627 0.618319 3.87194 0
M  V30 5361 H 502.117 -0.328082 4.16309 0
M  V30 5362 N 502.554 -1.34406 0.822964 0
M  V30 5363 C 503.484 -2.32052 0.259608 0
M  V30 5364 C 504.465 -1.58243 -0.623961 0
M  V30 5365 O 505.65 -1.86224 -0.55083 0
M  V30 5366 C 502.78 -3.42434 -0.579314 0
M  V30 5367 C 501.734 -4.27499 0.20712 0
M  V30 5368 C 501.06 -5.29349 -0.754547 0
M  V30 5369 C 502.36 -5.02758 1.41533 0
M  V30 5370 H 504.054 -2.79418 1.07545 0
M  V30 5371 H 501.6 -1.34338 0.518593 0
M  V30 5372 H 503.553 -4.0976 -0.983612 0
M  V30 5373 H 502.277 -2.93717 -1.4282 0
M  V30 5374 H 500.936 -3.61776 0.592787 0
M  V30 5375 H 500.584 -4.76895 -1.59939 0
M  V30 5376 H 500.284 -5.8714 -0.232561 0
M  V30 5377 H 501.808 -5.99544 -1.1567 0
M  V30 5378 H 503.222 -5.62938 1.08504 0
M  V30 5379 H 501.619 -5.70123 1.87296 0
M  V30 5380 H 502.689 -4.32451 2.1935 0
M  V30 5381 N 504.032 -0.577932 -1.46621 0
M  V30 5382 C 504.964 0.195801 -2.28362 0
M  V30 5383 C 505.977 0.859983 -1.38232 0
M  V30 5384 O 507.166 0.730349 -1.62875 0
M  V30 5385 C 504.266 1.29639 -3.13124 0
M  V30 5386 C 503.439 0.725049 -4.31349 0
M  V30 5387 C 502.498 1.71274 -4.97546 0
M  V30 5388 O 501.524 1.25067 -5.5529 0
M  V30 5389 N 502.726 3.04672 -4.94121 0
M  V30 5390 H 505.491 -0.505468 -2.95407 0
M  V30 5391 H 503.052 -0.415381 -1.56481 0
M  V30 5392 H 505.044 1.95631 -3.54275 0
M  V30 5393 H 503.614 1.90059 -2.48186 0
M  V30 5394 H 502.834 -0.112205 -3.9404 0
M  V30 5395 H 504.122 0.323034 -5.07774 0
M  V30 5396 H 503.52 3.4484 -4.48444 0
M  V30 5397 H 502.077 3.66166 -5.39227 0
M  V30 5398 N 505.51 1.54411 -0.315457 0
M  V30 5399 C 506.44 2.27002 0.547039 0
M  V30 5400 C 507.421 1.27492 1.12605 0
M  V30 5401 O 508.606 1.5629 1.15269 0
M  V30 5402 C 505.736 3.02171 1.71201 0
M  V30 5403 C 504.69 4.0895 1.26268 0
M  V30 5404 C 504.016 4.71915 2.51396 0
M  V30 5405 C 505.316 5.20891 0.383419 0
M  V30 5406 H 507.01 2.99343 -0.0584517 0
M  V30 5407 H 504.556 1.4397 -0.0295527 0
M  V30 5408 H 506.509 3.51681 2.32161 0
M  V30 5409 H 505.233 2.27433 2.34397 0
M  V30 5410 H 503.892 3.60312 0.676062 0
M  V30 5411 H 503.54 3.93801 3.12937 0
M  V30 5412 H 503.24 5.44039 2.22026 0
M  V30 5413 H 504.764 5.24195 3.13133 0
M  V30 5414 H 506.178 5.66206 0.899082 0
M  V30 5415 H 504.575 5.99821 0.182857 0
M  V30 5416 H 505.645 4.81324 -0.587821 0
M  V30 5417 N 506.988 0.0434614 1.5754 0
M  V30 5418 C 508.235 -0.632035 1.92384 0
M  V30 5419 C 508.563 -1.71304 0.921157 0
M  V30 5420 O 507.818 -1.95583 -0.067744 0
M  V30 5421 C 508.117 -1.2738 3.3393 0
M  V30 5422 C 507.783 -0.321757 4.49751 0
M  V30 5423 C 506.445 -0.0597611 4.81163 0
M  V30 5424 C 508.797 0.331158 5.20147 0
M  V30 5425 C 506.125 0.862715 5.80322 0
M  V30 5426 C 508.477 1.24178 6.20292 0
M  V30 5427 C 507.141 1.51252 6.50138 0
M  V30 5428 H 506.411 -0.231278 0.703983 0
M  V30 5429 H 509.058 0.108294 1.91194 0
M  V30 5430 H 507.363 -2.08921 3.3145 0
M  V30 5431 H 509.06 -1.80326 3.58167 0
M  V30 5432 H 505.65 -0.53614 4.25233 0
M  V30 5433 H 509.834 0.141826 4.96097 0
M  V30 5434 H 505.09 1.08003 6.01785 0
M  V30 5435 H 509.264 1.75381 6.73954 0
M  V30 5436 H 506.891 2.22897 7.26788 0
M  V30 5437 N 508.466 -1.55915 -0.229846 0
M  V30 5438 C 509.696 -1.82352 -0.971152 0
M  V30 5439 C 510.104 -0.619231 -1.7878 0
M  V30 5440 O 509.447 0.421597 -1.78797 0
M  V30 5441 C 509.509 -3.02399 -1.9441 0
M  V30 5442 C 509.173 -4.37739 -1.31277 0
M  V30 5443 C 510.17 -5.15074 -0.706757 0
M  V30 5444 C 507.855 -4.84454 -1.32702 0
M  V30 5445 C 509.849 -6.37281 -0.123413 0
M  V30 5446 C 507.536 -6.06605 -0.739831 0
M  V30 5447 C 508.534 -6.82858 -0.139071 0
M  V30 5448 O 508.222 -8.027 0.439007 0
M  V30 5449 H 507.954 -0.61035 -0.290601 0
M  V30 5450 H 510.508 -2.03839 -0.252746 0
M  V30 5451 H 508.738 -2.76709 -2.70128 0
M  V30 5452 H 510.427 -3.15779 -2.55026 0
M  V30 5453 H 511.193 -4.80093 -0.688131 0
M  V30 5454 H 507.072 -4.25081 -1.78402 0
M  V30 5455 H 510.616 -6.96741 0.346124 0
M  V30 5456 H 506.513 -6.4106 -0.755841 0
M  V30 5457 H 507.281 -8.17824 0.332521 0
M  V30 5458 N 509.944 0.496216 -1.49584 0
M  V30 5459 C 510.874 1.60576 -1.69521 0
M  V30 5460 C 511.855 1.61169 -0.543933 0
M  V30 5461 O 513.04 1.77834 -0.78031 0
M  V30 5462 C 510.17 2.99038 -1.76616 0
M  V30 5463 C 509.124 3.13312 -2.91581 0
M  V30 5464 C 508.45 4.53172 -2.83794 0
M  V30 5465 C 509.75 2.92886 -4.32452 0
M  V30 5466 H 511.444 1.44146 -2.62416 0
M  V30 5467 H 508.99 0.692024 -1.26282 0
M  V30 5468 H 510.943 3.76564 -1.8915 0
M  V30 5469 H 509.667 3.16568 -0.80324 0
M  V30 5470 H 508.326 2.38213 -2.78658 0
M  V30 5471 H 507.974 4.67585 -1.854 0
M  V30 5472 H 507.674 4.63662 -3.60958 0
M  V30 5473 H 509.198 5.32752 -2.98342 0
M  V30 5474 H 510.612 3.60178 -4.46032 0
M  V30 5475 H 509.009 3.14844 -5.10875 0
M  V30 5476 H 510.079 1.88966 -4.46565 0
M  V30 5477 N 511.423 1.38739 0.74761 0
M  V30 5478 C 512.648 1.38702 1.54197 0
M  V30 5479 C 513.073 -0.019664 1.8809 0
M  V30 5480 O 512.431 -1.00333 1.51006 0
M  V30 5481 C 512.479 2.25492 2.814 0
M  V30 5482 O 511.583 1.67613 3.76802 0
M  V30 5483 H 510.924 0.472863 0.466151 0
M  V30 5484 H 513.454 1.82577 0.923413 0
M  V30 5485 H 513.464 2.39561 3.30264 0
M  V30 5486 H 512.139 3.27727 2.56062 0
M  V30 5487 H 510.716 1.62718 3.35526 0
M  V30 5488 N 512.901 -0.976442 1.23707 0
M  V30 5489 C 513.864 -2.0511 1.02287 0
M  V30 5490 C 514.864 -1.60791 -0.0167195 0
M  V30 5491 O 516.054 -1.72761 0.223408 0
M  V30 5492 C 513.186 -3.36458 0.548507 0
M  V30 5493 H 514.379 -2.25545 1.9766 0
M  V30 5494 H 511.932 -1.15042 1.05806 0
M  V30 5495 H 512.667 -3.21713 -0.408818 0
M  V30 5496 H 512.452 -3.69967 1.29874 0
M  V30 5497 H 513.942 -4.15489 0.419406 0
M  V30 5498 N 514.379 -1.04941 -1.1758 0
M  V30 5499 C 515.604 -0.778253 -1.92245 0
M  V30 5500 C 516.029 0.659707 -1.76152 0
M  V30 5501 O 515.387 1.45803 -1.07755 0
M  V30 5502 C 515.435 -1.16051 -3.41416 0
M  V30 5503 O 514.539 -0.291153 -4.11371 0
M  V30 5504 H 513.88 -0.285619 -0.599431 0
M  V30 5505 H 516.41 -1.40159 -1.49052 0
M  V30 5506 H 516.42 -1.12619 -3.92149 0
M  V30 5507 H 515.095 -2.208 -3.52449 0
M  V30 5508 H 513.672 -0.385851 -3.70898 0
M  V30 5509 N 515.857 1.33968 -0.830081 0
M  V30 5510 C 517.106 1.97323 -0.417928 0
M  V30 5511 C 517.419 1.6652 1.02618 0
M  V30 5512 O 518.625 2.2342 1.54259 0
M  V30 5513 C 517.081 3.53099 -0.696359 0
M  V30 5514 C 516.689 3.92788 -2.15457 0
M  V30 5515 C 518.433 4.23049 -0.350724 0
M  V30 5516 C 516.34 5.41506 -2.37751 0
M  V30 5517 H 515.27 0.738409 -0.152541 0
M  V30 5518 H 517.921 1.52711 -1.01744 0
M  V30 5519 H 516.303 3.95991 -0.0265904 0
M  V30 5520 H 517.477 3.6098 -2.86408 0
M  V30 5521 H 515.792 3.35795 -2.46232 0
M  V30 5522 H 518.389 5.32403 -0.495036 0
M  V30 5523 H 518.732 4.10279 0.705476 0
M  V30 5524 H 519.265 3.85657 -0.975362 0
M  V30 5525 H 516.004 5.5927 -3.41903 0
M  V30 5526 H 515.524 5.74804 -1.7135 0
M  V30 5527 H 517.203 6.0828 -2.20465 0
M  V30 5528 N 517.335 0.585699 1.46312 0
M  V30 5529 C 518.283 -0.158577 2.32059 0
M  V30 5530 C 519.277 -0.881427 1.44662 0
M  V30 5531 O 520.483 -0.799476 1.61271 0
M  V30 5532 H 516.858 -0.0700066 0.748734 0
M  V30 5533 H 518.829 0.583383 2.92642 0
M  V30 5534 C 517.578 -1.15701 3.27885 0
M  V30 5535 H 516.901 -0.610215 3.95116 0
M  V30 5536 H 518.341 -1.64812 3.90657 0
M  V30 5537 C 516.8 -2.21951 2.53455 0
M  V30 5538 O 517.33 -3.29352 2.29978 0
M  V30 5539 N 515.536 -1.9664 2.13965 0
M  V30 5540 H 515.083 -1.09309 2.33258 0
M  V30 5541 H 515.041 -2.6794 1.64485 0
M  V30 5542 N 518.813 -1.54241 0.323641 0
M  V30 5543 C 520.224 -1.85975 -0.164405 0
M  V30 5544 C 520.575 -1.24529 -1.51615 0
M  V30 5545 O 519.7 -0.551351 -2.09258 0
M  V30 5546 C 520.295 -3.37424 -0.305091 0
M  V30 5547 C 518.854 -3.69107 -0.737358 0
M  V30 5548 C 518.001 -2.76942 0.140884 0
M  V30 5549 H 520.952 -1.49088 0.543922 0
M  V30 5550 H 520.973 -3.63147 -1.13598 0
M  V30 5551 H 520.485 -3.82116 0.678876 0
M  V30 5552 H 518.586 -3.29947 -1.73107 0
M  V30 5553 H 518.699 -4.76035 -0.541053 0
M  V30 5554 H 517.063 -2.51795 -0.383572 0
M  V30 5555 H 517.846 -3.24461 1.12162 0
M  V30 5556 N 520.291 -0.0518155 -1.57515 0
M  V30 5557 C 521.54 0.621286 -1.91893 0
M  V30 5558 C 521.853 1.71966 -0.932052 0
M  V30 5559 O 523.059 2.45096 -1.16791 0
M  V30 5560 C 521.515 1.15641 -3.40816 0
M  V30 5561 C 521.123 0.0901146 -4.47909 0
M  V30 5562 C 522.867 1.80472 -3.84227 0
M  V30 5563 C 520.774 0.638154 -5.87947 0
M  V30 5564 H 519.704 0.235835 -0.716169 0
M  V30 5565 H 522.355 -0.120809 -1.83102 0
M  V30 5566 H 520.737 1.95084 -3.44613 0
M  V30 5567 H 521.911 -0.683525 -4.55702 0
M  V30 5568 H 520.226 -0.460774 -4.13843 0
M  V30 5569 H 522.823 2.22471 -4.86221 0
M  V30 5570 H 523.166 2.65669 -3.20508 0
M  V30 5571 H 523.699 1.07683 -3.82948 0
M  V30 5572 H 520.438 -0.176202 -6.55263 0
M  V30 5573 H 519.958 1.37976 -5.83714 0
M  V30 5574 H 521.637 1.12085 -6.37217 0
M  V30 5575 N 521.769 1.56035 0.221574 0
M  V30 5576 C 522.699 1.95434 1.2778 0
M  V30 5577 C 523.68 0.822564 1.48889 0
M  V30 5578 O 524.865 1.08486 1.61072 0
M  V30 5579 C 521.995 2.27102 2.62759 0
M  V30 5580 C 520.949 3.4277 2.56306 0
M  V30 5581 C 520.275 3.60043 3.95314 0
M  V30 5582 C 521.575 4.77742 2.11093 0
M  V30 5583 H 523.269 2.83912 0.950504 0
M  V30 5584 H 520.815 1.36596 0.455791 0
M  V30 5585 H 522.768 2.53256 3.36807 0
M  V30 5586 H 521.492 1.35478 2.97176 0
M  V30 5587 H 520.151 3.16664 1.84715 0
M  V30 5588 H 519.799 2.65794 4.27039 0
M  V30 5589 H 519.499 4.37841 3.91879 0
M  V30 5590 H 521.023 3.88545 4.71025 0
M  V30 5591 H 522.437 5.03102 2.74885 0
M  V30 5592 H 520.834 5.58823 2.18716 0
M  V30 5593 H 521.904 4.731 1.06321 0
M  V30 5594 N 523.247 -0.488276 1.49845 0
M  V30 5595 C 524.477 -1.26344 1.63465 0
M  V30 5596 C 524.885 -1.86637 0.310379 0
M  V30 5597 O 524.228 -1.69184 -0.715712 0
M  V30 5598 C 524.29 -2.42407 2.65479 0
M  V30 5599 C 523.954 -2.02886 4.09495 0
M  V30 5600 C 524.951 -1.56124 4.95904 0
M  V30 5601 C 522.636 -2.12131 4.55308 0
M  V30 5602 C 524.63 -1.19129 6.26169 0
M  V30 5603 C 522.317 -1.74747 5.85582 0
M  V30 5604 C 523.315 -1.28322 6.70837 0
M  V30 5605 O 523.003 -0.914491 7.98682 0
M  V30 5606 H 522.735 -0.388921 0.552916 0
M  V30 5607 H 525.289 -0.591288 1.96705 0
M  V30 5608 H 523.519 -3.12739 2.27445 0
M  V30 5609 H 525.208 -3.04409 2.68495 0
M  V30 5610 H 525.974 -1.48417 4.61733 0
M  V30 5611 H 521.853 -2.47217 3.89107 0
M  V30 5612 H 525.397 -0.828211 6.92666 0
M  V30 5613 H 521.294 -1.82109 6.19279 0
M  V30 5614 H 522.062 -1.04485 8.11804 0
M  V30 5615 N 524.725 -1.39134 -0.740242 0
M  V30 5616 C 525.673 -1.3757 -1.87556 0
M  V30 5617 C 526.667 -0.259593 -1.67399 0
M  V30 5618 O 527.873 -0.429349 -1.74804 0
M  V30 5619 H 524.248 -0.42947 -0.6173 0
M  V30 5620 H 526.219 -2.33345 -1.85991 0
M  V30 5621 C 524.968 -1.23087 -3.25184 0
M  V30 5622 H 524.291 -2.08237 -3.41288 0
M  V30 5623 H 525.731 -1.26049 -4.0483 0
M  V30 5624 C 524.19 0.0611471 -3.36845 0
M  V30 5625 O 524.72 1.03328 -3.88183 0
M  V30 5626 N 522.926 0.122454 -2.90342 0
M  V30 5627 H 522.473 -0.669329 -2.48752 0
M  V30 5628 H 522.431 0.986463 -2.98523 0
M  V30 5629 N 526.204 0.969867 -1.24223 0
M  V30 5630 C 527.134 2.08191 -1.05729 0
M  V30 5631 C 528.115 1.70075 0.0290765 0
M  V30 5632 O 529.3 1.93712 -0.137583 0
M  V30 5633 C 526.43 3.40991 -0.658995 0
M  V30 5634 C 525.384 3.93054 -1.69389 0
M  V30 5635 C 524.71 5.22171 -1.15072 0
M  V30 5636 C 526.01 4.21137 -3.08935 0
M  V30 5637 H 527.704 2.23921 -1.98746 0
M  V30 5638 H 525.25 1.07602 -0.956967 0
M  V30 5639 H 527.203 4.18221 -0.51662 0
M  V30 5640 H 525.927 3.25155 0.30686 0
M  V30 5641 H 524.586 3.17977 -1.82444 0
M  V30 5642 H 524.234 5.02694 -0.175539 0
M  V30 5643 H 523.934 5.57973 -1.84229 0
M  V30 5644 H 525.458 6.02013 -1.02042 0
M  V30 5645 H 526.872 4.8908 -2.99121 0
M  V30 5646 H 525.269 4.68163 -3.75425 0
M  V30 5647 H 526.339 3.27996 -3.57137 0
M  V30 5648 N 527.682 1.05563 1.17022 0
M  V30 5649 C 528.931 0.763036 1.8671 0
M  V30 5650 C 529.244 -0.712857 1.82147 0
M  V30 5651 O 530.45 -1.11955 2.47343 0
M  V30 5652 C 528.906 1.31474 3.35026 0
M  V30 5653 C 528.514 2.82034 3.48081 0
M  V30 5654 C 530.258 1.09935 4.10018 0
M  V30 5655 C 528.165 3.30486 4.90442 0
M  V30 5656 H 527.095 0.281747 0.699382 0
M  V30 5657 H 529.746 1.2734 1.32124 0
M  V30 5658 H 528.128 0.732171 3.89173 0
M  V30 5659 H 529.302 3.46178 3.04133 0
M  V30 5660 H 527.617 3.02156 2.86515 0
M  V30 5661 H 530.214 1.43632 5.15048 0
M  V30 5662 H 530.557 0.0373072 4.16283 0
M  V30 5663 H 531.09 1.64732 3.62089 0
M  V30 5664 H 527.829 4.36137 4.89352 0
M  V30 5665 H 527.349 2.71086 5.35044 0
M  V30 5666 H 529.028 3.25382 5.59227 0
M  V30 5667 N 529.16 -1.33526 0.837174 0
M  V30 5668 C 530.385 -2.0258 0.444545 0
M  V30 5669 C 530.81 -1.6258 -0.946006 0
M  V30 5670 O 530.168 -0.817548 -1.6182 0
M  V30 5671 C 530.216 -3.5605 0.571006 0
M  V30 5672 O 529.32 -4.10422 -0.403431 0
M  V30 5673 H 528.661 -0.638866 0.180958 0
M  V30 5674 H 531.191 -1.70462 1.13154 0
M  V30 5675 H 531.201 -4.05488 0.452024 0
M  V30 5676 H 529.876 -3.84509 1.58512 0
M  V30 5677 H 528.453 -3.72113 -0.242147 0
M  V30 5678 N 530.638 -0.59345 -1.46 0
M  V30 5679 C 531.585 0.133618 -2.30413 0
M  V30 5680 C 532.555 0.873736 -1.41262 0
M  V30 5681 O 533.74 0.862279 -1.70204 0
M  V30 5682 C 530.88 1.13434 -3.25924 0
M  V30 5683 C 529.993 0.39656 -4.30176 0
M  V30 5684 C 529.128 1.38575 -5.12806 0
M  V30 5685 C 528.167 0.634984 -6.08797 0
M  V30 5686 N 527.304 1.57276 -6.84258 0
M  V30 5687 H 532.144 -0.592252 -2.92055 0
M  V30 5688 H 529.681 -0.303874 -1.43927 0
M  V30 5689 H 531.639 1.72752 -3.79753 0
M  V30 5690 H 530.269 1.82779 -2.66067 0
M  V30 5691 H 529.321 -0.311861 -3.79119 0
M  V30 5692 H 530.633 -0.189869 -4.98438 0
M  V30 5693 H 529.787 2.05141 -5.70966 0
M  V30 5694 H 528.526 2.00611 -4.44529 0
M  V30 5695 H 527.531 -0.0443925 -5.49782 0
M  V30 5696 H 528.756 0.0198678 -6.79097 0
M  V30 5697 H 526.702 2.18103 -6.18682 0
M  V30 5698 H 526.619 1.03941 -7.48821 0
M  V30 5699 H 527.887 2.22844 -7.46968 0
M  V30 5700 N 532.116 1.54067 -0.331816 0
M  V30 5701 C 533.063 2.24623 0.530372 0
M  V30 5702 C 534.033 1.24009 1.10503 0
M  V30 5703 O 535.218 1.52712 1.14384 0
M  V30 5704 C 532.358 3.01374 1.68129 0
M  V30 5705 C 531.471 4.16821 1.13507 0
M  V30 5706 C 530.606 4.81085 2.25234 0
M  V30 5707 C 529.645 5.88621 1.67903 0
M  V30 5708 N 528.782 6.46713 2.73326 0
M  V30 5709 H 533.622 2.97898 -0.0778607 0
M  V30 5710 H 531.159 1.47014 -0.0501965 0
M  V30 5711 H 533.117 3.44125 2.35868 0
M  V30 5712 H 531.747 2.30419 2.26069 0
M  V30 5713 H 530.799 3.78796 0.348979 0
M  V30 5714 H 532.111 4.94203 0.675633 0
M  V30 5715 H 531.265 5.26846 3.00862 0
M  V30 5716 H 530.004 4.03102 2.74518 0
M  V30 5717 H 529.009 5.42254 0.907773 0
M  V30 5718 H 530.234 6.68506 1.19487 0
M  V30 5719 H 528.18 5.71599 3.21886 0
M  V30 5720 H 528.097 7.19532 2.3197 0
M  V30 5721 H 529.365 6.97129 3.48758 0
M  V30 5722 N 533.594 0.0601682 1.57485 0
M  V30 5723 C 534.824 -0.620037 1.97076 0
M  V30 5724 C 535.232 -1.64381 0.936784 0
M  V30 5725 O 534.575 -1.83497 -0.0863377 0
M  V30 5726 C 534.637 -1.35617 3.32939 0
M  V30 5727 C 534.301 -0.487208 4.54396 0
M  V30 5728 C 535.298 0.250428 5.19297 0
M  V30 5729 C 532.983 -0.415494 5.00579 0
M  V30 5730 C 534.977 1.04812 6.28723 0
M  V30 5731 C 532.664 0.385879 6.0988 0
M  V30 5732 C 533.662 1.11637 6.73815 0
M  V30 5733 O 533.35 1.90454 7.81014 0
M  V30 5734 H 533.082 -0.173664 0.653312 0
M  V30 5735 H 535.636 0.1256 2.05016 0
M  V30 5736 H 533.866 -2.14763 3.2158 0
M  V30 5737 H 535.555 -1.92749 3.57215 0
M  V30 5738 H 536.321 0.204546 4.84568 0
M  V30 5739 H 532.2 -0.973679 4.506 0
M  V30 5740 H 535.744 1.6188 6.78558 0
M  V30 5741 H 531.641 0.433366 6.44044 0
M  V30 5742 H 532.409 1.82762 7.97835 0
M  V30 5743 N 535.072 -1.5615 -0.213296 0
M  V30 5744 C 536.488 -1.49327 -0.56336 0
M  V30 5745 C 536.688 -0.756826 -1.86747 0
M  V30 5746 O 535.744 -0.299866 -2.50713 0
M  V30 5747 C 537.057 -2.9392 -0.634944 0
M  V30 5748 C 538.605 -3.04487 -0.725013 0
M  V30 5749 C 539.08 -4.50456 -0.82787 0
M  V30 5750 N 540.571 -4.54533 -0.891876 0
M  V30 5751 C 541.306 -5.64766 -0.991315 0
M  V30 5752 N 540.802 -6.84733 -1.05419 0
M  V30 5753 N 542.595 -5.52637 -1.02709 0
M  V30 5754 H 534.746 -2.02453 0.642366 0
M  V30 5755 H 537.009 -0.920548 0.226487 0
M  V30 5756 H 536.715 -3.50783 0.253859 0
M  V30 5757 H 536.589 -3.46274 -1.49579 0
M  V30 5758 H 538.976 -2.47685 -1.60425 0
M  V30 5759 H 539.057 -2.55289 0.161669 0
M  V30 5760 H 538.701 -5.07878 0.0469464 0
M  V30 5761 H 538.631 -4.97369 -1.73009 0
M  V30 5762 H 541.122 -3.68141 -0.85327 0
M  V30 5763 H 541.435 -7.64493 -1.13007 0
M  V30 5764 H 539.78 -6.87427 -1.02318 0
M  V30 5765 H 542.971 -4.5784 -0.974687 0
M  V30 5766 H 543.144 -6.38576 -1.10113 0
M  V30 5767 N 536.55 0.480323 -1.50102 0
M  V30 5768 C 537.513 1.56181 -1.6775 0
M  V30 5769 C 538.513 1.51156 -0.548503 0
M  V30 5770 O 539.703 1.5394 -0.815363 0
M  V30 5771 C 536.835 2.95823 -1.69415 0
M  V30 5772 H 538.028 1.41855 -2.6423 0
M  V30 5773 H 535.581 0.70605 -1.39444 0
M  V30 5774 H 536.316 3.15604 -0.745948 0
M  V30 5775 H 536.101 3.00878 -2.51425 0
M  V30 5776 H 537.591 3.74359 -1.85054 0
M  V30 5777 N 538.028 1.39524 0.732853 0
M  V30 5778 C 538.991 1.38189 1.82857 0
M  V30 5779 C 539.991 0.278624 1.58368 0
M  V30 5780 O 541.181 0.536639 1.65728 0
M  V30 5781 C 538.313 1.15661 3.2068 0
M  V30 5782 H 539.506 2.35692 1.85444 0
M  V30 5783 H 537.059 1.2512 0.936728 0
M  V30 5784 H 537.794 0.188482 3.23752 0
M  V30 5785 H 537.579 1.95559 3.39852 0
M  V30 5786 H 539.069 1.17472 4.00737 0
M  V30 5787 N 539.506 -0.963266 1.24736 0
M  V30 5788 C 540.469 -2.04013 1.04457 0
M  V30 5789 C 541.469 -1.608 0.000335555 0
M  V30 5790 O 542.659 -1.72515 0.241719 0
M  V30 5791 C 539.791 -3.35858 0.584162 0
M  V30 5792 H 540.984 -2.23436 2.00041 0
M  V30 5793 H 538.537 -1.13914 1.07021 0
M  V30 5794 H 539.272 -3.22128 -0.374673 0
M  V30 5795 H 539.057 -3.68568 1.3379 0
M  V30 5796 H 540.547 -4.1502 0.463451 0
M  V30 5797 N 540.985 -1.06182 -1.16461 0
M  V30 5798 C 542.232 -0.777863 -1.86964 0
M  V30 5799 C 542.56 0.695602 -1.81636 0
M  V30 5800 O 541.815 1.52532 -1.22607 0
M  V30 5801 C 542.114 -1.21633 -3.36066 0
M  V30 5802 C 541.78 -2.69371 -3.61594 0
M  V30 5803 C 540.442 -3.09727 -3.6827 0
M  V30 5804 C 542.794 -3.64791 -3.7226 0
M  V30 5805 C 540.122 -4.44345 -3.83112 0
M  V30 5806 C 542.474 -4.99155 -3.88623 0
M  V30 5807 C 541.138 -5.39149 -3.93541 0
M  V30 5808 H 540.408 -0.28464 -0.68415 0
M  V30 5809 H 543.055 -1.33071 -1.37711 0
M  V30 5810 H 541.36 -0.582651 -3.87443 0
M  V30 5811 H 543.057 -0.973682 -3.88999 0
M  V30 5812 H 539.647 -2.37124 -3.57029 0
M  V30 5813 H 543.831 -3.34746 -3.66413 0
M  V30 5814 H 539.087 -4.74819 -3.85172 0
M  V30 5815 H 543.261 -5.72976 -3.95817 0
M  V30 5816 H 540.888 -6.43464 -4.04794 0
M  V30 5817 N 542.463 1.3308 -0.844243 0
M  V30 5818 C 543.41 2.29104 -0.279323 0
M  V30 5819 C 544.38 1.54577 0.607882 0
M  V30 5820 O 545.565 1.8285 0.545009 0
M  V30 5821 C 542.705 3.40927 0.53508 0
M  V30 5822 C 541.818 4.30354 -0.376749 0
M  V30 5823 C 540.953 5.29297 0.449276 0
M  V30 5824 C 539.992 6.10365 -0.460606 0
M  V30 5825 N 539.129 7.01335 0.327612 0
M  V30 5826 H 543.969 2.76817 -1.10346 0
M  V30 5827 H 541.506 1.36203 -0.555611 0
M  V30 5828 H 543.464 4.04469 1.02278 0
M  V30 5829 H 542.094 2.94391 1.32414 0
M  V30 5830 H 541.146 3.67485 -0.982791 0
M  V30 5831 H 542.458 4.87067 -1.07549 0
M  V30 5832 H 541.612 5.98392 1.00058 0
M  V30 5833 H 540.351 4.73174 1.18143 0
M  V30 5834 H 539.356 5.40182 -1.02388 0
M  V30 5835 H 540.581 6.68571 -1.1912 0
M  V30 5836 H 538.527 6.47655 1.04305 0
M  V30 5837 H 538.444 7.55355 -0.3123 0
M  V30 5838 H 539.712 7.74731 0.86098 0
M  V30 5839 N 543.941 0.601185 1.45683 0
M  V30 5840 C 544.871 -0.108824 2.33246 0
M  V30 5841 C 545.852 -0.865223 1.46451 0
M  V30 5842 O 547.037 -0.83704 1.75235 0
M  V30 5843 C 544.167 -1.11101 3.2905 0
M  V30 5844 C 543.121 -0.468244 4.25431 0
M  V30 5845 C 542.447 -1.57822 5.10878 0
M  V30 5846 C 543.747 0.606469 5.18767 0
M  V30 5847 H 545.441 0.622306 2.92861 0
M  V30 5848 H 542.987 0.300714 1.40825 0
M  V30 5849 H 544.94 -1.61622 3.89174 0
M  V30 5850 H 543.664 -1.87265 2.67581 0
M  V30 5851 H 542.323 0.0160484 3.66596 0
M  V30 5852 H 541.971 -2.32998 4.45781 0
M  V30 5853 H 541.671 -1.15369 5.76163 0
M  V30 5854 H 543.195 -2.08583 5.73869 0
M  V30 5855 H 544.609 0.185589 5.73 0
M  V30 5856 H 543.006 0.952381 5.92494 0
M  V30 5857 H 544.076 1.48559 4.61582 0
M  V30 5858 N 545.419 -1.53889 0.339982 0
M  V30 5859 C 546.349 -2.27843 -0.510856 0
M  V30 5860 C 547.33 -1.29267 -1.10563 0
M  V30 5861 O 548.515 -1.58104 -1.12768 0
M  V30 5862 C 545.645 -3.04857 -1.66372 0
M  V30 5863 C 544.599 -4.10907 -1.19746 0
M  V30 5864 C 543.925 -4.75855 -2.43857 0
M  V30 5865 C 545.225 -5.21435 -0.300501 0
M  V30 5866 H 546.919 -2.99212 0.106067 0
M  V30 5867 H 544.465 -1.43904 0.0524533 0
M  V30 5868 H 546.418 -3.5533 -2.26537 0
M  V30 5869 H 545.142 -2.31133 -2.30749 0
M  V30 5870 H 543.801 -3.61342 -0.618654 0
M  V30 5871 H 543.449 -3.9873 -3.06633 0
M  V30 5872 H 543.149 -5.47502 -2.13343 0
M  V30 5873 H 544.673 -5.2911 -3.04754 0
M  V30 5874 H 546.087 -5.67565 -0.80889 0
M  V30 5875 H 544.484 -6.00036 -0.0874076 0
M  V30 5876 H 545.554 -4.80328 0.664321 0
M  V30 5877 N 546.897 -0.0685191 -1.57451 0
M  V30 5878 C 547.827 0.89747 -2.15564 0
M  V30 5879 C 548.808 1.31266 -1.08181 0
M  V30 5880 O 549.993 1.38429 -1.36202 0
M  V30 5881 C 547.123 2.16623 -2.71463 0
M  V30 5882 C 546.077 1.89054 -3.83982 0
M  V30 5883 C 545.403 3.22532 -4.26471 0
M  V30 5884 C 546.703 1.1984 -5.08366 0
M  V30 5885 H 548.397 0.413373 -2.96533 0
M  V30 5886 H 545.943 0.197391 -1.42641 0
M  V30 5887 H 547.896 2.84614 -3.10761 0
M  V30 5888 H 546.62 2.67269 -1.8771 0
M  V30 5889 H 545.279 1.23469 -3.45183 0
M  V30 5890 H 544.927 3.71013 -3.39644 0
M  V30 5891 H 544.627 3.04879 -5.02317 0
M  V30 5892 H 546.151 3.91727 -4.68383 0
M  V30 5893 H 547.565 1.77896 -5.45001 0
M  V30 5894 H 545.962 1.12456 -5.89469 0
M  V30 5895 H 547.032 0.176996 -4.84577 0
M  V30 5896 N 548.375 1.56261 0.205012 0
M  V30 5897 C 549.338 1.92908 1.23771 0
M  V30 5898 C 550.338 0.809208 1.38955 0
M  V30 5899 O 551.528 1.07676 1.36936 0
M  V30 5900 C 548.66 2.19442 2.60879 0
M  V30 5901 H 549.853 2.85287 0.924728 0
M  V30 5902 H 547.406 1.49798 0.446125 0
M  V30 5903 H 548.141 1.29668 2.97248 0
M  V30 5904 H 547.926 3.0104 2.51232 0
M  V30 5905 H 549.416 2.48833 3.35368 0
M  V30 5906 N 549.853 -0.472356 1.50355 0
M  V30 5907 C 551.269 -0.806001 1.37753 0
M  V30 5908 C 551.469 -1.968 0.432649 0
M  V30 5909 O 550.525 -2.52189 -0.12519 0
M  V30 5910 C 551.838 -1.11926 2.79093 0
M  V30 5911 C 553.386 -1.22579 2.87999 0
M  V30 5912 C 553.861 -1.57218 4.3017 0
M  V30 5913 N 555.352 -1.64212 4.33115 0
M  V30 5914 C 556.087 -1.92517 5.40116 0
M  V30 5915 N 555.583 -2.1885 6.57325 0
M  V30 5916 N 557.376 -1.94008 5.27558 0
M  V30 5917 H 549.527 0.293451 2.10363 0
M  V30 5918 H 551.79 0.0687672 0.945503 0
M  V30 5919 H 551.496 -0.338504 3.50067 0
M  V30 5920 H 551.37 -2.05577 3.16256 0
M  V30 5921 H 553.757 -1.99722 2.17245 0
M  V30 5922 H 553.838 -0.269107 2.54381 0
M  V30 5923 H 553.482 -0.806154 5.01461 0
M  V30 5924 H 553.412 -2.54034 4.61275 0
M  V30 5925 H 555.903 -1.45906 3.48597 0
M  V30 5926 H 556.216 -2.39718 7.3468 0
M  V30 5927 H 554.561 -2.16245 6.60502 0
M  V30 5928 H 557.752 -1.72931 4.34986 0
M  V30 5929 H 557.925 -2.15731 6.11035 0
M  V30 5930 N 551.331 -1.39911 -0.725443 0
M  V30 5931 C 552.278 -1.39393 -1.83952 0
M  V30 5932 C 553.248 -0.252249 -1.64173 0
M  V30 5933 O 554.433 -0.44882 -1.85446 0
M  V30 5934 C 551.573 -1.25262 -3.21564 0
M  V30 5935 C 550.686 -2.49054 -3.52982 0
M  V30 5936 C 549.821 -2.27439 -4.80047 0
M  V30 5937 C 548.86 -3.46857 -5.04338 0
M  V30 5938 N 547.997 -3.24499 -6.22611 0
M  V30 5939 H 552.837 -2.34622 -1.83729 0
M  V30 5940 H 550.374 -1.16537 -0.897636 0
M  V30 5941 H 552.332 -1.15077 -4.01015 0
M  V30 5942 H 550.962 -0.33657 -3.21041 0
M  V30 5943 H 550.014 -2.69805 -2.6816 0
M  V30 5944 H 551.326 -3.37973 -3.66846 0
M  V30 5945 H 550.48 -2.14551 -5.67497 0
M  V30 5946 H 549.219 -1.35929 -4.68374 0
M  V30 5947 H 548.224 -3.60232 -4.15346 0
M  V30 5948 H 549.449 -4.3928 -5.17889 0
M  V30 5949 H 547.395 -2.35663 -6.12208 0
M  V30 5950 H 547.312 -4.06978 -6.37106 0
M  V30 5951 H 548.58 -3.15325 -7.12875 0
M  V30 5952 N 552.809 0.956637 -1.25245 0
M  V30 5953 C 554.034 1.74104 -1.12706 0
M  V30 5954 C 554.459 1.85436 0.315429 0
M  V30 5955 O 553.817 1.33334 1.22848 0
M  V30 5956 C 553.865 3.1338 -1.78396 0
M  V30 5957 O 552.969 3.98485 -1.06224 0
M  V30 5958 H 552.31 0.53476 -0.393609 0
M  V30 5959 H 554.84 1.19924 -1.65769 0
M  V30 5960 H 554.85 3.6385 -1.846 0
M  V30 5961 H 553.525 3.04448 -2.83345 0
M  V30 5962 H 552.102 3.56952 -1.07886 0
M  V30 5963 N 554.287 1.06798 1.15896 0
M  V30 5964 C 555.703 0.792423 1.38538 0
M  V30 5965 C 555.903 -0.60592 1.92174 0
M  V30 5966 O 554.959 -1.36561 2.12385 0
M  V30 5967 C 556.272 1.86157 2.36149 0
M  V30 5968 C 557.82 1.88567 2.49823 0
M  V30 5969 C 558.295 2.9455 3.5072 0
M  V30 5970 N 559.786 2.93616 3.58251 0
M  V30 5971 C 560.521 3.72267 4.36125 0
M  V30 5972 N 560.017 4.60751 5.17379 0
M  V30 5973 N 561.81 3.60637 4.31158 0
M  V30 5974 H 553.961 1.96993 0.794198 0
M  V30 5975 H 556.224 0.853942 0.411688 0
M  V30 5976 H 555.93 2.86603 2.03843 0
M  V30 5977 H 555.804 1.71692 3.3586 0
M  V30 5978 H 558.191 0.887765 2.8143 0
M  V30 5979 H 558.272 2.0711 1.5013 0
M  V30 5980 H 557.916 3.94537 3.19849 0
M  V30 5981 H 557.846 2.73255 4.50155 0
M  V30 5982 H 560.337 2.29472 3.00252 0
M  V30 5983 H 560.65 5.17408 5.74028 0
M  V30 5984 H 558.995 4.64803 5.16704 0
M  V30 5985 H 562.186 2.90892 3.66742 0
M  V30 5986 H 562.359 4.22176 4.91601 0
M  V30 5987 N 555.766 -1.3263 0.851289 0
M  V30 5988 C 557.177 -1.79653 0.5081 0
M  V30 5989 C 557.528 -1.70327 -0.973815 0
M  V30 5990 O 556.653 -1.25986 -1.75944 0
M  V30 5991 C 557.248 -3.26196 0.915515 0
M  V30 5992 C 555.807 -3.71187 0.624277 0
M  V30 5993 C 554.954 -2.53804 1.11709 0
M  V30 5994 H 557.905 -1.19976 1.03882 0
M  V30 5995 H 557.926 -3.79801 0.230535 0
M  V30 5996 H 557.438 -3.32952 1.99411 0
M  V30 5997 H 555.539 -3.69948 -0.443737 0
M  V30 5998 H 555.652 -4.64132 1.18821 0
M  V30 5999 H 554.016 -2.48964 0.537484 0
M  V30 6000 H 554.799 -2.63315 2.20272 0
M  V30 6001 N 557.244 -0.608902 -1.45362 0
M  V30 6002 C 558.66 -0.272659 -1.57254 0
M  V30 6003 C 558.86 1.22477 -1.60005 0
M  V30 6004 O 557.916 2.00785 -1.53106 0
M  V30 6005 C 559.229 -0.944991 -2.85465 0
M  V30 6006 C 560.777 -0.921033 -2.99142 0
M  V30 6007 C 561.252 -1.5734 -4.30126 0
M  V30 6008 N 562.743 -1.53895 -4.36887 0
M  V30 6009 C 563.478 -2.01286 -5.36909 0
M  V30 6010 N 562.974 -2.56768 -6.43461 0
M  V30 6011 N 564.767 -1.92046 -5.28275 0
M  V30 6012 H 556.918 -1.58117 -1.4182 0
M  V30 6013 H 559.181 -0.662437 -0.678146 0
M  V30 6014 H 558.887 -1.99941 -2.89338 0
M  V30 6015 H 558.761 -0.469079 -3.74272 0
M  V30 6016 H 561.148 0.124846 -2.94836 0
M  V30 6017 H 561.229 -1.43522 -2.11743 0
M  V30 6018 H 560.873 -2.61862 -4.35191 0
M  V30 6019 H 560.803 -1.03422 -5.16344 0
M  V30 6020 H 563.294 -1.13366 -3.60495 0
M  V30 6021 H 563.607 -2.9072 -7.16032 0
M  V30 6022 H 561.952 -2.60808 -6.44208 0
M  V30 6023 H 565.143 -1.48439 -4.43941 0
M  V30 6024 H 565.316 -2.29293 -6.06077 0
M  V30 6025 N 558.722 1.53707 -0.348139 0
M  V30 6026 C 559.97 2.00591 0.246478 0
M  V30 6027 C 560.291 1.23753 1.50699 0
M  V30 6028 O 559.561 0.345964 1.92821 0
M  V30 6029 H 558.141 0.741053 0.0940679 0
M  V30 6030 H 560.803 1.89139 -0.470354 0
M  V30 6031 H 559.899 3.08297 0.485714 0
M  V30 6032 N 560.2 0.0768682 1.57412 0
M  V30 6033 C 561.447 -0.591085 1.93681 0
M  V30 6034 C 561.775 -1.69311 0.957286 0
M  V30 6035 O 561.03 -1.95682 -0.0262428 0
M  V30 6036 C 561.329 -1.20268 3.36557 0
M  V30 6037 C 560.995 -0.226286 4.50332 0
M  V30 6038 C 559.657 0.0423142 4.81181 0
M  V30 6039 C 562.009 0.441415 5.19327 0
M  V30 6040 C 559.337 0.985616 5.78362 0
M  V30 6041 C 561.689 1.37307 6.17519 0
M  V30 6042 C 560.353 1.65009 6.46783 0
M  V30 6043 H 559.623 -0.216293 0.70873 0
M  V30 6044 H 562.27 0.148824 1.90921 0
M  V30 6045 H 560.575 -2.01844 3.35807 0
M  V30 6046 H 562.272 -1.72688 3.61911 0
M  V30 6047 H 558.862 -0.445821 4.26275 0
M  V30 6048 H 563.046 0.247023 4.95685 0
M  V30 6049 H 558.302 1.20743 5.99359 0
M  V30 6050 H 562.476 1.89637 6.70083 0
M  V30 6051 H 560.103 2.38263 7.21897 0
M  V30 6052 N 561.678 -1.56367 -0.196722 0
M  V30 6053 C 562.628 -1.9082 -1.24787 0
M  V30 6054 C 563.612 -0.773719 -1.41076 0
M  V30 6055 O 564.804 -1.03655 -1.43474 0
M  V30 6056 C 561.933 -2.24982 -2.59303 0
M  V30 6057 C 561.019 -3.44882 -2.46814 0
M  V30 6058 N 561.41 -4.62835 -2.04003 0
M  V30 6059 C 559.708 -3.48988 -2.77711 0
M  V30 6060 C 560.409 -5.44993 -2.03366 0
M  V30 6061 N 559.385 -4.85356 -2.44807 0
M  V30 6062 H 563.187 -2.79516 -0.908175 0
M  V30 6063 H 560.701 -1.57265 -0.405166 0
M  V30 6064 H 562.698 -2.47848 -3.35227 0
M  V30 6065 H 561.358 -1.37611 -2.94098 0
M  V30 6066 H 562.369 -4.87532 -1.74738 0
M  V30 6067 H 559.046 -2.72029 -3.16712 0
M  V30 6068 H 560.436 -6.49464 -1.72181 0
M  V30 6069 N 563.156 0.464375 -1.50603 0
M  V30 6070 C 564.572 0.798684 -1.38178 0
M  V30 6071 C 564.772 1.96568 -0.44308 0
M  V30 6072 O 563.828 2.52252 0.111814 0
M  V30 6073 C 565.141 1.10444 -2.79683 0
M  V30 6074 C 566.689 1.2105 -2.88645 0
M  V30 6075 C 567.164 1.54934 -4.30998 0
M  V30 6076 N 568.655 1.61913 -4.3398 0
M  V30 6077 C 569.39 1.8965 -5.41129 0
M  V30 6078 N 568.886 2.15361 -6.58477 0
M  V30 6079 N 570.679 1.91207 -5.28579 0
M  V30 6080 H 562.83 -0.304603 -2.10204 0
M  V30 6081 H 565.093 -0.0737804 -0.945125 0
M  V30 6082 H 564.799 0.319934 -3.50242 0
M  V30 6083 H 564.673 2.03896 -3.17342 0
M  V30 6084 H 567.06 1.98567 -2.18301 0
M  V30 6085 H 567.141 0.255613 -2.5452 0
M  V30 6086 H 566.785 0.779549 -5.01882 0
M  V30 6087 H 566.715 2.51584 -4.62615 0
M  V30 6088 H 569.206 1.44055 -3.49366 0
M  V30 6089 H 569.519 2.35818 -7.35941 0
M  V30 6090 H 567.864 2.1274 -6.6164 0
M  V30 6091 H 571.055 1.70622 -4.35897 0
M  V30 6092 H 571.228 2.12488 -6.12171 0
M  V30 6093 N 564.634 1.40294 0.718013 0
M  V30 6094 C 565.859 1.41941 1.5122 0
M  V30 6095 C 566.284 0.0202371 1.88089 0
M  V30 6096 O 565.642 -0.971078 1.53101 0
M  V30 6097 C 565.69 2.3141 2.76554 0
M  V30 6098 O 564.794 1.75567 3.73162 0
M  V30 6099 H 564.135 0.482644 0.456016 0
M  V30 6100 H 566.665 1.84494 0.884478 0
M  V30 6101 H 566.675 2.46513 3.25108 0
M  V30 6102 H 565.35 3.33085 2.49053 0
M  V30 6103 H 563.927 1.69798 3.31999 0
M  V30 6104 N 566.112 -0.949982 1.2575 0
M  V30 6105 C 567.528 -1.22191 1.02672 0
M  V30 6106 C 567.728 -1.99898 -0.253588 0
M  V30 6107 O 566.784 -2.33329 -0.965076 0
M  V30 6108 C 568.097 -1.99175 2.25277 0
M  V30 6109 C 569.645 -2.12201 2.30087 0
M  V30 6110 C 570.12 -2.92586 3.5236 0
M  V30 6111 N 571.611 -3.00163 3.52784 0
M  V30 6112 C 572.346 -3.62766 4.44059 0
M  V30 6113 N 571.842 -4.26943 5.45611 0
M  V30 6114 N 573.635 -3.59953 4.3173 0
M  V30 6115 H 565.786 -0.430258 2.07996 0
M  V30 6116 H 568.049 -0.252844 0.91366 0
M  V30 6117 H 567.755 -1.49479 3.18354 0
M  V30 6118 H 567.629 -2.99868 2.28821 0
M  V30 6119 H 570.016 -2.61093 1.3753 0
M  V30 6120 H 570.097 -1.10799 2.30559 0
M  V30 6121 H 569.741 -2.44383 4.45241 0
M  V30 6122 H 569.671 -3.94224 3.49134 0
M  V30 6123 H 572.162 -2.54529 2.79327 0
M  V30 6124 H 572.475 -4.72583 6.11461 0
M  V30 6125 H 570.82 -4.25557 5.49478 0
M  V30 6126 H 574.011 -3.09003 3.51617 0
M  V30 6127 H 574.184 -4.08455 5.03059 0
M  V30 6128 N 567.59 -1.07411 -1.15328 0
M  V30 6129 C 568.867 -0.710732 -1.82231 0
M  V30 6130 C 569.247 0.806732 -1.95077 0
M  V30 6131 O 568.595 1.72139 -1.50268 0
M  V30 6132 C 568.805 -1.42586 -3.18544 0
M  V30 6133 C 570.153 -1.57836 -3.94174 0
M  V30 6134 O 571.177 -1.38669 -3.281 0
M  V30 6135 O 570.036 -1.8938 -5.12638 0
M  V30 6136 H 567.13 -0.25297 -0.78736 0
M  V30 6137 H 569.676 -1.17508 -1.22434 0
M  V30 6138 H 568.448 -2.46008 -3.04296 0
M  V30 6139 H 568.071 -0.952332 -3.86026 0
M  V30 6140 N 569.068 1.32177 -0.85831 0
M  V30 6141 C 570.296 2.01313 -0.477582 0
M  V30 6142 C 570.711 1.6449 0.926736 0
M  V30 6143 O 570.068 0.868096 1.60531 0
M  V30 6144 C 570.119 3.56293 -0.611337 0
M  V30 6145 O 569.84 3.91794 -1.96034 0
M  V30 6146 C 571.341 4.42702 -0.230093 0
M  V30 6147 H 568.561 0.644323 -0.187322 0
M  V30 6148 H 571.105 1.68674 -1.15626 0
M  V30 6149 H 569.26 3.87395 0.0196494 0
M  V30 6150 H 569.674 4.86513 -1.95973 0
M  V30 6151 H 571.148 5.50727 -0.374674 0
M  V30 6152 H 571.625 4.3129 0.829779 0
M  V30 6153 H 572.231 4.16997 -0.836302 0
M  V30 6154 N 570.547 0.616602 1.45037 0
M  V30 6155 C 571.51 -0.0871112 2.29034 0
M  V30 6156 C 572.51 -0.786414 1.40258 0
M  V30 6157 O 573.7 -0.633207 1.62284 0
M  V30 6158 C 570.832 -1.13369 3.21497 0
M  V30 6159 H 572.025 0.651497 2.92738 0
M  V30 6160 H 569.578 0.376058 1.51709 0
M  V30 6161 H 570.313 -1.90277 2.62612 0
M  V30 6162 H 570.098 -0.636358 3.86902 0
M  V30 6163 H 571.588 -1.62627 3.84633 0
M  V30 6164 N 572.025 -1.5352 0.356285 0
M  V30 6165 C 573.273 -2.00719 -0.235837 0
M  V30 6166 C 573.594 -1.24551 -1.5004 0
M  V30 6167 O 572.864 -0.356185 -1.92635 0
M  V30 6168 H 571.444 -0.741542 -0.0901366 0
M  V30 6169 H 574.106 -1.88887 0.480378 0
M  V30 6170 H 573.202 -3.08551 -0.469357 0
M  V30 6171 N 573.503 -0.0852151 -1.57369 0
M  V30 6172 C 574.413 0.891712 -2.16992 0
M  V30 6173 C 575.429 1.3174 -1.13669 0
M  V30 6174 O 576.605 1.38735 -1.45995 0
M  V30 6175 C 573.67 2.13635 -2.73059 0
M  V30 6176 C 572.731 1.7658 -3.91303 0
M  V30 6177 C 571.964 2.95111 -4.44686 0
M  V30 6178 O 572.187 4.09539 -3.97032 0
M  V30 6179 O 571.121 2.74149 -5.35841 0
M  V30 6180 H 574.947 0.414477 -3.00858 0
M  V30 6181 H 572.532 0.138598 -1.48756 0
M  V30 6182 H 574.414 2.86595 -3.08935 0
M  V30 6183 H 573.089 2.6043 -1.92244 0
M  V30 6184 H 571.996 1.00831 -3.60255 0
M  V30 6185 H 573.329 1.34557 -4.7345 0
M  V30 6186 N 574.981 1.5647 0.188427 0
M  V30 6187 C 576.227 1.81281 0.909124 0
M  V30 6188 C 576.56 0.66034 1.82628 0
M  V30 6189 O 575.835 -0.338737 1.91528 0
M  V30 6190 C 576.118 3.16388 1.7196 0
M  V30 6191 C 575.971 4.42137 0.826714 0
M  V30 6192 C 577.29 3.48256 2.69083 0
M  V30 6193 H 574.409 0.659457 0.329068 0
M  V30 6194 H 577.051 1.89182 0.176156 0
M  V30 6195 H 575.201 3.09784 2.34448 0
M  V30 6196 H 576.873 4.60794 0.216025 0
M  V30 6197 H 575.116 4.33594 0.133792 0
M  V30 6198 H 575.787 5.33184 1.42893 0
M  V30 6199 H 578.263 3.55203 2.16726 0
M  V30 6200 H 577.139 4.43899 3.2287 0
M  V30 6201 H 577.4 2.72088 3.48455 0
M  V30 6202 N 576.459 -0.456382 1.50847 0
M  V30 6203 C 577.422 -1.53493 1.70213 0
M  V30 6204 C 578.422 -1.50264 0.572481 0
M  V30 6205 O 579.612 -1.52623 0.839751 0
M  V30 6206 C 576.744 -2.93091 1.741 0
M  V30 6207 H 577.937 -1.37633 2.66453 0
M  V30 6208 H 575.49 -0.683776 1.4055 0
M  V30 6209 H 576.225 -3.14378 0.796063 0
M  V30 6210 H 576.01 -2.9684 2.5618 0
M  V30 6211 H 577.5 -3.71368 1.90987 0
M  V30 6212 N 577.937 -1.40673 -0.710563 0
M  V30 6213 C 579.185 -1.38947 -1.46759 0
M  V30 6214 C 579.506 0.00572879 -1.94999 0
M  V30 6215 O 578.776 0.961358 -1.70689 0
M  V30 6216 H 577.356 -0.5114 -0.544499 0
M  V30 6217 H 580.018 -1.75773 -0.842012 0
M  V30 6218 H 579.114 -2.06745 -2.33801 0
M  V30 6219 N 579.415 0.9433 -1.26252 0
M  V30 6220 C 580.692 1.66639 -1.02424 0
M  V30 6221 C 581.072 2.06335 0.446006 0
M  V30 6222 O 580.42 1.78551 1.42589 0
M  V30 6223 C 580.63 2.88019 -1.97094 0
M  V30 6224 C 581.978 3.59718 -2.25584 0
M  V30 6225 O 583.002 2.9812 -1.94943 0
M  V30 6226 O 581.861 4.7066 -2.77743 0
M  V30 6227 H 578.955 0.729643 -0.389294 0
M  V30 6228 H 581.501 0.995218 -1.37454 0
M  V30 6229 H 580.273 2.5556 -2.96319 0
M  V30 6230 H 579.896 3.62863 -1.62532 0
M  V30 6231 N 580.893 1.08022 1.14757 0
M  V30 6232 C 582.121 0.828847 1.89572 0
M  V30 6233 C 582.536 -0.618621 1.78377 0
M  V30 6234 O 581.893 -1.42482 1.1404 0
M  V30 6235 C 581.944 1.23677 3.39685 0
M  V30 6236 O 581.665 2.62746 3.50566 0
M  V30 6237 C 583.166 1.01569 4.31507 0
M  V30 6238 H 580.386 0.299196 0.600602 0
M  V30 6239 H 582.93 1.43846 1.45357 0
M  V30 6240 H 581.085 0.671347 3.81539 0
M  V30 6241 H 581.499 2.79573 4.43778 0
M  V30 6242 H 582.973 1.35055 5.35223 0
M  V30 6243 H 583.45 -0.0475433 4.39174 0
M  V30 6244 H 584.056 1.56636 3.95405 0
M  V30 6245 N 582.371 -1.3172 0.865308 0
M  V30 6246 C 583.619 -1.96487 0.472995 0
M  V30 6247 C 583.94 -1.68761 -0.976975 0
M  V30 6248 O 583.21 -1.00051 -1.68424 0
M  V30 6249 H 581.79 -0.726947 0.171922 0
M  V30 6250 H 584.452 -1.60612 1.10407 0
M  V30 6251 H 583.548 -3.0574 0.62687 0
M  V30 6252 N 583.85 -0.624285 -1.44708 0
M  V30 6253 C 585.098 -0.125802 -2.01708 0
M  V30 6254 C 585.418 1.2543 -1.49306 0
M  V30 6255 O 584.689 1.83198 -0.693924 0
M  V30 6256 H 583.269 -0.0435161 -0.745731 0
M  V30 6257 H 585.931 -0.809446 -1.77296 0
M  V30 6258 H 585.027 -0.0882734 -3.11975 0
M  V30 6259 N 585.328 1.53329 -0.364422 0
M  V30 6260 C 586.605 1.93557 0.281962 0
M  V30 6261 C 586.985 1.29786 1.6649 0
M  V30 6262 O 586.333 0.456512 2.23893 0
M  V30 6263 C 586.543 3.47405 0.333331 0
M  V30 6264 C 587.891 4.20699 0.574231 0
M  V30 6265 O 588.915 3.53779 0.414588 0
M  V30 6266 O 587.774 5.39287 0.885002 0
M  V30 6267 H 584.868 0.809573 0.168881 0
M  V30 6268 H 587.414 1.64494 -0.417121 0
M  V30 6269 H 586.186 3.86091 -0.636326 0
M  V30 6270 H 585.809 3.82697 1.07836 0
M  V30 6271 N 586.806 0.0935595 1.57322 0
M  V30 6272 C 588.034 -0.578934 1.98635 0
M  V30 6273 C 588.449 -1.61819 0.972626 0
M  V30 6274 O 587.806 -1.82461 -0.0379638 0
M  V30 6275 C 587.857 -1.22802 3.40003 0
M  V30 6276 O 587.578 -0.230334 4.37494 0
M  V30 6277 C 589.079 -1.98627 3.96311 0
M  V30 6278 H 586.299 -0.155324 0.652775 0
M  V30 6279 H 588.843 0.172393 2.03772 0
M  V30 6280 H 586.998 -1.93029 3.35885 0
M  V30 6281 H 587.412 -0.698649 5.19826 0
M  V30 6282 H 588.886 -2.39405 4.97382 0
M  V30 6283 H 589.363 -2.85151 3.34044 0
M  V30 6284 H 589.969 -1.3322 4.03897 0
M  V30 6285 N 588.284 -1.56567 -0.180126 0
M  V30 6286 C 589.53 -1.81761 -0.899497 0
M  V30 6287 C 589.863 -0.670015 -1.82276 0
M  V30 6288 O 589.138 0.328575 -1.91705 0
M  V30 6289 C 589.421 -3.17296 -1.7028 0
M  V30 6290 C 589.274 -4.4257 -0.803255 0
M  V30 6291 C 590.593 -3.49678 -2.67233 0
M  V30 6292 H 587.712 -0.661192 -0.325567 0
M  V30 6293 H 590.354 -1.89272 -0.16612 0
M  V30 6294 H 588.504 -3.11023 -2.32802 0
M  V30 6295 H 590.176 -4.60902 -0.191585 0
M  V30 6296 H 588.419 -4.33658 -0.110796 0
M  V30 6297 H 589.09 -5.33935 -1.40064 0
M  V30 6298 H 591.566 -3.56347 -2.14839 0
M  V30 6299 H 590.442 -4.45605 -3.20511 0
M  V30 6300 H 590.703 -2.73932 -3.47007 0
M  V30 6301 N 589.762 0.448376 -1.51087 0
M  V30 6302 C 591.01 1.19635 -1.62886 0
M  V30 6303 C 591.331 1.91977 -0.342024 0
M  V30 6304 O 590.601 1.85094 0.641636 0
M  V30 6305 H 589.181 0.444598 -0.600285 0
M  V30 6306 H 591.843 0.515138 -1.87969 0
M  V30 6307 H 590.939 1.93194 -2.45117 0
M  V30 6308 N 591.24 1.41047 0.703093 0
M  V30 6309 C 592.47 1.43133 1.48985 0
M  V30 6310 C 592.878 0.0328537 1.89171 0
M  V30 6311 O 592.221 -0.956469 1.56835 0
M  V30 6312 C 592.283 2.26991 2.78775 0
M  V30 6313 C 591.947 3.7525 2.60837 0
M  V30 6314 C 592.944 4.67591 2.27276 0
M  V30 6315 C 590.629 4.19208 2.76712 0
M  V30 6316 C 592.623 6.01877 2.09817 0
M  V30 6317 C 590.31 5.53561 2.5887 0
M  V30 6318 C 591.308 6.4471 2.25472 0
M  V30 6319 O 590.996 7.76584 2.07778 0
M  V30 6320 H 590.728 0.489788 0.465922 0
M  V30 6321 H 593.282 1.85886 0.873822 0
M  V30 6322 H 591.512 1.79038 3.42757 0
M  V30 6323 H 593.201 2.20867 3.40547 0
M  V30 6324 H 593.967 4.34923 2.14633 0
M  V30 6325 H 589.846 3.48572 3.01693 0
M  V30 6326 H 593.39 6.72986 1.83671 0
M  V30 6327 H 589.287 5.85811 2.71102 0
M  V30 6328 H 590.055 7.87649 2.22601 0
M  V30 6329 N 592.718 -0.936591 1.26751 0
M  V30 6330 C 593.946 -1.71758 1.15355 0
M  V30 6331 C 594.361 -1.86549 -0.290683 0
M  V30 6332 O 593.718 -1.37616 -1.19868 0
M  V30 6333 C 593.769 -3.12193 1.82258 0
M  V30 6334 O 593.49 -2.98105 3.21038 0
M  V30 6335 C 594.991 -4.06485 1.76875 0
M  V30 6336 H 592.211 -0.537636 0.401483 0
M  V30 6337 H 594.755 -1.17382 1.67457 0
M  V30 6338 H 592.91 -3.63456 1.34083 0
M  V30 6339 H 593.324 -3.86824 3.54214 0
M  V30 6340 H 594.798 -5.02569 2.28316 0
M  V30 6341 H 595.275 -4.32986 0.736216 0
M  V30 6342 H 595.881 -3.61144 2.24623 0
M  V30 6343 N 594.196 -1.08629 -1.14182 0
M  V30 6344 C 595.106 -0.730126 -2.22949 0
M  V30 6345 C 596.122 0.26436 -1.7198 0
M  V30 6346 O 597.298 0.107742 -2.01112 0
M  V30 6347 C 594.363 -0.147227 -3.46387 0
M  V30 6348 C 593.424 -1.19662 -4.12286 0
M  V30 6349 C 592.657 -0.641437 -5.29831 0
M  V30 6350 O 592.88 0.538351 -5.67854 0
M  V30 6351 O 591.814 -1.39257 -5.85569 0
M  V30 6352 H 595.64 -1.63753 -2.55771 0
M  V30 6353 H 593.225 -0.860118 -1.22157 0
M  V30 6354 H 595.107 0.174923 -4.21037 0
M  V30 6355 H 593.782 0.733304 -3.15285 0
M  V30 6356 H 592.689 -1.57133 -3.395 0
M  V30 6357 H 594.022 -2.0495 -4.475 0
M  V30 6358 N 595.674 1.31259 -0.872281 0
M  V30 6359 C 596.902 2.00795 -0.498907 0
M  V30 6360 C 597.317 1.65464 0.909238 0
M  V30 6361 O 596.674 0.885073 1.59602 0
M  V30 6362 C 596.725 3.55625 -0.649092 0
M  V30 6363 O 596.446 3.89692 -2.00179 0
M  V30 6364 C 597.947 4.42434 -0.277034 0
M  V30 6365 H 595.167 0.642299 -0.194145 0
M  V30 6366 H 597.711 1.67438 -1.17408 0
M  V30 6367 H 595.866 3.87394 -0.0214402 0
M  V30 6368 H 596.28 4.84407 -2.01122 0
M  V30 6369 H 597.754 5.50299 -0.433064 0
M  V30 6370 H 598.231 4.32146 0.783989 0
M  V30 6371 H 598.837 4.16086 -0.880483 0
M  V30 6372 N 597.152 0.631951 1.44375 0
M  V30 6373 C 598.377 0.142146 2.06912 0
M  V30 6374 C 598.802 -1.17456 1.4692 0
M  V30 6375 O 598.16 -1.72074 0.570975 0
M  V30 6376 C 598.208 0.0417952 3.60576 0
M  V30 6377 O 597.312 -1.00194 4.00044 0
M  V30 6378 H 596.653 0.0851491 0.658518 0
M  V30 6379 H 599.183 0.868863 1.85235 0
M  V30 6380 H 599.193 -0.148517 4.0773 0
M  V30 6381 H 597.868 1.0031 4.03622 0
M  V30 6382 H 596.445 -0.786131 3.64519 0
M  V30 6383 N 598.631 -1.53133 0.372548 0
M  V30 6384 C 599.594 -2.24569 -0.458389 0
M  V30 6385 C 600.594 -1.25603 -1.00402 0
M  V30 6386 O 601.784 -1.49827 -0.888672 0
M  V30 6387 C 598.916 -2.98783 -1.6414 0
M  V30 6388 H 600.109 -2.99436 0.166799 0
M  V30 6389 H 597.662 -1.55805 0.124357 0
M  V30 6390 H 598.397 -2.28176 -2.30448 0
M  V30 6391 H 598.182 -3.71404 -1.25704 0
M  V30 6392 H 599.672 -3.53068 -2.23008 0
M  V30 6393 N 600.109 -0.101901 -1.5727 0
M  V30 6394 C 601.057 0.872034 -2.15635 0
M  V30 6395 C 602.051 1.28742 -1.10099 0
M  V30 6396 O 603.257 1.26116 -1.28432 0
M  V30 6397 H 599.632 0.299269 -0.689886 0
M  V30 6398 H 601.603 0.355137 -2.96279 0
M  V30 6399 C 600.352 2.11886 -2.7568 0
M  V30 6400 H 599.675 1.80813 -3.56576 0
M  V30 6401 H 601.115 2.78077 -3.20077 0
M  V30 6402 C 599.574 2.89739 -1.7191 0
M  V30 6403 O 600.104 3.84522 -1.16213 0
M  V30 6404 N 598.31 2.53407 -1.42245 0
M  V30 6405 H 597.857 1.76398 -1.87727 0
M  V30 6406 H 597.815 3.05795 -0.730529 0
M  V30 6407 N 601.587 1.56661 0.17182 0
M  V30 6408 C 602.833 1.82235 0.889845 0
M  V30 6409 C 603.166 0.679673 1.81918 0
M  V30 6410 O 602.441 -0.318404 1.91876 0
M  V30 6411 C 602.724 3.18195 1.68595 0
M  V30 6412 C 602.577 4.42989 0.779773 0
M  V30 6413 C 603.896 3.5109 2.65375 0
M  V30 6414 H 601.015 0.66291 0.322056 0
M  V30 6415 H 603.657 1.89358 0.15608 0
M  V30 6416 H 601.807 3.12253 2.3115 0
M  V30 6417 H 603.479 4.60997 0.16714 0
M  V30 6418 H 601.722 4.33711 0.0877964 0
M  V30 6419 H 602.393 5.3467 1.3723 0
M  V30 6420 H 604.869 3.57482 2.12946 0
M  V30 6421 H 603.745 4.47298 3.18144 0
M  V30 6422 H 604.006 2.75768 3.45549 0
M  V30 6423 N 603.065 -0.440357 1.51323 0
M  V30 6424 C 604.012 -1.53429 1.72419 0
M  V30 6425 C 604.982 -1.56165 0.565826 0
M  V30 6426 O 606.167 -1.73222 0.799917 0
M  V30 6427 C 603.307 -2.91169 1.85242 0
M  V30 6428 C 602.42 -2.97985 3.12777 0
M  V30 6429 C 601.555 -4.26829 3.16212 0
M  V30 6430 C 600.594 -4.27501 4.38074 0
M  V30 6431 N 599.731 -5.47866 4.39076 0
M  V30 6432 H 604.571 -1.34743 2.65797 0
M  V30 6433 H 602.108 -0.654608 1.31732 0
M  V30 6434 H 604.066 -3.71087 1.90658 0
M  V30 6435 H 602.696 -3.0842 0.952744 0
M  V30 6436 H 601.748 -2.10749 3.16685 0
M  V30 6437 H 603.06 -2.94342 4.02696 0
M  V30 6438 H 602.214 -5.15118 3.20527 0
M  V30 6439 H 600.953 -4.33124 2.24176 0
M  V30 6440 H 599.958 -3.37606 4.33938 0
M  V30 6441 H 601.183 -4.22873 5.31371 0
M  V30 6442 H 599.129 -5.54887 3.49909 0
M  V30 6443 H 599.046 -5.46091 5.22801 0
M  V30 6444 H 600.314 -6.38195 4.4758 0
M  V30 6445 N 604.543 -1.41418 -0.695603 0
M  V30 6446 C 605.771 -1.4413 -1.48439 0
M  V30 6447 C 606.186 -0.0465698 -1.88743 0
M  V30 6448 O 605.543 0.934117 -1.56782 0
M  V30 6449 C 605.594 -2.34998 -2.74696 0
M  V30 6450 O 605.315 -3.69043 -2.36091 0
M  V30 6451 C 606.816 -2.46513 -3.68438 0
M  V30 6452 H 604.036 -0.490905 -0.457442 0
M  V30 6453 H 606.58 -1.85702 -0.856454 0
M  V30 6454 H 604.735 -1.96735 -3.33728 0
M  V30 6455 H 605.149 -4.17505 -3.17474 0
M  V30 6456 H 606.623 -3.1426 -4.53811 0
M  V30 6457 H 607.1 -1.49638 -4.12922 0
M  V30 6458 H 607.706 -2.85412 -3.1531 0
M  V30 6459 N 606.021 0.929856 -1.27246 0
M  V30 6460 C 606.954 2.03069 -1.04106 0
M  V30 6461 C 607.932 1.62556 0.0378417 0
M  V30 6462 O 609.116 1.88197 -0.106869 0
M  V30 6463 C 606.243 3.33718 -0.578778 0
M  V30 6464 C 605.289 3.93209 -1.65193 0
M  V30 6465 S 606.122 4.26068 -3.24386 0
M  V30 6466 C 607.278 5.598 -2.79954 0
M  V30 6467 H 607.511 2.22386 -1.97311 0
M  V30 6468 H 605.044 1.07269 -1.11053 0
M  V30 6469 H 607.002 4.09261 -0.31874 0
M  V30 6470 H 605.663 3.12328 0.333182 0
M  V30 6471 H 604.856 4.87482 -1.27973 0
M  V30 6472 H 604.458 3.24243 -1.86393 0
M  V30 6473 H 606.75 6.39004 -2.25123 0
M  V30 6474 H 607.693 6.01917 -3.72963 0
M  V30 6475 H 608.101 5.20219 -2.19164 0
M  V30 6476 N 607.499 1.09233 1.13605 0
M  V30 6477 C 608.747 0.825525 1.84471 0
M  V30 6478 C 609.068 -0.650702 1.83823 0
M  V30 6479 O 608.338 -1.47204 1.29259 0
M  V30 6480 H 606.918 0.3024 0.683054 0
M  V30 6481 H 609.58 1.38006 1.37624 0
M  V30 6482 H 608.676 1.17727 2.89045 0
M  V30 6483 O 609.016 -1.25824 1.01246 0
M  V30 6484 H 609.707 -1.81718 0.670699 0
M  V30 END ATOM
M  V30 BEGIN BOND
M  V30 END BOND
M  V30 END CTAB
M  END
$$$$
