drugbank_target|O43169 Cytochrome b5 type B (DB12695)
 OpenBabel12092120533D

  0  0  0     0  0            999 V3000
M  V30 BEGIN CTAB
M  V30 COUNTS 2252 2278 0 0 0
M  V30 BEGIN ATOM
M  V30 1 H -0.908 1.98254 -0.117106 0
M  V30 2 N 0 1.576 0 0
M  V30 3 C 0.933 2.03868 1.02534 0
M  V30 4 C 1.911 0.928543 1.3348 0
M  V30 5 O 3.095 1.19667 1.45644 0
M  V30 6 C 0.222 2.43627 2.35294 0
M  V30 7 C -0.732 3.65373 2.2001 0
M  V30 8 S 0.101 5.13292 1.52614 0
M  V30 9 C 1.257 5.56322 2.86805 0
M  V30 10 H 1.49 2.90518 0.631377 0
M  V30 11 H -0.977 1.52953 0.210867 0
M  V30 12 H 0.981 2.67203 3.11629 0
M  V30 13 H -0.358 1.57376 2.7183 0
M  V30 14 H -1.165 3.90944 3.18086 0
M  V30 15 H -1.563 3.418 1.51819 0
M  V30 16 H 0.729 5.58782 3.83104 0
M  V30 17 H 1.672 6.56266 2.65933 0
M  V30 18 H 2.08 4.83886 2.90714 0
M  V30 19 N 1.4781 -0.272755 1.55222 0
M  V30 20 C 2.4411 -1.32041 1.87344 0
M  V30 21 C 3.4411 -1.42342 0.74803 0
M  V30 22 O 4.6311 -1.41488 1.0162 0
M  V30 23 C 1.7631 -2.70173 2.07893 0
M  V30 24 H 2.9561 -1.04789 2.80997 0
M  V30 25 H 0.5091 -0.51083 1.47717 0
M  V30 26 H 1.2441 -3.02605 1.16622 0
M  V30 27 H 1.0291 -2.64082 2.89833 0
M  V30 28 H 2.5191 -3.45869 2.34017 0
M  V30 29 N 2.9562 -1.48159 -0.537278 0
M  V30 30 C 4.1842 -1.59454 -1.31841 0
M  V30 31 C 4.5992 -0.252065 -1.8711 0
M  V30 32 O 3.9562 0.757621 -1.66031 0
M  V30 33 C 4.0072 -2.63546 -2.47439 0
M  V30 34 O 3.7282 -3.92583 -1.94449 0
M  V30 35 C 5.2292 -2.85212 -3.39366 0
M  V30 36 H 2.4492 -0.53785 -0.401196 0
M  V30 37 H 4.9932 -1.93932 -0.648891 0
M  V30 38 H 3.1482 -2.31946 -3.1029 0
M  V30 39 H 3.5622 -4.49629 -2.70063 0
M  V30 40 H 5.0362 -3.61863 -4.16844 0
M  V30 41 H 5.5132 -1.93765 -3.94147 0
M  V30 42 H 6.1192 -3.18086 -2.82314 0
M  V30 43 N 4.4343 0.785586 -1.36625 0
M  V30 44 C 5.3973 1.87999 -1.31107 0
M  V30 45 C 6.3973 1.59316 -0.217959 0
M  V30 46 O 7.5873 1.67656 -0.472977 0
M  V30 47 C 4.7193 3.24861 -1.03334 0
M  V30 48 H 5.9123 1.94307 -2.2844 0
M  V30 49 H 3.4653 0.983813 -1.21453 0
M  V30 50 H 4.2003 3.24235 -0.0647432 0
M  V30 51 H 3.9853 3.4707 -1.82441 0
M  V30 52 H 5.4753 4.04929 -1.02088 0
M  V30 53 N 5.9124 1.20967 1.01018 0
M  V30 54 C 6.8224 0.980157 2.13143 0
M  V30 55 C 7.8384 -0.0660665 1.73875 0
M  V30 56 O 9.0144 0.122821 2.01025 0
M  V30 57 C 6.0794 0.54216 3.42435 0
M  V30 58 C 5.1404 1.65999 3.95908 0
M  V30 59 C 4.3734 1.2428 5.19028 0
M  V30 60 O 4.5964 0.114196 5.70286 0
M  V30 61 O 3.5304 2.05271 5.65816 0
M  V30 62 H 7.3564 1.91913 2.35379 0
M  V30 63 H 4.9414 0.994099 1.11526 0
M  V30 64 H 6.8234 0.30744 4.20277 0
M  V30 65 H 5.4984 -0.36815 3.216 0
M  V30 66 H 4.4054 1.94906 3.19316 0
M  V30 67 H 5.7384 2.54753 4.21143 0
M  V30 68 N 7.3905 -1.2043 1.01659 0
M  V30 69 C 8.3535 -2.21433 0.591616 0
M  V30 70 C 9.3535 -1.57203 -0.338226 0
M  V30 71 O 10.5435 -1.73737 -0.126918 0
M  V30 72 C 7.6755 -3.40628 -0.136058 0
M  V30 73 H 8.8685 -2.60545 1.48514 0
M  V30 74 H 6.4215 -1.33893 0.806379 0
M  V30 75 H 7.1565 -3.07019 -1.04449 0
M  V30 76 H 6.9415 -3.88475 0.531917 0
M  V30 77 H 8.4315 -4.15475 -0.420735 0
M  V30 78 N 8.8686 -0.792821 -1.36206 0
M  V30 79 C 10.0936 -0.377701 -2.03932 0
M  V30 80 C 10.5186 0.998947 -1.59382 0
M  V30 81 O 9.8766 1.64421 -0.763903 0
M  V30 82 C 9.9246 -0.453635 -3.57735 0
M  V30 83 O 9.0286 0.538151 -4.08874 0
M  V30 84 H 8.3696 -0.159855 -0.644471 0
M  V30 85 H 10.8996 -1.07488 -1.7409 0
M  V30 86 H 10.9096 -0.318464 -4.06755 0
M  V30 87 H 9.5846 -1.45784 -3.89512 0
M  V30 88 H 8.1616 0.364359 -3.71116 0
M  V30 89 N 10.3467 1.47872 -0.545128 0
M  V30 90 C 11.5947 2.02093 -0.016553 0
M  V30 91 C 11.9157 1.42305 1.3332 0
M  V30 92 O 11.1857 0.593853 1.86682 0
M  V30 93 H 9.7657 0.746993 -0.00313038 0
M  V30 94 H 12.4277 1.81414 -0.712397 0
M  V30 95 H 11.5237 3.11996 0.0805422 0
M  V30 96 N 11.8248 0.280983 1.55075 0
M  V30 97 C 13.0498 -0.340154 2.04592 0
M  V30 98 C 13.4748 -1.48246 1.15779 0
M  V30 99 O 12.8328 -1.80614 0.15761 0
M  V30 100 C 12.8808 -0.793104 3.5177 0
M  V30 101 O 11.9848 -1.89981 3.66034 0
M  V30 102 H 11.3258 -0.0694289 0.66036 0
M  V30 103 H 13.8558 0.416993 2.00306 0
M  V30 104 H 13.8658 -1.08729 3.93245 0
M  V30 105 H 12.5408 0.0426163 4.15878 0
M  V30 106 H 11.1178 -1.60771 3.36463 0
M  V30 107 N 13.3029 -1.57598 0.00835791 0
M  V30 108 C 14.5799 -1.82172 -0.712235 0
M  V30 109 C 14.9599 -0.887873 -1.9152 0
M  V30 110 O 14.3079 0.06146 -2.28417 0
M  V30 111 C 14.5179 -3.30875 -1.11008 0
M  V30 112 C 15.8659 -3.96826 -1.51044 0
M  V30 113 O 16.8899 -3.35248 -1.20364 0
M  V30 114 O 15.7489 -5.05318 -2.08125 0
M  V30 115 H 12.8429 -0.750435 -0.347529 0
M  V30 116 H 15.3889 -1.69665 0.0344523 0
M  V30 117 H 14.1609 -3.90481 -0.252982 0
M  V30 118 H 13.7839 -3.48412 -1.9156 0
M  V30 119 N 14.781 0.264519 -1.55364 0
M  V30 120 C 16.029 0.993021 -1.76021 0
M  V30 121 C 16.35 1.86511 -0.569099 0
M  V30 122 O 15.62 1.91438 0.415735 0
M  V30 123 H 14.2 0.369639 -0.649135 0
M  V30 124 H 16.862 0.286707 -1.9278 0
M  V30 125 H 15.958 1.62502 -2.66457 0
M  V30 126 N 16.2591 1.48442 0.529413 0
M  V30 127 C 17.2061 1.63007 1.63394 0
M  V30 128 C 18.1761 0.47212 1.59249 0
M  V30 129 O 19.3611 0.695673 1.77666 0
M  V30 130 C 16.5011 1.6763 3.01653 0
M  V30 131 C 15.6141 2.94535 3.16027 0
M  V30 132 C 14.7491 2.90316 4.44849 0
M  V30 133 C 13.7881 4.11923 4.52754 0
M  V30 134 N 12.9251 4.05777 5.72965 0
M  V30 135 H 17.7651 2.5733 1.50285 0
M  V30 136 H 15.3021 1.27613 0.731656 0
M  V30 137 H 17.2601 1.68292 3.81751 0
M  V30 138 H 15.8901 0.76797 3.13532 0
M  V30 139 H 14.9421 3.03615 2.29177 0
M  V30 140 H 16.2541 3.84512 3.17729 0
M  V30 141 H 15.4081 2.89382 5.33238 0
M  V30 142 H 14.1471 1.98068 4.45668 0
M  V30 143 H 13.1521 4.13131 3.62771 0
M  V30 144 H 14.3771 5.0533 4.53672 0
M  V30 145 H 12.3231 3.16351 5.74681 0
M  V30 146 H 12.2401 4.8946 5.76164 0
M  V30 147 H 13.5081 4.08904 6.6364 0
M  V30 148 N 17.7372 -0.778329 1.37039 0
M  V30 149 C 18.9852 -1.53361 1.31623 0
M  V30 150 C 19.3062 -1.94739 -0.100831 0
M  V30 151 O 18.5762 -1.65797 -1.04347 0
M  V30 152 H 17.1562 -0.568794 0.484234 0
M  V30 153 H 19.8182 -0.926742 1.71457 0
M  V30 154 H 18.9142 -2.43606 1.95096 0
M  V30 155 N 19.2153 -1.21501 -1.00376 0
M  V30 156 C 20.1473 -0.933174 -2.09343 0
M  V30 157 C 21.1603 0.0840896 -1.62583 0
M  V30 158 O 22.3493 -0.148563 -1.77881 0
M  V30 159 C 19.4493 -0.379869 -3.36764 0
M  V30 160 C 18.6223 -1.45176 -4.12605 0
M  V30 161 C 17.6813 -0.907476 -5.18316 0
M  V30 162 O 16.7073 -1.5912 -5.46507 0
M  V30 163 N 17.9093 0.276649 -5.7984 0
M  V30 164 H 20.6743 -1.87124 -2.34104 0
M  V30 165 H 18.2353 -1.12043 -1.16867 0
M  V30 166 H 20.2273 -0.00131488 -4.047 0
M  V30 167 H 18.7973 0.463048 -3.09151 0
M  V30 168 H 18.0173 -2.00411 -3.39454 0
M  V30 169 H 19.3053 -2.17328 -4.6005 0
M  V30 170 H 18.7033 0.849147 -5.59291 0
M  V30 171 H 17.2603 0.596702 -6.49063 0
M  V30 172 N 20.6934 1.19889 -1.02296 0
M  V30 173 C 21.6034 2.26571 -0.608508 0
M  V30 174 C 22.6194 1.70299 0.356964 0
M  V30 175 O 23.7954 2.00235 0.216326 0
M  V30 176 C 20.8604 3.46677 0.0402814 0
M  V30 177 C 19.9214 4.18153 -0.97194 0
M  V30 178 C 19.1544 5.32525 -0.354016 0
M  V30 179 O 19.3774 5.64112 0.844604 0
M  V30 180 O 18.3114 5.92242 -1.07391 0
M  V30 181 H 22.1374 2.64251 -1.49684 0
M  V30 182 H 19.7224 1.26629 -0.792809 0
M  V30 183 H 21.6044 4.19475 0.402324 0
M  V30 184 H 20.2794 3.10858 0.902707 0
M  V30 185 H 19.1864 3.47499 -1.38546 0
M  V30 186 H 20.5194 4.57927 -1.80454 0
M  V30 187 N 22.1715 0.800033 1.35784 0
M  V30 188 C 23.4175 0.377901 1.99248 0
M  V30 189 C 23.7505 -1.05052 1.63333 0
M  V30 190 O 23.0255 -1.72768 0.893385 0
M  V30 191 C 23.3085 0.553922 3.55814 0
M  V30 192 C 23.1615 2.0268 4.01548 0
M  V30 193 C 24.4805 -0.0244802 4.40093 0
M  V30 194 H 21.5995 0.138782 0.723815 0
M  V30 195 H 24.2415 1.00835 1.61035 0
M  V30 196 H 22.3915 0.0172398 3.88496 0
M  V30 197 H 24.0635 2.62536 3.79305 0
M  V30 198 H 22.3065 2.5256 3.52698 0
M  V30 199 H 22.9775 2.10087 5.10458 0
M  V30 200 H 25.4535 0.433775 4.13833 0
M  V30 201 H 24.3295 0.128637 5.48749 0
M  V30 202 H 24.5905 -1.11758 4.27741 0
M  V30 203 N 23.6496 -1.47581 0.552962 0
M  V30 204 C 24.5596 -2.33743 -0.200353 0
M  V30 205 C 25.5756 -1.47928 -0.916151 0
M  V30 206 O 26.7516 -1.80865 -0.885993 0
M  V30 207 C 23.8166 -3.24536 -1.21973 0
M  V30 208 C 22.8776 -4.26238 -0.511819 0
M  V30 209 C 22.1106 -5.12693 -1.48263 0
M  V30 210 O 22.3336 -5.01525 -2.71714 0
M  V30 211 O 21.2676 -5.93375 -1.00945 0
M  V30 212 H 25.0936 -2.9945 0.506304 0
M  V30 213 H 22.6786 -1.46071 0.313622 0
M  V30 214 H 24.5606 -3.80631 -1.80827 0
M  V30 215 H 23.2356 -2.61462 -1.90839 0
M  V30 216 H 22.1426 -3.73914 0.117799 0
M  V30 217 H 23.4756 -4.92014 0.135308 0
M  V30 218 N 25.1277 -0.289203 -1.54924 0
M  V30 219 C 26.3557 0.326463 -2.04308 0
M  V30 220 C 26.7707 1.48413 -1.16701 0
M  V30 221 O 26.1277 1.81507 -0.190087 0
M  V30 222 C 26.1787 0.794014 -3.52672 0
M  V30 223 O 25.8997 -0.317564 -4.36948 0
M  V30 224 C 27.4007 1.47605 -4.18004 0
M  V30 225 H 24.6207 0.0726272 -0.667058 0
M  V30 226 H 27.1647 -0.425401 -2.00026 0
M  V30 227 H 25.3197 1.49593 -3.57352 0
M  V30 228 H 25.7337 0.0443186 -5.24481 0
M  V30 229 H 27.2077 1.75447 -5.23376 0
M  V30 230 H 27.6847 2.41224 -3.67025 0
M  V30 231 H 28.2907 0.81762 -4.17367 0
M  V30 232 N 26.6058 1.57591 -0.0167156 0
M  V30 233 C 27.8308 1.9598 0.67872 0
M  V30 234 C 28.2558 0.892546 1.65575 0
M  V30 235 O 27.6138 -0.147772 1.80697 0
M  V30 236 C 27.6618 3.33468 1.37227 0
M  V30 237 O 26.7658 3.28954 2.48722 0
M  V30 238 H 26.1068 0.639339 0.17928 0
M  V30 239 H 28.6368 2.04463 -0.0748802 0
M  V30 240 H 28.6468 3.69417 1.7319 0
M  V30 241 H 27.3218 4.10694 0.656007 0
M  V30 242 H 25.8988 3.04705 2.14963 0
M  V30 243 N 28.0839 -0.256276 1.55502 0
M  V30 244 C 29.3299 -0.987079 1.77157 0
M  V30 245 C 29.6629 -1.85327 0.580315 0
M  V30 246 O 28.9379 -1.89874 -0.421686 0
M  V30 247 C 29.2209 -1.85553 3.08613 0
M  V30 248 C 29.0739 -1.01816 4.38125 0
M  V30 249 C 30.3929 -2.8397 3.36228 0
M  V30 250 H 27.5119 -0.357428 0.644526 0
M  V30 251 H 30.1539 -0.258239 1.88237 0
M  V30 252 H 28.3039 -2.47695 2.99298 0
M  V30 253 H 29.9759 -0.416159 4.59419 0
M  V30 254 H 28.2189 -0.322178 4.32602 0
M  V30 255 H 28.8899 -1.65939 5.26468 0
M  V30 256 H 31.3659 -2.31964 3.45445 0
M  V30 257 H 30.2419 -3.41864 4.29442 0
M  V30 258 H 30.5029 -3.59955 2.56681 0
M  V30 259 N 29.562 -1.4872 -0.521534 0
M  V30 260 C 30.79 -1.60843 -1.30142 0
M  V30 261 C 31.205 -0.271897 -1.86832 0
M  V30 262 O 30.562 0.739969 -1.66825 0
M  V30 263 C 30.613 -2.66155 -2.4463 0
M  V30 264 O 30.334 -3.94623 -1.90275 0
M  V30 265 C 31.835 -2.88795 -3.36322 0
M  V30 266 H 29.055 -0.542075 -0.395468 0
M  V30 267 H 31.599 -1.94609 -0.628285 0
M  V30 268 H 29.754 -2.35224 -3.07812 0
M  V30 269 H 30.168 -4.52468 -2.65279 0
M  V30 270 H 31.642 -3.66264 -4.12983 0
M  V30 271 H 32.119 -1.97934 -3.9207 0
M  V30 272 H 32.725 -3.21063 -2.78924 0
M  V30 273 N 31.0401 0.771051 -1.3745 0
M  V30 274 C 32.2701 1.55789 -1.35696 0
M  V30 275 C 32.6781 1.89107 0.0594523 0
M  V30 276 O 32.0211 1.51984 1.03183 0
M  V30 277 C 32.0831 2.89515 -2.13123 0
M  V30 278 C 31.7471 2.78829 -3.62082 0
M  V30 279 C 32.7441 2.49812 -4.5595 0
M  V30 280 C 30.4291 2.9683 -4.05213 0
M  V30 281 C 32.4231 2.38923 -5.90927 0
M  V30 282 C 30.1101 2.85562 -5.40276 0
M  V30 283 C 31.1081 2.56649 -6.32946 0
M  V30 284 O 30.7961 2.45408 -7.65526 0
M  V30 285 H 30.5281 0.489257 -0.466481 0
M  V30 286 H 33.0821 0.963446 -1.81403 0
M  V30 287 H 31.3121 3.51081 -1.62107 0
M  V30 288 H 33.0011 3.50915 -2.03994 0
M  V30 289 H 33.7671 2.3559 -4.23937 0
M  V30 290 H 29.6461 3.18335 -3.33442 0
M  V30 291 H 33.1901 2.16277 -6.63227 0
M  V30 292 H 29.0871 2.99351 -5.71891 0
M  V30 293 H 29.8551 2.60753 -7.75855 0
M  V30 294 N 32.5182 1.22032 0.997298 0
M  V30 295 C 33.7482 1.06686 1.76923 0
M  V30 296 C 34.1562 -0.385838 1.85224 0
M  V30 297 O 33.4992 -1.27929 1.31833 0
M  V30 298 C 33.5612 1.59802 3.22031 0
M  V30 299 C 33.2252 3.08362 3.37286 0
M  V30 300 C 34.2222 4.05835 3.24952 0
M  V30 301 C 31.9072 3.47727 3.6248 0
M  V30 302 C 33.9012 5.4066 3.37588 0
M  V30 303 C 31.5882 4.82701 3.74757 0
M  V30 304 C 32.5862 5.78977 3.62319 0
M  V30 305 O 32.2742 7.11502 3.74193 0
M  V30 306 H 32.0062 0.374767 0.562606 0
M  V30 307 H 34.5602 1.61991 1.26286 0
M  V30 308 H 32.7902 0.989003 3.73839 0
M  V30 309 H 34.4792 1.40184 3.80924 0
M  V30 310 H 35.2452 3.76766 3.05405 0
M  V30 311 H 31.1242 2.73317 3.7124 0
M  V30 312 H 34.6682 6.15788 3.27796 0
M  V30 313 H 30.5652 5.11453 3.9381 0
M  V30 314 H 31.3332 7.19019 3.91093 0
M  V30 315 N 33.9963 -1.19345 1.0293 0
M  V30 316 C 35.4123 -1.41069 0.746446 0
M  V30 317 C 35.6123 -1.90078 -0.668776 0
M  V30 318 O 34.6683 -2.0778 -1.4347 0
M  V30 319 C 35.9813 -2.42141 1.78292 0
M  V30 320 C 37.5293 -2.55887 1.80252 0
M  V30 321 C 38.0043 -3.60214 2.8286 0
M  V30 322 N 39.4953 -3.67711 2.81679 0
M  V30 323 C 40.2303 -4.48128 3.57727 0
M  V30 324 N 39.7263 -5.32248 4.43491 0
M  V30 325 N 41.5193 -4.42782 3.46267 0
M  V30 326 H 33.6703 -0.858536 1.94275 0
M  V30 327 H 35.9333 -0.439541 0.839945 0
M  V30 328 H 35.6393 -2.13155 2.79746 0
M  V30 329 H 35.5133 -3.41323 1.60557 0
M  V30 330 H 37.9003 -2.84196 0.794757 0
M  V30 331 H 37.9813 -1.56858 2.02062 0
M  V30 332 H 37.6253 -3.32647 3.83807 0
M  V30 333 H 37.5553 -4.58895 2.58307 0
M  V30 334 H 40.0463 -3.07634 2.19476 0
M  V30 335 H 40.3593 -5.90729 4.98256 0
M  V30 336 H 38.7043 -5.31707 4.47564 0
M  V30 337 H 41.8953 -3.76107 2.78677 0
M  V30 338 H 42.0683 -5.05215 4.05785 0
M  V30 339 N 35.4744 -0.807222 -1.35358 0
M  V30 340 C 36.4044 -0.232509 -2.3234 0
M  V30 341 C 37.3854 0.642386 -1.57504 0
M  V30 342 O 38.5704 0.572526 -1.85569 0
M  V30 343 C 35.7004 0.619238 -3.41735 0
M  V30 344 C 34.6544 -0.157215 -4.27711 0
M  V30 345 C 33.9804 0.816273 -5.28433 0
M  V30 346 C 35.2804 -1.35656 -5.04376 0
M  V30 347 H 36.9744 -1.04276 -2.80654 0
M  V30 348 H 34.5204 -0.50288 -1.34934 0
M  V30 349 H 36.4734 1.03137 -4.08584 0
M  V30 350 H 35.1974 1.46239 -2.92031 0
M  V30 351 H 33.8564 -0.550525 -3.62443 0
M  V30 352 H 33.5044 1.65494 -4.74996 0
M  V30 353 H 33.2044 0.301067 -5.86828 0
M  V30 354 H 34.7284 1.22659 -5.98153 0
M  V30 355 H 36.1424 -1.01927 -5.64166 0
M  V30 356 H 34.5394 -1.8063 -5.7227 0
M  V30 357 H 35.6094 -2.14288 -4.34981 0
M  V30 358 N 36.9525 1.47285 -0.560781 0
M  V30 359 C 37.8625 2.33846 0.187954 0
M  V30 360 C 38.8785 1.48412 0.908293 0
M  V30 361 O 40.0545 1.81332 0.876388 0
M  V30 362 C 37.1195 3.25178 1.2025 0
M  V30 363 C 36.1805 4.26504 0.489208 0
M  V30 364 C 35.4135 5.13472 1.45542 0
M  V30 365 O 35.6365 5.02959 2.6905 0
M  V30 366 O 34.5705 5.93902 0.977963 0
M  V30 367 H 38.3965 2.99177 -0.522177 0
M  V30 368 H 35.9815 1.45903 -0.321364 0
M  V30 369 H 37.8635 3.81584 1.78805 0
M  V30 370 H 36.5385 2.6247 1.89449 0
M  V30 371 H 35.4455 3.73847 -0.137627 0
M  V30 372 H 36.7785 4.91935 -0.161399 0
M  V30 373 N 38.4306 0.297415 1.54768 0
M  V30 374 C 39.3406 -0.58983 2.27064 0
M  V30 375 C 40.3566 -1.15144 1.30453 0
M  V30 376 O 41.5326 -1.17699 1.63428 0
M  V30 377 C 38.5976 -1.74714 2.9946 0
M  V30 378 C 37.6586 -1.21997 4.11601 0
M  V30 379 C 36.8916 -2.32212 4.80535 0
M  V30 380 O 37.1146 -3.52036 4.48806 0
M  V30 381 O 36.0486 -1.99106 5.68014 0
M  V30 382 H 39.8746 -0.00348199 3.037 0
M  V30 383 H 37.4596 0.0640035 1.49263 0
M  V30 384 H 39.3416 -2.42147 3.44881 0
M  V30 385 H 38.0166 -2.32016 2.25722 0
M  V30 386 H 36.9236 -0.511458 3.70587 0
M  V30 387 H 38.2566 -0.692419 4.87305 0
M  V30 388 N 39.9087 -1.5758 0.0250728 0
M  V30 389 C 41.1547 -1.91917 -0.655413 0
M  V30 390 C 41.4877 -0.901433 -1.72011 0
M  V30 391 O 40.7627 0.0764069 -1.9435 0
M  V30 392 C 41.0457 -3.36751 -1.27558 0
M  V30 393 C 40.8987 -4.49258 -0.220719 0
M  V30 394 C 42.2177 -3.81469 -2.19475 0
M  V30 395 H 39.3367 -0.697925 -0.23679 0
M  V30 396 H 41.9787 -1.89825 0.0815036 0
M  V30 397 H 40.1287 -3.38664 -1.90365 0
M  V30 398 H 41.8007 -4.59478 0.409601 0
M  V30 399 H 40.0437 -4.31415 0.454264 0
M  V30 400 H 40.7147 -5.47618 -0.694175 0
M  V30 401 H 43.1907 -3.81266 -1.66659 0
M  V30 402 H 42.0667 -4.83512 -2.59822 0
M  V30 403 H 42.3277 -3.16744 -3.08424 0
M  V30 404 N 41.3868 0.248026 -1.55636 0
M  V30 405 C 42.3498 1.29044 -1.89421 0
M  V30 406 C 43.3498 1.41134 -0.770581 0
M  V30 407 O 44.5398 1.39854 -1.03858 0
M  V30 408 C 41.6718 2.66831 -2.12165 0
M  V30 409 H 42.8648 1.00305 -2.82629 0
M  V30 410 H 40.4178 0.487265 -1.48511 0
M  V30 411 H 41.1528 3.00711 -1.21422 0
M  V30 412 H 40.9378 2.59438 -2.93997 0
M  V30 413 H 42.4278 3.42103 -2.3949 0
M  V30 414 N 42.8649 1.48995 0.513639 0
M  V30 415 C 43.8119 1.6473 1.61656 0
M  V30 416 C 44.7819 0.488984 1.58739 0
M  V30 417 O 45.9669 0.714478 1.76918 0
M  V30 418 C 43.1069 1.7082 2.99858 0
M  V30 419 C 42.2199 2.9787 3.12885 0
M  V30 420 C 41.3549 2.95017 4.41744 0
M  V30 421 C 40.3939 4.16702 4.48359 0
M  V30 422 N 39.5309 4.11832 5.68629 0
M  V30 423 H 44.3709 2.58909 1.47547 0
M  V30 424 H 41.9079 1.28382 0.71808 0
M  V30 425 H 43.8659 1.72331 3.79944 0
M  V30 426 H 42.4959 0.801181 3.12699 0
M  V30 427 H 41.5479 3.06029 2.25944 0
M  V30 428 H 42.8599 3.8786 3.13633 0
M  V30 429 H 42.0139 2.95021 5.30139 0
M  V30 430 H 40.7529 2.02784 4.43542 0
M  V30 431 H 39.7579 4.16955 3.58369 0
M  V30 432 H 40.9829 5.10113 4.48287 0
M  V30 433 H 38.9289 3.22428 5.71293 0
M  V30 434 H 38.8459 4.95543 5.7094 0
M  V30 435 H 40.1139 4.1592 6.59266 0
M  V30 436 N 44.343 -0.763751 1.37857 0
M  V30 437 C 45.759 -1.06542 1.18832 0
M  V30 438 C 45.959 -2.01478 0.0299722 0
M  V30 439 O 45.015 -2.4458 -0.627447 0
M  V30 440 C 46.328 -1.65525 2.51042 0
M  V30 441 C 47.876 -1.77745 2.57635 0
M  V30 442 C 48.351 -2.4014 3.89996 0
M  V30 443 N 49.842 -2.47582 3.91481 0
M  V30 444 C 50.577 -2.96732 4.9065 0
M  V30 445 N 50.073 -3.45993 6.00217 0
M  V30 446 N 51.866 -2.95679 4.78048 0
M  V30 447 H 44.017 -0.133556 2.1198 0
M  V30 448 H 46.28 -0.121879 0.940133 0
M  V30 449 H 45.986 -1.03236 3.36207 0
M  V30 450 H 45.86 -2.64719 2.68707 0
M  V30 451 H 48.247 -2.39164 1.72872 0
M  V30 452 H 48.328 -0.772836 2.43846 0
M  V30 453 H 47.972 -1.79358 4.75177 0
M  V30 454 H 47.902 -3.41223 4.01092 0
M  V30 455 H 50.393 -2.1273 3.12337 0
M  V30 456 H 50.706 -3.81922 6.7183 0
M  V30 457 H 49.051 -3.44077 6.03851 0
M  V30 458 H 52.242 -2.56499 3.91568 0
M  V30 459 H 52.415 -3.33672 5.55488 0
M  V30 460 N 45.8211 -1.22559 -0.990812 0
M  V30 461 C 46.7691 -0.994798 -2.10253 0
M  V30 462 C 47.7631 0.0627798 -1.69284 0
M  V30 463 O 48.9691 -0.0898392 -1.79776 0
M  V30 464 H 45.3441 -0.304527 -0.687581 0
M  V30 465 H 47.3151 -1.93812 -2.26891 0
M  V30 466 C 46.0641 -0.591439 -3.42633 0
M  V30 467 H 45.3871 -1.3969 -3.74602 0
M  V30 468 H 46.8271 -0.469385 -4.21394 0
M  V30 469 C 45.2861 0.699232 -3.29564 0
M  V30 470 O 45.8161 1.75112 -3.61523 0
M  V30 471 N 44.0221 0.671182 -2.82743 0
M  V30 472 H 43.5691 -0.185136 -2.56934 0
M  V30 473 H 43.5271 1.53502 -2.7438 0
M  V30 474 N 47.2992 1.18797 -1.03562 0
M  V30 475 C 48.5242 1.9314 -0.755764 0
M  V30 476 C 48.9492 1.7537 0.68022 0
M  V30 477 O 48.3072 1.06046 1.47051 0
M  V30 478 C 48.3552 3.42747 -1.12058 0
M  V30 479 O 47.4592 4.11683 -0.243124 0
M  V30 480 H 46.8002 0.602724 -0.278604 0
M  V30 481 H 49.3302 1.50678 -1.3841 0
M  V30 482 H 49.3402 3.93437 -1.08035 0
M  V30 483 H 48.0152 3.55002 -2.16672 0
M  V30 484 H 46.5922 3.71323 -0.342539 0
M  V30 485 N 48.7773 0.814389 1.34928 0
M  V30 486 C 49.7073 0.244827 2.32213 0
M  V30 487 C 50.6883 -0.634024 1.57842 0
M  V30 488 O 51.8733 -0.562676 1.8587 0
M  V30 489 C 49.0033 -0.601106 3.42058 0
M  V30 490 C 47.9573 0.179896 4.27622 0
M  V30 491 C 47.2833 -0.788237 5.28858 0
M  V30 492 C 48.5833 1.38329 5.03649 0
M  V30 493 H 50.2773 1.05763 2.80097 0
M  V30 494 H 47.8233 0.510029 1.34665 0
M  V30 495 H 49.7763 -1.00968 4.09125 0
M  V30 496 H 48.5003 -1.44688 2.92802 0
M  V30 497 H 47.1593 0.569739 3.62146 0
M  V30 498 H 46.8073 -1.62973 4.75866 0
M  V30 499 H 46.5073 -0.269942 5.8698 0
M  V30 500 H 48.0313 -1.19485 5.98795 0
M  V30 501 H 49.4453 1.04918 5.63618 0
M  V30 502 H 47.8423 1.83662 5.71304 0
M  V30 503 H 48.9123 2.16592 4.33839 0
M  V30 504 N 50.2554 -1.46986 0.568584 0
M  V30 505 C 51.2024 -2.30153 -0.172707 0
M  V30 506 C 52.1724 -1.39759 -0.897586 0
M  V30 507 O 53.3574 -1.68716 -0.891044 0
M  V30 508 C 50.4974 -3.23952 -1.1895 0
M  V30 509 C 49.6104 -4.29441 -0.469517 0
M  V30 510 C 48.7454 -5.1038 -1.47259 0
M  V30 511 C 47.7844 -6.07632 -0.738225 0
M  V30 512 N 46.9214 -6.8149 -1.68868 0
M  V30 513 H 51.7614 -2.93019 0.542596 0
M  V30 514 H 49.2984 -1.44422 0.279401 0
M  V30 515 H 51.2564 -3.76767 -1.79173 0
M  V30 516 H 49.8864 -2.62926 -1.87269 0
M  V30 517 H 48.9384 -3.79594 0.247467 0
M  V30 518 H 50.2504 -4.98689 0.105241 0
M  V30 519 H 49.4044 -5.67402 -2.14803 0
M  V30 520 H 48.1434 -4.4106 -2.08128 0
M  V30 521 H 47.1484 -5.49778 -0.0489293 0
M  V30 522 H 48.3734 -6.78966 -0.135129 0
M  V30 523 H 46.3194 -6.14891 -2.28573 0
M  V30 524 H 46.2364 -7.46948 -1.16636 0
M  V30 525 H 47.5044 -7.43078 -2.3549 0
M  V30 526 N 51.7335 -0.305618 -1.54608 0
M  V30 527 C 52.6435 0.57778 -2.27374 0
M  V30 528 C 53.6595 1.14451 -1.31061 0
M  V30 529 O 54.8355 1.16831 -1.6405 0
M  V30 530 C 51.9005 1.73123 -3.00382 0
M  V30 531 C 50.9615 1.19812 -4.12242 0
M  V30 532 C 50.1945 2.2966 -4.81759 0
M  V30 533 O 50.4175 3.49651 -4.50666 0
M  V30 534 O 49.3515 1.96091 -5.69062 0
M  V30 535 H 53.1775 -0.012624 -3.03697 0
M  V30 536 H 50.7625 -0.0719184 -1.49227 0
M  V30 537 H 52.6445 2.40315 -3.4616 0
M  V30 538 H 51.3195 2.30815 -2.26949 0
M  V30 539 H 50.2265 0.491798 -3.70853 0
M  V30 540 H 51.5595 0.666566 -4.87666 0
M  V30 541 N 53.2116 1.57565 -0.0334293 0
M  V30 542 C 54.1416 2.13511 0.945265 0
M  V30 543 C 55.1226 1.05231 1.33643 0
M  V30 544 O 56.3076 1.33084 1.41429 0
M  V30 545 C 53.4376 2.6657 2.22616 0
M  V30 546 C 52.3916 3.79676 1.97561 0
M  V30 547 C 51.7176 4.1918 3.31952 0
M  V30 548 C 53.0176 5.0557 1.31135 0
M  V30 549 H 54.7116 2.95538 0.479325 0
M  V30 550 H 52.2576 1.42166 0.229115 0
M  V30 551 H 54.2106 3.04344 2.91466 0
M  V30 552 H 52.9346 1.8171 2.71384 0
M  V30 553 H 51.5936 3.42347 1.31127 0
M  V30 554 H 51.2416 3.31296 3.78487 0
M  V30 555 H 50.9416 4.95402 3.15992 0
M  V30 556 H 52.4656 4.59541 4.02063 0
M  V30 557 H 53.8796 5.40903 1.89992 0
M  V30 558 H 52.2766 5.86818 1.25559 0
M  V30 559 H 53.3466 4.84062 0.284894 0
M  V30 560 N 54.6897 -0.239769 1.55765 0
M  V30 561 C 55.9357 -0.963942 1.79108 0
M  V30 562 C 56.2907 -1.82689 0.60352 0
M  V30 563 O 55.5837 -1.87313 -0.403033 0
M  V30 564 C 55.7777 -1.852 3.05672 0
M  V30 565 C 55.6067 -1.07651 4.36625 0
M  V30 566 C 54.3767 -0.778738 4.99263 0
M  V30 567 C 56.5747 -0.45062 5.12322 0
M  V30 568 N 54.5567 0.0200708 6.13897 0
M  V30 569 C 55.9277 0.212429 6.19636 0
M  V30 570 C 57.9827 -0.361806 4.96584 0
M  V30 571 C 56.6857 0.955772 7.12922 0
M  V30 572 C 58.7117 0.368023 5.90254 0
M  V30 573 C 58.0737 1.01968 6.96981 0
M  V30 574 H 54.1727 -0.333601 0.707272 0
M  V30 575 H 56.7567 -0.236425 1.93259 0
M  V30 576 H 54.9277 -2.55149 2.92837 0
M  V30 577 H 56.6597 -2.51228 3.1728 0
M  V30 578 H 53.4147 -1.09229 4.60832 0
M  V30 579 H 53.8387 0.407777 6.75771 0
M  V30 580 H 58.4807 -0.851286 4.14141 0
M  V30 581 H 56.1987 1.45683 7.9486 0
M  V30 582 H 59.7847 0.437504 5.80153 0
M  V30 583 H 58.6647 1.5754 7.68213 0
M  V30 584 N 56.1678 -1.49265 -0.50573 0
M  V30 585 C 57.0978 -1.68495 -1.61653 0
M  V30 586 C 58.0788 -0.53366 -1.61512 0
M  V30 587 O 59.2638 -0.76897 -1.78327 0
M  V30 588 C 56.3938 -1.74709 -3.00157 0
M  V30 589 C 55.3478 -2.89581 -3.15162 0
M  V30 590 C 54.6738 -2.80903 -4.5497 0
M  V30 591 C 55.9738 -4.30578 -2.95634 0
M  V30 592 H 57.6678 -2.61493 -1.45814 0
M  V30 593 H 55.2138 -1.25838 -0.70005 0
M  V30 594 H 57.1668 -1.86748 -3.77761 0
M  V30 595 H 55.8908 -0.783067 -3.17074 0
M  V30 596 H 54.5498 -2.77136 -2.39982 0
M  V30 597 H 54.1978 -1.82419 -4.68756 0
M  V30 598 H 53.8978 -3.57999 -4.65951 0
M  V30 599 H 55.4218 -2.94944 -5.34641 0
M  V30 600 H 56.8358 -4.4373 -3.63011 0
M  V30 601 H 55.2328 -5.0886 -3.18091 0
M  V30 602 H 56.3028 -4.45352 -1.91806 0
M  V30 603 N 57.6459 0.756429 -1.3826 0
M  V30 604 C 58.8919 1.51772 -1.34511 0
M  V30 605 C 59.2249 1.94089 0.0656691 0
M  V30 606 O 58.4999 1.65221 1.02626 0
M  V30 607 C 58.7829 2.77226 -2.29821 0
M  V30 608 C 58.6359 2.41065 -3.79747 0
M  V30 609 C 59.9549 3.79236 -2.23312 0
M  V30 610 H 57.0739 0.550578 -0.489931 0
M  V30 611 H 59.7159 0.866607 -1.69086 0
M  V30 612 H 57.8659 3.32784 -2.00467 0
M  V30 613 H 59.5379 1.91303 -4.19763 0
M  V30 614 H 57.7809 1.7356 -3.97567 0
M  V30 615 H 58.4519 3.3081 -4.41892 0
M  V30 616 H 60.9279 3.3321 -2.49219 0
M  V30 617 H 59.8039 4.64714 -2.92116 0
M  V30 618 H 60.0649 4.24615 -1.23102 0
M  V30 619 N 59.124 1.23083 0.984299 0
M  V30 620 C 60.373 1.05466 1.71929 0
M  V30 621 C 60.686 -0.409211 1.91272 0
M  V30 622 O 61.892 -0.705226 2.62181 0
M  V30 623 C 60.348 1.83874 3.09384 0
M  V30 624 C 59.956 3.34566 2.97943 0
M  V30 625 C 61.7 1.74734 3.8687 0
M  V30 626 C 59.607 4.05381 4.30605 0
M  V30 627 H 58.537 0.391039 0.644674 0
M  V30 628 H 61.188 1.47013 1.09815 0
M  V30 629 H 59.57 1.35131 3.72231 0
M  V30 630 H 60.744 3.90767 2.44209 0
M  V30 631 H 59.059 3.44476 2.33934 0
M  V30 632 H 61.656 2.24957 4.85076 0
M  V30 633 H 61.999 0.709372 4.10212 0
M  V30 634 H 62.532 2.21067 3.30717 0
M  V30 635 H 59.271 5.09467 4.1246 0
M  V30 636 H 58.791 3.53967 4.84218 0
M  V30 637 H 60.47 4.11458 4.99311 0
M  V30 638 N 60.6021 -1.18246 1.0419 0
M  V30 639 C 61.5521 -2.19843 0.604392 0
M  V30 640 C 62.5361 -1.56962 -0.353814 0
M  V30 641 O 63.7281 -1.76156 -0.17267 0
M  V30 642 C 60.8571 -3.43287 -0.0298975 0
M  V30 643 C 59.9431 -4.13288 0.951531 0
M  V30 644 N 60.3341 -4.59271 2.11906 0
M  V30 645 C 58.6321 -4.39165 0.7778 0
M  V30 646 C 59.3331 -5.13173 2.73912 0
M  V30 647 N 58.3091 -5.04763 2.01779 0
M  V30 648 H 62.1111 -2.53089 1.4941 0
M  V30 649 H 59.6251 -1.34465 0.910658 0
M  V30 650 H 61.6221 -4.15334 -0.361037 0
M  V30 651 H 60.2821 -3.11537 -0.915127 0
M  V30 652 H 61.2931 -4.5368 2.49789 0
M  V30 653 H 57.9701 -4.17461 -0.0572331 0
M  V30 654 H 59.3601 -5.58947 3.72864 0
M  V30 655 N 62.0802 -0.821533 -1.34494 0
M  V30 656 C 63.3282 -0.408139 -1.97936 0
M  V30 657 C 63.6492 1.03193 -1.65457 0
M  V30 658 O 62.9192 1.71622 -0.944595 0
M  V30 659 H 61.4992 -0.147928 -0.732206 0
M  V30 660 H 64.1612 -1.05067 -1.64155 0
M  V30 661 H 63.2572 -0.52601 -3.07635 0
M  V30 662 N 63.5583 1.46682 -0.576371 0
M  V30 663 C 64.9743 1.57822 -0.237562 0
M  V30 664 C 65.1743 1.57237 1.26011 0
M  V30 665 O 64.2303 1.48596 2.04146 0
M  V30 666 C 65.5433 2.87499 -0.881168 0
M  V30 667 C 67.0913 3.01119 -0.85417 0
M  V30 668 C 67.5663 4.33524 -1.4772 0
M  V30 669 N 69.0573 4.40207 -1.44125 0
M  V30 670 C 69.7923 5.4126 -1.89276 0
M  V30 671 N 69.2883 6.49021 -2.42371 0
M  V30 672 N 71.0813 5.32422 -1.80231 0
M  V30 673 H 63.2323 1.45306 -1.54919 0
M  V30 674 H 65.4953 0.692733 -0.647167 0
M  V30 675 H 65.2013 2.9372 -1.93447 0
M  V30 676 H 65.0753 3.75224 -0.385592 0
M  V30 677 H 67.4623 2.94485 0.190491 0
M  V30 678 H 67.5433 2.14887 -1.3877 0
M  V30 679 H 67.1873 4.40916 -2.52103 0
M  V30 680 H 67.1173 5.1852 -0.918947 0
M  V30 681 H 69.6083 3.62931 -1.05307 0
M  V30 682 H 69.9213 7.2233 -2.74698 0
M  V30 683 H 68.2663 6.49858 -2.46393 0
M  V30 684 H 71.4573 4.47137 -1.38514 0
M  V30 685 H 71.6303 6.11034 -2.15735 0
M  V30 686 N 65.0364 0.313813 1.54444 0
M  V30 687 C 66.2824 -0.292108 2.00685 0
M  V30 688 C 66.6154 -1.52548 1.20177 0
M  V30 689 O 65.8904 -1.92452 0.281531 0
M  V30 690 C 66.1734 -0.635968 3.5444 0
M  V30 691 C 66.0264 0.607437 4.4568 0
M  V30 692 C 67.3454 -1.45747 4.15266 0
M  V30 693 H 64.4644 -0.104697 0.729526 0
M  V30 694 H 67.1064 0.428457 1.85106 0
M  V30 695 H 65.2564 -1.24986 3.67846 0
M  V30 696 H 66.9284 1.24581 4.44159 0
M  V30 697 H 65.1714 1.23822 4.15753 0
M  V30 698 H 65.8424 0.322515 5.51057 0
M  V30 699 H 68.3184 -0.938645 4.05375 0
M  V30 700 H 67.1944 -1.66683 5.2298 0
M  V30 701 H 67.4554 -2.45063 3.67963 0
M  V30 702 N 66.5145 -1.57545 0.0417849 0
M  V30 703 C 67.7445 -1.96339 -0.642995 0
M  V30 704 C 68.1525 -0.917536 -1.65463 0
M  V30 705 O 67.4955 0.107747 -1.83384 0
M  V30 706 C 67.5575 -3.31333 -1.39494 0
M  V30 707 C 67.2215 -4.53796 -0.540204 0
M  V30 708 C 68.2185 -5.19553 0.189806 0
M  V30 709 C 65.9035 -5.0006 -0.473886 0
M  V30 710 C 67.8975 -6.29904 0.974674 0
M  V30 711 C 65.5845 -6.10289 0.314677 0
M  V30 712 C 66.5825 -6.75072 1.03765 0
M  V30 713 O 66.2705 -7.83183 1.81327 0
M  V30 714 H 66.0025 -0.651241 -0.181277 0
M  V30 715 H 68.5565 -2.05148 0.101665 0
M  V30 716 H 66.7865 -3.19052 -2.18502 0
M  V30 717 H 68.4755 -3.54942 -1.96904 0
M  V30 718 H 69.2415 -4.84774 0.147981 0
M  V30 719 H 65.1205 -4.49433 -1.0262 0
M  V30 720 H 68.6645 -6.80401 1.5395 0
M  V30 721 H 64.5615 -6.44506 0.358174 0
M  V30 722 H 65.3295 -7.99913 1.73438 0
M  V30 723 N 67.9926 0.231505 -1.5589 0
M  V30 724 C 69.2696 0.981096 -1.69215 0
M  V30 725 C 69.6496 2.02799 -0.586164 0
M  V30 726 O 68.9976 2.24823 0.408253 0
M  V30 727 C 69.2076 1.60054 -3.10135 0
M  V30 728 C 70.5556 2.09658 -3.69227 0
M  V30 729 O 71.5796 1.69967 -3.13033 0
M  V30 730 O 70.4386 2.8258 -4.67772 0
M  V30 731 H 67.5326 0.457653 -0.688827 0
M  V30 732 H 70.0786 0.224073 -1.68214 0
M  V30 733 H 68.8506 0.844105 -3.82087 0
M  V30 734 H 68.4736 2.42336 -3.15212 0
M  V30 735 N 69.4707 1.49531 0.497807 0
M  V30 736 C 70.7167 1.59415 1.25358 0
M  V30 737 C 71.0497 0.281422 1.9215 0
M  V30 738 O 70.3247 -0.715249 1.80871 0
M  V30 739 C 70.6077 2.75566 2.3181 0
M  V30 740 C 70.4607 4.16642 1.69498 0
M  V30 741 C 71.7797 2.87347 3.33346 0
M  V30 742 H 68.8987 0.580244 0.454408 0
M  V30 743 H 71.5407 1.81827 0.551262 0
M  V30 744 H 69.6907 2.56587 2.91711 0
M  V30 745 H 71.3627 4.47145 1.13399 0
M  V30 746 H 69.6057 4.22141 0.998978 0
M  V30 747 H 70.2767 4.93792 2.46725 0
M  V30 748 H 72.7527 3.04634 2.83438 0
M  V30 749 H 71.6287 3.70289 4.05188 0
M  V30 750 H 71.8897 1.96834 3.95865 0
M  V30 751 N 70.9488 -0.749086 1.3866 0
M  V30 752 C 72.1768 -1.53834 1.38358 0
M  V30 753 C 72.5918 -1.88783 -0.0255219 0
M  V30 754 O 71.9488 -1.53101 -0.993292 0
M  V30 755 C 71.9998 -2.83468 2.2434 0
M  V30 756 O 71.7208 -2.50008 3.5976 0
M  V30 757 C 73.2218 -3.7758 2.32267 0
M  V30 758 H 70.4418 -0.47585 0.473083 0
M  V30 759 H 72.9858 -0.926726 1.82297 0
M  V30 760 H 71.1408 -3.40995 1.83851 0
M  V30 761 H 71.5548 -3.33182 4.05081 0
M  V30 762 H 73.0288 -4.65478 2.96706 0
M  V30 763 H 73.5058 -4.18334 1.33765 0
M  V30 764 H 74.1118 -3.25976 2.73166 0
M  V30 765 N 72.4269 -1.23603 -0.977757 0
M  V30 766 C 73.8429 -0.999251 -1.24447 0
M  V30 767 C 74.0429 0.298053 -1.99283 0
M  V30 768 O 73.0989 1.01681 -2.31122 0
M  V30 769 C 74.4119 -2.20784 -2.04144 0
M  V30 770 C 75.9599 -2.25303 -2.17273 0
M  V30 771 C 76.4349 -3.45755 -3.00362 0
M  V30 772 N 77.9259 -3.4601 -3.07947 0
M  V30 773 C 78.6609 -4.35868 -3.72568 0
M  V30 774 N 78.1569 -5.35966 -4.38991 0
M  V30 775 N 79.9499 -4.23605 -3.6948 0
M  V30 776 H 72.1009 -2.06986 -0.476483 0
M  V30 777 H 74.3639 -0.907801 -0.273134 0
M  V30 778 H 74.0699 -3.14945 -1.56533 0
M  V30 779 H 73.9439 -2.22085 -3.04891 0
M  V30 780 H 76.3309 -1.3168 -2.64092 0
M  V30 781 H 76.4119 -2.28033 -1.15907 0
M  V30 782 H 76.0559 -4.39687 -2.5424 0
M  V30 783 H 75.9859 -3.40266 -4.01904 0
M  V30 784 H 78.4769 -2.73588 -2.60688 0
M  V30 785 H 78.7899 -6.00783 -4.86086 0
M  V30 786 H 77.1349 -5.39863 -4.37691 0
M  V30 787 H 80.3259 -3.44647 -3.16759 0
M  V30 788 H 80.4989 -4.93836 -4.1956 0
M  V30 789 N 73.905 1.17692 -1.04816 0
M  V30 790 C 75.152 1.87859 -0.75599 0
M  V30 791 C 75.48 1.80812 0.716752 0
M  V30 792 O 74.735 1.20819 1.53952 0
M  V30 793 C 75.034 3.37462 -1.17703 0
M  V30 794 C 74.7 3.64713 -2.65133 0
M  V30 795 C 73.362 3.71859 -3.05408 0
M  V30 796 C 75.714 3.76492 -3.60421 0
M  V30 797 C 73.042 3.88271 -4.39843 0
M  V30 798 C 75.394 3.94421 -4.94585 0
M  V30 799 C 74.058 3.99806 -5.3452 0
M  V30 800 H 73.328 0.687425 -0.276636 0
M  V30 801 H 75.975 1.39255 -1.31455 0
M  V30 802 H 74.28 3.88097 -0.537395 0
M  V30 803 H 75.977 3.90109 -0.928218 0
M  V30 804 H 72.567 3.59772 -2.32942 0
M  V30 805 H 76.751 3.70295 -3.30447 0
M  V30 806 H 72.007 3.90687 -4.70291 0
M  V30 807 H 76.181 4.02477 -5.68318 0
M  V30 808 H 73.808 4.12276 -6.38696 0
M  V30 809 N 75.3831 0.828654 1.34056 0
M  V30 810 C 76.3131 0.269443 2.3194 0
M  V30 811 C 77.2941 -0.617247 1.58506 0
M  V30 812 O 78.4791 -0.542931 1.86456 0
M  V30 813 C 75.6091 -0.564793 3.42677 0
M  V30 814 C 74.5631 0.225241 4.27407 0
M  V30 815 C 73.8891 -0.7321 5.29664 0
M  V30 816 C 75.1891 1.43663 5.02154 0
M  V30 817 H 76.8831 1.08728 2.7896 0
M  V30 818 H 74.4291 0.524283 1.34117 0
M  V30 819 H 76.3821 -0.966233 4.10173 0
M  V30 820 H 75.1061 -1.41574 2.9432 0
M  V30 821 H 73.7651 0.608117 3.61521 0
M  V30 822 H 73.4131 -1.57916 4.77568 0
M  V30 823 H 73.1131 -0.20767 5.87233 0
M  V30 824 H 74.6371 -1.13128 6.00029 0
M  V30 825 H 76.0511 1.1089 5.62473 0
M  V30 826 H 74.4481 1.89711 5.69324 0
M  V30 827 H 75.5181 2.21181 4.31517 0
M  V30 828 N 76.8612 -1.46375 0.584142 0
M  V30 829 C 77.8092 -2.32042 -0.161047 0
M  V30 830 C 78.8032 -1.44569 -0.882966 0
M  V30 831 O 80.0092 -1.61186 -0.801191 0
M  V30 832 H 76.3842 -0.748659 -0.0708033 0
M  V30 833 H 78.3552 -2.92704 0.580269 0
M  V30 834 C 77.1042 -3.27762 -1.1605 0
M  V30 835 H 76.4272 -3.95051 -0.614419 0
M  V30 836 H 77.8672 -3.90481 -1.65228 0
M  V30 837 C 76.3262 -2.53218 -2.22221 0
M  V30 838 O 76.8562 -2.29628 -3.29597 0
M  V30 839 N 75.0622 -2.13756 -1.96868 0
M  V30 840 H 74.6092 -2.33142 -1.09557 0
M  V30 841 H 74.5672 -1.642 -2.68115 0
M  V30 842 N 78.3393 -0.321999 -1.54275 0
M  V30 843 C 79.2493 0.553631 -2.27974 0
M  V30 844 C 80.2653 1.13054 -1.32268 0
M  V30 845 O 81.4413 1.15084 -1.6528 0
M  V30 846 C 78.5063 1.69927 -3.02201 0
M  V30 847 C 77.5673 1.15433 -4.1349 0
M  V30 848 C 76.8003 2.24537 -4.84168 0
M  V30 849 O 77.0233 3.44852 -4.5435 0
M  V30 850 O 75.9573 1.90044 -5.7111 0
M  V30 851 H 79.7833 -0.0448345 -3.03667 0
M  V30 852 H 77.3683 -0.0877418 -1.49142 0
M  V30 853 H 79.2503 2.3663 -3.48689 0
M  V30 854 H 77.9253 2.28395 -2.29385 0
M  V30 855 H 76.8323 0.452436 -3.71354 0
M  V30 856 H 78.1653 0.614805 -4.88345 0
M  V30 857 N 79.8174 1.5752 -0.0501392 0
M  V30 858 C 80.7674 2.07981 0.934231 0
M  V30 859 C 81.7514 0.984745 1.27246 0
M  V30 860 O 82.9434 1.24809 1.25506 0
M  V30 861 C 80.0724 2.62751 2.20945 0
M  V30 862 C 79.1584 3.79225 1.89865 0
M  V30 863 N 79.5494 4.89036 1.29142 0
M  V30 864 C 77.8474 3.88111 2.19741 0
M  V30 865 C 78.5484 5.70084 1.15669 0
M  V30 866 N 77.5244 5.17659 1.65923 0
M  V30 867 H 81.3264 2.90277 0.460053 0
M  V30 868 H 78.8404 1.61665 0.15434 0
M  V30 869 H 80.8374 2.97205 2.9236 0
M  V30 870 H 79.4974 1.81894 2.6897 0
M  V30 871 H 80.5084 5.08854 0.963756 0
M  V30 872 H 77.1854 3.18194 2.70293 0
M  V30 873 H 78.5754 6.68395 0.685356 0
M  V30 874 N 81.2955 -0.223234 1.56011 0
M  V30 875 C 82.7065 -0.790368 1.69145 0
M  V30 876 C 83.0575 -1.85055 0.651845 0
M  V30 877 O 82.1825 -2.15498 -0.197359 0
M  V30 878 C 82.7775 -1.4404 3.06656 0
M  V30 879 C 81.3365 -1.95494 3.2165 0
M  V30 880 C 80.4835 -0.814506 2.65068 0
M  V30 881 H 83.4345 0.00139011 1.587 0
M  V30 882 H 83.4555 -2.30916 3.0242 0
M  V30 883 H 82.9675 -0.668543 3.82298 0
M  V30 884 H 81.0685 -2.75487 2.50874 0
M  V30 885 H 81.1815 -2.13607 4.28846 0
M  V30 886 H 79.5455 -1.22137 2.23505 0
M  V30 887 H 80.3285 -0.0553515 3.43255 0
M  V30 888 N 82.7736 -1.49793 -0.48987 0
M  V30 889 C 84.0216 -1.59525 -1.24081 0
M  V30 890 C 84.3426 -0.288953 -1.92847 0
M  V30 891 O 83.6126 0.692436 -1.83254 0
M  V30 892 H 82.1926 -0.587796 -0.460983 0
M  V30 893 H 84.8546 -1.86477 -0.566778 0
M  V30 894 H 83.9506 -2.39696 -1.99881 0
M  V30 895 N 84.2517 0.741722 -1.39055 0
M  V30 896 C 85.4997 1.49818 -1.35643 0
M  V30 897 C 85.8207 1.94938 0.0491642 0
M  V30 898 O 85.0907 1.68505 0.999141 0
M  V30 899 H 83.6707 0.555755 -0.499144 0
M  V30 900 H 86.3327 0.880957 -1.73854 0
M  V30 901 H 85.4287 2.38348 -2.01486 0
M  V30 902 N 85.7298 1.2412 0.971189 0
M  V30 903 C 86.6398 1.04747 2.09917 0
M  V30 904 C 87.6558 -0.0107162 1.73997 0
M  V30 905 O 88.8318 0.186714 2.00533 0
M  V30 906 C 85.8968 0.650828 3.40537 0
M  V30 907 C 84.9578 1.7851 3.90426 0
M  V30 908 C 84.1908 1.40729 5.14812 0
M  V30 909 O 84.4138 0.29557 5.69634 0
M  V30 910 O 83.3478 2.23168 5.58999 0
M  V30 911 H 87.1738 1.99304 2.29154 0
M  V30 912 H 84.7588 1.02908 1.08307 0
M  V30 913 H 86.6408 0.440992 4.19086 0
M  V30 914 H 85.3158 -0.265649 3.22608 0
M  V30 915 H 84.2228 2.04966 3.12953 0
M  V30 916 H 85.5558 2.68023 4.12825 0
M  V30 917 N 87.2079 -1.17134 1.05439 0
M  V30 918 C 88.1179 -2.24878 0.668365 0
M  V30 919 C 89.1339 -1.71186 -0.311687 0
M  V30 920 O 90.3099 -2.00738 -0.163161 0
M  V30 921 C 87.3749 -3.46662 0.051648 0
M  V30 922 C 86.4359 -4.15429 1.08246 0
M  V30 923 C 85.6689 -5.31399 0.495082 0
M  V30 924 O 85.8919 -5.66153 -0.694743 0
M  V30 925 O 84.8259 -5.89187 1.23056 0
M  V30 926 H 88.6519 -2.60189 1.56637 0
M  V30 927 H 86.2369 -1.24482 0.826104 0
M  V30 928 H 88.1189 -4.20394 -0.290966 0
M  V30 929 H 86.7939 -3.13142 -0.819971 0
M  V30 930 H 85.7009 -3.43704 1.47711 0
M  V30 931 H 87.0339 -4.52982 1.92532 0
M  V30 932 N 88.686 -0.835752 -1.33615 0
M  V30 933 C 89.932 -0.430596 -1.98176 0
M  V30 934 C 90.265 1.00684 -1.66061 0
M  V30 935 O 89.54 1.70339 -0.938877 0
M  V30 936 C 89.823 -0.648065 -3.5422 0
M  V30 937 C 89.676 -2.13255 -3.96033 0
M  V30 938 C 90.995 -0.0922113 -4.40003 0
M  V30 939 H 88.114 -0.157924 -0.719881 0
M  V30 940 H 90.756 -1.05069 -1.58305 0
M  V30 941 H 88.906 -0.120237 -3.88314 0
M  V30 942 H 90.578 -2.725 -3.72211 0
M  V30 943 H 88.821 -2.61823 -3.45878 0
M  V30 944 H 89.492 -2.23547 -5.04708 0
M  V30 945 H 91.968 -0.543343 -4.12537 0
M  V30 946 H 90.844 -0.274083 -5.48215 0
M  V30 947 H 91.105 1.00378 -4.30554 0
M  V30 948 N 90.1641 1.46063 -0.591896 0
M  V30 949 C 91.0941 2.33172 0.123673 0
M  V30 950 C 92.0751 1.45897 0.87453 0
M  V30 951 O 93.2601 1.74698 0.848181 0
M  V30 952 C 90.3901 3.28336 1.13194 0
M  V30 953 C 89.3441 4.25124 0.495324 0
M  V30 954 C 88.6701 5.09863 1.61071 0
M  V30 955 C 89.9701 5.19143 -0.573425 0
M  V30 956 H 91.6641 2.93252 -0.603646 0
M  V30 957 H 89.2101 1.41014 -0.291741 0
M  V30 958 H 91.1631 3.88137 1.64097 0
M  V30 959 H 89.8871 2.66383 1.88965 0
M  V30 960 H 88.5461 3.66599 0.00729452 0
M  V30 961 H 88.1941 4.44288 2.35832 0
M  V30 962 H 87.8941 5.75417 1.19035 0
M  V30 963 H 89.4181 5.72529 2.12233 0
M  V30 964 H 90.8321 5.73106 -0.1491 0
M  V30 965 H 89.2291 5.93089 -0.914636 0
M  V30 966 H 90.2991 4.62519 -1.45617 0
M  V30 967 N 91.6422 0.330177 1.54103 0
M  V30 968 C 92.5722 -0.525353 2.27513 0
M  V30 969 C 93.5532 -1.11383 1.2856 0
M  V30 970 O 94.7382 -1.13773 1.57383 0
M  V30 971 C 91.8682 -1.6831 3.03791 0
M  V30 972 C 90.8222 -1.2236 4.10137 0
M  V30 973 C 90.1482 -2.46882 4.74293 0
M  V30 974 C 91.4482 -0.333697 5.21233 0
M  V30 975 H 93.1422 0.087013 2.99274 0
M  V30 976 H 90.6882 0.0432893 1.43935 0
M  V30 977 H 92.6412 -2.28795 3.5388 0
M  V30 978 H 91.3652 -2.32216 2.29659 0
M  V30 979 H 90.0242 -0.64165 3.60941 0
M  V30 980 H 89.6722 -3.09165 3.96769 0
M  V30 981 H 89.3722 -2.16825 5.46133 0
M  V30 982 H 90.8962 -3.08117 5.27159 0
M  V30 983 H 92.3102 -0.845013 5.67038 0
M  V30 984 H 90.7072 -0.125612 5.99969 0
M  V30 985 H 91.7772 0.633724 4.80741 0
M  V30 986 N 93.1203 -1.57491 0.0584922 0
M  V30 987 C 94.0303 -2.15448 -0.928414 0
M  V30 988 C 95.0463 -1.11416 -1.3365 0
M  V30 989 O 96.2223 -1.4362 -1.41193 0
M  V30 990 C 93.2873 -2.69393 -2.18239 0
M  V30 991 C 92.3483 -3.88249 -1.83196 0
M  V30 992 C 91.5813 -4.39613 -3.02616 0
M  V30 993 O 91.8043 -3.90023 -4.16219 0
M  V30 994 O 90.7383 -5.31111 -2.83204 0
M  V30 995 H 94.5643 -3.00112 -0.465483 0
M  V30 996 H 92.1493 -1.48499 -0.163826 0
M  V30 997 H 94.0313 -3.04026 -2.91798 0
M  V30 998 H 92.7063 -1.87796 -2.63656 0
M  V30 999 H 91.6133 -3.58492 -1.06931 0
M  V30 1000 H 92.9463 -4.71098 -1.42573 0
M  V30 1001 N 94.5984 0.214957 -1.56127 0
M  V30 1002 C 95.5304 1.29004 -1.89448 0
M  V30 1003 C 96.5434 1.42716 -0.783326 0
M  V30 1004 O 97.7324 1.43496 -1.06166 0
M  V30 1005 C 94.8324 2.66482 -2.09381 0
M  V30 1006 C 94.0054 2.74633 -3.40434 0
M  V30 1007 C 93.0644 3.9317 -3.49719 0
M  V30 1008 O 92.0904 3.812 -4.227 0
M  V30 1009 N 93.2924 5.07765 -2.81346 0
M  V30 1010 H 96.0574 1.00743 -2.82261 0
M  V30 1011 H 93.6184 0.40497 -1.56753 0
M  V30 1012 H 95.6104 3.44173 -2.12901 0
M  V30 1013 H 94.1804 2.87314 -1.23163 0
M  V30 1014 H 93.4004 1.83368 -3.48955 0
M  V30 1015 H 94.6884 2.77054 -4.26754 0
M  V30 1016 H 94.0864 5.20386 -2.21843 0
M  V30 1017 H 92.6434 5.83474 -2.90519 0
M  V30 1018 N 96.0765 1.50051 0.48192 0
M  V30 1019 C 97.0395 1.67584 1.5636 0
M  V30 1020 C 98.0395 0.546894 1.51214 0
M  V30 1021 O 99.2295 0.813725 1.54026 0
M  V30 1022 C 96.3615 1.691 2.96003 0
M  V30 1023 H 97.5545 2.64078 1.42136 0
M  V30 1024 H 95.1075 1.39369 0.707533 0
M  V30 1025 H 95.8425 0.742589 3.15684 0
M  V30 1026 H 95.6275 2.51105 3.01146 0
M  V30 1027 H 97.1175 1.84656 3.74556 0
M  V30 1028 N 97.5546 -0.734337 1.39446 0
M  V30 1029 C 98.8026 -1.49096 1.36436 0
M  V30 1030 C 99.1236 -1.94961 -0.0388255 0
M  V30 1031 O 98.3936 -1.69033 -0.990191 0
M  V30 1032 H 96.9736 -0.5531 0.502085 0
M  V30 1033 H 99.6356 -0.871725 1.74319 0
M  V30 1034 H 98.7316 -2.37276 2.02747 0
M  V30 1035 N 99.0327 -1.24633 -0.964593 0
M  V30 1036 C 100.279 -1.08949 -1.71049 0
M  V30 1037 C 100.612 0.370302 -1.90637 0
M  V30 1038 O 99.8867 1.27349 -1.47011 0
M  V30 1039 C 100.17 -1.83329 -3.0994 0
M  V30 1040 C 100.023 -3.37077 -2.97824 0
M  V30 1041 C 101.342 -1.60846 -4.09654 0
M  V30 1042 H 98.4607 -0.397178 -0.620821 0
M  V30 1043 H 101.103 -1.5334 -1.12191 0
M  V30 1044 H 99.2527 -1.45597 -3.60186 0
M  V30 1045 H 100.925 -3.84425 -2.5498 0
M  V30 1046 H 99.1677 -3.65298 -2.33965 0
M  V30 1047 H 99.8387 -3.84324 -3.96231 0
M  V30 1048 H 102.315 -1.93674 -3.68279 0
M  V30 1049 H 101.191 -2.1534 -5.04896 0
M  V30 1050 H 101.452 -0.547434 -4.38698 0
M  V30 1051 N 100.511 1.16574 -1.06058 0
M  V30 1052 C 101.788 1.83048 -0.689416 0
M  V30 1053 C 102.168 1.94122 0.829443 0
M  V30 1054 O 101.516 1.48249 1.7388 0
M  V30 1055 C 101.726 3.20186 -1.38859 0
M  V30 1056 C 103.074 3.95989 -1.53226 0
M  V30 1057 O 104.098 3.29696 -1.3483 0
M  V30 1058 O 102.957 5.14813 -1.83384 0
M  V30 1059 H 100.051 0.790258 -0.243764 0
M  V30 1060 H 102.597 1.23797 -1.16071 0
M  V30 1061 H 101.369 3.07146 -2.4244 0
M  V30 1062 H 100.992 3.87112 -0.907216 0
M  V30 1063 N 101.989 0.842826 1.3317 0
M  V30 1064 C 102.952 0.284065 2.27433 0
M  V30 1065 C 103.952 -0.54948 1.5112 0
M  V30 1066 O 105.142 -0.362699 1.70382 0
M  V30 1067 C 102.274 -0.599384 3.35589 0
M  V30 1068 H 103.467 1.11589 2.78366 0
M  V30 1069 H 101.02 0.616221 1.4364 0
M  V30 1070 H 101.755 -1.45349 2.89904 0
M  V30 1071 H 101.54 -0.00291266 3.921 0
M  V30 1072 H 103.03 -0.983488 4.05854 0
M  V30 1073 N 103.467 -1.45747 0.599634 0
M  V30 1074 C 104.692 -2.07178 0.0960198 0
M  V30 1075 C 105.117 -1.44268 -1.207 0
M  V30 1076 O 104.475 -0.532503 -1.73303 0
M  V30 1077 C 104.523 -3.60579 -0.0385348 0
M  V30 1078 O 103.627 -3.97713 -1.0908 0
M  V30 1079 H 102.968 -0.660251 0.0704593 0
M  V30 1080 H 105.498 -1.87124 0.827385 0
M  V30 1081 H 105.508 -4.07298 -0.239304 0
M  V30 1082 H 104.183 -4.05756 0.912947 0
M  V30 1083 H 102.76 -3.62678 -0.867135 0
M  V30 1084 N 104.945 -0.338344 -1.53925 0
M  V30 1085 C 105.855 0.529421 -2.28548 0
M  V30 1086 C 106.871 1.11645 -1.3346 0
M  V30 1087 O 108.047 1.13325 -1.66492 0
M  V30 1088 C 105.112 1.66713 -3.03987 0
M  V30 1089 C 104.173 1.11041 -4.14691 0
M  V30 1090 C 103.406 2.19389 -4.86522 0
M  V30 1091 O 103.629 3.40013 -4.57982 0
M  V30 1092 O 102.563 1.83976 -5.73094 0
M  V30 1093 H 106.389 -0.0770399 -3.03602 0
M  V30 1094 H 103.974 -0.103555 -1.49041 0
M  V30 1095 H 105.856 2.32918 -3.5118 0
M  V30 1096 H 104.531 2.25949 -2.31794 0
M  V30 1097 H 103.438 0.413024 -3.71813 0
M  V30 1098 H 104.771 0.562975 -4.8897 0
M  V30 1099 N 106.423 1.57458 -0.0668435 0
M  V30 1100 C 107.648 1.9804 0.616027 0
M  V30 1101 C 108.073 0.944771 1.62652 0
M  V30 1102 O 107.431 -0.0902094 1.81075 0
M  V30 1103 C 107.479 3.37665 1.26549 0
M  V30 1104 O 106.583 3.36701 2.38131 0
M  V30 1105 H 105.924 0.644719 0.158849 0
M  V30 1106 H 108.454 2.04121 -0.139891 0
M  V30 1107 H 108.464 3.7474 1.6135 0
M  V30 1108 H 107.139 4.12573 0.525016 0
M  V30 1109 H 105.716 3.1139 2.0516 0
M  V30 1110 N 107.901 -0.206675 1.56239 0
M  V30 1111 C 109.148 -0.928842 1.79941 0
M  V30 1112 C 109.476 -1.83734 0.638131 0
M  V30 1113 O 108.731 -1.92039 -0.376746 0
M  V30 1114 C 109.03 -1.78675 3.09532 0
M  V30 1115 C 108.696 -1.03022 4.38973 0
M  V30 1116 C 107.358 -0.821302 4.74139 0
M  V30 1117 C 109.71 -0.497081 5.18824 0
M  V30 1118 C 107.038 -0.0675719 5.86661 0
M  V30 1119 C 109.39 0.24338 6.32132 0
M  V30 1120 C 108.054 0.463422 6.65889 0
M  V30 1121 H 107.324 -0.339887 0.658451 0
M  V30 1122 H 109.971 -0.195977 1.90495 0
M  V30 1123 H 108.276 -2.58794 2.94165 0
M  V30 1124 H 109.973 -2.34792 3.25075 0
M  V30 1125 H 106.563 -1.20306 4.11369 0
M  V30 1126 H 110.747 -0.645921 4.92079 0
M  V30 1127 H 106.003 0.112995 6.11296 0
M  V30 1128 H 110.177 0.66393 6.93228 0
M  V30 1129 H 107.804 1.04938 7.52922 0
M  V30 1130 N 109.379 -1.50304 -0.473955 0
M  V30 1131 C 110.289 -1.7174 -1.5982 0
M  V30 1132 C 111.305 -0.600457 -1.63311 0
M  V30 1133 O 112.481 -0.878441 -1.81233 0
M  V30 1134 C 109.546 -1.80427 -2.96052 0
M  V30 1135 C 108.607 -3.04148 -3.02972 0
M  V30 1136 C 107.84 -3.12411 -4.32706 0
M  V30 1137 O 108.063 -2.27542 -5.23049 0
M  V30 1138 O 106.997 -4.05113 -4.45159 0
M  V30 1139 H 110.823 -2.67035 -1.44657 0
M  V30 1140 H 108.408 -1.34366 -0.653148 0
M  V30 1141 H 110.29 -1.88338 -3.7697 0
M  V30 1142 H 108.965 -0.883156 -3.11419 0
M  V30 1143 H 107.872 -3.0174 -2.21142 0
M  V30 1144 H 109.205 -3.95829 -2.92541 0
M  V30 1145 N 110.857 0.726932 -1.39834 0
M  V30 1146 C 112.134 1.47902 -1.28001 0
M  V30 1147 C 112.514 2.1083 0.106789 0
M  V30 1148 O 111.862 1.99242 1.11869 0
M  V30 1149 C 112.072 2.52392 -2.41038 0
M  V30 1150 C 113.42 3.18546 -2.80737 0
M  V30 1151 O 114.444 2.62708 -2.40547 0
M  V30 1152 O 113.303 4.19604 -3.50135 0
M  V30 1153 H 110.397 0.657163 -0.502062 0
M  V30 1154 H 112.943 0.760071 -1.51727 0
M  V30 1155 H 111.715 2.04329 -3.33715 0
M  V30 1156 H 111.338 3.31837 -2.19021 0
M  V30 1157 N 112.336 1.25143 0.95797 0
M  V30 1158 C 113.582 1.09855 1.70469 0
M  V30 1159 C 113.915 -0.360187 1.90831 0
M  V30 1160 O 113.19 -1.26568 1.47685 0
M  V30 1161 C 113.473 1.8497 3.08963 0
M  V30 1162 C 113.326 3.38652 2.96032 0
M  V30 1163 C 114.645 1.63016 4.08795 0
M  V30 1164 H 111.764 0.400465 0.618706 0
M  V30 1165 H 114.406 1.53933 1.11376 0
M  V30 1166 H 112.556 1.47505 3.59409 0
M  V30 1167 H 114.228 3.85772 2.52938 0
M  V30 1168 H 112.471 3.66534 2.32025 0
M  V30 1169 H 113.142 3.8642 3.94187 0
M  V30 1170 H 115.618 1.95625 3.67247 0
M  V30 1171 H 114.494 2.18015 5.03747 0
M  V30 1172 H 114.755 0.570692 4.38401 0
M  V30 1173 N 113.814 -1.1601 1.06675 0
M  V30 1174 C 115.062 -1.86264 0.784229 0
M  V30 1175 C 115.383 -1.82328 -0.691488 0
M  V30 1176 O 114.653 -1.25947 -1.50047 0
M  V30 1177 H 113.233 -0.689621 0.28711 0
M  V30 1178 H 115.895 -1.40664 1.34906 0
M  V30 1179 H 114.991 -2.91595 1.11259 0
M  V30 1180 N 115.292 -0.849877 -1.32721 0
M  V30 1181 C 116.242 -0.262892 -2.26479 0
M  V30 1182 C 117.226 0.588493 -1.49752 0
M  V30 1183 O 118.418 0.438659 -1.71478 0
M  V30 1184 C 115.547 0.551818 -3.38836 0
M  V30 1185 C 114.633 -0.311689 -4.22953 0
M  V30 1186 N 115.024 -1.39567 -4.86163 0
M  V30 1187 C 113.322 -0.100611 -4.45887 0
M  V30 1188 C 114.023 -1.92651 -5.48872 0
M  V30 1189 N 112.999 -1.22637 -5.29586 0
M  V30 1190 H 116.801 -1.09166 -2.72873 0
M  V30 1191 H 114.315 -0.695486 -1.46754 0
M  V30 1192 H 116.312 0.988713 -4.05006 0
M  V30 1193 H 114.972 1.37844 -2.93988 0
M  V30 1194 H 115.983 -1.77859 -4.86402 0
M  V30 1195 H 112.66 0.691681 -4.11731 0
M  V30 1196 H 114.05 -2.83487 -6.09167 0
M  V30 1197 N 116.77 1.45427 -0.607355 0
M  V30 1198 C 117.995 2.07124 -0.107006 0
M  V30 1199 C 118.42 1.44906 1.19933 0
M  V30 1200 O 117.778 0.541687 1.73019 0
M  V30 1201 C 117.826 3.60595 0.0194119 0
M  V30 1202 O 116.93 3.98285 1.0697 0
M  V30 1203 H 116.271 0.659868 -0.0739597 0
M  V30 1204 H 118.801 1.86683 -0.837297 0
M  V30 1205 H 118.811 4.07419 0.2177 0
M  V30 1206 H 117.486 4.05266 -0.934453 0
M  V30 1207 H 116.063 3.63133 0.847889 0
M  V30 1208 N 118.248 0.346503 1.53744 0
M  V30 1209 C 119.473 -0.253074 2.0585 0
M  V30 1210 C 119.898 -1.43202 1.21962 0
M  V30 1211 O 119.256 -1.79783 0.234073 0
M  V30 1212 C 119.304 -0.643193 3.54817 0
M  V30 1213 O 118.408 -1.74286 3.73762 0
M  V30 1214 H 117.749 -0.0413583 0.662711 0
M  V30 1215 H 120.279 0.501574 1.98357 0
M  V30 1216 H 120.289 -0.919526 3.97503 0
M  V30 1217 H 118.964 0.218966 4.15323 0
M  V30 1218 H 117.541 -1.46356 3.42979 0
M  V30 1219 N 119.726 -1.57421 0.075193 0
M  V30 1220 C 121.003 -1.85029 -0.634329 0
M  V30 1221 C 121.383 -0.968305 -1.87582 0
M  V30 1222 O 120.731 -0.0354749 -2.28472 0
M  V30 1223 C 120.941 -3.35286 -0.968742 0
M  V30 1224 C 122.289 -4.02875 -1.34077 0
M  V30 1225 O 123.313 -3.40051 -1.06037 0
M  V30 1226 O 122.172 -5.13691 -1.86506 0
M  V30 1227 H 119.266 -0.7645 -0.315387 0
M  V30 1228 H 121.812 -1.69366 0.106382 0
M  V30 1229 H 120.584 -3.91203 -0.0871376 0
M  V30 1230 H 120.207 -3.56223 -1.7661 0
M  V30 1231 N 121.204 0.198386 -1.56346 0
M  V30 1232 C 122.167 1.22952 -1.93431 0
M  V30 1233 C 123.167 1.38611 -0.815092 0
M  V30 1234 O 124.357 1.36479 -1.08255 0
M  V30 1235 C 121.489 2.59946 -2.20546 0
M  V30 1236 H 122.682 0.912626 -2.85677 0
M  V30 1237 H 120.235 0.43977 -1.49986 0
M  V30 1238 H 120.97 2.96696 -1.30927 0
M  V30 1239 H 120.755 2.49953 -3.02102 0
M  V30 1240 H 122.245 3.3431 -2.50253 0
M  V30 1241 N 122.682 1.50554 0.465978 0
M  V30 1242 C 124.098 1.38093 0.800154 0
M  V30 1243 C 124.298 0.440988 1.96615 0
M  V30 1244 O 123.354 -0.114499 2.5224 0
M  V30 1245 C 124.667 2.79565 1.10742 0
M  V30 1246 C 126.215 2.88516 1.21357 0
M  V30 1247 C 126.69 4.30833 1.55393 0
M  V30 1248 N 128.181 4.33807 1.62375 0
M  V30 1249 C 128.916 5.40927 1.90225 0
M  V30 1250 N 128.412 6.58247 2.16062 0
M  V30 1251 N 130.205 5.28376 1.9177 0
M  V30 1252 H 122.356 2.10237 -0.302366 0
M  V30 1253 H 124.619 0.945203 -0.0727746 0
M  V30 1254 H 124.325 3.50208 0.323661 0
M  V30 1255 H 124.199 3.17125 2.04234 0
M  V30 1256 H 126.586 2.1809 1.98799 0
M  V30 1257 H 126.667 2.54492 0.258321 0
M  V30 1258 H 126.311 5.01799 0.784889 0
M  V30 1259 H 126.241 4.62347 2.52076 0
M  V30 1260 H 128.732 3.49212 1.44427 0
M  V30 1261 H 129.045 7.3569 2.36601 0
M  V30 1262 H 127.39 6.61413 2.13444 0
M  V30 1263 H 130.581 4.35715 1.71085 0
M  V30 1264 H 130.754 6.11944 2.13139 0
M  V30 1265 N 124.16 -0.719506 1.40217 0
M  V30 1266 C 125.07 -1.86378 1.42479 0
M  V30 1267 C 126.086 -1.71073 0.317834 0
M  V30 1268 O 127.262 -1.93406 0.561794 0
M  V30 1269 C 124.327 -3.22136 1.28178 0
M  V30 1270 C 123.388 -3.49723 2.48982 0
M  V30 1271 C 122.621 -4.79004 2.35353 0
M  V30 1272 O 122.844 -5.53821 1.36524 0
M  V30 1273 O 121.778 -5.06839 3.2465 0
M  V30 1274 H 125.604 -1.87425 2.38968 0
M  V30 1275 H 123.189 -0.869405 1.21498 0
M  V30 1276 H 125.071 -4.03234 1.22395 0
M  V30 1277 H 123.746 -3.21825 0.347934 0
M  V30 1278 H 122.653 -2.6865 2.60342 0
M  V30 1279 H 123.986 -3.54828 3.41113 0
M  V30 1280 N 125.638 -1.25649 -0.95132 0
M  V30 1281 C 126.571 -1.00644 -2.04807 0
M  V30 1282 C 127.549 0.0654271 -1.62468 0
M  V30 1283 O 128.733 -0.074911 -1.88351 0
M  V30 1284 C 125.86 -0.522052 -3.34653 0
M  V30 1285 C 124.906 -1.58495 -3.95957 0
M  V30 1286 S 125.739 -3.17108 -4.31512 0
M  V30 1287 C 126.895 -2.70412 -5.64471 0
M  V30 1288 H 127.128 -1.93508 -2.25703 0
M  V30 1289 H 124.661 -1.09216 -1.09139 0
M  V30 1290 H 126.619 -0.24923 -4.09743 0
M  V30 1291 H 125.28 0.386146 -3.11717 0
M  V30 1292 H 124.473 -1.1968 -4.89584 0
M  V30 1293 H 124.075 -1.80862 -3.2736 0
M  V30 1294 H 126.367 -2.14245 -6.42733 0
M  V30 1295 H 127.31 -3.62693 -6.08161 0
M  V30 1296 H 127.718 -2.10302 -5.23864 0
M  V30 1297 N 127.117 1.15442 -1.07289 0
M  V30 1298 C 128.047 2.22312 -0.714107 0
M  V30 1299 C 129.028 1.67467 0.298155 0
M  V30 1300 O 130.213 1.93445 0.171048 0
M  V30 1301 C 127.343 3.47124 -0.110448 0
M  V30 1302 C 126.297 4.14926 -1.04979 0
M  V30 1303 C 125.623 5.33807 -0.308924 0
M  V30 1304 C 126.923 4.64762 -2.38314 0
M  V30 1305 H 128.617 2.5258 -1.6076 0
M  V30 1306 H 126.163 1.21404 -0.77441 0
M  V30 1307 H 128.116 4.21124 0.152482 0
M  V30 1308 H 126.84 3.16187 0.81812 0
M  V30 1309 H 125.499 3.42866 -1.29764 0
M  V30 1310 H 125.147 4.99126 0.623084 0
M  V30 1311 H 124.847 5.80113 -0.935036 0
M  V30 1312 H 126.371 6.10576 -0.0537771 0
M  V30 1313 H 127.785 5.30292 -2.1786 0
M  V30 1314 H 126.182 5.21728 -2.96514 0
M  V30 1315 H 127.252 3.80434 -3.00663 0
M  V30 1316 N 128.595 0.856903 1.32268 0
M  V30 1317 C 129.542 0.301172 2.28827 0
M  V30 1318 C 130.512 -0.593104 1.5515 0
M  V30 1319 O 131.697 -0.527537 1.83362 0
M  V30 1320 C 128.837 -0.502523 3.41422 0
M  V30 1321 C 127.95 0.417797 4.29975 0
M  V30 1322 C 127.085 -0.398749 5.29701 0
M  V30 1323 C 126.124 0.518827 6.09897 0
M  V30 1324 N 125.261 -0.260674 7.01616 0
M  V30 1325 H 130.101 1.12983 2.75751 0
M  V30 1326 H 127.638 0.568582 1.35667 0
M  V30 1327 H 129.596 -0.984141 4.05426 0
M  V30 1328 H 128.226 -1.29599 2.95642 0
M  V30 1329 H 127.278 1.01781 3.66531 0
M  V30 1330 H 128.59 1.12191 4.86019 0
M  V30 1331 H 127.744 -0.943435 5.9932 0
M  V30 1332 H 126.483 -1.13622 4.7428 0
M  V30 1333 H 125.488 1.07538 5.39181 0
M  V30 1334 H 126.713 1.25495 6.67404 0
M  V30 1335 H 124.659 -0.981198 6.4862 0
M  V30 1336 H 124.576 0.384364 7.55022 0
M  V30 1337 H 125.844 -0.787014 7.75517 0
M  V30 1338 N 130.073 -1.45103 0.615059 0
M  V30 1339 C 131.005 -2.28786 -0.13762 0
M  V30 1340 C 132.018 -1.40376 -0.824525 0
M  V30 1341 O 133.207 -1.64681 -0.688662 0
M  V30 1342 C 130.307 -3.16322 -1.21628 0
M  V30 1343 C 129.48 -4.33054 -0.615039 0
M  V30 1344 C 128.539 -5.01743 -1.58556 0
M  V30 1345 O 127.565 -5.58293 -1.10895 0
M  V30 1346 N 128.767 -5.01714 -2.91998 0
M  V30 1347 H 131.532 -2.94025 0.580483 0
M  V30 1348 H 129.093 -1.55373 0.45507 0
M  V30 1349 H 131.085 -3.59139 -1.86552 0
M  V30 1350 H 129.655 -2.52943 -1.83681 0
M  V30 1351 H 128.875 -3.93627 0.21245 0
M  V30 1352 H 130.163 -5.08431 -0.193704 0
M  V30 1353 H 129.561 -4.57075 -3.33316 0
M  V30 1354 H 128.118 -5.48371 -3.52325 0
M  V30 1355 N 131.551 -0.354651 -1.53558 0
M  V30 1356 C 132.781 0.239167 -2.05211 0
M  V30 1357 C 133.189 1.43879 -1.22863 0
M  V30 1358 O 132.532 1.81857 -0.259565 0
M  V30 1359 C 132.594 0.707251 -3.52474 0
M  V30 1360 C 132.258 -0.374212 -4.55465 0
M  V30 1361 C 133.255 -1.22054 -5.0537 0
M  V30 1362 C 130.94 -0.531323 -4.99482 0
M  V30 1363 C 132.934 -2.20942 -5.97882 0
M  V30 1364 C 130.621 -1.52358 -5.91802 0
M  V30 1365 C 131.619 -2.36108 -6.40892 0
M  V30 1366 O 131.307 -3.33643 -7.31394 0
M  V30 1367 H 131.039 0.0479716 -0.674296 0
M  V30 1368 H 133.593 -0.508121 -1.99016 0
M  V30 1369 H 131.823 1.50596 -3.56171 0
M  V30 1370 H 133.512 1.22285 -3.87042 0
M  V30 1371 H 134.278 -1.1103 -4.7212 0
M  V30 1372 H 130.157 0.110738 -4.60867 0
M  V30 1373 H 133.701 -2.86348 -6.36121 0
M  V30 1374 H 129.598 -1.63434 -6.24467 0
M  V30 1375 H 130.366 -3.29244 -7.4936 0
M  V30 1376 N 133.029 1.57378 -0.0835403 0
M  V30 1377 C 134.259 1.97975 0.590713 0
M  V30 1378 C 134.667 0.961083 1.62972 0
M  V30 1379 O 134.01 -0.0590879 1.83605 0
M  V30 1380 C 134.072 3.34915 1.3066 0
M  V30 1381 C 133.736 4.55069 0.419698 0
M  V30 1382 C 134.733 5.18868 -0.32749 0
M  V30 1383 C 132.418 5.0114 0.341137 0
M  V30 1384 C 134.412 6.27098 -1.14134 0
M  V30 1385 C 132.099 6.0924 -0.476374 0
M  V30 1386 C 133.097 6.72083 -1.21627 0
M  V30 1387 O 132.785 7.781 -2.02028 0
M  V30 1388 H 132.517 0.655818 0.163947 0
M  V30 1389 H 135.071 2.04807 -0.156021 0
M  V30 1390 H 133.301 3.24733 2.09966 0
M  V30 1391 H 134.99 3.60037 1.87424 0
M  V30 1392 H 135.756 4.84211 -0.276459 0
M  V30 1393 H 131.635 4.51996 0.90668 0
M  V30 1394 H 135.179 6.7608 -1.71935 0
M  V30 1395 H 131.076 6.43329 -0.528927 0
M  V30 1396 H 131.844 7.95034 -1.94586 0
M  V30 1397 N 134.507 -0.190092 1.56449 0
M  V30 1398 C 135.756 -0.907912 1.80111 0
M  V30 1399 C 136.069 -1.84214 0.657619 0
M  V30 1400 O 137.275 -2.60094 0.778663 0
M  V30 1401 C 135.731 -1.66485 3.19078 0
M  V30 1402 C 135.339 -0.7752 4.41242 0
M  V30 1403 C 137.083 -2.37201 3.52045 0
M  V30 1404 C 134.99 -1.53129 5.71231 0
M  V30 1405 H 133.92 -0.34276 0.671589 0
M  V30 1406 H 136.571 -0.161109 1.82791 0
M  V30 1407 H 134.953 -2.45572 3.10661 0
M  V30 1408 H 136.127 -0.0226298 4.60794 0
M  V30 1409 H 134.442 -0.178627 4.16017 0
M  V30 1410 H 137.039 -2.94329 4.46402 0
M  V30 1411 H 137.382 -3.11632 2.76028 0
M  V30 1412 H 137.915 -1.65075 3.61932 0
M  V30 1413 H 134.654 -0.82967 6.50228 0
M  V30 1414 H 134.174 -2.25767 5.55688 0
M  V30 1415 H 135.853 -2.08377 6.12526 0
M  V30 1416 N 135.985 -1.50799 -0.457987 0
M  V30 1417 C 137.233 -1.62121 -1.2067 0
M  V30 1418 C 137.554 -0.329793 -1.92191 0
M  V30 1419 O 136.824 0.653409 -1.84682 0
M  V30 1420 H 135.404 -0.597441 -0.448411 0
M  V30 1421 H 138.066 -1.87637 -0.527096 0
M  V30 1422 H 137.162 -2.43882 -1.94751 0
M  V30 1423 N 137.463 0.71206 -1.40597 0
M  V30 1424 C 138.74 1.46536 -1.29563 0
M  V30 1425 C 139.12 2.10931 0.0844217 0
M  V30 1426 O 138.468 2.00418 1.0975 0
M  V30 1427 C 138.678 2.49821 -2.43701 0
M  V30 1428 C 140.026 3.15551 -2.841 0
M  V30 1429 O 141.05 2.60142 -2.4332 0
M  V30 1430 O 139.909 4.15867 -3.54566 0
M  V30 1431 H 137.003 0.651801 -0.509004 0
M  V30 1432 H 139.549 0.743935 -1.52524 0
M  V30 1433 H 138.321 2.00778 -3.35863 0
M  V30 1434 H 137.944 3.29495 -2.22528 0
M  V30 1435 N 138.941 1.26152 0.944643 0
M  V30 1436 C 140.19 1.10883 1.68487 0
M  V30 1437 C 140.503 -0.348153 1.92477 0
M  V30 1438 O 141.709 -0.621459 2.64292 0
M  V30 1439 C 140.165 1.93624 3.03377 0
M  V30 1440 C 139.773 3.43875 2.87148 0
M  V30 1441 C 141.517 1.86954 3.81115 0
M  V30 1442 C 139.424 4.18875 4.1749 0
M  V30 1443 H 138.354 0.41135 0.631907 0
M  V30 1444 H 141.005 1.50433 1.05082 0
M  V30 1445 H 139.387 1.46904 3.67743 0
M  V30 1446 H 140.561 3.98338 2.31653 0
M  V30 1447 H 138.876 3.51744 2.22856 0
M  V30 1448 H 141.473 2.40275 4.77673 0
M  V30 1449 H 141.816 0.839518 4.07747 0
M  V30 1450 H 142.349 2.31477 3.23517 0
M  V30 1451 H 139.088 5.22332 3.96043 0
M  V30 1452 H 138.608 3.69193 4.72712 0
M  V30 1453 H 140.287 4.27134 4.85968 0
M  V30 1454 N 140.419 -1.14872 1.07899 0
M  V30 1455 C 141.369 -2.17809 0.674027 0
M  V30 1456 C 142.353 -1.58008 -0.303699 0
M  V30 1457 O 143.545 -1.76616 -0.11654 0
M  V30 1458 C 140.674 -3.43208 0.0793318 0
M  V30 1459 C 139.76 -4.10051 1.08253 0
M  V30 1460 N 140.151 -4.52296 2.2641 0
M  V30 1461 C 138.449 -4.36469 0.917124 0
M  V30 1462 C 139.15 -5.04199 2.901 0
M  V30 1463 N 138.126 -4.98088 2.17736 0
M  V30 1464 H 141.928 -2.48207 1.57386 0
M  V30 1465 H 139.442 -1.315 0.952976 0
M  V30 1466 H 141.439 -4.16272 -0.228719 0
M  V30 1467 H 140.099 -3.14291 -0.815551 0
M  V30 1468 H 141.11 -4.45504 2.64096 0
M  V30 1469 H 137.787 -4.17432 0.0756078 0
M  V30 1470 H 139.177 -5.46802 3.90458 0
M  V30 1471 N 141.898 -0.863906 -1.31812 0
M  V30 1472 C 143.309 -0.52522 -1.7916 0
M  V30 1473 C 143.66 0.957518 -1.71248 0
M  V30 1474 O 142.785 1.74734 -1.27659 0
M  V30 1475 C 143.38 -0.9466 -3.25307 0
M  V30 1476 C 141.939 -0.659668 -3.70574 0
M  V30 1477 C 141.086 -1.14126 -2.52726 0
M  V30 1478 H 144.037 -1.05022 -1.1898 0
M  V30 1479 H 144.058 -0.266766 -3.79564 0
M  V30 1480 H 143.57 -2.02579 -3.31034 0
M  V30 1481 H 141.671 0.408416 -3.70355 0
M  V30 1482 H 141.784 -1.23245 -4.62977 0
M  V30 1483 H 140.148 -0.561216 -2.4844 0
M  V30 1484 H 140.931 -2.22775 -2.61201 0
M  V30 1485 N 143.376 1.44774 -0.622745 0
M  V30 1486 C 144.601 2.06999 -0.128968 0
M  V30 1487 C 145.026 1.4617 1.1839 0
M  V30 1488 O 144.384 0.560007 1.72434 0
M  V30 1489 C 144.432 3.60595 -0.0188351 0
M  V30 1490 O 143.536 3.99398 1.02739 0
M  V30 1491 H 142.877 0.659047 -0.0809544 0
M  V30 1492 H 145.407 1.85784 -0.85705 0
M  V30 1493 H 145.417 4.07627 0.174476 0
M  V30 1494 H 144.092 4.04252 -0.977384 0
M  V30 1495 H 142.669 3.64011 0.809326 0
M  V30 1496 N 144.854 0.36279 1.53368 0
M  V30 1497 C 146.131 -0.284021 1.93527 0
M  V30 1498 C 146.511 -1.66628 1.29608 0
M  V30 1499 O 145.859 -2.23942 0.45413 0
M  V30 1500 C 146.069 -0.337028 3.47369 0
M  V30 1501 C 147.417 -0.578708 4.20638 0
M  V30 1502 O 148.441 -0.418352 3.53735 0
M  V30 1503 O 147.3 -0.89074 5.39192 0
M  V30 1504 H 144.394 -0.169743 0.809393 0
M  V30 1505 H 146.94 0.41537 1.64538 0
M  V30 1506 H 145.712 0.632217 3.86159 0
M  V30 1507 H 145.335 -1.08243 3.82582 0
M  V30 1508 N 146.332 -1.57332 0.0918853 0
M  V30 1509 C 147.262 -2.16872 -0.865371 0
M  V30 1510 C 148.243 -1.10118 -1.29646 0
M  V30 1511 O 149.428 -1.38242 -1.36392 0
M  V30 1512 C 146.558 -2.74649 -2.12569 0
M  V30 1513 C 145.512 -3.86747 -1.83333 0
M  V30 1514 C 144.838 -4.31212 -3.16166 0
M  V30 1515 C 146.138 -5.10089 -1.1228 0
M  V30 1516 H 147.832 -2.97114 -0.369307 0
M  V30 1517 H 145.378 -1.42918 -0.176194 0
M  V30 1518 H 147.331 -3.14952 -2.7997 0
M  V30 1519 H 146.055 -1.91657 -2.64452 0
M  V30 1520 H 144.714 -3.46978 -1.18331 0
M  V30 1521 H 144.362 -3.45115 -3.6593 0
M  V30 1522 H 144.062 -5.06788 -2.97388 0
M  V30 1523 H 145.586 -4.74146 -3.84731 0
M  V30 1524 H 147 -5.47582 -1.69785 0
M  V30 1525 H 145.397 -5.91073 -1.03693 0
M  V30 1526 H 146.467 -4.84786 -0.105041 0
M  V30 1527 N 147.81 0.181792 -1.56548 0
M  V30 1528 C 148.757 1.22521 -1.95595 0
M  V30 1529 C 149.727 1.4454 -0.818373 0
M  V30 1530 O 150.912 1.57454 -1.07763 0
M  V30 1531 C 148.052 2.56193 -2.31212 0
M  V30 1532 C 147.165 2.41641 -3.58097 0
M  V30 1533 C 146.3 3.68108 -3.82975 0
M  V30 1534 C 145.339 3.48445 -5.03242 0
M  V30 1535 N 144.476 4.66956 -5.24306 0
M  V30 1536 H 149.316 0.885226 -2.84548 0
M  V30 1537 H 146.853 0.425718 -1.40805 0
M  V30 1538 H 148.811 3.34088 -2.49882 0
M  V30 1539 H 147.441 2.88208 -1.45382 0
M  V30 1540 H 146.493 1.54976 -3.474 0
M  V30 1541 H 147.805 2.23052 -4.46149 0
M  V30 1542 H 146.959 4.54441 -4.01956 0
M  V30 1543 H 145.698 3.89666 -2.93278 0
M  V30 1544 H 144.703 2.60499 -4.8417 0
M  V30 1545 H 145.928 3.2832 -5.9446 0
M  V30 1546 H 143.874 4.88752 -4.37559 0
M  V30 1547 H 143.791 4.51242 -6.06561 0
M  V30 1548 H 145.059 5.54602 -5.47756 0
M  V30 1549 N 149.288 1.51039 0.449983 0
M  V30 1550 C 150.699 1.557 1.03026 0
M  V30 1551 C 151.05 0.372939 1.92623 0
M  V30 1552 O 150.175 -0.511771 2.10261 0
M  V30 1553 C 150.77 2.82171 1.87523 0
M  V30 1554 C 149.329 2.89444 2.40622 0
M  V30 1555 C 148.476 2.50228 1.19504 0
M  V30 1556 H 151.427 1.56999 0.231745 0
M  V30 1557 H 151.448 2.65219 2.72835 0
M  V30 1558 H 150.96 3.68331 1.22286 0
M  V30 1559 H 149.061 2.07685 3.0935 0
M  V30 1560 H 149.174 3.92816 2.74285 0
M  V30 1561 H 147.538 2.03139 1.53644 0
M  V30 1562 H 148.321 3.38719 0.558972 0
M  V30 1563 N 150.766 -0.704594 1.40972 0
M  V30 1564 C 151.676 -1.84856 1.44448 0
M  V30 1565 C 152.692 -1.70726 0.335961 0
M  V30 1566 O 153.868 -1.92799 0.582276 0
M  V30 1567 C 150.933 -3.20758 1.31587 0
M  V30 1568 C 149.994 -3.47063 2.52677 0
M  V30 1569 C 149.227 -4.76481 2.4042 0
M  V30 1570 O 149.45 -5.52341 1.42391 0
M  V30 1571 O 148.384 -5.03367 3.30007 0
M  V30 1572 H 152.21 -1.8488 2.40942 0
M  V30 1573 H 149.795 -0.85647 1.22413 0
M  V30 1574 H 151.677 -4.01913 1.26665 0
M  V30 1575 H 150.352 -3.21438 0.382049 0
M  V30 1576 H 149.259 -2.65873 2.63177 0
M  V30 1577 H 150.592 -3.5119 3.44858 0
M  V30 1578 N 152.244 -1.26651 -0.937939 0
M  V30 1579 C 153.469 -1.15279 -1.72411 0
M  V30 1580 C 153.894 0.287866 -1.85884 0
M  V30 1581 O 153.252 1.20855 -1.35143 0
M  V30 1582 C 153.3 -1.83028 -3.10698 0
M  V30 1583 O 152.404 -1.12128 -3.96864 0
M  V30 1584 H 151.745 -0.401504 -0.528858 0
M  V30 1585 H 154.275 -1.67531 -1.1745 0
M  V30 1586 H 154.285 -1.89981 -3.6107 0
M  V30 1587 H 152.96 -2.87833 -3.00208 0
M  V30 1588 H 151.537 -1.13173 -3.55312 0
M  V30 1589 N 153.722 1.14298 -1.08507 0
M  V30 1590 C 154.97 1.84993 -0.813763 0
M  V30 1591 C 155.291 1.83405 0.662393 0
M  V30 1592 O 154.561 1.28319 1.48024 0
M  V30 1593 H 153.141 0.684966 -0.298045 0
M  V30 1594 H 155.803 1.385 -1.37126 0
M  V30 1595 H 154.899 2.89788 -1.15884 0
M  V30 1596 N 155.201 0.870884 1.31352 0
M  V30 1597 C 156.426 0.495957 2.01383 0
M  V30 1598 C 156.851 -0.904324 1.64935 0
M  V30 1599 O 156.209 -1.59687 0.858466 0
M  V30 1600 C 156.257 0.661433 3.54482 0
M  V30 1601 O 155.361 -0.298851 4.11316 0
M  V30 1602 H 154.702 0.197158 0.634054 0
M  V30 1603 H 157.232 1.17455 1.67527 0
M  V30 1604 H 157.242 0.555072 4.04207 0
M  V30 1605 H 155.917 1.68246 3.8035 0
M  V30 1606 H 154.494 -0.147368 3.72609 0
M  V30 1607 N 156.679 -1.44442 0.630414 0
M  V30 1608 C 157.626 -2.30678 -0.0749355 0
M  V30 1609 C 158.596 -1.4344 -0.837502 0
M  V30 1610 O 159.781 -1.72343 -0.818684 0
M  V30 1611 C 156.921 -3.28706 -1.05103 0
M  V30 1612 C 156.034 -4.31046 -0.286954 0
M  V30 1613 C 155.169 -5.16167 -1.2548 0
M  V30 1614 C 154.208 -6.10216 -0.479843 0
M  V30 1615 N 153.345 -6.88039 -1.39811 0
M  V30 1616 H 158.185 -2.90454 0.666386 0
M  V30 1617 H 155.722 -1.43107 0.340404 0
M  V30 1618 H 157.68 -3.84027 -1.63031 0
M  V30 1619 H 156.31 -2.70632 -1.75949 0
M  V30 1620 H 155.362 -3.78203 0.408243 0
M  V30 1621 H 156.674 -4.97794 0.316657 0
M  V30 1622 H 155.828 -5.76002 -1.90544 0
M  V30 1623 H 154.567 -4.49491 -1.89233 0
M  V30 1624 H 153.572 -5.49491 0.184295 0
M  V30 1625 H 154.797 -6.78928 0.152965 0
M  V30 1626 H 152.743 -6.24032 -2.02287 0
M  V30 1627 H 152.66 -7.51223 -0.848508 0
M  V30 1628 H 153.928 -7.52397 -2.03762 0
M  V30 1629 N 158.157 -0.370918 -1.53173 0
M  V30 1630 C 159.434 0.273754 -1.93675 0
M  V30 1631 C 159.814 1.65938 -1.3049 0
M  V30 1632 O 159.162 2.23698 -0.465999 0
M  V30 1633 C 159.372 0.318602 -3.47543 0
M  V30 1634 C 160.72 0.556392 -4.20939 0
M  V30 1635 O 161.744 0.399587 -3.53952 0
M  V30 1636 O 160.603 0.862133 -5.39657 0
M  V30 1637 H 157.697 0.165448 -0.810281 0
M  V30 1638 H 160.243 -0.42409 -1.64315 0
M  V30 1639 H 159.015 -0.652687 -3.85818 0
M  V30 1640 H 158.638 1.06212 -3.83151 0
M  V30 1641 N 159.635 1.57281 -0.100228 0
M  V30 1642 C 161.046 1.81725 0.428107 0
M  V30 1643 C 161.397 1.01619 1.67833 0
M  V30 1644 O 160.522 0.247098 2.14985 0
M  V30 1645 C 161.117 3.29617 0.78347 0
M  V30 1646 C 159.676 3.54808 1.25653 0
M  V30 1647 C 158.823 2.76118 0.255752 0
M  V30 1648 H 161.774 1.55324 -0.325608 0
M  V30 1649 H 161.795 3.4322 1.64256 0
M  V30 1650 H 161.307 3.87893 -0.12665 0
M  V30 1651 H 159.408 3.01868 2.18418 0
M  V30 1652 H 159.521 4.63443 1.21482 0
M  V30 1653 H 157.885 2.43745 0.738956 0
M  V30 1654 H 158.668 3.37145 -0.647136 0
M  V30 1655 N 161.113 -0.173488 1.56642 0
M  V30 1656 C 162.338 -0.910149 1.86363 0
M  V30 1657 C 162.763 -1.75132 0.686318 0
M  V30 1658 O 162.121 -1.77595 -0.364643 0
M  V30 1659 C 162.169 -1.76447 3.14482 0
M  V30 1660 O 161.273 -2.86584 2.96553 0
M  V30 1661 H 160.614 -0.255086 0.613047 0
M  V30 1662 H 163.144 -0.172283 2.03873 0
M  V30 1663 H 163.154 -2.16483 3.45831 0
M  V30 1664 H 161.829 -1.14658 3.99783 0
M  V30 1665 H 160.406 -2.50146 2.76553 0
M  V30 1666 N 162.591 -1.51276 -0.441967 0
M  V30 1667 C 163.538 -1.72256 -1.53612 0
M  V30 1668 C 164.508 -0.564164 -1.56225 0
M  V30 1669 O 165.693 -0.798074 -1.73307 0
M  V30 1670 C 162.833 -1.84932 -2.91366 0
M  V30 1671 C 161.946 -3.12459 -2.98317 0
M  V30 1672 C 161.081 -3.15758 -4.27166 0
M  V30 1673 C 160.12 -4.37619 -4.27967 0
M  V30 1674 N 159.257 -4.38493 -5.48333 0
M  V30 1675 H 164.097 -2.65654 -1.35026 0
M  V30 1676 H 161.634 -1.31662 -0.656009 0
M  V30 1677 H 163.592 -1.90263 -3.7129 0
M  V30 1678 H 162.222 -0.949461 -3.08521 0
M  V30 1679 H 161.274 -3.1646 -2.11086 0
M  V30 1680 H 162.586 -4.02382 -2.94771 0
M  V30 1681 H 161.74 -3.19979 -5.15459 0
M  V30 1682 H 160.479 -2.23715 -4.33362 0
M  V30 1683 H 159.484 -4.33579 -3.38067 0
M  V30 1684 H 160.709 -5.30921 -4.23438 0
M  V30 1685 H 158.655 -3.49318 -5.55259 0
M  V30 1686 H 158.572 -5.22219 -5.46647 0
M  V30 1687 H 159.84 -4.469 -6.38671 0
M  V30 1688 N 164.069 0.697108 -1.41344 0
M  V30 1689 C 165.017 1.83237 -1.43272 0
M  V30 1690 C 166.011 1.66522 -0.310947 0
M  V30 1691 O 167.217 1.73402 -0.482899 0
M  V30 1692 H 163.592 0.603802 -0.448249 0
M  V30 1693 H 165.563 1.78727 -2.38954 0
M  V30 1694 C 164.312 3.21245 -1.33029 0
M  V30 1695 H 163.635 3.34723 -2.18633 0
M  V30 1696 H 165.075 4.00763 -1.38439 0
M  V30 1697 C 163.534 3.36873 -0.0424635 0
M  V30 1698 O 164.064 3.91177 0.913421 0
M  V30 1699 N 162.27 2.90581 0.0331145 0
M  V30 1700 H 161.817 2.46577 -0.745506 0
M  V30 1701 H 161.775 3.01416 0.894199 0
M  V30 1702 N 165.547 1.27147 0.931209 0
M  V30 1703 C 166.824 1.0401 1.65654 0
M  V30 1704 C 167.204 -0.426297 2.06751 0
M  V30 1705 O 166.552 -1.40879 1.79904 0
M  V30 1706 C 166.762 1.99834 2.86125 0
M  V30 1707 C 168.11 2.29007 3.57549 0
M  V30 1708 O 169.134 1.97779 2.96246 0
M  V30 1709 O 167.993 2.82222 4.67989 0
M  V30 1710 H 165.087 0.396239 0.725895 0
M  V30 1711 H 167.633 1.38397 0.982056 0
M  V30 1712 H 166.405 2.98744 2.52721 0
M  V30 1713 H 166.028 1.65987 3.61295 0
M  V30 1714 N 167.025 -1.13721 1.09112 0
M  V30 1715 C 168.253 -1.88773 0.846899 0
M  V30 1716 C 168.668 -1.7896 -0.601572 0
M  V30 1717 O 168.025 -1.15394 -1.41388 0
M  V30 1718 C 168.076 -3.3849 1.26913 0
M  V30 1719 O 167.797 -3.48043 2.66079 0
M  V30 1720 C 169.298 -4.30518 1.05682 0
M  V30 1721 H 166.518 -0.59772 0.304914 0
M  V30 1722 H 169.062 -1.43977 1.45227 0
M  V30 1723 H 167.217 -3.80881 0.707723 0
M  V30 1724 H 167.631 -4.4109 2.83795 0
M  V30 1725 H 169.105 -5.3391 1.40156 0
M  V30 1726 H 169.582 -4.392 -0.00563416 0
M  V30 1727 H 170.188 -3.93893 1.60402 0
M  V30 1728 N 168.503 -0.877838 -1.30888 0
M  V30 1729 C 169.743 -0.499301 -1.98208 0
M  V30 1730 C 170.107 0.932649 -1.67826 0
M  V30 1731 O 171.308 1.41694 -2.28421 0
M  V30 1732 C 169.579 -0.758221 -3.49265 0
M  V30 1733 S 171.138 -0.480719 -4.36159 0
M  V30 1734 H 167.956 -0.186062 -0.686223 0
M  V30 1735 H 170.558 -1.13556 -1.59139 0
M  V30 1736 H 169.262 -1.79903 -3.68867 0
M  V30 1737 H 168.793 -0.109247 -3.93248 0
M  V30 1738 H 170.808 0.683698 -4.91467 0
M  V30 1739 N 169.982 1.44106 -0.638065 0
M  V30 1740 C 170.929 2.30715 0.062701 0
M  V30 1741 C 171.899 1.43882 0.829883 0
M  V30 1742 O 173.084 1.72775 0.809532 0
M  V30 1743 C 170.224 3.29258 1.03358 0
M  V30 1744 C 169.337 4.31192 0.26409 0
M  V30 1745 C 168.472 5.16825 1.22741 0
M  V30 1746 C 167.511 6.10462 0.447475 0
M  V30 1747 N 166.648 6.8877 1.36161 0
M  V30 1748 H 171.488 2.90096 -0.681781 0
M  V30 1749 H 169.025 1.42925 -0.347988 0
M  V30 1750 H 170.983 3.84886 1.60992 0
M  V30 1751 H 169.613 2.71562 1.74511 0
M  V30 1752 H 168.665 3.77981 -0.428295 0
M  V30 1753 H 169.977 4.97619 -0.343052 0
M  V30 1754 H 169.131 5.77004 1.87487 0
M  V30 1755 H 167.87 4.50488 1.86847 0
M  V30 1756 H 166.875 5.49386 -0.213433 0
M  V30 1757 H 168.1 6.78837 -0.188968 0
M  V30 1758 H 166.046 6.25096 1.98975 0
M  V30 1759 H 165.963 7.51663 0.808656 0
M  V30 1760 H 167.231 7.53467 1.99769 0
M  V30 1761 N 171.46 0.379036 1.52974 0
M  V30 1762 C 172.685 -0.209353 2.06341 0
M  V30 1763 C 173.11 -1.40583 1.24972 0
M  V30 1764 O 172.468 -1.79246 0.272155 0
M  V30 1765 C 172.516 -0.567786 3.56102 0
M  V30 1766 O 171.62 -1.66318 3.77375 0
M  V30 1767 H 170.961 -0.0272919 0.663439 0
M  V30 1768 H 173.491 0.543536 1.97248 0
M  V30 1769 H 173.501 -0.835003 3.99364 0
M  V30 1770 H 172.176 0.307013 4.14765 0
M  V30 1771 H 170.753 -1.39048 3.46006 0
M  V30 1772 N 172.938 -1.57226 0.108567 0
M  V30 1773 C 174.178 -1.96717 -0.555155 0
M  V30 1774 C 174.542 -0.990003 -1.64508 0
M  V30 1775 O 175.743 -1.2739 -2.36696 0
M  V30 1776 C 174.014 -3.40575 -1.08367 0
M  V30 1777 S 175.573 -4.02072 -1.75737 0
M  V30 1778 H 172.391 -0.687638 -0.180762 0
M  V30 1779 H 174.993 -1.94563 0.191172 0
M  V30 1780 H 173.697 -4.0945 -0.279092 0
M  V30 1781 H 173.228 -3.46356 -1.86551 0
M  V30 1782 H 175.243 -3.91977 -3.04251 0
M  V30 1783 N 174.416 0.165178 -1.56732 0
M  V30 1784 C 175.662 0.877389 -1.83503 0
M  V30 1785 C 176.017 1.79602 -0.689996 0
M  V30 1786 O 175.31 1.89023 0.313205 0
M  V30 1787 C 175.504 1.70405 -3.1416 0
M  V30 1788 C 175.333 0.866961 -4.41264 0
M  V30 1789 C 174.103 0.539646 -5.0241 0
M  V30 1790 C 176.301 0.205671 -5.13889 0
M  V30 1791 N 174.283 -0.312946 -6.13102 0
M  V30 1792 C 175.654 -0.507823 -6.17917 0
M  V30 1793 C 177.709 0.124468 -4.97744 0
M  V30 1794 C 176.412 -1.29483 -7.0755 0
M  V30 1795 C 178.438 -0.649222 -5.87826 0
M  V30 1796 C 177.8 -1.35106 -6.91322 0
M  V30 1797 H 173.899 0.299477 -0.722383 0
M  V30 1798 H 176.483 0.143949 -1.94167 0
M  V30 1799 H 174.654 2.40887 -3.04677 0
M  V30 1800 H 176.386 2.35804 -3.28905 0
M  V30 1801 H 173.141 0.871176 -4.65519 0
M  V30 1802 H 173.565 -0.729731 -6.73056 0
M  V30 1803 H 178.207 0.652724 -4.17731 0
M  V30 1804 H 175.925 -1.83441 -7.87004 0
M  V30 1805 H 179.511 -0.713804 -5.77405 0
M  V30 1806 H 178.391 -1.94013 -7.59821 0
M  V30 1807 N 175.894 1.51508 0.433938 0
M  V30 1808 C 176.857 1.72473 1.50949 0
M  V30 1809 C 177.857 0.594725 1.49398 0
M  V30 1810 O 179.047 0.862315 1.5136 0
M  V30 1811 C 176.179 1.78431 2.90474 0
M  V30 1812 H 177.372 2.68467 1.33662 0
M  V30 1813 H 174.925 1.41549 0.662836 0
M  V30 1814 H 175.66 0.842645 3.13161 0
M  V30 1815 H 175.445 2.60558 2.93005 0
M  V30 1816 H 176.935 1.96479 3.68491 0
M  V30 1817 N 177.372 -0.689602 1.41712 0
M  V30 1818 C 178.602 -1.47613 1.44548 0
M  V30 1819 C 179.01 -1.89132 0.0509034 0
M  V30 1820 O 178.353 -1.57741 -0.94146 0
M  V30 1821 C 178.415 -2.76596 2.2964 0
M  V30 1822 C 178.079 -2.57245 3.77722 0
M  V30 1823 C 179.076 -2.22804 4.69739 0
M  V30 1824 C 176.761 -2.727 4.2183 0
M  V30 1825 C 178.755 -2.04064 6.03851 0
M  V30 1826 C 176.442 -2.53576 5.56006 0
M  V30 1827 C 177.44 -2.1931 6.46832 0
M  V30 1828 O 177.128 -2.00359 7.78532 0
M  V30 1829 H 176.86 -0.461227 0.494212 0
M  V30 1830 H 179.414 -0.856045 1.86711 0
M  V30 1831 H 177.644 -3.41033 1.82301 0
M  V30 1832 H 179.333 -3.38424 2.24107 0
M  V30 1833 H 180.099 -2.10473 4.36951 0
M  V30 1834 H 175.978 -2.98353 3.51435 0
M  V30 1835 H 179.522 -1.77241 6.74708 0
M  V30 1836 H 175.419 -2.65499 5.88371 0
M  V30 1837 H 176.187 -2.15075 7.89737 0
M  V30 1838 N 178.85 -1.27639 -0.924453 0
M  V30 1839 C 180.096 -1.15345 -1.67532 0
M  V30 1840 C 180.451 0.297096 -1.90092 0
M  V30 1841 O 179.744 1.21374 -1.48253 0
M  V30 1842 C 179.938 -1.87407 -3.04325 0
M  V30 1843 C 179.767 -3.3932 -2.95114 0
M  V30 1844 C 178.537 -4.08644 -2.97218 0
M  V30 1845 C 180.735 -4.35242 -2.73987 0
M  V30 1846 N 178.717 -5.47102 -2.78482 0
M  V30 1847 C 180.088 -5.6099 -2.63988 0
M  V30 1848 C 182.143 -4.25294 -2.589 0
M  V30 1849 C 180.846 -6.77924 -2.40442 0
M  V30 1850 C 182.872 -5.41952 -2.36731 0
M  V30 1851 C 182.234 -6.66658 -2.27478 0
M  V30 1852 H 178.333 -0.47696 -0.619704 0
M  V30 1853 H 180.917 -1.6115 -1.09265 0
M  V30 1854 H 179.088 -1.44053 -3.60699 0
M  V30 1855 H 180.82 -1.6759 -3.68369 0
M  V30 1856 H 177.575 -3.60136 -3.07569 0
M  V30 1857 H 177.999 -6.19852 -2.72236 0
M  V30 1858 H 182.641 -3.29598 -2.64811 0
M  V30 1859 H 180.359 -7.73699 -2.3327 0
M  V30 1860 H 183.945 -5.36137 -2.25938 0
M  V30 1861 H 182.825 -7.55405 -2.10555 0
M  V30 1862 N 180.328 1.1314 -1.09713 0
M  V30 1863 C 181.577 1.83838 -0.829851 0
M  V30 1864 C 181.89 1.84599 0.646728 0
M  V30 1865 O 183.096 2.51218 1.02965 0
M  V30 1866 C 181.552 3.30069 -1.43466 0
M  V30 1867 C 181.16 3.37688 -2.94399 0
M  V30 1868 C 182.904 4.05788 -1.24645 0
M  V30 1869 C 180.811 4.78209 -3.47952 0
M  V30 1870 H 179.741 0.68877 -0.306777 0
M  V30 1871 H 182.392 1.27448 -1.3202 0
M  V30 1872 H 180.774 3.8628 -0.871996 0
M  V30 1873 H 181.948 2.91456 -3.56918 0
M  V30 1874 H 180.263 2.75436 -3.12289 0
M  V30 1875 H 182.86 5.09535 -1.62107 0
M  V30 1876 H 183.203 4.15878 -0.187357 0
M  V30 1877 H 183.736 3.55915 -1.77678 0
M  V30 1878 H 180.475 4.73311 -4.53495 0
M  V30 1879 H 179.995 5.24924 -2.90198 0
M  V30 1880 H 181.674 5.47133 -3.45332 0
M  V30 1881 N 181.806 0.884767 1.30421 0
M  V30 1882 C 182.736 0.367574 2.30589 0
M  V30 1883 C 183.717 -0.549464 1.60981 0
M  V30 1884 O 184.902 -0.46336 1.88591 0
M  V30 1885 C 182.032 -0.418944 3.44764 0
M  V30 1886 C 180.986 0.406316 4.26067 0
M  V30 1887 C 180.312 -0.506793 5.32293 0
M  V30 1888 C 181.612 1.64832 4.95608 0
M  V30 1889 H 183.306 1.20462 2.74097 0
M  V30 1890 H 180.852 0.580695 1.31772 0
M  V30 1891 H 182.805 -0.791395 4.13902 0
M  V30 1892 H 181.529 -1.28964 3.0006 0
M  V30 1893 H 180.188 0.760903 3.58617 0
M  V30 1894 H 179.836 -1.37519 4.83836 0
M  V30 1895 H 179.536 0.0415828 5.87585 0
M  V30 1896 H 181.06 -0.875764 6.04287 0
M  V30 1897 H 182.474 1.34646 5.57264 0
M  V30 1898 H 180.871 2.13688 5.60765 0
M  V30 1899 H 181.941 2.39284 4.21748 0
M  V30 1900 N 183.284 -1.43765 0.645699 0
M  V30 1901 C 184.695 -1.85193 0.236719 0
M  V30 1902 C 185.046 -1.54045 -1.21509 0
M  V30 1903 O 184.171 -0.985694 -1.92647 0
M  V30 1904 C 184.766 -3.36151 0.422845 0
M  V30 1905 C 183.325 -3.76338 0.0682492 0
M  V30 1906 C 182.472 -2.67538 0.729306 0
M  V30 1907 H 185.423 -1.34025 0.849883 0
M  V30 1908 H 185.444 -3.79032 -0.333904 0
M  V30 1909 H 184.956 -3.5879 1.47958 0
M  V30 1910 H 183.057 -3.59312 -0.986179 0
M  V30 1911 H 183.17 -4.76603 0.488469 0
M  V30 1912 H 181.534 -2.54176 0.163235 0
M  V30 1913 H 182.317 -2.93006 1.78892 0
M  V30 1914 N 184.763 -0.387143 -1.52771 0
M  V30 1915 C 186.012 0.19697 -2.00736 0
M  V30 1916 C 186.325 1.48082 -1.27793 0
M  V30 1917 O 187.531 2.14485 -1.66458 0
M  V30 1918 C 185.987 0.401568 -3.57653 0
M  V30 1919 C 185.595 -0.868907 -4.39493 0
M  V30 1920 C 187.339 0.942164 -4.13912 0
M  V30 1921 C 185.246 -0.632705 -5.88006 0
M  V30 1922 H 184.176 0.0773827 -0.750019 0
M  V30 1923 H 186.827 -0.50921 -1.76293 0
M  V30 1924 H 185.209 1.16954 -3.78335 0
M  V30 1925 H 186.383 -1.64133 -4.30577 0
M  V30 1926 H 184.698 -1.33429 -3.94443 0
M  V30 1927 H 187.295 1.13455 -5.22525 0
M  V30 1928 H 187.638 1.9106 -3.69867 0
M  V30 1929 H 188.171 0.233814 -3.97112 0
M  V30 1930 H 184.91 -1.57208 -6.36369 0
M  V30 1931 H 184.43 0.100825 -5.99715 0
M  V30 1932 H 186.109 -0.26642 -6.46451 0
M  V30 1933 N 186.241 1.57166 -0.116904 0
M  V30 1934 C 187.49 1.94298 0.541407 0
M  V30 1935 C 187.803 1.00236 1.67964 0
M  V30 1936 O 189.009 1.26826 2.40057 0
M  V30 1937 C 187.465 3.45306 1.01449 0
M  V30 1938 C 187.073 4.47899 -0.0951738 0
M  V30 1939 C 188.817 3.91361 1.6443 0
M  V30 1940 C 186.724 5.90083 0.394491 0
M  V30 1941 H 185.654 0.725308 0.206019 0
M  V30 1942 H 188.305 1.82446 -0.196419 0
M  V30 1943 H 186.687 3.52385 1.80667 0
M  V30 1944 H 187.861 4.52486 -0.871374 0
M  V30 1945 H 186.176 4.11583 -0.631505 0
M  V30 1946 H 188.773 4.95004 2.02176 0
M  V30 1947 H 189.116 3.3122 2.52189 0
M  V30 1948 H 189.649 3.87073 0.917559 0
M  V30 1949 H 186.388 6.53974 -0.447004 0
M  V30 1950 H 185.908 5.88921 1.13722 0
M  V30 1951 H 187.587 6.41307 0.856399 0
M  V30 1952 N 187.719 -0.156864 1.56817 0
M  V30 1953 C 188.967 -0.869404 1.82444 0
M  V30 1954 C 189.288 -1.82147 0.69623 0
M  V30 1955 O 188.558 -1.93847 -0.28287 0
M  V30 1956 H 187.138 -0.324043 0.673056 0
M  V30 1957 H 189.8 -0.153224 1.94297 0
M  V30 1958 H 188.896 -1.43761 2.77019 0
M  V30 1959 N 189.197 -1.51736 -0.425897 0
M  V30 1960 C 190.16 -1.73271 -1.50032 0
M  V30 1961 C 191.16 -0.602639 -1.4908 0
M  V30 1962 O 192.35 -0.87033 -1.509 0
M  V30 1963 C 189.482 -1.79969 -2.89523 0
M  V30 1964 H 190.675 -2.69172 -1.32237 0
M  V30 1965 H 188.228 -1.41899 -0.65532 0
M  V30 1966 H 188.963 -0.859241 -3.1271 0
M  V30 1967 H 188.748 -2.62109 -2.91619 0
M  V30 1968 H 190.238 -1.9843 -3.67444 0
M  V30 1969 N 190.675 0.682077 -1.42076 0
M  V30 1970 C 191.921 1.44428 -1.42367 0
M  V30 1971 C 192.254 1.94164 -0.0373056 0
M  V30 1972 O 191.529 1.70429 0.937239 0
M  V30 1973 C 191.812 2.64654 -2.44194 0
M  V30 1974 C 191.665 2.20596 -3.91991 0
M  V30 1975 C 192.984 3.66865 -2.431 0
M  V30 1976 H 190.103 0.523834 -0.518428 0
M  V30 1977 H 192.745 0.77576 -1.73442 0
M  V30 1978 H 190.895 3.2169 -2.17826 0
M  V30 1979 H 192.567 1.68783 -4.29313 0
M  V30 1980 H 190.81 1.52242 -4.06208 0
M  V30 1981 H 191.481 3.06921 -4.58807 0
M  V30 1982 H 193.957 3.19531 -2.66532 0
M  V30 1983 H 192.833 4.48577 -3.16339 0
M  V30 1984 H 193.094 4.17493 -1.45437 0
M  V30 1985 N 192.153 1.28127 0.917671 0
M  V30 1986 C 193.083 1.14248 2.03641 0
M  V30 1987 C 194.064 0.0412748 1.7005 0
M  V30 1988 O 195.249 0.217566 1.92977 0
M  V30 1989 C 192.379 0.799431 3.37974 0
M  V30 1990 C 191.333 1.85497 3.85713 0
M  V30 1991 C 190.659 1.36565 5.16966 0
M  V30 1992 C 191.959 3.26085 4.08002 0
M  V30 1993 H 193.653 2.07835 2.15511 0
M  V30 1994 H 191.199 1.00064 1.03553 0
M  V30 1995 H 193.152 0.689114 4.15727 0
M  V30 1996 H 191.876 -0.172145 3.26146 0
M  V30 1997 H 190.535 1.95437 3.10161 0
M  V30 1998 H 190.183 0.383253 5.01538 0
M  V30 1999 H 189.883 2.07143 5.49878 0
M  V30 2000 H 191.407 1.26848 5.97279 0
M  V30 2001 H 192.821 3.19089 4.76293 0
M  V30 2002 H 191.218 3.94462 4.52238 0
M  V30 2003 H 192.288 3.70394 3.12948 0
M  V30 2004 N 193.631 -1.12557 1.10312 0
M  V30 2005 C 194.561 -2.20341 0.772798 0
M  V30 2006 C 195.542 -1.68198 -0.25365 0
M  V30 2007 O 196.727 -1.93831 -0.119699 0
M  V30 2008 C 193.857 -3.46709 0.202443 0
M  V30 2009 C 192.811 -4.11996 1.15943 0
M  V30 2010 C 192.137 -5.328 0.450345 0
M  V30 2011 C 193.437 -4.5828 2.50552 0
M  V30 2012 H 195.131 -2.48229 1.674 0
M  V30 2013 H 192.677 -1.19308 0.806326 0
M  V30 2014 H 194.63 -4.2138 -0.0407752 0
M  V30 2015 H 193.354 -3.18245 -0.734001 0
M  V30 2016 H 192.013 -3.39305 1.38808 0
M  V30 2017 H 191.661 -5.00602 -0.490531 0
M  V30 2018 H 191.361 -5.7743 1.08851 0
M  V30 2019 H 192.885 -6.10219 0.215642 0
M  V30 2020 H 194.299 -5.2433 2.31843 0
M  V30 2021 H 192.696 -5.13683 3.10242 0
M  V30 2022 H 193.766 -3.72329 3.10643 0
M  V30 2023 N 195.109 -0.891671 -1.2995 0
M  V30 2024 C 196.357 -0.512486 -1.95494 0
M  V30 2025 C 196.678 0.942776 -1.70695 0
M  V30 2026 O 195.948 1.66374 -1.03424 0
M  V30 2027 H 194.528 -0.186533 -0.723336 0
M  V30 2028 H 197.19 -1.13621 -1.58355 0
M  V30 2029 H 196.286 -0.688342 -3.04415 0
M  V30 2030 N 196.587 1.43421 -0.653314 0
M  V30 2031 C 197.834 2.01812 -0.166745 0
M  V30 2032 C 198.162 1.51535 1.21931 0
M  V30 2033 O 197.417 0.698975 1.82792 0
M  V30 2034 C 197.716 3.57176 -0.126623 0
M  V30 2035 C 197.382 4.26798 -1.45444 0
M  V30 2036 C 196.044 4.45534 -1.81805 0
M  V30 2037 C 198.396 4.66225 -2.32989 0
M  V30 2038 C 195.724 5.00961 -3.05377 0
M  V30 2039 C 198.076 5.23021 -3.55853 0
M  V30 2040 C 196.74 5.39973 -3.9241 0
M  V30 2041 H 196.01 0.738484 -0.0610162 0
M  V30 2042 H 198.657 1.71896 -0.84404 0
M  V30 2043 H 196.962 3.86634 0.634123 0
M  V30 2044 H 198.659 4.00112 0.266723 0
M  V30 2045 H 195.249 4.12561 -1.16153 0
M  V30 2046 H 199.433 4.51443 -2.06187 0
M  V30 2047 H 194.689 5.12271 -3.3375 0
M  V30 2048 H 198.863 5.52518 -4.23907 0
M  V30 2049 H 196.49 5.82687 -4.88242 0
M  V30 2050 N 198.065 0.39524 1.52563 0
M  V30 2051 C 198.995 -0.428384 2.29537 0
M  V30 2052 C 199.976 -1.05831 1.33169 0
M  V30 2053 O 201.161 -1.06995 1.62067 0
M  V30 2054 C 198.291 -1.55274 3.10656 0
M  V30 2055 C 197.245 -1.04855 4.14957 0
M  V30 2056 C 196.571 -2.26543 4.84337 0
M  V30 2057 C 197.871 -0.112324 5.22179 0
M  V30 2058 H 199.565 0.213867 2.98635 0
M  V30 2059 H 197.111 0.104298 1.43622 0
M  V30 2060 H 199.064 -2.1358 3.63265 0
M  V30 2061 H 197.788 -2.22266 2.39302 0
M  V30 2062 H 196.447 -0.487985 3.63338 0
M  V30 2063 H 196.095 -2.92059 4.09525 0
M  V30 2064 H 195.795 -1.93466 5.54837 0
M  V30 2065 H 197.319 -2.85481 5.39753 0
M  V30 2066 H 198.733 -0.603752 5.70112 0
M  V30 2067 H 197.13 0.128968 5.99961 0
M  V30 2068 H 198.2 0.837052 4.77621 0
M  V30 2069 N 199.544 -1.57102 0.125237 0
M  V30 2070 C 200.774 -1.99472 -0.538015 0
M  V30 2071 C 201.182 -1.00395 -1.60366 0
M  V30 2072 O 200.525 0.0103875 -1.83697 0
M  V30 2073 C 200.587 -3.38262 -1.21734 0
M  V30 2074 C 200.251 -4.56021 -0.298897 0
M  V30 2075 C 201.248 -5.17817 0.464943 0
M  V30 2076 C 198.933 -5.01869 -0.208149 0
M  V30 2077 C 200.927 -6.23852 1.3072 0
M  V30 2078 C 198.614 -6.07763 0.637736 0
M  V30 2079 C 199.612 -6.68622 1.39403 0
M  V30 2080 O 199.3 -7.7247 2.22586 0
M  V30 2081 H 199.032 -0.659934 -0.146501 0
M  V30 2082 H 201.586 -2.04321 0.210267 0
M  V30 2083 H 199.816 -3.30185 -2.01282 0
M  V30 2084 H 201.505 -3.6488 -1.77813 0
M  V30 2085 H 202.271 -4.83308 0.404741 0
M  V30 2086 H 198.15 -4.54241 -0.786522 0
M  V30 2087 H 201.694 -6.71284 1.898 0
M  V30 2088 H 197.591 -6.41701 0.699309 0
M  V30 2089 H 198.359 -7.89595 2.15596 0
M  V30 2090 N 201.022 0.148545 -1.56898 0
M  V30 2091 C 202.438 0.501131 -1.51528 0
M  V30 2092 C 202.638 1.83458 -0.833399 0
M  V30 2093 O 201.694 2.49259 -0.40328 0
M  V30 2094 C 203.007 0.512864 -2.96294 0
M  V30 2095 C 204.555 0.598487 -3.07225 0
M  V30 2096 C 205.03 0.640897 -4.53494 0
M  V30 2097 N 206.521 0.703163 -4.57832 0
M  V30 2098 C 207.256 0.756935 -5.68382 0
M  V30 2099 N 206.752 0.770147 -6.88506 0
M  V30 2100 N 208.545 0.797698 -5.56411 0
M  V30 2101 H 200.696 -0.725532 -1.99624 0
M  V30 2102 H 202.959 -0.264358 -0.910395 0
M  V30 2103 H 202.665 -0.398691 -3.49433 0
M  V30 2104 H 202.539 1.35133 -3.52163 0
M  V30 2105 H 204.926 1.50046 -2.54106 0
M  V30 2106 H 205.007 -0.267093 -2.54402 0
M  V30 2107 H 204.651 -0.256915 -5.0725 0
M  V30 2108 H 204.581 1.52295 -5.04097 0
M  V30 2109 H 207.072 0.700314 -3.71354 0
M  V30 2110 H 207.385 0.812983 -7.68512 0
M  V30 2111 H 205.73 0.738049 -6.9107 0
M  V30 2112 H 208.921 0.784535 -4.61479 0
M  V30 2113 H 209.094 0.83614 -6.42583 0
M  V30 2114 N 202.5 1.5196 0.417844 0
M  V30 2115 C 203.73 1.69181 1.18581 0
M  V30 2116 C 204.138 0.397104 1.84986 0
M  V30 2117 O 203.481 -0.636011 1.72339 0
M  V30 2118 C 203.543 2.76497 2.29759 0
M  V30 2119 C 203.207 4.18514 1.83563 0
M  V30 2120 C 204.204 5.02648 1.32821 0
M  V30 2121 C 201.889 4.64708 1.90661 0
M  V30 2122 C 203.883 6.31044 0.897894 0
M  V30 2123 C 201.57 5.93096 1.47241 0
M  V30 2124 C 202.568 6.76093 0.968891 0
M  V30 2125 O 202.256 8.02078 0.540924 0
M  V30 2126 H 201.988 0.570457 0.362705 0
M  V30 2127 H 204.542 1.99249 0.498885 0
M  V30 2128 H 202.772 2.41786 3.01789 0
M  V30 2129 H 204.461 2.82403 2.91553 0
M  V30 2130 H 205.227 4.68154 1.26716 0
M  V30 2131 H 201.106 4.00216 2.28797 0
M  V30 2132 H 204.65 6.95776 0.504192 0
M  V30 2133 H 200.547 6.271 1.53022 0
M  V30 2134 H 201.315 8.15794 0.66502 0
M  V30 2135 N 203.978 -0.674533 1.42435 0
M  V30 2136 C 205.208 -1.46071 1.46105 0
M  V30 2137 C 205.616 -1.89067 0.0709605 0
M  V30 2138 O 204.959 -1.58731 -0.924677 0
M  V30 2139 C 205.021 -2.74145 2.32561 0
M  V30 2140 C 204.685 -2.53224 3.8043 0
M  V30 2141 C 205.682 -2.17809 4.72075 0
M  V30 2142 C 203.367 -2.6821 4.24698 0
M  V30 2143 C 205.361 -1.97648 6.05982 0
M  V30 2144 C 203.048 -2.47665 5.58664 0
M  V30 2145 C 204.046 -2.12437 6.49122 0
M  V30 2146 O 203.734 -1.9209 7.80613 0
M  V30 2147 H 203.466 -0.455959 0.499076 0
M  V30 2148 H 206.02 -0.836193 1.87609 0
M  V30 2149 H 204.25 -3.3908 1.85908 0
M  V30 2150 H 205.939 -3.36028 2.27683 0
M  V30 2151 H 206.705 -2.05826 4.39159 0
M  V30 2152 H 202.584 -2.94609 3.54579 0
M  V30 2153 H 206.128 -1.70075 6.7655 0
M  V30 2154 H 202.025 -2.59244 5.91154 0
M  V30 2155 H 202.793 -2.06686 7.91974 0
M  V30 2156 N 205.456 -1.28612 -0.910864 0
M  V30 2157 C 206.684 -1.18792 -1.69399 0
M  V30 2158 C 207.099 0.253039 -1.87097 0
M  V30 2159 O 206.456 1.17071 -1.40003 0
M  V30 2160 C 206.507 -1.88511 -3.08457 0
M  V30 2161 O 206.228 -3.26979 -2.91576 0
M  V30 2162 C 207.729 -1.85029 -4.02839 0
M  V30 2163 H 204.949 -0.412233 -0.529438 0
M  V30 2164 H 207.493 -1.69788 -1.13984 0
M  V30 2165 H 205.648 -1.41379 -3.60681 0
M  V30 2166 H 206.062 -3.61936 -3.79608 0
M  V30 2167 H 207.536 -2.38395 -4.97867 0
M  V30 2168 H 208.013 -0.823303 -4.31414 0
M  V30 2169 H 208.619 -2.31853 -3.56545 0
M  V30 2170 N 206.934 1.1197 -1.10907 0
M  V30 2171 C 208.159 1.87942 -0.877064 0
M  V30 2172 C 208.584 1.79341 0.567314 0
M  V30 2173 O 207.942 1.15184 1.40009 0
M  V30 2174 C 207.99 3.34926 -1.33629 0
M  V30 2175 O 207.094 4.09303 -0.504447 0
M  V30 2176 H 206.435 0.583785 -0.316371 0
M  V30 2177 H 208.965 1.4157 -1.47712 0
M  V30 2178 H 208.975 3.8577 -1.32837 0
M  V30 2179 H 207.65 3.40504 -2.3881 0
M  V30 2180 H 206.227 3.68393 -0.577993 0
M  V30 2181 N 208.412 0.89855 1.29475 0
M  V30 2182 C 209.322 0.379974 2.31502 0
M  V30 2183 C 210.338 -0.524695 1.659 0
M  V30 2184 O 211.514 -0.414551 1.97087 0
M  V30 2185 C 208.579 -0.385138 3.44554 0
M  V30 2186 C 207.64 0.550914 4.2575 0
M  V30 2187 C 206.873 -0.177778 5.33404 0
M  V30 2188 O 207.096 -1.40189 5.52904 0
M  V30 2189 O 206.03 0.479106 5.9999 0
M  V30 2190 H 209.856 1.22639 2.77837 0
M  V30 2191 H 207.441 0.662834 1.33891 0
M  V30 2192 H 209.323 -0.817841 4.13388 0
M  V30 2193 H 207.998 -1.20763 3.0033 0
M  V30 2194 H 206.905 1.03271 3.59564 0
M  V30 2195 H 208.238 1.33979 4.73614 0
M  V30 2196 N 209.89 -1.43072 0.660911 0
M  V30 2197 C 211.115 -2.06584 0.183805 0
M  V30 2198 C 211.54 -1.49257 -1.14472 0
M  V30 2199 O 210.898 -0.605528 -1.70889 0
M  V30 2200 C 210.946 -3.60418 0.114434 0
M  V30 2201 O 210.05 -4.01981 -0.921137 0
M  V30 2202 H 209.391 -0.656669 0.0983994 0
M  V30 2203 H 211.921 -1.83447 0.906006 0
M  V30 2204 H 211.931 -4.07946 -0.0663394 0
M  V30 2205 H 210.606 -4.01519 1.08422 0
M  V30 2206 H 209.183 -3.66029 -0.71253 0
M  V30 2207 N 211.368 -0.403325 -1.52352 0
M  V30 2208 C 212.315 0.425011 -2.26853 0
M  V30 2209 C 213.285 1.04598 -1.29029 0
M  V30 2210 O 214.47 1.07135 -1.57882 0
M  V30 2211 C 211.61 1.53888 -3.08889 0
M  V30 2212 C 210.723 0.939396 -4.21663 0
M  V30 2213 C 209.858 2.02547 -4.91068 0
M  V30 2214 C 208.897 1.40263 -5.95813 0
M  V30 2215 N 208.034 2.4286 -6.58759 0
M  V30 2216 H 212.874 -0.21674 -2.97211 0
M  V30 2217 H 210.411 -0.118722 -1.4662 0
M  V30 2218 H 212.369 2.19558 -3.54753 0
M  V30 2219 H 210.999 2.15074 -2.40714 0
M  V30 2220 H 210.051 0.171898 -3.80011 0
M  V30 2221 H 211.363 0.44436 -4.96817 0
M  V30 2222 H 210.517 2.75958 -5.40308 0
M  V30 2223 H 209.256 2.55415 -4.15469 0
M  V30 2224 H 208.261 0.653833 -5.45898 0
M  V30 2225 H 209.486 0.881719 -6.73352 0
M  V30 2226 H 207.432 2.94871 -5.85992 0
M  V30 2227 H 207.349 1.98152 -7.2957 0
M  V30 2228 H 208.617 3.15858 -7.12639 0
M  V30 2229 N 212.846 1.57033 -0.133567 0
M  V30 2230 C 214.071 2.00475 0.531477 0
M  V30 2231 C 214.496 1.01291 1.58499 0
M  V30 2232 O 213.854 -0.0133279 1.81295 0
M  V30 2233 C 213.902 3.42729 1.12113 0
M  V30 2234 O 213.006 3.46498 2.23636 0
M  V30 2235 H 212.347 0.650876 0.131362 0
M  V30 2236 H 214.877 2.03344 -0.22634 0
M  V30 2237 H 214.887 3.81246 1.4531 0
M  V30 2238 H 213.562 4.14428 0.349557 0
M  V30 2239 H 212.139 3.19811 1.91769 0
M  V30 2240 N 214.325 -0.140222 1.56975 0
M  V30 2241 C 215.55 -0.870414 1.88251 0
M  V30 2242 C 215.975 -1.73637 0.723312 0
M  V30 2243 O 215.333 -1.78329 -0.32689 0
M  V30 2244 C 215.381 -1.69737 3.18154 0
M  V30 2245 O 214.485 -2.80229 3.02565 0
M  V30 2246 H 213.826 -0.242025 0.61832 0
M  V30 2247 H 216.356 -0.128999 2.04193 0
M  V30 2248 H 216.366 -2.09099 3.50345 0
M  V30 2249 H 215.041 -1.06152 4.02125 0
M  V30 2250 H 213.618 -2.44224 2.81796 0
M  V30 2251 O 215.842 -1.58968 -0.284834 0
M  V30 2252 H 216.533 -1.69867 -0.930848 0
M  V30 END ATOM
M  V30 BEGIN BOND
M  V30 END BOND
M  V30 END CTAB
M  END
$$$$
