drugbank_target|O43181 NADH dehydrogenase [ubiquinone] iron-sulfur protein 4, mitochondrial (DB00157)
 OpenBabel12092119333D

  0  0  0     0  0            999 V3000
M  V30 BEGIN CTAB
M  V30 COUNTS 2849 2877 0 0 0
M  V30 BEGIN ATOM
M  V30 1 H -0.908 1.98254 -0.117106 0
M  V30 2 N 0 1.576 0 0
M  V30 3 C 0.933 2.03868 1.02534 0
M  V30 4 C 1.911 0.928543 1.3348 0
M  V30 5 O 3.095 1.19667 1.45644 0
M  V30 6 C 0.222 2.43627 2.35294 0
M  V30 7 C -0.732 3.65373 2.2001 0
M  V30 8 S 0.101 5.13292 1.52614 0
M  V30 9 C 1.257 5.56322 2.86805 0
M  V30 10 H 1.49 2.90518 0.631377 0
M  V30 11 H -0.977 1.52953 0.210867 0
M  V30 12 H 0.981 2.67203 3.11629 0
M  V30 13 H -0.358 1.57376 2.7183 0
M  V30 14 H -1.165 3.90944 3.18086 0
M  V30 15 H -1.563 3.418 1.51819 0
M  V30 16 H 0.729 5.58782 3.83104 0
M  V30 17 H 1.672 6.56266 2.65933 0
M  V30 18 H 2.08 4.83886 2.90714 0
M  V30 19 N 1.4781 -0.272755 1.55222 0
M  V30 20 C 2.4411 -1.32041 1.87344 0
M  V30 21 C 3.4411 -1.42342 0.74803 0
M  V30 22 O 4.6311 -1.41488 1.0162 0
M  V30 23 C 1.7631 -2.70173 2.07893 0
M  V30 24 H 2.9561 -1.04789 2.80997 0
M  V30 25 H 0.5091 -0.51083 1.47717 0
M  V30 26 H 1.2441 -3.02605 1.16622 0
M  V30 27 H 1.0291 -2.64082 2.89833 0
M  V30 28 H 2.5191 -3.45869 2.34017 0
M  V30 29 N 2.9562 -1.48159 -0.537278 0
M  V30 30 C 3.9192 -1.61665 -1.62472 0
M  V30 31 C 4.9192 -0.490395 -1.5314 0
M  V30 32 O 6.1092 -0.755998 -1.5694 0
M  V30 33 C 3.2412 -1.57997 -3.02076 0
M  V30 34 H 4.4342 -2.58621 -1.51839 0
M  V30 35 H 1.9872 -1.36647 -0.758771 0
M  V30 36 H 2.7222 -0.624913 -3.18222 0
M  V30 37 H 2.5072 -2.39755 -3.10258 0
M  V30 38 H 3.9972 -1.70627 -3.81151 0
M  V30 39 N 4.4343 0.785586 -1.36625 0
M  V30 40 C 5.6803 1.54591 -1.31261 0
M  V30 41 C 6.0133 1.93906 0.106823 0
M  V30 42 O 5.2883 1.63007 1.06108 0
M  V30 43 C 5.5713 2.82038 -2.23889 0
M  V30 44 C 5.4243 2.49066 -3.74548 0
M  V30 45 C 6.7433 3.83887 -2.15217 0
M  V30 46 H 3.8623 0.560846 -0.478143 0
M  V30 47 H 6.5043 0.902278 -1.67209 0
M  V30 48 H 4.6543 3.36961 -1.93363 0
M  V30 49 H 6.3263 2.00164 -4.15611 0
M  V30 50 H 4.5693 1.81954 -3.93796 0
M  V30 51 H 5.2403 3.40109 -4.34776 0
M  V30 52 H 7.7163 3.38421 -2.42096 0
M  V30 53 H 6.5923 4.70806 -2.82193 0
M  V30 54 H 6.8533 4.27131 -1.14068 0
M  V30 55 N 5.9124 1.20967 1.01018 0
M  V30 56 C 7.1374 1.0503 1.78839 0
M  V30 57 C 7.5624 -0.395752 1.8389 0
M  V30 58 O 6.9204 -1.28529 1.27867 0
M  V30 59 C 6.9684 1.64602 3.2084 0
M  V30 60 O 6.0724 0.887988 4.02726 0
M  V30 61 H 5.4134 0.369987 0.551367 0
M  V30 62 H 7.9434 1.60399 1.27018 0
M  V30 63 H 7.9534 1.68607 3.71532 0
M  V30 64 H 6.6284 2.69841 3.16479 0
M  V30 65 H 5.2054 0.922648 3.61305 0
M  V30 66 N 7.3905 -1.2043 1.01659 0
M  V30 67 C 8.3235 -2.21924 0.531521 0
M  V30 68 C 9.3015 -1.57054 -0.421032 0
M  V30 69 O 10.4855 -1.85389 -0.341035 0
M  V30 70 C 7.6125 -3.37942 -0.226496 0
M  V30 71 C 6.6585 -4.21115 0.67561 0
M  V30 72 S 7.4915 -4.90674 2.14475 0
M  V30 73 C 8.6475 -6.10113 1.3969 0
M  V30 74 H 8.8805 -2.62725 1.3915 0
M  V30 75 H 6.4135 -1.30481 0.825479 0
M  V30 76 H 8.3715 -4.05196 -0.657738 0
M  V30 77 H 7.0325 -2.956 -1.06205 0
M  V30 78 H 6.2255 -5.03918 0.091108 0
M  V30 79 H 5.8275 -3.59115 1.04463 0
M  V30 80 H 8.1195 -6.7411 0.676897 0
M  V30 81 H 9.0625 -6.73022 2.20107 0
M  V30 82 H 9.4705 -5.57283 0.899786 0
M  V30 83 N 8.8686 -0.792821 -1.36206 0
M  V30 84 C 10.0936 -0.377701 -2.03932 0
M  V30 85 C 10.5186 0.998947 -1.59382 0
M  V30 86 O 9.8766 1.64421 -0.763903 0
M  V30 87 C 9.9246 -0.453635 -3.57735 0
M  V30 88 O 9.0286 0.538151 -4.08874 0
M  V30 89 H 8.3696 -0.159855 -0.644471 0
M  V30 90 H 10.8996 -1.07488 -1.7409 0
M  V30 91 H 10.9096 -0.318464 -4.06755 0
M  V30 92 H 9.5846 -1.45784 -3.89512 0
M  V30 93 H 8.1616 0.364359 -3.71116 0
M  V30 94 N 10.3467 1.47872 -0.545128 0
M  V30 95 C 11.5927 2.02793 -0.0166104 0
M  V30 96 C 11.9257 1.41987 1.32489 0
M  V30 97 O 11.2007 0.571045 1.85928 0
M  V30 98 C 11.4837 3.59989 0.0893294 0
M  V30 99 C 11.3367 4.3125 -1.27841 0
M  V30 100 C 12.6557 4.32606 0.808724 0
M  V30 101 H 9.7747 0.736962 -0.00751035 0
M  V30 102 H 12.4167 1.76433 -0.705085 0
M  V30 103 H 10.5667 3.82579 0.675681 0
M  V30 104 H 12.2387 4.20035 -1.90704 0
M  V30 105 H 10.4817 3.92076 -1.85632 0
M  V30 106 H 11.1527 5.39736 -1.15713 0
M  V30 107 H 13.6287 4.14936 0.310992 0
M  V30 108 H 12.5047 5.42251 0.851782 0
M  V30 109 H 12.7657 4.00963 1.86229 0
M  V30 110 N 11.8248 0.280983 1.55075 0
M  V30 111 C 13.0708 -0.33461 2.00021 0
M  V30 112 C 13.4038 -1.55063 1.16915 0
M  V30 113 O 12.6788 -1.93006 0.240646 0
M  V30 114 C 12.9618 -0.711007 3.53011 0
M  V30 115 C 12.8148 0.512766 4.46868 0
M  V30 116 C 14.1338 -1.54522 4.12081 0
M  V30 117 H 11.2528 -0.120147 0.727141 0
M  V30 118 H 13.8948 0.389097 1.85973 0
M  V30 119 H 12.0448 -1.32761 3.65112 0
M  V30 120 H 13.7168 1.15131 4.46702 0
M  V30 121 H 11.9598 1.14975 4.18286 0
M  V30 122 H 12.6308 0.205556 5.51617 0
M  V30 123 H 15.1068 -1.02442 4.03293 0
M  V30 124 H 13.9828 -1.77739 5.19327 0
M  V30 125 H 14.2438 -2.52813 3.62682 0
M  V30 126 N 13.3029 -1.57598 0.00835791 0
M  V30 127 C 14.2329 -2.1198 -0.979113 0
M  V30 128 C 15.2139 -1.03091 -1.35301 0
M  V30 129 O 16.3989 -1.30818 -1.43528 0
M  V30 130 C 13.5289 -2.62995 -2.26828 0
M  V30 131 C 12.4829 -3.76485 -2.03576 0
M  V30 132 C 11.8089 -4.13846 -3.38579 0
M  V30 133 C 13.1089 -5.0342 -1.39161 0
M  V30 134 H 14.8029 -2.94738 -0.526281 0
M  V30 135 H 12.3489 -1.41783 -0.251704 0
M  V30 136 H 14.3019 -2.99669 -2.96271 0
M  V30 137 H 13.0259 -1.7737 -2.7424 0
M  V30 138 H 11.6849 -3.40217 -1.36557 0
M  V30 139 H 11.3329 -3.25232 -3.83709 0
M  V30 140 H 11.0329 -4.90312 -3.23834 0
M  V30 141 H 12.5569 -4.53086 -4.09323 0
M  V30 142 H 13.9709 -5.37812 -1.98573 0
M  V30 143 H 12.3679 -5.84746 -1.34878 0
M  V30 144 H 13.4379 -4.83548 -0.361868 0
M  V30 145 N 14.781 0.264519 -1.55364 0
M  V30 146 C 16.197 0.61215 -1.47394 0
M  V30 147 C 16.397 1.89134 -0.695018 0
M  V30 148 O 15.453 2.51563 -0.217275 0
M  V30 149 C 16.766 0.731235 -2.91674 0
M  V30 150 C 18.314 0.82473 -3.01939 0
M  V30 151 C 18.789 0.975522 -4.4749 0
M  V30 152 N 20.28 1.04083 -4.51354 0
M  V30 153 C 21.015 1.17646 -5.61201 0
M  V30 154 N 20.511 1.27874 -6.80896 0
M  V30 155 N 22.304 1.20823 -5.48961 0
M  V30 156 H 14.455 -0.575456 -2.04456 0
M  V30 157 H 16.718 -0.196099 -0.927496 0
M  V30 158 H 16.424 -0.138392 -3.51428 0
M  V30 159 H 16.298 1.60883 -3.41169 0
M  V30 160 H 18.685 1.68482 -2.42276 0
M  V30 161 H 18.766 -0.0776479 -2.55682 0
M  V30 162 H 18.41 0.120058 -5.07758 0
M  V30 163 H 18.34 1.89268 -4.91412 0
M  V30 164 H 20.831 0.973846 -3.65136 0
M  V30 165 H 21.144 1.38081 -7.60364 0
M  V30 166 H 19.489 1.24863 -6.83692 0
M  V30 167 H 22.68 1.12469 -4.54388 0
M  V30 168 H 22.853 1.31049 -6.3461 0
M  V30 169 N 16.2591 1.48442 0.529413 0
M  V30 170 C 17.1911 1.59095 1.64989 0
M  V30 171 C 18.2041 0.475212 1.5571 0
M  V30 172 O 19.3931 0.746081 1.6216 0
M  V30 173 C 16.4931 1.50518 3.0364 0
M  V30 174 C 15.6661 2.77142 3.38395 0
M  V30 175 C 14.7251 2.62012 4.56329 0
M  V30 176 O 13.7511 3.35898 4.59522 0
M  V30 177 N 14.9531 1.71667 5.54536 0
M  V30 178 H 17.7181 2.55723 1.56287 0
M  V30 179 H 15.2791 1.45173 0.716697 0
M  V30 180 H 17.2711 1.38091 3.80412 0
M  V30 181 H 15.8411 0.618627 3.06418 0
M  V30 182 H 15.0611 3.0413 2.50796 0
M  V30 183 H 16.3491 3.61146 3.58401 0
M  V30 184 H 15.7471 1.10841 5.54735 0
M  V30 185 H 14.3041 1.65178 6.30523 0
M  V30 186 N 17.7372 -0.778329 1.37039 0
M  V30 187 C 18.9652 -1.56734 1.35063 0
M  V30 188 C 19.3802 -1.88686 -0.0655597 0
M  V30 189 O 18.7372 -1.5096 -1.02554 0
M  V30 190 C 18.7882 -2.88163 2.18276 0
M  V30 191 O 18.5092 -2.57583 3.54376 0
M  V30 192 C 20.0102 -3.82422 2.24206 0
M  V30 193 H 17.2302 -0.485778 0.462883 0
M  V30 194 H 19.7742 -0.965185 1.8029 0
M  V30 195 H 17.9292 -3.44818 1.76576 0
M  V30 196 H 18.3432 -3.41699 3.97922 0
M  V30 197 H 19.8172 -4.71667 2.86765 0
M  V30 198 H 20.2942 -4.21078 1.24861 0
M  V30 199 H 20.9002 -3.31697 2.6619 0
M  V30 200 N 19.2153 -1.21501 -1.00376 0
M  V30 201 C 20.1453 -0.999478 -2.11028 0
M  V30 202 C 21.1263 0.0759671 -1.6993 0
M  V30 203 O 22.3113 -0.0841106 -1.94018 0
M  V30 204 C 19.4413 -0.564709 -3.42678 0
M  V30 205 C 18.3953 -1.58486 -3.97576 0
M  V30 206 C 17.7213 -1.00628 -5.25146 0
M  V30 207 C 19.0213 -2.97204 -4.29496 0
M  V30 208 H 20.7153 -1.92495 -2.29317 0
M  V30 209 H 18.2613 -0.92693 -1.102 0
M  V30 210 H 20.2143 -0.401091 -4.19487 0
M  V30 211 H 18.9383 0.396411 -3.24185 0
M  V30 212 H 17.5973 -1.73606 -3.22888 0
M  V30 213 H 17.2453 -0.0368439 -5.02987 0
M  V30 214 H 16.9453 -1.68771 -5.62841 0
M  V30 215 H 18.4693 -0.854015 -6.04598 0
M  V30 216 H 19.8833 -2.8552 -4.97143 0
M  V30 217 H 18.2803 -3.62372 -4.78338 0
M  V30 218 H 19.3503 -3.47956 -3.3772 0
M  V30 219 N 20.6934 1.19889 -1.02296 0
M  V30 220 C 21.9394 1.89973 -0.726759 0
M  V30 221 C 22.2944 1.7776 0.73614 0
M  V30 222 O 21.5874 1.15523 1.52856 0
M  V30 223 C 21.7814 3.39883 -1.10518 0
M  V30 224 C 21.6104 3.66684 -2.60332 0
M  V30 225 C 20.3804 3.85045 -3.27213 0
M  V30 226 C 22.5784 3.68727 -3.58532 0
M  V30 227 N 20.5604 3.99422 -4.66192 0
M  V30 228 C 21.9314 3.88604 -4.83101 0
M  V30 229 C 23.9864 3.51722 -3.52414 0
M  V30 230 C 22.6894 3.9324 -6.02292 0
M  V30 231 C 24.7154 3.57632 -4.71013 0
M  V30 232 C 24.0774 3.77988 -5.94394 0
M  V30 233 H 20.1764 0.714551 -0.317712 0
M  V30 234 H 22.7604 1.44123 -1.30907 0
M  V30 235 H 20.9314 3.8447 -0.551142 0
M  V30 236 H 22.6634 3.97464 -0.761853 0
M  V30 237 H 19.4184 3.83689 -2.77632 0
M  V30 238 H 19.8424 4.10473 -5.38368 0
M  V30 239 H 24.4844 3.34945 -2.58015 0
M  V30 240 H 22.2024 4.08811 -6.97065 0
M  V30 241 H 25.7884 3.45773 -4.67902 0
M  V30 242 H 24.6684 3.82428 -6.8463 0
M  V30 243 N 22.1715 0.800033 1.35784 0
M  V30 244 C 23.5875 0.482977 1.52117 0
M  V30 245 C 23.7875 -0.996948 1.75109 0
M  V30 246 O 22.8435 -1.78216 1.78872 0
M  V30 247 C 24.1565 1.32264 2.70049 0
M  V30 248 C 25.7045 1.31742 2.83924 0
M  V30 249 C 26.1795 2.14106 4.04874 0
M  V30 250 N 27.6705 2.11607 4.12039 0
M  V30 251 C 28.4055 2.72099 5.04727 0
M  V30 252 N 27.9015 3.41492 6.02789 0
M  V30 253 N 29.6945 2.61776 4.97423 0
M  V30 254 H 21.8455 1.75856 1.19115 0
M  V30 255 H 24.1085 0.748122 0.582252 0
M  V30 256 H 23.8145 2.37261 2.59616 0
M  V30 257 H 23.6885 0.971303 3.6448 0
M  V30 258 H 26.0755 0.275333 2.93813 0
M  V30 259 H 26.1565 1.70859 1.9037 0
M  V30 260 H 25.8005 3.18351 3.95746 0
M  V30 261 H 25.7305 1.72353 4.97596 0
M  V30 262 H 28.2215 1.61112 3.41835 0
M  V30 263 H 28.5345 3.84953 6.70098 0
M  V30 264 H 26.8795 3.45596 6.02983 0
M  V30 265 H 30.0705 2.07157 4.19766 0
M  V30 266 H 30.2435 3.0921 5.69468 0
M  V30 267 N 23.6496 -1.47581 0.552962 0
M  V30 268 C 25.0656 -1.5818 0.212424 0
M  V30 269 C 25.2656 -1.55213 -1.28496 0
M  V30 270 O 24.3216 -1.45329 -2.06484 0
M  V30 271 C 25.6346 -2.88865 0.835318 0
M  V30 272 C 27.1826 -3.0244 0.806156 0
M  V30 273 C 27.6576 -4.35819 1.40804 0
M  V30 274 N 29.1486 -4.42444 1.37103 0
M  V30 275 C 29.8836 -5.44202 1.80641 0
M  V30 276 N 29.3796 -6.52795 2.32015 0
M  V30 277 N 31.1726 -5.35222 1.71738 0
M  V30 278 H 23.3236 -1.47753 1.52587 0
M  V30 279 H 25.5866 -0.702941 0.636064 0
M  V30 280 H 25.2926 -2.9676 1.88749 0
M  V30 281 H 25.1666 -3.7579 0.325848 0
M  V30 282 H 27.5536 -2.94144 -0.237317 0
M  V30 283 H 27.6346 -2.17068 1.35334 0
M  V30 284 H 27.2786 -4.44871 2.45056 0
M  V30 285 H 27.2086 -5.19916 0.836338 0
M  V30 286 H 29.6996 -3.6456 0.995202 0
M  V30 287 H 30.0126 -7.26609 2.63171 0
M  V30 288 H 28.3576 -6.53696 2.36023 0
M  V30 289 H 31.5486 -4.49284 1.31382 0
M  V30 290 H 31.7216 -6.14389 2.05987 0
M  V30 291 N 25.1277 -0.289203 -1.54924 0
M  V30 292 C 26.5437 0.0645403 -1.59469 0
M  V30 293 C 26.7437 1.53419 -1.30632 0
M  V30 294 O 25.7997 2.2852 -1.074 0
M  V30 295 C 27.1127 -0.32278 -2.98963 0
M  V30 296 C 28.6607 -0.270564 -3.11828 0
M  V30 297 C 29.1357 -0.632532 -4.53611 0
M  V30 298 N 30.6267 -0.584617 -4.59496 0
M  V30 299 C 31.3617 -0.837314 -5.67254 0
M  V30 300 N 30.8577 -1.15536 -6.83098 0
M  V30 301 N 32.6507 -0.765166 -5.56868 0
M  V30 302 H 24.8017 -1.24714 -1.71931 0
M  V30 303 H 27.0647 -0.504809 -0.802416 0
M  V30 304 H 26.7707 -1.34541 -3.24948 0
M  V30 305 H 26.6447 0.32944 -3.75759 0
M  V30 306 H 29.0317 0.742805 -2.85598 0
M  V30 307 H 29.1127 -0.957242 -2.37214 0
M  V30 308 H 28.7567 -1.64365 -4.80569 0
M  V30 309 H 28.6867 0.07609 -5.26545 0
M  V30 310 H 31.1777 -0.349248 -3.76283 0
M  V30 311 H 31.4907 -1.33447 -7.61191 0
M  V30 312 H 29.8357 -1.19328 -6.84679 0
M  V30 313 H 33.0267 -0.516432 -4.65243 0
M  V30 314 H 33.1997 -0.965477 -6.40767 0
M  V30 315 N 26.6058 1.57591 -0.0167156 0
M  V30 316 C 27.5688 2.08393 0.954204 0
M  V30 317 C 28.5688 0.996531 1.26198 0
M  V30 318 O 29.7588 1.25858 1.20438 0
M  V30 319 C 26.8908 2.5394 2.27436 0
M  V30 320 H 28.0838 2.95455 0.514451 0
M  V30 321 H 25.6368 1.54582 0.231089 0
M  V30 322 H 26.3718 1.70171 2.76066 0
M  V30 323 H 26.1568 3.33371 2.06412 0
M  V30 324 H 27.6468 2.93512 2.97053 0
M  V30 325 N 28.0839 -0.256276 1.55502 0
M  V30 326 C 29.3299 -0.987079 1.77157 0
M  V30 327 C 29.6629 -1.85327 0.580315 0
M  V30 328 O 28.9379 -1.89874 -0.421686 0
M  V30 329 C 29.2209 -1.85553 3.08613 0
M  V30 330 C 29.0739 -1.01816 4.38125 0
M  V30 331 C 30.3929 -2.8397 3.36228 0
M  V30 332 H 27.5119 -0.357428 0.644526 0
M  V30 333 H 30.1539 -0.258239 1.88237 0
M  V30 334 H 28.3039 -2.47695 2.99298 0
M  V30 335 H 29.9759 -0.416159 4.59419 0
M  V30 336 H 28.2189 -0.322178 4.32602 0
M  V30 337 H 28.8899 -1.65939 5.26468 0
M  V30 338 H 31.3659 -2.31964 3.45445 0
M  V30 339 H 30.2419 -3.41864 4.29442 0
M  V30 340 H 30.5029 -3.59955 2.56681 0
M  V30 341 N 29.562 -1.4872 -0.521534 0
M  V30 342 C 30.525 -1.63379 -1.60748 0
M  V30 343 C 31.525 -0.50661 -1.52611 0
M  V30 344 O 32.715 -0.772601 -1.5613 0
M  V30 345 C 29.847 -1.61192 -3.00383 0
M  V30 346 H 31.04 -2.60217 -1.49087 0
M  V30 347 H 28.593 -1.37444 -0.744235 0
M  V30 348 H 29.328 -0.65863 -3.17541 0
M  V30 349 H 29.113 -2.43032 -3.07698 0
M  V30 350 H 30.603 -1.7466 -3.7932 0
M  V30 351 N 31.0401 0.771051 -1.3745 0
M  V30 352 C 32.2861 1.5319 -1.32894 0
M  V30 353 C 32.6191 1.94008 0.0862511 0
M  V30 354 O 31.8941 1.64124 1.04373 0
M  V30 355 C 32.1771 2.79648 -2.26868 0
M  V30 356 C 32.0301 2.45079 -3.77169 0
M  V30 357 C 33.3491 3.81583 -2.19277 0
M  V30 358 H 30.4681 0.555744 -0.484064 0
M  V30 359 H 33.1101 0.884492 -1.68157 0
M  V30 360 H 31.2601 3.34891 -1.96926 0
M  V30 361 H 32.9321 1.95745 -4.1771 0
M  V30 362 H 31.1751 1.77767 -3.95704 0
M  V30 363 H 31.8461 3.35478 -4.38359 0
M  V30 364 H 34.3221 3.35835 -2.45671 0
M  V30 365 H 33.1981 4.67787 -2.87171 0
M  V30 366 H 33.4591 4.25897 -1.18592 0
M  V30 367 N 32.5182 1.22032 0.997298 0
M  V30 368 C 33.4812 0.987909 2.06816 0
M  V30 369 C 34.4812 -0.0440084 1.6074 0
M  V30 370 O 35.6712 0.194053 1.73116 0
M  V30 371 C 32.8032 0.49132 3.37341 0
M  V30 372 H 33.9962 1.93803 2.28868 0
M  V30 373 H 31.5492 1.03838 1.16822 0
M  V30 374 H 32.2842 -0.463364 3.20973 0
M  V30 375 H 32.0692 1.23575 3.72118 0
M  V30 376 H 33.5592 0.348824 4.16141 0
M  V30 377 N 33.9963 -1.19345 1.0293 0
M  V30 378 C 34.9593 -2.20793 0.615069 0
M  V30 379 C 35.9593 -1.57553 -0.321533 0
M  V30 380 O 37.1493 -1.73862 -0.108483 0
M  V30 381 C 34.2813 -3.40754 -0.0999222 0
M  V30 382 H 35.4743 -2.58955 1.51269 0
M  V30 383 H 33.0273 -1.3303 0.820534 0
M  V30 384 H 33.7623 -3.0811 -1.01187 0
M  V30 385 H 33.5473 -3.87889 0.57309 0
M  V30 386 H 35.0373 -4.15898 -0.376645 0
M  V30 387 N 35.4744 -0.807222 -1.35358 0
M  V30 388 C 36.4044 -0.232509 -2.3234 0
M  V30 389 C 37.3854 0.642386 -1.57504 0
M  V30 390 O 38.5704 0.572526 -1.85569 0
M  V30 391 C 35.7004 0.619238 -3.41735 0
M  V30 392 C 34.6544 -0.157215 -4.27711 0
M  V30 393 C 33.9804 0.816273 -5.28433 0
M  V30 394 C 35.2804 -1.35656 -5.04376 0
M  V30 395 H 36.9744 -1.04276 -2.80654 0
M  V30 396 H 34.5204 -0.50288 -1.34934 0
M  V30 397 H 36.4734 1.03137 -4.08584 0
M  V30 398 H 35.1974 1.46239 -2.92031 0
M  V30 399 H 33.8564 -0.550525 -3.62443 0
M  V30 400 H 33.5044 1.65494 -4.74996 0
M  V30 401 H 33.2044 0.301067 -5.86828 0
M  V30 402 H 34.7284 1.22659 -5.98153 0
M  V30 403 H 36.1424 -1.01927 -5.64166 0
M  V30 404 H 34.5394 -1.8063 -5.7227 0
M  V30 405 H 35.6094 -2.14288 -4.34981 0
M  V30 406 N 36.9525 1.47285 -0.560781 0
M  V30 407 C 38.1775 2.07359 -0.0410566 0
M  V30 408 C 38.6025 1.41017 1.24483 0
M  V30 409 O 37.9605 0.486368 1.74654 0
M  V30 410 C 38.0085 3.6035 0.134123 0
M  V30 411 O 37.1125 3.94681 1.19587 0
M  V30 412 H 36.4535 0.661887 -0.0529291 0
M  V30 413 H 38.9835 1.89252 -0.777482 0
M  V30 414 H 38.9935 4.0652 0.347207 0
M  V30 415 H 37.6685 4.08034 -0.805047 0
M  V30 416 H 36.2455 3.60251 0.962987 0
M  V30 417 N 38.4306 0.297415 1.54768 0
M  V30 418 C 39.6766 -0.313376 2.00364 0
M  V30 419 C 40.0096 -1.53815 1.18553 0
M  V30 420 O 39.2846 -1.92739 0.261103 0
M  V30 421 C 39.5676 -0.673525 3.53745 0
M  V30 422 C 39.4206 0.560133 4.46299 0
M  V30 423 C 40.7396 -1.50143 4.13697 0
M  V30 424 H 37.8586 -0.112428 0.728374 0
M  V30 425 H 40.5006 0.4088 1.8555 0
M  V30 426 H 38.6506 -1.28881 3.665 0
M  V30 427 H 40.3226 1.19863 4.45455 0
M  V30 428 H 38.5656 1.19405 4.17043 0
M  V30 429 H 39.2366 0.26405 5.51368 0
M  V30 430 H 41.7126 -0.981588 4.04356 0
M  V30 431 H 40.5886 -1.72221 5.21182 0
M  V30 432 H 40.8496 -2.48952 3.65343 0
M  V30 433 N 39.9087 -1.5758 0.0250728 0
M  V30 434 C 41.1337 -1.96337 -0.668317 0
M  V30 435 C 41.5587 -0.901314 -1.651 0
M  V30 436 O 40.9167 0.138187 -1.80773 0
M  V30 437 C 40.9647 -3.34191 -1.35457 0
M  V30 438 O 40.0687 -3.30269 -2.46974 0
M  V30 439 H 39.4097 -0.640281 -0.175887 0
M  V30 440 H 41.9397 -2.0442 0.0857224 0
M  V30 441 H 41.9497 -3.70331 -1.71228 0
M  V30 442 H 40.6247 -4.11036 -0.634218 0
M  V30 443 H 39.2017 -3.05841 -2.13344 0
M  V30 444 N 41.3868 0.248026 -1.55636 0
M  V30 445 C 42.8028 0.596483 -1.48035 0
M  V30 446 C 43.0028 1.88386 -0.715039 0
M  V30 447 O 42.0588 2.51319 -0.243944 0
M  V30 448 C 43.3718 0.700258 -2.92433 0
M  V30 449 C 44.9198 0.792659 -3.02797 0
M  V30 450 C 45.3948 0.928005 -4.485 0
M  V30 451 N 46.8858 0.992903 -4.52433 0
M  V30 452 C 47.6208 1.11687 -5.62418 0
M  V30 453 N 47.1168 1.20645 -6.82214 0
M  V30 454 N 48.9098 1.14994 -5.50212 0
M  V30 455 H 41.0608 -0.597109 -2.03834 0
M  V30 456 H 43.3238 -0.205925 -0.925364 0
M  V30 457 H 43.0298 -0.175658 -3.51261 0
M  V30 458 H 42.9038 1.57255 -3.42857 0
M  V30 459 H 45.2908 1.65903 -2.4405 0
M  V30 460 H 45.3718 -0.104762 -2.55585 0
M  V30 461 H 45.0158 0.0661971 -5.07857 0
M  V30 462 H 44.9458 1.84045 -4.93391 0
M  V30 463 H 47.4368 0.935064 -3.66149 0
M  V30 464 H 47.7498 1.30008 -7.61786 0
M  V30 465 H 46.0948 1.17605 -6.84977 0
M  V30 466 H 49.2858 1.07643 -4.55555 0
M  V30 467 H 49.4588 1.24311 -6.35965 0
M  V30 468 N 42.8649 1.48995 0.513639 0
M  V30 469 C 44.1109 1.58076 1.27042 0
M  V30 470 C 44.4439 0.261026 1.92438 0
M  V30 471 O 43.7189 -0.734393 1.80103 0
M  V30 472 C 44.0019 2.73091 2.34719 0
M  V30 473 C 43.8549 4.14821 1.73907 0
M  V30 474 C 45.1739 2.83796 3.36375 0
M  V30 475 H 42.2929 0.575391 0.460536 0
M  V30 476 H 44.9349 1.81232 0.570516 0
M  V30 477 H 43.0849 2.53479 2.94416 0
M  V30 478 H 44.7569 4.45917 1.18135 0
M  V30 479 H 42.9999 4.21058 1.0437 0
M  V30 480 H 43.6709 4.91147 2.51949 0
M  V30 481 H 46.1469 3.01611 2.86653 0
M  V30 482 H 45.0229 3.65971 4.09093 0
M  V30 483 H 45.2839 1.92624 3.9793 0
M  V30 484 N 44.343 -0.763751 1.37857 0
M  V30 485 C 45.754 -1.3405 1.29952 0
M  V30 486 C 46.105 -1.96138 -0.0492898 0
M  V30 487 O 45.23 -1.94372 -0.951239 0
M  V30 488 C 45.825 -2.43729 2.35333 0
M  V30 489 C 44.384 -2.97151 2.31037 0
M  V30 490 C 43.531 -1.70438 2.18738 0
M  V30 491 H 46.482 -0.563396 1.48363 0
M  V30 492 H 46.503 -3.23412 2.00462 0
M  V30 493 H 46.015 -1.9851 3.33489 0
M  V30 494 H 44.116 -3.46724 1.3643 0
M  V30 495 H 44.229 -3.52221 3.24772 0
M  V30 496 H 42.593 -1.93673 1.65418 0
M  V30 497 H 43.376 -1.27312 3.18821 0
M  V30 498 N 45.8211 -1.22559 -0.990812 0
M  V30 499 C 47.0491 -1.07779 -1.76611 0
M  V30 500 C 47.4641 0.371513 -1.85109 0
M  V30 501 O 46.8211 1.25737 -1.32274 0
M  V30 502 C 46.8721 -1.68512 -3.19822 0
M  V30 503 O 46.5931 -3.07774 -3.1178 0
M  V30 504 C 48.0941 -1.59035 -4.13791 0
M  V30 505 H 45.3141 -0.377729 -0.554583 0
M  V30 506 H 47.8581 -1.62195 -1.24551 0
M  V30 507 H 46.0131 -1.18154 -3.68942 0
M  V30 508 H 46.4271 -3.37062 -4.01858 0
M  V30 509 H 47.9011 -2.0625 -5.1202 0
M  V30 510 H 48.3781 -0.547273 -4.35777 0
M  V30 511 H 48.9841 -2.08709 -3.70568 0
M  V30 512 N 47.2992 1.18797 -1.03562 0
M  V30 513 C 48.7152 1.40671 -0.753917 0
M  V30 514 C 48.9152 1.9043 0.658686 0
M  V30 515 O 47.9712 2.08538 1.42366 0
M  V30 516 C 49.2842 2.41192 -1.79574 0
M  V30 517 C 50.8322 2.54928 -1.81606 0
M  V30 518 C 51.3072 3.58709 -2.84766 0
M  V30 519 N 52.7982 3.66212 -2.83625 0
M  V30 520 C 53.5332 4.46225 -3.60098 0
M  V30 521 N 53.0292 5.29888 -4.46308 0
M  V30 522 N 54.8222 4.40939 -3.4861 0
M  V30 523 H 46.9732 0.848221 -1.94728 0
M  V30 524 H 49.2362 0.435081 -0.842264 0
M  V30 525 H 48.9422 2.11669 -2.80872 0
M  V30 526 H 48.8162 3.40467 -1.62365 0
M  V30 527 H 51.2032 2.83771 -0.809817 0
M  V30 528 H 51.2842 1.55784 -2.02891 0
M  V30 529 H 50.9282 3.30607 -3.85566 0
M  V30 530 H 50.8582 4.57519 -2.60737 0
M  V30 531 H 53.3492 3.06466 -2.21105 0
M  V30 532 H 53.6622 5.88078 -5.01382 0
M  V30 533 H 52.0072 5.29326 -4.50377 0
M  V30 534 H 55.1982 3.74624 -2.80668 0
M  V30 535 H 55.3712 5.03056 -4.08459 0
M  V30 536 N 48.7773 0.814389 1.34928 0
M  V30 537 C 50.0023 0.410097 2.03305 0
M  V30 538 C 50.4273 -0.973464 1.60951 0
M  V30 539 O 49.7853 -1.63185 0.789964 0
M  V30 540 C 49.8333 0.51049 3.56968 0
M  V30 541 O 48.9373 -0.473035 4.09678 0
M  V30 542 H 48.2783 0.170088 0.641846 0
M  V30 543 H 50.8083 1.10244 1.72358 0
M  V30 544 H 50.8183 0.383135 4.06197 0
M  V30 545 H 49.4933 1.51963 3.87144 0
M  V30 546 H 48.0703 -0.305272 3.71648 0
M  V30 547 N 50.2554 -1.46986 0.568584 0
M  V30 548 C 51.1854 -2.32946 -0.160753 0
M  V30 549 C 52.1664 -1.44487 -0.897631 0
M  V30 550 O 53.3514 -1.73327 -0.875867 0
M  V30 551 C 50.4814 -3.26494 -1.18403 0
M  V30 552 C 49.4354 -4.24282 -0.562895 0
M  V30 553 C 48.7614 -5.07236 -1.69163 0
M  V30 554 C 50.0614 -5.19989 0.490761 0
M  V30 555 H 51.7554 -2.94175 0.556916 0
M  V30 556 H 49.3014 -1.4146 0.26927 0
M  V30 557 H 51.2544 -3.85477 -1.70251 0
M  V30 558 H 49.9784 -2.63343 -1.93179 0
M  V30 559 H 48.6374 -3.66541 -0.0656164 0
M  V30 560 H 48.2854 -4.4048 -2.42871 0
M  V30 561 H 47.9854 -5.7345 -1.28174 0
M  V30 562 H 49.5094 -5.6908 -2.21314 0
M  V30 563 H 50.9234 -5.73271 0.0579047 0
M  V30 564 H 49.3204 -5.94469 0.820165 0
M  V30 565 H 50.3904 -4.64777 1.3824 0
M  V30 566 N 51.7335 -0.305618 -1.54608 0
M  V30 567 C 53.1495 0.0476228 -1.59529 0
M  V30 568 C 53.3495 1.52025 -1.32252 0
M  V30 569 O 52.4055 2.27368 -1.09818 0
M  V30 570 C 53.7185 -0.354471 -2.98603 0
M  V30 571 C 55.2665 -0.303622 -3.11524 0
M  V30 572 C 55.7415 -0.680608 -4.52915 0
M  V30 573 N 57.2325 -0.63332 -4.5885 0
M  V30 574 C 57.9675 -0.897432 -5.66334 0
M  V30 575 N 57.4635 -1.22775 -6.81834 0
M  V30 576 N 59.2565 -0.824186 -5.56025 0
M  V30 577 H 51.4075 -1.2653 -1.70599 0
M  V30 578 H 53.6705 -0.513291 -0.797017 0
M  V30 579 H 53.3765 -1.3798 -3.23503 0
M  V30 580 H 53.2505 0.289568 -3.76087 0
M  V30 581 H 55.6375 0.712472 -2.8637 0
M  V30 582 H 55.7185 -0.982348 -2.36185 0
M  V30 583 H 55.3625 -1.69453 -4.78799 0
M  V30 584 H 55.2925 0.0202385 -5.26596 0
M  V30 585 H 57.7835 -0.389138 -3.75891 0
M  V30 586 H 58.0965 -1.41513 -7.59733 0
M  V30 587 H 56.4415 -1.26583 -6.83375 0
M  V30 588 H 59.6325 -0.565748 -4.64669 0
M  V30 589 H 59.8055 -1.03338 -6.39707 0
M  V30 590 N 53.2116 1.57565 -0.0334293 0
M  V30 591 C 54.4396 1.9628 0.654347 0
M  V30 592 C 54.8546 0.910138 1.65414 0
M  V30 593 O 54.2116 -0.107595 1.82183 0
M  V30 594 C 54.2626 3.35067 1.35693 0
M  V30 595 O 53.9836 4.36296 0.397191 0
M  V30 596 C 55.4846 3.88439 2.13613 0
M  V30 597 H 52.7046 0.646369 0.180132 0
M  V30 598 H 55.2486 2.04282 -0.0944721 0
M  V30 599 H 53.4036 3.2827 2.05712 0
M  V30 600 H 53.8176 5.1678 0.896597 0
M  V30 601 H 55.2916 4.8788 2.58219 0
M  V30 602 H 55.7686 3.22914 2.97696 0
M  V30 603 H 56.3746 3.98516 1.48543 0
M  V30 604 N 54.6897 -0.239769 1.55765 0
M  V30 605 C 55.9147 -0.988373 1.82335 0
M  V30 606 C 56.3397 -1.77886 0.611421 0
M  V30 607 O 55.6977 -1.75889 -0.439639 0
M  V30 608 C 55.7457 -1.89627 3.06715 0
M  V30 609 O 54.8497 -2.98904 2.84131 0
M  V30 610 H 54.1907 -0.280858 0.601677 0
M  V30 611 H 56.7207 -0.258597 2.02959 0
M  V30 612 H 56.7307 -2.30957 3.36338 0
M  V30 613 H 55.4057 -1.31511 3.9456 0
M  V30 614 H 53.9827 -2.61651 2.65694 0
M  V30 615 N 56.1678 -1.49265 -0.50573 0
M  V30 616 C 57.3958 -1.62215 -1.28429 0
M  V30 617 C 57.8108 -0.291697 -1.86533 0
M  V30 618 O 57.1678 0.722233 -1.67601 0
M  V30 619 C 57.2188 -2.68735 -2.41793 0
M  V30 620 O 56.9398 -3.96619 -1.86078 0
M  V30 621 C 58.4408 -2.92346 -3.3324 0
M  V30 622 H 55.6608 -0.546239 -0.389697 0
M  V30 623 H 58.2048 -1.95265 -0.607609 0
M  V30 624 H 56.3598 -2.38476 -3.053 0
M  V30 625 H 56.7738 -4.55256 -2.60465 0
M  V30 626 H 58.2478 -3.70623 -4.09075 0
M  V30 627 H 58.7248 -2.02081 -3.89948 0
M  V30 628 H 59.3308 -3.24003 -2.75503 0
M  V30 629 N 57.6459 0.756429 -1.3826 0
M  V30 630 C 58.8919 1.5168 -1.35517 0
M  V30 631 C 59.2469 1.9232 0.0554451 0
M  V30 632 O 58.5399 1.62352 1.01746 0
M  V30 633 C 58.7339 2.78313 -2.24224 0
M  V30 634 C 58.5629 2.50053 -3.7377 0
M  V30 635 C 57.3329 2.43414 -4.42807 0
M  V30 636 C 59.5309 2.1702 -4.66269 0
M  V30 637 N 57.5129 2.07398 -5.77805 0
M  V30 638 C 58.8839 1.91271 -5.89759 0
M  V30 639 C 60.9389 2.03305 -4.54501 0
M  V30 640 C 59.6419 1.53192 -7.02798 0
M  V30 641 C 61.6679 1.66627 -5.67441 0
M  V30 642 C 61.0299 1.4175 -6.8999 0
M  V30 643 H 57.1289 0.554735 -0.551174 0
M  V30 644 H 59.7129 0.881106 -1.73622 0
M  V30 645 H 57.8839 3.39696 -1.88311 0
M  V30 646 H 59.6159 3.44343 -2.12627 0
M  V30 647 H 56.3709 2.59789 -3.95988 0
M  V30 648 H 56.7949 1.92044 -6.4919 0
M  V30 649 H 61.4369 2.21215 -3.60311 0
M  V30 650 H 59.1549 1.34022 -7.96909 0
M  V30 651 H 62.7409 1.56652 -5.60314 0
M  V30 652 H 61.6209 1.1379 -7.759 0
M  V30 653 N 59.124 1.23083 0.984299 0
M  V30 654 C 60.54 0.992637 1.24975 0
M  V30 655 C 60.74 -0.308618 1.99123 0
M  V30 656 O 59.796 -1.02905 2.30579 0
M  V30 657 C 61.109 2.19698 2.05312 0
M  V30 658 C 62.657 2.24147 2.18465 0
M  V30 659 C 63.132 3.44157 3.02192 0
M  V30 660 N 64.623 3.44372 3.09777 0
M  V30 661 C 65.358 4.33886 3.74874 0
M  V30 662 N 64.854 5.3363 4.41827 0
M  V30 663 N 66.647 4.21639 3.71721 0
M  V30 664 H 58.798 2.06731 0.487453 0
M  V30 665 H 61.061 0.906339 0.277944 0
M  V30 666 H 60.767 3.1411 1.58201 0
M  V30 667 H 60.641 2.20465 3.06064 0
M  V30 668 H 63.028 1.30277 2.64786 0
M  V30 669 H 63.109 2.27415 1.17115 0
M  V30 670 H 62.753 4.38332 2.56568 0
M  V30 671 H 62.683 3.3813 4.03702 0
M  V30 672 H 65.174 2.72201 2.62135 0
M  V30 673 H 65.487 5.98196 4.89266 0
M  V30 674 H 63.832 5.37534 4.40548 0
M  V30 675 H 67.023 3.42962 3.18582 0
M  V30 676 H 67.196 4.91604 4.22173 0
M  V30 677 N 60.6021 -1.18246 1.0419 0
M  V30 678 C 61.5321 -2.24127 0.654914 0
M  V30 679 C 62.5131 -1.66617 -0.342451 0
M  V30 680 O 63.6981 -1.92924 -0.222277 0
M  V30 681 C 60.8281 -3.47295 0.0183757 0
M  V30 682 C 59.7821 -4.17563 0.939414 0
M  V30 683 C 59.1081 -5.34438 0.167286 0
M  V30 684 C 60.4081 -4.70917 2.25908 0
M  V30 685 H 62.1021 -2.56753 1.54007 0
M  V30 686 H 59.6481 -1.23414 0.74195 0
M  V30 687 H 61.6011 -4.20572 -0.264082 0
M  V30 688 H 60.3251 -3.13907 -0.901664 0
M  V30 689 H 58.9841 -3.46186 1.20628 0
M  V30 690 H 58.6321 -4.97298 -0.7552 0
M  V30 691 H 58.3321 -5.82388 0.780901 0
M  V30 692 H 59.8561 -6.10504 -0.108125 0
M  V30 693 H 61.2701 -5.35882 2.03724 0
M  V30 694 H 59.6671 -5.29406 2.82577 0
M  V30 695 H 60.7371 -3.88272 2.9047 0
M  V30 696 N 62.0802 -0.821533 -1.34494 0
M  V30 697 C 63.0432 -0.247847 -2.27856 0
M  V30 698 C 64.0432 0.573453 -1.50227 0
M  V30 699 O 65.2332 0.389759 -1.69784 0
M  V30 700 C 62.3652 0.652698 -3.34593 0
M  V30 701 H 63.5582 -1.07146 -2.80107 0
M  V30 702 H 61.1112 -0.593291 -1.44602 0
M  V30 703 H 61.8462 1.49943 -2.87555 0
M  V30 704 H 61.6312 0.065292 -3.92046 0
M  V30 705 H 63.1212 1.04793 -4.04238 0
M  V30 706 N 63.5583 1.46682 -0.576371 0
M  V30 707 C 64.4903 2.28341 0.198231 0
M  V30 708 C 65.5033 1.38141 0.861453 0
M  V30 709 O 66.6923 1.62797 0.732082 0
M  V30 710 C 63.7923 3.12986 1.29972 0
M  V30 711 C 62.9653 4.31271 0.729639 0
M  V30 712 C 62.0243 4.97363 1.71803 0
M  V30 713 O 61.0503 5.55156 1.25658 0
M  V30 714 N 62.2523 4.93796 3.05198 0
M  V30 715 H 65.0173 2.9546 -0.502324 0
M  V30 716 H 62.5783 1.56525 -0.413715 0
M  V30 717 H 64.5703 3.54066 1.96008 0
M  V30 718 H 63.1403 2.47984 1.90323 0
M  V30 719 H 62.3603 3.94052 -0.108012 0
M  V30 720 H 63.6483 5.07739 0.328438 0
M  V30 721 H 63.0463 4.48077 3.45317 0
M  V30 722 H 61.6033 5.38837 3.6674 0
M  V30 723 N 65.0364 0.313813 1.54444 0
M  V30 724 C 66.3134 -0.345447 1.92525 0
M  V30 725 C 66.6934 -1.70667 1.24242 0
M  V30 726 O 66.0414 -2.25273 0.382654 0
M  V30 727 C 66.2514 -0.44737 3.46121 0
M  V30 728 C 67.5994 -0.712238 4.18584 0
M  V30 729 O 68.6234 -0.530678 3.52225 0
M  V30 730 O 67.4824 -1.06183 5.36085 0
M  V30 731 H 64.5764 -0.195407 0.803583 0
M  V30 732 H 67.1224 0.362813 1.65776 0
M  V30 733 H 65.8944 0.509043 3.87975 0
M  V30 734 H 65.5174 -1.20359 3.78945 0
M  V30 735 N 66.5145 -1.57545 0.0417849 0
M  V30 736 C 67.4465 -2.07904 -0.964799 0
M  V30 737 C 68.4595 -1.00497 -1.28079 0
M  V30 738 O 69.6485 -1.28087 -1.24322 0
M  V30 739 C 66.7485 -2.49928 -2.28887 0
M  V30 740 C 65.9215 -3.80562 -2.15619 0
M  V30 741 C 64.9805 -4.08999 -3.31069 0
M  V30 742 O 64.0065 -4.79061 -3.0739 0
M  V30 743 N 65.2085 -3.6017 -4.55256 0
M  V30 744 H 67.9735 -2.94886 -0.535029 0
M  V30 745 H 65.5345 -1.61252 -0.144681 0
M  V30 746 H 67.5265 -2.66034 -3.04972 0
M  V30 747 H 66.0965 -1.68245 -2.63463 0
M  V30 748 H 65.3165 -3.74129 -1.24183 0
M  V30 749 H 66.6045 -4.66126 -2.03971 0
M  V30 750 H 66.0025 -3.03512 -4.77386 0
M  V30 751 H 64.5595 -3.81532 -5.28466 0
M  V30 752 N 67.9926 0.231505 -1.5589 0
M  V30 753 C 69.2206 0.974505 -1.82513 0
M  V30 754 C 69.6356 1.78344 -0.619591 0
M  V30 755 O 68.9926 1.77792 0.411848 0
M  V30 756 C 69.0436 1.90007 -3.07538 0
M  V30 757 O 68.7646 1.12385 -4.2344 0
M  V30 758 C 70.2656 2.75779 -3.47075 0
M  V30 759 H 67.4856 0.286065 -0.606966 0
M  V30 760 H 70.0296 0.249739 -2.02969 0
M  V30 761 H 68.1846 2.57891 -2.89086 0
M  V30 762 H 68.5986 1.75125 -4.944 0
M  V30 763 H 70.0726 3.36443 -4.37619 0
M  V30 764 H 70.5496 3.47672 -2.68367 0
M  V30 765 H 71.1556 2.13323 -3.67931 0
M  V30 766 N 69.4707 1.49531 0.497807 0
M  V30 767 C 70.4027 1.62559 1.61578 0
M  V30 768 C 71.4157 0.508134 1.54667 0
M  V30 769 O 72.6047 0.780309 1.60541 0
M  V30 770 C 69.7047 1.56925 3.00379 0
M  V30 771 C 68.8777 2.84257 3.3244 0
M  V30 772 C 67.9367 2.71632 4.50669 0
M  V30 773 O 66.9627 3.4557 4.52294 0
M  V30 774 N 68.1647 1.83391 5.5077 0
M  V30 775 H 70.9297 2.58981 1.50828 0
M  V30 776 H 68.4907 1.4666 0.685743 0
M  V30 777 H 70.4827 1.46129 3.77397 0
M  V30 778 H 69.0527 0.683483 3.05037 0
M  V30 779 H 68.2727 3.09381 2.44289 0
M  V30 780 H 69.5607 3.68666 3.5066 0
M  V30 781 H 68.9587 1.22583 5.52259 0
M  V30 782 H 67.5157 1.78515 6.26878 0
M  V30 783 N 70.9488 -0.749086 1.3866 0
M  V30 784 C 72.2258 -1.4992 1.25632 0
M  V30 785 C 72.6058 -2.10633 -0.140317 0
M  V30 786 O 71.9538 -1.97437 -1.15025 0
M  V30 787 C 72.1638 -2.56195 2.36992 0
M  V30 788 C 73.5118 -3.22972 2.75634 0
M  V30 789 O 74.5358 -2.66502 2.36337 0
M  V30 790 O 73.3948 -4.25122 3.43415 0
M  V30 791 H 70.4888 -0.665067 0.491544 0
M  V30 792 H 73.0348 -0.784113 1.50498 0
M  V30 793 H 71.8068 -2.09612 3.30422 0
M  V30 794 H 71.4298 -3.35279 2.13714 0
M  V30 795 N 72.4269 -1.23603 -0.977757 0
M  V30 796 C 73.6549 -1.09646 -1.75458 0
M  V30 797 C 74.0699 0.351859 -1.85492 0
M  V30 798 O 73.4269 1.24327 -1.336 0
M  V30 799 C 73.4779 -1.71895 -3.18016 0
M  V30 800 O 73.1989 -3.11063 -3.08498 0
M  V30 801 C 74.6999 -1.63415 -4.12081 0
M  V30 802 H 71.9199 -0.38359 -0.550545 0
M  V30 803 H 74.4639 -1.63507 -1.22824 0
M  V30 804 H 72.6189 -1.22061 -3.67668 0
M  V30 805 H 73.0329 -3.41305 -3.9826 0
M  V30 806 H 74.5069 -2.11669 -5.09804 0
M  V30 807 H 74.9839 -0.593462 -4.35172 0
M  V30 808 H 75.5899 -2.12628 -3.68334 0
M  V30 809 N 73.905 1.17692 -1.04816 0
M  V30 810 C 74.837 2.21103 -0.603822 0
M  V30 811 C 75.85 1.59411 0.33046 0
M  V30 812 O 77.039 1.7807 0.12379 0
M  V30 813 C 74.139 3.38623 0.136898 0
M  V30 814 C 73.312 4.29888 -0.807137 0
M  V30 815 C 72.371 5.26088 -0.10836 0
M  V30 816 O 71.397 5.64353 -0.741232 0
M  V30 817 N 72.599 5.68882 1.15558 0
M  V30 818 H 75.364 2.59848 -1.49329 0
M  V30 819 H 72.925 1.32553 -0.929587 0
M  V30 820 H 74.917 4.00009 0.614401 0
M  V30 821 H 73.487 2.98508 0.927993 0
M  V30 822 H 72.707 3.65993 -1.46434 0
M  V30 823 H 73.995 4.87759 -1.44807 0
M  V30 824 H 73.393 5.39861 1.69015 0
M  V30 825 H 71.95 6.32429 1.57722 0
M  V30 826 N 75.3831 0.828654 1.34056 0
M  V30 827 C 76.3131 0.269443 2.3194 0
M  V30 828 C 77.2941 -0.617247 1.58506 0
M  V30 829 O 78.4791 -0.542931 1.86456 0
M  V30 830 C 75.6091 -0.564793 3.42677 0
M  V30 831 C 74.5631 0.225241 4.27407 0
M  V30 832 C 73.8891 -0.7321 5.29664 0
M  V30 833 C 75.1891 1.43663 5.02154 0
M  V30 834 H 76.8831 1.08728 2.7896 0
M  V30 835 H 74.4291 0.524283 1.34117 0
M  V30 836 H 76.3821 -0.966233 4.10173 0
M  V30 837 H 75.1061 -1.41574 2.9432 0
M  V30 838 H 73.7651 0.608117 3.61521 0
M  V30 839 H 73.4131 -1.57916 4.77568 0
M  V30 840 H 73.1131 -0.20767 5.87233 0
M  V30 841 H 74.6371 -1.13128 6.00029 0
M  V30 842 H 76.0511 1.1089 5.62473 0
M  V30 843 H 74.4481 1.89711 5.69324 0
M  V30 844 H 75.5181 2.21181 4.31517 0
M  V30 845 N 76.8612 -1.46375 0.584142 0
M  V30 846 C 78.1102 -2.01585 0.0679741 0
M  V30 847 C 78.4232 -1.46109 -1.30045 0
M  V30 848 O 79.6292 -1.93148 -1.90804 0
M  V30 849 C 78.0852 -3.5983 0.0709207 0
M  V30 850 C 77.6932 -4.24303 1.43775 0
M  V30 851 C 79.4372 -4.22693 -0.391228 0
M  V30 852 C 77.3442 -5.74631 1.39834 0
M  V30 853 H 76.2742 -0.753689 0.0216421 0
M  V30 854 H 78.9252 -1.68093 0.736001 0
M  V30 855 H 77.3072 -3.90405 -0.663299 0
M  V30 856 H 78.4812 -4.05335 2.19181 0
M  V30 857 H 76.7962 -3.73539 1.84004 0
M  V30 858 H 79.3932 -5.3289 -0.439524 0
M  V30 859 H 79.7362 -3.91728 -1.40906 0
M  V30 860 H 80.2692 -3.96749 0.288974 0
M  V30 861 H 77.0082 -6.10258 2.39303 0
M  V30 862 H 76.5282 -5.95858 0.686505 0
M  V30 863 H 78.2072 -6.37375 1.11187 0
M  V30 864 N 78.3393 -0.321999 -1.54275 0
M  V30 865 C 79.5673 0.283052 -2.04955 0
M  V30 866 C 79.9823 1.45904 -1.19823 0
M  V30 867 O 79.3393 1.81063 -0.228545 0
M  V30 868 C 79.3903 0.719028 -3.54277 0
M  V30 869 O 79.1113 -0.410175 -4.36176 0
M  V30 870 C 80.6123 1.38705 -4.21041 0
M  V30 871 H 77.8323 0.0584616 -0.668448 0
M  V30 872 H 80.3763 -0.467734 -1.99079 0
M  V30 873 H 78.5313 1.41979 -3.60445 0
M  V30 874 H 78.9453 -0.0669416 -5.24457 0
M  V30 875 H 80.4193 1.64306 -5.2698 0
M  V30 876 H 80.8963 2.33385 -3.72059 0
M  V30 877 H 81.5023 0.728906 -4.19007 0
M  V30 878 N 79.8174 1.5752 -0.0501392 0
M  V30 879 C 81.0634 1.92936 0.624798 0
M  V30 880 C 81.3964 0.928685 1.70555 0
M  V30 881 O 80.6714 -0.0454779 1.94447 0
M  V30 882 C 80.9544 3.38737 1.22185 0
M  V30 883 C 80.8074 4.49552 0.149218 0
M  V30 884 C 82.1264 3.84913 2.13378 0
M  V30 885 H 79.2454 0.701604 0.225657 0
M  V30 886 H 81.8874 1.89671 -0.111693 0
M  V30 887 H 80.0374 3.4165 1.84953 0
M  V30 888 H 81.7094 4.58768 -0.482648 0
M  V30 889 H 79.9524 4.30638 -0.522841 0
M  V30 890 H 80.6234 5.48653 0.606966 0
M  V30 891 H 83.0994 3.8387 1.60572 0
M  V30 892 H 81.9754 4.87584 2.52097 0
M  V30 893 H 82.2364 3.21611 3.03346 0
M  V30 894 N 81.2955 -0.223234 1.56011 0
M  V30 895 C 82.5725 -0.972108 1.69733 0
M  V30 896 C 82.9525 -2.02485 0.59691 0
M  V30 897 O 82.3005 -2.25037 -0.396324 0
M  V30 898 C 82.5105 -1.58407 3.10979 0
M  V30 899 C 83.8585 -2.07696 3.70334 0
M  V30 900 O 84.8825 -1.68304 3.1393 0
M  V30 901 O 83.7415 -2.80096 4.69264 0
M  V30 902 H 80.8355 -0.453993 0.691245 0
M  V30 903 H 83.3815 -0.215149 1.68331 0
M  V30 904 H 82.1535 -0.823831 3.82529 0
M  V30 905 H 81.7765 -2.40661 3.16493 0
M  V30 906 N 82.7736 -1.49793 -0.48987 0
M  V30 907 C 83.6836 -1.70036 -1.61632 0
M  V30 908 C 84.6996 -0.583102 -1.63939 0
M  V30 909 O 85.8756 -0.859169 -1.82154 0
M  V30 910 C 82.9406 -1.77277 -2.97949 0
M  V30 911 C 82.0016 -3.00918 -3.06181 0
M  V30 912 C 81.2346 -3.07804 -4.35996 0
M  V30 913 O 81.4576 -2.21982 -5.25433 0
M  V30 914 O 80.3916 -4.00369 -4.49431 0
M  V30 915 H 84.2176 -2.65486 -1.47482 0
M  V30 916 H 81.8026 -1.33666 -0.667362 0
M  V30 917 H 83.6846 -1.84329 -3.78947 0
M  V30 918 H 82.3596 -0.850076 -3.12339 0
M  V30 919 H 81.2666 -2.99377 -2.2433 0
M  V30 920 H 82.5996 -3.92704 -2.96723 0
M  V30 921 N 84.2517 0.741722 -1.39055 0
M  V30 922 C 85.1987 1.85566 -1.37237 0
M  V30 923 C 86.1687 1.64457 -0.233072 0
M  V30 924 O 87.3537 1.85957 -0.427147 0
M  V30 925 C 84.4937 3.23004 -1.215 0
M  V30 926 C 83.6067 3.55864 -2.44918 0
M  V30 927 C 82.7417 4.82669 -2.21821 0
M  V30 928 C 81.7807 5.08351 -3.40948 0
M  V30 929 N 80.9177 6.26356 -3.17211 0
M  V30 930 H 85.7577 1.86455 -2.32462 0
M  V30 931 H 83.2947 0.911176 -1.15482 0
M  V30 932 H 85.2527 4.02331 -1.10389 0
M  V30 933 H 83.8827 3.21411 -0.29908 0
M  V30 934 H 82.9347 2.7129 -2.66657 0
M  V30 935 H 84.2467 3.70765 -3.33668 0
M  V30 936 H 83.4007 5.69962 -2.07914 0
M  V30 937 H 82.1397 4.69929 -1.30454 0
M  V30 938 H 81.1447 4.19522 -3.55361 0
M  V30 939 H 82.3697 5.22981 -4.33207 0
M  V30 940 H 80.3157 6.14917 -2.28502 0
M  V30 941 H 80.2327 6.41813 -3.99515 0
M  V30 942 H 81.5007 7.16506 -3.06984 0
M  V30 943 N 85.7298 1.2412 0.971189 0
M  V30 944 C 86.6598 1.05508 2.08304 0
M  V30 945 C 87.6408 -0.0308864 1.70072 0
M  V30 946 O 88.8258 0.135521 1.93727 0
M  V30 947 C 85.9558 0.655365 3.4106 0
M  V30 948 C 84.9098 1.68971 3.93234 0
M  V30 949 C 84.2358 1.14516 5.22293 0
M  V30 950 C 85.5358 3.08487 4.21465 0
M  V30 951 H 87.2298 1.98507 2.24132 0
M  V30 952 H 84.7758 0.955821 1.07704 0
M  V30 953 H 86.7288 0.51217 4.18276 0
M  V30 954 H 85.4528 -0.31032 3.25122 0
M  V30 955 H 84.1118 1.82106 3.18171 0
M  V30 956 H 83.7598 0.170189 5.02712 0
M  V30 957 H 83.4598 1.83635 5.58168 0
M  V30 958 H 84.9838 1.01401 6.02121 0
M  V30 959 H 86.3978 2.98601 4.89398 0
M  V30 960 H 84.7948 3.74926 4.68562 0
M  V30 961 H 85.8648 3.56787 3.28376 0
M  V30 962 N 87.2079 -1.17134 1.05439 0
M  V30 963 C 88.4849 -1.83411 0.679699 0
M  V30 964 C 88.8649 -1.9368 -0.839726 0
M  V30 965 O 88.2129 -1.47325 -1.74664 0
M  V30 966 C 88.4229 -3.20918 1.37159 0
M  V30 967 C 89.7709 -3.96796 1.51123 0
M  V30 968 O 90.7949 -3.30406 1.3308 0
M  V30 969 O 89.6539 -5.15778 1.80651 0
M  V30 970 H 86.7479 -0.79154 0.239569 0
M  V30 971 H 89.2939 -1.24411 1.15413 0
M  V30 972 H 88.0659 -3.08428 2.40807 0
M  V30 973 H 87.6889 -3.87587 0.886674 0
M  V30 974 N 88.686 -0.835752 -1.33615 0
M  V30 975 C 89.935 -0.426289 -1.97144 0
M  V30 976 C 90.248 1.01912 -1.66953 0
M  V30 977 O 91.454 1.53311 -2.24072 0
M  V30 978 C 89.91 -0.711321 -3.52801 0
M  V30 979 C 89.518 -2.1712 -3.91871 0
M  V30 980 C 91.262 -0.368654 -4.22896 0
M  V30 981 C 89.169 -2.40044 -5.40493 0
M  V30 982 H 88.099 -0.15567 -0.737755 0
M  V30 983 H 90.75 -1.0239 -1.52278 0
M  V30 984 H 89.132 -0.0433766 -3.95976 0
M  V30 985 H 90.306 -2.87936 -3.59763 0
M  V30 986 H 88.621 -2.47654 -3.34749 0
M  V30 987 H 91.218 -0.517601 -5.32189 0
M  V30 988 H 91.561 0.688078 -4.10574 0
M  V30 989 H 92.094 -0.991702 -3.8524 0
M  V30 990 H 88.833 -3.44271 -5.57815 0
M  V30 991 H 88.353 -1.73785 -5.74072 0
M  V30 992 H 90.032 -2.23042 -6.0734 0
M  V30 993 N 90.1641 1.46063 -0.591896 0
M  V30 994 C 91.3921 2.06717 -0.0868936 0
M  V30 995 C 91.8071 1.43916 1.22203 0
M  V30 996 O 91.1641 0.547698 1.74088 0
M  V30 997 C 91.2151 3.6142 0.0758725 0
M  V30 998 O 90.9361 4.21874 -1.18126 0
M  V30 999 C 92.4371 4.39025 0.61416 0
M  V30 1000 H 89.6571 0.668162 -0.0616518 0
M  V30 1001 H 92.2011 1.8755 -0.815175 0
M  V30 1002 H 90.3561 3.79983 0.754413 0
M  V30 1003 H 90.7701 5.14861 -1.00092 0
M  V30 1004 H 92.2441 5.4783 0.677193 0
M  V30 1005 H 92.7211 4.07708 1.63312 0
M  V30 1006 H 93.3271 4.2529 -0.0298142 0
M  V30 1007 N 91.6422 0.330177 1.54103 0
M  V30 1008 C 92.8702 -0.272179 2.05102 0
M  V30 1009 C 93.2852 -1.45267 1.20595 0
M  V30 1010 O 92.6422 -1.8094 0.238144 0
M  V30 1011 C 92.6932 -0.70023 3.54653 0
M  V30 1012 O 92.4142 0.433301 4.35952 0
M  V30 1013 C 93.9152 -1.3647 4.21771 0
M  V30 1014 H 91.1352 -0.0549159 0.668749 0
M  V30 1015 H 93.6792 0.478285 1.98828 0
M  V30 1016 H 91.8342 -1.40066 3.61193 0
M  V30 1017 H 92.2482 0.0947539 5.24414 0
M  V30 1018 H 93.7222 -1.61509 5.27843 0
M  V30 1019 H 94.1992 -2.31409 3.73292 0
M  V30 1020 H 94.8052 -0.706675 4.19388 0
M  V30 1021 N 93.1203 -1.57491 0.0584922 0
M  V30 1022 C 94.0503 -2.14988 -0.911178 0
M  V30 1023 C 95.0313 -1.07343 -1.31952 0
M  V30 1024 O 96.2163 -1.35318 -1.39294 0
M  V30 1025 C 93.3463 -2.70078 -2.18347 0
M  V30 1026 C 92.3003 -3.82771 -1.91495 0
M  V30 1027 C 91.6263 -4.24408 -3.25241 0
M  V30 1028 C 92.9263 -5.07592 -1.23075 0
M  V30 1029 H 94.6203 -2.96263 -0.432246 0
M  V30 1030 H 92.1663 -1.42512 -0.206469 0
M  V30 1031 H 94.1193 -3.08943 -2.86587 0
M  V30 1032 H 92.8433 -1.86005 -2.68458 0
M  V30 1033 H 91.5023 -3.44389 -1.25664 0
M  V30 1034 H 91.1503 -3.37275 -3.73168 0
M  V30 1035 H 90.8503 -5.00366 -3.08071 0
M  V30 1036 H 92.3743 -4.65879 -3.94701 0
M  V30 1037 H 93.7883 -5.43857 -1.81362 0
M  V30 1038 H 92.1853 -5.88741 -1.16207 0
M  V30 1039 H 93.2553 -4.84454 -0.207847 0
M  V30 1040 N 94.5984 0.214957 -1.56127 0
M  V30 1041 C 95.8264 0.955092 -1.83536 0
M  V30 1042 C 96.2414 1.77677 -0.638472 0
M  V30 1043 O 95.5984 1.78219 0.392968 0
M  V30 1044 C 95.6494 1.86734 -3.09536 0
M  V30 1045 O 95.3704 1.07887 -4.24608 0
M  V30 1046 C 96.8714 2.72082 -3.4998 0
M  V30 1047 H 94.0914 0.279611 -0.609966 0
M  V30 1048 H 96.6354 0.228197 -2.03223 0
M  V30 1049 H 94.7904 2.5481 -2.91806 0
M  V30 1050 H 95.2044 1.69872 -4.9623 0
M  V30 1051 H 96.6784 3.31782 -4.41163 0
M  V30 1052 H 97.1554 3.44806 -2.7204 0
M  V30 1053 H 97.7614 2.09409 -3.70173 0
M  V30 1054 N 96.0765 1.50051 0.48192 0
M  V30 1055 C 97.3245 1.60181 1.23234 0
M  V30 1056 C 97.6455 0.299176 1.92691 0
M  V30 1057 O 96.9155 -0.682708 1.83619 0
M  V30 1058 H 95.4955 0.590232 0.457859 0
M  V30 1059 H 98.1575 1.86775 0.556881 0
M  V30 1060 H 97.2535 2.40753 1.98607 0
M  V30 1061 N 97.5546 -0.734337 1.39446 0
M  V30 1062 C 98.8006 -1.49613 1.36908 0
M  V30 1063 C 99.1336 -1.94169 -0.0347829 0
M  V30 1064 O 98.4086 -1.66833 -0.999847 0
M  V30 1065 C 98.6916 -2.73534 2.34203 0
M  V30 1066 C 98.5446 -2.34993 3.83534 0
M  V30 1067 C 99.8636 -3.75635 2.29317 0
M  V30 1068 H 96.9826 -0.542714 0.498629 0
M  V30 1069 H 99.6246 -0.839597 1.70443 0
M  V30 1070 H 97.7746 -3.29553 2.05736 0
M  V30 1071 H 99.4466 -1.84601 4.22753 0
M  V30 1072 H 97.6896 -1.67213 4.00278 0
M  V30 1073 H 98.3606 -3.23738 4.47099 0
M  V30 1074 H 100.837 -3.29203 2.54489 0
M  V30 1075 H 99.7126 -4.60008 2.99472 0
M  V30 1076 H 99.9736 -4.22603 1.29842 0
M  V30 1077 N 99.0327 -1.24633 -0.964593 0
M  V30 1078 C 100.444 -1.08045 -1.5226 0
M  V30 1079 C 100.795 0.347116 -1.93105 0
M  V30 1080 O 99.9197 1.23588 -1.77637 0
M  V30 1081 C 100.515 -1.95514 -2.76695 0
M  V30 1082 C 99.0737 -1.8314 -3.28841 0
M  V30 1083 C 98.2207 -1.90262 -2.01732 0
M  V30 1084 H 101.172 -1.38064 -0.782553 0
M  V30 1085 H 101.193 -1.48925 -3.50145 0
M  V30 1086 H 100.705 -2.99407 -2.46936 0
M  V30 1087 H 98.8057 -0.82092 -3.63444 0
M  V30 1088 H 98.9187 -2.67406 -3.97531 0
M  V30 1089 H 97.2827 -1.34027 -2.16584 0
M  V30 1090 H 98.0657 -2.9574 -1.74334 0
M  V30 1091 N 100.511 1.16574 -1.06058 0
M  V30 1092 C 101.421 2.2452 -0.680282 0
M  V30 1093 C 102.437 1.71348 0.302604 0
M  V30 1094 O 103.613 2.00822 0.152513 0
M  V30 1095 C 100.678 3.46629 -0.0700315 0
M  V30 1096 C 99.7388 4.14849 -1.10448 0
M  V30 1097 C 98.9718 5.31129 -0.523256 0
M  V30 1098 O 99.1948 5.66514 0.664709 0
M  V30 1099 O 98.1288 5.88526 -1.26179 0
M  V30 1100 H 101.955 2.59355 -1.58015 0
M  V30 1101 H 99.5398 1.24043 -0.832694 0
M  V30 1102 H 101.422 4.20543 0.268667 0
M  V30 1103 H 100.097 3.13573 0.803353 0
M  V30 1104 H 99.0038 3.42916 -1.49532 0
M  V30 1105 H 100.337 4.51954 -1.94931 0
M  V30 1106 N 101.989 0.842826 1.3317 0
M  V30 1107 C 102.899 0.281444 2.32906 0
M  V30 1108 C 103.915 -0.594587 1.63526 0
M  V30 1109 O 105.091 -0.49777 1.95152 0
M  V30 1110 C 102.156 -0.530929 3.42611 0
M  V30 1111 C 101.217 0.369843 4.27704 0
M  V30 1112 C 100.45 -0.403853 5.3217 0
M  V30 1113 O 100.673 -1.63513 5.46461 0
M  V30 1114 O 99.6069 0.224199 6.01482 0
M  V30 1115 H 103.433 1.10744 2.82789 0
M  V30 1116 H 101.018 0.60545 1.36582 0
M  V30 1117 H 102.9 -0.992437 4.09547 0
M  V30 1118 H 101.575 -1.33392 2.94938 0
M  V30 1119 H 100.482 0.879275 3.6362 0
M  V30 1120 H 101.815 1.13771 4.78871 0
M  V30 1121 N 103.467 -1.45747 0.599634 0
M  V30 1122 C 104.417 -2.27538 -0.145107 0
M  V30 1123 C 105.401 -1.3686 -0.846055 0
M  V30 1124 O 106.593 -1.6091 -0.737357 0
M  V30 1125 C 103.722 -3.23569 -1.14708 0
M  V30 1126 C 102.808 -4.21734 -0.447383 0
M  V30 1127 N 103.199 -5.03257 0.506535 0
M  V30 1128 C 101.497 -4.40536 -0.695966 0
M  V30 1129 C 102.198 -5.74426 0.917068 0
M  V30 1130 N 101.174 -5.42966 0.26253 0
M  V30 1131 H 104.976 -2.87965 0.587672 0
M  V30 1132 H 102.49 -1.56803 0.422697 0
M  V30 1133 H 104.487 -3.8089 -1.69495 0
M  V30 1134 H 103.147 -2.64702 -1.8805 0
M  V30 1135 H 104.158 -5.10319 0.882899 0
M  V30 1136 H 100.835 -3.92802 -1.41467 0
M  V30 1137 H 102.225 -6.4995 1.70338 0
M  V30 1138 N 104.945 -0.338344 -1.53925 0
M  V30 1139 C 106.194 0.260732 -2.00008 0
M  V30 1140 C 106.507 1.52073 -1.23017 0
M  V30 1141 O 107.713 2.19672 -1.5955 0
M  V30 1142 C 106.169 0.51515 -3.56194 0
M  V30 1143 C 105.777 -0.728645 -4.42035 0
M  V30 1144 C 107.521 1.07337 -4.10706 0
M  V30 1145 C 105.428 -0.445315 -5.89721 0
M  V30 1146 H 104.358 0.101205 -0.747177 0
M  V30 1147 H 107.009 -0.452866 -1.77824 0
M  V30 1148 H 105.391 1.28932 -3.74423 0
M  V30 1149 H 106.565 -1.50352 -4.35581 0
M  V30 1150 H 104.88 -1.20813 -3.98489 0
M  V30 1151 H 107.477 1.30022 -5.18651 0
M  V30 1152 H 107.82 2.0273 -3.63602 0
M  V30 1153 H 108.353 0.360034 -3.96167 0
M  V30 1154 H 105.092 -1.36883 -6.41049 0
M  V30 1155 H 104.612 0.291569 -5.99091 0
M  V30 1156 H 106.291 -0.0606218 -6.46972 0
M  V30 1157 N 106.423 1.57458 -0.0668435 0
M  V30 1158 C 107.37 2.12439 0.902122 0
M  V30 1159 C 108.34 1.03565 1.2986 0
M  V30 1160 O 109.525 1.312 1.38532 0
M  V30 1161 C 106.665 2.6865 2.16614 0
M  V30 1162 C 105.778 3.91663 1.82274 0
M  V30 1163 C 104.913 4.36134 3.0325 0
M  V30 1164 C 103.952 5.51808 2.64904 0
M  V30 1165 N 103.089 5.9126 3.78624 0
M  V30 1166 H 107.929 2.94934 0.426382 0
M  V30 1167 H 105.466 1.4575 0.198819 0
M  V30 1168 H 107.424 2.99346 2.90599 0
M  V30 1169 H 106.054 1.88928 2.61737 0
M  V30 1170 H 105.106 3.6746 0.983719 0
M  V30 1171 H 106.418 4.75693 1.50059 0
M  V30 1172 H 105.572 4.68465 3.85519 0
M  V30 1173 H 104.311 3.50948 3.38655 0
M  V30 1174 H 103.316 5.19133 1.81055 0
M  V30 1175 H 104.541 6.38722 2.30675 0
M  V30 1176 H 102.487 5.09024 4.138 0
M  V30 1177 H 102.404 6.70018 3.5016 0
M  V30 1178 H 103.672 6.28212 4.61486 0
M  V30 1179 N 107.901 -0.206675 1.56239 0
M  V30 1180 C 109.129 -0.945345 1.8404 0
M  V30 1181 C 109.544 -1.77336 0.647885 0
M  V30 1182 O 108.901 -1.78425 -0.383511 0
M  V30 1183 C 108.952 -1.8509 3.10522 0
M  V30 1184 O 108.673 -1.05634 4.25174 0
M  V30 1185 C 110.174 -2.70222 3.51418 0
M  V30 1186 H 107.394 -0.276372 0.61144 0
M  V30 1187 H 109.938 -0.217417 2.03341 0
M  V30 1188 H 108.093 -2.53259 2.93153 0
M  V30 1189 H 108.507 -1.67238 4.97124 0
M  V30 1190 H 109.981 -3.29438 4.42916 0
M  V30 1191 H 110.458 -3.43358 2.73864 0
M  V30 1192 H 111.064 -2.07443 3.71278 0
M  V30 1193 N 109.379 -1.50304 -0.473955 0
M  V30 1194 C 110.795 -1.37667 -0.807466 0
M  V30 1195 C 110.995 -0.430555 -1.96846 0
M  V30 1196 O 110.051 0.127874 -2.52176 0
M  V30 1197 C 111.364 -2.78974 -1.12223 0
M  V30 1198 C 112.912 -2.87868 -1.22885 0
M  V30 1199 C 113.387 -4.30003 -1.57676 0
M  V30 1200 N 114.878 -4.3294 -1.64673 0
M  V30 1201 C 115.613 -5.3991 -1.93091 0
M  V30 1202 N 115.109 -6.57092 -2.1955 0
M  V30 1203 N 116.902 -5.27351 -1.94569 0
M  V30 1204 H 109.053 -2.10394 0.291212 0
M  V30 1205 H 111.316 -0.945575 0.0677609 0
M  V30 1206 H 111.022 -3.50031 -0.342229 0
M  V30 1207 H 110.896 -3.16038 -2.05913 0
M  V30 1208 H 113.283 -2.17032 -1.99953 0
M  V30 1209 H 113.364 -2.54352 -0.271814 0
M  V30 1210 H 113.008 -5.01375 -0.81149 0
M  V30 1211 H 112.938 -4.61004 -2.54525 0
M  V30 1212 H 115.429 -3.48441 -1.46277 0
M  V30 1213 H 115.742 -7.34425 -2.405 0
M  V30 1214 H 114.087 -6.60272 -2.16948 0
M  V30 1215 H 117.278 -4.34801 -1.73394 0
M  V30 1216 H 117.451 -6.10805 -2.16381 0
M  V30 1217 N 110.857 0.726932 -1.39834 0
M  V30 1218 C 111.804 1.841 -1.39197 0
M  V30 1219 C 112.774 1.642 -0.250502 0
M  V30 1220 O 113.959 1.85494 -0.446846 0
M  V30 1221 C 111.099 3.21697 -1.24919 0
M  V30 1222 C 110.212 3.53247 -2.48678 0
M  V30 1223 C 109.347 4.80289 -2.26928 0
M  V30 1224 C 108.386 5.04707 -3.4632 0
M  V30 1225 N 107.523 6.22956 -3.23836 0
M  V30 1226 H 112.363 1.83979 -2.34427 0
M  V30 1227 H 109.9 0.898876 -1.16442 0
M  V30 1228 H 111.858 4.01137 -1.1465 0
M  V30 1229 H 110.488 3.21076 -0.333153 0
M  V30 1230 H 109.54 2.68447 -2.69519 0
M  V30 1231 H 110.852 3.67205 -3.37582 0
M  V30 1232 H 110.006 5.67725 -2.13947 0
M  V30 1233 H 108.745 4.68519 -1.35431 0
M  V30 1234 H 107.75 4.1573 -3.5979 0
M  V30 1235 H 108.975 5.18357 -4.38729 0
M  V30 1236 H 106.921 6.12459 -2.35011 0
M  V30 1237 H 106.838 6.37539 -4.063 0
M  V30 1238 H 108.106 7.1321 -3.14566 0
M  V30 1239 N 112.336 1.25143 0.95797 0
M  V30 1240 C 113.582 1.09855 1.70469 0
M  V30 1241 C 113.915 -0.360187 1.90831 0
M  V30 1242 O 113.19 -1.26568 1.47685 0
M  V30 1243 C 113.473 1.8497 3.08963 0
M  V30 1244 C 113.326 3.38652 2.96032 0
M  V30 1245 C 114.645 1.63016 4.08795 0
M  V30 1246 H 111.764 0.400465 0.618706 0
M  V30 1247 H 114.406 1.53933 1.11376 0
M  V30 1248 H 112.556 1.47505 3.59409 0
M  V30 1249 H 114.228 3.85772 2.52938 0
M  V30 1250 H 112.471 3.66534 2.32025 0
M  V30 1251 H 113.142 3.8642 3.94187 0
M  V30 1252 H 115.618 1.95625 3.67247 0
M  V30 1253 H 114.494 2.18015 5.03747 0
M  V30 1254 H 114.755 0.570692 4.38401 0
M  V30 1255 N 113.814 -1.1601 1.06675 0
M  V30 1256 C 115.23 -1.38622 0.790948 0
M  V30 1257 C 115.43 -1.92109 -0.607965 0
M  V30 1258 O 114.486 -2.12239 -1.36787 0
M  V30 1259 C 115.799 -2.36347 1.85905 0
M  V30 1260 C 117.347 -2.50023 1.88301 0
M  V30 1261 C 117.822 -3.51033 2.94176 0
M  V30 1262 N 119.313 -3.58563 2.93235 0
M  V30 1263 C 120.048 -4.36521 3.71803 0
M  V30 1264 N 119.544 -5.17869 4.602 0
M  V30 1265 N 121.337 -4.31541 3.60178 0
M  V30 1266 H 113.488 -0.796294 1.96908 0
M  V30 1267 H 115.751 -0.412597 0.853503 0
M  V30 1268 H 115.457 -2.04147 2.86386 0
M  V30 1269 H 115.331 -3.36042 1.71334 0
M  V30 1270 H 117.718 -2.81524 0.884769 0
M  V30 1271 H 117.799 -1.5035 2.06951 0
M  V30 1272 H 117.443 -3.20268 3.94196 0
M  V30 1273 H 117.373 -4.50445 2.72776 0
M  V30 1274 H 119.864 -3.00496 2.29152 0
M  V30 1275 H 120.177 -5.74578 5.16797 0
M  V30 1276 H 118.522 -5.17199 4.64253 0
M  V30 1277 H 121.713 -3.67051 2.90502 0
M  V30 1278 H 121.886 -4.9205 4.21653 0
M  V30 1279 N 115.292 -0.849877 -1.32721 0
M  V30 1280 C 116.541 -0.447175 -1.96681 0
M  V30 1281 C 116.854 1.00135 -1.68025 0
M  V30 1282 O 118.06 1.50926 -2.25685 0
M  V30 1283 C 116.516 -0.7487 -3.52026 0
M  V30 1284 C 116.124 -2.21264 -3.89546 0
M  V30 1285 C 117.868 -0.413487 -4.22481 0
M  V30 1286 C 115.775 -2.45763 -5.37917 0
M  V30 1287 H 114.705 -0.163486 -0.736063 0
M  V30 1288 H 117.356 -1.03999 -1.51183 0
M  V30 1289 H 115.738 -0.0853727 -3.95908 0
M  V30 1290 H 116.912 -2.91736 -3.56689 0
M  V30 1291 H 115.227 -2.5119 -3.32103 0
M  V30 1292 H 117.824 -0.574017 -5.3161 0
M  V30 1293 H 118.167 0.644492 -4.11281 0
M  V30 1294 H 118.7 -1.03251 -3.84167 0
M  V30 1295 H 115.439 -3.50168 -5.54132 0
M  V30 1296 H 114.959 -1.79864 -5.72197 0
M  V30 1297 H 116.638 -2.29471 -6.0494 0
M  V30 1298 N 116.77 1.45427 -0.607355 0
M  V30 1299 C 118.017 2.02241 -0.102455 0
M  V30 1300 C 118.345 1.4758 1.26691 0
M  V30 1301 O 117.6 0.640468 1.84923 0
M  V30 1302 C 117.899 3.57398 -0.0129263 0
M  V30 1303 C 117.565 4.3121 -1.31792 0
M  V30 1304 C 116.227 4.51092 -1.67539 0
M  V30 1305 C 118.579 4.73401 -2.18039 0
M  V30 1306 C 115.907 5.10422 -2.89285 0
M  V30 1307 C 118.259 5.34078 -3.39034 0
M  V30 1308 C 116.923 5.52184 -3.75033 0
M  V30 1309 H 116.193 0.740051 -0.037491 0
M  V30 1310 H 118.84 1.74494 -0.788926 0
M  V30 1311 H 117.145 3.84421 0.756806 0
M  V30 1312 H 118.842 3.99061 0.393881 0
M  V30 1313 H 115.432 4.16047 -1.02968 0
M  V30 1314 H 119.616 4.57774 -1.91721 0
M  V30 1315 H 114.872 5.22629 -3.17283 0
M  V30 1316 H 119.046 5.65724 -4.06115 0
M  V30 1317 H 116.673 5.97925 -4.69457 0
M  V30 1318 N 118.248 0.346503 1.53744 0
M  V30 1319 C 119.494 -0.249473 2.0126 0
M  V30 1320 C 119.827 -1.49965 1.23386 0
M  V30 1321 O 119.102 -1.91811 0.32229 0
M  V30 1322 C 119.385 -0.560643 3.55709 0
M  V30 1323 C 119.238 0.701836 4.44291 0
M  V30 1324 C 120.557 -1.36905 4.18264 0
M  V30 1325 H 117.676 -0.0891987 0.731582 0
M  V30 1326 H 120.318 0.467624 1.84156 0
M  V30 1327 H 118.468 -1.17156 3.70414 0
M  V30 1328 H 120.14 1.33974 4.41417 0
M  V30 1329 H 118.383 1.32612 4.13033 0
M  V30 1330 H 119.054 0.43933 5.50249 0
M  V30 1331 H 121.53 -0.852448 4.07275 0
M  V30 1332 H 120.406 -1.55553 5.26398 0
M  V30 1333 H 120.667 -2.37203 3.73078 0
M  V30 1334 N 119.726 -1.57421 0.075193 0
M  V30 1335 C 121.137 -1.81021 -0.456964 0
M  V30 1336 C 121.488 -0.98936 -1.69429 0
M  V30 1337 O 120.613 -0.212865 -2.15351 0
M  V30 1338 C 121.208 -3.28329 -0.83581 0
M  V30 1339 C 119.767 -3.52764 -1.31281 0
M  V30 1340 C 118.914 -2.75676 -0.299648 0
M  V30 1341 H 121.865 -1.55822 0.300856 0
M  V30 1342 H 121.886 -3.40564 -1.69696 0
M  V30 1343 H 121.398 -3.88046 0.0649238 0
M  V30 1344 H 119.499 -2.98355 -2.23193 0
M  V30 1345 H 119.612 -4.61451 -1.28839 0
M  V30 1346 H 117.976 -2.42538 -0.777641 0
M  V30 1347 H 118.759 -3.38132 0.593417 0
M  V30 1348 N 121.204 0.198386 -1.56346 0
M  V30 1349 C 122.167 1.22952 -1.93431 0
M  V30 1350 C 123.167 1.38611 -0.815092 0
M  V30 1351 O 124.357 1.36479 -1.08255 0
M  V30 1352 C 121.489 2.59946 -2.20546 0
M  V30 1353 H 122.682 0.912626 -2.85677 0
M  V30 1354 H 120.235 0.43977 -1.49986 0
M  V30 1355 H 120.97 2.96696 -1.30927 0
M  V30 1356 H 120.755 2.49953 -3.02102 0
M  V30 1357 H 122.245 3.3431 -2.50253 0
M  V30 1358 N 122.682 1.50554 0.465978 0
M  V30 1359 C 124.098 1.38093 0.800154 0
M  V30 1360 C 124.298 0.440988 1.96615 0
M  V30 1361 O 123.354 -0.114499 2.5224 0
M  V30 1362 C 124.667 2.79565 1.10742 0
M  V30 1363 C 126.215 2.88516 1.21357 0
M  V30 1364 C 126.69 4.30833 1.55393 0
M  V30 1365 N 128.181 4.33807 1.62375 0
M  V30 1366 C 128.916 5.40927 1.90225 0
M  V30 1367 N 128.412 6.58247 2.16062 0
M  V30 1368 N 130.205 5.28376 1.9177 0
M  V30 1369 H 122.356 2.10237 -0.302366 0
M  V30 1370 H 124.619 0.945203 -0.0727746 0
M  V30 1371 H 124.325 3.50208 0.323661 0
M  V30 1372 H 124.199 3.17125 2.04234 0
M  V30 1373 H 126.586 2.1809 1.98799 0
M  V30 1374 H 126.667 2.54492 0.258321 0
M  V30 1375 H 126.311 5.01799 0.784889 0
M  V30 1376 H 126.241 4.62347 2.52076 0
M  V30 1377 H 128.732 3.49212 1.44427 0
M  V30 1378 H 129.045 7.3569 2.36601 0
M  V30 1379 H 127.39 6.61413 2.13444 0
M  V30 1380 H 130.581 4.35715 1.71085 0
M  V30 1381 H 130.754 6.11944 2.13139 0
M  V30 1382 N 124.16 -0.719506 1.40217 0
M  V30 1383 C 125.108 -1.85493 1.40339 0
M  V30 1384 C 126.102 -1.66995 0.284415 0
M  V30 1385 O 127.308 -1.74148 0.455252 0
M  V30 1386 H 123.683 -0.610857 0.438586 0
M  V30 1387 H 125.654 -1.82506 2.36081 0
M  V30 1388 C 124.403 -3.23321 1.27901 0
M  V30 1389 H 123.726 -3.38159 2.1328 0
M  V30 1390 H 125.166 -4.02914 1.32045 0
M  V30 1391 C 123.625 -3.36898 -0.0111355 0
M  V30 1392 O 124.155 -3.89674 -0.975538 0
M  V30 1393 N 122.361 -2.90492 -0.0793393 0
M  V30 1394 H 121.908 -2.47731 0.706183 0
M  V30 1395 H 121.866 -2.99955 -0.942038 0
M  V30 1396 N 125.638 -1.25649 -0.95132 0
M  V30 1397 C 126.586 -1.06118 -2.06982 0
M  V30 1398 C 127.58 0.00889169 -1.69398 0
M  V30 1399 O 128.786 -0.146988 -1.79399 0
M  V30 1400 H 125.161 -0.326248 -0.677544 0
M  V30 1401 H 127.132 -2.00932 -2.2061 0
M  V30 1402 C 125.881 -0.700145 -3.40578 0
M  V30 1403 H 125.204 -1.51537 -3.69968 0
M  V30 1404 H 126.644 -0.603211 -4.19687 0
M  V30 1405 C 125.103 0.59403 -3.31622 0
M  V30 1406 O 125.633 1.63522 -3.66911 0
M  V30 1407 N 123.839 0.58089 -2.84735 0
M  V30 1408 H 123.386 -0.266783 -2.56215 0
M  V30 1409 H 123.344 1.44695 -2.79125 0
M  V30 1410 N 127.117 1.15442 -1.07289 0
M  V30 1411 C 128.05 2.19135 -0.636798 0
M  V30 1412 C 129.028 1.58884 0.34562 0
M  V30 1413 O 130.212 1.86805 0.252195 0
M  V30 1414 C 127.339 3.38638 0.0650014 0
M  V30 1415 C 126.385 4.17412 -0.87576 0
M  V30 1416 S 127.218 4.79882 -2.37642 0
M  V30 1417 C 128.374 6.02753 -1.6864 0
M  V30 1418 H 128.607 2.55787 -1.51526 0
M  V30 1419 H 126.14 1.26394 -0.886793 0
M  V30 1420 H 128.098 4.07873 0.463664 0
M  V30 1421 H 126.759 3.00331 0.919801 0
M  V30 1422 H 125.952 5.02909 -0.33143 0
M  V30 1423 H 125.554 3.53722 -1.21478 0
M  V30 1424 H 127.846 6.70113 -0.997753 0
M  V30 1425 H 128.789 6.61754 -2.51967 0
M  V30 1426 H 129.197 5.52355 -1.16465 0
M  V30 1427 N 128.595 0.856903 1.32268 0
M  V30 1428 C 129.527 0.260412 2.27716 0
M  V30 1429 C 130.54 -0.569137 1.52528 0
M  V30 1430 O 131.729 -0.39326 1.74114 0
M  V30 1431 C 128.829 -0.650477 3.32599 0
M  V30 1432 C 128.002 0.14372 4.37164 0
M  V30 1433 C 127.061 -0.69328 5.21613 0
M  V30 1434 O 126.087 -0.12599 5.69061 0
M  V30 1435 N 127.289 -2.00761 5.44679 0
M  V30 1436 H 130.054 1.08059 2.79541 0
M  V30 1437 H 127.615 0.717103 1.45152 0
M  V30 1438 H 129.607 -1.21581 3.86005 0
M  V30 1439 H 128.177 -1.37133 2.80915 0
M  V30 1440 H 127.397 0.890486 3.8401 0
M  V30 1441 H 128.685 0.68915 5.04111 0
M  V30 1442 H 128.083 -2.49181 5.07863 0
M  V30 1443 H 126.64 -2.52103 6.01072 0
M  V30 1444 N 130.073 -1.45103 0.615059 0
M  V30 1445 C 131.298 -2.07064 0.117988 0
M  V30 1446 C 131.723 -1.4554 -1.19163 0
M  V30 1447 O 131.081 -0.550855 -1.72729 0
M  V30 1448 C 131.129 -3.606 -0.000288387 0
M  V30 1449 O 130.233 -3.98847 -1.04856 0
M  V30 1450 H 129.574 -0.659467 0.0774581 0
M  V30 1451 H 132.104 -1.86236 0.847186 0
M  V30 1452 H 132.114 -4.07529 -0.196091 0
M  V30 1453 H 130.789 -4.04765 0.955932 0
M  V30 1454 H 129.366 -3.63577 -0.828619 0
M  V30 1455 N 131.551 -0.354651 -1.53558 0
M  V30 1456 C 132.799 0.237972 -2.00694 0
M  V30 1457 C 133.12 1.50173 -1.24391 0
M  V30 1458 O 132.39 1.92673 -0.354135 0
M  V30 1459 H 130.97 0.0909256 -0.741446 0
M  V30 1460 H 133.632 -0.478368 -1.88938 0
M  V30 1461 H 132.728 0.47264 -3.085 0
M  V30 1462 N 133.029 1.57378 -0.0835403 0
M  V30 1463 C 134.275 1.94217 0.583733 0
M  V30 1464 C 134.608 0.964653 1.68547 0
M  V30 1465 O 133.883 -0.00422258 1.945 0
M  V30 1466 C 134.166 3.41253 1.14972 0
M  V30 1467 C 134.019 4.49768 0.0538277 0
M  V30 1468 C 135.338 3.89352 2.05166 0
M  V30 1469 H 132.457 0.706233 0.210724 0
M  V30 1470 H 135.099 1.89392 -0.1519 0
M  V30 1471 H 133.249 3.45496 1.77665 0
M  V30 1472 H 134.921 4.57641 -0.579851 0
M  V30 1473 H 133.164 4.29432 -0.614068 0
M  V30 1474 H 133.835 5.49817 0.490452 0
M  V30 1475 H 136.311 3.87189 1.52393 0
M  V30 1476 H 135.187 4.92822 2.41698 0
M  V30 1477 H 135.448 3.27973 2.96456 0
M  V30 1478 N 134.507 -0.190092 1.56449 0
M  V30 1479 C 135.455 -1.25501 1.95837 0
M  V30 1480 C 136.449 -1.4685 0.844485 0
M  V30 1481 O 137.655 -1.47651 1.02952 0
M  V30 1482 H 134.03 -0.421447 0.622805 0
M  V30 1483 H 136.001 -0.895821 2.84636 0
M  V30 1484 C 134.75 -2.59124 2.31841 0
M  V30 1485 H 134.073 -2.43514 3.17082 0
M  V30 1486 H 135.513 -3.32371 2.6326 0
M  V30 1487 C 133.972 -3.16488 1.15486 0
M  V30 1488 O 134.502 -3.99365 0.432535 0
M  V30 1489 N 132.708 -2.75305 0.930349 0
M  V30 1490 H 132.255 -2.08013 1.51948 0
M  V30 1491 H 132.213 -3.14024 0.153634 0
M  V30 1492 N 135.985 -1.50799 -0.457987 0
M  V30 1493 C 136.933 -1.71162 -1.575 0
M  V30 1494 C 137.927 -0.577592 -1.59249 0
M  V30 1495 O 139.133 -0.758443 -1.63241 0
M  V30 1496 H 135.508 -0.540468 -0.522875 0
M  V30 1497 H 137.479 -2.64837 -1.37492 0
M  V30 1498 C 136.228 -1.83496 -2.95338 0
M  V30 1499 H 135.551 -2.70153 -2.94716 0
M  V30 1500 H 136.991 -2.01765 -3.72917 0
M  V30 1501 C 135.45 -0.589694 -3.31699 0
M  V30 1502 O 135.98 0.265163 -4.00824 0
M  V30 1503 N 134.186 -0.439845 -2.87252 0
M  V30 1504 H 133.733 -1.13655 -2.31172 0
M  V30 1505 H 133.691 0.392159 -3.11945 0
M  V30 1506 N 137.463 0.71206 -1.40597 0
M  V30 1507 C 138.691 1.50111 -1.42388 0
M  V30 1508 C 139.106 1.88784 -0.0245395 0
M  V30 1509 O 138.463 1.55681 0.952351 0
M  V30 1510 C 138.514 2.7742 -2.31776 0
M  V30 1511 O 138.235 2.40382 -3.66262 0
M  V30 1512 C 139.736 3.7129 -2.42196 0
M  V30 1513 H 136.956 0.46314 -0.485533 0
M  V30 1514 H 139.5 0.878068 -1.8469 0
M  V30 1515 H 137.655 3.36001 -1.92827 0
M  V30 1516 H 138.069 3.22324 -4.13772 0
M  V30 1517 H 139.543 4.57448 -3.08943 0
M  V30 1518 H 140.02 4.14641 -1.44809 0
M  V30 1519 H 140.626 3.18619 -2.81712 0
M  V30 1520 N 138.941 1.26152 0.944643 0
M  V30 1521 C 139.888 1.07408 2.04285 0
M  V30 1522 C 140.858 -0.0198413 1.66088 0
M  V30 1523 O 142.043 0.139264 1.90291 0
M  V30 1524 C 139.183 0.70945 3.37729 0
M  V30 1525 C 138.296 1.87926 3.88983 0
M  V30 1526 C 137.431 1.45807 5.10797 0
M  V30 1527 C 136.47 2.5964 5.54305 0
M  V30 1528 N 135.607 2.18226 6.67324 0
M  V30 1529 H 140.447 2.01389 2.1965 0
M  V30 1530 H 137.984 1.00275 1.07626 0
M  V30 1531 H 139.942 0.478948 4.14442 0
M  V30 1532 H 138.572 -0.193389 3.2222 0
M  V30 1533 H 137.624 2.22279 3.08701 0
M  V30 1534 H 138.936 2.73377 4.17213 0
M  V30 1535 H 138.09 1.18781 5.94959 0
M  V30 1536 H 136.829 0.574414 4.84305 0
M  V30 1537 H 135.834 2.87399 4.68702 0
M  V30 1538 H 137.059 3.48599 5.828 0
M  V30 1539 H 135.005 1.3229 6.42523 0
M  V30 1540 H 134.922 2.97221 6.95123 0
M  V30 1541 H 136.19 1.94403 7.54869 0
M  V30 1542 N 140.419 -1.14872 1.07899 0
M  V30 1543 C 141.366 -2.19791 0.704319 0
M  V30 1544 C 142.336 -1.63238 -0.306987 0
M  V30 1545 O 143.521 -1.8983 -0.192171 0
M  V30 1546 C 140.661 -3.44911 0.114244 0
M  V30 1547 C 139.774 -4.15637 1.1777 0
M  V30 1548 C 138.909 -5.28324 0.552037 0
M  V30 1549 C 137.948 -5.90875 1.59789 0
M  V30 1550 N 137.085 -6.95022 0.994404 0
M  V30 1551 H 141.925 -2.5119 1.60336 0
M  V30 1552 H 139.462 -1.23356 0.801352 0
M  V30 1553 H 141.42 -4.16477 -0.245544 0
M  V30 1554 H 140.05 -3.14011 -0.74813 0
M  V30 1555 H 139.102 -3.42512 1.65499 0
M  V30 1556 H 140.414 -4.5823 1.97046 0
M  V30 1557 H 139.568 -6.06538 0.1402 0
M  V30 1558 H 138.307 -4.86939 -0.272431 0
M  V30 1559 H 137.312 -5.11369 2.01945 0
M  V30 1560 H 138.537 -6.34337 2.42474 0
M  V30 1561 H 136.483 -6.55722 0.190939 0
M  V30 1562 H 136.4 -7.36073 1.72432 0
M  V30 1563 H 137.668 -7.77123 0.608253 0
M  V30 1564 N 141.898 -0.863906 -1.31812 0
M  V30 1565 C 143.144 -0.481841 -1.9761 0
M  V30 1566 C 143.499 0.954048 -1.6708 0
M  V30 1567 O 142.792 1.66182 -0.953624 0
M  V30 1568 C 142.986 -0.668547 -3.51091 0
M  V30 1569 C 142.815 -2.12103 -3.96538 0
M  V30 1570 C 141.585 -2.76141 -4.23171 0
M  V30 1571 C 143.783 -3.09265 -4.10925 0
M  V30 1572 N 141.765 -4.12205 -4.54929 0
M  V30 1573 C 143.136 -4.30341 -4.46326 0
M  V30 1574 C 145.191 -3.05337 -3.93286 0
M  V30 1575 C 143.894 -5.48 -4.65928 0
M  V30 1576 C 145.92 -4.22248 -4.14078 0
M  V30 1577 C 145.282 -5.42085 -4.49804 0
M  V30 1578 H 141.381 -0.225238 -0.74886 0
M  V30 1579 H 143.965 -1.11723 -1.59455 0
M  V30 1580 H 142.136 -0.0627898 -3.88349 0
M  V30 1581 H 143.868 -0.255467 -4.03893 0
M  V30 1582 H 140.623 -2.27125 -4.15585 0
M  V30 1583 H 141.047 -4.82416 -4.74978 0
M  V30 1584 H 145.689 -2.138 -3.64759 0
M  V30 1585 H 143.407 -6.40059 -4.93305 0
M  V30 1586 H 146.993 -4.20654 -4.01922 0
M  V30 1587 H 145.873 -6.31044 -4.65567 0
M  V30 1588 N 143.376 1.44774 -0.622745 0
M  V30 1589 C 144.323 2.30635 0.0871679 0
M  V30 1590 C 145.293 1.42994 0.845097 0
M  V30 1591 O 146.478 1.71907 0.827812 0
M  V30 1592 C 143.618 3.28144 1.06844 0
M  V30 1593 C 142.731 4.30888 0.309809 0
M  V30 1594 C 141.866 5.15494 1.28215 0
M  V30 1595 C 140.905 6.09953 0.512198 0
M  V30 1596 N 140.042 6.87287 1.43458 0
M  V30 1597 H 144.882 2.90803 -0.650974 0
M  V30 1598 H 142.419 1.43286 -0.33281 0
M  V30 1599 H 144.377 3.83157 1.65066 0
M  V30 1600 H 143.007 2.69695 1.77382 0
M  V30 1601 H 142.059 3.78414 -0.388181 0
M  V30 1602 H 143.371 4.97955 -0.290254 0
M  V30 1603 H 142.525 5.74983 1.93596 0
M  V30 1604 H 141.264 4.48481 1.91614 0
M  V30 1605 H 140.269 5.49581 -0.155151 0
M  V30 1606 H 141.494 6.78999 -0.116958 0
M  V30 1607 H 139.44 6.2295 2.05594 0
M  V30 1608 H 139.357 7.50763 0.888335 0
M  V30 1609 H 140.625 7.51306 2.07749 0
M  V30 1610 N 144.854 0.36279 1.53368 0
M  V30 1611 C 145.787 -0.528507 2.21996 0
M  V30 1612 C 146.765 -1.0852 1.21087 0
M  V30 1613 O 147.949 -1.14186 1.4998 0
M  V30 1614 C 145.076 -1.72893 2.91249 0
M  V30 1615 C 144.122 -1.29994 4.06207 0
M  V30 1616 S 144.955 -0.303575 5.34639 0
M  V30 1617 C 146.111 -1.51039 6.07403 0
M  V30 1618 H 146.344 0.0543423 2.9725 0
M  V30 1619 H 143.877 0.146889 1.537 0
M  V30 1620 H 145.835 -2.41751 3.31763 0
M  V30 1621 H 144.496 -2.28303 2.15724 0
M  V30 1622 H 143.689 -2.19549 4.53667 0
M  V30 1623 H 143.291 -0.690608 3.67569 0
M  V30 1624 H 145.583 -2.44186 6.31965 0
M  V30 1625 H 146.526 -1.07721 6.99858 0
M  V30 1626 H 146.934 -1.71518 5.37812 0
M  V30 1627 N 146.332 -1.57332 0.0918853 0
M  V30 1628 C 147.242 -2.17368 -0.882505 0
M  V30 1629 C 148.258 -1.14226 -1.31257 0
M  V30 1630 O 149.434 -1.46582 -1.38115 0
M  V30 1631 C 146.499 -2.73962 -2.12476 0
M  V30 1632 C 145.56 -3.92048 -1.7492 0
M  V30 1633 C 144.793 -4.45933 -2.93223 0
M  V30 1634 O 145.016 -3.98764 -4.07852 0
M  V30 1635 O 143.95 -5.36999 -2.71875 0
M  V30 1636 H 147.776 -3.01031 -0.40172 0
M  V30 1637 H 145.361 -1.48813 -0.132291 0
M  V30 1638 H 147.243 -3.10147 -2.85283 0
M  V30 1639 H 145.918 -1.93347 -2.59613 0
M  V30 1640 H 144.825 -3.6068 -0.993025 0
M  V30 1641 H 146.158 -4.74017 -1.32548 0
M  V30 1642 N 147.81 0.181792 -1.56548 0
M  V30 1643 C 149.057 0.900097 -1.81396 0
M  V30 1644 C 149.385 1.82695 -0.667281 0
M  V30 1645 O 148.64 1.92614 0.346146 0
M  V30 1646 C 148.939 1.73728 -3.12335 0
M  V30 1647 C 148.605 0.960255 -4.40556 0
M  V30 1648 C 147.267 0.745766 -4.75386 0
M  V30 1649 C 149.619 0.414477 -5.19549 0
M  V30 1650 C 146.947 -0.0257694 -5.86694 0
M  V30 1651 C 149.299 -0.343916 -6.31664 0
M  V30 1652 C 147.963 -0.569301 -6.65068 0
M  V30 1653 H 147.233 0.329369 -0.663775 0
M  V30 1654 H 149.88 0.165647 -1.90782 0
M  V30 1655 H 148.185 2.54081 -2.98245 0
M  V30 1656 H 149.882 2.29591 -3.28769 0
M  V30 1657 H 146.472 1.13746 -4.13231 0
M  V30 1658 H 150.656 0.567554 -4.93044 0
M  V30 1659 H 145.912 -0.210233 -6.11038 0
M  V30 1660 H 150.086 -0.774133 -6.92084 0
M  V30 1661 H 147.713 -1.16903 -7.51158 0
M  V30 1662 N 149.288 1.51039 0.449983 0
M  V30 1663 C 150.565 1.53612 1.21089 0
M  V30 1664 C 150.945 0.292997 2.09057 0
M  V30 1665 O 150.293 -0.72259 2.16774 0
M  V30 1666 C 150.503 2.84337 2.0237 0
M  V30 1667 C 151.851 3.35807 2.59843 0
M  V30 1668 O 152.875 2.85802 2.12593 0
M  V30 1669 O 151.734 4.23029 3.45989 0
M  V30 1670 H 148.828 0.617057 0.550608 0
M  V30 1671 H 151.374 1.63344 0.460082 0
M  V30 1672 H 150.146 3.66278 1.37681 0
M  V30 1673 H 149.769 2.77708 2.84542 0
M  V30 1674 N 150.766 -0.704594 1.40972 0
M  V30 1675 C 151.994 -1.49354 1.43182 0
M  V30 1676 C 152.409 -1.88768 0.0345508 0
M  V30 1677 O 151.766 -1.56184 -0.944081 0
M  V30 1678 C 151.817 -2.76187 2.33244 0
M  V30 1679 O 151.538 -2.38436 3.67532 0
M  V30 1680 C 153.039 -3.7 2.44162 0
M  V30 1681 H 150.259 -0.460559 0.487982 0
M  V30 1682 H 152.803 -0.868261 1.85153 0
M  V30 1683 H 150.958 -3.34974 1.94606 0
M  V30 1684 H 151.372 -3.20126 4.15475 0
M  V30 1685 H 152.846 -4.55803 3.11364 0
M  V30 1686 H 153.323 -4.13867 1.47006 0
M  V30 1687 H 153.929 -3.17121 2.83398 0
M  V30 1688 N 152.244 -1.26651 -0.937939 0
M  V30 1689 C 153.66 -1.03834 -1.21205 0
M  V30 1690 C 153.86 0.234502 -2.00131 0
M  V30 1691 O 152.916 0.942767 -2.3424 0
M  V30 1692 C 154.229 -2.27167 -1.97017 0
M  V30 1693 C 155.777 -2.32101 -2.09996 0
M  V30 1694 C 156.252 -3.55136 -2.8921 0
M  V30 1695 N 157.743 -3.55632 -2.96783 0
M  V30 1696 C 158.478 -4.475 -3.58512 0
M  V30 1697 N 157.974 -5.4966 -4.21717 0
M  V30 1698 N 159.767 -4.35145 -3.55816 0
M  V30 1699 H 151.918 -2.08398 -0.410391 0
M  V30 1700 H 154.181 -0.916031 -0.244114 0
M  V30 1701 H 153.887 -3.19765 -1.46434 0
M  V30 1702 H 153.761 -2.31672 -2.97671 0
M  V30 1703 H 156.148 -1.40015 -2.59769 0
M  V30 1704 H 156.229 -2.31605 -1.08594 0
M  V30 1705 H 155.873 -4.47553 -2.40123 0
M  V30 1706 H 155.803 -3.5288 -3.90875 0
M  V30 1707 H 158.294 -2.81743 -2.51852 0
M  V30 1708 H 158.607 -6.15943 -4.66727 0
M  V30 1709 H 156.952 -5.53514 -4.20294 0
M  V30 1710 H 160.143 -3.5455 -3.05634 0
M  V30 1711 H 160.316 -5.06934 -4.03636 0
M  V30 1712 N 153.722 1.14298 -1.08507 0
M  V30 1713 C 154.632 2.23027 -0.727753 0
M  V30 1714 C 155.648 1.71952 0.26619 0
M  V30 1715 O 156.824 2.011 0.109882 0
M  V30 1716 C 153.889 3.46403 -0.143541 0
M  V30 1717 C 152.95 4.12413 -1.19223 0
M  V30 1718 C 152.183 5.29899 -0.635798 0
M  V30 1719 O 152.406 5.67796 0.544393 0
M  V30 1720 O 151.34 5.85717 -1.38634 0
M  V30 1721 H 155.166 2.55945 -1.63481 0
M  V30 1722 H 152.751 1.22248 -0.858817 0
M  V30 1723 H 154.633 4.21018 0.179404 0
M  V30 1724 H 153.308 3.15206 0.736659 0
M  V30 1725 H 152.215 3.39667 -1.56772 0
M  V30 1726 H 153.548 4.47718 -2.04474 0
M  V30 1727 N 155.201 0.870884 1.31352 0
M  V30 1728 C 156.617 0.562932 1.49343 0
M  V30 1729 C 156.817 -0.902725 1.80148 0
M  V30 1730 O 155.873 -1.68484 1.88067 0
M  V30 1731 C 157.186 1.46393 2.62659 0
M  V30 1732 C 158.734 1.46607 2.76542 0
M  V30 1733 C 159.209 2.35266 3.92955 0
M  V30 1734 N 160.7 2.33151 4.00243 0
M  V30 1735 C 161.435 2.98471 4.89594 0
M  V30 1736 N 160.931 3.72964 5.8384 0
M  V30 1737 N 162.724 2.87775 4.82848 0
M  V30 1738 H 154.875 1.81923 1.09626 0
M  V30 1739 H 157.138 0.777934 0.541777 0
M  V30 1740 H 156.844 2.50689 2.46674 0
M  V30 1741 H 156.718 1.16314 3.58819 0
M  V30 1742 H 159.105 0.43069 2.9194 0
M  V30 1743 H 159.186 1.8071 1.81046 0
M  V30 1744 H 158.83 3.38881 3.78315 0
M  V30 1745 H 158.76 1.98487 4.87761 0
M  V30 1746 H 161.251 1.79006 3.32814 0
M  V30 1747 H 161.564 4.19932 6.4875 0
M  V30 1748 H 159.909 3.77073 5.83816 0
M  V30 1749 H 163.1 2.29116 4.08195 0
M  V30 1750 H 163.273 3.38961 5.52277 0
M  V30 1751 N 156.679 -1.44442 0.630414 0
M  V30 1752 C 157.925 -2.02894 0.143332 0
M  V30 1753 C 158.28 -1.48697 -1.22094 0
M  V30 1754 O 157.573 -0.661171 -1.79831 0
M  V30 1755 C 157.767 -3.57332 0.0697835 0
M  V30 1756 C 157.596 -4.26512 1.42539 0
M  V30 1757 C 156.366 -4.63516 2.01198 0
M  V30 1758 C 158.564 -4.57004 2.35907 0
M  V30 1759 N 156.546 -5.17661 3.30001 0
M  V30 1760 C 157.917 -5.12223 3.49324 0
M  V30 1761 C 159.972 -4.38955 2.34995 0
M  V30 1762 C 158.675 -5.51295 4.62024 0
M  V30 1763 C 160.701 -4.79075 3.46758 0
M  V30 1764 C 160.063 -5.34407 4.58899 0
M  V30 1765 H 156.162 -0.776041 0.0963523 0
M  V30 1766 H 158.746 -1.75945 0.833752 0
M  V30 1767 H 156.917 -3.83894 -0.589915 0
M  V30 1768 H 158.649 -4.02451 -0.42606 0
M  V30 1769 H 155.404 -4.47811 1.54151 0
M  V30 1770 H 155.828 -5.4921 3.95851 0
M  V30 1771 H 160.47 -3.95469 1.49545 0
M  V30 1772 H 158.188 -5.93736 5.48182 0
M  V30 1773 H 161.774 -4.66824 3.47227 0
M  V30 1774 H 160.654 -5.64878 5.4395 0
M  V30 1775 N 158.157 -0.370918 -1.53173 0
M  V30 1776 C 159.067 0.480823 -2.2962 0
M  V30 1777 C 160.083 1.08789 -1.35798 0
M  V30 1778 O 161.259 1.09768 -1.68858 0
M  V30 1779 C 158.324 1.60227 -3.07454 0
M  V30 1780 C 157.385 1.0222 -4.16953 0
M  V30 1781 C 156.618 2.0902 -4.91066 0
M  V30 1782 O 156.841 3.30222 -4.65091 0
M  V30 1783 O 155.775 1.71778 -5.76867 0
M  V30 1784 H 159.601 -0.141421 -3.03371 0
M  V30 1785 H 157.186 -0.135146 -1.48787 0
M  V30 1786 H 159.068 2.25417 -3.56041 0
M  V30 1787 H 157.743 2.20982 -2.36535 0
M  V30 1788 H 156.65 0.334064 -3.72605 0
M  V30 1789 H 157.983 0.459131 -4.90054 0
M  V30 1790 N 159.635 1.57281 -0.100228 0
M  V30 1791 C 160.583 2.15542 0.874328 0
M  V30 1792 C 161.577 1.09962 1.28859 0
M  V30 1793 O 162.783 1.28298 1.26252 0
M  V30 1794 H 159.158 0.689567 0.300003 0
M  V30 1795 H 161.129 2.96241 0.35829 0
M  V30 1796 C 159.878 2.75454 2.1218 0
M  V30 1797 H 159.201 3.56384 1.81193 0
M  V30 1798 H 160.641 3.19781 2.78417 0
M  V30 1799 C 159.1 1.71602 2.89921 0
M  V30 1800 O 159.63 1.15804 3.84646 0
M  V30 1801 N 157.836 1.41975 2.53558 0
M  V30 1802 H 157.383 1.87539 1.76598 0
M  V30 1803 H 157.341 0.727274 3.05873 0
M  V30 1804 N 161.113 -0.173488 1.56642 0
M  V30 1805 C 162.524 -0.736155 1.71574 0
M  V30 1806 C 162.875 -1.82888 0.710389 0
M  V30 1807 O 162 -2.16017 -0.1287 0
M  V30 1808 C 162.595 -1.34211 3.11083 0
M  V30 1809 C 161.154 -1.85162 3.27707 0
M  V30 1810 C 160.301 -0.729765 2.67525 0
M  V30 1811 H 163.252 0.0518786 1.58615 0
M  V30 1812 H 163.273 -2.21178 3.09613 0
M  V30 1813 H 162.785 -0.546579 3.84232 0
M  V30 1814 H 160.886 -2.67366 2.59512 0
M  V30 1815 H 160.999 -1.99855 4.35425 0
M  V30 1816 H 159.363 -1.14965 2.27278 0
M  V30 1817 H 160.146 0.0538806 3.43258 0
M  V30 1818 N 162.591 -1.51276 -0.441967 0
M  V30 1819 C 163.521 -1.752 -1.54361 0
M  V30 1820 C 164.502 -0.601682 -1.59103 0
M  V30 1821 O 165.687 -0.843913 -1.74905 0
M  V30 1822 C 162.817 -1.87282 -2.92477 0
M  V30 1823 C 161.771 -3.02687 -3.02596 0
M  V30 1824 C 161.097 -2.99947 -4.42647 0
M  V30 1825 C 162.397 -4.4273 -2.77106 0
M  V30 1826 H 164.091 -2.67442 -1.34592 0
M  V30 1827 H 161.637 -1.28694 -0.646048 0
M  V30 1828 H 163.59 -2.02602 -3.695 0
M  V30 1829 H 162.314 -0.916844 -3.13467 0
M  V30 1830 H 160.973 -2.87065 -2.28012 0
M  V30 1831 H 160.621 -2.02136 -4.60597 0
M  V30 1832 H 160.321 -3.77439 -4.50348 0
M  V30 1833 H 161.845 -3.17354 -5.2165 0
M  V30 1834 H 163.259 -4.58727 -3.43864 0
M  V30 1835 H 161.656 -5.21893 -2.96222 0
M  V30 1836 H 162.726 -4.53087 -1.72744 0
M  V30 1837 N 164.069 0.697108 -1.41344 0
M  V30 1838 C 165.002 1.82134 -1.37486 0
M  V30 1839 C 165.98 1.60784 -0.242351 0
M  V30 1840 O 167.164 1.83553 -0.429012 0
M  V30 1841 C 164.291 3.18788 -1.14421 0
M  V30 1842 C 163.337 3.58932 -2.3037 0
M  V30 1843 S 164.17 3.63916 -3.92843 0
M  V30 1844 C 165.326 5.03298 -3.72078 0
M  V30 1845 H 165.559 1.85129 -2.32625 0
M  V30 1846 H 163.092 0.865671 -1.2785 0
M  V30 1847 H 165.05 3.97677 -1.018 0
M  V30 1848 H 163.711 3.13404 -0.20905 0
M  V30 1849 H 162.904 4.58202 -2.09922 0
M  V30 1850 H 162.506 2.87347 -2.39391 0
M  V30 1851 H 164.798 5.90753 -3.31688 0
M  V30 1852 H 165.741 5.28788 -4.70945 0
M  V30 1853 H 166.149 4.74764 -3.05384 0
M  V30 1854 N 165.547 1.27147 0.931209 0
M  V30 1855 C 166.795 1.13055 1.6752 0
M  V30 1856 C 167.116 -0.324791 1.92276 0
M  V30 1857 O 166.386 -1.22775 1.52654 0
M  V30 1858 H 164.966 0.415391 0.620854 0
M  V30 1859 H 167.628 1.59623 1.11833 0
M  V30 1860 H 166.724 1.65694 2.64485 0
M  V30 1861 N 167.025 -1.13721 1.09112 0
M  V30 1862 C 168.271 -1.85413 0.836283 0
M  V30 1863 C 168.626 -1.8175 -0.631249 0
M  V30 1864 O 167.919 -1.24238 -1.45861 0
M  V30 1865 C 168.113 -3.32861 1.30146 0
M  V30 1866 C 167.942 -3.50882 2.81268 0
M  V30 1867 C 166.712 -3.65312 3.49106 0
M  V30 1868 C 168.91 -3.47196 3.7942 0
M  V30 1869 N 166.892 -3.71563 4.88686 0
M  V30 1870 C 168.263 -3.59777 5.04936 0
M  V30 1871 C 170.318 -3.30577 3.72321 0
M  V30 1872 C 169.021 -3.57455 6.24194 0
M  V30 1873 C 171.047 -3.29562 4.91063 0
M  V30 1874 C 170.409 -3.42691 6.15421 0
M  V30 1875 H 166.508 -0.694812 0.358832 0
M  V30 1876 H 169.092 -1.36246 1.39087 0
M  V30 1877 H 167.263 -3.80602 0.774361 0
M  V30 1878 H 168.995 -3.92346 0.99229 0
M  V30 1879 H 165.75 -3.6685 2.9953 0
M  V30 1880 H 166.174 -3.78387 5.61384 0
M  V30 1881 H 170.816 -3.19332 2.77105 0
M  V30 1882 H 168.534 -3.67475 7.19714 0
M  V30 1883 H 172.12 -3.17905 4.87266 0
M  V30 1884 H 171 -3.41862 7.05762 0
M  V30 1885 N 168.503 -0.877838 -1.30888 0
M  V30 1886 C 169.466 -0.344265 -2.266 0
M  V30 1887 C 170.466 0.50922 -1.52524 0
M  V30 1888 O 171.656 0.317398 -1.71284 0
M  V30 1889 C 168.788 0.510198 -3.37061 0
M  V30 1890 H 169.981 -1.1893 -2.7531 0
M  V30 1891 H 167.534 -0.654088 -1.41956 0
M  V30 1892 H 168.269 1.37612 -2.93655 0
M  V30 1893 H 168.054 -0.101047 -3.9197 0
M  V30 1894 H 169.544 0.875537 -4.08319 0
M  V30 1895 N 169.982 1.44106 -0.638065 0
M  V30 1896 C 171.207 2.0685 -0.150916 0
M  V30 1897 C 171.632 1.47417 1.16833 0
M  V30 1898 O 170.99 0.578264 1.71831 0
M  V30 1899 C 171.038 3.60555 -0.05708 0
M  V30 1900 O 170.142 4.00465 0.984972 0
M  V30 1901 H 169.483 0.658151 -0.0879399 0
M  V30 1902 H 172.013 1.84865 -0.876707 0
M  V30 1903 H 172.023 4.07789 0.131232 0
M  V30 1904 H 170.698 4.03193 -1.02021 0
M  V30 1905 H 169.275 3.64849 0.770672 0
M  V30 1906 N 171.46 0.379036 1.52974 0
M  V30 1907 C 172.688 -0.20679 2.05864 0
M  V30 1908 C 173.103 -1.41356 1.25155 0
M  V30 1909 O 172.46 -1.8009 0.295588 0
M  V30 1910 C 172.511 -0.587045 3.56702 0
M  V30 1911 O 172.232 0.571776 4.34353 0
M  V30 1912 C 173.733 -1.22983 4.25899 0
M  V30 1913 H 170.953 -0.0336123 0.670158 0
M  V30 1914 H 173.497 0.541298 1.97206 0
M  V30 1915 H 171.652 -1.28504 3.65466 0
M  V30 1916 H 172.066 0.261544 5.23847 0
M  V30 1917 H 173.54 -1.44635 5.32715 0
M  V30 1918 H 174.017 -2.19416 3.80465 0
M  V30 1919 H 174.623 -0.572892 4.21424 0
M  V30 1920 N 172.938 -1.57226 0.108567 0
M  V30 1921 C 173.901 -2.13602 -0.831082 0
M  V30 1922 C 174.901 -1.06841 -1.20173 0
M  V30 1923 O 176.091 -1.32666 -1.12895 0
M  V30 1924 C 173.223 -2.66769 -2.12243 0
M  V30 1925 H 174.416 -2.97951 -0.341317 0
M  V30 1926 H 171.969 -1.55667 -0.14057 0
M  V30 1927 H 172.704 -1.85977 -2.65675 0
M  V30 1928 H 172.489 -3.44839 -1.86625 0
M  V30 1929 H 173.979 -3.10332 -2.79435 0
M  V30 1930 N 174.416 0.165178 -1.56732 0
M  V30 1931 C 175.693 0.908443 -1.73224 0
M  V30 1932 C 176.073 2.0013 -0.67165 0
M  V30 1933 O 175.421 2.26353 0.31253 0
M  V30 1934 C 175.631 1.46756 -3.16644 0
M  V30 1935 C 176.979 1.93809 -3.77787 0
M  V30 1936 O 178.003 1.56537 -3.1996 0
M  V30 1937 O 176.862 2.62486 -4.79336 0
M  V30 1938 H 173.956 0.428025 -0.707618 0
M  V30 1939 H 176.502 0.152526 -1.69013 0
M  V30 1940 H 175.274 0.68129 -3.85323 0
M  V30 1941 H 174.897 2.28749 -3.25207 0
M  V30 1942 N 175.894 1.51508 0.433938 0
M  V30 1943 C 177.305 1.56784 1.01369 0
M  V30 1944 C 177.656 0.393349 1.92217 0
M  V30 1945 O 176.781 -0.489441 2.10792 0
M  V30 1946 C 177.376 2.84144 1.8452 0
M  V30 1947 C 175.935 2.9198 2.37539 0
M  V30 1948 C 175.082 2.51482 1.16843 0
M  V30 1949 H 178.033 1.57236 0.215081 0
M  V30 1950 H 178.054 2.68098 2.70007 0
M  V30 1951 H 177.566 3.69607 1.18373 0
M  V30 1952 H 175.667 2.10955 3.0713 0
M  V30 1953 H 175.78 3.95704 2.70103 0
M  V30 1954 H 174.144 2.04758 1.51481 0
M  V30 1955 H 174.927 3.39293 0.523015 0
M  V30 1956 N 177.372 -0.689602 1.41712 0
M  V30 1957 C 178.302 -1.81577 1.46806 0
M  V30 1958 C 179.283 -1.66945 0.326105 0
M  V30 1959 O 180.468 -1.86588 0.538377 0
M  V30 1960 C 177.598 -3.19762 1.35535 0
M  V30 1961 C 176.552 -3.49107 2.47605 0
M  V30 1962 C 175.878 -4.86711 2.21397 0
M  V30 1963 C 177.178 -3.47483 3.89939 0
M  V30 1964 H 178.872 -1.7757 2.41058 0
M  V30 1965 H 176.418 -0.852887 1.16025 0
M  V30 1966 H 178.371 -3.98263 1.3771 0
M  V30 1967 H 177.095 -3.24409 0.377708 0
M  V30 1968 H 175.754 -2.72959 2.44722 0
M  V30 1969 H 175.402 -4.8799 1.21961 0
M  V30 1970 H 175.102 -5.0731 2.96497 0
M  V30 1971 H 176.626 -5.67515 2.25297 0
M  V30 1972 H 178.04 -4.1598 3.94505 0
M  V30 1973 H 176.437 -3.79615 4.64771 0
M  V30 1974 H 177.507 -2.46341 4.17665 0
M  V30 1975 N 178.85 -1.27639 -0.924453 0
M  V30 1976 C 180.075 -1.17101 -1.71179 0
M  V30 1977 C 180.5 0.268134 -1.86179 0
M  V30 1978 O 179.858 1.19415 -1.36418 0
M  V30 1979 C 179.906 -1.86313 -3.08739 0
M  V30 1980 O 179.01 -1.16331 -3.95652 0
M  V30 1981 H 178.351 -0.407091 -0.524569 0
M  V30 1982 H 180.881 -1.68767 -1.15666 0
M  V30 1983 H 180.891 -1.938 -3.59034 0
M  V30 1984 H 179.566 -2.91001 -2.97138 0
M  V30 1985 H 178.143 -1.16935 -3.54091 0
M  V30 1986 N 180.328 1.1314 -1.09713 0
M  V30 1987 C 181.276 2.20717 -0.733934 0
M  V30 1988 C 182.27 1.6729 0.266506 0
M  V30 1989 O 183.476 1.79547 0.127656 0
M  V30 1990 H 179.851 0.719292 -0.21937 0
M  V30 1991 H 181.822 2.48611 -1.6503 0
M  V30 1992 C 180.571 3.47265 -0.173849 0
M  V30 1993 H 179.894 3.88716 -0.934873 0
M  V30 1994 H 181.334 4.23979 0.0423126 0
M  V30 1995 C 179.793 3.18724 1.09164 0
M  V30 1996 O 180.323 3.37762 2.17439 0
M  V30 1997 N 178.529 2.72583 1.00732 0
M  V30 1998 H 178.076 2.57291 0.126121 0
M  V30 1999 H 178.034 2.53862 1.85476 0
M  V30 2000 N 181.806 0.884767 1.30421 0
M  V30 2001 C 182.739 0.295999 2.26272 0
M  V30 2002 C 183.717 -0.58332 1.51777 0
M  V30 2003 O 184.901 -0.53346 1.80794 0
M  V30 2004 C 182.028 -0.57944 3.33707 0
M  V30 2005 C 181.074 0.230525 4.25877 0
M  V30 2006 S 181.907 1.61867 5.1045 0
M  V30 2007 C 183.063 0.749756 6.21393 0
M  V30 2008 H 183.296 1.10848 2.75862 0
M  V30 2009 H 180.829 0.684178 1.38414 0
M  V30 2010 H 182.787 -1.07879 3.96071 0
M  V30 2011 H 181.448 -1.36601 2.82841 0
M  V30 2012 H 180.641 -0.437542 5.02097 0
M  V30 2013 H 180.243 0.662493 3.68086 0
M  V30 2014 H 182.535 -0.0333547 6.77492 0
M  V30 2015 H 183.478 1.48356 6.92384 0
M  V30 2016 H 183.886 0.310751 5.63644 0
M  V30 2017 N 183.284 -1.43765 0.645699 0
M  V30 2018 C 184.53 -2.02197 0.156271 0
M  V30 2019 C 184.863 -1.50776 -1.22393 0
M  V30 2020 O 184.138 -0.697771 -1.81553 0
M  V30 2021 C 184.421 -3.59749 0.158872 0
M  V30 2022 C 184.274 -4.21419 1.57245 0
M  V30 2023 C 185.593 -4.37149 -0.50879 0
M  V30 2024 H 182.712 -0.734694 0.0582602 0
M  V30 2025 H 185.354 -1.71157 0.824951 0
M  V30 2026 H 183.504 -3.86325 -0.410525 0
M  V30 2027 H 185.176 -4.059 2.19186 0
M  V30 2028 H 183.419 -3.78356 2.122 0
M  V30 2029 H 184.09 -5.30482 1.52619 0
M  V30 2030 H 186.566 -4.16093 -0.024412 0
M  V30 2031 H 185.442 -5.4683 -0.476213 0
M  V30 2032 H 185.703 -4.12839 -1.58165 0
M  V30 2033 N 184.763 -0.387143 -1.52771 0
M  V30 2034 C 185.693 0.440551 -2.29306 0
M  V30 2035 C 186.674 1.06535 -1.32606 0
M  V30 2036 O 187.859 1.07853 -1.61497 0
M  V30 2037 C 184.989 1.56919 -3.09829 0
M  V30 2038 C 183.943 1.07054 -4.14395 0
M  V30 2039 C 183.269 2.29109 -4.83129 0
M  V30 2040 C 184.569 0.140015 -5.22112 0
M  V30 2041 H 186.263 -0.198026 -2.98744 0
M  V30 2042 H 183.809 -0.09668 -1.43675 0
M  V30 2043 H 185.762 2.15503 -3.62128 0
M  V30 2044 H 184.486 2.23532 -2.3812 0
M  V30 2045 H 183.145 0.507247 -3.63074 0
M  V30 2046 H 182.793 2.94227 -4.0797 0
M  V30 2047 H 182.493 1.96406 -5.53804 0
M  V30 2048 H 184.017 2.88339 -5.38231 0
M  V30 2049 H 185.431 0.633978 -5.69784 0
M  V30 2050 H 183.828 -0.0971485 -6.00021 0
M  V30 2051 H 184.898 -0.811711 -4.78058 0
M  V30 2052 N 186.241 1.57166 -0.116904 0
M  V30 2053 C 187.469 1.99473 0.549383 0
M  V30 2054 C 187.884 0.996541 1.60357 0
M  V30 2055 O 187.241 -0.0108731 1.82497 0
M  V30 2056 C 187.292 3.41788 1.17741 0
M  V30 2057 O 187.013 4.37788 0.165362 0
M  V30 2058 C 188.514 3.99216 1.92722 0
M  V30 2059 H 185.734 0.655009 0.145616 0
M  V30 2060 H 188.278 2.03494 -0.202625 0
M  V30 2061 H 186.433 3.38713 1.88021 0
M  V30 2062 H 186.847 5.20806 0.621403 0
M  V30 2063 H 188.321 5.00882 2.31995 0
M  V30 2064 H 188.798 3.3824 2.80161 0
M  V30 2065 H 189.404 4.0583 1.27209 0
M  V30 2066 N 187.719 -0.156864 1.56817 0
M  V30 2067 C 188.966 -0.871125 1.82805 0
M  V30 2068 C 189.294 -1.81611 0.696262 0
M  V30 2069 O 188.549 -1.93141 -0.315459 0
M  V30 2070 C 188.848 -1.68737 3.1506 0
M  V30 2071 C 188.514 -0.890045 4.42028 0
M  V30 2072 C 187.176 -0.670042 4.76512 0
M  V30 2073 C 189.528 -0.331769 5.20143 0
M  V30 2074 C 186.856 0.119104 5.86579 0
M  V30 2075 C 189.208 0.444365 6.31037 0
M  V30 2076 C 187.872 0.675035 6.64078 0
M  V30 2077 H 187.142 -0.318767 0.668931 0
M  V30 2078 H 189.789 -0.135274 1.91022 0
M  V30 2079 H 188.094 -2.49304 3.0225 0
M  V30 2080 H 189.791 -2.24331 3.3238 0
M  V30 2081 H 186.381 -1.07157 4.14988 0
M  V30 2082 H 190.565 -0.489043 4.93885 0
M  V30 2083 H 185.821 0.307417 6.10627 0
M  V30 2084 H 189.995 0.884139 6.90765 0
M  V30 2085 H 187.622 1.28839 7.49203 0
M  V30 2086 N 189.197 -1.51736 -0.425897 0
M  V30 2087 C 190.422 -1.69082 -1.20108 0
M  V30 2088 C 190.847 -0.392398 -1.83962 0
M  V30 2089 O 190.205 0.64858 -1.69302 0
M  V30 2090 C 190.253 -2.81604 -2.25237 0
M  V30 2091 O 189.357 -2.46004 -3.30992 0
M  V30 2092 H 188.698 -0.563408 -0.35138 0
M  V30 2093 H 191.228 -1.98358 -0.501512 0
M  V30 2094 H 191.238 -3.06025 -2.69838 0
M  V30 2095 H 189.913 -3.75817 -1.78142 0
M  V30 2096 H 188.49 -2.32195 -2.91787 0
M  V30 2097 N 190.675 0.682077 -1.42076 0
M  V30 2098 C 191.903 1.47057 -1.4554 0
M  V30 2099 C 192.318 1.8869 -0.0645779 0
M  V30 2100 O 191.675 1.57666 0.919115 0
M  V30 2101 C 191.726 2.72442 -2.37609 0
M  V30 2102 O 191.447 2.32559 -3.71279 0
M  V30 2103 C 192.948 3.66069 -2.50017 0
M  V30 2104 H 190.168 0.452737 -0.495248 0
M  V30 2105 H 192.712 0.838695 -1.8651 0
M  V30 2106 H 190.867 3.31835 -1.9991 0
M  V30 2107 H 191.281 3.13475 -4.20516 0
M  V30 2108 H 192.755 4.50792 -3.18576 0
M  V30 2109 H 193.232 4.11476 -1.53572 0
M  V30 2110 H 193.838 3.12572 -2.88407 0
M  V30 2111 N 192.153 1.28127 0.917671 0
M  V30 2112 C 193.1 1.11717 2.0196 0
M  V30 2113 C 194.07 0.0153929 1.66093 0
M  V30 2114 O 195.255 0.179596 1.89953 0
M  V30 2115 C 192.395 0.780927 3.36148 0
M  V30 2116 C 191.508 1.96135 3.84909 0
M  V30 2117 C 190.643 1.56609 5.0759 0
M  V30 2118 C 189.682 2.71339 5.48673 0
M  V30 2119 N 188.819 2.32332 6.62545 0
M  V30 2120 H 193.659 2.06003 2.15329 0
M  V30 2121 H 191.196 1.02535 1.05475 0
M  V30 2122 H 193.154 0.56675 4.13333 0
M  V30 2123 H 191.784 -0.124998 3.22558 0
M  V30 2124 H 190.836 2.28777 3.03916 0
M  V30 2125 H 192.148 2.82165 4.1132 0
M  V30 2126 H 191.302 1.31374 5.92305 0
M  V30 2127 H 190.041 0.677014 4.82978 0
M  V30 2128 H 189.046 2.97276 4.62501 0
M  V30 2129 H 190.271 3.60882 5.75274 0
M  V30 2130 H 188.217 1.45889 6.39572 0
M  V30 2131 H 188.134 3.11899 6.88662 0
M  V30 2132 H 189.402 2.10371 7.50576 0
M  V30 2133 N 193.631 -1.12557 1.10312 0
M  V30 2134 C 194.541 -2.21841 0.763142 0
M  V30 2135 C 195.557 -1.72354 -0.238801 0
M  V30 2136 O 196.733 -2.01249 -0.0778746 0
M  V30 2137 C 193.798 -3.46131 0.198632 0
M  V30 2138 C 192.859 -4.10464 1.25769 0
M  V30 2139 C 192.092 -5.28821 0.72002 0
M  V30 2140 O 192.315 -5.6859 -0.453993 0
M  V30 2141 O 191.249 -5.83437 1.47935 0
M  V30 2142 H 195.075 -2.53312 1.67532 0
M  V30 2143 H 192.66 -1.20867 0.878157 0
M  V30 2144 H 194.542 -4.2125 -0.112401 0
M  V30 2145 H 193.217 -3.16338 -0.686419 0
M  V30 2146 H 192.124 -3.3713 1.62156 0
M  V30 2147 H 193.457 -4.44408 2.11571 0
M  V30 2148 N 195.109 -0.891671 -1.2995 0
M  V30 2149 C 196.386 -0.433307 -1.9074 0
M  V30 2150 C 196.766 1.08646 -1.80995 0
M  V30 2151 O 196.114 1.92476 -1.23147 0
M  V30 2152 C 196.324 -0.938895 -3.36134 0
M  V30 2153 C 197.672 -0.977829 -4.13187 0
M  V30 2154 O 198.696 -0.886015 -3.45005 0
M  V30 2155 O 197.555 -1.11453 -5.35015 0
M  V30 2156 H 194.649 -0.133699 -0.816121 0
M  V30 2157 H 197.195 -0.981011 -1.38471 0
M  V30 2158 H 195.967 -1.98281 -3.37343 0
M  V30 2159 H 195.59 -0.37074 -3.95868 0
M  V30 2160 N 196.587 1.43421 -0.653314 0
M  V30 2161 C 197.55 2.29182 0.0287951 0
M  V30 2162 C 198.55 1.42213 0.750465 0
M  V30 2163 O 199.74 1.63843 0.591701 0
M  V30 2164 C 196.872 3.24278 1.05151 0
M  V30 2165 H 198.065 2.90985 -0.725786 0
M  V30 2166 H 195.618 1.50702 -0.414545 0
M  V30 2167 H 196.353 2.6737 1.83532 0
M  V30 2168 H 196.138 3.88396 0.537687 0
M  V30 2169 H 197.628 3.88647 1.52786 0
M  V30 2170 N 198.065 0.39524 1.52563 0
M  V30 2171 C 199.311 -0.185318 2.01952 0
M  V30 2172 C 199.644 -1.45964 1.28095 0
M  V30 2173 O 198.919 -1.90689 0.38315 0
M  V30 2174 C 199.202 -0.447193 3.57312 0
M  V30 2175 C 199.055 0.842828 4.41833 0
M  V30 2176 C 200.374 -1.23529 4.22408 0
M  V30 2177 H 197.493 -0.0658788 0.73405 0
M  V30 2178 H 200.135 0.525975 1.82575 0
M  V30 2179 H 198.285 -1.05312 3.73954 0
M  V30 2180 H 199.957 1.4795 4.36931 0
M  V30 2181 H 198.2 1.45686 4.08605 0
M  V30 2182 H 198.871 0.614165 5.48573 0
M  V30 2183 H 201.347 -0.722445 4.0978 0
M  V30 2184 H 200.223 -1.38727 5.3108 0
M  V30 2185 H 200.484 -2.25213 3.80436 0
M  V30 2186 N 199.544 -1.57102 0.125237 0
M  V30 2187 C 200.769 -2.0019 -0.542101 0
M  V30 2188 C 201.194 -1.00449 -1.59034 0
M  V30 2189 O 200.552 0.0229423 -1.81285 0
M  V30 2190 C 200.6 -3.42129 -1.13929 0
M  V30 2191 O 199.704 -3.45307 -2.2547 0
M  V30 2192 H 199.045 -0.650171 -0.134812 0
M  V30 2193 H 201.575 -2.03461 0.215553 0
M  V30 2194 H 201.585 -3.80471 -1.4733 0
M  V30 2195 H 200.26 -4.14237 -0.371531 0
M  V30 2196 H 198.837 -3.1879 -1.93462 0
M  V30 2197 N 201.022 0.148545 -1.56898 0
M  V30 2198 C 202.269 0.861418 -1.83264 0
M  V30 2199 C 202.597 1.81239 -0.705883 0
M  V30 2200 O 201.852 1.93305 0.305212 0
M  V30 2201 C 202.151 1.67064 -3.1595 0
M  V30 2202 C 201.817 0.866591 -4.42494 0
M  V30 2203 C 200.479 0.644762 -4.76861 0
M  V30 2204 C 202.831 0.30418 -5.20312 0
M  V30 2205 C 200.159 -0.15021 -5.86508 0
M  V30 2206 C 202.511 -0.477824 -6.30793 0
M  V30 2207 C 201.175 -0.710244 -6.63711 0
M  V30 2208 H 200.445 0.315215 -0.670612 0
M  V30 2209 H 203.092 0.125142 -1.91091 0
M  V30 2210 H 201.397 2.47698 -3.03567 0
M  V30 2211 H 203.094 2.22566 -3.33565 0
M  V30 2212 H 199.684 1.04955 -4.15551 0
M  V30 2213 H 203.868 0.462844 -4.94137 0
M  V30 2214 H 199.124 -0.339796 -6.10455 0
M  V30 2215 H 203.298 -0.92076 -6.90286 0
M  V30 2216 H 200.925 -1.3281 -7.48509 0
M  V30 2217 N 202.5 1.5196 0.417844 0
M  V30 2218 C 203.463 1.74065 1.49111 0
M  V30 2219 C 204.463 0.610537 1.48758 0
M  V30 2220 O 205.653 0.87832 1.50437 0
M  V30 2221 C 202.785 1.81502 2.88565 0
M  V30 2222 H 203.978 2.69869 1.30807 0
M  V30 2223 H 201.531 1.42244 0.647785 0
M  V30 2224 H 202.266 0.875813 3.1225 0
M  V30 2225 H 202.051 2.63651 2.90225 0
M  V30 2226 H 203.541 2.00376 3.66387 0
M  V30 2227 N 203.978 -0.674533 1.42435 0
M  V30 2228 C 204.888 -1.81751 1.48337 0
M  V30 2229 C 205.904 -1.69975 0.372099 0
M  V30 2230 O 207.08 -1.91521 0.62304 0
M  V30 2231 C 204.145 -3.17895 1.38361 0
M  V30 2232 C 203.206 -3.41625 2.59982 0
M  V30 2233 C 202.439 -4.71274 2.50473 0
M  V30 2234 O 202.662 -5.49197 1.54075 0
M  V30 2235 O 201.596 -4.96254 3.4061 0
M  V30 2236 H 205.422 -1.79728 2.44809 0
M  V30 2237 H 203.007 -0.830312 1.24202 0
M  V30 2238 H 204.889 -3.99136 1.35161 0
M  V30 2239 H 203.564 -3.20555 0.450144 0
M  V30 2240 H 202.471 -2.60231 2.68757 0
M  V30 2241 H 203.804 -3.43796 3.52229 0
M  V30 2242 N 205.456 -1.28612 -0.910864 0
M  V30 2243 C 206.403 -1.12786 -2.01365 0
M  V30 2244 C 207.373 -0.024201 -1.66082 0
M  V30 2245 O 208.558 -0.189667 -1.89855 0
M  V30 2246 C 205.698 -0.798743 -3.35729 0
M  V30 2247 C 204.811 -1.98173 -3.83864 0
M  V30 2248 C 203.946 -1.59298 -5.06752 0
M  V30 2249 C 202.985 -2.74245 -5.47226 0
M  V30 2250 N 202.122 -2.35842 -6.61304 0
M  V30 2251 H 206.962 -2.07142 -2.14234 0
M  V30 2252 H 204.499 -1.03093 -1.0493 0
M  V30 2253 H 206.457 -0.588662 -4.13026 0
M  V30 2254 H 205.087 0.10789 -3.2262 0
M  V30 2255 H 204.139 -2.30386 -3.02699 0
M  V30 2256 H 205.451 -2.84343 -4.09818 0
M  V30 2257 H 204.605 -1.34513 -5.916 0
M  V30 2258 H 203.344 -0.702618 -4.82612 0
M  V30 2259 H 202.349 -2.99725 -4.60918 0
M  V30 2260 H 203.574 -3.63928 -5.73353 0
M  V30 2261 H 201.52 -1.49279 -6.38789 0
M  V30 2262 H 201.437 -3.15546 -6.86998 0
M  V30 2263 H 202.705 -2.14348 -7.4945 0
M  V30 2264 N 206.934 1.1197 -1.10907 0
M  V30 2265 C 207.882 2.19927 -0.757303 0
M  V30 2266 C 208.876 1.67564 0.248747 0
M  V30 2267 O 210.082 1.79672 0.108605 0
M  V30 2268 H 206.457 0.716925 -0.226987 0
M  V30 2269 H 208.428 2.46847 -1.67658 0
M  V30 2270 C 207.177 3.47061 -0.210671 0
M  V30 2271 H 206.5 3.87703 -0.976049 0
M  V30 2272 H 207.94 4.24 -0.0026584 0
M  V30 2273 C 206.399 3.19864 1.05777 0
M  V30 2274 O 206.929 3.40049 2.13845 0
M  V30 2275 N 205.135 2.73636 0.978349 0
M  V30 2276 H 204.682 2.5741 0.0988246 0
M  V30 2277 H 204.64 2.55815 1.82773 0
M  V30 2278 N 208.412 0.89855 1.29475 0
M  V30 2279 C 209.66 0.522847 1.9522 0
M  V30 2280 C 209.981 -0.93371 1.71192 0
M  V30 2281 O 209.251 -1.65823 1.04305 0
M  V30 2282 H 207.831 0.190366 0.722336 0
M  V30 2283 H 210.493 1.14459 1.5775 0
M  V30 2284 H 209.589 0.704476 3.04045 0
M  V30 2285 N 209.89 -1.43072 0.660911 0
M  V30 2286 C 211.136 -2.02545 0.186337 0
M  V30 2287 C 211.491 -1.51253 -1.18913 0
M  V30 2288 O 210.784 -0.699167 -1.78388 0
M  V30 2289 C 210.978 -3.57103 0.145563 0
M  V30 2290 C 210.807 -4.23393 1.51554 0
M  V30 2291 C 209.577 -4.59144 2.10984 0
M  V30 2292 C 211.775 -4.51897 2.45548 0
M  V30 2293 N 209.757 -5.10545 3.40907 0
M  V30 2294 C 211.128 -5.04698 3.6011 0
M  V30 2295 C 213.183 -4.33872 2.44253 0
M  V30 2296 C 211.886 -5.41371 4.73613 0
M  V30 2297 C 213.912 -4.71612 3.56842 0
M  V30 2298 C 213.274 -5.24553 4.70131 0
M  V30 2299 H 209.373 -0.773823 0.112792 0
M  V30 2300 H 211.957 -1.74137 0.870885 0
M  V30 2301 H 210.128 -3.85059 -0.508353 0
M  V30 2302 H 211.86 -4.03264 -0.340598 0
M  V30 2303 H 208.615 -4.4444 1.63615 0
M  V30 2304 H 209.039 -5.40689 4.07411 0
M  V30 2305 H 213.681 -3.92208 1.579 0
M  V30 2306 H 211.399 -5.81975 5.60652 0
M  V30 2307 H 214.985 -4.59354 3.57051 0
M  V30 2308 H 213.865 -5.53213 5.5581 0
M  V30 2309 N 211.368 -0.403325 -1.52352 0
M  V30 2310 C 212.593 0.176499 -2.06648 0
M  V30 2311 C 213.018 1.38577 -1.27193 0
M  V30 2312 O 212.376 1.7879 -0.300637 0
M  V30 2313 C 212.424 0.511061 -3.5696 0
M  V30 2314 O 211.528 1.60294 -3.79973 0
M  V30 2315 H 210.869 0.0167337 -0.663789 0
M  V30 2316 H 213.399 -0.574848 -1.96359 0
M  V30 2317 H 213.409 0.771362 -4.00642 0
M  V30 2318 H 212.084 -0.37296 -4.14224 0
M  V30 2319 H 210.661 1.33526 -3.48174 0
M  V30 2320 N 212.846 1.57033 -0.133567 0
M  V30 2321 C 214.076 1.99754 0.527429 0
M  V30 2322 C 214.484 1.01245 1.59832 0
M  V30 2323 O 213.827 -0.000645496 1.837 0
M  V30 2324 C 213.889 3.38903 1.19939 0
M  V30 2325 C 213.553 4.56174 0.274709 0
M  V30 2326 C 214.55 5.17563 -0.492398 0
M  V30 2327 C 212.235 5.01972 0.18153 0
M  V30 2328 C 214.229 6.2315 -1.34027 0
M  V30 2329 C 211.916 6.07416 -0.669958 0
M  V30 2330 C 212.914 6.67874 -1.42947 0
M  V30 2331 O 212.602 7.71279 -2.2668 0
M  V30 2332 H 212.334 0.660702 0.142999 0
M  V30 2333 H 214.888 2.04207 -0.221099 0
M  V30 2334 H 213.118 3.31248 1.99528 0
M  V30 2335 H 214.807 3.65818 1.75875 0
M  V30 2336 H 215.573 4.83087 -0.430367 0
M  V30 2337 H 211.452 4.54652 0.762422 0
M  V30 2338 H 214.996 6.70268 -1.93357 0
M  V30 2339 H 210.893 6.41321 -0.73333 0
M  V30 2340 H 211.661 7.88441 -2.1978 0
M  V30 2341 N 214.325 -0.140222 1.56975 0
M  V30 2342 C 215.602 -0.880769 1.74648 0
M  V30 2343 C 215.982 -1.99036 0.703404 0
M  V30 2344 O 215.33 -2.26821 -0.27648 0
M  V30 2345 C 215.54 -1.417 3.18939 0
M  V30 2346 C 216.888 -1.87774 3.80823 0
M  V30 2347 O 217.912 -1.51427 3.2241 0
M  V30 2348 O 216.771 -2.54827 4.83452 0
M  V30 2349 H 213.865 -0.416713 0.714338 0
M  V30 2350 H 216.411 -0.125618 1.69234 0
M  V30 2351 H 215.183 -0.619902 3.86359 0
M  V30 2352 H 214.806 -2.23546 3.28805 0
M  V30 2353 N 215.803 -1.52179 -0.40978 0
M  V30 2354 C 217.052 -1.65434 -1.15388 0
M  V30 2355 C 217.365 -0.390056 -1.91671 0
M  V30 2356 O 218.571 -0.402399 -2.68501 0
M  V30 2357 C 217.027 -2.92279 -2.10003 0
M  V30 2358 C 216.635 -4.25813 -1.39239 0
M  V30 2359 C 218.379 -3.14897 -2.84675 0
M  V30 2360 C 216.286 -5.43782 -2.32498 0
M  V30 2361 H 215.216 -0.616267 -0.434432 0
M  V30 2362 H 217.867 -1.78666 -0.418401 0
M  V30 2363 H 216.249 -2.72744 -2.871 0
M  V30 2364 H 217.423 -4.55828 -0.675099 0
M  V30 2365 H 215.738 -4.09292 -0.766097 0
M  V30 2366 H 218.335 -4.0021 -3.54593 0
M  V30 2367 H 218.678 -2.29103 -3.47588 0
M  V30 2368 H 219.211 -3.34901 -2.14677 0
M  V30 2369 H 215.95 -6.3192 -1.74233 0
M  V30 2370 H 215.47 -5.18106 -3.02201 0
M  V30 2371 H 217.149 -5.76834 -2.93038 0
M  V30 2372 N 217.281 0.66697 -1.42791 0
M  V30 2373 C 218.191 1.80962 -1.49299 0
M  V30 2374 C 219.207 1.69775 -0.381108 0
M  V30 2375 O 220.383 1.91188 -0.633188 0
M  V30 2376 C 217.448 3.17156 -1.40045 0
M  V30 2377 C 216.509 3.40242 -2.6179 0
M  V30 2378 C 215.742 4.69939 -2.52969 0
M  V30 2379 O 215.965 5.48372 -1.56985 0
M  V30 2380 O 214.899 4.94441 -3.43237 0
M  V30 2381 H 218.725 1.78427 -2.45759 0
M  V30 2382 H 216.31 0.823713 -1.24641 0
M  V30 2383 H 218.192 3.98413 -1.37276 0
M  V30 2384 H 216.867 3.20312 -0.467138 0
M  V30 2385 H 215.774 2.58802 -2.70134 0
M  V30 2386 H 217.107 3.41923 -3.54047 0
M  V30 2387 N 218.759 1.29093 0.90403 0
M  V30 2388 C 219.669 1.15727 2.0407 0
M  V30 2389 C 220.685 0.0815308 1.73809 0
M  V30 2390 O 221.861 0.292749 1.99261 0
M  V30 2391 C 218.926 0.830424 3.36608 0
M  V30 2392 C 217.987 1.98955 3.80415 0
M  V30 2393 C 217.22 1.6782 5.06628 0
M  V30 2394 O 217.443 0.597105 5.67266 0
M  V30 2395 O 216.377 2.52486 5.46383 0
M  V30 2396 H 220.203 2.11171 2.18267 0
M  V30 2397 H 217.788 1.08504 1.027 0
M  V30 2398 H 219.67 0.662521 4.16159 0
M  V30 2399 H 218.345 -0.0942678 3.23563 0
M  V30 2400 H 217.252 2.21267 3.01648 0
M  V30 2401 H 218.585 2.89529 3.98037 0
M  V30 2402 N 220.237 -1.11381 1.11499 0
M  V30 2403 C 221.653 -1.35143 0.849031 0
M  V30 2404 C 221.853 -1.94515 -0.525938 0
M  V30 2405 O 220.909 -2.1785 -1.27662 0
M  V30 2406 C 222.222 -2.28249 1.95762 0
M  V30 2407 C 223.77 -2.41812 1.98736 0
M  V30 2408 C 224.245 -3.3824 3.088 0
M  V30 2409 N 225.736 -3.45803 3.08179 0
M  V30 2410 C 226.471 -4.20358 3.89982 0
M  V30 2411 N 225.967 -4.97884 4.8175 0
M  V30 2412 N 227.76 -4.15877 3.78157 0
M  V30 2413 H 219.911 -0.712062 2.00109 0
M  V30 2414 H 222.174 -0.376025 0.870235 0
M  V30 2415 H 221.88 -1.91817 2.94787 0
M  V30 2416 H 221.754 -3.28473 1.85433 0
M  V30 2417 H 224.141 -2.77518 1.00338 0
M  V30 2418 H 224.222 -1.41437 2.13141 0
M  V30 2419 H 223.866 -3.03261 4.07425 0
M  V30 2420 H 223.796 -4.38471 2.91635 0
M  V30 2421 H 226.287 -2.90506 2.41691 0
M  V30 2422 H 226.6 -5.52142 5.40702 0
M  V30 2423 H 224.945 -4.97043 4.85771 0
M  V30 2424 H 228.136 -3.544 3.05808 0
M  V30 2425 H 228.309 -4.73723 4.42143 0
M  V30 2426 N 221.715 -0.905404 -1.28997 0
M  V30 2427 C 222.662 -0.385892 -2.27551 0
M  V30 2428 C 223.632 0.535113 -1.57244 0
M  V30 2429 O 224.817 0.459119 -1.85194 0
M  V30 2430 C 221.957 0.375461 -3.43051 0
M  V30 2431 C 221.07 -0.577092 -4.28128 0
M  V30 2432 C 220.205 0.201879 -5.30816 0
M  V30 2433 C 219.244 -0.744829 -6.07551 0
M  V30 2434 N 218.381 9.42587e-05 -7.021 0
M  V30 2435 H 223.221 -1.23139 -2.71368 0
M  V30 2436 H 220.758 -0.618542 -1.33463 0
M  V30 2437 H 222.716 0.832992 -4.088 0
M  V30 2438 H 221.346 1.18537 -3.00248 0
M  V30 2439 H 220.398 -1.15315 -3.62501 0
M  V30 2440 H 221.71 -1.30152 -4.8152 0
M  V30 2441 H 220.864 0.720351 -6.02408 0
M  V30 2442 H 219.603 0.959413 -4.7817 0
M  V30 2443 H 218.608 -1.27475 -5.34818 0
M  V30 2444 H 219.833 -1.50178 -6.62286 0
M  V30 2445 H 217.779 0.739791 -6.51815 0
M  V30 2446 H 217.696 -0.664321 -7.53076 0
M  V30 2447 H 218.964 0.498644 -7.77903 0
M  V30 2448 N 223.193 1.4272 -0.668489 0
M  V30 2449 C 224.439 2.01923 -0.188419 0
M  V30 2450 C 224.772 1.52704 1.19979 0
M  V30 2451 O 224.047 0.726566 1.8042 0
M  V30 2452 C 224.33 3.59451 -0.216085 0
M  V30 2453 C 224.183 4.18864 -1.6393 0
M  V30 2454 C 225.502 4.37903 0.439179 0
M  V30 2455 H 222.621 0.733674 -0.0699412 0
M  V30 2456 H 225.263 1.69822 -0.852076 0
M  V30 2457 H 223.413 3.86929 0.349012 0
M  V30 2458 H 225.085 4.02362 -2.25616 0
M  V30 2459 H 223.328 3.74933 -2.18193 0
M  V30 2460 H 223.999 5.27987 -1.61039 0
M  V30 2461 H 226.475 4.16079 -0.0417878 0
M  V30 2462 H 225.351 5.47519 0.389157 0
M  V30 2463 H 225.612 4.15303 1.51577 0
M  V30 2464 N 224.671 0.411399 1.52136 0
M  V30 2465 C 226.082 -0.0576826 1.86611 0
M  V30 2466 C 226.433 -1.44238 1.33003 0
M  V30 2467 O 225.558 -2.05759 0.670228 0
M  V30 2468 C 226.153 -0.111448 3.38617 0
M  V30 2469 C 224.712 -0.52487 3.72723 0
M  V30 2470 C 223.859 0.299176 2.75681 0
M  V30 2471 H 226.81 0.628368 1.4573 0
M  V30 2472 H 226.831 -0.926252 3.69054 0
M  V30 2473 H 226.343 0.896488 3.77604 0
M  V30 2474 H 224.444 -1.53936 3.39315 0
M  V30 2475 H 224.557 -0.267681 4.78352 0
M  V30 2476 H 222.921 -0.238814 2.53578 0
M  V30 2477 H 223.704 1.3055 3.17508 0
M  V30 2478 N 226.149 -1.5696 0.141893 0
M  V30 2479 C 227.096 -2.16501 -0.799737 0
M  V30 2480 C 228.066 -1.09643 -1.24771 0
M  V30 2481 O 229.251 -1.3766 -1.32115 0
M  V30 2482 C 226.391 -2.78679 -2.03549 0
M  V30 2483 C 225.504 -3.99914 -1.6338 0
M  V30 2484 C 224.639 -4.50106 -2.82096 0
M  V30 2485 C 223.678 -5.63819 -2.38275 0
M  V30 2486 N 222.815 -6.08651 -3.49983 0
M  V30 2487 H 227.655 -2.96632 -0.285179 0
M  V30 2488 H 225.192 -1.46533 -0.129053 0
M  V30 2489 H 227.15 -3.1287 -2.75986 0
M  V30 2490 H 225.78 -2.012 -2.52425 0
M  V30 2491 H 224.832 -3.71735 -0.807279 0
M  V30 2492 H 226.144 -4.82311 -1.27192 0
M  V30 2493 H 225.298 -4.86325 -3.62729 0
M  V30 2494 H 224.037 -3.66706 -3.21525 0
M  V30 2495 H 223.042 -5.2718 -1.56081 0
M  V30 2496 H 224.267 -6.49 -1.99938 0
M  V30 2497 H 222.213 -5.28188 -3.89042 0
M  V30 2498 H 222.13 -6.85961 -3.17794 0
M  V30 2499 H 223.398 -6.49515 -4.30988 0
M  V30 2500 N 227.627 0.131896 -1.57047 0
M  V30 2501 C 229.038 0.690407 -1.73465 0
M  V30 2502 C 229.389 1.8094 -0.758629 0
M  V30 2503 O 228.514 2.16282 0.0713813 0
M  V30 2504 C 229.109 1.25916 -3.14532 0
M  V30 2505 C 227.668 1.76409 -3.32501 0
M  V30 2506 C 226.815 0.658579 -2.69366 0
M  V30 2507 H 229.766 -0.0939144 -1.58422 0
M  V30 2508 H 229.787 2.12892 -3.15369 0
M  V30 2509 H 229.299 0.444515 -3.85546 0
M  V30 2510 H 227.4 2.60391 -2.66509 0
M  V30 2511 H 227.513 1.88241 -4.4057 0
M  V30 2512 H 225.877 1.08899 -2.30246 0
M  V30 2513 H 226.66 -0.14487 -3.42994 0
M  V30 2514 N 229.106 1.52395 0.401703 0
M  V30 2515 C 230.053 1.76268 1.48991 0
M  V30 2516 C 231.023 0.605386 1.54675 0
M  V30 2517 O 232.208 0.843742 1.7113 0
M  V30 2518 C 229.348 1.92592 2.86361 0
M  V30 2519 C 228.461 3.20259 2.89928 0
M  V30 2520 C 227.596 3.26972 4.18644 0
M  V30 2521 C 226.635 4.48812 4.16214 0
M  V30 2522 N 225.772 4.52877 5.36514 0
M  V30 2523 H 230.612 2.6914 1.27935 0
M  V30 2524 H 228.149 1.33355 0.620871 0
M  V30 2525 H 230.107 2.0004 3.66115 0
M  V30 2526 H 228.737 1.03093 3.05895 0
M  V30 2527 H 227.789 3.21945 2.02621 0
M  V30 2528 H 229.101 4.10056 2.83999 0
M  V30 2529 H 228.255 3.33533 5.06794 0
M  V30 2530 H 226.994 2.35126 4.27278 0
M  V30 2531 H 225.999 4.4239 3.26453 0
M  V30 2532 H 227.224 5.41961 4.09213 0
M  V30 2533 H 225.17 3.63917 5.45802 0
M  V30 2534 H 225.087 5.36529 5.32609 0
M  V30 2535 H 226.355 4.63676 6.26597 0
M  V30 2536 N 230.584 -0.659388 1.43143 0
M  V30 2537 C 231.809 -1.45221 1.48073 0
M  V30 2538 C 232.234 -1.87845 0.097995 0
M  V30 2539 O 231.592 -1.56985 -0.90694 0
M  V30 2540 C 231.64 -2.66748 2.42647 0
M  V30 2541 O 230.744 -3.65583 1.90848 0
M  V30 2542 H 230.085 -0.435669 0.501088 0
M  V30 2543 H 232.615 -0.807432 1.87994 0
M  V30 2544 H 232.625 -3.14637 2.59745 0
M  V30 2545 H 231.3 -2.35067 3.43098 0
M  V30 2546 H 229.877 -3.24693 1.83381 0
M  V30 2547 N 232.062 -1.29571 -0.897171 0
M  V30 2548 C 233.009 -1.14916 -2.00158 0
M  V30 2549 C 233.979 -0.0418149 -1.66047 0
M  V30 2550 O 235.164 -0.209793 -1.89643 0
M  V30 2551 C 232.304 -0.834307 -3.34863 0
M  V30 2552 C 231.417 -2.02234 -3.8174 0
M  V30 2553 C 230.552 -1.64664 -5.05034 0
M  V30 2554 C 229.591 -2.80033 -5.44286 0
M  V30 2555 N 228.728 -2.42843 -6.58765 0
M  V30 2556 H 233.568 -2.09403 -2.12025 0
M  V30 2557 H 231.105 -1.042 -1.0383 0
M  V30 2558 H 233.063 -0.632436 -4.12379 0
M  V30 2559 H 231.693 0.0736656 -3.22716 0
M  V30 2560 H 230.745 -2.33583 -3.00238 0
M  V30 2561 H 232.057 -2.88673 -4.06779 0
M  V30 2562 H 231.211 -1.4078 -5.9014 0
M  V30 2563 H 229.95 -0.753766 -4.8184 0
M  V30 2564 H 228.955 -3.04596 -4.57713 0
M  V30 2565 H 230.18 -3.69989 -5.6946 0
M  V30 2566 H 228.126 -1.56046 -6.3717 0
M  V30 2567 H 228.043 -3.22815 -6.83613 0
M  V30 2568 H 229.311 -2.22285 -7.47134 0
M  V30 2569 N 233.54 1.10788 -1.12088 0
M  V30 2570 C 234.765 1.87002 -0.896949 0
M  V30 2571 C 235.19 1.79933 0.548261 0
M  V30 2572 O 234.548 1.16662 1.38779 0
M  V30 2573 C 234.596 3.3349 -1.37174 0
M  V30 2574 O 233.7 4.08745 -0.547831 0
M  V30 2575 H 233.041 0.580397 -0.322545 0
M  V30 2576 H 235.571 1.39996 -1.49206 0
M  V30 2577 H 235.581 3.84339 -1.36922 0
M  V30 2578 H 234.256 3.37951 -2.42408 0
M  V30 2579 H 232.833 3.6776 -0.617034 0
M  V30 2580 N 235.018 0.912232 1.28515 0
M  V30 2581 C 236.248 0.559604 1.98877 0
M  V30 2582 C 236.656 -0.863113 1.68366 0
M  V30 2583 O 235.999 -1.58304 0.931969 0
M  V30 2584 C 236.061 0.68703 3.52874 0
M  V30 2585 C 235.725 2.07901 4.06972 0
M  V30 2586 C 236.722 3.05157 4.20922 0
M  V30 2587 C 234.407 2.39178 4.417 0
M  V30 2588 C 236.401 4.31806 4.68852 0
M  V30 2589 C 234.088 3.66068 4.89324 0
M  V30 2590 C 235.086 4.62195 5.02856 0
M  V30 2591 O 234.774 5.86829 5.49442 0
M  V30 2592 H 234.506 0.212191 0.641834 0
M  V30 2593 H 237.06 1.22712 1.64715 0
M  V30 2594 H 235.29 -0.0375486 3.86682 0
M  V30 2595 H 236.979 0.341727 4.04459 0
M  V30 2596 H 237.745 2.82311 3.94367 0
M  V30 2597 H 233.624 1.65109 4.30418 0
M  V30 2598 H 237.168 5.06842 4.79329 0
M  V30 2599 H 233.065 3.88739 5.15318 0
M  V30 2600 H 233.833 5.89597 5.6773 0
M  V30 2601 N 236.496 -1.42363 0.676048 0
M  V30 2602 C 237.744 -2.01123 0.198437 0
M  V30 2603 C 238.065 -1.53731 -1.19966 0
M  V30 2604 O 237.335 -0.759518 -1.80577 0
M  V30 2605 H 235.915 -0.743678 0.0703721 0
M  V30 2606 H 238.577 -1.74263 0.872837 0
M  V30 2607 H 237.673 -3.11454 0.200686 0
M  V30 2608 N 237.974 -0.419461 -1.51915 0
M  V30 2609 C 238.937 0.389116 -2.25873 0
M  V30 2610 C 239.937 0.964924 -1.28631 0
M  V30 2611 O 241.127 0.842179 -1.52489 0
M  V30 2612 C 238.259 1.54874 -3.03689 0
M  V30 2613 H 239.452 -0.258799 -2.98781 0
M  V30 2614 H 237.005 -0.172209 -1.55348 0
M  V30 2615 H 237.74 2.23323 -2.35154 0
M  V30 2616 H 237.525 1.14223 -3.75094 0
M  V30 2617 H 239.015 2.12046 -3.59759 0
M  V30 2618 N 239.452 1.56882 -0.150215 0
M  V30 2619 C 240.4 2.18214 0.805313 0
M  V30 2620 C 241.394 1.14006 1.25296 0
M  V30 2621 O 242.6 1.3225 1.22107 0
M  V30 2622 H 238.975 0.698762 0.277913 0
M  V30 2623 H 240.946 2.97231 0.263862 0
M  V30 2624 C 239.695 2.82065 2.03309 0
M  V30 2625 H 239.018 3.61968 1.69763 0
M  V30 2626 H 240.458 3.28477 2.68103 0
M  V30 2627 C 238.917 1.80739 2.84315 0
M  V30 2628 O 239.447 1.27983 3.80767 0
M  V30 2629 N 237.653 1.4997 2.48913 0
M  V30 2630 H 237.2 1.93062 1.70542 0
M  V30 2631 H 237.158 0.824217 3.03404 0
M  V30 2632 N 240.93 -0.123565 1.57115 0
M  V30 2633 C 242.177 -0.832153 1.84612 0
M  V30 2634 C 242.505 -1.80093 0.734627 0
M  V30 2635 O 241.76 -1.93766 -0.27442 0
M  V30 2636 C 242.059 -1.62016 3.18568 0
M  V30 2637 C 241.725 -0.796084 4.43817 0
M  V30 2638 C 240.387 -0.568816 4.77826 0
M  V30 2639 C 242.739 -0.221364 5.2073 0
M  V30 2640 C 240.067 0.243499 5.86194 0
M  V30 2641 C 242.419 0.578117 6.29953 0
M  V30 2642 C 241.083 0.815744 6.62497 0
M  V30 2643 H 240.353 -0.304507 0.675542 0
M  V30 2644 H 243 -0.0947248 1.91266 0
M  V30 2645 H 241.305 -2.42837 3.0747 0
M  V30 2646 H 243.002 -2.17231 3.37064 0
M  V30 2647 H 239.592 -0.983307 4.17168 0
M  V30 2648 H 243.776 -0.384173 4.94811 0
M  V30 2649 H 239.032 0.436871 6.09837 0
M  V30 2650 H 243.206 1.03046 6.88734 0
M  V30 2651 H 240.833 1.44701 7.46301 0
M  V30 2652 N 242.408 -1.52605 -0.393616 0
M  V30 2653 C 243.633 -1.71592 -1.16495 0
M  V30 2654 C 244.058 -0.43133 -1.83088 0
M  V30 2655 O 243.416 0.612523 -1.7064 0
M  V30 2656 C 243.464 -2.86318 -2.19213 0
M  V30 2657 O 242.568 -2.52969 -3.257 0
M  V30 2658 H 241.909 -0.570734 -0.33935 0
M  V30 2659 H 244.439 -1.99377 -0.459324 0
M  V30 2660 H 244.449 -3.1168 -2.63286 0
M  V30 2661 H 243.124 -3.79511 -1.7013 0
M  V30 2662 H 241.701 -2.38332 -2.86797 0
M  V30 2663 N 243.887 0.651787 -1.4349 0
M  V30 2664 C 245.133 1.4121 -1.46395 0
M  V30 2665 C 245.488 1.92202 -0.087366 0
M  V30 2666 O 244.781 1.69452 0.894231 0
M  V30 2667 C 244.975 2.60914 -2.44251 0
M  V30 2668 C 244.804 2.21639 -3.91288 0
M  V30 2669 C 243.574 2.09897 -4.59643 0
M  V30 2670 C 245.772 1.81835 -4.81083 0
M  V30 2671 N 243.754 1.63967 -5.91598 0
M  V30 2672 C 245.125 1.46998 -6.02322 0
M  V30 2673 C 247.18 1.69031 -4.6833 0
M  V30 2674 C 245.883 1.00638 -7.12225 0
M  V30 2675 C 247.909 1.24077 -5.78238 0
M  V30 2676 C 247.271 0.901772 -6.98604 0
M  V30 2677 H 243.37 0.512322 -0.590805 0
M  V30 2678 H 245.954 0.74989 -1.7968 0
M  V30 2679 H 244.125 3.24792 -2.1299 0
M  V30 2680 H 245.857 3.27622 -2.37584 0
M  V30 2681 H 242.612 2.297 -4.14168 0
M  V30 2682 H 243.036 1.43359 -6.61647 0
M  V30 2683 H 247.678 1.93878 -3.75727 0
M  V30 2684 H 245.396 0.745399 -8.04655 0
M  V30 2685 H 248.982 1.14657 -5.7039 0
M  V30 2686 H 247.862 0.559226 -7.82203 0
M  V30 2687 N 245.365 1.30045 0.890287 0
M  V30 2688 C 246.313 1.15873 2.01683 0
M  V30 2689 C 247.307 0.0719403 1.69247 0
M  V30 2690 O 248.513 0.232414 1.78493 0
M  V30 2691 H 244.888 0.358203 0.661207 0
M  V30 2692 H 246.859 2.11229 2.10772 0
M  V30 2693 C 245.608 0.861842 3.36849 0
M  V30 2694 H 244.931 1.69016 3.62317 0
M  V30 2695 H 246.371 0.802762 4.16331 0
M  V30 2696 C 244.83 -0.435132 3.34078 0
M  V30 2697 O 245.36 -1.4583 3.74295 0
M  V30 2698 N 243.566 -0.444377 2.87182 0
M  V30 2699 H 243.113 0.388723 2.5465 0
M  V30 2700 H 243.071 -1.31213 2.85711 0
M  V30 2701 N 246.843 -1.10192 1.12674 0
M  V30 2702 C 247.79 -2.16606 0.796906 0
M  V30 2703 C 248.76 -1.64394 -0.237476 0
M  V30 2704 O 249.945 -1.90474 -0.111484 0
M  V30 2705 C 247.085 -3.44116 0.26043 0
M  V30 2706 C 246.198 -4.10268 1.35293 0
M  V30 2707 C 245.333 -5.25507 0.775621 0
M  V30 2708 C 244.372 -5.83567 1.84706 0
M  V30 2709 N 243.509 -6.90179 1.28829 0
M  V30 2710 H 248.349 -2.44163 1.70846 0
M  V30 2711 H 245.886 -1.19846 0.85295 0
M  V30 2712 H 247.844 -4.17143 -0.0686814 0
M  V30 2713 H 246.474 -3.16901 -0.614274 0
M  V30 2714 H 245.526 -3.35184 1.79877 0
M  V30 2715 H 246.838 -4.4946 2.16303 0
M  V30 2716 H 245.992 -6.05398 0.397327 0
M  V30 2717 H 244.731 -4.87656 -0.0656581 0
M  V30 2718 H 243.736 -5.02344 2.23452 0
M  V30 2719 H 244.961 -6.23482 2.69161 0
M  V30 2720 H 242.907 -6.54322 0.468881 0
M  V30 2721 H 242.824 -7.28097 2.03497 0
M  V30 2722 H 244.092 -7.73844 0.937311 0
M  V30 2723 N 248.321 -0.919034 -1.28029 0
M  V30 2724 C 249.737 -0.617972 -1.4715 0
M  V30 2725 C 249.937 0.835242 -1.83374 0
M  V30 2726 O 248.993 1.61388 -1.94191 0
M  V30 2727 C 250.306 -1.56041 -2.57044 0
M  V30 2728 C 251.854 -1.56769 -2.7091 0
M  V30 2729 C 252.329 -2.49688 -3.83953 0
M  V30 2730 N 253.82 -2.47845 -3.91314 0
M  V30 2731 C 254.555 -3.16437 -4.78179 0
M  V30 2732 N 254.051 -3.94376 -5.69596 0
M  V30 2733 N 255.844 -3.05498 -4.71834 0
M  V30 2734 H 247.995 -1.85866 -1.02798 0
M  V30 2735 H 250.258 -0.797506 -0.512531 0
M  V30 2736 H 249.964 -2.59671 -2.372 0
M  V30 2737 H 249.838 -1.29551 -3.54255 0
M  V30 2738 H 252.225 -0.538745 -2.90141 0
M  V30 2739 H 252.306 -1.87305 -1.74214 0
M  V30 2740 H 251.95 -3.52688 -3.65477 0
M  V30 2741 H 251.88 -2.16453 -4.80058 0
M  V30 2742 H 254.371 -1.91234 -3.25941 0
M  V30 2743 H 254.684 -4.43721 -6.32718 0
M  V30 2744 H 253.029 -3.98481 -5.69419 0
M  V30 2745 H 256.22 -2.44108 -3.99411 0
M  V30 2746 H 256.393 -3.59225 -5.39316 0
M  V30 2747 N 249.799 1.42003 -0.683588 0
M  V30 2748 C 251.027 2.05746 -0.218182 0
M  V30 2749 C 251.442 1.51396 1.12804 0
M  V30 2750 O 250.799 0.657303 1.70252 0
M  V30 2751 C 250.85 3.61171 -0.154131 0
M  V30 2752 O 250.571 4.13508 -1.44716 0
M  V30 2753 C 252.072 4.42042 0.333713 0
M  V30 2754 H 249.292 0.662888 -0.10402 0
M  V30 2755 H 251.836 1.81987 -0.9328 0
M  V30 2756 H 249.991 3.84012 0.511231 0
M  V30 2757 H 250.405 5.07453 -1.32632 0
M  V30 2758 H 251.879 5.51028 0.327423 0
M  V30 2759 H 252.356 4.17269 1.37053 0
M  V30 2760 H 252.962 4.24239 -0.300222 0
M  V30 2761 N 251.277 0.427512 1.51691 0
M  V30 2762 C 252.693 0.0792977 1.59403 0
M  V30 2763 C 252.893 -1.41035 1.43914 0
M  V30 2764 O 251.949 -2.17922 1.27539 0
M  V30 2765 C 253.262 0.590636 2.94842 0
M  V30 2766 C 254.81 0.550215 3.08126 0
M  V30 2767 C 255.285 1.03836 4.46074 0
M  V30 2768 N 256.776 0.995943 4.52366 0
M  V30 2769 C 257.511 1.34463 5.57411 0
M  V30 2770 N 257.007 1.76569 6.69922 0
M  V30 2771 N 258.8 1.26343 5.47717 0
M  V30 2772 H 250.951 1.39687 1.60004 0
M  V30 2773 H 253.214 0.575003 0.753708 0
M  V30 2774 H 252.92 1.63251 3.11516 0
M  V30 2775 H 252.794 0.0102061 3.77199 0
M  V30 2776 H 255.181 -0.482654 2.91126 0
M  V30 2777 H 255.262 1.16693 2.27632 0
M  V30 2778 H 254.906 2.06965 4.63819 0
M  V30 2779 H 254.836 0.398286 5.25092 0
M  V30 2780 H 257.327 0.68661 3.7161 0
M  V30 2781 H 257.64 2.01438 7.46085 0
M  V30 2782 H 255.985 1.80488 6.71155 0
M  V30 2783 H 259.176 0.933209 4.58703 0
M  V30 2784 H 259.349 1.53846 6.29472 0
M  V30 2785 N 252.755 -1.56801 0.158532 0
M  V30 2786 C 254.001 -1.96781 -0.490405 0
M  V30 2787 C 254.334 -1.04397 -1.63753 0
M  V30 2788 O 253.609 -0.0885805 -1.94298 0
M  V30 2789 C 253.892 -3.4635 -0.985594 0
M  V30 2790 C 253.745 -4.49512 0.160824 0
M  V30 2791 C 255.064 -3.98697 -1.86355 0
M  V30 2792 H 252.183 -0.715482 -0.176788 0
M  V30 2793 H 254.825 -1.88451 0.242088 0
M  V30 2794 H 252.975 -3.53579 -1.60978 0
M  V30 2795 H 254.647 -4.54353 0.797537 0
M  V30 2796 H 252.89 -4.26013 0.818256 0
M  V30 2797 H 253.561 -5.51531 -0.227569 0
M  V30 2798 H 256.037 -3.94019 -1.33746 0
M  V30 2799 H 254.913 -5.03792 -2.17909 0
M  V30 2800 H 255.174 -3.41744 -2.8047 0
M  V30 2801 N 254.233 0.115231 -1.57178 0
M  V30 2802 C 255.458 0.840354 -1.89612 0
M  V30 2803 C 255.883 1.72464 -0.750845 0
M  V30 2804 O 255.241 1.78826 0.298478 0
M  V30 2805 C 255.289 1.64654 -3.20814 0
M  V30 2806 O 254.393 2.7538 -3.06985 0
M  V30 2807 H 253.734 0.232158 -0.622092 0
M  V30 2808 H 256.264 0.0964977 -2.04372 0
M  V30 2809 H 256.274 2.03499 -3.53627 0
M  V30 2810 H 254.949 0.997416 -4.03763 0
M  V30 2811 H 253.526 2.3971 -2.85646 0
M  V30 2812 N 255.711 1.52812 0.385517 0
M  V30 2813 C 256.939 1.71907 1.15133 0
M  V30 2814 C 257.354 0.439004 1.83625 0
M  V30 2815 O 256.711 -0.586765 1.7281 0
M  V30 2816 C 256.762 2.87099 2.19673 0
M  V30 2817 O 256.483 4.10151 1.53973 0
M  V30 2818 C 257.984 3.17902 3.08955 0
M  V30 2819 H 255.204 0.575479 0.345057 0
M  V30 2820 H 257.748 1.99476 0.45052 0
M  V30 2821 H 255.903 2.61982 2.85384 0
M  V30 2822 H 256.317 4.74514 2.23465 0
M  V30 2823 H 257.791 4.01959 3.7833 0
M  V30 2824 H 258.268 2.3243 3.72657 0
M  V30 2825 H 258.874 3.44871 2.48885 0
M  V30 2826 N 257.189 -0.644168 1.43834 0
M  V30 2827 C 258.136 -1.75671 1.49694 0
M  V30 2828 C 259.106 -1.6246 0.345809 0
M  V30 2829 O 260.291 -1.82573 0.554234 0
M  V30 2830 C 257.431 -3.13867 1.43463 0
M  V30 2831 C 256.544 -3.38147 2.6885 0
M  V30 2832 C 255.679 -4.66241 2.54544 0
M  V30 2833 C 254.718 -4.83657 3.75157 0
M  V30 2834 N 253.855 -6.03016 3.59605 0
M  V30 2835 H 258.695 -1.69998 2.44754 0
M  V30 2836 H 256.232 -0.829458 1.21484 0
M  V30 2837 H 258.19 -3.9377 1.37843 0
M  V30 2838 H 256.82 -3.18588 0.519783 0
M  V30 2839 H 255.872 -2.52276 2.84712 0
M  V30 2840 H 257.184 -3.46899 3.58417 0
M  V30 2841 H 256.338 -5.54285 2.46683 0
M  V30 2842 H 255.077 -4.59826 1.62516 0
M  V30 2843 H 254.082 -3.94046 3.83416 0
M  V30 2844 H 255.307 -4.91896 4.68204 0
M  V30 2845 H 253.253 -5.97715 2.7032 0
M  V30 2846 H 253.17 -6.12766 4.42779 0
M  V30 2847 H 254.438 -6.93657 3.55613 0
M  V30 2848 O 258.706 -1.41006 -0.787381 0
M  V30 2849 H 259.397 -1.30255 -1.43364 0
M  V30 END ATOM
M  V30 BEGIN BOND
M  V30 END BOND
M  V30 END CTAB
M  END
$$$$
